data_POSCAR
  _audit_creation_date              2014-09-24
  _audit_creation_method            'ToBaCCo'
  _symmetry_space_group_name_H-M    'P1'
  _symmetry_Int_Tables_number       1
  _symmetry_cell_setting            triclinic
  loop_
  _symmetry_equiv_pos_as_xyz
 x,y,z
_cell_length_a 30.0194
_cell_length_b 30.6897
_cell_length_c 28.4513
_cell_angle_alpha 88.768800
_cell_angle_beta 90.470800
_cell_angle_gamma 89.581700
loop_
  _atom_site_label
  _atom_site_type_symbol
  _atom_site_fract_x
  _atom_site_fract_y
  _atom_site_fract_z
C1 C 0.26066 0.49362 1.00735
 C2 C 0.73966 0.50536 -0.00267
 C3 C -0.00086 0.25078 0.51169
 C4 C 1.00492 0.75362 0.49285
 C5 C 0.50335 0.00733 0.24853
 C6 C 0.50263 -0.00657 0.74827
 C7 C 0.31063 0.03883 0.44142
 H8 H 0.30951 0.06276 0.46877
 C9 C 0.34376 0.04102 0.40747
 H10 H 0.36778 0.06715 0.40860
 C11 C 0.28200 -0.02554 0.40839
 H12 H 0.25901 -0.05242 0.41000
 C13 C 0.31449 -0.02432 0.37329
 H14 H 0.31594 -0.05013 0.34799
 N15 N 0.28092 0.00566 0.44175
 C16 C 0.17756 0.05353 0.53567
 H17 H 0.17930 0.02849 0.56299
 C18 C 0.14601 0.08699 0.53838
 H19 H 0.12363 0.08771 0.56799
 C20 C 0.20297 0.08155 0.46244
 H21 H 0.22460 0.07872 0.43248
 C22 C 0.17127 0.11514 0.46332
 H23 H 0.16917 0.13854 0.43434
 Zn24 Zn 0.24371 0.00243 0.49536
 N25 N 0.20555 0.05165 0.49839
 C26 C 0.28123 0.02636 0.58436
 N27 N 0.28247 -0.00191 0.54815
 C28 C 0.31463 -0.03321 0.54589
 C29 C 0.34829 -0.03597 0.57992
 C30 C 0.31375 0.02405 0.61983
 C31 C 0.17863 -0.04977 0.45594
 C32 C 0.14684 -0.08257 0.45484
 C33 C 0.17108 -0.10657 0.53250
 C34 C 0.20324 -0.07390 0.53164
 N35 N 0.20622 -0.04628 0.49375
 H36 H 0.25604 0.05161 0.58510
 H37 H 0.31501 -0.05501 0.51651
 H38 H 0.37459 -0.06006 0.57676
 H39 H 0.31325 0.04746 0.64778
 H40 H 0.18085 -0.02646 0.42700
 H41 H 0.12490 -0.08490 0.42459
 H42 H 0.16847 -0.12807 0.56302
 H43 H 0.22474 -0.06968 0.56183
 C44 C 0.14245 0.11807 0.50172
 C45 C 0.34650 0.00879 0.37328
 C46 C 0.14246 -0.11098 0.49374
 C47 C 0.34835 -0.00671 0.61705
 C48 C 0.68966 0.02853 0.55100
 H49 H 0.68774 0.05188 0.52201
 C50 C 0.65711 0.02866 0.58554
 H51 H 0.63004 0.05190 0.58173
 C52 C 0.72588 -0.03197 0.58795
 H53 H 0.75202 -0.05629 0.58817
 C54 C 0.69459 -0.03224 0.62418
 H55 H 0.69795 -0.05619 0.65247
 N56 N 0.72308 -0.00150 0.55257
 C57 C 0.82545 0.05924 0.46622
 H58 H 0.82487 0.03833 0.43609
 C59 C 0.85498 0.09411 0.46762
 H60 H 0.87707 0.09997 0.43830
 C61 C 0.79839 0.07586 0.54186
 H62 H 0.77670 0.06814 0.57096
 C63 C 0.82791 0.11068 0.54504
 H64 H 0.82823 0.13011 0.57637
 Zn65 Zn 0.76148 0.00113 0.50014
 N66 N 0.79767 0.05106 0.50280
 C67 C 0.72023 0.03857 0.41746
 N68 N 0.72387 0.00283 0.44643
 C69 C 0.69725 -0.03234 0.44080
 C70 C 0.66543 -0.03262 0.40491
 C71 C 0.68822 0.03995 0.38143
 C72 C 0.82761 -0.05589 0.53566
 C73 C 0.85746 -0.09094 0.53504
 C74 C 0.83198 -0.10660 0.45642
 C75 C 0.80213 -0.07174 0.45885
 N76 N 0.80005 -0.04758 0.49832
 H77 H 0.74095 0.06661 0.42327
 H78 H 0.70020 -0.05990 0.46502
 H79 H 0.64389 -0.06059 0.40176
 H80 H 0.68504 0.06891 0.35921
 H81 H 0.82654 -0.03508 0.56584
 H82 H 0.87920 -0.09721 0.56502
 H83 H 0.83323 -0.12559 0.42480
 H84 H 0.78131 -0.06357 0.42878
 C85 C 0.85655 0.12023 0.50750
 C86 C 0.65932 -0.00174 0.62327
 C87 C 0.85978 -0.11671 0.49500
 C88 C 0.66003 0.00415 0.37521
 C89 C 0.47376 0.18392 1.04011
 H90 H 0.44887 0.18283 1.01246
 C91 C 0.47245 0.15392 1.07758
 H92 H 0.44640 0.12970 1.07849
 C93 C 0.53900 0.21587 1.07125
 H94 H 0.56525 0.23964 1.06818
 C95 C 0.53919 0.18615 1.10919
 H96 H 0.56527 0.18780 1.13560
 N97 N 0.50635 0.21441 1.03789
 C98 C 0.45025 0.31639 0.94590
 H99 H 0.47516 0.31779 0.91867
 C100 C 0.41587 0.34722 0.94599
 H101 H 0.41436 0.37224 0.91858
 C102 C 0.42420 0.28434 1.01700
 H103 H 0.42838 0.26080 1.04545
 C104 C 0.38958 0.31477 1.01868
 H105 H 0.36688 0.31376 1.04806
 Zn106 Zn 0.50636 0.25167 0.98403
 N107 N 0.45405 0.28608 0.98132
 C108 C 0.48120 0.21756 0.89512
 N109 N 0.51056 0.21522 0.93174
 C110 C 0.54180 0.18306 0.93509
 C111 C 0.54343 0.15055 0.90167
 C112 C 0.48240 0.18632 0.86018
 C113 C 0.55346 0.32071 1.02103
 C114 C 0.58498 0.35384 1.02237
 C115 C 0.61717 0.32605 0.95131
 C116 C 0.58510 0.29322 0.95142
 N117 N 0.55413 0.29122 0.98603
 H118 H 0.45608 0.24289 0.89346
 H119 H 0.56420 0.18158 0.96507
 H120 H 0.56705 0.12411 0.90696
 H121 H 0.45876 0.18884 0.83131
 H122 H 0.52769 0.31897 1.04736
 H123 H 0.58342 0.37763 1.04984
 H124 H 0.64157 0.32769 0.92351
 H125 H 0.58430 0.27004 0.92335
 C126 C 0.38585 0.34738 0.98350
 C127 C 0.50544 0.15482 1.11277
 C128 C 0.61721 0.35668 0.98718
 C129 C 0.51312 0.15153 0.86367
 C130 C 0.45347 0.81786 -0.04345
 H131 H 0.43297 0.82275 -0.01288
 C132 C 0.45384 0.84927 -0.07959
 H133 H 0.43308 0.87810 -0.07699
 C134 C 0.50727 0.77540 -0.08279
 H135 H 0.52892 0.74710 -0.08315
 C136 C 0.50823 0.80584 -0.12016
 H137 H 0.53074 0.80091 -0.14914
 N138 N 0.48082 0.78245 -0.04502
 C139 C 0.43215 0.68773 0.05842
 H140 H 0.45908 0.68857 0.08388
 C141 C 0.39973 0.65569 0.06250
 H142 H 0.40150 0.63223 0.09146
 C143 C 0.39982 0.71418 -0.01310
 H144 H 0.40119 0.73585 -0.04350
 C145 C 0.36615 0.68292 -0.00994
 H146 H 0.34165 0.68064 -0.03792
 Zn147 Zn 0.48541 0.74786 0.01073
 N148 N 0.43269 0.71505 0.02014
 C149 C 0.46571 0.78840 0.09844
 N150 N 0.49363 0.78754 0.06091
 C151 C 0.52501 0.81882 0.05466
 C152 C 0.52897 0.85272 0.08635
 C153 C 0.46888 0.82154 0.13136
 C154 C 0.52458 0.66424 0.00325
 C155 C 0.55843 0.63299 0.00150
 C156 C 0.61245 0.69077 0.00223
 C157 C 0.57741 0.72108 0.00509
 N158 N 0.53432 0.70741 0.00623
 H159 H 0.43981 0.76442 0.10220
 H160 H 0.54568 0.81868 0.02375
 H161 H 0.55372 0.87764 0.08013
 H162 H 0.44563 0.82222 0.16023
 H163 H 0.49047 0.65361 0.00167
 H164 H 0.54987 0.59885 -0.00046
 H165 H 0.64656 0.70198 0.00172
 H166 H 0.58476 0.75541 0.00636
 C167 C 0.36708 0.65232 0.02736
 C168 C 0.48232 0.84396 -0.11791
 C169 C 0.60295 0.64609 0.00126
 C170 C 0.50039 0.85469 0.12512
 C171 C 1.04533 0.46434 0.17865
 H172 H 1.01849 0.44102 0.17811
 C173 C 1.08178 0.45916 0.14930
 H174 H 1.08283 0.43092 0.12735
 C175 C 1.07641 0.52840 0.20971
 H176 H 1.07405 0.55536 0.23340
 C177 C 1.11288 0.52527 0.17980
 H178 H 1.13756 0.55068 0.18060
 N179 N 1.04395 0.49779 0.20902
 C180 C 0.96621 0.45499 0.32890
 H181 H 0.94565 0.48375 0.33295
 C182 C 0.96594 0.42200 0.36337
 H183 H 0.94540 0.42668 0.39385
 C184 C 1.02024 0.41676 0.28556
 H185 H 1.04228 0.41509 0.25594
 C186 C 1.01966 0.38216 0.31820
 H187 H 1.04021 0.35390 0.31176
 Zn188 Zn 0.99508 0.50151 0.24968
 N189 N 0.99352 0.45220 0.29122
 C190 C 0.91025 0.47403 0.21869
 N191 N 0.94273 0.50421 0.21221
 C192 C 0.94004 0.53453 0.17664
 C193 C 0.90299 0.53605 0.14664
 C194 C 0.87318 0.47371 0.18876
 C195 C 1.02257 0.54621 0.32877
 C196 C 1.02674 0.58091 0.35918
 C197 C 0.98928 0.62717 0.30140
 C198 C 0.98468 0.59120 0.27263
 N199 N 1.00100 0.55159 0.28683
 H200 H 0.91353 0.44948 0.24630
 H201 H 0.96726 0.55679 0.17070
 H202 H 0.90138 0.55993 0.11807
 H203 H 0.84793 0.44899 0.19348
 H204 H 1.03610 0.51466 0.33903
 H205 H 1.04224 0.57486 0.39315
 H206 H 0.97669 0.65849 0.28896
 H207 H 0.96807 0.59519 0.23910
 C208 C 0.99275 0.38453 0.35835
 C209 C 1.11653 0.48971 0.14956
 C210 C 1.00997 0.62224 0.34574
 C211 C 0.86938 0.50512 0.15249
 C212 C -0.05091 0.47352 0.82929
 H213 H -0.02773 0.44640 0.83103
 C214 C -0.08781 0.47380 0.85894
 H215 H -0.09340 0.44644 0.88279
 C216 C -0.07081 0.54317 0.79805
 H217 H -0.06355 0.57078 0.77538
 C218 C -0.10738 0.54529 0.82793
 H219 H -0.12860 0.57400 0.82699
 N220 N -0.04416 0.50705 0.79811
 C221 C 0.03246 0.45465 0.68190
 H222 H 0.05267 0.48306 0.67496
 C223 C 0.03316 0.42018 0.65072
 H224 H 0.05352 0.42349 0.61974
 C225 C -0.02075 0.41842 0.72911
 H226 H -0.04278 0.41804 0.75879
 C227 C -0.01983 0.38245 0.69977
 H228 H -0.04010 0.35459 0.70879
 Zn229 Zn 0.00559 0.50458 0.75685
 N230 N 0.00569 0.45341 0.72016
 C231 C 0.09272 0.48012 0.79114
 N232 N 0.05739 0.50793 0.79439
 C233 C 0.05686 0.54023 0.82630
 C234 C 0.09211 0.54469 0.85784
 C235 C 0.12928 0.48397 0.82167
 C236 C -0.03296 0.56139 0.68892
 C237 C -0.03431 0.59605 0.65647
 C238 C 0.04341 0.60922 0.67265
 C239 C 0.04266 0.57556 0.70645
 N240 N 0.00477 0.55255 0.71403
 H241 H 0.09229 0.45469 0.76543
 H242 H 0.02839 0.56193 0.82787
 H243 H 0.09057 0.56972 0.88407
 H244 H 0.15678 0.46104 0.81988
 H245 H -0.06236 0.54188 0.69472
 H246 H -0.06566 0.60353 0.63919
 H247 H 0.07464 0.62551 0.66645
 H248 H 0.07280 0.56698 0.72564
 C249 C 0.00709 0.38295 0.65950
 C250 C -0.11674 0.50988 0.85800
 C251 C 0.00439 0.62040 0.64718
 C252 C 0.12863 0.51612 0.85599
 C253 C 0.07082 0.21085 0.54394
 C254 C 0.03896 0.21884 0.50820
 C255 C 0.04334 0.19176 0.46833
 C256 C 0.07785 0.16014 0.46523
 C257 C 0.10805 0.15266 0.50289
 C258 C 0.10263 0.17900 0.54155
 C259 C 0.11821 0.18360 0.59077
 C260 C 0.08254 0.21945 0.59425
 H261 H 0.01979 0.19489 0.43943
 H262 H 0.07978 0.14048 0.43415
 H263 H 0.15292 0.19584 0.59280
 H264 H 0.11101 0.15438 0.61307
 H265 H 0.09752 0.25197 0.59946
 H266 H 0.05531 0.21080 0.61885
 C267 C 0.67209 0.54600 0.03081
 C268 C 0.70618 0.54432 -0.00255
 C269 C 0.70458 0.57925 -0.03673
 C270 C 0.67222 0.61333 -0.03473
 C271 C 0.63891 0.61296 0.00005
 C272 C 0.64050 0.57799 0.03176
 C273 C 0.61684 0.55843 0.07261
 C274 C 0.65234 0.52209 0.07173
 H275 H 0.72693 0.58052 -0.06612
 H276 H 0.67231 0.63901 -0.06143
 H277 H 0.58289 0.54715 0.06319
 H278 H 0.61897 0.57906 0.10417
 H279 H 0.63853 0.49000 0.06188
 H280 H 0.67460 0.52174 0.10313
 C281 C 0.95223 -0.18917 0.45328
 C282 C 0.96232 -0.21734 0.49169
 C283 C 0.93339 -0.21350 0.53092
 C284 C 0.89889 -0.18212 0.53144
 C285 C 0.89168 -0.15342 0.49287
 C286 C 0.91684 -0.16026 0.45276
 C287 C 0.93951 -0.12921 0.42004
 C288 C 0.97888 -0.16080 0.42090
 H289 H 0.93883 -0.23209 0.56311
 H290 H 0.87916 -0.17906 0.56292
 H291 H 0.94689 -0.09750 0.43654
 H292 H 0.92249 -0.12680 0.38524
 H293 H 1.00842 -0.14626 0.43795
 H294 H 0.98493 -0.17611 0.38646
 C295 C 0.30069 0.43638 0.95472
 C296 C 0.29139 0.45386 0.99911
 C297 C 0.31745 0.43741 1.03753
 C298 C 0.34801 0.40322 1.03240
 C299 C 0.35420 0.38408 0.98855
 C300 C 0.33175 0.40277 0.94981
 C301 C 0.30531 0.38060 0.91319
 C302 C 0.27083 0.41636 0.91863
 H303 H 0.31434 0.45136 1.07199
 H304 H 0.36678 0.39176 1.06295
 H305 H 0.29354 0.34790 0.92495
 H306 H 0.32205 0.38163 0.87848
 H307 H 0.23929 0.40400 0.93347
 H308 H 0.26706 0.43672 0.88608
 C309 C 0.94600 0.19552 0.55162
 C310 C 0.95719 0.22155 0.51220
 C311 C 0.93009 0.21570 0.47152
 C312 C 0.89611 0.18432 0.47060
 C313 C 0.88795 0.15713 0.51001
 C314 C 0.91159 0.16574 0.55119
 C315 C 0.93490 0.13576 0.58536
 C316 C 0.97284 0.16840 0.58576
 H317 H 0.93661 0.23299 0.43886
 H318 H 0.87760 0.18002 0.43821
 H319 H 0.94413 0.10409 0.56970
 H320 H 0.91715 0.13326 0.61943
 H321 H 1.00379 0.15492 0.57047
 H322 H 0.97693 0.18444 0.62016
 C323 C 0.33539 0.53462 0.01769
 C324 C 0.28851 0.53523 0.01471
 C325 C 0.26742 0.57632 0.02093
 C326 C 0.29243 0.61473 0.02613
 C327 C 0.33923 0.61302 0.02628
 C328 C 0.35977 0.57226 0.02414
 C329 C 0.39620 0.55831 -0.00751
 C330 C 0.36953 0.51739 -0.01553
 H331 H 0.23143 0.57885 0.02057
 H332 H 0.27531 0.64573 0.02891
 H333 H 0.42793 0.55212 0.01199
 H334 H 0.39903 0.57958 -0.03948
 H335 H 0.38678 0.48762 -0.00158
 H336 H 0.35664 0.51509 -0.05213
 C337 C 0.07211 -0.20537 0.45574
 C338 C 0.04419 -0.21396 0.49462
 C339 C 0.04631 -0.18344 0.53143
 C340 C 0.07810 -0.14993 0.53152
 C341 C 0.10750 -0.14444 0.49371
 C342 C 0.10182 -0.17094 0.45504
 C343 C 0.13596 -0.19455 0.42785
 C344 C 0.10471 -0.23305 0.42962
 H345 H 0.02353 -0.18595 0.56065
 H346 H 0.07974 -0.12843 0.56116
 H347 H 0.16747 -0.20013 0.44800
 H348 H 0.13995 -0.18029 0.39191
 H349 H 0.11884 -0.26039 0.45133
 H350 H 0.09203 -0.24200 0.39431
 C351 C 0.71317 0.42729 1.02480
 C352 C 0.71052 0.46389 0.99376
 C353 C 0.67943 0.46061 0.95600
 C354 C 0.65032 0.42491 0.95259
 C355 C 0.65049 0.39172 0.98740
 C356 C 0.68382 0.39286 1.02169
 C357 C 0.68322 0.38399 1.07322
 C358 C 0.71583 0.42134 1.07738
 H359 H 0.67695 0.48649 0.92960
 H360 H 0.62613 0.42446 0.92415
 H361 H 0.69808 0.35171 1.08281
 H362 H 0.65058 0.39121 1.08950
 H363 H 0.74900 0.40952 1.08991
 H364 H 0.70239 0.44930 1.09688
 C365 C 0.54299 0.06900 1.20175
 C366 C 0.50315 0.05044 1.21860
 C367 C 0.46372 0.07417 1.20611
 C368 C 0.46452 0.10931 1.17327
 C369 C 0.50477 0.12296 1.15265
 C370 C 0.54382 0.10440 1.17114
 C371 C 0.58643 0.09018 1.14949
 C372 C 0.58600 0.05132 1.18384
 H373 H 0.43151 0.06496 1.21897
 H374 H 0.43330 0.12461 1.16268
 H375 H 0.61402 0.11320 1.15637
 H376 H 0.58209 0.08096 1.11215
 H377 H 0.61308 0.05238 1.21067
 H378 H 0.58277 0.01983 1.16584
 C379 C -0.03055 0.69180 0.54215
 C380 C 0.00428 0.72192 0.53619
 C381 C 0.03777 0.72046 0.57176
 C382 C 0.03697 0.68915 0.60888
 C383 C 0.00362 0.65680 0.61125
 C384 C -0.03102 0.66104 0.57826
 C385 C -0.05483 0.62857 0.54911
 C386 C -0.05513 0.66263 0.50962
 H387 H 0.06607 0.74191 0.57049
 H388 H 0.06356 0.68999 0.63463
 H389 H -0.08883 0.62135 0.56218
 H390 H -0.03384 0.59955 0.54167
 H391 H -0.08930 0.67486 0.50158
 H392 H -0.03557 0.65208 0.47893
 C393 C 0.50343 0.95643 -0.16800
 C394 C 0.49999 0.95361 -0.21729
 C395 C 0.49013 0.91094 -0.23322
 C396 C 0.48523 0.87468 -0.20162
 C397 C 0.48809 0.88003 -0.15253
 C398 C 0.49699 0.92189 -0.13797
 C399 C 0.50359 0.94683 -0.09451
 C400 C 0.51095 0.98620 -0.12746
 H401 H 0.48376 0.90579 -0.27006
 H402 H 0.47761 0.84302 -0.21555
 H403 H 0.53398 0.93620 -0.07471
 H404 H 0.47270 0.94934 -0.07346
 H405 H 0.54569 0.99827 -0.12540
 H406 H 0.48462 1.01160 -0.12456
 C407 C 1.02911 0.28557 0.43308
 C408 C 0.99722 0.28325 0.46913
 C409 C 0.96042 0.31215 0.46382
 C410 C 0.95765 0.34323 0.42688
 C411 C 0.99258 0.34822 0.39430
 C412 C 1.02669 0.31677 0.39713
 C413 C 1.07607 0.32037 0.39383
 C414 C 1.07904 0.28587 0.43287
 H415 H 0.93342 0.31082 0.48844
 H416 H 0.92826 0.36372 0.42502
 H417 H 1.08837 0.35281 0.40453
 H418 H 1.08904 0.30864 0.35985
 H419 H 1.09452 0.29831 0.46529
 H420 H 1.09349 0.25471 0.42062
 C421 C 0.51074 0.97042 0.16764
 C422 C 0.50194 0.96737 0.21613
 C423 C 0.49511 0.92474 0.23492
 C424 C 0.49538 0.88788 0.20602
 C425 C 0.50254 0.89228 0.15723
 C426 C 0.51177 0.93401 0.13945
 C427 C 0.49056 0.95756 0.09870
 C428 C 0.48846 0.99722 0.12942
 H429 H 0.48953 0.91994 0.27222
 H430 H 0.48961 0.85607 0.22187
 H431 H 0.45723 0.94447 0.08951
 H432 H 0.51380 0.96145 0.06871
 H433 H 0.45380 1.00680 0.13834
 H434 H 0.50969 1.02426 0.11622
 C435 C -0.02917 0.28302 0.59137
 C436 C 0.00293 0.27980 0.55553
 C437 C 0.04013 0.30758 0.56001
 C438 C 0.04312 0.33870 0.59540
 C439 C 0.00783 0.34520 0.62699
 C440 C -0.02657 0.31456 0.62568
 C441 C -0.07581 0.31992 0.62836
 C442 C -0.07916 0.28515 0.59138
 H443 H 0.06708 0.30581 0.53542
 H444 H 0.07269 0.35853 0.59641
 H445 H -0.08737 0.35263 0.61563
 H446 H -0.08919 0.30904 0.66294
 H447 H -0.09429 0.29756 0.55808
 H448 H -0.09443 0.25481 0.60563
 C449 C 0.46784 0.06588 0.78127
 C450 C 0.50382 0.03622 0.77733
 C451 C 0.54497 0.04969 0.79743
 C452 C 0.54910 0.08867 0.82181
 C453 C 0.51181 0.11543 0.82944
 C454 C 0.47207 0.10417 0.80678
 C455 C 0.42706 0.10117 0.82762
 C456 C 0.42220 0.05922 0.80157
 H457 H 0.57437 0.02920 0.79524
 H458 H 0.58136 0.09653 0.83640
 H459 H 0.40438 0.12749 0.81424
 H460 H 0.42795 0.09648 0.86650
 H461 H 0.39516 0.06165 0.77472
 H462 H 0.42070 0.03046 0.82581
 C463 C 0.98018 0.72566 0.40982
 C464 C 1.00886 0.72425 0.44950
 C465 C 1.04310 0.69215 0.44913
 C466 C 1.04587 0.66123 0.41363
 C467 C 1.01317 0.65968 0.37794
 C468 C 0.98234 0.69406 0.37563
 C469 C 0.93329 0.69337 0.36790
 C470 C 0.93034 0.72840 0.40441
 H471 H 1.06686 0.68967 0.47790
 H472 H 1.07245 0.63729 0.41591
 H473 H 0.91813 0.66200 0.37943
 H474 H 0.92353 0.70522 0.33207
 H475 H 0.91198 0.71822 0.43634
 H476 H 0.91884 0.75991 0.38842
 C477 C 1.20181 0.44928 0.04701
 C478 C 1.23363 0.48149 0.05102
 C479 C 1.23323 0.50538 0.09335
 C480 C 1.19727 0.50543 0.12590
 C481 C 1.15604 0.48388 0.11885
 C482 C 1.15509 0.45581 0.08160
 C483 C 1.11034 0.42788 0.03727
 C484 C 1.16885 0.41826 -0.00806
 H485 H 1.26063 0.52686 0.10094
 H486 H 1.20171 0.52531 0.15643
 H487 H 1.08056 0.44798 0.02700
 H488 H 1.09651 0.39660 0.05162
 H489 H 1.17009 0.43111 -0.04489
 H490 H 1.17893 0.38321 -0.01117
 C491 C 0.57589 -0.04258 0.71458
 C492 C 0.54657 -0.00671 0.71898
 C493 C 0.56018 0.03277 0.69634
 C494 C 0.59876 0.03535 0.66917
 C495 C 0.62459 -0.00200 0.66061
 C496 C 0.61382 -0.03996 0.68628
 C497 C 0.60925 -0.08502 0.66899
 C498 C 0.56743 -0.08795 0.69803
 H499 H 0.53987 0.06196 0.69853
 H500 H 0.60674 0.06654 0.65310
 H501 H 0.63642 -0.10689 0.68231
 H502 H 0.60284 -0.08603 0.63047
 H503 H 0.57029 -0.11284 0.72688
 H504 H 0.53714 -0.09008 0.67547
 C505 C -0.19937 0.54470 0.94913
 C506 C -0.22773 0.50862 0.95531
 C507 C -0.22129 0.47438 0.92287
 C508 C -0.18612 0.47531 0.89027
 C509 C -0.15662 0.51068 0.88806
 C510 C -0.16651 0.54654 0.91543
 C511 C -0.13738 0.57451 0.94462
 C512 C -0.17343 0.57243 0.98194
 H513 H -0.24058 0.44487 0.92457
 H514 H -0.18084 0.44743 0.86824
 H515 H -0.13335 0.60762 0.92870
 H516 H -0.10585 0.55779 0.95554
 H517 H -0.18996 0.60437 0.98774
 H518 H -0.16168 0.55476 1.01420
 C519 C 0.46479 0.01676 0.32947
 C520 C 0.46216 0.00574 0.28158
 C521 C 0.41892 -0.00405 0.26413
 C522 C 0.38095 -0.00239 0.29303
 C523 C 0.38485 0.00853 0.34068
 C524 C 0.42717 0.01851 0.35769
 C525 C 0.44997 -0.00188 0.39926
 C526 C 0.49082 -0.00511 0.36895
 H527 H 0.41439 -0.01243 0.22764
 H528 H 0.34867 -0.00995 0.27818
 H529 H 0.43593 -0.03413 0.40947
 H530 H 0.45371 0.02134 0.42846
 H531 H 0.50038 -0.03926 0.36111
 H532 H 0.51835 0.01515 0.38255
 C533 C 0.18073 0.50925 0.97591
 C534 C 0.22697 0.50405 0.96719
 C535 C 0.24073 0.51406 0.92068
 C536 C 0.20910 0.51883 0.88367
 C537 C 0.16310 0.51731 0.89316
 C538 C 0.15052 0.51652 0.94011
 C539 C 0.11389 0.49371 0.96516
 C540 C 0.14663 0.48552 1.00785
 H541 H 0.27582 0.51517 0.91240
 H542 H 0.22052 0.52234 0.84780
 H543 H 0.10291 0.46415 0.94649
 H544 H 0.08598 0.51641 0.97298
 H545 H 0.16380 0.40132 1.05404
 H546 H 0.13602 0.51239 1.03188
 C547 C 0.57317 -0.03111 0.28655
 C548 C 0.54672 0.00657 0.27885
 C549 C 0.55890 0.04388 0.30464
 C550 C 0.59610 0.04359 0.33492
 C551 C 0.62267 0.00596 0.34085
 C552 C 0.60971 -0.03133 0.31709
 C553 C 0.63738 -0.05863 0.28595
 C554 C 0.59818 -0.05827 0.25216
 H555 H 0.53886 0.07333 0.30206
 H556 H 0.60346 0.07264 0.35437
 H557 H 0.64453 -0.09133 0.30193
 H558 H 0.66691 -0.04108 0.27201
 H559 H 0.58381 -0.09124 0.24821
 H560 H 0.60496 -0.04059 0.21854
 C561 C 0.79989 0.46978 0.05063
 C562 C 0.76910 0.50398 0.04226
 C563 C 0.76929 0.53742 0.07626
 C564 C 0.80083 0.53726 0.11344
 C565 C 0.83232 0.50329 0.11856
 C566 C 0.82872 0.46833 0.08857
 C567 C 0.86311 0.44332 0.06273
 C568 C 0.83144 0.44503 0.02062
 H569 H 0.74771 0.56560 0.07280
 H570 H 0.80191 0.56463 0.13681
 H571 H 0.86797 0.40988 0.07776
 H572 H 0.89419 0.46217 0.05710
 H573 H 0.81832 0.41257 0.01117
 H574 H 0.84524 0.46476 -0.00891
 C575 C 0.41735 -0.00885 0.72920
 C576 C 0.46191 -0.00715 0.71357
 C577 C 0.46695 -0.00404 0.66377
 C578 C 0.43020 -0.00321 0.63290
 C579 C 0.38659 -0.00544 0.64994
 C580 C 0.38096 -0.00598 0.69853
 C581 C 0.35310 -0.03558 0.72777
 C582 C 0.39286 -0.04035 0.76076
 H583 H 0.49909 -0.00352 0.64719
 H584 H 0.43603 -0.00163 0.59537
 H585 H 0.34447 -0.06618 0.70963
 H586 H 0.32449 -0.01812 0.74352
 H587 H 0.40625 -0.07404 0.76081
 H588 H 0.38590 -0.02774 0.79618
   
