data_POSCAR
  _audit_creation_date              2014-09-24
  _audit_creation_method            'ToBaCCo'
  _symmetry_space_group_name_H-M    'P1'
  _symmetry_Int_Tables_number       1
  _symmetry_cell_setting            triclinic
  loop_
  _symmetry_equiv_pos_as_xyz
 x,y,z
_cell_length_a 13.0383
_cell_length_b 13.0628
_cell_length_c 16.0304
_cell_angle_alpha 90.000000
_cell_angle_beta 89.578200
_cell_angle_gamma 90.000000
loop_
  _atom_site_label
  _atom_site_type_symbol
  _atom_site_fract_x
  _atom_site_fract_y
  _atom_site_fract_z
O1 O 0.19586 0.12142 0.05575
 O2 O -0.19615 -0.11643 0.05747
 O3 O -0.11767 0.19723 0.06069
 O4 O 0.11741 -0.19206 0.05902
 O5 O -0.17691 0.05506 0.10400
 O6 O 0.17579 -0.05034 0.10303
 O7 O -0.05447 -0.17231 0.10277
 O8 O 0.05444 0.17822 0.10230
 C9 C 0.14699 0.16602 0.11203
 C10 C -0.14725 -0.16144 0.11297
 C11 C -0.16492 0.14761 0.11564
 C12 C 0.16332 -0.14282 0.11410
 O13 O 0.19614 -0.11643 -0.05747
 O14 O -0.19587 0.12142 -0.05575
 O15 O 0.11766 0.19723 -0.06069
 O16 O -0.11743 -0.19206 -0.05902
 O17 O -0.17580 -0.05034 -0.10303
 O18 O 0.17690 0.05506 -0.10400
 O19 O 0.05446 -0.17231 -0.10277
 O20 O -0.05445 0.17822 -0.10230
 Co21 Co 0.16789 0.00241 -0.00053
 Co22 Co -0.16790 0.00241 0.00053
 Co23 Co -0.00001 0.16971 -0.00000
 Co24 Co -0.00001 -0.16417 -0.00000
 O25 O -0.00001 0.00262 -0.00000
 C26 C 0.14723 -0.16144 -0.11297
 C27 C -0.14700 0.16602 -0.11203
 C28 C 0.16491 0.14761 -0.11564
 C29 C -0.16333 -0.14282 -0.11410
 O30 O 0.38189 0.30297 0.44219
 O31 O 0.61883 0.69318 0.44250
 O32 O 0.30491 0.61632 0.44159
 O33 O 0.69609 0.38050 0.44104
 O34 O 0.44742 0.67337 0.39670
 O35 O 0.55489 0.32135 0.39669
 O36 O 0.67605 0.55201 0.39664
 O37 O 0.32453 0.44479 0.39768
 C38 C 0.33684 0.35243 0.38690
 C39 C 0.66362 0.64436 0.38635
 C40 C 0.35467 0.66212 0.38619
 C41 C 0.64757 0.33434 0.38575
 O42 O 0.61810 0.30297 0.55781
 O43 O 0.38116 0.69318 0.55750
 O44 O 0.30390 0.38050 0.55896
 O45 O 0.69508 0.61632 0.55841
 O46 O 0.55257 0.67337 0.60330
 O47 O 0.44510 0.32135 0.60331
 O48 O 0.67546 0.44479 0.60232
 O49 O 0.32394 0.55201 0.60336
 Co50 Co 0.49999 0.33029 0.50000
 Co51 Co 0.49999 0.66518 0.50000
 Co52 Co 0.33250 0.49844 0.50041
 Co53 Co 0.66749 0.49844 0.49959
 O54 O 0.49999 0.49803 0.50000
 C55 C 0.66315 0.35243 0.61310
 C56 C 0.33637 0.64436 0.61365
 C57 C 0.35242 0.33434 0.61425
 C58 C 0.64532 0.66212 0.61381
 N59 N 0.15752 0.29901 0.21783
 C60 C 0.19801 0.21342 0.18295
 N61 N 0.28467 0.17262 0.21569
 N62 N 0.32888 0.21596 0.28164
 C63 C 0.28858 0.30223 0.31595
 N64 N 0.20257 0.34319 0.28265
 N65 N 0.71483 0.82827 0.21759
 C66 C 0.80168 0.78878 0.18322
 N67 N 0.84231 0.70218 0.21582
 N68 N 0.79731 0.65587 0.28020
 C69 C 0.71119 0.69564 0.31520
 N70 N 0.67069 0.78281 0.28310
 N71 N 0.84247 0.29901 0.78217
 C72 C 0.80198 0.21342 0.81704
 N73 N 0.71532 0.17262 0.78431
 N74 N 0.67111 0.21596 0.71836
 C75 C 0.71141 0.30223 0.68405
 N76 N 0.79742 0.34319 0.71735
 N77 N 0.28516 0.82827 0.78241
 C78 C 0.19831 0.78878 0.81678
 N79 N 0.15768 0.70218 0.78418
 N80 N 0.20267 0.65587 0.71980
 C81 C 0.28880 0.69564 0.68480
 N82 N 0.32930 0.78281 0.71690
 N83 N 0.19118 0.29417 0.80132
 C84 C 0.20810 0.19346 0.81802
 N85 N 0.27140 0.13976 0.76636
 N86 N 0.31725 0.18500 0.70166
 C87 C 0.29988 0.28521 0.68485
 N88 N 0.23551 0.33897 0.73544
 N89 N 0.70127 0.84500 0.78158
 C90 C 0.78810 0.80576 0.81502
 N91 N 0.82832 0.71863 0.78201
 N92 N 0.78359 0.67298 0.71727
 C93 C 0.69613 0.71192 0.68439
 N94 N 0.65565 0.79846 0.71794
 N95 N 0.29872 0.84500 0.21842
 C96 C 0.21189 0.80576 0.18497
 N97 N 0.17167 0.71863 0.21799
 N98 N 0.21640 0.67298 0.28273
 C99 C 0.30386 0.71192 0.31561
 N100 N 0.34434 0.79846 0.28206
 N101 N 0.80881 0.29417 0.19868
 C102 C 0.79189 0.19346 0.18198
 N103 N 0.72859 0.13976 0.23364
 N104 N 0.68274 0.18500 0.29834
 C105 C 0.70010 0.28521 0.31515
 N106 N 0.76448 0.33897 0.26456
   
