data_POSCAR
  _audit_creation_date              2014-09-24
  _audit_creation_method            'ToBaCCo'
  _symmetry_space_group_name_H-M    'P1'
  _symmetry_Int_Tables_number       1
  _symmetry_cell_setting            triclinic
  loop_
  _symmetry_equiv_pos_as_xyz
 x,y,z
_cell_length_a 38.7031
_cell_length_b 38.7087
_cell_length_c 38.6618
_cell_angle_alpha 90.002900
_cell_angle_beta 90.002900
_cell_angle_gamma 89.984200
loop_
  _atom_site_label
  _atom_site_type_symbol
  _atom_site_fract_x
  _atom_site_fract_y
  _atom_site_fract_z
C1 C 0.15611 0.18298 0.20501
 C2 C 0.15596 0.20803 0.17881
 C3 C 0.18113 0.20753 0.15346
 C4 C 0.20676 0.18190 0.15393
 C5 C 0.20688 0.15732 0.17971
 C6 C 0.18135 0.15788 0.20549
 C7 C 0.13456 0.17685 0.23259
 N8 N 0.14592 0.14843 0.25023
 C9 C 0.17478 0.13689 0.23341
 C10 C 0.23428 0.13561 0.17341
 N11 N 0.25117 0.14619 0.14421
 C12 C 0.23407 0.17475 0.13236
 C13 C 0.17431 0.23445 0.13123
 N14 N 0.14555 0.25127 0.14244
 C15 C 0.13421 0.23519 0.17158
 H16 H 0.11238 0.19256 0.23893
 H17 H 0.19001 0.11448 0.24008
 H18 H 0.24066 0.11352 0.18922
 H19 H 0.24049 0.18978 0.10973
 H20 H 0.18886 0.24082 0.10819
 H21 H 0.11192 0.24279 0.18667
 C22 C -0.15345 0.81951 0.20815
 C23 C -0.15392 0.79380 0.18258
 C24 C -0.17972 0.79369 0.15786
 C25 C -0.20545 0.81922 0.15842
 C26 C -0.20494 0.84445 0.18354
 C27 C -0.17875 0.84456 0.20866
 C28 C -0.13129 0.82633 0.23509
 N29 N -0.14235 0.85512 0.25233
 C30 C -0.17161 0.86621 0.23592
 C31 C -0.23253 0.86598 0.17740
 N32 N -0.25015 0.85460 0.14895
 C33 C -0.23334 0.82576 0.13741
 C34 C -0.17342 0.76630 0.13608
 N35 N -0.14439 0.74971 0.14695
 C36 C -0.13236 0.76644 0.17545
 H37 H -0.10896 0.81081 0.24133
 H38 H -0.18677 0.88871 0.24243
 H39 H -0.23891 0.88815 0.19311
 H40 H -0.23997 0.81052 0.11497
 H41 H -0.18904 0.75890 0.11408
 H42 H -0.10919 0.75970 0.18962
 C43 C -0.15870 0.17983 -0.20698
 C44 C -0.15929 0.20554 -0.18141
 C45 C -0.18449 0.20498 -0.15609
 C46 C -0.20950 0.17876 -0.15606
 C47 C -0.20885 0.15350 -0.18115
 C48 C -0.18322 0.15403 -0.20683
 C49 C -0.13700 0.17360 -0.23442
 N50 N -0.14751 0.14440 -0.25129
 C51 C -0.17601 0.13248 -0.23416
 C52 C -0.23569 0.13124 -0.17437
 N53 N -0.25300 0.14221 -0.14557
 C54 C -0.23673 0.17152 -0.13443
 C55 C -0.17845 0.23257 -0.13448
 N56 N -0.15017 0.24994 -0.14606
 C57 C -0.13835 0.23350 -0.17482
 H58 H -0.11483 0.18932 -0.24072
 H59 H -0.19107 0.10993 -0.24073
 H60 H -0.24180 0.10888 -0.18991
 H61 H -0.24331 0.18663 -0.11190
 H62 H -0.19374 0.23958 -0.11212
 H63 H -0.11572 0.24084 -0.18953
 C64 C 0.15663 0.82000 -0.20764
 C65 C 0.15585 0.79386 -0.18253
 C66 C 0.18078 0.79290 -0.15696
 C67 C 0.20677 0.81815 -0.15608
 C68 C 0.20748 0.84381 -0.18077
 C69 C 0.18216 0.84478 -0.20674
 C70 C 0.13552 0.82755 -0.23520
 N71 N 0.14740 0.85657 -0.25144
 C72 C 0.17615 0.86706 -0.23379
 C73 C 0.23512 0.86481 -0.17332
 N74 N 0.25157 0.85274 -0.14445
 C75 C 0.23397 0.82397 -0.13397
 C76 C 0.17339 0.76512 -0.13601
 N77 N 0.14453 0.74920 -0.14823
 C78 C 0.13369 0.76670 -0.17673
 H79 H 0.11280 0.81285 -0.24200
 H80 H 0.19217 0.88909 -0.23981
 H81 H 0.24186 0.88758 -0.18798
 H82 H 0.24012 0.80781 -0.11204
 H83 H 0.18763 0.75756 -0.11314
 H84 H 0.11145 0.76007 -0.19235
 C85 C 0.18335 1.15621 0.79487
 C86 C 0.20850 1.15617 0.82099
 C87 C 0.20801 1.18139 0.84630
 C88 C 0.18243 1.20705 0.84576
 C89 C 0.15780 1.20709 0.82004
 C90 C 0.15828 1.18147 0.79436
 C91 C 0.17715 1.13462 0.76733
 N92 N 0.14870 1.14599 0.74973
 C93 C 0.13723 1.17488 0.76651
 C94 C 0.13610 1.23450 0.82629
 N95 N 0.14674 1.25147 0.85542
 C96 C 0.17533 1.23442 0.86726
 C97 C 0.23494 1.17465 0.86852
 N98 N 0.25183 1.14594 0.85732
 C99 C 0.23575 1.13451 0.82820
 H100 H 0.19284 1.11244 0.76095
 H101 H 0.11480 1.19011 0.75988
 H102 H 0.11405 1.24089 0.81041
 H103 H 0.19031 1.24080 0.88993
 H104 H 0.24184 1.18976 0.89103
 H105 H 0.24285 1.11171 0.81365
 C106 C 0.81929 0.84622 0.79168
 C107 C 0.79357 0.84560 0.81722
 C108 C 0.79358 0.81980 0.84193
 C109 C 0.81923 0.79421 0.84135
 C110 C 0.84449 0.79486 0.81625
 C111 C 0.84447 0.82105 0.79115
 C112 C 0.82600 0.86846 0.76480
 N113 N 0.85487 0.85760 0.74757
 C114 C 0.86611 0.82837 0.76393
 C115 C 0.86617 0.76739 0.82243
 N116 N 0.85485 0.74973 0.85087
 C117 C 0.82590 0.76638 0.86238
 C118 C 0.76618 0.82598 0.86372
 N119 N 0.74948 0.85493 0.85287
 C120 C 0.76613 0.86705 0.82437
 H121 H 0.81035 0.89070 0.75858
 H122 H 0.88873 0.81337 0.75742
 H123 H 0.88839 0.76111 0.80674
 H124 H 0.81070 0.75969 0.88482
 H125 H 0.75887 0.81033 0.88573
 H126 H 0.75931 0.89020 0.81024
 C127 C 0.18005 0.84144 1.20824
 C128 C 0.20575 0.84100 1.18266
 C129 C 0.20545 0.81571 1.15742
 C130 C 0.17937 0.79057 1.15736
 C131 C 0.15401 0.79112 1.18253
 C132 C 0.15440 0.81677 1.20814
 C133 C 0.17362 0.86325 1.23554
 N134 N 0.14443 0.85264 1.25237
 C135 C 0.13273 0.82398 1.23537
 C136 C 0.13181 0.76421 1.17573
 N137 N 0.14309 0.74728 1.14705
 C138 C 0.17223 0.76330 1.13570
 C139 C 0.23299 0.82196 1.13581
 N140 N 0.25000 0.85049 1.14727
 C141 C 0.23344 0.86224 1.17598
 H142 H 0.18913 0.88559 1.24172
 H143 H 0.11024 0.80884 1.24193
 H144 H 0.10924 0.75738 1.19077
 H145 H 0.18683 0.75616 1.11292
 H146 H 0.23963 0.80721 1.11297
 H147 H 0.24101 0.88451 1.19111
 C148 C 0.81963 1.15661 1.20749
 C149 C 0.79349 1.15565 1.18239
 C150 C 0.79246 1.18044 1.15669
 C151 C 0.81764 1.20646 1.15566
 C152 C 0.84339 1.20736 1.18043
 C153 C 0.84439 1.18216 1.20650
 C154 C 0.82718 1.13566 1.23516
 N155 N 0.85617 1.14766 1.25138
 C156 C 0.86665 1.17633 1.23360
 C157 C 0.86434 1.23505 1.17283
 N158 N 0.85197 1.25099 1.14402
 C159 C 0.82336 1.23358 1.13339
 C160 C 0.76470 1.17291 1.13579
 N161 N 0.74883 1.14410 1.14815
 C162 C 0.76636 1.13342 1.17670
 H163 H 0.81251 1.11296 1.24205
 H164 H 0.88864 1.19242 1.23959
 H165 H 0.88730 1.24257 1.18692
 H166 H 0.80761 1.24026 1.11125
 H167 H 0.75710 1.18703 1.11285
 H168 H 0.75977 1.11124 1.19242
 O169 O 0.45121 1.06020 1.06260
 O170 O 0.41337 1.02676 1.03137
 C171 C 0.42031 1.05086 1.05353
 O172 O 0.54840 1.05688 0.93927
 O173 O 0.58636 1.02567 0.97262
 C174 C 0.57933 1.04785 0.94856
 O175 O 0.45125 1.05994 0.94251
 O176 O 0.41336 1.02673 0.97396
 C177 C 0.42034 1.05069 0.95165
 O178 O 0.54834 1.05719 1.06582
 O179 O 0.58631 1.02582 1.03263
 C180 C 0.57927 1.04814 1.05656
 Zr181 Zr 0.49983 1.04074 1.04630
 O182 O 0.50362 1.09530 1.04593
 O183 O 0.49595 1.04077 1.10092
 Zr184 Zr 0.49986 1.04055 0.95884
 O185 O 0.50369 1.09511 0.95896
 O186 O 0.49596 1.04037 0.90422
 O187 O 0.46902 1.04732 1.00255
 O188 O 0.52985 1.04697 1.00257
 O189 O 0.54858 0.93708 1.06611
 O190 O 0.58643 0.96841 1.03276
 C191 C 0.57949 0.94621 1.05682
 O192 O 0.45154 0.93369 0.94232
 O193 O 0.41359 0.96724 0.97329
 C194 C 0.42061 0.94317 0.95112
 O195 O 0.54862 0.93694 0.93942
 O196 O 0.58646 0.96832 0.97274
 C197 C 0.57951 0.94610 0.94870
 O198 O 0.45142 0.93375 1.06290
 O199 O 0.41347 0.96682 1.03138
 C200 C 0.42049 0.94294 1.05374
 Zr201 Zr 0.49997 0.95326 1.04650
 O202 O 0.50395 0.89871 1.04635
 O203 O 0.49608 0.95343 1.10112
 Zr204 Zr 0.50001 0.95309 0.95901
 O205 O 0.50398 0.89854 0.95972
 O206 O 0.49624 0.95277 0.90439
 Zr207 Zr 0.44856 0.99682 1.00267
 Zr208 Zr 0.55125 0.99699 1.00268
 O209 O 0.53002 0.94694 1.00278
 O210 O 0.46916 0.94637 1.00275
 O211 O 0.53067 0.99706 1.05318
 O212 O 0.46999 0.99679 0.95262
 O213 O 0.46992 0.99697 1.05273
 O214 O 0.53071 0.99685 0.95216
 H215 H 0.54549 1.06723 1.00252
 H216 H 0.45443 0.99683 0.93227
 H217 H 0.54576 0.92675 1.00281
 H218 H 0.45424 0.99699 1.07298
 H219 H 0.51531 1.02633 0.89518
 H220 H 0.51513 0.96740 0.89532
 H221 H 0.48413 0.88956 0.97309
 H222 H 0.48460 0.88965 1.03231
 H223 H 0.51530 0.96766 1.11014
 H224 H 0.51523 1.02666 1.10999
 H225 H 0.48417 1.10426 1.03197
 H226 H 0.48425 1.10414 0.97289
 O227 O 0.06066 0.45132 -0.06297
 O228 O 0.02721 0.41349 -0.03174
 C229 C 0.05131 0.42043 -0.05391
 O230 O 0.05762 0.54826 0.06046
 O231 O 0.02646 0.58633 0.02720
 C232 C 0.04864 0.57921 0.05124
 O233 O 0.06053 0.45116 0.05714
 O234 O 0.02718 0.41342 0.02570
 C235 C 0.05118 0.42030 0.04798
 O236 O 0.05784 0.54843 -0.06605
 O237 O 0.02655 0.58639 -0.03279
 C238 C 0.04886 0.57936 -0.05673
 Zr239 Zr 0.04120 0.49992 -0.04669
 O240 O 0.09578 0.50359 -0.04672
 O241 O 0.04081 0.49608 -0.10132
 Zr242 Zr 0.04117 0.49980 0.04085
 O243 O 0.09575 0.50352 0.04072
 O244 O 0.04097 0.49582 0.09546
 O245 O 0.04785 0.46906 -0.00295
 O246 O 0.04759 0.52981 -0.00287
 O247 O -0.06233 0.54887 -0.06623
 O248 O -0.03090 0.58662 -0.03285
 C249 C -0.05314 0.57974 -0.05691
 O250 O -0.06584 0.45161 0.05720
 O251 O -0.03274 0.41365 0.02573
 C252 C -0.05665 0.42069 0.04807
 O253 O -0.06236 0.54873 0.06046
 O254 O -0.03092 0.58654 0.02718
 C255 C -0.05315 0.57962 0.05123
 O256 O -0.06591 0.45172 -0.06310
 O257 O -0.03276 0.41369 -0.03177
 C258 C -0.05675 0.42077 -0.05401
 Zr259 Zr -0.04621 0.50022 -0.04673
 O260 O -0.10076 0.50432 -0.04660
 O261 O -0.04603 0.49637 -0.10135
 Zr262 Zr -0.04627 0.50012 0.04078
 O263 O -0.10083 0.50421 0.04035
 O264 O -0.04637 0.49620 0.09540
 Zr265 Zr -0.00268 0.44869 -0.00300
 Zr266 Zr -0.00234 0.55134 -0.00287
 O267 O -0.05243 0.53020 -0.00294
 O268 O -0.05309 0.46940 -0.00301
 O269 O -0.00239 0.53087 -0.05342
 O270 O -0.00264 0.46998 0.04709
 O271 O -0.00259 0.47007 -0.05305
 O272 O -0.00245 0.53073 0.04762
 H273 H 0.06790 0.54540 -0.00282
 H274 H -0.00268 0.45430 0.06734
 H275 H -0.07260 0.54597 -0.00292
 H276 H -0.00263 0.45439 -0.07330
 H277 H 0.02704 0.51523 0.10454
 H278 H -0.03193 0.51522 0.10449
 H279 H -0.10989 0.48461 0.02668
 H280 H -0.10985 0.48507 -0.03246
 H281 H -0.03185 0.51562 -0.11036
 H282 H 0.02723 0.51578 -0.11032
 H283 H 0.10476 0.48449 -0.03231
 H284 H 0.10474 0.48412 0.02672
 O285 O 1.06549 -0.05707 0.54882
 O286 O 1.03229 -0.02563 0.58672
 C287 C 1.05621 -0.04796 0.57976
 O288 O 1.06266 0.06614 0.45149
 O289 O 1.03126 0.03294 0.41356
 C290 C 1.05358 0.05686 0.42055
 O291 O 1.06572 0.06304 0.54875
 O292 O 1.03237 0.03180 0.58668
 C293 C 1.05640 0.05399 0.57969
 O294 O 1.06230 -0.06033 0.45160
 O295 O 1.03111 -0.02700 0.41359
 C296 C 1.05324 -0.05109 0.42064
 Zr297 Zr 1.04609 -0.04067 0.50018
 O298 O 1.10066 -0.04041 0.49629
 O299 O 1.04605 -0.09522 0.50412
 Zr300 Zr 1.04620 0.04674 0.50012
 O301 O 1.10076 0.04656 0.49629
 O302 O 1.04599 0.10130 0.50397
 O303 O 1.05287 0.00304 0.53099
 O304 O 1.05246 0.00299 0.47012
 O305 O 0.94233 -0.06006 0.45150
 O306 O 0.97373 -0.02689 0.41355
 C307 C 0.95145 -0.05084 0.42055
 O308 O 0.93915 0.06314 0.54867
 O309 O 0.97240 0.03184 0.58666
 C310 C 0.94836 0.05404 0.57964
 O311 O 0.94245 0.06634 0.45142
 O312 O 0.97379 0.03303 0.41352
 C313 C 0.95154 0.05702 0.42049
 O314 O 0.93914 -0.05688 0.54870
 O315 O 0.97237 -0.02555 0.58666
 C316 C 0.94840 -0.04780 0.57965
 Zr317 Zr 0.95865 -0.04053 0.50011
 O318 O 0.90408 -0.04019 0.49618
 O319 O 0.95866 -0.09509 0.50401
 Zr320 Zr 0.95878 0.04689 0.50006
 O321 O 0.90423 0.04702 0.49612
 O322 O 0.95922 0.10145 0.50396
 Zr323 Zr 1.00239 0.00312 0.55151
 Zr324 Zr 1.00246 0.00306 0.44872
 O325 O 0.95243 0.00317 0.47006
 O326 O 0.95194 0.00320 0.53090
 O327 O 1.00238 -0.04738 0.46934
 O328 O 1.00247 0.05312 0.53013
 O329 O 1.00234 -0.04689 0.53016
 O330 O 1.00252 0.05354 0.46925
 H331 H 1.07270 0.00292 0.45444
 H332 H 1.00247 0.07335 0.54584
 H333 H 0.93220 0.00318 0.45436
 H334 H 1.00231 -0.06713 0.54583
 H335 H 1.03212 0.11032 0.48447
 H336 H 0.97303 0.11043 0.48442
 H337 H 0.89514 0.03265 0.51522
 H338 H 0.89507 -0.02633 0.51568
 H339 H 0.97275 -0.10416 0.48470
 H340 H 1.03171 -0.10426 0.48499
 H341 H 1.10969 -0.02666 0.51587
 H342 H 1.10976 0.03237 0.51556
 C343 C 1.09963 0.10361 0.33804
 C344 C 1.08375 0.13137 0.32136
 C345 C 1.09912 0.14643 0.29233
 C346 C 1.13092 0.13396 0.27913
 C347 C 1.14661 0.10591 0.29666
 C348 C 1.13109 0.09099 0.32568
 C349 C 1.08340 0.08764 0.36747
 C350 C 1.06979 0.07386 0.39187
 H351 H 1.05926 0.14128 0.33067
 H352 H 1.08537 0.16749 0.28032
 H353 H 1.17103 0.09521 0.28854
 H354 H 1.14366 0.06948 0.33847
 C355 C 0.90523 -0.09834 0.33854
 C356 C 0.87350 -0.08611 0.32654
 C357 C 0.85759 -0.10154 0.29800
 C358 C 0.87315 -0.12977 0.28064
 C359 C 0.90529 -0.14180 0.29342
 C360 C 0.92106 -0.12620 0.32197
 C361 C 0.92167 -0.08202 0.36767
 C362 C 0.93532 -0.06800 0.39192
 H363 H 0.86097 -0.06453 0.33926
 H364 H 0.83294 -0.09115 0.29019
 H365 H 0.91897 -0.16293 0.28145
 H366 H 0.94575 -0.13583 0.33101
 C367 C 0.89997 0.09901 0.66182
 C368 C 0.91150 0.13085 0.67423
 C369 C 0.89573 0.14605 0.70297
 C370 C 0.86787 0.12965 0.72015
 C371 C 0.85652 0.09745 0.70693
 C372 C 0.87245 0.08240 0.67818
 C373 C 0.91668 0.08321 0.63257
 C374 C 0.93097 0.06993 0.60826
 H375 H 0.93281 0.14399 0.66168
 H376 H 0.90558 0.17080 0.71112
 H377 H 0.83570 0.08316 0.71872
 H378 H 0.86337 0.05762 0.66883
 C379 C 1.10273 -0.09490 0.66190
 C380 C 1.08990 -0.12649 0.67361
 C381 C 1.10474 -0.14272 0.70227
 C382 C 1.13295 -0.12764 0.72007
 C383 C 1.14563 -0.09565 0.70756
 C384 C 1.13062 -0.07956 0.67887
 C385 C 1.08691 -0.07811 0.63270
 C386 C 1.07318 -0.06424 0.60841
 H387 H 1.06830 -0.13865 0.66057
 H388 H 1.09391 -0.16725 0.70984
 H389 H 1.16679 -0.08234 0.71987
 H390 H 1.14070 -0.05497 0.67005
 C391 C 0.33805 1.09890 1.09865
 C392 C 0.32466 1.08621 1.12967
 C393 C 0.29592 1.10190 1.14492
 C394 C 0.27971 1.13085 1.12940
 C395 C 0.29391 1.14331 1.09801
 C396 C 0.32266 1.12747 1.08291
 C397 C 0.36733 1.08232 1.08279
 C398 C 0.39166 1.06814 1.06947
 H399 H 0.33642 1.06405 1.14211
 H400 H 0.28691 1.09098 1.16893
 H401 H 0.28306 1.16511 1.08446
 H402 H 0.33281 1.13748 1.05878
 C403 C 0.33852 0.89698 0.90386
 C404 C 0.32179 0.86885 0.91901
 C405 C 0.29302 0.85398 0.90298
 C406 C 0.28017 0.86704 0.87124
 C407 C 0.29774 0.89548 0.85633
 C408 C 0.32648 0.91018 0.87250
 C409 C 0.36774 0.91270 0.92067
 C410 C 0.39202 0.92632 0.93464
 H411 H 0.33086 0.85848 0.94341
 H412 H 0.28095 0.83261 0.91615
 H413 H 0.28989 0.90663 0.83200
 H414 H 0.33931 0.93198 0.86049
 C415 C 0.66202 0.90063 1.10397
 C416 C 0.67874 0.91669 1.13163
 C417 C 0.70779 0.90141 1.14676
 C418 C 0.72095 0.86953 1.13444
 C419 C 0.70337 0.85368 1.10649
 C420 C 0.67434 0.86911 1.09152
 C421 C 0.63258 0.91674 1.08792
 C422 C 0.60816 0.93020 1.07400
 H423 H 0.66947 0.94124 1.14141
 H424 H 0.71986 0.91527 1.16772
 H425 H 0.71143 0.82918 1.09593
 H426 H 0.66152 0.85640 1.07010
 C427 C 0.66109 1.09426 0.90097
 C428 C 0.67767 1.07856 0.87303
 C429 C 0.70612 1.09445 0.85742
 C430 C 0.71878 1.12660 0.86953
 C431 C 0.70140 1.14204 0.89783
 C432 C 0.67297 1.12600 0.91327
 C433 C 0.63207 1.07771 0.91731
 C434 C 0.60789 1.06400 0.93135
 H435 H 0.66871 1.05386 0.86334
 H436 H 0.71810 1.08086 0.83622
 H437 H 0.70912 1.16668 0.90828
 H438 H 0.66024 1.13845 0.93491
 C439 C 0.09829 0.33806 0.09403
 C440 C 0.13384 0.33248 0.09047
 C441 C 0.14940 0.30398 0.10635
 C442 C 0.12957 0.28069 0.12605
 C443 C 0.09384 0.28658 0.12942
 C444 C 0.07835 0.31505 0.11351
 C445 C 0.08217 0.36730 0.07767
 C446 C 0.06826 0.39163 0.06407
 H447 H 0.14953 0.35018 0.07550
 H448 H 0.17699 0.30045 0.10360
 H449 H 0.07775 0.26891 0.14393
 H450 H 0.05078 0.31906 0.11632
 C451 C -0.10449 0.33850 -0.09937
 C452 C -0.10127 0.33304 -0.13500
 C453 C -0.11641 0.30407 -0.15038
 C454 C -0.13501 0.28011 -0.13030
 C455 C -0.13826 0.28597 -0.09450
 C456 C -0.12307 0.31495 -0.07917
 C457 C -0.08815 0.36786 -0.08343
 C458 C -0.07406 0.39220 -0.07004
 H459 H -0.08697 0.35113 -0.15088
 H460 H -0.11381 0.30060 -0.17802
 H461 H -0.15196 0.26784 -0.07823
 H462 H -0.12557 0.31882 -0.05153
 C463 C 0.09570 0.66139 -0.10338
 C464 C 0.13132 0.66625 -0.09955
 C465 C 0.14740 0.69500 -0.11438
 C466 C 0.12804 0.71932 -0.13327
 C467 C 0.09224 0.71408 -0.13709
 C468 C 0.07621 0.68533 -0.12222
 C469 C 0.07909 0.63220 -0.08744
 C470 C 0.06524 0.60794 -0.07368
 H471 H 0.14666 0.64786 -0.08504
 H472 H 0.17503 0.69800 -0.11134
 H473 H 0.07651 0.73251 -0.15103
 H474 H 0.04859 0.68191 -0.12519
 C475 C -0.09816 0.66205 0.09905
 C476 C -0.11776 0.68523 0.07939
 C477 C -0.13300 0.71396 0.09510
 C478 C -0.12882 0.71995 0.13077
 C479 C -0.10907 0.69646 0.15031
 C480 C -0.09386 0.66771 0.13454
 C481 C -0.08230 0.63267 0.08267
 C482 C -0.06900 0.60828 0.06855
 H483 H -0.12113 0.68118 0.05186
 H484 H -0.14758 0.73176 0.07921
 H485 H -0.10571 0.70005 0.17786
 H486 H -0.07878 0.64990 0.15001
 C487 C 1.10356 0.09975 0.66210
 C488 C 1.09127 0.13140 0.67425
 C489 C 1.10630 0.14690 0.70322
 C490 C 1.13414 0.13100 0.72088
 C491 C 1.14631 0.09900 0.70788
 C492 C 1.13113 0.08365 0.67890
 C493 C 1.08746 0.08358 0.63272
 C494 C 1.07354 0.07006 0.60835
 H495 H 1.06992 0.14415 0.66135
 H496 H 1.09588 0.17150 0.71116
 H497 H 1.16718 0.08509 0.72004
 H498 H 1.14078 0.05901 0.66974
 C499 C 0.90116 -0.09436 0.66154
 C500 C 0.91346 -0.12613 0.67335
 C501 C 0.89811 -0.14220 0.70183
 C502 C 0.86990 -0.12675 0.71933
 C503 C 0.85781 -0.09456 0.70675
 C504 C 0.87332 -0.07864 0.67826
 C505 C 0.91737 -0.07777 0.63247
 C506 C 0.93131 -0.06400 0.60825
 H507 H 0.93502 -0.13858 0.66051
 H508 H 0.90852 -0.16689 0.70949
 H509 H 0.83671 -0.08095 0.71885
 H510 H 0.86366 -0.05391 0.66936
 C511 C 1.09846 -0.09962 0.33874
 C512 C 1.13034 -0.08807 0.32648
 C513 C 1.14574 -0.10393 0.29791
 C514 C 1.12949 -0.13190 0.28077
 C515 C 1.09723 -0.14326 0.29384
 C516 C 1.08199 -0.12724 0.32242
 C517 C 1.08249 -0.08284 0.36784
 C518 C 1.06913 -0.06850 0.39206
 H519 H 1.14337 -0.06669 0.33903
 H520 H 1.17054 -0.09409 0.28989
 H521 H 1.08306 -0.16415 0.28205
 H522 H 1.05717 -0.13633 0.33168
 C523 C 0.90465 0.10345 0.33829
 C524 C 0.87301 0.09063 0.32668
 C525 C 0.85679 0.10532 0.29794
 C526 C 0.87193 0.13338 0.27996
 C527 C 0.90395 0.14607 0.29238
 C528 C 0.92004 0.13120 0.32115
 C529 C 0.92144 0.08771 0.36752
 C530 C 0.93529 0.07400 0.39183
 H531 H 0.86081 0.06913 0.33984
 H532 H 0.83223 0.09451 0.29047
 H533 H 0.91731 0.16712 0.27993
 H534 H 0.94466 0.14127 0.32989
 C535 C 0.09941 0.33831 -0.09907
 C536 C 0.12872 0.32370 -0.08397
 C537 C 0.14459 0.29498 -0.09907
 C538 C 0.13140 0.28003 -0.12982
 C539 C 0.10172 0.29548 -0.14471
 C540 C 0.08601 0.32420 -0.12945
 C541 C 0.08279 0.36752 -0.08318
 C542 C 0.06858 0.39181 -0.06984
 H543 H 0.13931 0.33445 -0.06036
 H544 H 0.16708 0.28484 -0.08612
 H545 H 0.09013 0.28580 -0.16814
 H546 H 0.06325 0.33534 -0.14137
 C547 C -0.10335 0.33870 0.09489
 C548 C -0.09938 0.33385 0.13053
 C549 C -0.11415 0.30513 0.14671
 C550 C -0.13314 0.28084 0.12742
 C551 C -0.13712 0.28607 0.09160
 C552 C -0.12229 0.31479 0.07547
 C553 C -0.08744 0.36786 0.07821
 C554 C -0.07367 0.39212 0.06437
 H555 H -0.08479 0.35222 0.14582
 H556 H -0.11100 0.30214 0.17435
 H557 H -0.15115 0.26765 0.07593
 H558 H -0.12537 0.31821 0.04783
 C559 C -0.09874 0.66220 -0.10405
 C560 C -0.13045 0.67425 -0.09178
 C561 C -0.14600 0.70318 -0.10679
 C562 C -0.13009 0.72092 -0.13459
 C563 C -0.09803 0.70805 -0.14673
 C564 C -0.08262 0.67909 -0.13156
 C565 C -0.08257 0.63283 -0.08798
 C566 C -0.06910 0.60843 -0.07406
 H567 H -0.14321 0.66128 -0.07047
 H568 H -0.17064 0.71101 -0.09640
 H569 H -0.08412 0.72028 -0.16756
 H570 H -0.05794 0.67002 -0.14120
 C571 C 0.09478 0.66068 0.09946
 C572 C 0.07501 0.68435 0.11834
 C573 C 0.09086 0.71272 0.13411
 C574 C 0.12675 0.71782 0.13114
 C575 C 0.14639 0.69378 0.11217
 C576 C 0.13049 0.66542 0.09645
 C577 C 0.07841 0.63178 0.08280
 C578 C 0.06477 0.60769 0.06856
 H579 H 0.04732 0.68100 0.12070
 H580 H 0.07494 0.73096 0.14809
 H581 H 0.17409 0.69669 0.10978
 H582 H 0.14604 0.64722 0.08193
 C583 C 0.33861 1.09860 0.90561
 C584 C 0.33375 1.09545 0.86989
 C585 C 0.30532 1.11108 0.85400
 C586 C 0.28134 1.13010 0.87365
 C587 C 0.28656 1.13322 0.90956
 C588 C 0.31500 1.11754 0.92540
 C589 C 0.36759 1.08204 0.92197
 C590 C 0.39177 1.06789 0.93557
 H591 H 0.35191 1.08089 0.85433
 H592 H 0.30233 1.10858 0.82629
 H593 H 0.26837 1.14726 0.92549
 H594 H 0.31845 1.12001 0.95310
 C595 C 0.33805 0.89640 1.09990
 C596 C 0.31501 0.91672 1.11898
 C597 C 0.28617 0.90165 1.13462
 C598 C 0.27993 0.86598 1.13137
 C599 C 0.30330 0.84576 1.11216
 C600 C 0.33217 0.86090 1.09655
 C601 C 0.36749 0.91216 1.08358
 C602 C 0.39188 0.92590 1.06994
 H603 H 0.31924 0.94427 1.12161
 H604 H 0.26847 0.91804 1.14875
 H605 H 0.29951 0.81820 1.10952
 H606 H 0.34988 0.84492 1.08187
 C607 C 0.66117 1.09500 1.10337
 C608 C 0.66594 1.13061 1.09948
 C609 C 0.69463 1.14678 1.11431
 C610 C 0.71898 1.12751 1.13326
 C611 C 0.71382 1.09172 1.13717
 C612 C 0.68512 1.07560 1.12228
 C613 C 0.63205 1.07831 1.08739
 C614 C 0.60783 1.06446 1.07358
 H615 H 0.64753 1.14588 1.08491
 H616 H 0.69757 1.17440 1.11122
 H617 H 0.73228 1.07606 1.15116
 H618 H 0.68175 1.04797 1.12530
 C619 C 0.66185 0.90100 0.90089
 C620 C 0.68513 0.88152 0.92054
 C621 C 0.71385 0.86631 0.90478
 C622 C 0.71971 0.87041 0.86909
 C623 C 0.69609 0.89003 0.84955
 C624 C 0.66737 0.90521 0.86538
 C625 C 0.63251 0.91688 0.91731
 C626 C 0.60816 0.93020 0.93142
 H627 H 0.68118 0.87823 0.94809
 H628 H 0.73174 0.85183 0.92065
 H629 H 0.69960 0.89332 0.82199
 H630 H 0.64947 0.92020 0.84991
   
