data_POSCAR
  _audit_creation_date              2014-09-24
  _audit_creation_method            'ToBaCCo'
  _symmetry_space_group_name_H-M    'P1'
  _symmetry_Int_Tables_number       1
  _symmetry_cell_setting            triclinic
  loop_
  _symmetry_equiv_pos_as_xyz
 x,y,z
_cell_length_a 51.3135
_cell_length_b 51.2775
_cell_length_c 51.2147
_cell_angle_alpha 94.598300
_cell_angle_beta 94.264400
_cell_angle_gamma 93.702000
loop_
  _atom_site_label
  _atom_site_type_symbol
  _atom_site_fract_x
  _atom_site_fract_y
  _atom_site_fract_z
C1 C 0.21194 0.50620 1.04727
 H2 H 0.21236 0.52030 1.03265
 C3 C 0.19372 0.50762 1.06615
 H4 H 0.18017 0.52299 1.06616
 C5 C 0.22828 0.46822 1.06428
 H6 H 0.24131 0.45252 1.06301
 C7 C 0.21031 0.46890 1.08352
 H8 H 0.20975 0.45382 1.09717
 N9 N 0.22868 0.48670 1.04662
 C10 C 0.29068 0.51490 1.00012
 H11 H 0.28975 0.49870 0.98510
 C12 C 0.30971 0.53560 1.00017
 H13 H 0.32343 0.53544 0.98508
 C14 C 0.27444 0.53452 1.03863
 H15 H 0.26101 0.53372 1.05386
 C16 C 0.29323 0.55564 1.03941
 H17 H 0.29409 0.57120 1.05512
 Zn18 Zn 0.25001 0.48465 1.01809
 N19 N 0.27348 0.51475 1.01909
 C20 C 0.22783 0.50048 0.96979
 N21 N 0.22706 0.48175 0.98717
 C22 C 0.20826 0.46154 0.98421
 C23 C 0.18912 0.45966 0.96315
 C24 C 0.20905 0.49933 0.94845
 C25 C 0.28913 0.45594 1.03986
 C26 C 0.30729 0.43683 1.04050
 C27 C 0.28731 0.41713 0.99872
 C28 C 0.26948 0.43663 0.99885
 N29 N 0.27083 0.45561 1.01918
 H30 H 0.24246 0.51676 0.97285
 H31 H 0.20781 0.44722 0.99860
 H32 H 0.17393 0.44379 0.96122
 H33 H 0.20945 0.51460 0.93501
 H34 H 0.29008 0.47157 1.05547
 H35 H 0.32221 0.43764 1.05672
 H36 H 0.28660 0.40250 0.98217
 H37 H 0.25525 0.43710 0.98230
 C38 C 0.31106 0.55610 1.02003
 C39 C 0.19272 0.48867 1.08430
 C40 C 0.30656 0.41744 1.01960
 C41 C 0.18940 0.47886 0.94525
 C42 C 0.78803 0.53615 -0.04672
 H43 H 0.78892 0.55163 -0.03096
 C44 C 0.80611 0.53692 -0.06574
 H45 H 0.82090 0.55310 -0.06475
 C46 C 0.76862 0.49536 -0.06643
 H47 H 0.75451 0.47883 -0.06615
 C48 C 0.78638 0.49535 -0.08585
 H49 H 0.78575 0.47892 -0.10062
 N50 N 0.76989 0.51552 -0.04729
 C51 C 0.71111 0.54342 0.00331
 H52 H 0.71165 0.52870 0.01730
 C53 C 0.69290 0.56243 0.00487
 H54 H 0.67944 0.56247 0.02020
 C55 C 0.72719 0.56065 -0.03451
 H56 H 0.74011 0.55944 -0.05021
 C57 C 0.70921 0.58001 -0.03367
 H58 H 0.70849 0.59384 -0.04859
 Zn59 Zn 0.74924 0.51430 -0.01831
 N60 N 0.72775 0.54284 -0.01617
 C61 C 0.77384 0.53456 0.03176
 N62 N 0.77289 0.51511 0.01192
 C63 C 0.79024 0.49614 0.01207
 C64 C 0.80940 0.49610 0.03286
 C65 C 0.79276 0.53526 0.05297
 C66 C 0.70757 0.48064 -0.04172
 C67 C 0.68848 0.45974 -0.04364
 C68 C 0.70875 0.44493 -0.00387
 C69 C 0.72747 0.46611 -0.00268
 N70 N 0.72649 0.48349 -0.02142
 H71 H 0.76030 0.54981 0.03096
 H72 H 0.78931 0.48119 -0.00419
 H73 H 0.82324 0.48101 0.03270
 H74 H 0.79360 0.55091 0.06859
 H75 H 0.70696 0.49504 -0.05604
 H76 H 0.67317 0.45793 -0.05955
 H77 H 0.70929 0.43151 0.01143
 H78 H 0.74220 0.46907 0.01367
 C79 C 0.69179 0.58075 -0.01390
 C80 C 0.80547 0.51619 -0.08530
 C81 C 0.68895 0.44188 -0.02440
 C82 C 0.81074 0.51588 0.05344
 C83 C -0.00630 0.28758 0.45123
 H84 H -0.02043 0.28718 0.46588
 C85 C -0.00769 0.30575 0.43240
 H86 H -0.02306 0.31929 0.43247
 C87 C 0.03172 0.27121 0.43407
 H88 H 0.04742 0.25819 0.43527
 C89 C 0.03108 0.28914 0.41488
 H90 H 0.04619 0.28969 0.40119
 N91 N 0.01321 0.27084 0.45179
 C92 C -0.01498 0.20901 0.49836
 H93 H 0.00120 0.21002 0.51330
 C94 C -0.03565 0.18998 0.49841
 H95 H -0.03550 0.17633 0.51350
 C96 C -0.03457 0.22506 0.45995
 H97 H -0.03378 0.23843 0.44472
 C98 C -0.05567 0.20626 0.45927
 H99 H -0.07122 0.20534 0.44365
 Zn100 Zn 0.01523 0.24964 0.48028
 N101 N -0.01483 0.22612 0.47940
 C102 C -0.00069 0.27205 0.52868
 N103 N 0.01805 0.27275 0.51122
 C104 C 0.03823 0.29158 0.51414
 C105 C 0.04007 0.31082 0.53523
 C106 C 0.00042 0.29092 0.55005
 C107 C 0.04400 0.21039 0.45839
 C108 C 0.06310 0.19222 0.45770
 C109 C 0.08264 0.21243 0.49945
 C110 C 0.06316 0.23027 0.49937
 N111 N 0.04426 0.22882 0.47908
 H112 H -0.01695 0.25739 0.52566
 H113 H 0.05256 0.29197 0.49968
 H114 H 0.05592 0.32602 0.53713
 H115 H -0.01485 0.29057 0.56357
 H116 H 0.02843 0.20936 0.44282
 H117 H 0.06234 0.17719 0.44148
 H118 H 0.09720 0.21323 0.51598
 H119 H 0.06263 0.24460 0.51594
 C120 C -0.05613 0.18853 0.47866
 C121 C 0.01131 0.30672 0.41421
 C122 C 0.08240 0.19305 0.47857
 C123 C 0.02087 0.31059 0.55322
 C124 C 0.96358 0.71229 0.54824
 H125 H 0.94812 0.71136 0.53256
 C126 C 0.96281 0.69426 0.56723
 H127 H 0.94663 0.67946 0.56629
 C128 C 1.00435 0.73174 0.56775
 H129 H 1.02087 0.74584 0.56740
 C130 C 1.00436 0.71402 0.58713
 H131 H 1.02078 0.71468 0.60180
 N132 N 0.98421 0.73042 0.54872
 C133 C 0.95646 0.78903 0.49827
 H134 H 0.97119 0.78840 0.48423
 C135 C 0.93748 0.80726 0.49677
 H136 H 0.93749 0.82065 0.48144
 C137 C 0.93914 0.77316 0.53614
 H138 H 0.94030 0.76029 0.55183
 C139 C 0.91981 0.79116 0.53537
 H140 H 0.90596 0.79196 0.55033
 Zn141 Zn 0.98546 0.75094 0.51974
 N142 N 0.95698 0.77248 0.51774
 C143 C 0.96525 0.72613 0.46972
 N144 N 0.98466 0.72712 0.48948
 C145 C 1.00358 0.70972 0.48922
 C146 C 1.00362 0.69047 0.46838
 C147 C 0.96456 0.70711 0.44846
 C148 C 1.01913 0.79273 0.54302
 C149 C 1.04002 0.81181 0.54482
 C150 C 1.05479 0.79130 0.50494
 C151 C 1.03362 0.77258 0.50387
 N152 N 1.01626 0.77369 0.52271
 H153 H 0.95004 0.73971 0.47060
 H154 H 1.01849 0.71069 0.50542
 H155 H 1.01868 0.67659 0.46844
 H156 H 0.94896 0.70624 0.43290
 H157 H 1.00475 0.79344 0.55743
 H158 H 1.04184 0.82723 0.56073
 H159 H 1.06818 0.79066 0.48955
 H160 H 1.03064 0.75776 0.48752
 C161 C 0.91913 0.80848 0.51560
 C162 C 0.98353 0.69494 0.58666
 C163 C 1.05785 0.81122 0.52547
 C164 C 0.98390 0.68909 0.44788
 C165 C 0.45364 -0.00174 0.28795
 H166 H 0.46842 -0.01585 0.28737
 C167 C 0.43477 -0.00313 0.30613
 H168 H 0.43490 -0.01845 0.31952
 C169 C 0.43612 0.03620 0.27201
 H170 H 0.43717 0.05186 0.25914
 C171 C 0.41689 0.03554 0.28997
 H172 H 0.40300 0.05057 0.29073
 N173 N 0.45402 0.01771 0.27139
 C174 C 0.50056 -0.01093 0.20882
 H175 H 0.51538 0.00521 0.20989
 C176 C 0.50071 -0.03174 0.18957
 H177 H 0.51578 -0.03167 0.17581
 C178 C 0.46240 -0.03028 0.22501
 H179 H 0.44722 -0.02934 0.23851
 C180 C 0.46180 -0.05152 0.20599
 H181 H 0.44627 -0.06701 0.20509
 Zn182 Zn 0.48243 0.01958 0.25000
 N183 N 0.48169 -0.01061 0.22612
 C184 C 0.53073 0.00347 0.27195
 N185 N 0.51329 0.02236 0.27298
 C186 C 0.51612 0.04260 0.29209
 C187 C 0.53710 0.04431 0.31130
 C188 C 0.55199 0.00445 0.29079
 C189 C 0.46036 0.04824 0.21117
 C190 C 0.45952 0.06722 0.19312
 C191 C 0.50107 0.08678 0.21323
 C192 C 0.50113 0.06742 0.23096
 N193 N 0.48102 0.04856 0.22948
 H194 H 0.52778 -0.01283 0.25708
 H195 H 0.50167 0.05705 0.29273
 H196 H 0.53891 0.06018 0.32675
 H197 H 0.56547 -0.01096 0.29019
 H198 H 0.44493 0.03269 0.21012
 H199 H 0.44333 0.06640 0.17817
 H200 H 0.51747 0.10130 0.21401
 H201 H 0.51768 0.06693 0.24519
 C202 C 0.48112 -0.05219 0.18807
 C203 C 0.41637 0.01579 0.30730
 C204 C 0.48022 0.08646 0.19395
 C205 C 0.55505 0.02492 0.31077
 C206 C 0.54701 -0.04135 0.71074
 H207 H 0.53153 -0.05684 0.70968
 C208 C 0.56603 -0.04215 0.69263
 H209 H 0.56530 -0.05838 0.67762
 C210 C 0.56601 -0.00045 0.73062
 H211 H 0.56543 0.01614 0.74491
 C212 C 0.58540 -0.00048 0.71284
 H213 H 0.59985 0.01598 0.71365
 N214 N 0.54722 -0.02063 0.72912
 C215 C 0.49691 -0.04796 0.78772
 H216 H 0.48277 -0.03320 0.78721
 C217 C 0.49557 -0.06673 0.80592
 H218 H 0.48027 -0.06656 0.81940
 C219 C 0.53489 -0.06545 0.77160
 H220 H 0.55055 -0.06442 0.75867
 C221 C 0.53428 -0.08460 0.78958
 H222 H 0.54935 -0.09843 0.79029
 Zn223 Zn 0.51822 -0.01924 0.74975
 N224 N 0.51637 -0.04760 0.77108
 C225 C 0.46844 -0.03937 0.72489
 N226 N 0.48810 -0.02008 0.72597
 C227 C 0.48781 -0.00122 0.70874
 C228 C 0.46703 -0.00111 0.68959
 C229 C 0.44724 -0.03999 0.70597
 C230 C 0.54108 0.01462 0.79185
 C231 C 0.54277 0.03571 0.81108
 C232 C 0.50299 0.05054 0.79073
 C233 C 0.50203 0.02918 0.77187
 N234 N 0.52090 0.01172 0.77281
 H235 H 0.46935 -0.05453 0.73834
 H236 H 0.50392 0.01361 0.70978
 H237 H 0.46705 0.01391 0.67587
 H238 H 0.43174 -0.05549 0.70504
 H239 H 0.55551 0.00016 0.79242
 H240 H 0.55861 0.03759 0.82647
 H241 H 0.48761 0.06405 0.79020
 H242 H 0.48578 0.02617 0.75705
 C243 C 0.51455 -0.08507 0.80701
 C244 C 0.58519 -0.02138 0.69348
 C245 C 0.52341 0.05369 0.81063
 C246 C 0.44661 -0.02070 0.68814
 C247 C 0.22026 -0.02203 0.50709
 C248 C 0.23544 0.00016 0.50110
 C249 C 0.22324 0.02316 0.49596
 C250 C 0.19612 0.02404 0.49709
 C251 C 0.18105 0.00176 0.50277
 C252 C 0.19307 -0.02132 0.50763
 C253 C 0.26402 -0.00071 0.50022
 C254 C 0.27585 0.00383 0.47698
 C255 C 0.30297 0.00267 0.47608
 C256 C 0.31839 -0.00245 0.49856
 C257 C 0.30674 -0.00670 0.52186
 C258 C 0.27956 -0.00612 0.52262
 H259 H 0.22955 -0.03991 0.51082
 H260 H 0.23490 0.04041 0.49154
 H261 H 0.26392 0.00780 0.45957
 H262 H 0.27056 -0.00939 0.54068
 H263 H 0.16001 0.00236 0.50338
 H264 H 0.33942 -0.00310 0.49793
 C265 C 0.77621 -0.02273 0.50317
 C266 C 0.76394 0.00037 0.49863
 C267 C 0.77905 0.02281 0.49315
 C268 C 0.80624 0.02222 0.49251
 C269 C 0.81832 -0.00095 0.49675
 C270 C 0.80333 -0.02347 0.50193
 C271 C 0.73536 0.00110 0.49963
 C272 C 0.72359 -0.00406 0.52275
 C273 C 0.69647 -0.00306 0.52378
 C274 C 0.68098 0.00252 0.50151
 C275 C 0.69256 0.00738 0.47832
 C276 C 0.71975 0.00697 0.47747
 H277 H 0.76461 -0.04017 0.50720
 H278 H 0.76971 0.04077 0.48989
 H279 H 0.73558 -0.00839 0.53999
 H280 H 0.72871 0.01072 0.45949
 H281 H 0.83936 -0.00145 0.49606
 H282 H 0.65994 0.00304 0.50223
 C283 C 0.52196 0.27938 0.99276
 C284 C 0.49969 0.26422 0.99858
 C285 C 0.47660 0.27644 1.00342
 C286 C 0.47572 0.30355 1.00215
 C287 C 0.49808 0.31860 0.99663
 C288 C 0.52124 0.30657 0.99208
 C289 C 0.50057 0.23565 0.99963
 C290 C 0.49576 0.22406 1.02290
 C291 C 0.49691 0.19695 1.02396
 C292 C 0.50230 0.18128 1.00161
 C293 C 0.50683 0.19269 0.97828
 C294 C 0.50626 0.21987 0.97737
 H295 H 0.53991 0.27007 0.98927
 H296 H 0.45929 0.26480 1.00772
 H297 H 0.49156 0.23618 1.04020
 H298 H 0.50976 0.22869 0.95929
 H299 H 0.49747 0.33964 0.99593
 H300 H 0.50293 0.16025 1.00236
 C301 C 0.52290 0.72372 -0.00236
 C302 C 0.49973 0.73600 0.00195
 C303 C 0.47720 0.72092 0.00718
 C304 C 0.47774 0.69371 0.00780
 C305 C 0.50096 0.68160 0.00378
 C306 C 0.52358 0.69658 -0.00115
 C307 C 0.49906 0.76459 0.00097
 C308 C 0.50345 0.77613 -0.02241
 C309 C 0.50247 0.80327 -0.02340
 C310 C 0.49769 0.81899 -0.00086
 C311 C 0.49360 0.80762 0.02259
 C312 C 0.49399 0.78042 0.02343
 H313 H 0.54040 0.73532 -0.00622
 H314 H 0.45920 0.73030 0.01028
 H315 H 0.50717 0.76395 -0.03986
 H316 H 0.49081 0.77161 0.04159
 H317 H 0.50142 0.66054 0.00445
 H318 H 0.49719 0.84004 -0.00156
 C319 C 0.99484 0.52230 0.28000
 C320 C 0.99941 0.49962 0.26426
 C321 C 1.00317 0.47613 0.27587
 C322 C 1.00206 0.47526 0.30303
 C323 C 0.99778 0.49800 0.31869
 C324 C 0.99431 0.52155 0.30723
 C325 C 1.00021 0.50049 0.23567
 C326 C 1.02365 0.49678 0.22382
 C327 C 1.02444 0.49795 0.19666
 C328 C 1.00169 0.50225 0.18123
 C329 C 0.97819 0.50567 0.19292
 C330 C 0.97752 0.50508 0.22015
 H331 H 0.99212 0.54052 0.27111
 H332 H 1.00652 0.45853 0.26374
 H333 H 1.04125 0.49341 0.23578
 H334 H 0.95933 0.50776 0.22922
 H335 H 0.99717 0.49738 0.33976
 H336 H 1.00225 0.50290 0.16016
 C337 C -0.00313 0.52340 0.72415
 C338 C 0.00114 0.49995 0.73568
 C339 C 0.00641 0.47756 0.71987
 C340 C 0.00708 0.47852 0.69268
 C341 C 0.00309 0.50203 0.68132
 C342 C -0.00187 0.52451 0.69704
 C343 C 0.00010 0.49884 0.76424
 C344 C -0.02329 0.50309 0.77600
 C345 C -0.02433 0.50176 0.80312
 C346 C -0.00185 0.49676 0.81861
 C347 C 0.02161 0.49280 0.80701
 C348 C 0.02250 0.49354 0.77982
 H349 H -0.00702 0.54079 0.73632
 H350 H 0.00949 0.45935 0.72868
 H351 H -0.04069 0.50701 0.76401
 H352 H 0.04066 0.49048 0.77084
 H353 H 0.00380 0.50281 0.66028
 H354 H -0.00258 0.49601 0.83965
 C355 C 0.13119 0.13355 0.48220
 N356 N 0.14725 0.13158 0.50410
 N357 N 0.16105 0.11061 0.50635
 C358 C 0.15918 0.09097 0.48677
 N359 N 0.14316 0.09297 0.46485
 N360 N 0.12937 0.11394 0.46260
 C361 C 0.11493 0.15520 0.48057
 C362 C 0.10053 0.17281 0.47950
 C363 C 0.17278 0.06769 0.48990
 C364 C 0.18368 0.04789 0.49294
 C365 C 0.63296 0.63047 -0.01214
 N366 N 0.62995 0.64609 0.00992
 N367 N 0.60910 0.66019 0.01143
 C368 C 0.59062 0.65908 -0.00907
 N369 N 0.59367 0.64351 -0.03116
 N370 N 0.61452 0.62942 -0.03267
 C371 C 0.65439 0.61387 -0.01307
 C372 C 0.67181 0.59919 -0.01358
 C373 C 0.56737 0.67294 -0.00678
 C374 C 0.54754 0.68400 -0.00445
 C375 C 0.86941 -0.13269 0.51380
 N376 N 0.87093 -0.11363 0.53392
 N377 N 0.85683 -0.09280 0.53229
 C378 C 0.84079 -0.09039 0.51047
 N379 N 0.83921 -0.10949 0.49038
 N380 N 0.85332 -0.13031 0.49202
 C381 C 0.88601 -0.15411 0.51479
 C382 C 0.90070 -0.17153 0.51530
 C383 C 0.82694 -0.06718 0.50799
 C384 C 0.81588 -0.04738 0.50547
 C385 C 0.36602 0.36857 1.01606
 N386 N 0.38504 0.36992 1.03609
 N387 N 0.40602 0.35611 1.03398
 C388 C 0.40864 0.34054 1.01178
 N389 N 0.38959 0.33914 0.99178
 N390 N 0.36860 0.35295 0.99388
 C391 C 0.34437 0.38484 1.01762
 C392 C 0.32677 0.39927 1.01866
 C393 C 0.43195 0.32693 1.00887
 C394 C 0.45180 0.31602 1.00603
 C395 C 0.88681 0.12941 0.47871
 N396 N 0.86939 0.12998 0.49737
 N397 N 0.85255 0.10941 0.49911
 C398 C 0.85263 0.08763 0.48224
 N399 N 0.87000 0.08708 0.46353
 N400 N 0.88684 0.10766 0.46180
 C401 C 0.90616 0.15078 0.47803
 C402 C 0.92302 0.16827 0.47801
 C403 C 0.83567 0.06488 0.48521
 C404 C 0.82197 0.04553 0.48824
 C405 C 0.37023 0.61317 0.02043
 N406 N 0.37010 0.63027 0.00155
 N407 N 0.39072 0.64711 0.00002
 C408 C 0.41210 0.64735 0.01731
 N409 N 0.41220 0.63029 0.03623
 N410 N 0.39158 0.61345 0.03776
 C411 C 0.34883 0.59382 0.02093
 C412 C 0.33133 0.57696 0.02081
 C413 C 0.43493 0.66429 0.01461
 C414 C 0.45434 0.67799 0.01180
 C415 C 0.11337 -0.12845 0.52395
 N416 N 0.13193 -0.12981 0.50647
 N417 N 0.14846 -0.10911 0.50424
 C418 C 0.14690 -0.08642 0.51940
 N419 N 0.12838 -0.08508 0.53693
 N420 N 0.11185 -0.10578 0.53916
 C421 C 0.09450 -0.15014 0.52516
 C422 C 0.07810 -0.16799 0.52561
 C423 C 0.16367 -0.06368 0.51590
 C424 C 0.17730 -0.04443 0.51242
 C425 C 0.62861 0.38631 0.97669
 N426 N 0.62968 0.36790 0.99427
 N427 N 0.60895 0.35136 0.99632
 C428 C 0.58651 0.35274 0.98088
 N429 N 0.58546 0.37111 0.96327
 N430 N 0.60619 0.38764 0.96121
 C431 C 0.65031 0.40519 0.97566
 C432 C 0.66817 0.42160 0.97533
 C433 C 0.56373 0.33596 0.98418
 C434 C 0.54442 0.32233 0.98749
 C435 C 0.48336 0.13449 1.13441
 N436 N 0.50544 0.14972 1.13169
 N437 N 0.50745 0.16310 1.11059
 C438 C 0.48746 0.16164 1.09154
 N439 N 0.46534 0.14647 1.09428
 N440 N 0.46333 0.13309 1.11539
 C441 C 0.48194 0.11857 1.15612
 C442 C 0.48102 0.10439 1.17375
 C443 C 0.49029 0.17471 1.06806
 C444 C 0.49308 0.18512 1.04807
 C445 C -0.01352 0.63543 0.63478
 N446 N -0.03435 0.61768 0.63448
 N447 N -0.03261 0.59652 0.64783
 C448 C -0.00999 0.59244 0.66187
 N449 N 0.01081 0.61022 0.66223
 N450 N 0.00908 0.63139 0.64887
 C451 C -0.01479 0.65716 0.61884
 C452 C -0.01565 0.67478 0.60463
 C453 C -0.00758 0.56885 0.67489
 C454 C -0.00519 0.54875 0.68525
 C455 C 0.51336 0.86629 -0.13384
 N456 N 0.49157 0.85072 -0.13090
 N457 N 0.49013 0.83714 -0.10986
 C458 C 0.51041 0.83875 -0.09111
 N459 N 0.53223 0.85427 -0.09409
 N460 N 0.53367 0.86784 -0.11513
 C461 C 0.51413 0.88244 -0.15543
 C462 C 0.51447 0.89681 -0.17294
 C463 C 0.50814 0.82556 -0.06763
 C464 C 0.50580 0.81509 -0.04760
 C465 C 1.01054 0.36469 0.36640
 N466 N 1.03170 0.38206 0.36689
 N467 N 1.03063 0.40310 0.35325
 C468 C 1.00836 0.40740 0.33873
 N469 N 0.98724 0.38999 0.33819
 N470 N 0.98830 0.36896 0.35182
 C471 C 1.01107 0.34316 0.38262
 C472 C 1.01128 0.32570 0.39706
 C473 C 1.00663 0.43091 0.32547
 C474 C 1.00478 0.45099 0.31494
 C475 C 0.48113 0.89102 0.12976
 N476 N 0.46410 0.89079 0.10816
 N477 N 0.46565 0.87348 0.08758
 C478 C 0.48426 0.85588 0.08797
 N479 N 0.50124 0.85606 0.10960
 N480 N 0.49971 0.87337 0.13017
 C481 C 0.48056 0.91075 0.15117
 C482 C 0.48058 0.92788 0.16873
 C483 C 0.48694 0.83832 0.06523
 C484 C 0.48970 0.82406 0.04589
 C485 C 0.02023 0.37098 0.61000
 N486 N 0.03658 0.39279 0.60960
 N487 N 0.03489 0.41352 0.62667
 C488 C 0.01679 0.41307 0.64465
 N489 N 0.00047 0.39125 0.64509
 N490 N 0.00216 0.37052 0.62802
 C491 C 0.02102 0.34928 0.59062
 C492 C 0.02120 0.33142 0.57385
 C493 C 0.01398 0.43590 0.66206
 C494 C 0.01112 0.45525 0.67624
 C495 C 0.52203 0.11029 0.87106
 N496 N 0.53745 0.10918 0.89358
 N497 N 0.53540 0.12619 0.91428
 C498 C 0.51785 0.14482 0.91310
 N499 N 0.50247 0.14598 0.89056
 N500 N 0.50453 0.12896 0.86986
 C501 C 0.52313 0.09099 0.84936
 C502 C 0.52354 0.07426 0.83148
 C503 C 0.51460 0.16218 0.93584
 C504 C 0.51134 0.17631 0.95512
 C505 C 0.98347 0.62944 0.39017
 N506 N 0.96557 0.60866 0.38922
 N507 N 0.96687 0.58795 0.37201
 C508 C 0.98610 0.58740 0.35523
 N509 N 1.00396 0.60821 0.35613
 N510 N 1.00267 0.62891 0.37334
 C511 C 0.98307 0.65096 0.40981
 C512 C 0.98320 0.66861 0.42686
 C513 C 0.98842 0.56450 0.33778
 C514 C 0.99084 0.54502 0.32360
 C515 C 1.13476 0.48952 0.13239
 N516 N 1.13044 0.51183 0.14702
 N517 N 1.10945 0.51290 0.16081
 C518 C 1.09213 0.49170 0.16035
 N519 N 1.09648 0.46937 0.14577
 N520 N 1.11748 0.46831 0.13199
 C521 C 1.15628 0.48897 0.11604
 C522 C 1.17373 0.48874 0.10152
 C523 C 1.06867 0.49342 0.17381
 C524 C 1.04865 0.49526 0.18452
 C525 C 0.63336 -0.01793 0.63386
 N526 N 0.63143 -0.03748 0.61419
 N527 N 0.64491 -0.03526 0.59313
 C528 C 0.66071 -0.01339 0.59107
 N529 N 0.66269 0.00613 0.61077
 N530 N 0.64921 0.00391 0.63183
 C531 C 0.61737 -0.01951 0.65558
 C532 C 0.60315 -0.02052 0.67323
 C533 C 0.67392 -0.01027 0.56767
 C534 C 0.68446 -0.00722 0.54776
 C535 C -0.13503 0.51329 0.86629
 N536 N -0.13102 0.49070 0.85196
 N537 N -0.10989 0.48899 0.83846
 C538 C -0.09211 0.50980 0.83889
 N539 N -0.09615 0.53242 0.85315
 N540 N -0.11729 0.53413 0.86666
 C541 C -0.15674 0.51454 0.88234
 C542 C -0.17436 0.51538 0.89664
 C543 C -0.06857 0.50742 0.82567
 C544 C -0.04852 0.50506 0.81513
 C545 C 0.36723 0.01431 0.36624
 N546 N 0.35139 -0.00741 0.36873
 N547 N 0.33760 -0.00899 0.38966
 C548 C 0.33924 0.01110 0.40875
 N549 N 0.35503 0.03286 0.40623
 N550 N 0.36882 0.03444 0.38530
 C551 C 0.38359 0.01520 0.34474
 C552 C 0.39810 0.01562 0.32730
 C553 C 0.32578 0.00866 0.43210
 C554 C 0.31508 0.00618 0.45202
 C555 C 0.12914 0.47950 0.88878
 N556 N 0.10740 0.46306 0.88914
 N557 N 0.08668 0.46477 0.87223
 C558 C 0.08706 0.48299 0.85444
 N559 N 0.10882 0.49940 0.85404
 N560 N 0.12954 0.49768 0.87095
 C561 C 0.15081 0.47871 0.90802
 C562 C 0.16864 0.47852 0.92470
 C563 C 0.06423 0.48583 0.83723
 C564 C 0.04488 0.48872 0.82323
 C565 C 0.61113 0.02337 0.37125
 N566 N 0.63003 0.00611 0.36977
 N567 N 0.64684 0.00392 0.39047
 C568 C 0.64526 0.01891 0.41328
 N569 N 0.62641 0.03622 0.41473
 N570 N 0.60960 0.03840 0.39404
 C571 C 0.59203 0.02456 0.34953
 C572 C 0.57545 0.02502 0.33164
 C573 C 0.66241 0.01549 0.43600
 C574 C 0.67637 0.01208 0.45523
 C575 C 0.87026 0.51638 0.11087
 N576 N 0.87098 0.49696 0.12734
 N577 N 0.89168 0.49570 0.14440
 C578 C 0.91229 0.51380 0.14550
 N579 N 0.91154 0.53326 0.12907
 N580 N 0.89084 0.53452 0.11201
 C581 C 0.84876 0.51675 0.09135
 C582 C 0.83115 0.51660 0.07438
 C583 C 0.93521 0.51152 0.16276
 C584 C 0.95470 0.50912 0.17677
 C585 C 0.38900 -0.02046 0.62890
 N586 N 0.38905 -0.03719 0.60700
 N587 N 0.37193 -0.03544 0.58644
 C588 C 0.35424 -0.01690 0.58716
 N589 N 0.35413 -0.00022 0.60908
 N590 N 0.37126 -0.00197 0.62964
 C591 C 0.40858 -0.02119 0.65028
 C592 C 0.42560 -0.02126 0.66781
 C593 C 0.33692 -0.01395 0.56444
 C594 C 0.32290 -0.01093 0.54512
   
