data_POSCAR
  _audit_creation_date              2014-09-24
  _audit_creation_method            'ToBaCCo'
  _symmetry_space_group_name_H-M    'P1'
  _symmetry_Int_Tables_number       1
  _symmetry_cell_setting            triclinic
  loop_
  _symmetry_equiv_pos_as_xyz
 x,y,z
_cell_length_a 63.9425
_cell_length_b 63.9671
_cell_length_c 19.2536
_cell_angle_alpha 89.962100
_cell_angle_beta 90.018100
_cell_angle_gamma 120.013000
loop_
  _atom_site_label
  _atom_site_type_symbol
  _atom_site_fract_x
  _atom_site_fract_y
  _atom_site_fract_z
C1 C 0.24914 0.49887 0.53228
 C2 C 0.24866 0.49874 0.46160
 C3 C 0.22821 0.49772 0.42223
 C4 C 0.26859 0.49947 0.42053
 C5 C 0.26867 0.49805 0.57167
 C6 C 0.23003 0.49970 0.57343
 C7 C 0.20449 0.47893 0.43311
 C8 C 0.18526 0.47850 0.39739
 C9 C 0.18930 0.49676 0.34891
 C10 C 0.21338 0.51523 0.33707
 C11 C 0.23253 0.51562 0.37321
 C12 C 0.26436 0.47940 0.38068
 C13 C 0.28336 0.47923 0.34540
 C14 C 0.30676 0.49940 0.34797
 C15 C 0.31077 0.51980 0.38619
 C16 C 0.29185 0.51975 0.42269
 C17 C 0.28241 0.51622 0.61991
 C18 C 0.30122 0.51594 0.65610
 C19 C 0.30657 0.49738 0.64492
 C20 C 0.29239 0.47890 0.59753
 C21 C 0.27353 0.47916 0.56164
 C22 C 0.22710 0.52000 0.57099
 C23 C 0.20842 0.52022 0.60810
 C24 C 0.19216 0.49996 0.64715
 C25 C 0.19534 0.47977 0.64991
 C26 C 0.21432 0.47978 0.61405
 H27 H 0.20085 0.46459 0.46951
 H28 H 0.16723 0.46375 0.40817
 H29 H 0.21762 0.52963 0.30027
 H30 H 0.25076 0.53018 0.36370
 H31 H 0.24647 0.46363 0.37855
 H32 H 0.27972 0.46335 0.31591
 H33 H 0.29534 0.53541 0.45313
 H34 H 0.27881 0.53085 0.62872
 H35 H 0.31169 0.53040 0.69236
 H36 H 0.29583 0.46421 0.58807
 H37 H 0.26274 0.46464 0.52587
 H38 H 0.23918 0.53556 0.54000
 H39 H 0.20633 0.53599 0.60494
 H40 H 0.18319 0.46401 0.68004
 H41 H 0.21642 0.46400 0.61646
 H42 H 0.32865 0.53555 0.38920
 C43 C 0.50142 -0.24992 0.53625
 C44 C 0.50121 -0.24970 0.46559
 C45 C 0.50032 -0.26972 0.42470
 C46 C 0.50201 -0.22940 0.42601
 C47 C 0.50064 -0.23072 0.57702
 C48 C 0.50246 -0.26928 0.57592
 C49 C 0.52021 -0.26558 0.38406
 C50 C 0.52019 -0.28464 0.34865
 C51 C 0.50000 -0.30801 0.35187
 C52 C 0.47977 -0.31194 0.39089
 C53 C 0.48002 -0.29295 0.42756
 C54 C 0.52101 -0.20568 0.43550
 C55 C 0.52123 -0.18658 0.39964
 C56 C 0.50259 -0.19089 0.35284
 C57 C 0.48391 -0.21479 0.34217
 C58 C 0.48367 -0.23386 0.37832
 C59 C 0.48013 -0.22812 0.57560
 C60 C 0.47995 -0.20930 0.61199
 C61 C 0.50046 -0.19257 0.64928
 C62 C 0.52087 -0.19541 0.65105
 C63 C 0.52083 -0.21453 0.61593
 C64 C 0.48459 -0.28277 0.62516
 C65 C 0.48499 -0.30149 0.66148
 C66 C 0.50341 -0.30708 0.64949
 C67 C 0.52164 -0.29302 0.60100
 C68 C 0.52123 -0.27425 0.56506
 H69 H 0.53599 -0.24771 0.38134
 H70 H 0.53594 -0.28108 0.31854
 H71 H 0.46401 -0.32979 0.39441
 H72 H 0.46449 -0.29637 0.45858
 H73 H 0.53565 -0.20194 0.47086
 H74 H 0.53602 -0.16846 0.40866
 H75 H 0.46895 -0.25208 0.36997
 H76 H 0.46437 -0.24056 0.54590
 H77 H 0.46400 -0.20750 0.60962
 H78 H 0.53684 -0.18289 0.67981
 H79 H 0.53678 -0.21635 0.61750
 H80 H 0.47005 -0.27907 0.63465
 H81 H 0.47068 -0.31167 0.69846
 H82 H 0.53629 -0.29645 0.59047
 H83 H 0.53554 -0.26364 0.52850
 H84 H 0.46932 -0.21878 0.30638
 C85 C 1.24989 0.75075 0.53609
 C86 C 1.25031 0.75095 0.46543
 C87 C 1.26978 0.77125 0.42578
 C88 C 1.23116 0.73090 0.42462
 C89 C 1.22956 0.73132 0.57578
 C90 C 1.26978 0.77009 0.57679
 C91 C 1.27437 0.79493 0.43476
 C92 C 1.29313 0.81403 0.39859
 C93 C 1.30756 0.80983 0.35160
 C94 C 1.30237 0.78586 0.34148
 C95 C 1.28367 0.76682 0.37812
 C96 C 1.21529 0.73497 0.38429
 C97 C 1.19618 0.71586 0.34918
 C98 C 1.19302 0.69251 0.35240
 C99 C 1.20945 0.68865 0.39106
 C100 C 1.22827 0.70769 0.42742
 C101 C 1.23401 0.71779 0.62469
 C102 C 1.21492 0.69898 0.66089
 C103 C 1.19088 0.69335 0.64912
 C104 C 1.18665 0.70744 0.60089
 C105 C 1.20579 0.72629 0.56508
 C106 C 1.29257 0.77201 0.57882
 C107 C 1.31150 0.79086 0.61541
 C108 C 1.30813 0.80851 0.64926
 C109 C 1.28503 0.80625 0.64714
 C110 C 1.26599 0.78701 0.61220
 H111 H 1.26340 0.79863 0.46987
 H112 H 1.29623 0.83207 0.40763
 H113 H 1.31284 0.78171 0.30568
 H114 H 1.28023 0.74861 0.37004
 H115 H 1.21735 0.75282 0.38162
 H116 H 1.18390 0.71937 0.31933
 H117 H 1.24046 0.70432 0.45822
 H118 H 1.25227 0.72152 0.63399
 H119 H 1.21909 0.68876 0.69764
 H120 H 1.16854 0.70397 0.59048
 H121 H 1.20204 0.73692 0.52872
 H122 H 1.29569 0.75897 0.55178
 H123 H 1.32891 0.79184 0.61558
 H124 H 1.28150 0.81923 0.67281
 H125 H 1.24843 0.78568 0.61108
 H126 H 1.20739 0.67082 0.39456
 C127 C 0.75187 0.50359 0.53892
 C128 C 0.75102 0.50163 0.46830
 C129 C 0.76985 0.49985 0.42713
 C130 C 0.73130 0.50204 0.42863
 C131 C 0.73195 0.50352 0.57831
 C132 C 0.77235 0.50571 0.58061
 C133 C 0.77931 0.51395 0.36690
 C134 C 0.79753 0.51320 0.32885
 C135 C 0.80697 0.49870 0.35106
 C136 C 0.79718 0.48413 0.41012
 C137 C 0.77836 0.48424 0.44681
 C138 C 0.72807 0.52215 0.43211
 C139 C 0.70948 0.52248 0.39503
 C140 C 0.69393 0.50282 0.35287
 C141 C 0.69755 0.48289 0.34841
 C142 C 0.71612 0.48255 0.38587
 C143 C 0.70964 0.48226 0.58517
 C144 C 0.69094 0.48226 0.62278
 C145 C 0.69404 0.50374 0.65295
 C146 C 0.71657 0.52505 0.64530
 C147 C 0.73541 0.52481 0.60930
 C148 C 0.76794 0.48906 0.63384
 C149 C 0.78704 0.49007 0.67166
 C150 C 0.81109 0.50794 0.65746
 C151 C 0.81532 0.52510 0.60522
 C152 C 0.79613 0.52404 0.56746
 H153 H 0.77293 0.52594 0.34999
 H154 H 0.80481 0.52456 0.28336
 H155 H 0.80393 0.47249 0.42742
 H156 H 0.77071 0.47237 0.49109
 H157 H 0.74003 0.53764 0.46341
 H158 H 0.70739 0.53821 0.39921
 H159 H 0.71853 0.46699 0.38205
 H160 H 0.70679 0.46565 0.56170
 H161 H 0.67397 0.46547 0.62713
 H162 H 0.71985 0.54194 0.66779
 H163 H 0.75261 0.54135 0.60451
 H164 H 0.74968 0.47486 0.64503
 H165 H 0.78285 0.47658 0.71151
 H166 H 0.83346 0.53928 0.59281
 H167 H 0.79983 0.53732 0.52731
 H168 H 0.68597 0.46749 0.31630
 C169 C 0.49673 0.24834 0.53756
 C170 C 0.49694 0.24820 0.46694
 C171 C 0.49740 0.26801 0.42595
 C172 C 0.49631 0.22805 0.42726
 C173 C 0.49708 0.22887 0.57815
 C174 C 0.49581 0.26767 0.57750
 C175 C 0.47743 0.26338 0.38495
 C176 C 0.47716 0.28207 0.34818
 C177 C 0.49714 0.30558 0.35042
 C178 C 0.51742 0.31004 0.39017
 C179 C 0.51746 0.29141 0.42815
 C180 C 0.47689 0.20442 0.43434
 C181 C 0.47649 0.18552 0.39700
 C182 C 0.49539 0.18994 0.35113
 C183 C 0.51461 0.21375 0.34323
 C184 C 0.51501 0.23262 0.38083
 C185 C 0.51812 0.22731 0.58248
 C186 C 0.51814 0.20862 0.62018
 C187 C 0.49689 0.19077 0.65287
 C188 C 0.47585 0.19259 0.64803
 C189 C 0.47610 0.21166 0.61198
 C190 C 0.51375 0.28105 0.62665
 C191 C 0.51330 0.29957 0.66385
 C192 C 0.49475 0.30505 0.65290
 C193 C 0.47650 0.29115 0.60430
 C194 C 0.47697 0.27259 0.56742
 H195 H 0.46184 0.24538 0.38267
 H196 H 0.46138 0.27808 0.31757
 H197 H 0.53303 0.32801 0.39294
 H198 H 0.53307 0.29521 0.45937
 H199 H 0.46197 0.20064 0.46858
 H200 H 0.46131 0.16747 0.40395
 H201 H 0.53005 0.25080 0.37432
 H202 H 0.53448 0.24057 0.55666
 H203 H 0.53472 0.20795 0.62235
 H204 H 0.45915 0.17943 0.67259
 H205 H 0.45973 0.21272 0.60906
 H206 H 0.52834 0.27739 0.63551
 H207 H 0.52765 0.30966 0.70082
 H208 H 0.46177 0.29452 0.59448
 H209 H 0.46262 0.26206 0.53089
 H210 H 0.52943 0.21782 0.30826
 C211 C 0.75210 0.24927 0.53615
 C212 C 0.75173 0.24890 0.46549
 C213 C 0.73222 0.22859 0.42592
 C214 C 0.77097 0.26872 0.42428
 C215 C 0.77239 0.26878 0.57578
 C216 C 0.73226 0.22998 0.57717
 C217 C 0.72739 0.20483 0.43552
 C218 C 0.70886 0.18585 0.39832
 C219 C 0.69498 0.19029 0.35014
 C220 C 0.70021 0.21420 0.33979
 C221 C 0.71870 0.23315 0.37718
 C222 C 0.78641 0.26420 0.38342
 C223 C 0.80523 0.28291 0.34633
 C224 C 0.80851 0.30633 0.34811
 C225 C 0.79260 0.31067 0.38774
 C226 C 0.77407 0.29202 0.42603
 C227 C 0.76779 0.28217 0.62479
 C228 C 0.78673 0.30073 0.66205
 C229 C 0.81078 0.30625 0.65136
 C230 C 0.81519 0.29238 0.60282
 C231 C 0.79619 0.27379 0.56584
 C232 C 0.70896 0.22691 0.57536
 C233 C 0.69021 0.20820 0.61285
 C234 C 0.69444 0.19206 0.65172
 C235 C 0.71787 0.19533 0.65369
 C236 C 0.73668 0.21434 0.61741
 H237 H 0.73802 0.20101 0.47169
 H238 H 0.70548 0.16770 0.40727
 H239 H 0.68995 0.21831 0.30303
 H240 H 0.72228 0.25140 0.36868
 H241 H 0.78416 0.24626 0.38149
 H242 H 0.81710 0.27902 0.31583
 H243 H 0.76218 0.29572 0.45712
 H244 H 0.74950 0.27843 0.63356
 H245 H 0.78241 0.31078 0.69895
 H246 H 0.83331 0.29579 0.59318
 H247 H 0.80006 0.26327 0.52945
 H248 H 0.70532 0.23895 0.54471
 H249 H 0.67232 0.20604 0.61027
 H250 H 0.72166 0.18328 0.68362
 H251 H 0.75461 0.21655 0.61935
 H252 H 0.79478 0.32856 0.39019
 O253 O 1.03396 0.55309 0.12982
 O254 O 1.06058 0.54759 0.06321
 C255 C 1.05565 0.55837 0.11208
 O256 O 0.96576 0.44489 0.11825
 O257 O 0.93944 0.45255 0.05726
 C258 C 0.94414 0.44008 0.10116
 O259 O 1.03346 0.48021 0.12625
 O260 O 1.06039 0.51262 0.06089
 C261 C 1.05525 0.49648 0.10872
 O262 O 0.96658 0.52105 0.12514
 O263 O 0.93997 0.48908 0.05798
 C264 C 0.94489 0.50523 0.10552
 Zr265 Zr 1.00027 0.52684 0.08805
 O266 O 1.00029 0.52932 0.19763
 O267 O 1.00088 0.56001 0.07737
 Zr268 Zr 0.99982 0.47371 0.08632
 O269 O 0.99727 0.47210 0.19602
 O270 O 1.00230 0.44192 0.08427
 O271 O 1.02150 0.51082 0.10127
 O272 O 0.97906 0.48983 0.09976
 O273 O 0.96678 0.52281 -0.11941
 O274 O 0.93983 0.48905 -0.05856
 C275 C 0.94499 0.50636 -0.10246
 O276 O 1.03393 0.48110 -0.12765
 O277 O 1.06056 0.51331 -0.06139
 C278 C 1.05561 0.49743 -0.10974
 O279 O 0.96644 0.44604 -0.12282
 O280 O 0.93980 0.45271 -0.06017
 C281 C 0.94474 0.44075 -0.10526
 O282 O 1.03440 0.55434 -0.12594
 O283 O 1.06087 0.54841 -0.05974
 C284 C 1.05605 0.55956 -0.10790
 Zr285 Zr 1.00055 0.52759 -0.08646
 O286 O 0.99803 0.52710 -0.19609
 O287 O 1.00321 0.56193 -0.08325
 Zr288 Zr 1.00020 0.47459 -0.08866
 O289 O 0.99774 0.47412 -0.19840
 O290 O 1.00260 0.44276 -0.08977
 Zr291 Zr 1.03640 0.51855 0.00040
 Zr292 Zr 0.96412 0.48283 -0.00069
 O293 O 0.97941 0.49077 -0.10075
 O294 O 1.02196 0.51181 -0.10098
 O295 O 0.97874 0.52056 0.00076
 O296 O 1.02108 0.48078 -0.00096
 O297 O 1.02170 0.54152 0.00134
 O298 O 0.97834 0.45934 -0.00166
 H299 H 0.96811 0.48411 0.14042
 H300 H 1.03187 0.47382 -0.00124
 H301 H 0.96860 0.48557 -0.14176
 H302 H 1.03280 0.55922 0.00202
 H303 H 0.98850 0.42970 0.05683
 H304 H 0.98914 0.43053 -0.06138
 H305 H 1.01184 0.48904 -0.21601
 H306 H 1.01068 0.52404 -0.21459
 H307 H 0.99036 0.56065 -0.05191
 H308 H 1.00131 0.56591 0.12520
 H309 H 0.99410 0.51287 0.21622
 H310 H 1.01029 0.48770 0.21415
 O311 O 0.51978 0.55291 -0.12715
 O312 O 0.48767 0.54761 -0.06070
 C313 C 0.50360 0.55848 -0.10911
 O314 O 0.47910 0.44517 -0.12355
 O315 O 0.51199 0.45136 -0.05953
 C316 C 0.49527 0.43963 -0.10530
 O317 O 0.44728 0.48078 -0.12927
 O318 O 0.45250 0.51263 -0.06193
 C319 C 0.44176 0.49695 -0.11095
 O320 O 0.55578 0.52140 -0.11842
 O321 O 0.54827 0.48737 -0.05796
 C322 C 0.56068 0.50463 -0.10171
 Zr323 Zr 0.52706 0.52658 -0.08530
 O324 O 0.53136 0.52962 -0.19437
 O325 O 0.55933 0.55987 -0.07177
 Zr326 Zr 0.47403 0.47377 -0.08925
 O327 O 0.47595 0.47326 -0.19899
 O328 O 0.43962 0.44212 -0.09056
 O329 O 0.48992 0.51101 -0.10124
 O330 O 0.51104 0.48972 -0.10027
 O331 O 0.55452 0.52041 0.12287
 O332 O 0.54795 0.48724 0.05963
 C333 C 0.55982 0.50403 0.10510
 O334 O 0.44577 0.47926 0.12467
 O335 O 0.45214 0.51218 0.06036
 C336 C 0.44077 0.49592 0.10757
 O337 O 0.47785 0.44366 0.11825
 O338 O 0.51183 0.45104 0.05786
 C339 C 0.49459 0.43871 0.10165
 O340 O 0.51917 0.55254 0.12858
 O341 O 0.48696 0.54694 0.06216
 C342 C 0.50278 0.55783 0.11075
 Zr343 Zr 0.52585 0.52551 0.08903
 O344 O 0.52617 0.52332 0.19873
 O345 O 0.55783 0.55963 0.09045
 Zr346 Zr 0.47296 0.47266 0.08574
 O347 O 0.47366 0.47071 0.19540
 O348 O 0.43855 0.44103 0.08260
 Zr349 Zr 0.48190 0.51774 -0.00018
 Zr350 Zr 0.51789 0.48146 -0.00002
 O351 O 0.50980 0.48851 0.10024
 O352 O 0.48858 0.50981 0.10101
 O353 O 0.54128 0.51914 0.00212
 O354 O 0.45918 0.48000 -0.00202
 O355 O 0.51963 0.54047 0.00180
 O356 O 0.48014 0.45825 -0.00199
 H357 H 0.51663 0.48448 -0.14121
 H358 H 0.44145 0.47320 -0.00268
 H359 H 0.51501 0.48290 0.14120
 H360 H 0.52637 0.55819 0.00222
 H361 H 0.44078 0.42966 -0.06314
 H362 H 0.44014 0.42879 0.05536
 H363 H 0.47565 0.48600 0.21404
 H364 H 0.51102 0.52203 0.21614
 H365 H 0.56927 0.55889 0.05733
 H366 H 0.56527 0.56611 -0.11909
 H367 H 0.51760 0.51501 -0.21437
 H368 H 0.47729 0.48842 -0.21656
 O369 O 0.44656 -0.03347 -0.12881
 O370 O 0.45243 -0.06021 -0.06372
 C371 C 0.44138 -0.05518 -0.11165
 O372 O 0.55498 0.03393 -0.12305
 O373 O 0.54804 0.06046 -0.06082
 C374 C 0.56009 0.05559 -0.10572
 O375 O 0.51952 -0.03369 -0.12917
 O376 O 0.48706 -0.06030 -0.06359
 C377 C 0.50304 -0.05537 -0.11167
 O378 O 0.47825 0.03405 -0.12040
 O379 O 0.51220 0.06054 -0.05957
 C380 C 0.49503 0.05571 -0.10359
 Zr381 Zr 0.47315 0.00016 -0.08745
 O382 O 0.47124 0.00212 -0.19665
 O383 O 0.43977 -0.00093 -0.07541
 Zr384 Zr 0.52612 0.00007 -0.09004
 O385 O 0.52681 0.00276 -0.19977
 O386 O 0.55784 -0.00253 -0.09128
 O387 O 0.48886 -0.02133 -0.10277
 O388 O 0.51007 0.02101 -0.10171
 O389 O 0.47876 0.03361 0.12056
 O390 O 0.51211 0.06031 0.05795
 C391 C 0.49518 0.05532 0.10303
 O392 O 0.51919 -0.03369 0.12660
 O393 O 0.48734 -0.06038 0.05912
 C394 C 0.50306 -0.05540 0.10814
 O395 O 0.55507 0.03383 0.11941
 O396 O 0.54848 0.06053 0.05669
 C397 C 0.56042 0.05555 0.10177
 O398 O 0.44678 -0.03386 0.12611
 O399 O 0.45225 -0.06046 0.05938
 C400 C 0.44135 -0.05554 0.10797
 Zr401 Zr 0.47380 -0.00008 0.08689
 O402 O 0.47558 0.00247 0.19667
 O403 O 0.43963 -0.00234 0.08715
 Zr404 Zr 0.52674 -0.00003 0.08462
 O405 O 0.53040 0.00227 0.19382
 O406 O 0.55828 -0.00289 0.07704
 Zr407 Zr 0.48185 -0.03616 -0.00177
 Zr408 Zr 0.51807 0.03609 -0.00140
 O409 O 0.51076 0.02086 0.09882
 O410 O 0.48953 -0.02157 0.09949
 O411 O 0.48037 0.02175 -0.00007
 O412 O 0.51959 -0.02115 -0.00279
 O413 O 0.45907 -0.02122 -0.00048
 O414 O 0.54139 0.02170 -0.00270
 H415 H 0.51531 0.03180 -0.14277
 H416 H 0.52628 -0.03218 -0.00288
 H417 H 0.51620 0.03160 0.13994
 H418 H 0.44134 -0.03222 -0.00044
 H419 H 0.56989 0.01046 -0.06127
 H420 H 0.57140 0.01255 0.05844
 H421 H 0.51390 -0.00542 0.21324
 H422 H 0.47585 -0.01188 0.21478
 H423 H 0.44047 0.00989 0.05400
 H424 H 0.43382 -0.00101 -0.12299
 H425 H 0.48218 -0.00310 -0.21602
 H426 H 0.51240 -0.01176 -0.21798
 C427 C 1.13310 0.49651 0.24775
 N428 N 1.12906 0.47897 0.29437
 N429 N 1.14742 0.47902 0.32722
 C430 C 1.17063 0.49661 0.31502
 N431 N 1.17453 0.51413 0.26808
 N432 N 1.15618 0.51408 0.23513
 C433 C 1.11286 0.49651 0.21167
 N434 N 1.11697 0.51361 0.16332
 N435 N 1.09860 0.51360 0.13055
 C436 C 1.07546 0.49651 0.14502
 N437 N 1.07135 0.47943 0.19344
 N438 N 1.08972 0.47943 0.22613
 C439 C 0.50090 0.63458 0.24978
 N440 N 0.47970 0.63404 0.26153
 N441 N 0.47938 0.65224 0.29418
 C442 C 0.50027 0.67178 0.31559
 N443 N 0.52146 0.67232 0.30345
 N444 N 0.52176 0.65402 0.27146
 C445 C 0.50130 0.61451 0.21411
 N446 N 0.52120 0.61208 0.21712
 N447 N 0.52161 0.59390 0.18466
 C448 C 0.50223 0.57764 0.14742
 N449 N 0.48236 0.58013 0.14419
 N450 N 0.48186 0.59816 0.17726
 C451 C 0.36396 -0.13351 0.24787
 N452 N 0.35034 -0.12942 0.29385
 N453 N 0.33209 -0.14771 0.32709
 C454 C 0.32672 -0.17087 0.31589
 N455 N 0.34045 -0.17486 0.26970
 N456 N 0.35867 -0.15657 0.23631
 C457 C 0.38411 -0.11329 0.21147
 N458 N 0.39711 -0.11734 0.16305
 N459 N 0.41536 -0.09895 0.13004
 C460 C 0.42131 -0.07584 0.14438
 N461 N 0.40832 -0.07180 0.19287
 N462 N 0.39005 -0.09019 0.22576
 C463 C 0.86556 0.50164 0.24518
 N464 N 0.84716 0.50150 0.20956
 N465 N 0.82849 0.50054 0.24322
 C466 C 0.82733 0.49924 0.31364
 N467 N 0.84563 0.49916 0.34919
 N468 N 0.86448 0.50050 0.31559
 C469 C 0.88629 0.50303 0.20830
 N470 N 0.90805 0.51213 0.24030
 N471 N 0.92686 0.51327 0.20704
 C472 C 0.92451 0.50505 0.14089
 N473 N 0.90272 0.49585 0.10898
 N474 N 0.88400 0.49505 0.14189
 C475 C 0.49567 0.36161 0.24139
 N476 N 0.47486 0.34206 0.26291
 N477 N 0.47535 0.32421 0.29719
 C478 C 0.49667 0.32534 0.31190
 N479 N 0.51750 0.34498 0.29062
 N480 N 0.51700 0.36272 0.25573
 C481 C 0.49516 0.38132 0.20381
 N482 N 0.51495 0.39803 0.16895
 N483 N 0.51459 0.41609 0.13551
 C484 C 0.49450 0.41821 0.13620
 N485 N 0.47471 0.40152 0.17118
 N486 N 0.47499 0.38332 0.20405
 C487 C 0.63855 0.13308 0.24062
 N488 N 0.65154 0.12877 0.28839
 N489 N 0.66949 0.14692 0.32290
 C490 C 0.67515 0.17012 0.31112
 N491 N 0.66211 0.17438 0.26317
 N492 N 0.64417 0.15623 0.22859
 C493 C 0.61855 0.11300 0.20334
 N494 N 0.60551 0.11723 0.15542
 N495 N 0.58711 0.09894 0.12255
 C496 C 0.58109 0.07578 0.13642
 N497 N 0.59417 0.07157 0.18421
 N498 N 0.61257 0.08985 0.21702
 C499 C 0.49592 0.13411 -0.24146
 N500 N 0.51705 0.15287 -0.26452
 N501 N 0.51736 0.17111 -0.29889
 C502 C 0.49659 0.17150 -0.31083
 N503 N 0.47549 0.15272 -0.28704
 N504 N 0.47513 0.13433 -0.25347
 C505 C 0.49554 0.11382 -0.20462
 N506 N 0.47490 0.09209 -0.20076
 N507 N 0.47468 0.07355 -0.16843
 C508 C 0.49501 0.07618 -0.13793
 N509 N 0.51559 0.09798 -0.14133
 N510 N 0.51589 0.11642 -0.17443
 C511 C 0.63843 0.50436 -0.23989
 N512 N 0.63643 0.48322 -0.26110
 N513 N 0.65434 0.48302 -0.29594
 C514 C 0.67509 0.50393 -0.31031
 N515 N 0.67704 0.52505 -0.28844
 N516 N 0.65903 0.52529 -0.25435
 C517 C 0.61852 0.50460 -0.20269
 N518 N 0.61707 0.52505 -0.19966
 N519 N 0.59869 0.52511 -0.16729
 C520 C 0.58126 0.50481 -0.13597
 N521 N 0.58283 0.48443 -0.13847
 N522 N 0.60106 0.48429 -0.17156
 C523 C 0.86707 0.36213 -0.24223
 N524 N 0.84393 0.35664 -0.23078
 N525 N 0.82577 0.33857 -0.26494
 C526 C 0.82996 0.32520 -0.31195
 N527 N 0.85319 0.33076 -0.32300
 N528 N 0.87136 0.34884 -0.28892
 C529 C 0.88718 0.38230 -0.20553
 N530 N 0.91033 0.38821 -0.21903
 N531 N 0.92864 0.40674 -0.18675
 C532 C 0.92448 0.42004 -0.13968
 N533 N 0.90131 0.41408 -0.12596
 N534 N 0.88300 0.39555 -0.15832
 C535 C 0.50136 -0.13410 -0.24954
 N536 N 0.48020 -0.15491 -0.26019
 N537 N 0.47988 -0.17348 -0.29253
 C538 C 0.50074 -0.17203 -0.31473
 N539 N 0.52189 -0.15123 -0.30369
 N540 N 0.52219 -0.13258 -0.27199
 C541 C 0.50173 -0.11359 -0.21417
 N542 N 0.52157 -0.09124 -0.21753
 N543 N 0.52193 -0.07262 -0.18536
 C544 C 0.50255 -0.07575 -0.14808
 N545 N 0.48275 -0.09813 -0.14451
 N546 N 0.48230 -0.11669 -0.17727
 C547 C 0.36432 0.49744 -0.25080
 N548 N 0.35139 0.48035 -0.29912
 N549 N 0.33303 0.48030 -0.33199
 C550 C 0.32687 0.49734 -0.31793
 N551 N 0.33986 0.51443 -0.26950
 N552 N 0.35821 0.51448 -0.23653
 C553 C 0.38455 0.49746 -0.21463
 N554 N 0.39711 0.51411 -0.16483
 N555 N 0.41539 0.51400 -0.13187
 C556 C 0.42179 0.49726 -0.14761
 N557 N 0.40925 0.48065 -0.19750
 N558 N 0.39097 0.48074 -0.23038
 C559 C 1.13414 0.63677 -0.24790
 N560 N 1.15724 0.64235 -0.23523
 N561 N 1.17555 0.66062 -0.26841
 C562 C 1.17155 0.67410 -0.31554
 N563 N 1.14835 0.66841 -0.32793
 N564 N 1.13003 0.65013 -0.29486
 C565 C 1.11391 0.61664 -0.21149
 N566 N 1.09081 0.61070 -0.22603
 N567 N 1.07240 0.59249 -0.19305
 C568 C 1.07640 0.57957 -0.14422
 N569 N 1.09950 0.58551 -0.12963
 N570 N 1.11792 0.60371 -0.16271
 C571 C 0.86763 0.50855 -0.23714
 N572 N 0.84446 0.49161 -0.22281
 N573 N 0.82624 0.49154 -0.25651
 C574 C 0.83039 0.50838 -0.30599
 N575 N 0.85367 0.52538 -0.31993
 N576 N 0.87191 0.52546 -0.28622
 C577 C 0.88772 0.50829 -0.20100
 N578 N 0.91093 0.52510 -0.21573
 N579 N 0.92916 0.52458 -0.18392
 C580 C 0.92486 0.50723 -0.13623
 N581 N 0.90165 0.49047 -0.12133
 N582 N 0.88341 0.49099 -0.15313
 C583 C 0.49431 0.36099 -0.24157
 N584 N 0.47678 0.34770 -0.28842
 N585 N 0.47687 0.32958 -0.32220
 C586 C 0.49451 0.32401 -0.31069
 N587 N 0.51202 0.33739 -0.26353
 N588 N 0.51192 0.35549 -0.22965
 C589 C 0.49436 0.38118 -0.20516
 N590 N 0.51168 0.39433 -0.15751
 N591 N 0.51189 0.41287 -0.12530
 C592 C 0.49480 0.41893 -0.13966
 N593 N 0.47747 0.40575 -0.18720
 N594 N 0.47725 0.38720 -0.21932
 C595 C 0.63776 0.13416 -0.24242
 N596 N 0.65724 0.13281 -0.26412
 N597 N 0.67532 0.15129 -0.29730
 C598 C 0.67450 0.17172 -0.31067
 N599 N 0.65494 0.17300 -0.28918
 N600 N 0.63696 0.15461 -0.25537
 C601 C 0.61780 0.11379 -0.20605
 N602 N 0.60115 0.11684 -0.17081
 N603 N 0.58293 0.09833 -0.13819
 C604 C 0.58057 0.07603 -0.14018
 N605 N 0.59718 0.07294 -0.17561
 N606 N 0.61555 0.09153 -0.20765
 C607 C 1.13409 0.49906 -0.24915
 N608 N 1.13260 0.47820 -0.27111
 N609 N 1.15114 0.47851 -0.30360
 C610 C 1.17177 0.49969 -0.31600
 N611 N 1.17318 0.52057 -0.29432
 N612 N 1.15473 0.52024 -0.26116
 C613 C 1.11368 0.49867 -0.21309
 N614 N 1.11685 0.51813 -0.17626
 N615 N 1.09834 0.51769 -0.14309
 C616 C 1.07597 0.49786 -0.14618
 N617 N 1.07277 0.47846 -0.18336
 N618 N 1.09133 0.47881 -0.21592
 C619 C 0.50350 0.63621 -0.24819
 N620 N 0.52096 0.64958 -0.29517
 N621 N 0.52097 0.66793 -0.32796
 C622 C 0.50353 0.67368 -0.31525
 N623 N 0.48608 0.66021 -0.26803
 N624 N 0.48607 0.64188 -0.23514
 C625 C 0.50345 0.61595 -0.21220
 N626 N 0.48648 0.60308 -0.16341
 N627 N 0.48650 0.58474 -0.13065
 C628 C 0.50346 0.57856 -0.14560
 N629 N 0.52040 0.59140 -0.19447
 N630 N 0.52041 0.60977 -0.22715
 C631 C 0.36466 -0.13386 -0.25067
 N632 N 0.36707 -0.15254 -0.27417
 N633 N 0.34886 -0.17109 -0.30674
 C634 C 0.32738 -0.17192 -0.31624
 N635 N 0.32504 -0.15321 -0.29205
 N636 N 0.34334 -0.13450 -0.26033
 C637 C 0.38474 -0.11333 -0.21519
 N638 N 0.38574 -0.09164 -0.21208
 N639 N 0.40394 -0.07300 -0.17976
 C640 C 0.42161 -0.07550 -0.14856
 N641 N 0.42055 -0.09722 -0.15137
 N642 N 0.40253 -0.11576 -0.18452
 C643 C 0.50245 -0.13325 0.24866
 N644 N 0.48535 -0.15639 0.23459
 N645 N 0.48541 -0.17468 0.26756
 C646 C 0.50259 -0.17056 0.31576
 N647 N 0.51969 -0.14736 0.32964
 N648 N 0.51962 -0.12907 0.29678
 C649 C 0.50245 -0.11305 0.21240
 N650 N 0.51921 -0.08991 0.22801
 N651 N 0.51933 -0.07155 0.19494
 C652 C 0.50272 -0.07566 0.14500
 N653 N 0.48593 -0.09880 0.12942
 N654 N 0.48579 -0.11716 0.16257
 C655 C 0.36400 0.49802 0.24609
 N656 N 0.34445 0.47724 0.26775
 N657 N 0.32621 0.47769 0.29971
 C658 C 0.32692 0.49895 0.31181
 N659 N 0.34657 0.51976 0.29044
 N660 N 0.36471 0.51929 0.25784
 C661 C 0.38400 0.49748 0.21035
 N662 N 0.40058 0.51699 0.17415
 N663 N 0.41859 0.51642 0.14117
 C664 C 0.42084 0.49642 0.14378
 N665 N 0.40435 0.47696 0.18033
 N666 N 0.38618 0.47744 0.21272
 C667 C 1.13443 0.63494 0.25143
 N668 N 1.15514 0.63445 0.26275
 N669 N 1.17375 0.65269 0.29507
 C670 C 1.17244 0.67224 0.31653
 N671 N 1.15174 0.67273 0.30484
 N672 N 1.13305 0.65439 0.27319
 C673 C 1.11390 0.61486 0.21595
 N674 N 1.09157 0.61242 0.21918
 N675 N 1.07294 0.59427 0.18669
 C676 C 1.07602 0.57805 0.14919
 N677 N 1.09837 0.58053 0.14576
 N678 N 1.11694 0.59853 0.17887
 C679 C 0.49462 0.13285 0.24133
 N680 N 0.51248 0.15595 0.23060
 N681 N 0.51269 0.17407 0.26527
 C682 C 0.49506 0.16982 0.31198
 N683 N 0.47718 0.14667 0.32243
 N684 N 0.47697 0.12855 0.28785
 C685 C 0.49454 0.11278 0.20414
 N686 N 0.47715 0.08965 0.21720
 N687 N 0.47727 0.07137 0.18454
 C688 C 0.49475 0.07554 0.13754
 N689 N 0.51210 0.09868 0.12423
 N690 N 0.51199 0.11697 0.15697
 C691 C 0.63757 0.50382 0.24368
 N692 N 0.64226 0.48553 0.23430
 N693 N 0.66016 0.48521 0.26884
 C694 C 0.67409 0.50318 0.31401
 N695 N 0.66936 0.52148 0.32311
 N696 N 0.65145 0.52178 0.28871
 C697 C 0.61765 0.50408 0.20654
 N698 N 0.61225 0.52173 0.21905
 N699 N 0.59392 0.52180 0.18635
 C700 C 0.58037 0.50426 0.13977
 N701 N 0.58583 0.48666 0.12702
 N702 N 0.60413 0.48656 0.15984
 C703 C 0.86577 0.36257 0.23901
 N704 N 0.84546 0.36351 0.25327
 N705 N 0.82727 0.34568 0.28810
 C706 C 0.82862 0.32613 0.30940
 N707 N 0.84890 0.32518 0.29472
 N708 N 0.86718 0.34311 0.26051
 C709 C 0.88600 0.38240 0.20183
 N710 N 0.90819 0.38447 0.20229
 N711 N 0.92671 0.40278 0.16988
 C712 C 0.92363 0.41953 0.13518
 N713 N 0.90139 0.41735 0.13424
 N714 N 0.88293 0.39917 0.16723
   
