data_POSCAR
  _audit_creation_date              2014-09-24
  _audit_creation_method            'ToBaCCo'
  _symmetry_space_group_name_H-M    'P1'
  _symmetry_Int_Tables_number       1
  _symmetry_cell_setting            triclinic
  loop_
  _symmetry_equiv_pos_as_xyz
 x,y,z
_cell_length_a 50.7069
_cell_length_b 50.6804
_cell_length_c 19.4919
_cell_angle_alpha 89.988400
_cell_angle_beta 89.943100
_cell_angle_gamma 119.978200
loop_
  _atom_site_label
  _atom_site_type_symbol
  _atom_site_fract_x
  _atom_site_fract_y
  _atom_site_fract_z
C1 C 0.15640 0.45612 0.49530
 C2 C 0.17221 0.45921 0.43452
 C3 C 0.19955 0.45864 0.43598
 C4 C 0.21074 0.45346 0.49827
 C5 C 0.19369 0.44956 0.55893
 C6 C 0.16732 0.45190 0.55753
 C7 C 0.24039 0.45329 0.50042
 C8 C 0.25661 0.45814 0.56280
 C9 C 0.28431 0.45835 0.56434
 C10 C 0.29702 0.45523 0.50366
 C11 C 0.28206 0.45135 0.44140
 C12 C 0.25355 0.44941 0.43977
 H13 H 0.13590 0.45788 0.49443
 H14 H 0.21209 0.46304 0.38853
 H15 H 0.20073 0.44510 0.60779
 H16 H 0.24858 0.46257 0.61033
 H17 H 0.31912 0.45671 0.50466
 H18 H 0.24228 0.44527 0.39074
 C19 C 0.54265 -0.30050 0.50386
 C20 C 0.54675 -0.28535 0.44163
 C21 C 0.54919 -0.25655 0.44045
 C22 C 0.54557 -0.24336 0.50141
 C23 C 0.54049 -0.25976 0.56356
 C24 C 0.53979 -0.28773 0.56476
 C25 C 0.54581 -0.21349 0.49988
 C26 C 0.54994 -0.19646 0.56074
 C27 C 0.54792 -0.16990 0.55963
 C28 C 0.54371 -0.15884 0.49763
 C29 C 0.54037 -0.17465 0.43685
 C30 C 0.54067 -0.20210 0.43790
 H31 H 0.54084 -0.32279 0.50468
 H32 H 0.55353 -0.24502 0.39163
 H33 H 0.53626 -0.25160 0.61117
 H34 H 0.55435 -0.20360 0.60951
 H35 H 0.54217 -0.13824 0.49694
 H36 H 0.53609 -0.21452 0.39031
 C37 C 1.29931 0.84278 0.49447
 C38 C 1.28640 0.82719 0.43367
 C39 C 1.25845 0.79992 0.43526
 C40 C 1.24221 0.78860 0.49772
 C41 C 1.25560 0.80540 0.55846
 C42 C 1.28433 0.83170 0.55680
 C43 C 1.21224 0.75910 0.49977
 C44 C 1.20082 0.74258 0.56188
 C45 C 1.17321 0.71490 0.56307
 C46 C 1.15737 0.70260 0.50219
 C47 C 1.16851 0.71792 0.44026
 C48 C 1.19513 0.74637 0.43910
 H49 H 1.32157 0.86324 0.49364
 H50 H 1.25017 0.78754 0.38771
 H51 H 1.24432 0.79827 0.60755
 H52 H 1.21336 0.75041 0.60933
 H53 H 1.13669 0.68051 0.50259
 H54 H 1.20226 0.75792 0.39031
 C55 C 0.84204 0.54447 0.50282
 C56 C 0.83105 0.54872 0.44080
 C57 C 0.80451 0.55075 0.43966
 C58 C 0.78744 0.54659 0.50050
 C59 C 0.79877 0.54145 0.56253
 C60 C 0.82620 0.54112 0.56360
 C61 C 0.75756 0.54632 0.49885
 C62 C 0.74421 0.54980 0.55974
 C63 C 0.71543 0.54738 0.55830
 C64 C 0.70046 0.54338 0.49593
 C65 C 0.71338 0.54063 0.43523
 C66 C 0.74131 0.54134 0.43660
 H67 H 0.86263 0.54291 0.50353
 H68 H 0.79742 0.55517 0.39086
 H69 H 0.78633 0.53687 0.61012
 H70 H 0.75561 0.55404 0.60866
 H71 H 0.67819 0.54156 0.49472
 H72 H 0.74949 0.53719 0.38896
 C73 C 0.45635 0.29833 0.49783
 C74 C 0.45919 0.28539 0.43726
 C75 C 0.45877 0.25758 0.43909
 C76 C 0.45395 0.24145 0.50166
 C77 C 0.45036 0.25483 0.56227
 C78 C 0.45254 0.28349 0.56038
 C79 C 0.45380 0.21162 0.50394
 C80 C 0.45901 0.20039 0.56616
 C81 C 0.45933 0.17289 0.56758
 C82 C 0.45593 0.15699 0.50683
 C83 C 0.45164 0.16795 0.44479
 C84 C 0.44957 0.19445 0.44340
 H85 H 0.45797 0.32052 0.49636
 H86 H 0.46299 0.24937 0.39157
 H87 H 0.44624 0.24354 0.61137
 H88 H 0.46363 0.21300 0.61352
 H89 H 0.45751 0.13639 0.50742
 H90 H 0.44509 0.20145 0.39453
 C91 C 0.70290 0.15803 0.49890
 C92 C 0.71537 0.17388 0.43812
 C93 C 0.74307 0.20142 0.43933
 C94 C 0.75947 0.21280 0.50150
 C95 C 0.74656 0.19568 0.56220
 C96 C 0.71807 0.16909 0.56092
 C97 C 0.78904 0.24270 0.50352
 C98 C 0.80038 0.25890 0.56595
 C99 C 0.82771 0.28681 0.56744
 C100 C 0.84333 0.29971 0.50658
 C101 C 0.83225 0.28476 0.44431
 C102 C 0.80588 0.25608 0.44274
 H103 H 0.68080 0.13740 0.49820
 H104 H 0.75094 0.21389 0.39176
 H105 H 0.75799 0.20277 0.61106
 H106 H 0.78799 0.25063 0.61354
 H107 H 0.86384 0.32194 0.50733
 H108 H 0.79875 0.24484 0.39367
 N109 N 0.96869 0.53255 0.07177
 N110 N 0.94857 0.54097 0.08737
 N111 N 1.03271 0.54601 0.11781
 N112 N 1.05307 0.56138 0.16548
 N113 N 1.03254 0.56454 0.07096
 N114 N 1.05264 0.59312 0.08608
 N115 N 0.96869 0.51390 0.11858
 N116 N 0.94845 0.50892 0.16670
 C117 C 0.93580 0.52564 0.14635
 C118 C 1.06559 0.59069 0.14478
 N119 N 1.03284 0.47038 0.07359
 N120 N 1.05440 0.46373 0.08747
 N121 N 0.96885 0.45719 0.12028
 N122 N 0.94861 0.44222 0.16863
 N123 N 0.96890 0.43826 0.07439
 N124 N 0.94881 0.40983 0.09075
 N125 N 1.03290 0.48945 0.11928
 N126 N 1.05456 0.49650 0.16490
 Mn127 Mn 1.00077 0.50162 0.11950
 C128 C 1.06798 0.48052 0.14433
 C129 C 0.93602 0.41273 0.14927
 N130 N 1.03248 0.56372 -0.07752
 N131 N 1.05410 0.59189 -0.09152
 N132 N 0.96840 0.51263 -0.12249
 N133 N 0.94644 0.50522 -0.16749
 N134 N 0.96841 0.53161 -0.07669
 N135 N 0.94651 0.53785 -0.08980
 N136 N 1.03247 0.54468 -0.12320
 N137 N 1.05413 0.55924 -0.16900
 Mn138 Mn 1.00053 0.54843 -0.00296
 C139 C 1.06761 0.58864 -0.14851
 C140 C 0.93282 0.52092 -0.14638
 N141 N 0.96842 0.43750 -0.07408
 N142 N 0.94665 0.40923 -0.08666
 N143 N 1.03241 0.48802 -0.12173
 N144 N 1.05268 0.49303 -0.16977
 N145 N 1.03239 0.46938 -0.07492
 N146 N 1.05252 0.46097 -0.09040
 N147 N 0.96838 0.45613 -0.12081
 N148 N 0.94652 0.44125 -0.16579
 Mn149 Mn 1.00064 0.45355 -0.00024
 Mn150 Mn 1.00044 0.50039 -0.12260
 Cl151 Cl 1.00060 0.50100 -0.00152
 C152 C 0.93298 0.41207 -0.14381
 C153 C 1.06532 0.47632 -0.14932
 N154 N 0.46849 0.43623 0.07343
 N155 N 0.46209 0.40804 0.08682
 N156 N 0.45489 0.48685 0.12001
 N157 N 0.43970 0.49204 0.16791
 N158 N 0.43620 0.46795 0.07374
 N159 N 0.40770 0.45958 0.08940
 N160 N 0.48724 0.45512 0.11961
 N161 N 0.49436 0.44048 0.16505
 C162 C 0.47873 0.41118 0.14390
 C163 C 0.41032 0.47517 0.14790
 N164 N 0.53037 0.56253 0.07363
 N165 N 0.53877 0.59102 0.08971
 N166 N 0.54358 0.51171 0.11936
 N167 N 0.55829 0.50452 0.16439
 N168 N 0.56237 0.53053 0.07302
 N169 N 0.59056 0.53692 0.08587
 N170 N 0.51150 0.54372 0.11992
 N171 N 0.50638 0.55881 0.16817
 Mn172 Mn 0.49929 0.49937 0.12025
 C173 C 0.52322 0.58826 0.14843
 C174 C 0.58752 0.52020 0.14280
 N175 N 0.43620 0.46818 -0.07471
 N176 N 0.40797 0.46168 -0.08779
 N177 N 0.48708 0.45502 -0.12145
 N178 N 0.49242 0.43992 -0.16931
 N179 N 0.46827 0.43625 -0.07506
 N180 N 0.46010 0.40778 -0.09060
 N181 N 0.45499 0.48701 -0.12104
 N182 N 0.44024 0.49407 -0.16629
 Mn183 Mn 0.45196 0.45182 -0.00065
 C184 C 0.41098 0.47832 -0.14486
 C185 C 0.47573 0.41051 -0.14915
 N186 N 0.56242 0.53081 -0.07549
 N187 N 0.59093 0.53928 -0.09146
 N188 N 0.51135 0.54361 -0.12113
 N189 N 0.50409 0.55824 -0.16628
 N190 N 0.53009 0.56248 -0.07491
 N191 N 0.53635 0.59064 -0.08797
 N192 N 0.54370 0.51189 -0.12170
 N193 N 0.55889 0.50679 -0.16982
 Mn194 Mn 0.54665 0.54692 -0.00094
 Mn195 Mn 0.49930 0.49937 -0.12186
 Cl196 Cl 0.49930 0.49937 -0.00080
 C197 C 0.58829 0.52372 -0.15006
 C198 C 0.51964 0.58750 -0.14490
 N199 N 0.43705 -0.03223 0.07417
 N200 N 0.40878 -0.05399 0.08686
 N201 N 0.48755 0.03175 0.12171
 N202 N 0.49253 0.05199 0.16974
 N203 N 0.46895 0.03177 0.07494
 N204 N 0.46055 0.05191 0.09043
 N205 N 0.45566 -0.03231 0.12084
 N206 N 0.44076 -0.05419 0.16590
 C207 C 0.41159 -0.06770 0.14402
 C208 C 0.47585 0.06466 0.14933
 N209 N 0.56319 0.03180 0.07726
 N210 N 0.59135 0.05345 0.09108
 N211 N 0.51209 -0.03233 0.12236
 N212 N 0.50466 -0.05431 0.16741
 N213 N 0.53107 -0.03231 0.07652
 N214 N 0.53730 -0.05422 0.08966
 N215 N 0.54417 0.03177 0.12300
 N216 N 0.55870 0.05345 0.16868
 Mn217 Mn 0.49989 -0.00026 0.12252
 C218 C 0.58808 0.06696 0.14804
 C219 C 0.52035 -0.06794 0.14630
 N220 N 0.47002 0.03234 -0.07353
 N221 N 0.46347 0.05400 -0.08719
 N222 N 0.45680 -0.03166 -0.12029
 N223 N 0.44184 -0.05189 -0.16857
 N224 N 0.43787 -0.03164 -0.07431
 N225 N 0.40946 -0.05174 -0.09053
 N226 N 0.48907 0.03243 -0.11933
 N227 N 0.49621 0.05421 -0.16481
 Mn228 Mn 0.45314 0.00006 0.00029
 C229 C 0.48030 0.06766 -0.14403
 C230 C 0.41236 -0.06450 -0.14908
 N231 N 0.53206 -0.03192 -0.07197
 N232 N 0.54041 -0.05210 -0.08751
 N233 N 0.54559 0.03219 -0.11802
 N234 N 0.56099 0.05267 -0.16558
 N235 N 0.56407 0.03196 -0.07119
 N236 N 0.59264 0.05215 -0.08620
 N237 N 0.51346 -0.03187 -0.11875
 N238 N 0.50846 -0.05212 -0.16680
 Mn239 Mn 0.54793 -0.00012 0.00274
 Mn240 Mn 0.50122 0.00026 -0.11962
 Cl241 Cl 0.50054 -0.00001 0.00142
 C242 C 0.52511 -0.06484 -0.14644
 C243 C 0.59026 0.06520 -0.14483
 C244 C 1.13276 0.47377 0.27294
 C245 C 1.12718 0.49799 0.28064
 C246 C 1.10708 0.50084 0.23661
 C247 C 1.16103 0.46402 0.37514
 C248 C 1.09909 0.45608 0.17417
 C249 C 1.11913 0.45311 0.21883
 C250 C 1.14917 0.46835 0.32612
 C251 C 1.09224 0.47949 0.18403
 H252 H 1.13737 0.51396 0.32261
 H253 H 1.10237 0.51920 0.24518
 H254 H 1.08790 0.43929 0.13415
 H255 H 1.12303 0.43408 0.21282
 C256 C 0.53623 0.66092 0.28218
 C257 C 0.51174 0.63143 0.29191
 C258 C 0.50701 0.60813 0.24678
 C259 C 0.54540 0.69954 0.38267
 C260 C 0.55062 0.64388 0.17963
 C261 C 0.55548 0.66727 0.22540
 C262 C 0.54225 0.68339 0.33425
 C263 C 0.52669 0.61396 0.19091
 H264 H 0.49676 0.62621 0.33574
 H265 H 0.48832 0.58536 0.25661
 H266 H 0.56617 0.64895 0.13705
 H267 H 0.57460 0.68998 0.21754
 C268 C 0.33987 -0.13313 0.27127
 C269 C 0.33298 -0.11884 0.21829
 C270 C 0.35601 -0.09864 0.17377
 C271 C 0.30219 -0.16149 0.37406
 C272 C 0.39245 -0.10786 0.23400
 C273 C 0.36948 -0.12812 0.27783
 C274 C 0.31818 -0.14958 0.32476
 C275 C 0.38613 -0.09230 0.18274
 H276 H 0.31020 -0.12230 0.21321
 H277 H 0.35060 -0.08687 0.13479
 H278 H 0.41542 -0.10355 0.24181
 H279 H 0.37514 -0.13884 0.31891
 C280 C 0.87578 0.53867 0.27888
 C281 C 0.88087 0.51425 0.28909
 C282 C 0.89957 0.50952 0.24436
 C283 C 0.84585 0.54768 0.37855
 C284 C 0.90741 0.55299 0.17663
 C285 C 0.88873 0.55784 0.22201
 C286 C 0.85909 0.54462 0.33051
 C287 C 0.91347 0.52913 0.18840
 H288 H 0.87105 0.49931 0.33298
 H289 H 0.90370 0.49089 0.25455
 H290 H 0.91793 0.56847 0.13397
 H291 H 0.88507 0.57690 0.21378
 C292 C 0.47289 0.33983 0.27193
 C293 C 0.49712 0.36962 0.27897
 C294 C 0.49967 0.39250 0.23501
 C295 C 0.46383 0.30201 0.37423
 C296 C 0.45458 0.35564 0.17386
 C297 C 0.45191 0.33270 0.21847
 C298 C 0.46781 0.31810 0.32519
 C299 C 0.47801 0.38591 0.18317
 H300 H 0.51334 0.37547 0.32041
 H301 H 0.51806 0.41558 0.24312
 H302 H 0.43756 0.35000 0.13442
 H303 H 0.43287 0.30977 0.21299
 C304 C 0.65976 0.13261 0.27505
 C305 C 0.66679 0.11919 0.22042
 C306 C 0.64369 0.09880 0.17645
 C307 C 0.69834 0.16181 0.37568
 C308 C 0.60679 0.10598 0.24064
 C309 C 0.62983 0.12642 0.28401
 C310 C 0.68187 0.14952 0.32736
 C311 C 0.61335 0.09141 0.18748
 H312 H 0.68983 0.12356 0.21343
 H313 H 0.64933 0.08783 0.13594
 H314 H 0.58365 0.10085 0.25013
 H315 H 0.62405 0.13644 0.32639
 C316 C 0.47389 0.13303 -0.27157
 C317 C 0.45330 0.11940 -0.21725
 C318 C 0.45615 0.09914 -0.17299
 C319 C 0.46419 0.16163 -0.37320
 C320 C 0.50067 0.10693 -0.23621
 C321 C 0.49793 0.12724 -0.27986
 C322 C 0.46852 0.14964 -0.32440
 C323 C 0.47939 0.09210 -0.18344
 H324 H 0.43439 0.12345 -0.21080
 H325 H 0.43942 0.08797 -0.13280
 H326 H 0.51890 0.10207 -0.24524
 H327 H 0.51385 0.13743 -0.32200
 C328 C 0.66126 0.53675 -0.28293
 C329 C 0.63178 0.51231 -0.29297
 C330 C 0.60837 0.50758 -0.24815
 C331 C 0.70017 0.54596 -0.38290
 C332 C 0.64397 0.55109 -0.18074
 C333 C 0.66747 0.55594 -0.22618
 C334 C 0.68388 0.54277 -0.33470
 C335 C 0.61407 0.52721 -0.19230
 H336 H 0.62667 0.49736 -0.33678
 H337 H 0.58563 0.48893 -0.25819
 H338 H 0.64893 0.56660 -0.13817
 H339 H 0.69017 0.57503 -0.21811
 C340 C 0.86747 0.34031 -0.27053
 C341 C 0.88171 0.33341 -0.21751
 C342 C 0.90195 0.35645 -0.17318
 C343 C 0.83904 0.30259 -0.37302
 C344 C 0.89288 0.39296 -0.23370
 C345 C 0.87258 0.36997 -0.27734
 C346 C 0.85099 0.31860 -0.32383
 C347 C 0.90837 0.38661 -0.18239
 H348 H 0.87818 0.31058 -0.21223
 H349 H 0.91367 0.35101 -0.13415
 H350 H 0.89726 0.41596 -0.24170
 H351 H 0.86191 0.37566 -0.31846
 C352 C 0.53795 -0.12507 -0.27861
 C353 C 0.55708 -0.11216 -0.22178
 C354 C 0.55229 -0.09341 -0.17653
 C355 C 0.54690 -0.15510 -0.37813
 C356 C 0.50897 -0.10109 -0.24431
 C357 C 0.51363 -0.11986 -0.28892
 C358 C 0.54386 -0.14183 -0.33013
 C359 C 0.52854 -0.08723 -0.18838
 H360 H 0.57607 -0.11592 -0.21348
 H361 H 0.56775 -0.08293 -0.13389
 H362 H 0.49041 -0.09686 -0.25457
 H363 H 0.49873 -0.12964 -0.33278
 C364 C 0.33925 0.47230 -0.27148
 C365 C 0.36902 0.49650 -0.27927
 C366 C 0.39204 0.49910 -0.23582
 C367 C 0.30109 0.46309 -0.37293
 C368 C 0.35537 0.45413 -0.17371
 C369 C 0.33230 0.45141 -0.21780
 C370 C 0.31734 0.46715 -0.32424
 C371 C 0.38561 0.47752 -0.18375
 H372 H 0.37474 0.51265 -0.32090
 H373 H 0.41509 0.51746 -0.24449
 H374 H 0.34986 0.43718 -0.13406
 H375 H 0.30939 0.43240 -0.21175
 C376 C 1.13298 0.66030 -0.27642
 C377 C 1.11951 0.66733 -0.22189
 C378 C 1.09924 0.64425 -0.17758
 C379 C 1.16180 0.69870 -0.37783
 C380 C 1.10664 0.60737 -0.24123
 C381 C 1.12697 0.63039 -0.28493
 C382 C 1.14970 0.68232 -0.32915
 C383 C 1.09200 0.61392 -0.18818
 H384 H 1.12374 0.69035 -0.21525
 H385 H 1.08822 0.64988 -0.13717
 H386 H 1.10163 0.58424 -0.25039
 H387 H 1.13703 0.62461 -0.32724
 C388 C 0.86688 0.52654 -0.27265
 C389 C 0.87272 0.50252 -0.28076
 C390 C 0.89320 0.50000 -0.23738
 C391 C 0.83813 0.53605 -0.37396
 C392 C 0.90099 0.54466 -0.17477
 C393 C 0.88057 0.54729 -0.21875
 C394 C 0.85021 0.53179 -0.32538
 C395 C 0.90813 0.52149 -0.18515
 H396 H 0.86247 0.48649 -0.32260
 H397 H 0.89814 0.48180 -0.24627
 H398 H 0.91225 0.56153 -0.13496
 H399 H 0.87645 0.56617 -0.21249
 C400 C 0.46313 0.33763 -0.28123
 C401 C 0.44391 0.33136 -0.22447
 C402 C 0.44866 0.35484 -0.17920
 C403 C 0.45394 0.29879 -0.38103
 C404 C 0.49216 0.39053 -0.24679
 C405 C 0.48752 0.36713 -0.29144
 C406 C 0.45712 0.31506 -0.33291
 C407 C 0.47246 0.38478 -0.19100
 H408 H 0.42486 0.30862 -0.21630
 H409 H 0.43312 0.34985 -0.13664
 H410 H 0.51074 0.41332 -0.25697
 H411 H 0.50248 0.37227 -0.33529
 C412 C 0.66346 0.12504 -0.27672
 C413 C 0.66946 0.11160 -0.22055
 C414 C 0.64590 0.09305 -0.17518
 C415 C 0.70225 0.15442 -0.37684
 C416 C 0.61073 0.10207 -0.24146
 C417 C 0.63420 0.12066 -0.28617
 C418 C 0.68601 0.14141 -0.32861
 C419 C 0.61618 0.08760 -0.18635
 H420 H 0.69201 0.11473 -0.21296
 H421 H 0.65064 0.08207 -0.13315
 H422 H 0.58811 0.09841 -0.25111
 H423 H 0.62928 0.13089 -0.32954
 C424 C 1.12459 0.46275 -0.28267
 C425 C 1.12017 0.48763 -0.29192
 C426 C 1.10178 0.49258 -0.24675
 C427 C 1.15357 0.45324 -0.38354
 C428 C 1.09303 0.44844 -0.18042
 C429 C 1.11139 0.44336 -0.22625
 C430 C 1.14075 0.45649 -0.33497
 C431 C 1.08754 0.47273 -0.19136
 H432 H 1.13021 0.50273 -0.33547
 H433 H 1.09807 0.51154 -0.25624
 H434 H 1.08223 0.43277 -0.13819
 H435 H 1.11455 0.42395 -0.21881
 C436 C 0.52561 0.65880 -0.27287
 C437 C 0.50120 0.62909 -0.27958
 C438 C 0.49856 0.60622 -0.23550
 C439 C 0.53513 0.69637 -0.37582
 C440 C 0.54386 0.64300 -0.17479
 C441 C 0.54662 0.66591 -0.21953
 C442 C 0.53091 0.68038 -0.32651
 C443 C 0.52031 0.61278 -0.18391
 H444 H 0.48496 0.62327 -0.32096
 H445 H 0.48008 0.58317 -0.24340
 H446 H 0.56094 0.64859 -0.13551
 H447 H 0.56580 0.68879 -0.21434
 C448 C 0.33960 -0.12416 -0.28197
 C449 C 0.36917 -0.11873 -0.29291
 C450 C 0.39256 -0.10013 -0.24812
 C451 C 0.30047 -0.15374 -0.38125
 C452 C 0.35674 -0.09311 -0.17910
 C453 C 0.33326 -0.11168 -0.22446
 C454 C 0.31692 -0.14069 -0.33343
 C455 C 0.38672 -0.08669 -0.19148
 H456 H 0.37435 -0.12819 -0.33734
 H457 H 0.41539 -0.09569 -0.25879
 H458 H 0.35166 -0.08297 -0.13588
 H459 H 0.31047 -0.11563 -0.21570
 C460 C 0.52592 -0.13389 0.27293
 C461 C 0.54673 -0.12016 0.21905
 C462 C 0.54411 -0.09974 0.17493
 C463 C 0.53535 -0.16266 0.37441
 C464 C 0.49936 -0.10763 0.23736
 C465 C 0.50186 -0.12811 0.28086
 C466 C 0.53112 -0.15056 0.32577
 C467 C 0.52090 -0.09265 0.18515
 H468 H 0.56563 -0.12423 0.21291
 H469 H 0.56103 -0.08844 0.13515
 H470 H 0.48114 -0.10273 0.24612
 H471 H 0.48578 -0.13840 0.32268
 C472 C 0.33722 0.46205 0.27999
 C473 C 0.36666 0.48648 0.29037
 C474 C 0.39014 0.49128 0.24575
 C475 C 0.29812 0.45267 0.37940
 C476 C 0.35464 0.44786 0.17790
 C477 C 0.33108 0.44295 0.22313
 C478 C 0.31452 0.45594 0.33150
 C479 C 0.38451 0.47171 0.18982
 H480 H 0.37168 0.50135 0.33429
 H481 H 0.41287 0.50990 0.25603
 H482 H 0.34975 0.43241 0.13523
 H483 H 0.30839 0.42388 0.21481
 C484 C 1.12488 0.66368 0.27738
 C485 C 1.11147 0.66975 0.22127
 C486 C 1.09311 0.64628 0.17564
 C487 C 1.15393 0.70223 0.37790
 C488 C 1.10228 0.61107 0.24153
 C489 C 1.12067 0.63445 0.28650
 C490 C 1.14105 0.68611 0.32951
 C491 C 1.08783 0.61657 0.18648
 H492 H 1.11447 0.69228 0.21394
 H493 H 1.08214 0.65105 0.13368
 H494 H 1.09874 0.58845 0.25093
 H495 H 1.13088 0.62948 0.32981
 C496 C 0.46226 0.12400 0.28235
 C497 C 0.44305 0.11097 0.22572
 C498 C 0.44813 0.09257 0.18005
 C499 C 0.45280 0.15328 0.38258
 C500 C 0.49192 0.10093 0.24700
 C501 C 0.48697 0.11936 0.29202
 C502 C 0.45604 0.14030 0.33434
 C503 C 0.47225 0.08687 0.19135
 H504 H 0.42378 0.11432 0.21795
 H505 H 0.43260 0.08191 0.13762
 H506 H 0.51075 0.09707 0.25677
 H507 H 0.50194 0.12928 0.33573
 C508 C 0.65898 0.52631 0.27002
 C509 C 0.62931 0.50184 0.27699
 C510 C 0.60640 0.49917 0.23317
 C511 C 0.69670 0.53578 0.37240
 C512 C 0.64302 0.54456 0.17220
 C513 C 0.66599 0.54735 0.21668
 C514 C 0.68063 0.53160 0.32336
 C515 C 0.61285 0.52094 0.18157
 H516 H 0.62357 0.48557 0.31837
 H517 H 0.58338 0.48063 0.24126
 H518 H 0.64853 0.56165 0.13291
 H519 H 0.68883 0.56656 0.21128
 C520 C 0.87640 0.33999 0.28269
 C521 C 0.88893 0.33364 0.22529
 C522 C 0.90748 0.35710 0.17974
 C523 C 0.84683 0.30090 0.38228
 C524 C 0.90033 0.39294 0.24835
 C525 C 0.88175 0.36956 0.29332
 C526 C 0.85989 0.31734 0.33434
 C527 C 0.91383 0.38709 0.19183
 H528 H 0.88503 0.31084 0.21676
 H529 H 0.91767 0.35201 0.13661
 H530 H 0.90471 0.41578 0.25879
 H531 H 0.87225 0.37476 0.33766
   
