data_POSCAR
  _audit_creation_date              2014-09-24
  _audit_creation_method            'ToBaCCo'
  _symmetry_space_group_name_H-M    'P1'
  _symmetry_Int_Tables_number       1
  _symmetry_cell_setting            triclinic
  loop_
  _symmetry_equiv_pos_as_xyz
 x,y,z
_cell_length_a 29.1068
_cell_length_b 29.1472
_cell_length_c 29.1828
_cell_angle_alpha 104.535700
_cell_angle_beta 75.069700
_cell_angle_gamma 74.679000
loop_
  _atom_site_label
  _atom_site_type_symbol
  _atom_site_fract_x
  _atom_site_fract_y
  _atom_site_fract_z
C1 C 0.54496 0.50860 0.00330
 C2 C 0.50813 0.54564 -0.00425
 C3 C 0.46348 0.53773 -0.00771
 C4 C 0.45499 0.49347 -0.00385
 C5 C 0.49177 0.45650 0.00367
 C6 C 0.53639 0.46435 0.00714
 H7 H 0.56470 0.43566 0.01275
 H8 H 0.43503 0.56632 -0.01333
 C9 C -0.00403 0.45629 0.50834
 C10 C 0.00422 0.49223 0.54454
 C11 C 0.00801 0.53662 0.53633
 C12 C 0.00378 0.54564 0.49236
 C13 C -0.00448 0.50963 0.45611
 C14 C -0.00826 0.46525 0.46440
 H15 H -0.01440 0.43741 0.43637
 H16 H 0.01415 0.56436 0.56449
 C17 C 0.49307 0.00305 0.45567
 C18 C 0.45652 -0.00495 0.49190
 C19 C 0.46438 -0.00839 0.53648
 C20 C 0.50836 -0.00407 0.54549
 C21 C 0.54505 0.00395 0.50912
 C22 C 0.53705 0.00738 0.46453
 H23 H 0.56528 0.01332 0.43638
 H24 H 0.43591 -0.01434 0.56440
 O25 O 0.46526 0.00041 -0.05672
 O26 O 0.45236 0.01957 0.07634
 O27 O 0.45187 0.07680 0.01997
 O28 O 0.46574 -0.05678 -0.00036
 O29 O 0.54902 -0.07772 -0.02119
 O30 O 0.53515 0.05588 -0.00087
 O31 O 0.53564 -0.00132 0.05548
 O32 O 0.54854 -0.02049 -0.07758
 Cu33 Cu 0.45042 0.01207 0.01187
 Cu34 Cu 0.55048 -0.01298 -0.01310
 C35 C 0.50892 -0.01254 -0.08946
 C36 C 0.49198 0.01163 0.08822
 C37 C 0.49133 0.08874 0.01225
 C38 C 0.50955 -0.08965 -0.01346
 O39 O -0.07738 0.54851 1.01941
 O40 O 0.05626 0.53551 1.00023
 O41 O 0.00023 0.53449 0.94298
 O42 O -0.02133 0.54950 1.07670
 O43 O -0.00020 0.46656 1.05731
 O44 O 0.02137 0.45154 0.92359
 O45 O 0.07742 0.45257 0.98087
 O46 O -0.05623 0.46557 1.00005
 Cu47 Cu -0.01265 0.55036 1.01174
 Cu48 Cu 0.01269 0.45070 0.98855
 C49 C -0.08920 0.50907 1.01224
 C50 C 0.08924 0.49201 0.98803
 C51 C 0.01368 0.49066 0.91087
 C52 C -0.01365 0.51039 1.08942
 O53 O 0.01947 -0.07696 0.45204
 O54 O -0.00076 0.05674 0.46598
 O55 O 0.07652 -0.02092 0.45152
 O56 O -0.05780 0.00073 0.46654
 O57 O -0.07757 0.02043 0.54918
 O58 O 0.05675 -0.00122 0.53416
 O59 O -0.02050 0.07647 0.54861
 O60 O -0.00027 -0.05723 0.53467
 Cu61 Cu 0.01130 -0.01205 0.45068
 Cu62 Cu -0.01235 0.01156 0.54999
 C63 C 0.01228 -0.08950 0.49118
 C64 C -0.01330 0.08901 0.50947
 C65 C 0.08914 -0.01397 0.49049
 C66 C -0.09019 0.01347 0.51021
 C67 C -0.32115 0.51748 1.01159
 C68 C -0.31024 0.50461 1.05651
 C69 C -0.26387 0.50431 1.05845
 C70 C -0.23295 0.51691 1.01529
 C71 C -0.26752 0.56824 1.01801
 C72 C -0.31395 0.56855 1.01607
 C73 C -0.27656 0.47898 0.96486
 C74 C -0.23026 0.47868 0.96680
 C75 C -0.37067 0.51677 1.00911
 C76 C -0.41059 0.51399 1.00653
 C77 C -0.18258 0.51574 1.01662
 C78 C -0.14036 0.51333 1.01581
 H79 H -0.33667 0.49656 1.08442
 H80 H -0.25059 0.49600 1.08800
 H81 H -0.25654 0.60141 1.02125
 H82 H -0.34274 0.60194 1.01765
 H83 H -0.28096 0.45415 0.93296
 H84 H -0.19503 0.45357 0.93655
 C85 C 0.32121 0.48405 0.98818
 C86 C 0.31624 0.43159 0.97788
 C87 C 0.26981 0.43176 0.97605
 C88 C 0.23301 0.48438 0.98470
 C89 C 0.26129 0.50272 0.94505
 C90 C 0.30765 0.50254 0.94687
 C91 C 0.27705 0.51815 1.03727
 C92 C 0.23075 0.51832 1.03544
 C93 C 0.37074 0.48492 0.99053
 C94 C 0.41064 0.48786 0.99302
 C95 C 0.18265 0.48542 0.98348
 C96 C 0.14041 0.48777 0.98437
 H97 H 0.34648 0.39740 0.97246
 H98 H 0.26027 0.39769 0.96906
 H99 H 0.24628 0.51469 0.91786
 H100 H 0.33234 0.51438 0.92124
 H101 H 0.28173 0.54018 1.07061
 H102 H 0.19579 0.54052 1.06723
 C103 C 0.01234 -0.32112 0.48243
 C104 C -0.00472 -0.30442 0.44179
 C105 C -0.00282 -0.25810 0.44203
 C106 C 0.01596 -0.23311 0.48288
 C107 C 0.06765 -0.27200 0.47360
 C108 C 0.06574 -0.31830 0.47336
 C109 C -0.02137 -0.27811 0.53235
 C110 C -0.01947 -0.23191 0.53259
 C111 C 0.00985 -0.37050 0.48329
 C112 C 0.00717 -0.41024 0.48641
 C113 C 0.01720 -0.18285 0.48405
 C114 C 0.01620 -0.14065 0.48660
 H115 H -0.01712 -0.32696 0.41518
 H116 H -0.01358 -0.24096 0.41558
 H117 H 0.10263 -0.26392 0.46764
 H118 H 0.09912 -0.34992 0.46718
 H119 H -0.04474 -0.28346 0.56474
 H120 H -0.04121 -0.19772 0.56518
 C121 C -0.01299 0.32056 0.51837
 C122 C 0.03255 0.27611 0.47773
 C123 C 0.03056 0.22993 0.47743
 C124 C -0.01679 0.23258 0.51782
 C125 C -0.06188 0.26526 0.50856
 C126 C -0.05989 0.31153 0.50885
 C127 C -0.01437 0.31151 0.56824
 C128 C -0.01637 0.26519 0.56795
 C129 C -0.01041 0.36993 0.51759
 C130 C -0.00768 0.40970 0.51462
 C131 C -0.01812 0.18234 0.51661
 C132 C -0.01718 0.14015 0.51405
 H133 H 0.06372 0.28052 0.45148
 H134 H 0.06002 0.19479 0.45092
 H135 H -0.09271 0.25320 0.50244
 H136 H -0.08904 0.33910 0.50298
 H137 H -0.01391 0.33903 0.60086
 H138 H -0.01762 0.25301 0.60034
 C139 C 0.51733 -0.01218 -0.32083
 C140 C 0.52869 -0.06572 -0.31795
 C141 C 0.52837 -0.06760 -0.27165
 C142 C 0.51674 -0.01574 -0.23279
 C143 C 0.46600 0.01799 -0.23206
 C144 C 0.46631 0.01986 -0.27826
 C145 C 0.55666 0.00675 -0.30367
 C146 C 0.55635 0.00488 -0.25736
 C147 C 0.51662 -0.00977 -0.37027
 C148 C 0.51381 -0.00724 -0.41013
 C149 C 0.51557 -0.01700 -0.18254
 C150 C 0.51317 -0.01615 -0.14044
 H151 H 0.53641 -0.09922 -0.34954
 H152 H 0.53581 -0.10267 -0.26355
 H153 H 0.43269 0.03864 -0.19818
 H154 H 0.43327 0.04212 -0.28392
 H155 H 0.58248 0.02035 -0.32593
 H156 H 0.58194 0.01687 -0.23994
 C157 C 0.48358 0.01132 0.31960
 C158 C 0.48417 0.06183 0.31298
 C159 C 0.48448 0.06369 0.26668
 C160 C 0.48417 0.01487 0.23156
 C161 C 0.43749 0.00579 0.26115
 C162 C 0.43719 0.00392 0.30748
 C163 C 0.52971 -0.02923 0.27574
 C164 C 0.53002 -0.02737 0.22954
 C165 C 0.48429 0.00893 0.36904
 C166 C 0.48709 0.00641 0.40891
 C167 C 0.48533 0.01612 0.18130
 C168 C 0.48773 0.01526 0.13920
 H169 H 0.48422 0.09339 0.34213
 H170 H 0.48481 0.09682 0.25618
 H171 H 0.40735 0.00128 0.24699
 H172 H 0.40682 -0.00220 0.33299
 H173 H 0.55954 -0.05704 0.28056
 H174 H 0.56013 -0.05358 0.19480
 C175 C 0.51813 -0.32121 -0.01312
 C176 C 0.49970 -0.30762 -0.05442
 C177 C 0.49952 -0.26138 -0.05644
 C178 C 0.51778 -0.23324 -0.01697
 C179 C 0.57055 -0.26990 -0.02565
 C180 C 0.57073 -0.31622 -0.02363
 C181 C 0.48381 -0.27727 0.03592
 C182 C 0.48362 -0.23109 0.03390
 C183 C 0.51720 -0.37055 -0.01051
 C184 C 0.51407 -0.41025 -0.00774
 C185 C 0.51666 -0.18300 -0.01832
 C186 C 0.51413 -0.14080 -0.01737
 H187 H 0.48793 -0.33222 -0.07993
 H188 H 0.48760 -0.24636 -0.08366
 H189 H 0.60471 -0.26034 -0.03281
 H190 H 0.60502 -0.34636 -0.02904
 H191 H 0.46165 -0.28202 0.06937
 H192 H 0.46128 -0.19629 0.06564
 C193 C 0.48197 0.32064 0.01248
 C194 C 0.52162 0.27640 -0.03376
 C195 C 0.52203 0.23013 -0.03188
 C196 C 0.48275 0.23250 0.01606
 C197 C 0.43161 0.26650 0.01766
 C198 C 0.43121 0.31291 0.01578
 C199 C 0.49354 0.30997 0.05802
 C200 C 0.49395 0.26362 0.05990
 C201 C 0.48264 0.37009 0.01002
 C202 C 0.48554 0.40988 0.00733
 C203 C 0.48408 0.18216 0.01727
 C204 C 0.48672 0.13992 0.01623
 H205 H 0.54713 0.28101 -0.06529
 H206 H 0.54790 0.19511 -0.06181
 H207 H 0.39866 0.25516 0.02013
 H208 H 0.39793 0.34135 0.01664
 H209 H 0.50066 0.33655 0.08637
 H210 H 0.50142 0.25048 0.08983
 C211 C -0.32216 0.01356 0.51963
 C212 C -0.30848 0.00278 0.56421
 C213 C -0.26214 0.00486 0.56397
 C214 C -0.23417 0.01753 0.51917
 C215 C -0.27123 0.06743 0.52185
 C216 C -0.31753 0.06534 0.52210
 C217 C -0.27796 -0.02455 0.47236
 C218 C -0.23177 -0.02247 0.47212
 C219 C -0.37146 0.01082 0.51869
 C220 C -0.41105 0.00781 0.51539
 C221 C -0.18388 0.01887 0.51793
 C222 C -0.14156 0.01775 0.51517
 H223 H -0.33298 -0.00568 0.59335
 H224 H -0.24695 -0.00179 0.59295
 H225 H -0.26197 0.10140 0.52353
 H226 H -0.34798 0.09756 0.52400
 H227 H -0.28254 -0.05095 0.44173
 H228 H -0.19680 -0.04708 0.44127
 C229 C 0.32128 -0.01455 0.48093
 C230 C 0.31912 -0.06815 0.47009
 C231 C 0.27275 -0.07012 0.47038
 C232 C 0.23319 -0.01828 0.48149
 C233 C 0.25751 0.00244 0.44181
 C234 C 0.30388 0.00440 0.44152
 C235 C 0.27826 0.01740 0.53148
 C236 C 0.23202 0.01544 0.53177
 C237 C 0.37063 -0.01192 0.48182
 C238 C 0.41026 -0.00900 0.48507
 C239 C 0.18287 -0.01950 0.48276
 C240 C 0.14052 -0.01831 0.48553
 H241 H 0.35119 -0.10160 0.46270
 H242 H 0.26507 -0.10523 0.46326
 H243 H 0.23991 0.01441 0.41616
 H244 H 0.32602 0.01805 0.41566
 H245 H 0.28364 0.03966 0.56424
 H246 H 0.19782 0.03601 0.56478
 C247 C -0.01406 0.52026 1.32092
 C248 C -0.00325 0.56466 1.30689
 C249 C -0.00525 0.56429 1.26061
 C250 C -0.01786 0.51956 1.23302
 C251 C -0.06794 0.52277 1.26975
 C252 C -0.06595 0.52315 1.31601
 C253 C 0.02427 0.47258 1.27741
 C254 C 0.02228 0.47221 1.23127
 C255 C -0.01142 0.51947 1.37019
 C256 C -0.00850 0.51632 1.40978
 C257 C -0.01911 0.51820 1.18282
 C258 C -0.01795 0.51538 1.14061
 H259 H 0.00515 0.59378 1.33113
 H260 H 0.00143 0.59315 1.24520
 H261 H -0.10197 0.52471 1.26032
 H262 H -0.09830 0.52541 1.34623
 H263 H 0.05073 0.44176 1.28240
 H264 H 0.04703 0.44107 1.19675
 C265 C 0.01384 0.48110 0.67952
 C266 C 0.02211 0.42921 0.68604
 C267 C 0.02417 0.42948 0.73230
 C268 C 0.01776 0.48161 0.76733
 C269 C -0.03261 0.51757 0.76960
 C270 C -0.03466 0.51730 0.72349
 C271 C 0.05690 0.49704 0.69141
 C272 C 0.05896 0.49731 0.73759
 C273 C 0.01114 0.48201 0.63030
 C274 C 0.00821 0.48531 0.59075
 C275 C 0.01908 0.48289 0.81750
 C276 C 0.01796 0.48567 0.85969
 H277 H 0.02605 0.39532 0.65695
 H278 H 0.02989 0.39579 0.74286
 H279 H -0.06399 0.54116 0.80443
 H280 H -0.06780 0.54063 0.71883
 H281 H 0.08352 0.50710 0.66575
 H282 H 0.08732 0.50760 0.75151
   
