data_POSCAR
  _audit_creation_date              2014-09-24
  _audit_creation_method            'ToBaCCo'
  _symmetry_space_group_name_H-M    'P1'
  _symmetry_Int_Tables_number       1
  _symmetry_cell_setting            triclinic
  loop_
  _symmetry_equiv_pos_as_xyz
 x,y,z
_cell_length_a 23.1775
_cell_length_b 23.1775
_cell_length_c 41.0910
_cell_angle_alpha 89.893000
_cell_angle_beta 90.107000
_cell_angle_gamma 89.935000
loop_
  _atom_site_label
  _atom_site_type_symbol
  _atom_site_fract_x
  _atom_site_fract_y
  _atom_site_fract_z
O1 O -0.04785 0.55532 0.96868
 O2 O -0.04779 0.44270 1.03202
 O3 O -0.04790 0.55515 1.03199
 O4 O -0.04793 0.44290 0.96872
 O5 O 0.04723 0.44277 0.96879
 O6 O 0.04725 0.55505 1.03209
 O7 O 0.04727 0.44260 1.03210
 O8 O 0.04730 0.55519 0.96879
 Cu9 Cu -0.05739 0.49902 1.00035
 Cu10 Cu 0.05679 0.49889 1.00046
 C11 C -0.00027 0.57466 0.95794
 C12 C -0.00025 0.42309 1.04290
 C13 C -0.00033 0.57448 1.04281
 C14 C -0.00037 0.42348 0.95797
 O15 O 0.55714 -0.04753 0.53210
 O16 O 0.44455 -0.04756 0.46879
 O17 O 0.55697 -0.04748 0.46879
 O18 O 0.44469 -0.04751 0.53209
 O19 O 0.44459 0.04765 0.53199
 O20 O 0.55685 0.04767 0.46872
 O21 O 0.44443 0.04759 0.46868
 O22 O 0.55704 0.04753 0.53202
 Cu23 Cu 0.50085 -0.05704 0.50046
 Cu24 Cu 0.50072 0.05714 0.50035
 C25 C 0.57665 -0.00001 0.54290
 C26 C 0.42508 0.00001 0.45794
 C27 C 0.57626 0.00011 0.45797
 C28 C 0.42526 0.00008 0.54281
 Si29 Si -0.00004 -0.00001 0.24980
 Si30 Si -0.00025 -0.00021 0.74980
 C31 C -0.00046 -0.29072 0.11442
 C32 C -0.05267 -0.31296 0.10281
 C33 C -0.05269 -0.35716 0.07970
 C34 C -0.00036 -0.37968 0.06787
 C35 C 0.05191 -0.35730 0.07989
 C36 C 0.05180 -0.31310 0.10300
 C37 C -0.00054 -0.24424 0.13759
 C38 C -0.00066 -0.20492 0.15675
 C39 C -0.00086 -0.15752 0.17932
 C40 C -0.04563 -0.11695 0.17845
 C41 C -0.04530 -0.07024 0.19990
 C42 C -0.00044 -0.06392 0.22256
 C43 C 0.04452 -0.10449 0.22326
 C44 C 0.04419 -0.15122 0.20178
 H45 H -0.09338 -0.29588 0.11146
 H46 H -0.09366 -0.37340 0.07096
 H47 H 0.09292 -0.37366 0.07129
 H48 H 0.09247 -0.29613 0.11180
 H49 H -0.08055 -0.12120 0.16105
 H50 H -0.07996 -0.03891 0.19875
 H51 H 0.08021 -0.09997 0.24003
 H52 H 0.07927 -0.18213 0.20250
 C53 C -0.00007 0.29038 0.11359
 C54 C 0.05209 0.31264 0.10205
 C55 C 0.05215 0.35683 0.07885
 C56 C -0.00020 0.37948 0.06674
 C57 C -0.05249 0.35691 0.07880
 C58 C -0.05231 0.31271 0.10201
 C59 C 0.00002 0.24394 0.13688
 C60 C 0.00019 0.20464 0.15614
 C61 C 0.00046 0.15729 0.17884
 C62 C 0.04520 0.11669 0.17810
 C63 C 0.04496 0.07004 0.19970
 C64 C 0.00022 0.06381 0.22236
 C65 C -0.04472 0.10441 0.22293
 C66 C -0.04448 0.15107 0.20130
 H67 H 0.09280 0.29559 0.11085
 H68 H 0.09331 0.37288 0.07031
 H69 H -0.09370 0.37303 0.07022
 H70 H -0.09296 0.29573 0.11078
 H71 H 0.08002 0.12088 0.16071
 H72 H 0.07959 0.03868 0.19865
 H73 H -0.08031 0.09995 0.23970
 H74 H -0.07953 0.18201 0.20192
 C75 C 0.29046 0.00020 0.61442
 C76 C 0.31270 0.05241 0.60281
 C77 C 0.35690 0.05243 0.57970
 C78 C 0.37942 0.00011 0.56787
 C79 C 0.35704 -0.05217 0.57989
 C80 C 0.31284 -0.05206 0.60300
 C81 C 0.24398 0.00028 0.63759
 C82 C 0.20466 0.00040 0.65675
 C83 C 0.15727 0.00061 0.67932
 C84 C 0.11669 0.04537 0.67844
 C85 C 0.06998 0.04504 0.69990
 C86 C 0.06366 0.00018 0.72256
 C87 C 0.10424 -0.04478 0.72326
 C88 C 0.15096 -0.04445 0.70178
 H89 H 0.29563 0.09312 0.61146
 H90 H 0.37315 0.09340 0.57096
 H91 H 0.37340 -0.09317 0.57129
 H92 H 0.29587 -0.09272 0.61180
 H93 H 0.12095 0.08029 0.66105
 H94 H 0.03865 0.07970 0.69875
 H95 H 0.09971 -0.08047 0.74003
 H96 H 0.18187 -0.07953 0.70249
 C97 C -0.29064 -0.00018 0.61359
 C98 C -0.31290 -0.05235 0.60205
 C99 C -0.35709 -0.05240 0.57885
 C100 C -0.37974 -0.00005 0.56674
 C101 C -0.35717 0.05224 0.57880
 C102 C -0.31297 0.05205 0.60201
 C103 C -0.24419 -0.00028 0.63688
 C104 C -0.20490 -0.00044 0.65614
 C105 C -0.15755 -0.00072 0.67884
 C106 C -0.11694 -0.04545 0.67810
 C107 C -0.07030 -0.04521 0.69970
 C108 C -0.06407 -0.00047 0.72236
 C109 C -0.10466 0.04446 0.72293
 C110 C -0.15133 0.04422 0.70130
 H111 H -0.29585 -0.09305 0.61085
 H112 H -0.37314 -0.09357 0.57031
 H113 H -0.37329 0.09344 0.57022
 H114 H -0.29598 0.09271 0.61078
 H115 H -0.12114 -0.08028 0.66071
 H116 H -0.03894 -0.07985 0.69865
 H117 H -0.10021 0.08006 0.73970
 H118 H -0.18227 0.07928 0.70192
 C119 C -0.00010 -0.29058 0.88602
 C120 C -0.05237 -0.31280 0.89750
 C121 C -0.05250 -0.35696 0.92073
 C122 C -0.00023 -0.37946 0.93280
 C123 C 0.05210 -0.35707 0.92093
 C124 C 0.05210 -0.31291 0.89770
 C125 C -0.00001 -0.24419 0.86270
 C126 C 0.00015 -0.20493 0.84341
 C127 C 0.00042 -0.15762 0.82069
 C128 C -0.04452 -0.15132 0.79814
 C129 C -0.04479 -0.10464 0.77652
 C130 C 0.00012 -0.06412 0.77718
 C131 C 0.04488 -0.07045 0.79993
 C132 C 0.04515 -0.11710 0.82152
 H133 H -0.09303 -0.29576 0.88864
 H134 H -0.09351 -0.37322 0.92936
 H135 H 0.09307 -0.37341 0.92971
 H136 H 0.09281 -0.29596 0.88900
 H137 H -0.07957 -0.18219 0.79746
 H138 H -0.08041 -0.10011 0.75969
 H139 H 0.07949 -0.03915 0.80105
 H140 H 0.07998 -0.12136 0.83898
 C141 C -0.00056 0.28921 0.88604
 C142 C 0.05171 0.31135 0.89763
 C143 C 0.05185 0.35535 0.92086
 C144 C -0.00042 0.37776 0.93284
 C145 C -0.05275 0.35545 0.92086
 C146 C -0.05276 0.31145 0.89763
 C147 C -0.00066 0.24299 0.86271
 C148 C -0.00081 0.20389 0.84341
 C149 C -0.00107 0.15674 0.82067
 C150 C 0.04394 0.15057 0.79826
 C151 C 0.04424 0.10405 0.77663
 C152 C -0.00069 0.06354 0.77716
 C153 C -0.04551 0.06974 0.79977
 C154 C -0.04582 0.11625 0.82136
 H155 H 0.09237 0.29438 0.88885
 H156 H 0.09286 0.37155 0.92957
 H157 H -0.09372 0.37172 0.92957
 H158 H -0.09347 0.29456 0.88885
 H159 H 0.07901 0.18142 0.79768
 H160 H 0.07991 0.09960 0.75991
 H161 H -0.08014 0.03845 0.80079
 H162 H -0.08069 0.12040 0.83872
 C163 C -0.28947 0.00030 0.38604
 C164 C -0.31161 -0.05197 0.39763
 C165 C -0.35561 -0.05211 0.42086
 C166 C -0.37802 0.00016 0.43284
 C167 C -0.35571 0.05249 0.42086
 C168 C -0.31171 0.05250 0.39763
 C169 C -0.24325 0.00040 0.36271
 C170 C -0.20414 0.00056 0.34341
 C171 C -0.15700 0.00081 0.32067
 C172 C -0.15083 -0.04420 0.29826
 C173 C -0.10430 -0.04450 0.27663
 C174 C -0.06380 0.00043 0.27716
 C175 C -0.07000 0.04525 0.29977
 C176 C -0.11651 0.04556 0.32136
 H177 H -0.29464 -0.09263 0.38885
 H178 H -0.37181 -0.09312 0.42957
 H179 H -0.37198 0.09346 0.42957
 H180 H -0.29482 0.09321 0.38885
 H181 H -0.18168 -0.07926 0.29768
 H182 H -0.09986 -0.08016 0.25991
 H183 H -0.03871 0.07988 0.30079
 H184 H -0.12066 0.08044 0.33872
 C185 C 0.29032 -0.00015 0.38602
 C186 C 0.31266 -0.05236 0.39770
 C187 C 0.35682 -0.05236 0.42093
 C188 C 0.37920 -0.00003 0.43280
 C189 C 0.35671 0.05224 0.42073
 C190 C 0.31254 0.05211 0.39750
 C191 C 0.24393 -0.00025 0.36270
 C192 C 0.20468 -0.00041 0.34341
 C193 C 0.15736 -0.00068 0.32069
 C194 C 0.11685 -0.04541 0.32152
 C195 C 0.07019 -0.04513 0.29993
 C196 C 0.06387 -0.00038 0.27718
 C197 C 0.10439 0.04453 0.27652
 C198 C 0.15106 0.04427 0.29814
 H199 H 0.29570 -0.09307 0.38900
 H200 H 0.37315 -0.09333 0.42971
 H201 H 0.37296 0.09325 0.42936
 H202 H 0.29550 0.09278 0.38864
 H203 H 0.12110 -0.08024 0.33898
 H204 H 0.03889 -0.07975 0.30105
 H205 H 0.09986 0.08015 0.25969
 H206 H 0.18193 0.07931 0.29746
   
