data_POSCAR
  _audit_creation_date              2014-09-24
  _audit_creation_method            'ToBaCCo'
  _symmetry_space_group_name_H-M    'P1'
  _symmetry_Int_Tables_number       1
  _symmetry_cell_setting            triclinic
  loop_
  _symmetry_equiv_pos_as_xyz
 x,y,z
_cell_length_a 41.7132
_cell_length_b 38.8869
_cell_length_c 28.3526
_cell_angle_alpha 90.025300
_cell_angle_beta 89.974800
_cell_angle_gamma 90.060200
loop_
  _atom_site_label
  _atom_site_type_symbol
  _atom_site_fract_x
  _atom_site_fract_y
  _atom_site_fract_z
O1 O 0.26017 0.28372 0.30730
 O2 O 0.20996 0.21527 0.25646
 O3 O 0.26123 0.21667 0.30934
 O4 O 0.20889 0.28140 0.25453
 O5 O 0.23965 0.28156 0.19114
 O6 O 0.29173 0.21636 0.24588
 O7 O 0.24055 0.21445 0.19293
 O8 O 0.29084 0.28294 0.24390
 Cu9 Cu 0.23212 0.24930 0.28840
 Cu10 Cu 0.26872 0.24876 0.21205
 C11 C 0.28423 0.29490 0.28444
 C12 C 0.21640 0.20350 0.21576
 C13 C 0.28562 0.20551 0.28721
 C14 C 0.21513 0.29228 0.21331
 O15 O 0.74041 0.21695 0.30815
 O16 O 0.79029 0.28479 0.25474
 O17 O 0.73910 0.28397 0.30699
 O18 O 0.79198 0.21821 0.25558
 O19 O 0.76111 0.21561 0.19248
 O20 O 0.70927 0.28298 0.24278
 O21 O 0.76088 0.28252 0.19028
 O22 O 0.70977 0.21634 0.24477
 Cu23 Cu 0.76842 0.25105 0.28782
 Cu24 Cu 0.73226 0.24926 0.21115
 C25 C 0.71630 0.20533 0.28581
 C26 C 0.78443 0.29502 0.21305
 C27 C 0.71513 0.29476 0.28370
 C28 C 0.78568 0.20577 0.21520
 O29 O 0.76018 0.78368 0.80750
 O30 O 0.70974 0.71544 0.75663
 O31 O 0.76102 0.71663 0.80955
 O32 O 0.70892 0.78158 0.75470
 O33 O 0.73969 0.78162 0.69133
 O34 O 0.79152 0.71620 0.74609
 O35 O 0.74034 0.71451 0.69311
 O36 O 0.79086 0.78278 0.74411
 Cu37 Cu 0.73201 0.74938 0.78858
 Cu38 Cu 0.76863 0.74869 0.71225
 C39 C 0.78428 0.79477 0.78466
 C40 C 0.71614 0.70365 0.71592
 C41 C 0.78537 0.70538 0.78743
 C42 C 0.71520 0.79244 0.71349
 O43 O 0.23995 0.71679 0.80912
 O44 O 0.28977 0.78469 0.75562
 O45 O 0.23880 0.78381 0.80841
 O46 O 0.29137 0.71814 0.75623
 O47 O 0.26034 0.71588 0.69328
 O48 O 0.20859 0.78293 0.74468
 O49 O 0.25989 0.78282 0.69150
 O50 O 0.20916 0.71631 0.74591
 Cu51 Cu 0.26797 0.75091 0.78877
 Cu52 Cu 0.23147 0.74940 0.71245
 C53 C 0.21579 0.70521 0.78687
 C54 C 0.28357 0.79509 0.71415
 C55 C 0.21461 0.79467 0.78562
 C56 C 0.28497 0.70591 0.71577
 C57 C 0.98274 -0.08820 -0.08321
 C58 C 1.01563 -0.08860 -0.08333
 C59 C 1.02548 -0.05814 -0.06245
 N60 N 0.99979 -0.03906 -0.04991
 C61 C 0.97364 -0.05749 -0.06232
 C62 C 1.05767 -0.04745 -0.05801
 C63 C 1.06709 -0.01791 -0.03260
 C64 C 1.09675 -0.00205 -0.03641
 C65 C 1.09700 0.02447 -0.00427
 C66 C 1.06764 0.02375 0.01873
 N67 N 1.04957 -0.00218 0.00121
 C68 C 1.05886 0.04531 0.05681
 C69 C 1.02692 0.04806 0.07304
 C70 C 1.01772 0.06340 0.11504
 C71 C 0.98484 0.06372 0.11531
 C72 C 0.97507 0.04856 0.07345
 N73 N 1.00082 0.03894 0.04772
 C74 C 0.94299 0.04644 0.05772
 C75 C 0.93361 0.02518 0.01962
 C76 C 0.90422 0.02671 -0.00319
 C77 C 0.90378 0.00030 -0.03551
 C78 C 0.93304 -0.01635 -0.03193
 N79 N 0.95101 -0.00116 0.00186
 C80 C 0.94170 -0.04600 -0.05768
 H81 H 0.96732 -0.10812 -0.09727
 H82 H 1.03057 -0.10885 -0.09755
 H83 H 0.97234 -0.01065 0.01562
 H84 H 1.11619 -0.00891 -0.05988
 H85 H 1.11672 0.04204 0.00170
 H86 H 1.03308 0.07358 0.14246
 H87 H 0.96985 0.07418 0.14297
 H88 H 0.88415 -0.00595 -0.05896
 H89 H 1.02807 -0.01112 0.01517
 H90 H 0.88495 0.04477 0.00297
 C91 C 0.48412 0.56423 0.61518
 C92 C 0.51700 0.56391 0.61499
 C93 C 0.52625 0.54868 0.57292
 N94 N 0.50017 0.53961 0.54752
 C95 C 0.47439 0.54917 0.57324
 C96 C 0.55818 0.54602 0.55670
 C97 C 0.56697 0.52463 0.51845
 C98 C 0.59625 0.52563 0.49524
 C99 C 0.59604 0.49924 0.46290
 C100 C 0.56651 0.48313 0.46686
 N101 N 0.54900 0.49863 0.50089
 C102 C 0.55717 0.45363 0.44126
 C103 C 0.52499 0.44280 0.43704
 C104 C 0.51518 0.41217 0.41659
 C105 C 0.48230 0.41248 0.41680
 C106 C 0.47315 0.44329 0.43738
 N107 N 0.49927 0.46187 0.44950
 C108 C 0.44119 0.45472 0.44197
 C109 C 0.43249 0.48437 0.46766
 C110 C 0.40323 0.50100 0.46404
 C111 C 0.40363 0.52739 0.49638
 C112 C 0.43300 0.52586 0.51926
 N113 N 0.45043 0.49955 0.50148
 C114 C 0.44233 0.54707 0.55742
 H115 H 0.46911 0.57463 0.64286
 H116 H 0.53234 0.57403 0.64248
 H117 H 0.47176 0.49005 0.51526
 H118 H 0.61588 0.54333 0.50117
 H119 H 0.61542 0.49264 0.43918
 H120 H 0.53014 0.39183 0.40266
 H121 H 0.46690 0.39243 0.40304
 H122 H 0.38434 0.54543 0.50254
 H123 H 0.52757 0.48953 0.51492
 H124 H 0.38362 0.49473 0.44056
 C125 C -0.01507 0.59023 -0.07801
 C126 C 0.01780 0.58938 -0.07829
 C127 C 0.02664 0.55843 -0.05783
 N128 N 0.00032 0.54033 -0.04529
 C129 C -0.02520 0.55983 -0.05727
 C130 C 0.05848 0.54651 -0.05382
 C131 C 0.06706 0.51615 -0.02960
 C132 C 0.09632 0.49963 -0.03408
 C133 C 0.09579 0.47220 -0.00350
 C134 C 0.06632 0.47291 0.01923
 N135 N 0.04898 0.49986 0.00313
 C136 C 0.05690 0.45007 0.05559
 C137 C 0.02480 0.44688 0.07121
 C138 C 0.01505 0.42819 0.11033
 C139 C -0.01781 0.42903 0.11078
 C140 C -0.02709 0.44863 0.07233
 N141 N -0.00102 0.45932 0.04806
 C142 C -0.05917 0.45404 0.05821
 C143 C -0.06824 0.47740 0.02241
 C144 C -0.09867 0.47953 0.00289
 C145 C -0.09821 0.50663 -0.02824
 C146 C -0.06753 0.52037 -0.02687
 N147 N -0.04953 0.50261 0.00440
 C148 C -0.05756 0.54978 -0.05223
 H149 H -0.02983 0.61078 -0.09180
 H150 H 0.03339 0.60913 -0.09240
 H151 H -0.02702 0.50967 0.01661
 H152 H 0.11602 0.50660 -0.05704
 H153 H 0.11504 0.45393 0.00153
 H154 H 0.02999 0.41497 0.13569
 H155 H -0.03306 0.41639 0.13633
 H156 H -0.11829 0.51543 -0.04916
 H157 H 0.02766 0.50891 0.01742
 H158 H -0.11926 0.46355 0.01066
 C159 C 0.51834 1.08971 0.42113
 C160 C 0.48546 1.09058 0.42145
 C161 C 0.47534 1.06021 0.44229
 N162 N 0.50087 1.04072 0.45429
 C163 C 0.52719 1.05880 0.44166
 C164 C 0.44299 1.05016 0.44739
 C165 C 0.43305 1.02079 0.47284
 C166 C 0.40241 1.00695 0.47142
 C167 C 0.40198 0.97991 0.50266
 C168 C 0.43238 0.97796 0.52231
 N169 N 0.45105 1.00318 0.50426
 C170 C 0.44147 0.95471 0.55821
 C171 C 0.47353 0.94939 0.57240
 C172 C 0.48279 0.92999 0.61103
 C173 C 0.51566 0.92913 0.61057
 C174 C 0.52541 0.94764 0.57129
 N175 N 0.49959 0.95998 0.54803
 C176 C 0.55750 0.95074 0.55559
 C177 C 0.56691 0.97348 0.51910
 C178 C 0.59636 0.97269 0.49633
 C179 C 0.59688 1.00003 0.46560
 C180 C 0.56762 1.01658 0.47004
 N181 N 0.54957 1.00039 0.50290
 C182 C 0.55903 1.04687 0.44567
 H183 H 0.53392 1.10944 0.40695
 H184 H 0.47071 1.11111 0.40762
 H185 H 0.52826 1.00949 0.51716
 H186 H 0.38235 1.01561 0.45037
 H187 H 0.38146 0.96382 0.51040
 H188 H 0.46750 0.91751 0.63669
 H189 H 0.53060 0.91603 0.63604
 H190 H 0.61656 1.00693 0.44256
 H191 H 0.47352 1.01034 0.51651
 H192 H 0.61560 0.95442 0.50141
 C193 C 1.15224 0.13188 0.14961
 C194 C 1.14157 0.15308 0.18644
 C195 C 1.16277 0.17552 0.20891
 C196 C 1.19489 0.17770 0.19427
 C197 C 1.20566 0.15619 0.15769
 C198 C 1.18454 0.13314 0.13588
 C199 C 1.12922 0.10960 0.12452
 C200 C 1.13427 0.07400 0.12117
 C201 C 1.11149 0.05298 0.09914
 C202 C 1.08372 0.06742 0.07928
 C203 C 1.07926 0.10318 0.08154
 C204 C 1.10160 0.12402 0.10444
 H205 H 1.15378 0.19192 0.23681
 H206 H 1.23032 0.15734 0.14582
 H207 H 1.11533 0.02546 0.09791
 H208 H 1.05819 0.11488 0.06605
 H209 H 1.19315 0.11704 0.10740
 H210 H 1.15542 0.06245 0.13659
 H211 H 1.11674 0.15236 0.19761
 H212 H 1.09744 0.15148 0.10633
 C213 C 0.65172 0.63231 0.64973
 C214 C 0.68402 0.63349 0.63594
 C215 C 0.70521 0.65645 0.65776
 C216 C 0.69454 0.67794 0.69442
 C217 C 0.66243 0.67584 0.70911
 C218 C 0.64115 0.65349 0.68663
 C219 C 0.62862 0.61010 0.62464
 C220 C 0.60094 0.62457 0.60484
 C221 C 0.57855 0.60381 0.58190
 C222 C 0.58305 0.56806 0.57931
 C223 C 0.61088 0.55358 0.59890
 C224 C 0.63369 0.57452 0.62097
 H225 H 0.72986 0.65753 0.64584
 H226 H 0.65351 0.69223 0.73707
 H227 H 0.55745 0.61556 0.56659
 H228 H 0.61476 0.52606 0.59740
 H229 H 0.61633 0.65283 0.69786
 H230 H 0.59676 0.65202 0.60696
 H231 H 0.69256 0.61740 0.60740
 H232 H 0.65490 0.56292 0.63617
 C233 C -0.15357 0.36710 0.14787
 C234 C -0.17954 0.35308 0.12289
 C235 C -0.20044 0.32987 0.14465
 C236 C -0.19563 0.31978 0.19186
 C237 C -0.16982 0.33438 0.21697
 C238 C -0.14916 0.35785 0.19526
 C239 C -0.13045 0.39034 0.12415
 C240 C -0.11942 0.42029 0.14676
 C241 C -0.09669 0.44142 0.12494
 C242 C -0.08443 0.43270 0.08049
 C243 C -0.09551 0.40301 0.05767
 C244 C -0.11848 0.38208 0.07920
 H245 H -0.22004 0.31941 0.12407
 H246 H -0.16525 0.32744 0.25335
 H247 H -0.08829 0.46430 0.14292
 H248 H -0.08612 0.39593 0.02339
 H249 H -0.12916 0.36805 0.21521
 H250 H -0.12844 0.42735 0.18125
 H251 H -0.18365 0.36008 0.08642
 H252 H -0.12628 0.35895 0.06125
 C253 C 0.34676 0.86802 0.64768
 C254 C 0.34966 0.86075 0.69602
 C255 C 0.32883 0.83746 0.71778
 C256 C 0.30451 0.82115 0.69172
 C257 C 0.30113 0.82908 0.64362
 C258 C 0.32212 0.85217 0.62180
 C259 C 0.37009 0.89109 0.62402
 C260 C 0.38340 0.88183 0.58025
 C261 C 0.40639 0.90273 0.55876
 C262 C 0.41625 0.93333 0.58046
 C263 C 0.40276 0.94300 0.62375
 C264 C 0.37993 0.92195 0.64551
 H265 H 0.33205 0.83193 0.75490
 H266 H 0.28263 0.81698 0.62257
 H267 H 0.41676 0.89493 0.52539
 H268 H 0.41023 0.96660 0.64085
 H269 H 0.31914 0.85760 0.58459
 H270 H 0.37657 0.85800 0.56320
 H271 H 0.36862 0.87235 0.71672
 H272 H 0.36988 0.92982 0.67903
 C273 C -0.15128 0.63542 -0.14591
 C274 C -0.17964 0.64593 -0.12335
 C275 C -0.20074 0.66868 -0.14549
 C276 C -0.19413 0.68139 -0.19100
 C277 C -0.16605 0.67020 -0.21393
 C278 C -0.14487 0.64767 -0.19159
 C279 C -0.12806 0.61249 -0.12152
 C280 C -0.11102 0.58726 -0.14681
 C281 C -0.08827 0.56670 -0.12419
 C282 C -0.08237 0.57081 -0.07589
 C283 C -0.09955 0.59546 -0.05027
 C284 C -0.12213 0.61622 -0.07289
 H285 H -0.22217 0.67639 -0.12668
 H286 H -0.15996 0.67935 -0.24889
 H287 H -0.07519 0.54763 -0.14430
 H288 H -0.09507 0.59896 -0.01295
 H289 H -0.12303 0.64053 -0.20975
 H290 H -0.11533 0.58331 -0.18407
 H291 H -0.18561 0.63651 -0.08850
 H292 H -0.13440 0.63573 -0.05249
 C293 C 0.34914 1.13568 0.35378
 C294 C 0.35554 1.14800 0.30814
 C295 C 0.33431 1.17050 0.28583
 C296 C 0.30618 1.18157 0.30876
 C297 C 0.29959 1.16879 0.35423
 C298 C 0.32074 1.14607 0.37634
 C299 C 0.37241 1.11279 0.37813
 C300 C 0.37827 1.11645 0.42679
 C301 C 0.40088 1.09571 0.44939
 C302 C 0.41815 1.07116 0.42373
 C303 C 0.41232 1.06712 0.37540
 C304 C 0.38954 1.08765 0.35280
 H305 H 0.34038 1.17971 0.25089
 H306 H 0.27813 1.17641 0.37304
 H307 H 0.40532 1.09916 0.48673
 H308 H 0.42547 1.04813 0.35525
 H309 H 0.31478 1.13659 0.41115
 H310 H 0.36594 1.13588 0.44723
 H311 H 0.37740 1.14095 0.28998
 H312 H 0.38527 1.08375 0.31552
 C313 C 1.15167 -0.13348 -0.15056
 C314 C 1.14496 -0.14699 -0.19550
 C315 C 1.16603 -0.17012 -0.21703
 C316 C 1.19423 -0.18070 -0.19392
 C317 C 1.20116 -0.16666 -0.14926
 C318 C 1.18025 -0.14327 -0.12803
 C319 C 1.12849 -0.11019 -0.12665
 C320 C 1.11065 -0.08598 -0.15261
 C321 C 1.08788 -0.06525 -0.13025
 C322 C 1.08279 -0.06812 -0.08156
 C323 C 1.10083 -0.09166 -0.05534
 C324 C 1.12337 -0.11263 -0.07767
 H325 H 1.15972 -0.18029 -0.25138
 H326 H 1.22273 -0.17380 -0.13039
 H327 H 1.07408 -0.04708 -0.15085
 H328 H 1.09693 -0.09426 -0.01773
 H329 H 1.18652 -0.13284 -0.09384
 H330 H 1.11431 -0.08302 -0.19018
 H331 H 1.12297 -0.14043 -0.21362
 H332 H 1.13620 -0.13135 -0.05669
 C333 C 0.65110 0.36800 0.34776
 C334 C 0.64252 0.35095 0.30584
 C335 C 0.66357 0.32774 0.28449
 C336 C 0.69359 0.32078 0.30479
 C337 C 0.70241 0.33816 0.34627
 C338 C 0.68148 0.36161 0.36737
 C339 C 0.62805 0.39142 0.37169
 C340 C 0.60738 0.41258 0.34531
 C341 C 0.58464 0.43321 0.36790
 C342 C 0.58234 0.43324 0.41722
 C343 C 0.60329 0.41287 0.44376
 C344 C 0.62586 0.39202 0.42124
 H345 H 0.65601 0.31462 0.25268
 H346 H 0.72549 0.33355 0.36256
 H347 H 0.56865 0.44896 0.34699
 H348 H 0.60164 0.41254 0.48189
 H349 H 0.68912 0.37475 0.39911
 H350 H 0.60876 0.41320 0.30720
 H351 H 0.61914 0.35481 0.29014
 H352 H 0.64098 0.37569 0.44266
 C353 C 0.84711 -0.13080 -0.15108
 C354 C 0.81688 -0.13790 -0.13131
 C355 C 0.79626 -0.16168 -0.15251
 C356 C 0.80528 -0.17870 -0.19417
 C357 C 0.83513 -0.17100 -0.21459
 C358 C 0.85585 -0.14746 -0.19320
 C359 C 0.86997 -0.10721 -0.12704
 C360 C 0.89037 -0.08565 -0.15337
 C361 C 0.91331 -0.06524 -0.13080
 C362 C 0.91607 -0.06582 -0.08156
 C363 C 0.89527 -0.08645 -0.05502
 C364 C 0.87250 -0.10708 -0.07753
 H365 H 0.77331 -0.16689 -0.13610
 H366 H 0.84287 -0.18382 -0.24653
 H367 H 0.92918 -0.04928 -0.15169
 H368 H 0.89727 -0.08723 -0.01694
 H369 H 0.87913 -0.14309 -0.20900
 H370 H 0.88871 -0.08465 -0.19144
 H371 H 0.80914 -0.12510 -0.09936
 H372 H 0.85757 -0.12371 -0.05618
 C373 C 0.34682 0.36958 0.34865
 C374 C 0.35565 0.35287 0.30661
 C375 C 0.33500 0.32925 0.28524
 C376 C 0.30515 0.32151 0.30560
 C377 C 0.29604 0.33857 0.34719
 C378 C 0.31659 0.36244 0.36837
 C379 C 0.36961 0.39326 0.37267
 C380 C 0.37207 0.39352 0.42219
 C381 C 0.39478 0.41423 0.44468
 C382 C 0.41560 0.43483 0.41811
 C383 C 0.41290 0.43528 0.36886
 C384 C 0.39002 0.41480 0.34631
 H385 H 0.34280 0.31640 0.25334
 H386 H 0.27309 0.33333 0.36356
 H387 H 0.39674 0.41353 0.48277
 H388 H 0.42879 0.45121 0.34795
 H389 H 0.30879 0.37527 0.40026
 H390 H 0.35713 0.37690 0.44356
 H391 H 0.37894 0.35726 0.29085
 H392 H 0.38841 0.41571 0.30823
 C393 C 0.15301 0.63160 -0.14689
 C394 C 0.14464 0.64705 -0.18998
 C395 C 0.16532 0.67039 -0.21183
 C396 C 0.19478 0.67910 -0.19097
 C397 C 0.20339 0.66340 -0.14819
 C398 C 0.18279 0.63981 -0.12648
 C399 C 0.13022 0.60799 -0.12273
 C400 C 0.11079 0.58534 -0.14894
 C401 C 0.08785 0.56489 -0.12646
 C402 C 0.08414 0.56647 -0.07741
 C403 C 0.10397 0.58821 -0.05090
 C404 C 0.12675 0.60889 -0.07335
 H405 H 0.15787 0.68219 -0.24463
 H406 H 0.22602 0.66943 -0.13137
 H407 H 0.07273 0.54808 -0.14730
 H408 H 0.10121 0.58976 -0.01297
 H409 H 0.19021 0.62799 -0.09370
 H410 H 0.11320 0.58354 -0.18687
 H411 H 0.12169 0.64184 -0.20630
 H412 H 0.14093 0.62635 -0.05213
 C413 C 0.65348 1.13183 0.35219
 C414 C 0.64507 1.14731 0.30913
 C415 C 0.66575 1.17062 0.28722
 C416 C 0.69525 1.17927 0.30800
 C417 C 0.70391 1.16353 0.35074
 C418 C 0.68330 1.13998 0.37250
 C419 C 0.63069 1.10826 0.37643
 C420 C 0.61117 1.08566 0.35030
 C421 C 0.58826 1.06522 0.37288
 C422 C 0.58467 1.06679 0.42196
 C423 C 0.60459 1.08848 0.44838
 C424 C 0.62733 1.10914 0.42583
 H425 H 0.65828 1.18245 0.25445
 H426 H 0.72656 1.16950 0.36749
 H427 H 0.57306 1.04845 0.35211
 H428 H 0.60192 1.09002 0.48633
 H429 H 0.69076 1.12813 0.40524
 H430 H 0.61348 1.08387 0.31235
 H431 H 0.62208 1.14215 0.29288
 H432 H 0.64158 1.12657 0.44699
 C433 C 0.15007 0.36174 0.14514
 C434 C 0.18263 0.36166 0.13266
 C435 C 0.20395 0.33908 0.15482
 C436 C 0.19312 0.31692 0.19061
 C437 C 0.16065 0.31769 0.20374
 C438 C 0.13925 0.33962 0.18082
 C439 C 0.12714 0.38437 0.12059
 C440 C 0.10021 0.37019 0.09818
 C441 C 0.07788 0.39148 0.07608
 C442 C 0.08164 0.42738 0.07714
 C443 C 0.10874 0.44154 0.09929
 C444 C 0.13152 0.42015 0.12044
 H445 H 0.22888 0.33901 0.14414
 H446 H 0.15164 0.30072 0.23099
 H447 H 0.05735 0.38003 0.05872
 H448 H 0.11207 0.46915 0.10051
 H449 H 0.11422 0.33944 0.19101
 H450 H 0.09658 0.34261 0.09768
 H451 H 0.19136 0.37853 0.10510
 H452 H 0.15212 0.43151 0.13771
 C453 C 0.65043 0.86219 0.64529
 C454 C 0.63953 0.84017 0.68103
 C455 C 0.66084 0.81814 0.70396
 C456 C 0.69330 0.81719 0.69079
 C457 C 0.70421 0.83926 0.65496
 C458 C 0.68298 0.86193 0.63277
 C459 C 0.62757 0.88487 0.62068
 C460 C 0.63210 0.92063 0.62035
 C461 C 0.60938 0.94208 0.59916
 C462 C 0.58219 0.92800 0.57714
 C463 C 0.57830 0.89212 0.57624
 C464 C 0.60057 0.87077 0.59838
 H465 H 0.65176 0.80125 0.73125
 H466 H 0.72913 0.83905 0.64424
 H467 H 0.61281 0.96968 0.60025
 H468 H 0.55770 0.88071 0.55899
 H469 H 0.69177 0.87872 0.60516
 H470 H 0.65276 0.93194 0.63753
 H471 H 0.61450 0.84012 0.69124
 H472 H 0.59682 0.84320 0.59801
 C473 C 0.85062 0.13435 0.15036
 C474 C 0.86121 0.15643 0.18629
 C475 C 0.83983 0.17893 0.20828
 C476 C 0.80761 0.18028 0.19401
 C477 C 0.79696 0.15797 0.15826
 C478 C 0.81824 0.13490 0.13696
 C479 C 0.87367 0.11172 0.12591
 C480 C 0.86817 0.07617 0.12260
 C481 C 0.89067 0.05485 0.10058
 C482 C 0.91863 0.06889 0.08068
 C483 C 0.92364 0.10457 0.08309
 C484 C 0.90156 0.12573 0.10597
 H485 H 0.84872 0.19594 0.23558
 H486 H 0.77222 0.15844 0.14670
 H487 H 0.88640 0.02739 0.09924
 H488 H 0.94486 0.11599 0.06756
 H489 H 0.80966 0.11815 0.10916
 H490 H 0.84682 0.06489 0.13790
 H491 H 0.88608 0.15627 0.19724
 H492 H 0.90608 0.15314 0.10777
 C493 C 0.34985 0.63479 0.65020
 C494 C 0.36046 0.65668 0.68632
 C495 C 0.33910 0.67909 0.70850
 C496 C 0.30687 0.68053 0.69426
 C497 C 0.29621 0.65842 0.65828
 C498 C 0.31748 0.63543 0.63678
 C499 C 0.37290 0.61221 0.62562
 C500 C 0.36740 0.57668 0.62215
 C501 C 0.38994 0.55539 0.60014
 C502 C 0.41793 0.56948 0.58039
 C503 C 0.42294 0.60516 0.58294
 C504 C 0.40082 0.62627 0.60583
 H505 H 0.34800 0.69594 0.73596
 H506 H 0.27147 0.65897 0.64674
 H507 H 0.38567 0.52794 0.59869
 H508 H 0.44418 0.61660 0.56753
 H509 H 0.30889 0.61881 0.60884
 H510 H 0.34603 0.56537 0.63736
 H511 H 0.38533 0.65644 0.69729
 H512 H 0.40533 0.65367 0.60775
   
