data_POSCAR
  _audit_creation_date              2014-09-24
  _audit_creation_method            'ToBaCCo'
  _symmetry_space_group_name_H-M    'P1'
  _symmetry_Int_Tables_number       1
  _symmetry_cell_setting            triclinic
  loop_
  _symmetry_equiv_pos_as_xyz
 x,y,z
_cell_length_a 18.0595
_cell_length_b 18.0179
_cell_length_c 17.9794
_cell_angle_alpha 90.070200
_cell_angle_beta 90.088500
_cell_angle_gamma 89.983500
loop_
  _atom_site_label
  _atom_site_type_symbol
  _atom_site_fract_x
  _atom_site_fract_y
  _atom_site_fract_z
C1 C 0.16879 1.26477 0.17143
 N2 N 0.23028 1.23464 0.14004
 C3 C 0.26373 1.17440 0.17062
 N4 N 0.23462 1.14364 0.23298
 C5 C 0.17282 1.17251 0.26510
 N6 N 0.14051 1.23316 0.23394
 C7 C 0.82746 0.73686 0.17236
 N8 N 0.76552 0.76841 0.14306
 C9 C 0.73635 0.83112 0.17306
 N10 N 0.76988 0.86260 0.23296
 C11 C 0.83155 0.83180 0.26352
 N12 N 0.85986 0.76896 0.23266
 C13 C 0.82736 1.26263 -0.17479
 N14 N 0.76517 1.23166 -0.14590
 C15 C 0.73547 1.16943 -0.17644
 N16 N 0.76891 1.13787 -0.23627
 C17 C 0.83109 1.16809 -0.26619
 N18 N 0.85995 1.23045 -0.23481
 C19 C 0.16718 0.73398 -0.16823
 N20 N 0.13806 0.76454 -0.23093
 C21 C 0.16988 0.82478 -0.26341
 N22 N 0.23194 0.85427 -0.23235
 C23 C 0.26190 0.82455 -0.16978
 N24 N 0.22902 0.76473 -0.13794
 C25 C 0.57473 1.13073 -0.04743
 H26 H 0.54492 1.15808 -0.00311
 C27 C 0.62974 1.16927 -0.08597
 H28 H 0.64073 1.22664 -0.07172
 C29 C 0.60070 1.02127 -0.11583
 H30 H 0.59071 0.96281 -0.12520
 C31 C 0.65541 1.05786 -0.15635
 H32 H 0.68685 1.02703 -0.19728
 N33 N 0.56170 1.05793 -0.06263
 C34 C 0.42413 1.04568 0.12957
 H35 H 0.45439 1.00147 0.15652
 C36 C 0.36943 1.08400 0.16888
 H37 H 0.35912 1.06967 0.22642
 C38 C 0.39682 1.11413 0.02043
 H39 H 0.40622 1.12366 -0.03819
 C40 C 0.34238 1.15444 0.05781
 H41 H 0.31052 1.19535 0.02742
 Zn42 Zn 0.49909 1.00046 -0.00153
 N43 N 0.43639 1.06104 0.05658
 C44 C 0.60232 0.97988 0.11165
 N45 N 0.56269 0.94311 0.05889
 C46 C 0.57532 0.87018 0.04398
 C47 C 0.63043 0.83155 0.08250
 C48 C 0.65715 0.94322 0.15214
 C49 C 0.42237 0.95427 -0.13172
 C50 C 0.36724 0.91544 -0.17008
 C51 C 0.34193 0.84602 -0.05803
 C52 C 0.39673 0.88682 -0.02165
 N53 N 0.43566 0.93963 -0.05871
 H54 H 0.59258 1.03842 0.12082
 H55 H 0.54498 0.84272 0.00002
 H56 H 0.64099 0.77403 0.06859
 H57 H 0.68898 0.97409 0.19282
 H58 H 0.45217 0.99827 -0.15941
 H59 H 0.35611 0.92915 -0.22765
 H60 H 0.31064 0.80533 -0.02690
 H61 H 0.40697 0.87786 0.03696
 C62 C 0.32704 1.13851 0.13265
 C63 C 0.67164 1.13245 -0.14053
 C64 C 0.32554 0.86115 -0.13288
 C65 C 0.67281 0.86842 0.13676
 C66 C -0.03332 0.59071 1.12985
 H67 H 0.01919 0.56996 1.15007
 C68 C -0.06858 0.64423 1.16730
 H69 H -0.04417 0.66545 1.21810
 C70 C -0.12592 0.58706 1.03510
 H71 H -0.14549 0.56801 0.98153
 C72 C -0.16726 0.64550 1.07487
 H73 H -0.21799 0.66592 1.05002
 N74 N -0.06366 0.56207 1.06168
 C75 C 0.12365 0.40910 1.03055
 H76 H 0.14360 0.43020 0.97796
 C77 C 0.16157 0.35609 1.06606
 H78 H 0.21245 0.33559 1.04173
 C79 C 0.02912 0.41136 1.12311
 H80 H -0.02428 0.43006 1.14275
 C81 C 0.06933 0.35337 1.16467
 H82 H 0.04494 0.33276 1.21563
 Zn83 Zn -0.00411 0.49983 1.00186
 N84 N 0.05547 0.43690 1.06086
 C85 C 0.11914 0.59024 0.97203
 N86 N 0.05463 0.56385 0.94341
 C87 C 0.02684 0.59028 0.87833
 C88 C 0.06467 0.64511 0.83887
 C89 C 0.15886 0.64511 0.93455
 C90 C -0.12736 0.40997 0.96832
 C91 C -0.16614 0.35525 0.92940
 C92 C -0.06984 0.35573 0.83623
 C93 C -0.03299 0.41050 0.87693
 N94 N -0.06224 0.43660 0.94151
 H95 H 0.13867 0.57030 1.02527
 H96 H -0.02599 0.57038 0.85813
 H97 H 0.04050 0.66572 0.78774
 H98 H 0.20951 0.66571 0.95942
 H99 H -0.14798 0.42933 1.02134
 H100 H -0.21712 0.33387 0.95263
 H101 H -0.04472 0.33480 0.78575
 H102 H 0.02032 0.43041 0.85828
 C103 C 0.13263 0.32484 1.13692
 C104 C -0.13915 0.67523 1.13778
 C105 C -0.13684 0.32648 0.86296
 C106 C 0.13125 0.67445 0.86738
 C107 C 1.13218 -0.03444 0.59013
 H108 H 1.15430 0.01722 0.56916
 C109 C 1.16843 -0.07124 0.64351
 H110 H 1.22019 -0.04897 0.66427
 C111 C 1.03394 -0.12295 0.58765
 H112 H 0.97975 -0.14034 0.56886
 C113 C 1.07218 -0.16582 0.64606
 H114 H 1.04546 -0.21539 0.66693
 N115 N 1.06282 -0.06194 0.56210
 C116 C 1.03385 0.12818 0.41095
 H117 H 0.98146 0.14814 0.43213
 C118 C 1.06908 0.16628 0.35793
 H119 H 1.04478 0.21734 0.33758
 C120 C 1.12611 0.03337 0.41279
 H121 H 1.14551 -0.02043 0.43088
 C122 C 1.16744 0.07386 0.35493
 H123 H 1.21802 0.04927 0.33397
 Zn124 Zn 1.00457 -0.00090 0.49975
 N125 N 1.06405 0.05966 0.43841
 C126 C 0.97287 0.12189 0.59111
 N127 N 0.94530 0.05716 0.56384
 C128 C 0.88051 0.02863 0.58937
 C129 C 0.84027 0.06588 0.64416
 C130 C 0.93452 0.16111 0.64591
 C131 C 0.97240 -0.12365 0.40810
 C132 C 0.93413 -0.16244 0.35282
 C133 C 0.84141 -0.06565 0.35270
 C134 C 0.88158 -0.02881 0.40793
 N135 N 0.94554 -0.05832 0.43464
 H136 H 1.02591 0.14201 0.57192
 H137 H 0.86111 -0.02432 0.56873
 H138 H 0.78939 0.04111 0.66404
 H139 H 0.95851 0.21198 0.66719
 H140 H 1.02481 -0.14462 0.42827
 H141 H 0.95754 -0.21380 0.33215
 H142 H 0.79117 -0.04013 0.33194
 H143 H 0.86277 0.02454 0.42804
 C144 C 1.13948 0.13716 0.32629
 C145 C 1.13630 -0.14044 0.67510
 C146 C 0.86804 -0.13308 0.32326
 C147 C 0.86762 0.13271 0.67434
   
