data_POSCAR
  _audit_creation_date              2014-09-24
  _audit_creation_method            'ToBaCCo'
  _symmetry_space_group_name_H-M    'P1'
  _symmetry_Int_Tables_number       1
  _symmetry_cell_setting            triclinic
  loop_
  _symmetry_equiv_pos_as_xyz
 x,y,z
_cell_length_a 43.4500
_cell_length_b 43.3990
_cell_length_c 43.4845
_cell_angle_alpha 88.414900
_cell_angle_beta 88.134400
_cell_angle_gamma 88.317600
loop_
  _atom_site_label
  _atom_site_type_symbol
  _atom_site_fract_x
  _atom_site_fract_y
  _atom_site_fract_z
Si1 Si 0.75636 0.61471 0.99888
 Si2 Si 0.74851 0.37725 0.50293
 Si3 Si 0.24498 -0.12154 0.00444
 Si4 Si 0.25790 0.11586 0.49946
 Si5 Si 0.11937 0.49938 0.25654
 Si6 Si -0.11837 0.00451 0.25322
 Si7 Si 0.38070 0.50264 0.74564
 Si8 Si 0.61949 0.99556 0.76458
 Si9 Si 0.00428 0.25085 -0.12245
 Si10 Si 0.49814 0.26295 0.11482
 Si11 Si 0.99834 0.75956 0.61551
 Si12 Si 0.50501 0.75454 0.37519
 C13 C 0.42415 -0.02608 0.27611
 H14 H 0.42514 -0.00412 0.28716
 C15 C 0.43954 -0.05206 0.28863
 H16 H 0.45238 -0.04982 0.30933
 C17 C 0.40415 -0.05615 0.23716
 H18 H 0.38964 -0.05805 0.21768
 C19 C 0.41921 -0.08256 0.24878
 H20 H 0.41666 -0.10423 0.23749
 N21 N 0.40648 -0.02867 0.25111
 C22 C 0.38503 0.06122 0.20869
 H23 H 0.36042 0.05843 0.20774
 C24 C 0.39817 0.08780 0.19625
 H25 H 0.38343 0.10549 0.18592
 C26 C 0.43378 0.04165 0.22423
 H27 H 0.44744 0.02349 0.23516
 C28 C 0.44797 0.06812 0.21211
 H29 H 0.47266 0.07010 0.21354
 Zn30 Zn 0.38054 0.00504 0.23871
 N31 N 0.40278 0.03891 0.22249
 C32 C 0.36076 0.04697 0.28365
 N33 N 0.35721 0.01781 0.27392
 C34 C 0.34002 -0.00272 0.29073
 C35 C 0.32587 0.00582 0.31874
 C36 C 0.34718 0.05637 0.31139
 C37 C 0.37072 -0.01167 0.17940
 C38 C 0.35543 -0.02255 0.15445
 C39 C 0.30856 -0.02365 0.18590
 C40 C 0.32483 -0.01259 0.21039
 N41 N 0.35552 -0.00753 0.20684
 H42 H 0.37499 0.06283 0.27051
 H43 H 0.33814 -0.02600 0.28286
 H44 H 0.31292 -0.01095 0.33230
 H45 H 0.35055 0.07963 0.31877
 H46 H 0.39504 -0.00708 0.17715
 H47 H 0.36813 -0.02591 0.13291
 H48 H 0.28440 -0.02864 0.18930
 H49 H 0.31312 -0.00874 0.23231
 C50 C 0.43003 0.09158 0.19784
 C51 C 0.43657 -0.08095 0.27531
 C52 C 0.32410 -0.02933 0.15765
 C53 C 0.32994 0.03557 0.32960
 C54 C 0.07896 1.02903 0.78682
 H55 H 0.07609 1.00706 0.79879
 C56 C 0.06470 1.05572 0.79860
 H57 H 0.05084 1.05405 0.81969
 C58 C 0.10241 1.05817 0.74606
 H59 H 0.11781 1.05934 0.72612
 C60 C 0.08856 1.08531 0.75694
 H61 H 0.09292 1.10687 0.74467
 N62 N 0.09771 1.03078 0.76121
 C63 C 0.11324 0.93893 0.72446
 H64 H 0.13814 0.93925 0.72325
 C65 C 0.09817 0.91371 0.71376
 H66 H 0.11167 0.89479 0.70401
 C67 C 0.06561 0.96394 0.73776
 H68 H 0.05315 0.98374 0.74696
 C69 C 0.04948 0.93911 0.72700
 H70 H 0.02454 0.93981 0.72823
 Zn71 Zn 0.12143 0.99551 0.74925
 N72 N 0.09696 0.96321 0.73649
 C73 C 0.14104 0.95255 0.79492
 N74 N 0.14459 0.98174 0.78344
 C75 C 0.16299 1.00174 0.79724
 C76 C 0.17904 0.99240 0.82345
 C77 C 0.15679 0.94222 0.82079
 C78 C 0.13248 1.01195 0.68828
 C79 C 0.14902 1.02037 0.66157
 C80 C 0.19592 1.01560 0.68993
 C81 C 0.17841 1.00711 0.71621
 N82 N 0.14722 1.00597 0.71497
 H83 H 0.12554 0.93727 0.78446
 H84 H 0.16494 1.02504 0.78803
 H85 H 0.19366 1.00850 0.83416
 H86 H 0.15328 0.91902 0.82975
 H87 H 0.10767 1.01063 0.68796
 H88 H 0.13666 1.02597 0.64083
 H89 H 0.22071 1.01670 0.69125
 H90 H 0.18970 1.00169 0.73754
 C91 C 0.06588 0.91349 0.71501
 C92 C 0.06996 1.08446 0.78393
 C93 C 0.18115 1.02254 0.66220
 C94 C 0.17609 0.96220 0.83541
 C95 C 0.57968 0.53173 0.28695
 H96 H 0.57633 0.50987 0.29898
 C97 C 0.56554 0.55865 0.29834
 H98 H 0.55129 0.55727 0.31920
 C99 C 0.60415 0.56034 0.24642
 H100 H 0.61987 0.56119 0.22671
 C101 C 0.59045 0.58771 0.25692
 H102 H 0.59525 0.60913 0.24459
 N103 N 0.59886 0.53309 0.26163
 C104 C 0.61350 0.44087 0.22549
 H105 H 0.63842 0.44078 0.22470
 C106 C 0.59821 0.41588 0.21457
 H107 H 0.61158 0.39671 0.20512
 C108 C 0.56607 0.46670 0.23785
 H109 H 0.55377 0.48673 0.24675
 C110 C 0.54972 0.44212 0.22686
 H111 H 0.52478 0.44324 0.22762
 Zn112 Zn 0.62221 0.49744 0.25009
 N113 N 0.59741 0.46544 0.23714
 C114 C 0.64069 0.45436 0.29612
 N115 N 0.64485 0.48343 0.28456
 C116 C 0.66369 0.50305 0.29829
 C117 C 0.67973 0.49338 0.32440
 C118 C 0.65639 0.44371 0.32190
 C119 C 0.63407 0.51325 0.18916
 C120 C 0.65095 0.52115 0.16250
 C121 C 0.69755 0.51620 0.19134
 C122 C 0.67969 0.50818 0.21755
 N123 N 0.64850 0.50736 0.21604
 H124 H 0.62483 0.43940 0.28572
 H125 H 0.66611 0.52628 0.28903
 H126 H 0.69481 0.50914 0.33499
 H127 H 0.65248 0.42058 0.33087
 H128 H 0.60925 0.51221 0.18862
 H129 H 0.63885 0.52661 0.14157
 H130 H 0.72233 0.51707 0.19286
 H131 H 0.69074 0.50285 0.23902
 C132 C 0.56591 0.41620 0.21522
 C133 C 0.57136 0.58724 0.28358
 C134 C 0.68310 0.52294 0.16339
 C135 C 0.67628 0.46324 0.33635
 C136 C 0.92470 0.47058 0.77785
 H137 H 0.92581 0.49260 0.78878
 C138 C 0.93980 0.44455 0.79062
 H139 H 0.95255 0.44681 0.81138
 C140 C 0.90466 0.44044 0.73898
 H141 H 0.89023 0.43854 0.71944
 C142 C 0.91943 0.41398 0.75084
 H143 H 0.91675 0.39227 0.73968
 N144 N 0.90714 0.46799 0.75277
 C145 C 0.88647 0.55769 0.70964
 H146 H 0.86187 0.55493 0.70851
 C147 C 0.89977 0.58412 0.69706
 H148 H 0.88515 0.60174 0.68643
 C149 C 0.93504 0.53817 0.72576
 H150 H 0.94857 0.52009 0.73697
 C151 C 0.94938 0.56452 0.71352
 H152 H 0.97405 0.56649 0.71516
 Zn153 Zn 0.88153 0.50180 0.73999
 N154 N 0.90406 0.53547 0.72377
 C155 C 0.86173 0.54407 0.78459
 N156 N 0.85799 0.51490 0.77495
 C157 C 0.84053 0.49459 0.79174
 C158 C 0.82632 0.50335 0.81966
 C159 C 0.84810 0.55368 0.81223
 C160 C 0.87232 0.48486 0.68069
 C161 C 0.85732 0.47405 0.65555
 C162 C 0.81000 0.47343 0.68632
 C163 C 0.82601 0.48441 0.71104
 N164 N 0.85677 0.48922 0.70791
 H165 H 0.87617 0.55976 0.77147
 H166 H 0.83849 0.47130 0.78395
 H167 H 0.81316 0.48674 0.83321
 H168 H 0.85162 0.57694 0.81952
 H169 H 0.89670 0.48925 0.67878
 H170 H 0.87029 0.47053 0.63418
 H171 H 0.78575 0.46868 0.68936
 H172 H 0.81403 0.48843 0.73279
 C173 C 0.93160 0.58785 0.69887
 C174 C 0.93665 0.41561 0.77746
 C175 C 0.82589 0.46756 0.65830
 C176 C 0.83060 0.53309 0.83044
 C177 C 0.28228 0.42706 -0.03346
 H178 H 0.29445 0.42679 -0.01213
 C179 C 0.29480 0.44196 -0.05975
 H180 H 0.31662 0.45317 -0.05838
 C181 C 0.24038 0.41057 -0.06174
 H182 H 0.21964 0.39764 -0.06285
 C183 C 0.25193 0.42524 -0.08840
 H184 H 0.23943 0.42395 -0.10945
 N185 N 0.25581 0.41129 -0.03505
 C186 C 0.21277 0.39109 0.05492
 H187 H 0.20891 0.36697 0.05127
 C188 C 0.20272 0.40429 0.08238
 H189 H 0.19057 0.39028 0.09953
 C190 C 0.23334 0.43845 0.03672
 H191 H 0.24557 0.45146 0.01890
 C192 C 0.22348 0.45272 0.06399
 H193 H 0.22823 0.47677 0.06703
 Zn194 Zn 0.24293 0.38549 -0.00138
 N195 N 0.22825 0.40801 0.03301
 C196 C 0.28503 0.35968 0.04058
 N197 N 0.27725 0.36040 0.01051
 C198 C 0.29510 0.34565 -0.01113
 C199 C 0.32214 0.32961 -0.00277
 C200 C 0.31145 0.34366 0.04994
 C201 C 0.18250 0.37698 -0.01621
 C202 C 0.15705 0.36209 -0.02664
 C203 C 0.18829 0.31529 -0.03066
 C204 C 0.21327 0.33115 -0.02002
 N205 N 0.21002 0.36160 -0.01362
 H206 H 0.27124 0.37212 0.05742
 H207 H 0.28873 0.34701 -0.03499
 H208 H 0.33639 0.31829 -0.02022
 H209 H 0.31747 0.34397 0.07390
 H210 H 0.18053 0.40112 -0.01068
 H211 H 0.13541 0.37489 -0.02869
 H212 H 0.19144 0.29133 -0.03666
 H213 H 0.23534 0.31935 -0.01756
 C214 C 0.20842 0.43535 0.08743
 C215 C 0.27992 0.44051 -0.08790
 C216 C 0.15986 0.33099 -0.03458
 C217 C 0.33053 0.32857 0.02817
 C218 C 0.78918 0.07987 1.03317
 H219 H 0.80065 0.07671 1.01098
 C220 C 0.80108 0.06524 1.05951
 H221 H 0.82176 0.05084 1.05733
 C222 C 0.74965 0.10433 1.06325
 H223 H 0.73020 0.12029 1.06496
 C224 C 0.76064 0.09014 1.09002
 H225 H 0.74889 0.09478 1.11181
 N226 N 0.76413 0.09929 1.03555
 C227 C 0.72597 0.11652 0.94500
 H228 H 0.72603 0.14143 0.94547
 C229 C 0.71314 0.10215 0.92047
 H230 H 0.70372 0.11622 0.90190
 C231 C 0.73832 0.06818 0.96892
 H232 H 0.74775 0.05518 0.98816
 C233 C 0.72567 0.05273 0.94462
 H234 H 0.72539 0.02779 0.94532
 Zn235 Zn 0.75201 0.12348 1.00076
 N236 N 0.73815 0.09954 0.96859
 C237 C 0.79878 0.14025 0.95795
 N238 N 0.78651 0.14606 0.98644
 C239 C 0.80013 0.16564 1.00542
 C240 C 0.82717 0.18036 0.99580
 C241 C 0.82573 0.15426 0.94753
 C242 C 0.69172 0.13406 1.01874
 C243 C 0.66513 0.14992 1.02866
 C244 C 0.69267 0.19749 1.02379
 C245 C 0.71893 0.18058 1.01387
 N246 N 0.71808 0.14935 1.01222
 H247 H 0.78820 0.12406 0.94345
 H248 H 0.79034 0.16930 1.02826
 H249 H 0.83806 0.19548 1.01130
 H250 H 0.83508 0.14926 0.92477
 H251 H 0.69161 0.10927 1.01672
 H252 H 0.64449 0.13718 1.03397
 H253 H 0.69382 0.22222 1.02594
 H254 H 0.73998 0.19235 1.00799
 C255 C 0.71252 0.06987 0.92019
 C256 C 0.78710 0.07084 1.08852
 C257 C 0.66550 0.18198 1.03187
 C258 C 0.84047 0.17435 0.96663
 C259 C 0.28979 0.58159 0.52533
 H260 H 0.30125 0.57920 0.50302
 C261 C 0.30203 0.56653 0.55127
 H262 H 0.32296 0.55256 0.54869
 C263 C 0.24990 0.60455 0.55611
 H264 H 0.23015 0.62009 0.55827
 C265 C 0.26122 0.58990 0.58250
 H266 H 0.24943 0.59377 0.60444
 N267 N 0.26440 0.60049 0.52825
 C268 C 0.22529 0.61923 0.43837
 H269 H 0.22508 0.64412 0.43927
 C270 C 0.21230 0.60513 0.41376
 H271 H 0.20250 0.61940 0.39553
 C272 C 0.23840 0.57062 0.46134
 H273 H 0.24817 0.55741 0.48027
 C274 C 0.22561 0.55546 0.43695
 H275 H 0.22558 0.53051 0.43725
 Zn276 Zn 0.25177 0.62536 0.49412
 N277 N 0.23791 0.60198 0.46154
 C278 C 0.29798 0.64379 0.45136
 N279 N 0.28595 0.64860 0.48014
 C280 C 0.29970 0.66752 0.49967
 C281 C 0.32669 0.68249 0.49039
 C282 C 0.32488 0.65809 0.44125
 C283 C 0.19143 0.63490 0.51250
 C284 C 0.16478 0.65019 0.52313
 C285 C 0.19195 0.69804 0.51999
 C286 C 0.21829 0.68171 0.50931
 N287 N 0.21765 0.65058 0.50647
 H288 H 0.28729 0.62812 0.43639
 H289 H 0.29009 0.67039 0.52272
 H290 H 0.33773 0.69700 0.50636
 H291 H 0.33408 0.65383 0.41826
 H292 H 0.19149 0.61022 0.50957
 H293 H 0.14426 0.63713 0.52804
 H294 H 0.19296 0.72265 0.52312
 H295 H 0.23923 0.69380 0.50384
 C296 C 0.21198 0.57286 0.41296
 C297 C 0.28804 0.57116 0.58046
 C298 C 0.16494 0.68207 0.52760
 C299 C 0.33982 0.67743 0.46095
 C300 C 0.78251 0.92839 0.47580
 H301 H 0.79314 0.92768 0.49797
 C302 C 0.79616 0.94476 0.45103
 H303 H 0.81699 0.95713 0.45452
 C304 C 0.74331 0.91191 0.44396
 H305 H 0.72337 0.89821 0.44085
 C306 C 0.75611 0.92795 0.41867
 H307 H 0.74571 0.92632 0.39650
 N308 N 0.75677 0.91207 0.47177
 C309 C 0.71132 0.88832 0.55984
 H310 H 0.70748 0.86440 0.55519
 C311 C 0.70080 0.90052 0.58765
 H312 H 0.68834 0.88595 0.60406
 C313 C 0.73218 0.93622 0.54378
 H314 H 0.74464 0.94989 0.52666
 C315 C 0.72193 0.94946 0.57143
 H316 H 0.72671 0.97333 0.57545
 Zn317 Zn 0.74251 0.88493 0.50374
 N318 N 0.72718 0.90598 0.53883
 C319 C 0.78374 0.85688 0.54539
 N320 N 0.77625 0.85891 0.51525
 C321 C 0.79420 0.84495 0.49316
 C322 C 0.82114 0.82852 0.50110
 C323 C 0.81009 0.84044 0.55432
 C324 C 0.68280 0.87826 0.48548
 C325 C 0.65746 0.86401 0.47397
 C326 C 0.68760 0.81638 0.47153
 C327 C 0.71248 0.83162 0.48321
 N328 N 0.70974 0.86214 0.48940
 H329 H 0.76985 0.86871 0.56260
 H330 H 0.78804 0.84736 0.46929
 H331 H 0.83550 0.81792 0.48328
 H332 H 0.81596 0.83981 0.57835
 H333 H 0.68122 0.90243 0.49096
 H334 H 0.63628 0.87735 0.47096
 H335 H 0.69036 0.79231 0.46584
 H336 H 0.73406 0.81922 0.48679
 C337 C 0.70646 0.93133 0.59399
 C338 C 0.78325 0.94417 0.42181
 C339 C 0.65976 0.83278 0.46637
 C340 C 0.82936 0.82627 0.53207
 C341 C -0.02756 0.28121 0.42628
 H342 H -0.00529 0.29146 0.42790
 C343 C -0.05326 0.29399 0.44201
 H344 H -0.05043 0.31374 0.45621
 C345 C -0.05849 0.24375 0.40484
 H346 H -0.06077 0.22487 0.38951
 C347 C -0.08471 0.25574 0.42014
 H348 H -0.10678 0.24578 0.41635
 N349 N -0.03065 0.25670 0.40791
 C350 C 0.05956 0.21366 0.38819
 H351 H 0.05700 0.21173 0.36366
 C352 C 0.08645 0.20265 0.40170
 H353 H 0.10431 0.19177 0.38744
 C354 C 0.03903 0.23007 0.43640
 H355 H 0.02050 0.24092 0.44970
 C356 C 0.06568 0.21918 0.45097
 H357 H 0.06755 0.22188 0.47551
 Zn358 Zn 0.00327 0.24343 0.38256
 N359 N 0.03680 0.22759 0.40543
 C360 C 0.04613 0.28676 0.36034
 N361 N 0.01650 0.27790 0.35839
 C362 C -0.00399 0.29455 0.34114
 C363 C 0.00521 0.32118 0.32484
 C364 C 0.05632 0.31290 0.34427
 C365 C -0.01449 0.18396 0.37303
 C366 C -0.02345 0.15848 0.35710
 C367 C -0.02003 0.18896 0.30981
 C368 C -0.01097 0.21394 0.32671
 N369 N -0.00878 0.21106 0.35780
 H370 H 0.06192 0.27402 0.37489
 H371 H -0.02759 0.28737 0.34043
 H372 H -0.01132 0.33428 0.31127
 H373 H 0.07987 0.31976 0.34662
 H374 H -0.01234 0.18231 0.39774
 H375 H -0.02863 0.13738 0.36984
 H376 H -0.02180 0.19156 0.28509
 H377 H -0.00580 0.23555 0.31502
 C378 C 0.09001 0.20573 0.43339
 C379 C -0.08244 0.28153 0.43863
 C380 C -0.02646 0.16079 0.32507
 C381 C 0.03579 0.33054 0.32630
 C382 C 1.02327 0.78862 0.08122
 H383 H 1.00143 0.80118 0.08020
 C384 C 1.04959 0.80084 0.06667
 H385 H 1.04776 0.82286 0.05446
 C386 C 1.05260 0.74583 0.10038
 H387 H 1.05404 0.72484 0.11421
 C388 C 1.07935 0.75710 0.08616
 H389 H 1.10084 0.74415 0.08866
 N390 N 1.02532 0.76180 0.09805
 C391 C 0.93419 0.72414 0.11551
 H392 H 0.93532 0.72172 0.14028
 C393 C 0.90869 0.71375 0.10071
 H394 H 0.89040 0.70304 0.11430
 C395 C 0.95748 0.74000 0.06784
 H396 H 0.97674 0.75003 0.05523
 C397 C 0.93236 0.72965 0.05199
 H398 H 0.93229 0.73206 0.02715
 Zn399 Zn 0.99101 0.74899 0.12274
 N400 N 0.95778 0.73720 0.09907
 C401 C 0.94879 0.79355 0.14669
 N402 N 0.97830 0.78235 0.14785
 C403 C 0.99940 0.79608 0.16499
 C404 C 0.99099 0.82208 0.18201
 C405 C 0.93937 0.81920 0.16349
 C406 C 1.00692 0.68740 0.13062
 C407 C 1.01748 0.66039 0.14527
 C408 C 1.01829 0.68772 0.19291
 C409 C 1.00753 0.71432 0.17728
 N410 N 1.00279 0.71379 0.14654
 H411 H 0.93255 0.78311 0.13220
 H412 H 1.02290 0.78711 0.16503
 H413 H 1.00802 0.83284 0.19548
 H414 H 0.91590 0.82804 0.16176
 H415 H 1.00263 0.68759 0.10625
 H416 H 1.02088 0.63973 0.13204
 H417 H 1.02311 0.68876 0.21712
 H418 H 1.00374 0.73547 0.18956
 C419 C 0.90748 0.71643 0.06855
 C420 C 1.07826 0.78533 0.06965
 C421 C 1.02397 0.66045 0.17668
 C422 C 0.96057 0.83389 0.18136
 C423 C 0.52882 0.28443 0.58162
 H424 H 0.50675 0.29653 0.58029
 C425 C 0.55486 0.29671 0.56657
 H426 H 0.55258 0.31830 0.55366
 C427 C 0.55901 0.24287 0.60204
 H428 H 0.56091 0.22239 0.61656
 C429 C 0.58548 0.25420 0.58733
 H430 H 0.60721 0.24175 0.59017
 N431 N 0.53143 0.25822 0.59933
 C432 C 0.44187 0.21814 0.61903
 H433 H 0.44348 0.21664 0.64381
 C434 C 0.41689 0.20569 0.60507
 H435 H 0.39912 0.19497 0.61936
 C436 C 0.46332 0.23411 0.57056
 H437 H 0.48177 0.24485 0.55731
 C438 C 0.43853 0.22191 0.55554
 H439 H 0.43808 0.22326 0.53066
 Zn440 Zn 0.49752 0.24550 0.62466
 N441 N 0.46443 0.23199 0.60179
 C442 C 0.45432 0.28967 0.64740
 N443 N 0.48413 0.27939 0.64870
 C444 C 0.50492 0.29440 0.66512
 C445 C 0.49592 0.32092 0.68108
 C446 C 0.44431 0.31578 0.66320
 C447 C 0.51485 0.18458 0.63417
 C448 C 0.52529 0.15797 0.64959
 C449 C 0.52479 0.18633 0.69667
 C450 C 0.51421 0.21255 0.68026
 N451 N 0.51008 0.21127 0.64945
 H452 H 0.43829 0.27813 0.63354
 H453 H 0.52863 0.28609 0.66531
 H454 H 0.51272 0.33275 0.69391
 H455 H 0.42061 0.32388 0.66134
 H456 H 0.51097 0.18417 0.60974
 H457 H 0.52907 0.13702 0.63687
 H458 H 0.52894 0.18787 0.72099
 H459 H 0.50988 0.23393 0.69200
 C460 C 0.41509 0.20717 0.57292
 C461 C 0.58382 0.28187 0.56993
 C462 C 0.53095 0.15872 0.68114
 C463 C 0.46521 0.33187 0.68019
 C464 C 0.46770 0.77685 0.93147
 H465 H 0.49030 0.78622 0.93369
 C466 C 0.44227 0.78995 0.94739
 H467 H 0.44562 0.80904 0.96232
 C468 C 0.43568 0.74149 0.90827
 H469 H 0.43285 0.72341 0.89215
 C470 C 0.40973 0.75382 0.92373
 H471 H 0.38735 0.74488 0.91925
 N472 N 0.46395 0.75325 0.91213
 C473 C 0.55272 0.70825 0.89069
 H474 H 0.55002 0.70774 0.86607
 C475 C 0.57898 0.69502 0.90363
 H476 H 0.59651 0.68452 0.88871
 C477 C 0.53329 0.72354 0.93970
 H478 H 0.51533 0.73466 0.95355
 C479 C 0.55948 0.71066 0.95367
 H480 H 0.56145 0.71178 0.97837
 Zn481 Zn 0.49753 0.73986 0.88639
 N482 N 0.53066 0.72235 0.90866
 C483 C 0.54078 0.78399 0.86815
 N484 N 0.51168 0.77477 0.86354
 C485 C 0.49220 0.79182 0.84550
 C486 C 0.50181 0.81952 0.83149
 C487 C 0.55121 0.81140 0.85478
 C488 C 0.47795 0.68160 0.87627
 C489 C 0.46757 0.65665 0.86054
 C490 C 0.47177 0.68687 0.81314
 C491 C 0.48215 0.71143 0.82991
 N492 N 0.48449 0.70846 0.86098
 H493 H 0.55579 0.77067 0.88306
 H494 H 0.46895 0.78435 0.84273
 H495 H 0.48588 0.83325 0.81778
 H496 H 0.57441 0.81835 0.85897
 H497 H 0.48052 0.67977 0.90092
 H498 H 0.46245 0.63552 0.87327
 H499 H 0.46924 0.68973 0.78853
 H500 H 0.48800 0.73284 0.81816
 C501 C 0.58271 0.69617 0.93548
 C502 C 0.41269 0.77875 0.94319
 C503 C 0.46392 0.65919 0.82863
 C504 C 0.53152 0.82983 0.83659
 C505 C 0.47285 -0.16350 0.31971
 C506 C 0.49016 -0.13674 0.31828
 C507 C 0.47865 -0.10992 0.30353
 C508 C 0.49241 -0.21295 0.35112
 C509 C 0.43259 -0.13671 0.29141
 C510 C 0.44412 -0.16343 0.30613
 C511 C 0.48376 -0.19059 0.33638
 C512 C 0.44965 -0.10957 0.29002
 H513 H 0.51239 -0.13650 0.32884
 H514 H 0.49243 -0.08951 0.30265
 H515 H 0.40993 -0.13709 0.28181
 H516 H 0.43039 -0.18389 0.30736
 C517 C 0.97213 0.33296 0.82230
 C518 C 0.94342 0.33323 0.80869
 C519 C 0.93213 0.35999 0.79386
 C520 C 0.99149 0.28339 0.85364
 C521 C 0.97839 0.38644 0.80597
 C522 C 0.98965 0.35958 0.82083
 C523 C 0.98288 0.30580 0.83895
 C524 C 0.94941 0.38697 0.79239
 H525 H 0.92952 0.31287 0.80994
 H526 H 0.90949 0.35975 0.78419
 H527 H 0.99234 0.40673 0.80504
 H528 H 1.01188 0.35966 0.83141
 C529 C 0.03596 1.16832 0.82519
 C530 C 0.06538 1.16685 0.81122
 C531 C 0.07621 1.13972 0.79751
 C532 C 0.01712 1.21827 0.85469
 C533 C 0.02807 1.11535 0.81146
 C534 C 0.01727 1.14257 0.82517
 C535 C 0.02558 1.19574 0.84080
 C536 C 0.05775 1.11357 0.79756
 H537 H 0.08015 1.18653 0.81135
 H538 H 0.09938 1.13897 0.78754
 H539 H 0.01322 1.09574 0.81166
 H540 H -0.00553 1.14342 0.83604
 C541 C 0.53727 0.67171 0.32360
 C542 C 0.56693 0.66989 0.31019
 C543 C 0.57780 0.64256 0.29687
 C544 C 0.51821 0.72193 0.35253
 C545 C 0.52923 0.61869 0.31009
 C546 C 0.51839 0.64610 0.32341
 C547 C 0.52681 0.69930 0.33886
 C548 C 0.55914 0.61656 0.29678
 H549 H 0.58185 0.68945 0.31046
 H550 H 0.60113 0.64155 0.28735
 H551 H 0.51422 0.59921 0.31016
 H552 H 0.49541 0.64722 0.33384
 C553 C 0.52432 0.34005 0.17331
 C554 C 0.51259 0.37008 0.16806
 C555 C 0.52513 0.39488 0.18280
 C556 C 0.50702 0.29404 0.13984
 C557 C 0.56047 0.35946 0.20879
 C558 C 0.54788 0.33476 0.19413
 C559 C 0.51420 0.31499 0.15551
 C560 C 0.54973 0.38986 0.20275
 H561 H 0.49448 0.37445 0.15182
 H562 H 0.51659 0.41805 0.17751
 H563 H 0.57912 0.35488 0.22435
 H564 H 0.55716 0.31164 0.19834
 C565 C 0.02472 0.83670 0.67381
 C566 C 0.01240 0.86655 0.66887
 C567 C 0.02483 0.89153 0.68338
 C568 C 0.00743 0.79054 0.64057
 C569 C 0.06126 0.85666 0.70856
 C570 C 0.04877 0.83176 0.69412
 C571 C 0.01464 0.81152 0.65616
 C572 C 0.04990 0.88690 0.70280
 H573 H -0.00611 0.87064 0.65302
 H574 H 0.01581 0.91458 0.67832
 H575 H 0.08029 0.85236 0.72373
 H576 H 0.05852 0.80878 0.69809
 C577 C 0.96838 0.67229 0.66167
 C578 C 0.94717 0.65620 0.64525
 C579 C 0.93591 0.62837 0.65703
 C580 C 0.98717 0.72512 0.63713
 C581 C 0.96759 0.63206 0.70158
 C582 C 0.97885 0.66005 0.68972
 C583 C 0.97908 0.70126 0.64923
 C584 C 0.94566 0.61616 0.68550
 H585 H 0.93912 0.66531 0.62340
 H586 H 0.91942 0.61642 0.64390
 H587 H 0.97532 0.62331 0.72366
 H588 H 0.99537 0.67228 0.70255
 C589 C 0.46685 0.17618 0.16102
 C590 C 0.44521 0.16048 0.14478
 C591 C 0.43387 0.13263 0.15645
 C592 C 0.48629 0.22877 0.13648
 C593 C 0.46624 0.13560 0.20057
 C594 C 0.47759 0.16360 0.18881
 C595 C 0.47785 0.20505 0.14859
 C596 C 0.44396 0.12003 0.18464
 H597 H 0.43696 0.16985 0.12311
 H598 H 0.41711 0.12095 0.14341
 H599 H 0.47425 0.12656 0.22244
 H600 H 0.49445 0.17552 0.20150
 C601 C 0.32380 0.47437 -0.17183
 C602 C 0.32487 0.49134 -0.14496
 C603 C 0.31026 0.48068 -0.11769
 C604 C 0.35566 0.49173 -0.22189
 C605 C 0.29321 0.43619 -0.14424
 C606 C 0.30780 0.44688 -0.17141
 C607 C 0.34060 0.48412 -0.19931
 C608 C 0.29438 0.45286 -0.11698
 H609 H 0.33735 0.51260 -0.14498
 H610 H 0.31140 0.49415 -0.09719
 H611 H 0.28172 0.41439 -0.14440
 H612 H 0.30710 0.43338 -0.19196
 C613 C 0.82893 0.97911 0.33939
 C614 C 0.79697 0.98294 0.34329
 C615 C 0.78214 0.97254 0.37052
 C616 C 0.85821 0.99503 0.28733
 C617 C 0.83133 0.95510 0.39033
 C618 C 0.84608 0.96551 0.36312
 C619 C 0.84428 0.98814 0.31084
 C620 C 0.79912 0.95811 0.39422
 H621 H 0.78346 0.99354 0.32512
 H622 H 0.75735 0.97550 0.37293
 H623 H 0.84504 0.94367 0.40785
 H624 H 0.87084 0.96237 0.36033
 C625 C 0.82876 0.03588 1.17140
 C626 C 0.81562 0.06566 1.17014
 C627 C 0.80184 0.07682 1.14332
 C628 C 0.85851 0.01680 1.22084
 C629 C 0.81405 0.02830 1.11881
 C630 C 0.82786 0.01717 1.14573
 C631 C 0.84450 0.02523 1.19851
 C632 C 0.80096 0.05832 1.11726
 H633 H 0.81647 0.08046 1.18974
 H634 H 0.79253 0.10023 1.14274
 H635 H 0.81353 0.01342 1.09926
 H636 H 0.83810 -0.00590 1.14641
 C637 C 0.33012 0.53490 0.66261
 C638 C 0.32964 0.51680 0.63646
 C639 C 0.31577 0.52838 0.60973
 C640 C 0.35895 0.51502 0.71233
 C641 C 0.30275 0.57611 0.63538
 C642 C 0.31658 0.56452 0.66200
 C643 C 0.34550 0.52373 0.68974
 C644 C 0.30219 0.55821 0.60888
 H645 H 0.34016 0.49385 0.63665
 H646 H 0.31553 0.51397 0.58981
 H647 H 0.29307 0.59938 0.63534
 H648 H 0.31707 0.57883 0.68199
 C649 C 0.16876 0.53225 0.33699
 C650 C 0.19641 0.51931 0.34782
 C651 C 0.21031 0.53202 0.37302
 C652 C 0.14131 0.51122 0.28877
 C653 C 0.16864 0.57024 0.37673
 C654 C 0.15482 0.55753 0.35169
 C655 C 0.15446 0.52017 0.31065
 C656 C 0.19672 0.55789 0.38747
 H657 H 0.20737 0.49969 0.33662
 H658 H 0.23202 0.52216 0.38069
 H659 H 0.15733 0.58980 0.38771
 H660 H 0.13333 0.56759 0.34364
 C661 C 0.66975 0.02863 0.84431
 C662 C 0.69716 0.01557 0.85560
 C663 C 0.71090 0.02848 0.88079
 C664 C 0.64217 0.00728 0.79632
 C665 C 0.66955 0.06712 0.88356
 C666 C 0.65589 0.05422 0.85854
 C667 C 0.65550 0.01632 0.81805
 C668 C 0.69740 0.05466 0.89475
 H669 H 0.70803 -0.00431 0.84478
 H670 H 0.73242 0.01852 0.88883
 H671 H 0.65831 0.08693 0.89417
 H672 H 0.63457 0.06437 0.85015
 C673 C 0.67232 0.96593 0.68060
 C674 C 0.67022 0.98445 0.65380
 C675 C 0.68215 0.97366 0.62569
 C676 C 0.64329 0.98354 0.73178
 C677 C 0.69895 0.92607 0.65130
 C678 C 0.68707 0.93690 0.67934
 C679 C 0.65725 0.97566 0.70879
 C680 C 0.69613 0.94409 0.62405
 H681 H 0.65863 1.00688 0.65449
 H682 H 0.67943 0.98794 0.60509
 H683 H 0.71005 0.90341 0.65085
 H684 H 0.68876 0.92235 0.69990
 C685 C 0.17429 0.47195 0.17309
 C686 C 0.17148 0.48959 0.14579
 C687 C 0.18364 0.47830 0.11795
 C688 C 0.14403 0.48901 0.22379
 C689 C 0.20219 0.43211 0.14488
 C690 C 0.19011 0.44344 0.17263
 C691 C 0.15856 0.48165 0.20095
 C692 C 0.19849 0.44910 0.11713
 H693 H 0.15905 0.51160 0.14586
 H694 H 0.18028 0.49177 0.09693
 H695 H 0.21395 0.40976 0.14502
 H696 H 0.19234 0.42956 0.19358
 C697 C -0.16604 0.32503 0.47402
 C698 C -0.16267 0.29285 0.47496
 C699 C -0.13518 0.27864 0.46424
 C700 C -0.21795 0.35373 0.49163
 C701 C -0.11416 0.32881 0.45215
 C702 C -0.14162 0.34294 0.46287
 C703 C -0.19460 0.33997 0.48383
 C704 C -0.11070 0.29646 0.45241
 H705 H -0.18137 0.27876 0.48366
 H706 H -0.13313 0.25371 0.46506
 H707 H -0.09603 0.34320 0.44275
 H708 H -0.14399 0.36787 0.46198
 C709 C 0.32983 0.82416 0.97781
 C710 C 0.35516 0.84145 0.96790
 C711 C 0.38242 0.82666 0.95756
 C712 C 0.27822 0.85413 0.99409
 C713 C 0.35940 0.77706 0.96768
 C714 C 0.33211 0.79193 0.97801
 C715 C 0.30143 0.83980 0.98692
 C716 C 0.38476 0.79428 0.95696
 H717 H 0.35363 0.86642 0.96759
 H718 H 0.40126 0.84062 0.94903
 H719 H 0.36057 0.75210 0.96782
 H720 H 0.31270 0.77830 0.98574
 C721 C 1.16171 0.82707 0.03547
 C722 C 1.13526 0.82897 0.01786
 C723 C 1.10813 0.81517 0.02872
 C724 C 1.21189 0.85617 0.01680
 C725 C 1.13398 0.79735 0.07474
 C726 C 1.16101 0.81115 0.06386
 C727 C 1.18919 0.84253 0.02511
 C728 C 1.10716 0.79926 0.05735
 H729 H 1.13552 0.84135 -0.00413
 H730 H 1.08798 0.81684 0.01470
 H731 H 1.13388 0.78581 0.09714
 H732 H 1.18124 0.80977 0.07781
 C733 C 0.66643 0.32429 0.53444
 C734 C 0.66601 0.30919 0.56326
 C735 C 0.63926 0.29517 0.57456
 C736 C 0.71595 0.35419 0.51526
 C737 C 0.61313 0.31108 0.52810
 C738 C 0.63998 0.32512 0.51682
 C739 C 0.69355 0.34015 0.52373
 C740 C 0.61244 0.29601 0.55717
 H741 H 0.68623 0.30867 0.57723
 H742 H 0.63937 0.28431 0.59727
 H743 H 0.59296 0.31193 0.51408
 H744 H 0.64002 0.33688 0.49451
 C745 C 0.33791 0.16584 0.53246
 C746 C 0.34834 0.19421 0.52075
 C747 C 0.37389 0.20754 0.53341
 C748 C 0.28956 0.13865 0.51130
 C749 C 0.37874 0.16390 0.56911
 C750 C 0.35334 0.15066 0.55645
 C751 C 0.31140 0.15188 0.52032
 C752 C 0.38912 0.19265 0.55800
 H753 H 0.33659 0.20612 0.50211
 H754 H 0.38127 0.22977 0.52453
 H755 H 0.39030 0.15160 0.58763
 H756 H 0.34563 0.12860 0.56553
 C757 C 0.83092 0.67509 0.02730
 C758 C 0.86051 0.67181 0.01381
 C759 C 0.88533 0.68639 0.02637
 C760 C 0.78581 0.64102 0.00913
 C761 C 0.85078 0.70838 0.06534
 C762 C 0.82604 0.69385 0.05274
 C763 C 0.80616 0.65714 0.01687
 C764 C 0.88082 0.70424 0.05273
 H765 H 0.86458 0.65715 -0.00576
 H766 H 0.90821 0.68254 0.01635
 H767 H 0.84655 0.72233 0.08539
 H768 H 0.80326 0.69651 0.06340
 C769 C 0.66747 0.65865 0.97070
 C770 C 0.65512 0.68651 0.98185
 C771 C 0.62698 0.69839 0.97116
 C772 C 0.72098 0.63487 0.98823
 C773 C 0.62334 0.65423 0.93867
 C774 C 0.65133 0.64242 0.94939
 C775 C 0.69675 0.64645 0.98066
 C776 C 0.61105 0.68255 0.94910
 H777 H 0.66740 0.69922 0.99844
 H778 H 0.61818 0.72037 0.97939
 H779 H 0.61138 0.64130 0.92203
 H780 H 0.66056 0.62072 0.94078
 C781 C 0.17411 0.16951 0.47121
 C782 C 0.17485 0.18730 0.44391
 C783 C 0.14757 0.19991 0.43221
 C784 C 0.22463 0.13957 0.48891
 C785 C 0.11866 0.17781 0.47561
 C786 C 0.14604 0.16513 0.48727
 C787 C 0.20177 0.15380 0.48129
 C788 C 0.11909 0.19479 0.44759
 H789 H 0.19642 0.19080 0.43127
 H790 H 0.14867 0.21331 0.41084
 H791 H 0.09707 0.17332 0.48782
 H792 H 0.14519 0.15121 0.50833
 C793 C 0.56960 0.07797 0.72635
 C794 C 0.54671 0.09570 0.74159
 C795 C 0.53410 0.12217 0.72707
 C796 C 0.59656 0.02855 0.75142
 C797 C 0.56746 0.11313 0.68226
 C798 C 0.57996 0.08681 0.69674
 C799 C 0.58338 0.05102 0.74084
 C800 C 0.54428 0.13105 0.69715
 H801 H 0.53862 0.08909 0.76460
 H802 H 0.51615 0.13542 0.73901
 H803 H 0.57624 0.11966 0.65948
 H804 H 0.59788 0.07341 0.68486
 C805 C 1.06556 0.57992 0.21969
 C806 C 1.07441 0.58897 0.18967
 C807 C 1.06080 0.61508 0.17582
 C808 C 1.09502 0.53153 0.24388
 C809 C 1.02921 0.62338 0.22200
 C810 C 1.04293 0.59713 0.23589
 C811 C 1.08074 0.55348 0.23367
 C812 C 1.03800 0.63259 0.19176
 H813 H 1.09210 0.57598 0.17704
 H814 H 1.06855 0.62188 0.15277
 H815 H 1.01158 0.63628 0.23475
 H816 H 1.03601 0.59036 0.25920
 C817 C 0.92919 0.91755 0.22400
 C818 C 0.91128 0.89128 0.22643
 C819 C 0.92204 0.86374 0.21356
 C820 C 0.90366 0.97019 0.24231
 C821 C 0.96933 0.88825 0.19673
 C822 C 0.95844 0.91590 0.20955
 C823 C 0.91624 0.94649 0.23434
 C824 C 0.95091 0.86208 0.19804
 H825 H 0.88860 0.89231 0.23754
 H826 H 0.90754 0.84385 0.21523
 H827 H 0.99153 0.88770 0.18466
 H828 H 0.97241 0.93616 0.20739
 C829 C 0.43168 0.41660 0.71925
 C830 C 0.46082 0.41521 0.70453
 C831 C 0.47245 0.38727 0.69291
 C832 C 0.40441 0.46911 0.73558
 C833 C 0.42615 0.36201 0.71147
 C834 C 0.41465 0.38983 0.72314
 C835 C 0.41787 0.44559 0.72842
 C836 C 0.45489 0.36055 0.69569
 H837 H 0.47411 0.43584 0.70124
 H838 H 0.49453 0.38685 0.68061
 H839 H 0.41229 0.34171 0.71425
 H840 H 0.39207 0.39064 0.73448
 C841 C 0.42775 0.58236 0.78269
 C842 C 0.45187 0.59888 0.76866
 C843 C 0.46352 0.62424 0.78329
 C844 C 0.40286 0.53449 0.75802
 C845 C 0.42668 0.61663 0.82570
 C846 C 0.41513 0.59144 0.81111
 C847 C 0.41521 0.55627 0.76832
 C848 C 0.45118 0.63319 0.81213
 H849 H 0.46173 0.59209 0.74658
 H850 H 0.48251 0.63646 0.77240
 H851 H 0.41630 0.62329 0.84760
 H852 H 0.39628 0.57900 0.82204
 C853 C -0.06315 0.08312 0.28115
 C854 C -0.07251 0.11310 0.27223
 C855 C -0.05966 0.13849 0.28558
 C856 C -0.09387 0.03570 0.26278
 C857 C -0.02728 0.10394 0.31610
 C858 C -0.04014 0.07861 0.30271
 C859 C -0.07920 0.05714 0.27050
 C860 C -0.03740 0.13415 0.30819
 H861 H -0.09051 0.11684 0.25576
 H862 H -0.06814 0.16143 0.27926
 H863 H -0.00987 0.09990 0.33312
 H864 H -0.03280 0.05551 0.30986
 C865 C 0.07016 0.41452 0.28592
 C866 C 0.08733 0.38691 0.28320
 C867 C 0.07557 0.35939 0.29527
 C868 C 0.09706 0.46612 0.26813
 C869 C 0.02875 0.38672 0.31189
 C870 C 0.04065 0.41435 0.29986
 C871 C 0.08396 0.44300 0.27603
 C872 C 0.04642 0.35909 0.31029
 H873 H 0.11018 0.38677 0.27243
 H874 H 0.08951 0.33839 0.29340
 H875 H 0.00636 0.38719 0.32358
 H876 H 0.02721 0.43563 0.30217
 C877 C 0.56634 0.91525 0.79990
 C878 C 0.54924 0.89672 0.78129
 C879 C 0.53697 0.86927 0.79338
 C880 C 0.59573 0.96384 0.77765
 C881 C 0.55841 0.87929 0.84278
 C882 C 0.57050 0.90666 0.83074
 C883 C 0.58154 0.94197 0.78727
 C884 C 0.54199 0.86001 0.82410
 H885 H 0.54603 0.90309 0.75732
 H886 H 0.52453 0.85477 0.77848
 H887 H 0.56219 0.87301 0.86666
 H888 H 0.58369 0.92081 0.84534
 C889 C 0.72897 0.55887 0.08194
 C890 C 0.70721 0.53599 0.07970
 C891 C 0.69331 0.52320 0.10631
 C892 C 0.74730 0.59010 0.03204
 C893 C 0.72387 0.55522 0.13760
 C894 C 0.73772 0.56803 0.11093
 C895 C 0.73971 0.57521 0.05466
 C896 C 0.70092 0.53325 0.13552
 H897 H 0.70018 0.52883 0.05737
 H898 H 0.67600 0.50602 0.10403
 H899 H 0.72997 0.56363 0.15975
 H900 H 0.75436 0.58594 0.11289
 C901 C 0.22663 1.05973 0.58101
 C902 C 0.20463 1.03713 0.57848
 C903 C 0.19076 1.02401 0.60496
 C904 C 0.24646 1.09101 0.53170
 C905 C 0.22170 1.05528 0.63664
 C906 C 0.23554 1.06838 0.61011
 C907 C 0.23793 1.07607 0.55395
 C908 C 0.19864 1.03346 0.63432
 H909 H 0.19752 1.03033 0.55606
 H910 H 0.17338 1.00695 0.60248
 H911 H 0.22800 1.06327 0.65889
 H912 H 0.25238 1.08605 0.61230
 C913 C 0.21704 0.92815 0.91859
 C914 C 0.21806 0.91014 0.89238
 C915 C 0.20571 0.92168 0.86503
 C916 C 0.23458 0.90145 0.97071
 C917 C 0.19220 0.96991 0.88960
 C918 C 0.20449 0.95823 0.91708
 C919 C 0.22695 0.91459 0.94730
 C920 C 0.19212 0.95146 0.86349
 H921 H 0.22770 0.88683 0.89330
 H922 H 0.20631 0.90713 0.84517
 H923 H 0.18164 0.99282 0.88912
 H924 H 0.20345 0.97230 0.93730
 C925 C 0.71848 0.42800 0.41845
 C926 C 0.71852 0.41013 0.39217
 C927 C 0.70570 0.42202 0.36519
 C928 C 0.73724 0.40073 0.46983
 C929 C 0.69360 0.47030 0.39024
 C930 C 0.70638 0.45827 0.41736
 C931 C 0.72904 0.41416 0.44677
 C932 C 0.69260 0.45202 0.36409
 H933 H 0.72782 0.38668 0.39276
 H934 H 0.70560 0.40759 0.34527
 H935 H 0.68345 0.49339 0.39009
 H936 H 0.70609 0.47224 0.43763
 C937 C 0.78281 0.42743 0.58197
 C938 C 0.76678 0.45006 0.59898
 C939 C 0.78054 0.46307 0.62410
 C940 C 0.75978 0.40020 0.53465
 C941 C 0.82614 0.43059 0.61523
 C942 C 0.81241 0.41769 0.59027
 C943 C 0.76932 0.41347 0.55620
 C944 C 0.81050 0.45359 0.63231
 H945 H 0.74378 0.45768 0.59279
 H946 H 0.76803 0.48084 0.63675
 H947 H 0.84896 0.42234 0.62133
 H948 H 0.82492 0.40000 0.57745
 C949 C 0.28008 -0.07020 0.08230
 C950 C 0.30999 -0.07947 0.08998
 C951 C 0.32405 -0.06629 0.11458
 C952 C 0.25643 -0.09811 0.03573
 C953 C 0.27819 -0.03442 0.12430
 C954 C 0.26409 -0.04772 0.09954
 C955 C 0.26621 -0.08453 0.05695
 C956 C 0.30844 -0.04347 0.13193
 H957 H 0.32246 -0.09705 0.07698
 H958 H 0.34710 -0.07422 0.12024
 H959 H 0.26568 -0.01679 0.13715
 H960 H 0.24086 -0.04046 0.09382
 C961 C 0.29328 0.06682 0.41650
 C962 C 0.32377 0.07254 0.40739
 C963 C 0.33580 0.06166 0.37949
 C964 C 0.27095 0.09373 0.46654
 C965 C 0.28712 0.03835 0.36992
 C966 C 0.27503 0.04941 0.39791
 C967 C 0.28059 0.08066 0.44397
 C968 C 0.31747 0.04491 0.36019
 H969 H 0.33809 0.08597 0.42159
 H970 H 0.35942 0.06659 0.37284
 H971 H 0.27249 0.02561 0.35543
 H972 H 0.25133 0.04498 0.40471
 C973 C 0.79358 0.56507 0.91695
 C974 C 0.82415 0.57061 0.90799
 C975 C 0.83631 0.55948 0.88023
 C976 C 0.77062 0.59244 0.96649
 C977 C 0.78760 0.53630 0.87052
 C978 C 0.77539 0.54759 0.89836
 C979 C 0.78069 0.57919 0.94418
 C980 C 0.81803 0.54267 0.86092
 H981 H 0.83843 0.58410 0.92217
 H982 H 0.85999 0.56428 0.87368
 H983 H 0.77299 0.52353 0.85603
 H984 H 0.75162 0.54332 0.90503
 C985 C 0.08344 0.72603 0.56655
 C986 C 0.09408 0.69748 0.57823
 C987 C 0.12076 0.68355 0.56575
 C988 C 0.03248 0.74890 0.59281
 C989 C 0.12677 0.72690 0.52990
 C990 C 0.09989 0.74087 0.54247
 C991 C 0.05569 0.73953 0.57989
 C992 C 0.13727 0.69791 0.54126
 H993 H 0.08167 0.68592 0.59702
 H994 H 0.12858 0.66153 0.57540
 H995 H 0.13897 0.73840 0.51096
 H996 H 0.09187 0.76304 0.53334
 C997 C 0.58391 0.22787 1.06827
 C998 C 0.60062 0.24163 1.04372
 C999 C 0.62756 0.22705 1.03199
 C1000 C 0.53263 0.25173 1.09294
 C1001 C 0.62109 0.18529 1.06964
 C1002 C 0.59436 0.19983 1.08127
 C1003 C 0.55601 0.24192 1.08069
 C1004 C 0.63784 0.19853 1.04468
 H1005 H 0.59274 0.26340 1.03355
 H1006 H 0.63995 0.23768 1.01267
 H1007 H 0.62874 0.16367 1.08027
 H1008 H 0.58174 0.18911 1.10043
 C1009 C 0.92415 0.21457 0.93181
 C1010 C 0.91945 0.18310 0.92869
 C1011 C 0.89259 0.16995 0.94076
 C1012 C 0.97232 0.23815 0.90208
 C1013 C 0.87524 0.21958 0.96008
 C1014 C 0.90218 0.23277 0.94783
 C1015 C 0.95051 0.22812 0.91651
 C1016 C 0.86994 0.18814 0.95611
 H1017 H 0.93626 0.16881 0.91631
 H1018 H 0.88936 0.14558 0.93780
 H1019 H 0.85810 0.23413 0.97167
 H1020 H 0.90552 0.25722 0.95020
 C1021 C 0.42398 0.71787 0.42770
 C1022 C 0.41889 0.68665 0.42335
 C1023 C 0.39185 0.67343 0.43484
 C1024 C 0.47268 0.74172 0.39915
 C1025 C 0.37505 0.72244 0.45600
 C1026 C 0.40218 0.73571 0.44433
 C1027 C 0.45062 0.73157 0.41308
 C1028 C 0.36939 0.69128 0.45084
 H1029 H 0.43558 0.67264 0.41049
 H1030 H 0.38835 0.64926 0.43096
 H1031 H 0.35807 0.73673 0.46812
 H1032 H 0.40582 0.75997 0.44766
 C1033 C 0.58318 0.79077 0.42546
 C1034 C 0.59116 0.82085 0.41690
 C1035 C 0.61609 0.83435 0.43015
 C1036 C 0.53639 0.76725 0.39773
 C1037 C 0.62545 0.78761 0.46064
 C1038 C 0.60038 0.77410 0.44731
 C1039 C 0.55767 0.77725 0.41106
 C1040 C 0.63348 0.81796 0.45226
 H1041 H 0.57816 0.83387 0.39983
 H1042 H 0.62202 0.85752 0.42276
 H1043 H 0.63826 0.77451 0.47776
 H1044 H 0.59444 0.75075 0.45402
 C1045 C 0.08306 0.28764 -0.07365
 C1046 C 0.10127 0.27110 -0.05253
 C1047 C 0.12642 0.28504 -0.03978
 C1048 C 0.03602 0.26357 -0.10043
 C1049 C 0.11510 0.33192 -0.06940
 C1050 C 0.09010 0.31800 -0.08206
 C1051 C 0.05746 0.27374 -0.08750
 C1052 C 0.13350 0.31568 -0.04801
 H1053 H 0.09606 0.24752 -0.04595
 H1054 H 0.14004 0.27205 -0.02323
 H1055 H 0.12028 0.35531 -0.07668
 H1056 H 0.07632 0.33091 -0.09858
 C1057 C 0.41558 0.29094 0.06199
 C1058 C 0.41554 0.30785 0.03408
 C1059 C 0.38764 0.31885 0.02206
 C1060 C 0.46656 0.27474 0.09049
 C1061 C 0.35988 0.29519 0.06539
 C1062 C 0.38766 0.28413 0.07724
 C1063 C 0.44394 0.28215 0.07645
 C1064 C 0.35961 0.31324 0.03806
 H1065 H 0.43704 0.31332 0.02214
 H1066 H 0.38807 0.33294 0.00112
 H1067 H 0.33859 0.29030 0.07801
 H1068 H 0.38742 0.27103 0.09882
 C1069 C 0.91480 0.78801 0.56438
 C1070 C 0.91450 0.80572 0.53697
 C1071 C 0.88648 0.81697 0.52546
 C1072 C 0.96621 0.77141 0.59194
 C1073 C 0.85910 0.79200 0.56828
 C1074 C 0.88702 0.78069 0.57963
 C1075 C 0.94334 0.77896 0.57837
 C1076 C 0.85857 0.81082 0.54146
 H1077 H 0.93589 0.81161 0.52505
 H1078 H 0.88673 0.83166 0.50492
 H1079 H 0.83792 0.78666 0.58088
 H1080 H 0.88698 0.76698 0.60084
   
