data_POSCAR
  _audit_creation_date              2014-09-24
  _audit_creation_method            'ToBaCCo'
  _symmetry_space_group_name_H-M    'P1'
  _symmetry_Int_Tables_number       1
  _symmetry_cell_setting            triclinic
  loop_
  _symmetry_equiv_pos_as_xyz
 x,y,z
_cell_length_a 11.1531
_cell_length_b 11.1531
_cell_length_c 18.7497
_cell_angle_alpha 90.000000
_cell_angle_beta 90.000000
_cell_angle_gamma 120.000000
loop_
  _atom_site_label
  _atom_site_type_symbol
  _atom_site_fract_x
  _atom_site_fract_y
  _atom_site_fract_z
Zn1 Zn 1.00003 0.00002 1.09822
 Zn2 Zn 1.09395 0.18004 0.97017
 Zn3 Zn 1.08611 -0.09391 0.97017
 Zn4 Zn 0.82001 -0.08606 0.97017
 O5 O 1.00003 0.00002 1.00174
 O6 O 1.08808 0.16842 1.13537
 O7 O 1.23691 0.21222 0.91440
 O8 O 1.14178 -0.16448 1.04115
 O9 O 1.16453 0.30628 1.04115
 O10 O 1.08036 -0.08804 1.13537
 O11 O 1.23602 0.01297 0.91624
 O12 O 0.77698 -0.23597 0.91624
 O13 O 0.98709 0.22307 0.91624
 O14 O 0.97533 -0.23686 0.91440
 O15 O 0.78784 0.02472 0.91440
 O16 O 0.69377 -0.14173 1.04115
 O17 O 0.83163 -0.08031 1.13537
 C18 C 1.15366 0.28802 1.10816
 C19 C 1.28716 0.13732 0.89507
 C20 C 1.13438 -0.15361 1.10815
 C21 C 0.85018 -0.28711 0.89507
 C22 C 0.86273 0.14987 0.89507
 C23 C 0.71203 -0.13433 1.10815
 Zn24 Zn 0.09395 0.91394 0.52983
 Zn25 Zn -0.17999 0.90609 0.52983
 Zn26 Zn 0.08610 1.18003 0.52983
 Zn27 Zn 0.00002 1.00002 0.40178
 O28 O 0.00002 1.00002 0.49826
 O29 O -0.01292 0.76403 0.58376
 O30 O -0.22303 1.01296 0.58376
 O31 O 0.23601 1.22307 0.58376
 O32 O -0.21217 0.76314 0.58560
 O33 O 0.23691 1.02472 0.58560
 O34 O -0.02467 1.21221 0.58560
 O35 O 0.08036 1.16842 0.36463
 O36 O -0.30623 0.83552 0.45885
 O37 O 0.14177 1.30628 0.45885
 O38 O -0.16837 0.91196 0.36463
 O39 O 0.08808 0.91969 0.36463
 O40 O 0.16453 0.85827 0.45885
 C41 C -0.13727 0.71288 0.60492
 C42 C -0.14982 1.13732 0.60493
 C43 C 0.28716 1.14986 0.60493
 C44 C 0.13437 1.28801 0.39184
 C45 C -0.28797 0.84638 0.39184
 C46 C 0.15366 0.86567 0.39184
 O47 O 0.52478 0.86653 0.16598
 O48 O 0.29731 0.87362 0.19352
 C49 C 0.19373 0.78830 0.15694
 O50 O 0.13353 0.65827 0.16598
 O51 O 0.12643 0.42371 0.19352
 C52 C 0.21175 0.40544 0.15694
 O53 O 0.34178 0.47527 0.16598
 O54 O 0.57634 0.70275 0.19352
 C55 C 0.59460 0.80633 0.15694
 O56 O 0.57634 0.87361 0.30648
 O57 O 0.34178 0.86653 0.33402
 C58 C 0.21175 0.80633 0.34306
 O59 O 0.12643 0.70274 0.30648
 O60 O 0.13351 0.47526 0.33402
 C61 C 0.19372 0.40544 0.34306
 O62 O 0.29730 0.42371 0.30648
 O63 O 0.52477 0.65827 0.33402
 C64 C 0.59460 0.78830 0.34306
 Cr65 Cr 0.43157 0.86312 0.25000
 Cr66 Cr 0.13692 0.56847 0.25000
 Cr67 Cr 0.43157 0.56847 0.25000
 O68 O 0.33336 0.66669 0.25001
 O69 O 0.87661 0.57045 0.81214
 O70 O 0.87320 0.33591 0.82983
 C71 C 0.80585 0.20744 0.84343
 O72 O 0.69387 0.12345 0.81214
 O73 O 0.46275 0.12686 0.82983
 C74 C 0.40162 0.19421 0.84343
 O75 O 0.42960 0.30618 0.81214
 O76 O 0.66414 0.53731 0.82983
 C77 C 0.79261 0.59843 0.84343
 O78 O 0.87318 0.53730 0.67017
 O79 O 0.87660 0.30618 0.68786
 C80 C 0.79261 0.19420 0.65657
 O81 O 0.66414 0.12686 0.67017
 O82 O 0.42960 0.12344 0.68786
 C83 C 0.40162 0.20744 0.65657
 O84 O 0.46274 0.33591 0.67017
 O85 O 0.69386 0.57045 0.68786
 C86 C 0.80584 0.59842 0.65657
 Cr87 Cr 0.86607 0.43305 0.75000
 Cr88 Cr 0.56700 0.13398 0.75000
 Cr89 Cr 0.56700 0.43305 0.75000
 O90 O 0.66669 0.33336 0.75001
   
