data_POSCAR
  _audit_creation_date              2014-09-24
  _audit_creation_method            'ToBaCCo'
  _symmetry_space_group_name_H-M    'P1'
  _symmetry_Int_Tables_number       1
  _symmetry_cell_setting            triclinic
  loop_
  _symmetry_equiv_pos_as_xyz
 x,y,z
_cell_length_a 56.5326
_cell_length_b 56.6303
_cell_length_c 21.5745
_cell_angle_alpha 90.029000
_cell_angle_beta 90.017200
_cell_angle_gamma 120.055100
loop_
  _atom_site_label
  _atom_site_type_symbol
  _atom_site_fract_x
  _atom_site_fract_y
  _atom_site_fract_z
C1 C 0.19912 0.49975 0.44376
 C2 C 0.18683 0.49952 0.50012
 C3 C 0.19888 0.49952 0.55667
 C4 C 0.22404 0.49982 0.55763
 C5 C 0.23680 0.50013 0.50074
 C6 C 0.22429 0.50002 0.44349
 C7 C 0.23728 0.50019 0.38774
 C8 C 0.26210 0.50058 0.38812
 C9 C 0.27488 0.50084 0.44422
 C10 C 0.26214 0.50056 0.50111
 C11 C 0.23677 0.49984 0.61375
 C12 C 0.26163 0.50029 0.61407
 C13 C 0.27471 0.50072 0.55832
 C14 C 0.30003 0.50130 0.55789
 C15 C 0.31229 0.50160 0.50149
 C16 C 0.30010 0.50138 0.44511
 H17 H 0.22832 0.50004 0.34327
 H18 H 0.27124 0.50071 0.34392
 H19 H 0.22760 0.49954 0.65801
 H20 H 0.27055 0.50030 0.65851
 H21 H 0.16749 0.49933 0.50000
 H22 H 0.33169 0.50197 0.50133
 C23 C 0.49845 -0.30097 0.55554
 C24 C 0.49837 -0.31308 0.49915
 C25 C 0.49839 -0.30100 0.44271
 C26 C 0.49853 -0.27593 0.44226
 C27 C 0.49855 -0.26345 0.49947
 C28 C 0.49856 -0.27599 0.55639
 C29 C 0.49868 -0.26327 0.61248
 C30 C 0.49863 -0.23870 0.61279
 C31 C 0.49846 -0.22594 0.55699
 C32 C 0.49850 -0.23840 0.49979
 C33 C 0.49864 -0.26303 0.38647
 C34 C 0.49861 -0.23845 0.38679
 C35 C 0.49846 -0.22587 0.44287
 C36 C 0.49825 -0.20106 0.44372
 C37 C 0.49814 -0.18904 0.50009
 C38 C 0.49826 -0.20105 0.55651
 H39 H 0.49878 -0.27225 0.65669
 H40 H 0.49868 -0.22976 0.65721
 H41 H 0.49874 -0.27188 0.34204
 H42 H 0.49868 -0.22937 0.34258
 H43 H 0.49829 -0.33232 0.49932
 H44 H 0.49798 -0.16992 0.49990
 C45 C 1.20036 0.70036 0.55688
 C46 C 1.18817 0.68828 0.50047
 C47 C 1.20030 0.70031 0.44410
 C48 C 1.22538 0.72515 0.44326
 C49 C 1.23807 0.73768 0.50016
 C50 C 1.22550 0.72530 0.55734
 C51 C 1.23841 0.73816 0.61313
 C52 C 1.26321 0.76260 0.61285
 C53 C 1.27608 0.77514 0.55676
 C54 C 1.26337 0.76261 0.49984
 C55 C 1.23808 0.73775 0.38716
 C56 C 1.26288 0.76220 0.38683
 C57 C 1.27592 0.77496 0.44261
 C58 C 1.30120 0.79973 0.44299
 C59 C 1.31347 0.81179 0.49931
 C60 C 1.30131 0.79990 0.55580
 H61 H 1.22940 0.72938 0.65757
 H62 H 1.27227 0.77165 0.65710
 H63 H 1.22892 0.72878 0.34294
 H64 H 1.27181 0.77105 0.34238
 H65 H 1.16884 0.66916 0.50029
 H66 H 1.33289 0.83085 0.49918
 C67 C 0.70019 0.50096 0.55887
 C68 C 0.68820 0.50120 0.50239
 C69 C 0.70023 0.50103 0.44601
 C70 C 0.72500 0.50065 0.44530
 C71 C 0.73743 0.50037 0.50226
 C72 C 0.72504 0.50058 0.55940
 C73 C 0.73782 0.50040 0.61523
 C74 C 0.76220 0.49990 0.61502
 C75 C 0.77473 0.49954 0.55897
 C76 C 0.76226 0.49983 0.50204
 C77 C 0.73764 0.50052 0.38925
 C78 C 0.76200 0.49999 0.38904
 C79 C 0.77460 0.49959 0.44486
 C80 C 0.79926 0.49896 0.44523
 C81 C 0.81127 0.49860 0.50144
 C82 C 0.79943 0.49892 0.55800
 H83 H 0.72902 0.50064 0.65965
 H84 H 0.77116 0.49977 0.65928
 H85 H 0.72876 0.50081 0.34499
 H86 H 0.77091 0.49990 0.34468
 H87 H 0.66912 0.50149 0.50217
 H88 H 0.83027 0.49815 0.50103
 C89 C 0.49894 0.29887 0.44430
 C90 C 0.49896 0.31101 0.50065
 C91 C 0.49901 0.29898 0.55709
 C92 C 0.49898 0.27403 0.55787
 C93 C 0.49895 0.26146 0.50093
 C94 C 0.49890 0.27390 0.44382
 C95 C 0.49880 0.26107 0.38796
 C96 C 0.49885 0.23651 0.38808
 C97 C 0.49899 0.22388 0.44409
 C98 C 0.49901 0.23642 0.50109
 C99 C 0.49896 0.26135 0.61389
 C100 C 0.49900 0.23678 0.61407
 C101 C 0.49908 0.22397 0.55821
 C102 C 0.49919 0.19903 0.55763
 C103 C 0.49921 0.18696 0.50111
 C104 C 0.49909 0.19900 0.44474
 H105 H 0.49868 0.26996 0.34361
 H106 H 0.49877 0.22747 0.34379
 H107 H 0.49893 0.27036 0.65815
 H108 H 0.49903 0.22788 0.65848
 H109 H 0.49892 0.33017 0.50059
 H110 H 0.49928 0.16781 0.50087
 C111 C 0.70078 0.20012 0.44352
 C112 C 0.68871 0.18788 0.49979
 C113 C 0.70072 0.19999 0.55626
 C114 C 0.72556 0.22510 0.55718
 C115 C 0.73803 0.23780 0.50029
 C116 C 0.72562 0.22525 0.44311
 C117 C 0.73837 0.23812 0.38729
 C118 C 0.76280 0.26296 0.38755
 C119 C 0.77534 0.27580 0.44363
 C120 C 0.76291 0.26311 0.50056
 C121 C 0.73822 0.23781 0.61326
 C122 C 0.76264 0.26266 0.61356
 C123 C 0.77531 0.27570 0.55775
 C124 C 0.80004 0.30100 0.55724
 C125 C 0.81198 0.31326 0.50085
 C126 C 0.80001 0.30103 0.44448
 H127 H 0.72952 0.22906 0.34289
 H128 H 0.77180 0.27207 0.34335
 H129 H 0.72929 0.22864 0.65746
 H130 H 0.77154 0.27162 0.65799
 H131 H 0.66963 0.16856 0.49964
 H132 H 0.83101 0.33268 0.50071
 O133 O 0.96294 0.52153 -0.11786
 O134 O 0.93268 0.48608 -0.05656
 C135 C 0.93844 0.50331 -0.10142
 O136 O 1.03897 0.47673 -0.10970
 O137 O 1.06933 0.51431 -0.05356
 C138 C 1.06350 0.49540 -0.09439
 O139 O 0.96229 0.44074 -0.11417
 O140 O 0.93202 0.44691 -0.05481
 C141 C 0.93777 0.43488 -0.09852
 O142 O 1.03914 0.56206 -0.11148
 O143 O 1.06945 0.55513 -0.05425
 C144 C 1.06369 0.56798 -0.09590
 Zr145 Zr 1.00089 0.53054 -0.07907
 O146 O 1.00195 0.53458 -0.17658
 O147 O 0.99979 0.56706 -0.06837
 Zr148 Zr 1.00079 0.47058 -0.07846
 O149 O 1.00330 0.47057 -0.17637
 O150 O 0.99772 0.43174 -0.07481
 O151 O 0.97671 0.48845 -0.09109
 O152 O 1.02443 0.51228 -0.09050
 O153 O 1.03935 0.56275 0.10734
 O154 O 1.06953 0.55536 0.05099
 C155 C 1.06383 0.56848 0.09199
 O156 O 0.96250 0.44135 0.11330
 O157 O 0.93212 0.44712 0.05339
 C158 C 0.93796 0.43535 0.09746
 O159 O 1.03921 0.47744 0.10896
 O160 O 1.06946 0.51472 0.05204
 C161 C 1.06372 0.49607 0.09353
 O162 O 0.96316 0.52209 0.11519
 O163 O 0.93278 0.48631 0.05467
 C164 C 0.93862 0.50372 0.09925
 Zr165 Zr 1.00100 0.53098 0.07603
 O166 O 1.00368 0.53548 0.17345
 O167 O 0.99803 0.56671 0.06847
 Zr168 Zr 1.00096 0.47101 0.07725
 O169 O 1.00385 0.47140 0.17514
 O170 O 0.99792 0.43220 0.07416
 Zr171 Zr 0.96008 0.48029 -0.00089
 Zr172 Zr 1.04181 0.52109 -0.00120
 O173 O 1.02452 0.51278 0.08823
 O174 O 0.97686 0.48894 0.08922
 O175 O 1.02569 0.54760 -0.00171
 O176 O 0.97691 0.45452 -0.00048
 O177 O 0.97667 0.52285 -0.00154
 O178 O 1.02551 0.47847 -0.00061
 H179 H 1.03643 0.51815 -0.12742
 H180 H 0.96430 0.43451 -0.00034
 H181 H 1.03645 0.51882 0.12531
 H182 H 0.96387 0.53003 -0.00161
 H183 H 1.01425 0.43398 -0.05364
 H184 H 1.01460 0.43444 0.05380
 H185 H 0.98924 0.47432 0.19192
 H186 H 0.99649 0.51702 0.19092
 H187 H 1.01487 0.58084 0.04793
 H188 H 0.99947 0.57351 -0.11088
 H189 H 1.00350 0.51925 -0.19369
 H190 H 0.98902 0.47406 -0.19294
 O191 O 0.44067 0.47870 0.11564
 O192 O 0.44613 0.51439 0.05468
 C193 C 0.43450 0.49701 0.09926
 O194 O 0.56166 0.52321 0.10990
 O195 O 0.55454 0.48588 0.05301
 C196 C 0.56754 0.50462 0.09434
 O197 O 0.52106 0.55915 0.11469
 O198 O 0.48471 0.55301 0.05500
 C199 C 0.50241 0.56499 0.09898
 O200 O 0.47632 0.43797 0.11024
 O201 O 0.51371 0.44514 0.05336
 C202 C 0.49499 0.43216 0.09477
 Zr203 Zr 0.46968 0.46949 0.07790
 O204 O 0.46620 0.46520 0.17534
 O205 O 0.43203 0.43292 0.06657
 Zr206 Zr 0.52981 0.52954 0.07830
 O207 O 0.53234 0.52957 0.17620
 O208 O 0.56565 0.56838 0.07447
 O209 O 0.48772 0.51151 0.09058
 O210 O 0.51155 0.48779 0.08975
 O211 O 0.47640 0.43789 -0.10915
 O212 O 0.51385 0.44516 -0.05227
 C213 C 0.49510 0.43213 -0.09358
 O214 O 0.52112 0.55919 -0.11350
 O215 O 0.48487 0.55315 -0.05363
 C216 C 0.50254 0.56507 -0.09758
 O217 O 0.56165 0.52315 -0.10911
 O218 O 0.55458 0.48591 -0.05215
 C219 C 0.56756 0.50459 -0.09357
 O220 O 0.44083 0.47855 -0.11631
 O221 O 0.44636 0.51423 -0.05550
 C222 C 0.43473 0.49692 -0.10024
 Zr223 Zr 0.46971 0.46946 -0.07733
 O224 O 0.46782 0.46511 -0.17475
 O225 O 0.43093 0.43364 -0.07035
 Zr226 Zr 0.52983 0.52957 -0.07746
 O227 O 0.53277 0.52969 -0.17532
 O228 O 0.56569 0.56840 -0.07309
 Zr229 Zr 0.47945 0.51984 0.00039
 Zr230 Zr 0.52029 0.47924 0.00041
 O231 O 0.51155 0.48781 -0.08902
 O232 O 0.48775 0.51153 -0.08986
 O233 O 0.47759 0.45267 0.00036
 O234 O 0.52210 0.54577 0.00047
 O235 O 0.45334 0.47729 0.00028
 O236 O 0.54675 0.52190 0.00045
 H237 H 0.51763 0.48187 0.12665
 H238 H 0.52943 0.56574 0.00061
 H239 H 0.51753 0.48186 -0.12609
 H240 H 0.43335 0.47013 0.00012
 H241 H 0.58010 0.56607 0.05441
 H242 H 0.58018 0.56599 -0.05357
 H243 H 0.51508 0.52624 -0.19240
 H244 H 0.47952 0.48356 -0.19201
 H245 H 0.43361 0.41944 -0.05025
 H246 H 0.42502 0.42654 0.10896
 H247 H 0.48357 0.47975 0.19287
 H248 H 0.51422 0.52509 0.19264
 O249 O 0.52102 -0.03772 0.11523
 O250 O 0.48540 -0.06800 0.05411
 C251 C 0.50274 -0.06220 0.09884
 O252 O 0.47618 0.03816 0.10825
 O253 O 0.51370 0.06844 0.05182
 C254 C 0.49486 0.06265 0.09295
 O255 O 0.44011 -0.03840 0.11288
 O256 O 0.44625 -0.06863 0.05342
 C257 C 0.43429 -0.06288 0.09732
 O258 O 0.56156 0.03824 0.10892
 O259 O 0.55443 0.06844 0.05202
 C260 C 0.56741 0.06272 0.09346
 Zr261 Zr 0.52993 0.00011 0.07652
 O262 O 0.53425 0.00130 0.17401
 O263 O 0.56653 -0.00092 0.06525
 Zr264 Zr 0.46982 -0.00000 0.07669
 O265 O 0.47000 0.00254 0.17461
 O266 O 0.43092 -0.00309 0.07308
 O267 O 0.48781 -0.02402 0.08895
 O268 O 0.51165 0.02359 0.08827
 O269 O 0.56169 0.03836 -0.11018
 O270 O 0.55438 0.06855 -0.05360
 C271 C 0.56749 0.06282 -0.09466
 O272 O 0.44008 -0.03844 -0.11479
 O273 O 0.44604 -0.06869 -0.05509
 C274 C 0.43414 -0.06292 -0.09900
 O275 O 0.47627 0.03823 -0.11033
 O276 O 0.51371 0.06851 -0.05353
 C277 C 0.49492 0.06274 -0.09483
 O278 O 0.52101 -0.03771 -0.11779
 O279 O 0.48533 -0.06800 -0.05700
 C280 C 0.50268 -0.06221 -0.10170
 Zr281 Zr 0.52996 0.00010 -0.07862
 O282 O 0.53413 0.00271 -0.17608
 O283 O 0.56579 -0.00279 -0.07153
 Zr284 Zr 0.46984 0.00001 -0.07893
 O285 O 0.46990 0.00283 -0.17681
 O286 O 0.43096 -0.00303 -0.07529
 Zr287 Zr 0.47941 -0.04073 -0.00121
 Zr288 Zr 0.52026 0.04087 -0.00097
 O289 O 0.51165 0.02354 -0.09040
 O290 O 0.48781 -0.02403 -0.09134
 O291 O 0.54680 0.02481 -0.00093
 O292 O 0.45355 -0.02397 -0.00116
 O293 O 0.52205 -0.02411 -0.00105
 O294 O 0.47753 0.02460 -0.00107
 H295 H 0.51761 0.03558 0.12524
 H296 H 0.43352 -0.03660 -0.00103
 H297 H 0.51762 0.03547 -0.12744
 H298 H 0.52926 -0.03687 -0.00111
 H299 H 0.43322 0.01358 0.05273
 H300 H 0.43327 0.01366 -0.05495
 H301 H 0.47278 -0.01176 -0.19379
 H302 H 0.51557 -0.00450 -0.19330
 H303 H 0.57999 0.01408 -0.05127
 H304 H 0.57294 -0.00147 0.10767
 H305 H 0.51901 0.00301 0.19134
 H306 H 0.47387 -0.01150 0.19102
 C307 C 1.13970 0.52256 0.25040
 C308 C 1.13096 0.50253 0.30561
 C309 C 1.15593 0.49915 0.29413
 C310 C 1.16498 0.51923 0.23949
 C311 C 1.12297 0.49832 0.20681
 C312 C 1.14791 0.49493 0.19498
 C313 C 1.11402 0.47829 0.26151
 C314 C 1.13921 0.47489 0.25057
 C315 C 1.17303 0.49948 0.34565
 C316 C 1.18584 0.49964 0.39056
 C317 C 1.10326 0.49764 0.16161
 C318 C 1.08581 0.49696 0.12825
 H319 H 1.13973 0.54219 0.24989
 H320 H 1.12412 0.50565 0.35157
 H321 H 1.18614 0.53607 0.23098
 H322 H 1.15466 0.49180 0.14892
 H323 H 1.09288 0.46143 0.27022
 H324 H 1.13920 0.45528 0.25118
 C325 C 0.47466 0.61490 0.25377
 C326 C 0.49447 0.62666 0.30942
 C327 C 0.49831 0.65500 0.29556
 C328 C 0.47845 0.64350 0.24049
 C329 C 0.49910 0.62170 0.21139
 C330 C 0.50294 0.65001 0.19721
 C331 C 0.51890 0.63324 0.26654
 C332 C 0.52276 0.66182 0.25320
 C333 C 0.49818 0.67247 0.34562
 C334 C 0.49825 0.68558 0.38979
 C335 C 0.49993 0.60232 0.16753
 C336 C 0.50093 0.58564 0.13457
 H337 H 0.45487 0.59541 0.25358
 H338 H 0.49098 0.61719 0.35603
 H339 H 0.46183 0.64795 0.23028
 H340 H 0.50642 0.65940 0.15051
 H341 H 0.53555 0.62885 0.27692
 H342 H 0.54253 0.68131 0.25343
 C343 C 0.34944 -0.14719 0.19721
 C344 C 0.35610 -0.16506 0.24032
 C345 C 0.34504 -0.15645 0.29568
 C346 C 0.33807 -0.13893 0.25350
 C347 C 0.37795 -0.12273 0.21056
 C348 C 0.36684 -0.11423 0.26601
 C349 C 0.38491 -0.14026 0.25276
 C350 C 0.37357 -0.13197 0.30874
 C351 C 0.32768 -0.17399 0.34590
 C352 C 0.31460 -0.18703 0.39007
 C353 C 0.39714 -0.10263 0.16631
 C354 C 0.41371 -0.08498 0.13309
 H355 H 0.33971 -0.15329 0.15083
 H356 H 0.35146 -0.18620 0.23040
 H357 H 0.31863 -0.13856 0.25438
 H358 H 0.37147 -0.09311 0.27614
 H359 H 0.40437 -0.14061 0.25191
 H360 H 0.38339 -0.12580 0.35503
 C361 C 0.88673 0.51991 0.26713
 C362 C 0.86191 0.52363 0.25349
 C363 C 0.84429 0.49918 0.29573
 C364 C 0.86888 0.49549 0.30991
 C365 C 0.87860 0.50016 0.21199
 C366 C 0.86097 0.47572 0.25427
 C367 C 0.85403 0.50386 0.19751
 C368 C 0.83605 0.47937 0.24068
 C369 C 0.82650 0.49889 0.34545
 C370 C 0.81330 0.49885 0.38935
 C371 C 0.89886 0.50109 0.16823
 C372 C 0.91655 0.50217 0.13516
 H373 H 0.90777 0.53658 0.27768
 H374 H 0.86210 0.54333 0.25361
 H375 H 0.87482 0.49205 0.35665
 H376 H 0.86078 0.45602 0.25418
 H377 H 0.84819 0.50729 0.15069
 H378 H 0.81499 0.46271 0.23031
 C379 C 0.47738 0.36338 0.26104
 C380 C 0.47440 0.33506 0.24903
 C381 C 0.49865 0.34269 0.29274
 C382 C 0.50161 0.37076 0.30527
 C383 C 0.49757 0.37506 0.20666
 C384 C 0.52181 0.38267 0.25040
 C385 C 0.49461 0.34701 0.19379
 C386 C 0.51890 0.35433 0.23845
 C387 C 0.49894 0.32573 0.34373
 C388 C 0.49898 0.31290 0.38827
 C389 C 0.49671 0.39418 0.16215
 C390 C 0.49590 0.41097 0.12925
 H391 H 0.46029 0.36726 0.26997
 H392 H 0.45492 0.31528 0.24898
 H393 H 0.50452 0.38040 0.35158
 H394 H 0.54132 0.40243 0.25049
 H395 H 0.49174 0.33748 0.14738
 H396 H 0.53598 0.35040 0.22972
 C397 C 0.61474 0.13150 0.26226
 C398 C 0.63377 0.12621 0.30418
 C399 C 0.65688 0.15557 0.29232
 C400 C 0.63806 0.16113 0.25100
 C401 C 0.62457 0.12212 0.20596
 C402 C 0.64763 0.15147 0.19380
 C403 C 0.64338 0.11660 0.24736
 C404 C 0.66677 0.14624 0.23608
 C405 C 0.67388 0.17296 0.34316
 C406 C 0.68676 0.18600 0.38755
 C407 C 0.60548 0.10228 0.16116
 C408 C 0.58866 0.08478 0.12805
 H409 H 0.59314 0.12525 0.27254
 H410 H 0.62818 0.11595 0.35003
 H411 H 0.63606 0.17964 0.25308
 H412 H 0.65312 0.16165 0.14787
 H413 H 0.64538 0.09809 0.24540
 H414 H 0.68839 0.15253 0.22593
 C415 C 0.49286 0.14642 -0.19496
 C416 C 0.51764 0.16431 -0.23761
 C417 C 0.49822 0.15541 -0.29360
 C418 C 0.47348 0.13788 -0.25189
 C419 C 0.49712 0.12206 -0.20721
 C420 C 0.47776 0.11328 -0.26326
 C421 C 0.52184 0.13962 -0.24895
 C422 C 0.50246 0.13103 -0.30549
 C423 C 0.49872 0.17272 -0.34470
 C424 C 0.49900 0.18567 -0.38936
 C425 C 0.49633 0.10222 -0.16244
 C426 C 0.49569 0.08476 -0.12935
 H427 H 0.48891 0.15252 -0.14893
 H428 H 0.53404 0.18551 -0.22764
 H429 H 0.45361 0.13739 -0.25372
 H430 H 0.46133 0.09212 -0.27355
 H431 H 0.54172 0.14014 -0.24731
 H432 H 0.50642 0.12487 -0.35145
 C433 C 0.63596 0.52214 -0.26087
 C434 C 0.66465 0.52584 -0.24931
 C435 C 0.65727 0.50143 -0.29219
 C436 C 0.62882 0.49776 -0.30427
 C437 C 0.62488 0.50235 -0.20573
 C438 C 0.61753 0.47795 -0.24865
 C439 C 0.65330 0.50603 -0.19331
 C440 C 0.64624 0.48158 -0.23714
 C441 C 0.67418 0.50114 -0.34338
 C442 C 0.68694 0.50103 -0.38809
 C443 C 0.60571 0.50309 -0.16102
 C444 C 0.58886 0.50378 -0.12801
 H445 H 0.63159 0.53885 -0.27029
 H446 H 0.68423 0.54552 -0.25013
 H447 H 0.61889 0.49434 -0.35037
 H448 H 0.59796 0.45825 -0.24791
 H449 H 0.66315 0.50943 -0.14713
 H450 H 0.65066 0.46489 -0.22793
 C451 C 0.85363 0.34962 -0.19747
 C452 C 0.83540 0.35596 -0.24024
 C453 C 0.84401 0.34499 -0.29576
 C454 C 0.86189 0.33834 -0.25394
 C455 C 0.87789 0.37817 -0.21114
 C456 C 0.88640 0.36715 -0.26677
 C457 C 0.86001 0.38481 -0.25302
 C458 C 0.86830 0.37356 -0.30916
 C459 C 0.82641 0.32755 -0.34580
 C460 C 0.81333 0.31444 -0.38991
 C461 C 0.89799 0.39748 -0.16706
 C462 C 0.91564 0.41417 -0.13400
 H463 H 0.84781 0.33999 -0.15099
 H464 H 0.81420 0.35112 -0.22996
 H465 H 0.86246 0.31903 -0.25489
 H466 H 0.90757 0.37196 -0.27730
 H467 H 0.85946 0.40413 -0.25216
 H468 H 0.87420 0.38327 -0.35556
 C469 C 0.51901 -0.11424 -0.26891
 C470 C 0.52303 -0.13881 -0.25500
 C471 C 0.49851 -0.15670 -0.29702
 C472 C 0.49451 -0.13234 -0.31145
 C473 C 0.49932 -0.12234 -0.21365
 C474 C 0.47481 -0.14023 -0.25568
 C475 C 0.50332 -0.14666 -0.19890
 C476 C 0.47876 -0.16490 -0.24183
 C477 C 0.49827 -0.17450 -0.34668
 C478 C 0.49822 -0.18769 -0.39064
 C479 C 0.50018 -0.10202 -0.17021
 C480 C 0.50119 -0.08429 -0.13741
 H481 H 0.53555 -0.09320 -0.27968
 H482 H 0.54287 -0.13841 -0.25512
 H483 H 0.49090 -0.12659 -0.35821
 H484 H 0.45498 -0.14062 -0.25552
 H485 H 0.50692 -0.15231 -0.15202
 H486 H 0.46223 -0.18596 -0.23117
 C487 C 0.36532 0.51902 -0.20867
 C488 C 0.37218 0.52614 -0.27817
 C489 C 0.34440 0.50145 -0.29560
 C490 C 0.33717 0.49430 -0.22692
 C491 C 0.37796 0.50053 -0.21223
 C492 C 0.35018 0.47584 -0.22964
 C493 C 0.38507 0.50767 -0.28095
 C494 C 0.35710 0.48302 -0.29891
 C495 C 0.32675 0.50159 -0.34525
 C496 C 0.31351 0.50149 -0.38923
 C497 C 0.39746 0.49963 -0.16880
 C498 C 0.41417 0.49854 -0.13601
 H499 H 0.36892 0.53383 -0.17104
 H500 H 0.38106 0.54686 -0.29858
 H501 H 0.31726 0.48882 -0.20526
 H502 H 0.34131 0.45513 -0.20925
 H503 H 0.40495 0.51319 -0.30285
 H504 H 0.35356 0.46820 -0.33648
 C505 C 1.11471 0.63644 -0.26297
 C506 C 1.13998 0.66491 -0.25125
 C507 C 1.15674 0.65737 -0.29459
 C508 C 1.13169 0.62915 -0.30685
 C509 C 1.12331 0.62506 -0.20824
 C510 C 1.14009 0.61754 -0.25162
 C511 C 1.14834 0.65326 -0.19565
 C512 C 1.16545 0.64602 -0.23995
 C513 C 1.17406 0.67431 -0.34557
 C514 C 1.18701 0.68711 -0.39013
 C515 C 1.10339 0.60596 -0.16353
 C516 C 1.08581 0.58917 -0.13051
 H517 H 1.09364 0.63232 -0.27203
 H518 H 1.14013 0.68459 -0.25169
 H519 H 1.12496 0.61932 -0.35299
 H520 H 1.13996 0.59787 -0.25126
 H521 H 1.15502 0.66299 -0.14942
 H522 H 1.18655 0.65017 -0.23115
 C523 C 0.86069 0.47563 -0.25558
 C524 C 0.83561 0.47894 -0.24148
 C525 C 0.84373 0.49905 -0.29583
 C526 C 0.86849 0.49569 -0.31051
 C527 C 0.87813 0.49988 -0.21261
 C528 C 0.88615 0.51993 -0.26704
 C529 C 0.85341 0.50324 -0.19760
 C530 C 0.86117 0.52331 -0.25289
 C531 C 0.82597 0.49882 -0.34544
 C532 C 0.81282 0.49881 -0.38936
 C533 C 0.89849 0.50074 -0.16938
 C534 C 0.91628 0.50178 -0.13682
 H535 H 0.86069 0.45603 -0.25625
 H536 H 0.81459 0.46212 -0.23154
 H537 H 0.87451 0.49260 -0.35747
 H538 H 0.90714 0.53678 -0.27716
 H539 H 0.84748 0.50634 -0.15056
 H540 H 0.86116 0.54291 -0.25228
 C541 C 0.47783 0.36385 -0.26033
 C542 C 0.50225 0.37106 -0.30372
 C543 C 0.49876 0.34277 -0.29145
 C544 C 0.47431 0.33531 -0.24859
 C545 C 0.49768 0.37508 -0.20525
 C546 C 0.49420 0.34681 -0.19265
 C547 C 0.52213 0.38252 -0.24814
 C548 C 0.51869 0.35395 -0.23647
 C549 C 0.49904 0.32587 -0.34248
 C550 C 0.49907 0.31306 -0.38704
 C551 C 0.49680 0.39414 -0.16072
 C552 C 0.49599 0.41092 -0.12789
 H553 H 0.46101 0.36810 -0.26974
 H554 H 0.50558 0.38088 -0.34988
 H555 H 0.45467 0.31569 -0.24930
 H556 H 0.49091 0.33710 -0.14637
 H557 H 0.54179 0.40213 -0.24748
 H558 H 0.53550 0.34966 -0.22726
 C559 C 0.62371 0.14718 -0.23019
 C560 C 0.65536 0.16416 -0.22632
 C561 C 0.65698 0.15544 -0.29290
 C562 C 0.62567 0.13881 -0.29745
 C563 C 0.62476 0.12214 -0.20651
 C564 C 0.62647 0.11355 -0.27320
 C565 C 0.65606 0.13873 -0.20177
 C566 C 0.65800 0.13039 -0.26922
 C567 C 0.67388 0.17275 -0.34372
 C568 C 0.68670 0.18578 -0.38805
 C569 C 0.60569 0.10236 -0.16174
 C570 C 0.58883 0.08487 -0.12881
 H571 H 0.60940 0.15387 -0.21360
 H572 H 0.66746 0.18520 -0.20772
 H573 H 0.61334 0.13901 -0.33729
 H574 H 0.61439 0.09255 -0.29210
 H575 H 0.66830 0.13847 -0.16181
 H576 H 0.67227 0.12367 -0.28585
 C577 C 1.13951 0.52175 -0.24953
 C578 C 1.16469 0.51824 -0.23884
 C579 C 1.15559 0.49837 -0.29391
 C580 C 1.13072 0.50192 -0.30518
 C581 C 1.12268 0.49735 -0.20652
 C582 C 1.11368 0.47754 -0.26167
 C583 C 1.14752 0.49379 -0.19489
 C584 C 1.13878 0.47395 -0.25095
 C585 C 1.17262 0.49888 -0.34552
 C586 C 1.18545 0.49922 -0.39042
 C587 C 1.10298 0.49663 -0.16151
 C588 C 1.08552 0.49603 -0.12854
 H589 H 1.13962 0.54140 -0.24841
 H590 H 1.18589 0.53498 -0.23010
 H591 H 1.12397 0.50528 -0.35103
 H592 H 1.09251 0.46078 -0.27064
 H593 H 1.15419 0.49045 -0.14894
 H594 H 1.13869 0.45431 -0.25217
 C595 C 0.49986 0.64839 -0.19551
 C596 C 0.52164 0.66270 -0.24703
 C597 C 0.49858 0.65459 -0.29452
 C598 C 0.47677 0.64061 -0.24396
 C599 C 0.49939 0.62159 -0.20993
 C600 C 0.47634 0.61352 -0.25747
 C601 C 0.52114 0.63560 -0.26058
 C602 C 0.49810 0.62776 -0.30862
 C603 C 0.49838 0.67187 -0.34466
 C604 C 0.49838 0.68490 -0.38874
 C605 C 0.50017 0.60235 -0.16591
 C606 C 0.50112 0.58571 -0.13293
 H607 H 0.50058 0.65661 -0.14840
 H608 H 0.54024 0.68312 -0.24330
 H609 H 0.45854 0.64291 -0.23769
 H610 H 0.45773 0.59310 -0.26129
 H611 H 0.53939 0.63334 -0.26702
 H612 H 0.49738 0.61945 -0.35565
 C613 C 0.38492 -0.13986 -0.25453
 C614 C 0.35626 -0.16485 -0.24206
 C615 C 0.34496 -0.15630 -0.29703
 C616 C 0.37334 -0.13164 -0.31013
 C617 C 0.37779 -0.12259 -0.21192
 C618 C 0.36645 -0.11414 -0.26699
 C619 C 0.34943 -0.14722 -0.19853
 C620 C 0.33782 -0.13903 -0.25447
 C621 C 0.32776 -0.17375 -0.34732
 C622 C 0.31476 -0.18676 -0.39152
 C623 C 0.39692 -0.10258 -0.16766
 C624 C 0.41351 -0.08497 -0.13452
 H625 H 0.40451 -0.13997 -0.25405
 H626 H 0.35183 -0.18594 -0.23247
 H627 H 0.38299 -0.12539 -0.35654
 H628 H 0.37085 -0.09308 -0.27682
 H629 H 0.33986 -0.15338 -0.15204
 H630 H 0.31824 -0.13892 -0.25505
 C631 C 0.50293 -0.14675 0.19599
 C632 C 0.52293 -0.13884 0.25159
 C633 C 0.49856 -0.15623 0.29428
 C634 C 0.47852 -0.16450 0.23963
 C635 C 0.49942 -0.12212 0.21051
 C636 C 0.47506 -0.13952 0.25323
 C637 C 0.51940 -0.11394 0.26524
 C638 C 0.49506 -0.13156 0.30848
 C639 C 0.49828 -0.17386 0.34410
 C640 C 0.49821 -0.18698 0.38805
 C641 C 0.50028 -0.10193 0.16698
 C642 C 0.50128 -0.08425 0.13425
 H643 H 0.50615 -0.15271 0.14910
 H644 H 0.54259 -0.13878 0.25139
 H645 H 0.46174 -0.18552 0.22964
 H646 H 0.45539 -0.13958 0.25345
 H647 H 0.53621 -0.09294 0.27538
 H648 H 0.49183 -0.12551 0.35527
 C649 C 0.34979 0.49695 0.19723
 C650 C 0.33781 0.47707 0.25294
 C651 C 0.34487 0.50146 0.29557
 C652 C 0.35654 0.52138 0.24081
 C653 C 0.37801 0.50047 0.21149
 C654 C 0.38506 0.52485 0.25415
 C655 C 0.36630 0.48061 0.26634
 C656 C 0.37312 0.50498 0.30952
 C657 C 0.32749 0.50167 0.34549
 C658 C 0.31436 0.50161 0.38946
 C659 C 0.39729 0.49956 0.16772
 C660 C 0.41392 0.49851 0.13480
 H661 H 0.34047 0.49364 0.15046
 H662 H 0.31817 0.45744 0.25300
 H663 H 0.35229 0.53813 0.23090
 H664 H 0.40471 0.54448 0.25415
 H665 H 0.37051 0.46385 0.27645
 H666 H 0.38254 0.50829 0.35621
 C667 C 1.11414 0.63583 0.26044
 C668 C 1.13136 0.62847 0.30337
 C669 C 1.15612 0.65698 0.29228
 C670 C 1.13912 0.66459 0.24993
 C671 C 1.12309 0.62526 0.20476
 C672 C 1.14782 0.65375 0.19338
 C673 C 1.14010 0.61767 0.24717
 C674 C 1.16517 0.64645 0.23672
 C675 C 1.17323 0.67362 0.34366
 C676 C 1.18613 0.68631 0.38828
 C677 C 1.10341 0.60645 0.15949
 C678 C 1.08593 0.58973 0.12628
 H679 H 1.09293 0.63126 0.26963
 H680 H 1.12472 0.61820 0.34907
 H681 H 1.13892 0.68408 0.25166
 H682 H 1.15437 0.66392 0.14759
 H683 H 1.14033 0.59819 0.24555
 H684 H 1.18640 0.65106 0.22771
 C685 C 0.52325 0.14425 0.23644
 C686 C 0.51222 0.16428 0.22940
 C687 C 0.49812 0.15485 0.29271
 C688 C 0.50918 0.13516 0.30038
 C689 C 0.49709 0.12180 0.20567
 C690 C 0.48303 0.11250 0.26908
 C691 C 0.48599 0.14145 0.19773
 C692 C 0.47195 0.13239 0.26197
 C693 C 0.49862 0.17201 0.34405
 C694 C 0.49891 0.18491 0.38876
 C695 C 0.49637 0.10210 0.16066
 C696 C 0.49568 0.08466 0.12749
 H697 H 0.54435 0.14893 0.22541
 H698 H 0.52422 0.18579 0.21371
 H699 H 0.51873 0.13276 0.34310
 H700 H 0.47102 0.09103 0.28515
 H701 H 0.47648 0.14381 0.15493
 H702 H 0.45087 0.12773 0.27308
 C703 C 0.63608 0.52266 0.26128
 C704 C 0.62860 0.49851 0.30563
 C705 C 0.65680 0.50158 0.29389
 C706 C 0.66455 0.52575 0.25008
 C707 C 0.62466 0.50248 0.20686
 C708 C 0.65285 0.50555 0.19478
 C709 C 0.61695 0.47832 0.25070
 C710 C 0.64543 0.48134 0.23956
 C711 C 0.67356 0.50128 0.34529
 C712 C 0.68625 0.50115 0.39003
 C713 C 0.60564 0.50320 0.16187
 C714 C 0.58883 0.50387 0.12876
 H715 H 0.63207 0.53967 0.26980
 H716 H 0.61877 0.49561 0.35170
 H717 H 0.68431 0.54525 0.25037
 H718 H 0.66257 0.50843 0.14860
 H719 H 0.59719 0.45880 0.25047
 H720 H 0.64948 0.46434 0.23122
 C721 C 0.85380 0.35059 0.19654
 C722 C 0.86205 0.33890 0.25220
 C723 C 0.84468 0.34583 0.29501
 C724 C 0.83607 0.35721 0.24030
 C725 C 0.87841 0.37890 0.21035
 C726 C 0.86103 0.38582 0.25321
 C727 C 0.88692 0.36749 0.26515
 C728 C 0.86932 0.37416 0.30854
 C729 C 0.82714 0.32843 0.34494
 C730 C 0.81405 0.31528 0.38885
 C731 C 0.89837 0.39814 0.16621
 C732 C 0.91593 0.41475 0.13306
 H733 H 0.84767 0.34115 0.14990
 H734 H 0.86225 0.31940 0.25240
 H735 H 0.81493 0.35273 0.23073
 H736 H 0.86085 0.40534 0.25312
 H737 H 0.90805 0.37193 0.27496
 H738 H 0.87553 0.38368 0.35510
   
