data_POSCAR
  _audit_creation_date              2014-09-24
  _audit_creation_method            'ToBaCCo'
  _symmetry_space_group_name_H-M    'P1'
  _symmetry_Int_Tables_number       1
  _symmetry_cell_setting            triclinic
  loop_
  _symmetry_equiv_pos_as_xyz
 x,y,z
_cell_length_a 42.5407
_cell_length_b 42.8616
_cell_length_c 42.4304
_cell_angle_alpha 90.041900
_cell_angle_beta 89.960900
_cell_angle_gamma 90.064300
loop_
  _atom_site_label
  _atom_site_type_symbol
  _atom_site_fract_x
  _atom_site_fract_y
  _atom_site_fract_z
C1 C 0.32440 0.36917 1.37078
 C2 C 0.33681 0.38280 1.34317
 C3 C 0.36340 0.37041 1.32822
 C4 C 0.37817 0.34412 1.34108
 C5 C 0.36666 0.32965 1.36861
 C6 C 0.33987 0.34273 1.38321
 H7 H 0.32482 0.40196 1.33179
 H8 H 0.39806 0.33445 1.32859
 H9 H 0.33240 0.33367 1.40574
 C10 C 1.17520 0.63022 0.87079
 C11 C 1.16280 0.61651 0.84312
 C12 C 1.13646 0.62917 0.82784
 C13 C 1.12198 0.65575 0.84046
 C14 C 1.13361 0.66987 0.86787
 C15 C 1.15996 0.65697 0.88288
 H16 H 1.17462 0.59710 0.83197
 H17 H 1.10177 0.66572 0.82868
 H18 H 1.16753 0.66731 0.90486
 C19 C 0.66957 -0.13941 0.13034
 C20 C 0.65411 -0.16648 0.11924
 C21 C 0.62721 -0.17829 0.13438
 C22 C 0.61543 -0.16285 0.16100
 C23 C 0.63018 -0.13594 0.17262
 C24 C 0.65700 -0.12440 0.15720
 H25 H 0.66240 -0.17837 0.09836
 H26 H 0.59438 -0.17152 0.17242
 H27 H 0.66904 -0.10474 0.16769
 C28 C -0.16950 1.13965 -0.36895
 C29 C -0.15409 1.16671 -0.38011
 C30 C -0.12727 1.17866 -0.36500
 C31 C -0.11549 1.16337 -0.33832
 C32 C -0.13017 1.13645 -0.32665
 C33 C -0.15693 1.12477 -0.34205
 H34 H -0.16238 1.17849 -0.40103
 H35 H -0.09449 1.17216 -0.32692
 H36 H -0.16894 1.10511 -0.33153
 C37 C 0.67050 0.64043 0.63161
 C38 C 0.65565 0.66716 0.61961
 C39 C 0.62844 0.67968 0.63401
 C40 C 0.61640 0.66421 0.66087
 C41 C 0.63096 0.63743 0.67310
 C42 C 0.65791 0.62570 0.65826
 H43 H 0.66681 0.67912 0.60016
 H44 H 0.59477 0.67193 0.67175
 H45 H 0.66935 0.60517 0.66770
 C46 C 0.82884 0.36005 0.13120
 C47 C 0.84328 0.33285 0.11980
 C48 C 0.87011 0.32007 0.13459
 C49 C 0.88238 0.33591 0.16112
 C50 C 0.86818 0.36317 0.17280
 C51 C 0.84150 0.37507 0.15765
 H52 H 0.83410 0.32263 0.09839
 H53 H 0.90235 0.32664 0.17374
 H54 H 0.82988 0.39549 0.16717
 C55 C 0.32457 0.12918 0.87193
 C56 C 0.33965 0.15637 0.88324
 C57 C 0.36638 0.16866 0.86826
 C58 C 0.37850 0.15349 0.84164
 C59 C 0.36420 0.12644 0.82982
 C60 C 0.33748 0.11442 0.84506
 H61 H 0.33167 0.16752 0.90467
 H62 H 0.39851 0.16341 0.82940
 H63 H 0.32629 0.09410 0.83494
 C64 C 0.17715 0.86971 0.37059
 C65 C 0.16468 0.88351 0.34303
 C66 C 0.13829 0.87087 0.32775
 C67 C 0.12382 0.84423 0.34028
 C68 C 0.13550 0.83003 0.36759
 C69 C 0.16192 0.84290 0.38259
 H70 H 0.17648 0.90299 0.33194
 H71 H 0.10355 0.83429 0.32852
 H72 H 0.16953 0.83248 0.40449
 Zn73 Zn 0.01567 0.98801 -0.03870
 Zn74 Zn 0.02172 1.01907 0.02423
 Zn75 Zn -0.04127 1.01283 -0.00663
 Zn76 Zn -0.00919 0.95651 0.01863
 O77 O -0.00322 0.99415 -0.00057
 O78 O 0.05277 1.00724 -0.04144
 O79 O 0.00241 1.05457 0.03589
 O80 O -0.04925 1.02102 -0.04721
 O81 O 0.05752 1.03056 0.00482
 O82 O -0.00701 1.00250 -0.07106
 O83 O -0.04408 1.04944 0.01318
 O84 O -0.04971 0.94820 0.02645
 O85 O 0.03348 1.00015 0.06012
 O86 O -0.07358 0.98992 0.00750
 O87 O 0.01040 0.95409 0.05575
 O88 O 0.00529 0.92440 -0.00415
 O89 O 0.02344 0.94777 -0.04686
 C90 C 0.06816 1.02427 -0.02244
 C91 C -0.02497 1.06487 0.03007
 C92 C -0.03348 1.01608 -0.07213
 C93 C -0.07464 0.96353 0.02101
 C94 C 0.02750 0.97315 0.07095
 C95 C 0.01853 0.92318 -0.03094
 Zn96 Zn 0.54177 -0.01233 0.49291
 Zn97 Zn 0.47878 -0.01869 0.52379
 Zn98 Zn 0.50972 0.04391 0.51863
 Zn99 Zn 0.48487 0.01278 0.46110
 O100 O 0.50374 0.00637 0.49916
 O101 O 0.54455 -0.04914 0.51236
 O102 O 0.46723 -0.00005 0.55995
 O103 O 0.55025 0.05214 0.52636
 O104 O 0.49801 -0.05436 0.53501
 O105 O 0.57409 0.01045 0.50720
 O106 O 0.49030 0.04604 0.55589
 O107 O 0.47708 0.05307 0.45328
 O108 O 0.44290 -0.02992 0.50438
 O109 O 0.49514 0.07618 0.49618
 O110 O 0.44776 -0.00638 0.45827
 O111 O 0.50753 -0.00154 0.42860
 O112 O 0.54975 -0.02024 0.45225
 C113 C 0.52538 -0.06468 0.52908
 C114 C 0.47330 0.02685 0.57102
 C115 C 0.57516 0.03680 0.52085
 C116 C 0.48191 0.07756 0.46941
 C117 C 0.43230 -0.02345 0.47716
 C118 C 0.53399 -0.01514 0.42739
 Zn119 Zn 0.95920 0.48706 0.49234
 Zn120 Zn 1.02236 0.48106 0.52291
 Zn121 Zn 1.01606 0.51189 0.45995
 Zn122 Zn 0.99147 0.54351 0.51732
 O123 O 0.99731 0.50583 0.49817
 O124 O 0.95648 0.45042 0.51215
 O125 O 1.05811 0.46963 0.50340
 O126 O 0.99317 0.49735 0.42772
 O127 O 1.00313 0.44552 0.53458
 O128 O 0.95102 0.47883 0.45178
 O129 O 1.05311 0.49265 0.45706
 O130 O 1.00601 0.57555 0.49451
 O131 O 1.03415 0.50004 0.55882
 O132 O 1.02395 0.55211 0.45175
 O133 O 1.01106 0.54602 0.55442
 O134 O 0.95101 0.55182 0.52520
 O135 O 0.92695 0.50996 0.50664
 C136 C 0.97574 0.43509 0.52891
 C137 C 1.06861 0.47577 0.47605
 C138 C 0.96666 0.48377 0.42678
 C139 C 1.01920 0.57672 0.46770
 C140 C 1.02814 0.52703 0.56964
 C141 C 0.92602 0.53645 0.52001
 Zn142 Zn 0.48325 0.48812 0.96025
 Zn143 Zn 0.47688 0.51897 1.02329
 Zn144 Zn 0.50811 0.45665 1.01749
 Zn145 Zn 0.53997 0.51331 0.99245
 O146 O 0.50201 0.49431 0.99842
 O147 O 0.44605 0.50704 0.95755
 O148 O 0.46524 0.49989 1.05919
 O149 O 0.49389 0.42448 0.99459
 O150 O 0.44102 0.53015 1.00389
 O151 O 0.47571 0.44784 0.95195
 O152 O 0.48847 0.45398 1.05459
 O153 O 0.57236 0.49069 1.00673
 O154 O 0.49593 0.55466 1.03494
 O155 O 0.54863 0.44871 1.02541
 O156 O 0.54249 0.54998 1.01223
 O157 O 0.54805 0.52157 0.95188
 O158 O 0.50593 0.50288 0.92795
 C159 C 0.43049 0.52386 0.97660
 C160 C 0.47133 0.47289 1.06991
 C161 C 0.48071 0.42324 0.96779
 C162 C 0.57348 0.46428 1.02019
 C163 C 0.52324 0.56523 1.02911
 C164 C 0.53236 0.51661 0.92694
 C165 C 1.24107 0.40516 0.41281
 C166 C 1.26070 0.42473 0.39531
 C167 C 1.28825 0.41308 0.38175
 C168 C 1.29686 0.38139 0.38537
 C169 C 1.27680 0.36211 0.40359
 C170 C 1.24925 0.37391 0.41704
 C171 C 1.21200 0.41695 0.42543
 C172 C 1.18740 0.42699 0.43525
 C173 C 1.15778 0.43929 0.44592
 C174 C 1.14015 0.45827 0.42582
 C175 C 1.11121 0.47012 0.43568
 C176 C 1.09942 0.46315 0.46588
 C177 C 1.11735 0.44408 0.48601
 C178 C 1.14637 0.43222 0.47604
 H179 H 1.25467 0.44907 0.39205
 H180 H 1.30309 0.42944 0.36929
 H181 H 1.28123 0.33743 0.40636
 H182 H 1.23402 0.35844 0.43028
 H183 H 1.14874 0.46387 0.40245
 H184 H 1.09806 0.48472 0.41959
 H185 H 1.10895 0.43828 0.50938
 H186 H 1.15983 0.41751 0.49178
 C187 C 0.25798 0.59391 0.91340
 C188 C 0.23835 0.57438 0.89586
 C189 C 0.21096 0.58614 0.88212
 C190 C 0.20254 0.61790 0.88559
 C191 C 0.22259 0.63712 0.90388
 C192 C 0.24997 0.62522 0.91751
 C193 C 0.28694 0.58205 0.92611
 C194 C 0.31149 0.57201 0.93598
 C195 C 0.34110 0.55976 0.94667
 C196 C 0.35874 0.54071 0.92661
 C197 C 0.38774 0.52902 0.93642
 C198 C 0.39958 0.53624 0.96653
 C199 C 0.38163 0.55536 0.98664
 C200 C 0.35255 0.56706 0.97672
 H201 H 0.24426 0.54999 0.89269
 H202 H 0.19610 0.56981 0.86963
 H203 H 0.21834 0.66184 0.90656
 H204 H 0.26522 0.64065 0.93077
 H205 H 0.35012 0.53495 0.90329
 H206 H 0.40090 0.51437 0.92034
 H207 H 0.39007 0.56134 1.00994
 H208 H 0.33908 0.58184 0.99243
 C209 C -0.24665 0.89464 0.08747
 C210 C -0.25478 0.86319 0.08468
 C211 C -0.28248 0.85198 0.09839
 C212 C -0.30272 0.87207 0.11544
 C213 C -0.29415 0.90393 0.11756
 C214 C -0.26647 0.91499 0.10376
 C215 C -0.21757 0.90592 0.07437
 C216 C -0.19303 0.91547 0.06391
 C217 C -0.16353 0.92699 0.05202
 C218 C -0.13596 0.90985 0.05679
 C219 C -0.10708 0.92153 0.04636
 C220 C -0.10539 0.95059 0.03101
 C221 C -0.13331 0.96748 0.02599
 C222 C -0.16216 0.95573 0.03647
 H223 H -0.23942 0.84714 0.07234
 H224 H -0.28686 0.82719 0.09675
 H225 H -0.30915 0.92087 0.12899
 H226 H -0.26052 0.93949 0.10584
 H227 H -0.13675 0.88759 0.06886
 H228 H -0.08607 0.90794 0.05060
 H229 H -0.13284 0.98991 0.01428
 H230 H -0.18336 0.96922 0.03271
 C231 C 0.74694 0.10532 0.58808
 C232 C 0.75500 0.13678 0.58529
 C233 C 0.78260 0.14808 0.59906
 C234 C 0.80284 0.12808 0.61616
 C235 C 0.79433 0.09620 0.61832
 C236 C 0.76673 0.08505 0.60445
 C237 C 0.71795 0.09397 0.57488
 C238 C 0.69346 0.08444 0.56430
 C239 C 0.66400 0.07301 0.55227
 C240 C 0.63646 0.09020 0.55703
 C241 C 0.60760 0.07863 0.54645
 C242 C 0.60590 0.04963 0.53095
 C243 C 0.63380 0.03270 0.52592
 C244 C 0.66264 0.04433 0.53655
 H245 H 0.73965 0.15276 0.57289
 H246 H 0.78692 0.17288 0.59742
 H247 H 0.80932 0.07933 0.62981
 H248 H 0.76081 0.06054 0.60654
 H249 H 0.63724 0.11242 0.56922
 H250 H 0.58660 0.09226 0.55070
 H251 H 0.63333 0.01031 0.51409
 H252 H 0.68382 0.03081 0.53279
 C253 C 0.40987 0.24736 0.40419
 C254 C 0.37818 0.25329 0.41028
 C255 C 0.36404 0.28047 0.39895
 C256 C 0.38134 0.30245 0.38104
 C257 C 0.41353 0.29607 0.37546
 C258 C 0.42754 0.26886 0.38692
 C259 C 0.42402 0.21889 0.41516
 C260 C 0.43541 0.19477 0.42422
 C261 C 0.44840 0.16568 0.43496
 C262 C 0.46394 0.16408 0.46397
 C263 C 0.47536 0.13551 0.47497
 C264 C 0.47132 0.10812 0.45708
 C265 C 0.45607 0.11009 0.42772
 C266 C 0.44469 0.13868 0.41678
 H267 H 0.36420 0.23663 0.42343
 H268 H 0.33911 0.28318 0.40311
 H269 H 0.42851 0.31242 0.36316
 H270 H 0.45222 0.26461 0.38229
 H271 H 0.46690 0.18484 0.47825
 H272 H 0.48697 0.13481 0.49767
 H273 H 0.45255 0.08949 0.41336
 H274 H 0.43265 0.13965 0.39430
 C275 C 0.91509 0.26316 0.60060
 C276 C 0.91127 0.25855 0.63303
 C277 C 0.89794 0.23086 0.64426
 C278 C 0.88815 0.20746 0.62314
 C279 C 0.89252 0.21213 0.59061
 C280 C 0.90587 0.23982 0.57945
 C281 C 0.92720 0.29231 0.58893
 C282 C 0.93657 0.31691 0.57884
 C283 C 0.94673 0.34648 0.56640
 C284 C 0.97690 0.35790 0.57285
 C285 C 0.98646 0.38675 0.56069
 C286 C 0.96590 0.40452 0.54193
 C287 C 0.93564 0.39276 0.53561
 C288 C 0.92618 0.36398 0.54777
 H289 H 0.91816 0.27654 0.64961
 H290 H 0.89456 0.22807 0.66940
 H291 H 0.88562 0.19437 0.57382
 H292 H 0.90871 0.24315 0.55429
 H293 H 0.99300 0.34453 0.58727
 H294 H 1.00990 0.39512 0.56599
 H295 H 0.91922 0.40579 0.52127
 H296 H 0.90277 0.35537 0.54264
 C297 C 0.09037 0.75359 -0.09704
 C298 C 0.12314 0.75080 -0.09746
 C299 C 0.13717 0.72347 -0.10860
 C300 C 0.11858 0.69853 -0.11950
 C301 C 0.08563 0.70148 -0.11879
 C302 C 0.07164 0.72886 -0.10763
 C303 C 0.07613 0.78204 -0.08610
 C304 C 0.06471 0.80613 -0.07698
 C305 C 0.05173 0.83519 -0.06609
 C306 C 0.05565 0.86229 -0.08403
 C307 C 0.04436 0.89085 -0.07287
 C308 C 0.02901 0.89267 -0.04353
 C309 C 0.02476 0.86518 -0.02589
 C310 C 0.03608 0.83664 -0.03711
 H311 H 0.13785 0.76985 -0.08942
 H312 H 0.16258 0.72206 -0.10924
 H313 H 0.07071 0.68255 -0.12669
 H314 H 0.04625 0.73076 -0.10733
 H315 H 0.06778 0.86142 -0.10648
 H316 H 0.04803 0.91154 -0.08703
 H317 H 0.01307 0.86577 -0.00322
 H318 H 0.03298 0.81580 -0.02302
 C319 C 0.58434 0.73730 1.10027
 C320 C 0.58815 0.74205 1.13268
 C321 C 0.60170 0.76968 1.14380
 C322 C 0.61170 0.79291 1.12260
 C323 C 0.60736 0.78809 1.09009
 C324 C 0.59379 0.76045 1.07903
 C325 C 0.57200 0.70818 1.08871
 C326 C 0.56249 0.68358 1.07872
 C327 C 0.55225 0.65399 1.06635
 C328 C 0.52215 0.64251 1.07306
 C329 C 0.51257 0.61361 1.06099
 C330 C 0.53304 0.59587 1.04204
 C331 C 0.56322 0.60770 1.03546
 C332 C 0.57270 0.63652 1.04753
 H333 H 0.58110 0.72420 1.14933
 H334 H 0.60504 0.77258 1.16893
 H335 H 0.61442 0.80571 1.07323
 H336 H 0.59097 0.75701 1.05389
 H337 H 0.50613 0.65586 1.08763
 H338 H 0.48920 0.60517 1.06649
 H339 H 0.57958 0.59470 1.02097
 H340 H 0.59605 0.64517 1.04219
 C341 C 0.39760 0.41020 1.24171
 C342 C 0.38869 0.42970 1.26664
 C343 C 0.37745 0.41681 1.29478
 C344 C 0.37509 0.38424 1.29832
 C345 C 0.38393 0.36490 1.27303
 C346 C 0.39512 0.37781 1.24496
 C347 C 0.40968 0.42313 1.21283
 C348 C 0.42016 0.43299 1.18837
 C349 C 0.43313 0.44350 1.15889
 C350 C 0.42625 0.47328 1.14726
 C351 C 0.43873 0.48302 1.11834
 C352 C 0.45824 0.46302 1.10071
 C353 C 0.46505 0.43319 1.11274
 C354 C 0.45258 0.42354 1.14158
 H355 H 0.39059 0.45481 1.26440
 H356 H 0.37102 0.43225 1.31394
 H357 H 0.38187 0.33978 1.27483
 H358 H 0.40186 0.36251 1.22578
 H359 H 0.41118 0.48891 1.16047
 H360 H 0.43302 0.50611 1.10975
 H361 H 0.47997 0.41719 1.09983
 H362 H 0.45805 0.40044 1.15034
 C363 C 0.59706 -0.09079 0.25683
 C364 C 0.59784 -0.12338 0.25504
 C365 C 0.60832 -0.13808 0.22756
 C366 C 0.61820 -0.12032 0.20149
 C367 C 0.61713 -0.08756 0.20345
 C368 C 0.60662 -0.07290 0.23096
 C369 C 0.58677 -0.07582 0.28539
 C370 C 0.57820 -0.06374 0.30957
 C371 C 0.56792 -0.04998 0.33875
 C372 C 0.53944 -0.03373 0.34013
 C373 C 0.52869 -0.02176 0.36885
 C374 C 0.54631 -0.02597 0.39660
 C375 C 0.57520 -0.04185 0.39482
 C376 C 0.58589 -0.05378 0.36608
 H377 H 0.59058 -0.13744 0.27497
 H378 H 0.60928 -0.16331 0.22694
 H379 H 0.62425 -0.07328 0.18364
 H380 H 0.60604 -0.04766 0.23207
 H381 H 0.52533 -0.03070 0.31911
 H382 H 0.50635 -0.00968 0.36939
 H383 H 0.58933 -0.04551 0.41571
 H384 H 0.60795 -0.06637 0.36528
 C385 C -0.09695 1.09167 -0.24239
 C386 C -0.10644 1.07368 -0.26823
 C387 C -0.11699 1.08821 -0.29575
 C388 C -0.11818 1.12097 -0.29776
 C389 C -0.10838 1.13883 -0.27172
 C390 C -0.09786 1.12426 -0.24423
 C391 C -0.08659 1.07682 -0.21383
 C392 C -0.07794 1.06481 -0.18967
 C393 C -0.06756 1.05109 -0.16054
 C394 C -0.03906 1.03488 -0.15929
 C395 C -0.02825 1.02289 -0.13065
 C396 C -0.04582 1.02702 -0.10283
 C397 C -0.07473 1.04289 -0.10447
 C398 C -0.08548 1.05485 -0.13314
 H399 H -0.10576 1.04844 -0.26707
 H400 H -0.12406 1.07385 -0.31553
 H401 H -0.10942 1.16406 -0.27238
 H402 H -0.09065 1.13840 -0.22433
 H403 H -0.02498 1.03189 -0.18037
 H404 H -0.00590 1.01083 -0.13021
 H405 H -0.08883 1.04650 -0.08353
 H406 H -0.10757 1.06740 -0.13385
 C407 C 1.10207 0.58926 0.74146
 C408 C 1.10448 0.62165 0.74474
 C409 C 1.11573 0.63459 0.77277
 C410 C 1.12471 0.61528 0.79800
 C411 C 1.12240 0.58270 0.79443
 C412 C 1.11110 0.56979 0.76632
 C413 C 1.08995 0.57632 0.71261
 C414 C 1.07944 0.56650 0.68815
 C415 C 1.06642 0.55609 0.65867
 C416 C 1.04702 0.57614 0.64147
 C417 C 1.03452 0.56660 0.61261
 C418 C 1.04126 0.53678 0.60046
 C419 C 1.06072 0.51668 0.61797
 C420 C 1.07322 0.52632 0.64691
 H421 H 1.09764 0.63694 0.72562
 H422 H 1.11771 0.65972 0.77460
 H423 H 1.12889 0.56727 0.81354
 H424 H 1.10925 0.54467 0.76405
 H425 H 1.04162 0.59924 0.65034
 H426 H 1.01964 0.58267 0.59979
 H427 H 1.06636 0.49360 0.60929
 H428 H 1.08825 0.51062 0.66004
 C429 C 0.75550 0.60592 0.58922
 C430 C 0.73057 0.61579 0.57016
 C431 C 0.70289 0.62702 0.58390
 C432 C 0.69981 0.62847 0.61689
 C433 C 0.72503 0.61852 0.63581
 C434 C 0.75265 0.60733 0.62204
 C435 C 0.78409 0.59443 0.57530
 C436 C 0.80833 0.58477 0.56426
 C437 C 0.83758 0.57321 0.55185
 C438 C 0.83868 0.54434 0.53646
 C439 C 0.86738 0.53253 0.52567
 C440 C 0.89539 0.54946 0.53020
 C441 C 0.89394 0.57866 0.54534
 C442 C 0.86523 0.59041 0.55610
 H443 H 0.73251 0.61476 0.54472
 H444 H 0.68376 0.63424 0.56875
 H445 H 0.72358 0.61980 0.66125
 H446 H 0.77185 0.59988 0.63701
 H447 H 0.81742 0.53080 0.53313
 H448 H 0.86767 0.50999 0.51412
 H449 H 0.91503 0.59231 0.54921
 H450 H 0.86466 0.61275 0.56804
 C451 C 0.74471 0.39559 1.08817
 C452 C 0.76844 0.41616 1.09772
 C453 C 0.79594 0.40465 1.11148
 C454 C 0.80004 0.37237 1.11585
 C455 C 0.77612 0.35188 1.10595
 C456 C 0.74866 0.36344 1.09222
 C457 C 0.71596 0.40743 1.07496
 C458 C 0.69160 0.41714 1.06433
 C459 C 0.66220 0.42854 1.05219
 C460 C 0.66085 0.45735 1.03676
 C461 C 0.63205 0.46884 1.02594
 C462 C 0.60421 0.45163 1.03047
 C463 C 0.60591 0.42251 1.04569
 C464 C 0.63472 0.41109 1.05647
 H465 H 0.76561 0.44110 1.09469
 H466 H 0.81407 0.42096 1.11855
 H467 H 0.77839 0.32695 1.10939
 H468 H 0.73036 0.34732 1.08506
 H469 H 0.68199 0.47106 1.03336
 H470 H 0.63156 0.49133 1.01434
 H471 H 0.58496 0.40867 1.04957
 H472 H 0.63551 0.38877 1.06842
 C473 C 0.24108 1.09426 -0.08536
 C474 C 0.26109 1.07411 -0.10168
 C475 C 0.28870 1.08542 -0.11542
 C476 C 0.29700 1.11734 -0.11320
 C477 C 0.27657 1.13721 -0.09610
 C478 C 0.24895 1.12576 -0.08245
 C479 C 0.21191 1.08276 -0.07267
 C480 C 0.18723 1.07287 -0.06287
 C481 C 0.15752 1.06067 -0.05228
 C482 C 0.13994 1.04158 -0.07239
 C483 C 0.11094 1.02977 -0.06262
 C484 C 0.09902 1.03689 -0.03251
 C485 C 0.11688 1.05609 -0.01238
 C486 C 0.14596 1.06791 -0.02225
 H487 H 0.25531 1.04958 -0.10389
 H488 H 0.30383 1.06863 -0.12689
 H489 H 0.28074 1.16204 -0.09441
 H490 H 0.23342 1.14165 -0.07013
 H491 H 0.14865 1.03585 -0.09569
 H492 H 0.09785 1.01507 -0.07872
 H493 H 0.10838 1.06201 0.01093
 H494 H 0.15939 1.08271 -0.00650
 C495 C 0.25997 -0.09395 0.41334
 C496 C 0.24035 -0.07441 0.39589
 C497 C 0.21296 -0.08618 0.38209
 C498 C 0.20453 -0.11797 0.38540
 C499 C 0.22459 -0.13721 0.40359
 C500 C 0.25197 -0.12529 0.41728
 C501 C 0.28892 -0.08206 0.42616
 C502 C 0.31344 -0.07197 0.43613
 C503 C 0.34301 -0.05965 0.44693
 C504 C 0.36056 -0.04029 0.42707
 C505 C 0.38952 -0.02851 0.43698
 C506 C 0.40142 -0.03594 0.46701
 C507 C 0.38357 -0.05536 0.48691
 C508 C 0.35453 -0.06715 0.47689
 H509 H 0.24625 -0.04999 0.39284
 H510 H 0.19810 -0.06984 0.36968
 H511 H 0.22034 -0.16195 0.40614
 H512 H 0.26721 -0.14073 0.43047
 H513 H 0.35189 -0.03437 0.40382
 H514 H 0.40260 -0.01363 0.42106
 H515 H 0.39205 -0.06151 0.51014
 H516 H 0.34113 -0.08217 0.49244
 C517 C 0.58706 -0.23681 0.59909
 C518 C 0.58308 -0.24524 0.63063
 C519 C 0.59629 -0.27285 0.64209
 C520 C 0.61403 -0.29272 0.62219
 C521 C 0.61735 -0.28387 0.59021
 C522 C 0.60403 -0.25627 0.57891
 C523 C 0.57472 -0.20770 0.58761
 C524 C 0.56517 -0.18310 0.57774
 C525 C 0.55480 -0.15351 0.56556
 C526 C 0.52466 -0.14227 0.57237
 C527 C 0.51494 -0.11335 0.56053
 C528 C 0.53533 -0.09534 0.54173
 C529 C 0.56556 -0.10694 0.53505
 C530 C 0.57517 -0.13578 0.54688
 H531 H 0.57023 -0.23015 0.64657
 H532 H 0.59373 -0.27748 0.66700
 H533 H 0.62937 -0.29855 0.57335
 H534 H 0.60708 -0.25007 0.55434
 H535 H 0.50870 -0.15581 0.58684
 H536 H 0.49154 -0.10511 0.56611
 H537 H 0.58185 -0.09373 0.52066
 H538 H 0.59856 -0.14425 0.54147
 C539 C 1.09206 0.74620 0.40227
 C540 C 1.07340 0.77102 0.39191
 C541 C 1.08746 0.79843 0.38090
 C542 C 1.12041 0.80135 0.38014
 C543 C 1.13894 0.77634 0.39084
 C544 C 1.12484 0.74897 0.40181
 C545 C 1.07772 0.71773 0.41305
 C546 C 1.06617 0.69364 0.42203
 C547 C 1.05299 0.66461 0.43279
 C548 C 1.03724 0.66320 0.46172
 C549 C 1.02570 0.63470 0.47284
 C550 C 1.02984 0.60720 0.45515
 C551 C 1.04527 0.60899 0.42585
 C552 C 1.05677 0.63751 0.41479
 H553 H 1.04800 0.76914 0.39224
 H554 H 1.07258 0.81742 0.37316
 H555 H 1.16435 0.77773 0.39015
 H556 H 1.13950 0.72985 0.40970
 H557 H 1.03422 0.68404 0.47586
 H558 H 1.01395 0.63414 0.49548
 H559 H 1.04886 0.58828 0.41166
 H560 H 1.06897 0.63835 0.39239
 C561 C -0.08895 1.23565 0.10130
 C562 C -0.07058 1.25728 0.11765
 C563 C -0.08389 1.28509 0.12861
 C564 C -0.11604 1.29194 0.12334
 C565 C -0.13411 1.26961 0.10668
 C566 C -0.12068 1.24190 0.09586
 C567 C -0.07558 1.20691 0.09000
 C568 C -0.06548 1.18254 0.08005
 C569 C -0.05485 1.15316 0.06758
 C570 C -0.02465 1.14203 0.07426
 C571 C -0.01477 1.11329 0.06207
 C572 C -0.03504 1.09536 0.04307
 C573 C -0.06532 1.10686 0.03653
 C574 C -0.07510 1.13552 0.04870
 H575 H -0.04586 1.25276 0.12177
 H576 H -0.06840 1.30155 0.14009
 H577 H -0.15907 1.27257 0.10298
 H578 H -0.13522 1.22514 0.08345
 H579 H -0.00878 1.15552 0.08888
 H580 H 0.00867 1.10510 0.06755
 H581 H -0.08154 1.09372 0.02200
 H582 H -0.09853 1.14390 0.04340
 C583 C 0.40939 0.25327 0.90167
 C584 C 0.42818 0.22825 0.89197
 C585 C 0.41425 0.20065 0.88125
 C586 C 0.38131 0.19773 0.88012
 C587 C 0.36266 0.22300 0.89003
 C588 C 0.37663 0.25056 0.90071
 C589 C 0.42359 0.28184 0.91244
 C590 C 0.43497 0.30600 0.92150
 C591 C 0.44788 0.33511 0.93241
 C592 C 0.44388 0.36224 0.91454
 C593 C 0.45507 0.39084 0.92576
 C594 C 0.47040 0.39269 0.95510
 C595 C 0.47475 0.36517 0.97266
 C596 C 0.46353 0.33659 0.96137
 H597 H 0.45357 0.23009 0.89269
 H598 H 0.42922 0.18148 0.87410
 H599 H 0.33726 0.22163 0.88902
 H600 H 0.36187 0.26982 0.90807
 H601 H 0.43175 0.36136 0.89211
 H602 H 0.45132 0.41155 0.91166
 H603 H 0.48642 0.36577 0.99532
 H604 H 0.46670 0.31573 0.97542
 C605 C 0.59630 0.59272 0.75690
 C606 C 0.60612 0.57469 0.73121
 C607 C 0.61707 0.58919 0.70380
 C608 C 0.61833 0.62194 0.70175
 C609 C 0.60810 0.63984 0.72760
 C610 C 0.59719 0.62530 0.75498
 C611 C 0.58572 0.57789 0.78541
 C612 C 0.57696 0.56585 0.80955
 C613 C 0.56651 0.55207 0.83864
 C614 C 0.53805 0.53570 0.83983
 C615 C 0.52721 0.52357 0.86844
 C616 C 0.54472 0.52772 0.89628
 C617 C 0.57358 0.54375 0.89470
 C618 C 0.58435 0.55584 0.86607
 H619 H 0.60545 0.54945 0.73242
 H620 H 0.62441 0.57480 0.68415
 H621 H 0.60917 0.66508 0.72688
 H622 H 0.58972 0.63947 0.77476
 H623 H 0.52403 0.53268 0.81873
 H624 H 0.50491 0.51138 0.86882
 H625 H 0.58762 0.54737 0.91567
 H626 H 0.60640 0.56851 0.86542
 C627 C 0.40026 0.08531 0.74472
 C628 C 0.42091 0.09497 0.76847
 C629 C 0.40918 0.10794 0.79634
 C630 C 0.37660 0.11142 0.80080
 C631 C 0.35601 0.10127 0.77694
 C632 C 0.36780 0.08833 0.74908
 C633 C 0.41246 0.07356 0.71538
 C634 C 0.42290 0.06447 0.69059
 C635 C 0.43567 0.05461 0.66079
 C636 C 0.45488 0.07498 0.64368
 C637 C 0.46715 0.06589 0.61456
 C638 C 0.46037 0.03620 0.60206
 C639 C 0.44108 0.01580 0.61948
 C640 C 0.42881 0.02499 0.64867
 H641 H 0.44609 0.09280 0.76532
 H642 H 0.42558 0.11526 0.81441
 H643 H 0.33084 0.10407 0.77948
 H644 H 0.35161 0.08112 0.73075
 H645 H 0.46032 0.09797 0.65282
 H646 H 0.48190 0.08217 0.60181
 H647 H 0.43541 -0.00719 0.61054
 H648 H 0.41392 0.00904 0.66172
 C649 C 0.10320 0.91098 0.24185
 C650 C 0.11241 0.93040 0.26674
 C651 C 0.12400 0.91742 0.29468
 C652 C 0.12641 0.88484 0.29803
 C653 C 0.11730 0.86559 0.27277
 C654 C 0.10577 0.87859 0.24491
 C655 C 0.09070 0.92396 0.21322
 C656 C 0.07985 0.93379 0.18894
 C657 C 0.06646 0.94422 0.15965
 C658 C 0.07319 0.97399 0.14786
 C659 C 0.06041 0.98360 0.11906
 C660 C 0.04076 0.96347 0.10171
 C661 C 0.03407 0.93367 0.11391
 C662 C 0.04683 0.92416 0.14264
 H663 H 0.11044 0.95551 0.26464
 H664 H 0.13060 0.93280 0.31383
 H665 H 0.11937 0.84047 0.27443
 H666 H 0.09880 0.86335 0.22576
 H667 H 0.08839 0.98969 0.16084
 H668 H 0.06603 1.00667 0.11033
 H669 H 0.01904 0.91759 0.10122
 H670 H 0.04149 0.90105 0.15153
 C671 C 0.90209 0.40806 0.25682
 C672 C 0.90022 0.37549 0.25533
 C673 C 0.88949 0.36086 0.22792
 C674 C 0.88047 0.37866 0.20159
 C675 C 0.88258 0.41139 0.20326
 C676 C 0.89335 0.42598 0.23071
 C677 C 0.91265 0.42296 0.28530
 C678 C 0.92146 0.43500 0.30942
 C679 C 0.93202 0.44873 0.33851
 C680 C 0.91425 0.44497 0.36601
 C681 C 0.92518 0.45693 0.39463
 C682 C 0.95413 0.47280 0.39614
 C683 C 0.97156 0.47694 0.36823
 C684 C 0.96057 0.46494 0.33963
 H685 H 0.90683 0.36140 0.27545
 H686 H 0.88766 0.33567 0.22754
 H687 H 0.87607 0.42567 0.18326
 H688 H 0.89475 0.45120 0.23159
 H689 H 0.89214 0.43242 0.36540
 H690 H 0.91119 0.45332 0.41565
 H691 H 0.99394 0.48901 0.36856
 H692 H 0.97453 0.46794 0.31848
   
