data_POSCAR
  _audit_creation_date              2014-09-24
  _audit_creation_method            'ToBaCCo'
  _symmetry_space_group_name_H-M    'P1'
  _symmetry_Int_Tables_number       1
  _symmetry_cell_setting            triclinic
  loop_
  _symmetry_equiv_pos_as_xyz
 x,y,z
_cell_length_a 40.6735
_cell_length_b 40.4045
_cell_length_c 40.7726
_cell_angle_alpha 90.013800
_cell_angle_beta 90.022600
_cell_angle_gamma 89.954000
loop_
  _atom_site_label
  _atom_site_type_symbol
  _atom_site_fract_x
  _atom_site_fract_y
  _atom_site_fract_z
C1 C 0.33821 0.39097 1.36380
 C2 C 0.36112 0.39059 1.33810
 C3 C 0.38472 0.36607 1.33691
 C4 C 0.38582 0.34170 1.36128
 C5 C 0.36370 0.34242 1.38694
 C6 C 0.33947 0.36722 1.38808
 C7 C 0.31088 0.41003 1.36951
 N8 N 0.29484 0.39849 1.39665
 C9 C 0.31272 0.37228 1.40817
 C10 C 0.36973 0.31485 1.40591
 N11 N 0.39458 0.29699 1.39199
 C12 C 0.40441 0.31355 1.36459
 C13 C 0.40221 0.37035 1.30843
 N14 N 0.38978 0.39686 1.29205
 C15 C 0.36457 0.40942 1.31012
 H16 H 0.30350 0.43052 1.35419
 H17 H 0.30623 0.35651 1.42856
 H18 H 0.35558 0.30755 1.42718
 H19 H 0.42394 0.30609 1.34816
 H20 H 0.42240 0.35499 1.30023
 H21 H 0.34906 0.42995 1.30294
 C22 C 1.16250 0.60907 0.86344
 C23 C 1.13963 0.60944 0.83768
 C24 C 1.11605 0.63398 0.83642
 C25 C 1.11493 0.65838 0.86078
 C26 C 1.13701 0.65767 0.88649
 C27 C 1.16122 0.63286 0.88770
 C28 C 1.18979 0.58998 0.86923
 N29 N 1.20579 0.60152 0.89641
 C30 C 1.18792 0.62777 0.90787
 C31 C 1.13094 0.68524 0.90546
 N32 N 1.10610 0.70309 0.89148
 C33 C 1.09632 0.68653 0.86405
 C34 C 1.09858 0.62967 0.80792
 N35 N 1.11100 0.60311 0.79159
 C36 C 1.13618 0.59057 0.80972
 H37 H 1.19717 0.56946 0.85394
 H38 H 1.19439 0.64355 0.92827
 H39 H 1.14504 0.69254 0.92677
 H40 H 1.07681 0.69396 0.84759
 H41 H 1.07840 0.64502 0.79967
 H42 H 1.15168 0.57000 0.80259
 C43 C 0.66701 -0.11945 0.14142
 C44 C 0.64228 -0.11758 0.16529
 C45 C 0.61743 -0.14102 0.16603
 C46 C 0.61726 -0.16691 0.14298
 C47 C 0.64197 -0.16888 0.11995
 C48 C 0.66707 -0.14518 0.11924
 C49 C 0.69446 -0.10057 0.13521
 N50 N 0.71164 -0.11453 0.11002
 C51 C 0.69486 -0.14204 0.10032
 C52 C 0.63657 -0.19680 0.10167
 N53 N 0.60902 -0.21251 0.11281
 C54 C 0.59714 -0.19397 0.13828
 C55 C 0.59794 -0.13388 0.19276
 N56 N 0.61070 -0.10708 0.20837
 C57 C 0.63775 -0.09693 0.19170
 H58 H 0.70192 -0.07906 0.14917
 H59 H 0.70168 -0.15836 0.08042
 H60 H 0.65200 -0.20438 0.08148
 H61 H 0.57601 -0.19976 0.15325
 H62 H 0.57693 -0.14799 0.20112
 H63 H 0.65340 -0.07645 0.19874
 C64 C -0.16699 1.11970 -0.35881
 C65 C -0.14226 1.11790 -0.33491
 C66 C -0.11747 1.14141 -0.33414
 C67 C -0.11736 1.16728 -0.35720
 C68 C -0.14207 1.16919 -0.38026
 C69 C -0.16711 1.14542 -0.38100
 C70 C -0.19438 1.10073 -0.36504
 N71 N -0.21159 1.11462 -0.39025
 C72 C -0.19489 1.14217 -0.39994
 C73 C -0.13673 1.19712 -0.39854
 N74 N -0.10921 1.21288 -0.38738
 C75 C -0.09729 1.19438 -0.36190
 C76 C -0.09798 1.13433 -0.30738
 N77 N -0.11069 1.10751 -0.29179
 C78 C -0.13770 1.09728 -0.30850
 H79 H -0.20177 1.07922 -0.35107
 H80 H -0.20177 1.15846 -0.41985
 H81 H -0.15214 1.20465 -0.41877
 H82 H -0.07618 1.20024 -0.34691
 H83 H -0.07701 1.14849 -0.29899
 H84 H -0.15331 1.07677 -0.30150
 C85 C 0.66498 0.61822 0.64006
 C86 C 0.64059 0.61686 0.66430
 C87 C 0.61554 0.64015 0.66474
 C88 C 0.61485 0.66541 0.64103
 C89 C 0.63912 0.66683 0.61749
 C90 C 0.66432 0.64320 0.61695
 C91 C 0.69275 0.59959 0.63423
 N92 N 0.70900 0.61297 0.60834
 C93 C 0.69186 0.63971 0.59768
 C94 C 0.63348 0.69443 0.59883
 N95 N 0.60625 0.71054 0.61026
 C96 C 0.59474 0.69249 0.63621
 C97 C 0.59641 0.63354 0.69184
 N98 N 0.60953 0.60720 0.70793
 C99 C 0.63652 0.59685 0.69125
 H100 H 0.70102 0.57844 0.64830
 H101 H 0.69900 0.65553 0.57748
 H102 H 0.64862 0.70164 0.57830
 H103 H 0.57402 0.69878 0.65158
 H104 H 0.57529 0.64764 0.70001
 H105 H 0.65234 0.57658 0.69852
 C106 C 0.83460 0.38165 0.13987
 C107 C 0.85941 0.38349 0.16369
 C108 C 0.88417 0.35990 0.16449
 C109 C 0.88417 0.33391 0.14156
 C110 C 0.85939 0.33197 0.11858
 C111 C 0.83439 0.35582 0.11780
 C112 C 0.80714 0.40059 0.13371
 N113 N 0.78980 0.38655 0.10867
 C114 C 0.80650 0.35896 0.09901
 C115 C 0.86455 0.30387 0.10049
 N116 N 0.89203 0.28803 0.11169
 C117 C 0.90411 0.30666 0.13700
 C118 C 0.90367 0.36696 0.19125
 N119 N 0.89099 0.39385 0.20681
 C120 C 0.86401 0.40414 0.19008
 H121 H 0.79977 0.42214 0.14764
 H122 H 0.79952 0.34254 0.07924
 H123 H 0.84905 0.29626 0.08036
 H124 H 0.92521 0.30075 0.15200
 H125 H 0.92456 0.35270 0.19969
 H126 H 0.84839 0.42467 0.19710
 C127 C 0.33808 0.10820 0.86416
 C128 C 0.36158 0.10807 0.83897
 C129 C 0.38568 0.13209 0.83829
 C130 C 0.38670 0.15649 0.86264
 C131 C 0.36374 0.15643 0.88768
 C132 C 0.33915 0.13205 0.88836
 C133 C 0.31041 0.08955 0.86943
 N134 N 0.29408 0.10138 0.89628
 C135 C 0.31201 0.12743 0.90799
 C136 C 0.36948 0.18421 0.90647
 N137 N 0.39505 0.20112 0.89311
 C138 C 0.40570 0.18434 0.86631
 C139 C 0.40359 0.12751 0.81011
 N140 N 0.39090 0.10133 0.79340
 C141 C 0.36517 0.08924 0.81100
 H142 H 0.30310 0.06899 0.85416
 H143 H 0.30534 0.14335 0.92823
 H144 H 0.35525 0.19230 0.92743
 H145 H 0.42542 0.19221 0.85028
 H146 H 0.42413 0.14254 0.80224
 H147 H 0.34932 0.06914 0.80341
 C148 C 0.16150 0.89215 0.36422
 C149 C 0.13805 0.89222 0.33897
 C150 C 0.11396 0.86818 0.33825
 C151 C 0.11292 0.84382 0.36264
 C152 C 0.13584 0.84393 0.38773
 C153 C 0.16040 0.86834 0.38844
 C154 C 0.18917 0.91081 0.36952
 N155 N 0.20547 0.89902 0.39641
 C156 C 0.18753 0.87298 0.40811
 C157 C 0.13011 0.81617 0.40653
 N158 N 0.10459 0.79921 0.39311
 C159 C 0.09396 0.81594 0.36628
 C160 C 0.09612 0.87268 0.31001
 N161 N 0.10882 0.89883 0.29330
 C162 C 0.13450 0.91098 0.31096
 H163 H 0.19651 0.93134 0.35424
 H164 H 0.19418 0.85709 0.42837
 H165 H 0.14434 0.80812 0.42751
 H166 H 0.07429 0.80801 0.35020
 H167 H 0.07561 0.85762 0.30210
 H168 H 0.15036 0.93108 0.30339
 Zn169 Zn -0.00777 0.95722 0.01864
 Zn170 Zn -0.03997 1.01676 -0.00928
 Zn171 Zn 0.02565 1.02336 0.02387
 Zn172 Zn 0.01923 0.98864 -0.04116
 O173 O -0.00062 0.99660 -0.00189
 O174 O -0.05039 0.94897 0.02624
 O175 O -0.04209 1.05620 0.00968
 O176 O 0.03667 1.00391 0.06226
 O177 O -0.07414 0.99417 0.00679
 O178 O 0.01179 0.95548 0.05749
 O179 O 0.00591 1.06208 0.03450
 O180 O 0.05849 1.00759 -0.04345
 O181 O -0.04825 1.02402 -0.05191
 O182 O 0.06398 1.03376 0.00391
 O183 O -0.00333 1.00438 -0.07542
 O184 O 0.02637 0.94553 -0.04904
 O185 O 0.00794 0.92250 -0.00343
 C186 C -0.07587 0.96632 0.02100
 C187 C -0.02249 1.07304 0.02719
 C188 C 0.02958 0.97548 0.07360
 C189 C 0.07513 1.02557 -0.02410
 C190 C -0.03107 1.01862 -0.07734
 C191 C 0.02154 0.92021 -0.03130
 Zn192 Zn 0.48061 0.01119 0.45912
 Zn193 Zn 0.47408 -0.02353 0.52412
 Zn194 Zn 0.53974 -0.01712 0.49103
 Zn195 Zn 0.50769 0.04248 0.51898
 O196 O 0.50043 0.00315 0.49841
 O197 O 0.44128 -0.00764 0.45676
 O198 O 0.49364 -0.06238 0.53457
 O199 O 0.54803 -0.02426 0.44839
 O200 O 0.43569 -0.03374 0.50415
 O201 O 0.50315 -0.00453 0.42486
 O202 O 0.54166 -0.05668 0.50979
 O203 O 0.55033 0.05064 0.52656
 O204 O 0.46318 -0.00412 0.56256
 O205 O 0.57399 0.00533 0.50720
 O206 O 0.48819 0.04424 0.55784
 O207 O 0.49205 0.07726 0.49697
 O208 O 0.47356 0.05431 0.45131
 C209 C 0.42458 -0.02554 0.47613
 C210 C 0.52195 -0.07350 0.52717
 C211 C 0.53088 -0.01878 0.42295
 C212 C 0.57577 0.03323 0.52136
 C213 C 0.47037 0.02429 0.57393
 C214 C 0.47846 0.07960 0.46909
 Zn215 Zn 1.01983 0.51109 0.45885
 Zn216 Zn 1.02581 0.47625 0.52382
 Zn217 Zn 0.99215 0.54229 0.51849
 Zn218 Zn 0.96040 0.48287 0.49011
 O219 O 0.99965 0.50301 0.49791
 O220 O 1.05913 0.49218 0.45683
 O221 O 1.03683 0.49583 0.56215
 O222 O 1.00728 0.57717 0.49632
 O223 O 1.06426 0.46569 0.50404
 O224 O 1.02692 0.55423 0.45120
 O225 O 1.01191 0.54426 0.55722
 O226 O 0.92595 0.50547 0.50573
 O227 O 1.00592 0.43764 0.53446
 O228 O 0.94953 0.55017 0.52626
 O229 O 0.95815 0.44346 0.50913
 O230 O 0.95259 0.47562 0.44741
 O231 O 0.99760 0.49545 0.42430
 C232 C 1.07563 0.47405 0.47618
 C233 C 1.02981 0.52436 0.57334
 C234 C 1.02135 0.57960 0.46869
 C235 C 0.92403 0.53308 0.52042
 C236 C 0.97758 0.42668 0.52692
 C237 C 0.96992 0.48117 0.42213
 Zn238 Zn 0.48070 0.48893 0.95925
 Zn239 Zn 0.53998 0.51723 0.99084
 Zn240 Zn 0.47451 0.52357 1.02432
 Zn241 Zn 0.50835 0.45756 1.01881
 O242 O 0.50078 0.49693 0.99841
 O243 O 0.50305 0.50467 0.92486
 O244 O 0.54197 0.55665 1.00980
 O245 O 0.43603 0.53401 1.00451
 O246 O 0.54797 0.52449 0.94820
 O247 O 0.44139 0.50782 0.95715
 O248 O 0.49418 0.56230 1.03505
 O249 O 0.48868 0.45551 1.05759
 O250 O 0.57442 0.49484 1.00677
 O251 O 0.46361 0.50387 1.06258
 O252 O 0.55102 0.44961 1.02646
 O253 O 0.49313 0.42276 0.99656
 O254 O 0.47360 0.44582 0.95146
 C255 C 0.53072 0.51898 0.92283
 C256 C 0.52246 0.57337 1.02753
 C257 C 0.42477 0.52578 0.97655
 C258 C 0.47075 0.47537 1.07375
 C259 C 0.57637 0.46704 1.02107
 C260 C 0.47908 0.42040 0.96891
 C261 C 1.20356 0.43164 0.43210
 C262 C 1.22171 0.40883 0.45061
 C263 C 1.25246 0.39810 0.43899
 C264 C 1.26530 0.40989 0.40879
 C265 C 1.24641 0.43333 0.39103
 C266 C 1.21575 0.44406 0.40242
 C267 C 1.17099 0.44256 0.44384
 C268 C 1.15280 0.46509 0.42496
 C269 C 1.12178 0.47513 0.43588
 C270 C 1.10871 0.46295 0.46555
 C271 C 1.12739 0.44049 0.48439
 C272 C 1.15859 0.43014 0.47354
 C273 C 1.19685 0.46677 0.38435
 C274 C 1.16589 0.47709 0.39542
 C275 C 1.20862 0.39705 0.48034
 C276 C 1.17763 0.40753 0.49160
 H277 H 1.20600 0.47654 0.36136
 H278 H 1.15206 0.49453 0.38068
 H279 H 1.22238 0.37946 0.49498
 H280 H 1.16845 0.39772 0.51457
 H281 H 1.26616 0.38081 0.45388
 H282 H 1.25465 0.44289 0.36774
 H283 H 1.10783 0.49252 0.42116
 H284 H 1.11763 0.43096 0.50724
 C285 C 0.29694 0.56824 0.93214
 C286 C 0.27877 0.59108 0.95061
 C287 C 0.24807 0.60185 0.93888
 C288 C 0.23528 0.59008 0.90864
 C289 C 0.25418 0.56661 0.89093
 C290 C 0.28480 0.55584 0.90242
 C291 C 0.32947 0.55728 0.94398
 C292 C 0.34768 0.53474 0.92515
 C293 C 0.37867 0.52467 0.93615
 C294 C 0.39169 0.53685 0.96586
 C295 C 0.37298 0.55932 0.98466
 C296 C 0.34181 0.56969 0.97372
 C297 C 0.30371 0.53310 0.88441
 C298 C 0.33464 0.52275 0.89557
 C299 C 0.29181 0.60285 0.98038
 C300 C 0.32276 0.59233 0.99174
 H301 H 0.29461 0.52334 0.86138
 H302 H 0.34849 0.50529 0.88086
 H303 H 0.27804 0.62046 0.99498
 H304 H 0.33190 0.60213 1.01474
 H305 H 0.23436 0.61917 0.95373
 H306 H 0.24599 0.55706 0.86761
 H307 H 0.39264 0.50727 0.92146
 H308 H 0.38271 0.56886 1.00753
 C309 C -0.19956 0.91974 0.07081
 C310 C -0.20794 0.88626 0.06742
 C311 C -0.23801 0.87503 0.08000
 C312 C -0.25932 0.89672 0.09709
 C313 C -0.24998 0.93026 0.10060
 C314 C -0.22051 0.94195 0.08704
 C315 C -0.16812 0.93174 0.05729
 C316 C -0.16022 0.96547 0.05981
 C317 C -0.13035 0.97677 0.04684
 C318 C -0.10802 0.95438 0.03258
 C319 C -0.11610 0.92060 0.03054
 C320 C -0.14644 0.90921 0.04240
 C321 C -0.21163 0.97549 0.08927
 C322 C -0.18212 0.98710 0.07565
 C323 C -0.18588 0.86456 0.05183
 C324 C -0.15553 0.87578 0.03979
 H325 H -0.22768 0.99294 0.10157
 H326 H -0.17625 1.01316 0.07784
 H327 H -0.19199 0.83860 0.04918
 H328 H -0.13910 0.85816 0.02825
 H329 H -0.24393 0.84904 0.07765
 H330 H -0.26611 0.94770 0.11274
 H331 H -0.12396 1.00275 0.04877
 H332 H -0.09895 0.90337 0.01944
 C333 C 0.69960 0.08007 0.57071
 C334 C 0.70791 0.11356 0.56723
 C335 C 0.73800 0.12488 0.57973
 C336 C 0.75939 0.10327 0.59683
 C337 C 0.75012 0.06971 0.60040
 C338 C 0.72063 0.05794 0.58693
 C339 C 0.66813 0.06798 0.55731
 C340 C 0.66028 0.03425 0.55992
 C341 C 0.63037 0.02287 0.54708
 C342 C 0.60796 0.04520 0.53283
 C343 C 0.61600 0.07899 0.53068
 C344 C 0.64637 0.09044 0.54242
 C345 C 0.71182 0.02439 0.58926
 C346 C 0.68227 0.01270 0.57574
 C347 C 0.68577 0.13519 0.55165
 C348 C 0.65540 0.12388 0.53971
 H349 H 0.72793 0.00700 0.60155
 H350 H 0.67644 -0.01337 0.57801
 H351 H 0.69183 0.16115 0.54893
 H352 H 0.63890 0.14144 0.52817
 H353 H 0.74387 0.15088 0.57732
 H354 H 0.76631 0.05233 0.61255
 H355 H 0.62402 -0.00311 0.54908
 H356 H 0.59879 0.09617 0.51959
 C357 C 0.43126 0.20594 0.42470
 C358 C 0.43479 0.21472 0.39164
 C359 C 0.42304 0.24550 0.38095
 C360 C 0.40670 0.26724 0.40279
 C361 C 0.40300 0.25751 0.43591
 C362 C 0.41571 0.22723 0.44705
 C363 C 0.44393 0.17373 0.43611
 C364 C 0.44132 0.16538 0.46943
 C365 C 0.45357 0.13482 0.48017
 C366 C 0.46729 0.11230 0.45765
 C367 C 0.46939 0.12082 0.42428
 C368 C 0.45821 0.15181 0.41344
 C369 C 0.41332 0.21787 0.48016
 C370 C 0.42614 0.18759 0.49121
 C371 C 0.44968 0.19237 0.36976
 C372 C 0.46094 0.16133 0.38043
 H373 H 0.40154 0.23415 0.49772
 H374 H 0.42387 0.18137 0.51696
 H375 H 0.45241 0.19881 0.34411
 H376 H 0.47200 0.14472 0.36272
 H377 H 0.42544 0.25166 0.35525
 H378 H 0.39136 0.27389 0.45342
 H379 H 0.45161 0.12811 0.50585
 H380 H 0.48008 0.10354 0.40695
 C381 C 0.92904 0.30209 0.57582
 C382 C 0.94729 0.28409 0.59890
 C383 C 0.93453 0.25422 0.61122
 C384 C 0.90353 0.24208 0.60064
 C385 C 0.88585 0.26104 0.57727
 C386 C 0.89839 0.29074 0.56491
 C387 C 0.94211 0.33358 0.56294
 C388 C 0.92353 0.35158 0.54009
 C389 C 0.93568 0.38163 0.52825
 C390 C 0.96621 0.39403 0.53906
 C391 C 0.98480 0.37549 0.56181
 C392 C 0.97275 0.34521 0.57390
 C393 C 0.88061 0.30944 0.54188
 C394 C 0.89297 0.33934 0.52967
 C395 C 0.97797 0.29639 0.60919
 C396 C 0.99047 0.32640 0.59692
 H397 H 0.85687 0.30092 0.53326
 H398 H 0.87843 0.35305 0.51202
 H399 H 0.99242 0.28276 0.62697
 H400 H 1.01414 0.33499 0.60563
 H401 H 0.94923 0.24054 0.62863
 H402 H 0.86186 0.25352 0.56881
 H403 H 0.92110 0.39549 0.51071
 H404 H 1.00828 0.38477 0.57036
 C405 C 0.06917 0.79404 -0.07577
 C406 C 0.06572 0.78528 -0.10886
 C407 C 0.07756 0.75454 -0.11955
 C408 C 0.09391 0.73281 -0.09770
 C409 C 0.09754 0.74254 -0.06457
 C410 C 0.08474 0.77277 -0.05342
 C411 C 0.05638 0.82621 -0.06434
 C412 C 0.05892 0.83453 -0.03101
 C413 C 0.04656 0.86505 -0.02024
 C414 C 0.03281 0.88755 -0.04276
 C415 C 0.03079 0.87905 -0.07616
 C416 C 0.04208 0.84811 -0.08701
 C417 C 0.08705 0.78210 -0.02029
 C418 C 0.07413 0.81234 -0.00922
 C419 C 0.05080 0.80762 -0.13073
 C420 C 0.03943 0.83861 -0.12004
 H421 H 0.09885 0.76585 -0.00273
 H422 H 0.07634 0.81854 0.01654
 H423 H 0.04813 0.80120 -0.15639
 H424 H 0.02835 0.85521 -0.13776
 H425 H 0.07521 0.74840 -0.14527
 H426 H 0.10919 0.72617 -0.04705
 H427 H 0.04847 0.87173 0.00545
 H428 H 0.02008 0.89633 -0.09349
 C429 C 0.57075 0.69822 1.07610
 C430 C 0.55261 0.71614 1.09932
 C431 C 0.56536 0.74604 1.11160
 C432 C 0.59625 0.75828 1.10084
 C433 C 0.61381 0.73940 1.07732
 C434 C 0.60127 0.70968 1.06500
 C435 C 0.55770 0.66668 1.06330
 C436 C 0.57618 0.64877 1.04031
 C437 C 0.56409 0.61866 1.02856
 C438 C 0.53370 0.60611 1.03959
 C439 C 0.51519 0.62456 1.06245
 C440 C 0.52720 0.65492 1.07446
 C441 C 0.61895 0.69107 1.04183
 C442 C 0.60660 0.66113 1.02969
 C443 C 0.52205 0.70372 1.10981
 C444 C 0.50958 0.67366 1.09761
 H445 H 0.64258 0.69968 1.03306
 H446 H 0.62107 0.64748 1.01193
 H447 H 0.50769 0.71728 1.12770
 H448 H 0.48601 0.66496 1.10648
 H449 H 0.55075 0.75965 1.12914
 H450 H 0.63770 0.74701 1.06868
 H451 H 0.57859 0.60487 1.01092
 H452 H 0.49183 0.61517 1.07117
 C453 C 0.42267 0.43072 1.19903
 C454 C 0.42662 0.39731 1.20758
 C455 C 0.41542 0.38633 1.23814
 C456 C 0.40058 0.40847 1.26038
 C457 C 0.39664 0.44195 1.25130
 C458 C 0.40764 0.45319 1.22059
 C459 C 0.43463 0.44238 1.16691
 C460 C 0.43071 0.47579 1.15818
 C461 C 0.44230 0.48670 1.12754
 C462 C 0.45794 0.46441 1.10598
 C463 C 0.46153 0.43100 1.11529
 C464 C 0.44989 0.41986 1.14559
 C465 C 0.40412 0.48645 1.21104
 C466 C 0.41540 0.49754 1.18036
 C467 C 0.44179 0.37549 1.18545
 C468 C 0.45329 0.38659 1.15498
 H469 H 0.39256 0.50407 1.22743
 H470 H 0.41221 0.52338 1.17400
 H471 H 0.44494 0.34963 1.19179
 H472 H 0.46498 0.36899 1.13866
 H473 H 0.41800 0.36043 1.24442
 H474 H 0.38555 0.45929 1.26826
 H475 H 0.43943 0.51245 1.12066
 H476 H 0.47331 0.41351 1.09889
 C477 C 0.57699 -0.06743 0.29853
 C478 C 0.55407 -0.07584 0.27412
 C479 C 0.56532 -0.08917 0.24438
 C480 C 0.59919 -0.09340 0.23881
 C481 C 0.62184 -0.08445 0.26338
 C482 C 0.61086 -0.07179 0.29345
 C483 C 0.56529 -0.05411 0.33013
 C484 C 0.58814 -0.04675 0.35492
 C485 C 0.57681 -0.03497 0.38526
 C486 C 0.54296 -0.02995 0.39060
 C487 C 0.52046 -0.03683 0.36520
 C488 C 0.53146 -0.04932 0.33505
 C489 C 0.63301 -0.06369 0.31866
 C490 C 0.62183 -0.05156 0.34894
 C491 C 0.52040 -0.07076 0.27999
 C492 C 0.50931 -0.05756 0.30988
 H493 H 0.65919 -0.06701 0.31505
 H494 H 0.63971 -0.04589 0.36783
 H495 H 0.50248 -0.07703 0.26134
 H496 H 0.48313 -0.05405 0.31341
 H497 H 0.54791 -0.09587 0.22538
 H498 H 0.64791 -0.08808 0.25926
 H499 H 0.59426 -0.02961 0.40464
 H500 H 0.49434 -0.03335 0.36924
 C501 C -0.07704 1.06773 -0.20165
 C502 C -0.05410 1.07622 -0.22599
 C503 C -0.06532 1.08964 -0.25571
 C504 C -0.09920 1.09384 -0.26133
 C505 C -0.12187 1.08482 -0.23683
 C506 C -0.11091 1.07209 -0.20677
 C507 C -0.06538 1.05429 -0.17008
 C508 C -0.08826 1.04684 -0.14536
 C509 C -0.07695 1.03494 -0.11505
 C510 C -0.04311 1.02990 -0.10967
 C511 C -0.02058 1.03689 -0.13499
 C512 C -0.03156 1.04949 -0.16512
 C513 C -0.13308 1.06390 -0.18164
 C514 C -0.12194 1.05166 -0.15138
 C515 C -0.02044 1.07113 -0.22006
 C516 C -0.00937 1.05783 -0.19021
 H517 H -0.15927 1.06722 -0.18529
 H518 H -0.13984 1.04592 -0.13256
 H519 H -0.00250 1.07747 -0.23866
 H520 H 0.01679 1.05431 -0.18664
 H521 H -0.04790 1.09638 -0.27466
 H522 H -0.14794 1.08844 -0.24099
 H523 H -0.09443 1.02950 -0.09573
 H524 H 0.00553 1.03339 -0.13092
 C525 C 1.07809 0.56912 0.69857
 C526 C 1.07422 0.60256 0.70707
 C527 C 1.08543 0.61358 0.73762
 C528 C 1.10020 0.59145 0.75992
 C529 C 1.10408 0.55795 0.75089
 C530 C 1.09307 0.54666 0.72019
 C531 C 1.06611 0.55742 0.66646
 C532 C 1.06995 0.52399 0.65778
 C533 C 1.05831 0.51303 0.62716
 C534 C 1.04270 0.53532 0.60555
 C535 C 1.03922 0.56877 0.61481
 C536 C 1.05090 0.57994 0.64510
 C537 C 1.09651 0.51338 0.71069
 C538 C 1.08520 0.50225 0.68001
 C539 C 1.05911 0.62438 0.68489
 C540 C 1.04758 0.61324 0.65443
 H541 H 1.10803 0.49576 0.72712
 H542 H 1.08833 0.47639 0.67369
 H543 H 1.05602 0.65025 0.69119
 H544 H 1.03593 0.63083 0.63808
 H545 H 1.08290 0.63950 0.74386
 H546 H 1.11513 0.54062 0.76789
 H547 H 1.06110 0.48726 0.62031
 H548 H 1.02748 0.58626 0.59839
 C549 C 0.79953 0.57926 0.56929
 C550 C 0.79443 0.61334 0.57379
 C551 C 0.76427 0.62435 0.58638
 C552 C 0.73968 0.60150 0.59510
 C553 C 0.74529 0.56742 0.59076
 C554 C 0.77509 0.55615 0.57750
 C555 C 0.83115 0.56753 0.55594
 C556 C 0.83606 0.53350 0.55094
 C557 C 0.86624 0.52247 0.53839
 C558 C 0.89165 0.54514 0.53166
 C559 C 0.88633 0.57919 0.53688
 C560 C 0.85598 0.59056 0.54872
 C561 C 0.78096 0.52229 0.57225
 C562 C 0.81086 0.51117 0.55903
 C563 C 0.81967 0.63566 0.56585
 C564 C 0.85000 0.62444 0.55370
 H565 H 0.76226 0.50423 0.57837
 H566 H 0.81439 0.48484 0.55536
 H567 H 0.81605 0.66200 0.56928
 H568 H 0.86891 0.64246 0.54814
 H569 H 0.76007 0.65058 0.59003
 H570 H 0.72623 0.54986 0.59722
 H571 H 0.87028 0.49620 0.53474
 H572 H 0.90574 0.59677 0.53162
 C573 C 0.70062 0.42072 1.07003
 C574 C 0.72167 0.44298 1.08602
 C575 C 0.75129 0.43134 1.09937
 C576 C 0.76065 0.39778 1.09590
 C577 C 0.73922 0.37604 1.07905
 C578 C 0.70903 0.38723 1.06666
 C579 C 0.66903 0.43267 1.05674
 C580 C 0.64727 0.41008 1.04209
 C581 C 0.61680 0.42141 1.03044
 C582 C 0.60866 0.45520 1.03246
 C583 C 0.63106 0.47765 1.04647
 C584 C 0.66108 0.46640 1.05922
 C585 C 0.68687 0.36547 1.05132
 C586 C 0.65640 0.37665 1.03950
 C587 C 0.71274 0.47652 1.08823
 C588 C 0.68309 0.48808 1.07482
 H589 H 0.69301 0.33950 1.04870
 H590 H 0.63990 0.35899 1.02814
 H591 H 0.72886 0.49402 1.10034
 H592 H 0.67718 0.51415 1.07699
 H593 H 0.76749 0.44881 1.11134
 H594 H 0.74516 0.35004 1.07673
 H595 H 0.59959 0.40414 1.01953
 H596 H 0.62463 0.50363 1.04837
 C597 C 0.20268 1.06846 -0.06858
 C598 C 0.22099 1.09090 -0.04982
 C599 C 0.25171 1.10165 -0.06142
 C600 C 0.26441 1.09018 -0.09180
 C601 C 0.24533 1.06718 -0.10989
 C602 C 0.21468 1.05645 -0.09852
 C603 C 0.17019 1.05744 -0.05679
 C604 C 0.15184 1.03524 -0.07588
 C605 C 0.12091 1.02506 -0.06487
 C606 C 0.10810 1.03678 -0.03489
 C607 C 0.12693 1.05893 -0.01587
 C608 C 0.15802 1.06941 -0.02681
 C609 C 0.19561 1.03410 -0.11684
 C610 C 0.16471 1.02369 -0.10571
 C611 C 0.20811 1.10227 -0.01983
 C612 C 0.17720 1.09170 -0.00852
 H613 H 0.20460 1.02466 -0.14004
 H614 H 0.15076 1.00652 -0.12063
 H615 H 0.22200 1.11958 -0.00500
 H616 H 0.16819 1.10116 0.01467
 H617 H 0.26558 1.11859 -0.04630
 H618 H 0.25345 1.05802 -0.13339
 H619 H 0.10684 1.00792 -0.07974
 H620 H 0.11736 1.06812 0.00721
 C621 C 0.29690 -0.06813 0.43161
 C622 C 0.28492 -0.05612 0.40167
 C623 C 0.25424 -0.06682 0.39028
 C624 C 0.23514 -0.08979 0.40836
 C625 C 0.24783 -0.10125 0.43876
 C626 C 0.27857 -0.09054 0.45037
 C627 C 0.32942 -0.05717 0.44341
 C628 C 0.34158 -0.06916 0.47340
 C629 C 0.37270 -0.05875 0.48435
 C630 C 0.39156 -0.03665 0.46532
 C631 C 0.37876 -0.02490 0.43535
 C632 C 0.34780 -0.03502 0.42433
 C633 C 0.29143 -0.10192 0.48037
 C634 C 0.32237 -0.09141 0.49168
 C635 C 0.30401 -0.03381 0.38337
 C636 C 0.33493 -0.02346 0.39450
 H637 H 0.27752 -0.11920 0.49518
 H638 H 0.33137 -0.10087 0.51487
 H639 H 0.29503 -0.02436 0.36016
 H640 H 0.34892 -0.00631 0.37958
 H641 H 0.24613 -0.05765 0.36678
 H642 H 0.23394 -0.11816 0.45386
 H643 H 0.38226 -0.06796 0.50742
 H644 H 0.39287 -0.00780 0.42048
 C645 C 0.56878 -0.19955 0.57421
 C646 C 0.55064 -0.21727 0.59754
 C647 C 0.56307 -0.24745 0.60952
 C648 C 0.59365 -0.26014 0.59835
 C649 C 0.61116 -0.24152 0.57462
 C650 C 0.59895 -0.21150 0.56263
 C651 C 0.55612 -0.16767 0.56181
 C652 C 0.57464 -0.14991 0.53876
 C653 C 0.56294 -0.11946 0.52742
 C654 C 0.53288 -0.10647 0.53889
 C655 C 0.51432 -0.12478 0.56179
 C656 C 0.52596 -0.15543 0.57343
 C657 C 0.61666 -0.19306 0.53938
 C658 C 0.60470 -0.16278 0.52765
 C659 C 0.52042 -0.20437 0.60848
 C660 C 0.50830 -0.17401 0.59664
 H661 H 0.64003 -0.20206 0.53025
 H662 H 0.61919 -0.14926 0.50983
 H663 H 0.50605 -0.21779 0.62646
 H664 H 0.48499 -0.16495 0.60585
 H665 H 0.54848 -0.26088 0.62717
 H666 H 0.63482 -0.24951 0.56565
 H667 H 0.57745 -0.10579 0.50972
 H668 H 0.49121 -0.11503 0.57084
 C669 C 1.06805 0.70651 0.42503
 C670 C 1.07545 0.73104 0.44833
 C671 C 1.08793 0.76156 0.43768
 C672 C 1.09229 0.76778 0.40402
 C673 C 1.08448 0.74303 0.38099
 C674 C 1.07265 0.71220 0.39138
 C675 C 1.05540 0.67420 0.43608
 C676 C 1.04890 0.64935 0.41286
 C677 C 1.03759 0.61840 0.42359
 C678 C 1.03221 0.61250 0.45720
 C679 C 1.03832 0.63791 0.48008
 C680 C 1.05029 0.66870 0.46969
 C681 C 1.06551 0.68689 0.36884
 C682 C 1.05400 0.65593 0.37941
 C683 C 1.07013 0.72454 0.48176
 C684 C 1.05761 0.69395 0.49224
 H685 H 1.06903 0.69098 0.34281
 H686 H 1.04901 0.63701 0.36125
 H687 H 1.07564 0.74328 0.49996
 H688 H 1.05383 0.68995 0.51825
 H689 H 1.09371 0.78071 0.45538
 H690 H 1.08821 0.74767 0.35508
 H691 H 1.03284 0.59899 0.40584
 H692 H 1.03455 0.63346 0.50603
 C693 C -0.07035 1.19824 0.07550
 C694 C -0.10107 1.20959 0.06478
 C695 C -0.11341 1.23948 0.07694
 C696 C -0.09544 1.25863 0.09992
 C697 C -0.06438 1.24647 0.11035
 C698 C -0.05182 1.21641 0.09821
 C699 C -0.05747 1.16656 0.06282
 C700 C -0.02675 1.15493 0.07357
 C701 C -0.01487 1.12449 0.06163
 C702 C -0.03372 1.10580 0.03924
 C703 C -0.06436 1.11818 0.02865
 C704 C -0.07632 1.14839 0.04033
 C705 C -0.02106 1.20410 0.10832
 C706 C -0.00876 1.17391 0.09623
 C707 C -0.11913 1.19072 0.04213
 C708 C -0.10696 1.16064 0.03010
 H709 H -0.00640 1.21786 0.12582
 H710 H 0.01499 1.16533 0.10478
 H711 H -0.14293 1.19924 0.03366
 H712 H -0.12171 1.14679 0.01274
 H713 H -0.13747 1.24701 0.06866
 H714 H -0.04946 1.26030 0.12745
 H715 H 0.00869 1.11522 0.07001
 H716 H -0.07913 1.10421 0.01138
 C717 C 0.43188 0.29369 0.92511
 C718 C 0.42438 0.26919 0.94839
 C719 C 0.41179 0.23872 0.93772
 C720 C 0.40743 0.23252 0.90405
 C721 C 0.41533 0.25723 0.88104
 C722 C 0.42727 0.28802 0.89145
 C723 C 0.44467 0.32595 0.93620
 C724 C 0.45127 0.35077 0.91299
 C725 C 0.46271 0.38168 0.92375
 C726 C 0.46811 0.38755 0.95737
 C727 C 0.46189 0.36216 0.98023
 C728 C 0.44980 0.33143 0.96981
 C729 C 0.43452 0.31330 0.86893
 C730 C 0.44616 0.34421 0.87954
 C731 C 0.42972 0.27567 0.98183
 C732 C 0.44237 0.30620 0.99234
 H733 H 0.43099 0.30923 0.84290
 H734 H 0.45123 0.36311 0.86139
 H735 H 0.42414 0.25695 1.00001
 H736 H 0.44616 0.31018 1.01835
 H737 H 0.40593 0.21959 0.95540
 H738 H 0.41160 0.25261 0.85512
 H739 H 0.46754 0.40107 0.90603
 H740 H 0.46567 0.36659 1.00618
 C741 C 0.57623 0.56792 0.79835
 C742 C 0.55321 0.57615 0.77397
 C743 C 0.56432 0.58945 0.74417
 C744 C 0.59816 0.59382 0.73853
 C745 C 0.62091 0.58510 0.76309
 C746 C 0.61006 0.57246 0.79322
 C747 C 0.56468 0.55454 0.82997
 C748 C 0.58763 0.54731 0.85472
 C749 C 0.57643 0.53544 0.88505
 C750 C 0.54263 0.53022 0.89045
 C751 C 0.52003 0.53697 0.86511
 C752 C 0.53090 0.54953 0.83494
 C753 C 0.63231 0.56451 0.81839
 C754 C 0.62127 0.55232 0.84869
 C755 C 0.51959 0.57087 0.77990
 C756 C 0.50864 0.55763 0.80980
 H757 H 0.65846 0.56798 0.81473
 H758 H 0.63922 0.54676 0.86754
 H759 H 0.50160 0.57700 0.76126
 H760 H 0.48250 0.55396 0.81338
 H761 H 0.54683 0.59594 0.72517
 H762 H 0.64695 0.58882 0.75891
 H763 H 0.59397 0.53018 0.90440
 H764 H 0.49395 0.53332 0.86918
 C765 C 0.42341 0.06802 0.70001
 C766 C 0.40804 0.04554 0.72130
 C767 C 0.39724 0.05659 0.75215
 C768 C 0.40172 0.08988 0.76167
 C769 C 0.41694 0.11202 0.73973
 C770 C 0.42792 0.10124 0.70901
 C771 C 0.43507 0.05659 0.66769
 C772 C 0.45061 0.07914 0.64663
 C773 C 0.46194 0.06822 0.61612
 C774 C 0.45780 0.03501 0.60635
 C775 C 0.44189 0.01269 0.62767
 C776 C 0.43058 0.02339 0.65850
 C777 C 0.44339 0.12309 0.68714
 C778 C 0.45459 0.11220 0.65648
 C779 C 0.40396 0.01249 0.71130
 C780 C 0.41499 0.00161 0.68043
 H781 H 0.44697 0.14879 0.69383
 H782 H 0.46651 0.12981 0.64036
 H783 H 0.39214 -0.00514 0.72746
 H784 H 0.41135 -0.02407 0.67372
 H785 H 0.38583 0.03925 0.76888
 H786 H 0.41993 0.13779 0.74634
 H787 H 0.47394 0.08573 0.59994
 H788 H 0.43860 -0.01291 0.62044
 C789 C 0.07650 0.93194 0.19977
 C790 C 0.09175 0.95448 0.22109
 C791 C 0.10250 0.94350 0.25200
 C792 C 0.09807 0.91022 0.26152
 C793 C 0.08296 0.88801 0.23955
 C794 C 0.07203 0.89872 0.20878
 C795 C 0.06488 0.94331 0.16741
 C796 C 0.04944 0.92070 0.14632
 C797 C 0.03813 0.93156 0.11578
 C798 C 0.04219 0.96479 0.10601
 C799 C 0.05801 0.98716 0.12736
 C800 C 0.06930 0.97652 0.15823
 C801 C 0.05668 0.87681 0.18688
 C802 C 0.04552 0.88764 0.15617
 C803 C 0.09579 0.98754 0.21109
 C804 C 0.08479 0.99835 0.18018
 H805 H 0.05314 0.85111 0.19357
 H806 H 0.03367 0.86998 0.14003
 H807 H 0.10752 1.00521 0.22728
 H808 H 0.08838 1.02404 0.17347
 H809 H 0.11383 0.96088 0.26875
 H810 H 0.08000 0.86224 0.24617
 H811 H 0.02620 0.91401 0.09957
 H812 H 0.06124 1.01276 0.12014
 C813 C 0.92440 0.43305 0.29728
 C814 C 0.94742 0.42461 0.27298
 C815 C 0.93628 0.41142 0.24313
 C816 C 0.90241 0.40739 0.23735
 C817 C 0.87967 0.41638 0.26181
 C818 C 0.89054 0.42888 0.29199
 C819 C 0.93597 0.44622 0.32899
 C820 C 0.91301 0.45362 0.35366
 C821 C 0.92422 0.46526 0.38410
 C822 C 0.95805 0.47010 0.38967
 C823 C 0.98067 0.46318 0.36440
 C824 C 0.96979 0.45083 0.33414
 C825 C 0.86829 0.43702 0.31708
 C826 C 0.87934 0.44900 0.34747
 C827 C 0.98107 0.42950 0.27908
 C828 C 0.99205 0.44255 0.30908
 H829 H 0.84211 0.43384 0.31330
 H830 H 0.86138 0.45470 0.36626
 H831 H 0.99907 0.42320 0.26052
 H832 H 1.01822 0.44593 0.31278
 H833 H 0.95376 0.40469 0.22421
 H834 H 0.85361 0.41288 0.25754
 H835 H 0.90666 0.47066 0.40338
 H836 H 1.00678 0.46655 0.36862
   
