data_POSCAR
  _audit_creation_date              2014-09-24
  _audit_creation_method            'ToBaCCo'
  _symmetry_space_group_name_H-M    'P1'
  _symmetry_Int_Tables_number       1
  _symmetry_cell_setting            triclinic
  loop_
  _symmetry_equiv_pos_as_xyz
 x,y,z
_cell_length_a 19.9301
_cell_length_b 20.5141
_cell_length_c 20.2023
_cell_angle_alpha 89.781600
_cell_angle_beta 90.162800
_cell_angle_gamma 90.572200
loop_
  _atom_site_label
  _atom_site_type_symbol
  _atom_site_fract_x
  _atom_site_fract_y
  _atom_site_fract_z
N1 N 0.59417 0.11445 0.03596
 N2 N 0.64652 0.14623 0.05981
 N3 N 0.44821 0.13651 -0.01711
 N4 N 0.39299 0.16948 -0.03118
 N5 N 0.45513 0.12986 0.04715
 N6 N 0.40570 0.15809 0.07839
 N7 N 0.58858 0.12389 -0.02788
 N8 N 0.63648 0.16371 -0.04937
 C9 C 0.67275 0.17611 0.00602
 C10 C 0.36766 0.18310 0.02945
 N11 N 0.42066 -0.01447 -0.13321
 N12 N 0.36453 -0.02499 -0.16723
 N13 N 0.57135 0.03326 -0.13392
 N14 N 0.63210 0.05046 -0.15335
 N15 N 0.56004 -0.02893 -0.14541
 N16 N 0.61468 -0.05490 -0.17927
 N17 N 0.43078 0.04845 -0.12542
 N18 N 0.38203 0.08210 -0.15225
 Mn19 Mn 0.50966 0.08581 -0.07694
 C20 C 0.34114 0.03624 -0.17811
 C21 C 0.65772 -0.00348 -0.18177
 N22 N 0.44854 0.02232 0.13742
 N23 N 0.39784 0.05011 0.16753
 N24 N 0.57849 -0.05576 0.12535
 N25 N 0.63039 -0.08544 0.15329
 N26 N 0.58890 0.00731 0.12357
 N27 N 0.65325 0.02209 0.14525
 N28 N 0.43802 -0.04078 0.13228
 N29 N 0.37963 -0.05737 0.15900
 Mn30 Mn 0.52187 0.06850 0.08652
 C31 C 0.35597 0.00006 0.18175
 C32 C 0.67593 -0.03676 0.16451
 N33 N 0.55675 -0.13744 -0.05134
 N34 N 0.61184 -0.16053 -0.07883
 N35 N 0.42029 -0.13024 0.02327
 N36 N 0.37192 -0.16815 0.04648
 N37 N 0.41626 -0.12561 -0.04159
 N38 N 0.36545 -0.16137 -0.06410
 N39 N 0.56026 -0.14319 0.01369
 N40 N 0.61756 -0.16967 0.03132
 Mn41 Mn 0.48807 -0.07738 -0.09361
 Mn42 Mn 0.49900 -0.09332 0.07411
 Cl43 Cl 0.50437 -0.00419 -0.00258
 C44 C 0.64839 -0.18173 -0.02660
 C45 C 0.33817 -0.18710 -0.00834
 N46 N 0.10898 0.40089 0.04122
 N47 N 0.13974 0.35360 0.07237
 N48 N 0.14976 0.53035 -0.03230
 N49 N 0.18196 0.58231 -0.05598
 N50 N 0.14556 0.53388 0.03259
 N51 N 0.17455 0.58793 0.05387
 N52 N 0.11699 0.39601 -0.02305
 N53 N 0.15557 0.34548 -0.03692
 C54 C 0.16782 0.31889 0.02354
 C55 C 0.19856 0.61696 -0.00129
 N56 N -0.00712 0.56120 -0.14491
 N57 N -0.01308 0.61345 -0.18334
 N58 N 0.02050 0.41165 -0.13186
 N59 N 0.03016 0.35645 -0.16442
 N60 N -0.04289 0.42860 -0.13558
 N61 N -0.07793 0.38538 -0.16931
 N62 N 0.05604 0.54421 -0.13962
 N63 N 0.09620 0.58742 -0.17493
 Mn64 Mn 0.08642 0.47003 -0.08230
 C65 C 0.05096 0.62890 -0.20106
 C66 C -0.03221 0.34083 -0.18716
 N67 N 0.04281 0.56371 0.12539
 N68 N 0.07790 0.60631 0.15981
 N69 N -0.05731 0.44847 0.13003
 N70 N -0.09579 0.40800 0.16402
 N71 N 0.00574 0.43114 0.13422
 N72 N 0.01184 0.37827 0.17161
 N73 N -0.02029 0.58080 0.12178
 N74 N -0.03018 0.63544 0.15495
 Mn75 Mn 0.07616 0.48204 0.08353
 C76 C 0.03205 0.65063 0.17786
 C77 C -0.05225 0.36462 0.18985
 N78 N -0.14650 0.45830 -0.04207
 N79 N -0.17484 0.40238 -0.06008
 N80 N -0.11314 0.59772 0.01353
 N81 N -0.14137 0.65263 0.03147
 N82 N -0.11269 0.59228 -0.05123
 N83 N -0.14206 0.64308 -0.07911
 N84 N -0.14991 0.46510 0.02261
 N85 N -0.18062 0.41440 0.04928
 Mn86 Mn -0.07788 0.51043 -0.09409
 Mn87 Mn -0.08572 0.52354 0.07215
 Cl88 Cl -0.00026 0.49642 -0.00527
 C89 C -0.19723 0.37641 -0.00252
 C90 C -0.15851 0.68060 -0.02667
 N91 N -0.00692 0.12487 0.41598
 N92 N 0.00313 0.17003 0.36983
 N93 N -0.06914 0.11641 0.55671
 N94 N -0.09912 0.14229 0.60821
 N95 N -0.00549 0.13355 0.55542
 N96 N 0.00940 0.17186 0.60615
 N97 N -0.07042 0.10728 0.41761
 N98 N -0.10499 0.13945 0.37272
 C99 C -0.05863 0.17774 0.34264
 C100 C -0.04983 0.17693 0.63843
 N101 N -0.12930 -0.06537 0.57159
 N102 N -0.15004 -0.08694 0.63027
 N103 N -0.14486 -0.01323 0.42726
 N104 N -0.17419 0.00051 0.37071
 N105 N -0.12968 -0.07537 0.43040
 N106 N -0.14791 -0.10516 0.37486
 N107 N -0.14425 -0.00349 0.56447
 N108 N -0.17579 0.01826 0.61664
 Mn109 Mn -0.10759 0.05181 0.49146
 C110 C -0.18006 -0.03391 0.65692
 C111 C -0.17717 -0.05713 0.33895
 N112 N 0.11731 0.06153 0.56056
 N113 N 0.14205 0.09427 0.61128
 N114 N 0.13324 -0.01005 0.42755
 N115 N 0.17167 -0.02886 0.37831
 N116 N 0.11629 0.05127 0.42050
 N117 N 0.14155 0.07549 0.36509
 N118 N 0.13271 -0.00034 0.56550
 N119 N 0.16907 -0.01138 0.61899
 Mn120 Mn 0.05598 0.09352 0.48788
 C121 C 0.17444 0.04813 0.64689
 C122 C 0.17631 0.02483 0.33982
 N123 N -0.00552 -0.14675 0.43634
 N124 N -0.01902 -0.18422 0.38457
 N125 N 0.05816 -0.11983 0.57449
 N126 N 0.09316 -0.15119 0.61937
 N127 N -0.00510 -0.13838 0.57593
 N128 N -0.01440 -0.18365 0.62218
 N129 N 0.05807 -0.12924 0.43636
 N130 N 0.08930 -0.15374 0.38514
 Mn131 Mn -0.06825 -0.10747 0.50373
 Mn132 Mn 0.09589 -0.06514 0.50110
 Cl133 Cl -0.00608 -0.00679 0.49599
 C134 C 0.04107 -0.18803 0.35346
 C135 C 0.04758 -0.19010 0.64941
 C136 C -0.26993 0.22090 0.01034
 C137 C -0.22029 0.21377 0.05728
 C138 C -0.18415 0.27006 0.05482
 C139 C -0.21464 0.30754 0.00691
 O140 O -0.26688 0.27790 -0.02066
 H141 H -0.21351 0.17360 0.09149
 H142 H -0.14224 0.28364 0.08618
 C143 C 0.27813 0.77092 -0.00565
 C144 C 0.22259 0.78736 0.03075
 C145 C 0.18393 0.73246 0.03296
 C146 C 0.21892 0.68616 -0.00164
 O147 O 0.27659 0.70914 -0.02518
 H148 H 0.21314 0.83308 0.05545
 H149 H 0.13699 0.72588 0.05906
 C150 C 0.30208 0.21173 0.04351
 C151 C 0.27331 0.20543 0.10509
 C152 C 0.21604 0.23976 0.10209
 C153 C 0.21434 0.26611 0.03927
 O154 O 0.26668 0.24909 0.00286
 H155 H 0.29334 0.18082 0.14817
 H156 H 0.18180 0.24846 0.14255
 C157 C -0.28072 0.80068 -0.02956
 C158 C -0.23194 0.83500 0.00442
 C159 C -0.17702 0.79621 0.00416
 C160 C -0.19630 0.74122 -0.03013
 O161 O -0.25957 0.74332 -0.05014
 H162 H -0.23753 0.88060 0.03055
 H163 H -0.13020 0.80464 0.03019
 C164 C 0.05059 -0.29166 0.21626
 C165 C 0.11370 -0.26401 0.21230
 C166 C 0.11626 -0.21922 0.26124
 C167 C 0.05483 -0.22342 0.29222
 O168 O 0.01426 -0.26731 0.26494
 H169 H 0.15416 -0.27719 0.17953
 H170 H 0.15902 -0.18914 0.27484
 C171 C -0.05179 0.28186 0.77609
 C172 C -0.11420 0.25341 0.78404
 C173 C -0.11992 0.20888 0.73489
 C174 C -0.06074 0.21342 0.70001
 O175 O -0.01876 0.25776 0.72488
 H176 H -0.15223 0.26590 0.81987
 H177 H -0.16325 0.17849 0.72406
 C178 C -0.07453 0.30751 0.22873
 C179 C -0.14084 0.28801 0.23123
 C180 C -0.14235 0.23556 0.27225
 C181 C -0.07696 0.22699 0.29262
 O182 O -0.03513 0.27057 0.26611
 H183 H -0.18322 0.30988 0.20630
 H184 H -0.18629 0.20772 0.28698
 C185 C 0.06949 -0.32051 0.76098
 C186 C 0.13604 -0.30421 0.75041
 C187 C 0.13509 -0.25180 0.70972
 C188 C 0.06825 -0.24013 0.69729
 O189 O 0.02767 -0.28154 0.72869
 H190 H 0.18025 -0.32776 0.77010
 H191 H 0.17828 -0.22615 0.68975
 C192 C 0.28053 0.05428 0.78511
 C193 C 0.25075 0.11424 0.79270
 C194 C 0.20516 0.11872 0.74290
 C195 C 0.21061 0.06125 0.70854
 O196 O 0.25614 0.02161 0.73401
 H197 H 0.26318 0.15154 0.82860
 H198 H 0.17341 0.15980 0.73153
 C199 C -0.26369 -0.04339 0.19252
 C200 C -0.21184 -0.00000 0.18041
 C201 C -0.16559 -0.01174 0.22795
 C202 C -0.19337 -0.05930 0.26811
 O203 O -0.25260 -0.08005 0.24562
 H204 H -0.21000 0.03869 0.14379
 H205 H -0.12170 0.01812 0.23830
 C206 C 0.28838 0.01067 0.20757
 C207 C 0.24375 0.05227 0.17749
 C208 C 0.19505 0.06314 0.22318
 C209 C 0.21341 0.02663 0.27743
 O210 O 0.27003 -0.00537 0.26833
 H211 H 0.24773 0.07366 0.12866
 H212 H 0.15184 0.09431 0.21794
 C213 C -0.28129 -0.00474 0.79094
 C214 C -0.23322 0.04288 0.80157
 C215 C -0.18239 0.02823 0.75995
 C216 C -0.20346 -0.02605 0.72513
 O217 O -0.26333 -0.04712 0.74492
 H218 H -0.23608 0.08491 0.83368
 H219 H -0.13877 0.05850 0.74988
   
