data_POSCAR
  _audit_creation_date              2014-09-24
  _audit_creation_method            'ToBaCCo'
  _symmetry_space_group_name_H-M    'P1'
  _symmetry_Int_Tables_number       1
  _symmetry_cell_setting            triclinic
  loop_
  _symmetry_equiv_pos_as_xyz
 x,y,z
_cell_length_a 39.6701
_cell_length_b 40.0173
_cell_length_c 40.3421
_cell_angle_alpha 90.069800
_cell_angle_beta 89.811700
_cell_angle_gamma 90.008800
loop_
  _atom_site_label
  _atom_site_type_symbol
  _atom_site_fract_x
  _atom_site_fract_y
  _atom_site_fract_z
N1 N 0.30416 0.23861 0.21399
 N2 N 0.29358 0.26746 0.20239
 C3 C 0.31272 0.27624 0.17621
 C4 C 0.33655 0.25165 0.17136
 C5 C 0.33046 0.22804 0.19554
 H6 H 0.30885 0.29823 0.16111
 H7 H 0.34338 0.20446 0.19873
 Cu8 Cu 0.25447 0.28990 0.22089
 Cu9 Cu 0.28183 0.21627 0.25094
 Cu10 Cu 0.20602 0.25013 0.27701
 N11 N 0.20934 0.30529 0.23144
 N12 N 0.19040 0.28953 0.25322
 C13 C 0.16044 0.30514 0.25556
 C14 C 0.16080 0.33193 0.23412
 C15 C 0.19209 0.33148 0.21915
 H16 H 0.13991 0.29757 0.27158
 H17 H 0.20152 0.34875 0.20071
 N18 N 0.22628 0.21045 0.29791
 N19 N 0.25528 0.19760 0.28797
 C20 C 0.26220 0.17046 0.30646
 C21 C 0.23637 0.16621 0.32898
 C22 C 0.21398 0.19181 0.32302
 H23 H 0.28411 0.15464 0.30350
 H24 H 0.19034 0.19621 0.33572
 H25 H 0.23528 0.23477 0.23723
 H26 H 0.25750 0.25704 0.27169
 N27 N 0.68741 -0.23993 0.20938
 N28 N 0.70263 -0.26510 0.19459
 C29 C 0.68542 -0.27337 0.16702
 C30 C 0.65805 -0.25235 0.16471
 C31 C 0.65996 -0.23130 0.19174
 H32 H 0.69286 -0.29229 0.14925
 H33 H 0.64349 -0.21054 0.19748
 Cu34 Cu 0.74490 -0.28285 0.21128
 Cu35 Cu 0.70563 -0.21870 0.24903
 Cu36 Cu 0.78085 -0.25042 0.27939
 N37 N 0.78716 -0.30031 0.22831
 N38 N 0.80099 -0.28753 0.25508
 C39 C 0.83029 -0.30332 0.26108
 C40 C 0.83487 -0.32711 0.23676
 C41 C 0.80726 -0.32470 0.21627
 H42 H 0.84717 -0.29755 0.28129
 H43 H 0.80251 -0.33925 0.19412
 N44 N 0.75665 -0.21295 0.30046
 N45 N 0.72806 -0.20077 0.28886
 C46 C 0.71884 -0.17431 0.30751
 C47 C 0.74268 -0.16989 0.33188
 C48 C 0.76633 -0.19456 0.32678
 H49 H 0.69707 -0.15870 0.30310
 H50 H 0.78941 -0.19803 0.34053
 H51 H 0.75560 -0.22999 0.23950
 H52 H 0.73152 -0.26013 0.26588
 N53 N 0.69151 0.23976 0.78402
 N54 N 0.70468 0.26787 0.79486
 C55 C 0.68887 0.27699 0.82306
 C56 C 0.66453 0.25343 0.82998
 C57 C 0.66684 0.23006 0.80494
 H58 H 0.69534 0.29845 0.83806
 H59 H 0.65246 0.20721 0.80275
 Cu60 Cu 0.74277 0.28904 0.77290
 Cu61 Cu 0.70876 0.21698 0.74487
 Cu62 Cu 0.77955 0.25066 0.70743
 N63 N 0.78413 0.30565 0.75289
 N64 N 0.79847 0.29062 0.72748
 C65 C 0.82751 0.30638 0.72000
 C66 C 0.83126 0.33263 0.74182
 C67 C 0.80358 0.33149 0.76249
 H68 H 0.84513 0.29864 0.70097
 H69 H 0.79862 0.34747 0.78360
 N70 N 0.75675 0.21039 0.69066
 N71 N 0.72972 0.19749 0.70494
 C72 C 0.72115 0.16921 0.68887
 C73 C 0.74380 0.16432 0.66336
 C74 C 0.76608 0.19065 0.66513
 H75 H 0.70071 0.15274 0.69584
 H76 H 0.78809 0.19445 0.64971
 H77 H 0.75781 0.23414 0.75112
 H78 H 0.73028 0.25819 0.72209
 N79 N 0.30095 -0.23813 0.78192
 N80 N 0.28930 -0.26686 0.79296
 C81 C 0.30729 -0.27620 0.81965
 C82 C 0.33147 -0.25216 0.82535
 C83 C 0.32682 -0.22828 0.80116
 H84 H 0.30244 -0.29809 0.83461
 H85 H 0.34037 -0.20497 0.79851
 Cu86 Cu 0.25009 -0.28742 0.77265
 Cu87 Cu 0.28003 -0.21448 0.74494
 Cu88 Cu 0.20877 -0.25102 0.71032
 N89 N 0.20969 -0.30765 0.75434
 N90 N 0.19365 -0.29312 0.72974
 C91 C 0.16560 -0.31068 0.72276
 C92 C 0.16419 -0.33751 0.74409
 C93 C 0.19229 -0.33493 0.76396
 H94 H 0.14699 -0.30370 0.70448
 H95 H 0.19878 -0.35090 0.78458
 N96 N 0.22809 -0.20855 0.69426
 N97 N 0.25519 -0.19467 0.70741
 C98 C 0.26164 -0.16574 0.69153
 C99 C 0.23751 -0.16142 0.66745
 C100 C 0.21663 -0.18880 0.66971
 H101 H 0.28211 -0.14885 0.69722
 H102 H 0.19457 -0.19371 0.65480
 H103 H 0.23202 -0.23305 0.75249
 H104 H 0.25913 -0.25561 0.72201
 N105 N 0.70277 -0.22891 0.79401
 N106 N 0.71257 -0.25756 0.80669
 C107 C 0.69422 -0.26397 0.83409
 C108 C 0.67184 -0.23799 0.83855
 C109 C 0.67782 -0.21611 0.81286
 H110 H 0.69724 -0.28562 0.84983
 H111 H 0.66534 -0.19250 0.80850
 Cu112 Cu 0.74880 -0.28352 0.78683
 Cu113 Cu 0.72380 -0.20997 0.75470
 Cu114 Cu 0.79472 -0.25017 0.72463
 N115 N 0.79169 -0.30266 0.77320
 N116 N 0.80938 -0.28963 0.74877
 C117 C 0.83794 -0.30731 0.74474
 C118 C 0.83800 -0.33260 0.76787
 C119 C 0.80846 -0.32911 0.78565
 H120 H 0.85740 -0.30191 0.72668
 H121 H 0.80000 -0.34429 0.80623
 N122 N 0.77579 -0.20990 0.70374
 N123 N 0.74857 -0.19471 0.71520
 C124 C 0.74232 -0.16765 0.69642
 C125 C 0.76673 -0.16584 0.67218
 C126 C 0.78765 -0.19279 0.67738
 H127 H 0.72197 -0.15011 0.70044
 H128 H 0.81012 -0.19903 0.66345
 H129 H 0.74374 -0.25338 0.73452
 H130 H 0.77030 -0.23084 0.76564
 N131 N 0.30587 0.23074 0.79575
 N132 N 0.29334 0.25794 0.80935
 C133 C 0.30941 0.26394 0.83810
 C134 C 0.33315 0.23918 0.84246
 C135 C 0.33036 0.21850 0.81532
 H136 H 0.30398 0.28446 0.85476
 H137 H 0.34474 0.19606 0.81041
 Cu138 Cu 0.25680 0.28268 0.78881
 Cu139 Cu 0.28896 0.21285 0.75424
 Cu140 Cu 0.21754 0.24988 0.72212
 N141 N 0.21370 0.29968 0.77347
 N142 N 0.19856 0.28683 0.74743
 C143 C 0.16916 0.30284 0.74262
 C144 C 0.16583 0.32684 0.76691
 C145 C 0.19438 0.32431 0.78617
 H146 H 0.15135 0.29723 0.72316
 H147 H 0.20042 0.33894 0.80792
 N148 N 0.24074 0.21227 0.70026
 N149 N 0.26817 0.19832 0.71250
 C150 C 0.27698 0.17220 0.69329
 C151 C 0.25407 0.16977 0.66787
 C152 C 0.23134 0.19532 0.67291
 H153 H 0.29758 0.15523 0.69821
 H154 H 0.20889 0.20022 0.65858
 H155 H 0.26715 0.25598 0.73542
 H156 H 0.24027 0.22996 0.76363
 N157 N 0.30298 -0.23018 0.20879
 N158 N 0.29112 -0.25881 0.19779
 C159 C 0.30528 -0.26565 0.16816
 C160 C 0.32702 -0.23988 0.16045
 C161 C 0.32507 -0.21779 0.18658
 H162 H 0.30004 -0.28754 0.15329
 H163 H 0.33848 -0.19440 0.18911
 Cu164 Cu 0.25797 -0.28412 0.22294
 Cu165 Cu 0.28835 -0.21075 0.25058
 Cu166 Cu 0.22213 -0.24978 0.29076
 N167 N 0.21719 -0.30253 0.24256
 N168 N 0.20343 -0.28915 0.26916
 C169 C 0.17496 -0.30586 0.27668
 C170 C 0.17084 -0.33093 0.25360
 C171 C 0.19789 -0.32820 0.23221
 H172 H 0.15796 -0.29958 0.29676
 H173 H 0.20264 -0.34308 0.21027
 N174 N 0.24462 -0.20966 0.30847
 N175 N 0.26999 -0.19485 0.29310
 C176 C 0.27853 -0.16707 0.30996
 C177 C 0.25761 -0.16446 0.33712
 C178 C 0.23634 -0.19164 0.33554
 H179 H 0.29749 -0.14923 0.30232
 H180 H 0.21553 -0.19702 0.35207
 H181 H 0.27096 -0.25369 0.27373
 H182 H 0.24040 -0.23104 0.24657
 N183 N 0.70498 0.22739 0.21058
 N184 N 0.71599 0.25601 0.19868
 C185 C 0.69907 0.26315 0.17067
 C186 C 0.67639 0.23771 0.16497
 C187 C 0.68066 0.21539 0.19060
 H188 H 0.70331 0.28481 0.15522
 H189 H 0.66757 0.19194 0.19406
 Cu190 Cu 0.75235 0.28004 0.22046
 Cu191 Cu 0.72418 0.20703 0.25014
 Cu192 Cu 0.78937 0.24991 0.28868
 N193 N 0.78909 0.30400 0.24169
 N194 N 0.80319 0.29211 0.26870
 C195 C 0.82920 0.31189 0.27728
 C196 C 0.83141 0.33737 0.25446
 C197 C 0.80582 0.33169 0.23208
 H198 H 0.84632 0.30713 0.29754
 H199 H 0.80089 0.34569 0.20971
 N200 N 0.77176 0.20687 0.30504
 N201 N 0.74691 0.19063 0.29036
 C202 C 0.74142 0.16173 0.30656
 C203 C 0.76381 0.15983 0.33246
 C204 C 0.78272 0.18865 0.33096
 H205 H 0.72297 0.14309 0.29971
 H206 H 0.80328 0.19546 0.34715
 H207 H 0.74028 0.25079 0.27211
 H208 H 0.77150 0.22820 0.24571
 C209 C 0.23651 0.00276 0.41176
 C210 C 0.23086 0.03283 0.42842
 C211 C 0.22878 0.03329 0.46311
 C212 C 0.23417 0.00382 0.48179
 C213 C 0.24071 -0.02614 0.46426
 C214 C 0.24104 -0.02672 0.42958
 C215 C 0.23376 0.00439 0.51911
 C216 C 0.22860 -0.02523 0.53763
 C217 C 0.23023 -0.02492 0.57231
 C218 C 0.23500 0.00515 0.58915
 C219 C 0.23913 0.03482 0.57152
 C220 C 0.23933 0.03443 0.53681
 H221 H 0.23773 0.00237 0.38490
 H222 H 0.22303 0.05679 0.47508
 H223 H 0.24611 -0.04919 0.47711
 H224 H 0.22344 -0.04879 0.52556
 H225 H 0.23588 0.00539 0.61603
 H226 H 0.24441 0.05765 0.52410
 C227 C 0.76504 -0.00352 0.58884
 C228 C 0.75991 0.02596 0.57116
 C229 C 0.75948 0.02533 0.53645
 C230 C 0.76573 -0.00466 0.51880
 C231 C 0.77164 -0.03407 0.53732
 C232 C 0.77048 -0.03354 0.57203
 C233 C 0.76554 -0.00528 0.48151
 C234 C 0.75916 -0.03519 0.46382
 C235 C 0.75876 -0.03544 0.42908
 C236 C 0.76330 -0.00576 0.41152
 C237 C 0.76911 0.02410 0.42841
 C238 C 0.77112 0.02426 0.46305
 H239 H 0.76448 -0.00315 0.61573
 H240 H 0.75378 0.04833 0.52364
 H241 H 0.77716 -0.05755 0.52519
 H242 H 0.75393 -0.05835 0.47660
 H243 H 0.76203 -0.00586 0.38465
 H244 H 0.77696 0.04762 0.47518
 C245 C 0.41456 0.23488 0.00672
 C246 C 0.43305 0.23889 0.03580
 C247 C 0.46835 0.23930 0.03460
 C248 C 0.48580 0.23400 0.00434
 C249 C 0.46636 0.22887 -0.02460
 C250 C 0.43112 0.23035 -0.02347
 C251 C 0.52376 0.23451 0.00282
 C252 C 0.54095 0.24049 -0.02742
 C253 C 0.57623 0.24066 -0.02887
 C254 C 0.59499 0.23660 0.00004
 C255 C 0.57866 0.23154 0.03031
 C256 C 0.54342 0.22955 0.03161
 H257 H 0.38723 0.23565 0.00754
 H258 H 0.48170 0.24428 0.05737
 H259 H 0.47812 0.22385 -0.04827
 H260 H 0.52741 0.24548 -0.05006
 H261 H 0.62229 0.23767 -0.00100
 H262 H 0.53183 0.22419 0.05529
 C263 C 0.58518 0.76512 0.00024
 C264 C 0.56618 0.76074 0.02905
 C265 C 0.53092 0.76009 0.02741
 C266 C 0.51398 0.76557 -0.00298
 C267 C 0.53391 0.77092 -0.03166
 C268 C 0.56916 0.76972 -0.03012
 C269 C 0.47603 0.76508 -0.00479
 C270 C 0.45914 0.75933 -0.03516
 C271 C 0.42384 0.75904 -0.03664
 C272 C 0.40484 0.76265 -0.00770
 C273 C 0.42089 0.76758 0.02261
 C274 C 0.45608 0.76984 0.02397
 H275 H 0.61250 0.76456 0.00140
 H276 H 0.51722 0.75480 0.04998
 H277 H 0.52252 0.77590 -0.05544
 H278 H 0.47293 0.75464 -0.05783
 H279 H 0.37754 0.76141 -0.00874
 H280 H 0.46740 0.77526 0.04769
 C281 C -0.00336 0.41603 0.23029
 C282 C 0.02711 0.43252 0.22473
 C283 C 0.02805 0.46750 0.22363
 C284 C -0.00128 0.48659 0.23011
 C285 C -0.03166 0.46924 0.23674
 C286 C -0.03276 0.43427 0.23599
 C287 C -0.00008 0.52417 0.23073
 C288 C -0.02965 0.54332 0.22602
 C289 C -0.02888 0.57823 0.22840
 C290 C 0.00164 0.59471 0.23359
 C291 C 0.03136 0.57645 0.23729
 C292 C 0.03046 0.54144 0.23666
 H293 H -0.00407 0.38892 0.23074
 H294 H 0.05182 0.47939 0.21791
 H295 H -0.05455 0.48246 0.24309
 H296 H -0.05351 0.53151 0.22062
 H297 H 0.00222 0.62177 0.23506
 H298 H 0.05366 0.52811 0.24132
 C299 C 0.00010 0.58471 0.77067
 C300 C 0.02992 0.56702 0.76532
 C301 C 0.02954 0.53203 0.76483
 C302 C -0.00060 0.51416 0.77107
 C303 C -0.03038 0.53268 0.77714
 C304 C -0.03009 0.56767 0.77607
 C305 C -0.00110 0.47661 0.77032
 C306 C -0.03112 0.45897 0.76315
 C307 C -0.03149 0.42399 0.76232
 C308 C -0.00176 0.40609 0.76726
 C309 C 0.02833 0.42295 0.77362
 C310 C 0.02857 0.45788 0.77599
 H311 H 0.00029 0.61181 0.77006
 H312 H 0.05276 0.51916 0.75892
 H313 H -0.05400 0.52031 0.78251
 H314 H -0.05427 0.47205 0.75763
 H315 H -0.00198 0.37902 0.76578
 H316 H 0.05207 0.47006 0.78211
 C317 C 0.35984 0.24928 0.14411
 C318 C 0.37844 0.24735 0.12049
 C319 C 0.39897 0.24494 0.09194
 C320 C 0.41527 0.24251 0.06678
 C321 C 0.63665 0.75002 0.13857
 C322 C 0.61868 0.75206 0.11462
 C323 C 0.59897 0.75455 0.08568
 C324 C 0.58332 0.75706 0.06024
 C325 C 0.64391 0.25164 -0.14071
 C326 C 0.62731 0.24986 -0.11568
 C327 C 0.60868 0.24732 -0.08590
 C328 C 0.59349 0.24465 -0.06010
 C329 C 0.35366 0.74965 -0.14662
 C330 C 0.37137 0.75117 -0.12242
 C331 C 0.39100 0.75322 -0.09335
 C332 C 0.40665 0.75547 -0.06786
 C333 C 0.13390 0.35534 0.22890
 C334 C 0.11061 0.37437 0.22560
 C335 C 0.08246 0.39579 0.22327
 C336 C 0.05765 0.41316 0.22290
 C337 C 0.13807 0.64081 0.74775
 C338 C 0.11433 0.62233 0.75125
 C339 C 0.08579 0.60175 0.75572
 C340 C 0.06072 0.58525 0.75988
 C341 C -0.13811 0.65232 0.23309
 C342 C -0.11380 0.63444 0.23040
 C343 C -0.08484 0.61410 0.22823
 C344 C -0.05961 0.59735 0.22754
 C345 C -0.14144 0.35290 0.74487
 C346 C -0.11691 0.37037 0.74800
 C347 C -0.08773 0.39004 0.75227
 C348 C -0.06237 0.40605 0.75650
 C349 C 0.23285 0.13933 0.35236
 C350 C 0.23066 0.11611 0.37128
 C351 C 0.22920 0.08806 0.39247
 C352 C 0.22916 0.06333 0.40953
 C353 C 0.74614 0.13566 0.64194
 C354 C 0.74855 0.11125 0.62454
 C355 C 0.75189 0.08216 0.60493
 C356 C 0.75522 0.05684 0.58901
 C357 C 0.23410 -0.13335 0.64553
 C358 C 0.23170 -0.10937 0.62764
 C359 C 0.22975 -0.08070 0.60740
 C360 C 0.22918 -0.05561 0.59089
 C361 C 0.74483 -0.14257 0.35493
 C362 C 0.74714 -0.11910 0.37355
 C363 C 0.75045 -0.09088 0.39431
 C364 C 0.75385 -0.06605 0.41091
 C365 C 0.64825 0.76598 -0.13466
 C366 C 0.62895 0.76862 -0.11168
 C367 C 0.60708 0.77059 -0.08409
 C368 C 0.58924 0.77102 -0.05987
 C369 C 0.35542 0.23525 -0.12985
 C370 C 0.37374 0.23246 -0.10627
 C371 C 0.39458 0.23018 -0.07812
 C372 C 0.41169 0.22943 -0.05352
 C373 C 0.34738 0.76337 0.13115
 C374 C 0.36445 0.76575 0.10650
 C375 C 0.38435 0.76774 0.07752
 C376 C 0.40116 0.76840 0.05260
 C377 C 0.65425 0.23445 0.13704
 C378 C 0.63610 0.23229 0.11323
 C379 C 0.61537 0.23066 0.08490
 C380 C 0.59826 0.23034 0.06026
 C381 C -0.13702 0.64465 0.77257
 C382 C -0.11399 0.62526 0.77566
 C383 C -0.08590 0.60373 0.77773
 C384 C -0.06096 0.58652 0.77794
 C385 C -0.14152 0.36101 0.25139
 C386 C -0.11790 0.37976 0.24861
 C387 C -0.08925 0.40034 0.24491
 C388 C -0.06394 0.41660 0.24120
 C389 C 0.13775 0.34911 0.77130
 C390 C 0.11357 0.36717 0.77387
 C391 C 0.08457 0.38754 0.77548
 C392 C 0.05924 0.40417 0.77549
 C393 C 0.14229 0.64718 0.25054
 C394 C 0.11776 0.62958 0.24794
 C395 C 0.08839 0.60992 0.24472
 C396 C 0.06273 0.59407 0.24162
 C397 C 0.77049 -0.13962 0.64822
 C398 C 0.77254 -0.11666 0.62904
 C399 C 0.77351 -0.08871 0.60780
 C400 C 0.77295 -0.06398 0.59081
 C401 C 0.25507 -0.13639 0.35916
 C402 C 0.25261 -0.11213 0.37672
 C403 C 0.24926 -0.08303 0.39620
 C404 C 0.24587 -0.05763 0.41193
 C405 C 0.76755 0.13237 0.35504
 C406 C 0.76978 0.10860 0.37322
 C407 C 0.77113 0.07994 0.39352
 C408 C 0.77101 0.05481 0.40995
 C409 C 0.25142 0.14277 0.64457
 C410 C 0.24911 0.11923 0.62608
 C411 C 0.24616 0.09073 0.60573
 C412 C 0.24325 0.06563 0.58948
   
