data_POSCAR
  _audit_creation_date              2014-09-24
  _audit_creation_method            'ToBaCCo'
  _symmetry_space_group_name_H-M    'P1'
  _symmetry_Int_Tables_number       1
  _symmetry_cell_setting            triclinic
  loop_
  _symmetry_equiv_pos_as_xyz
 x,y,z
_cell_length_a 40.4787
_cell_length_b 40.4883
_cell_length_c 31.1354
_cell_angle_alpha 89.907700
_cell_angle_beta 90.043300
_cell_angle_gamma 90.020100
loop_
  _atom_site_label
  _atom_site_type_symbol
  _atom_site_fract_x
  _atom_site_fract_y
  _atom_site_fract_z
C1 C 0.30759 -0.04483 0.25005
 C2 C 0.32466 -0.01607 0.23760
 C3 C 0.34851 -0.01788 0.20519
 C4 C 0.35633 -0.04802 0.18612
 C5 C 0.33904 -0.07654 0.19774
 C6 C 0.31452 -0.07507 0.22964
 C7 C 0.32473 0.01391 0.26431
 C8 C 0.34858 0.01565 0.29680
 C9 C 0.35669 0.04585 0.31568
 C10 C 0.33961 0.07446 0.30375
 C11 C 0.31512 0.07300 0.27180
 C12 C 0.30794 0.04275 0.25162
 H13 H 0.29015 -0.04385 0.27642
 H14 H 0.36295 0.00389 0.19728
 H15 H 0.36277 -0.00627 0.30483
 H16 H 0.29054 0.04189 0.22518
 H17 H 0.34546 -0.09997 0.18306
 H18 H 0.34609 0.09799 0.31812
 C19 C 0.19152 -0.04324 0.74876
 C20 C 0.17433 -0.01463 0.76131
 C21 C 0.15062 -0.01669 0.79389
 C22 C 0.14311 -0.04693 0.81306
 C23 C 0.16054 -0.07529 0.80129
 C24 C 0.18487 -0.07355 0.76922
 C25 C 0.17408 0.01544 0.73468
 C26 C 0.15013 0.01725 0.70232
 C27 C 0.14196 0.04749 0.68348
 C28 C 0.15906 0.07609 0.69537
 C29 C 0.18363 0.07456 0.72721
 C30 C 0.19089 0.04426 0.74731
 H31 H 0.20886 -0.04216 0.72229
 H32 H 0.13610 0.00497 0.80192
 H33 H 0.13594 -0.00467 0.69432
 H34 H 0.20838 0.04334 0.77365
 H35 H 0.15442 -0.09883 0.81596
 H36 H 0.15253 0.09966 0.68104
 C37 C 0.69322 0.45642 0.25019
 C38 C 0.67609 0.48508 0.26273
 C39 C 0.65218 0.48302 0.29506
 C40 C 0.64439 0.45276 0.31396
 C41 C 0.66176 0.42435 0.30222
 C42 C 0.68630 0.42608 0.27041
 C43 C 0.67605 0.51518 0.23616
 C44 C 0.65211 0.51718 0.20381
 C45 C 0.64416 0.54745 0.18502
 C46 C 0.66140 0.57592 0.19690
 C47 C 0.68595 0.57425 0.22873
 C48 C 0.69304 0.54390 0.24883
 H49 H 0.71070 0.45750 0.22389
 H50 H 0.63770 0.50472 0.30305
 H51 H 0.63770 0.49543 0.19575
 H52 H 0.71053 0.54287 0.27516
 H53 H 0.65542 0.40079 0.31666
 H54 H 0.65493 0.59948 0.18256
 C55 C 0.80801 0.45596 0.75062
 C56 C 0.82516 0.48458 0.73786
 C57 C 0.84888 0.48252 0.70530
 C58 C 0.85645 0.45226 0.68637
 C59 C 0.83907 0.42388 0.69836
 C60 C 0.81473 0.42563 0.73041
 C61 C 0.82531 0.51470 0.76426
 C62 C 0.84915 0.51663 0.79674
 C63 C 0.85711 0.54691 0.81550
 C64 C 0.83994 0.57542 0.80337
 C65 C 0.81550 0.57376 0.77139
 C66 C 0.80843 0.54343 0.75139
 H67 H 0.79066 0.45706 0.77707
 H68 H 0.86337 0.50420 0.69711
 H69 H 0.86338 0.49477 0.80494
 H70 H 0.79101 0.54241 0.72497
 H71 H 0.84523 0.40032 0.68388
 H72 H 0.84630 0.59902 0.81765
 C73 C 0.24015 0.39899 1.05681
 C74 C 0.25639 0.41557 1.02329
 C75 C 0.28594 0.43223 1.03137
 C76 C 0.29951 0.43251 1.07262
 C77 C 0.28368 0.41554 1.10612
 C78 C 0.25393 0.39858 1.09818
 C79 C 0.24268 0.41567 0.97960
 C80 C 0.21309 0.43228 0.97152
 C81 C 0.19972 0.43291 0.93015
 C82 C 0.21577 0.41635 0.89659
 C83 C 0.24551 0.39946 0.90456
 C84 C 0.25911 0.39949 0.94598
 H85 H 0.21751 0.38555 1.05024
 H86 H 0.29848 0.44488 1.00531
 H87 H 0.20040 0.44466 0.99762
 H88 H 0.28176 0.38608 0.95241
 H89 H 0.29497 0.41472 1.13771
 H90 H 0.20471 0.41575 0.86487
 C91 C 0.76024 0.10065 1.05687
 C92 C 0.74356 0.08422 1.02362
 C93 C 0.71402 0.06770 1.03219
 C94 C 0.70089 0.06741 1.07364
 C95 C 0.71714 0.08423 1.10687
 C96 C 0.74689 0.10106 1.09844
 C97 C 0.75681 0.08406 0.97973
 C98 C 0.78630 0.06742 0.97132
 C99 C 0.79923 0.06669 0.92976
 C100 C 0.78285 0.08318 0.89631
 C101 C 0.75320 0.10010 0.90461
 C102 C 0.74004 0.10017 0.94624
 H103 H 0.78287 0.11398 1.04992
 H104 H 0.70114 0.05515 1.00635
 H105 H 0.79925 0.05509 0.99732
 H106 H 0.71747 0.11362 0.95293
 H107 H 0.70618 0.08506 1.13863
 H108 H 0.79360 0.08372 0.86443
 C109 C 0.26005 0.59981 0.55502
 C110 C 0.24345 0.58337 0.52173
 C111 C 0.21392 0.56679 0.53023
 C112 C 0.20075 0.56647 0.57168
 C113 C 0.21696 0.58331 0.60493
 C114 C 0.24667 0.60016 0.59653
 C115 C 0.25679 0.58334 0.47789
 C116 C 0.28634 0.56679 0.46952
 C117 C 0.29954 0.56645 0.42810
 C118 C 0.28334 0.58323 0.39473
 C119 C 0.25362 0.60005 0.40298
 C120 C 0.24020 0.59972 0.44448
 H121 H 0.28264 0.61323 0.54824
 H122 H 0.20107 0.55425 0.50436
 H123 H 0.29917 0.55429 0.49549
 H124 H 0.21760 0.61313 0.45115
 H125 H 0.20604 0.58418 0.63668
 H126 H 0.29430 0.58409 0.36298
 C127 C 0.74078 0.90058 0.55494
 C128 C 0.75723 0.91695 0.52143
 C129 C 0.78679 0.93356 0.52962
 C130 C 0.80018 0.93396 0.57102
 C131 C 0.78409 0.91717 0.60449
 C132 C 0.75435 0.90031 0.59637
 C133 C 0.74368 0.91689 0.47766
 C134 C 0.71398 0.93322 0.46940
 C135 C 0.70060 0.93352 0.42804
 C136 C 0.71679 0.91690 0.39463
 C137 C 0.74667 0.90029 0.40277
 C138 C 0.76025 0.90067 0.44419
 H139 H 0.71816 0.88714 0.54839
 H140 H 0.79945 0.94604 0.50348
 H141 H 0.70116 0.94561 0.49540
 H142 H 0.78299 0.88744 0.45078
 H143 H 0.79509 0.91632 0.63625
 H144 H 0.70572 0.91601 0.36293
 C145 C -0.04031 0.23411 0.36773
 C146 C -0.01035 0.23434 0.39022
 C147 C -0.00099 0.20690 0.41478
 C148 C -0.02175 0.17938 0.41738
 C149 C -0.05173 0.17899 0.39452
 C150 C -0.06096 0.20638 0.36951
 C151 C 0.01037 0.26401 0.39034
 C152 C 0.00089 0.29135 0.41486
 C153 C 0.02157 0.31890 0.41756
 C154 C 0.05156 0.31945 0.39489
 C155 C 0.06091 0.29218 0.36994
 C156 C 0.04038 0.26439 0.36802
 H157 H -0.04762 0.25569 0.34934
 H158 H 0.02202 0.20745 0.43268
 H159 H -0.02213 0.29078 0.43265
 H160 H 0.04786 0.24295 0.34961
 H161 H -0.06800 0.15774 0.39674
 H162 H 0.06774 0.34072 0.39720
 C163 C -0.04103 0.76427 0.13233
 C164 C -0.01106 0.76369 0.10992
 C165 C -0.00147 0.79090 0.08514
 C166 C -0.02198 0.81853 0.08225
 C167 C -0.05193 0.81933 0.10498
 C168 C -0.06142 0.79217 0.13022
 C169 C 0.00946 0.73393 0.11012
 C170 C -0.00006 0.70657 0.08565
 C171 C 0.02068 0.67906 0.08285
 C172 C 0.05078 0.67861 0.10543
 C173 C 0.06012 0.70593 0.13034
 C174 C 0.03954 0.73363 0.13233
 H175 H -0.04853 0.74285 0.15091
 H176 H 0.02151 0.79016 0.06727
 H177 H -0.02314 0.70719 0.06790
 H178 H 0.04706 0.75513 0.15063
 H179 H -0.06794 0.84073 0.10244
 H180 H 0.06709 0.65744 0.10309
 C181 C 0.45889 0.26517 0.63254
 C182 C 0.48885 0.26444 0.61015
 C183 C 0.49856 0.29159 0.58532
 C184 C 0.47815 0.31930 0.58238
 C185 C 0.44820 0.32021 0.60510
 C186 C 0.43863 0.29312 0.63036
 C187 C 0.50922 0.23459 0.61040
 C188 C 0.49972 0.20738 0.58566
 C189 C 0.52030 0.17978 0.58299
 C190 C 0.55021 0.17906 0.60589
 C191 C 0.55955 0.20622 0.63106
 C192 C 0.53912 0.23404 0.63298
 H193 H 0.45123 0.24385 0.65116
 H194 H 0.52154 0.29073 0.56745
 H195 H 0.47680 0.20811 0.56760
 H196 H 0.54665 0.25544 0.65148
 H197 H 0.43220 0.34161 0.60256
 H198 H 0.56635 0.15777 0.60352
 C199 C 0.46052 0.73448 0.86816
 C200 C 0.49038 0.73481 0.89086
 C201 C 0.49964 0.70749 0.91568
 C202 C 0.47887 0.67997 0.91829
 C203 C 0.44900 0.67950 0.89523
 C204 C 0.43990 0.70678 0.87001
 C205 C 0.51105 0.76449 0.89097
 C206 C 0.50169 0.79171 0.91578
 C207 C 0.52235 0.81926 0.91847
 C208 C 0.55221 0.81994 0.89553
 C209 C 0.56144 0.79278 0.87029
 C210 C 0.54092 0.76499 0.86835
 H211 H 0.45320 0.75595 0.84957
 H212 H 0.52258 0.70812 0.93374
 H213 H 0.47877 0.79104 0.93379
 H214 H 0.54831 0.74363 0.84973
 H215 H 0.43267 0.65831 0.89740
 H216 H 0.56839 0.84121 0.89785
 C217 C -0.29532 0.55873 0.99951
 C218 C -0.26646 0.57556 1.01206
 C219 C -0.26816 0.59934 1.04454
 C220 C -0.29828 0.60731 1.06360
 C221 C -0.32692 0.59026 1.05186
 C222 C -0.32556 0.56581 1.01988
 C223 C -0.23638 0.57538 0.98552
 C224 C -0.23428 0.59920 0.95301
 C225 C -0.20392 0.60704 0.93431
 C226 C -0.17551 0.58973 0.94647
 C227 C -0.17732 0.56529 0.97846
 C228 C -0.20772 0.55836 0.99844
 H229 H -0.29441 0.54132 0.97312
 H230 H -0.24629 0.61357 1.05256
 H231 H -0.25605 0.61357 0.94481
 H232 H -0.20884 0.54099 1.02491
 H233 H -0.35033 0.59678 1.06655
 H234 H -0.15185 0.59601 0.93226
 C235 C -0.29462 0.44209 0.49913
 C236 C -0.26572 0.42534 0.48669
 C237 C -0.26735 0.40152 0.45425
 C238 C -0.29745 0.39342 0.43515
 C239 C -0.32613 0.41040 0.44678
 C240 C -0.32484 0.43490 0.47871
 C241 C -0.23573 0.42553 0.51347
 C242 C -0.23390 0.40188 0.54621
 C243 C -0.20370 0.39402 0.56525
 C244 C -0.17514 0.41109 0.55324
 C245 C -0.17665 0.43538 0.52104
 C246 C -0.20692 0.44235 0.50068
 H247 H -0.29376 0.45951 0.52552
 H248 H -0.24544 0.38733 0.44634
 H249 H -0.25571 0.38758 0.55437
 H250 H -0.20783 0.45959 0.47405
 H251 H -0.34953 0.40377 0.43208
 H252 H -0.15163 0.40468 0.56777
 C253 C 0.20650 -0.05918 -0.00158
 C254 C 0.23533 -0.07596 -0.01422
 C255 C 0.23356 -0.09969 -0.04676
 C256 C 0.20335 -0.10769 -0.06578
 C257 C 0.17475 -0.09062 -0.05389
 C258 C 0.17625 -0.06625 -0.02187
 C259 C 0.26530 -0.07597 0.01257
 C260 C 0.26702 -0.09971 0.04520
 C261 C 0.29717 -0.10758 0.06446
 C262 C 0.32576 -0.09038 0.05272
 C263 C 0.32431 -0.06600 0.02062
 C264 C 0.29411 -0.05905 0.00007
 H265 H 0.20739 -0.04186 0.02489
 H266 H 0.25548 -0.11387 -0.05477
 H267 H 0.24511 -0.11396 0.05314
 H268 H 0.29326 -0.04169 -0.02643
 H269 H 0.15120 -0.09702 -0.06835
 H270 H 0.34926 -0.09667 0.06740
 C271 C 0.20577 1.05833 0.50030
 C272 C 0.23441 1.07547 0.51297
 C273 C 0.23230 1.09945 0.54516
 C274 C 0.20198 1.10730 0.56379
 C275 C 0.17358 1.08993 0.55189
 C276 C 0.17538 1.06533 0.52022
 C277 C 0.26455 1.07545 0.48655
 C278 C 0.26662 1.09935 0.45415
 C279 C 0.29693 1.10714 0.43532
 C280 C 0.32534 1.08973 0.44726
 C281 C 0.32354 1.06519 0.47915
 C282 C 0.29317 1.05830 0.49925
 H283 H 0.20690 1.04080 0.47408
 H284 H 0.25400 1.11394 0.55323
 H285 H 0.24485 1.11376 0.44607
 H286 H 0.29205 1.04081 0.52559
 H287 H 0.14998 1.09632 0.56612
 H288 H 0.34896 1.09595 0.43292
 C289 C 0.15011 0.49005 0.19538
 C290 C 0.16670 0.50658 0.22862
 C291 C 0.18322 0.53614 0.22008
 C292 C 0.18333 0.54941 0.17865
 C293 C 0.16635 0.53328 0.14547
 C294 C 0.14956 0.50355 0.15390
 C295 C 0.16686 0.49316 0.27246
 C296 C 0.18342 0.46360 0.28080
 C297 C 0.18382 0.45030 0.32221
 C298 C 0.16710 0.46643 0.35559
 C299 C 0.15028 0.49617 0.34736
 C300 C 0.15054 0.50968 0.30588
 H301 H 0.13672 0.46745 0.20220
 H302 H 0.19586 0.54893 0.24592
 H303 H 0.19585 0.45081 0.25482
 H304 H 0.13712 0.53229 0.29921
 H305 H 0.16531 0.54429 0.11373
 H306 H 0.16628 0.45540 0.38733
 C307 C -0.14987 1.00944 0.19364
 C308 C -0.16655 0.99321 0.22707
 C309 C -0.18313 0.96362 0.21898
 C310 C -0.18320 0.94997 0.17777
 C311 C -0.16611 0.96583 0.14436
 C312 C -0.14924 0.99562 0.15235
 C313 C -0.16666 1.00686 0.27075
 C314 C -0.18301 1.03658 0.27872
 C315 C -0.18346 1.04999 0.32008
 C316 C -0.16696 1.03376 0.35370
 C317 C -0.15034 1.00389 0.34580
 C318 C -0.15057 0.99030 0.30443
 H319 H -0.13646 1.03207 0.20024
 H320 H -0.19582 0.95112 0.24507
 H321 H -0.19528 1.04932 0.25247
 H322 H -0.13732 0.96757 0.29806
 H323 H -0.16506 0.95456 0.11279
 H324 H -0.16614 1.04476 0.38543
 C325 C 0.35099 0.51068 -0.30697
 C326 C 0.33426 0.49457 -0.27346
 C327 C 0.31741 0.46513 -0.28151
 C328 C 0.31710 0.45154 -0.32269
 C329 C 0.33421 0.46723 -0.35617
 C330 C 0.35136 0.49687 -0.34827
 C331 C 0.33428 0.50825 -0.22980
 C332 C 0.31778 0.53788 -0.22174
 C333 C 0.31728 0.55122 -0.18035
 C334 C 0.33388 0.53503 -0.14677
 C335 C 0.35064 0.50524 -0.15476
 C336 C 0.35047 0.49172 -0.19617
 H337 H 0.36458 0.53321 -0.30042
 H338 H 0.30467 0.45267 -0.25546
 H339 H 0.30540 0.55057 -0.24795
 H340 H 0.36378 0.46903 -0.20260
 H341 H 0.33502 0.45590 -0.38770
 H342 H 0.33462 0.54597 -0.11501
 C343 C 0.64872 -0.01016 -0.30586
 C344 C 0.66519 0.00629 -0.27244
 C345 C 0.68177 0.03585 -0.28075
 C346 C 0.68207 0.04923 -0.32211
 C347 C 0.66522 0.03321 -0.35550
 C348 C 0.64834 0.00345 -0.34734
 C349 C 0.66536 -0.00723 -0.22864
 C350 C 0.68211 -0.03671 -0.22036
 C351 C 0.68296 -0.04982 -0.17885
 C352 C 0.66647 -0.03364 -0.14533
 C353 C 0.64944 -0.00401 -0.15350
 C354 C 0.64927 0.00934 -0.19507
 H355 H 0.63535 -0.03280 -0.29912
 H356 H 0.69434 0.04855 -0.25479
 H357 H 0.69445 -0.04949 -0.24641
 H358 H 0.63577 0.03191 -0.20164
 H359 H 0.66441 0.04436 -0.38718
 H360 H 0.66604 -0.04452 -0.11349
 C361 C -0.01586 0.20962 0.88374
 C362 C -0.01554 0.23959 0.86126
 C363 C -0.04290 0.24899 0.83662
 C364 C -0.07041 0.22827 0.83394
 C365 C -0.07091 0.19830 0.85674
 C366 C -0.04361 0.18904 0.88182
 C367 C 0.01413 0.26026 0.86112
 C368 C 0.04128 0.25103 0.83607
 C369 C 0.06869 0.27186 0.83302
 C370 C 0.06930 0.30176 0.85585
 C371 C 0.04222 0.31085 0.88132
 C372 C 0.01457 0.29016 0.88362
 H373 H 0.00563 0.20218 0.90219
 H374 H -0.04236 0.27196 0.81867
 H375 H 0.04064 0.22812 0.81809
 H376 H -0.00677 0.29748 0.90237
 H377 H -0.09214 0.18207 0.85440
 H378 H 0.09045 0.31808 0.85322
 C379 C 0.51591 0.21007 0.11771
 C380 C 0.51560 0.24007 0.13999
 C381 C 0.54302 0.24956 0.16443
 C382 C 0.57057 0.22890 0.16711
 C383 C 0.57104 0.19890 0.14449
 C384 C 0.54368 0.18955 0.11962
 C385 C 0.48585 0.26062 0.14011
 C386 C 0.45861 0.25107 0.16484
 C387 C 0.43100 0.27162 0.16759
 C388 C 0.43028 0.30158 0.14478
 C389 C 0.45746 0.31100 0.11961
 C390 C 0.48531 0.29059 0.11764
 H391 H 0.49438 0.20256 0.09941
 H392 H 0.54250 0.27256 0.18225
 H393 H 0.45932 0.22808 0.18276
 H394 H 0.50669 0.29813 0.09908
 H395 H 0.59230 0.18271 0.14684
 H396 H 0.40896 0.31768 0.14714
 C397 C 0.01473 0.70952 0.61845
 C398 C 0.01438 0.73953 0.64074
 C399 C 0.04183 0.74910 0.66508
 C400 C 0.06945 0.72853 0.66764
 C401 C 0.06998 0.69855 0.64501
 C402 C 0.04260 0.68910 0.62023
 C403 C -0.01537 0.76011 0.64081
 C404 C -0.04267 0.75057 0.66545
 C405 C -0.07025 0.77123 0.66825
 C406 C -0.07081 0.80126 0.64551
 C407 C -0.04357 0.81064 0.62045
 C408 C -0.01579 0.79014 0.61846
 H409 H -0.00680 0.70196 0.60019
 H410 H 0.04128 0.77211 0.68286
 H411 H -0.04198 0.72752 0.68326
 H412 H 0.00564 0.79766 0.59998
 H413 H 0.09131 0.68245 0.64722
 H414 H -0.09206 0.81750 0.64781
 C415 C 0.48499 0.70958 0.38194
 C416 C 0.48546 0.73957 0.35953
 C417 C 0.45813 0.74915 0.33494
 C418 C 0.43050 0.72858 0.33228
 C419 C 0.42986 0.69859 0.35502
 C420 C 0.45713 0.68916 0.38004
 C421 C 0.51520 0.76015 0.35966
 C422 C 0.54251 0.75082 0.33496
 C423 C 0.57009 0.77148 0.33246
 C424 C 0.57070 0.80128 0.35549
 C425 C 0.54345 0.81045 0.38061
 C426 C 0.51565 0.78996 0.38236
 H427 H 0.50644 0.70203 0.40040
 H428 H 0.45877 0.77216 0.31708
 H429 H 0.54188 0.72797 0.31686
 H430 H 0.49420 0.79733 0.40088
 H431 H 0.40853 0.68248 0.35271
 H432 H 0.59198 0.81747 0.35328
 B433 B -0.03840 0.01419 1.00276
 B434 B -0.04872 0.00521 0.95215
 B435 B -0.02200 0.03548 0.96213
 B436 B 0.00193 0.02498 1.00449
 B437 B -0.01080 -0.01344 1.02039
 B438 B -0.04277 -0.02535 0.98779
 B439 B 0.01186 -0.01822 0.93832
 B440 B 0.02242 -0.00898 0.98864
 B441 B -0.00462 -0.03919 0.97894
 B442 B -0.02835 -0.02873 0.93644
 B443 B -0.01547 0.00968 0.92038
 B444 B 0.01638 0.02166 0.95293
 B445 B 0.46211 0.51470 0.50184
 B446 B 0.45182 0.50552 0.45127
 B447 B 0.47855 0.53582 0.46108
 B448 B 0.50244 0.52550 0.50355
 B449 B 0.48970 0.48714 0.51969
 B450 B 0.45775 0.47511 0.48713
 B451 B 0.51242 0.48203 0.43768
 B452 B 0.52295 0.49148 0.48796
 B453 B 0.49591 0.46123 0.47843
 B454 B 0.47221 0.47151 0.43583
 B455 B 0.48511 0.50985 0.41952
 B456 B 0.51693 0.52197 0.45202
 B457 B 0.53807 0.98456 0.50252
 B458 B 0.54813 0.99381 0.45188
 B459 B 0.52159 0.96336 0.46191
 B460 B 0.49780 0.97356 0.50443
 B461 B 0.51041 1.01198 0.52037
 B462 B 0.54218 1.02418 0.48763
 B463 B 0.48735 1.01698 0.43844
 B464 B 0.47707 1.00747 0.48879
 B465 B 0.50391 1.03786 0.47904
 B466 B 0.52751 1.02771 0.43638
 B467 B 0.51475 0.98931 0.42027
 B468 B 0.48311 0.97702 0.45295
 B469 B 0.03724 0.48484 1.00335
 B470 B 0.04759 0.49433 0.95290
 B471 B 0.02080 0.46401 0.96241
 B472 B -0.00310 0.47410 1.00487
 B473 B 0.00969 0.51233 1.02131
 B474 B 0.04168 0.52452 0.98893
 B475 B -0.01297 0.51801 0.93927
 B476 B -0.02354 0.50825 0.98944
 B477 B 0.00355 0.53853 0.98022
 B478 B 0.02726 0.52847 0.93761
 B479 B 0.01432 0.49025 0.92100
 B480 B -0.01754 0.47798 0.95332
 B481 B 0.03836 0.51499 0.49813
 B482 B 0.04853 0.50546 0.54866
 B483 B 0.02180 0.53580 0.53898
 B484 B -0.00196 0.52574 0.49633
 B485 B 0.01084 0.48751 0.47994
 B486 B 0.04271 0.47529 0.51254
 B487 B -0.01209 0.48179 0.56180
 B488 B -0.02249 0.49159 0.51156
 B489 B 0.00453 0.46129 0.52095
 B490 B 0.02812 0.47131 0.56375
 B491 B 0.01516 0.50952 0.58030
 B492 B -0.01658 0.52183 0.54776
 B493 B 0.53889 0.01507 -0.00111
 B494 B 0.54898 0.00585 0.04954
 B495 B 0.52219 0.03606 0.03947
 B496 B 0.49854 0.02570 -0.00317
 B497 B 0.51150 -0.01257 -0.01915
 B498 B 0.54333 -0.02453 0.01368
 B499 B 0.48839 -0.01792 0.06266
 B500 B 0.47809 -0.00843 0.01229
 B501 B 0.50518 -0.03859 0.02207
 B502 B 0.52863 -0.02827 0.06487
 B503 B 0.51551 0.00999 0.08102
 B504 B 0.48381 0.02203 0.04823
 B505 B 0.46151 0.48543 -0.00252
 B506 B 0.45134 0.49456 0.04808
 B507 B 0.47814 0.46435 0.03817
 B508 B 0.50186 0.47479 -0.00438
 B509 B 0.48895 0.51310 -0.02046
 B510 B 0.45707 0.52500 0.01222
 B511 B 0.51193 0.51828 0.06146
 B512 B 0.52231 0.50888 0.01115
 B513 B 0.49522 0.53903 0.02077
 B514 B 0.47168 0.52865 0.06347
 B515 B 0.48475 0.49035 0.07971
 B516 B 0.51650 0.47836 0.04709
 B517 B -0.03918 0.98475 0.49765
 B518 B -0.04930 0.99429 0.54813
 B519 B -0.02258 0.96394 0.53859
 B520 B 0.00114 0.97399 0.49590
 B521 B -0.01168 1.01222 0.47934
 B522 B -0.04351 1.02445 0.51188
 B523 B 0.01135 1.01796 0.56117
 B524 B 0.02168 1.00815 0.51097
 B525 B -0.00533 1.03845 0.52023
 B526 B -0.02887 1.02844 0.56307
 B527 B -0.01589 0.99023 0.57980
 B528 B 0.01581 0.97791 0.54731
 B529 B 0.76662 0.21142 0.24767
 B530 B 0.75712 0.20107 0.29813
 B531 B 0.78756 0.22774 0.28864
 B532 B 0.77753 0.25171 0.24612
 B533 B 0.73922 0.23910 0.22962
 B534 B 0.72692 0.20715 0.26203
 B535 B 0.73368 0.26171 0.31161
 B536 B 0.74346 0.27227 0.26143
 B537 B 0.71308 0.24531 0.27065
 B538 B 0.72306 0.22152 0.31331
 B539 B 0.76135 0.23430 0.32999
 B540 B 0.77373 0.26613 0.29763
 B541 B 0.73545 0.78839 0.74764
 B542 B 0.74484 0.79844 0.79821
 B543 B 0.71446 0.77180 0.78838
 B544 B 0.72460 0.74811 0.74576
 B545 B 0.76292 0.76087 0.72956
 B546 B 0.77512 0.79265 0.76223
 B547 B 0.76831 0.73776 0.81143
 B548 B 0.75866 0.72750 0.76114
 B549 B 0.78900 0.75443 0.77069
 B550 B 0.77889 0.77794 0.81345
 B551 B 0.74058 0.76502 0.82982
 B552 B 0.72830 0.73338 0.79720
 B553 B 0.26419 0.28917 0.75180
 B554 B 0.25493 0.29966 0.70129
 B555 B 0.28515 0.27279 0.71096
 B556 B 0.27482 0.24881 0.75332
 B557 B 0.23655 0.26163 0.76956
 B558 B 0.22457 0.29372 0.73715
 B559 B 0.23114 0.23919 0.68747
 B560 B 0.24068 0.22849 0.73769
 B561 B 0.21050 0.25564 0.72832
 B562 B 0.22078 0.27944 0.68579
 B563 B 0.25904 0.26646 0.66939
 B564 B 0.27111 0.23451 0.70175
 B565 B 0.23452 0.71195 0.25181
 B566 B 0.24396 0.70178 0.20131
 B567 B 0.21356 0.72842 0.21092
 B568 B 0.22366 0.75224 0.25347
 B569 B 0.26197 0.73954 0.26987
 B570 B 0.27420 0.70769 0.23737
 B571 B 0.26744 0.76244 0.18791
 B572 B 0.25774 0.77284 0.23812
 B573 B 0.28808 0.74589 0.22880
 B574 B 0.27802 0.72227 0.18611
 B575 B 0.23973 0.73512 0.16954
 B576 B 0.22741 0.76684 0.20197
 B577 B 0.26588 0.71204 0.74723
 B578 B 0.25656 0.70176 0.79776
 B579 B 0.28686 0.72852 0.78803
 B580 B 0.27663 0.75236 0.74547
 B581 B 0.23832 0.73956 0.72920
 B582 B 0.22623 0.70763 0.76179
 B583 B 0.23294 0.76234 0.81113
 B584 B 0.24252 0.77282 0.76086
 B585 B 0.21226 0.74577 0.77034
 B586 B 0.22246 0.72212 0.81304
 B587 B 0.26075 0.73507 0.82947
 B588 B 0.27293 0.76688 0.79694
 B589 B 0.23535 0.28795 0.24813
 B590 B 0.24465 0.29808 0.29870
 B591 B 0.21431 0.27139 0.28887
 B592 B 0.22455 0.24764 0.24635
 B593 B 0.26288 0.26042 0.23020
 B594 B 0.27499 0.29226 0.26281
 B595 B 0.26819 0.23745 0.31214
 B596 B 0.25861 0.22708 0.26186
 B597 B 0.28890 0.25408 0.27140
 B598 B 0.27871 0.27765 0.31407
 B599 B 0.24039 0.26470 0.33039
 B600 B 0.22820 0.23300 0.29783
 B601 B 0.76604 0.78902 0.25144
 B602 B 0.75658 0.79930 0.20093
 B603 B 0.78689 0.77252 0.21057
 B604 B 0.77676 0.74869 0.25316
 B605 B 0.73853 0.76149 0.26956
 B606 B 0.72635 0.79342 0.23701
 B607 B 0.73286 0.73872 0.18765
 B608 B 0.74261 0.72823 0.23787
 B609 B 0.71234 0.75528 0.22851
 B610 B 0.72241 0.77894 0.18578
 B611 B 0.76064 0.76598 0.16921
 B612 B 0.77289 0.73418 0.20170
 B613 B 0.73381 0.21122 0.75279
 B614 B 0.74318 0.20124 0.70220
 B615 B 0.71282 0.22787 0.71207
 B616 B 0.72300 0.25150 0.75475
 B617 B 0.76131 0.23871 0.77097
 B618 B 0.77347 0.20698 0.73824
 B619 B 0.76669 0.26194 0.68917
 B620 B 0.75706 0.27213 0.73947
 B621 B 0.78737 0.24520 0.72989
 B622 B 0.77723 0.22176 0.68706
 B623 B 0.73893 0.23471 0.67067
 B624 B 0.72668 0.26631 0.70335
 C625 C 0.38367 1.04713 0.34175
 C626 C 0.40834 1.04538 0.36330
 C627 C 0.43714 1.03964 0.38764
 C628 C 0.46066 1.03166 0.40894
 C629 C -0.11603 0.54835 0.84176
 C630 C -0.09148 0.54670 0.86354
 C631 C -0.06282 0.54101 0.88816
 C632 C -0.03943 0.53296 0.90966
 C633 C 0.11482 -0.04854 0.84085
 C634 C 0.09028 -0.04673 0.86255
 C635 C 0.06165 -0.04093 0.88710
 C636 C 0.03830 -0.03291 0.90860
 C637 C 0.61587 0.45120 0.34138
 C638 C 0.59117 0.45310 0.36275
 C639 C 0.56238 0.45904 0.38694
 C640 C 0.53893 0.46718 0.40817
 C641 C 0.61559 0.54897 0.15764
 C642 C 0.59084 0.54711 0.13630
 C643 C 0.56200 0.54125 0.11213
 C644 C 0.53849 0.53315 0.09091
 C645 C 0.11495 1.04879 0.65745
 C646 C 0.09028 1.04699 0.63593
 C647 C 0.06148 1.04113 0.61166
 C648 C 0.03798 1.03297 0.59045
 C649 C -0.11524 0.45068 0.65860
 C650 C -0.09068 0.45257 0.63695
 C651 C -0.06202 0.45853 0.61250
 C652 C -0.03862 0.46675 0.59117
 C653 C 0.38483 -0.04935 0.15865
 C654 C 0.40953 -0.04729 0.13728
 C655 C 0.43832 -0.04119 0.11314
 C656 C 0.46180 -0.03292 0.09199
 C657 C 0.33099 0.44840 0.07831
 C658 C 0.35780 0.46132 0.07812
 C659 C 0.38944 0.47523 0.07267
 C660 C 0.41663 0.48537 0.06415
 C661 C -0.16998 0.94883 0.57674
 C662 C -0.14312 0.96162 0.57722
 C663 C -0.11135 0.97536 0.57239
 C664 C -0.08405 0.98534 0.56418
 C665 C -0.16937 0.05084 0.92356
 C666 C -0.14255 0.03801 0.92327
 C667 C -0.11081 0.02424 0.92819
 C668 C -0.08352 0.01425 0.93635
 C669 C 0.33105 0.55078 0.42205
 C670 C 0.35794 0.53807 0.42193
 C671 C 0.38972 0.52442 0.42705
 C672 C 0.41702 0.51450 0.43536
 C673 C 0.16925 0.55075 0.57787
 C674 C 0.14237 0.53801 0.57808
 C675 C 0.11059 0.52433 0.57304
 C676 C 0.08330 0.51440 0.56472
 C677 C 0.66939 0.05167 0.07978
 C678 C 0.64254 0.03885 0.07978
 C679 C 0.61085 0.02504 0.07437
 C680 C 0.58365 0.01498 0.06578
 C681 C 0.66898 0.94904 0.42212
 C682 C 0.64203 0.96163 0.42213
 C683 C 0.61022 0.97516 0.42741
 C684 C 0.58292 0.98498 0.43584
 C685 C 0.16826 0.44877 0.92425
 C686 C 0.14143 0.46160 0.92408
 C687 C 0.10969 0.47537 0.92900
 C688 C 0.08240 0.48536 0.93713
 C689 C 0.01241 0.34619 0.44457
 C690 C 0.00571 0.36964 0.46668
 C691 C 0.00030 0.39866 0.49058
 C692 C -0.00090 0.42530 0.50759
 C693 C 0.51326 -0.15357 -0.05430
 C694 C 0.50657 -0.13021 -0.03204
 C695 C 0.50111 -0.10126 -0.00805
 C696 C 0.49985 -0.07463 0.00895
 C697 C -0.01268 -0.15433 1.05498
 C698 C -0.00586 -0.13097 1.03269
 C699 C -0.00035 -0.10197 1.00872
 C700 C 0.00087 -0.07527 0.99181
 C701 C 0.48755 0.34636 0.55504
 C702 C 0.49446 0.36964 0.53268
 C703 C 0.50007 0.39856 0.50858
 C704 C 0.50137 0.42520 0.49153
 C705 C 0.51119 1.15269 0.55564
 C706 C 0.50456 1.12938 0.53325
 C707 C 0.49928 1.10047 0.50913
 C708 C 0.49824 1.07385 0.49208
 C709 C 0.01202 0.65325 1.05721
 C710 C 0.00517 0.62993 1.03492
 C711 C -0.00045 0.60107 1.01078
 C712 C -0.00181 0.57450 0.99360
 C713 C 0.48731 0.65412 -0.05593
 C714 C 0.49395 0.63072 -0.03359
 C715 C 0.49935 0.60174 -0.00948
 C716 C 0.50058 0.57509 0.00759
 C717 C -0.01324 1.15345 0.44301
 C718 C -0.00657 1.13001 0.46528
 C719 C -0.00115 1.10103 0.48941
 C720 C 0.00008 1.07443 0.50663
 C721 C 0.79773 0.63400 0.90821
 C722 C 0.79631 0.65866 0.88661
 C723 C 0.79088 0.68750 0.86221
 C724 C 0.78306 0.71106 0.84088
 C725 C 0.29849 0.13406 0.40915
 C726 C 0.29685 0.15868 0.38749
 C727 C 0.29112 0.18742 0.36303
 C728 C 0.28306 0.21087 0.34165
 C729 C 0.70149 0.36493 0.40765
 C730 C 0.70381 0.34028 0.38627
 C731 C 0.71019 0.31158 0.36213
 C732 C 0.71863 0.28819 0.34098
 C733 C 0.20209 0.86545 0.90801
 C734 C 0.20393 0.84090 0.88634
 C735 C 0.20985 0.81224 0.86190
 C736 C 0.21800 0.78885 0.84057
 C737 C 0.29842 0.86559 0.09080
 C738 C 0.29655 0.84105 0.11257
 C739 C 0.29060 0.81239 0.13709
 C740 C 0.28240 0.78899 0.15846
 C741 C 0.79768 0.36559 0.59292
 C742 C 0.79571 0.34093 0.61442
 C743 C 0.78974 0.31213 0.63867
 C744 C 0.78158 0.28862 0.65987
 C745 C 0.20037 0.13586 0.59108
 C746 C 0.20219 0.16058 0.61239
 C747 C 0.20806 0.18937 0.63658
 C748 C 0.21619 0.21280 0.65787
 C749 C 0.70059 0.63570 0.09125
 C750 C 0.70288 0.66028 0.11277
 C751 C 0.70925 0.68892 0.13706
 C752 C 0.71771 0.71226 0.15829
 C753 C 0.19895 0.58095 0.17244
 C754 C 0.21162 0.60787 0.17218
 C755 C 0.22522 0.63967 0.17715
 C756 C 0.23509 0.66699 0.18539
 C757 C 0.69781 0.08074 0.67197
 C758 C 0.71058 0.10761 0.67203
 C759 C 0.72429 0.13932 0.67742
 C760 C 0.73423 0.16655 0.68598
 C761 C 0.80188 0.07993 0.32569
 C762 C 0.78929 0.10688 0.32628
 C763 C 0.77577 0.13876 0.32175
 C764 C 0.76595 0.16617 0.31385
 C765 C 0.30237 0.58103 0.82536
 C766 C 0.28952 0.60786 0.82600
 C767 C 0.27569 0.63962 0.82149
 C768 C 0.26562 0.66694 0.81357
 C769 C 0.30112 0.42011 0.67165
 C770 C 0.28815 0.39333 0.67180
 C771 C 0.27422 0.36168 0.67711
 C772 C 0.26409 0.33446 0.68547
 C773 C 0.80200 0.92008 0.17223
 C774 C 0.78927 0.89318 0.17187
 C775 C 0.77556 0.86140 0.17677
 C776 C 0.76558 0.83409 0.18497
 C777 C 0.69898 0.91883 0.82724
 C778 C 0.71195 0.89207 0.82746
 C779 C 0.72583 0.86041 0.82248
 C780 C 0.73588 0.83317 0.81422
 C781 C 0.19949 0.41876 0.32822
 C782 C 0.21218 0.39186 0.32828
 C783 C 0.22580 0.36010 0.32308
 C784 C 0.23570 0.33283 0.31470
 C785 C 0.09574 0.26298 0.80545
 C786 C 0.11901 0.25648 0.78291
 C787 C 0.14788 0.25126 0.75865
 C788 C 0.17448 0.25017 0.74149
 C789 C 0.59732 0.76252 0.30524
 C790 C 0.62073 0.75601 0.28296
 C791 C 0.64973 0.75082 0.25892
 C792 C 0.67636 0.74977 0.24184
 C793 C 0.59790 0.23800 0.19416
 C794 C 0.62137 0.24461 0.21633
 C795 C 0.65043 0.24987 0.24028
 C796 C 0.67710 0.25093 0.25732
 C797 C 0.09684 0.73778 0.69451
 C798 C 0.12038 0.74453 0.71651
 C799 C 0.14950 0.74998 0.74027
 C800 C 0.17622 0.75120 0.75716
 C801 C 0.90394 0.76256 0.69393
 C802 C 0.88057 0.75576 0.71620
 C803 C 0.85162 0.75025 0.74028
 C804 C 0.82500 0.74899 0.75739
 C805 C 0.40384 0.26236 0.19482
 C806 C 0.38050 0.25554 0.21711
 C807 C 0.35156 0.24997 0.24116
 C808 C 0.32492 0.24867 0.25822
 C809 C 0.40322 0.73786 0.30521
 C810 C 0.37978 0.74465 0.28304
 C811 C 0.35075 0.75016 0.25910
 C812 C 0.32409 0.75139 0.24209
 C813 C 0.90234 0.23735 0.80673
 C814 C 0.87896 0.24404 0.78442
 C815 C 0.84999 0.24946 0.76033
 C816 C 0.82337 0.25067 0.74321
 C817 C 0.62854 0.99006 0.62172
 C818 C 0.60957 0.98056 0.59445
 C819 C 0.58571 0.97395 0.56242
 C820 C 0.56448 0.97385 0.53522
 C821 C 0.12844 0.48931 1.12150
 C822 C 0.10915 0.47997 1.09455
 C823 C 0.08497 0.47358 1.06289
 C824 C 0.06356 0.47374 1.03593
 C825 C -0.12920 0.00883 1.12152
 C826 C -0.11003 0.01823 1.09442
 C827 C -0.08601 0.02479 1.06261
 C828 C -0.06472 0.02488 1.03553
 C829 C 0.37139 0.50993 0.62078
 C830 C 0.39054 0.51918 0.59356
 C831 C 0.41453 0.52557 0.56165
 C832 C 0.43579 0.52553 0.53453
 C833 C 0.37127 0.49086 -0.12188
 C834 C 0.39017 0.48133 -0.09453
 C835 C 0.41397 0.47466 -0.06245
 C836 C 0.43518 0.47457 -0.03521
 C837 C -0.12969 0.98954 0.37869
 C838 C -0.11074 0.98011 0.40602
 C839 C -0.08684 0.97361 0.43804
 C840 C -0.06557 0.97368 0.46517
 C841 C 0.12938 0.51040 0.37996
 C842 C 0.11023 0.51976 0.40702
 C843 C 0.08615 0.52619 0.43875
 C844 C 0.06477 0.52607 0.46570
 C845 C 0.62890 0.01031 -0.12058
 C846 C 0.61008 0.01971 -0.09316
 C847 C 0.58635 0.02617 -0.06099
 C848 C 0.56521 0.02608 -0.03373
 C849 C 0.64575 0.55065 0.00781
 C850 C 0.61905 0.53870 0.00011
 C851 C 0.58647 0.52647 -0.00402
 C852 C 0.55805 0.51754 -0.00198
 C853 C 0.14521 1.04921 0.50718
 C854 C 0.11848 1.03736 0.49953
 C855 C 0.08586 1.02529 0.49551
 C856 C 0.05741 1.01655 0.49768
 C857 C 0.14596 -0.05036 0.99116
 C858 C 0.11923 -0.03858 0.99897
 C859 C 0.08665 -0.02645 1.00332
 C860 C 0.05822 -0.01759 1.00151
 C861 C 0.64645 0.44996 0.49077
 C862 C 0.61975 0.46185 0.49855
 C863 C 0.58718 0.47404 0.50283
 C864 C 0.55875 0.48291 0.50093
 C865 C -0.14632 0.45118 0.50793
 C866 C -0.11948 0.46279 0.50025
 C867 C -0.08676 0.47462 0.49620
 C868 C -0.05826 0.48323 0.49833
 C869 C 0.35460 -0.04995 0.00788
 C870 C 0.38138 -0.03809 0.00046
 C871 C 0.41399 -0.02593 -0.00335
 C872 C 0.44240 -0.01705 -0.00106
 C873 C 0.35366 1.04896 0.49217
 C874 C 0.38033 1.03698 0.49986
 C875 C 0.41289 1.02474 0.50399
 C876 C 0.44131 1.01589 0.50194
 C877 C -0.14715 0.54927 0.99179
 C878 C -0.12043 0.53748 0.99974
 C879 C -0.08781 0.52544 1.00416
 C880 C -0.05935 0.51670 1.00235
 C881 C 0.04186 0.65764 0.59868
 C882 C 0.03962 0.63103 0.58154
 C883 C 0.03524 0.59940 0.56334
 C884 C 0.03014 0.57184 0.55031
 C885 C 0.54280 0.15804 0.09822
 C886 C 0.54036 0.13140 0.08124
 C887 C 0.53575 0.09974 0.06327
 C888 C 0.53052 0.07214 0.05047
 C889 C -0.04274 0.15754 0.90339
 C890 C -0.04033 0.13090 0.92048
 C891 C -0.03573 0.09921 0.93852
 C892 C -0.03046 0.07159 0.95131
 C893 C 0.45785 0.65769 0.40166
 C894 C 0.46021 0.63108 0.41885
 C895 C 0.46480 0.59945 0.43706
 C896 C 0.47007 0.57188 0.45002
 C897 C 0.54267 0.84179 0.40241
 C898 C 0.54025 0.86831 0.41971
 C899 C 0.53558 0.89985 0.43798
 C900 C 0.53021 0.92736 0.45093
 C901 C 0.04142 0.34228 0.90291
 C902 C 0.03905 0.36886 0.92006
 C903 C 0.03447 0.40045 0.93823
 C904 C 0.02922 0.42799 0.95120
 C905 C 0.45807 0.34245 0.09790
 C906 C 0.46030 0.36904 0.08062
 C907 C 0.46472 0.40067 0.06232
 C908 C 0.46984 0.42825 0.04929
 C909 C -0.04283 0.84213 0.59882
 C910 C -0.04055 0.86874 0.58159
 C911 C -0.03610 0.90036 0.56325
 C912 C -0.03095 0.92791 0.55009
 C913 C 0.24069 0.37868 0.12917
 C914 C 0.23124 0.35962 0.15639
 C915 C 0.22463 0.33566 0.18832
 C916 C 0.22453 0.31436 0.21545
 C917 C 0.74016 0.87940 0.62907
 C918 C 0.73083 0.86027 0.65625
 C919 C 0.72441 0.83621 0.68810
 C920 C 0.72450 0.81485 0.71513
 C921 C 0.26099 0.62112 0.62901
 C922 C 0.27041 0.64029 0.65603
 C923 C 0.27691 0.66437 0.68773
 C924 C 0.27685 0.68571 0.71470
 C925 C 0.76054 0.12086 0.12918
 C926 C 0.77029 0.13987 0.15621
 C927 C 0.77719 0.16380 0.18798
 C928 C 0.77743 0.18508 0.21503
 C929 C 0.73874 0.12073 0.87182
 C930 C 0.72926 0.13967 0.84449
 C931 C 0.72276 0.16353 0.81244
 C932 C 0.72283 0.18479 0.78528
 C933 C 0.23932 0.62098 0.37036
 C934 C 0.22993 0.64013 0.34323
 C935 C 0.22348 0.66419 0.31140
 C936 C 0.22355 0.68555 0.28436
 C937 C 0.76103 0.87954 0.37010
 C938 C 0.77051 0.86053 0.34294
 C939 C 0.77707 0.83661 0.31108
 C940 C 0.77706 0.81534 0.28400
 C941 C 0.25972 0.37885 0.87164
 C942 C 0.26903 0.36001 0.84420
 C943 C 0.27539 0.33632 0.81198
 C944 C 0.27524 0.31526 0.78463
 C945 C 0.79853 0.39550 0.74344
 C946 C 0.78658 0.36880 0.75107
 C947 C 0.77437 0.33622 0.75504
 C948 C 0.76553 0.30781 0.75283
 C949 C 0.29922 0.89631 0.24167
 C950 C 0.28721 0.86962 0.24932
 C951 C 0.27500 0.83704 0.25335
 C952 C 0.26617 0.80861 0.25125
 C953 C 0.20110 0.89630 0.75644
 C954 C 0.21303 0.86958 0.74905
 C955 C 0.22520 0.83698 0.74531
 C956 C 0.23402 0.80856 0.74761
 C957 C 0.70244 0.39590 0.25757
 C958 C 0.71431 0.36916 0.25007
 C959 C 0.72639 0.33654 0.24616
 C960 C 0.73512 0.30808 0.24832
 C961 C 0.70193 0.60450 0.24171
 C962 C 0.71364 0.63130 0.24930
 C963 C 0.72556 0.66398 0.25326
 C964 C 0.73421 0.69246 0.25108
 C965 C 0.19950 0.10486 0.74025
 C966 C 0.21124 0.13161 0.74804
 C967 C 0.22329 0.16423 0.75237
 C968 C 0.23209 0.19267 0.75054
 C969 C 0.29930 0.10334 0.25874
 C970 C 0.28765 0.13016 0.25101
 C971 C 0.27573 0.16284 0.24682
 C972 C 0.26705 0.19131 0.24880
 C973 C 0.79956 0.60398 0.75814
 C974 C 0.78780 0.63071 0.75027
 C975 C 0.77578 0.66332 0.74598
 C976 C 0.76705 0.69177 0.74796
 C977 C 0.90879 0.79172 0.15064
 C978 C 0.88218 0.78980 0.16789
 C979 C 0.85054 0.78571 0.18618
 C980 C 0.82295 0.78079 0.19926
 C981 C 0.40716 0.29267 0.65188
 C982 C 0.38052 0.29055 0.66899
 C983 C 0.34885 0.28621 0.68708
 C984 C 0.32124 0.28111 0.69995
 C985 C 0.40853 0.70767 0.84815
 C986 C 0.38199 0.71013 0.83078
 C987 C 0.35044 0.71479 0.81238
 C988 C 0.32291 0.72009 0.79927
 C989 C 0.90927 0.20722 0.34899
 C990 C 0.88269 0.20952 0.33165
 C991 C 0.85111 0.21402 0.31322
 C992 C 0.82358 0.21924 0.30004
 C993 C 0.09238 0.29146 0.34835
 C994 C 0.11900 0.28922 0.33118
 C995 C 0.15065 0.28484 0.31299
 C996 C 0.17823 0.27975 0.30001
 C997 C 0.59281 0.79212 0.84847
 C998 C 0.61934 0.78986 0.83112
 C999 C 0.65090 0.78540 0.81273
 C1000 C 0.67843 0.78022 0.79963
 C1001 C 0.59102 0.20695 0.65265
 C1002 C 0.61763 0.20935 0.66980
 C1003 C 0.64925 0.21403 0.68794
 C1004 C 0.67680 0.21937 0.70089
 C1005 C 0.09170 0.70690 0.15169
 C1006 C 0.11836 0.70950 0.16870
 C1007 C 0.15000 0.71436 0.18676
 C1008 C 0.17755 0.71982 0.19969
   
