data_POSCAR
  _audit_creation_date              2014-09-24
  _audit_creation_method            'ToBaCCo'
  _symmetry_space_group_name_H-M    'P1'
  _symmetry_Int_Tables_number       1
  _symmetry_cell_setting            triclinic
  loop_
  _symmetry_equiv_pos_as_xyz
 x,y,z
_cell_length_a 38.3755
_cell_length_b 41.7176
_cell_length_c 39.6710
_cell_angle_alpha 90.040300
_cell_angle_beta 89.881200
_cell_angle_gamma 83.031700
loop_
  _atom_site_label
  _atom_site_type_symbol
  _atom_site_fract_x
  _atom_site_fract_y
  _atom_site_fract_z
C1 C 1.23086 0.23012 0.19806
 C2 C 1.25523 0.25126 0.18014
 C3 C 1.27391 0.26838 0.20143
 C4 C 1.26630 0.26289 0.23912
 C5 C 1.25501 0.20924 0.22222
 C6 C 1.27317 0.22611 0.24403
 C7 C 1.20804 0.25375 0.22086
 C8 C 1.22622 0.27036 0.24288
 H9 H 1.25657 0.25406 0.15316
 H10 H 1.28135 0.27658 0.25676
 H11 H 1.25679 0.18312 0.22244
 H12 H 1.17962 0.25618 0.22023
 C13 C 0.73874 -0.27568 0.19758
 C14 C 0.76005 -0.25302 0.17797
 C15 C 0.77737 -0.23350 0.19789
 C16 C 0.77227 -0.23885 0.23602
 C17 C 0.76555 -0.29417 0.22114
 C18 C 0.78244 -0.27520 0.24187
 C19 C 0.71499 -0.25316 0.22076
 C20 C 0.73229 -0.23426 0.24120
 H21 H 0.76211 -0.25251 0.15086
 H22 H 0.78644 -0.22338 0.25261
 H23 H 0.76869 -0.32027 0.22316
 H24 H 0.68671 -0.25279 0.22124
 C25 C 0.72190 0.22621 -0.30152
 C26 C 0.74366 0.24602 -0.32066
 C27 C 0.76478 0.26478 -0.30029
 C28 C 0.75949 0.25963 -0.26388
 C29 C 0.74591 0.20669 -0.27945
 C30 C 0.76659 0.22458 -0.25799
 C31 C 0.70124 0.24936 -0.27970
 C32 C 0.72150 0.26760 -0.25823
 H33 H 0.74292 0.24727 -0.34779
 H34 H 0.77485 0.27364 -0.24740
 H35 H 0.74931 0.18058 -0.28098
 H36 H 0.67331 0.25586 -0.28328
 C37 C 1.22359 -0.27254 -0.30377
 C38 C 1.24315 -0.24815 -0.32293
 C39 C 1.26341 -0.23131 -0.30294
 C40 C 1.26237 -0.24049 -0.26533
 C41 C 1.25262 -0.29376 -0.28497
 C42 C 1.27267 -0.27731 -0.26454
 C43 C 1.20317 -0.25244 -0.27627
 C44 C 1.22320 -0.23590 -0.25595
 H45 H 1.24280 -0.24524 -0.34994
 H46 H 1.27882 -0.22692 -0.24892
 H47 H 1.25521 -0.31989 -0.28592
 H48 H 1.17492 -0.25105 -0.27366
 C49 C 0.23524 0.22674 0.80023
 C50 C 0.25823 0.24583 0.81849
 C51 C 0.27708 0.26608 0.79761
 C52 C 0.26994 0.26217 0.76153
 C53 C 0.21190 0.25110 0.77875
 C54 C 0.22981 0.26954 0.75831
 C55 C 0.25955 0.20734 0.77491
 C56 C 0.27724 0.22568 0.75411
 H57 H 0.26479 0.24164 0.84467
 H58 H 0.28373 0.27704 0.74410
 H59 H 0.18353 0.25235 0.77857
 H60 H 0.26169 0.18127 0.77297
 C61 C 0.73304 0.72918 0.80161
 C62 C 0.75445 0.74904 0.82069
 C63 C 0.77445 0.76880 0.80047
 C64 C 0.76889 0.76435 0.76406
 C65 C 0.71147 0.75134 0.77953
 C66 C 0.73070 0.77142 0.75888
 C67 C 0.75705 0.71055 0.77852
 C68 C 0.77742 0.72944 0.75779
 H69 H 0.75252 0.75090 0.84788
 H70 H 0.78497 0.77880 0.74869
 H71 H 0.68451 0.74812 0.77407
 H72 H 0.75492 0.68542 0.77307
 C73 C 0.72273 0.22776 0.29854
 C74 C 0.74780 0.24504 0.31988
 C75 C 0.76776 0.26397 0.30204
 C76 C 0.76138 0.26318 0.26369
 C77 C 0.70161 0.25466 0.27800
 C78 C 0.72168 0.27327 0.25992
 C79 C 0.74608 0.20896 0.27202
 C80 C 0.76627 0.22724 0.25370
 H81 H 0.74868 0.24306 0.34709
 H82 H 0.77758 0.27837 0.24883
 H83 H 0.67349 0.25664 0.27463
 H84 H 0.74546 0.18348 0.26721
 C85 C 0.21970 0.72827 0.30503
 C86 C 0.24255 0.75049 0.32333
 C87 C 0.26304 0.76633 0.30248
 C88 C 0.25906 0.75815 0.26477
 C89 C 0.19915 0.75042 0.27927
 C90 C 0.21944 0.76576 0.25791
 C91 C 0.24570 0.70582 0.28404
 C92 C 0.26581 0.72103 0.26245
 H93 H 0.24237 0.75420 0.35024
 H94 H 0.27561 0.77077 0.24749
 H95 H 0.17073 0.75378 0.27833
 H96 H 0.24692 0.67977 0.28536
 N97 N 1.06217 0.02846 0.03450
 N98 N 1.08529 0.04900 0.03900
 N99 N 1.03729 -0.03521 0.05955
 N100 N 1.04564 -0.05544 0.08466
 N101 N 1.06163 -0.03873 0.03603
 N102 N 1.08714 -0.06140 0.04458
 N103 N 1.03777 0.03212 0.05790
 N104 N 1.04366 0.05529 0.07910
 C105 C 1.07321 0.06561 0.06670
 C106 C 1.07637 -0.07198 0.07458
 N107 N 0.93704 -0.02373 0.03595
 N108 N 0.91338 -0.04340 0.04256
 N109 N 0.96214 0.04114 0.05799
 N110 N 0.95552 0.06397 0.08097
 N111 N 0.93761 0.04372 0.03475
 N112 N 0.91360 0.06841 0.04138
 N113 N 0.96147 -0.02614 0.05931
 N114 N 0.95514 -0.04750 0.08238
 Mn115 Mn 0.99963 0.00298 0.05899
 C116 C 0.92529 -0.05818 0.07140
 C117 C 0.92555 0.08104 0.06995
 N118 N 1.06180 -0.03991 -0.03680
 N119 N 1.08733 -0.06288 -0.04456
 N120 N 1.03817 0.03017 -0.06109
 N121 N 1.04413 0.05276 -0.08296
 N122 N 1.06239 0.02726 -0.03760
 N123 N 1.08545 0.04775 -0.04269
 N124 N 1.03764 -0.03717 -0.06041
 N125 N 1.04614 -0.05826 -0.08479
 Mn126 Mn 1.06224 -0.00584 -0.00097
 C127 C 1.07676 -0.07448 -0.07413
 C128 C 1.07355 0.06352 -0.07087
 N129 N 0.93782 0.04258 -0.03824
 N130 N 0.91394 0.06714 -0.04562
 N131 N 0.96174 -0.02806 -0.06052
 N132 N 0.95499 -0.04954 -0.08332
 N133 N 0.93717 -0.02486 -0.03720
 N134 N 0.91302 -0.04408 -0.04357
 N135 N 0.96252 0.03924 -0.06141
 N136 N 0.95615 0.06139 -0.08508
 Mn137 Mn 0.93701 0.00945 -0.00118
 Mn138 Mn 1.00000 0.00103 -0.06116
 Cl139 Cl 0.99967 0.00180 -0.00108
 C140 C 0.92614 0.07887 -0.07459
 C141 C 0.92478 -0.05950 -0.07218
 N142 N 1.05576 0.52247 0.53889
 N143 N 1.07813 0.54371 0.54331
 N144 N 1.03143 0.45817 0.56291
 N145 N 1.04006 0.43777 0.58779
 N146 N 1.05584 0.45523 0.53942
 N147 N 1.08162 0.43279 0.54775
 N148 N 1.03138 0.52552 0.56231
 N149 N 1.03646 0.54899 0.58342
 C150 C 1.06559 0.56006 0.57101
 C151 C 1.07095 0.42169 0.57753
 N152 N 0.93108 0.46946 0.53950
 N153 N 0.90721 0.45000 0.54613
 N154 N 0.95599 0.53411 0.56226
 N155 N 0.95061 0.55782 0.58437
 N156 N 0.93149 0.53698 0.53901
 N157 N 0.90865 0.56278 0.54477
 N158 N 0.95558 0.46677 0.56280
 N159 N 0.94906 0.44546 0.58585
 Mn160 Mn 0.99356 0.49611 0.56289
 C161 C 0.91906 0.43504 0.57490
 C162 C 0.92131 0.57562 0.57291
 N163 N 1.05624 0.45490 0.46674
 N164 N 1.08228 0.43263 0.45846
 N165 N 1.03195 0.52497 0.44324
 N166 N 1.03707 0.54837 0.42206
 N167 N 1.05613 0.52217 0.46675
 N168 N 1.07840 0.54352 0.46232
 N169 N 1.03202 0.45759 0.44319
 N170 N 1.04101 0.43720 0.41833
 Mn171 Mn 1.05625 0.48860 0.50296
 C172 C 1.07194 0.42138 0.42865
 C173 C 1.06603 0.55966 0.43450
 N174 N 0.93187 0.53658 0.46617
 N175 N 0.90923 0.56244 0.46019
 N176 N 0.95618 0.46614 0.44318
 N177 N 0.95022 0.44412 0.42068
 N178 N 0.93151 0.46906 0.46640
 N179 N 0.90807 0.44906 0.46030
 N180 N 0.95659 0.53346 0.44304
 N181 N 0.95158 0.55702 0.42080
 Mn182 Mn 0.93103 0.50305 0.50276
 Mn183 Mn 0.99414 0.49550 0.44285
 Cl184 Cl 0.99370 0.49567 0.50287
 C185 C 0.92225 0.57501 0.43204
 C186 C 0.92036 0.43356 0.43190
 N187 N 0.56083 0.02039 0.53402
 N188 N 0.58408 0.04070 0.53915
 N189 N 0.53617 -0.04378 0.55801
 N190 N 0.54537 -0.06339 0.58344
 N191 N 0.56055 -0.04680 0.53449
 N192 N 0.58686 -0.06850 0.54340
 N193 N 0.53651 0.02351 0.55750
 N194 N 0.54253 0.04608 0.57937
 C195 C 0.57211 0.05661 0.56732
 C196 C 0.57656 -0.07913 0.57353
 N197 N 0.43574 -0.03193 0.53452
 N198 N 0.41150 -0.05096 0.54124
 N199 N 0.46101 0.03250 0.55753
 N200 N 0.45535 0.05581 0.58008
 N201 N 0.43648 0.03549 0.53430
 N202 N 0.41337 0.06099 0.54051
 N203 N 0.46020 -0.03480 0.55785
 N204 N 0.45325 -0.05583 0.58104
 Mn205 Mn 0.49842 -0.00568 0.55801
 C206 C 0.42307 -0.06591 0.57007
 C207 C 0.42588 0.07355 0.56888
 N208 N 0.56058 -0.04698 0.46167
 N209 N 0.58651 -0.06931 0.45327
 N210 N 0.53670 0.02322 0.43833
 N211 N 0.54251 0.04606 0.41671
 N212 N 0.56092 0.02020 0.46182
 N213 N 0.58386 0.04085 0.45695
 N214 N 0.53633 -0.04407 0.43814
 N215 N 0.54521 -0.06438 0.41316
 Mn216 Mn 0.56095 -0.01338 0.49799
 C217 C 0.57609 -0.08037 0.42341
 C218 C 0.57188 0.05683 0.42890
 N219 N 0.43659 0.03524 0.46143
 N220 N 0.41318 0.06038 0.45489
 N221 N 0.46042 -0.03517 0.43811
 N222 N 0.45363 -0.05635 0.41499
 N223 N 0.43584 -0.03220 0.46143
 N224 N 0.41166 -0.05131 0.45474
 N225 N 0.46120 0.03215 0.43819
 N226 N 0.45528 0.05506 0.41528
 Mn227 Mn 0.43576 0.00168 0.49793
 Mn228 Mn 0.49864 -0.00600 0.43789
 Cl229 Cl 0.49841 -0.00599 0.49796
 C230 C 0.42559 0.07267 0.42632
 C231 C 0.42339 -0.06642 0.42595
 N232 N 0.46474 0.44481 0.03363
 N233 N 0.45897 0.42223 0.05553
 N234 N 0.43890 0.46882 -0.03708
 N235 N 0.41461 0.46275 -0.05899
 N236 N 0.46506 0.44533 -0.03721
 N237 N 0.45930 0.42283 -0.05920
 N238 N 0.43865 0.46836 0.03385
 N239 N 0.41442 0.46231 0.05592
 C240 C 0.42787 0.43377 0.06961
 C241 C 0.42814 0.43432 -0.07300
 N242 N 0.45744 0.55956 -0.03598
 N243 N 0.45019 0.58196 -0.05920
 N244 N 0.43394 0.53833 0.03459
 N245 N 0.40958 0.54623 0.05778
 N246 N 0.45718 0.55901 0.03475
 N247 N 0.44938 0.58141 0.05794
 N248 N 0.43428 0.53881 -0.03644
 N249 N 0.41052 0.54662 -0.06007
 Mn250 Mn 0.43602 0.50361 -0.00128
 C251 C 0.42116 0.57338 -0.07415
 C252 C 0.41996 0.57290 0.07230
 N253 N 0.54071 0.44140 -0.03712
 N254 N 0.54948 0.41902 -0.06020
 N255 N 0.56307 0.46203 0.03391
 N256 N 0.58727 0.45475 0.05715
 N257 N 0.54039 0.44086 0.03377
 N258 N 0.54857 0.41851 0.05694
 N259 N 0.56335 0.46262 -0.03684
 N260 N 0.58810 0.45532 -0.05968
 Mn261 Mn 0.50274 0.44281 -0.00173
 C262 C 0.57877 0.42837 -0.07425
 C263 C 0.57760 0.42781 0.07145
 N264 N 0.53255 0.55500 0.03484
 N265 N 0.53988 0.57838 0.05509
 N266 N 0.55875 0.53204 -0.03601
 N267 N 0.58477 0.53958 -0.05510
 N268 N 0.53280 0.55570 -0.03580
 N269 N 0.54056 0.57984 -0.05476
 N270 N 0.55842 0.53129 0.03460
 N271 N 0.58395 0.53794 0.05469
 Mn272 Mn 0.49489 0.55749 -0.00054
 Mn273 Mn 0.56110 0.49692 -0.00110
 Cl274 Cl 0.49864 0.50020 -0.00118
 C275 C 0.57155 0.56694 0.06784
 C276 C 0.57258 0.56903 -0.06726
 C277 C 1.16464 0.17210 0.17689
 C278 C 1.16623 0.17048 0.14178
 C279 C 1.18896 0.18829 0.12415
 C280 C 1.21010 0.20778 0.14163
 C281 C 1.20865 0.20968 0.17713
 C282 C 1.18564 0.19142 0.19437
 C283 C 1.14516 0.14966 0.12426
 C284 C 1.12763 0.13147 0.11054
 C285 C 1.10764 0.10935 0.09520
 C286 C 1.09133 0.08975 0.08228
 H287 H 1.14731 0.15824 0.19081
 H288 H 1.19053 0.18696 0.09690
 H289 H 1.22744 0.22082 0.12703
 H290 H 1.18403 0.19211 0.22164
 C291 C 1.17231 0.69049 0.62538
 C292 C 1.15569 0.66813 0.64383
 C293 C 1.16073 0.66547 0.67858
 C294 C 1.18253 0.68489 0.69486
 C295 C 1.19988 0.70734 0.67672
 C296 C 1.19421 0.71007 0.64165
 C297 C 1.13445 0.64693 0.62721
 C298 C 1.11725 0.62822 0.61399
 C299 C 1.09804 0.60533 0.59903
 C300 C 1.08261 0.58501 0.58635
 H301 H 1.16855 0.69264 0.59838
 H302 H 1.14804 0.64817 0.69309
 H303 H 1.18610 0.68229 0.72185
 H304 H 1.20638 0.72697 0.62639
 C305 C 0.69251 0.17218 0.62992
 C306 C 0.66182 0.16318 0.64415
 C307 C 0.65108 0.17452 0.67604
 C308 C 0.67057 0.19522 0.69351
 C309 C 0.70087 0.20603 0.67902
 C310 C 0.71217 0.19295 0.64730
 C311 C 0.64203 0.14114 0.62685
 C312 C 0.62537 0.12237 0.61293
 C313 C 0.60611 0.09999 0.59705
 C314 C 0.59016 0.08044 0.58356
 H315 H 0.70162 0.16268 0.60560
 H316 H 0.62787 0.16694 0.68771
 H317 H 0.66204 0.20234 0.71874
 H318 H 0.73661 0.19793 0.63603
 C319 C 0.69313 0.68133 0.12708
 C320 C 0.67496 0.66060 0.14625
 C321 C 0.67809 0.66019 0.18127
 C322 C 0.69910 0.68059 0.19715
 C323 C 0.71752 0.70180 0.17833
 C324 C 0.71427 0.70186 0.14293
 C325 C 0.65254 0.64010 0.13021
 C326 C 0.63356 0.62296 0.11697
 C327 C 0.61142 0.60308 0.10111
 C328 C 0.59285 0.58636 0.08666
 H329 H 0.69069 0.68184 0.09987
 H330 H 0.66404 0.64430 0.19636
 H331 H 0.70073 0.68012 0.22441
 H332 H 0.72732 0.71775 0.12717
 C333 C 0.84848 -0.17884 0.18391
 C334 C 0.83703 -0.16321 0.15393
 C335 C 0.80563 -0.16979 0.13917
 C336 C 0.78606 -0.19222 0.15382
 C337 C 0.79763 -0.20860 0.18352
 C338 C 0.82880 -0.20135 0.19872
 C339 C 0.85740 -0.14078 0.13764
 C340 C 0.87362 -0.12202 0.12295
 C341 C 0.89191 -0.09998 0.10501
 C342 C 0.90720 -0.08103 0.08954
 H343 H 0.87276 -0.17392 0.19560
 H344 H 0.79635 -0.15772 0.11613
 H345 H 0.76175 -0.19666 0.14189
 H346 H 0.83844 -0.21366 0.22148
 C347 C 0.83404 0.32083 0.68965
 C348 C 0.82826 0.33117 0.65636
 C349 C 0.80146 0.31987 0.63779
 C350 C 0.78065 0.29827 0.65209
 C351 C 0.78605 0.28714 0.68562
 C352 C 0.81316 0.29912 0.70421
 C353 C 0.84940 0.35339 0.64074
 C354 C 0.86617 0.37195 0.62636
 C355 C 0.88499 0.39372 0.60857
 C356 C 0.90063 0.41244 0.59312
 H357 H 0.85487 0.32934 0.70431
 H358 H 0.79641 0.32797 0.61211
 H359 H 0.75958 0.29156 0.63666
 H360 H 0.81952 0.29114 0.72957
 C361 C 0.33982 -0.18330 0.68120
 C362 C 0.32757 -0.16456 0.65339
 C363 C 0.29385 -0.16662 0.64095
 C364 C 0.27272 -0.18777 0.65569
 C365 C 0.28504 -0.20728 0.68312
 C366 C 0.31862 -0.20449 0.69608
 C367 C 0.34961 -0.14374 0.63682
 C368 C 0.36733 -0.12626 0.62204
 C369 C 0.38733 -0.10562 0.60407
 C370 C 0.40388 -0.08772 0.58851
 H371 H 0.36590 -0.18192 0.69104
 H372 H 0.28400 -0.15214 0.61957
 H373 H 0.24675 -0.18892 0.64551
 H374 H 0.32893 -0.21940 0.71696
 C375 C 0.33817 0.30548 0.14514
 C376 C 0.33975 0.33534 0.16074
 C377 C 0.32144 0.34258 0.19093
 C378 C 0.30091 0.32035 0.20492
 C379 C 0.29821 0.29076 0.18871
 C380 C 0.31765 0.28336 0.15899
 C381 C 0.35895 0.35876 0.14461
 C382 C 0.37480 0.37753 0.12949
 C383 C 0.39322 0.39844 0.11010
 C384 C 0.40896 0.41523 0.09228
 H385 H 0.35233 0.29950 0.12187
 H386 H 0.32242 0.36564 0.20323
 H387 H 0.28620 0.32684 0.22766
 H388 H 0.31673 0.26053 0.14623
 C389 C 0.83697 0.20919 -0.19181
 C390 C 0.83192 0.17805 -0.18134
 C391 C 0.80544 0.16270 -0.19603
 C392 C 0.78419 0.17805 -0.22109
 C393 C 0.78878 0.20944 -0.23241
 C394 C 0.81556 0.22484 -0.21700
 C395 C 0.85391 0.16090 -0.15613
 C396 C 0.87127 0.14447 -0.13578
 C397 C 0.89073 0.12320 -0.11303
 C398 C 0.90694 0.10364 -0.09476
 H399 H 0.85764 0.22128 -0.18077
 H400 H 0.80106 0.13868 -0.18799
 H401 H 0.76335 0.16525 -0.23042
 H402 H 0.82123 0.24842 -0.22490
 C403 C 0.85213 0.70648 0.30923
 C404 C 0.83831 0.68194 0.32722
 C405 C 0.80568 0.67291 0.31830
 C406 C 0.78739 0.68744 0.29097
 C407 C 0.80148 0.71126 0.27198
 C408 C 0.83357 0.72134 0.28182
 C409 C 0.85817 0.66369 0.35300
 C410 C 0.87355 0.64602 0.37353
 C411 C 0.89059 0.62303 0.39596
 C412 C 0.90490 0.60181 0.41347
 H413 H 0.87748 0.71354 0.31586
 H414 H 0.79473 0.65400 0.33200
 H415 H 0.76226 0.67982 0.28447
 H416 H 0.84475 0.73979 0.26765
 C417 C 0.34594 0.20451 0.30777
 C418 C 0.33430 0.17768 0.32356
 C419 C 0.30227 0.16763 0.31415
 C420 C 0.28228 0.18374 0.28866
 C421 C 0.29405 0.21020 0.27203
 C422 C 0.32578 0.22086 0.28222
 C423 C 0.35559 0.15893 0.34805
 C424 C 0.37243 0.14136 0.36775
 C425 C 0.39129 0.11893 0.38965
 C426 C 0.40700 0.09844 0.40715
 H427 H 0.37081 0.21241 0.31478
 H428 H 0.29295 0.14696 0.32620
 H429 H 0.25754 0.17545 0.28196
 H430 H 0.33543 0.24114 0.26978
 C431 C 0.31970 0.69808 -0.18317
 C432 C 0.33822 0.66832 -0.19232
 C433 C 0.33783 0.65789 -0.22581
 C434 C 0.31789 0.67646 -0.24978
 C435 C 0.29799 0.70571 -0.24053
 C436 C 0.29975 0.71676 -0.20718
 C437 C 0.35611 0.64764 -0.16716
 C438 C 0.37067 0.62995 -0.14616
 C439 C 0.38766 0.60933 -0.12146
 C440 C 0.40255 0.59232 -0.10009
 H441 H 0.31980 0.70637 -0.15728
 H442 H 0.35218 0.63498 -0.23321
 H443 H 0.31732 0.66755 -0.27539
 H444 H 0.28435 0.73896 -0.19924
 C445 C 1.20317 -0.16615 -0.19487
 C446 C 1.17475 -0.17588 -0.17695
 C447 C 1.16368 -0.20597 -0.18354
 C448 C 1.18019 -0.22586 -0.20858
 C449 C 1.20799 -0.21588 -0.22750
 C450 C 1.21986 -0.18614 -0.21996
 C451 C 1.15538 -0.15446 -0.15325
 C452 C 1.13799 -0.13666 -0.13408
 C453 C 1.11677 -0.11567 -0.11242
 C454 C 1.09841 -0.09728 -0.09459
 H455 H 1.21186 -0.14282 -0.19003
 H456 H 1.14179 -0.21378 -0.16980
 H457 H 1.17093 -0.24894 -0.21340
 H458 H 1.24106 -0.17781 -0.23428
 C459 C 1.16066 0.29870 0.31119
 C460 C 1.17284 0.32725 0.32181
 C461 C 1.20331 0.33685 0.30744
 C462 C 1.22120 0.31812 0.28205
 C463 C 1.20850 0.28987 0.27059
 C464 C 1.17836 0.28010 0.28587
 C465 C 1.15293 0.34711 0.34640
 C466 C 1.13505 0.36352 0.36635
 C467 C 1.11322 0.38286 0.38890
 C468 C 1.09429 0.39995 0.40745
 H469 H 1.13722 0.29098 0.32224
 H470 H 1.21292 0.35898 0.31551
 H471 H 1.24432 0.32618 0.27091
 H472 H 1.16845 0.25795 0.27835
 C473 C 0.66776 -0.20552 0.31009
 C474 C 0.67760 -0.17515 0.31755
 C475 C 0.70614 -0.16434 0.30076
 C476 C 0.72446 -0.18375 0.27615
 C477 C 0.71412 -0.21397 0.26799
 C478 C 0.68589 -0.22483 0.28555
 C479 C 0.65729 -0.15489 0.34154
 C480 C 0.63920 -0.13829 0.36119
 C481 C 0.61727 -0.11885 0.38356
 C482 C 0.59834 -0.10176 0.40210
 H483 H 0.64581 -0.21415 0.32301
 H484 H 0.71388 -0.14079 0.30634
 H485 H 0.74603 -0.17482 0.26293
 H486 H 0.67786 -0.24834 0.28039
 C487 C 0.65417 0.31042 -0.20054
 C488 C 0.67186 0.33491 -0.18750
 C489 C 0.70640 0.33729 -0.19761
 C490 C 0.72316 0.31519 -0.22086
 C491 C 0.70547 0.29033 -0.23452
 C492 C 0.67064 0.28843 -0.22366
 C493 C 0.65406 0.35710 -0.16353
 C494 C 0.63765 0.37461 -0.14342
 C495 C 0.61734 0.39405 -0.11973
 C496 C 0.59965 0.40998 -0.09922
 H497 H 0.62754 0.30811 -0.19259
 H498 H 0.72031 0.35633 -0.18771
 H499 H 0.74937 0.31872 -0.22876
 H500 H 0.65604 0.26927 -0.23191
 C501 C 1.17251 0.16474 -0.18078
 C502 C 1.16858 0.16695 -0.14585
 C503 C 1.18628 0.18873 -0.12767
 C504 C 1.20810 0.20814 -0.14439
 C505 C 1.21291 0.20563 -0.17964
 C506 C 1.19421 0.18400 -0.19751
 C507 C 1.14662 0.14649 -0.12894
 C508 C 1.12855 0.12857 -0.11548
 C509 C 1.10815 0.10674 -0.10017
 C510 C 1.09167 0.08737 -0.08702
 H511 H 1.15872 0.14813 -0.19514
 H512 H 1.18307 0.19083 -0.10059
 H513 H 1.22038 0.22528 -0.12950
 H514 H 1.19631 0.18212 -0.22469
 C515 C 1.17481 0.68822 0.37837
 C516 C 1.15305 0.66972 0.36042
 C517 C 1.15228 0.67105 0.32528
 C518 C 1.17347 0.69046 0.30807
 C519 C 1.19581 0.70911 0.32562
 C520 C 1.19610 0.70779 0.36117
 C521 C 1.13284 0.64795 0.37767
 C522 C 1.11640 0.62879 0.39124
 C523 C 1.09788 0.60545 0.40644
 C524 C 1.08285 0.58484 0.41920
 H525 H 1.17579 0.68707 0.40564
 H526 H 1.13575 0.65662 0.31112
 H527 H 1.17288 0.69055 0.28077
 H528 H 1.21301 0.72100 0.37603
 C529 C 0.64671 0.19560 0.34619
 C530 C 0.66240 0.16504 0.35590
 C531 C 0.69795 0.15576 0.34912
 C532 C 0.71742 0.17650 0.33152
 C533 C 0.70143 0.20658 0.31967
 C534 C 0.66611 0.21639 0.32856
 C535 C 0.64187 0.14289 0.37209
 C536 C 0.62485 0.12388 0.38516
 C537 C 0.60545 0.10110 0.40018
 C538 C 0.58959 0.08115 0.41311
 H539 H 0.61936 0.20327 0.35199
 H540 H 0.71051 0.13233 0.35705
 H541 H 0.74491 0.16873 0.32657
 H542 H 0.65317 0.24003 0.32218
 C543 C 0.70899 0.65877 -0.14712
 C544 C 0.67379 0.66891 -0.13970
 C545 C 0.65912 0.70013 -0.14813
 C546 C 0.67889 0.72051 -0.16586
 C547 C 0.71349 0.70957 -0.17668
 C548 C 0.72888 0.67908 -0.16484
 C549 C 0.65239 0.64696 -0.12441
 C550 C 0.63414 0.62855 -0.11211
 C551 C 0.61259 0.60723 -0.09762
 C552 C 0.59420 0.58943 -0.08448
 H553 H 0.72090 0.63492 -0.13980
 H554 H 0.63214 0.70855 -0.14154
 H555 H 0.66661 0.74461 -0.17163
 H556 H 0.75609 0.67041 -0.17010
 C557 C 0.82517 -0.16030 -0.18771
 C558 C 0.83616 -0.16469 -0.15425
 C559 C 0.82757 -0.19141 -0.13631
 C560 C 0.80774 -0.21339 -0.15141
 C561 C 0.79581 -0.20924 -0.18504
 C562 C 0.80531 -0.18234 -0.20305
 C563 C 0.85566 -0.14167 -0.13779
 C564 C 0.87171 -0.12275 -0.12313
 C565 C 0.89030 -0.10080 -0.10537
 C566 C 0.90605 -0.08205 -0.09011
 H567 H 0.83148 -0.13954 -0.20184
 H568 H 0.83619 -0.19529 -0.11048
 H569 H 0.80272 -0.23408 -0.13659
 H570 H 0.79623 -0.17701 -0.22842
 C571 C 0.84201 0.31442 0.31925
 C572 C 0.83177 0.32827 0.35048
 C573 C 0.80079 0.32107 0.36571
 C574 C 0.78015 0.30014 0.34999
 C575 C 0.79020 0.28591 0.31869
 C576 C 0.82130 0.29340 0.30340
 C577 C 0.85248 0.35022 0.36702
 C578 C 0.86888 0.36887 0.38163
 C579 C 0.88725 0.39103 0.39923
 C580 C 0.90248 0.41025 0.41429
 H581 H 0.86594 0.31986 0.30718
 H582 H 0.79243 0.33182 0.38972
 H583 H 0.75594 0.29563 0.36214
 H584 H 0.82986 0.28277 0.27945
 C585 C 0.29493 -0.16835 0.35684
 C586 C 0.32846 -0.16651 0.34369
 C587 C 0.34010 -0.18562 0.31581
 C588 C 0.31851 -0.20694 0.30166
 C589 C 0.28520 -0.20956 0.31548
 C590 C 0.27347 -0.18959 0.34287
 C591 C 0.35076 -0.14548 0.35967
 C592 C 0.36840 -0.12774 0.37420
 C593 C 0.38814 -0.10672 0.39207
 C594 C 0.40442 -0.08853 0.40757
 H595 H 0.28547 -0.15357 0.37821
 H596 H 0.36599 -0.18440 0.30534
 H597 H 0.32828 -0.22203 0.28068
 H598 H 0.24764 -0.19041 0.35362
 C599 C 0.31447 0.32076 -0.14082
 C600 C 0.33843 0.33484 -0.16076
 C601 C 0.34271 0.32587 -0.19463
 C602 C 0.32288 0.30303 -0.20856
 C603 C 0.29833 0.28858 -0.18873
 C604 C 0.29471 0.29800 -0.15449
 C605 C 0.35859 0.35816 -0.14576
 C606 C 0.37481 0.37712 -0.13140
 C607 C 0.39336 0.39842 -0.11270
 C608 C 0.40912 0.41554 -0.09532
 H609 H 0.31078 0.32759 -0.11457
 H610 H 0.36150 0.33639 -0.21028
 H611 H 0.32792 0.29634 -0.23456
 H612 H 0.27565 0.28898 -0.13805
 C613 C 1.15834 -0.20153 0.18793
 C614 C 1.17163 -0.17275 0.17982
 C615 C 1.20173 -0.16469 0.19619
 C616 C 1.21802 -0.18509 0.22111
 C617 C 1.20409 -0.21355 0.23004
 C618 C 1.17443 -0.22179 0.21279
 C619 C 1.15310 -0.15109 0.15585
 C620 C 1.13632 -0.13326 0.13632
 C621 C 1.11570 -0.11242 0.11411
 C622 C 1.09773 -0.09431 0.09573
 H623 H 1.13515 -0.20808 0.17539
 H624 H 1.21219 -0.14240 0.19016
 H625 H 1.24071 -0.17809 0.23410
 H626 H 1.16353 -0.24390 0.21861
 C627 C 1.20589 0.31352 0.67663
 C628 C 1.17345 0.33076 0.68515
 C629 C 1.16062 0.32951 0.71807
 C630 C 1.17961 0.31042 0.74220
 C631 C 1.21172 0.29229 0.73368
 C632 C 1.22502 0.29440 0.70083
 C633 C 1.15260 0.34910 0.66018
 C634 C 1.13420 0.36467 0.64006
 C635 C 1.11207 0.38345 0.61743
 C636 C 1.09310 0.40031 0.59882
 H637 H 1.21601 0.31434 0.65117
 H638 H 1.13564 0.34289 0.72496
 H639 H 1.16898 0.30951 0.76744
 H640 H 1.24944 0.28035 0.69349
 C641 C 0.65911 -0.17837 0.71220
 C642 C 0.67732 -0.16729 0.68502
 C643 C 0.71382 -0.17450 0.68327
 C644 C 0.73192 -0.19372 0.70811
 C645 C 0.71366 -0.20666 0.73492
 C646 C 0.67694 -0.19756 0.73690
 C647 C 0.65795 -0.14880 0.65909
 C648 C 0.64024 -0.13353 0.63820
 C649 C 0.61836 -0.11546 0.61472
 C650 C 0.59925 -0.09943 0.59547
 H651 H 0.63091 -0.17232 0.71425
 H652 H 0.72827 -0.16566 0.66245
 H653 H 0.75990 -0.19899 0.70507
 H654 H 0.66146 -0.20466 0.75778
 C655 C 0.70388 0.32285 0.18054
 C656 C 0.67171 0.34083 0.18861
 C657 C 0.65723 0.33832 0.22073
 C658 C 0.67423 0.31717 0.24437
 C659 C 0.70594 0.29820 0.23614
 C660 C 0.72101 0.30168 0.20425
 C661 C 0.65239 0.36043 0.16351
 C662 C 0.63540 0.37632 0.14261
 C663 C 0.61503 0.39446 0.11812
 C664 C 0.59769 0.40973 0.09701
 H665 H 0.71522 0.32453 0.15567
 H666 H 0.63239 0.35215 0.22725
 H667 H 0.66227 0.31523 0.26892
 H668 H 0.74516 0.28708 0.19710
 C669 C 0.79575 0.17586 0.17787
 C670 C 0.82974 0.18372 0.17271
 C671 C 0.84233 0.20749 0.19278
 C672 C 0.82125 0.22264 0.21853
 C673 C 0.78764 0.21378 0.22468
 C674 C 0.77485 0.19076 0.20358
 C675 C 0.85203 0.16541 0.14845
 C676 C 0.86970 0.14825 0.12886
 C677 C 0.88955 0.12633 0.10695
 C678 C 0.90606 0.10630 0.08935
 H679 H 0.78567 0.15757 0.16252
 H680 H 0.86868 0.21370 0.18910
 H681 H 0.83171 0.24027 0.23442
 H682 H 0.74874 0.18398 0.20718
 C683 C 0.83284 0.66577 0.70906
 C684 C 0.84048 0.68243 0.68005
 C685 C 0.82974 0.71562 0.67772
 C686 C 0.81022 0.73182 0.70392
 C687 C 0.80047 0.71482 0.73259
 C688 C 0.81330 0.68166 0.73500
 C689 C 0.85824 0.66443 0.65276
 C690 C 0.87265 0.64683 0.63152
 C691 C 0.88928 0.62380 0.60877
 C692 C 0.90364 0.60251 0.59127
 H693 H 0.84158 0.64017 0.71147
 H694 H 0.83572 0.72884 0.65536
 H695 H 0.80146 0.75710 0.70038
 H696 H 0.80867 0.66762 0.75712
 C697 C 0.30382 0.17146 0.67980
 C698 C 0.33662 0.18055 0.67144
 C699 C 0.34934 0.20596 0.68893
 C700 C 0.32956 0.22161 0.71531
 C701 C 0.29727 0.21153 0.72464
 C702 C 0.28429 0.18680 0.70610
 C703 C 0.35769 0.16176 0.64668
 C704 C 0.37416 0.14389 0.62686
 C705 C 0.39247 0.12094 0.60499
 C706 C 0.40771 0.09994 0.58767
 H707 H 0.29367 0.15190 0.66647
 H708 H 0.37479 0.21312 0.68276
 H709 H 0.34004 0.24064 0.72918
 H710 H 0.25909 0.17906 0.71219
 C711 C 0.29620 0.65761 0.19694
 C712 C 0.32872 0.66650 0.18738
 C713 C 0.34048 0.69404 0.20165
 C714 C 0.31989 0.71229 0.22579
 C715 C 0.28753 0.70294 0.23606
 C716 C 0.27575 0.67566 0.22095
 C717 C 0.34962 0.64690 0.16308
 C718 C 0.36606 0.62966 0.14268
 C719 C 0.38463 0.60917 0.11860
 C720 C 0.40049 0.59208 0.09773
 H721 H 0.28663 0.63659 0.18589
 H722 H 0.36561 0.70123 0.19433
 H723 H 0.32957 0.73318 0.23693
 H724 H 0.25050 0.66830 0.22752
   
