data_POSCAR
  _audit_creation_date              2014-09-24
  _audit_creation_method            'ToBaCCo'
  _symmetry_space_group_name_H-M    'P1'
  _symmetry_Int_Tables_number       1
  _symmetry_cell_setting            triclinic
  loop_
  _symmetry_equiv_pos_as_xyz
 x,y,z
_cell_length_a 29.9848
_cell_length_b 29.9924
_cell_length_c 30.0120
_cell_angle_alpha 89.305900
_cell_angle_beta 89.150800
_cell_angle_gamma 88.934600
loop_
  _atom_site_label
  _atom_site_type_symbol
  _atom_site_fract_x
  _atom_site_fract_y
  _atom_site_fract_z
O1 O 0.56331 0.50894 0.04196
 O2 O 0.44123 0.49648 0.04269
 O3 O 0.50957 0.44179 0.04187
 O4 O 0.49500 0.56397 0.04276
 O5 O 0.50217 0.56549 -0.03058
 O6 O 0.50335 0.44290 -0.03138
 O7 O 0.44125 0.50466 -0.03036
 O8 O 0.56425 0.50359 -0.03137
 Cu9 Cu 0.50220 0.50272 0.04974
 Cu10 Cu 0.50280 0.50434 -0.03835
 C11 C 0.58470 0.50712 0.00515
 C12 C 0.42009 0.49945 0.00632
 C13 C 0.50774 0.42146 0.00508
 C14 C 0.49737 0.58563 0.00620
 O15 O -0.04254 0.56355 0.50445
 O16 O -0.03628 0.44079 0.50050
 O17 O -0.03871 0.49900 0.56355
 O18 O -0.04027 0.50353 0.44127
 O19 O 0.03338 0.50441 0.43924
 O20 O 0.03446 0.50632 0.56192
 O21 O 0.03723 0.44346 0.50258
 O22 O 0.03070 0.56619 0.49851
 Cu23 Cu -0.04688 0.50174 0.50263
 Cu24 Cu 0.04135 0.50528 0.50039
 C25 C -0.00702 0.58604 0.50146
 C26 C 0.00160 0.42121 0.50157
 C27 C -0.00195 0.50216 0.58360
 C28 C -0.00372 0.50392 0.41939
 O29 O 0.48907 0.03438 0.56499
 O30 O 0.49420 0.03561 0.44194
 O31 O 0.43124 0.03097 0.50135
 O32 O 0.55316 0.03990 0.50537
 O33 O 0.56014 -0.03344 0.50185
 O34 O 0.43788 -0.04242 0.50554
 O35 O 0.49942 -0.03795 0.44254
 O36 O 0.50060 -0.03839 0.56503
 Cu37 Cu 0.49133 0.04261 0.50344
 Cu38 Cu 0.49991 -0.04547 0.50384
 C39 C 0.49478 -0.00224 0.58618
 C40 C 0.49741 -0.00110 0.42132
 C41 C 0.41376 -0.00720 0.50324
 C42 C 0.57745 0.00479 0.50352
 O43 O 0.46506 0.00649 -0.05821
 O44 O 0.46657 0.00900 0.06462
 O45 O 0.47049 0.06821 0.00063
 O46 O 0.46139 -0.05394 0.00558
 O47 O 0.53478 -0.06080 0.00050
 O48 O 0.54393 0.06125 0.00226
 O49 O 0.53960 -0.00201 0.06279
 O50 O 0.53866 0.00049 -0.05985
 Cu51 Cu 0.45846 0.00806 0.00338
 Cu52 Cu 0.54668 -0.00066 0.00130
 C53 C 0.50167 0.00315 -0.07984
 C54 C 0.50332 0.00328 0.08463
 C55 C 0.50878 0.08551 0.00111
 C56 C 0.49655 -0.07816 0.00311
 O57 O -0.05547 0.53915 1.00238
 O58 O 0.06723 0.53045 0.99874
 O59 O 0.00577 0.53389 0.93926
 O60 O 0.00701 0.53496 1.06198
 O61 O -0.00178 0.46198 1.06338
 O62 O 0.00348 0.46031 0.94117
 O63 O 0.06315 0.45709 1.00458
 O64 O -0.05955 0.46574 1.00012
 Cu65 Cu 0.00646 0.54203 1.00043
 Cu66 Cu 0.00122 0.45384 1.00247
 C67 C -0.07842 0.50398 1.00118
 C68 C 0.08600 0.49230 1.00177
 C69 C 0.00462 0.49681 0.91936
 C70 C 0.00200 0.49864 1.08354
 O71 O -0.00305 -0.05850 0.46948
 O72 O -0.00452 0.06435 0.46972
 O73 O 0.05744 0.00236 0.46980
 O74 O -0.06516 0.00322 0.46956
 O75 O -0.06619 0.00895 0.54288
 O76 O 0.05598 -0.00536 0.54309
 O77 O 0.00094 0.06297 0.54303
 O78 O -0.01120 -0.05913 0.54281
 Cu79 Cu -0.00373 0.00302 0.46218
 Cu80 Cu -0.00523 0.00181 0.55041
 C81 C -0.00798 -0.07961 0.50608
 C82 C -0.00087 0.08456 0.50640
 C83 C 0.07759 -0.00286 0.50646
 C84 C -0.08656 0.00718 0.50617
 C85 C -0.27190 0.51148 1.00493
 C86 C -0.29411 0.48324 0.97535
 C87 C -0.34094 0.48307 0.97469
 C88 C -0.36617 0.50883 1.00486
 C89 C -0.34421 0.53532 1.03545
 C90 C -0.29766 0.53708 1.03525
 C91 C -0.22187 0.51158 1.00369
 C92 C -0.19664 0.54202 1.02785
 C93 C -0.15002 0.54011 1.02619
 C94 C -0.12754 0.50736 1.00116
 C95 C -0.15224 0.47755 0.97623
 C96 C -0.19905 0.48016 0.97641
 C97 C -0.26949 0.45438 0.94762
 C98 C -0.22304 0.45210 0.94894
 H99 H -0.28646 0.43240 0.92531
 H100 H -0.20558 0.42846 0.92758
 H101 H -0.35783 0.46168 0.95171
 H102 H -0.36317 0.55516 1.05926
 H103 H -0.13146 0.56368 1.04534
 H104 H -0.13489 0.45286 0.95594
 H105 H -0.28249 0.55796 1.05958
 H106 H -0.21227 0.56775 1.04782
 C107 C 0.27883 0.49122 1.00744
 C108 C 0.30194 0.50599 0.96873
 C109 C 0.34876 0.50736 0.96814
 C110 C 0.37326 0.49694 1.00666
 C111 C 0.34985 0.48446 1.04570
 C112 C 0.30344 0.48111 1.04598
 C113 C 0.22896 0.48884 1.00620
 C114 C 0.20324 0.46925 1.04070
 C115 C 0.15670 0.46912 1.03846
 C116 C 0.13491 0.48923 1.00232
 C117 C 0.16004 0.50768 0.96724
 C118 C 0.20686 0.50647 0.96833
 C119 C 0.27813 0.52070 0.93133
 C120 C 0.23161 0.52211 0.93161
 H121 H 0.29574 0.53253 0.90181
 H122 H 0.21474 0.53496 0.90231
 H123 H 0.36594 0.51813 0.93793
 H124 H 0.36743 0.47654 1.07615
 H125 H 0.13758 0.45440 1.06560
 H126 H 0.14304 0.52238 0.93883
 H127 H 0.28735 0.47143 1.07691
 H128 H 0.21846 0.45364 1.06941
 C129 C -0.01291 -0.27247 0.50364
 C130 C 0.02688 -0.29519 0.49076
 C131 C 0.02881 -0.34198 0.49106
 C132 C -0.00925 -0.36707 0.50152
 C133 C -0.04941 -0.34420 0.51174
 C134 C -0.05114 -0.29763 0.51331
 C135 C -0.01279 -0.22251 0.50518
 C136 C -0.04838 -0.19697 0.52348
 C137 C -0.04647 -0.15044 0.52427
 C138 C -0.00963 -0.12848 0.50592
 C139 C 0.02614 -0.15338 0.48808
 C140 C 0.02541 -0.20017 0.48881
 C141 C 0.06422 -0.27111 0.47663
 C142 C 0.06308 -0.22464 0.47452
 H143 H 0.09453 -0.28848 0.46614
 H144 H 0.09255 -0.20759 0.46254
 H145 H 0.05989 -0.35879 0.48188
 H146 H -0.07956 -0.36228 0.51948
 H147 H -0.07410 -0.13148 0.53864
 H148 H 0.05512 -0.13624 0.47491
 H149 H -0.08282 -0.28191 0.52152
 H150 H -0.07751 -0.21233 0.53802
 C151 C 0.00632 0.27777 0.50492
 C152 C -0.02465 0.30096 0.47757
 C153 C -0.02632 0.34779 0.47711
 C154 C 0.00401 0.37207 0.50182
 C155 C 0.03631 0.34916 0.52693
 C156 C 0.03727 0.30256 0.52887
 C157 C 0.00527 0.22779 0.50639
 C158 C 0.03037 0.20178 0.53677
 C159 C 0.02791 0.15529 0.53702
 C160 C 0.00117 0.13364 0.50644
 C161 C -0.02423 0.15914 0.47631
 C162 C -0.02333 0.20593 0.47690
 C163 C -0.05316 0.27734 0.45027
 C164 C -0.05174 0.23087 0.44914
 H165 H -0.07646 0.29508 0.42886
 H166 H -0.07400 0.21417 0.42692
 H167 H -0.05066 0.36544 0.45678
 H168 H 0.06025 0.36740 0.54592
 H169 H 0.04748 0.13612 0.56079
 H170 H -0.04580 0.14250 0.45333
 H171 H 0.06269 0.28659 0.54887
 H172 H 0.05146 0.21672 0.56106
 C173 C 0.49812 -0.00422 -0.27245
 C174 C 0.48217 0.03412 -0.29551
 C175 C 0.48200 0.03503 -0.34238
 C176 C 0.49502 -0.00289 -0.36693
 C177 C 0.50823 -0.04174 -0.34352
 C178 C 0.51024 -0.04230 -0.29709
 C179 C 0.50014 -0.00302 -0.22261
 C180 C 0.52147 -0.03672 -0.19711
 C181 C 0.52240 -0.03411 -0.15072
 C182 C 0.50129 0.00150 -0.12872
 C183 C 0.48050 0.03558 -0.15359
 C184 C 0.48101 0.03425 -0.20041
 C185 C 0.46547 0.07084 -0.27164
 C186 C 0.46374 0.07038 -0.22512
 H187 H 0.45262 0.10003 -0.28919
 H188 H 0.44965 0.09923 -0.20822
 H189 H 0.47051 0.06501 -0.35960
 H190 H 0.51800 -0.07181 -0.36109
 H191 H 0.53904 -0.06039 -0.13183
 H192 H 0.46517 0.06372 -0.13648
 H193 H 0.52072 -0.07306 -0.28107
 H194 H 0.53827 -0.06487 -0.21240
 C195 C 0.50345 -0.00197 0.27798
 C196 C 0.47553 0.02930 0.30048
 C197 C 0.47454 0.03023 0.34732
 C198 C 0.49926 -0.00117 0.37218
 C199 C 0.52532 -0.03334 0.34987
 C200 C 0.52778 -0.03358 0.30339
 C201 C 0.50482 -0.00084 0.22801
 C202 C 0.53529 -0.02681 0.20267
 C203 C 0.53501 -0.02485 0.15617
 C204 C 0.50394 0.00237 0.13379
 C205 C 0.47389 0.02889 0.15861
 C206 C 0.47488 0.02832 0.20543
 C207 C 0.44797 0.05857 0.27613
 C208 C 0.44689 0.05737 0.22969
 H209 H 0.42618 0.08217 0.29329
 H210 H 0.42434 0.08011 0.21245
 H211 H 0.45350 0.05452 0.36449
 H212 H 0.54437 -0.05809 0.36851
 H213 H 0.55875 -0.04529 0.13758
 H214 H 0.45050 0.05081 0.14141
 H215 H 0.54831 -0.05918 0.28803
 H216 H 0.55995 -0.04835 0.21808
 C217 C 0.49096 -0.27109 0.00669
 C218 C 0.51909 -0.29395 -0.02408
 C219 C 0.51996 -0.34071 -0.02478
 C220 C 0.49498 -0.36530 0.00637
 C221 C 0.46858 -0.34277 0.03808
 C222 C 0.46616 -0.29621 0.03804
 C223 C 0.49015 -0.22111 0.00551
 C224 C 0.45980 -0.19514 0.03106
 C225 C 0.46119 -0.14859 0.02947
 C226 C 0.49331 -0.12705 0.00308
 C227 C 0.52289 -0.15246 -0.02329
 C228 C 0.52083 -0.19912 -0.02310
 C229 C 0.54715 -0.27010 -0.05304
 C230 C 0.54877 -0.22374 -0.05181
 H231 H 0.56902 -0.28761 -0.07628
 H232 H 0.57182 -0.20685 -0.07416
 H233 H 0.54128 -0.35808 -0.04867
 H234 H 0.44933 -0.36128 0.06264
 H235 H 0.43780 -0.12939 0.04971
 H236 H 0.54703 -0.13575 -0.04461
 H237 H 0.44542 -0.28053 0.06324
 H238 H 0.43460 -0.21012 0.05211
 C239 C 0.51459 0.27827 0.00424
 C240 C 0.48606 0.30196 -0.02527
 C241 C 0.48510 0.34874 -0.02568
 C242 C 0.51033 0.37243 0.00466
 C243 C 0.53712 0.34903 0.03517
 C244 C 0.53966 0.30249 0.03474
 C245 C 0.51543 0.22835 0.00283
 C246 C 0.54617 0.20175 0.02697
 C247 C 0.54470 0.15527 0.02545
 C248 C 0.51214 0.13438 0.00055
 C249 C 0.48222 0.16042 -0.02455
 C250 C 0.48434 0.20709 -0.02447
 C251 C 0.45767 0.27887 -0.05314
 C252 C 0.45604 0.23247 -0.05194
 H253 H 0.43550 0.29700 -0.07541
 H254 H 0.43269 0.21617 -0.07333
 H255 H 0.46348 0.36679 -0.04858
 H256 H 0.55655 0.36684 0.05909
 H257 H 0.56836 0.13557 0.04469
 H258 H 0.45771 0.14423 -0.04475
 H259 H 0.56068 0.28613 0.05904
 H260 H 0.57172 0.21619 0.04688
 C261 C -0.27974 0.01237 0.50535
 C262 C -0.30071 -0.01887 0.47797
 C263 C -0.34736 -0.02143 0.47801
 C264 C -0.37369 0.00821 0.50331
 C265 C -0.35308 0.04081 0.52843
 C266 C -0.30661 0.04271 0.52982
 C267 C -0.22981 0.01216 0.50640
 C268 C -0.20578 0.03752 0.53681
 C269 C -0.15921 0.03564 0.53685
 C270 C -0.13561 0.00923 0.50605
 C271 C -0.15909 -0.01630 0.47579
 C272 C -0.20588 -0.01598 0.47657
 C273 C -0.27509 -0.04681 0.45021
 C274 C -0.22871 -0.04462 0.44873
 H275 H -0.29117 -0.07029 0.42878
 H276 H -0.21038 -0.06651 0.42624
 H277 H -0.36332 -0.04596 0.45764
 H278 H -0.37299 0.06427 0.54782
 H279 H -0.14154 0.05526 0.56073
 H280 H -0.14085 -0.03764 0.45268
 H281 H -0.29242 0.06833 0.54985
 H282 H -0.22230 0.05828 0.56133
 C283 C 0.27077 -0.01253 0.50499
 C284 C 0.29314 0.01840 0.47701
 C285 C 0.33984 0.01999 0.47690
 C286 C 0.36488 -0.01025 0.50274
 C287 C 0.34294 -0.04266 0.52838
 C288 C 0.29636 -0.04363 0.52987
 C289 C 0.22080 -0.01111 0.50631
 C290 C 0.19538 -0.03608 0.53725
 C291 C 0.14884 -0.03303 0.53751
 C292 C 0.12663 -0.00578 0.50643
 C293 C 0.15151 0.01938 0.47567
 C294 C 0.19827 0.01786 0.47618
 C295 C 0.26888 0.04712 0.44890
 C296 C 0.22248 0.04609 0.44772
 H297 H 0.28606 0.07036 0.42701
 H298 H 0.20523 0.06858 0.42497
 H299 H 0.35685 0.04438 0.45615
 H300 H 0.36185 -0.06656 0.54819
 H301 H 0.13010 -0.05246 0.56174
 H302 H 0.13437 0.04131 0.45226
 H303 H 0.28107 -0.06905 0.55037
 H304 H 0.21081 -0.05747 0.56198
 C305 C -0.00554 0.50018 1.27643
 C306 C 0.02633 0.52605 1.29829
 C307 C 0.02736 0.52648 1.34505
 C308 C -0.00448 0.50328 1.37040
 C309 C -0.03742 0.47957 1.34872
 C310 C -0.03782 0.47766 1.30232
 C311 C -0.00416 0.49877 1.22659
 C312 C -0.03041 0.46960 1.20206
 C313 C -0.02790 0.46946 1.15563
 C314 C 0.00014 0.49888 1.13255
 C315 C 0.02681 0.52774 1.15651
 C316 C 0.02575 0.52702 1.20333
 C317 C 0.05623 0.55204 1.27337
 C318 C 0.05520 0.55336 1.22691
 H319 H 0.08026 0.57233 1.29006
 H320 H 0.07849 0.57459 1.20915
 H321 H 0.05222 0.54576 1.36178
 H322 H -0.06252 0.46178 1.36780
 H323 H -0.04844 0.44665 1.13762
 H324 H 0.04936 0.54975 1.13870
 H325 H -0.06396 0.45893 1.28741
 H326 H -0.05247 0.44615 1.21807
 C327 C -0.00142 0.49636 0.72664
 C328 C 0.02768 0.52529 0.70319
 C329 C 0.02819 0.52626 0.65638
 C330 C -0.00168 0.50052 0.63261
 C331 C -0.03192 0.47353 0.65590
 C332 C -0.03161 0.47110 0.70232
 C333 C 0.00026 0.49496 0.77646
 C334 C -0.02313 0.46343 0.80246
 C335 C -0.02097 0.46380 0.84884
 C336 C 0.00389 0.49598 0.87038
 C337 C 0.02799 0.52702 0.84492
 C338 C 0.02729 0.52597 0.79815
 C339 C 0.05514 0.55385 0.72660
 C340 C 0.05412 0.55497 0.77306
 H341 H 0.07704 0.57641 0.70870
 H342 H 0.07529 0.57832 0.78962
 H343 H 0.05088 0.54801 0.63842
 H344 H -0.05549 0.45372 0.63805
 H345 H -0.03948 0.43932 0.86801
 H346 H 0.04814 0.55125 0.86154
 H347 H -0.05572 0.44986 0.71850
 H348 H -0.04278 0.43790 0.78767
   
