data_POSCAR
  _audit_creation_date              2014-09-24
  _audit_creation_method            'ToBaCCo'
  _symmetry_space_group_name_H-M    'P1'
  _symmetry_Int_Tables_number       1
  _symmetry_cell_setting            triclinic
  loop_
  _symmetry_equiv_pos_as_xyz
 x,y,z
_cell_length_a 29.6841
_cell_length_b 29.8264
_cell_length_c 29.6335
_cell_angle_alpha 90.854700
_cell_angle_beta 91.499000
_cell_angle_gamma 91.543100
loop_
  _atom_site_label
  _atom_site_type_symbol
  _atom_site_fract_x
  _atom_site_fract_y
  _atom_site_fract_z
C1 C 0.01389 0.44044 0.18332
 H2 H 0.04151 0.46414 0.17855
 C3 C 0.01370 0.39861 0.16142
 H4 H 0.04030 0.39268 0.13804
 C5 C -0.05369 0.42104 0.21956
 H6 H -0.07905 0.42904 0.24363
 C7 C -0.05511 0.37873 0.19868
 H8 H -0.08173 0.35561 0.20815
 N9 N -0.01927 0.45077 0.21209
 C10 C -0.01630 0.59563 0.23647
 H11 H -0.02485 0.59440 0.27167
 C12 C -0.01249 0.63696 0.21557
 H13 H -0.01773 0.66728 0.23508
 C14 C -0.00146 0.55747 0.16801
 H15 H 0.00242 0.52645 0.14950
 C16 C 0.00234 0.59838 0.14552
 H17 H 0.00979 0.59850 0.10995
 Zn18 Zn -0.01383 0.50424 0.24811
 N19 N -0.00956 0.55696 0.21304
 C20 C 0.05681 0.53789 0.30733
 N21 N 0.03858 0.50054 0.28625
 C22 C 0.05922 0.46045 0.28916
 C23 C 0.10086 0.45739 0.31172
 C24 C 0.09852 0.53637 0.33014
 C25 C -0.10470 0.51595 0.25772
 C26 C -0.14564 0.51912 0.27916
 C27 C -0.10628 0.51114 0.35098
 C28 C -0.06589 0.50773 0.32799
 N29 N -0.06610 0.50959 0.28215
 H30 H 0.04002 0.56940 0.30521
 H31 H 0.04390 0.43083 0.27316
 H32 H 0.11699 0.42529 0.31294
 H33 H 0.11336 0.56698 0.34474
 H34 H -0.10361 0.51783 0.22133
 H35 H -0.17617 0.52359 0.25910
 H36 H -0.10608 0.50857 0.38739
 H37 H -0.03458 0.50303 0.34659
 C38 C -0.00237 0.63879 0.16971
 C39 C -0.02052 0.36599 0.16964
 C40 C -0.14684 0.51617 0.32629
 C41 C 0.12165 0.49594 0.33157
 C42 C 0.00488 0.55295 0.83577
 H43 H 0.01184 0.52252 0.85367
 C44 C 0.00333 0.59383 0.85954
 H45 H 0.00949 0.59468 0.89573
 C46 C -0.01193 0.58937 0.76704
 H47 H -0.01760 0.58734 0.73085
 C48 C -0.01449 0.63055 0.78942
 H49 H -0.02154 0.66025 0.77015
 N50 N -0.00208 0.55169 0.79020
 C51 C -0.03210 0.41302 0.77547
 H52 H -0.05781 0.41937 0.75013
 C53 C -0.03089 0.37078 0.79472
 H54 H -0.05583 0.34557 0.78363
 C55 C 0.03367 0.43676 0.81703
 H56 H 0.05945 0.46230 0.82455
 C57 C 0.03583 0.39487 0.83770
 H58 H 0.06276 0.38906 0.86206
 Zn59 Zn -0.00129 0.49913 0.75352
 N60 N -0.00019 0.44512 0.78674
 C61 C 0.05896 0.46553 0.68981
 N62 N 0.05033 0.50119 0.71709
 C63 C 0.08021 0.53644 0.72189
 C64 C 0.12082 0.53649 0.69924
 C65 C 0.09936 0.46414 0.66657
 C66 C -0.09267 0.50513 0.74436
 C67 C -0.13544 0.50530 0.72417
 C68 C -0.10170 0.49240 0.65199
 C69 C -0.05927 0.49318 0.67381
 N70 N -0.05574 0.49906 0.71925
 H71 H 0.03507 0.43752 0.68723
 H72 H 0.07326 0.56416 0.74425
 H73 H 0.14406 0.56492 0.70367
 H74 H 0.10624 0.43485 0.64614
 H75 H -0.08880 0.50915 0.78062
 H76 H -0.16342 0.50784 0.74658
 H77 H -0.10245 0.48912 0.61562
 H78 H -0.02927 0.48899 0.65444
 C79 C 0.00335 0.36099 0.82634
 C80 C -0.00648 0.63325 0.83618
 C81 C -0.14133 0.49869 0.67696
 C82 C 0.13126 0.49970 0.67170
 C83 C 0.19212 0.03688 0.44638
 H84 H 0.19771 0.06426 0.47040
 C85 C 0.16659 0.04332 0.40683
 H86 H 0.15219 0.07567 0.40045
 C87 C 0.20598 -0.03807 0.42404
 H88 H 0.22251 -0.06926 0.42977
 C89 C 0.18002 -0.03340 0.38474
 H90 H 0.17674 -0.06117 0.36079
 N91 N 0.21161 -0.00321 0.45395
 C92 C 0.24354 -0.02541 0.59535
 H93 H 0.27892 -0.03265 0.59293
 C94 C 0.22289 -0.02751 0.63694
 H95 H 0.24270 -0.03581 0.66670
 C96 C 0.17524 -0.00399 0.55942
 H97 H 0.15699 0.00519 0.52907
 C98 C 0.15323 -0.00559 0.60037
 H99 H 0.11787 0.00234 0.60132
 Zn100 Zn 0.25144 -0.00820 0.50428
 N101 N 0.21982 -0.01286 0.55798
 C102 C 0.29496 0.06742 0.54598
 N103 N 0.28935 0.04337 0.50682
 C104 C 0.30698 0.05807 0.46768
 C105 C 0.32998 0.09943 0.46658
 C106 C 0.31838 0.10852 0.54659
 C107 C 0.26131 -0.09961 0.50306
 C108 C 0.28284 -0.14014 0.49878
 C109 C 0.35313 -0.09905 0.48833
 C110 C 0.32997 -0.05907 0.49207
 N111 N 0.28479 -0.06027 0.49869
 H112 H 0.28040 0.05543 0.57666
 H113 H 0.30143 0.03849 0.43692
 H114 H 0.34182 0.11149 0.43461
 H115 H 0.32248 0.12705 0.57818
 H116 H 0.22557 -0.09933 0.50935
 H117 H 0.26366 -0.17130 0.50196
 H118 H 0.38905 -0.09809 0.48276
 H119 H 0.34794 -0.02724 0.48960
 C120 C 0.17738 -0.01671 0.63987
 C121 C 0.16060 0.00784 0.37550
 C122 C 0.32917 -0.14005 0.49109
 C123 C 0.33527 0.12562 0.50631
 C124 C 0.78892 0.04804 0.57170
 H125 H 0.77101 0.07712 0.56074
 C126 C 0.81193 0.04953 0.61360
 H127 H 0.81149 0.07987 0.63407
 C128 C 0.81205 -0.02609 0.55832
 H129 H 0.81196 -0.05578 0.53720
 C130 C 0.83544 -0.02606 0.59988
 H131 H 0.85243 -0.05611 0.60999
 N132 N 0.78804 0.01004 0.54551
 C133 C 0.75363 -0.00893 0.40094
 H134 H 0.71779 -0.01531 0.40396
 C135 C 0.77279 -0.01015 0.35844
 H136 H 0.75017 -0.01628 0.32975
 C137 C 0.82419 0.01004 0.43581
 H138 H 0.84401 0.01782 0.46621
 C139 C 0.84499 0.00899 0.39385
 H140 H 0.88108 0.01463 0.39374
 Zn141 Zn 0.74770 0.00484 0.49360
 N142 N 0.77915 0.00169 0.43847
 C143 C 0.71037 0.08284 0.45545
 N144 N 0.70994 0.05600 0.49218
 C145 C 0.68601 0.06721 0.52906
 C146 C 0.66344 0.10781 0.53083
 C147 C 0.68722 0.12298 0.45526
 C148 C 0.73586 -0.08813 0.48949
 C149 C 0.71453 -0.13007 0.49327
 C150 C 0.64541 -0.09306 0.50985
 C151 C 0.66846 -0.05155 0.50676
 N152 N 0.71318 -0.04988 0.49745
 H153 H 0.72958 0.07391 0.42642
 H154 H 0.68638 0.04567 0.55811
 H155 H 0.64696 0.11688 0.56165
 H156 H 0.68791 0.14308 0.42519
 H157 H 0.77064 -0.08615 0.47969
 H158 H 0.73332 -0.16012 0.48729
 H159 H 0.60995 -0.09413 0.51758
 H160 H 0.65064 -0.02087 0.51197
 C161 C 0.81936 -0.00078 0.35366
 C162 C 0.83477 0.01172 0.62875
 C163 C 0.66887 -0.13287 0.50383
 C164 C 0.66431 0.13689 0.49378
 C165 C 0.57195 0.18753 0.96474
 H166 H 0.54542 0.17838 0.94034
 C167 C 0.61369 0.16698 0.96289
 H168 H 0.61902 0.14148 0.93733
 C169 C 0.59838 0.23362 1.02626
 H170 H 0.59292 0.26059 1.05003
 C171 C 0.64058 0.21446 1.02524
 H172 H 0.66673 0.22591 1.04920
 N173 N 0.56506 0.21999 0.99633
 C174 C 0.42087 0.24308 0.99931
 H175 H 0.42466 0.27925 1.00121
 C176 C 0.37818 0.22309 1.00118
 H177 H 0.35021 0.24495 1.00606
 C178 C 0.45461 0.17230 0.99446
 H179 H 0.48464 0.15278 0.99221
 C180 C 0.41220 0.15060 0.99638
 H181 H 0.41078 0.11439 0.99392
 Zn182 Zn 0.51180 0.25316 0.99502
 N183 N 0.45794 0.21782 0.99542
 C184 C 0.47909 0.28050 0.91067
 N185 N 0.51239 0.28806 0.94242
 C186 C 0.54730 0.31743 0.93524
 C187 C 0.54910 0.34118 0.89486
 C188 C 0.47930 0.30371 0.87038
 C189 C 0.50780 0.26380 1.08611
 C190 C 0.50277 0.28473 1.12776
 C191 C 0.50212 0.35626 1.09038
 C192 C 0.50740 0.33378 1.04913
 N193 N 0.51002 0.28834 1.04797
 H194 H 0.45262 0.25581 0.91601
 H195 H 0.57389 0.32204 0.96068
 H196 H 0.57682 0.36467 0.88945
 H197 H 0.45254 0.29703 0.84544
 H198 H 0.50955 0.22765 1.08391
 H199 H 0.50168 0.26445 1.15774
 H200 H 0.49917 0.39236 1.09093
 H201 H 0.50833 0.35240 1.01813
 C202 C 0.37268 0.17597 0.99935
 C203 C 0.64872 0.18096 0.99310
 C204 C 0.49929 0.33149 1.13030
 C205 C 0.51446 0.33457 0.86213
 C206 C 0.44195 0.82017 0.97305
 H207 H 0.46317 0.82064 0.94393
 C208 C 0.40260 0.84509 0.97291
 H209 H 0.39467 0.86404 0.94306
 C210 C 0.42515 0.79084 1.04449
 H211 H 0.43339 0.76917 1.07219
 C212 C 0.38561 0.81494 1.04577
 H213 H 0.36591 0.81253 1.07585
 N214 N 0.45204 0.79301 1.00815
 C215 C 0.59290 0.75588 1.01465
 H216 H 0.58689 0.72198 1.02589
 C217 C 0.63682 0.77338 1.01467
 H218 H 0.66434 0.75257 1.02539
 C219 C 0.56429 0.82401 0.98725
 H220 H 0.53590 0.84374 0.97709
 C221 C 0.60804 0.84277 0.98620
 H222 H 0.61303 0.87697 0.97523
 Zn223 Zn 0.50017 0.75201 1.00472
 N224 N 0.55763 0.78109 1.00110
 C225 C 0.52568 0.69062 0.93723
 N226 N 0.49057 0.71413 0.95291
 C227 C 0.45025 0.71386 0.92992
 C228 C 0.44479 0.69096 0.88853
 C229 C 0.52180 0.66755 0.89592
 C230 C 0.51866 0.74079 1.09582
 C231 C 0.52250 0.71902 1.13694
 C232 C 0.49193 0.65137 1.10050
 C233 C 0.48932 0.67436 1.05970
 N234 N 0.50232 0.71838 1.05832
 H235 H 0.55741 0.69107 0.95585
 H236 H 0.42245 0.73213 0.94318
 H237 H 0.41257 0.69158 0.87061
 H238 H 0.55100 0.65096 0.88327
 H239 H 0.52872 0.77581 1.09367
 H240 H 0.53504 0.73759 1.16655
 H241 H 0.48111 0.61644 1.10145
 H242 H 0.47661 0.65728 1.02934
 C243 C 0.64486 0.81730 1.00033
 C244 C 0.37254 0.84172 1.00903
 C245 C 0.50882 0.67383 1.13969
 C246 C 0.48118 0.66814 0.87049
 B247 B 1.00336 1.04907 0.02919
 B248 B 1.00553 1.04843 -0.02943
 B249 B 1.05262 1.03349 0.00317
 B250 B 1.03311 1.00383 0.04896
 B251 B 0.97502 1.00078 0.04535
 B252 B 0.95776 1.02824 -0.00255
 B253 B 1.00823 0.95474 -0.02992
 B254 B 1.00704 0.95451 0.02814
 B255 B 0.95983 0.96976 -0.00287
 B256 B 0.97787 0.99970 -0.04896
 B257 B 1.03585 1.00295 -0.04623
 B258 B 1.05440 0.97581 0.00165
 B259 B 0.54109 0.50206 0.47296
 B260 B 0.54074 0.50026 0.53097
 B261 B 0.52224 0.54774 0.50348
 B262 B 0.49429 0.52987 0.45427
 B263 B 0.49362 0.47222 0.45117
 B264 B 0.52281 0.45319 0.49920
 B265 B 0.44582 0.49698 0.52748
 B266 B 0.44629 0.49930 0.46937
 B267 B 0.46499 0.45128 0.49720
 B268 B 0.49361 0.46944 0.54603
 B269 B 0.49243 0.52713 0.54899
 B270 B 0.46466 0.54611 0.50073
 C271 C 0.98434 1.23147 0.11746
 C272 C 1.02363 1.25930 0.12030
 C273 C 1.02174 1.30336 0.13729
 C274 C 0.98078 1.32157 0.15109
 C275 C 0.94156 1.29366 0.14685
 C276 C 0.94331 1.24952 0.13045
 C277 C 0.98822 1.18438 0.09957
 C278 C 0.95263 1.15243 0.09861
 C279 C 0.95807 1.10980 0.07931
 C280 C 0.99855 1.09708 0.05870
 C281 C 1.03453 1.12820 0.06477
 C282 C 1.03013 1.17098 0.08394
 C283 C 1.06481 1.24317 0.10590
 C284 C 1.06788 1.20017 0.08762
 H285 H 1.09503 1.26441 0.10802
 H286 H 1.10036 1.18964 0.07606
 H287 H 1.05312 1.32242 0.14121
 H288 H 0.90870 1.30591 0.15468
 H289 H 0.92880 1.08773 0.07914
 H290 H 1.06716 1.11972 0.05672
 H291 H 0.91203 1.23027 0.12749
 H292 H 0.92024 1.15974 0.11225
 C293 C 1.01008 0.76963 0.11081
 C294 C 0.98495 0.73486 0.08783
 C295 C 0.98230 0.69169 0.10623
 C296 C 1.00339 0.68296 0.14800
 C297 C 1.02832 0.71750 0.17053
 C298 C 1.03167 0.76023 0.15232
 C299 C 1.01136 0.81537 0.09064
 C300 C 1.03826 0.85095 0.10840
 C301 C 1.03772 0.89302 0.08857
 C302 C 1.00886 0.90339 0.05172
 C303 C 0.98540 0.86553 0.03204
 C304 C 0.98602 0.82260 0.05083
 C305 C 0.96164 0.74382 0.04738
 C306 C 0.96177 0.78685 0.02952
 H307 H 0.94235 0.71734 0.02966
 H308 H 0.94267 0.79218 -0.00154
 H309 H 0.96241 0.66535 0.08895
 H310 H 1.04511 0.71148 0.20269
 H311 H 1.06510 0.91527 0.09899
 H312 H 0.96534 0.86849 0.00187
 H313 H 1.05050 0.78558 0.17174
 H314 H 1.06194 0.84647 0.13611
 C315 C 1.00929 1.22616 -0.12227
 C316 C 0.96728 1.24609 -0.13078
 C317 C 0.96573 1.29026 -0.14625
 C318 C 1.00554 1.31521 -0.15426
 C319 C 1.04717 1.29541 -0.14528
 C320 C 1.04910 1.25164 -0.12918
 C321 C 1.00933 1.17919 -0.10501
 C322 C 1.04857 1.15487 -0.09830
 C323 C 1.04634 1.11285 -0.07813
 C324 C 1.00618 1.09457 -0.06070
 C325 C 0.96704 1.11429 -0.07823
 C326 C 0.96779 1.15724 -0.09701
 C327 C 0.92702 1.22187 -0.12368
 C328 C 0.92727 1.17831 -0.10728
 H329 H 0.89480 1.23699 -0.13049
 H330 H 0.89525 1.16122 -0.10167
 H331 H 0.93326 1.30529 -0.15182
 H332 H 1.07849 1.31340 -0.15151
 H333 H 1.07667 1.09391 -0.07764
 H334 H 0.93529 1.09737 -0.07708
 H335 H 1.08200 1.23835 -0.12240
 H336 H 1.08107 1.16731 -0.10878
 C337 C 1.00126 0.76596 -0.10488
 C338 C 0.96313 0.75220 -0.13163
 C339 C 0.96003 0.70837 -0.14973
 C340 C 0.99398 0.67758 -0.14053
 C341 C 1.03010 0.69046 -0.11139
 C342 C 1.03377 0.73407 -0.09370
 C343 C 1.00523 0.81390 -0.08942
 C344 C 1.04436 0.83234 -0.06873
 C345 C 1.04617 0.87682 -0.05388
 C346 C 1.00943 0.90560 -0.05781
 C347 C 0.97148 0.88715 -0.08214
 C348 C 0.96911 0.84241 -0.09803
 C349 C 0.92856 0.78234 -0.14014
 C350 C 0.93106 0.82623 -0.12288
 H351 H 0.89897 0.77174 -0.16012
 H352 H 0.90320 0.84807 -0.12984
 H353 H 0.93140 0.69825 -0.17136
 H354 H 1.05650 0.66720 -0.10359
 H355 H 1.07758 0.88731 -0.04007
 H356 H 0.94343 0.90717 -0.08972
 H357 H 1.06240 0.74221 -0.07164
 H358 H 1.07437 0.81312 -0.06408
 C359 C 1.10312 1.01763 0.24205
 C360 C 1.08731 0.98409 0.27151
 C361 C 1.10459 0.98248 0.31588
 C362 C 1.13731 1.01404 0.33160
 C363 C 1.15118 1.04869 0.30334
 C364 C 1.13446 1.05047 0.25897
 C365 C 1.08660 1.01579 0.19388
 C366 C 1.09987 1.04704 0.16168
 C367 C 1.08380 1.04319 0.11707
 C368 C 1.05560 1.00715 0.10120
 C369 C 1.03926 0.97913 0.13557
 C370 C 1.05531 0.98171 0.18036
 C371 C 1.05525 0.95171 0.25622
 C372 C 1.03925 0.95081 0.21165
 H373 H 1.04271 0.92638 0.27892
 H374 H 1.01462 0.92493 0.20127
 H375 H 1.09357 0.95588 0.33794
 H376 H 1.17666 1.07320 0.31494
 H377 H 1.09352 1.07003 0.09625
 H378 H 1.01054 0.95704 0.12864
 H379 H 1.14737 1.07707 0.23828
 H380 H 1.12203 1.07530 0.17026
 C381 C 1.11762 0.99449 -0.23011
 C382 C 1.14478 0.95758 -0.24002
 C383 C 1.16374 0.95353 -0.28276
 C384 C 1.15612 0.98604 -0.31570
 C385 C 1.12971 1.02283 -0.30543
 C386 C 1.11089 1.02723 -0.26320
 C387 C 1.09747 0.99744 -0.18461
 C388 C 1.06654 1.02994 -0.17351
 C389 C 1.04795 1.03096 -0.13112
 C390 C 1.06082 1.00191 -0.09602
 C391 C 1.08811 0.96632 -0.10981
 C392 C 1.10724 0.96437 -0.15269
 C393 C 1.15304 0.92533 -0.20709
 C394 C 1.13487 0.92879 -0.16422
 H395 H 1.17399 0.89709 -0.21452
 H396 H 1.14227 0.90306 -0.13987
 H397 H 1.18430 0.92506 -0.29045
 H398 H 1.12448 1.04898 -0.32985
 H399 H 1.01918 1.05160 -0.12894
 H400 H 1.09424 0.93899 -0.08803
 H401 H 1.09186 1.05688 -0.25707
 H402 H 1.05388 1.05329 -0.19788
 C403 C 0.87667 1.00228 0.22214
 C404 C 0.89885 1.02445 0.25927
 C405 C 0.88004 1.02326 0.30237
 C406 C 0.83915 0.99947 0.31009
 C407 C 0.81833 0.97630 0.27272
 C408 C 0.83662 0.97773 0.22973
 C409 C 0.89768 1.00489 0.17660
 C410 C 0.87669 0.98827 0.13656
 C411 C 0.89917 0.98978 0.09554
 C412 C 0.94448 1.00469 0.09251
 C413 C 0.96120 1.02834 0.13171
 C414 C 0.93965 1.02726 0.17325
 C415 C 0.93991 1.04760 0.25324
 C416 C 0.96005 1.04866 0.21128
 H417 H 0.95715 1.06461 0.28156
 H418 H 0.99226 1.06630 0.20863
 H419 H 0.89699 1.04257 0.32924
 H420 H 0.78845 0.95533 0.27635
 H421 H 0.87938 0.97992 0.06672
 H422 H 0.99169 1.04846 0.13079
 H423 H 0.81934 0.95867 0.20296
 H424 H 0.84253 0.97484 0.13603
 C425 C 0.89638 1.00412 -0.23750
 C426 C 0.85634 1.02804 -0.24418
 C427 C 0.83669 1.03102 -0.28782
 C428 C 0.85677 1.01094 -0.32535
 C429 C 0.89746 0.98879 -0.31857
 C430 C 0.91705 0.98543 -0.27544
 C431 C 0.91544 1.00035 -0.19033
 C432 C 0.95231 0.97386 -0.17973
 C433 C 0.96986 0.97261 -0.13577
 C434 C 0.95257 0.99818 -0.09988
 C435 C 0.91295 1.02161 -0.11045
 C436 C 0.89464 1.02316 -0.15480
 C437 C 0.83632 1.04887 -0.20727
 C438 C 0.85534 1.04695 -0.16368
 H439 H 0.80573 1.06740 -0.21223
 H440 H 0.83889 1.06419 -0.13646
 H441 H 0.80523 1.04821 -0.29235
 H442 H 0.91447 0.97407 -0.34684
 H443 H 0.99866 0.95202 -0.13107
 H444 H 0.89468 1.03753 -0.08438
 H445 H 0.94851 0.96832 -0.27266
 H446 H 0.96835 0.95374 -0.20488
 C447 C 1.24070 1.11679 0.00884
 C448 C 1.24676 1.15985 -0.00949
 C449 C 1.29026 1.17874 -0.01302
 C450 C 1.32890 1.15545 0.00115
 C451 C 1.32234 1.11163 0.01750
 C452 C 1.27904 1.09266 0.02131
 C453 C 1.19362 1.09825 0.01269
 C454 C 1.18321 1.05912 0.03602
 C455 C 1.13904 1.04192 0.03587
 C456 C 1.10319 1.06092 0.01042
 C457 C 1.11348 1.10469 -0.00458
 C458 C 1.15766 1.12263 -0.00535
 C459 C 1.20938 1.18362 -0.02483
 C460 C 1.16578 1.16524 -0.02316
 H461 H 1.21393 1.21669 -0.03898
 H462 H 1.13806 1.18457 -0.03624
 H463 H 1.29361 1.21117 -0.02868
 H464 H 1.35032 1.09218 0.02945
 H465 H 1.13395 1.01194 0.05510
 H466 H 1.08709 1.12755 -0.01132
 H467 H 1.27624 1.05899 0.03403
 H468 H 1.20864 1.04122 0.05455
 C469 C 0.78013 1.12331 -0.00738
 C470 C 0.74062 1.09548 -0.00942
 C471 C 0.69794 1.11453 -0.01063
 C472 C 0.69377 1.16114 -0.00875
 C473 C 0.73281 1.18875 -0.00681
 C474 C 0.77550 1.17018 -0.00639
 C475 C 0.82503 1.10142 -0.00555
 C476 C 0.86640 1.12535 -0.00408
 C477 C 0.90709 1.10277 -0.00251
 C478 C 0.90916 1.05541 -0.00248
 C479 C 0.86700 1.03269 -0.00229
 C480 C 0.82584 1.05436 -0.00478
 C481 C 0.74386 1.04880 -0.00928
 C482 C 0.78554 1.02868 -0.00664
 H483 H 0.71370 1.02746 -0.01072
 H484 H 0.78620 0.99236 -0.00622
 H485 H 0.66785 1.09306 -0.01155
 H486 H 0.73026 1.22491 -0.00567
 H487 H 0.93735 1.12353 -0.00155
 H488 H 0.86445 0.99783 -0.00008
 H489 H 0.80428 1.19304 -0.00476
 H490 H 0.86828 1.16150 -0.00439
 C491 C 1.24329 0.90215 0.00329
 C492 C 1.25060 0.86381 0.02963
 C493 C 1.29327 0.84469 0.03183
 C494 C 1.32989 0.86265 0.00779
 C495 C 1.32214 0.90105 -0.01830
 C496 C 1.27979 0.92060 -0.02028
 C497 C 1.19675 0.92088 0.00142
 C498 C 1.18489 0.95728 -0.02533
 C499 C 1.14091 0.97295 -0.02583
 C500 C 1.10607 0.95381 0.00044
 C501 C 1.11859 0.91568 0.02467
 C502 C 1.16265 0.89974 0.02624
 C503 C 1.21509 0.84412 0.05323
 C504 C 1.17208 0.86160 0.05147
 H505 H 1.22057 0.81460 0.07332
 H506 H 1.14577 0.84504 0.07031
 H507 H 1.29674 0.81411 0.05066
 H508 H 1.34909 0.91734 -0.03629
 H509 H 1.13527 1.00242 -0.04561
 H510 H 1.09359 0.89319 0.03584
 H511 H 1.27640 0.95023 -0.04039
 H512 H 1.20910 0.97461 -0.04578
 C513 C 0.78184 0.86914 -0.00043
 C514 C 0.75246 0.87470 -0.03829
 C515 C 0.70767 0.85840 -0.03756
 C516 C 0.69160 0.83598 0.00024
 C517 C 0.72084 0.83001 0.03749
 C518 C 0.76532 0.84643 0.03732
 C519 C 0.82885 0.88877 -0.00191
 C520 C 0.85989 0.88767 0.03461
 C521 C 0.90127 0.91097 0.03317
 C522 C 0.91425 0.93603 -0.00468
 C523 C 0.88399 0.93348 -0.04231
 C524 C 0.84181 0.91140 -0.04105
 C525 C 0.76790 0.89655 -0.07661
 C526 C 0.81168 0.91431 -0.07805
 H527 H 0.74562 0.90048 -0.10575
 H528 H 0.82170 0.93170 -0.10821
 H529 H 0.68543 0.86250 -0.06674
 H530 H 0.70907 0.81287 0.06711
 H531 H 0.92186 0.91159 0.06374
 H532 H 0.89045 0.95200 -0.07179
 H533 H 0.78606 0.84100 0.06704
 H534 H 0.85221 0.87076 0.06549
 C535 C 0.72430 0.51698 0.38983
 C536 C 0.73134 0.48916 0.35166
 C537 C 0.77339 0.48936 0.33137
 C538 C 0.80930 0.51628 0.34886
 C539 C 0.80286 0.54305 0.38730
 C540 C 0.76079 0.54366 0.40749
 C541 C 0.67854 0.51574 0.41018
 C542 C 0.66717 0.54236 0.44736
 C543 C 0.62449 0.53823 0.46595
 C544 C 0.59087 0.50752 0.44873
 C545 C 0.60338 0.48130 0.41155
 C546 C 0.64554 0.48546 0.39182
 C547 C 0.69665 0.46076 0.33426
 C548 C 0.65483 0.45854 0.35425
 H549 H 0.70212 0.43938 0.30512
 H550 H 0.62928 0.43544 0.33995
 H551 H 0.77848 0.46788 0.30219
 H552 H 0.83024 0.56408 0.40129
 H553 H 0.61965 0.55761 0.49587
 H554 H 0.58200 0.45455 0.39890
 H555 H 0.75761 0.56499 0.43687
 H556 H 0.69092 0.56610 0.46315
 C557 C 0.25860 0.49569 0.38434
 C558 C 0.22555 0.52015 0.40699
 C559 C 0.18081 0.51954 0.39021
 C560 C 0.16824 0.49463 0.35106
 C561 C 0.20095 0.46960 0.32939
 C562 C 0.24542 0.46988 0.34582
 C563 C 0.30614 0.49805 0.40268
 C564 C 0.34199 0.47795 0.38108
 C565 C 0.38545 0.48025 0.40019
 C566 C 0.39578 0.50099 0.44239
 C567 C 0.35992 0.52552 0.46066
 C568 C 0.31585 0.52347 0.44224
 C569 C 0.23741 0.54504 0.44618
 C570 C 0.28156 0.54651 0.46354
 H571 H 0.21215 0.56360 0.46378
 H572 H 0.28897 0.56602 0.49412
 H573 H 0.15570 0.53838 0.40773
 H574 H 0.19242 0.45043 0.29889
 H575 H 0.41105 0.47197 0.37760
 H576 H 0.36544 0.54517 0.49129
 H577 H 0.26889 0.44978 0.32779
 H578 H 0.33771 0.46203 0.34826
 C579 C 0.72798 0.49384 0.61645
 C580 C 0.73630 0.51712 0.65771
 C581 C 0.77971 0.51855 0.67764
 C582 C 0.81650 0.49793 0.65681
 C583 C 0.80769 0.47638 0.61452
 C584 C 0.76437 0.47412 0.59497
 C585 C 0.68102 0.49283 0.59662
 C586 C 0.66855 0.46861 0.55740
 C587 C 0.62517 0.47113 0.53885
 C588 C 0.59142 0.49787 0.55735
 C589 C 0.60457 0.52062 0.59798
 C590 C 0.64793 0.51793 0.61782
 C591 C 0.70146 0.53993 0.67837
 C592 C 0.65843 0.54093 0.65850
 H593 H 0.70776 0.55807 0.70997
 H594 H 0.63294 0.55988 0.67535
 H595 H 0.78469 0.53848 0.70825
 H596 H 0.83338 0.45865 0.59693
 H597 H 0.62012 0.45403 0.50761
 H598 H 0.58328 0.54343 0.61406
 H599 H 0.76022 0.45676 0.56289
 H600 H 0.69191 0.44790 0.53990
 C601 C 0.26105 0.49334 0.60932
 C602 C 0.25742 0.51165 0.65332
 C603 C 0.21515 0.51339 0.67336
 C604 C 0.17584 0.49782 0.64997
 C605 C 0.17948 0.48052 0.60596
 C606 C 0.22143 0.47843 0.58576
 C607 C 0.30696 0.49130 0.58959
 C608 C 0.31525 0.46872 0.54906
 C609 C 0.35852 0.46878 0.53180
 C610 C 0.39564 0.49284 0.55247
 C611 C 0.38740 0.50969 0.59618
 C612 C 0.34412 0.51022 0.61427
 C613 C 0.29594 0.52840 0.67694
 C614 C 0.33830 0.52805 0.65769
 H615 H 0.29323 0.54250 0.71066
 H616 H 0.36696 0.54195 0.67713
 H617 H 0.21297 0.52649 0.70753
 H618 H 0.14967 0.46912 0.58679
 H619 H 0.36228 0.44986 0.50089
 H620 H 0.41472 0.51631 0.61949
 H621 H 0.22210 0.46557 0.55156
 H622 H 0.28891 0.45045 0.53025
 C623 C 0.50987 0.61466 0.27149
 C624 C 0.47139 0.61005 0.24227
 C625 C 0.47210 0.62773 0.19869
 C626 C 0.51022 0.65130 0.18388
 C627 C 0.54840 0.65584 0.21269
 C628 C 0.54844 0.63752 0.25584
 C629 C 0.50721 0.59587 0.31811
 C630 C 0.54357 0.59674 0.34942
 C631 C 0.53904 0.57791 0.39209
 C632 C 0.49783 0.55821 0.40639
 C633 C 0.46195 0.55874 0.37451
 C634 C 0.46611 0.57612 0.33119
 C635 C 0.43194 0.58898 0.25709
 C636 C 0.42920 0.57279 0.30073
 H637 H 0.40245 0.58553 0.23483
 H638 H 0.39769 0.55712 0.31069
 H639 H 0.44222 0.62479 0.17688
 H640 H 0.57824 0.67391 0.20182
 H641 H 0.56842 0.57977 0.41386
 H642 H 0.43016 0.54503 0.38188
 H643 H 0.57859 0.64235 0.27664
 H644 H 0.57608 0.61110 0.34144
 C645 C 0.47653 0.60992 0.73582
 C646 C 0.50041 0.58899 0.77133
 C647 C 0.50024 0.60710 0.81532
 C648 C 0.47774 0.64687 0.82465
 C649 C 0.45411 0.66758 0.78929
 C650 C 0.45341 0.64939 0.74549
 C651 C 0.47834 0.58987 0.68919
 C652 C 0.45235 0.60458 0.65241
 C653 C 0.45592 0.58444 0.60973
 C654 C 0.48799 0.55151 0.60009
 C655 C 0.50894 0.53387 0.63899
 C656 C 0.50537 0.55256 0.68236
 C657 C 0.52533 0.55078 0.76256
 C658 C 0.52821 0.53328 0.71894
 H659 H 0.54364 0.53468 0.78967
 H660 H 0.54860 0.50411 0.71380
 H661 H 0.51824 0.59040 0.84226
 H662 H 0.43723 0.69878 0.79512
 H663 H 0.42872 0.59054 0.58625
 H664 H 0.52918 0.50528 0.63670
 H665 H 0.43568 0.66732 0.71945
 H666 H 0.42699 0.62948 0.65652
 C667 C 0.48597 0.39125 0.26226
 C668 C 0.51334 0.41244 0.22995
 C669 C 0.51643 0.39367 0.18647
 C670 C 0.49286 0.35367 0.17465
 C671 C 0.46477 0.33350 0.20634
 C672 C 0.46145 0.35183 0.24961
 C673 C 0.48539 0.41109 0.30892
 C674 C 0.45851 0.39393 0.34311
 C675 C 0.46040 0.41337 0.38629
 C676 C 0.49083 0.44890 0.39906
 C677 C 0.51309 0.46851 0.36230
 C678 C 0.51196 0.44983 0.31868
 C679 C 0.53825 0.45161 0.24155
 C680 C 0.53756 0.46995 0.28500
 H681 H 0.55904 0.46804 0.21685
 H682 H 0.55779 0.50009 0.29246
 H683 H 0.53854 0.40931 0.16239
 H684 H 0.44553 0.30305 0.19779
 H685 H 0.43272 0.40446 0.40720
 H686 H 0.53392 0.49779 0.36691
 H687 H 0.44013 0.33420 0.27275
 H688 H 0.43402 0.36705 0.33676
 C689 C 0.50596 0.39452 0.73187
 C690 C 0.54782 0.37869 0.74781
 C691 C 0.55153 0.36093 0.79149
 C692 C 0.51388 0.35927 0.81927
 C693 C 0.47369 0.37845 0.80447
 C694 C 0.46977 0.39617 0.76152
 C695 C 0.50179 0.40905 0.68407
 C696 C 0.46026 0.41850 0.66372
 C697 C 0.45776 0.43395 0.61990
 C698 C 0.49600 0.44155 0.59392
 C699 C 0.53742 0.42696 0.61322
 C700 C 0.54052 0.41111 0.65771
 C701 C 0.58519 0.38034 0.71976
 C702 C 0.58183 0.39711 0.67594
 H703 H 0.61755 0.36884 0.73195
 H704 H 0.61178 0.39839 0.65580
 H705 H 0.58296 0.34679 0.80310
 H706 H 0.44475 0.37883 0.82601
 H707 H 0.42488 0.43987 0.60802
 H708 H 0.56762 0.42761 0.59408
 H709 H 0.43801 0.41059 0.75213
 H710 H 0.42894 0.41399 0.68096
 C711 C 0.60816 0.73460 0.51075
 C712 C 0.59083 0.76623 0.48008
 C713 C 0.60927 0.81016 0.47959
 C714 C 0.64629 0.82253 0.50781
 C715 C 0.66401 0.79095 0.53752
 C716 C 0.64503 0.74763 0.53933
 C717 C 0.58753 0.68808 0.51013
 C718 C 0.59744 0.65604 0.54280
 C719 C 0.57676 0.61331 0.54066
 C720 C 0.54740 0.59890 0.50508
 C721 C 0.53584 0.63298 0.47418
 C722 C 0.55478 0.67661 0.47655
 C723 C 0.55638 0.75329 0.44901
 C724 C 0.53936 0.70925 0.44671
 H725 H 0.54314 0.77730 0.42536
 H726 H 0.51332 0.70075 0.42146
 H727 H 0.59619 0.83420 0.45584
 H728 H 0.69294 0.79982 0.55919
 H729 H 0.58395 0.59236 0.56764
 H730 H 0.50819 0.62801 0.45055
 H731 H 0.66041 0.72448 0.56233
 H732 H 0.61995 0.66382 0.57121
 C733 C 0.60376 0.26775 0.50093
 C734 C 0.64067 0.26046 0.47283
 C735 C 0.66058 0.21825 0.47132
 C736 C 0.64297 0.18185 0.49573
 C737 C 0.60501 0.18897 0.52208
 C738 C 0.58590 0.23124 0.52497
 C739 C 0.58465 0.31384 0.50276
 C740 C 0.55131 0.32602 0.53262
 C741 C 0.53380 0.36896 0.53198
 C742 C 0.54830 0.40299 0.50198
 C743 C 0.58188 0.38929 0.47229
 C744 C 0.60099 0.34661 0.47326
 C745 C 0.65696 0.29513 0.44575
 C746 C 0.63688 0.33690 0.44516
 H747 H 0.68502 0.28957 0.42386
 H748 H 0.65009 0.36220 0.42279
 H749 H 0.69012 0.21410 0.45116
 H750 H 0.58949 0.16169 0.54027
 H751 H 0.50501 0.37257 0.55254
 H752 H 0.59579 0.41174 0.44947
 H753 H 0.55667 0.23442 0.54555
 H754 H 0.53741 0.30256 0.55624
 C755 C 0.38880 0.73106 0.48530
 C756 C 0.40690 0.76475 0.51524
 C757 C 0.38901 0.80777 0.51508
 C758 C 0.35197 0.81701 0.48685
 C759 C 0.33407 0.78369 0.45727
 C760 C 0.35231 0.74121 0.45628
 C761 C 0.40770 0.68531 0.48748
 C762 C 0.39632 0.65130 0.45594
 C763 C 0.41416 0.60885 0.46021
 C764 C 0.44159 0.59659 0.49737
 C765 C 0.45649 0.63320 0.52559
 C766 C 0.43998 0.67649 0.52141
 C767 C 0.44124 0.75465 0.54645
 C768 C 0.45695 0.71119 0.54997
 H769 H 0.45519 0.78036 0.56940
 H770 H 0.48278 0.70468 0.57539
 H771 H 0.40222 0.83336 0.53862
 H772 H 0.30527 0.79038 0.43543
 H773 H 0.40627 0.58659 0.43290
 H774 H 0.48386 0.62947 0.54953
 H775 H 0.33639 0.71645 0.43378
 H776 H 0.37494 0.65716 0.42673
 C777 C 0.39324 0.25947 0.50045
 C778 C 0.35802 0.24976 0.53027
 C779 C 0.33945 0.20614 0.53207
 C780 C 0.35616 0.17136 0.50530
 C781 C 0.39205 0.18086 0.47680
 C782 C 0.41026 0.22428 0.47418
 C783 C 0.41095 0.30680 0.49840
 C784 C 0.44499 0.32017 0.46950
 C785 C 0.46052 0.36454 0.46933
 C786 C 0.44230 0.39906 0.49621
 C787 C 0.41055 0.38366 0.52739
 C788 C 0.39354 0.33926 0.52762
 C789 C 0.34160 0.28360 0.55817
 C790 C 0.35945 0.32727 0.55735
 H791 H 0.31481 0.27613 0.58129
 H792 H 0.34589 0.35218 0.57989
 H793 H 0.31133 0.19957 0.55384
 H794 H 0.40630 0.15459 0.45649
 H795 H 0.48923 0.37067 0.44876
 H796 H 0.39919 0.40480 0.55320
 H797 H 0.43765 0.22939 0.45149
 H798 H 0.46103 0.29689 0.44731
   
