data_POSCAR
  _audit_creation_date              2014-09-24
  _audit_creation_method            'ToBaCCo'
  _symmetry_space_group_name_H-M    'P1'
  _symmetry_Int_Tables_number       1
  _symmetry_cell_setting            triclinic
  loop_
  _symmetry_equiv_pos_as_xyz
 x,y,z
_cell_length_a 39.5629
_cell_length_b 38.0595
_cell_length_c 39.5524
_cell_angle_alpha 92.985900
_cell_angle_beta 93.812300
_cell_angle_gamma 95.910300
loop_
  _atom_site_label
  _atom_site_type_symbol
  _atom_site_fract_x
  _atom_site_fract_y
  _atom_site_fract_z
C1 C 0.72854 0.64238 1.02995
 C2 C 0.75429 0.65616 1.01014
 C3 C 0.78858 0.65630 1.02193
 C4 C 0.79710 0.64159 1.05295
 C5 C 0.77072 0.62682 1.07185
 C6 C 0.73630 0.62814 1.06115
 C7 C 0.74433 0.66995 0.97705
 C8 C 0.71864 0.69276 0.97530
 C9 C 0.70396 0.70105 0.94396
 C10 C 0.71651 0.68785 0.91406
 C11 C 0.74257 0.66540 0.91517
 C12 C 0.75657 0.65663 0.94690
 H13 H 0.70217 0.64254 1.02062
 H14 H 0.80831 0.66736 1.00666
 H15 H 0.70874 0.70244 0.99852
 H16 H 0.77586 0.63844 0.94827
 H17 H 0.77718 0.61576 1.09578
 H18 H 0.70525 0.69423 0.88976
 C19 C 0.76486 0.41469 0.42118
 C20 C 0.77909 0.40387 0.45193
 C21 C 0.81055 0.38983 0.45242
 C22 C 0.82787 0.38646 0.42288
 C23 C 0.81344 0.39744 0.39239
 C24 C 0.78197 0.41164 0.39124
 C25 C 0.76120 0.40626 0.48369
 C26 C 0.72621 0.39514 0.48379
 C27 C 0.71033 0.39342 0.51452
 C28 C 0.72950 0.40452 0.54518
 C29 C 0.76439 0.41553 0.54540
 C30 C 0.77993 0.41660 0.51463
 H31 H 0.74065 0.42558 0.42080
 H32 H 0.82120 0.38054 0.47585
 H33 H 0.71188 0.38580 0.46018
 H34 H 0.80694 0.42510 0.51483
 H35 H 0.82683 0.39517 0.36953
 H36 H 0.71776 0.40315 0.56906
 C37 C 0.26171 -0.08206 -0.04524
 C38 C 0.26884 -0.10545 -0.02037
 C39 C 0.29700 -0.12464 -0.02229
 C40 C 0.31834 -0.12089 -0.04925
 C41 C 0.31104 -0.09690 -0.07407
 C42 C 0.28282 -0.07739 -0.07211
 C43 C 0.24927 -0.10680 0.00983
 C44 C 0.21890 -0.12909 0.01018
 C45 C 0.20093 -0.13081 0.03980
 C46 C 0.21437 -0.10977 0.06912
 C47 C 0.24435 -0.08678 0.06829
 C48 C 0.26157 -0.08547 0.03860
 H49 H 0.24043 -0.06657 -0.04272
 H50 H 0.30228 -0.14222 -0.00235
 H51 H 0.20960 -0.14515 -0.01263
 H52 H 0.28497 -0.06805 0.03790
 H53 H 0.32713 -0.09314 -0.09493
 H54 H 0.20133 -0.11015 0.09230
 C55 C 0.23664 0.12919 0.56001
 C56 C 0.24271 0.14171 0.52809
 C57 C 0.27351 0.16183 0.52327
 C58 C 0.29867 0.16901 0.55012
 C59 C 0.29286 0.15514 0.58175
 C60 C 0.26183 0.13544 0.58689
 C61 C 0.21701 0.13318 0.49955
 C62 C 0.18623 0.14821 0.49932
 C63 C 0.16203 0.14135 0.47159
 C64 C 0.16842 0.11777 0.44471
 C65 C 0.19926 0.10246 0.44475
 C66 C 0.22358 0.11057 0.47229
 H67 H 0.21283 0.11343 0.56338
 H68 H 0.27783 0.17178 0.49856
 H69 H 0.18184 0.16626 0.52029
 H70 H 0.24753 0.09911 0.47300
 H71 H 0.31206 0.16033 0.60272
 H72 H 0.14995 0.11206 0.42322
 C73 C 0.15533 0.53747 0.23388
 C74 C 0.16572 0.51398 0.25765
 C75 C 0.16227 0.52171 0.29220
 C76 C 0.14754 0.55197 0.30295
 C77 C 0.13605 0.57467 0.27871
 C78 C 0.14011 0.56784 0.24393
 C79 C 0.17752 0.47997 0.24593
 C80 C 0.20031 0.47871 0.22018
 C81 C 0.20904 0.44615 0.20699
 C82 C 0.19539 0.41478 0.22059
 C83 C 0.17230 0.41554 0.24597
 C84 C 0.16368 0.44827 0.25867
 H85 H 0.15772 0.53101 0.20720
 H86 H 0.17034 0.50364 0.31063
 H87 H 0.21059 0.50306 0.20989
 H88 H 0.14550 0.44918 0.27789
 H89 H 0.12451 0.59784 0.28720
 H90 H 0.20191 0.38947 0.21085
 C91 C -0.10096 -0.06185 0.22573
 C92 C -0.11523 -0.03008 0.23229
 C93 C -0.13278 -0.02557 0.26168
 C94 C -0.13726 -0.05283 0.28410
 C95 C -0.12249 -0.08432 0.27727
 C96 C -0.10406 -0.08902 0.24850
 C97 C -0.11333 -0.00174 0.20803
 C98 C -0.12726 -0.00864 0.17439
 C99 C -0.12986 0.01913 0.15243
 C100 C -0.11721 0.05376 0.16465
 C101 C -0.10342 0.06097 0.19811
 C102 C -0.10123 0.03308 0.21963
 H103 H -0.08747 -0.06515 0.20304
 H104 H -0.14413 -0.00117 0.26620
 H105 H -0.13751 -0.03542 0.16601
 H106 H -0.09153 0.03854 0.24585
 H107 H -0.12489 -0.10540 0.29450
 H108 H -0.11893 0.07581 0.14872
 C109 C 0.40740 0.45312 0.76195
 C110 C 0.38272 0.46286 0.78322
 C111 C 0.37874 0.44645 0.81393
 C112 C 0.39924 0.41969 0.82318
 C113 C 0.42367 0.40997 0.80099
 C114 C 0.42782 0.42665 0.77055
 C115 C 0.36159 0.49060 0.77272
 C116 C 0.33822 0.48403 0.74413
 C117 C 0.32106 0.51146 0.73113
 C118 C 0.32706 0.54533 0.74770
 C119 C 0.35133 0.55254 0.77532
 C120 C 0.36834 0.52493 0.78802
 H121 H 0.41036 0.46598 0.73833
 H122 H 0.35971 0.45467 0.83020
 H123 H 0.33447 0.45788 0.73136
 H124 H 0.38754 0.53025 0.80902
 H125 H 0.43973 0.38950 0.80731
 H126 H 0.31408 0.56684 0.73820
 C127 C 0.62048 1.03917 0.70653
 C128 C 0.63205 1.01623 0.73013
 C129 C 0.63491 1.02659 0.76479
 C130 C 0.62569 1.05982 0.77602
 C131 C 0.61300 1.08212 0.75184
 C132 C 0.61095 1.07220 0.71700
 C133 C 0.64012 0.98109 0.71777
 C134 C 0.66337 0.97857 0.69283
 C135 C 0.66681 0.94598 0.67603
 C136 C 0.64695 0.91545 0.68483
 C137 C 0.62423 0.91742 0.71066
 C138 C 0.62119 0.95046 0.72717
 H139 H 0.61850 1.03084 0.67978
 H140 H 0.64401 1.00851 0.78268
 H141 H 0.67764 1.00246 0.68541
 H142 H 0.60272 0.95293 0.74592
 H143 H 0.60585 1.10772 0.76004
 H144 H 0.64933 0.89019 0.67176
 C145 C -0.06295 0.25991 -0.10278
 C146 C -0.03133 0.27677 -0.11054
 C147 C -0.02958 0.31108 -0.12247
 C148 C -0.05904 0.32849 -0.12751
 C149 C -0.09044 0.31096 -0.11982
 C150 C -0.09261 0.27703 -0.10729
 C151 C 0.00019 0.25884 -0.10689
 C152 C 0.00204 0.22539 -0.12298
 C153 C 0.03329 0.21045 -0.12309
 C154 C 0.06240 0.22908 -0.10523
 C155 C 0.06062 0.26222 -0.08841
 C156 C 0.02944 0.27681 -0.08958
 H157 H -0.06444 0.23349 -0.09364
 H158 H -0.00515 0.32377 -0.12865
 H159 H -0.02057 0.21199 -0.13690
 H160 H 0.02781 0.30261 -0.07722
 H161 H -0.11357 0.32362 -0.12314
 H162 H 0.08662 0.21830 -0.10476
 C163 C 0.55295 0.19940 0.13977
 C164 C 0.52814 0.22140 0.14846
 C165 C 0.53526 0.25819 0.14739
 C166 C 0.56659 0.27282 0.13685
 C167 C 0.59062 0.25034 0.12670
 C168 C 0.58416 0.21357 0.12863
 C169 C 0.49440 0.20546 0.15726
 C170 C 0.49211 0.18017 0.18181
 C171 C 0.46048 0.16259 0.18837
 C172 C 0.43100 0.16986 0.16918
 C173 C 0.43293 0.19506 0.14447
 C174 C 0.46465 0.21332 0.13918
 H175 H 0.54737 0.17098 0.14056
 H176 H 0.51633 0.27533 0.15449
 H177 H 0.51512 0.17421 0.19579
 H178 H 0.46655 0.23216 0.11960
 H179 H 0.61480 0.26159 0.11854
 H180 H 0.40652 0.15579 0.17314
 C181 C 1.02237 0.74063 0.63883
 C182 C 1.00626 0.77000 0.64915
 C183 C 1.02596 0.80213 0.65948
 C184 C 1.06189 0.80456 0.65987
 C185 C 1.07732 0.77471 0.64825
 C186 C 1.05770 0.74276 0.63798
 C187 C 0.96863 0.76625 0.64684
 C188 C 0.95109 0.73751 0.66138
 C189 C 0.91664 0.72705 0.65172
 C190 C 0.89931 0.74674 0.62840
 C191 C 0.91638 0.77586 0.61393
 C192 C 0.95101 0.78578 0.62379
 H193 H 1.00701 0.71611 0.63037
 H194 H 1.01320 0.82464 0.66749
 H195 H 0.96523 0.72152 0.67789
 H196 H 0.96504 0.80692 0.61153
 H197 H 1.10477 0.77587 0.64807
 H198 H 0.87301 0.73806 0.62019
 C199 C 0.42145 0.70552 0.40457
 C200 C 0.43928 0.72861 0.38377
 C201 C 0.42667 0.76098 0.37679
 C202 C 0.39724 0.77054 0.39133
 C203 C 0.37990 0.74713 0.41215
 C204 C 0.39179 0.71459 0.41891
 C205 C 0.47296 0.72046 0.37284
 C206 C 0.47802 0.68628 0.36028
 C207 C 0.51070 0.67792 0.35286
 C208 C 0.53867 0.70405 0.35922
 C209 C 0.53380 0.73829 0.37144
 C210 C 0.50093 0.74638 0.37766
 H211 H 0.43148 0.68100 0.41070
 H212 H 0.44060 0.77933 0.36136
 H213 H 0.45637 0.66628 0.35613
 H214 H 0.49738 0.77259 0.38794
 H215 H 0.35760 0.75485 0.42385
 H216 H 0.56412 0.69814 0.35430
 C217 C 0.36353 -0.04998 0.34993
 H218 H 0.36340 -0.02459 0.36329
 C219 C 0.37152 -0.07884 0.36799
 H220 H 0.37724 -0.07544 0.39519
 C221 C 0.35545 -0.08570 0.29859
 H222 H 0.34872 -0.08832 0.27158
 C223 C 0.36400 -0.11527 0.31567
 H224 H 0.36338 -0.14061 0.30176
 N225 N 0.35462 -0.05401 0.31606
 C226 C 0.36491 0.05521 0.28935
 H227 H 0.33911 0.06058 0.29330
 C228 C 0.38741 0.08137 0.27717
 H229 H 0.37910 0.10712 0.27307
 C230 C 0.40597 0.01410 0.28670
 H231 H 0.41227 -0.01275 0.28866
 C232 C 0.42945 0.03971 0.27473
 H233 H 0.45408 0.03259 0.26812
 Zn234 Zn 0.33837 -0.01465 0.29490
 N235 N 0.37410 0.02203 0.29280
 C236 C 0.31500 0.02310 0.34984
 N237 N 0.30435 0.00336 0.32071
 C238 C 0.27075 -0.00186 0.30986
 C239 C 0.24643 0.01263 0.32880
 C240 C 0.29162 0.03807 0.36951
 C241 C 0.33389 -0.00721 0.22494
 C242 C 0.32071 -0.01228 0.19146
 C243 C 0.28092 -0.05977 0.20767
 C244 C 0.29490 -0.05363 0.24126
 N245 N 0.32057 -0.02719 0.24935
 H246 H 0.34189 0.02816 0.35740
 H247 H 0.26262 -0.01699 0.28640
 H248 H 0.21985 0.00822 0.31969
 H249 H 0.30113 0.05385 0.39229
 H250 H 0.35453 0.01329 0.23118
 H251 H 0.33163 0.00436 0.17273
 H252 H 0.26005 -0.08030 0.20176
 H253 H 0.28485 -0.06948 0.26097
 C254 C 0.41960 0.07330 0.26838
 C255 C 0.37125 -0.11208 0.35099
 C256 C 0.29368 -0.03847 0.18241
 C257 C 0.25672 0.03297 0.35908
 C258 C 0.08075 1.05221 0.78611
 H259 H 0.06956 1.02656 0.77557
 C260 C 0.06009 1.07573 0.80079
 H261 H 0.03299 1.06806 0.80105
 C262 C 0.12963 1.09315 0.79962
 H263 H 0.15687 1.09964 0.79921
 C264 C 0.11006 1.11726 0.81464
 H265 H 0.12258 1.14243 0.82512
 N266 N 0.11486 1.06141 0.78564
 C267 C 0.14402 0.95821 0.75875
 H268 H 0.16667 0.96259 0.77578
 C269 C 0.13569 0.92488 0.74257
 H270 H 0.15141 0.90396 0.74821
 C271 C 0.09846 0.98058 0.72774
 H272 H 0.08515 1.00287 0.72080
 C273 C 0.08884 0.94710 0.71116
 H274 H 0.06791 0.94365 0.69180
 Zn275 Zn 0.14583 1.03118 0.76852
 N276 N 0.12573 0.98549 0.75110
 C277 C 0.16705 1.00576 0.83078
 N278 N 0.17804 1.02503 0.80489
 C279 C 0.21166 1.03612 0.80319
 C280 C 0.23600 1.02414 0.82566
 C281 C 0.19053 0.99319 0.85385
 C282 C 0.16312 1.08298 0.72045
 C283 C 0.18339 1.09768 0.69598
 C284 C 0.21552 1.04704 0.69757
 C285 C 0.19411 1.03286 0.72109
 N286 N 0.16937 1.05147 0.73300
 H287 H 0.14011 0.99776 0.83183
 H288 H 0.21989 1.05286 0.78345
 H289 H 0.26275 1.03158 0.82272
 H290 H 0.18110 0.97591 0.87271
 H291 H 0.14288 1.09699 0.72979
 H292 H 0.17891 1.12314 0.68661
 H293 H 0.23599 1.03263 0.68927
 H294 H 0.19818 1.00760 0.73110
 C295 C 0.10827 0.91911 0.71808
 C296 C 0.07476 1.10869 0.81552
 C297 C 0.21045 1.07992 0.68509
 C298 C 0.22563 1.00104 0.85040
 C299 C 0.56197 0.52089 0.26044
 H300 H 0.55063 0.49674 0.24679
 C301 C 0.54164 0.54212 0.27853
 H302 H 0.51463 0.53397 0.27877
 C303 C 0.61071 0.56153 0.27583
 H304 H 0.63767 0.56904 0.27429
 C305 C 0.59143 0.58346 0.29413
 H306 H 0.60409 0.60749 0.30693
 N307 N 0.59585 0.53100 0.25943
 C308 C 0.60448 0.46422 0.17303
 H309 H 0.61554 0.48669 0.16057
 C310 C 0.59583 0.43235 0.15402
 H311 H 0.59971 0.43112 0.12717
 C312 C 0.58893 0.43748 0.22328
 H313 H 0.58782 0.43935 0.25057
 C314 C 0.57988 0.40489 0.20510
 H315 H 0.57156 0.38201 0.21870
 Zn316 Zn 0.62474 0.50604 0.23309
 N317 N 0.60182 0.46609 0.20719
 C318 C 0.66148 0.49424 0.29547
 N319 N 0.65920 0.48875 0.26108
 C320 C 0.68060 0.46868 0.24524
 C321 C 0.70608 0.45391 0.26396
 C322 C 0.68654 0.47970 0.31526
 C323 C 0.62187 0.55416 0.18278
 C324 C 0.63349 0.57408 0.15648
 C325 C 0.69095 0.56279 0.17355
 C326 C 0.67820 0.54305 0.19959
 N327 N 0.64407 0.53804 0.20286
 H328 H 0.64375 0.50961 0.30765
 H329 H 0.67775 0.46410 0.21793
 H330 H 0.72292 0.43811 0.25081
 H331 H 0.68812 0.48469 0.34251
 H332 H 0.59488 0.55001 0.18620
 H333 H 0.61522 0.58554 0.13995
 H334 H 0.71804 0.56518 0.17073
 H335 H 0.69554 0.53079 0.21633
 C336 C 0.58449 0.40186 0.17014
 C337 C 0.55627 0.57411 0.29539
 C338 C 0.66833 0.57775 0.15091
 C339 C 0.70928 0.45922 0.29944
 C340 C 0.91304 0.49256 0.79165
 H341 H 0.92677 0.51329 0.77872
 C342 C 0.93080 0.46777 0.80848
 H343 H 0.95830 0.46990 0.80868
 C344 C 0.86040 0.46328 0.80541
 H345 H 0.83285 0.46113 0.80321
 C346 C 0.87701 0.43826 0.82262
 H347 H 0.86168 0.41759 0.83403
 N348 N 0.87841 0.48948 0.79006
 C349 C 0.87635 0.54755 0.70470
 H350 H 0.86734 0.52238 0.69172
 C351 C 0.88263 0.57689 0.68559
 H352 H 0.87881 0.57386 0.65818
 C353 C 0.88913 0.58311 0.75586
 H354 H 0.88934 0.58574 0.78324
 C355 C 0.89629 0.61323 0.73754
 H356 H 0.90269 0.63882 0.75094
 Zn357 Zn 0.85181 0.51660 0.76206
 N358 N 0.87790 0.55141 0.73919
 C359 C 0.80565 0.56596 0.77161
 N360 N 0.82267 0.54190 0.78808
 C361 C 0.82295 0.54044 0.82242
 C362 C 0.80583 0.56403 0.84153
 C363 C 0.78821 0.58989 0.78963
 C364 C 0.84554 0.45808 0.71700
 C365 C 0.83647 0.43991 0.68574
 C366 C 0.78902 0.47456 0.67832
 C367 C 0.79912 0.49232 0.70986
 N368 N 0.82772 0.48469 0.72791
 H369 H 0.80717 0.56791 0.74457
 H370 H 0.83761 0.52208 0.83529
 H371 H 0.80700 0.56274 0.86880
 H372 H 0.77552 0.60928 0.77595
 H373 H 0.86869 0.45298 0.73110
 H374 H 0.85224 0.42035 0.67659
 H375 H 0.76762 0.48258 0.66325
 H376 H 0.78546 0.51377 0.71859
 C377 C 0.89126 0.61037 0.70200
 C378 C 0.91271 0.43966 0.82366
 C379 C 0.80883 0.44912 0.66533
 C380 C 0.78856 0.58960 0.82514
 C381 C 0.34526 0.33354 -0.02619
 H382 H 0.35027 0.31023 -0.01310
 C383 C 0.36566 0.34413 -0.05204
 H384 H 0.38620 0.32879 -0.05829
 C385 C 0.31198 0.38098 -0.03471
 H386 H 0.29120 0.39550 -0.02783
 C387 C 0.33174 0.39246 -0.06091
 H388 H 0.32566 0.41563 -0.07375
 N389 N 0.31852 0.35148 -0.01841
 C390 C 0.25797 0.35015 0.06955
 H391 H 0.24702 0.32295 0.06479
 C392 C 0.24872 0.37011 0.09716
 H393 H 0.23032 0.35777 0.11302
 C394 C 0.29491 0.39850 0.05353
 H395 H 0.31305 0.40919 0.03647
 C396 C 0.28629 0.41965 0.08113
 H397 H 0.29781 0.44673 0.08507
 Zn398 Zn 0.28899 0.33142 0.01342
 N399 N 0.28065 0.36439 0.04846
 C400 C 0.32978 0.30664 0.06439
 N401 N 0.31045 0.29500 0.03541
 C402 C 0.30958 0.26081 0.02295
 C403 C 0.32708 0.23660 0.04092
 C404 C 0.34822 0.28367 0.08256
 C405 C 0.22847 0.34502 -0.01802
 C406 C 0.19500 0.34025 -0.03192
 C407 C 0.19511 0.27732 -0.02731
 C408 C 0.22885 0.28337 -0.01306
 N409 N 0.24493 0.31694 -0.00888
 H410 H 0.33142 0.33411 0.07328
 H411 H 0.29610 0.25240 -0.00120
 H412 H 0.32607 0.20943 0.03099
 H413 H 0.36316 0.29352 0.10566
 H414 H 0.24084 0.37154 -0.01307
 H415 H 0.18244 0.36321 -0.03839
 H416 H 0.18242 0.25065 -0.02978
 H417 H 0.24141 0.26133 -0.00446
 C418 C 0.26299 0.40538 0.10351
 C419 C 0.35860 0.37345 -0.07038
 C420 C 0.17773 0.30617 -0.03656
 C421 C 0.34679 0.24813 0.07104
 C422 C 0.75591 0.04878 1.01443
 H423 H 0.72919 0.04103 1.00757
 C424 C 0.77454 0.02697 1.03421
 H425 H 0.76181 0.00305 1.04319
 C426 C 0.80481 0.08970 1.01214
 H427 H 0.81684 0.11399 1.00369
 C428 C 0.82427 0.06888 1.03192
 H429 H 0.85088 0.07769 1.03860
 N430 N 0.77075 0.08058 1.00557
 C431 C 0.67920 0.10687 0.95309
 H432 H 0.67279 0.12471 0.97324
 C433 C 0.65699 0.10004 0.92416
 H434 H 0.63342 0.11222 0.92266
 C435 C 0.71900 0.07214 0.92915
 H436 H 0.74396 0.06284 0.93071
 C437 C 0.69739 0.06456 0.89960
 H438 H 0.70596 0.04917 0.87870
 Zn439 Zn 0.74275 0.11490 0.98878
 N440 N 0.71000 0.09392 0.95463
 C441 C 0.76260 0.15726 0.93570
 N442 N 0.76951 0.15254 0.96926
 C443 C 0.79517 0.17329 0.98763
 C444 C 0.81659 0.19793 0.97165
 C445 C 0.78261 0.18222 0.91910
 C446 C 0.69976 0.10802 1.04165
 C447 C 0.67791 0.11821 1.06560
 C448 C 0.69426 0.17926 1.05494
 C449 C 0.71636 0.16783 1.03131
 N450 N 0.71833 0.13261 1.02482
 H451 H 0.74170 0.14150 0.92144
 H452 H 0.79953 0.17016 1.01454
 H453 H 0.83737 0.21374 0.98629
 H454 H 0.77691 0.18532 0.89233
 H455 H 0.70078 0.08026 1.03563
 H456 H 0.66290 0.09794 1.07800
 H457 H 0.69251 0.20728 1.05932
 H458 H 0.73089 0.18700 1.01729
 C459 C 0.66651 0.07984 0.89643
 C460 C 0.80870 0.03805 1.04465
 C461 C 0.67431 0.15414 1.07208
 C462 C 0.81044 0.20225 0.93686
 C463 C 0.23114 0.53182 0.56527
 H464 H 0.22396 0.51798 0.54086
 C465 C 0.24455 0.51378 0.59240
 H466 H 0.24774 0.48597 0.58869
 C467 C 0.23678 0.58513 0.59984
 H468 H 0.23407 0.61311 0.60252
 C469 C 0.24967 0.56830 0.62736
 H470 H 0.25593 0.58373 0.65105
 N471 N 0.22807 0.56705 0.56950
 C472 C 0.15738 0.57922 0.48868
 H473 H 0.14271 0.59066 0.50758
 C474 C 0.14285 0.57303 0.45558
 H475 H 0.11699 0.57900 0.44987
 C476 C 0.20950 0.56058 0.47225
 H477 H 0.23604 0.55764 0.47860
 C478 C 0.19593 0.55416 0.43859
 H479 H 0.21220 0.54570 0.41952
 Zn480 Zn 0.21315 0.59731 0.53640
 N481 N 0.19052 0.57413 0.49622
 C482 C 0.24793 0.64754 0.49737
 N483 N 0.25175 0.62515 0.52273
 C484 C 0.28318 0.61802 0.53476
 C485 C 0.31223 0.63247 0.52033
 C486 C 0.27646 0.66271 0.48220
 C487 C 0.15806 0.60512 0.57323
 C488 C 0.13332 0.62136 0.58960
 C489 C 0.15995 0.67813 0.57519
 C490 C 0.18440 0.66062 0.55890
 N491 N 0.18258 0.62468 0.55782
 H492 H 0.22262 0.65206 0.48767
 H493 H 0.28583 0.59961 0.55438
 H494 H 0.33691 0.62552 0.52953
 H495 H 0.27277 0.67914 0.46106
 H496 H 0.15754 0.57660 0.57230
 H497 H 0.11378 0.60509 0.60126
 H498 H 0.16123 0.70664 0.57515
 H499 H 0.20447 0.67566 0.54688
 C500 C 0.16256 0.56188 0.42972
 C501 C 0.25451 0.53231 0.62385
 C502 C 0.13376 0.65826 0.59052
 C503 C 0.30909 0.65440 0.49317
 C504 C 0.77332 0.92498 0.43793
 H505 H 0.76838 0.93949 0.46098
 C506 C 0.78878 0.94287 0.41192
 H507 H 0.79596 0.97113 0.41515
 C508 C 0.77010 0.87057 0.40525
 H509 H 0.76266 0.84234 0.40286
 C510 C 0.78564 0.88720 0.37898
 H511 H 0.78963 0.87160 0.35622
 N512 N 0.76508 0.88929 0.43435
 C513 C 0.70195 0.88237 0.51622
 H514 H 0.68277 0.86488 0.50123
 C515 C 0.69401 0.89727 0.54727
 H516 H 0.66843 0.89196 0.55517
 C517 C 0.75889 0.90913 0.52488
 H518 H 0.78445 0.91247 0.51652
 C519 C 0.75193 0.92487 0.55601
 H520 H 0.77212 0.94093 0.57124
 Zn521 Zn 0.74590 0.86112 0.46778
 N522 N 0.73402 0.88826 0.50575
 C523 C 0.81068 0.83717 0.47333
 N524 N 0.77907 0.83276 0.48509
 C525 C 0.77362 0.81597 0.51412
 C526 C 0.80109 0.80520 0.53379
 C527 C 0.83863 0.82680 0.49203
 C528 C 0.68562 0.85838 0.43098
 C529 C 0.65470 0.84548 0.41392
 C530 C 0.66545 0.78636 0.42779
 C531 C 0.69667 0.80057 0.44467
 N532 N 0.70578 0.83612 0.44618
 H533 H 0.81502 0.85129 0.45084
 H534 H 0.74846 0.81367 0.52350
 H535 H 0.79659 0.79405 0.55789
 H536 H 0.86377 0.83224 0.48300
 H537 H 0.69359 0.88650 0.43249
 H538 H 0.63912 0.86401 0.40239
 H539 H 0.65824 0.75815 0.42727
 H540 H 0.71329 0.78339 0.45682
 C541 C 0.71931 0.91840 0.56784
 C542 C 0.79580 0.92367 0.38236
 C543 C 0.64390 0.80913 0.41233
 C544 C 0.83432 0.81200 0.52335
 C545 C -0.02976 0.28223 0.39707
 H546 H -0.01604 0.26415 0.41136
 C547 C -0.05224 0.30196 0.41342
 H548 H -0.05530 0.29897 0.44015
 C549 C -0.04353 0.30715 0.34492
 H550 H -0.04010 0.30884 0.31812
 C551 C -0.06665 0.32721 0.36028
 H552 H -0.08058 0.34458 0.34519
 N553 N -0.02564 0.28513 0.36342
 C554 C 0.02406 0.19790 0.37989
 H555 H 0.00595 0.18138 0.36280
 C556 C 0.04391 0.18235 0.40424
 H557 H 0.04149 0.15386 0.40544
 C558 C 0.04983 0.25505 0.39941
 H559 H 0.05234 0.28335 0.39689
 C560 C 0.06934 0.24069 0.42475
 H561 H 0.08718 0.25792 0.44167
 Zn562 Zn 0.00489 0.25631 0.34293
 N563 N 0.02796 0.23361 0.37745
 C564 C 0.03963 0.31989 0.32041
 N565 N 0.03910 0.28415 0.32153
 C566 C 0.06470 0.26701 0.30942
 C567 C 0.09171 0.28559 0.29485
 C568 C 0.06626 0.33959 0.30601
 C569 C -0.05327 0.22408 0.30251
 C570 C -0.07154 0.19936 0.27906
 C571 C -0.02093 0.16959 0.27434
 C572 C -0.00331 0.19549 0.29711
 N573 N -0.01961 0.22203 0.31092
 H574 H 0.01983 0.33339 0.33118
 H575 H 0.06471 0.23893 0.31185
 H576 H 0.11179 0.27128 0.28551
 H577 H 0.06596 0.36791 0.30547
 H578 H -0.06616 0.24481 0.31389
 H579 H -0.09822 0.20146 0.27238
 H580 H -0.00768 0.14858 0.26371
 H581 H 0.02321 0.19376 0.30435
 C582 C 0.06697 0.20393 0.42678
 C583 C -0.07124 0.32459 0.39502
 C584 C -0.05538 0.17162 0.26496
 C585 C 0.09282 0.32239 0.29293
 C586 C 1.04217 0.76529 0.07352
 H587 H 1.02031 0.74991 0.06027
 C588 C 1.06720 0.78273 0.05515
 H589 H 1.06419 0.78105 0.02769
 C590 C 1.07364 0.78489 0.12535
 H591 H 1.07629 0.78477 0.15274
 C592 C 1.09904 0.80278 0.10811
 H593 H 1.12109 0.81631 0.12267
 N594 N 1.04603 0.76657 0.10799
 C595 C 0.97550 0.67728 0.11304
 H596 H 0.99422 0.66449 0.12761
 C597 C 0.94511 0.65764 0.10084
 H598 H 0.94104 0.62986 0.10577
 C599 C 0.95641 0.72943 0.09176
 H600 H 0.96049 0.75777 0.08970
 C601 C 0.92552 0.71062 0.07894
 H602 H 0.90596 0.72471 0.06707
 Zn603 Zn 1.01693 0.73971 0.13500
 N604 N 0.98026 0.71271 0.10917
 C605 C 1.00122 0.80566 0.16265
 N606 N 0.99734 0.77005 0.16580
 C607 C 0.97603 0.75526 0.18795
 C608 C 0.95750 0.77651 0.20796
 C609 C 0.98300 0.82787 0.18200
 C610 C 1.06161 0.68983 0.13446
 C611 C 1.08200 0.66457 0.14572
 C612 C 1.06778 0.67827 0.20304
 C613 C 1.04756 0.70365 0.19057
 N614 N 1.04447 0.70840 0.15666
 H615 H 1.01750 0.81687 0.14422
 H616 H 0.97264 0.72681 0.18928
 H617 H 0.94025 0.76419 0.22507
 H618 H 0.98634 0.85603 0.17886
 H619 H 1.05882 0.69427 0.10767
 H620 H 1.09489 0.64984 0.12729
 H621 H 1.06944 0.67439 0.22995
 H622 H 1.03404 0.71904 0.20786
 C623 C 0.91922 0.67445 0.08459
 C624 C 1.09625 0.80153 0.07249
 C625 C 1.08504 0.65803 0.18031
 C626 C 0.96038 0.81327 0.20470
 C627 C 0.58643 0.30304 0.60125
 H628 H 0.59229 0.29732 0.62737
 C629 C 0.61129 0.32074 0.58324
 H630 H 0.63624 0.32799 0.59589
 C631 C 0.54641 0.29976 0.55360
 H632 H 0.52116 0.29131 0.54213
 C633 C 0.57063 0.31751 0.53453
 H634 H 0.56367 0.32277 0.50849
 N635 N 0.55456 0.29360 0.58657
 C636 C 0.46888 0.22081 0.59548
 H637 H 0.48373 0.20347 0.60955
 C638 C 0.43640 0.20797 0.58165
 H639 H 0.42698 0.18066 0.58457
 C640 C 0.46229 0.27768 0.57587
 H641 H 0.47222 0.30512 0.57468
 C642 C 0.42974 0.26572 0.56114
 H643 H 0.41473 0.28395 0.54834
 Zn644 Zn 0.52355 0.27224 0.61565
 N645 N 0.48119 0.25514 0.59247
 C646 C 0.52891 0.34009 0.64880
 N647 N 0.51491 0.30603 0.64984
 C648 C 0.49206 0.29666 0.67284
 C649 C 0.48190 0.32224 0.69559
 C650 C 0.51952 0.36640 0.67097
 C651 C 0.55337 0.21047 0.61009
 C652 C 0.56664 0.17981 0.61983
 C653 C 0.56094 0.19809 0.67844
 C654 C 0.54772 0.22865 0.66748
 N655 N 0.54365 0.23380 0.63374
 H656 H 0.54634 0.34734 0.62986
 H657 H 0.48076 0.26952 0.67266
 H658 H 0.46280 0.31435 0.71280
 H659 H 0.53032 0.39348 0.66910
 H660 H 0.55002 0.21544 0.58345
 H661 H 0.57365 0.16136 0.60043
 H662 H 0.56330 0.19410 0.70531
 H663 H 0.54021 0.24782 0.68587
 C664 C 0.41632 0.23061 0.56451
 C665 C 0.60345 0.32871 0.54949
 C666 C 0.57018 0.17294 0.65433
 C667 C 0.49524 0.35783 0.69430
 C668 C 0.45147 0.77326 0.90237
 H669 H 0.45926 0.74747 0.90729
 C670 C 0.42764 0.78739 0.92197
 H671 H 0.41733 0.77239 0.94215
 C672 C 0.45449 0.82328 0.86898
 H673 H 0.46450 0.83669 0.84777
 C674 C 0.43031 0.83830 0.88780
 H675 H 0.42250 0.86366 0.88132
 N676 N 0.46439 0.79124 0.87652
 C677 C 0.55337 0.73661 0.85929
 H678 H 0.54752 0.72758 0.83296
 C679 C 0.58416 0.73030 0.87590
 H680 H 0.60149 0.71598 0.86199
 C681 C 0.53793 0.76760 0.90847
 H682 H 0.52033 0.78309 0.92071
 C683 C 0.56845 0.76188 0.92608
 H684 H 0.57368 0.77246 0.95205
 Zn685 Zn 0.49264 0.76646 0.84945
 N686 N 0.53099 0.75490 0.87570
 C687 C 0.52968 0.82458 0.82521
 N688 N 0.51015 0.79393 0.81491
 C689 C 0.50775 0.78122 0.78197
 C690 C 0.52614 0.79930 0.75801
 C691 C 0.54821 0.84361 0.80211
 C692 C 0.43589 0.73150 0.81341
 C693 C 0.41104 0.70360 0.80342
 C694 C 0.44681 0.66344 0.82975
 C695 C 0.47100 0.69229 0.83951
 N696 N 0.46499 0.72551 0.83138
 H697 H 0.53189 0.83350 0.85177
 H698 H 0.49285 0.75626 0.77455
 H699 H 0.52469 0.78842 0.73205
 H700 H 0.56440 0.86727 0.81126
 H701 H 0.43151 0.75828 0.80790
 H702 H 0.38777 0.70905 0.78965
 H703 H 0.45155 0.63734 0.83718
 H704 H 0.49385 0.68828 0.85471
 C705 C 0.59219 0.74322 0.90976
 C706 C 0.41634 0.82004 0.91449
 C707 C 0.41609 0.66908 0.81192
 C708 C 0.54705 0.83070 0.76806
 N709 N 0.36483 -0.14574 0.40107
 N710 N 0.37079 -0.17677 0.41239
 C711 C 0.38594 -0.19394 0.38787
 C712 C 0.38900 -0.17233 0.36091
 N713 N 0.37545 -0.14252 0.37024
 H714 H 0.39987 -0.17773 0.33703
 N715 N 0.96374 0.41089 0.83928
 N716 N 0.97215 0.38116 0.85202
 C717 C 0.94299 0.36241 0.85947
 C718 C 0.91643 0.38202 0.85089
 N719 N 0.93034 0.41202 0.83833
 H720 H 0.88956 0.37464 0.85261
 N721 N 0.02037 1.13173 0.82489
 N722 N 0.00847 1.15877 0.84099
 C723 C 0.03533 1.17837 0.85794
 C724 C 0.06422 1.16209 0.85156
 N725 N 0.05386 1.13327 0.83069
 H726 H 0.09026 1.17060 0.86069
 N727 N 0.50319 0.58800 0.31895
 N728 N 0.49025 0.61485 0.33424
 C729 C 0.51514 0.64209 0.33822
 C730 C 0.54383 0.63087 0.32474
 N731 N 0.53539 0.59697 0.31298
 H732 H 0.56800 0.64633 0.32264
 N733 N 0.59789 0.36196 0.12397
 N734 N 0.59417 0.32784 0.11442
 C735 C 0.57465 0.31148 0.13676
 C736 C 0.56656 0.33671 0.16044
 N737 N 0.58167 0.36794 0.15162
 H738 H 0.55230 0.33242 0.18254
 N739 N 0.12874 0.86822 0.69004
 N740 N 0.11718 0.83744 0.67434
 C741 C 0.08282 0.83521 0.67256
 C742 C 0.07370 0.86642 0.68759
 N743 N 0.10320 0.88603 0.69829
 H744 H 0.04849 0.87351 0.69195
 N745 N 0.86802 0.64346 0.65672
 N746 N 0.87330 0.67452 0.64337
 C747 C 0.90011 0.69279 0.66153
 C748 C 0.91107 0.67172 0.68675
 N749 N 0.89044 0.64118 0.68267
 H750 H 0.93246 0.67741 0.70543
 N751 N 0.47421 0.09837 0.24960
 N752 N 0.48590 0.12174 0.22833
 C753 C 0.45875 0.13613 0.21459
 C754 C 0.43005 0.12098 0.22847
 N755 N 0.44075 0.09769 0.25022
 H756 H 0.40382 0.12557 0.22261
 N757 N 0.40473 0.36654 -0.10727
 N758 N 0.41600 0.37805 -0.13588
 C759 C 0.39578 0.40241 -0.14640
 C760 C 0.37164 0.40551 -0.12282
 N761 N 0.37806 0.38256 -0.09886
 H762 H 0.35073 0.42168 -0.12375
 N763 N 0.81216 0.97409 0.34855
 N764 N 0.82986 0.98111 0.32191
 C765 C 0.84314 0.95112 0.31226
 C766 C 0.83285 0.92553 0.33406
 N767 N 0.81348 0.94074 0.35606
 H768 H 0.83834 0.89829 0.33386
 N769 N 0.81940 -0.01245 1.07859
 N770 N 0.83572 -0.01821 1.10788
 C771 C 0.85300 0.01291 1.11991
 C772 C 0.84712 0.03770 1.09643
 N773 N 0.82609 0.02099 1.07124
 H774 H 0.85515 0.06579 1.09829
 N775 N 0.27146 0.48091 0.65372
 N776 N 0.28885 0.47428 0.68219
 C777 C 0.29904 0.50581 0.69897
 C778 C 0.28750 0.53180 0.67963
 N779 N 0.27028 0.51543 0.65175
 H780 H 0.29264 0.56006 0.68466
 N781 N 0.12414 0.58030 0.38485
 N782 N 0.11970 0.57897 0.35131
 C783 C 0.14335 0.55947 0.33938
 C784 C 0.16249 0.54883 0.36682
 N785 N 0.14970 0.56242 0.39479
 H786 H 0.18401 0.53349 0.36633
 N787 N 0.62818 0.10465 0.85583
 N788 N 0.61734 0.10058 0.82336
 C789 C 0.62973 0.07139 0.81049
 C790 C 0.64852 0.05757 0.83650
 N791 N 0.64711 0.07928 0.86428
 H792 H 0.66325 0.03520 0.83501
 N793 N 0.73012 0.96108 0.61657
 N794 N 0.71704 0.96907 0.64560
 C795 C 0.69006 0.94492 0.64836
 C796 C 0.68688 0.92195 0.61990
 N797 N 0.71226 0.93304 0.60059
 H798 H 0.66759 0.89988 0.61366
 N799 N 0.26104 0.46118 0.13710
 N800 N 0.24722 0.47305 0.16457
 C801 C 0.23047 0.44475 0.17766
 C802 C 0.23451 0.41528 0.15719
 N803 N 0.25356 0.42648 0.13208
 H804 H 0.22379 0.38843 0.15995
 N805 N -0.09521 0.34887 0.44521
 N806 N -0.12168 0.36518 0.45360
 C807 C -0.13932 0.37094 0.42441
 C808 C -0.12259 0.35766 0.39773
 N809 N -0.09523 0.34406 0.41182
 H810 H -0.13050 0.35634 0.37095
 N811 N 0.38107 0.82140 0.96264
 N812 N 0.35460 0.83653 0.97291
 C813 C 0.34625 0.85913 0.94929
 C814 C 0.36894 0.85741 0.92415
 N815 N 0.39015 0.83352 0.93345
 H816 H 0.36913 0.87089 0.90076
 N817 N 1.12720 0.80983 0.02153
 N818 N 1.15540 0.82730 0.01208
 C819 C 1.17019 0.84698 0.03956
 C820 C 1.14981 0.84096 0.06620
 N821 N 1.12336 0.81758 0.05398
 H822 H 1.15381 0.85233 0.09193
 N823 N 0.62508 0.35181 0.49744
 N824 N 0.65294 0.36928 0.48715
 C825 C 0.67481 0.37691 0.51484
 C826 C 0.65942 0.36335 0.54232
 N827 N 0.62851 0.34776 0.53052
 H828 H 0.67023 0.36395 0.56816
 N829 N 0.36568 0.23077 0.52547
 N830 N 0.33425 0.21465 0.52070
 C831 C 0.33056 0.19136 0.54515
 C832 C 0.36082 0.19360 0.56490
 N833 N 0.38206 0.21837 0.55181
 H834 H 0.36670 0.17913 0.58699
 N835 N 0.87374 0.63152 0.09903
 N836 N 0.84078 0.62261 0.09180
 C837 C 0.83108 0.64197 0.06594
 C838 C 0.85960 0.66316 0.05747
 N839 N 0.88558 0.65596 0.07896
 H840 H 0.86095 0.68321 0.03904
 N841 N 0.63339 0.74978 0.95922
 N842 N 0.66328 0.73950 0.96919
 C843 C 0.67356 0.72063 0.94269
 C844 C 0.64885 0.71951 0.91625
 N845 N 0.62412 0.73793 0.92752
 H846 H 0.64838 0.70522 0.89187
 N847 N 0.10055 0.20291 0.48055
 N848 N 0.12604 0.18657 0.49332
 C849 C 0.13183 0.16127 0.46982
 C850 C 0.10865 0.16243 0.44231
 N851 N 0.08974 0.18869 0.45001
 H852 H 0.10748 0.14801 0.41789
 N853 N 0.58812 0.11473 0.64168
 N854 N 0.59870 0.08757 0.65729
 C855 C 0.59965 0.09586 0.69091
 C856 C 0.58924 0.12933 0.69537
 N857 N 0.58228 0.14019 0.66397
 H858 H 0.58715 0.14423 0.71902
 N859 N 1.11925 0.60963 0.16972
 N860 N 1.13401 0.58507 0.18582
 C861 C 1.12884 0.58995 0.21902
 C862 C 1.11026 0.61883 0.22264
 N863 N 1.10471 0.63021 0.19117
 H864 H 1.10097 0.62976 0.24558
 N865 N 0.92354 0.82432 0.25026
 N866 N 0.90610 0.84943 0.26237
 C867 C 0.91131 0.87733 0.24295
 C868 C 0.93284 0.86837 0.21845
 N869 N 0.93991 0.83508 0.22393
 H870 H 0.94201 0.88430 0.19844
 N871 N 0.48654 0.41941 0.70679
 N872 N 0.46882 0.43869 0.72641
 C873 C 0.45297 0.41641 0.74712
 C874 C 0.46149 0.38278 0.73955
 N875 N 0.48239 0.38571 0.71407
 H876 H 0.45200 0.35857 0.75049
 N877 N 0.35770 0.64567 0.79387
 N878 N 0.33946 0.61519 0.78458
 C879 C 0.36038 0.58963 0.78834
 C880 C 0.39226 0.60558 0.80023
 N881 N 0.38954 0.64063 0.80317
 H882 H 0.41553 0.59316 0.80384
 N883 N -0.09687 0.15425 0.21730
 N884 N -0.10980 0.12548 0.19872
 C885 C -0.09454 0.09816 0.21092
 C886 C -0.07161 0.11118 0.23760
 N887 N -0.07386 0.14625 0.24067
 H888 H -0.05531 0.09666 0.25348
 N889 N 0.14569 0.32627 0.26414
 N890 N 0.16742 0.35010 0.25155
 C891 C 0.15620 0.38191 0.25772
 C892 C 0.12667 0.37669 0.27447
 N893 N 0.12090 0.34157 0.27797
 H894 H 0.11062 0.39644 0.28240
 N895 N 0.57663 0.83274 0.71568
 N896 N 0.59757 0.85478 0.69993
 C897 C 0.60267 0.88539 0.71925
 C898 C 0.58406 0.88128 0.74741
 N899 N 0.56821 0.84810 0.74430
 H900 H 0.58233 0.90053 0.76813
 N901 N 0.65906 0.60546 0.09734
 N902 N 0.67645 0.61859 0.07260
 C903 C 0.70973 0.61630 0.08112
 C904 C 0.71202 0.60130 0.11226
 N905 N 0.67985 0.59493 0.12150
 H906 H 0.73472 0.59543 0.12663
 N907 N 0.26712 1.09541 0.66634
 N908 N 0.28177 1.11046 0.64081
 C909 C 0.25651 1.12018 0.61986
 C910 C 0.22584 1.11088 0.63355
 N911 N 0.23365 1.09553 0.66246
 H912 H 0.20039 1.11407 0.62319
 N913 N 0.28269 0.98333 0.86195
 N914 N 0.29869 0.96215 0.88153
 C915 C 0.27583 0.94835 0.90232
 C916 C 0.24534 0.96189 0.89491
 N917 N 0.25058 0.98360 0.86954
 H918 H 0.22153 0.95561 0.90627
 N919 N 0.76156 0.43060 0.30510
 N920 N 0.78138 0.41775 0.32864
 C921 C 0.76748 0.42284 0.35851
 C922 C 0.73834 0.43942 0.35238
 N923 N 0.73557 0.44382 0.31874
 H924 H 0.72073 0.44706 0.37047
 N925 N 0.82940 0.42583 0.61311
 N926 N 0.81888 0.41761 0.58097
 C927 C 0.78565 0.42272 0.57761
 C928 C 0.77606 0.43434 0.60894
 N929 N 0.80418 0.43593 0.63041
 H930 H 0.75130 0.44124 0.61534
 N931 N 0.28704 -0.01884 0.12517
 N932 N 0.27421 -0.03062 0.09452
 C933 C 0.25798 -0.06303 0.09763
 C934 C 0.26122 -0.07084 0.13137
 N935 N 0.27982 -0.04255 0.14770
 H936 H 0.25307 -0.09552 0.14227
 N937 N 0.19901 0.04705 0.36874
 N938 N 0.18282 0.06524 0.39085
 C939 C 0.20631 0.07906 0.41555
 C940 C 0.23744 0.06873 0.40775
 N941 N 0.23191 0.04883 0.37833
 H942 H 0.26175 0.07581 0.42179
 N943 N 0.75567 0.64018 0.82912
 N944 N 0.74353 0.66102 0.85211
 C945 C 0.75300 0.64995 0.88281
 C946 C 0.77139 0.62131 0.87775
 N947 N 0.77240 0.61599 0.84382
 H948 H 0.78229 0.60567 0.89686
 N949 N 0.07835 0.65642 0.61387
 N950 N 0.05751 0.67787 0.62649
 C951 C 0.07335 0.71097 0.62676
 C952 C 0.10476 0.70912 0.61376
 N953 N 0.10684 0.67453 0.60592
 H954 H 0.12378 0.73079 0.60991
 N955 N 0.63391 0.14176 1.11486
 N956 N 0.60962 0.15642 1.13007
 C957 C 0.60956 0.18946 1.11938
 C958 C 0.63492 0.19462 1.09707
 N959 N 0.64946 0.16409 1.09485
 H960 H 0.64068 0.21745 1.08247
 N961 N 0.81923 0.24633 0.89512
 N962 N 0.84426 0.26637 0.88275
 C963 C 0.87351 0.25969 0.89951
 C964 C 0.86551 0.23496 0.92299
 N965 N 0.83135 0.22746 0.91943
 H966 H 0.88269 0.22338 0.94059
 N967 N 0.36712 0.65004 0.47751
 N968 N 0.38951 0.66487 0.45773
 C969 C 0.37480 0.69096 0.44261
 C970 C 0.34248 0.69161 0.45386
 N971 N 0.33868 0.66564 0.47561
 H972 H 0.32367 0.70914 0.44688
 N973 N 0.58884 0.81845 0.38524
 N974 N 0.55936 0.80077 0.37412
 C975 C 0.56249 0.76629 0.37790
 C976 C 0.59506 0.76337 0.39186
 N977 N 0.61069 0.79671 0.39624
 H978 H 0.60551 0.73957 0.39943
 N979 N 0.12248 0.32786 -0.04626
 N980 N 0.09134 0.31719 -0.05951
 C981 C 0.09109 0.28312 -0.07084
 C982 C 0.12351 0.27318 -0.06384
 N983 N 0.14228 0.30196 -0.04852
 H984 H 0.13267 0.24793 -0.06975
 N985 N 0.35415 0.19053 0.09355
 N986 N 0.37611 0.17576 0.11367
 C987 C 0.40217 0.20087 0.12302
 C988 C 0.39540 0.23155 0.10800
 N989 N 0.36524 0.22405 0.08990
 H990 H 0.41086 0.25684 0.11007
 N991 N 0.89453 0.82393 0.54183
 N992 N 0.91676 0.81576 0.56586
 C993 C 0.89973 0.79328 0.58561
 C994 C 0.86603 0.78790 0.57267
 N995 N 0.86391 0.80745 0.54529
 H996 H 0.84530 0.77110 0.58184
   
