data_POSCAR
  _audit_creation_date              2014-09-24
  _audit_creation_method            'ToBaCCo'
  _symmetry_space_group_name_H-M    'P1'
  _symmetry_Int_Tables_number       1
  _symmetry_cell_setting            triclinic
  loop_
  _symmetry_equiv_pos_as_xyz
 x,y,z
_cell_length_a 22.7335
_cell_length_b 22.5011
_cell_length_c 23.4157
_cell_angle_alpha 89.421200
_cell_angle_beta 93.234500
_cell_angle_gamma 94.158700
loop_
  _atom_site_label
  _atom_site_type_symbol
  _atom_site_fract_x
  _atom_site_fract_y
  _atom_site_fract_z
C1 C 0.00985 0.45565 0.21542
 C2 C 0.06375 0.46114 0.25721
 C3 C 0.06639 0.50676 0.29501
 C4 C 0.01294 0.54543 0.28666
 C5 C -0.04239 0.45363 0.25459
 C6 C -0.04116 0.50055 0.29148
 C7 C 0.00966 0.51612 0.18607
 C8 C 0.01005 0.56308 0.22255
 H9 H 0.09584 0.42773 0.25967
 H10 H 0.01414 0.58352 0.31660
 H11 H -0.07505 0.41636 0.25662
 H12 H 0.00069 0.52065 0.14034
 C13 C 0.03928 0.46679 0.79586
 C14 C -0.00040 0.44495 0.74821
 C15 C -0.01246 0.48841 0.70456
 C16 C 0.02274 0.54462 0.71454
 C17 C 0.09334 0.48713 0.76824
 C18 C 0.08477 0.52916 0.72262
 C19 C 0.01571 0.52084 0.81532
 C20 C 0.00687 0.56362 0.77080
 H21 H -0.02479 0.40184 0.74941
 H22 H 0.01618 0.57850 0.68029
 H23 H 0.13217 0.46196 0.76947
 H24 H 0.00798 0.52938 0.85968
 C25 C 0.18964 -0.03670 0.45033
 C26 C 0.23023 0.02062 0.45293
 C27 C 0.26881 0.02606 0.49919
 C28 C 0.26471 -0.02861 0.53971
 C29 C 0.23152 -0.08724 0.45484
 C30 C 0.27051 -0.08366 0.50132
 C31 C 0.16063 -0.03919 0.50816
 C32 C 0.19939 -0.03389 0.55504
 H33 H 0.22952 0.05406 0.41924
 H34 H 0.29677 -0.02523 0.57732
 H35 H 0.23043 -0.12341 0.42465
 H36 H 0.11340 -0.03821 0.51165
 C37 C 0.78076 0.00413 0.42254
 C38 C 0.76740 -0.05444 0.44750
 C39 C 0.73822 -0.05431 0.49990
 C40 C 0.72666 0.00619 0.51675
 C41 C 0.72071 0.02928 0.41496
 C42 C 0.69315 0.03274 0.46460
 C43 C 0.81473 0.04131 0.46983
 C44 C 0.78746 0.04084 0.52030
 H45 H 0.76935 -0.09453 0.42281
 H46 H 0.70439 0.01074 0.55706
 H47 H 0.70321 0.04759 0.37519
 H48 H 0.86142 0.05438 0.46769
 C49 C 0.44494 0.24402 1.00134
 C50 C 0.45433 0.27713 1.05417
 C51 C 0.51028 0.31143 1.05858
 C52 C 0.54584 0.30633 1.00810
 C53 C 0.45091 0.28856 0.95674
 C54 C 0.50593 0.32371 0.95986
 C55 C 0.49648 0.20906 1.00037
 C56 C 0.55214 0.24247 1.00012
 H57 H 0.42616 0.27065 1.08985
 H58 H 0.58842 0.33375 1.01166
 H59 H 0.41898 0.29029 0.92065
 H60 H 0.49398 0.16097 1.00539
 C61 C 0.40294 0.75532 1.00775
 C62 C 0.40559 0.71333 0.95716
 C63 C 0.45823 0.68708 0.95609
 C64 C 0.50202 0.70453 1.00841
 C65 C 0.41420 0.71640 1.06005
 C66 C 0.46677 0.69126 1.06315
 C67 C 0.45517 0.79613 1.00386
 C68 C 0.50972 0.76920 1.00594
 H69 H 0.37100 0.70831 0.92361
 H70 H 0.54458 0.68381 1.00878
 H71 H 0.38191 0.71068 1.09211
 H72 H 0.45269 0.84334 0.99503
 B73 B 0.98481 1.06588 0.02308
 B74 B 0.98837 1.06909 -0.05030
 B75 B 1.04561 1.04101 -0.00967
 B76 B 1.01468 1.00154 0.04858
 B77 B 0.93949 1.00331 0.04044
 B78 B 0.92199 1.04657 -0.02138
 B79 B 0.97420 0.94441 -0.05417
 B80 B 0.97244 0.94056 0.01777
 B81 B 0.91277 0.96877 -0.02170
 B82 B 0.94455 1.00896 -0.07942
 B83 B 1.01996 1.00583 -0.07221
 B84 B 1.03727 0.96434 -0.00995
 B85 B 0.58670 0.49039 0.48550
 B86 B 0.53101 0.53271 0.45575
 B87 B 0.52406 0.45723 0.44903
 B88 B 0.54983 0.42353 0.51136
 B89 B 0.57785 0.48158 0.55654
 B90 B 0.56405 0.54930 0.52403
 B91 B 0.45433 0.48700 0.53924
 B92 B 0.50944 0.44431 0.56789
 B93 B 0.51770 0.52008 0.57470
 B94 B 0.48817 0.55175 0.51112
 B95 B 0.46318 0.49461 0.46567
 B96 B 0.47546 0.42816 0.50028
 C97 C 0.97574 1.30729 0.13516
 C98 C 1.03282 1.29493 0.12688
 C99 C 1.08061 1.33624 0.13476
 C100 C 1.06978 1.39198 0.15565
 C101 C 1.01324 1.40324 0.17470
 C102 C 0.96448 1.36134 0.16065
 O103 O 0.93674 1.26208 0.12010
 C104 C 0.97075 1.22055 0.10282
 C105 C 1.02956 1.23803 0.10912
 C106 C 1.07252 1.19822 0.10637
 C107 C 1.05416 1.14086 0.08736
 C108 C 0.99660 1.12690 0.06221
 C109 C 0.95295 1.16371 0.08063
 H110 H 1.12467 1.32603 0.12474
 H111 H 1.10688 1.42473 0.16162
 H112 H 0.91996 1.36920 0.17093
 H113 H 1.11813 1.21008 0.11995
 H114 H 1.08657 1.10816 0.09003
 H115 H 0.90759 1.14826 0.08129
 C116 C 1.00662 0.71710 0.15992
 C117 C 0.95097 0.71236 0.13323
 C118 C 0.91091 0.66370 0.14034
 C119 C 0.92967 0.61685 0.17487
 C120 C 0.98788 0.61903 0.20037
 C121 C 1.02653 0.67047 0.19414
 O122 O 1.03805 0.76655 0.14552
 C123 C 1.00140 0.79305 0.10884
 C124 C 0.94824 0.76135 0.09949
 C125 C 0.90692 0.77746 0.05782
 C126 C 0.91947 0.83081 0.02826
 C127 C 0.96902 0.87041 0.04230
 C128 C 1.01303 0.84690 0.08012
 H129 H 0.86747 0.66110 0.11869
 H130 H 0.90019 0.57719 0.17909
 H131 H 1.07161 0.67232 0.21198
 H132 H 0.86776 0.74880 0.04653
 H133 H 0.89311 0.83852 -0.00828
 H134 H 1.05480 0.86905 0.08837
 C135 C 0.99912 1.33279 -0.11433
 C136 C 1.05454 1.31396 -0.10361
 C137 C 1.10603 1.34899 -0.11211
 C138 C 1.10072 1.40457 -0.13784
 C139 C 1.04453 1.42194 -0.15911
 C140 C 0.99276 1.38815 -0.14095
 O141 O 0.95646 1.28971 -0.10676
 C142 C 0.98634 1.24238 -0.09245
 C143 C 1.04618 1.25547 -0.09217
 C144 C 1.08506 1.21226 -0.09621
 C145 C 1.06243 1.15361 -0.09309
 C146 C 1.00366 1.13698 -0.07754
 C147 C 0.96354 1.18286 -0.08431
 H148 H 1.14909 1.33299 -0.10143
 H149 H 1.14113 1.43155 -0.14408
 H150 H 0.94889 1.40080 -0.15389
 H151 H 1.13087 1.22303 -0.10507
 H152 H 1.09321 1.12187 -0.10237
 H153 H 0.91680 1.17299 -0.08731
 C154 C 1.00897 0.71585 -0.17500
 C155 C 0.94964 0.72480 -0.18005
 C156 C 0.90761 0.68300 -0.20401
 C157 C 0.92755 0.62925 -0.22249
 C158 C 0.98852 0.61943 -0.21787
 C159 C 1.02974 0.66322 -0.19369
 O160 O 1.04118 0.76000 -0.14885
 C161 C 1.00118 0.79713 -0.13640
 C162 C 0.94483 0.77791 -0.15461
 C163 C 0.89739 0.81188 -0.14808
 C164 C 0.90879 0.86564 -0.11837
 C165 C 0.96490 0.88290 -0.09141
 C166 C 1.01217 0.85069 -0.10747
 H167 H 0.86104 0.69050 -0.20627
 H168 H 0.89535 0.59449 -0.23788
 H169 H 1.07626 0.65568 -0.18793
 H170 H 0.85394 0.79897 -0.16718
 H171 H 0.87529 0.89713 -0.12150
 H172 H 1.05656 0.86752 -0.10124
 C173 C 1.12370 0.95424 0.29474
 C174 C 1.08247 0.99552 0.29732
 C175 C 1.06981 1.02227 0.34789
 C176 C 1.10227 1.00729 0.39796
 C177 C 1.14679 0.96593 0.39743
 C178 C 1.15704 0.93863 0.34439
 O179 O 1.12958 0.93590 0.24143
 C180 C 1.09147 0.96692 0.20999
 C181 C 1.06264 1.00412 0.24231
 C182 C 1.02384 1.04241 0.21852
 C183 C 1.01319 1.04148 0.15920
 C184 C 1.03973 1.00275 0.12066
 C185 C 1.08030 0.96455 0.15020
 H186 H 1.03744 1.05521 0.34848
 H187 H 1.09497 1.03081 0.43674
 H188 H 1.19203 0.90915 0.34065
 H189 H 1.00127 1.07175 0.24487
 H190 H 0.97958 1.06974 0.14573
 H191 H 1.10457 0.93269 0.13093
 C192 C 1.15517 0.97304 -0.29049
 C193 C 1.12588 1.02425 -0.29460
 C194 C 1.12262 1.05930 -0.34362
 C195 C 1.14982 1.04039 -0.39145
 C196 C 1.17889 0.98678 -0.39009
 C197 C 1.18282 0.95290 -0.33845
 O198 O 1.15000 0.94600 -0.23958
 C199 C 1.11614 0.98099 -0.21173
 C200 C 1.10053 1.02870 -0.24430
 C201 C 1.06152 1.06783 -0.22760
 C202 C 1.03766 1.05821 -0.17481
 C203 C 1.05456 1.01248 -0.13505
 C204 C 1.09449 0.97211 -0.15651
 H205 H 1.09885 1.09931 -0.34535
 H206 H 1.14679 1.06662 -0.43044
 H207 H 1.20411 0.91138 -0.33665
 H208 H 1.04707 1.10302 -0.25576
 H209 H 1.00284 1.08623 -0.16767
 H210 H 1.11040 0.93590 -0.13153
 C211 C 0.82991 1.02653 0.26998
 C212 C 0.86202 0.97766 0.26835
 C213 C 0.87891 0.94439 0.31564
 C214 C 0.85692 0.95870 0.36715
 C215 C 0.81499 1.00222 0.36932
 C216 C 0.80492 1.04013 0.32094
 O217 O 0.82564 1.05499 0.21958
 C218 C 0.85502 1.02166 0.18571
 C219 C 0.87524 0.97325 0.21428
 C220 C 0.90595 0.93155 0.19042
 C221 C 0.92120 0.94194 0.13545
 C222 C 0.90582 0.99240 0.10179
 C223 C 0.87000 1.03299 0.12867
 H224 H 0.90787 0.90852 0.31298
 H225 H 0.86948 0.93296 0.40465
 H226 H 0.77766 1.07743 0.32216
 H227 H 0.92273 0.89478 0.21508
 H228 H 0.95578 0.91615 0.12711
 H229 H 0.85560 1.07232 0.10738
 C230 C 0.84185 1.05736 -0.32389
 C231 C 0.87872 1.01190 -0.32260
 C232 C 0.89247 0.98052 -0.36997
 C233 C 0.86504 0.99479 -0.42198
 C234 C 0.82372 1.03895 -0.42571
 C235 C 0.81195 1.07148 -0.37608
 O236 O 0.83740 1.08088 -0.27190
 C237 C 0.87148 1.04786 -0.23761
 C238 C 0.89561 1.00495 -0.26778
 C239 C 0.93058 0.96408 -0.24396
 C240 C 0.94229 0.96690 -0.18605
 C241 C 0.91914 1.00879 -0.14881
 C242 C 0.88500 1.05295 -0.17766
 H243 H 0.92225 0.94508 -0.36683
 H244 H 0.87332 0.96868 -0.45895
 H245 H 0.77959 1.10454 -0.37793
 H246 H 0.95069 0.93205 -0.26952
 H247 H 0.97669 0.93926 -0.17390
 H248 H 0.87190 1.09136 -0.15583
 C249 C 1.28527 1.18659 0.00144
 C250 C 1.28811 1.13653 -0.03083
 C251 C 1.33796 1.12167 -0.05656
 C252 C 1.38855 1.15902 -0.04687
 C253 C 1.39023 1.20792 -0.00800
 C254 C 1.33629 1.22354 0.01410
 O255 O 1.23117 1.19305 0.01835
 C256 C 1.20053 1.14458 -0.00240
 C257 C 1.23398 1.10927 -0.03211
 C258 C 1.21256 1.05686 -0.05680
 C259 C 1.15453 1.03830 -0.04790
 C260 C 1.11592 1.07076 -0.01541
 C261 C 1.14055 1.12853 0.00256
 H262 H 1.33764 1.08330 -0.08412
 H263 H 1.42669 1.14917 -0.06981
 H264 H 1.33389 1.26285 0.03985
 H265 H 1.24022 1.02953 -0.08010
 H266 H 1.14241 0.99509 -0.06349
 H267 H 1.11439 1.16409 0.01224
 C268 C 0.70796 1.19834 -0.01604
 C269 C 0.69472 1.14928 -0.05001
 C270 C 0.63824 1.13174 -0.07095
 C271 C 0.59243 1.16468 -0.05490
 C272 C 0.60255 1.21508 -0.01806
 C273 C 0.66228 1.23366 -0.00027
 O274 O 0.76534 1.20393 0.00108
 C275 C 0.78759 1.15676 -0.02216
 C276 C 0.74585 1.12293 -0.05396
 C277 C 0.75797 1.07197 -0.08174
 C278 C 0.81474 1.05268 -0.07374
 C279 C 0.86019 1.08248 -0.03715
 C280 C 0.84590 1.13880 -0.01530
 H281 H 0.62939 1.09290 -0.09784
 H282 H 0.54861 1.15052 -0.07234
 H283 H 0.67244 1.27134 0.02781
 H284 H 0.72422 1.04646 -0.10746
 H285 H 0.82125 1.01148 -0.09467
 H286 H 0.87888 1.17108 0.00112
 C287 C 1.24579 0.80893 0.00254
 C288 C 1.25751 0.85782 0.03691
 C289 C 1.31117 0.87267 0.06528
 C290 C 1.35630 0.83652 0.05646
 C291 C 1.34889 0.78908 0.01619
 C292 C 1.29175 0.77340 -0.00967
 O293 O 1.18964 0.80352 -0.01797
 C294 C 1.16716 0.85162 0.00259
 C295 C 1.20787 0.88586 0.03517
 C296 C 1.19727 0.93952 0.05769
 C297 C 1.14302 0.96090 0.04337
 C298 C 1.09804 0.92943 0.00760
 C299 C 1.10977 0.87007 -0.00716
 H300 H 1.31799 0.91056 0.09362
 H301 H 1.39807 0.84667 0.08017
 H302 H 1.28346 0.73573 -0.03801
 H303 H 1.23034 0.96541 0.08388
 H304 H 1.13701 1.00314 0.06240
 H305 H 1.07566 0.83694 -0.02038
 C306 C 0.66646 0.82603 -0.01159
 C307 C 0.66700 0.87813 0.01841
 C308 C 0.61857 0.89603 0.04515
 C309 C 0.56665 0.85897 0.04033
 C310 C 0.56401 0.80384 0.01052
 C311 C 0.61558 0.78653 -0.01482
 O312 O 0.71708 0.82034 -0.03648
 C313 C 0.74991 0.86979 -0.02101
 C314 C 0.72129 0.90534 0.01304
 C315 C 0.74666 0.95808 0.03424
 C316 C 0.80456 0.97421 0.02096
 C317 C 0.84003 0.94012 -0.01369
 C318 C 0.80753 0.88679 -0.03663
 H319 H 0.62034 0.93768 0.06814
 H320 H 0.52885 0.87285 0.06155
 H321 H 0.61517 0.74577 -0.03905
 H322 H 0.72255 0.98668 0.05995
 H323 H 0.81907 1.01735 0.03555
 H324 H 0.82316 0.85464 -0.06366
 C325 C 0.82927 0.53290 0.37903
 C326 C 0.82952 0.48409 0.41466
 C327 C 0.87264 0.44333 0.41555
 C328 C 0.91710 0.45211 0.37692
 C329 C 0.91740 0.50049 0.33788
 C330 C 0.87371 0.54258 0.33968
 O331 O 0.78061 0.56252 0.38250
 C332 C 0.74938 0.53067 0.42037
 C333 C 0.77771 0.48247 0.44024
 C334 C 0.75073 0.43829 0.47217
 C335 C 0.69200 0.44339 0.48341
 C336 C 0.65890 0.49271 0.46754
 C337 C 0.69120 0.53852 0.43597
 H338 H 0.87085 0.40475 0.44355
 H339 H 0.95000 0.41971 0.37553
 H340 H 0.87217 0.57885 0.30901
 H341 H 0.77271 0.39870 0.48474
 H342 H 0.67220 0.40579 0.50252
 H343 H 0.67166 0.57868 0.42153
 C344 C 0.21370 0.53695 0.37468
 C345 C 0.22377 0.47782 0.38020
 C346 C 0.17918 0.43264 0.37942
 C347 C 0.12192 0.44835 0.36587
 C348 C 0.11200 0.50602 0.34356
 C349 C 0.15749 0.55278 0.35280
 O350 O 0.26296 0.57229 0.38622
 C351 C 0.30456 0.53361 0.39656
 C352 C 0.28254 0.47605 0.38876
 C353 C 0.31801 0.42956 0.38470
 C354 C 0.37818 0.44158 0.39739
 C355 C 0.40220 0.49645 0.42209
 C356 C 0.36434 0.54512 0.41645
 H357 H 0.18826 0.38682 0.38850
 H358 H 0.08702 0.41286 0.36261
 H359 H 0.15135 0.59774 0.33800
 H360 H 0.30017 0.38553 0.37173
 H361 H 0.40456 0.40571 0.39097
 H362 H 0.37847 0.58961 0.42910
 C363 C 0.83634 0.51137 0.64326
 C364 C 0.81804 0.45248 0.63643
 C365 C 0.85562 0.40673 0.63856
 C366 C 0.91469 0.42127 0.65413
 C367 C 0.93498 0.48045 0.66947
 C368 C 0.89624 0.52727 0.65877
 O369 O 0.79146 0.54693 0.63662
 C370 C 0.74426 0.50868 0.62579
 C371 C 0.75934 0.45101 0.62709
 C372 C 0.71962 0.40323 0.61829
 C373 C 0.66261 0.41493 0.60093
 C374 C 0.64254 0.47321 0.59365
 C375 C 0.68496 0.52124 0.61098
 H376 H 0.83968 0.36097 0.63030
 H377 H 0.94402 0.38539 0.65758
 H378 H 0.91038 0.57334 0.66735
 H379 H 0.73334 0.35811 0.61867
 H380 H 0.64007 0.37719 0.58173
 H381 H 0.67354 0.56653 0.61197
 C382 C 0.23193 0.53391 0.66163
 C383 C 0.21561 0.51616 0.60677
 C384 C 0.15686 0.51172 0.58554
 C385 C 0.11290 0.52384 0.62309
 C386 C 0.12810 0.53606 0.68168
 C387 C 0.18890 0.54292 0.70038
 O388 O 0.29000 0.53536 0.67344
 C389 C 0.31080 0.51727 0.62509
 C390 C 0.26704 0.50329 0.58388
 C391 C 0.27812 0.47301 0.53510
 C392 C 0.33698 0.46174 0.52668
 C393 C 0.38565 0.48550 0.56222
 C394 C 0.37008 0.50927 0.61515
 H395 H 0.14517 0.49811 0.54191
 H396 H 0.06703 0.51765 0.60779
 H397 H 0.20220 0.55219 0.74475
 H398 H 0.24238 0.45546 0.50620
 H399 H 0.34358 0.43203 0.49332
 H400 H 0.40127 0.51778 0.64990
 C401 C 0.48540 0.64826 0.22158
 C402 C 0.53621 0.61948 0.22128
 C403 C 0.56537 0.61020 0.17176
 C404 C 0.54164 0.63262 0.11991
 C405 C 0.48987 0.66435 0.11827
 C406 C 0.46170 0.67204 0.17080
 O407 O 0.46281 0.64884 0.27307
 C408 C 0.50079 0.61965 0.30620
 C409 C 0.54635 0.60189 0.27614
 C410 C 0.58907 0.56837 0.30014
 C411 C 0.58405 0.55103 0.35682
 C412 C 0.53881 0.56737 0.39220
 C413 C 0.49575 0.60293 0.36428
 H414 H 0.60480 0.58589 0.17288
 H415 H 0.56383 0.62463 0.08145
 H416 H 0.42290 0.69645 0.17357
 H417 H 0.62308 0.55225 0.27497
 H418 H 0.61255 0.51803 0.36899
 H419 H 0.45793 0.61530 0.38523
 C420 C 0.47077 0.63530 0.80263
 C421 C 0.51627 0.59891 0.81096
 C422 C 0.54199 0.58650 0.86461
 C423 C 0.52094 0.61405 0.91204
 C424 C 0.47557 0.65408 0.90530
 C425 C 0.44970 0.66416 0.84931
 O426 O 0.45123 0.63860 0.74787
 C427 C 0.48558 0.60341 0.72128
 C428 C 0.52621 0.57923 0.75823
 C429 C 0.56629 0.54149 0.74076
 C430 C 0.56277 0.52524 0.68337
 C431 C 0.52027 0.54619 0.64206
 C432 C 0.48207 0.58829 0.66282
 H433 H 0.57684 0.55625 0.86983
 H434 H 0.54014 0.60368 0.95392
 H435 H 0.41537 0.69455 0.84167
 H436 H 0.59784 0.52271 0.77093
 H437 H 0.59114 0.49180 0.67448
 H438 H 0.44909 0.60750 0.63480
 C439 C 0.50559 0.38782 0.19685
 C440 C 0.56119 0.37841 0.21903
 C441 C 0.60430 0.35540 0.18759
 C442 C 0.58842 0.33823 0.13120
 C443 C 0.52935 0.34122 0.10908
 C444 C 0.48789 0.36822 0.14196
 O445 O 0.47226 0.41212 0.23402
 C446 C 0.50731 0.41595 0.28142
 C447 C 0.56109 0.39442 0.27427
 C448 C 0.60345 0.39172 0.31782
 C449 C 0.58935 0.41087 0.37121
 C450 C 0.53406 0.43237 0.38329
 C451 C 0.49441 0.43913 0.33434
 H452 H 0.64812 0.34941 0.20630
 H453 H 0.62063 0.31748 0.10722
 H454 H 0.44279 0.37250 0.12580
 H455 H 0.64683 0.37719 0.31075
 H456 H 0.62615 0.41726 0.39959
 H457 H 0.45755 0.46597 0.33445
 C458 C 0.48987 0.40140 0.82126
 C459 C 0.54537 0.39448 0.80401
 C460 C 0.59211 0.37783 0.83997
 C461 C 0.58033 0.36246 0.89613
 C462 C 0.52162 0.36055 0.91365
 C463 C 0.47682 0.38515 0.87701
 O464 O 0.45121 0.41299 0.77799
 C465 C 0.48327 0.41124 0.73220
 C466 C 0.54000 0.39775 0.74697
 C467 C 0.57534 0.37575 0.70847
 C468 C 0.55467 0.37588 0.65199
 C469 C 0.50586 0.40769 0.63110
 C470 C 0.46472 0.41714 0.67359
 H471 H 0.63534 0.37293 0.82419
 H472 H 0.61551 0.34439 0.92237
 H473 H 0.43175 0.38605 0.88945
 H474 H 0.61483 0.35396 0.72183
 H475 H 0.57597 0.34612 0.62772
 H476 H 0.42004 0.42579 0.66212
 C477 C 0.71385 0.78384 0.53440
 C478 C 0.67018 0.78608 0.57197
 C479 C 0.65067 0.83888 0.59137
 C480 C 0.67577 0.89228 0.56961
 C481 C 0.71930 0.89232 0.52821
 C482 C 0.74038 0.83654 0.51291
 O483 O 0.71955 0.72904 0.51527
 C484 C 0.67698 0.69642 0.54023
 C485 C 0.64635 0.72969 0.57528
 C486 C 0.59446 0.70871 0.59735
 C487 C 0.57174 0.65250 0.58035
 C488 C 0.60038 0.61409 0.54422
 C489 C 0.65679 0.63727 0.52704
 H490 H 0.61469 0.83895 0.61973
 H491 H 0.65714 0.93237 0.58260
 H492 H 0.77444 0.83304 0.48304
 H493 H 0.56867 0.73707 0.62161
 H494 H 0.52733 0.64425 0.58979
 H495 H 0.68587 0.61166 0.50612
 C496 C 0.62666 0.17758 0.45664
 C497 C 0.58451 0.16954 0.49622
 C498 C 0.57137 0.11520 0.52331
 C499 C 0.60496 0.06775 0.51014
 C500 C 0.64951 0.07628 0.47039
 C501 C 0.65905 0.13154 0.44228
 O502 O 0.63772 0.23351 0.44091
 C503 C 0.60186 0.26186 0.47146
 C504 C 0.56858 0.22500 0.50555
 C505 C 0.53173 0.24619 0.54335
 C506 C 0.52795 0.30763 0.54434
 C507 C 0.56274 0.34998 0.51080
 C508 C 0.60021 0.32303 0.47356
 H509 H 0.53895 0.11047 0.55547
 H510 H 0.59816 0.02559 0.53236
 H511 H 0.69491 0.14075 0.41420
 H512 H 0.50536 0.21658 0.57014
 H513 H 0.49484 0.32041 0.57122
 H514 H 0.63066 0.34498 0.44711
 C515 C 0.34478 0.77105 0.52444
 C516 C 0.39825 0.78737 0.50228
 C517 C 0.41430 0.84539 0.48484
 C518 C 0.37302 0.88845 0.48908
 C519 C 0.31651 0.87289 0.50942
 C520 C 0.30226 0.81329 0.52790
 O521 O 0.33873 0.71303 0.53779
 C522 C 0.38941 0.69237 0.52312
 C523 C 0.42639 0.73618 0.50036
 C524 C 0.47907 0.72458 0.47772
 C525 C 0.49523 0.66585 0.47949
 C526 C 0.46090 0.61836 0.50593
 C527 C 0.40609 0.63301 0.52755
 H528 H 0.45677 0.85689 0.46742
 H529 H 0.38390 0.93330 0.47385
 H530 H 0.25882 0.79996 0.54232
 H531 H 0.50681 0.75959 0.45857
 H532 H 0.53679 0.65866 0.46166
 H533 H 0.37625 0.59976 0.54552
 C534 C 0.33950 0.18349 0.52204
 C535 C 0.37567 0.18470 0.47714
 C536 C 0.38603 0.13459 0.44607
 C537 C 0.35504 0.08081 0.45934
 C538 C 0.31351 0.07779 0.50223
 C539 C 0.30648 0.12973 0.53532
 O540 O 0.33884 0.23723 0.54658
 C541 C 0.37479 0.27285 0.51541
 C542 C 0.39650 0.24212 0.47195
 C543 C 0.43325 0.26813 0.43301
 C544 C 0.45208 0.32764 0.44053
 C545 C 0.43530 0.36318 0.48671
 C546 C 0.39389 0.33412 0.52439
 H547 H 0.41580 0.13716 0.41152
 H548 H 0.36011 0.04218 0.43328
 H549 H 0.27399 0.12906 0.56742
 H550 H 0.44956 0.24257 0.39909
 H551 H 0.48431 0.34288 0.41182
 H552 H 0.38117 0.35639 0.56197
   
