data_POSCAR
  _audit_creation_date              2014-09-24
  _audit_creation_method            'ToBaCCo'
  _symmetry_space_group_name_H-M    'P1'
  _symmetry_Int_Tables_number       1
  _symmetry_cell_setting            triclinic
  loop_
  _symmetry_equiv_pos_as_xyz
 x,y,z
_cell_length_a 41.7062
_cell_length_b 41.5370
_cell_length_c 13.4958
_cell_angle_alpha 90.657100
_cell_angle_beta 88.909100
_cell_angle_gamma 119.649000
loop_
  _atom_site_label
  _atom_site_type_symbol
  _atom_site_fract_x
  _atom_site_fract_y
  _atom_site_fract_z
C1 C 0.15728 0.46915 0.57862
 C2 C 0.15701 0.47036 0.47738
 C3 C 0.18025 0.45761 0.44197
 N4 N 0.19566 0.44984 0.51899
 C5 C 0.18149 0.45682 0.60236
 C6 C 0.18703 0.45320 0.34024
 C7 C 0.21919 0.45220 0.30915
 C8 C 0.22447 0.44025 0.21683
 C9 C 0.26012 0.44658 0.21352
 C10 C 0.27564 0.46205 0.30394
 N11 N 0.25048 0.46525 0.36185
 C12 C 0.31324 0.47672 0.32668
 C13 C 0.32672 0.48678 0.42426
 C14 C 0.36354 0.50823 0.44876
 C15 C 0.36475 0.51081 0.54962
 C16 C 0.32888 0.48911 0.58498
 N17 N 0.30557 0.47482 0.50781
 C18 C 0.31821 0.48215 0.68689
 C19 C 0.28109 0.46775 0.71893
 C20 C 0.26744 0.45330 0.81252
 C21 C 0.23096 0.44421 0.81558
 C22 C 0.22325 0.45319 0.72383
 N23 N 0.25385 0.46736 0.66524
 C24 C 0.18994 0.45199 0.70002
 H25 H 0.14241 0.47775 0.62897
 H26 H 0.14211 0.48058 0.43526
 H27 H 0.25707 0.48019 0.59723
 H28 H 0.20487 0.42861 0.15736
 H29 H 0.27335 0.44127 0.15064
 H30 H 0.38748 0.52135 0.40051
 H31 H 0.38956 0.52727 0.59135
 H32 H 0.21240 0.43292 0.87880
 H33 H 0.25576 0.47984 0.42823
 H34 H 0.28224 0.44985 0.87274
 C35 C 0.61863 -0.23951 0.44585
 C36 C 0.61849 -0.23960 0.54771
 C37 C 0.59241 -0.23005 0.57868
 N38 N 0.57714 -0.22344 0.49937
 C39 C 0.59241 -0.23022 0.41805
 C40 C 0.58076 -0.22984 0.67803
 C41 C 0.56938 -0.20405 0.70704
 C42 C 0.54953 -0.20568 0.79259
 C43 C 0.54472 -0.17517 0.79169
 C44 C 0.56172 -0.15572 0.70582
 N45 N 0.57690 -0.17334 0.65524
 C46 C 0.56357 -0.12229 0.67630
 C47 C 0.57526 -0.10794 0.58046
 C48 C 0.58713 -0.07172 0.55242
 C49 C 0.58794 -0.07145 0.45071
 C50 C 0.57628 -0.10757 0.42094
 N51 N 0.56913 -0.12964 0.50021
 C52 C 0.56558 -0.12163 0.32465
 C53 C 0.56273 -0.15570 0.29548
 C54 C 0.54495 -0.17578 0.21179
 C55 C 0.54874 -0.20686 0.21063
 C56 C 0.56894 -0.20484 0.29365
 N57 N 0.57740 -0.17347 0.34454
 C58 C 0.58040 -0.23051 0.32016
 H59 H 0.63597 -0.24567 0.39770
 H60 H 0.63556 -0.24597 0.59384
 H61 H 0.59460 -0.16349 0.40569
 H62 H 0.53876 -0.22691 0.84901
 H63 H 0.52995 -0.16845 0.84744
 H64 H 0.59285 -0.04844 0.60026
 H65 H 0.59441 -0.04791 0.40406
 H66 H 0.53713 -0.22860 0.15552
 H67 H 0.59363 -0.16372 0.59189
 H68 H 0.53022 -0.16917 0.15786
 C69 C 1.08589 0.65687 0.45908
 C70 C 1.08847 0.65118 0.55788
 C71 C 1.12581 0.66944 0.57913
 N72 N 1.14598 0.68689 0.49773
 C73 C 1.12167 0.67883 0.42422
 C74 C 1.14160 0.66782 0.66937
 C75 C 1.17661 0.69744 0.69746
 C76 C 1.19806 0.69656 0.77365
 C77 C 1.22880 0.73123 0.77863
 C78 C 1.22577 0.75245 0.70439
 N79 N 1.19373 0.73162 0.65601
 C80 C 1.24959 0.79103 0.68915
 C81 C 1.24891 0.80765 0.59787
 C82 C 1.26463 0.84528 0.57742
 C83 C 1.26246 0.84852 0.47715
 C84 C 1.24737 0.81321 0.43778
 N85 N 1.23828 0.78828 0.51171
 C86 C 1.24510 0.80412 0.33523
 C87 C 1.21727 0.76916 0.30113
 C88 C 1.21614 0.75387 0.20800
 C89 C 1.18386 0.72052 0.20446
 C90 C 1.16642 0.71618 0.29557
 N91 N 1.18673 0.74590 0.35374
 C92 C 1.13238 0.68573 0.32375
 H93 H 1.06078 0.64526 0.41677
 H94 H 1.06555 0.63495 0.60782
 H95 H 1.17878 0.75116 0.42305
 H96 H 1.19234 0.67351 0.82134
 H97 H 1.25041 0.73967 0.83244
 H98 H 1.27704 0.86875 0.62652
 H99 H 1.27184 0.87425 0.43757
 H100 H 1.17471 0.70143 0.14250
 H101 H 1.18242 0.74138 0.60408
 H102 H 1.23652 0.76497 0.14875
 C103 C 0.74604 0.60561 0.45891
 C104 C 0.75057 0.61084 0.55963
 C105 C 0.75399 0.58157 0.59578
 N106 N 0.75287 0.55937 0.52047
 C107 C 0.74755 0.57373 0.43701
 C108 C 0.75456 0.57297 0.69681
 C109 C 0.77630 0.55698 0.72596
 C110 C 0.77563 0.54223 0.81863
 C111 C 0.80181 0.53127 0.81628
 C112 C 0.81765 0.53905 0.72214
 N113 N 0.80207 0.55480 0.66781
 C114 C 0.84572 0.53162 0.68774
 C115 C 0.85091 0.52875 0.58436
 C116 C 0.88270 0.53305 0.53747
 C117 C 0.87353 0.52120 0.44161
 C118 C 0.83711 0.51234 0.43128
 N119 N 0.82337 0.51709 0.51834
 C120 C 0.81584 0.49747 0.34553
 C121 C 0.78636 0.50352 0.32435
 C122 C 0.76218 0.48786 0.24643
 C123 C 0.74117 0.50512 0.24449
 C124 C 0.75315 0.53061 0.32167
 N125 N 0.78064 0.52946 0.36950
 C126 C 0.74085 0.55601 0.34358
 H127 H 0.74195 0.62310 0.40782
 H128 H 0.75076 0.63325 0.60180
 H129 H 0.79742 0.54843 0.42263
 H130 H 0.75800 0.53885 0.88191
 H131 H 0.80752 0.51795 0.87648
 H132 H 0.90962 0.54298 0.56937
 H133 H 0.89200 0.52009 0.38617
 H134 H 0.71988 0.49979 0.19169
 H135 H 0.81044 0.56574 0.59680
 H136 H 0.76066 0.46711 0.19453
 C137 C 0.48032 0.16524 0.43333
 C138 C 0.47743 0.16246 0.53437
 C139 C 0.48000 0.19518 0.57034
 N140 N 0.48507 0.21795 0.49325
 C141 C 0.48494 0.19962 0.40953
 C142 C 0.48406 0.20631 0.67184
 C143 C 0.49175 0.24240 0.70024
 C144 C 0.50793 0.26013 0.78841
 C145 C 0.50695 0.29266 0.79140
 C146 C 0.48952 0.29384 0.70600
 N147 N 0.48060 0.26321 0.65066
 C148 C 0.48078 0.32175 0.68221
 C149 C 0.46932 0.32387 0.58554
 C150 C 0.44648 0.33793 0.56117
 C151 C 0.44580 0.33848 0.45945
 C152 C 0.46833 0.32484 0.42537
 N153 N 0.48213 0.31532 0.50252
 C154 C 0.47894 0.32410 0.32563
 C155 C 0.49048 0.29871 0.29476
 C156 C 0.50819 0.29990 0.20558
 C157 C 0.51193 0.26878 0.20222
 C158 C 0.49672 0.24963 0.28968
 N159 N 0.48359 0.26793 0.34538
 C160 C 0.49309 0.21494 0.31295
 H161 H 0.48082 0.14482 0.38381
 H162 H 0.47630 0.13972 0.57523
 H163 H 0.46732 0.25805 0.40929
 H164 H 0.51943 0.25102 0.84553
 H165 H 0.51788 0.31289 0.85050
 H166 H 0.43209 0.34708 0.61159
 H167 H 0.43064 0.34798 0.41568
 H168 H 0.52425 0.26105 0.14190
 H169 H 0.46414 0.25507 0.58805
 H170 H 0.51744 0.32079 0.14841
 C171 C 0.65159 0.06977 0.52222
 C172 C 0.65287 0.06950 0.42075
 C173 C 0.67441 0.10609 0.39170
 N174 N 0.68563 0.12865 0.47131
 C175 C 0.67108 0.10664 0.55100
 C176 C 0.67800 0.11972 0.29533
 C177 C 0.70906 0.15340 0.26673
 C178 C 0.71327 0.17183 0.17828
 C179 C 0.74850 0.20192 0.17751
 C180 C 0.76447 0.20109 0.26608
 N181 N 0.74046 0.17121 0.31914
 C182 C 0.80070 0.22646 0.29546
 C183 C 0.81073 0.23034 0.39680
 C184 C 0.84642 0.24725 0.43225
 C185 C 0.84376 0.24961 0.53355
 C186 C 0.80652 0.23367 0.55688
 N187 N 0.78638 0.22155 0.47340
 C188 C 0.79134 0.23282 0.65232
 C189 C 0.75456 0.20603 0.67738
 C190 C 0.73498 0.20739 0.76012
 C191 C 0.70119 0.17545 0.75956
 C192 C 0.70100 0.15526 0.67660
 N193 N 0.73375 0.17409 0.62740
 C194 C 0.67123 0.12053 0.64684
 H195 H 0.63665 0.04574 0.56928
 H196 H 0.63908 0.04511 0.37473
 H197 H 0.74258 0.16440 0.56716
 H198 H 0.69337 0.16406 0.11974
 H199 H 0.76076 0.22221 0.11887
 H200 H 0.87179 0.25728 0.38956
 H201 H 0.86662 0.26164 0.58419
 H202 H 0.67919 0.16850 0.81336
 H203 H 0.74635 0.16192 0.38408
 H204 H 0.74380 0.22929 0.81477
 O205 O 0.96238 0.45740 -0.19153
 O206 O 1.02376 0.49365 0.20649
 O207 O 0.91114 0.43198 0.09412
 O208 O 1.04123 0.51457 -0.09243
 O209 O 0.95841 0.47484 0.17090
 O210 O 1.02755 0.47314 -0.20040
 O211 O 1.04572 0.52547 0.07613
 O212 O 0.93330 0.46179 -0.06460
 C213 C 0.94308 0.46953 -0.15242
 C214 C 1.04116 0.52420 0.16656
 C215 C 0.92565 0.46126 0.14528
 C216 C 1.04137 0.50658 -0.17990
 O217 O 1.01043 0.40892 -0.11997
 O218 O 0.94320 0.40550 0.18739
 O219 O 0.89458 0.39211 -0.08314
 O220 O 1.05982 0.46801 0.10833
 O221 O 1.01152 0.42789 0.19784
 O222 O 0.94377 0.38890 -0.12904
 O223 O 1.05927 0.45933 -0.07259
 O224 O 0.92893 0.37953 0.04531
 Co225 Co 0.98611 0.43379 -0.14494
 Co226 Co 0.98409 0.45021 0.17320
 Co227 Co 0.93438 0.42248 -0.01063
 Co228 Co 1.04658 0.48834 0.00443
 O229 O 0.98960 0.45094 0.01130
 C230 C 1.04453 0.42680 -0.10739
 C231 C 0.92820 0.37676 0.13698
 C232 C 0.91042 0.37996 -0.14705
 C233 C 1.04526 0.44251 0.17390
 O234 O 0.55321 0.51102 -0.18768
 O235 O 0.49594 0.55879 0.18684
 O236 O 0.53829 0.48512 0.11045
 O237 O 0.47987 0.55262 -0.11484
 O238 O 0.49902 0.50050 0.17065
 O239 O 0.49608 0.51437 -0.17550
 O240 O 0.46913 0.54307 0.05192
 O241 O 0.53334 0.47821 -0.06179
 C242 C 0.53603 0.47973 -0.15258
 C243 C 0.46675 0.54608 0.14166
 C244 C 0.50903 0.47690 0.15942
 C245 C 0.47186 0.52298 -0.16079
 O246 O 0.53595 0.58568 -0.20150
 O247 O 0.56925 0.53951 0.20738
 O248 O 0.60365 0.54330 -0.08567
 O249 O 0.53331 0.61220 0.09304
 O250 O 0.56805 0.59690 0.17354
 O251 O 0.59228 0.58229 -0.16191
 O252 O 0.54843 0.61788 -0.07400
 O253 O 0.60480 0.55241 0.08461
 Co254 Co 0.54378 0.54849 -0.16203
 Co255 Co 0.53362 0.54890 0.16421
 Co256 Co 0.56731 0.51764 0.01069
 Co257 Co 0.51038 0.57874 -0.01013
 O258 O 0.53887 0.54856 0.00078
 C259 C 0.54935 0.61683 -0.16487
 C260 C 0.60098 0.55152 0.17513
 C261 C 0.61447 0.57167 -0.13992
 C262 C 0.55960 0.62065 0.15178
 O263 O 0.47784 0.02118 -0.22044
 O264 O 0.46666 -0.02431 0.20917
 O265 O 0.52956 0.04089 0.05174
 O266 O 0.46689 -0.06309 -0.08557
 O267 O 0.50033 0.04291 0.17893
 O268 O 0.44333 -0.04557 -0.20062
 O269 O 0.46564 -0.06485 0.10149
 O270 O 0.51746 0.02847 -0.11490
 C271 C 0.51003 0.02862 -0.20217
 C272 C 0.47421 -0.04916 0.18409
 C273 C 0.52902 0.04526 0.14152
 C274 C 0.46438 -0.05768 -0.17463
 O275 O 0.38691 -0.03865 -0.11123
 O276 O 0.43668 0.03980 0.12803
 O277 O 0.48014 0.06740 -0.11500
 O278 O 0.39807 -0.07649 0.10273
 O279 O 0.40334 -0.02753 0.18220
 O280 O 0.42323 0.02685 -0.11974
 O281 O 0.39605 -0.08341 -0.08172
 O282 O 0.48929 0.07720 0.05966
 Co283 Co 0.43467 -0.00875 -0.14943
 Co284 Co 0.45192 0.00689 0.15717
 Co285 Co 0.49999 0.04878 -0.02748
 Co286 Co 0.43389 -0.06535 0.00737
 O287 O 0.45438 -0.00505 -0.00123
 C288 C 0.37429 -0.07231 -0.10386
 C289 C 0.45950 0.07157 0.10053
 C290 C 0.44751 0.05953 -0.12864
 C291 C 0.38675 -0.06169 0.16624
 C292 C 1.16296 0.45215 0.26592
 C293 C 1.12651 0.43760 0.27966
 C294 C 1.10387 0.44410 0.20895
 C295 C 1.06801 0.43091 0.22833
 H296 H 1.11331 0.42232 0.34681
 H297 H 1.11707 0.46222 0.14611
 H298 H 1.17434 0.46286 0.19295
 H299 H 1.05521 0.41267 0.29122
 C300 C 0.57791 0.74310 0.24814
 C301 C 0.57745 0.71136 0.26851
 C302 C 0.56872 0.68265 0.19224
 C303 C 0.57607 0.65537 0.20869
 H304 H 0.57986 0.70408 0.34347
 H305 H 0.55380 0.68225 0.12688
 H306 H 0.57354 0.74719 0.17157
 H307 H 0.59210 0.65697 0.27280
 C308 C 0.27064 -0.17091 0.26425
 C309 C 0.30438 -0.14329 0.28562
 C310 C 0.33036 -0.11994 0.20808
 C311 C 0.35454 -0.08479 0.22904
 H312 H 0.31467 -0.13839 0.36032
 H313 H 0.33080 -0.13181 0.13644
 H314 H 0.26370 -0.17525 0.18652
 H315 H 0.35207 -0.07303 0.29906
 C316 C 0.82419 0.47407 0.27830
 C317 C 0.85450 0.48896 0.22137
 C318 C 0.86958 0.46629 0.17915
 C319 C 0.90613 0.48118 0.17446
 H320 H 0.87137 0.51891 0.21847
 H321 H 0.85161 0.43727 0.16198
 H322 H 0.80736 0.44425 0.28445
 H323 H 0.92327 0.50955 0.19930
 C324 C 0.48017 0.35122 0.25132
 C325 C 0.48717 0.38548 0.27484
 C326 C 0.49568 0.41373 0.19848
 C327 C 0.49061 0.44254 0.21763
 H328 H 0.49001 0.39440 0.35134
 H329 H 0.50912 0.41261 0.12998
 H330 H 0.47833 0.34397 0.17347
 H331 H 0.47546 0.44244 0.28396
 C332 C 0.64428 0.10423 0.23558
 C333 C 0.62706 0.06932 0.20313
 C334 C 0.59058 0.05314 0.15801
 C335 C 0.56303 0.05741 0.19709
 H336 H 0.64055 0.05280 0.20581
 H337 H 0.58625 0.03675 0.09142
 H338 H 0.63224 0.12174 0.22344
 H339 H 0.56617 0.07120 0.26781
 C340 C 0.48462 0.18281 -0.25412
 C341 C 0.45916 0.14696 -0.24670
 C342 C 0.46445 0.12234 -0.17983
 C343 C 0.43880 0.08671 -0.17073
 H344 H 0.43535 0.13521 -0.29446
 H345 H 0.49106 0.13259 -0.14538
 H346 H 0.50509 0.19436 -0.19671
 H347 H 0.41195 0.07660 -0.20351
 C348 C 0.73175 0.57753 -0.23083
 C349 C 0.70290 0.58221 -0.25126
 C350 C 0.67525 0.57745 -0.17461
 C351 C 0.65018 0.58768 -0.19295
 H352 H 0.69605 0.58472 -0.32641
 H353 H 0.67268 0.56160 -0.10871
 H354 H 0.73536 0.57400 -0.15342
 H355 H 0.65373 0.60449 -0.25754
 C356 C 0.81369 0.26042 -0.26978
 C357 C 0.83817 0.29596 -0.28907
 C358 C 0.85721 0.32276 -0.20847
 C359 C 0.88994 0.35286 -0.22514
 H360 H 0.84405 0.30578 -0.36483
 H361 H 0.84504 0.31726 -0.13456
 H362 H 0.80810 0.25173 -0.19298
 H363 H 0.90347 0.35653 -0.29680
 C364 C 0.54866 -0.10424 -0.25609
 C365 C 0.52527 -0.09332 -0.28807
 C366 C 0.50782 -0.07903 -0.21858
 C367 C 0.48366 -0.06876 -0.24809
 H368 H 0.51768 -0.09646 -0.36542
 H369 H 0.51423 -0.07790 -0.14066
 H370 H 0.55448 -0.10280 -0.17773
 H371 H 0.47763 -0.06913 -0.32597
 C372 C 0.34519 0.49123 -0.23962
 C373 C 0.37466 0.48683 -0.25302
 C374 C 0.40681 0.50476 -0.18819
 C375 C 0.43607 0.50073 -0.20813
 H376 H 0.37639 0.47198 -0.31769
 H377 H 0.40783 0.52354 -0.13027
 H378 H 0.34144 0.50124 -0.16817
 H379 H 0.43431 0.48126 -0.26496
 C380 C 1.12298 0.63674 -0.26708
 C381 C 1.09934 0.60211 -0.29814
 C382 C 1.08058 0.57161 -0.22650
 C383 C 1.05985 0.53610 -0.25460
 H384 H 1.09451 0.59574 -0.37632
 H385 H 1.08393 0.57854 -0.14825
 H386 H 1.12975 0.64042 -0.18915
 H387 H 1.05703 0.52870 -0.33245
 C388 C 0.86667 0.52516 -0.24093
 C389 C 0.88371 0.50544 -0.25916
 C390 C 0.90439 0.49808 -0.18403
 C391 C 0.92931 0.48866 -0.21473
 H392 H 0.88074 0.49170 -0.32958
 H393 H 0.89713 0.49725 -0.10618
 H394 H 0.86751 0.53490 -0.16566
 H395 H 0.93651 0.49071 -0.29299
 C396 C 0.48545 0.34843 -0.24440
 C397 C 0.49479 0.38338 -0.26640
 C398 C 0.50561 0.41244 -0.18997
 C399 C 0.52133 0.44763 -0.21918
 H400 H 0.49845 0.39209 -0.34308
 H401 H 0.50243 0.40549 -0.11189
 H402 H 0.48572 0.34204 -0.16697
 H403 H 0.52482 0.45377 -0.29787
 C404 C 0.64062 0.10108 -0.28819
 C405 C 0.60588 0.07930 -0.31960
 C406 C 0.57515 0.06043 -0.24882
 C407 C 0.53982 0.04294 -0.27727
 H408 H 0.59941 0.07691 -0.39758
 H409 H 0.58168 0.06231 -0.17082
 H410 H 0.64465 0.10605 -0.20923
 H411 H 0.53300 0.04186 -0.35476
 C412 C 1.16543 0.45068 -0.21693
 C413 C 1.12901 0.42738 -0.21600
 C414 C 1.10495 0.43302 -0.14510
 C415 C 1.06814 0.41275 -0.14943
 H416 H 1.11675 0.40677 -0.27411
 H417 H 1.11749 0.45723 -0.09741
 H418 H 1.17778 0.47049 -0.15709
 H419 H 1.05551 0.38843 -0.19661
 C420 C 0.57884 0.74412 -0.25110
 C421 C 0.57565 0.71118 -0.27497
 C422 C 0.56875 0.68273 -0.19974
 C423 C 0.56210 0.64924 -0.22983
 H424 H 0.57456 0.70317 -0.35193
 H425 H 0.56689 0.68826 -0.12177
 H426 H 0.57660 0.74931 -0.17316
 H427 H 0.56335 0.64422 -0.30849
 C428 C 0.27844 -0.18932 -0.24289
 C429 C 0.28847 -0.15540 -0.20777
 C430 C 0.32353 -0.13354 -0.15477
 C431 C 0.33618 -0.09762 -0.13538
 H432 H 0.27117 -0.14322 -0.21945
 H433 H 0.34072 -0.14577 -0.14075
 H434 H 0.29310 -0.20281 -0.21580
 H435 H 0.31925 -0.08539 -0.15285
 C436 C 0.55211 -0.10312 0.25670
 C437 C 0.53006 -0.09015 0.28904
 C438 C 0.51281 -0.07651 0.21997
 C439 C 0.49425 -0.05976 0.25277
 H440 H 0.52301 -0.09131 0.36713
 H441 H 0.51466 -0.08096 0.14120
 H442 H 0.55748 -0.10333 0.17787
 H443 H 0.49391 -0.05365 0.33096
 C444 C 0.33945 0.48069 0.24507
 C445 C 0.36731 0.51384 0.21905
 C446 C 0.39896 0.51757 0.15989
 C447 C 0.43294 0.54067 0.19189
 H448 H 0.36961 0.53846 0.25448
 H449 H 0.39466 0.49990 0.09605
 H450 H 0.33707 0.45581 0.21138
 H451 H 0.43630 0.55561 0.26087
 C452 C 1.11037 0.65731 0.24825
 C453 C 1.09692 0.62146 0.26814
 C454 C 1.07691 0.59173 0.19615
 C455 C 1.05883 0.55704 0.22967
 H456 H 1.10144 0.61349 0.34058
 H457 H 1.07764 0.59780 0.11799
 H458 H 1.10778 0.66583 0.17463
 H459 H 1.05767 0.55209 0.30881
 C460 C 0.50046 0.19437 0.23356
 C461 C 0.47289 0.16348 0.19543
 C462 C 0.48000 0.13698 0.13922
 C463 C 0.45284 0.10204 0.12896
 H464 H 0.44474 0.15546 0.21716
 H465 H 0.50806 0.14458 0.11795
 H466 H 0.52887 0.20268 0.21470
 H467 H 0.42528 0.09452 0.15528
 C468 C 0.71903 0.56223 0.26780
 C469 C 0.68839 0.56339 0.29185
 C470 C 0.66316 0.56277 0.21592
 C471 C 0.63088 0.55961 0.24401
 H472 H 0.68015 0.56175 0.36914
 H473 H 0.66959 0.56199 0.13800
 H474 H 0.72592 0.56162 0.19019
 H475 H 0.62457 0.55947 0.32241
 C476 C 0.82748 0.25074 0.21753
 C477 C 0.85161 0.28628 0.23500
 C478 C 0.87711 0.31201 0.15934
 C479 C 0.90711 0.34202 0.19179
 H480 H 0.85223 0.29766 0.30806
 H481 H 0.86964 0.30865 0.08193
 H482 H 0.82568 0.23985 0.14322
 H483 H 0.91315 0.34381 0.27024
   
