data_POSCAR
  _audit_creation_date              2014-09-24
  _audit_creation_method            'ToBaCCo'
  _symmetry_space_group_name_H-M    'P1'
  _symmetry_Int_Tables_number       1
  _symmetry_cell_setting            triclinic
  loop_
  _symmetry_equiv_pos_as_xyz
 x,y,z
_cell_length_a 56.9801
_cell_length_b 56.9271
_cell_length_c 20.4095
_cell_angle_alpha 89.950900
_cell_angle_beta 90.041100
_cell_angle_gamma 119.970700
loop_
  _atom_site_label
  _atom_site_type_symbol
  _atom_site_fract_x
  _atom_site_fract_y
  _atom_site_fract_z
O1 O 0.21628 0.47755 0.43752
 O2 O 0.26281 0.47840 0.56413
 O3 O 0.21669 0.47786 0.56461
 O4 O 0.26237 0.47806 0.43707
 O5 O 0.28441 0.52291 0.43626
 O6 O 0.23864 0.52271 0.56395
 O7 O 0.28481 0.52323 0.56346
 O8 O 0.23826 0.52239 0.43672
 Cu9 Cu 0.23732 0.47345 0.50092
 Cu10 Cu 0.26375 0.52734 0.50004
 C11 C 0.21926 0.49981 0.41616
 C12 C 0.28183 0.50095 0.58471
 C13 C 0.21976 0.50023 0.58533
 C14 C 0.28125 0.50050 0.41558
 O15 O 0.52399 -0.26192 0.43593
 O16 O 0.52460 -0.21549 0.56247
 O17 O 0.52388 -0.26169 0.56308
 O18 O 0.52469 -0.21571 0.43498
 O19 O 0.47989 -0.23761 0.43477
 O20 O 0.47908 -0.28358 0.56282
 O21 O 0.47980 -0.23738 0.56223
 O22 O 0.47919 -0.28381 0.43572
 Cu23 Cu 0.52881 -0.23647 0.49913
 Cu24 Cu 0.47498 -0.26277 0.49885
 C25 C 0.50148 -0.28085 0.41487
 C26 C 0.50230 -0.21852 0.58350
 C27 C 0.50134 -0.28055 0.58415
 C28 C 0.50242 -0.21883 0.41348
 O29 O 1.26033 0.78460 0.43752
 O30 O 1.21444 0.73809 0.56393
 O31 O 1.25991 0.78432 0.56503
 O32 O 1.21485 0.73841 0.43687
 O33 O 1.23776 0.71647 0.43726
 O34 O 1.28280 0.76237 0.56536
 O35 O 1.23734 0.71615 0.56428
 O36 O 1.28322 0.76265 0.43790
 Cu37 Cu 1.23511 0.76360 0.50081
 Cu38 Cu 1.26263 0.73724 0.50124
 C39 C 1.27960 0.78154 0.41657
 C40 C 1.21797 0.71909 0.58495
 C41 C 1.27904 0.78116 0.58659
 C42 C 1.21854 0.71952 0.41593
 O43 O 0.78557 0.52585 0.43718
 O44 O 0.73938 0.52604 0.56330
 O45 O 0.78513 0.52592 0.56456
 O46 O 0.73989 0.52603 0.43583
 O47 O 0.71741 0.48118 0.43599
 O48 O 0.76264 0.48108 0.56470
 O49 O 0.71691 0.48120 0.56343
 O50 O 0.76308 0.48101 0.43734
 Cu51 Cu 0.76476 0.53049 0.50022
 Cu52 Cu 0.73774 0.47660 0.50040
 C53 C 0.78220 0.50339 0.41620
 C54 C 0.72026 0.50365 0.58445
 C55 C 0.78162 0.50348 0.58607
 C56 C 0.72095 0.50362 0.41436
 O57 O 0.47585 0.26069 0.43726
 O58 O 0.47657 0.21474 0.56362
 O59 O 0.47578 0.26024 0.56483
 O60 O 0.47669 0.21522 0.43665
 O61 O 0.52149 0.23821 0.43692
 O62 O 0.52058 0.28320 0.56505
 O63 O 0.52137 0.23772 0.56384
 O64 O 0.52065 0.28365 0.43754
 Cu65 Cu 0.47170 0.23545 0.50058
 Cu66 Cu 0.52554 0.26307 0.50087
 C67 C 0.49814 0.27999 0.41624
 C68 C 0.49910 0.21828 0.58451
 C69 C 0.49804 0.27940 0.58636
 C70 C 0.49925 0.21894 0.41571
 O71 O 0.73909 0.21505 0.43785
 O72 O 0.78566 0.26097 0.56413
 O73 O 0.73945 0.21547 0.56489
 O74 O 0.78530 0.26046 0.43659
 O75 O 0.76345 0.28345 0.43632
 O76 O 0.71762 0.23848 0.56456
 O77 O 0.76381 0.28395 0.56379
 O78 O 0.71726 0.23806 0.43757
 Cu79 Cu 0.76462 0.23571 0.50092
 Cu80 Cu 0.73838 0.26335 0.50055
 C81 C 0.72015 0.21865 0.41687
 C82 C 0.78266 0.28029 0.58509
 C83 C 0.72061 0.21920 0.58582
 C84 C 0.78216 0.27960 0.41497
 O85 O 1.03722 0.55868 0.12141
 O86 O 1.06724 0.55321 0.05719
 C87 C 1.06153 0.56489 0.10398
 O88 O 0.96136 0.43816 0.11368
 O89 O 0.93144 0.44561 0.05416
 C90 C 0.93708 0.43234 0.09694
 O91 O 1.03718 0.47794 0.11970
 O92 O 1.06722 0.51400 0.05692
 C93 C 1.06149 0.49625 0.10291
 O94 O 0.96163 0.52340 0.11501
 O95 O 0.93165 0.48632 0.05487
 C96 C 0.93732 0.50503 0.09821
 Zr97 Zr 0.99947 0.52965 0.08118
 O98 O 0.99880 0.53285 0.18430
 O99 O 1.00051 0.56704 0.06968
 Zr100 Zr 0.99939 0.47010 0.08143
 O101 O 0.99679 0.46824 0.18496
 O102 O 1.00230 0.43445 0.07891
 O103 O 1.02346 0.51184 0.09432
 O104 O 0.97598 0.48814 0.09363
 O105 O 0.96156 0.52393 -0.11531
 O106 O 0.93167 0.48645 -0.05614
 C107 C 0.93729 0.50541 -0.09873
 O108 O 1.03711 0.47813 -0.12191
 O109 O 1.06719 0.51404 -0.05879
 C110 C 1.06143 0.49635 -0.10487
 O111 O 0.96132 0.43830 -0.11596
 O112 O 0.93144 0.44567 -0.05620
 C113 C 0.93704 0.43247 -0.09923
 O114 O 1.03725 0.55946 -0.12188
 O115 O 1.06724 0.55333 -0.05904
 C116 C 1.06155 0.56536 -0.10511
 Zr117 Zr 0.99945 0.52970 -0.08317
 O118 O 0.99643 0.52907 -0.18662
 O119 O 1.00228 0.56821 -0.07964
 Zr120 Zr 0.99934 0.47017 -0.08344
 O121 O 0.99631 0.46798 -0.18689
 O122 O 1.00235 0.43457 -0.08060
 Zr123 Zr 1.04006 0.52014 -0.00098
 Zr124 Zr 0.95893 0.47961 -0.00083
 O125 O 0.97594 0.48824 -0.09542
 O126 O 1.02350 0.51196 -0.09633
 O127 O 0.97504 0.52197 -0.00085
 O128 O 1.02311 0.47774 -0.00103
 O129 O 1.02340 0.54584 -0.00087
 O130 O 0.97504 0.45336 -0.00098
 H131 H 0.96388 0.48199 0.13234
 H132 H 1.03543 0.47015 -0.00104
 H133 H 0.96389 0.48227 -0.13424
 H134 H 1.03589 0.56572 -0.00073
 H135 H 0.98630 0.42045 0.05498
 H136 H 0.98607 0.42037 -0.05796
 H137 H 1.01050 0.48560 -0.20443
 H138 H 1.01038 0.52532 -0.20422
 H139 H 0.98719 0.56642 -0.05208
 H140 H 1.00091 0.57384 0.11456
 H141 H 0.99462 0.51511 0.20254
 H142 H 1.01106 0.48596 0.20199
 O143 O 0.44186 0.47936 0.12118
 O144 O 0.44711 0.51481 0.05690
 C145 C 0.43554 0.49741 0.10376
 O146 O 0.56230 0.52418 0.11284
 O147 O 0.55491 0.48686 0.05325
 C148 C 0.56816 0.50573 0.09604
 O149 O 0.52238 0.56014 0.11906
 O150 O 0.48623 0.55402 0.05647
 C151 C 0.50398 0.56606 0.10237
 O152 O 0.47728 0.43916 0.11464
 O153 O 0.51428 0.44631 0.05420
 C154 C 0.49565 0.43324 0.09769
 Zr155 Zr 0.47090 0.47071 0.08077
 O156 O 0.46775 0.46678 0.18388
 O157 O 0.43359 0.43433 0.06936
 Zr158 Zr 0.53032 0.53024 0.08072
 O159 O 0.53224 0.52946 0.18424
 O160 O 0.56587 0.56882 0.07796
 O161 O 0.48860 0.51250 0.09385
 O162 O 0.51239 0.48878 0.09300
 O163 O 0.47677 0.43862 -0.11546
 O164 O 0.51437 0.44629 -0.05655
 C165 C 0.49536 0.43290 -0.09898
 O166 O 0.52200 0.56001 -0.12240
 O167 O 0.48612 0.55401 -0.05908
 C168 C 0.50372 0.56600 -0.10524
 O169 O 0.56194 0.52410 -0.11710
 O170 O 0.55475 0.48688 -0.05722
 C171 C 0.56783 0.50566 -0.10042
 O172 O 0.44100 0.47877 -0.12245
 O173 O 0.44698 0.51477 -0.05941
 C174 C 0.43504 0.49714 -0.10560
 Zr175 Zr 0.47070 0.47064 -0.08357
 O176 O 0.47105 0.46805 -0.18698
 O177 O 0.43226 0.43494 -0.07957
 Zr178 Zr 0.53005 0.53013 -0.08422
 O179 O 0.53195 0.52915 -0.18771
 O180 O 0.56557 0.56875 -0.08187
 Zr181 Zr 0.48017 0.52078 -0.00139
 Zr182 Zr 0.52083 0.48029 -0.00155
 O183 O 0.51211 0.48866 -0.09608
 O184 O 0.48829 0.51243 -0.09680
 O185 O 0.47854 0.45397 -0.00130
 O186 O 0.52252 0.54630 -0.00169
 O187 O 0.45458 0.47842 -0.00120
 O188 O 0.54698 0.52265 -0.00186
 H189 H 0.51857 0.48282 0.13167
 H190 H 0.53006 0.56620 -0.00172
 H191 H 0.51804 0.48259 -0.13497
 H192 H 0.43472 0.47103 -0.00100
 H193 H 0.57992 0.56682 0.05428
 H194 H 0.57972 0.56676 -0.05862
 H195 H 0.51453 0.52635 -0.20510
 H196 H 0.47540 0.48596 -0.20463
 H197 H 0.43423 0.42154 -0.05272
 H198 H 0.42676 0.42798 0.11426
 H199 H 0.48543 0.48043 0.20208
 H200 H 0.51454 0.52599 0.20134
 O201 O 0.47867 0.03730 0.12162
 O202 O 0.51416 0.06741 0.05750
 C203 C 0.49676 0.06165 0.10425
 O204 O 0.52356 -0.03835 0.11474
 O205 O 0.48634 -0.06831 0.05500
 C206 C 0.50517 -0.06266 0.09793
 O207 O 0.55928 0.03740 0.12055
 O208 O 0.55331 0.06744 0.05748
 C209 C 0.56525 0.06172 0.10368
 O210 O 0.43845 -0.03837 0.11511
 O211 O 0.44575 -0.06836 0.05548
 C212 C 0.43261 -0.06270 0.09857
 Zr213 Zr 0.47000 -0.00044 0.08134
 O214 O 0.46589 -0.00119 0.18440
 O215 O 0.43368 0.00058 0.06938
 Zr216 Zr 0.52945 -0.00043 0.08211
 O217 O 0.52856 -0.00306 0.18564
 O218 O 0.56802 0.00257 0.07974
 O219 O 0.51173 0.02360 0.09474
 O220 O 0.48803 -0.02391 0.09404
 O221 O 0.43813 -0.03830 -0.11519
 O222 O 0.44559 -0.06828 -0.05584
 C223 C 0.43231 -0.06262 -0.09854
 O224 O 0.55931 0.03739 -0.12125
 O225 O 0.55337 0.06743 -0.05823
 C226 C 0.56533 0.06171 -0.10426
 O227 O 0.52344 -0.03846 -0.11535
 O228 O 0.48620 -0.06840 -0.05567
 C229 C 0.50500 -0.06278 -0.09863
 O230 O 0.47823 0.03744 -0.12186
 O231 O 0.51418 0.06746 -0.05882
 C232 C 0.49657 0.06176 -0.10508
 Zr233 Zr 0.47016 -0.00038 -0.08293
 O234 O 0.46780 -0.00338 -0.18636
 O235 O 0.43450 0.00244 -0.07955
 Zr236 Zr 0.52955 -0.00045 -0.08271
 O237 O 0.52897 -0.00343 -0.18613
 O238 O 0.56814 0.00261 -0.07920
 Zr239 Zr 0.52014 0.04025 -0.00055
 Zr240 Zr 0.47960 -0.04099 -0.00042
 O241 O 0.48812 -0.02389 -0.09495
 O242 O 0.51191 0.02370 -0.09587
 O243 O 0.45336 -0.02487 -0.00070
 O244 O 0.54562 0.02335 -0.00031
 O245 O 0.47782 0.02356 -0.00070
 O246 O 0.52193 -0.02481 -0.00024
 H247 H 0.48208 -0.03600 0.13281
 H248 H 0.56550 0.03571 -0.00024
 H249 H 0.48209 -0.03592 -0.13378
 H250 H 0.47044 0.03607 -0.00063
 H251 H 0.56609 -0.01339 0.05576
 H252 H 0.56598 -0.01383 -0.05714
 H253 H 0.52529 0.01059 -0.20378
 H254 H 0.48555 0.01053 -0.20394
 H255 H 0.42110 -0.01280 -0.05245
 H256 H 0.42727 0.00106 0.11418
 H257 H 0.47950 -0.00523 0.20289
 H258 H 0.52503 0.01117 0.20254
 C259 C 1.20021 0.49941 0.36949
 C260 C 1.18357 0.49887 0.33203
 C261 C 1.16299 0.49797 0.28936
 C262 C 1.17011 0.51424 0.23307
 C263 C 1.14991 0.51384 0.19317
 C264 C 1.12253 0.49718 0.20947
 C265 C 1.11546 0.48080 0.26549
 C266 C 1.13562 0.48120 0.30530
 C267 C 1.10159 0.49718 0.16994
 C268 C 1.08354 0.49690 0.13843
 H269 H 1.19122 0.52735 0.22038
 H270 H 1.15561 0.52663 0.15005
 H271 H 1.09437 0.46790 0.27866
 H272 H 1.12987 0.46861 0.34880
 C273 C 0.50122 0.70127 0.37048
 C274 C 0.50095 0.68495 0.33240
 C275 C 0.50057 0.66493 0.28868
 C276 C 0.52031 0.67253 0.23975
 C277 C 0.52063 0.65279 0.19954
 C278 C 0.50122 0.62538 0.20815
 C279 C 0.48130 0.61784 0.25655
 C280 C 0.48098 0.63756 0.29671
 C281 C 0.50225 0.60485 0.16918
 C282 C 0.50308 0.58732 0.13793
 H283 H 0.53562 0.69363 0.23327
 H284 H 0.53618 0.65884 0.16240
 H285 H 0.46625 0.59670 0.26378
 H286 H 0.46569 0.63143 0.33456
 C287 C 0.29800 -0.19985 0.36885
 C288 C 0.31387 -0.18389 0.32988
 C289 C 0.33332 -0.16446 0.28478
 C290 C 0.32690 -0.14767 0.24781
 C291 C 0.34636 -0.12782 0.20667
 C292 C 0.37232 -0.12470 0.20232
 C293 C 0.37861 -0.14173 0.23862
 C294 C 0.35916 -0.16156 0.27973
 C295 C 0.39295 -0.10321 0.16338
 C296 C 0.41076 -0.08488 0.13265
 H297 H 0.30702 -0.14965 0.25153
 H298 H 0.34132 -0.11467 0.17910
 H299 H 0.39866 -0.13940 0.23594
 H300 H 0.36440 -0.17434 0.30829
 C301 C 0.80067 0.50330 0.36854
 C302 C 0.81652 0.50320 0.32956
 C303 C 0.83584 0.50304 0.28438
 C304 C 0.85282 0.52631 0.24788
 C305 C 0.87260 0.52659 0.20672
 C306 C 0.87546 0.50359 0.20190
 C307 C 0.85823 0.48021 0.23771
 C308 C 0.83847 0.47993 0.27883
 C309 C 0.89689 0.50433 0.16297
 C310 C 0.91518 0.50478 0.13225
 H311 H 0.85105 0.54433 0.25199
 H312 H 0.88591 0.54483 0.17955
 H313 H 0.86036 0.46236 0.23466
 H314 H 0.82554 0.46187 0.30703
 C315 C 0.49791 0.29839 0.36844
 C316 C 0.49784 0.31428 0.32939
 C317 C 0.49790 0.33375 0.28418
 C318 C 0.52097 0.35949 0.27852
 C319 C 0.52066 0.37897 0.23730
 C320 C 0.49729 0.37283 0.20149
 C321 C 0.47433 0.34697 0.20643
 C322 C 0.47464 0.32747 0.24768
 C323 C 0.49651 0.39352 0.16251
 C324 C 0.49600 0.41136 0.13175
 H325 H 0.53902 0.36462 0.30670
 H326 H 0.53848 0.39895 0.23416
 H327 H 0.45611 0.34204 0.17924
 H328 H 0.45665 0.30767 0.25187
 C329 C 0.70111 0.19991 0.37038
 C330 C 0.68454 0.18369 0.33302
 C331 C 0.66416 0.16379 0.29042
 C332 C 0.67139 0.15726 0.23037
 C333 C 0.65151 0.13715 0.19047
 C334 C 0.62435 0.12353 0.21050
 C335 C 0.61712 0.13026 0.27024
 C336 C 0.63696 0.15032 0.31008
 C337 C 0.60391 0.10213 0.17101
 C338 C 0.58644 0.08385 0.13944
 H339 H 0.69236 0.16749 0.21475
 H340 H 0.65734 0.13206 0.14443
 H341 H 0.59620 0.11981 0.28631
 H342 H 0.63115 0.15514 0.35649
 C343 C 0.49939 0.20045 -0.37174
 C344 C 0.49969 0.18414 -0.33448
 C345 C 0.50010 0.16414 -0.29199
 C346 C 0.51327 0.15018 -0.31233
 C347 C 0.51296 0.13003 -0.27255
 C348 C 0.49948 0.12370 -0.21218
 C349 C 0.48650 0.13781 -0.19148
 C350 C 0.48680 0.15800 -0.23133
 C351 C 0.49844 0.10223 -0.17267
 C352 C 0.49757 0.08391 -0.14102
 H353 H 0.52353 0.15469 -0.35922
 H354 H 0.52302 0.11922 -0.28912
 H355 H 0.47596 0.13304 -0.14494
 H356 H 0.47649 0.16861 -0.21519
 C357 C 0.70275 0.50369 -0.37051
 C358 C 0.68683 0.50366 -0.33149
 C359 C 0.66736 0.50354 -0.28631
 C360 C 0.67360 0.52681 -0.24990
 C361 C 0.65409 0.52710 -0.20881
 C362 C 0.62826 0.50412 -0.20394
 C363 C 0.62216 0.48072 -0.23961
 C364 C 0.64165 0.48043 -0.28068
 C365 C 0.60757 0.50489 -0.16508
 C366 C 0.58973 0.50539 -0.13441
 H367 H 0.69337 0.54484 -0.25405
 H368 H 0.65898 0.54535 -0.18171
 H369 H 0.60221 0.46288 -0.23651
 H370 H 0.63655 0.46236 -0.30879
 C371 C 0.80027 0.29770 -0.36978
 C372 C 0.81619 0.31355 -0.33070
 C373 C 0.83555 0.33297 -0.28544
 C374 C 0.83822 0.35872 -0.27979
 C375 C 0.85795 0.37815 -0.23850
 C376 C 0.87511 0.37193 -0.20257
 C377 C 0.87221 0.34605 -0.20750
 C378 C 0.85245 0.32660 -0.24884
 C379 C 0.89655 0.39260 -0.16359
 C380 C 0.91485 0.41048 -0.13296
 H381 H 0.82534 0.36391 -0.30804
 H382 H 0.86011 0.39814 -0.23537
 H383 H 0.88546 0.34106 -0.18024
 H384 H 0.85063 0.30678 -0.25301
 C385 C 0.50252 -0.19992 -0.36876
 C386 C 0.50261 -0.18399 -0.32969
 C387 C 0.50261 -0.16461 -0.28438
 C388 C 0.52589 -0.14773 -0.24789
 C389 C 0.52631 -0.12789 -0.20668
 C390 C 0.50343 -0.12486 -0.20180
 C391 C 0.48002 -0.14200 -0.23757
 C392 C 0.47961 -0.16183 -0.27874
 C393 C 0.50429 -0.10334 -0.16292
 C394 C 0.50478 -0.08498 -0.13237
 H395 H 0.54384 -0.14961 -0.25210
 H396 H 0.54456 -0.11466 -0.17949
 H397 H 0.46226 -0.13976 -0.23441
 H398 H 0.46154 -0.17466 -0.30695
 C399 C 0.29978 0.50121 -0.37108
 C400 C 0.31609 0.50131 -0.33320
 C401 C 0.33595 0.50126 -0.28962
 C402 C 0.32959 0.47815 -0.25234
 C403 C 0.34936 0.47757 -0.21278
 C404 C 0.37557 0.50009 -0.21036
 C405 C 0.38184 0.52332 -0.24702
 C406 C 0.36207 0.52390 -0.28657
 C407 C 0.39628 0.49904 -0.17216
 C408 C 0.41384 0.49813 -0.14120
 H409 H 0.30951 0.46048 -0.25456
 H410 H 0.34432 0.45947 -0.18479
 H411 H 0.40206 0.54082 -0.24567
 H412 H 0.36725 0.54183 -0.31544
 C413 C 1.20022 0.70109 -0.37105
 C414 C 1.18401 0.68464 -0.33343
 C415 C 1.16417 0.66447 -0.29032
 C416 C 1.15554 0.63700 -0.30058
 C417 C 1.13536 0.61718 -0.26089
 C418 C 1.12367 0.62472 -0.21073
 C419 C 1.13249 0.65221 -0.19995
 C420 C 1.15270 0.67205 -0.23968
 C421 C 1.10207 0.60414 -0.17193
 C422 C 1.08370 0.58660 -0.14072
 H423 H 1.16418 0.63089 -0.33975
 H424 H 1.12864 0.59599 -0.26980
 H425 H 1.12355 0.65826 -0.16141
 H426 H 1.15915 0.69322 -0.23147
 C427 C 0.79987 0.50343 -0.36566
 C428 C 0.81563 0.50335 -0.32641
 C429 C 0.83495 0.50321 -0.28126
 C430 C 0.83767 0.48015 -0.27599
 C431 C 0.85763 0.48051 -0.23543
 C432 C 0.87495 0.50395 -0.19996
 C433 C 0.87195 0.52687 -0.20436
 C434 C 0.85198 0.52650 -0.24496
 C435 C 0.89662 0.50481 -0.16195
 C436 C 0.91508 0.50529 -0.13199
 H437 H 0.82471 0.46208 -0.30411
 H438 H 0.85987 0.46273 -0.23265
 H439 H 0.88533 0.54514 -0.17739
 H440 H 0.85012 0.54449 -0.24894
 C441 C 0.49774 0.29756 -0.36547
 C442 C 0.49763 0.31334 -0.32636
 C443 C 0.49765 0.33279 -0.28140
 C444 C 0.52073 0.35850 -0.27573
 C445 C 0.52032 0.37807 -0.23521
 C446 C 0.49683 0.37202 -0.20018
 C447 C 0.47386 0.34618 -0.20504
 C448 C 0.47427 0.32659 -0.24560
 C449 C 0.49595 0.39282 -0.16217
 C450 C 0.49549 0.41081 -0.13222
 H451 H 0.53886 0.36356 -0.30346
 H452 H 0.53814 0.39805 -0.23211
 H453 H 0.45554 0.34136 -0.17844
 H454 H 0.45626 0.30681 -0.24989
 C455 C 0.70168 0.20063 -0.36739
 C456 C 0.68511 0.18442 -0.33011
 C457 C 0.66464 0.16443 -0.28803
 C458 C 0.63766 0.15041 -0.30927
 C459 C 0.61773 0.13015 -0.27008
 C460 C 0.62468 0.12379 -0.20943
 C461 C 0.65162 0.13798 -0.18779
 C462 C 0.67159 0.15829 -0.22708
 C463 C 0.60417 0.10224 -0.17060
 C464 C 0.58661 0.08386 -0.13956
 H465 H 0.63209 0.15493 -0.35642
 H466 H 0.59698 0.11925 -0.28733
 H467 H 0.65720 0.13317 -0.14101
 H468 H 0.69241 0.16896 -0.21031
 C469 C 1.20087 0.50000 -0.36800
 C470 C 1.18420 0.49946 -0.33078
 C471 C 1.16346 0.49843 -0.28874
 C472 C 1.17028 0.51356 -0.23066
 C473 C 1.14990 0.51303 -0.19133
 C474 C 1.12267 0.49737 -0.21004
 C475 C 1.11589 0.48211 -0.26783
 C476 C 1.13622 0.48264 -0.30706
 C477 C 1.10160 0.49728 -0.17111
 C478 C 1.08348 0.49697 -0.14006
 H479 H 1.19128 0.52588 -0.21613
 H480 H 1.15534 0.52493 -0.14676
 H481 H 1.09492 0.46999 -0.28280
 H482 H 1.13073 0.47093 -0.35196
 C483 C 0.50103 0.70172 -0.37098
 C484 C 0.50076 0.68551 -0.33252
 C485 C 0.50049 0.66566 -0.28842
 C486 C 0.52326 0.67204 -0.24985
 C487 C 0.52359 0.65218 -0.21010
 C488 C 0.50116 0.62589 -0.20882
 C489 C 0.47824 0.61963 -0.24665
 C490 C 0.47791 0.63948 -0.28638
 C491 C 0.50205 0.60505 -0.17090
 C492 C 0.50283 0.58735 -0.14032
 H493 H 0.54088 0.69219 -0.25133
 H494 H 0.54145 0.65719 -0.18121
 H495 H 0.46083 0.59933 -0.24619
 H496 H 0.46026 0.63430 -0.31627
 C497 C 0.29721 -0.20038 -0.36527
 C498 C 0.31299 -0.18447 -0.32618
 C499 C 0.33241 -0.16502 -0.28121
 C500 C 0.32612 -0.14794 -0.24519
 C501 C 0.34567 -0.12793 -0.20458
 C502 C 0.37155 -0.12496 -0.19989
 C503 C 0.37769 -0.14232 -0.23512
 C504 C 0.35816 -0.16231 -0.27568
 C505 C 0.39228 -0.10326 -0.16182
 C506 C 0.41023 -0.08481 -0.13182
 H507 H 0.30631 -0.14979 -0.24935
 H508 H 0.34079 -0.11451 -0.17780
 H509 H 0.39769 -0.14010 -0.23216
 H510 H 0.36328 -0.17532 -0.30357
 C511 C 0.50269 -0.20036 0.36532
 C512 C 0.50281 -0.18445 0.32617
 C513 C 0.50281 -0.16501 0.28114
 C514 C 0.52603 -0.14819 0.24441
 C515 C 0.52647 -0.12818 0.20370
 C516 C 0.50369 -0.12496 0.19963
 C517 C 0.48034 -0.14206 0.23559
 C518 C 0.47991 -0.16204 0.27626
 C519 C 0.50459 -0.10330 0.16143
 C520 C 0.50506 -0.08486 0.13133
 H521 H 0.54389 -0.15024 0.24809
 H522 H 0.54468 -0.11496 0.17636
 H523 H 0.46268 -0.13963 0.23308
 H524 H 0.46190 -0.17485 0.30470
 C525 C 0.29993 0.50047 0.36867
 C526 C 0.31604 0.50011 0.33111
 C527 C 0.33569 0.49927 0.28846
 C528 C 0.34349 0.47982 0.29913
 C529 C 0.36334 0.47947 0.25973
 C530 C 0.37551 0.49856 0.20945
 C531 C 0.36757 0.51790 0.19834
 C532 C 0.34768 0.51826 0.23783
 C533 C 0.39652 0.49853 0.17058
 C534 C 0.41428 0.49817 0.13938
 H535 H 0.33443 0.46512 0.33831
 H536 H 0.36939 0.46448 0.26885
 H537 H 0.37691 0.53279 0.15967
 H538 H 0.34185 0.53344 0.22934
 C539 C 1.20006 0.70068 0.36888
 C540 C 1.18400 0.68426 0.33109
 C541 C 1.16426 0.66407 0.28801
 C542 C 1.15261 0.67157 0.23757
 C543 C 1.13237 0.65167 0.19811
 C544 C 1.12371 0.62422 0.20900
 C545 C 1.13559 0.61677 0.25892
 C546 C 1.15582 0.63665 0.29833
 C547 C 1.10206 0.60360 0.17060
 C548 C 1.08366 0.58605 0.13960
 H549 H 1.15891 0.69272 0.22937
 H550 H 1.12324 0.65764 0.15975
 H551 H 1.12898 0.59560 0.26789
 H552 H 1.16460 0.63062 0.33740
 C553 C 0.49964 0.20037 0.36896
 C554 C 0.50001 0.18418 0.33164
 C555 C 0.50047 0.16422 0.28937
 C556 C 0.48684 0.15775 0.22914
 C557 C 0.48647 0.13748 0.18969
 C558 C 0.49973 0.12364 0.21042
 C559 C 0.51356 0.13030 0.27033
 C560 C 0.51392 0.15054 0.30971
 C561 C 0.49865 0.10210 0.17139
 C562 C 0.49776 0.08376 0.14005
 H563 H 0.47630 0.16816 0.21308
 H564 H 0.47566 0.13241 0.14349
 H565 H 0.52381 0.11967 0.28689
 H566 H 0.52443 0.15531 0.35631
 C567 C 0.70279 0.50364 0.36580
 C568 C 0.68707 0.50361 0.32624
 C569 C 0.66775 0.50351 0.28068
 C570 C 0.67410 0.52682 0.24422
 C571 C 0.65465 0.52718 0.20305
 C572 C 0.62879 0.50424 0.19823
 C573 C 0.62260 0.48081 0.23392
 C574 C 0.64204 0.48044 0.27505
 C575 C 0.60810 0.50510 0.15972
 C576 C 0.59019 0.50558 0.12945
 H577 H 0.69389 0.54481 0.24849
 H578 H 0.65957 0.54546 0.17601
 H579 H 0.60260 0.46303 0.23091
 H580 H 0.63687 0.46237 0.30329
 C581 C 0.80049 0.29766 0.36650
 C582 C 0.81623 0.31333 0.32698
 C583 C 0.83543 0.33263 0.28144
 C584 C 0.83788 0.35827 0.27523
 C585 C 0.85763 0.37772 0.23409
 C586 C 0.87502 0.37161 0.19897
 C587 C 0.87231 0.34583 0.20433
 C588 C 0.85253 0.32635 0.24552
 C589 C 0.89655 0.39234 0.16052
 C590 C 0.91491 0.41028 0.13032
 H591 H 0.82485 0.36337 0.30304
 H592 H 0.85968 0.39765 0.23059
 H593 H 0.88576 0.34096 0.17766
 H594 H 0.85088 0.30663 0.25021
   
