data_POSCAR
  _audit_creation_date              2014-09-24
  _audit_creation_method            'ToBaCCo'
  _symmetry_space_group_name_H-M    'P1'
  _symmetry_Int_Tables_number       1
  _symmetry_cell_setting            triclinic
  loop_
  _symmetry_equiv_pos_as_xyz
 x,y,z
_cell_length_a 33.4767
_cell_length_b 20.9156
_cell_length_c 11.3487
_cell_angle_alpha 90.401400
_cell_angle_beta 89.792300
_cell_angle_gamma 90.007100
loop_
  _atom_site_label
  _atom_site_type_symbol
  _atom_site_fract_x
  _atom_site_fract_y
  _atom_site_fract_z
C1 C 0.71884 0.27505 0.56296
 C2 C 0.71958 0.28135 0.43847
 C3 C 0.74917 0.24978 0.37257
 C4 C 0.77796 0.21028 0.42580
 C5 C 0.77827 0.20571 0.55160
 C6 C 0.74729 0.23527 0.61618
 H7 H 0.74823 0.23449 0.71128
 H8 H 0.74781 0.25264 0.27728
 C9 C 0.22111 0.78044 0.56413
 C10 C 0.21978 0.78089 0.43946
 C11 C 0.24993 0.74947 0.37543
 C12 C 0.28149 0.71764 0.43151
 C13 C 0.28324 0.71794 0.55689
 C14 C 0.25202 0.74743 0.62041
 H15 H 0.25338 0.74918 0.71586
 H16 H 0.24802 0.74804 0.28007
 C17 C 0.28036 0.27470 -0.57323
 C18 C 0.28583 0.26485 -0.45103
 C19 C 0.25698 0.23087 -0.38748
 C20 C 0.22130 0.21001 -0.44044
 C21 C 0.21579 0.21995 -0.56417
 C22 C 0.24518 0.25364 -0.62733
 H23 H 0.24212 0.25987 -0.72167
 H24 H 0.26124 0.22462 -0.29374
 C25 C -0.22152 0.78405 -0.57072
 C26 C -0.21779 0.77426 -0.44819
 C27 C -0.24611 0.73714 -0.38907
 C28 C -0.27974 0.71221 -0.44774
 C29 C -0.28368 0.72249 -0.57201
 C30 C -0.25479 0.75958 -0.63028
 H31 H -0.25613 0.76522 -0.72474
 H32 H -0.24328 0.73196 -0.29447
 O33 O -0.05669 0.88714 0.20251
 O34 O -0.10004 0.94183 0.08427
 C35 C -0.09239 0.90220 0.16843
 O36 O 0.05095 1.11920 0.20622
 O37 O 0.09754 1.05818 0.10747
 C38 C 0.08747 1.10267 0.18162
 O39 O -0.06192 1.10656 0.20524
 O40 O -0.10270 1.04658 0.08526
 C41 C -0.09685 1.08748 0.16935
 O42 O 0.05465 0.88466 0.20417
 O43 O 0.09907 0.94769 0.10416
 C44 C 0.09066 0.90289 0.17864
 Zr45 Zr -0.00064 0.91828 0.13999
 O46 O 0.00109 0.91488 0.32626
 O47 O -0.00368 0.81719 0.13124
 Zr48 Zr -0.00375 1.08002 0.14525
 O49 O -0.00174 1.07848 0.33175
 O50 O -0.01036 1.18064 0.14939
 O51 O -0.03798 0.99742 0.16127
 O52 O 0.03209 1.00064 0.16863
 O53 O 0.06116 0.88692 -0.20804
 O54 O 0.10230 0.95035 -0.09514
 C55 C 0.09611 0.90639 -0.17381
 O56 O -0.05409 1.10988 -0.22400
 O57 O -0.09902 1.05064 -0.11753
 C58 C -0.09019 1.09287 -0.19657
 O59 O 0.05735 1.11859 -0.20139
 O60 O 0.10076 1.05903 -0.09138
 C61 C 0.09311 1.10265 -0.16858
 O62 O -0.05108 0.88459 -0.22671
 O63 O -0.09747 0.94349 -0.12293
 C64 C -0.08758 0.90088 -0.20123
 Zr65 Zr 0.00358 0.91936 -0.15647
 O66 O 0.00988 0.92123 -0.34219
 O67 O 0.00172 0.81817 -0.15878
 Zr68 Zr 0.00101 1.08120 -0.15163
 O69 O 0.00776 1.08373 -0.33710
 O70 O -0.00482 1.18203 -0.14662
 Zr71 Zr -0.05937 0.99730 -0.01345
 Zr72 Zr 0.05955 1.00247 0.00149
 O73 O 0.03708 1.00190 -0.17164
 O74 O -0.03293 0.99895 -0.18215
 O75 O 0.03751 0.90801 -0.00425
 O76 O -0.03625 1.09084 -0.00723
 O77 O -0.03321 0.90580 -0.01238
 O78 O 0.03413 1.09477 0.00142
 H79 H 0.04899 1.00110 0.24015
 H80 H -0.05491 1.12762 -0.00782
 H81 H 0.05581 1.00308 -0.23941
 H82 H -0.05074 0.86763 -0.01441
 H83 H 0.01104 1.19876 0.09950
 H84 H 0.01801 1.19938 -0.10147
 H85 H -0.01204 1.05382 -0.37111
 H86 H -0.01359 0.94385 -0.37431
 H87 H 0.02386 0.80272 -0.10902
 H88 H 0.02116 0.80167 0.09319
 H89 H -0.01904 0.94553 0.35634
 H90 H -0.02513 1.05388 0.35964
 O91 O 0.44333 0.38411 0.19673
 O92 O 0.39974 0.44091 0.08216
 C93 C 0.40755 0.39898 0.16258
 O94 O 0.55286 0.61782 0.20002
 O95 O 0.59888 0.55535 0.10247
 C96 C 0.58923 0.60034 0.17608
 O97 O 0.44097 0.60760 0.20252
 O98 O 0.39904 0.54824 0.08490
 C99 C 0.40580 0.58947 0.16821
 O100 O 0.55513 0.38400 0.20372
 O101 O 0.59992 0.44531 0.10114
 C102 C 0.59126 0.40181 0.17789
 Zr103 Zr 0.49973 0.41772 0.13962
 O104 O 0.50089 0.41994 0.32623
 O105 O 0.49721 0.31656 0.14042
 Zr106 Zr 0.49795 0.57912 0.13954
 O107 O 0.50020 0.58013 0.32600
 O108 O 0.49203 0.67990 0.13758
 O109 O 0.46280 0.49732 0.15882
 O110 O 0.53321 0.49953 0.16507
 O111 O 0.56122 0.38213 -0.20765
 O112 O 0.60293 0.44602 -0.09763
 C113 C 0.59637 0.40132 -0.17455
 O114 O 0.44742 0.60742 -0.23028
 O115 O 0.40192 0.55006 -0.12243
 C116 C 0.41115 0.59198 -0.20225
 O117 O 0.55792 0.61395 -0.20992
 O118 O 0.60150 0.55593 -0.09781
 C119 C 0.59369 0.59841 -0.17723
 O120 O 0.44930 0.38184 -0.22630
 O121 O 0.40282 0.44032 -0.12256
 C122 C 0.41270 0.39728 -0.20041
 Zr123 Zr 0.50388 0.41640 -0.15707
 O124 O 0.51023 0.41730 -0.34286
 O125 O 0.50143 0.31523 -0.15841
 Zr126 Zr 0.50194 0.57763 -0.15691
 O127 O 0.50837 0.57796 -0.34260
 O128 O 0.49678 0.67859 -0.15374
 Zr129 Zr 0.44097 0.49598 -0.01547
 Zr130 Zr 0.56054 0.49949 -0.00233
 O131 O 0.53783 0.49800 -0.17506
 O132 O 0.46738 0.49585 -0.18442
 O133 O 0.53773 0.40551 -0.00473
 O134 O 0.46493 0.58903 -0.01235
 O135 O 0.46723 0.40443 -0.01251
 O136 O 0.53563 0.59207 -0.00506
 H137 H 0.55009 0.50042 0.23660
 H138 H 0.44657 0.62618 -0.01359
 H139 H 0.55647 0.49819 -0.24307
 H140 H 0.45008 0.36583 -0.01431
 H141 H 0.51470 0.69718 0.09164
 H142 H 0.51987 0.69590 -0.10968
 H143 H 0.48809 0.54848 -0.37538
 H144 H 0.48652 0.43898 -0.37567
 H145 H 0.52298 0.29963 -0.10662
 H146 H 0.52030 0.30053 0.09435
 H147 H 0.47647 0.44218 0.35377
 H148 H 0.47880 0.55155 0.35480
 C149 C 0.30573 0.35905 0.28760
 C150 C 0.31180 0.30355 0.35207
 C151 C 0.34952 0.27419 0.33739
 C152 C 0.38064 0.30501 0.27488
 C153 C 0.37417 0.36433 0.21847
 C154 C 0.33507 0.38740 0.22262
 C155 C 0.30880 0.44170 0.18862
 C156 C 0.27587 0.40971 0.26290
 H157 H 0.35505 0.22752 0.37406
 H158 H 0.40965 0.28219 0.27064
 H159 H 0.30227 0.44194 0.09281
 H160 H 0.31883 0.48795 0.22540
 H161 H 0.25039 0.39148 0.20990
 H162 H 0.26766 0.43736 0.34342
 C163 C -0.14943 0.79982 0.38143
 C164 C -0.18936 0.81556 0.36102
 C165 C -0.19738 0.86425 0.27902
 C166 C -0.16596 0.89332 0.21591
 C167 C -0.12607 0.87346 0.23266
 C168 C -0.11865 0.82830 0.31993
 C169 C -0.09554 0.76731 0.31260
 C170 C -0.12950 0.73605 0.38003
 H171 H -0.22779 0.87965 0.26379
 H172 H -0.17297 0.93034 0.15306
 H173 H -0.06729 0.76986 0.36362
 H174 H -0.09231 0.74921 0.22067
 H175 H -0.12066 0.72036 0.46952
 H176 H -0.14617 0.69992 0.32727
 C177 C 0.66040 0.72626 0.28807
 C178 C 0.68664 0.69149 0.35995
 C179 C 0.67829 0.62565 0.37506
 C180 C 0.64651 0.59601 0.31509
 C181 C 0.62159 0.63163 0.24086
 C182 C 0.62790 0.69741 0.23331
 C183 C 0.63154 0.73809 0.12662
 C184 C 0.66752 0.76910 0.18503
 H185 H 0.69697 0.59669 0.43128
 H186 H 0.64161 0.54517 0.32587
 H187 H 0.60576 0.77113 0.11738
 H188 H 0.63918 0.71007 0.04593
 H189 H 0.66268 0.82030 0.20769
 H190 H 0.69569 0.75843 0.13676
 C191 C 0.16938 1.13104 0.39940
 C192 C 0.18359 1.19245 0.37259
 C193 C 0.16307 1.22624 0.28348
 C194 C 0.13084 1.19787 0.22255
 C195 C 0.11945 1.13452 0.24648
 C196 C 0.13810 1.10311 0.33895
 C197 C 0.15683 1.03845 0.34311
 C198 C 0.19113 1.06911 0.41041
 H199 H 0.17144 1.27481 0.26205
 H200 H 0.11580 1.22450 0.15428
 H201 H 0.16568 1.02074 0.25429
 H202 H 0.13914 1.00436 0.39700
 H203 H 0.21988 1.06860 0.36106
 H204 H 0.19295 1.05297 0.50336
 C205 C 0.67697 0.28417 -0.25894
 C206 C 0.69248 0.31041 -0.36330
 C207 C 0.68167 0.37454 -0.38749
 C208 C 0.65126 0.40530 -0.32249
 C209 C 0.63128 0.37282 -0.23177
 C210 C 0.64674 0.31427 -0.19585
 C211 C 0.62641 0.25290 -0.16745
 C212 C 0.65966 0.21953 -0.23597
 H213 H 0.69579 0.40052 -0.45845
 H214 H 0.64196 0.45297 -0.34718
 H215 H 0.59664 0.24846 -0.20991
 H216 H 0.62697 0.24263 -0.07151
 H217 H 0.64921 0.19518 -0.31757
 H218 H 0.67939 0.19018 -0.17926
 C219 C 0.17707 0.79043 -0.25729
 C220 C 0.19273 0.81709 -0.36064
 C221 C 0.18191 0.88085 -0.38599
 C222 C 0.15113 0.91130 -0.32177
 C223 C 0.13120 0.87862 -0.23086
 C224 C 0.14680 0.82024 -0.19460
 C225 C 0.12701 0.75845 -0.16530
 C226 C 0.16067 0.72543 -0.23305
 H227 H 0.19570 0.90591 -0.45869
 H228 H 0.14147 0.95866 -0.34728
 H229 H 0.09732 0.75311 -0.20789
 H230 H 0.12758 0.74867 -0.06918
 H231 H 0.15057 0.70000 -0.31391
 H232 H 0.18078 0.69724 -0.17552
 C233 C 0.30944 0.66126 -0.27152
 C234 C 0.31573 0.69276 -0.37888
 C235 C 0.35578 0.69930 -0.41690
 C236 C 0.38688 0.66711 -0.35896
 C237 C 0.37884 0.62760 -0.26129
 C238 C 0.34007 0.62873 -0.21541
 C239 C 0.31342 0.57441 -0.18411
 C240 C 0.27969 0.61045 -0.24298
 H241 H 0.36310 0.72794 -0.49307
 H242 H 0.41692 0.67137 -0.39371
 H243 H 0.30949 0.56948 -0.08728
 H244 H 0.32195 0.53020 -0.23273
 H245 H 0.25656 0.62767 -0.17982
 H246 H 0.26790 0.58587 -0.32282
 C247 C -0.19322 1.15058 -0.27517
 C248 C -0.18894 1.18054 -0.38472
 C249 C -0.14877 1.18697 -0.42481
 C250 C -0.11658 1.15867 -0.36385
 C251 C -0.12307 1.12463 -0.25836
 C252 C -0.16212 1.12391 -0.21624
 C253 C -0.18758 1.09887 -0.11925
 C254 C -0.22305 1.12736 -0.18674
 H255 H -0.14184 1.21415 -0.50302
 H256 H -0.08676 1.16317 -0.40015
 H257 H -0.18151 1.12352 -0.03419
 H258 H -0.18811 1.04590 -0.11464
 H259 H -0.23799 1.16664 -0.13711
 H260 H -0.24338 1.09055 -0.22440
 C261 C 0.64941 0.69357 -0.40498
 C262 C 0.68982 0.68303 -0.37969
 C263 C 0.69844 0.64170 -0.28467
 C264 C 0.66746 0.61396 -0.21752
 C265 C 0.62715 0.62836 -0.24132
 C266 C 0.61910 0.66690 -0.33839
 C267 C 0.59413 0.72589 -0.34495
 C268 C 0.62741 0.75528 -0.41772
 H269 H 0.72903 0.62972 -0.26343
 H270 H 0.67514 0.58206 -0.14636
 H271 H 0.58989 0.74943 -0.25761
 H272 H 0.56626 0.71782 -0.39591
 H273 H 0.64266 0.79583 -0.37268
 H274 H 0.61839 0.76457 -0.51008
 C275 C 0.15056 1.20137 -0.38685
 C276 C 0.19065 1.18545 -0.36731
 C277 C 0.19847 1.14127 -0.27638
 C278 C 0.16699 1.11491 -0.20939
 C279 C 0.12700 1.13337 -0.22935
 C280 C 0.11972 1.17564 -0.32139
 C281 C 0.09714 1.23724 -0.32100
 C282 C 0.13108 1.26531 -0.39337
 H283 H 0.22866 1.12526 -0.25960
 H284 H 0.17401 1.08008 -0.14243
 H285 H 0.09442 1.25869 -0.23137
 H286 H 0.06867 1.23345 -0.37069
 H287 H 0.14816 1.30306 -0.34595
 H288 H 0.12216 1.27742 -0.48479
 C289 C 0.31042 0.35241 -0.31856
 C290 C 0.31839 0.29714 -0.38525
 C291 C 0.35801 0.27495 -0.39006
 C292 C 0.38884 0.30854 -0.33324
 C293 C 0.38050 0.36317 -0.26385
 C294 C 0.34080 0.38404 -0.25746
 C295 C 0.31544 0.39188 -0.14976
 C296 C 0.28212 0.35938 -0.21696
 H297 H 0.36511 0.23061 -0.43465
 H298 H 0.41898 0.29003 -0.33974
 H299 H 0.30871 0.44233 -0.12761
 H300 H 0.32652 0.36323 -0.07438
 H301 H 0.25692 0.39201 -0.23755
 H302 H 0.27317 0.31321 -0.17704
 C303 C -0.18078 0.87142 -0.37643
 C304 C -0.18562 0.80525 -0.37902
 C305 C -0.15659 0.76933 -0.31751
 C306 C -0.12386 0.80015 -0.26100
 C307 C -0.12008 0.86757 -0.26241
 C308 C -0.14986 0.90075 -0.32083
 C309 C -0.16170 0.96562 -0.36017
 C310 C -0.19705 0.93277 -0.42225
 H311 H -0.15852 0.71767 -0.31617
 H312 H -0.10186 0.77148 -0.21578
 H313 H -0.13962 0.98683 -0.42200
 H314 H -0.17089 0.99655 -0.28570
 H315 H -0.19534 0.93646 -0.51953
 H316 H -0.22655 0.94488 -0.38280
 C317 C 0.32435 0.70499 0.25038
 C318 C 0.30940 0.67985 0.35584
 C319 C 0.32161 0.61737 0.38587
 C320 C 0.35316 0.58744 0.32427
 C321 C 0.37114 0.61764 0.22733
 C322 C 0.35433 0.67440 0.18711
 C323 C 0.37376 0.73607 0.15474
 C324 C 0.34082 0.76965 0.22422
 H325 H 0.30887 0.59366 0.46170
 H326 H 0.36445 0.54198 0.35495
 H327 H 0.37230 0.74509 0.05843
 H328 H 0.40386 0.74180 0.19456
 H329 H 0.32041 0.79799 0.16790
 H330 H 0.35177 0.79483 0.30446
 C331 C -0.18127 1.19915 0.24574
 C332 C -0.19642 1.17376 0.35124
 C333 C -0.18396 1.11081 0.37951
 C334 C -0.15209 1.08141 0.31795
 C335 C -0.13252 1.11403 0.22647
 C336 C -0.14989 1.17020 0.18570
 C337 C -0.13134 1.23240 0.15345
 C338 C -0.16561 1.26451 0.21945
 H339 H -0.19714 1.08577 0.45326
 H340 H -0.14143 1.03507 0.34601
 H341 H -0.13209 1.24069 0.05683
 H342 H -0.10178 1.23991 0.19574
 H343 H -0.18593 1.29160 0.16077
 H344 H -0.15595 1.29071 0.30006
 C345 C 0.64711 0.30134 0.39799
 C346 C 0.68725 0.31430 0.37346
 C347 C 0.69571 0.36167 0.28917
 C348 C 0.66459 0.39087 0.22566
 C349 C 0.62440 0.37279 0.24442
 C350 C 0.61656 0.32989 0.33563
 C351 C 0.59207 0.27019 0.33627
 C352 C 0.62563 0.23909 0.40530
 H353 H 0.72633 0.37523 0.27113
 H354 H 0.67214 0.42621 0.15997
 H355 H 0.58806 0.24944 0.24659
 H356 H 0.56412 0.27600 0.38845
 H357 H 0.64112 0.20015 0.35600
 H358 H 0.61695 0.22740 0.49722
 C359 C 0.14696 0.79997 0.39301
 C360 C 0.18731 0.81227 0.37240
 C361 C 0.19579 0.85559 0.27997
 C362 C 0.16459 0.88486 0.21506
 C363 C 0.12396 0.87155 0.24062
 C364 C 0.11719 0.82779 0.33029
 C365 C 0.08486 0.79361 0.39418
 C366 C 0.11840 0.76180 0.46518
 H367 H 0.22647 0.86721 0.25847
 H368 H 0.17237 0.91780 0.14550
 H369 H 0.06838 0.75980 0.33607
 H370 H 0.06596 0.82669 0.44746
 H371 H 0.12124 0.70958 0.44844
 H372 H 0.11788 0.77652 0.55915
   
