data_POSCAR
  _audit_creation_date              2014-09-24
  _audit_creation_method            'ToBaCCo'
  _symmetry_space_group_name_H-M    'P1'
  _symmetry_Int_Tables_number       1
  _symmetry_cell_setting            triclinic
  loop_
  _symmetry_equiv_pos_as_xyz
 x,y,z
_cell_length_a 28.9305
_cell_length_b 28.8427
_cell_length_c 34.8407
_cell_angle_alpha 89.955500
_cell_angle_beta 88.426200
_cell_angle_gamma 89.898200
loop_
  _atom_site_label
  _atom_site_type_symbol
  _atom_site_fract_x
  _atom_site_fract_y
  _atom_site_fract_z
C1 C 0.00055 0.54469 1.02138
 C2 C -0.00118 0.54463 0.98088
 C3 C -0.00228 0.50239 0.96106
 C4 C -0.00145 0.46028 0.98107
 C5 C 0.00076 0.46031 1.02145
 C6 C 0.00162 0.50250 1.04135
 H7 H 0.00313 0.50250 1.07246
 H8 H -0.00379 0.50220 0.92996
 C9 C 0.45809 -0.00611 0.51930
 C10 C 0.45934 -0.00579 0.47887
 C11 C 0.50196 -0.00589 0.45879
 C12 C 0.54341 -0.00598 0.47872
 C13 C 0.54212 -0.00585 0.51923
 C14 C 0.49946 -0.00608 0.53924
 H15 H 0.49845 -0.00605 0.57039
 H16 H 0.50279 -0.00571 0.42763
 C17 C 0.10214 0.00730 0.26266
 H18 H 0.10405 0.00954 0.23166
 C19 C 0.14262 0.00761 0.28355
 H20 H 0.17589 0.01001 0.26864
 C21 C 0.05646 0.00146 0.32005
 H22 H 0.02284 -0.00047 0.33419
 C23 C 0.09614 0.00166 0.34206
 H24 H 0.09299 -0.00050 0.37306
 N25 N 0.06020 0.00353 0.28104
 C26 C -0.02896 -0.05975 0.19680
 H27 H -0.05674 -0.03464 0.19602
 C28 C -0.03099 -0.10008 0.17470
 H29 H -0.06032 -0.10605 0.15668
 C30 C 0.04277 -0.08336 0.22189
 H31 H 0.07102 -0.07728 0.24083
 C32 C 0.04208 -0.12408 0.20028
 H33 H 0.07003 -0.14893 0.20239
 Zn34 Zn 0.00750 0.00243 0.25000
 N35 N 0.00776 -0.05196 0.21953
 C36 C 0.00861 0.05368 0.17982
 N37 N 0.00968 0.05623 0.21881
 C38 C 0.01304 0.09772 0.23708
 C39 C 0.01387 0.13897 0.21611
 C40 C 0.00936 0.09417 0.15774
 C41 C -0.05628 -0.03543 0.30353
 C42 C -0.09720 -0.03794 0.32571
 C43 C -0.12006 0.03612 0.29981
 C44 C -0.07878 0.03727 0.27814
 N45 N -0.04766 0.00199 0.28061
 H46 H 0.00699 0.02040 0.16577
 H47 H 0.01447 0.09868 0.26807
 H48 H 0.01587 0.17188 0.23093
 H49 H 0.00792 0.09197 0.12675
 H50 H -0.03137 -0.06341 0.30441
 H51 H -0.10383 -0.06782 0.34388
 H52 H -0.14467 0.06430 0.29760
 H53 H -0.07202 0.06609 0.25904
 C54 C 0.00491 -0.13249 0.17648
 C55 C 0.13959 0.00446 0.32358
 C56 C -0.12933 -0.00177 0.32381
 C57 C 0.01168 0.13718 0.17610
 C58 C -0.01331 0.09665 0.76328
 H59 H -0.01463 0.09776 0.73229
 C60 C -0.01426 0.13780 0.78434
 H61 H -0.01622 0.17079 0.76958
 C62 C -0.00907 0.05232 0.82046
 H63 H -0.00749 0.01896 0.83446
 C64 C -0.00995 0.09269 0.84264
 H65 H -0.00863 0.09034 0.87362
 N66 N -0.00999 0.05505 0.78147
 C67 C 0.05630 -0.03645 0.69675
 H68 H 0.03146 -0.06441 0.69587
 C69 C 0.09717 -0.03890 0.67449
 H70 H 0.10385 -0.06873 0.65628
 C71 C 0.07860 0.03618 0.72215
 H72 H 0.07178 0.06496 0.74126
 C73 C 0.11984 0.03509 0.70040
 H74 H 0.14435 0.06327 0.70257
 Zn75 Zn -0.00762 0.00137 0.75022
 N76 N 0.04759 0.00092 0.71969
 C77 C -0.05630 0.00077 0.68007
 N78 N -0.06023 0.00264 0.71907
 C79 C -0.10226 0.00635 0.73733
 C80 C -0.14264 0.00678 0.71631
 C81 C -0.09588 0.00110 0.65794
 C82 C 0.02884 -0.06097 0.80345
 C83 C 0.03085 -0.10126 0.82567
 C84 C -0.04216 -0.12509 0.80004
 C85 C -0.04282 -0.08441 0.77833
 N86 N -0.00784 -0.05310 0.78067
 H87 H -0.02262 -0.00109 0.66602
 H88 H -0.10432 0.00845 0.76834
 H89 H -0.17598 0.00913 0.73112
 H90 H -0.09258 -0.00091 0.62694
 H91 H 0.05660 -0.03593 0.80423
 H92 H 0.06013 -0.10727 0.84376
 H93 H -0.07010 -0.14984 0.79797
 H94 H -0.07104 -0.07826 0.75934
 C95 C 0.12916 -0.00274 0.67635
 C96 C -0.01222 0.13579 0.82435
 C97 C -0.00504 -0.13354 0.82394
 C98 C -0.13941 0.00383 0.67628
 C99 C -0.04179 -0.27846 0.10173
 C100 C -0.01639 -0.28823 0.06282
 C101 C 0.00152 -0.33416 0.07920
 C102 C -0.02389 -0.32508 0.11776
 C103 C 0.00196 -0.25453 0.11591
 C104 C 0.01987 -0.30048 0.13223
 C105 C 0.02736 -0.26359 0.07732
 C106 C 0.04526 -0.31022 0.09335
 C107 C 0.00130 -0.37849 0.05880
 C108 C 0.00103 -0.41471 0.04161
 C109 C 0.00250 -0.21055 0.13688
 C110 C 0.00334 -0.17476 0.15466
 H111 H -0.07757 -0.26488 0.10538
 H112 H -0.03128 -0.28376 0.03401
 H113 H -0.04493 -0.35087 0.13416
 H114 H 0.03479 -0.30503 0.16101
 H115 H 0.04840 -0.23782 0.06089
 H116 H 0.08103 -0.32379 0.08969
 C117 C 0.05018 0.28186 0.09437
 C118 C 0.01892 0.29259 0.06004
 C119 C 0.00547 0.33900 0.07893
 C120 C 0.03669 0.32896 0.11291
 C121 C 0.00865 0.25929 0.11546
 C122 C -0.00480 0.30572 0.13429
 C123 C -0.02258 0.26931 0.08145
 C124 C -0.03605 0.31641 0.09999
 C125 C 0.00367 0.38339 0.05863
 C126 C 0.00225 0.41967 0.04155
 C127 C 0.01018 0.21528 0.13639
 C128 C 0.01110 0.17946 0.15419
 H129 H 0.08563 0.26713 0.09227
 H130 H 0.02863 0.28776 0.02924
 H131 H 0.06101 0.35400 0.12563
 H132 H -0.01454 0.31064 0.16507
 H133 H -0.04689 0.24428 0.06871
 H134 H -0.07150 0.33114 0.10208
 C135 C 0.26362 0.02215 0.57875
 C136 C 0.31013 0.03685 0.59603
 C137 C 0.33304 -0.00646 0.57826
 C138 C 0.28724 -0.02118 0.56062
 C139 C 0.25256 -0.00618 0.61522
 C140 C 0.27545 -0.04950 0.59742
 C141 C 0.29840 0.00855 0.63279
 C142 C 0.32198 -0.03478 0.61470
 C143 C 0.37790 -0.00642 0.55778
 C144 C 0.41461 -0.00629 0.54061
 C145 C 0.20811 -0.00560 0.63637
 C146 C 0.17192 -0.00461 0.65431
 H147 H 0.23913 0.04552 0.56416
 H148 H 0.32490 0.07235 0.59524
 H149 H 0.28323 -0.03338 0.53068
 H150 H 0.26067 -0.08499 0.59821
 H151 H 0.30250 0.02078 0.66271
 H152 H 0.34649 -0.05815 0.62926
 C153 C -0.28249 0.04302 0.59768
 C154 C -0.29058 0.01460 0.56073
 C155 C -0.33682 -0.00237 0.57830
 C156 C -0.32941 0.02602 0.61489
 C157 C -0.25882 0.00057 0.61523
 C158 C -0.30509 -0.01640 0.63275
 C159 C -0.26621 -0.02782 0.57861
 C160 C -0.31315 -0.04481 0.59583
 C161 C -0.38029 -0.00390 0.55782
 C162 C -0.41583 -0.00494 0.54063
 C163 C -0.21578 0.00207 0.63636
 C164 C -0.18076 0.00305 0.65428
 H165 H -0.26938 0.07913 0.59864
 H166 H -0.28516 0.02731 0.53085
 H167 H -0.35589 0.04811 0.62959
 H168 H -0.31058 -0.02913 0.66260
 H169 H -0.23973 -0.04989 0.56389
 H170 H -0.32626 -0.08092 0.59485
 C171 C -0.01731 -0.30179 0.86823
 C172 C 0.02598 -0.32490 0.88519
 C173 C -0.00199 -0.33454 0.92244
 C174 C -0.04527 -0.31208 0.90581
 C175 C -0.00232 -0.25520 0.88521
 C176 C -0.03029 -0.26482 0.92249
 C177 C 0.04096 -0.27764 0.90187
 C178 C 0.01299 -0.28797 0.93948
 C179 C -0.00184 -0.37872 0.94312
 C180 C -0.00162 -0.41485 0.96049
 C181 C -0.00279 -0.21138 0.86395
 C182 C -0.00357 -0.17570 0.84597
 H183 H -0.02978 -0.30699 0.83869
 H184 H 0.04909 -0.35011 0.87008
 H185 H -0.08070 -0.32676 0.90765
 H186 H -0.05340 -0.23963 0.93762
 H187 H 0.07640 -0.26296 0.90004
 H188 H 0.02543 -0.28287 0.96904
 C189 C 0.01990 0.26637 0.92076
 C190 C 0.03582 0.31309 0.90290
 C191 C -0.00624 0.33692 0.92222
 C192 C -0.02215 0.29090 0.94044
 C193 C -0.00938 0.25750 0.88538
 C194 C -0.05145 0.28131 0.90473
 C195 C 0.00652 0.30355 0.86722
 C196 C -0.03552 0.32803 0.88687
 C197 C -0.00446 0.38118 0.94264
 C198 C -0.00303 0.41739 0.95976
 C199 C -0.01087 0.21365 0.86429
 C200 C -0.01173 0.17795 0.84637
 H201 H 0.04263 0.24053 0.93450
 H202 H 0.07171 0.32667 0.90237
 H203 H -0.03388 0.28626 0.97081
 H204 H -0.08734 0.26773 0.90527
 H205 H 0.01830 0.30827 0.83688
 H206 H -0.05826 0.35389 0.87315
 C207 C -0.29890 0.00889 0.36660
 C208 C -0.32223 -0.03445 0.38480
 C209 C -0.33376 -0.00598 0.42106
 C210 C -0.31109 0.03734 0.40318
 C211 C -0.25306 -0.00551 0.38445
 C212 C -0.26457 0.02295 0.42073
 C213 C -0.27570 -0.04885 0.40235
 C214 C -0.28795 -0.02038 0.43897
 C215 C -0.37870 -0.00606 0.44141
 C216 C -0.41544 -0.00603 0.45855
 C217 C -0.20848 -0.00483 0.36349
 C218 C -0.17218 -0.00376 0.34569
 H219 H -0.30291 0.02094 0.33660
 H220 H -0.34646 -0.05802 0.37024
 H221 H -0.32616 0.07277 0.40373
 H222 H -0.24037 0.04652 0.43532
 H223 H -0.26063 -0.08427 0.40181
 H224 H -0.28403 -0.03240 0.46899
 C225 C 0.26753 -0.02826 0.42018
 C226 C 0.31456 -0.04437 0.40245
 C227 C 0.33781 -0.00213 0.42049
 C228 C 0.29147 0.01396 0.43858
 C229 C 0.25945 0.00093 0.38406
 C230 C 0.28269 0.04317 0.40213
 C231 C 0.30582 -0.01516 0.36603
 C232 C 0.32971 0.02705 0.38440
 C233 C 0.38147 -0.00373 0.44071
 C234 C 0.41716 -0.00482 0.45770
 C235 C 0.21622 0.00251 0.36318
 C236 C 0.18106 0.00357 0.34543
 H237 H 0.24147 -0.05094 0.43470
 H238 H 0.32818 -0.08037 0.40279
 H239 H 0.28613 0.02590 0.46867
 H240 H 0.26908 0.07918 0.40180
 H241 H 0.31124 -0.02712 0.33596
 H242 H 0.35577 0.04975 0.36990
   
