data_POSCAR
  _audit_creation_date              2014-09-24
  _audit_creation_method            'ToBaCCo'
  _symmetry_space_group_name_H-M    'P1'
  _symmetry_Int_Tables_number       1
  _symmetry_cell_setting            triclinic
  loop_
  _symmetry_equiv_pos_as_xyz
 x,y,z
_cell_length_a 51.2317
_cell_length_b 51.2757
_cell_length_c 28.5439
_cell_angle_alpha 89.955600
_cell_angle_beta 90.044700
_cell_angle_gamma 90.009100
loop_
  _atom_site_label
  _atom_site_type_symbol
  _atom_site_fract_x
  _atom_site_fract_y
  _atom_site_fract_z
C1 C -0.02420 0.26864 0.02386
 C2 C -0.02416 0.26863 -0.02567
 C3 C -0.00038 0.26870 -0.04997
 C4 C 0.02338 0.26865 -0.02557
 C5 C 0.02331 0.26872 0.02385
 C6 C -0.00043 0.26878 0.04819
 H7 H -0.00034 0.26866 0.08622
 H8 H -0.00035 0.26853 -0.08803
 C9 C 0.47633 0.77086 0.52464
 C10 C 0.47623 0.77084 0.47528
 C11 C 0.49993 0.77091 0.45087
 C12 C 0.52369 0.77078 0.47521
 C13 C 0.52378 0.77071 0.52458
 C14 C 0.50008 0.77086 0.54899
 H15 H 0.50012 0.77066 0.58699
 H16 H 0.49989 0.77075 0.41286
 C17 C 1.02382 0.72996 0.02467
 C18 C 1.02374 0.72987 -0.02477
 C19 C 0.99998 0.72979 -0.04912
 C20 C 0.97624 0.72996 -0.02477
 C21 C 0.97633 0.72999 0.02466
 C22 C 1.00008 0.72992 0.04902
 H23 H 1.00004 0.73014 0.08705
 H24 H 1.00003 0.72991 -0.08715
 C25 C 0.52366 0.23069 0.52529
 C26 C 0.52374 0.23070 0.47593
 C27 C 0.50003 0.23054 0.45148
 C28 C 0.47627 0.23055 0.47578
 C29 C 0.47619 0.23061 0.52515
 C30 C 0.49990 0.23058 0.54960
 H31 H 0.49988 0.23076 0.58760
 H32 H 0.50005 0.23068 0.41347
 C33 C 0.73018 -0.02408 0.02585
 C34 C 0.73019 -0.02405 -0.02359
 C35 C 0.73009 -0.00032 -0.04795
 C36 C 0.73013 0.02338 -0.02361
 C37 C 0.73009 0.02336 0.02575
 C38 C 0.73003 -0.00034 0.05018
 H39 H 0.73019 -0.00026 0.08821
 H40 H 0.73028 -0.00030 -0.08596
 C41 C 0.23042 0.47630 0.52459
 C42 C 0.23045 0.47625 0.47522
 C43 C 0.23042 0.49994 0.45075
 C44 C 0.23055 0.52368 0.47503
 C45 C 0.23057 0.52373 0.52440
 C46 C 0.23042 0.50004 0.54887
 H47 H 0.23058 0.50007 0.58687
 H48 H 0.23059 0.49991 0.41275
 C49 C 0.26840 1.02459 0.02463
 C50 C 0.26840 1.02459 -0.02491
 C51 C 0.26847 1.00083 -0.04921
 C52 C 0.26839 0.97713 -0.02481
 C53 C 0.26840 0.97712 0.02454
 C54 C 0.26848 1.00082 0.04894
 H55 H 0.26833 1.00070 0.08697
 H56 H 0.26832 1.00074 -0.08724
 C57 C 0.77089 0.52371 0.52451
 C58 C 0.77082 0.52380 0.47514
 C59 C 0.77095 0.50013 0.45069
 C60 C 0.77094 0.47638 0.47499
 C61 C 0.77096 0.47630 0.52435
 C62 C 0.77103 0.49997 0.54881
 H63 H 0.77089 0.49991 0.58681
 H64 H 0.77073 0.50019 0.41268
 O65 O 0.22809 0.26392 0.19106
 O66 O 0.29124 0.25505 0.25054
 O67 O 0.26388 0.22794 0.19090
 O68 O 0.25544 0.29103 0.25069
 O69 O 0.23551 0.27111 0.30937
 O70 O 0.24394 0.20801 0.24958
 O71 O 0.27131 0.23513 0.30922
 O72 O 0.20815 0.24400 0.24973
 Cu73 Cu 0.26168 0.26150 0.21488
 Cu74 Cu 0.23772 0.23755 0.28540
 C75 C 0.20748 0.25539 0.21030
 C76 C 0.29192 0.24366 0.28998
 C77 C 0.25526 0.20733 0.21008
 C78 C 0.24411 0.29172 0.29018
 O79 O 0.75587 0.79212 0.24961
 O80 O 0.76439 0.72903 0.30952
 O81 O 0.79165 0.75613 0.24980
 O82 O 0.72859 0.76502 0.30933
 O83 O 0.70858 0.74511 0.25073
 O84 O 0.77163 0.73621 0.19120
 O85 O 0.74437 0.70912 0.25092
 O86 O 0.73585 0.77221 0.19101
 Cu87 Cu 0.76215 0.76259 0.28549
 Cu88 Cu 0.73808 0.73865 0.21505
 C89 C 0.74448 0.79281 0.21015
 C90 C 0.75577 0.70843 0.29037
 C91 C 0.79227 0.74472 0.21041
 C92 C 0.70795 0.75651 0.29013
 O93 O 0.79218 0.24410 0.24924
 O94 O 0.72905 0.23589 0.30943
 O95 O 0.75602 0.20844 0.24975
 O96 O 0.76521 0.27156 0.30894
 O97 O 0.74524 0.29151 0.25029
 O98 O 0.73606 0.22839 0.19109
 O99 O 0.70909 0.25584 0.25077
 O100 O 0.77221 0.26405 0.19059
 Cu101 Cu 0.76263 0.23799 0.28525
 Cu102 Cu 0.73864 0.26196 0.21477
 C103 C 0.79284 0.25540 0.20969
 C104 C 0.70842 0.24453 0.29031
 C105 C 0.74455 0.20777 0.21037
 C106 C 0.75670 0.29217 0.28967
 O107 O 0.26360 0.77202 0.19042
 O108 O 0.25511 0.70883 0.24990
 O109 O 0.22778 0.73601 0.19017
 O110 O 0.29092 0.74484 0.25014
 O111 O 0.27087 0.76462 0.30877
 O112 O 0.20773 0.75580 0.24880
 O113 O 0.23506 0.72861 0.30853
 O114 O 0.24355 0.79181 0.24905
 Cu115 Cu 0.26137 0.73843 0.21425
 Cu116 Cu 0.23728 0.76220 0.28470
 C117 C 0.25495 0.79257 0.20964
 C118 C 0.24372 0.70806 0.28932
 C119 C 0.20711 0.74448 0.20930
 C120 C 0.29154 0.75616 0.28964
 O121 O 0.77225 0.26404 0.80903
 O122 O 0.70901 0.25552 0.74973
 O123 O 0.73623 0.22828 0.80941
 O124 O 0.74503 0.29128 0.74935
 O125 O 0.76480 0.27121 0.69072
 O126 O 0.75600 0.20821 0.75078
 O127 O 0.72878 0.23545 0.69109
 O128 O 0.79203 0.24397 0.75039
 Cu129 Cu 0.73863 0.26181 0.78530
 Cu130 Cu 0.76240 0.23768 0.71482
 C131 C 0.79280 0.25538 0.78977
 C132 C 0.70823 0.24410 0.71035
 C133 C 0.74469 0.20762 0.79029
 C134 C 0.75635 0.29187 0.70984
 O135 O 0.24394 0.79196 0.75015
 O136 O 0.23580 0.72884 0.69025
 O137 O 0.20834 0.75577 0.74988
 O138 O 0.27141 0.76502 0.69052
 O139 O 0.29147 0.74518 0.74920
 O140 O 0.22841 0.73593 0.80856
 O141 O 0.25587 0.70900 0.74893
 O142 O 0.26400 0.77212 0.80882
 Cu143 Cu 0.23785 0.76240 0.71427
 Cu144 Cu 0.26197 0.73855 0.78480
 C145 C 0.25528 0.79268 0.78965
 C146 C 0.24451 0.70827 0.70943
 C147 C 0.20775 0.74434 0.78929
 C148 C 0.29207 0.75660 0.70979
 O149 O 0.25463 0.29123 0.74992
 O150 O 0.26341 0.22805 0.80934
 O151 O 0.29064 0.25543 0.74980
 O152 O 0.22740 0.26385 0.80946
 O153 O 0.20750 0.24398 0.75070
 O154 O 0.27074 0.23556 0.69103
 O155 O 0.24352 0.20818 0.75058
 O156 O 0.23473 0.27136 0.69115
 Cu157 Cu 0.26102 0.26164 0.78555
 Cu158 Cu 0.23712 0.23777 0.71494
 C159 C 0.24328 0.29194 0.71043
 C160 C 0.25488 0.20747 0.79005
 C161 C 0.29136 0.24414 0.71028
 C162 C 0.20678 0.25526 0.79022
 O163 O 0.73628 0.77137 0.80937
 O164 O 0.74519 0.70838 0.74965
 O165 O 0.77230 0.73559 0.80956
 O166 O 0.70917 0.74417 0.74946
 O167 O 0.72916 0.76421 0.69098
 O168 O 0.79229 0.75562 0.75108
 O169 O 0.76518 0.72842 0.69116
 O170 O 0.75627 0.79141 0.75089
 Cu171 Cu 0.73872 0.73785 0.78540
 Cu172 Cu 0.76274 0.76193 0.71513
 C173 C 0.74482 0.79201 0.79026
 C174 C 0.75662 0.70778 0.71026
 C175 C 0.79295 0.74422 0.79052
 C176 C 0.70851 0.75559 0.71002
 C177 C 0.26582 0.09197 0.09563
 N178 N 0.26277 0.09239 0.14283
 N179 N 0.26116 0.11502 0.16560
 C180 C 0.26255 0.13791 0.14187
 N181 N 0.26561 0.13748 0.09468
 N182 N 0.26722 0.11486 0.07191
 C183 C 0.26702 0.06765 0.07090
 C184 C 0.26778 0.04737 0.04956
 C185 C 0.26028 0.16229 0.16621
 C186 C 0.25813 0.18283 0.18639
 C187 C 0.76803 0.59243 0.59639
 N188 N 0.76901 0.61527 0.57248
 N189 N 0.76726 0.63792 0.59512
 C190 C 0.76448 0.63840 0.64235
 N191 N 0.76351 0.61556 0.66628
 N192 N 0.76526 0.59290 0.64364
 C193 C 0.76934 0.56808 0.57183
 C194 C 0.77019 0.54778 0.55066
 C195 C 0.76203 0.66278 0.66655
 C196 C 0.75970 0.68330 0.68665
 C197 C 0.73317 0.90836 0.09629
 N198 N 0.73594 0.90782 0.14354
 N199 N 0.73773 0.88514 0.16616
 C200 C 0.73680 0.86232 0.14220
 N201 N 0.73401 0.86287 0.09495
 N202 N 0.73222 0.88554 0.07234
 C203 C 0.73179 0.93275 0.07174
 C204 C 0.73090 0.95309 0.05056
 C205 C 0.73923 0.83789 0.16640
 C206 C 0.74150 0.81733 0.18650
 C207 C 0.23275 0.40751 0.59655
 N208 N 0.23143 0.38469 0.57268
 N209 N 0.23297 0.36201 0.59534
 C210 C 0.23588 0.36147 0.64256
 N211 N 0.23719 0.38429 0.66645
 N212 N 0.23565 0.40697 0.64378
 C213 C 0.23165 0.43188 0.57196
 C214 C 0.23096 0.45221 0.55076
 C215 C 0.23814 0.33704 0.66678
 C216 C 0.24032 0.31647 0.68686
 C217 C 0.90830 0.26589 0.09487
 N218 N 0.88538 0.26698 0.07112
 N219 N 0.86274 0.26535 0.09392
 C220 C 0.86232 0.26257 0.14118
 N221 N 0.88524 0.26150 0.16494
 N222 N 0.90789 0.26313 0.14213
 C223 C 0.93266 0.26715 0.07011
 C224 C 0.95297 0.26797 0.04877
 C225 C 0.83791 0.26032 0.16560
 C226 C 0.81736 0.25820 0.18586
 C227 C 0.40757 0.76822 0.59640
 N228 N 0.40706 0.76507 0.64357
 N229 N 0.38437 0.76333 0.66615
 C230 C 0.36153 0.76469 0.64223
 N231 N 0.36204 0.76787 0.59507
 N232 N 0.38473 0.76961 0.57249
 C233 C 0.43193 0.76947 0.57190
 C234 C 0.45225 0.77024 0.55075
 C235 C 0.33713 0.76219 0.66632
 C236 C 0.31657 0.75980 0.68631
 C237 C 0.09149 0.73301 0.09513
 N238 N 0.09201 0.73573 0.14239
 N239 N 0.11470 0.73753 0.16506
 C240 C 0.13756 0.73667 0.14115
 N241 N 0.13703 0.73393 0.09390
 N242 N 0.11435 0.73213 0.07124
 C243 C 0.06707 0.73161 0.07053
 C244 C 0.04671 0.73071 0.04934
 C245 C 0.16200 0.73913 0.16542
 C246 C 0.18257 0.74143 0.18558
 C247 C 0.59250 0.23332 0.59706
 N248 N 0.59307 0.23634 0.64425
 N249 N 0.61580 0.23798 0.66681
 C250 C 0.63861 0.23664 0.64284
 N251 N 0.63802 0.23360 0.59566
 N252 N 0.61530 0.23196 0.57311
 C253 C 0.56810 0.23212 0.57259
 C254 C 0.54775 0.23134 0.55144
 C255 C 0.66306 0.23896 0.66692
 C256 C 0.68367 0.24117 0.68690
 C257 C 0.73316 0.09221 0.90452
 N258 N 0.73233 0.11505 0.92841
 N259 N 0.73414 0.13770 0.90573
 C260 C 0.73683 0.13821 0.85847
 N261 N 0.73763 0.11536 0.83457
 N262 N 0.73583 0.09270 0.85726
 C263 C 0.73177 0.06784 0.92912
 C264 C 0.73088 0.04751 0.95029
 C265 C 0.73930 0.16260 0.83420
 C266 C 0.74163 0.18314 0.81402
 C267 C 0.23317 0.59248 0.40311
 N268 N 0.23598 0.59302 0.35588
 N269 N 0.23758 0.61570 0.33323
 C270 C 0.23641 0.63852 0.35715
 N271 N 0.23359 0.63797 0.40438
 N272 N 0.23199 0.61529 0.42702
 C273 C 0.23198 0.56810 0.42768
 C274 C 0.23120 0.54777 0.44886
 C275 C 0.23867 0.66295 0.33295
 C276 C 0.24083 0.68352 0.31288
 C277 C 0.26568 0.90825 0.90353
 N278 N 0.26654 0.88543 0.92754
 N279 N 0.26492 0.86275 0.90494
 C280 C 0.26241 0.86220 0.85764
 N281 N 0.26157 0.88502 0.83363
 N282 N 0.26318 0.90771 0.85623
 C283 C 0.26692 0.93265 0.92804
 C284 C 0.26772 0.95299 0.94914
 C285 C 0.26018 0.83777 0.83344
 C286 C 0.25807 0.81720 0.81333
 C287 C 0.76820 0.40765 0.40314
 N288 N 0.76503 0.40715 0.35597
 N289 N 0.76329 0.38448 0.33336
 C290 C 0.76468 0.36164 0.35726
 N291 N 0.76787 0.36215 0.40442
 N292 N 0.76961 0.38482 0.42702
 C293 C 0.76948 0.43200 0.42768
 C294 C 0.77028 0.45231 0.44884
 C295 C 0.76221 0.33724 0.33313
 C296 C 0.75985 0.31669 0.31313
 C297 C 0.09106 0.26591 0.90409
 N298 N 0.11392 0.26691 0.92804
 N299 N 0.13661 0.26526 0.90543
 C300 C 0.13715 0.26256 0.85817
 N301 N 0.11429 0.26158 0.83421
 N302 N 0.09159 0.26322 0.85683
 C303 C 0.06663 0.26717 0.92864
 C304 C 0.04626 0.26799 0.94979
 C305 C 0.16162 0.26029 0.83395
 C306 C 0.18221 0.25813 0.81385
 C307 C 0.59245 0.76797 0.40350
 N308 N 0.61529 0.76911 0.42748
 N309 N 0.63797 0.76736 0.40492
 C310 C 0.63850 0.76442 0.35772
 N311 N 0.61566 0.76330 0.33374
 N312 N 0.59297 0.76505 0.35630
 C313 C 0.56808 0.76927 0.42798
 C314 C 0.54776 0.77009 0.44911
 C315 C 0.66290 0.76195 0.33364
 C316 C 0.68346 0.75961 0.31364
 C317 C 0.90857 0.73296 0.90476
 N318 N 0.90805 0.73551 0.85747
 N319 N 0.88535 0.73728 0.83480
 C320 C 0.86250 0.73657 0.85874
 N321 N 0.86303 0.73400 0.90603
 N322 N 0.88572 0.73223 0.92869
 C323 C 0.93299 0.73158 0.92936
 C324 C 0.95336 0.73068 0.95055
 C325 C 0.83805 0.73898 0.83445
 C326 C 0.81748 0.74124 0.81427
 C327 C 0.40748 0.23288 0.40381
 N328 N 0.40697 0.23588 0.35661
 N329 N 0.38427 0.23747 0.33394
 C330 C 0.36143 0.23608 0.35781
 N331 N 0.36195 0.23306 0.40500
 N332 N 0.38464 0.23147 0.42766
 C333 C 0.43185 0.23176 0.42840
 C334 C 0.45218 0.23108 0.44961
 C335 C 0.33701 0.23840 0.33361
 C336 C 0.31644 0.24065 0.31354
 C337 C 0.73319 0.90730 0.90426
 N338 N 0.73628 0.90686 0.85708
 N339 N 0.73809 0.88423 0.83439
 C340 C 0.73686 0.86136 0.85821
 N341 N 0.73375 0.86180 0.90538
 N342 N 0.73194 0.88443 0.92806
 C343 C 0.73182 0.93162 0.92888
 C344 C 0.73093 0.95189 0.95013
 C345 C 0.73936 0.83700 0.83398
 C346 C 0.74172 0.81648 0.81387
 C347 C 0.23322 0.40732 0.40375
 N348 N 0.23231 0.38451 0.42779
 N349 N 0.23400 0.36182 0.40525
 C350 C 0.23665 0.36125 0.35799
 N351 N 0.23754 0.38406 0.33394
 N352 N 0.23585 0.40675 0.35648
 C353 C 0.23194 0.43173 0.42820
 C354 C 0.23112 0.45209 0.44925
 C355 C 0.23899 0.33681 0.33386
 C356 C 0.24119 0.31624 0.31380
 C357 C 0.26584 0.09199 0.90410
 N358 N 0.26242 0.09246 0.85698
 N359 N 0.26077 0.11512 0.83425
 C360 C 0.26249 0.13797 0.85796
 N361 N 0.26592 0.13749 0.90506
 N362 N 0.26758 0.11484 0.92779
 C363 C 0.26704 0.06765 0.92880
 C364 C 0.26780 0.04737 0.95014
 C365 C 0.26013 0.16237 0.83369
 C366 C 0.25789 0.18293 0.81360
 C367 C 0.76748 0.59277 0.40375
 N368 N 0.76819 0.61555 0.42784
 N369 N 0.76630 0.63826 0.40535
 C370 C 0.76364 0.63887 0.35809
 N371 N 0.76295 0.61610 0.33398
 N372 N 0.76484 0.59338 0.35648
 C373 C 0.76897 0.56834 0.42815
 C374 C 0.76997 0.54797 0.44917
 C375 C 0.76112 0.66333 0.33401
 C376 C 0.75879 0.68390 0.31397
 C377 C 0.09238 0.73254 0.90301
 N378 N 0.09281 0.73602 0.85592
 N379 N 0.11546 0.73780 0.83324
 C380 C 0.13834 0.73616 0.85699
 N381 N 0.13790 0.73266 0.90407
 N382 N 0.11525 0.73087 0.92675
 C383 C 0.06806 0.73127 0.92765
 C384 C 0.04778 0.73048 0.94892
 C385 C 0.16272 0.73870 0.83281
 C386 C 0.18326 0.74113 0.81278
 C387 C 0.59276 0.23373 0.40437
 N388 N 0.59330 0.23602 0.35703
 N389 N 0.61601 0.23774 0.33443
 C390 C 0.63885 0.23721 0.35847
 N391 N 0.63830 0.23490 0.40581
 N392 N 0.61560 0.23319 0.42840
 C393 C 0.56832 0.23237 0.42887
 C394 C 0.54794 0.23147 0.44994
 C395 C 0.66331 0.23952 0.33424
 C396 C 0.68389 0.24169 0.31408
 C397 C 0.90842 0.26613 0.90343
 N398 N 0.88558 0.26798 0.92716
 N399 N 0.86289 0.26636 0.90450
 C400 C 0.86238 0.26284 0.85743
 N401 N 0.88522 0.26101 0.83368
 N402 N 0.90791 0.26264 0.85635
 C403 C 0.93277 0.26730 0.92806
 C404 C 0.95306 0.26804 0.94938
 C405 C 0.83795 0.26053 0.83325
 C406 C 0.81736 0.25832 0.81324
 C407 C 0.40721 0.76775 0.40362
 N408 N 0.40666 0.76512 0.35634
 N409 N 0.38395 0.76329 0.33373
 C410 C 0.36111 0.76404 0.35770
 N411 N 0.36167 0.76669 0.40496
 N412 N 0.38437 0.76851 0.42758
 C413 C 0.43164 0.76917 0.42815
 C414 C 0.45203 0.77008 0.44925
 C415 C 0.33665 0.76155 0.33348
 C416 C 0.31608 0.75922 0.31334
 C417 C 0.26573 0.90824 0.09618
 N418 N 0.26687 0.88545 0.07220
 N419 N 0.26523 0.86274 0.09476
 C420 C 0.26239 0.86215 0.14198
 N421 N 0.26126 0.88494 0.16598
 N422 N 0.26291 0.90765 0.14341
 C423 C 0.26696 0.93264 0.07171
 C424 C 0.26775 0.95299 0.05060
 C425 C 0.26007 0.83770 0.16610
 C426 C 0.25787 0.81712 0.18612
 C427 C 0.76797 0.40737 0.59594
 N428 N 0.76537 0.40682 0.64321
 N429 N 0.76355 0.38414 0.66582
 C430 C 0.76427 0.36133 0.64182
 N431 N 0.76688 0.36188 0.59455
 N432 N 0.76870 0.38456 0.57195
 C433 C 0.76935 0.43177 0.57143
 C434 C 0.77024 0.45213 0.55034
 C435 C 0.76177 0.33691 0.66601
 C436 C 0.75943 0.31636 0.68614
 C437 C 0.73289 0.09220 0.09727
 N438 N 0.73166 0.11500 0.07327
 N439 N 0.73344 0.13769 0.09577
 C440 C 0.73649 0.13826 0.14296
 N441 N 0.73769 0.11545 0.16698
 N442 N 0.73592 0.09276 0.14447
 C443 C 0.73158 0.06781 0.07284
 C444 C 0.73075 0.04748 0.05177
 C445 C 0.73900 0.16268 0.16700
 C446 C 0.74138 0.18325 0.18694
 C447 C 0.23361 0.59266 0.59585
 N448 N 0.23615 0.59323 0.64314
 N449 N 0.23789 0.61592 0.66568
 C450 C 0.23714 0.63873 0.64160
 N451 N 0.23458 0.63816 0.59432
 N452 N 0.23285 0.61547 0.57179
 C453 C 0.23224 0.56825 0.57141
 C454 C 0.23134 0.54789 0.55037
 C455 C 0.23948 0.66317 0.66574
 C456 C 0.24166 0.68374 0.68581
 C457 C 0.90767 0.73296 0.09679
 N458 N 0.88480 0.73146 0.07299
 N459 N 0.86214 0.73328 0.09563
 C460 C 0.86169 0.73667 0.14273
 N461 N 0.88456 0.73816 0.16654
 N462 N 0.90722 0.73633 0.14390
 C463 C 0.93200 0.73160 0.07220
 C464 C 0.95228 0.73073 0.05096
 C465 C 0.83731 0.73921 0.16688
 C466 C 0.81676 0.74159 0.18690
 C467 C 0.40714 0.23341 0.59665
 N468 N 0.40657 0.23599 0.64393
 N469 N 0.38385 0.23765 0.66648
 C470 C 0.36101 0.23680 0.64244
 N471 N 0.36159 0.23421 0.59516
 N472 N 0.38431 0.23254 0.57261
 C473 C 0.43159 0.23213 0.57218
 C474 C 0.45199 0.23130 0.55113
 C475 C 0.33653 0.23909 0.66660
 C476 C 0.31593 0.24126 0.68667
 C477 C 0.09201 0.26632 0.09620
 N478 N 0.11488 0.26797 0.07249
 N479 N 0.13754 0.26635 0.09524
 C480 C 0.13800 0.26303 0.14237
 N481 N 0.11514 0.26140 0.16609
 N482 N 0.09247 0.26302 0.14334
 C483 C 0.06767 0.26746 0.07151
 C484 C 0.04738 0.26817 0.05020
 C485 C 0.16240 0.26068 0.16663
 C486 C 0.18296 0.25842 0.18673
 C487 C 0.59282 0.76731 0.59616
 N488 N 0.61564 0.76792 0.57214
 N489 N 0.63835 0.76603 0.59471
 C490 C 0.63893 0.76346 0.64200
 N491 N 0.61610 0.76287 0.66603
 N492 N 0.59339 0.76476 0.64346
 C493 C 0.56837 0.76883 0.57167
 C494 C 0.54798 0.76984 0.55059
 C495 C 0.66339 0.76095 0.66620
 C496 C 0.68397 0.75862 0.68632
   
