data_POSCAR
  _audit_creation_date              2014-09-24
  _audit_creation_method            'ToBaCCo'
  _symmetry_space_group_name_H-M    'P1'
  _symmetry_Int_Tables_number       1
  _symmetry_cell_setting            triclinic
  loop_
  _symmetry_equiv_pos_as_xyz
 x,y,z
_cell_length_a 31.7428
_cell_length_b 31.7690
_cell_length_c 31.7757
_cell_angle_alpha 87.141500
_cell_angle_beta 92.560100
_cell_angle_gamma 83.033800
loop_
  _atom_site_label
  _atom_site_type_symbol
  _atom_site_fract_x
  _atom_site_fract_y
  _atom_site_fract_z
C1 C 0.57622 0.38778 0.03765
 C2 C 0.60660 0.41494 0.03698
 C3 C 0.58720 0.45339 0.01865
 N4 N 0.54545 0.45108 0.01001
 C5 C 0.53891 0.41078 0.02082
 C6 C 0.60658 0.49118 0.01417
 C7 C 0.58193 0.52912 0.02446
 C8 C 0.59455 0.55663 0.05368
 C9 C 0.56296 0.59017 0.05308
 C10 C 0.53114 0.58149 0.02464
 N11 N 0.54222 0.54338 0.00828
 C12 C 0.49405 0.60997 0.01314
 C13 C 0.45512 0.59474 0.00181
 C14 C 0.41742 0.61933 -0.01197
 C15 C 0.38722 0.59216 -0.01568
 C16 C 0.40773 0.55156 -0.00611
 N17 N 0.44916 0.55331 0.00450
 C18 C 0.38824 0.51388 -0.00769
 C19 C 0.41102 0.47253 -0.00596
 C20 C 0.39312 0.43664 -0.01699
 C21 C 0.42464 0.40301 -0.01178
 C22 C 0.46108 0.41900 0.00260
 N23 N 0.45260 0.46148 0.00598
 C24 C 0.50023 0.39380 0.01397
 H25 H 0.58084 0.35513 0.05012
 H26 H 0.63872 0.40766 0.05049
 H27 H 0.47313 0.48080 0.01927
 H28 H 0.62363 0.55286 0.07337
 H29 H 0.56308 0.61775 0.07175
 H30 H 0.41179 0.65324 -0.01897
 H31 H 0.35420 0.60152 -0.02538
 H32 H 0.42102 0.37044 -0.01806
 H33 H 0.52569 0.53000 -0.01575
 H34 H 0.36074 0.43489 -0.02830
 C35 C 0.02196 0.56731 0.59880
 C36 C 0.02674 0.59862 0.56891
 C37 C 0.01944 0.58239 0.52974
 N38 N 0.00931 0.54236 0.53529
 C39 C 0.01096 0.53306 0.57737
 C40 C 0.01759 0.60591 0.49018
 C41 C 0.01089 0.58753 0.45069
 C42 C 0.00549 0.60998 0.41171
 C43 C 0.00286 0.58091 0.38151
 C44 C 0.00726 0.54112 0.40233
 N45 N 0.01278 0.54543 0.44435
 C46 C 0.00901 0.50232 0.38177
 C47 C 0.01070 0.46183 0.40297
 C48 C 0.01746 0.42347 0.38380
 C49 C 0.01482 0.39212 0.41445
 C50 C 0.00567 0.41227 0.45123
 N51 N 0.00312 0.45485 0.44410
 C52 C -0.00291 0.39149 0.48974
 C53 C -0.00970 0.41289 0.52727
 C54 C -0.02840 0.39657 0.56210
 C55 C -0.02788 0.42598 0.59230
 C56 C -0.00877 0.45947 0.57516
 N57 N 0.00242 0.45115 0.53556
 C58 C -0.00065 0.49553 0.59703
 H59 H 0.02511 0.57002 0.63258
 H60 H 0.03342 0.63013 0.57593
 H61 H 0.02134 0.46828 0.51714
 H62 H 0.00494 0.64373 0.40503
 H63 H -0.00045 0.58843 0.34786
 H64 H 0.02347 0.41834 0.35111
 H65 H 0.01862 0.35837 0.40989
 H66 H -0.04018 0.42299 0.62339
 H67 H 0.02173 0.52084 0.46674
 H68 H -0.04129 0.36663 0.56539
 C69 C 0.39784 0.02125 0.58267
 C70 C 0.42879 0.02334 0.61371
 C71 C 0.46763 0.01137 0.59639
 N72 N 0.46097 0.00108 0.55604
 C73 C 0.41845 0.00724 0.54758
 C74 C 0.50784 0.00491 0.61886
 C75 C 0.54647 -0.00522 0.59830
 C76 C 0.58551 -0.02089 0.61820
 C77 C 0.61497 -0.02297 0.58780
 C78 C 0.59385 -0.00698 0.55017
 N79 N 0.55206 0.00340 0.55680
 C80 C 0.61344 -0.00075 0.51130
 C81 C 0.58928 0.00675 0.47247
 C82 C 0.60329 0.02459 0.43563
 C83 C 0.57193 0.02333 0.40486
 C84 C 0.53964 0.00525 0.42400
 N85 N 0.55013 -0.00474 0.46534
 C86 C 0.50212 -0.00405 0.40303
 C87 C 0.46685 -0.01379 0.42532
 C88 C 0.43312 -0.03254 0.40858
 C89 C 0.40355 -0.03208 0.43892
 C90 C 0.42013 -0.01302 0.47326
 N91 N 0.45885 -0.00227 0.46483
 C92 C 0.39795 -0.00250 0.50953
 H93 H 0.36398 0.02829 0.58601
 H94 H 0.42275 0.03151 0.64568
 H95 H 0.47615 0.01701 0.48259
 H96 H 0.59283 -0.02951 0.65125
 H97 H 0.64835 -0.03452 0.59319
 H98 H 0.63305 0.03728 0.43139
 H99 H 0.57271 0.03463 0.37224
 H100 H 0.37295 -0.04368 0.43574
 H101 H 0.52968 0.02000 0.53522
 H102 H 0.42981 -0.04454 0.37747
 O103 O 0.46639 0.00839 -0.05113
 O104 O 0.46339 0.00225 0.06459
 O105 O 0.46418 0.06286 0.00765
 O106 O 0.46600 -0.05322 0.00704
 O107 O 0.53604 -0.06081 0.01322
 O108 O 0.53430 0.05527 0.01112
 O109 O 0.53346 -0.00460 0.06999
 O110 O 0.53652 -0.00138 -0.04603
 Cu111 Cu 0.45796 0.00573 0.00628
 Cu112 Cu 0.54211 -0.00363 0.01249
 C113 C 0.50190 0.00441 -0.06837
 C114 C 0.49786 -0.00175 0.08711
 C115 C 0.49892 0.07889 0.00980
 C116 C 0.50137 -0.07692 0.01064
 O117 O -0.06840 0.53479 0.98630
 O118 O 0.04626 0.54386 0.98400
 O119 O -0.01438 0.53753 0.92787
 O120 O -0.00855 0.54114 1.04338
 O121 O 0.00602 0.47131 1.04950
 O122 O 0.00067 0.46777 0.93364
 O123 O 0.06040 0.47404 0.99114
 O124 O -0.05419 0.46498 0.99213
 Cu125 Cu -0.01256 0.54634 0.98493
 Cu126 Cu 0.00462 0.46252 0.99222
 C127 C -0.08094 0.49831 0.98931
 C128 C 0.07290 0.51045 0.98712
 C129 C -0.00792 0.50209 0.91096
 C130 C -0.00048 0.50687 1.06620
 O131 O 0.00751 -0.05907 0.46320
 O132 O -0.00410 0.05734 0.46222
 O133 O 0.06017 -0.00192 0.46325
 O134 O -0.05581 0.00006 0.46536
 O135 O -0.05104 -0.00275 0.53494
 O136 O 0.06496 -0.00585 0.53286
 O137 O 0.00168 0.05444 0.53179
 O138 O 0.01282 -0.06278 0.53283
 Cu139 Cu 0.00154 -0.00056 0.45654
 Cu140 Cu 0.00750 -0.00455 0.54011
 C141 C 0.01192 -0.08086 0.49804
 C142 C -0.00307 0.07589 0.49664
 C143 C 0.08241 -0.00422 0.49775
 C144 C -0.07327 -0.00110 0.50053
 C145 C -0.26106 0.48863 0.99316
 C146 C -0.28089 0.45216 0.98739
 C147 C -0.32450 0.45352 0.99245
 C148 C -0.34903 0.49046 1.00544
 C149 C -0.32816 0.52752 1.00516
 N150 N -0.28567 0.52536 1.00021
 C151 C -0.21451 0.48919 0.99071
 N152 N -0.19937 0.52741 0.98629
 C153 C -0.15718 0.53104 0.98544
 C154 C -0.12706 0.49469 0.98954
 C155 C -0.14183 0.45490 0.99419
 C156 C -0.18536 0.45199 0.99493
 H157 H -0.33865 0.42549 0.98471
 H158 H -0.34489 0.55868 1.00816
 H159 H -0.14730 0.56239 0.98181
 H160 H -0.11974 0.42602 0.99774
 H161 H -0.26345 0.42301 0.97810
 H162 H -0.19561 0.42097 0.99980
 C163 C 0.25268 0.51905 0.98494
 C164 C 0.27298 0.53544 0.95044
 C165 C 0.31727 0.53395 0.95242
 C166 C 0.34098 0.51718 0.98904
 C167 C 0.31944 0.50123 1.02272
 N168 N 0.27653 0.50219 1.01975
 C169 C 0.20626 0.51797 0.98406
 N170 N 0.19098 0.48447 1.00395
 C171 C 0.14872 0.48137 1.00500
 C172 C 0.11890 0.51375 0.98604
 C173 C 0.13386 0.54896 0.96591
 C174 C 0.17754 0.55100 0.96449
 H175 H 0.33305 0.54558 0.92547
 H176 H 0.33688 0.48753 1.05120
 H177 H 0.13846 0.45386 1.02113
 H178 H 0.11183 0.57459 0.95090
 H179 H 0.25500 0.54813 0.92190
 H180 H 0.18865 0.57845 0.94907
 C181 C 0.02191 -0.26235 0.49432
 C182 C 0.05727 -0.29059 0.50974
 C183 C 0.05637 -0.33424 0.50742
 C184 C 0.02009 -0.34990 0.49040
 C185 C -0.01442 -0.32037 0.47497
 N186 N -0.01255 -0.27801 0.47705
 C187 C 0.02116 -0.21594 0.49601
 N188 N 0.00106 -0.19031 0.46379
 C189 C -0.00167 -0.14729 0.46362
 C190 C 0.01559 -0.12763 0.49784
 C191 C 0.03595 -0.15339 0.53170
 C192 C 0.03917 -0.19759 0.53073
 H193 H 0.08393 -0.35588 0.51903
 H194 H -0.04321 -0.33100 0.46206
 H195 H -0.01798 -0.12849 0.43707
 H196 H 0.04959 -0.13938 0.55869
 H197 H 0.08548 -0.27906 0.52289
 H198 H 0.05462 -0.21712 0.55723
 C199 C -0.01131 0.25795 0.49197
 C200 C -0.04023 0.28584 0.46589
 C201 C -0.03787 0.32944 0.46545
 C202 C -0.00666 0.34523 0.49064
 C203 C 0.02094 0.31650 0.51701
 N204 N 0.01795 0.27417 0.51705
 C205 C -0.01151 0.21139 0.49269
 N206 N 0.00236 0.18746 0.52852
 C207 C 0.00442 0.14437 0.53089
 C208 C -0.00706 0.12282 0.49544
 C209 C -0.02127 0.14688 0.45816
 C210 C -0.02368 0.19105 0.45668
 H211 H -0.06019 0.35089 0.44535
 H212 H 0.04508 0.32775 0.53720
 H213 H 0.01585 0.12700 0.56016
 H214 H -0.03028 0.13156 0.43002
 H215 H -0.06468 0.27427 0.44639
 H216 H -0.03375 0.20883 0.42729
 C217 C 0.50688 0.00998 -0.24904
 C218 C 0.49348 0.04681 -0.27468
 C219 C 0.49486 0.04536 -0.31841
 C220 C 0.50904 0.00720 -0.33678
 C221 C 0.52243 -0.02886 -0.30984
 N222 N 0.52129 -0.02653 -0.26727
 C223 C 0.50519 0.00990 -0.20270
 N224 N 0.53711 -0.01271 -0.17803
 C225 C 0.53703 -0.01441 -0.13516
 C226 C 0.50284 0.00660 -0.11484
 C227 C 0.46933 0.02955 -0.13970
 C228 C 0.47058 0.03163 -0.18360
 H229 H 0.48464 0.07399 -0.33801
 H230 H 0.53268 -0.05915 -0.32265
 H231 H 0.56329 -0.03275 -0.11704
 H232 H 0.44237 0.04616 -0.12519
 H233 H 0.48243 0.07646 -0.26105
 H234 H 0.44435 0.04923 -0.20240
 C235 C 0.49499 -0.00229 0.26810
 C236 C 0.46439 0.02341 0.28910
 C237 C 0.46677 0.02281 0.33305
 C238 C 0.49942 -0.00331 0.35614
 C239 C 0.52949 -0.02835 0.33406
 N240 N 0.52671 -0.02706 0.29118
 C241 C 0.49436 -0.00233 0.22152
 N242 N 0.53163 -0.01156 0.20235
 C243 C 0.53355 -0.01178 0.15969
 C244 C 0.49634 -0.00260 0.13362
 C245 C 0.45750 0.00621 0.15278
 C246 C 0.45636 0.00639 0.19659
 H247 H 0.44336 0.04295 0.34912
 H248 H 0.55513 -0.04886 0.35092
 H249 H 0.56415 -0.01908 0.14626
 H250 H 0.42797 0.01319 0.13393
 H251 H 0.43943 0.04448 0.27192
 H252 H 0.42595 0.01269 0.21061
 C253 C 0.50276 -0.25841 0.01488
 C254 C 0.53473 -0.28543 -0.00272
 C255 C 0.53182 -0.32880 -0.00270
 C256 C 0.49687 -0.34579 0.01428
 C257 C 0.46597 -0.31756 0.03234
 N258 N 0.46948 -0.27528 0.03184
 C259 C 0.50370 -0.21194 0.01435
 N260 N 0.46636 -0.18579 0.01411
 C261 C 0.46477 -0.14277 0.01287
 C262 C 0.50239 -0.12365 0.01198
 C263 C 0.54124 -0.15006 0.01291
 C264 C 0.54205 -0.19407 0.01415
 H265 H 0.55632 -0.34898 -0.01738
 H266 H 0.43956 -0.32910 0.04777
 H267 H 0.43413 -0.12362 0.01261
 H268 H 0.57107 -0.13675 0.01271
 H269 H 0.56115 -0.27326 -0.01753
 H270 H 0.57246 -0.21370 0.01557
 C271 C 0.49881 0.25922 0.01791
 C272 C 0.47457 0.28363 0.04597
 C273 C 0.47584 0.32739 0.04547
 C274 C 0.50089 0.34682 0.01692
 C275 C 0.52534 0.32125 -0.00995
 N276 N 0.52382 0.27863 -0.00872
 C277 C 0.49781 0.21297 0.01647
 N278 N 0.53328 0.18790 0.00604
 C279 C 0.53441 0.14516 0.00371
 C280 C 0.49808 0.12538 0.01145
 C281 C 0.46098 0.15075 0.02152
 C282 C 0.46075 0.19445 0.02424
 H283 H 0.45689 0.34624 0.06689
 H284 H 0.54508 0.33527 -0.03231
 H285 H 0.56359 0.12677 -0.00444
 H286 H 0.43223 0.13678 0.02766
 H287 H 0.45513 0.26911 0.06827
 H288 H 0.43166 0.21354 0.03154
 C289 C -0.25359 -0.00448 0.50580
 C290 C -0.27596 -0.02713 0.47747
 C291 C -0.31967 -0.02646 0.47990
 C292 C -0.34164 -0.00332 0.51053
 C293 C -0.31764 0.01776 0.53926
 N294 N -0.27493 0.01674 0.53612
 C295 C -0.20739 -0.00324 0.50340
 N296 N -0.18356 0.00119 0.53923
 C297 C -0.14085 0.00219 0.53912
 C298 C -0.11979 -0.00104 0.50124
 C299 C -0.14395 -0.00474 0.46387
 C300 C -0.18762 -0.00583 0.46480
 H301 H -0.33635 -0.04451 0.45800
 H302 H -0.33300 0.03645 0.56310
 H303 H -0.12345 0.00545 0.56862
 H304 H -0.12911 -0.00702 0.43390
 H305 H -0.25993 -0.04567 0.45393
 H306 H -0.20566 -0.00805 0.43545
 C307 C 0.26317 -0.00187 0.50010
 C308 C 0.28244 0.02602 0.47359
 C309 C 0.32633 0.02611 0.47717
 C310 C 0.35101 -0.00151 0.50694
 C311 C 0.33063 -0.02864 0.53309
 N312 N 0.28773 -0.02798 0.52925
 C313 C 0.21675 -0.00279 0.49795
 N314 N 0.19743 -0.01343 0.53365
 C315 C 0.15479 -0.01436 0.53423
 C316 C 0.12895 -0.00453 0.49718
 C317 C 0.14831 0.00561 0.45980
 C318 C 0.19213 0.00659 0.46006
 H319 H 0.34115 0.04765 0.45670
 H320 H 0.34884 -0.05043 0.55632
 H321 H 0.14119 -0.02275 0.56367
 H322 H 0.12958 0.01316 0.43048
 H323 H 0.26387 0.04806 0.45086
 H324 H 0.20651 0.01407 0.43080
 C325 C 0.00333 0.50851 1.24694
 C326 C -0.03323 0.52178 1.26841
 C327 C -0.03136 0.51937 1.31239
 C328 C 0.00693 0.50449 1.33490
 C329 C 0.04283 0.49172 1.31237
 N330 N 0.04008 0.49357 1.26945
 C331 C 0.00233 0.50940 1.20046
 N332 N 0.02436 0.47701 1.18111
 C333 C 0.02394 0.47554 1.13839
 C334 C 0.00092 0.50838 1.11260
 C335 C -0.02121 0.54253 1.13191
 C336 C -0.02087 0.54299 1.17581
 H337 H -0.05967 0.52921 1.32898
 H338 H 0.07282 0.47997 1.32892
 H339 H 0.04177 0.44887 1.12464
 H340 H -0.03930 0.56850 1.11310
 H341 H -0.06311 0.53303 1.25139
 H342 H -0.03814 0.56953 1.19029
 C343 C -0.01306 0.49720 0.73021
 C344 C -0.04239 0.52341 0.70302
 C345 C -0.03896 0.52212 0.65952
 C346 C -0.00650 0.49483 0.64314
 C347 C 0.02116 0.46799 0.67113
 N348 N 0.01732 0.46987 0.71346
 C349 C -0.01374 0.49906 0.77655
 N350 N 0.00193 0.46402 0.80143
 C351 C 0.00357 0.46399 0.84428
 C352 C -0.01043 0.50107 0.86447
 C353 C -0.02639 0.53761 0.83940
 C354 C -0.02815 0.53675 0.79556
 H355 H -0.06116 0.54280 0.63857
 H356 H 0.04631 0.44629 0.65934
 H357 H 0.01635 0.43518 0.86243
 H358 H -0.03735 0.56697 0.85363
 H359 H -0.06774 0.54463 0.71507
 H360 H -0.03959 0.56564 0.77695
   
