data_POSCAR
  _audit_creation_date              2014-09-24
  _audit_creation_method            'ToBaCCo'
  _symmetry_space_group_name_H-M    'P1'
  _symmetry_Int_Tables_number       1
  _symmetry_cell_setting            triclinic
  loop_
  _symmetry_equiv_pos_as_xyz
 x,y,z
_cell_length_a 45.8024
_cell_length_b 46.7215
_cell_length_c 15.2128
_cell_angle_alpha 89.539500
_cell_angle_beta 89.682000
_cell_angle_gamma 119.651300
loop_
  _atom_site_label
  _atom_site_type_symbol
  _atom_site_fract_x
  _atom_site_fract_y
  _atom_site_fract_z
C1 C 0.22240 0.44416 0.53479
 C2 C 0.21784 0.44368 0.44594
 C3 C 0.19052 0.44836 0.40874
 C4 C 0.24140 0.44111 0.38238
 C5 C 0.25385 0.44751 0.57200
 C6 C 0.19774 0.44459 0.59872
 C7 C 0.16732 0.42518 0.35111
 C8 C 0.14032 0.42837 0.32070
 C9 C 0.13575 0.45474 0.34764
 C10 C 0.16001 0.47861 0.40343
 C11 C 0.18721 0.47559 0.43249
 C12 C 0.25286 0.41846 0.39587
 C13 C 0.27820 0.41935 0.34220
 C14 C 0.29138 0.44189 0.27171
 C15 C 0.27813 0.46267 0.25401
 C16 C 0.25365 0.46257 0.30935
 C17 C 0.28530 0.47363 0.54548
 C18 C 0.31476 0.47696 0.58153
 C19 C 0.31323 0.45441 0.64576
 C20 C 0.28170 0.42871 0.67329
 C21 C 0.25226 0.42524 0.63664
 C22 C 0.20927 0.46745 0.66731
 C23 C 0.18654 0.47006 0.72350
 C24 C 0.15190 0.45053 0.71078
 C25 C 0.14013 0.42683 0.64447
 C26 C 0.16290 0.42333 0.59025
 H27 H 0.16970 0.40422 0.33121
 H28 H 0.12269 0.40975 0.27678
 H29 H 0.15898 0.50021 0.42360
 H30 H 0.20551 0.49429 0.47493
 H31 H 0.24291 0.40074 0.44956
 H32 H 0.28742 0.40243 0.35549
 H33 H 0.24508 0.48004 0.29667
 H34 H 0.28696 0.49165 0.49751
 H35 H 0.33847 0.49785 0.56123
 H36 H 0.27986 0.41138 0.72376
 H37 H 0.22821 0.40520 0.65871
 H38 H 0.23590 0.48395 0.67606
 H39 H 0.19602 0.48818 0.77516
 H40 H 0.11341 0.41093 0.63524
 H41 H 0.15332 0.40464 0.54014
 H42 H 0.28770 0.47994 0.19917
 C43 C 0.49875 -0.24498 0.54930
 C44 C 0.49832 -0.24626 0.45973
 C45 C 0.49091 -0.27635 0.41033
 C46 C 0.50319 -0.21745 0.40675
 C47 C 0.49960 -0.21637 0.59402
 C48 C 0.49898 -0.27112 0.60553
 C49 C 0.51056 -0.27383 0.33646
 C50 C 0.50265 -0.30140 0.28558
 C51 C 0.47486 -0.33223 0.30782
 C52 C 0.45491 -0.33458 0.38094
 C53 C 0.46279 -0.30692 0.43169
 C54 C 0.53386 -0.18776 0.40844
 C55 C 0.53688 -0.15947 0.36780
 C56 C 0.50908 -0.16059 0.32592
 C57 C 0.47885 -0.19059 0.32185
 C58 C 0.47608 -0.21897 0.36073
 C59 C 0.47416 -0.20844 0.57932
 C60 C 0.47703 -0.17930 0.61190
 C61 C 0.50520 -0.15784 0.66123
 C62 C 0.52959 -0.16684 0.68026
 C63 C 0.52693 -0.19579 0.64655
 C64 C 0.47788 -0.28327 0.67979
 C65 C 0.47754 -0.30809 0.73263
 C66 C 0.49851 -0.32145 0.71234
 C67 C 0.52033 -0.30834 0.63912
 C68 C 0.52072 -0.28342 0.58683
 H69 H 0.53196 -0.25035 0.31771
 H70 H 0.51800 -0.29818 0.22808
 H71 H 0.43315 -0.35792 0.39889
 H72 H 0.44663 -0.30925 0.48673
 H73 H 0.55498 -0.18630 0.44394
 H74 H 0.56028 -0.13648 0.37309
 H75 H 0.45225 -0.24170 0.35920
 H76 H 0.45242 -0.22452 0.54078
 H77 H 0.45706 -0.17385 0.59910
 H78 H 0.55121 -0.15099 0.71951
 H79 H 0.54668 -0.20161 0.65908
 H80 H 0.46117 -0.27387 0.69623
 H81 H 0.46048 -0.31654 0.78821
 H82 H 0.53712 -0.31755 0.62157
 H83 H 0.53801 -0.27378 0.53148
 H84 H 0.45711 -0.19186 0.29021
 C85 C 1.25213 0.77454 0.54544
 C86 C 1.25051 0.77396 0.45604
 C87 C 1.27780 0.80026 0.40188
 C88 C 1.22371 0.74596 0.40733
 C89 C 1.22573 0.74855 0.60258
 C90 C 1.28243 0.79999 0.59061
 C91 C 1.28601 0.83325 0.40996
 C92 C 1.31327 0.85808 0.36319
 C93 C 1.33303 0.85032 0.30696
 C94 C 1.32370 0.81691 0.29722
 C95 C 1.29641 0.79222 0.34385
 C96 C 1.20513 0.75189 0.34401
 C97 C 1.18211 0.72634 0.29147
 C98 C 1.17789 0.69456 0.29962
 C99 C 1.19614 0.68850 0.36425
 C100 C 1.21891 0.71402 0.41743
 C101 C 1.23510 0.73360 0.66846
 C102 C 1.21105 0.70976 0.72450
 C103 C 1.17681 0.70007 0.71669
 C104 C 1.16744 0.71539 0.65058
 C105 C 1.19173 0.73944 0.59455
 C106 C 1.31281 0.79980 0.58335
 C107 C 1.34084 0.82228 0.63009
 C108 C 1.33938 0.84586 0.68423
 C109 C 1.30877 0.84623 0.69023
 C110 C 1.28050 0.82319 0.64452
 H111 H 1.27154 0.83981 0.45362
 H112 H 1.31855 0.88301 0.37318
 H113 H 1.33795 0.80978 0.25442
 H114 H 1.29038 0.76684 0.33654
 H115 H 1.20871 0.77644 0.33474
 H116 H 1.16813 0.73157 0.24288
 H117 H 1.23337 0.70903 0.46508
 H118 H 1.26117 0.74019 0.67623
 H119 H 1.21941 0.69868 0.77400
 H120 H 1.14167 0.70915 0.64062
 H121 H 1.18399 0.75110 0.54523
 H122 H 1.31457 0.78175 0.54278
 H123 H 1.36382 0.82111 0.62383
 H124 H 1.30592 0.86330 0.73195
 H125 H 1.25703 0.82334 0.65139
 H126 H 1.19280 0.66409 0.37414
 C127 C 0.76099 0.52128 0.54767
 C128 C 0.76110 0.52042 0.45822
 C129 C 0.78974 0.52177 0.40787
 C130 C 0.73096 0.51407 0.40755
 C131 C 0.73385 0.52272 0.59813
 C132 C 0.78583 0.51675 0.59895
 C133 C 0.82286 0.54694 0.42194
 C134 C 0.84971 0.54732 0.37654
 C135 C 0.84385 0.52263 0.31517
 C136 C 0.81062 0.49783 0.30049
 C137 C 0.78386 0.49747 0.34589
 C138 C 0.73344 0.53529 0.33863
 C139 C 0.70533 0.52821 0.28786
 C140 C 0.67441 0.49949 0.30483
 C141 C 0.67226 0.47807 0.37286
 C142 C 0.70022 0.48532 0.42394
 C143 C 0.71616 0.49921 0.66410
 C144 C 0.68997 0.49965 0.71018
 C145 C 0.68088 0.52383 0.69238
 C146 C 0.69938 0.54799 0.62721
 C147 C 0.72549 0.54730 0.58071
 C148 C 0.78698 0.48747 0.59159
 C149 C 0.80952 0.48246 0.64146
 C150 C 0.83181 0.50677 0.69912
 C151 C 0.83026 0.53613 0.70691
 C152 C 0.80720 0.54082 0.65776
 H153 H 0.82795 0.56614 0.46882
 H154 H 0.87483 0.56655 0.39156
 H155 H 0.80531 0.47844 0.25403
 H156 H 0.75856 0.47777 0.33394
 H157 H 0.75718 0.55723 0.32401
 H158 H 0.70812 0.54478 0.23430
 H159 H 0.69806 0.46818 0.47536
 H160 H 0.72216 0.47999 0.67879
 H161 H 0.67658 0.48070 0.75972
 H162 H 0.69394 0.56732 0.61026
 H163 H 0.73917 0.56596 0.53077
 H164 H 0.77014 0.46834 0.54763
 H165 H 0.80972 0.45950 0.63400
 H166 H 0.84608 0.55536 0.75160
 H167 H 0.80615 0.56334 0.66507
 H168 H 0.64884 0.45566 0.38659
 C169 C 0.46439 0.23812 0.53466
 C170 C 0.45789 0.23412 0.44662
 C171 C 0.45663 0.26033 0.39282
 C172 C 0.45637 0.20645 0.39559
 C173 C 0.46794 0.21378 0.59261
 C174 C 0.47233 0.26997 0.57471
 C175 C 0.43325 0.27080 0.41086
 C176 C 0.43326 0.29607 0.36069
 C177 C 0.45585 0.31032 0.28976
 C178 C 0.47828 0.29899 0.26989
 C179 C 0.47895 0.27454 0.32148
 C180 C 0.43047 0.19008 0.33472
 C181 C 0.43083 0.16691 0.27789
 C182 C 0.45675 0.15927 0.28198
 C183 C 0.48264 0.17552 0.34315
 C184 C 0.48268 0.19921 0.39860
 C185 C 0.49188 0.22534 0.66010
 C186 C 0.49629 0.20360 0.71429
 C187 C 0.47787 0.16948 0.70123
 C188 C 0.45318 0.15755 0.63527
 C189 C 0.44769 0.17943 0.58346
 C190 C 0.50467 0.29714 0.56500
 C191 C 0.51259 0.32714 0.60309
 C192 C 0.48790 0.33108 0.64795
 C193 C 0.45514 0.30375 0.65591
 C194 C 0.44774 0.27327 0.62132
 H195 H 0.41489 0.25928 0.46326
 H196 H 0.41509 0.30382 0.37570
 H197 H 0.49566 0.30945 0.21488
 H198 H 0.49701 0.26670 0.30581
 H199 H 0.41035 0.19585 0.32989
 H200 H 0.41091 0.15501 0.23048
 H201 H 0.50365 0.21250 0.44223
 H202 H 0.50778 0.25141 0.67104
 H203 H 0.51519 0.21377 0.76496
 H204 H 0.43722 0.13142 0.62517
 H205 H 0.42763 0.16935 0.53610
 H206 H 0.52391 0.29485 0.52918
 H207 H 0.53804 0.34751 0.59626
 H208 H 0.43556 0.30518 0.69230
 H209 H 0.42272 0.25235 0.62971
 H210 H 0.50355 0.17087 0.34573
 C211 C 0.78427 0.25122 0.55293
 C212 C 0.78091 0.24945 0.46370
 C213 C 0.74851 0.22621 0.42190
 C214 C 0.80827 0.27218 0.40227
 C215 C 0.81479 0.27752 0.59633
 C216 C 0.75680 0.22751 0.61226
 C217 C 0.74780 0.20456 0.35756
 C218 C 0.71854 0.18526 0.31035
 C219 C 0.68935 0.18735 0.32641
 C220 C 0.69016 0.20912 0.39072
 C221 C 0.71943 0.22832 0.43829
 C222 C 0.84164 0.27882 0.41095
 C223 C 0.86689 0.30150 0.35440
 C224 C 0.85877 0.31663 0.28610
 C225 C 0.82534 0.30876 0.27471
 C226 C 0.80043 0.28716 0.33284
 C227 C 0.82755 0.31095 0.57500
 C228 C 0.85632 0.33529 0.61599
 C229 C 0.87240 0.32678 0.68192
 C230 C 0.85880 0.29329 0.70467
 C231 C 0.83054 0.26899 0.66209
 C232 C 0.74456 0.23941 0.67900
 C233 C 0.71824 0.21762 0.73389
 C234 C 0.70365 0.18340 0.72393
 C235 C 0.71644 0.17144 0.65798
 C236 C 0.74290 0.19334 0.60312
 H237 H 0.77022 0.20317 0.34264
 H238 H 0.71927 0.16958 0.25944
 H239 H 0.66814 0.21144 0.40369
 H240 H 0.71974 0.24555 0.48600
 H241 H 0.84821 0.26678 0.46193
 H242 H 0.89255 0.30682 0.36299
 H243 H 0.77499 0.28244 0.32403
 H244 H 0.81512 0.31825 0.52670
 H245 H 0.86473 0.36059 0.59772
 H246 H 0.87013 0.28574 0.75557
 H247 H 0.82092 0.24341 0.68050
 H248 H 0.75500 0.26567 0.68753
 H249 H 0.70896 0.22761 0.78382
 H250 H 0.70593 0.14538 0.64694
 H251 H 0.75236 0.18363 0.55293
 H252 H 0.81863 0.32008 0.22198
 O253 O 0.98829 0.54474 -0.11163
 O254 O 1.04600 0.56650 0.12265
 O255 O 0.94456 0.49162 0.06784
 O256 O 1.08580 0.55807 -0.08145
 O257 O 0.98211 0.53289 0.14438
 O258 O 1.04826 0.57166 -0.09788
 O259 O 1.08509 0.55661 0.07735
 O260 O 0.94868 0.49516 -0.09353
 C261 C 0.95785 0.52470 -0.10990
 C262 C 1.07638 0.57593 0.11108
 C263 C 0.95233 0.51477 0.12101
 C264 C 1.07833 0.57975 -0.09910
 O265 O 1.04881 0.52033 -0.18356
 O266 O 0.98731 0.48026 0.17854
 O267 O 0.97183 0.45271 -0.09510
 O268 O 1.05705 0.48931 0.07115
 O269 O 1.04950 0.51400 0.17751
 O270 O 0.98823 0.49251 -0.19004
 O271 O 1.05474 0.49133 -0.08412
 O272 O 0.96096 0.44555 0.07188
 Co273 Co 1.01836 0.53079 -0.13375
 Co274 Co 1.01646 0.52274 0.14021
 Co275 Co 0.96235 0.47518 -0.01218
 Co276 Co 1.06619 0.52307 -0.00406
 O277 O 1.01552 0.51308 -0.00165
 C278 C 1.05551 0.49823 -0.16290
 C279 C 0.96869 0.45128 0.15132
 C280 C 0.97562 0.46219 -0.17312
 C281 C 1.05752 0.49363 0.15079
 O282 O 0.49304 0.47468 -0.18605
 O283 O 0.46367 0.50235 0.18119
 O284 O 0.47755 0.43879 0.08049
 O285 O 0.42837 0.47695 -0.07705
 O286 O 0.49630 0.47491 0.18399
 O287 O 0.46220 0.50561 -0.17952
 O288 O 0.43100 0.47460 0.07849
 O289 O 0.48753 0.43837 -0.08469
 C290 C 0.48559 0.44583 -0.16284
 C291 C 0.43524 0.48041 0.15773
 C292 C 0.47953 0.44526 0.16016
 C293 C 0.43367 0.48341 -0.15609
 O294 O 0.51637 0.55819 -0.11836
 O295 O 0.55026 0.53107 0.11348
 O296 O 0.54830 0.48701 -0.06673
 O297 O 0.46521 0.54193 0.08423
 O298 O 0.51660 0.55643 0.10238
 O299 O 0.54939 0.52739 -0.14470
 O300 O 0.46592 0.54431 -0.07383
 O301 O 0.54224 0.48292 0.09479
 Co302 Co 0.50416 0.51532 -0.14158
 Co303 Co 0.50557 0.51493 0.13316
 Co304 Co 0.51169 0.46548 0.00614
 Co305 Co 0.45142 0.50878 0.00285
 O306 O 0.49356 0.50104 -0.00127
 C307 C 0.49427 0.56580 -0.10377
 C308 C 0.56176 0.51220 0.11322
 C309 C 0.56280 0.51092 -0.11989
 C310 C 0.49435 0.56397 0.10164
 O311 O 0.55919 0.02820 -0.13705
 O312 O 0.52362 -0.02614 0.16186
 O313 O 0.56139 0.07709 0.08294
 O314 O 0.52925 -0.02991 -0.11336
 O315 O 0.55926 0.03587 0.16165
 O316 O 0.51055 -0.01523 -0.22458
 O317 O 0.54059 -0.03170 0.03701
 O318 O 0.56474 0.07346 -0.08147
 C319 C 0.57691 0.05851 -0.12415
 C320 C 0.53952 -0.03606 0.11705
 C321 C 0.57387 0.06588 0.13947
 C322 C 0.51924 -0.03558 -0.19174
 O323 O 0.46827 -0.00746 -0.13005
 O324 O 0.50599 0.03988 0.17950
 O325 O 0.49743 0.05591 -0.08720
 O326 O 0.47305 -0.05749 0.07690
 O327 O 0.46971 -0.02062 0.15620
 O328 O 0.51725 0.04330 -0.19481
 O329 O 0.46346 -0.05201 -0.07657
 O330 O 0.49561 0.06006 0.06512
 Co331 Co 0.51335 0.00896 -0.12803
 Co332 Co 0.51453 0.00743 0.14925
 Co333 Co 0.52877 0.06219 -0.00523
 Co334 Co 0.50262 -0.03833 -0.01671
 O335 O 0.51445 0.01164 0.00546
 C336 C 0.45053 -0.03743 -0.11575
 C337 C 0.49437 0.05627 0.14579
 C338 C 0.50348 0.05854 -0.16737
 C339 C 0.45684 -0.04944 0.12896
 C340 C 1.10934 0.45685 0.31590
 C341 C 1.10014 0.48017 0.34188
 C342 C 1.07950 0.48837 0.29269
 C343 C 1.07094 0.47915 0.20525
 H344 H 1.10939 0.49327 0.40273
 H345 H 1.07323 0.50584 0.32132
 H346 H 1.09396 0.43898 0.26740
 H347 H 1.07823 0.46294 0.17377
 C348 C 0.46569 0.63778 0.25605
 C349 C 0.48775 0.63405 0.20637
 C350 C 0.47825 0.60257 0.16343
 C351 C 0.50194 0.59673 0.13116
 H352 H 0.51373 0.65339 0.20201
 H353 H 0.45214 0.58327 0.16410
 H354 H 0.44037 0.61719 0.26355
 H355 H 0.52814 0.61564 0.13453
 C356 C 0.36207 -0.12585 0.26173
 C357 C 0.37475 -0.09304 0.26585
 C358 C 0.40675 -0.06835 0.22366
 C359 C 0.42400 -0.07501 0.16333
 H360 H 0.36271 -0.08266 0.30513
 H361 H 0.41657 -0.04317 0.24476
 H362 H 0.37549 -0.13506 0.22319
 H363 H 0.41450 -0.09960 0.13847
 C364 C 0.87129 0.52064 0.26805
 C365 C 0.90319 0.54538 0.26144
 C366 C 0.93043 0.54204 0.21842
 C367 C 0.92521 0.51973 0.15662
 H368 H 0.91059 0.56876 0.29188
 H369 H 0.95584 0.55893 0.23888
 H370 H 0.86459 0.49721 0.23861
 H371 H 0.90019 0.50378 0.13230
 C372 C 0.45575 0.33582 0.23229
 C373 C 0.45249 0.36100 0.26196
 C374 C 0.45735 0.38737 0.19987
 C375 C 0.46688 0.41810 0.22547
 H376 H 0.44915 0.36344 0.33155
 H377 H 0.45650 0.38218 0.13026
 H378 H 0.46182 0.33551 0.16338
 H379 H 0.46913 0.42389 0.29479
 C380 C 0.65827 0.16816 0.27511
 C381 C 0.64985 0.13888 0.24054
 C382 C 0.61818 0.11962 0.19276
 C383 C 0.60645 0.08756 0.17984
 H384 H 0.66562 0.12797 0.25126
 H385 H 0.60377 0.13113 0.17198
 H386 H 0.64101 0.17765 0.26933
 H387 H 0.62017 0.07603 0.20598
 C388 C 0.48474 0.14904 -0.24415
 C389 C 0.47611 0.11770 -0.26095
 C390 C 0.48593 0.09936 -0.19961
 C391 C 0.49227 0.07592 -0.22769
 H392 H 0.46398 0.10613 -0.32168
 H393 H 0.48969 0.10636 -0.13105
 H394 H 0.50003 0.16010 -0.18663
 H395 H 0.49070 0.07041 -0.29715
 C396 C 0.65331 0.52200 -0.26062
 C397 C 0.64139 0.54309 -0.26905
 C398 C 0.61044 0.53845 -0.22426
 C399 C 0.59619 0.51887 -0.15369
 H400 H 0.65281 0.56366 -0.31448
 H401 H 0.59853 0.55132 -0.25298
 H402 H 0.64030 0.50119 -0.21620
 H403 H 0.60803 0.50649 -0.12212
 C404 C 0.90011 0.35027 -0.27024
 C405 C 0.91809 0.38253 -0.29004
 C406 C 0.94218 0.40567 -0.22635
 C407 C 0.95994 0.43802 -0.24375
 H408 H 0.91416 0.39252 -0.35028
 H409 H 0.94271 0.39650 -0.16099
 H410 H 0.90714 0.34166 -0.21188
 H411 H 0.95944 0.44719 -0.30909
 C412 C 0.50928 -0.12671 -0.30301
 C413 C 0.49711 -0.10886 -0.34193
 C414 C 0.49987 -0.07841 -0.30428
 C415 C 0.52170 -0.06099 -0.24162
 H416 H 0.48317 -0.11739 -0.40231
 H417 H 0.48216 -0.07100 -0.32684
 H418 H 0.52319 -0.11850 -0.24265
 H419 H 0.53975 -0.06768 -0.21810
 C420 C 0.34351 0.45866 -0.30857
 C421 C 0.37464 0.47467 -0.34357
 C422 C 0.40531 0.48330 -0.29270
 C423 C 0.40516 0.46886 -0.21618
 H424 H 0.37843 0.48432 -0.41006
 H425 H 0.42854 0.50395 -0.31702
 H426 H 0.33953 0.44900 -0.24216
 H427 H 0.38253 0.44769 -0.19159
 C428 C 1.15382 0.67491 -0.22620
 C429 C 1.12030 0.66247 -0.22528
 C430 C 1.09638 0.63320 -0.17257
 C431 C 1.10419 0.61205 -0.13335
 H432 H 1.10878 0.67302 -0.26613
 H433 H 1.07034 0.62730 -0.17368
 H434 H 1.16437 0.66477 -0.18045
 H435 H 1.12962 0.61633 -0.13408
 C436 C 0.85437 0.50034 -0.25381
 C437 C 0.88009 0.52225 -0.20573
 C438 C 0.90285 0.51248 -0.16435
 C439 C 0.93368 0.53478 -0.13909
 H440 H 0.88597 0.54761 -0.20071
 H441 H 0.89505 0.48647 -0.16020
 H442 H 0.85153 0.47594 -0.25981
 H443 H 0.94219 0.56083 -0.14684
 C444 C 0.49747 0.36136 -0.31180
 C445 C 0.47614 0.37141 -0.28497
 C446 C 0.48846 0.40058 -0.22946
 C447 C 0.47449 0.41978 -0.22834
 H448 H 0.44978 0.35819 -0.30164
 H449 H 0.50945 0.40619 -0.18659
 H450 H 0.52413 0.37797 -0.30246
 H451 H 0.45531 0.41641 -0.27507
 C452 C 0.67428 0.16170 -0.21919
 C453 C 0.65945 0.12877 -0.21485
 C454 C 0.62830 0.10986 -0.16272
 C455 C 0.61069 0.07694 -0.16432
 H456 H 0.66916 0.11551 -0.25147
 H457 H 0.61849 0.12328 -0.12669
 H458 H 0.66370 0.17367 -0.17977
 H459 H 0.62009 0.06343 -0.20146
 C460 C 1.12873 0.45509 -0.23131
 C461 C 1.10366 0.45906 -0.26225
 C462 C 1.08460 0.46811 -0.20134
 C463 C 1.06866 0.48411 -0.22794
 H464 H 1.09911 0.45818 -0.33230
 H465 H 1.08630 0.46417 -0.13162
 H466 H 1.13482 0.45896 -0.16206
 H467 H 1.06817 0.48957 -0.29710
 C468 C 0.49828 0.65232 -0.23995
 C469 C 0.47819 0.63646 -0.17041
 C470 C 0.47584 0.60653 -0.12915
 C471 C 0.50008 0.59837 -0.13316
 H472 H 0.46028 0.64315 -0.14593
 H473 H 0.45245 0.59019 -0.09530
 H474 H 0.51470 0.64357 -0.26408
 H475 H 0.52424 0.61504 -0.16278
 C476 C 0.36829 -0.13293 -0.26812
 C477 C 0.37283 -0.10668 -0.22188
 C478 C 0.40439 -0.08767 -0.17360
 C479 C 0.41645 -0.05613 -0.15172
 H480 H 0.35461 -0.09836 -0.22145
 H481 H 0.41943 -0.09931 -0.16100
 H482 H 0.38904 -0.13796 -0.27030
 H483 H 0.40299 -0.04334 -0.16942
 C484 C 0.50964 -0.13050 0.29401
 C485 C 0.53637 -0.10514 0.25577
 C486 C 0.53354 -0.07664 0.22624
 C487 C 0.54999 -0.05849 0.15557
 H488 H 0.55910 -0.10615 0.24256
 H489 H 0.51443 -0.07281 0.25768
 H490 H 0.48636 -0.12980 0.29934
 H491 H 0.56721 -0.06374 0.11936
 C492 C 0.31887 0.44434 0.21544
 C493 C 0.34626 0.44500 0.24815
 C494 C 0.37498 0.45274 0.18957
 C495 C 0.40644 0.46603 0.21943
 H496 H 0.34859 0.44277 0.31842
 H497 H 0.37064 0.45062 0.11930
 H498 H 0.31827 0.44952 0.14604
 H499 H 0.41117 0.46994 0.28924
 C500 C 1.15372 0.66822 0.24152
 C501 C 1.15752 0.64277 0.21634
 C502 C 1.13324 0.61496 0.16232
 C503 C 1.10132 0.60751 0.14919
 H504 H 1.17980 0.64193 0.23561
 H505 H 1.14147 0.59818 0.13934
 H506 H 1.13316 0.67092 0.21637
 H507 H 1.09197 0.62292 0.17545
 C508 C 0.45759 0.13590 0.21863
 C509 C 0.46818 0.11499 0.24175
 C510 C 0.47303 0.09447 0.17691
 C511 C 0.48201 0.07279 0.20452
 H512 H 0.47454 0.11377 0.30973
 H513 H 0.47167 0.09871 0.10726
 H514 H 0.44920 0.13580 0.15209
 H515 H 0.48318 0.06901 0.27458
 C516 C 0.64414 0.49048 0.25197
 C517 C 0.63804 0.51255 0.21204
 C518 C 0.60580 0.50174 0.16800
 C519 C 0.59581 0.52323 0.14563
 H520 H 0.65570 0.53866 0.21663
 H521 H 0.58905 0.47559 0.15896
 H522 H 0.62497 0.46468 0.25095
 H523 H 0.61205 0.54926 0.15750
 C524 C 0.88427 0.34049 0.22479
 C525 C 0.91276 0.36630 0.25199
 C526 C 0.93306 0.39297 0.18896
 C527 C 0.95462 0.42356 0.21483
 H528 H 0.91894 0.36930 0.32122
 H529 H 0.92762 0.38813 0.11963
 H530 H 0.87716 0.33940 0.15646
 H531 H 0.95967 0.42874 0.28413
   
