data_POSCAR
  _audit_creation_date              2014-09-24
  _audit_creation_method            'ToBaCCo'
  _symmetry_space_group_name_H-M    'P1'
  _symmetry_Int_Tables_number       1
  _symmetry_cell_setting            triclinic
  loop_
  _symmetry_equiv_pos_as_xyz
 x,y,z
_cell_length_a 33.5362
_cell_length_b 33.3945
_cell_length_c 14.5063
_cell_angle_alpha 89.603800
_cell_angle_beta 89.991500
_cell_angle_gamma 120.729700
loop_
  _atom_site_label
  _atom_site_type_symbol
  _atom_site_fract_x
  _atom_site_fract_y
  _atom_site_fract_z
C1 C 0.46252 0.89541 0.57104
 C2 C 0.46692 0.87766 0.48690
 C3 C 0.48150 0.90464 0.40656
 C4 C 0.49551 0.95218 0.41057
 C5 C 0.49626 0.97260 0.49654
 C6 C 0.48030 0.94433 0.57762
 C7 C 0.48559 0.96643 0.66250
 C8 C 0.50226 1.01402 0.66726
 C9 C 0.51642 1.04257 0.58755
 C10 C 0.51284 1.02134 0.50103
 C11 C 0.50745 0.97941 0.33021
 C12 C 0.52125 1.02617 0.33394
 C13 C 0.52590 1.04855 0.41878
 C14 C 0.54120 1.09680 0.42257
 C15 C 0.54274 1.11677 0.50852
 C16 C 0.53311 1.09131 0.59189
 H17 H 0.47830 0.94763 0.72704
 H18 H 0.50286 1.02757 0.73492
 H19 H 0.50540 0.96465 0.26297
 H20 H 0.52737 1.04398 0.26847
 H21 H 0.45540 0.84088 0.48146
 H22 H 0.55784 1.15411 0.51088
 C23 C 0.09660 0.55299 0.58357
 C24 C 0.12061 0.56421 0.49978
 C25 C 0.09763 0.54953 0.41550
 C26 C 0.04858 0.52339 0.41427
 C27 C 0.02343 0.51133 0.49862
 C28 C 0.04760 0.52577 0.58366
 C29 C 0.02212 0.51320 0.66630
 C30 C -0.02603 0.48650 0.66581
 C31 C -0.05084 0.47202 0.58257
 C32 C -0.02595 0.48451 0.49803
 C33 C 0.02409 0.50764 0.33132
 C34 C -0.02413 0.48161 0.33065
 C35 C -0.05021 0.47036 0.41302
 C36 C -0.09962 0.44361 0.41286
 C37 C -0.12331 0.43018 0.49803
 C38 C -0.09982 0.44479 0.58215
 H39 H 0.03907 0.52377 0.73249
 H40 H -0.04347 0.47702 0.73195
 H41 H 0.04192 0.51466 0.26578
 H42 H -0.04033 0.46939 0.26433
 H43 H 0.15821 0.58460 0.50018
 H44 H -0.16085 0.41195 0.49966
 C45 C 0.54975 0.45582 0.41571
 C46 C 0.56863 0.45133 0.49857
 C47 C 0.55975 0.46579 0.58319
 C48 C 0.53462 0.48959 0.58244
 C49 C 0.51488 0.49404 0.49921
 C50 C 0.52166 0.47617 0.41604
 C51 C 0.50083 0.47987 0.33487
 C52 C 0.47285 0.49944 0.33569
 C53 C 0.46548 0.51731 0.41722
 C54 C 0.48795 0.51609 0.49926
 C55 C 0.52971 0.51026 0.66250
 C56 C 0.50458 0.53276 0.66218
 C57 C 0.48348 0.53663 0.58135
 C58 C 0.45655 0.55860 0.58126
 C59 C 0.43319 0.55745 0.49962
 C60 C 0.43725 0.53745 0.41811
 H61 H 0.50592 0.46773 0.26946
 H62 H 0.45780 0.50114 0.27092
 H63 H 0.54612 0.51044 0.72670
 H64 H 0.50135 0.54595 0.72768
 H65 H 0.58659 0.43211 0.49702
 H66 H 0.41270 0.57403 0.49722
 O67 O 0.39421 0.65519 -0.08645
 O68 O 0.39328 0.73107 -0.12090
 C69 C 0.37477 0.75514 -0.13589
 O70 O 0.33958 0.74941 -0.09104
 O71 O 0.26272 0.66848 -0.11526
 C72 C 0.23889 0.62450 -0.12241
 O73 O 0.24436 0.59691 -0.06980
 O74 O 0.32063 0.59715 -0.10018
 C75 C 0.36244 0.61881 -0.12639
 O76 O 0.39653 0.67464 0.09663
 O77 O 0.39811 0.75135 0.06150
 C78 C 0.36873 0.75652 0.10830
 O79 O 0.32573 0.73507 0.09148
 O80 O 0.24649 0.65855 0.06733
 C81 C 0.24115 0.62574 0.12064
 O82 O 0.26442 0.60579 0.11214
 O83 O 0.33891 0.60114 0.08287
 C84 C 0.37525 0.63268 0.12265
 Cr85 Cr 0.39317 0.70178 -0.01216
 Cr86 Cr 0.29484 0.70171 -0.01191
 Cr87 Cr 0.29340 0.60262 0.00587
 O88 O 0.32730 0.66871 -0.00624
 O89 O 0.61677 0.37193 -0.08537
 O90 O 0.58517 0.28352 -0.10575
 C91 C 0.59284 0.25103 -0.12354
 O92 O 0.62073 0.24375 -0.07718
 O93 O 0.70872 0.30174 -0.10456
 C94 C 0.74172 0.34225 -0.12413
 O95 O 0.74982 0.37812 -0.07903
 O96 O 0.69308 0.40772 -0.11136
 C97 C 0.65287 0.39927 -0.13212
 O98 O 0.61233 0.35955 0.09938
 O99 O 0.57783 0.27059 0.08063
 C100 C 0.59600 0.25133 0.12636
 O101 O 0.63493 0.25605 0.10619
 O102 O 0.72328 0.31078 0.08066
 C103 C 0.74280 0.34898 0.12447
 O104 O 0.73816 0.38327 0.10335
 O105 O 0.68469 0.41734 0.07221
 C106 C 0.64653 0.39961 0.11620
 Cr107 Cr 0.60041 0.32171 -0.00272
 Cr108 Cr 0.67159 0.28014 0.00116
 Cr109 Cr 0.71434 0.39421 -0.00357
 O110 O 0.66206 0.33199 -0.00124
 C111 C 0.43969 0.86181 -0.35838
 C112 C 0.41190 0.86291 -0.29268
 C113 C 0.38613 0.82438 -0.22476
 C114 C 0.39749 0.79203 -0.20625
 H115 H 0.40436 0.89077 -0.29218
 H116 H 0.35811 0.82393 -0.18673
 H117 H 0.43945 0.82954 -0.36651
 H118 H 0.42720 0.79378 -0.23937
 C119 C 0.12435 0.56928 -0.33075
 C120 C 0.16003 0.61312 -0.32432
 C121 C 0.19301 0.63093 -0.24720
 C122 C 0.20262 0.60416 -0.19339
 H123 H 0.16563 0.63790 -0.37871
 H124 H 0.21274 0.66844 -0.23972
 H125 H 0.11588 0.54491 -0.27420
 H126 H 0.18451 0.56679 -0.20252
 C127 C 0.45376 0.58232 -0.34018
 C128 C 0.41739 0.58736 -0.32205
 C129 C 0.41414 0.60973 -0.23717
 C130 C 0.37223 0.59978 -0.20864
 H131 H 0.38706 0.57107 -0.36575
 H132 H 0.44488 0.63258 -0.19777
 H133 H 0.48099 0.59560 -0.28925
 H134 H 0.34213 0.57489 -0.24762
 C135 C 0.54529 0.11525 -0.32275
 C136 C 0.54973 0.15706 -0.30873
 C137 C 0.56937 0.18249 -0.22205
 C138 C 0.56870 0.22130 -0.20332
 H139 H 0.53903 0.17308 -0.36059
 H140 H 0.58600 0.17026 -0.17484
 H141 H 0.55303 0.09990 -0.26471
 H142 H 0.55093 0.23256 -0.24975
 C143 C 0.87269 0.43597 -0.33199
 C144 C 0.83528 0.39473 -0.31162
 C145 C 0.80793 0.38903 -0.22790
 C146 C 0.77170 0.34767 -0.20337
 H147 H 0.82465 0.36539 -0.35714
 H148 H 0.81704 0.41953 -0.18684
 H149 H 0.88352 0.46457 -0.28441
 H150 H 0.76293 0.31718 -0.24415
 C151 C 0.57107 0.45213 -0.33275
 C152 C 0.60445 0.44165 -0.32273
 C153 C 0.60973 0.42269 -0.23458
 C154 C 0.64827 0.42190 -0.21561
 H155 H 0.62855 0.44759 -0.37813
 H156 H 0.58137 0.40858 -0.18524
 H157 H 0.55110 0.44905 -0.27170
 H158 H 0.67722 0.43774 -0.26355
 C159 C 0.87484 0.43451 0.33014
 C160 C 0.83173 0.39827 0.31828
 C161 C 0.80587 0.39425 0.23347
 C162 C 0.77155 0.35303 0.20453
 H163 H 0.81555 0.37081 0.36971
 H164 H 0.81502 0.42561 0.19436
 H165 H 0.89065 0.45795 0.27202
 H166 H 0.76445 0.32141 0.24023
 C167 C 0.55999 0.12575 0.34371
 C168 C 0.55931 0.16503 0.32815
 C169 C 0.58254 0.19322 0.24535
 C170 C 0.57075 0.22230 0.20725
 H171 H 0.54062 0.17549 0.37345
 H172 H 0.60966 0.18927 0.21384
 H173 H 0.57577 0.11560 0.29079
 H174 H 0.54210 0.22465 0.23554
 C175 C 0.55569 0.43413 0.33188
 C176 C 0.59706 0.44134 0.30521
 C177 C 0.60095 0.41590 0.22648
 C178 C 0.64218 0.42700 0.19071
 H179 H 0.62804 0.46557 0.34264
 H180 H 0.56945 0.38716 0.19812
 H181 H 0.52514 0.41118 0.29204
 H182 H 0.67351 0.45685 0.21676
 C183 C 0.12643 0.56276 0.33064
 C184 C 0.16353 0.55767 0.32637
 C185 C 0.19667 0.57369 0.24902
 C186 C 0.20557 0.60961 0.19356
 H187 H 0.16986 0.53994 0.38225
 H188 H 0.21690 0.55690 0.24233
 H189 H 0.11725 0.57689 0.27253
 H190 H 0.18702 0.62802 0.20218
 C191 C 0.47689 0.88054 0.31834
 C192 C 0.43576 0.84422 0.29579
 C193 C 0.42728 0.81792 0.21005
 C194 C 0.38339 0.78799 0.18717
 H195 H 0.40669 0.83378 0.34247
 H196 H 0.45589 0.82236 0.16763
 H197 H 0.50604 0.89366 0.27116
 H198 H 0.35575 0.78570 0.23004
 C199 C 0.41174 0.53856 0.33476
 C200 C 0.41178 0.57728 0.31051
 C201 C 0.38728 0.58050 0.22870
 C202 C 0.39503 0.62245 0.20363
 H203 H 0.43183 0.60842 0.35125
 H204 H 0.36448 0.54982 0.18899
 H205 H 0.39377 0.50785 0.29218
 H206 H 0.41953 0.65249 0.24331
   
