data_POSCAR
  _audit_creation_date              2014-09-24
  _audit_creation_method            'ToBaCCo'
  _symmetry_space_group_name_H-M    'P1'
  _symmetry_Int_Tables_number       1
  _symmetry_cell_setting            triclinic
  loop_
  _symmetry_equiv_pos_as_xyz
 x,y,z
_cell_length_a 45.6923
_cell_length_b 44.2611
_cell_length_c 44.8842
_cell_angle_alpha 90.634300
_cell_angle_beta 90.041900
_cell_angle_gamma 87.037800
loop_
  _atom_site_label
  _atom_site_type_symbol
  _atom_site_fract_x
  _atom_site_fract_y
  _atom_site_fract_z
C1 C 0.60611 0.64640 0.62105
 C2 C 0.63193 0.63248 0.60934
 C3 C 0.64414 0.60657 0.62232
 C4 C 0.63089 0.59445 0.64737
 C5 C 0.60537 0.60802 0.65878
 C6 C 0.59302 0.63436 0.64573
 C7 C 0.58931 0.67171 0.61299
 N8 N 0.56660 0.67547 0.63240
 C9 C 0.56869 0.65277 0.65252
 C10 C 0.59713 0.59098 0.68251
 N11 N 0.61727 0.56748 0.68620
 C12 C 0.63807 0.56971 0.66465
 C13 C 0.66872 0.59772 0.60611
 N14 N 0.67183 0.61779 0.58381
 C15 C 0.64949 0.63919 0.58566
 H16 H 0.59354 0.68660 0.59469
 H17 H 0.55352 0.64981 0.67065
 H18 H 0.57819 0.59611 0.69646
 H19 H 0.65665 0.55399 0.66087
 H20 H 0.68340 0.57826 0.61035
 H21 H 0.64602 0.65796 0.57058
 C22 C 0.88104 0.35197 0.12646
 C23 C 0.85612 0.36481 0.11224
 C24 C 0.84126 0.38994 0.12460
 C25 C 0.85088 0.40229 0.15156
 C26 C 0.87541 0.38951 0.16563
 C27 C 0.89041 0.36400 0.15310
 C28 C 0.90026 0.32813 0.11910
 N29 N 0.92100 0.32494 0.14087
 C30 C 0.91484 0.34689 0.16184
 C31 C 0.88021 0.40665 0.19076
 N32 N 0.85902 0.42927 0.19240
 C33 C 0.84091 0.42673 0.16860
 C34 C 0.81847 0.39794 0.10571
 N35 N 0.81898 0.37800 0.08249
 C36 C 0.84188 0.35763 0.08629
 H37 H 0.89853 0.31376 0.09959
 H38 H 0.92770 0.35112 0.18155
 H39 H 0.89778 0.40295 0.20671
 H40 H 0.82226 0.44197 0.16374
 H41 H 0.80250 0.41665 0.10876
 H42 H 0.84790 0.33919 0.07108
 C43 C 0.40083 0.14028 -0.10720
 C44 C 0.37548 0.12763 -0.09633
 C45 C 0.36391 0.10340 -0.11117
 C46 C 0.37728 0.09179 -0.13729
 C47 C 0.40233 0.10411 -0.14787
 C48 C 0.41410 0.12866 -0.13286
 C49 C 0.41704 0.16378 -0.09735
 N50 N 0.43963 0.16685 -0.11656
 C51 C 0.43797 0.14547 -0.13837
 C52 C 0.41064 0.08821 -0.17323
 N53 N 0.39097 0.06667 -0.17877
 C54 C 0.37045 0.06893 -0.15667
 C55 C 0.33971 0.09546 -0.09541
 N56 N 0.33620 0.11446 -0.07158
 C57 C 0.35789 0.13430 -0.07201
 H58 H 0.41249 0.17789 -0.07787
 H59 H 0.45320 0.14218 -0.15672
 H60 H 0.42915 0.09301 -0.18709
 H61 H 0.35219 0.05457 -0.15411
 H62 H 0.32555 0.07734 -0.10095
 H63 H 0.36089 0.15195 -0.05556
 C64 C 0.10350 0.84967 0.37452
 C65 C 0.12942 0.86029 0.38659
 C66 C 0.14202 0.88497 0.37414
 C67 C 0.12904 0.89913 0.34926
 C68 C 0.10350 0.88869 0.33749
 C69 C 0.09085 0.86356 0.34998
 C70 C 0.08619 0.82644 0.38219
 N71 N 0.06344 0.82545 0.36256
 C72 C 0.06637 0.84824 0.34274
 C73 C 0.09545 0.90711 0.31410
 N74 N 0.11568 0.92847 0.31096
 C75 C 0.13641 0.92344 0.33249
 C76 C 0.16660 0.89057 0.39062
 N77 N 0.16936 0.86969 0.41253
 C78 C 0.14677 0.85102 0.41020
 H79 H 0.09068 0.81087 0.40023
 H80 H 0.05141 0.85414 0.32479
 H81 H 0.07654 0.90436 0.30001
 H82 H 0.15504 0.93700 0.33664
 H83 H 0.18155 0.90832 0.38681
 H84 H 0.14305 0.83235 0.42487
 N85 N 0.09282 0.17781 0.10584
 N86 N 0.08260 0.16599 0.13023
 C87 C 0.05747 0.18128 0.13808
 C88 C 0.05146 0.20347 0.11721
 C89 C 0.07426 0.20058 0.09700
 H90 H 0.04423 0.17640 0.15722
 H91 H 0.07740 0.21446 0.07770
 Cu92 Cu 0.10265 0.13108 0.14852
 Cu93 Cu 0.13012 0.16385 0.08824
 Cu94 Cu 0.16741 0.10314 0.12209
 N95 N 0.12343 0.09669 0.16698
 N96 N 0.14927 0.08657 0.15719
 C97 C 0.15904 0.06323 0.17412
 C98 C 0.13800 0.05818 0.19535
 C99 C 0.11566 0.07976 0.19015
 H100 H 0.17951 0.05029 0.17070
 H101 H 0.09539 0.08290 0.20247
 N102 N 0.18207 0.12298 0.08634
 N103 N 0.16820 0.14650 0.07387
 C104 C 0.18403 0.15537 0.05053
 C105 C 0.20882 0.13629 0.04796
 C106 C 0.20684 0.11597 0.07094
 H107 H 0.17781 0.17402 0.03610
 H108 H 0.22255 0.09771 0.07624
 H109 H 0.12910 0.11958 0.10226
 H110 H 0.14844 0.14634 0.12690
 N111 N 0.40517 0.83485 0.59195
 N112 N 0.41804 0.84770 0.61464
 C113 C 0.44183 0.83043 0.62257
 C114 C 0.44419 0.80561 0.60356
 C115 C 0.42060 0.80920 0.58433
 H116 H 0.45648 0.83568 0.64062
 H117 H 0.41475 0.79392 0.56659
 Cu118 Cu 0.40303 0.88599 0.63149
 Cu119 Cu 0.36871 0.85170 0.57495
 Cu120 Cu 0.33589 0.91357 0.61190
 N121 N 0.38225 0.91748 0.65473
 N122 N 0.35557 0.92742 0.64766
 C123 C 0.34605 0.94827 0.66797
 C124 C 0.36810 0.95180 0.68866
 C125 C 0.39080 0.93196 0.67953
 H126 H 0.32490 0.96041 0.66742
 H127 H 0.41175 0.92799 0.69042
 N128 N 0.31961 0.89620 0.57524
 N129 N 0.33179 0.87221 0.56150
 C130 C 0.31539 0.86554 0.53759
 C131 C 0.29200 0.88657 0.53603
 C132 C 0.29541 0.90571 0.56020
 H133 H 0.32038 0.84716 0.52206
 H134 H 0.28114 0.92497 0.56646
 H135 H 0.37201 0.89634 0.58816
 H136 H 0.35533 0.87045 0.61536
 N137 N 0.90551 0.68074 0.40147
 N138 N 0.91324 0.67174 0.37446
 C139 C 0.93636 0.68702 0.36565
 C140 C 0.94373 0.70638 0.38852
 C141 C 0.92378 0.70174 0.41097
 H142 H 0.94728 0.68400 0.34437
 H143 H 0.92222 0.71336 0.43228
 Cu144 Cu 0.89295 0.64046 0.35351
 Cu145 Cu 0.87120 0.66595 0.42124
 Cu146 Cu 0.83956 0.60460 0.38817
 N147 N 0.87941 0.60226 0.33869
 N148 N 0.85790 0.58881 0.35165
 C149 C 0.85248 0.56342 0.33626
 C150 C 0.87193 0.56063 0.31265
 C151 C 0.88876 0.58565 0.31493
 H152 H 0.83609 0.54776 0.34218
 H153 H 0.90628 0.59148 0.30022
 N154 N 0.82446 0.62404 0.42518
 N155 N 0.83623 0.64775 0.43753
 C156 C 0.82038 0.65659 0.46166
 C157 C 0.79773 0.63732 0.46483
 C158 C 0.80105 0.61691 0.44138
 H159 H 0.82498 0.67558 0.47596
 H160 H 0.78697 0.59870 0.43611
 H161 H 0.87781 0.62341 0.40205
 H162 H 0.84945 0.64954 0.38442
 N163 N 0.59839 0.31377 -0.11605
 N164 N 0.58906 0.32621 -0.14100
 C165 C 0.56582 0.31158 -0.15102
 C166 C 0.56016 0.28888 -0.13117
 C167 C 0.58125 0.29101 -0.10920
 H168 H 0.55375 0.31712 -0.17112
 H169 H 0.58440 0.27653 -0.09010
 Cu170 Cu 0.60792 0.36056 -0.15777
 Cu171 Cu 0.63302 0.32681 -0.09523
 Cu172 Cu 0.67158 0.38242 -0.12931
 N173 N 0.62638 0.39625 -0.17218
 N174 N 0.65186 0.40393 -0.16173
 C175 C 0.66078 0.42782 -0.17692
 C176 C 0.63950 0.43587 -0.19768
 C177 C 0.61790 0.41546 -0.19399
 H178 H 0.68113 0.43867 -0.17302
 H179 H 0.59800 0.41418 -0.20689
 N180 N 0.68324 0.36433 -0.09095
 N181 N 0.66877 0.34297 -0.07808
 C182 C 0.68233 0.33524 -0.05240
 C183 C 0.70614 0.35295 -0.04874
 C184 C 0.70600 0.37122 -0.07351
 H185 H 0.67516 0.31838 -0.03716
 H186 H 0.72146 0.38814 -0.07852
 H187 H 0.63232 0.37095 -0.11102
 H188 H 0.65254 0.34053 -0.13313
 C189 C -0.04172 0.29614 0.16846
 C190 C -0.05600 0.30375 0.14144
 C191 C -0.04583 0.28914 0.11499
 C192 C -0.02190 0.26797 0.11546
 C193 C -0.00842 0.26015 0.14283
 C194 C -0.01853 0.27433 0.16917
 C195 C 0.01519 0.23858 0.14335
 C196 C 0.02622 0.22561 0.11669
 C197 C 0.01321 0.23408 0.08950
 C198 C -0.01091 0.25479 0.08890
 H199 H -0.05557 0.29506 0.09373
 H200 H -0.00839 0.26867 0.19035
 H201 H 0.02546 0.23244 0.16436
 H202 H -0.02082 0.26068 0.06767
 H203 H -0.04901 0.30618 0.18941
 H204 H 0.02141 0.22426 0.06873
 C205 C 0.53503 0.71386 0.65869
 C206 C 0.54440 0.69966 0.63199
 C207 C 0.53196 0.70938 0.60490
 C208 C 0.51022 0.73295 0.60446
 C209 C 0.50136 0.74755 0.63140
 C210 C 0.51387 0.73780 0.65840
 C211 C 0.48002 0.77149 0.63092
 C212 C 0.46682 0.78054 0.60395
 C213 C 0.47531 0.76549 0.57738
 C214 C 0.49704 0.74208 0.57758
 H215 H 0.53889 0.69819 0.58429
 H216 H 0.50725 0.74862 0.67927
 H217 H 0.47329 0.78269 0.65158
 H218 H 0.50346 0.73106 0.55674
 H219 H 0.54452 0.70673 0.67974
 H220 H 0.46551 0.77219 0.55634
 C221 C 1.02506 0.80001 0.33667
 C222 C 1.04167 0.80522 0.36261
 C223 C 1.03518 0.78911 0.38860
 C224 C 1.01262 0.76874 0.38874
 C225 C 0.99682 0.76336 0.36232
 C226 C 1.00322 0.77909 0.33646
 C227 C 0.97466 0.74258 0.36229
 C228 C 0.96737 0.72786 0.38861
 C229 C 0.98265 0.73390 0.41498
 C230 C 1.00534 0.75391 0.41498
 H231 H 1.04677 0.79316 0.40918
 H232 H 0.99125 0.77528 0.31602
 H233 H 0.96263 0.73837 0.34196
 H234 H 1.01707 0.75790 0.43552
 H235 H 1.02950 0.81121 0.31601
 H236 H 0.97737 0.72272 0.43548
 C237 C 0.47230 0.19755 -0.08629
 C238 C 0.46154 0.18895 -0.11428
 C239 C 0.47246 0.20215 -0.14006
 C240 C 0.49385 0.22370 -0.13794
 C241 C 0.50488 0.23183 -0.10970
 C242 C 0.49392 0.21866 -0.08401
 C243 C 0.52662 0.25304 -0.10762
 C244 C 0.53714 0.26665 -0.13338
 C245 C 0.52566 0.25876 -0.16129
 C246 C 0.50433 0.23734 -0.16358
 H247 H 0.46395 0.19595 -0.16170
 H248 H 0.50206 0.22468 -0.06217
 H249 H 0.53502 0.25922 -0.08594
 H250 H 0.49606 0.23144 -0.18540
 H251 H 0.46431 0.18749 -0.06619
 H252 H 0.53353 0.26874 -0.18148
 C253 C 0.08879 -0.04001 0.27544
 C254 C 0.11510 -0.04901 0.29015
 C255 C 0.14078 -0.03422 0.28283
 C256 C 0.14023 -0.01144 0.26128
 C257 C 0.11352 -0.00235 0.24740
 C258 C 0.08797 -0.01676 0.25464
 C259 C 0.11284 0.02079 0.22626
 C260 C 0.13874 0.03428 0.21805
 C261 C 0.16535 0.02461 0.23140
 C262 C 0.16605 0.00218 0.25310
 H263 H 0.16156 -0.04108 0.29290
 H264 H 0.06730 -0.01011 0.24414
 H265 H 0.09230 0.02780 0.21568
 H266 H 0.18679 -0.00463 0.26335
 H267 H 0.06838 -0.05007 0.28062
 H268 H 0.18554 0.03478 0.22539
 C269 C 0.59030 0.53944 -0.27783
 C270 C 0.61665 0.54548 -0.29253
 C271 C 0.64236 0.52823 -0.28478
 C272 C 0.64177 0.50573 -0.26305
 C273 C 0.61500 0.49943 -0.24931
 C274 C 0.58945 0.51645 -0.25680
 C275 C 0.61430 0.47633 -0.22817
 C276 C 0.64023 0.46017 -0.21986
 C277 C 0.66688 0.46719 -0.23298
 C278 C 0.66761 0.48955 -0.25464
 H279 H 0.66317 0.53287 -0.29476
 H280 H 0.56874 0.51201 -0.24639
 H281 H 0.59372 0.47129 -0.21780
 H282 H 0.68839 0.49423 -0.26478
 H283 H 0.56990 0.55158 -0.28326
 H284 H 0.68709 0.45491 -0.22693
 C285 C 0.41762 1.04021 0.78132
 C286 C 0.39156 1.04666 0.79762
 C287 C 0.36607 1.03214 0.78877
 C288 C 0.36651 1.01223 0.76420
 C289 C 0.39295 1.00570 0.74861
 C290 C 0.41835 1.01975 0.75739
 C291 C 0.39346 0.98551 0.72426
 C292 C 0.36763 0.97251 0.71469
 C293 C 0.34130 0.97960 0.72994
 C294 C 0.34080 0.99904 0.75469
 H295 H 0.34545 1.03714 0.80006
 H296 H 0.43882 1.01503 0.74565
 H297 H 0.41378 0.98049 0.71233
 H298 H 0.32026 1.00392 0.76626
 H299 H 0.43790 1.05014 0.78750
 H300 H 0.32117 0.96973 0.72298
 C301 C 0.82915 0.46156 0.22699
 C302 C 0.85662 0.45245 0.21504
 C303 C 0.88173 0.46645 0.22513
 C304 C 0.87941 0.48958 0.24675
 C305 C 0.85172 0.49824 0.25909
 C306 C 0.82673 0.48406 0.24907
 C307 C 0.84947 0.52115 0.28096
 C308 C 0.87440 0.53613 0.29004
 C309 C 0.90171 0.52771 0.27727
 C310 C 0.90426 0.50443 0.25603
 H311 H 0.90290 0.45977 0.21561
 H312 H 0.80532 0.49050 0.25816
 H313 H 0.82825 0.52779 0.29042
 H314 H 0.92562 0.49817 0.24672
 H315 H 0.80962 0.45089 0.21949
 H316 H 0.92122 0.53885 0.28407
 C317 C 0.30544 0.08566 -0.03829
 C318 C 0.31357 0.11351 -0.04947
 C319 C 0.29936 0.14040 -0.03891
 C320 C 0.27702 0.13951 -0.01754
 C321 C 0.26938 0.11139 -0.00596
 C322 C 0.28372 0.08460 -0.01649
 C323 C 0.24736 0.11052 0.01574
 C324 C 0.23229 0.13731 0.02543
 C325 C 0.23965 0.16507 0.01338
 C326 C 0.26203 0.16620 -0.00772
 H327 H 0.30533 0.16190 -0.04781
 H328 H 0.27805 0.06285 -0.00798
 H329 H 0.24153 0.08896 0.02462
 H330 H 0.26751 0.18793 -0.01645
 H331 H 0.31631 0.06475 -0.04612
 H332 H 0.22840 0.18599 0.02064
 C333 C 0.70457 0.58847 0.54934
 C334 C 0.69469 0.61641 0.56178
 C335 C 0.70736 0.64297 0.55250
 C336 C 0.72979 0.64166 0.53110
 C337 C 0.73920 0.61349 0.51829
 C338 C 0.72647 0.58703 0.52759
 C339 C 0.76126 0.61224 0.49651
 C340 C 0.77453 0.63870 0.48782
 C341 C 0.76541 0.66649 0.50111
 C342 C 0.74307 0.66801 0.52239
 H343 H 0.70008 0.66453 0.56235
 H344 H 0.73348 0.56523 0.51810
 H345 H 0.76841 0.59063 0.48669
 H346 H 0.73621 0.68977 0.53206
 H347 H 0.69491 0.56780 0.55611
 H348 H 0.77519 0.68720 0.49464
 C349 C 0.79036 0.40570 0.04409
 C350 C 0.79872 0.37836 0.05801
 C351 C 0.78710 0.35136 0.04787
 C352 C 0.76708 0.35166 0.02414
 C353 C 0.75926 0.37920 0.00979
 C354 C 0.77101 0.40610 0.01995
 C355 C 0.73965 0.37941 -0.01429
 C356 C 0.72706 0.35260 -0.02364
 C357 C 0.73446 0.32549 -0.00883
 C358 C 0.75455 0.32494 0.01467
 H359 H 0.79324 0.33030 0.05888
 H360 H 0.76515 0.42743 0.00933
 H361 H 0.73371 0.40050 -0.02534
 H362 H 0.76017 0.30367 0.02551
 H363 H 0.79924 0.42666 0.05163
 H364 H 0.72507 0.30457 -0.01578
 C365 C 0.20480 0.83952 0.44286
 C366 C 0.19221 0.86778 0.43453
 C367 C 0.20207 0.89419 0.44799
 C368 C 0.22417 0.89240 0.46972
 C369 C 0.23711 0.86388 0.47757
 C370 C 0.22726 0.83757 0.46400
 C371 C 0.25951 0.86213 0.49899
 C372 C 0.26863 0.88847 0.51325
 C373 C 0.25525 0.91663 0.50569
 C374 C 0.23339 0.91862 0.48392
 H375 H 0.19211 0.91601 0.44193
 H376 H 0.23684 0.81552 0.46982
 H377 H 0.26943 0.84026 0.50497
 H378 H 0.22363 0.94065 0.47827
 H379 H 0.19753 0.81897 0.43258
 H380 H 0.26204 0.93723 0.51627
   
