data_POSCAR
  _audit_creation_date              2014-09-24
  _audit_creation_method            'ToBaCCo'
  _symmetry_space_group_name_H-M    'P1'
  _symmetry_Int_Tables_number       1
  _symmetry_cell_setting            triclinic
  loop_
  _symmetry_equiv_pos_as_xyz
 x,y,z
_cell_length_a 44.3723
_cell_length_b 44.0325
_cell_length_c 50.5352
_cell_angle_alpha 89.765800
_cell_angle_beta 90.337000
_cell_angle_gamma 118.745600
loop_
  _atom_site_label
  _atom_site_type_symbol
  _atom_site_fract_x
  _atom_site_fract_y
  _atom_site_fract_z
C1 C 0.03200 0.50830 1.30877
 C2 C 0.00064 0.49024 1.32213
 C3 C -0.03079 0.47137 1.30879
 C4 C -0.03094 0.47045 1.28066
 C5 C 0.00039 0.48922 1.26662
 C6 C 0.03190 0.50822 1.28062
 C7 C 0.06209 0.52814 1.26602
 C8 C 0.06208 0.52677 1.23857
 C9 C 0.03162 0.50656 1.22442
 C10 C 0.00026 0.48868 1.23840
 C11 C -0.06099 0.44921 1.26619
 C12 C -0.06110 0.44906 1.23869
 C13 C -0.03113 0.46991 1.22425
 C14 C -0.03116 0.47033 1.19604
 C15 C 0.00058 0.48658 1.18287
 C16 C 0.03167 0.50435 1.19657
 H17 H 0.08617 0.54539 1.27556
 H18 H 0.08622 0.54222 1.22851
 H19 H -0.08473 0.43168 1.27588
 H20 H -0.08487 0.43143 1.22890
 H21 H 0.00072 0.49058 1.34361
 H22 H 0.00133 0.48698 1.16142
 C23 C 0.51367 0.48272 1.19509
 C24 C 0.50026 0.50076 1.18080
 C25 C 0.48648 0.51938 1.19357
 C26 C 0.48618 0.52027 1.22156
 C27 C 0.50009 0.50240 1.23634
 C28 C 0.51362 0.48333 1.22305
 C29 C 0.52655 0.46521 1.23804
 C30 C 0.52658 0.46607 1.26553
 C31 C 0.51486 0.48612 1.27930
 C32 C 0.50022 0.50336 1.26447
 C33 C 0.47177 0.53797 1.23512
 C34 C 0.47138 0.53847 1.26264
 C35 C 0.48533 0.52125 1.27765
 C36 C 0.48474 0.52143 1.30554
 C37 C 0.49927 0.50457 1.31994
 C38 C 0.51525 0.48762 1.30748
 H39 H 0.53654 0.44987 1.22865
 H40 H 0.53525 0.45008 1.27577
 H41 H 0.46036 0.55139 1.22460
 H42 H 0.45995 0.55251 1.27205
 H43 H 0.50048 0.50022 1.15934
 H44 H 0.49956 0.50631 1.34136
 C45 C 0.47991 0.97044 1.30572
 C46 C 0.49273 1.00277 1.31815
 C47 C 0.50858 1.03412 1.30407
 C48 C 0.50932 1.03307 1.27595
 C49 C 0.49514 1.00062 1.26273
 C50 C 0.48038 0.96925 1.27759
 C51 C 0.46380 0.93758 1.26385
 C52 C 0.46309 0.93647 1.23642
 C53 C 0.47770 0.96700 1.22137
 C54 C 0.49416 0.99946 1.23449
 C55 C 0.52069 1.06333 1.26059
 C56 C 0.52035 1.06219 1.23310
 C57 C 0.50825 1.03068 1.21946
 C58 C 0.50667 1.02915 1.19126
 C59 C 0.48990 0.99655 1.17900
 C60 C 0.47548 0.96583 1.19350
 H61 H 0.44993 0.91310 1.27402
 H62 H 0.45018 0.91126 1.22712
 H63 H 0.52870 1.08830 1.26959
 H64 H 0.52825 1.08636 1.22275
 H65 H 0.49336 1.00366 1.33962
 H66 H 0.48856 0.99481 1.15757
 C67 C 1.02737 0.50680 0.80558
 C68 C 0.99520 0.49063 0.81807
 C69 C 0.96464 0.47223 0.80380
 C70 C 0.96559 0.47083 0.77591
 C71 C 0.99763 0.48800 0.76265
 C72 C 1.02858 0.50617 0.77743
 C73 C 1.05941 0.52582 0.76354
 C74 C 1.06038 0.52540 0.73607
 C75 C 1.03052 0.50560 0.72101
 C76 C 0.99856 0.48806 0.73446
 C77 C 0.93521 0.45374 0.76092
 C78 C 0.93611 0.45405 0.73343
 C79 C 0.96740 0.47168 0.71982
 C80 C 0.96828 0.47359 0.69190
 C81 C 0.99987 0.49011 0.67894
 C82 C 1.03123 0.50552 0.69282
 H83 H 1.08309 0.54291 0.77364
 H84 H 1.08476 0.54214 0.72683
 H85 H 0.91029 0.44051 0.77028
 H86 H 0.91189 0.44047 0.72295
 H87 H 0.99383 0.49060 0.83950
 H88 H 0.99982 0.49012 0.65747
 C89 C 0.52659 0.49226 0.69542
 C90 C 0.51183 0.50892 0.68091
 C91 C 0.49653 0.52630 0.69343
 C92 C 0.49552 0.52686 0.72141
 C93 C 0.51098 0.51066 0.73642
 C94 C 0.52673 0.49345 0.72340
 C95 C 0.54240 0.47812 0.73868
 C96 C 0.54216 0.47916 0.76620
 C97 C 0.52643 0.49575 0.77955
 C98 C 0.51041 0.51139 0.76453
 C99 C 0.47884 0.54250 0.73476
 C100 C 0.47776 0.54268 0.76229
 C101 C 0.49352 0.52744 0.77754
 C102 C 0.49228 0.52722 0.80550
 C103 C 0.50817 0.51174 0.82003
 C104 C 0.52565 0.49654 0.80754
 H105 H 0.55513 0.46522 0.72950
 H106 H 0.55413 0.46641 0.77689
 H107 H 0.46601 0.55438 0.72406
 H108 H 0.46426 0.55478 0.77150
 H109 H 0.51207 0.50815 0.65946
 H110 H 0.50746 0.51212 0.84148
 C111 C 0.52205 0.03301 0.69520
 C112 C 0.50723 0.00148 0.68170
 C113 C 0.48952 -0.03038 0.69500
 C114 C 0.48908 -0.03043 0.72321
 C115 C 0.50464 0.00154 0.73716
 C116 C 0.52077 0.03333 0.72310
 C117 C 0.53587 0.06463 0.73728
 C118 C 0.53509 0.06481 0.76479
 C119 C 0.51979 0.03369 0.77920
 C120 C 0.50453 0.00176 0.76531
 C121 C 0.47564 -0.06143 0.73792
 C122 C 0.47516 -0.06121 0.76542
 C123 C 0.48940 -0.02993 0.77953
 C124 C 0.48899 -0.02948 0.80752
 C125 C 0.50335 0.00218 0.82088
 C126 C 0.51915 0.03362 0.80718
 H127 H 0.54865 0.08939 0.72726
 H128 H 0.54674 0.08968 0.77464
 H129 H 0.46595 -0.08635 0.72843
 H130 H 0.46365 -0.08595 0.77549
 H131 H 0.50752 0.00211 0.66023
 H132 H 0.50317 0.00234 0.84235
 O133 O 0.37524 0.65463 0.97401
 O134 O 0.37531 0.71349 0.96750
 C135 C 0.35998 0.73120 0.96413
 O136 O 0.33482 0.72728 0.97834
 O137 O 0.27661 0.67078 0.97046
 C138 C 0.26003 0.63875 0.96499
 O139 O 0.26483 0.61597 0.97700
 O140 O 0.32123 0.61357 0.96710
 C141 C 0.35289 0.62858 0.96132
 O142 O 0.37675 0.66329 1.02690
 O143 O 0.37978 0.72353 1.02028
 C144 C 0.35986 0.72963 1.03463
 O145 O 0.32764 0.71512 1.03085
 O146 O 0.26809 0.66043 1.02287
 C147 C 0.26236 0.63304 1.03524
 O148 O 0.27712 0.61544 1.02946
 O149 O 0.33242 0.61088 1.01933
 C150 C 0.35974 0.63112 1.03181
 Cr151 Cr 0.37484 0.68784 0.99723
 Cr152 Cr 0.30272 0.69235 1.00056
 Cr153 Cr 0.29991 0.61591 0.99825
 O154 O 0.32580 0.66531 0.99862
 O155 O 0.61773 0.34519 0.98445
 O156 O 0.61659 0.28689 0.97316
 C157 C 0.63146 0.26984 0.96614
 O158 O 0.65880 0.27338 0.97717
 O159 O 0.71526 0.33085 0.96726
 C160 C 0.73169 0.36329 0.96336
 O161 O 0.72856 0.38480 0.97824
 O162 O 0.67048 0.38614 0.97367
 C163 C 0.63808 0.37113 0.97060
 O164 O 0.62380 0.33388 1.03623
 O165 O 0.62014 0.27436 1.02495
 C166 C 0.64223 0.26797 1.03614
 O167 O 0.67363 0.28282 1.02947
 O168 O 0.73134 0.33875 1.01921
 C169 C 0.73774 0.36472 1.03373
 O170 O 0.72184 0.38205 1.03132
 O171 O 0.66555 0.38689 1.02674
 C172 C 0.64043 0.36609 1.04089
 Cr173 Cr 0.62145 0.31096 1.00460
 Cr174 Cr 0.69383 0.30743 0.99841
 Cr175 Cr 0.69566 0.38310 1.00248
 O176 O 0.67029 0.33379 1.00180
 O177 O 0.66620 0.38693 0.52263
 O178 O 0.72258 0.38205 0.52482
 C179 C 0.73776 0.36408 0.52775
 O180 O 0.73021 0.33702 0.51420
 O181 O 0.67324 0.28142 0.52585
 C182 C 0.64273 0.26757 0.53444
 O183 O 0.62007 0.27443 0.52501
 O184 O 0.62504 0.33483 0.53469
 C185 C 0.64215 0.36728 0.53807
 O186 O 0.66663 0.38282 0.46954
 O187 O 0.72493 0.38193 0.47153
 C188 C 0.72761 0.35956 0.45746
 O189 O 0.71180 0.32749 0.46264
 O190 O 0.65565 0.27103 0.47408
 C191 C 0.62708 0.26659 0.46486
 O192 O 0.61223 0.28316 0.47314
 O193 O 0.61477 0.34258 0.48294
 C194 C 0.63408 0.36781 0.46805
 Cr195 Cr 0.69410 0.38148 0.49719
 Cr196 Cr 0.69178 0.30530 0.49436
 Cr197 Cr 0.61997 0.30963 0.50373
 O198 O 0.66860 0.33205 0.49839
 O199 O 0.33777 0.61534 0.52070
 O200 O 0.28266 0.61989 0.53200
 C201 C 0.26756 0.63715 0.53780
 O202 O 0.27327 0.66467 0.52562
 O203 O 0.33323 0.71934 0.53346
 C204 C 0.36565 0.73432 0.53629
 O205 O 0.38503 0.72811 0.52139
 O206 O 0.38219 0.66783 0.52796
 C207 C 0.36539 0.63561 0.53285
 O208 O 0.32501 0.61813 0.46868
 O209 O 0.26908 0.62056 0.47979
 C210 C 0.26444 0.64343 0.46776
 O211 O 0.28114 0.67547 0.47325
 O212 O 0.33955 0.73195 0.48106
 C213 C 0.36413 0.73576 0.46618
 O214 O 0.37910 0.71757 0.46870
 O215 O 0.37927 0.65870 0.47513
 C216 C 0.35651 0.63292 0.46247
 Cr217 Cr 0.30465 0.62039 0.50034
 Cr218 Cr 0.30769 0.69681 0.50327
 Cr219 Cr 0.37950 0.69216 0.49840
 O220 O 0.33059 0.66972 0.50067
 C221 C 0.49280 0.57126 0.33341
 C222 C 0.47973 0.58752 0.34985
 C223 C 0.44431 0.57278 0.35399
 C224 C 0.42180 0.54197 0.34080
 C225 C 0.43488 0.52577 0.32420
 C226 C 0.47048 0.54017 0.32069
 N227 N 0.43225 0.58870 0.37275
 N228 N 0.40073 0.57589 0.37902
 C229 C 0.38972 0.59164 0.39878
 C230 C 0.35497 0.57585 0.40575
 C231 C 0.34391 0.58948 0.42615
 C232 C 0.36759 0.61924 0.43995
 C233 C 0.40236 0.63544 0.43245
 C234 C 0.41333 0.62180 0.41210
 H235 H 0.52035 0.58251 0.33100
 H236 H 0.49729 0.61117 0.35997
 H237 H 0.39430 0.53009 0.34375
 H238 H 0.41741 0.50160 0.31464
 H239 H 0.33653 0.55258 0.39566
 H240 H 0.31695 0.57642 0.43137
 H241 H 0.42128 0.65846 0.44254
 H242 H 0.44034 0.63455 0.40708
 C243 C 0.47858 0.91559 0.31822
 C244 C 0.46734 0.88689 0.33507
 C245 C 0.44530 0.88265 0.35611
 C246 C 0.43500 0.90782 0.36039
 C247 C 0.44642 0.93660 0.34377
 C248 C 0.46784 0.94065 0.32206
 N249 N 0.43398 0.85300 0.37308
 N250 N 0.41151 0.84676 0.39083
 C251 C 0.39967 0.81799 0.40865
 C252 C 0.37336 0.81262 0.42618
 C253 C 0.36156 0.78562 0.44450
 C254 C 0.37608 0.76341 0.44578
 C255 C 0.40240 0.76863 0.42793
 C256 C 0.41409 0.79571 0.40943
 H257 H 0.49641 0.91864 0.30257
 H258 H 0.47591 0.86798 0.33177
 H259 H 0.41819 0.90535 0.37665
 H260 H 0.43766 0.95530 0.34750
 H261 H 0.36210 0.82966 0.42576
 H262 H 0.34130 0.78248 0.45790
 H263 H 0.41411 0.75199 0.42839
 H264 H 0.43455 0.79946 0.39604
 C265 C 0.09040 0.51922 0.31991
 C266 C 0.11936 0.53432 0.33638
 C267 C 0.12105 0.55585 0.35726
 C268 C 0.09318 0.56187 0.36176
 C269 C 0.06394 0.54626 0.34568
 C270 C 0.06231 0.52515 0.32423
 N271 N 0.15048 0.56997 0.37437
 N272 N 0.15672 0.59468 0.39027
 C273 C 0.18502 0.60749 0.40848
 C274 C 0.19479 0.63884 0.42157
 C275 C 0.22127 0.65114 0.44039
 C276 C 0.23785 0.63174 0.44681
 C277 C 0.22812 0.60037 0.43351
 C278 C 0.20213 0.58846 0.41436
 H279 H 0.08946 0.50192 0.30436
 H280 H 0.14046 0.52902 0.33300
 H281 H 0.09371 0.57807 0.37801
 H282 H 0.04278 0.55128 0.34971
 H283 H 0.18168 0.65365 0.41728
 H284 H 0.22815 0.67532 0.45041
 H285 H 0.24060 0.58499 0.43795
 H286 H 0.19488 0.56404 0.40462
 C287 C 0.56575 0.48065 0.31843
 C288 C 0.58250 0.46829 0.33534
 C289 C 0.56594 0.44907 0.35786
 C290 C 0.53240 0.44257 0.36350
 C291 C 0.51575 0.45514 0.34680
 C292 C 0.53190 0.47388 0.32373
 N293 N 0.58372 0.43689 0.37495
 N294 N 0.56866 0.41694 0.39439
 C295 C 0.58573 0.40477 0.41215
 C296 C 0.56630 0.38064 0.43153
 C297 C 0.58197 0.36845 0.44953
 C298 C 0.61761 0.38049 0.44859
 C299 C 0.63715 0.40479 0.42905
 C300 C 0.62132 0.41677 0.41089
 H301 H 0.57971 0.49645 0.30165
 H302 H 0.60854 0.47391 0.33099
 H303 H 0.51909 0.42796 0.38090
 H304 H 0.48978 0.44941 0.35163
 H305 H 0.53887 0.37129 0.43270
 H306 H 0.56616 0.34983 0.46434
 H307 H 0.66463 0.41450 0.42776
 H308 H 0.63687 0.43553 0.39608
 C309 C 0.55849 0.09076 0.31405
 C310 C 0.57487 0.11980 0.33047
 C311 C 0.55746 0.12414 0.35188
 C312 C 0.52328 0.09906 0.35672
 C313 C 0.50707 0.06977 0.34066
 C314 C 0.52430 0.06522 0.31893
 N315 N 0.57540 0.15313 0.36922
 N316 N 0.55968 0.16120 0.38647
 C317 C 0.57738 0.18886 0.40494
 C318 C 0.55838 0.20017 0.42007
 C319 C 0.57460 0.22597 0.43917
 C320 C 0.61013 0.24043 0.44381
 C321 C 0.62920 0.22912 0.42848
 C322 C 0.61301 0.20372 0.40908
 H323 H 0.57313 0.08751 0.29829
 H324 H 0.60140 0.13871 0.32675
 H325 H 0.50935 0.10166 0.37329
 H326 H 0.48078 0.05074 0.34509
 H327 H 0.53088 0.18877 0.41715
 H328 H 0.55920 0.23402 0.45073
 H329 H 0.65663 0.23989 0.43151
 H330 H 0.62819 0.19521 0.39773
 C331 C 0.93864 0.43339 0.34592
 C332 C 0.90967 0.41699 0.36196
 C333 C 0.88110 0.42167 0.35743
 C334 C 0.88141 0.44246 0.33615
 C335 C 0.91014 0.45830 0.31963
 C336 C 0.93918 0.45393 0.32428
 N337 N 0.85266 0.40575 0.37520
 N338 N 0.82945 0.41480 0.37651
 C339 C 0.80175 0.39891 0.39497
 C340 C 0.78377 0.41640 0.40212
 C341 C 0.75904 0.40324 0.42209
 C342 C 0.75132 0.37184 0.43473
 C343 C 0.76815 0.35343 0.42657
 C344 C 0.79344 0.36703 0.40703
 H345 H 0.96045 0.42937 0.35010
 H346 H 0.90973 0.40109 0.37835
 H347 H 0.85959 0.44657 0.33239
 H348 H 0.91011 0.47492 0.30377
 H349 H 0.78989 0.44094 0.39292
 H350 H 0.74626 0.41782 0.42790
 H351 H 0.76276 0.32923 0.43603
 H352 H 0.80684 0.35292 0.40165
 C353 C 0.51016 0.42791 1.17787
 C354 C 0.52325 0.41070 1.16238
 C355 C 0.55433 0.42946 1.14885
 C356 C 0.57245 0.46576 1.15122
 C357 C 0.55932 0.48294 1.16659
 C358 C 0.52812 0.46414 1.17995
 N359 N 0.56628 0.41142 1.13201
 N360 N 0.59467 0.42736 1.11975
 C361 C 0.60670 0.41052 1.10182
 C362 C 0.63788 0.43055 1.08889
 C363 C 0.64929 0.41585 1.06966
 C364 C 0.62960 0.38063 1.06298
 C365 C 0.59876 0.36021 1.07665
 C366 C 0.58733 0.37506 1.09590
 H367 H 0.48588 0.41312 1.18795
 H368 H 0.50896 0.38277 1.16062
 H369 H 0.59644 0.48090 1.14088
 H370 H 0.57333 0.51094 1.16792
 H371 H 0.65301 0.45789 1.09331
 H372 H 0.67324 0.43230 1.05966
 H373 H 0.58300 0.33303 1.07198
 H374 H 0.56310 0.35906 1.10568
 C375 C 0.91125 0.46333 1.18680
 C376 C 0.88258 0.45217 1.17013
 C377 C 0.88030 0.43401 1.14691
 C378 C 0.90706 0.42692 1.14054
 C379 C 0.93584 0.43832 1.15698
 C380 C 0.93841 0.45657 1.18049
 N381 N 0.85123 0.42388 1.12969
 N382 N 0.84688 0.40492 1.10955
 C383 C 0.81884 0.39497 1.09138
 C384 C 0.81439 0.37105 1.07162
 C385 C 0.78791 0.36111 1.05309
 C386 C 0.76548 0.37529 1.05377
 C387 C 0.77002 0.39945 1.07365
 C388 C 0.79643 0.40912 1.09241
 H389 H 0.91282 0.47859 1.20402
 H390 H 0.86231 0.45816 1.17512
 H391 H 0.90599 0.41297 1.12267
 H392 H 0.95592 0.43228 1.15145
 H393 H 0.83160 0.36010 1.07058
 H394 H 0.78528 0.34256 1.03803
 H395 H 0.75312 0.41075 1.07475
 H396 H 0.79954 0.42783 1.10748
 C397 C 0.50153 0.06061 1.15303
 C398 C 0.51567 0.08841 1.13544
 C399 C 0.54960 0.11457 1.13846
 C400 C 0.56929 0.11314 1.15981
 C401 C 0.55496 0.08550 1.17783
 C402 C 0.52081 0.05874 1.17465
 N403 N 0.56311 0.14181 1.11923
 N404 N 0.59477 0.16419 1.11764
 C405 C 0.60651 0.19065 1.09768
 C406 C 0.64183 0.21175 1.09366
 C407 C 0.65369 0.23692 1.07363
 C408 C 0.63027 0.24158 1.05748
 C409 C 0.59486 0.22063 1.06188
 C410 C 0.58311 0.19540 1.08166
 H411 H 0.47514 0.04074 1.14996
 H412 H 0.50024 0.08931 1.11907
 H413 H 0.59570 0.13311 1.16243
 H414 H 0.57102 0.08435 1.19360
 H415 H 0.66017 0.20840 1.10585
 H416 H 0.68112 0.25275 1.07084
 H417 H 0.57607 0.22346 1.04985
 H418 H 0.55567 0.17957 1.08436
 C419 C 0.48852 0.57327 1.17523
 C420 C 0.47583 0.58959 1.15813
 C421 C 0.44677 0.56989 1.14243
 C422 C 0.43027 0.53353 1.14420
 C423 C 0.44298 0.51725 1.16120
 C424 C 0.47215 0.53699 1.17680
 N425 N 0.43503 0.58716 1.12435
 N426 N 0.40847 0.57028 1.11000
 C427 C 0.39648 0.58651 1.09124
 C428 C 0.36662 0.56570 1.07683
 C429 C 0.35457 0.58025 1.05773
 C430 C 0.37232 0.61608 1.05260
 C431 C 0.40222 0.63705 1.06732
 C432 C 0.41422 0.62239 1.08651
 H433 H 0.51131 0.58883 1.18696
 H434 H 0.48885 0.61759 1.15688
 H435 H 0.40784 0.51769 1.13223
 H436 H 0.43025 0.48922 1.16207
 H437 H 0.35278 0.53802 1.08030
 H438 H 0.33145 0.56330 1.04683
 H439 H 0.41646 0.66472 1.06391
 H440 H 0.43743 0.63898 1.09743
 C441 C 0.08691 0.50740 1.18211
 C442 C 0.11573 0.52091 1.16564
 C443 C 0.12170 0.54764 1.14782
 C444 C 0.09866 0.56110 1.14688
 C445 C 0.06976 0.54745 1.16317
 C446 C 0.06365 0.52047 1.18082
 N447 N 0.15041 0.55982 1.13020
 N448 N 0.15783 0.58532 1.11475
 C449 C 0.18537 0.59744 1.09610
 C450 C 0.19259 0.62695 1.08123
 C451 C 0.21799 0.63877 1.06185
 C452 C 0.23663 0.62106 1.05680
 C453 C 0.22966 0.59159 1.07206
 C454 C 0.20424 0.57988 1.09161
 H455 H 0.08232 0.48631 1.19545
 H456 H 0.13318 0.51023 1.16650
 H457 H 0.10257 0.58165 1.13321
 H458 H 0.05192 0.55763 1.16183
 H459 H 0.17815 0.64062 1.08448
 H460 H 0.22260 0.66153 1.05054
 H461 H 0.24357 0.57741 1.06871
 H462 H 0.19898 0.55690 1.10286
 C463 C 0.42193 0.91345 1.17851
 C464 C 0.40531 0.88408 1.16247
 C465 C 0.42440 0.87400 1.14622
 C466 C 0.46051 0.89334 1.14656
 C467 C 0.47710 0.92272 1.16251
 C468 C 0.45792 0.93302 1.17849
 N469 N 0.40668 0.84516 1.12873
 N470 N 0.42292 0.83494 1.11371
 C471 C 0.40608 0.80717 1.09522
 C472 C 0.42623 0.79765 1.07982
 C473 C 0.41112 0.77208 1.06049
 C474 C 0.37538 0.75551 1.05612
 C475 C 0.35505 0.76467 1.07200
 C476 C 0.37027 0.79032 1.09140
 H477 H 0.40678 0.92137 1.19052
 H478 H 0.37750 0.86953 1.16231
 H479 H 0.47588 0.88620 1.13412
 H480 H 0.50488 0.93777 1.16212
 H481 H 0.45385 0.81049 1.08257
 H482 H 0.42759 0.76565 1.04873
 H483 H 0.32746 0.75240 1.06919
 H484 H 0.35418 0.79733 1.10308
 C485 C 0.52519 0.43717 0.68125
 C486 C 0.53752 0.41940 0.66562
 C487 C 0.56583 0.43762 0.64903
 C488 C 0.58202 0.47405 0.64851
 C489 C 0.56960 0.49179 0.66402
 C490 C 0.54109 0.47348 0.68045
 N491 N 0.57669 0.41871 0.63209
 N492 N 0.60288 0.43410 0.61726
 C493 C 0.61349 0.41611 0.59921
 C494 C 0.64273 0.43544 0.58388
 C495 C 0.65255 0.41938 0.56458
 C496 C 0.63317 0.38348 0.56018
 C497 C 0.60431 0.36388 0.57619
 C498 C 0.59451 0.38007 0.59554
 H499 H 0.50289 0.42266 0.69361
 H500 H 0.52469 0.39136 0.66611
 H501 H 0.60382 0.48877 0.63576
 H502 H 0.58198 0.51980 0.66303
 H503 H 0.65755 0.46322 0.58652
 H504 H 0.67499 0.43530 0.55274
 H505 H 0.58883 0.33621 0.57333
 H506 H 0.57176 0.36459 0.60718
 C507 C 0.52048 0.08514 0.67722
 C508 C 0.53333 0.11400 0.66051
 C509 C 0.56298 0.12319 0.64559
 C510 C 0.58000 0.10335 0.64780
 C511 C 0.56703 0.07435 0.66439
 C512 C 0.53719 0.06508 0.67916
 N513 N 0.57430 0.15170 0.62753
 N514 N 0.60200 0.16265 0.61442
 C515 C 0.61244 0.19017 0.59552
 C516 C 0.64434 0.20258 0.58314
 C517 C 0.65456 0.22824 0.56367
 C518 C 0.63277 0.24171 0.55604
 C519 C 0.60091 0.22948 0.56878
 C520 C 0.59086 0.20402 0.58839
 H521 H 0.49717 0.07802 0.68827
 H522 H 0.51989 0.12895 0.65885
 H523 H 0.60284 0.10981 0.63633
 H524 H 0.57998 0.05888 0.66551
 H525 H 0.66115 0.19204 0.58842
 H526 H 0.67923 0.23703 0.55423
 H527 H 0.58358 0.23939 0.56347
 H528 H 0.56602 0.19479 0.59763
 C529 C 0.91501 0.47440 0.67640
 C530 C 0.88699 0.46323 0.65909
 C531 C 0.88050 0.43733 0.64046
 C532 C 0.90210 0.42220 0.63961
 C533 C 0.93013 0.43338 0.65687
 C534 C 0.93682 0.45961 0.67533
 N535 N 0.85263 0.42764 0.62212
 N536 N 0.84561 0.40427 0.60478
 C537 C 0.81838 0.39473 0.58590
 C538 C 0.81141 0.36760 0.56842
 C539 C 0.78530 0.35771 0.54953
 C540 C 0.76570 0.37500 0.54767
 C541 C 0.77285 0.40240 0.56523
 C542 C 0.79893 0.41216 0.58423
 H543 H 0.92014 0.49504 0.69026
 H544 H 0.87064 0.47518 0.65988
 H545 H 0.89769 0.40218 0.62536
 H546 H 0.94691 0.42195 0.65563
 H547 H 0.82630 0.35406 0.56948
 H548 H 0.78055 0.33653 0.53634
 H549 H 0.75818 0.41618 0.56440
 H550 H 0.80394 0.43332 0.59751
 C551 C 0.49622 0.57942 0.67578
 C552 C 0.48299 0.59526 0.65871
 C553 C 0.45506 0.57517 0.64210
 C554 C 0.44031 0.53886 0.64287
 C555 C 0.45360 0.52305 0.65984
 C556 C 0.48157 0.54320 0.67644
 N557 N 0.44263 0.59210 0.62427
 N558 N 0.41664 0.57497 0.60941
 C559 C 0.40406 0.59109 0.59099
 C560 C 0.37454 0.57007 0.57629
 C561 C 0.36185 0.58457 0.55763
 C562 C 0.37864 0.62057 0.55319
 C563 C 0.40825 0.64172 0.56815
 C564 C 0.42085 0.62712 0.58694
 H565 H 0.51809 0.59535 0.68827
 H566 H 0.49468 0.62324 0.65824
 H567 H 0.41880 0.52272 0.63017
 H568 H 0.44218 0.49507 0.65998
 H569 H 0.36141 0.54228 0.57922
 H570 H 0.33901 0.56747 0.54651
 H571 H 0.42177 0.66952 0.56529
 H572 H 0.44379 0.64389 0.59807
 C573 C 0.43734 0.91490 0.68466
 C574 C 0.41964 0.88592 0.66839
 C575 C 0.43598 0.88064 0.64670
 C576 C 0.47027 0.90497 0.64123
 C577 C 0.48786 0.93410 0.65724
 C578 C 0.47190 0.93927 0.67951
 N579 N 0.41724 0.85100 0.63011
 N580 N 0.43229 0.84334 0.61206
 C581 C 0.41468 0.81473 0.59442
 C582 C 0.43421 0.80710 0.57679
 C583 C 0.41823 0.78052 0.55837
 C584 C 0.38215 0.76110 0.55704
 C585 C 0.36248 0.76849 0.57507
 C586 C 0.37863 0.79508 0.59369
 H587 H 0.42360 0.91883 0.70078
 H588 H 0.39305 0.86766 0.67259
 H589 H 0.48345 0.90167 0.62443
 H590 H 0.51434 0.95222 0.65253
 H591 H 0.46199 0.82212 0.57717
 H592 H 0.43424 0.77564 0.54483
 H593 H 0.33467 0.75402 0.57459
 H594 H 0.36302 0.80064 0.60714
 C595 C 0.08910 0.51320 0.68401
 C596 C 0.11870 0.52668 0.66835
 C597 C 0.12197 0.54764 0.64649
 C598 C 0.09501 0.55458 0.64020
 C599 C 0.06529 0.54075 0.65550
 C600 C 0.06201 0.52026 0.67792
 N601 N 0.15235 0.56110 0.63055
 N602 N 0.15855 0.58477 0.61356
 C603 C 0.18754 0.59841 0.59626
 C604 C 0.19383 0.62718 0.58077
 C605 C 0.22042 0.64023 0.56239
 C606 C 0.24114 0.62442 0.55886
 C607 C 0.23515 0.59575 0.57478
 C608 C 0.20859 0.58289 0.59345
 H609 H 0.08696 0.49636 0.70041
 H610 H 0.13908 0.52072 0.67321
 H611 H 0.09672 0.57046 0.62326
 H612 H 0.04516 0.54692 0.65016
 H613 H 0.17769 0.63926 0.58273
 H614 H 0.22416 0.66226 0.55048
 H615 H 0.25065 0.58301 0.57256
 H616 H 0.20402 0.56046 0.60519
 C617 C 0.49062 0.57914 0.82349
 C618 C 0.47546 0.59391 0.83942
 C619 C 0.44438 0.57292 0.85234
 C620 C 0.42826 0.53681 0.84884
 C621 C 0.44356 0.52201 0.83308
 C622 C 0.47487 0.54309 0.82043
 N623 N 0.43080 0.58869 0.86996
 N624 N 0.40162 0.57162 0.88098
 C625 C 0.38907 0.58718 0.89972
 C626 C 0.35563 0.56785 0.90948
 C627 C 0.34341 0.58156 0.92900
 C628 C 0.36472 0.61481 0.93934
 C629 C 0.39810 0.63438 0.92913
 C630 C 0.41012 0.62077 0.90945
 H631 H 0.51497 0.59568 0.81401
 H632 H 0.48822 0.62173 0.84208
 H633 H 0.40436 0.52002 0.85876
 H634 H 0.43128 0.49411 0.83104
 H635 H 0.33918 0.54189 0.90219
 H636 H 0.31762 0.56580 0.93648
 H637 H 0.41510 0.66014 0.93654
 H638 H 0.43611 0.63622 0.90228
 C639 C 0.08450 0.51507 0.81798
 C640 C 0.11314 0.52927 0.83478
 C641 C 0.11523 0.55117 0.85550
 C642 C 0.08797 0.55826 0.85962
 C643 C 0.05901 0.54353 0.84321
 C644 C 0.05711 0.52226 0.82179
 N645 N 0.14461 0.56486 0.87266
 N646 N 0.15153 0.59008 0.88819
 C647 C 0.17993 0.60271 0.90628
 C648 C 0.19037 0.63443 0.91898
 C649 C 0.21710 0.64673 0.93758
 C650 C 0.23329 0.62700 0.94415
 C651 C 0.22288 0.59525 0.93124
 C652 C 0.19661 0.58331 0.91231
 H653 H 0.08329 0.49758 0.80249
 H654 H 0.13374 0.52314 0.83170
 H655 H 0.08884 0.57476 0.87576
 H656 H 0.03842 0.54955 0.84686
 H657 H 0.17761 0.64954 0.91456
 H658 H 0.22447 0.67119 0.94732
 H659 H 0.23501 0.57958 0.93582
 H660 H 0.18884 0.55862 0.90285
 C661 C 0.49052 0.91802 0.82499
 C662 C 0.47735 0.88870 0.84127
 C663 C 0.44792 0.87965 0.85644
 C664 C 0.43156 0.90019 0.85500
 C665 C 0.44475 0.92951 0.83879
 C666 C 0.47424 0.93855 0.82366
 N667 N 0.43569 0.85021 0.87368
 N668 N 0.40887 0.84082 0.88763
 C669 C 0.39650 0.81219 0.90562
 C670 C 0.36691 0.80411 0.92016
 C671 C 0.35480 0.77746 0.93883
 C672 C 0.37218 0.75829 0.94333
 C673 C 0.40162 0.76604 0.92830
 C674 C 0.41373 0.79282 0.90959
 H675 H 0.51357 0.92495 0.81364
 H676 H 0.49028 0.87321 0.84230
 H677 H 0.40887 0.89386 0.86661
 H678 H 0.43210 0.94528 0.83812
 H679 H 0.35344 0.81886 0.91725
 H680 H 0.33200 0.77218 0.94994
 H681 H 0.41558 0.75178 0.93126
 H682 H 0.43671 0.79865 0.89853
 C683 C 0.57890 0.49689 0.82476
 C684 C 0.59518 0.48442 0.84207
 C685 C 0.57580 0.45717 0.85948
 C686 C 0.53974 0.44223 0.85921
 C687 C 0.52349 0.45470 0.84196
 C688 C 0.54293 0.48206 0.82459
 N689 N 0.59316 0.44560 0.87760
 N690 N 0.57655 0.42089 0.89372
 C691 C 0.59291 0.40895 0.91241
 C692 C 0.57221 0.38112 0.92881
 C693 C 0.58692 0.36887 0.94760
 C694 C 0.62287 0.38439 0.95043
 C695 C 0.64372 0.41239 0.93384
 C696 C 0.62886 0.42459 0.91495
 H697 H 0.59431 0.51837 0.81174
 H698 H 0.62295 0.49624 0.84214
 H699 H 0.52413 0.42120 0.87250
 H700 H 0.49573 0.44318 0.84224
 H701 H 0.54449 0.36891 0.92704
 H702 H 0.57003 0.34727 0.95997
 H703 H 0.67146 0.42487 0.93547
 H704 H 0.64539 0.44622 0.90247
 C705 C 0.91387 0.41841 0.82059
 C706 C 0.88480 0.40210 0.83671
 C707 C 0.87386 0.42180 0.85150
 C708 C 0.89208 0.45817 0.84965
 C709 C 0.92114 0.47444 0.83363
 C710 C 0.93229 0.45470 0.81906
 N711 N 0.84527 0.40458 0.86909
 N712 N 0.83449 0.42153 0.88283
 C713 C 0.80702 0.40561 0.90146
 C714 C 0.79760 0.42682 0.91572
 C715 C 0.77262 0.41288 0.93536
 C716 C 0.75645 0.37723 0.94118
 C717 C 0.76528 0.35572 0.92631
 C718 C 0.79045 0.36981 0.90661
 H719 H 0.92243 0.40283 0.80971
 H720 H 0.87114 0.37411 0.83805
 H721 H 0.88429 0.47404 0.86095
 H722 H 0.93526 0.50247 0.83283
 H723 H 0.81019 0.45442 0.91191
 H724 H 0.76636 0.43022 0.94627
 H725 H 0.75332 0.32818 0.93028
 H726 H 0.79737 0.35290 0.89581
 C727 C 0.57178 0.08455 0.82477
 C728 C 0.58758 0.11348 0.84128
 C729 C 0.56771 0.12408 0.85608
 C730 C 0.53167 0.10556 0.85398
 C731 C 0.51585 0.07645 0.83763
 C732 C 0.53583 0.06578 0.82298
 N733 N 0.58466 0.15258 0.87396
 N734 N 0.56851 0.16520 0.88657
 C735 C 0.58534 0.19263 0.90537
 C736 C 0.56687 0.20753 0.91673
 C737 C 0.58203 0.23318 0.93608
 C738 C 0.61593 0.24406 0.94463
 C739 C 0.63455 0.22931 0.93293
 C740 C 0.61945 0.20393 0.91341
 H741 H 0.58751 0.07636 0.81379
 H742 H 0.61534 0.12741 0.84285
 H743 H 0.51576 0.11311 0.86537
 H744 H 0.48806 0.06199 0.83660
 H745 H 0.54052 0.19896 0.91075
 H746 H 0.56697 0.24394 0.94474
 H747 H 0.66075 0.23722 0.93898
 H748 H 0.63424 0.19272 0.90497
   
