data_POSCAR
  _audit_creation_date              2014-09-24
  _audit_creation_method            'ToBaCCo'
  _symmetry_space_group_name_H-M    'P1'
  _symmetry_Int_Tables_number       1
  _symmetry_cell_setting            triclinic
  loop_
  _symmetry_equiv_pos_as_xyz
 x,y,z
_cell_length_a 33.5961
_cell_length_b 33.7263
_cell_length_c 42.1651
_cell_angle_alpha 89.638500
_cell_angle_beta 89.605800
_cell_angle_gamma 89.904900
loop_
  _atom_site_label
  _atom_site_type_symbol
  _atom_site_fract_x
  _atom_site_fract_y
  _atom_site_fract_z
B1 B 0.26174 0.22904 0.27881
 B2 B 0.21414 0.22097 0.26875
 B3 B 0.22935 0.26740 0.27563
 B4 B 0.27661 0.27244 0.26214
 B5 B 0.29007 0.22805 0.24604
 B6 B 0.25103 0.19587 0.25025
 B7 B 0.22689 0.25745 0.21236
 B8 B 0.27439 0.26552 0.22249
 B9 B 0.25898 0.21903 0.21553
 B10 B 0.21179 0.21404 0.22912
 B11 B 0.19851 0.25832 0.24500
 B12 B 0.23741 0.29053 0.24102
 B13 B 0.74118 0.78085 0.22103
 B14 B 0.72590 0.73423 0.22788
 B15 B 0.77290 0.74246 0.21580
 B16 B 0.78894 0.78517 0.23262
 B17 B 0.75079 0.80240 0.25570
 B18 B 0.71162 0.77051 0.25269
 B19 B 0.77356 0.72968 0.27883
 B20 B 0.78848 0.77649 0.27217
 B21 B 0.74152 0.76797 0.28410
 B22 B 0.72570 0.72542 0.26735
 B23 B 0.76368 0.70819 0.24422
 B24 B 0.80293 0.74017 0.24717
 B25 B 0.72718 0.22421 -0.21859
 B26 B 0.71424 0.27126 -0.22676
 B27 B 0.76099 0.26121 -0.21529
 B28 B 0.77470 0.21681 -0.23078
 B29 B 0.73563 0.20019 -0.25263
 B30 B 0.69799 0.23433 -0.25019
 B31 B 0.76125 0.27033 -0.27878
 B32 B 0.77433 0.22336 -0.27066
 B33 B 0.72753 0.23334 -0.28214
 B34 B 0.71379 0.27774 -0.26661
 B35 B 0.75289 0.29434 -0.24478
 B36 B 0.79051 0.26032 -0.24724
 B37 B 0.26750 0.76082 -0.28534
 B38 B 0.22059 0.77037 -0.27379
 B39 B 0.23450 0.72332 -0.28060
 B40 B 0.28209 0.71727 -0.26861
 B41 B 0.29697 0.76153 -0.25363
 B42 B 0.25874 0.79475 -0.25676
 B43 B 0.23434 0.73450 -0.21744
 B44 B 0.28142 0.72508 -0.22896
 B45 B 0.26738 0.77201 -0.22209
 B46 B 0.21986 0.77813 -0.23415
 B47 B 0.20494 0.73385 -0.24918
 B48 B 0.24327 0.70060 -0.24594
 B49 B 1.24629 1.27353 0.71963
 B50 B 1.23772 1.22644 0.73225
 B51 B 1.28392 1.24047 0.72107
 B52 B 1.29163 1.28757 0.73303
 B53 B 1.24913 1.30262 0.75170
 B54 B 1.21539 1.26493 0.75072
 B55 B 1.27957 1.23973 0.78498
 B56 B 1.28808 1.28642 0.77313
 B57 B 1.24175 1.27301 0.78351
 B58 B 1.23438 1.22583 0.77192
 B59 B 1.27705 1.21069 0.75321
 B60 B 1.31039 1.24877 0.75402
 B61 B 0.76566 0.73387 0.78178
 B62 B 0.72015 0.72035 0.76915
 B63 B 0.72865 0.76758 0.78002
 B64 B 0.77527 0.78023 0.76850
 B65 B 0.79521 0.74012 0.74973
 B66 B 0.76112 0.70271 0.75074
 B67 B 0.73024 0.76424 0.71614
 B68 B 0.77565 0.77732 0.72843
 B69 B 0.76704 0.73013 0.71784
 B70 B 0.72050 0.71757 0.72940
 B71 B 0.70059 0.75789 0.74769
 B72 B 0.73499 0.79517 0.74729
 B73 B 1.22060 0.74169 0.21644
 B74 B 1.26876 0.73454 0.22530
 B75 B 1.25241 0.78052 0.21738
 B76 B 1.20580 0.78555 0.23232
 B77 B 1.19381 0.74164 0.25010
 B78 B 1.23310 0.70972 0.24567
 B79 B 1.25842 0.77241 0.28077
 B80 B 1.21037 0.77999 0.27210
 B81 B 1.22642 0.73370 0.27982
 B82 B 1.27306 0.72879 0.26494
 B83 B 1.28506 0.77274 0.24720
 B84 B 1.24595 0.80459 0.25154
 B85 B 0.76698 1.25751 0.21271
 B86 B 0.72031 1.26388 0.22606
 B87 B 0.73675 1.21793 0.21807
 B88 B 0.78514 1.21476 0.22819
 B89 B 0.79837 1.25953 0.24326
 B90 B 0.75797 1.29033 0.24199
 B91 B 0.73974 1.22820 0.28130
 B92 B 0.78640 1.22163 0.26777
 B93 B 0.77018 1.26759 0.27597
 B94 B 0.72160 1.27098 0.26573
 B95 B 0.70836 1.22611 0.25068
 B96 B 0.74878 1.19531 0.25204
 O97 O 0.46039 1.04285 0.04754
 O98 O 0.53252 0.93126 0.04483
 O99 O 0.41213 0.96408 0.01243
 O100 O 0.57834 1.03611 0.01576
 O101 O 0.45617 0.94166 0.04557
 O102 O 0.53159 1.04531 0.04901
 O103 O 0.57926 0.96344 0.01846
 O104 O 0.41543 1.03544 0.01276
 C105 C 0.42473 1.04304 0.04061
 C106 C 0.56815 0.94119 0.04093
 C107 C 0.42082 0.94899 0.03890
 C108 C 0.56758 1.04495 0.04308
 O109 O 0.53328 1.07914 -0.01035
 O110 O 0.45448 0.91595 -0.01385
 O111 O 0.45278 1.03449 -0.04482
 O112 O 0.56104 0.95885 -0.04163
 O113 O 0.52904 0.91242 -0.01516
 O114 O 0.46104 1.07946 -0.01034
 O115 O 0.55001 1.03310 -0.04325
 O116 O 0.44470 0.96374 -0.04649
 Co117 Co 0.49656 1.05628 0.01739
 Co118 Co 0.49306 0.93234 0.01416
 Co119 Co 0.43680 0.99936 -0.01502
 Co120 Co 0.56021 0.99813 -0.01148
 O121 O 0.49690 0.99599 0.00135
 C122 C 0.54787 1.06878 -0.03666
 C123 C 0.44248 0.92807 -0.04022
 C124 C 0.45128 1.06988 -0.03778
 C125 C 0.55256 0.92327 -0.03706
 O126 O 0.95926 0.56930 0.52499
 O127 O 1.04174 0.41981 0.52679
 O128 O 0.92161 0.44898 0.51689
 O129 O 1.07977 0.54009 0.51795
 O130 O 0.97372 0.42754 0.53832
 O131 O 1.02664 0.56138 0.53814
 O132 O 1.06787 0.47488 0.54111
 O133 O 0.93180 0.51454 0.53948
 C134 C 0.93774 0.55026 0.54415
 C135 C 1.06231 0.43912 0.54605
 C136 C 0.93732 0.43110 0.53913
 C137 C 1.06303 0.55813 0.53963
 O138 O 1.04710 0.56657 0.47398
 O139 O 0.95630 0.42214 0.47383
 O140 O 0.92516 0.54448 0.48145
 O141 O 1.07779 0.44445 0.48368
 O142 O 1.02479 0.42627 0.46210
 O143 O 0.97928 0.56276 0.46089
 O144 O 1.07117 0.51018 0.46028
 O145 O 0.93263 0.47846 0.45906
 Co146 Co 1.00289 0.55849 0.49953
 Co147 Co 0.99932 0.43045 0.50021
 Co148 Co 0.93548 0.49639 0.49930
 Co149 Co 1.06642 0.49262 0.50067
 O150 O 1.00101 0.49449 0.49991
 C151 C 1.06763 0.54616 0.45520
 C152 C 0.93647 0.44243 0.45446
 C153 C 0.94278 0.56110 0.45936
 C154 C 1.06134 0.42799 0.46130
 O155 O 1.02550 0.45486 0.05858
 O156 O 1.02322 0.54408 -0.06306
 O157 O 1.02225 0.42303 -0.03855
 O158 O 1.01998 0.57645 0.03377
 O159 O 1.04499 0.47747 -0.05592
 O160 O 1.04404 0.52322 0.05267
 O161 O 1.04413 0.56719 -0.01942
 O162 O 1.04593 0.43132 0.01443
 C163 C 1.05005 0.43430 0.04339
 C164 C 1.04822 0.56415 -0.04837
 C165 C 1.04887 0.44129 -0.05291
 C166 C 1.04615 0.55961 0.04956
 O167 O 0.96547 0.54438 0.05799
 O168 O 0.96717 0.45262 -0.06174
 O169 O 0.97099 0.42274 0.03578
 O170 O 0.96800 0.57390 -0.03987
 O171 O 0.94541 0.51909 -0.05567
 O172 O 0.94669 0.47619 0.05357
 O173 O 0.94475 0.56712 0.01370
 O174 O 0.94631 0.43040 -0.01735
 Co175 Co 0.99542 0.49955 0.05003
 Co176 Co 0.99524 0.49841 -0.05344
 Co177 Co 0.99620 0.43421 -0.00155
 Co178 Co 0.99440 0.56380 -0.00294
 O179 O 0.99535 0.49900 -0.00192
 C180 C 0.94094 0.56481 0.04278
 C181 C 0.94227 0.43269 -0.04637
 C182 C 0.94391 0.43999 0.05025
 C183 C 0.94101 0.55516 -0.05293
 O184 O 0.54714 0.97439 0.55181
 O185 O 0.55062 1.02073 0.44342
 O186 O 0.54988 0.93043 0.48140
 O187 O 0.54881 1.06658 0.51425
 O188 O 0.53076 0.95364 0.43696
 O189 O 0.52705 1.04209 0.55782
 O190 O 0.52673 1.07477 0.46038
 O191 O 0.52362 0.92098 0.53385
 C192 C 0.55010 0.93817 0.54871
 C193 C 0.55396 1.05691 0.44644
 C194 C 0.55529 0.93377 0.45257
 C195 C 0.55199 1.06307 0.54332
 O196 O 0.44901 1.01962 0.55103
 O197 O 0.45209 0.97679 0.44189
 O198 O 0.44908 0.92990 0.51171
 O199 O 0.45034 1.06677 0.47999
 O200 O 0.47261 1.04408 0.43626
 O201 O 0.46837 0.95203 0.55632
 O202 O 0.47267 1.07388 0.53375
 O203 O 0.47519 0.92241 0.45885
 Co204 Co 0.49811 0.99711 0.54858
 Co205 Co 0.50131 0.99871 0.44525
 Co206 Co 0.49946 0.93335 0.49645
 Co207 Co 0.49961 1.06311 0.49703
 O208 O 0.49961 0.99810 0.49683
 C209 C 0.44603 1.05593 0.54842
 C210 C 0.44876 0.94051 0.44434
 C211 C 0.44411 0.93211 0.54070
 C212 C 0.44696 1.06373 0.45097
 O213 O 1.05900 1.05960 0.48303
 O214 O 0.93107 1.05123 0.53143
 O215 O 0.97081 1.01523 0.43647
 O216 O 1.03327 1.02163 0.58417
 O217 O 0.93436 1.05058 0.46984
 O218 O 1.05994 1.05040 0.54198
 O219 O 0.99040 1.06153 0.54932
 O220 O 1.04101 1.02238 0.44335
 C221 C 1.05337 1.05502 0.45389
 C222 C 0.95462 1.07087 0.54816
 C223 C 0.94791 1.04423 0.44243
 C224 C 1.06201 1.04300 0.57168
 O225 O 1.07706 0.97301 0.53323
 O226 O 0.92178 0.97549 0.47066
 O227 O 1.04192 0.94683 0.47178
 O228 O 0.96025 0.99530 0.56879
 O229 O 0.92337 0.97324 0.53052
 O230 O 1.08711 0.98795 0.47543
 O231 O 1.02130 0.95819 0.55514
 O232 O 0.97412 0.94092 0.46153
 Co233 Co 1.06412 1.01613 0.50810
 Co234 Co 0.93440 1.01211 0.50106
 Co235 Co 1.00710 0.98277 0.45689
 Co236 Co 1.00646 1.00936 0.54921
 O237 O 0.99960 1.00400 0.50220
 C238 C 1.05673 0.95024 0.55048
 C239 C 0.93799 0.94568 0.45877
 C240 C 1.07656 0.95500 0.46617
 C241 C 0.93232 0.97415 0.55928
 O242 O 0.57673 0.54960 -0.01183
 O243 O 0.43861 0.55895 0.02350
 O244 O 0.49403 0.56154 -0.04914
 O245 O 0.51999 0.55333 0.06051
 O246 O 0.43545 0.54809 -0.03102
 O247 O 0.57638 0.53316 0.04186
 O248 O 0.45245 0.52803 0.06509
 O249 O 0.55730 0.52607 -0.05475
 C250 C 0.57555 0.55213 -0.04084
 C251 C 0.43888 0.55811 0.05256
 C252 C 0.45827 0.57010 -0.04714
 C253 C 0.55636 0.55769 0.05776
 O254 O 0.56573 0.45272 0.02598
 O255 O 0.43353 0.46579 -0.01920
 O256 O 0.51987 0.45813 -0.05098
 O257 O 0.47944 0.45531 0.05658
 O258 O 0.42577 0.47727 0.03509
 O259 O 0.57593 0.46846 -0.02793
 O260 O 0.54588 0.48019 0.06754
 O261 O 0.45792 0.49383 -0.05922
 Co262 Co 0.56741 0.50142 0.00682
 Co263 Co 0.43959 0.51206 0.00236
 Co264 Co 0.50689 0.50963 -0.04754
 Co265 Co 0.49984 0.50448 0.05634
 O266 O 0.50344 0.50690 0.00446
 C267 C 0.56143 0.45122 0.05492
 C268 C 0.43856 0.46626 -0.04805
 C269 C 0.55486 0.44839 -0.04654
 C270 C 0.44348 0.45150 0.05155
 C271 C 0.26795 1.14455 0.14477
 C272 C 0.30939 1.14164 0.14135
 C273 C 0.33410 1.16453 0.16031
 C274 C 0.31788 1.18960 0.18301
 C275 C 0.27630 1.19267 0.18720
 C276 C 0.25145 1.16996 0.16763
 C277 C 0.32786 1.11552 0.11876
 C278 C 0.34689 1.09537 0.10066
 C279 C 0.37230 1.07424 0.08003
 C280 C 0.39573 1.05857 0.06233
 H281 H 0.24852 1.12696 0.13008
 H282 H 0.36618 1.16271 0.15777
 H283 H 0.33828 1.20647 0.19736
 H284 H 0.21943 1.17121 0.17033
 C285 C 0.78812 0.65910 0.64653
 C286 C 0.82972 0.66091 0.64424
 C287 C 0.85063 0.68726 0.66331
 C288 C 0.83044 0.71060 0.68536
 C289 C 0.78868 0.70830 0.68875
 C290 C 0.76770 0.68266 0.66861
 C291 C 0.85159 0.63508 0.62326
 C292 C 0.87119 0.61402 0.60613
 C293 C 0.89486 0.59031 0.58585
 C294 C 0.91491 0.57120 0.56764
 H295 H 0.77158 0.63883 0.63181
 H296 H 0.88278 0.68909 0.66170
 H297 H 0.84790 0.72980 0.70030
 H298 H 0.73572 0.67970 0.67062
 C299 C 0.66391 0.83800 0.16973
 C300 C 0.68737 0.85428 0.14560
 C301 C 0.72860 0.84786 0.14540
 C302 C 0.74616 0.82490 0.16942
 C303 C 0.72253 0.80798 0.19366
 C304 C 0.68116 0.81520 0.19349
 C305 C 0.66771 0.87638 0.12103
 C306 C 0.64773 0.89349 0.10169
 C307 C 0.62141 0.91174 0.08019
 C308 C 0.59745 0.92590 0.06228
 H309 H 0.63197 0.84260 0.17003
 H310 H 0.74704 0.86036 0.12670
 H311 H 0.77801 0.82031 0.16892
 H312 H 0.66154 0.80275 0.21138
 C313 C 1.21155 0.35746 0.66179
 C314 C 1.18177 0.33862 0.64451
 C315 C 1.17660 0.29771 0.64769
 C316 C 1.19928 0.27616 0.66947
 C317 C 1.22749 0.29499 0.68880
 C318 C 1.23437 0.33586 0.68354
 C319 C 1.15544 0.36126 0.62447
 C320 C 1.13290 0.37980 0.60782
 C321 C 1.10673 0.40104 0.58780
 C322 C 1.08541 0.41873 0.56962
 H323 H 1.21626 0.38910 0.65926
 H324 H 1.15424 0.28255 0.63392
 H325 H 1.19417 0.24488 0.67092
 H326 H 1.25602 0.35183 0.69740
 C327 C 0.70557 1.17021 -0.13734
 C328 C 0.66400 1.16635 -0.13848
 C329 C 0.64361 1.17835 -0.16548
 C330 C 0.66400 1.19500 -0.19094
 C331 C 0.70571 1.20045 -0.19012
 C332 C 0.72640 1.18710 -0.16314
 C333 C 0.64101 1.14927 -0.11296
 C334 C 0.61895 1.13438 -0.09365
 C335 C 0.59202 1.11511 -0.07289
 C336 C 0.57014 1.09591 -0.05607
 H337 H 0.72175 1.16049 -0.11657
 H338 H 0.61155 1.17516 -0.16680
 H339 H 0.64624 1.20451 -0.21086
 H340 H 0.75832 1.19044 -0.16169
 C341 C 1.21726 0.65514 0.34870
 C342 C 1.17592 0.65465 0.35375
 C343 C 1.15173 0.68086 0.33697
 C344 C 1.16819 0.70663 0.31469
 C345 C 1.20961 0.70727 0.30872
 C346 C 1.23406 0.68135 0.32626
 C347 C 1.15695 0.62736 0.37548
 C348 C 1.13793 0.60617 0.39304
 C349 C 1.11351 0.58333 0.41355
 C350 C 1.09218 0.56547 0.43178
 H351 H 1.23634 0.63491 0.36165
 H352 H 1.11977 0.68093 0.34071
 H353 H 1.14799 0.72579 0.30184
 H354 H 1.26588 0.68056 0.32211
 C355 C 0.34855 0.82309 -0.17098
 C356 C 0.32776 0.83358 -0.14363
 C357 C 0.28656 0.82706 -0.14171
 C358 C 0.26657 0.80904 -0.16702
 C359 C 0.28774 0.79707 -0.19428
 C360 C 0.32895 0.80525 -0.19599
 C361 C 0.34991 0.85123 -0.11826
 C362 C 0.37114 0.86634 -0.09884
 C363 C 0.39733 0.88524 -0.07770
 C364 C 0.41912 0.90332 -0.06041
 H365 H 0.38032 0.82829 -0.17289
 H366 H 0.27005 0.83548 -0.12065
 H367 H 0.23496 0.80366 -0.16492
 H368 H 0.34693 0.79703 -0.21625
 C369 C 0.78640 0.33672 0.34971
 C370 C 0.82792 0.34155 0.34913
 C371 C 0.85044 0.32257 0.32584
 C372 C 0.83199 0.29922 0.30317
 C373 C 0.79027 0.29396 0.30319
 C374 C 0.76766 0.31309 0.32684
 C375 C 0.84847 0.36549 0.37213
 C376 C 0.86800 0.38457 0.39056
 C377 C 0.89228 0.40583 0.41191
 C378 C 0.91300 0.42306 0.43066
 H379 H 0.76857 0.35125 0.36771
 H380 H 0.88252 0.32581 0.32514
 H381 H 0.85093 0.28502 0.28576
 H382 H 0.73562 0.31004 0.32756
 C383 C 1.19581 0.33496 0.14796
 C384 C 1.16558 0.31554 0.13180
 C385 C 1.15703 0.27580 0.13926
 C386 C 1.17800 0.25611 0.16350
 C387 C 1.20766 0.27602 0.18066
 C388 C 1.21628 0.31571 0.17217
 C389 C 1.14163 0.33831 0.10987
 C390 C 1.12195 0.35972 0.09300
 C391 C 1.09856 0.38621 0.07464
 C392 C 1.07748 0.40876 0.05994
 H393 H 1.20255 0.36574 0.14273
 H394 H 1.13333 0.26048 0.12712
 H395 H 1.16977 0.22602 0.16966
 H396 H 1.23802 0.33284 0.18498
 C397 C 0.66558 0.78220 0.64003
 C398 C 0.66945 0.82340 0.63606
 C399 C 0.69462 0.84451 0.65584
 C400 C 0.71469 0.82525 0.68013
 C401 C 0.71089 0.78393 0.68505
 C402 C 0.68633 0.76250 0.66438
 C403 C 0.64541 0.84570 0.61409
 C404 C 0.62536 0.86707 0.59760
 C405 C 0.60121 0.89333 0.57990
 C406 C 0.57910 0.91505 0.56553
 H407 H 0.64572 0.76558 0.62500
 H408 H 0.69760 0.87637 0.65328
 H409 H 0.73244 0.84346 0.69559
 H410 H 0.68197 0.73097 0.66772
 C411 C 1.16090 0.71732 -0.14577
 C412 C 1.16980 0.67805 -0.13714
 C413 C 1.20166 0.65875 -0.15182
 C414 C 1.22342 0.67765 -0.17577
 C415 C 1.21445 0.71686 -0.18541
 C416 C 1.18302 0.73659 -0.16973
 C417 C 1.14457 0.65576 -0.11556
 C418 C 1.12361 0.63524 -0.09876
 C419 C 1.09867 0.61007 -0.08027
 C420 C 1.07649 0.58864 -0.06533
 H421 H 1.13597 0.73253 -0.13485
 H422 H 1.20867 0.62828 -0.14572
 H423 H 1.24628 0.66057 -0.18764
 H424 H 1.17424 0.76616 -0.17695
 C425 C 0.71336 1.15055 0.34688
 C426 C 0.68181 1.16885 0.36276
 C427 C 0.67223 1.20836 0.35559
 C428 C 0.69290 1.22876 0.33150
 C429 C 0.72335 1.20980 0.31412
 C430 C 0.73373 1.17061 0.32276
 C431 C 0.65674 1.14530 0.38345
 C432 C 0.63514 1.12433 0.39925
 C433 C 0.60871 1.09944 0.41645
 C434 C 0.58473 1.07902 0.43039
 H435 H 0.72089 1.11990 0.35194
 H436 H 0.64756 1.22279 0.36754
 H437 H 0.68336 1.25845 0.32529
 H438 H 0.75615 1.15428 0.30971
 C439 C 0.84123 0.72440 0.14121
 C440 C 0.83015 0.68580 0.13271
 C441 C 0.79873 0.66734 0.14866
 C442 C 0.77953 0.68631 0.17367
 C443 C 0.79053 0.72489 0.18312
 C444 C 0.82153 0.74385 0.16625
 C445 C 0.85292 0.66279 0.11017
 C446 C 0.87158 0.64105 0.09287
 C447 C 0.89385 0.61408 0.07416
 C448 C 0.91415 0.59102 0.05929
 H449 H 0.86599 0.73886 0.12933
 H450 H 0.79019 0.63733 0.14274
 H451 H 0.75711 0.66958 0.18646
 H452 H 0.83191 0.77282 0.17332
 C453 C 0.30792 1.19769 0.63665
 C454 C 0.34182 1.17488 0.64297
 C455 C 0.35949 1.17681 0.67277
 C456 C 0.34244 1.19976 0.69664
 C457 C 0.30706 1.22140 0.69132
 C458 C 0.29082 1.22100 0.66059
 C459 C 0.35849 1.14840 0.61970
 C460 C 0.37455 1.12559 0.60176
 C461 C 0.39615 1.09923 0.58220
 C462 C 0.41730 1.07811 0.56639
 H463 H 0.29408 1.19666 0.61354
 H464 H 0.38592 1.15953 0.67791
 H465 H 0.35629 1.19887 0.71972
 H466 H 0.26395 1.23691 0.65523
 C467 C 0.79398 0.33825 -0.15160
 C468 C 0.82398 0.31821 -0.13531
 C469 C 0.83183 0.27836 -0.14258
 C470 C 0.81039 0.25916 -0.16661
 C471 C 0.78070 0.27952 -0.18371
 C472 C 0.77295 0.31942 -0.17559
 C473 C 0.84836 0.34019 -0.11329
 C474 C 0.86857 0.36063 -0.09620
 C475 C 0.89270 0.38589 -0.07752
 C476 C 0.91434 0.40759 -0.06268
 H477 H 0.78779 0.36914 -0.14660
 H478 H 0.85536 0.26252 -0.13044
 H479 H 0.81830 0.22901 -0.17264
 H480 H 0.75147 0.33699 -0.18853
 C481 C 0.29476 0.85127 0.34131
 C482 C 0.32395 0.83083 0.35815
 C483 C 0.33000 0.79028 0.35250
 C484 C 0.30767 0.77069 0.32928
 C485 C 0.27923 0.79156 0.31130
 C486 C 0.27291 0.83208 0.31809
 C487 C 0.34941 0.85300 0.37901
 C488 C 0.37067 0.87347 0.39508
 C489 C 0.39616 0.89823 0.41275
 C490 C 0.41915 0.91863 0.42729
 H491 H 0.28986 0.88263 0.34527
 H492 H 0.35277 0.77414 0.36529
 H493 H 0.31382 0.73977 0.32457
 H494 H 0.25180 0.84971 0.30481
 C495 C 1.16252 1.18962 0.34828
 C496 C 1.13294 1.16382 0.33834
 C497 C 1.12841 1.15606 0.30592
 C498 C 1.15380 1.17423 0.28355
 C499 C 1.18415 1.20000 0.29351
 C500 C 1.18781 1.20732 0.32629
 C501 C 1.11005 1.14353 0.36232
 C502 C 1.09392 1.12644 0.38400
 C503 C 1.07795 1.10500 0.40989
 C504 C 1.06607 1.08411 0.43116
 H505 H 1.16668 1.19549 0.37329
 H506 H 1.10574 1.13567 0.29800
 H507 H 1.14992 1.16777 0.25865
 H508 H 1.21066 1.22641 0.33550
 C509 C 0.68984 0.63557 -0.17345
 C510 C 0.65658 0.65238 -0.15861
 C511 C 0.63873 0.68616 -0.17155
 C512 C 0.65641 0.70533 -0.19742
 C513 C 0.69288 0.69171 -0.20982
 C514 C 0.70764 0.65483 -0.19926
 C515 C 0.64158 0.63565 -0.12959
 C516 C 0.62888 0.62083 -0.10560
 C517 C 0.61274 0.60099 -0.07911
 C518 C 0.59697 0.58067 -0.05924
 H519 H 0.70326 0.60877 -0.16404
 H520 H 0.61208 0.69858 -0.16090
 H521 H 0.64256 0.73193 -0.20647
 H522 H 0.73501 0.64266 -0.20882
 C523 C 0.86353 1.16061 0.69505
 C524 C 0.85999 1.16812 0.66240
 C525 C 0.82919 1.19197 0.65139
 C526 C 0.80212 1.20842 0.67251
 C527 C 0.80493 1.20165 0.70552
 C528 C 0.83619 1.17743 0.71655
 C529 C 0.88600 1.15041 0.63921
 C530 C 0.90492 1.13571 0.61791
 C531 C 0.92426 1.11707 0.59219
 C532 C 0.93895 1.09824 0.57091
 H533 H 0.88723 1.14180 0.70384
 H534 H 0.82590 1.19782 0.62623
 H535 H 0.77916 1.22694 0.66248
 H536 H 0.83965 1.17165 0.74166
 C537 C 0.31848 0.69981 0.14631
 C538 C 0.34797 0.67407 0.15697
 C539 C 0.35310 0.66771 0.18955
 C540 C 0.32836 0.68706 0.21144
 C541 C 0.29810 0.71276 0.20087
 C542 C 0.29382 0.71887 0.16792
 C543 C 0.37065 0.65246 0.13394
 C544 C 0.38766 0.63378 0.11380
 C545 C 0.40595 0.61032 0.09044
 C546 C 0.42100 0.58798 0.07180
 H547 H 0.31398 0.70461 0.12114
 H548 H 0.37577 0.64742 0.19799
 H549 H 0.33268 0.68151 0.23649
 H550 H 0.27089 0.73789 0.15839
 C551 C 1.16901 0.80370 0.64755
 C552 C 1.14343 0.83358 0.65764
 C553 C 1.14070 0.84264 0.69003
 C554 C 1.16418 0.82200 0.71214
 C555 C 1.19080 0.79230 0.70201
 C556 C 1.19243 0.78349 0.66930
 C557 C 1.12255 0.85615 0.63395
 C558 C 1.10695 0.87491 0.61302
 C559 C 1.08980 0.89805 0.58870
 C560 C 1.07509 0.92015 0.56952
 H561 H 1.17181 0.79672 0.62257
 H562 H 1.12108 0.86607 0.69808
 H563 H 1.16211 0.82992 0.73694
 H564 H 1.21301 0.76199 0.65981
 C565 C 0.66295 0.29640 0.15001
 C566 C 0.63903 0.32710 0.16107
 C567 C 0.63832 0.33604 0.19351
 C568 C 0.66255 0.31477 0.21466
 C569 C 0.68799 0.28465 0.20346
 C570 C 0.68724 0.27565 0.17079
 C571 C 0.61900 0.35143 0.13810
 C572 C 0.60463 0.37180 0.11760
 C573 C 0.58954 0.39672 0.09359
 C574 C 0.57698 0.42009 0.07443
 H575 H 0.66432 0.28968 0.12492
 H576 H 0.62011 0.36019 0.20227
 H577 H 0.66245 0.32294 0.23945
 H578 H 0.70730 0.25436 0.16038
 C579 C 0.83826 0.80870 0.35084
 C580 C 0.86014 0.84167 0.34144
 C581 C 0.86256 0.85227 0.30929
 C582 C 0.84176 0.83023 0.28667
 C583 C 0.81817 0.79773 0.29621
 C584 C 0.81733 0.78724 0.32868
 C585 C 0.87707 0.86539 0.36585
 C586 C 0.88948 0.88359 0.38804
 C587 C 0.90374 0.90407 0.41447
 C588 C 0.91769 0.92224 0.43608
 H589 H 0.83577 0.80060 0.37571
 H590 H 0.87943 0.87809 0.30187
 H591 H 0.84282 0.83962 0.26209
 H592 H 0.79826 0.76423 0.33791
 C593 C 0.32874 0.33379 -0.15002
 C594 C 0.35660 0.36060 -0.16149
 C595 C 0.36281 0.36517 -0.19423
 C596 C 0.34083 0.34215 -0.21550
 C597 C 0.31265 0.31471 -0.20394
 C598 C 0.30713 0.31120 -0.17082
 C599 C 0.37741 0.38303 -0.13840
 C600 C 0.39196 0.40014 -0.11659
 C601 C 0.40714 0.42009 -0.09037
 C602 C 0.42053 0.43933 -0.06924
 H603 H 0.32371 0.33012 -0.12473
 H604 H 0.38449 0.38624 -0.20320
 H605 H 0.34605 0.34560 -0.24073
 H606 H 0.28646 0.29046 -0.16030
 C607 C 1.19744 0.35396 -0.16087
 C608 C 1.17375 0.33211 -0.13996
 C609 C 1.17275 0.29061 -0.14219
 C610 C 1.19513 0.27121 -0.16576
 C611 C 1.21853 0.29323 -0.18736
 C612 C 1.21928 0.33494 -0.18434
 C613 C 1.14874 0.35356 -0.11813
 C614 C 1.12772 0.37395 -0.10162
 C615 C 1.10231 0.39890 -0.08388
 C616 C 1.07909 0.41948 -0.06952
 H617 H 1.19831 0.38603 -0.15954
 H618 H 1.15411 0.27339 -0.12623
 H619 H 1.19333 0.23928 -0.16754
 H620 H 1.23665 0.35339 -0.20029
 C621 C 0.67147 0.78248 0.35795
 C622 C 0.67974 0.82185 0.36616
 C623 C 0.71055 0.84196 0.35067
 C624 C 0.73166 0.82382 0.32617
 C625 C 0.72303 0.78465 0.31676
 C626 C 0.69300 0.76396 0.33346
 C627 C 0.65442 0.84358 0.38780
 C628 C 0.63310 0.86374 0.40439
 C629 C 0.60751 0.88855 0.42235
 C630 C 0.58458 0.90969 0.43664
 H631 H 0.64733 0.76666 0.36953
 H632 H 0.71703 0.87252 0.35648
 H633 H 0.75356 0.84155 0.31365
 H634 H 0.68462 0.73430 0.32656
 C635 C 0.84568 0.68610 -0.16336
 C636 C 0.82295 0.67160 -0.13805
 C637 C 0.78264 0.68177 -0.13569
 C638 C 0.76476 0.70449 -0.15968
 C639 C 0.78666 0.71637 -0.18678
 C640 C 0.82792 0.70831 -0.18734
 C641 C 0.84156 0.64469 -0.11601
 C642 C 0.86023 0.62204 -0.09958
 C643 C 0.88539 0.59642 -0.08223
 C644 C 0.90946 0.57621 -0.06850
 H645 H 0.87708 0.67896 -0.16523
 H646 H 0.76478 0.67121 -0.11590
 H647 H 0.73343 0.71124 -0.15747
 H648 H 0.84672 0.71756 -0.20693
 C649 C 0.33354 1.21283 0.35104
 C650 C 0.32563 1.17323 0.35933
 C651 C 0.29521 1.15305 0.34389
 C652 C 0.27383 1.17154 0.31967
 C653 C 0.28187 1.21109 0.31044
 C654 C 0.31186 1.23162 0.32679
 C655 C 0.35038 1.15179 0.38164
 C656 C 0.37116 1.13217 0.39912
 C657 C 0.39610 1.10811 0.41839
 C658 C 0.41842 1.08752 0.43383
 H659 H 0.35731 1.22876 0.36256
 H660 H 0.28890 1.12237 0.34977
 H661 H 0.25176 1.15408 0.30749
 H662 H 0.31979 1.26159 0.32001
 C663 C 1.14884 0.71858 0.14544
 C664 C 1.15836 0.67877 0.13919
 C665 C 1.18941 0.66074 0.15562
 C666 C 1.20989 0.68144 0.17880
 C667 C 1.20044 0.72127 0.18602
 C668 C 1.16981 0.73975 0.16868
 C669 C 1.13517 0.65470 0.11788
 C670 C 1.11638 0.63244 0.10131
 C671 C 1.09400 0.60548 0.08287
 C672 C 1.07349 0.58330 0.06758
 H673 H 1.12458 0.73289 0.13302
 H674 H 1.19700 0.62999 0.15129
 H675 H 1.23255 0.66538 0.19170
 H676 H 1.16106 0.76994 0.17385
 C677 C 0.65843 1.21651 0.64388
 C678 C 0.66603 1.17650 0.63690
 C679 C 0.69517 1.15619 0.65398
 C680 C 0.71560 1.17492 0.67836
 C681 C 0.70802 1.21495 0.68621
 C682 C 0.67926 1.23560 0.66834
 C683 C 0.64253 1.15474 0.61408
 C684 C 0.62313 1.13447 0.59624
 C685 C 0.59995 1.10941 0.57657
 C686 C 0.57911 1.08790 0.56082
 H687 H 0.63566 1.23261 0.63108
 H688 H 0.70127 1.12524 0.64916
 H689 H 0.73672 1.15731 0.69166
 H690 H 0.67173 1.26596 0.67398
 C691 C 0.79043 0.33651 0.14767
 C692 C 0.82262 0.31964 0.13172
 C693 C 0.83394 0.28049 0.13865
 C694 C 0.81410 0.25903 0.16262
 C695 C 0.78292 0.27664 0.18006
 C696 C 0.77109 0.31554 0.17170
 C697 C 0.84654 0.34475 0.11151
 C698 C 0.86674 0.36758 0.09630
 C699 C 0.89138 0.39479 0.07986
 C700 C 0.91410 0.41687 0.06633
 H701 H 0.78169 0.36689 0.14285
 H702 H 0.85924 0.26727 0.12665
 H703 H 0.82481 0.22969 0.16871
 H704 H 0.74833 0.33112 0.18492
 C705 C 0.29826 0.83635 0.64826
 C706 C 0.32779 0.81602 0.63157
 C707 C 0.33600 0.77634 0.63949
 C708 C 0.31539 0.75761 0.66462
 C709 C 0.28636 0.77839 0.68221
 C710 C 0.27814 0.81805 0.67334
 C711 C 0.35152 0.83783 0.60861
 C712 C 0.37118 0.85850 0.59094
 C713 C 0.39474 0.88430 0.57186
 C714 C 0.41612 0.90652 0.55689
 H715 H 0.29182 0.86711 0.64273
 H716 H 0.35919 0.76032 0.62700
 H717 H 0.32342 0.72756 0.67107
 H718 H 0.25696 0.83585 0.68644
 C719 C 0.29989 1.17584 -0.13866
 C720 C 0.34098 1.18141 -0.13492
 C721 C 0.36139 1.20717 -0.15516
 C722 C 0.34147 1.22636 -0.17960
 C723 C 0.30025 1.22075 -0.18425
 C724 C 0.27957 1.19549 -0.16319
 C725 C 0.36359 1.15901 -0.11213
 C726 C 0.38453 1.14025 -0.09440
 C727 C 0.40967 1.11759 -0.07463
 C728 C 0.43009 1.09687 -0.05795
 H729 H 0.28382 1.15561 -0.12319
 H730 H 0.39316 1.21160 -0.15264
 H731 H 0.35892 1.24525 -0.19516
 H732 H 0.24813 1.18991 -0.16622
 C733 C 0.85420 0.67505 0.32863
 C734 C 0.83199 0.65660 0.35242
 C735 C 0.79039 0.66059 0.35294
 C736 C 0.77124 0.68337 0.32952
 C737 C 0.79365 0.70242 0.30558
 C738 C 0.83545 0.69759 0.30553
 C739 C 0.85323 0.63447 0.37613
 C740 C 0.87384 0.61708 0.39489
 C741 C 0.89931 0.59761 0.41639
 C742 C 0.92041 0.58111 0.43531
 H743 H 0.88636 0.67233 0.32807
 H744 H 0.77289 0.64633 0.37140
 H745 H 0.73918 0.68621 0.33026
 H746 H 0.85435 0.71183 0.28803
 C747 C 0.65902 1.15927 0.16870
 C748 C 0.68239 1.14131 0.14540
 C749 C 0.72358 1.14805 0.14465
 C750 C 0.74121 1.17257 0.16742
 C751 C 0.71775 1.19068 0.19107
 C752 C 0.67635 1.18355 0.19126
 C753 C 0.66286 1.11682 0.12234
 C754 C 0.64349 1.09762 0.10398
 C755 C 0.61829 1.07698 0.08307
 C756 C 0.59548 1.06120 0.06514
 H757 H 0.62711 1.15456 0.16943
 H758 H 0.74200 1.13439 0.12658
 H759 H 0.77305 1.17716 0.16656
 H760 H 0.65687 1.19697 0.20869
 C761 C 1.15324 0.67267 0.66812
 C762 C 1.17541 0.65312 0.64500
 C763 C 1.21713 0.65556 0.64519
 C764 C 1.23644 0.67769 0.66869
 C765 C 1.21411 0.69759 0.69207
 C766 C 1.17217 0.69450 0.69134
 C767 C 1.15407 0.63112 0.62147
 C768 C 1.13341 0.61379 0.60287
 C769 C 1.10777 0.59435 0.58164
 C770 C 1.08630 0.57795 0.56309
 H771 H 1.12101 0.67116 0.66818
 H772 H 1.23463 0.64046 0.62729
 H773 H 1.26860 0.67917 0.66856
 H774 H 1.15336 0.70944 0.70842
 C775 C 0.70210 0.80839 -0.13509
 C776 C 0.66277 0.82119 -0.13955
 C777 C 0.64610 0.81968 -0.16966
 C778 C 0.66770 0.80417 -0.19494
 C779 C 0.70635 0.78857 -0.19064
 C780 C 0.72397 0.79266 -0.16063
 C781 C 0.63925 0.83782 -0.11420
 C782 C 0.61789 0.85337 -0.09479
 C783 C 0.59266 0.87414 -0.07370
 C784 C 0.57262 0.89475 -0.05661
 H785 H 0.71584 0.81066 -0.11202
 H786 H 0.61615 0.83054 -0.17368
 H787 H 0.65329 0.80383 -0.21779
 H788 H 0.75447 0.78376 -0.15680
 C789 C 1.21517 0.33278 0.35179
 C790 C 1.17353 0.33610 0.35306
 C791 C 1.15048 0.31811 0.32999
 C792 C 1.16843 0.29686 0.30578
 C793 C 1.21026 0.29277 0.30395
 C794 C 1.23352 0.31122 0.32724
 C795 C 1.15297 0.35740 0.37762
 C796 C 1.13245 0.37412 0.39688
 C797 C 1.10663 0.39282 0.41865
 C798 C 1.08489 0.40867 0.43754
 H799 H 1.23333 0.34673 0.36965
 H800 H 1.11829 0.32035 0.33077
 H801 H 1.14888 0.28310 0.28884
 H802 H 1.26562 0.30901 0.32652
 C803 C 0.25919 0.85238 0.14371
 C804 C 0.30058 0.85526 0.13959
 C805 C 0.32577 0.83320 0.15904
 C806 C 0.31020 0.80908 0.18284
 C807 C 0.26872 0.80600 0.18779
 C808 C 0.24330 0.82781 0.16774
 C809 C 0.31883 0.88055 0.11598
 C810 C 0.33840 0.89986 0.09743
 C811 C 0.36501 0.91990 0.07678
 C812 C 0.38980 0.93460 0.05955
 H813 H 0.23935 0.86932 0.12868
 H814 H 0.35779 0.83497 0.15603
 H815 H 0.33114 0.79293 0.19743
 H816 H 0.21135 0.82649 0.17095
 C817 C 0.77966 0.33573 0.64514
 C818 C 0.82138 0.33765 0.64462
 C819 C 0.84326 0.31817 0.66788
 C820 C 0.82400 0.29705 0.69172
 C821 C 0.78204 0.29461 0.69289
 C822 C 0.76001 0.31427 0.66925
 C823 C 0.84309 0.35935 0.62076
 C824 C 0.86427 0.37644 0.60205
 C825 C 0.89070 0.39555 0.58088
 C826 C 0.91298 0.41166 0.56244
 H827 H 0.76243 0.35083 0.62711
 H828 H 0.87551 0.31932 0.66765
 H829 H 0.84255 0.28228 0.70901
 H830 H 0.72783 0.31326 0.66946
 C831 C 1.20946 1.13737 0.67908
 C832 C 1.16849 1.14276 0.67612
 C833 C 1.14876 1.17154 0.69401
 C834 C 1.17048 1.19679 0.71335
 C835 C 1.21233 1.19420 0.71408
 C836 C 1.23119 1.16251 0.69840
 C837 C 1.14712 1.12050 0.65321
 C838 C 1.12907 1.10270 0.63349
 C839 C 1.10725 1.08235 0.61066
 C840 C 1.08738 1.06471 0.59201
 H841 H 1.22475 1.11446 0.66582
 H842 H 1.11684 1.17540 0.69214
 H843 H 1.15466 1.21975 0.72611
 H844 H 1.26286 1.15752 0.70030
 C845 C 0.64367 0.66401 0.19509
 C846 C 0.64496 0.67322 0.16268
 C847 C 0.66990 0.70310 0.15144
 C848 C 0.69450 0.72303 0.17222
 C849 C 0.69456 0.71370 0.20488
 C850 C 0.66826 0.68429 0.21617
 C851 C 0.62376 0.65010 0.14011
 C852 C 0.60790 0.63064 0.12013
 C853 C 0.59053 0.60708 0.09674
 C854 C 0.57550 0.58550 0.07778
 H855 H 0.62453 0.64053 0.20391
 H856 H 0.67150 0.71001 0.12632
 H857 H 0.71494 0.74422 0.16198
 H858 H 0.66746 0.67608 0.24102
 C859 C 1.17094 0.81927 0.35317
 C860 C 1.14909 0.85250 0.34432
 C861 C 1.14320 0.86103 0.31208
 C862 C 1.16047 0.83667 0.28877
 C863 C 1.18386 0.80374 0.29760
 C864 C 1.18826 0.79543 0.33027
 C865 C 1.13466 0.87778 0.36917
 C866 C 1.12387 0.89675 0.39175
 C867 C 1.11081 0.91726 0.41891
 C868 C 1.09729 0.93434 0.44153
 H869 H 1.17600 0.81254 0.37800
 H870 H 1.12623 0.88690 0.30500
 H871 H 1.15684 0.84454 0.26403
 H872 H 1.20737 0.77205 0.33878
 C873 C 0.66338 0.30765 -0.14860
 C874 C 0.63772 0.33713 -0.15924
 C875 C 0.63470 0.34511 -0.19185
 C876 C 0.65801 0.32367 -0.21366
 C877 C 0.68473 0.29434 -0.20295
 C878 C 0.68662 0.28676 -0.17002
 C879 C 0.61717 0.36018 -0.13571
 C880 C 0.60226 0.37860 -0.11432
 C881 C 0.58628 0.40046 -0.08886
 C882 C 0.57253 0.42085 -0.06816
 H883 H 0.66641 0.30154 -0.12346
 H884 H 0.61499 0.36825 -0.20032
 H885 H 0.65574 0.33064 -0.23868
 H886 H 0.70739 0.26586 -0.16007
 C887 C 0.84606 1.18623 0.34165
 C888 C 0.87100 1.15732 0.32888
 C889 C 0.87112 1.15034 0.29619
 C890 C 0.84543 1.17179 0.27643
 C891 C 0.81913 1.20015 0.28929
 C892 C 0.82033 1.20728 0.32217
 C893 C 0.89299 1.13271 0.35035
 C894 C 0.90859 1.11250 0.37029
 C895 C 0.92399 1.08914 0.39505
 C896 C 0.93545 1.06896 0.41673
 H897 H 0.84533 1.19145 0.36699
 H898 H 0.89014 1.12762 0.28615
 H899 H 0.84537 1.16522 0.25134
 H900 H 0.80010 1.22777 0.33348
 C901 C 0.36975 0.66215 -0.19384
 C902 C 0.36604 0.67029 -0.16134
 C903 C 0.33594 0.69533 -0.15074
 C904 C 0.30948 0.71203 -0.17209
 C905 C 0.31230 0.70442 -0.20492
 C906 C 0.34309 0.67930 -0.21558
 C907 C 0.39078 0.65161 -0.13787
 C908 C 0.40873 0.63611 -0.11647
 C909 C 0.42729 0.61668 -0.09079
 C910 C 0.44184 0.59746 -0.06965
 H911 H 0.39289 0.64240 -0.20230
 H912 H 0.33242 0.70154 -0.12567
 H913 H 0.28637 0.73053 -0.16230
 H914 H 0.34648 0.67274 -0.24055
 C915 C 0.82425 0.82704 0.65420
 C916 C 0.84406 0.85915 0.66726
 C917 C 0.84419 0.86449 0.70017
 C918 C 0.82365 0.83781 0.71993
 C919 C 0.80278 0.80570 0.70684
 C920 C 0.80379 0.80070 0.67367
 C921 C 0.86299 0.88662 0.64604
 C922 C 0.87791 0.90794 0.62641
 C923 C 0.89526 0.93138 0.60244
 C924 C 0.91114 0.95089 0.58211
 H925 H 0.82378 0.82281 0.62874
 H926 H 0.85955 0.88947 0.71045
 H927 H 0.82340 0.84291 0.74525
 H928 H 0.78735 0.77746 0.66218
 C929 C 0.32451 0.30211 0.14364
 C930 C 0.34951 0.33213 0.15410
 C931 C 0.35262 0.33971 0.18664
 C932 C 0.32998 0.31772 0.20858
 C933 C 0.30384 0.28797 0.19818
 C934 C 0.30192 0.28036 0.16533
 C935 C 0.37005 0.35619 0.13097
 C936 C 0.38623 0.37639 0.11107
 C937 C 0.40496 0.40081 0.08817
 C938 C 0.42175 0.42300 0.07006
 H939 H 0.32157 0.29618 0.11853
 H940 H 0.37187 0.36311 0.19499
 H941 H 0.33224 0.32476 0.23351
 H942 H 0.28164 0.25877 0.15583
   
