data_POSCAR
  _audit_creation_date              2014-09-24
  _audit_creation_method            'ToBaCCo'
  _symmetry_space_group_name_H-M    'P1'
  _symmetry_Int_Tables_number       1
  _symmetry_cell_setting            triclinic
  loop_
  _symmetry_equiv_pos_as_xyz
 x,y,z
_cell_length_a 46.8121
_cell_length_b 47.9169
_cell_length_c 49.8106
_cell_angle_alpha 89.838500
_cell_angle_beta 90.595400
_cell_angle_gamma 89.634600
loop_
  _atom_site_label
  _atom_site_type_symbol
  _atom_site_fract_x
  _atom_site_fract_y
  _atom_site_fract_z
C1 C 0.17448 0.14198 0.19264
 C2 C 0.16033 0.12748 0.21296
 C3 C 0.13397 0.13705 0.22323
 C4 C 0.12187 0.16160 0.21181
 C5 C 0.13587 0.17633 0.19138
 C6 C 0.16238 0.16655 0.18195
 C7 C 0.20083 0.13228 0.18317
 C8 C 0.21589 0.14691 0.16314
 C9 C 0.20345 0.17175 0.15285
 C10 C 0.17694 0.18147 0.16198
 C11 C 0.16503 0.20619 0.15162
 C12 C 0.13836 0.21602 0.16045
 C13 C 0.12387 0.20082 0.18034
 H14 H 0.17107 0.10953 0.22172
 H15 H 0.10118 0.16912 0.21816
 H16 H 0.20884 0.11258 0.19091
 H17 H 0.21467 0.18442 0.13842
 H18 H 0.17684 0.21800 0.13690
 H19 H 0.10320 0.20798 0.18721
 C20 C -0.17386 0.85471 0.18563
 C21 C -0.16171 0.86228 0.21036
 C22 C -0.13920 0.84653 0.22222
 C23 C -0.12891 0.82299 0.20810
 C24 C -0.14076 0.81533 0.18321
 C25 C -0.16326 0.83129 0.17194
 C26 C -0.19700 0.86993 0.17480
 C27 C -0.21016 0.86197 0.15033
 C28 C -0.19830 0.83909 0.13635
 C29 C -0.17542 0.82361 0.14712
 C30 C -0.16499 0.80012 0.13361
 C31 C -0.14311 0.78356 0.14497
 C32 C -0.13095 0.79146 0.16976
 H33 H -0.16945 0.88117 0.21975
 H34 H -0.11254 0.80963 0.21682
 H35 H -0.20569 0.88685 0.18657
 H36 H -0.20644 0.83325 0.11676
 H37 H -0.17420 0.79453 0.11433
 H38 H -0.11435 0.77866 0.17893
 C39 C -0.17864 0.14860 -0.19128
 C40 C -0.16526 0.13677 -0.21372
 C41 C -0.13997 0.14827 -0.22397
 C42 C -0.12783 0.17140 -0.21091
 C43 C -0.14134 0.18381 -0.18896
 C44 C -0.16688 0.17247 -0.17912
 C45 C -0.20376 0.13703 -0.18105
 C46 C -0.21786 0.14902 -0.15881
 C47 C -0.20601 0.17350 -0.14743
 C48 C -0.18078 0.18518 -0.15735
 C49 C -0.16953 0.20977 -0.14617
 C50 C -0.14420 0.22147 -0.15616
 C51 C -0.12995 0.20783 -0.17716
 H52 H -0.17508 0.11914 -0.22366
 H53 H -0.10799 0.18009 -0.21806
 H54 H -0.21139 0.11789 -0.18999
 H55 H -0.21680 0.18438 -0.13141
 H56 H -0.18088 0.22011 -0.13013
 H57 H -0.11006 0.21611 -0.18462
 C58 C 0.18530 0.85053 -0.19206
 C59 C 0.17186 0.85912 -0.21597
 C60 C 0.15015 0.84298 -0.22820
 C61 C 0.14185 0.81809 -0.21512
 C62 C 0.15489 0.80948 -0.19094
 C63 C 0.17679 0.82567 -0.17944
 C64 C 0.20729 0.86648 -0.18067
 C65 C 0.22148 0.85761 -0.15710
 C66 C 0.21263 0.83285 -0.14446
 C67 C 0.19030 0.81695 -0.15537
 C68 C 0.18143 0.79235 -0.14270
 C69 C 0.15946 0.77603 -0.15393
 C70 C 0.14654 0.78469 -0.17825
 H71 H 0.17798 0.87902 -0.22438
 H72 H 0.12605 0.80452 -0.22411
 H73 H 0.21347 0.88581 -0.19029
 H74 H 0.22357 0.82553 -0.12648
 H75 H 0.19139 0.78614 -0.12386
 H76 H 0.13010 0.77200 -0.18749
 C77 C 0.14155 1.18210 0.80508
 C78 C 0.12869 1.16918 0.78286
 C79 C 0.14020 1.14451 0.77163
 C80 C 0.16525 1.13314 0.78365
 C81 C 0.17851 1.14611 0.80574
 C82 C 0.16663 1.17071 0.81643
 C83 C 0.12974 1.20660 0.81576
 C84 C 0.14234 1.22012 0.83811
 C85 C 0.16776 1.20838 0.84907
 C86 C 0.17994 1.18402 0.83836
 C87 C 0.20533 1.17283 0.84927
 C88 C 0.21746 1.14820 0.83886
 C89 C 0.20356 1.13482 0.81724
 H90 H 0.11031 1.17937 0.77374
 H91 H 0.17425 1.11371 0.77654
 H92 H 0.11119 1.21551 0.80573
 H93 H 0.17775 1.21726 0.86674
 H94 H 0.21594 1.18373 0.86554
 H95 H 0.21221 1.11555 0.80931
 C96 C 0.84707 0.81317 0.81090
 C97 C 0.85924 0.82631 0.78853
 C98 C 0.84790 0.85162 0.77811
 C99 C 0.82471 0.86392 0.79181
 C100 C 0.81201 0.85065 0.81370
 C101 C 0.82308 0.82511 0.82324
 C102 C 0.85836 0.78794 0.82072
 C103 C 0.84591 0.77384 0.84266
 C104 C 0.82141 0.78604 0.85446
 C105 C 0.80998 0.81144 0.84494
 C106 C 0.78524 0.82308 0.85636
 C107 C 0.77380 0.84849 0.84662
 C108 C 0.78791 0.86241 0.82576
 H109 H 0.87651 0.81560 0.77854
 H110 H 0.81638 0.88414 0.78585
 H111 H 0.87771 0.78010 0.81165
 H112 H 0.81027 0.77545 0.87041
 H113 H 0.77454 0.81204 0.87235
 H114 H 0.77984 0.88233 0.81854
 C115 C 0.13016 0.83047 1.17557
 C116 C 0.11844 0.84380 1.19801
 C117 C 0.13160 0.86743 1.20935
 C118 C 0.15596 0.87847 1.19693
 C119 C 0.16754 0.86571 1.17414
 C120 C 0.15486 0.84137 1.16370
 C121 C 0.11777 0.80611 1.16521
 C122 C 0.13010 0.79162 1.14339
 C123 C 0.15494 0.80305 1.13181
 C124 C 0.16711 0.82772 1.14161
 C125 C 0.19186 0.83854 1.12996
 C126 C 0.20439 0.86313 1.13981
 C127 C 0.19200 0.87659 1.16196
 H128 H 0.09925 0.83547 1.20688
 H129 H 0.16656 0.89644 1.20551
 H130 H 0.09811 0.79899 1.17407
 H131 H 0.16602 0.79229 1.11592
 H132 H 0.20160 0.82752 1.11340
 H133 H 0.20122 0.89568 1.16968
 C134 C 0.86741 1.18223 1.19343
 C135 C 0.87721 1.16981 1.21724
 C136 C 0.86204 1.14795 1.22967
 C137 C 0.83774 1.13731 1.21603
 C138 C 0.82798 1.14929 1.19176
 C139 C 0.84253 1.17225 1.18079
 C140 C 0.88194 1.20497 1.18242
 C141 C 0.87124 1.21882 1.15949
 C142 C 0.84621 1.20881 1.14704
 C143 C 0.83207 1.18544 1.15732
 C144 C 0.80735 1.17539 1.14470
 C145 C 0.79304 1.15197 1.15490
 C146 C 0.80349 1.13911 1.17857
 H147 H 0.89707 1.17729 1.22579
 H148 H 0.82517 1.12083 1.22480
 H149 H 0.90146 1.21209 1.19198
 H150 H 0.83731 1.21950 1.12965
 H151 H 0.79909 1.18605 1.12702
 H152 H 0.79276 1.12101 1.18664
 N153 N 0.46699 0.96233 0.97808
 N154 N 0.44323 0.94789 0.97596
 N155 N 0.52859 0.97681 0.95997
 N156 N 0.55081 0.97195 0.94449
 N157 N 0.52700 0.95780 0.97892
 N158 N 0.54822 0.93968 0.97703
 N159 N 0.46849 0.98106 0.95887
 N160 N 0.44574 0.97966 0.94297
 C161 C 0.43024 0.95877 0.95393
 C162 C 0.56282 0.94867 0.95538
 N163 N 0.53356 1.05641 0.97809
 N164 N 0.55651 1.07194 0.97555
 N165 N 0.47268 1.04108 0.95831
 N166 N 0.45042 1.04488 0.94223
 N167 N 0.47334 1.06027 0.97708
 N168 N 0.45134 1.07751 0.97435
 N169 N 0.53271 1.03710 0.95944
 N170 N 0.55504 1.03920 0.94353
 Mn171 Mn 0.50067 1.00901 0.95875
 C172 C 0.56971 1.06108 0.95389
 C173 C 0.43735 1.06775 0.95237
 N174 N 0.52647 0.95810 1.03644
 N175 N 0.54778 0.94018 1.03888
 N176 N 0.46834 0.98178 1.05442
 N177 N 0.44664 0.97998 1.07099
 N178 N 0.46654 0.96268 1.03568
 N179 N 0.44340 0.94744 1.03887
 N180 N 0.52836 0.97763 1.05478
 N181 N 0.55119 0.97355 1.07016
 Mn182 Mn 0.49668 0.95992 1.00725
 C183 C 0.56297 0.94994 1.06005
 C184 C 0.43123 0.95849 1.06104
 N185 N 0.47322 1.06065 1.03496
 N186 N 0.45151 1.07822 1.03703
 N187 N 0.53189 1.03750 1.05461
 N188 N 0.55292 1.04002 1.07217
 N189 N 0.53350 1.05671 1.03586
 N190 N 0.55606 1.07267 1.04003
 N191 N 0.47221 1.04154 1.05386
 N192 N 0.44992 1.04565 1.06935
 Mn193 Mn 0.50341 1.05890 1.00647
 Mn194 Mn 0.50024 1.00961 1.05472
 Cl195 Cl 0.50027 1.00939 1.00678
 C196 C 0.43726 1.06868 1.05870
 C197 C 0.56792 1.06194 1.06283
 N198 N 0.04020 0.47092 0.04618
 N199 N 0.04388 0.44898 0.06185
 N200 N 0.05760 0.52975 0.02566
 N201 N 0.07274 0.55293 0.02603
 N202 N 0.03956 0.52944 0.04566
 N203 N 0.04205 0.55226 0.06021
 N204 N 0.05844 0.47057 0.02634
 N205 N 0.07489 0.44804 0.02790
 C206 C 0.06565 0.43492 0.05035
 C207 C 0.06296 0.56665 0.04788
 N208 N 0.03135 0.52868 -0.04931
 N209 N 0.03210 0.55054 -0.06542
 N210 N 0.05379 0.47052 -0.03135
 N211 N 0.07170 0.44970 -0.03554
 N212 N 0.03236 0.46978 -0.04855
 N213 N 0.03508 0.44821 -0.06485
 N214 N 0.05283 0.52912 -0.03215
 N215 N 0.06893 0.55124 -0.03632
 Mn216 Mn 0.05607 0.50001 -0.00287
 C217 C 0.05573 0.56436 -0.05722
 C218 C 0.05980 0.43591 -0.05647
 N219 N -0.02139 0.52917 0.04959
 N220 N -0.02174 0.55186 0.06444
 N221 N -0.04229 0.47043 0.03266
 N222 N -0.05753 0.44755 0.03506
 N223 N -0.02106 0.47046 0.05009
 N224 N -0.02151 0.44766 0.06504
 N225 N -0.04281 0.52931 0.03238
 N226 N -0.05844 0.55217 0.03522
 Mn227 Mn 0.00935 0.49996 0.04818
 C228 C -0.04504 0.56594 0.05545
 C229 C -0.04452 0.43368 0.05549
 N230 N -0.02917 0.46967 -0.04462
 N231 N -0.03333 0.44774 -0.06011
 N232 N -0.04786 0.52867 -0.02528
 N233 N -0.06526 0.55037 -0.02702
 N234 N -0.02994 0.52844 -0.04538
 N235 N -0.03478 0.55000 -0.06142
 N236 N -0.04732 0.46985 -0.02471
 N237 N -0.06418 0.44789 -0.02600
 Mn238 Mn 0.00113 0.49910 -0.04733
 Mn239 Mn -0.04544 0.49961 0.00381
 Cl240 Cl 0.00529 0.49966 0.00040
 C241 C -0.05529 0.43435 -0.04827
 C242 C -0.05694 0.56347 -0.04971
 N243 N 0.96057 0.03725 0.47694
 N244 N 0.95586 0.05339 0.45587
 N245 N 0.94793 0.01505 0.53396
 N246 N 0.93339 0.01599 0.55649
 N247 N 0.96663 0.03531 0.53315
 N248 N 0.96510 0.05078 0.55499
 N249 N 0.94215 0.01671 0.47747
 N250 N 0.92448 0.01832 0.45665
 C251 C 0.93315 0.04150 0.44349
 C252 C 0.94421 0.03846 0.56936
 N253 N 0.97207 -0.06279 0.53077
 N254 N 0.97275 -0.07897 0.55232
 N255 N 0.94530 -0.04334 0.47619
 N256 N 0.92694 -0.04593 0.45611
 N257 N 0.96598 -0.06183 0.47428
 N258 N 0.96235 -0.07735 0.45267
 N259 N 0.95111 -0.04457 0.53230
 N260 N 0.93696 -0.04786 0.55479
 Mn261 Mn 0.94626 -0.01404 0.50494
 C262 C 0.95055 -0.06945 0.56705
 C263 C 0.93778 -0.06732 0.44166
 N264 N 1.02786 0.03817 0.52783
 N265 N 1.03169 0.05322 0.54971
 N266 N 1.04186 0.02168 0.46868
 N267 N 1.05541 0.02572 0.44588
 N268 N 1.02146 0.04032 0.47157
 N269 N 1.02068 0.05761 0.45090
 N270 N 1.04884 0.02012 0.52501
 N271 N 1.06755 0.02251 0.54488
 Mn272 Mn 0.99412 0.03811 0.50246
 C273 C 1.05665 0.04335 0.56007
 C274 C 1.04203 0.04832 0.43506
 N275 N 1.02686 -0.05903 0.46905
 N276 N 1.02802 -0.07521 0.44772
 N277 N 1.05208 -0.03983 0.52342
 N278 N 1.07090 -0.04167 0.54328
 N279 N 1.03317 -0.05985 0.52522
 N280 N 1.03856 -0.07576 0.54635
 N281 N 1.04509 -0.03844 0.46704
 N282 N 1.05901 -0.03997 0.44413
 Mn283 Mn 0.99955 -0.06125 0.49989
 Mn284 Mn 1.04737 -0.00909 0.49592
 Cl285 Cl 0.99685 -0.01157 0.50080
 C286 C 1.04819 -0.06315 0.43236
 C287 C 1.06229 -0.06429 0.55733
 C288 C 1.11619 0.08085 0.27271
 C289 C 1.09990 0.09532 0.29195
 C290 C 1.09238 0.12339 0.28618
 C291 C 1.10281 0.13684 0.26314
 C292 C 1.12088 0.12283 0.24504
 C293 C 1.12639 0.09429 0.24990
 C294 C 1.07502 0.13822 0.30379
 C295 C 1.06518 0.12596 0.32720
 C296 C 1.07291 0.09837 0.33440
 C297 C 1.09099 0.08296 0.31669
 C298 C 1.10050 0.05616 0.32478
 C299 C 1.09274 0.04477 0.34927
 C300 C 1.07474 0.05926 0.36651
 C301 C 1.06396 0.08598 0.35912
 C302 C 1.04474 0.09915 0.37693
 C303 C 1.03753 0.08675 0.40132
 C304 C 1.04924 0.06093 0.40890
 C305 C 1.06762 0.04717 0.39127
 H306 H 1.12122 0.05895 0.27446
 H307 H 1.09806 0.15881 0.26054
 H308 H 1.13816 0.08169 0.23576
 H309 H 1.06907 0.15969 0.29949
 H310 H 1.05225 0.13912 0.33974
 H311 H 1.11487 0.04368 0.31301
 H312 H 1.10105 0.02437 0.35481
 H313 H 1.03460 0.11891 0.37255
 H314 H 1.02288 0.09760 0.41442
 H315 H 1.07635 0.02689 0.39676
 C316 C 0.91232 -0.14542 0.27987
 C317 C 0.89609 -0.13021 0.29871
 C318 C 0.86775 -0.12282 0.29132
 C319 C 0.85623 -0.13086 0.26643
 C320 C 0.87251 -0.14593 0.24767
 C321 C 0.90077 -0.15308 0.25502
 C322 C 0.85081 -0.10743 0.30880
 C323 C 0.86156 -0.09845 0.33329
 C324 C 0.88978 -0.10488 0.34156
 C325 C 0.90702 -0.12183 0.32441
 C326 C 0.93443 -0.13009 0.33366
 C327 C 0.94491 -0.12163 0.35849
 C328 C 0.92884 -0.10421 0.37493
 C329 C 0.90118 -0.09524 0.36661
 C330 C 0.88631 -0.07659 0.38359
 C331 C 0.89823 -0.06776 0.40786
 C332 C 0.92522 -0.07723 0.41616
 C333 C 0.94043 -0.09549 0.39961
 H334 H 0.93433 -0.15117 0.28336
 H335 H 0.83399 -0.12602 0.26235
 H336 H 0.91484 -0.16360 0.24118
 H337 H 0.82898 -0.10197 0.30338
 H338 H 0.84687 -0.08689 0.34555
 H339 H 0.94827 -0.14358 0.32237
 H340 H 0.96603 -0.12861 0.36478
 H341 H 0.86568 -0.06788 0.37853
 H342 H 0.88620 -0.05336 0.42017
 H343 H 0.96157 -0.10258 0.40573
 C344 C 0.89811 0.14532 0.70915
 C345 C 0.89785 0.11656 0.70290
 C346 C 0.88413 0.09830 0.72105
 C347 C 0.87252 0.10850 0.74507
 C348 C 0.87319 0.13709 0.75109
 C349 C 0.88584 0.15530 0.73266
 C350 C 0.88178 0.07000 0.71502
 C351 C 0.89181 0.05951 0.69088
 C352 C 0.90553 0.07687 0.67209
 C353 C 0.90999 0.10549 0.67891
 C354 C 0.92680 0.12201 0.66175
 C355 C 0.93767 0.11138 0.63804
 C356 C 0.93165 0.08416 0.63009
 C357 C 0.91527 0.06652 0.64683
 C358 C 0.90870 0.03951 0.63718
 C359 C 0.91816 0.03054 0.61212
 C360 C 0.93471 0.04795 0.59600
 C361 C 0.94165 0.07463 0.60524
 H362 H 0.90668 0.16083 0.69583
 H363 H 0.86292 0.09405 0.75906
 H364 H 0.88577 0.17761 0.73606
 H365 H 0.87153 0.05585 0.72889
 H366 H 0.88911 0.03744 0.68780
 H367 H 0.93258 0.14318 0.66644
 H368 H 0.95050 0.12483 0.62552
 H369 H 0.89558 0.02510 0.64810
 H370 H 0.91245 0.00982 0.60535
 H371 H 0.95425 0.08832 0.59274
 C372 C 1.09667 -0.14828 0.71565
 C373 C 1.11126 -0.13098 0.69734
 C374 C 1.13913 -0.12233 0.70463
 C375 C 1.15184 -0.13121 0.72885
 C376 C 1.13722 -0.14847 0.74705
 C377 C 1.10937 -0.15679 0.73984
 C378 C 1.15442 -0.10484 0.68768
 C379 C 1.14248 -0.09516 0.66381
 C380 C 1.11470 -0.10293 0.65561
 C381 C 1.09915 -0.12181 0.67226
 C382 C 1.07221 -0.13116 0.66309
 C383 C 1.06064 -0.12210 0.63880
 C384 C 1.07509 -0.10302 0.62283
 C385 C 1.10214 -0.09279 0.63111
 C386 C 1.11527 -0.07254 0.61459
 C387 C 1.10231 -0.06342 0.59076
 C388 C 1.07598 -0.07419 0.58245
 C389 C 1.06247 -0.09397 0.59860
 H390 H 1.07508 -0.15514 0.71226
 H391 H 1.17374 -0.12527 0.73277
 H392 H 1.09645 -0.16898 0.75333
 H393 H 1.17587 -0.09834 0.69304
 H394 H 1.15595 -0.08195 0.65194
 H395 H 1.05961 -0.14599 0.67402
 H396 H 1.03996 -0.13000 0.63255
 H397 H 1.13530 -0.06288 0.61968
 H398 H 1.11300 -0.04784 0.57876
 H399 H 1.04182 -0.10209 0.59252
 C400 C 0.28620 1.10915 1.16057
 C401 C 0.29585 1.11531 1.13445
 C402 C 0.27881 1.13344 1.11842
 C403 C 0.25259 1.14372 1.12786
 C404 C 0.24267 1.13687 1.15369
 C405 C 0.26031 1.11967 1.16989
 C406 C 0.28786 1.14116 1.09288
 C407 C 0.31372 1.13159 1.08295
 C408 C 0.33141 1.11326 1.09800
 C409 C 0.32188 1.10431 1.12384
 C410 C 0.33833 1.08417 1.13795
 C411 C 0.36350 1.07356 1.12755
 C412 C 0.37361 1.08284 1.10292
 C413 C 0.35802 1.10309 1.08787
 C414 C 0.36993 1.11238 1.06338
 C415 C 0.39574 1.10145 1.05412
 C416 C 0.41048 1.08092 1.06882
 C417 C 0.39933 1.07180 1.09324
 H418 H 0.29846 1.09680 1.17470
 H419 H 0.23955 1.15617 1.11427
 H420 H 0.25495 1.11498 1.19047
 H421 H 0.27488 1.15496 1.08044
 H422 H 0.31890 1.13849 1.06300
 H423 H 0.33198 1.07552 1.15693
 H424 H 0.37525 1.05794 1.13903
 H425 H 0.36009 1.12831 1.05103
 H426 H 0.40406 1.10895 1.03522
 H427 H 0.41077 1.05609 1.10489
 C428 C 0.28913 0.90080 0.84634
 C429 C 0.29411 0.90333 0.87429
 C430 C 0.27449 0.89034 0.89180
 C431 C 0.25055 0.87625 0.88155
 C432 C 0.24604 0.87379 0.85379
 C433 C 0.26563 0.88618 0.83638
 C434 C 0.27902 0.89113 0.91948
 C435 C 0.30334 0.90340 0.93024
 C436 C 0.32386 0.91606 0.91366
 C437 C 0.31832 0.91747 0.88540
 C438 C 0.33704 0.93309 0.86926
 C439 C 0.36123 0.94561 0.88008
 C440 C 0.36817 0.94246 0.90721
 C441 C 0.34971 0.92747 0.92439
 C442 C 0.35844 0.92364 0.95145
 C443 C 0.38437 0.93414 0.96083
 C444 C 0.40229 0.94914 0.94382
 C445 C 0.39387 0.95368 0.91713
 H446 H 0.30353 0.90899 0.83159
 H447 H 0.23548 0.86702 0.89530
 H448 H 0.26324 0.88402 0.81484
 H449 H 0.26390 0.88160 0.93300
 H450 H 0.30515 0.90310 0.95182
 H451 H 0.33329 0.93651 0.84812
 H452 H 0.37503 0.95733 0.86689
 H453 H 0.34629 0.91175 0.96567
 H454 H 0.39049 0.93032 0.98156
 H455 H 0.40785 0.96502 0.90380
 C456 C 0.73303 0.91654 1.13898
 C457 C 0.71278 0.90224 1.12296
 C458 C 0.71957 0.87459 1.11525
 C459 C 0.74491 0.86168 1.12413
 C460 C 0.76474 0.87576 1.14061
 C461 C 0.75834 0.90356 1.14760
 C462 C 0.70087 0.85959 1.09895
 C463 C 0.67560 0.87149 1.08969
 C464 C 0.66769 0.89897 1.09673
 C465 C 0.68618 0.91434 1.11427
 C466 C 0.67714 0.94099 1.12295
 C467 C 0.65119 0.95241 1.11455
 C468 C 0.63343 0.93809 1.09676
 C469 C 0.64162 0.91136 1.08721
 C470 C 0.62344 0.89827 1.06824
 C471 C 0.59805 0.91090 1.05974
 C472 C 0.58976 0.93690 1.06977
 C473 C 0.60754 0.95045 1.08829
 H474 H 0.73026 0.93799 1.14487
 H475 H 0.74816 0.83995 1.11907
 H476 H 0.77325 0.91603 1.15908
 H477 H 0.70585 0.83832 1.09315
 H478 H 0.66236 0.85818 1.07751
 H479 H 0.68940 0.95342 1.13681
 H480 H 0.64506 0.97282 1.12194
 H481 H 0.62838 0.87853 1.05908
 H482 H 0.58486 0.90016 1.04511
 H483 H 0.60145 0.97084 1.09581
 C484 C 0.71442 1.10767 0.84616
 C485 C 0.70659 1.11144 0.87324
 C486 C 0.72417 1.12877 0.88929
 C487 C 0.74893 1.14091 0.87874
 C488 C 0.75689 1.13679 0.85178
 C489 C 0.73890 1.12004 0.83576
 C490 C 0.71710 1.13392 0.91595
 C491 C 0.69253 1.12284 0.92696
 C492 C 0.67410 1.10560 0.91181
 C493 C 0.68179 1.09898 0.88481
 C494 C 0.66467 1.07983 0.87046
 C495 C 0.64042 1.06823 0.88170
 C496 C 0.63186 1.07553 0.90747
 C497 C 0.64840 1.09451 0.92287
 C498 C 0.63817 1.10197 0.94854
 C499 C 0.61284 1.09092 0.95840
 C500 C 0.59684 1.07195 0.94323
 C501 C 0.60659 1.06415 0.91784
 H502 H 0.70170 1.09584 0.83216
 H503 H 0.76247 1.15271 0.89223
 H504 H 0.74276 1.11717 0.81458
 H505 H 0.73059 1.14696 0.92844
 H506 H 0.68890 1.12781 0.94771
 H507 H 0.66972 1.07291 0.85051
 H508 H 0.62801 1.05360 0.86989
 H509 H 0.64881 1.11677 0.96135
 H510 H 0.60573 1.09737 0.97807
 H511 H 0.59419 1.04965 0.90586
 C512 C 0.10102 0.28656 0.15565
 C513 C 0.10530 0.29436 0.12853
 C514 C 0.12063 0.27556 0.11206
 C515 C 0.13034 0.24980 0.12227
 C516 C 0.12618 0.24250 0.14927
 C517 C 0.11140 0.26119 0.16575
 C518 C 0.12655 0.28265 0.08553
 C519 C 0.11835 0.30841 0.07507
 C520 C 0.10312 0.32797 0.09061
 C521 C 0.09545 0.32032 0.11741
 C522 C 0.07783 0.33868 0.13204
 C523 C 0.06869 0.36396 0.12128
 C524 C 0.07717 0.37232 0.09577
 C525 C 0.09482 0.35473 0.08012
 C526 C 0.10364 0.36492 0.05476
 C527 C 0.09461 0.39107 0.04525
 C528 C 0.07647 0.40782 0.06058
 C529 C 0.06795 0.39831 0.08585
 H530 H 0.09058 0.29995 0.16989
 H531 H 0.14137 0.23547 0.10909
 H532 H 0.10845 0.25659 0.18683
 H533 H 0.13810 0.26827 0.07277
 H534 H 0.12375 0.31214 0.05441
 H535 H 0.07006 0.33382 0.15177
 H536 H 0.05499 0.37726 0.13321
 H537 H 0.11784 0.35342 0.04193
 H538 H 0.10161 0.39806 0.02571
 H539 H 0.05413 0.41127 0.09801
 C540 C -0.10845 0.29225 -0.15323
 C541 C -0.10921 0.29894 -0.12562
 C542 C -0.12345 0.28023 -0.10826
 C543 C -0.13467 0.25502 -0.11812
 C544 C -0.13285 0.24829 -0.14546
 C545 C -0.12015 0.26751 -0.16287
 C546 C -0.12641 0.28678 -0.08116
 C547 C -0.11603 0.31176 -0.07093
 C548 C -0.10132 0.33088 -0.08731
 C549 C -0.09677 0.32374 -0.11482
 C550 C -0.07930 0.34120 -0.13045
 C551 C -0.06746 0.36532 -0.11992
 C552 C -0.07307 0.37345 -0.09366
 C553 C -0.09044 0.35665 -0.07703
 C554 C -0.09649 0.36666 -0.05094
 C555 C -0.08530 0.39193 -0.04179
 C556 C -0.06749 0.40787 -0.05811
 C557 C -0.06142 0.39846 -0.08400
 H558 H -0.09965 0.30605 -0.16808
 H559 H -0.14452 0.24051 -0.10435
 H560 H -0.11950 0.26363 -0.18426
 H561 H -0.13720 0.27257 -0.06772
 H562 H -0.11913 0.31510 -0.04978
 H563 H -0.07357 0.33633 -0.15080
 H564 H -0.05398 0.37794 -0.13264
 H565 H -0.11033 0.35582 -0.03733
 H566 H -0.09050 0.39892 -0.02176
 H567 H -0.04793 0.41087 -0.09690
 C568 C 0.16083 0.70827 -0.11401
 C569 C 0.13171 0.70047 -0.11388
 C570 C 0.11197 0.71788 -0.12790
 C571 C 0.12105 0.74250 -0.14045
 C572 C 0.14995 0.75005 -0.14024
 C573 C 0.16969 0.73253 -0.12703
 C574 C 0.08322 0.71063 -0.12943
 C575 C 0.07359 0.68602 -0.11802
 C576 C 0.09234 0.66785 -0.10394
 C577 C 0.12160 0.67583 -0.10078
 C578 C 0.13959 0.65919 -0.08427
 C579 C 0.12967 0.63512 -0.07198
 C580 C 0.10169 0.62620 -0.07616
 C581 C 0.08270 0.64218 -0.09253
 C582 C 0.05499 0.63144 -0.09722
 C583 C 0.04650 0.60626 -0.08577
 C584 C 0.06512 0.59100 -0.06910
 C585 C 0.09266 0.60116 -0.06424
 H586 H 0.17746 0.69571 -0.10486
 H587 H 0.10542 0.75592 -0.15031
 H588 H 0.19227 0.73731 -0.12711
 H589 H 0.06797 0.72399 -0.13991
 H590 H 0.05103 0.68218 -0.12003
 H591 H 0.16144 0.66460 -0.07988
 H592 H 0.14423 0.62313 -0.05934
 H593 H 0.03954 0.64157 -0.11020
 H594 H 0.02514 0.59875 -0.08997
 H595 H 0.10732 0.58926 -0.05160
 C596 C -0.14546 0.71586 0.10577
 C597 C -0.11649 0.70727 0.10568
 C598 C -0.09638 0.72428 0.11932
 C599 C -0.10500 0.74927 0.13158
 C600 C -0.13378 0.75753 0.13133
 C601 C -0.15385 0.74045 0.11845
 C602 C -0.06776 0.71619 0.12087
 C603 C -0.05872 0.69103 0.11003
 C604 C -0.07795 0.67315 0.09657
 C605 C -0.10697 0.68209 0.09316
 C606 C -0.12540 0.66573 0.07711
 C607 C -0.11622 0.64083 0.06582
 C608 C -0.08860 0.63086 0.07054
 C609 C -0.06909 0.64672 0.08618
 C610 C -0.04172 0.63505 0.09135
 C611 C -0.03417 0.60896 0.08128
 C612 C -0.05340 0.59367 0.06554
 C613 C -0.08049 0.60485 0.05998
 H614 H -0.16236 0.70365 0.09697
 H615 H -0.08920 0.76232 0.14135
 H616 H -0.17636 0.74578 0.11861
 H617 H -0.05221 0.72924 0.13100
 H618 H -0.03624 0.68647 0.11206
 H619 H -0.14704 0.67192 0.07237
 H620 H -0.13113 0.62899 0.05363
 H621 H -0.02589 0.64513 0.10375
 H622 H -0.01308 0.60071 0.08590
 H623 H -0.09556 0.59299 0.04798
 C624 C 1.08519 0.12527 0.71971
 C625 C 1.10124 0.10990 0.70090
 C626 C 1.13033 0.10454 0.70718
 C627 C 1.14297 0.11554 0.73059
 C628 C 1.12713 0.13199 0.74867
 C629 C 1.09784 0.13601 0.74292
 C630 C 1.14691 0.08852 0.68987
 C631 C 1.13530 0.07762 0.66640
 C632 C 1.10657 0.08278 0.65890
 C633 C 1.08942 0.09970 0.67618
 C634 C 1.06128 0.10649 0.66782
 C635 C 1.05015 0.09697 0.64363
 C636 C 1.06631 0.07996 0.62690
 C637 C 1.09458 0.07216 0.63441
 C638 C 1.10955 0.05395 0.61705
 C639 C 1.09717 0.04461 0.59309
 C640 C 1.06960 0.05313 0.58551
 C641 C 1.05425 0.07072 0.60259
 H642 H 1.06260 0.12904 0.71741
 H643 H 1.16565 0.11226 0.73371
 H644 H 1.08398 0.14675 0.75677
 H645 H 1.16920 0.08432 0.69452
 H646 H 1.14978 0.06576 0.65417
 H647 H 1.04738 0.11982 0.67923
 H648 H 1.02854 0.10300 0.63797
 H649 H 1.13071 0.04618 0.62148
 H650 H 1.10934 0.03073 0.58037
 H651 H 1.03269 0.07707 0.59708
 C652 C 0.85093 -0.10679 0.71438
 C653 C 0.87874 -0.11232 0.70504
 C654 C 0.89621 -0.13067 0.72040
 C655 C 0.88642 -0.14189 0.74476
 C656 C 0.85861 -0.13613 0.75411
 C657 C 0.84115 -0.11847 0.73816
 C658 C 0.92333 -0.13800 0.71126
 C659 C 0.93311 -0.12829 0.68669
 C660 C 0.91642 -0.11003 0.67059
 C661 C 0.88939 -0.10088 0.68059
 C662 C 0.87403 -0.08028 0.66605
 C663 C 0.88386 -0.07008 0.64183
 C664 C 0.90913 -0.08018 0.63091
 C665 C 0.92587 -0.10033 0.64496
 C666 C 0.95103 -0.11023 0.63241
 C667 C 0.95907 -0.10033 0.60713
 C668 C 0.94243 -0.08025 0.59367
 C669 C 0.91762 -0.07018 0.60580
 H670 H 0.83560 -0.09443 0.70319
 H671 H 0.90108 -0.15461 0.75651
 H672 H 0.81903 -0.11452 0.74298
 H673 H 0.93697 -0.15189 0.72297
 H674 H 0.95420 -0.13509 0.68109
 H675 H 0.85448 -0.07106 0.67315
 H676 H 0.87128 -0.05430 0.63136
 H677 H 0.96466 -0.12600 0.64130
 H678 H 0.97837 -0.10844 0.59812
 H679 H 0.90454 -0.05466 0.59550
 C680 C 1.11345 -0.08041 0.26422
 C681 C 1.10314 -0.09776 0.28500
 C682 C 1.10082 -0.12670 0.27959
 C683 C 1.11002 -0.13772 0.25505
 C684 C 1.12086 -0.12038 0.23489
 C685 C 1.12204 -0.09157 0.23965
 C686 C 1.08959 -0.14465 0.29876
 C687 C 1.08019 -0.13457 0.32321
 C688 C 1.08233 -0.10603 0.32983
 C689 C 1.09496 -0.08748 0.31082
 C690 C 1.09976 -0.05955 0.31857
 C691 C 1.09227 -0.04998 0.34388
 C692 C 1.07889 -0.06751 0.36220
 C693 C 1.07300 -0.09558 0.35518
 C694 C 1.05771 -0.11197 0.37377
 C695 C 1.04968 -0.10122 0.39857
 C696 C 1.05672 -0.07393 0.40586
 C697 C 1.07124 -0.05709 0.38753
 H698 H 1.11467 -0.05805 0.26610
 H699 H 1.10924 -0.16008 0.25195
 H700 H 1.12950 -0.07746 0.22426
 H701 H 1.08790 -0.16682 0.29478
 H702 H 1.07221 -0.15000 0.33694
 H703 H 1.11018 -0.04468 0.30577
 H704 H 1.09682 -0.02850 0.34908
 H705 H 1.05102 -0.13299 0.36959
 H706 H 1.03801 -0.11449 0.41221
 H707 H 1.07617 -0.03569 0.39281
 C708 C 0.89567 0.14560 0.29813
 C709 C 0.89009 0.11817 0.30687
 C710 C 0.87325 0.10106 0.28992
 C711 C 0.86405 0.11072 0.26450
 C712 C 0.87081 0.13781 0.25542
 C713 C 0.88624 0.15510 0.27315
 C714 C 0.86573 0.07434 0.29841
 C715 C 0.87424 0.06433 0.32351
 C716 C 0.89146 0.08044 0.34094
 C717 C 0.90031 0.10743 0.33202
 C718 C 0.91972 0.12254 0.34818
 C719 C 0.92944 0.11218 0.37260
 C720 C 0.92004 0.08655 0.38216
 C721 C 0.90069 0.07033 0.36673
 C722 C 0.89137 0.04476 0.37797
 C723 C 0.90150 0.03560 0.40304
 C724 C 0.92118 0.05151 0.41765
 C725 C 0.93021 0.07701 0.40711
 H726 H 0.90653 0.16071 0.31046
 H727 H 0.85252 0.09646 0.25160
 H728 H 0.89024 0.17678 0.26852
 H729 H 0.85287 0.06104 0.28559
 H730 H 0.86754 0.04349 0.32841
 H731 H 0.92858 0.14224 0.34217
 H732 H 0.94450 0.12447 0.38420
 H733 H 0.87608 0.03149 0.36807
 H734 H 0.89412 0.01582 0.41086
 H735 H 0.94531 0.08958 0.41838
 C736 C 0.08791 0.27468 -0.14381
 C737 C 0.10432 0.29446 -0.12955
 C738 C 0.13371 0.28844 -0.12550
 C739 C 0.14612 0.26421 -0.13630
 C740 C 0.12975 0.24473 -0.15092
 C741 C 0.10032 0.25047 -0.15415
 C742 C 0.15076 0.30670 -0.11076
 C743 C 0.13921 0.33056 -0.09934
 C744 C 0.11003 0.33752 -0.10269
 C745 C 0.09253 0.31974 -0.11890
 C746 C 0.06405 0.32812 -0.12433
 C747 C 0.05282 0.35262 -0.11381
 C748 C 0.06920 0.36949 -0.09698
 C749 C 0.09790 0.36198 -0.09078
 C750 C 0.11312 0.37909 -0.07254
 C751 C 0.10058 0.40287 -0.06158
 C752 C 0.07256 0.41061 -0.06842
 C753 C 0.05694 0.39382 -0.08615
 H754 H 0.06517 0.27682 -0.14672
 H755 H 0.16896 0.26139 -0.13395
 H756 H 0.08611 0.23576 -0.16373
 H757 H 0.17334 0.30238 -0.10776
 H758 H 0.15403 0.34354 -0.08850
 H759 H 0.04995 0.31648 -0.13727
 H760 H 0.03091 0.35827 -0.11873
 H761 H 0.13456 0.37442 -0.06581
 H762 H 0.11301 0.41531 -0.04766
 H763 H 0.03506 0.39944 -0.09121
 C764 C -0.08887 0.28753 0.15761
 C765 C -0.08844 0.29388 0.12988
 C766 C -0.10180 0.27492 0.11199
 C767 C -0.11388 0.25015 0.12158
 C768 C -0.11434 0.24424 0.14917
 C769 C -0.10180 0.26330 0.16700
 C770 C -0.10347 0.28099 0.08463
 C771 C -0.09348 0.30617 0.07473
 C772 C -0.08047 0.32593 0.09182
 C773 C -0.07618 0.31885 0.11945
 C774 C -0.05956 0.33679 0.13564
 C775 C -0.04883 0.36161 0.12555
 C776 C -0.05507 0.36999 0.09930
 C777 C -0.07133 0.35246 0.08214
 C778 C -0.07865 0.36268 0.05627
 C779 C -0.06993 0.38901 0.04787
 C780 C -0.05328 0.40583 0.06468
 C781 C -0.04559 0.39610 0.09026
 H782 H -0.08049 0.30145 0.17267
 H783 H -0.12320 0.23556 0.10746
 H784 H -0.10259 0.25993 0.18848
 H785 H -0.11330 0.26642 0.07077
 H786 H -0.09562 0.30928 0.05337
 H787 H -0.05382 0.33182 0.15612
 H788 H -0.03612 0.37472 0.13868
 H789 H -0.09198 0.35128 0.04241
 H790 H -0.07622 0.39622 0.02804
 H791 H -0.03300 0.40925 0.10347
 C792 C -0.11300 0.70636 -0.15464
 C793 C -0.11586 0.69799 -0.12759
 C794 C -0.13327 0.71471 -0.11092
 C795 C -0.14592 0.73948 -0.12075
 C796 C -0.14213 0.74826 -0.14754
 C797 C -0.12581 0.73081 -0.16429
 C798 C -0.13785 0.70679 -0.08436
 C799 C -0.12592 0.68238 -0.07401
 C800 C -0.10824 0.66506 -0.08972
 C801 C -0.10235 0.67350 -0.11668
 C802 C -0.08267 0.65755 -0.13162
 C803 C -0.06980 0.63375 -0.12097
 C804 C -0.07630 0.62452 -0.09521
 C805 C -0.09584 0.63981 -0.07926
 C806 C -0.10237 0.62892 -0.05359
 C807 C -0.08974 0.60424 -0.04422
 C808 C -0.07010 0.58959 -0.05991
 C809 C -0.06340 0.59991 -0.08538
 H810 H -0.10155 0.69413 -0.16916
 H811 H -0.15766 0.75237 -0.10682
 H812 H -0.12358 0.73519 -0.18547
 H813 H -0.15104 0.71953 -0.07140
 H814 H -0.13048 0.67803 -0.05328
 H815 H -0.07614 0.66327 -0.15155
 H816 H -0.05471 0.62229 -0.13317
 H817 H -0.11755 0.63861 -0.04040
 H818 H -0.09538 0.59663 -0.02448
 H819 H -0.04837 0.58857 -0.09776
 C820 C 0.09141 0.72320 0.14179
 C821 C 0.09711 0.71323 0.11570
 C822 C 0.11387 0.73020 0.09882
 C823 C 0.12376 0.75627 0.10764
 C824 C 0.11844 0.76597 0.13387
 C825 C 0.10189 0.74883 0.15062
 C826 C 0.12102 0.72099 0.07319
 C827 C 0.11289 0.69477 0.06428
 C828 C 0.09654 0.67684 0.08047
 C829 C 0.08734 0.68679 0.10607
 C830 C 0.06846 0.67012 0.12103
 C831 C 0.05983 0.64414 0.11192
 C832 C 0.07007 0.63341 0.08786
 C833 C 0.08874 0.64942 0.07182
 C834 C 0.09922 0.63703 0.04802
 C835 C 0.09104 0.61016 0.04043
 C836 C 0.07218 0.59479 0.05617
 C837 C 0.06175 0.60659 0.07984
 H838 H 0.07986 0.71120 0.15637
 H839 H 0.13514 0.76909 0.09346
 H840 H 0.09802 0.75416 0.17134
 H841 H 0.13358 0.73400 0.06001
 H842 H 0.11935 0.68935 0.04426
 H843 H 0.05940 0.67683 0.13974
 H844 H 0.04523 0.63213 0.12407
 H845 H 0.11420 0.64726 0.03508
 H846 H 0.09949 0.60144 0.02208
 H847 H 0.04723 0.59477 0.09225
 C848 C 0.29050 1.11312 0.84354
 C849 C 0.29748 1.11515 0.87118
 C850 C 0.27780 1.12916 0.88797
 C851 C 0.25165 1.13926 0.87755
 C852 C 0.24487 1.13678 0.85011
 C853 C 0.26481 1.12387 0.83329
 C854 C 0.28435 1.13316 0.91506
 C855 C 0.31031 1.12413 0.92585
 C856 C 0.33054 1.10983 0.91008
 C857 C 0.32345 1.10421 0.88259
 C858 C 0.34220 1.08729 0.86761
 C859 C 0.36734 1.07677 0.87880
 C860 C 0.37527 1.08325 0.90508
 C861 C 0.35734 1.10033 0.92101
 C862 C 0.36725 1.10742 0.94710
 C863 C 0.39337 1.09725 0.95704
 C864 C 0.41032 1.07952 0.94151
 C865 C 0.40115 1.07267 0.91552
 H866 H 0.30480 1.10411 0.82910
 H867 H 0.23653 1.14898 0.89099
 H868 H 0.26088 1.12247 0.81189
 H869 H 0.26937 1.14376 0.92805
 H870 H 0.31356 1.12797 0.94696
 H871 H 0.33762 1.08100 0.84728
 H872 H 0.38088 1.06358 0.86659
 H873 H 0.35560 1.12118 0.96015
 H874 H 0.40014 1.10300 0.97713
 H875 H 0.41437 1.05926 0.90322
 C876 C 0.25935 0.88228 1.08739
 C877 C 0.28156 0.89421 1.10297
 C878 C 0.27710 0.89698 1.13096
 C879 C 0.25215 0.88674 1.14279
 C880 C 0.23063 0.87437 1.12715
 C881 C 0.23440 0.87267 1.09930
 C882 C 0.29759 0.90987 1.14709
 C883 C 0.32232 0.92057 1.13606
 C884 C 0.32797 0.91813 1.10837
 C885 C 0.30781 0.90371 1.09176
 C886 C 0.31491 0.89863 1.06470
 C887 C 0.34058 0.90769 1.05410
 C888 C 0.35982 0.92288 1.06970
 C889 C 0.35351 0.92895 1.09688
 C890 C 0.37291 0.94596 1.11131
 C891 C 0.39786 0.95559 1.09949
 C892 C 0.40452 0.94847 1.07307
 C893 C 0.38538 0.93216 1.05822
 H894 H 0.26029 0.88062 1.06585
 H895 H 0.24974 0.88809 1.16436
 H896 H 0.21781 0.86410 1.08651
 H897 H 0.29438 0.91191 1.16852
 H898 H 0.33712 0.92990 1.15004
 H899 H 0.30142 0.88684 1.05132
 H900 H 0.34528 0.90295 1.03333
 H901 H 0.36915 0.95275 1.13157
 H902 H 0.41216 0.96853 1.11123
 H903 H 0.39014 0.92707 1.03753
 C904 C 0.74035 1.13334 1.09937
 C905 C 0.71651 1.12351 1.11374
 C906 C 0.71910 1.12169 1.14209
 C907 C 0.74390 1.13097 1.15535
 C908 C 0.76704 1.14138 1.14084
 C909 C 0.76511 1.14196 1.11272
 C910 C 0.69687 1.11073 1.15714
 C911 C 0.67229 1.10089 1.14469
 C912 C 0.66857 1.10236 1.11655
 C913 C 0.69045 1.11506 1.10096
 C914 C 0.68524 1.11953 1.07328
 C915 C 0.65987 1.11118 1.06108
 C916 C 0.63906 1.09727 1.07570
 C917 C 0.64338 1.09210 1.10354
 C918 C 0.62254 1.07630 1.11709
 C919 C 0.59826 1.06671 1.10369
 C920 C 0.59364 1.07276 1.07649
 C921 C 0.61405 1.08817 1.06257
 H922 H 0.74083 1.13401 1.07776
 H923 H 0.74493 1.13044 1.17709
 H924 H 0.78296 1.14892 1.10084
 H925 H 0.69861 1.10947 1.17884
 H926 H 0.65609 1.09304 1.15787
 H927 H 0.70009 1.13026 1.06056
 H928 H 0.65670 1.11531 1.03984
 H929 H 0.62472 1.07024 1.13785
 H930 H 0.58293 1.05452 1.11478
 H931 H 0.61085 1.09240 1.04135
 C932 C 0.70260 0.88647 0.84954
 C933 C 0.69631 0.88629 0.87723
 C934 C 0.71509 0.87132 0.89465
 C935 C 0.74020 0.85891 0.88474
 C936 C 0.74674 0.86041 0.85734
 C937 C 0.72724 0.87369 0.83988
 C938 C 0.70877 0.86896 0.92186
 C939 C 0.68402 0.88079 0.93218
 C940 C 0.66494 0.89638 0.91576
 C941 C 0.67187 0.90014 0.88809
 C942 C 0.65465 0.91828 0.87234
 C943 C 0.63096 0.93163 0.88296
 C944 C 0.62298 0.92697 0.90945
 C945 C 0.63950 0.90890 0.92617
 C946 C 0.62953 0.90384 0.95249
 C947 C 0.60462 0.91663 0.96178
 C948 C 0.58902 0.93508 0.94537
 C949 C 0.59838 0.94024 0.91926
 H950 H 0.68859 0.89575 0.83467
 H951 H 0.75489 0.84852 0.89850
 H952 H 0.73091 0.87411 0.81846
 H953 H 0.72302 0.85761 0.93533
 H954 H 0.68089 0.87811 0.95342
 H955 H 0.65946 0.92336 0.85180
 H956 H 0.61856 0.94558 0.87016
 H957 H 0.64010 0.88963 0.96620
 H958 H 0.59766 0.91217 0.98201
 H959 H 0.58616 0.95421 0.90632
   
