data_POSCAR
  _audit_creation_date              2014-09-24
  _audit_creation_method            'ToBaCCo'
  _symmetry_space_group_name_H-M    'P1'
  _symmetry_Int_Tables_number       1
  _symmetry_cell_setting            triclinic
  loop_
  _symmetry_equiv_pos_as_xyz
 x,y,z
_cell_length_a 33.5975
_cell_length_b 33.4688
_cell_length_c 45.9049
_cell_angle_alpha 90.155400
_cell_angle_beta 89.240200
_cell_angle_gamma 89.865100
loop_
  _atom_site_label
  _atom_site_type_symbol
  _atom_site_fract_x
  _atom_site_fract_y
  _atom_site_fract_z
C1 C -0.00042 0.50163 0.98614
 C2 C 0.00034 0.50168 1.01583
 C3 C -0.00163 0.53942 1.03293
 C4 C 0.00317 0.46399 1.03273
 C5 C -0.00326 0.46390 0.96916
 C6 C 0.00158 0.53929 0.96911
 C7 C 0.02757 0.54755 1.05371
 C8 C 0.02619 0.58298 1.06986
 C9 C -0.00461 0.61059 1.06558
 C10 C -0.03420 0.60238 1.04517
 C11 C -0.03282 0.56689 1.02903
 C12 C 0.03413 0.43650 1.02732
 C13 C 0.03624 0.40103 1.04326
 C14 C 0.00768 0.39287 1.06492
 C15 C -0.02283 0.42044 1.07071
 C16 C -0.02499 0.45588 1.05479
 C17 C -0.03425 0.43661 0.97447
 C18 C -0.03643 0.40115 0.95839
 C19 C -0.00791 0.39283 0.93668
 C20 C 0.02265 0.42019 0.93099
 C21 C 0.02489 0.45560 0.94706
 C22 C -0.02758 0.54745 0.94830
 C23 C -0.02608 0.58273 0.93214
 C24 C 0.00475 0.61011 0.93644
 C25 C 0.03425 0.60193 0.95687
 C26 C 0.03280 0.56660 0.97304
 H27 H 0.05169 0.52663 1.05715
 H28 H 0.04926 0.58877 1.08561
 H29 H -0.05837 0.62328 1.04168
 H30 H -0.05606 0.56080 1.01352
 H31 H 0.05660 0.44256 1.01080
 H32 H 0.06010 0.38000 1.03870
 H33 H -0.04892 0.47679 1.05940
 H34 H -0.05670 0.44281 0.99103
 H35 H -0.06033 0.38028 0.96286
 H36 H 0.04480 0.41411 0.91418
 H37 H 0.04884 0.47637 0.94252
 H38 H -0.05173 0.52666 0.94482
 H39 H -0.04898 0.58871 0.91633
 H40 H 0.05835 0.62281 0.96025
 H41 H 0.05602 0.56050 0.98856
 H42 H -0.04501 0.41448 1.08748
 C43 C 0.50034 -0.00260 0.48487
 C44 C 0.49971 -0.00258 0.51458
 C45 C 0.46179 -0.00491 0.53152
 C46 C 0.53691 -0.00005 0.53165
 C47 C 0.53827 -0.00497 0.46792
 C48 C 0.46313 -0.00011 0.46781
 C49 C 0.45314 0.02396 0.55295
 C50 C 0.41745 0.02232 0.56887
 C51 C 0.39016 -0.00835 0.56369
 C52 C 0.39886 -0.03762 0.54269
 C53 C 0.43459 -0.03605 0.52676
 C54 C 0.56414 0.03122 0.52708
 C55 C 0.59912 0.03308 0.54319
 C56 C 0.60702 0.00396 0.56420
 C57 C 0.57970 -0.02688 0.56917
 C58 C 0.54475 -0.02879 0.55306
 C59 C 0.56562 -0.03609 0.47258
 C60 C 0.60136 -0.03769 0.45665
 C61 C 0.60992 -0.00846 0.43573
 C62 C 0.58248 0.02220 0.43065
 C63 C 0.54678 0.02386 0.44657
 C64 C 0.45542 -0.02890 0.44631
 C65 C 0.42047 -0.02701 0.43021
 C66 C 0.39300 0.00383 0.43527
 C67 C 0.40076 0.03299 0.45636
 C68 C 0.43575 0.03116 0.47247
 H69 H 0.47382 0.04804 0.55707
 H70 H 0.41106 0.04506 0.58512
 H71 H 0.37804 -0.06160 0.53861
 H72 H 0.44105 -0.05904 0.51073
 H73 H 0.55826 0.05413 0.51108
 H74 H 0.61995 0.05719 0.53929
 H75 H 0.52402 -0.05297 0.55703
 H76 H 0.55927 -0.05905 0.48854
 H77 H 0.62230 -0.06167 0.46065
 H78 H 0.58876 0.04491 0.41446
 H79 H 0.52599 0.04793 0.44253
 H80 H 0.47627 -0.05308 0.44227
 H81 H 0.41481 -0.04966 0.41389
 H82 H 0.37981 0.05711 0.46034
 H83 H 0.44152 0.05410 0.48854
 H84 H 0.58546 -0.04949 0.58543
 C85 C 0.08630 0.00434 0.25992
 H86 H 0.08774 0.00548 0.23638
 C87 C 0.12127 0.00564 0.27597
 H88 H 0.14959 0.00805 0.26459
 C89 C 0.04737 0.00102 0.30326
 H90 H 0.01852 -0.00032 0.31385
 C91 C 0.08160 0.00230 0.32018
 H92 H 0.07868 0.00110 0.34367
 N93 N 0.05034 0.00153 0.27368
 C94 C -0.02801 -0.05309 0.20992
 H95 H -0.05186 -0.03132 0.20960
 C96 C -0.03044 -0.08767 0.19296
 H97 H -0.05643 -0.09243 0.17971
 C98 C 0.03415 -0.07384 0.22849
 H99 H 0.05901 -0.06867 0.24266
 C100 C 0.03291 -0.10885 0.21193
 H101 H 0.05738 -0.12986 0.21311
 Zn102 Zn 0.00453 0.00032 0.25011
 N103 N 0.00412 -0.04662 0.22700
 C104 C 0.00553 0.04381 0.19680
 N105 N 0.00602 0.04647 0.22637
 C106 C 0.00891 0.08242 0.24004
 C107 C 0.01028 0.11769 0.22391
 C108 C 0.00689 0.07835 0.17981
 C109 C -0.04904 -0.03244 0.29066
 C110 C -0.08350 -0.03477 0.30792
 C111 C -0.10409 0.02919 0.28899
 C112 C -0.06926 0.03028 0.27209
 N113 N -0.04236 -0.00007 0.27346
 H114 H 0.00412 0.01495 0.18630
 H115 H 0.01002 0.08362 0.26357
 H116 H 0.01272 0.14599 0.23521
 H117 H 0.00568 0.07567 0.15633
 H118 H -0.02743 -0.05644 0.29101
 H119 H -0.08794 -0.06048 0.32184
 H120 H -0.12532 0.05345 0.28736
 H121 H -0.06405 0.05522 0.25768
 C122 C 0.00031 -0.11613 0.19383
 C123 C 0.11921 0.00444 0.30654
 C124 C -0.11154 -0.00360 0.30728
 C125 C 0.00906 0.11596 0.19336
 C126 C -0.00919 0.08297 0.75973
 H127 H -0.01027 0.08419 0.73621
 C128 C -0.01069 0.11823 0.77602
 H129 H -0.01321 0.14655 0.76484
 C130 C -0.00574 0.04432 0.80280
 H131 H -0.00425 0.01546 0.81318
 C132 C -0.00723 0.07884 0.81994
 H133 H -0.00603 0.07614 0.84341
 N134 N -0.00620 0.04701 0.77324
 C135 C 0.04922 -0.03202 0.70869
 H136 H 0.02772 -0.05602 0.70827
 C137 C 0.08369 -0.03439 0.69142
 H138 H 0.08825 -0.06013 0.67743
 C139 C 0.06916 0.03074 0.72745
 H140 H 0.06384 0.05570 0.74194
 C141 C 0.10399 0.02961 0.71054
 H142 H 0.12512 0.05386 0.71224
 Zn143 Zn -0.00449 0.00083 0.74934
 N144 N 0.04240 0.00039 0.72599
 C145 C -0.04735 0.00142 0.69620
 N146 N -0.05031 0.00200 0.72578
 C147 C -0.08629 0.00484 0.73956
 C148 C -0.12127 0.00611 0.72352
 C149 C -0.08159 0.00267 0.67930
 C150 C 0.02834 -0.05244 0.78937
 C151 C 0.03087 -0.08687 0.80637
 C152 C -0.03247 -0.10807 0.78748
 C153 C -0.03381 -0.07322 0.77088
 N154 N -0.00385 -0.04605 0.77233
 H155 H -0.01850 0.00004 0.68561
 H156 H -0.08773 0.00604 0.76310
 H157 H -0.14959 0.00855 0.73491
 H158 H -0.07867 0.00141 0.65580
 H159 H 0.05212 -0.03072 0.78968
 H160 H 0.05688 -0.09155 0.81962
 H161 H -0.05690 -0.12902 0.78635
 H162 H -0.05872 -0.06811 0.75674
 C163 C 0.11159 -0.00322 0.69216
 C164 C -0.00950 0.11646 0.80656
 C165 C 0.00016 -0.11524 0.80558
 C166 C -0.11921 0.00484 0.69295
 C167 C 0.00924 -0.22497 0.17116
 C168 C -0.00479 -0.22373 0.14261
 C169 C -0.01744 -0.18740 0.13083
 C170 C -0.01595 -0.15240 0.14749
 C171 C -0.00561 -0.35615 0.08060
 C172 C 0.01079 -0.19003 0.18784
 C173 C -0.00576 -0.25970 0.12538
 C174 C -0.00615 -0.28998 0.11110
 C175 C -0.00611 -0.32559 0.09457
 C176 C -0.00170 -0.15331 0.17618
 H177 H 0.01902 -0.25295 0.18052
 H178 H -0.02823 -0.18608 0.10871
 H179 H -0.02532 -0.12454 0.13778
 H180 H 0.02136 -0.19183 0.20998
 C181 C 0.03265 0.19011 0.13308
 C182 C 0.01107 0.22367 0.14249
 C183 C -0.01105 0.22208 0.16849
 C184 C -0.01165 0.18710 0.18505
 C185 C 0.00950 0.35625 0.08121
 C186 C 0.03207 0.15506 0.14960
 C187 C 0.01136 0.25970 0.12544
 C188 C 0.01120 0.29002 0.11133
 C189 C 0.01053 0.32568 0.09500
 C190 C 0.00989 0.15316 0.17579
 H191 H 0.04994 0.19104 0.11300
 H192 H -0.02798 0.24784 0.17592
 H193 H -0.02945 0.18642 0.20488
 H194 H 0.04935 0.12962 0.14208
 C195 C 0.20481 -0.04259 0.65406
 C196 C 0.21920 -0.00804 0.64046
 C197 C 0.19826 0.02796 0.64351
 C198 C 0.16318 0.02949 0.66020
 C199 C 0.35322 -0.00953 0.57990
 C200 C 0.16970 -0.04113 0.67074
 C201 C 0.25568 -0.00928 0.62369
 C202 C 0.28634 -0.00986 0.60976
 C203 C 0.32236 -0.00997 0.59359
 C204 C 0.14855 -0.00502 0.67408
 H205 H 0.22087 -0.07058 0.65192
 H206 H 0.20909 0.05486 0.63304
 H207 H 0.14731 0.05760 0.66202
 H208 H 0.15949 -0.06809 0.68145
 C209 C -0.19245 0.02852 0.63303
 C210 C -0.22590 0.00687 0.64222
 C211 C -0.22455 -0.01532 0.66798
 C212 C -0.18991 -0.01592 0.68450
 C213 C -0.35687 0.00556 0.58068
 C214 C -0.15774 0.02794 0.64952
 C215 C -0.26155 0.00715 0.62518
 C216 C -0.29151 0.00703 0.61103
 C217 C -0.32671 0.00646 0.59460
 C218 C -0.15607 0.00569 0.67545
 H219 H -0.19320 0.04586 0.61315
 H220 H -0.25022 -0.03230 0.67524
 H221 H -0.18940 -0.03376 0.70413
 H222 H -0.13239 0.04528 0.64216
 C223 C -0.00872 -0.22371 0.82867
 C224 C 0.00528 -0.22209 0.85722
 C225 C 0.01791 -0.18564 0.86886
 C226 C 0.01643 -0.15090 0.85205
 C227 C 0.00598 -0.35351 0.91981
 C228 C -0.01026 -0.18902 0.81184
 C229 C 0.00622 -0.25779 0.87462
 C230 C 0.00658 -0.28784 0.88903
 C231 C 0.00651 -0.32318 0.90572
 C232 C 0.00220 -0.15217 0.82336
 H233 H -0.01849 -0.25179 0.81943
 H234 H 0.02868 -0.18403 0.89098
 H235 H 0.02578 -0.12292 0.86166
 H236 H -0.02082 -0.19110 0.78971
 C237 C -0.03321 0.19053 0.86724
 C238 C -0.01167 0.22403 0.85802
 C239 C 0.01043 0.22246 0.83199
 C240 C 0.01105 0.18754 0.81523
 C241 C -0.00984 0.35627 0.92018
 C242 C -0.03261 0.15554 0.85051
 C243 C -0.01192 0.25997 0.87531
 C244 C -0.01171 0.29021 0.88963
 C245 C -0.01096 0.32578 0.90620
 C246 C -0.01044 0.15364 0.82431
 H247 H -0.05048 0.19145 0.88733
 H248 H 0.02734 0.24818 0.82471
 H249 H 0.02884 0.18686 0.79539
 H250 H -0.04986 0.13013 0.85790
 C251 C -0.19836 0.02768 0.35601
 C252 C -0.21913 -0.00830 0.35895
 C253 C -0.20458 -0.04288 0.34526
 C254 C -0.16948 -0.04147 0.32858
 C255 C -0.35314 -0.00968 0.41952
 C256 C -0.16329 0.02918 0.33933
 C257 C -0.25560 -0.00951 0.37573
 C258 C -0.28626 -0.01006 0.38965
 C259 C -0.32228 -0.01014 0.40582
 C260 C -0.14849 -0.00536 0.32535
 H261 H -0.20931 0.05461 0.36657
 H262 H -0.22051 -0.07086 0.34731
 H263 H -0.15915 -0.06844 0.31779
 H264 H -0.14754 0.05728 0.33760
 C265 C 0.22464 -0.01568 0.33145
 C266 C 0.22589 0.00656 0.35727
 C267 C 0.19234 0.02824 0.36652
 C268 C 0.15764 0.02763 0.35003
 C269 C 0.35688 0.00539 0.41880
 C270 C 0.19000 -0.01631 0.31493
 C271 C 0.26154 0.00688 0.37432
 C272 C 0.29150 0.00680 0.38847
 C273 C 0.32671 0.00626 0.40489
 C274 C 0.15607 0.00532 0.32404
 H275 H 0.25039 -0.03269 0.32415
 H276 H 0.19301 0.04563 0.38645
 H277 H 0.13220 0.04499 0.35743
 H278 H 0.18958 -0.03421 0.29525
   
