data_POSCAR
  _audit_creation_date              2014-09-24
  _audit_creation_method            'ToBaCCo'
  _symmetry_space_group_name_H-M    'P1'
  _symmetry_Int_Tables_number       1
  _symmetry_cell_setting            triclinic
  loop_
  _symmetry_equiv_pos_as_xyz
 x,y,z
_cell_length_a 29.9708
_cell_length_b 29.5933
_cell_length_c 29.7583
_cell_angle_alpha 88.930600
_cell_angle_beta 91.262000
_cell_angle_gamma 88.711100
loop_
  _atom_site_label
  _atom_site_type_symbol
  _atom_site_fract_x
  _atom_site_fract_y
  _atom_site_fract_z
C1 C 0.16325 0.52244 1.04704
 H2 H 0.15787 0.53771 1.01401
 C3 C 0.13046 0.52681 1.07907
 H4 H 0.10050 0.54628 1.06993
 C5 C 0.20944 0.47941 1.09805
 H6 H 0.23994 0.46010 1.10487
 C7 C 0.17790 0.48419 1.13190
 H8 H 0.18478 0.46775 1.16416
 N9 N 0.20136 0.49821 1.05649
 C10 C 0.30746 0.53994 0.96904
 H11 H 0.30793 0.51193 0.94618
 C12 C 0.33859 0.57387 0.96499
 H13 H 0.36219 0.57211 0.93805
 C14 C 0.27574 0.57567 1.03177
 H15 H 0.25156 0.57562 1.05820
 C16 C 0.30681 0.61023 1.02930
 H17 H 0.30624 0.63643 1.05416
 Zn18 Zn 0.23956 0.49111 1.00704
 N19 N 0.27682 0.54142 1.00192
 C20 C 0.20492 0.51594 0.91908
 N21 N 0.20255 0.48635 0.95454
 C22 C 0.17062 0.45449 0.95572
 C23 C 0.13903 0.45190 0.92078
 C24 C 0.17423 0.51415 0.88302
 C25 C 0.31169 0.44241 1.04556
 C26 C 0.34589 0.40962 1.04790
 C27 C 0.30932 0.37037 0.98746
 C28 C 0.27592 0.40421 0.98597
 N29 N 0.27802 0.43964 1.01443
 H30 H 0.22971 0.54185 0.91916
 H31 H 0.16897 0.43186 0.98458
 H32 H 0.11347 0.42669 0.92275
 H33 H 0.17594 0.53859 0.85563
 H34 H 0.31309 0.47134 1.06719
 H35 H 0.37296 0.41298 1.07218
 H36 H 0.30816 0.34332 0.96348
 H37 H 0.24951 0.40309 0.96077
 C38 C 0.33911 0.60941 0.99572
 C39 C 0.13689 0.50714 1.12235
 C40 C 0.34550 0.37361 1.01789
 C41 C 0.14032 0.48222 0.88397
 C42 C 0.81305 0.53269 -0.07160
 H43 H 0.81403 0.56040 -0.04842
 C44 C 0.84190 0.53165 -0.10784
 H45 H 0.86519 0.55874 -0.11219
 C46 C 0.78318 0.46239 -0.09235
 H47 H 0.76083 0.43504 -0.08571
 C48 C 0.81142 0.45998 -0.12891
 H49 H 0.80991 0.43105 -0.15058
 N50 N 0.78465 0.49824 -0.06445
 C51 C 0.68124 0.54487 0.02396
 H52 H 0.68536 0.51769 0.04863
 C53 C 0.64745 0.57712 0.02852
 H54 H 0.62615 0.57478 0.05735
 C55 C 0.70468 0.58033 -0.04333
 H56 H 0.72677 0.58075 -0.07156
 C57 C 0.67088 0.61356 -0.04016
 H58 H 0.66713 0.63942 -0.06624
 Zn59 Zn 0.75023 0.49811 -0.01209
 N60 N 0.70913 0.54706 -0.01128
 C61 C 0.78618 0.53778 0.06552
 N62 N 0.78907 0.50110 0.03875
 C63 C 0.82003 0.46756 0.04728
 C64 C 0.84836 0.46927 0.08513
 C65 C 0.81389 0.54097 0.10345
 C66 C 0.67953 0.44736 -0.03953
 C67 C 0.64797 0.41362 -0.03853
 C68 C 0.69019 0.37682 0.02236
 C69 C 0.72048 0.41204 0.02091
 N70 N 0.71474 0.44623 -0.00998
 H71 H 0.76258 0.56496 0.05748
 H72 H 0.82260 0.43941 0.02473
 H73 H 0.87290 0.44236 0.09140
 H74 H 0.81060 0.57016 0.12462
 H75 H 0.67528 0.47548 -0.06311
 H76 H 0.61940 0.41679 -0.06128
 H77 H 0.69578 0.34955 0.04670
 H78 H 0.74809 0.41220 0.04481
 C79 C 0.64158 0.61195 -0.00387
 C80 C 0.84165 0.49465 -0.13678
 C81 C 0.65303 0.37742 -0.00744
 C82 C 0.84521 0.50627 0.11390
 C83 C -0.01947 0.33054 0.45073
 H84 H -0.03252 0.33565 0.48386
 C85 C -0.02022 0.36647 0.41991
 H86 H -0.03252 0.39870 0.43144
 C87 C 0.01489 0.28275 0.39837
 H88 H 0.02910 0.25028 0.39009
 C89 C 0.01395 0.31769 0.36590
 H90 H 0.02646 0.30994 0.33314
 N91 N -0.00151 0.28978 0.43999
 C92 C -0.04430 0.16875 0.50938
 H93 H -0.01267 0.15919 0.52541
 C94 C -0.08011 0.13973 0.51207
 H95 H -0.07524 0.10726 0.52886
 C96 C -0.08813 0.22193 0.46602
 H97 H -0.09090 0.25415 0.44831
 C98 C -0.12516 0.19399 0.46842
 H99 H -0.15655 0.20475 0.45247
 Zn100 Zn 0.00163 0.24594 0.48768
 N101 N -0.04889 0.20900 0.48682
 C102 C -0.03025 0.27384 0.57223
 N103 N 0.00332 0.27789 0.54247
 C104 C 0.03666 0.30765 0.54916
 C105 C 0.03699 0.33503 0.58686
 C106 C -0.03144 0.30090 0.61018
 C107 C 0.05606 0.17908 0.44868
 C108 C 0.09077 0.14689 0.44725
 C109 C 0.11698 0.17181 0.51973
 C110 C 0.08241 0.20415 0.51927
 N111 N 0.05269 0.20720 0.48412
 H112 H -0.05677 0.25047 0.56600
 H113 H 0.06246 0.31084 0.52450
 H114 H 0.06322 0.35926 0.59100
 H115 H -0.05866 0.29764 0.63327
 H116 H 0.03083 0.18042 0.42216
 H117 H 0.09277 0.12565 0.41819
 H118 H 0.13899 0.16911 0.54902
 H119 H 0.07836 0.22541 0.54802
 C120 C -0.12142 0.15272 0.49240
 C121 C -0.00354 0.36094 0.37625
 C122 C 0.12151 0.14222 0.48356
 C123 C 0.00233 0.33219 0.61770
 C124 C 0.97341 0.67749 0.55294
 H125 H 0.94842 0.68071 0.52621
 C126 C 0.97167 0.64187 0.58416
 H127 H 0.94486 0.61805 0.58156
 C128 C 1.03941 0.70389 0.58785
 H129 H 1.06662 0.72715 0.58836
 C130 C 1.03849 0.66910 0.62038
 H131 H 1.06479 0.66626 0.64588
 N132 N 1.00690 0.70764 0.55517
 C133 C 0.95890 0.82796 0.48036
 H134 H 0.98608 0.83061 0.45721
 C135 C 0.92551 0.86149 0.48039
 H136 H 0.92708 0.88982 0.45697
 C137 C 0.92430 0.78791 0.53935
 H138 H 0.92445 0.75955 0.56276
 C139 C 0.88976 0.82058 0.54014
 H140 H 0.86359 0.81726 0.56440
 Zn141 Zn 1.00743 0.75137 0.50753
 N142 N 0.95797 0.79225 0.50970
 C143 C 0.96992 0.72540 0.42366
 N144 N 1.00487 0.71915 0.45321
 C145 C 1.03758 0.68768 0.44609
 C146 C 1.03558 0.66051 0.40827
 C147 C 0.96655 0.69885 0.38548
 C148 C 1.06909 0.81032 0.54701
 C149 C 1.10463 0.84007 0.54764
 C150 C 1.11805 0.82269 0.47015
 C151 C 1.08312 0.79231 0.47141
 N152 N 1.05934 0.78677 0.50941
 H153 H 0.94403 0.75027 0.43011
 H154 H 1.06476 0.68310 0.47040
 H155 H 1.06124 0.63474 0.40378
 H156 H 0.93849 0.70451 0.36259
 H157 H 1.04880 0.80650 0.57639
 H158 H 1.11219 0.85733 0.57842
 H159 H 1.13474 0.82775 0.43868
 H160 H 1.07379 0.77471 0.44127
 C161 C 0.89054 0.85823 0.51075
 C162 C 1.00450 0.63730 0.61844
 C163 C 1.12935 0.84735 0.50860
 C164 C 0.99930 0.66539 0.37778
 C165 C 0.44335 -0.04936 0.30439
 H166 H 0.45745 -0.08071 0.29233
 C167 C 0.40893 -0.05032 0.33519
 H168 H 0.39618 -0.08259 0.34599
 C169 C 0.44378 0.03069 0.30562
 H170 H 0.45838 0.06205 0.29479
 C171 C 0.40928 0.03132 0.33634
 H172 H 0.39750 0.06344 0.34894
 N173 N 0.45987 -0.00926 0.29017
 C174 C 0.53976 -0.08754 0.20339
 H175 H 0.57259 -0.08110 0.21721
 C176 C 0.53406 -0.12315 0.17369
 H177 H 0.56329 -0.14310 0.16543
 C178 C 0.46361 -0.06594 0.19436
 H179 H 0.43624 -0.04335 0.20256
 C180 C 0.45642 -0.10082 0.16437
 H181 H 0.42293 -0.10500 0.15114
 Zn182 Zn 0.50927 -0.01013 0.25206
 N183 N 0.50456 -0.06023 0.21362
 C184 C 0.58022 -0.05071 0.30694
 N185 N 0.56081 -0.01153 0.29061
 C186 C 0.57315 0.02914 0.30674
 C187 C 0.60668 0.03176 0.33965
 C188 C 0.61401 -0.04965 0.34020
 C189 C 0.46940 0.06011 0.19810
 C190 C 0.46888 0.09707 0.16816
 C191 C 0.54942 0.09707 0.17302
 C192 C 0.54840 0.05979 0.20229
 N193 N 0.50881 0.04238 0.21462
 H194 H 0.56817 -0.08287 0.29585
 H195 H 0.55582 0.05973 0.29511
 H196 H 0.61570 0.06464 0.35181
 H197 H 0.62811 -0.08113 0.35386
 H198 H 0.43836 0.04499 0.20749
 H199 H 0.43717 0.10984 0.15452
 H200 H 0.58146 0.11056 0.16455
 H201 H 0.57940 0.04435 0.21472
 C202 C 0.49180 -0.13044 0.15331
 C203 C 0.39172 -0.00960 0.35191
 C204 C 0.50933 0.11577 0.15472
 C205 C 0.62694 -0.00799 0.35764
 C206 C 0.56987 -0.03638 0.69821
 H207 H 0.54784 -0.06482 0.69912
 C208 C 0.60633 -0.03682 0.66989
 H209 H 0.61213 -0.06575 0.64886
 C210 C 0.58729 0.03711 0.72264
 H211 H 0.57903 0.06618 0.74256
 C212 C 0.62376 0.03838 0.69423
 H213 H 0.64377 0.06836 0.69290
 N214 N 0.56081 0.00041 0.72341
 C215 C 0.46422 -0.05757 0.81289
 H216 H 0.43543 -0.03633 0.80392
 C217 C 0.46071 -0.09175 0.84534
 H218 H 0.42895 -0.09722 0.86101
 C219 C 0.54132 -0.07483 0.80507
 H220 H 0.57286 -0.06717 0.79009
 C221 C 0.53957 -0.10857 0.83843
 H222 H 0.56961 -0.12750 0.84848
 Zn223 Zn 0.50692 0.00109 0.75477
 N224 N 0.50393 -0.05010 0.79316
 C225 C 0.43594 -0.03588 0.70423
 N226 N 0.45993 0.00188 0.71129
 C227 C 0.45252 0.03992 0.68571
 C228 C 0.41764 0.04217 0.65390
 C229 C 0.40172 -0.03566 0.67167
 C230 C 0.53340 0.04898 0.82791
 C231 C 0.53281 0.08159 0.86091
 C232 C 0.47242 0.12049 0.82026
 C233 C 0.47307 0.08599 0.78876
 N234 N 0.50375 0.05146 0.79282
 H235 H 0.44392 -0.06662 0.72315
 H236 H 0.47347 0.06881 0.69038
 H237 H 0.41124 0.07365 0.63564
 H238 H 0.38419 -0.06665 0.66611
 H239 H 0.55687 0.02073 0.83087
 H240 H 0.55567 0.07710 0.88931
 H241 H 0.44842 0.14799 0.81524
 H242 H 0.44864 0.08681 0.76161
 C243 C 0.49885 -0.11711 0.85885
 C244 C 0.63301 0.00142 0.66671
 C245 C 0.50238 0.11854 0.85743
 C246 C 0.39150 0.00403 0.64635
 C247 C 0.25953 -0.00414 0.49514
 C248 C 0.75325 0.00667 0.51265
 C249 C 0.50494 0.25118 1.00542
 C250 C 0.48652 0.74614 0.00331
 C251 C 0.98891 0.51636 0.24880
 C252 C -0.00425 0.48160 0.74505
 C253 C 0.19472 0.10938 0.51310
 C254 C 0.15678 0.10572 0.48527
 C255 C 0.15324 0.06604 0.46018
 C256 C 0.18764 0.03305 0.46132
 C257 C 0.22661 0.03711 0.48889
 C258 C 0.22885 0.07629 0.51505
 C259 C 0.26302 0.11272 0.51430
 C260 C 0.22574 0.14772 0.51398
 H261 H 0.12395 0.05991 0.43957
 H262 H 0.18307 0.00327 0.44131
 H263 H 0.28180 0.11340 0.48253
 H264 H 0.28369 0.11355 0.54571
 H265 H 0.22376 0.16892 0.48271
 H266 H 0.22392 0.16668 0.54580
 C267 C 0.56610 0.63308 0.02188
 C268 C 0.60467 0.64555 0.00102
 C269 C 0.60709 0.69123 -0.01333
 C270 C 0.57107 0.72342 -0.01142
 C271 C 0.52850 0.71456 0.00698
 C272 C 0.52421 0.67235 0.02805
 C273 C 0.47205 0.62416 0.02680
 C274 C 0.53182 0.57679 0.02183
 H275 H 0.63763 0.70255 -0.02820
 H276 H 0.57749 0.75579 -0.02660
 H277 H 0.46017 0.62644 -0.06876
 H278 H 0.44992 0.62043 0.05640
 H279 H 0.53640 0.55529 -0.00837
 H280 H 0.53858 0.55481 0.05233
 C281 C 0.81122 -0.11227 0.51580
 C282 C 0.85666 -0.10472 0.51292
 C283 C 0.86889 -0.05897 0.51111
 C284 C 0.83639 -0.02353 0.51145
 C285 C 0.78963 -0.03195 0.51340
 C286 C 0.77949 -0.07832 0.51515
 C287 C 0.74237 -0.11168 0.51388
 C288 C 0.77864 -0.14922 0.51452
 H289 H 0.90375 -0.05036 0.50944
 H290 H 0.84898 0.01031 0.50969
 H291 H 0.72252 -0.11071 0.48198
 H292 H 0.72192 -0.11211 0.54449
 H293 H 0.78003 -0.16825 0.48271
 H294 H 0.77968 -0.17017 0.54592
 C295 C 0.42771 0.35765 1.01626
 C296 C 0.38440 0.34202 1.01583
 C297 C 0.38025 0.29485 1.01154
 C298 C 0.41862 0.26604 1.00826
 C299 C 0.46287 0.28319 1.00724
 C300 C 0.46461 0.33052 1.01127
 C301 C 0.49438 0.37074 1.01128
 C302 C 0.45242 0.40046 1.01678
 H303 H 0.34753 0.28006 1.01146
 H304 H 0.41359 0.22999 1.00663
 H305 H 0.51003 0.37710 0.97838
 H306 H 0.51748 0.37140 1.04087
 H307 H 0.44408 0.42247 0.98697
 H308 H 0.45120 0.41726 1.04982
 C309 C 0.82370 0.11038 0.53881
 C310 C 0.83975 0.12321 0.49685
 C311 C 0.81804 0.10546 0.45879
 C312 C 0.78686 0.07057 0.46350
 C313 C 0.77613 0.05275 0.50657
 C314 C 0.79342 0.07639 0.54342
 C315 C 0.81104 0.06295 0.58917
 C316 C 0.84440 0.10075 0.58422
 H317 H 0.82783 0.11581 0.42540
 H318 H 0.77396 0.05558 0.43322
 H319 H 0.82723 0.02884 0.59029
 H320 H 0.78634 0.06932 0.61577
 H321 H 0.87928 0.08754 0.58359
 H322 H 0.83854 0.12889 0.60775
 C323 C 0.41464 0.63400 -0.02548
 C324 C 0.37390 0.64435 -0.00734
 C325 C 0.36764 0.68950 0.00675
 C326 C 0.40187 0.72240 0.00788
 C327 C 0.44641 0.71501 -0.00664
 C328 C 0.45401 0.67453 -0.02902
 C329 C 0.50910 0.62751 -0.03077
 C330 C 0.45232 0.57862 -0.02889
 H331 H 0.33537 0.69979 0.01914
 H332 H 0.39245 0.75403 0.02230
 H333 H 0.52122 0.62021 0.06456
 H334 H 0.53127 0.62724 -0.06057
 H335 H 0.44918 0.55404 -0.00011
 H336 H 0.44693 0.55967 -0.06066
 C337 C 0.16585 -0.08136 0.53552
 C338 C 0.16528 -0.11848 0.50733
 C339 C 0.20005 -0.12002 0.47572
 C340 C 0.23097 -0.08458 0.47166
 C341 C 0.22975 -0.04638 0.50020
 C342 C 0.19552 -0.04737 0.53168
 C343 C 0.17189 -0.01828 0.56444
 C344 C 0.13828 -0.05645 0.56852
 H345 H 0.20323 -0.14806 0.45315
 H346 H 0.25428 -0.08725 0.44474
 H347 H 0.15682 0.01301 0.54887
 H348 H 0.19199 -0.01323 0.59569
 H349 H 0.10454 -0.04699 0.55466
 H350 H 0.13907 -0.07295 0.60239
 C351 C 0.61283 0.31542 1.03340
 C352 C 0.61959 0.34097 0.99413
 C353 C 0.59251 0.33106 0.95631
 C354 C 0.55622 0.30209 0.96020
 C355 C 0.54682 0.28008 1.00147
 C356 C 0.57770 0.28598 1.03700
 C357 C 0.57127 0.29664 1.08532
 C358 C 0.60953 0.32924 1.08121
 H359 H 0.59778 0.34705 0.92396
 H360 H 0.53452 0.29795 0.93106
 H361 H 0.57952 0.26719 1.10796
 H362 H 0.53872 0.31369 1.09156
 H363 H 0.63948 0.31852 1.10172
 H364 H 0.59899 0.36528 1.08442
 C365 C 0.47295 0.18171 1.11231
 C366 C 0.50955 0.15206 1.11936
 C367 C 0.54540 0.15638 1.09003
 C368 C 0.54489 0.19009 1.05635
 C369 C 0.50777 0.21991 1.04840
 C370 C 0.47206 0.21483 1.07816
 C371 C 0.45199 0.24879 1.10919
 C372 C 0.45258 0.21240 1.14557
 H373 H 0.57423 0.13379 1.09272
 H374 H 0.57440 0.19289 1.03683
 H375 H 0.41746 0.25960 1.09902
 H376 H 0.47458 0.27699 1.11681
 H377 H 0.41868 0.20170 1.15501
 H378 H 0.47557 0.21943 1.17431
 C379 C -0.00792 0.55586 0.63604
 C380 C 0.00330 0.59868 0.65090
 C381 C 0.01225 0.60348 0.69718
 C382 C 0.01130 0.56584 0.72693
 C383 C 0.00116 0.52197 0.71155
 C384 C -0.00824 0.51851 0.66515
 C385 C 0.01395 0.48953 0.63087
 C386 C 0.01295 0.53012 0.59922
 H387 H 0.01992 0.63630 0.71044
 H388 H 0.01767 0.57123 0.76235
 H389 H -0.00758 0.46212 0.61861
 H390 H 0.04840 0.47847 0.64133
 H391 H -0.01030 0.52659 0.56995
 H392 H 0.04671 0.54221 0.59092
 C393 C 0.46377 0.81587 -0.10635
 C394 C 0.49596 0.84907 -0.10453
 C395 C 0.52306 0.85108 -0.06550
 C396 C 0.51993 0.81816 -0.03103
 C397 C 0.49060 0.78136 -0.03517
 C398 C 0.46157 0.78255 -0.07310
 C399 C 0.45207 0.74724 -0.10719
 C400 C 0.45394 0.78402 -0.14320
 H401 H 0.54671 0.87796 -0.06174
 H402 H 0.54088 0.82116 -0.00117
 H403 H 0.41816 0.73325 -0.10382
 H404 H 0.47961 0.72158 -0.10928
 H405 H 0.42106 0.79169 -0.15996
 H406 H 0.48233 0.77958 -0.16629
 C407 C 0.97087 0.43754 0.35319
 C408 C 0.99605 0.39817 0.34504
 C409 C 1.02043 0.39840 0.30484
 C410 C 1.01776 0.43541 0.27428
 C411 C 0.99217 0.47531 0.28286
 C412 C 0.96885 0.47468 0.32360
 C413 C 0.91991 0.48145 0.33203
 C414 C 0.92246 0.44096 0.36335
 H415 H 1.04163 0.37015 0.29593
 H416 H 1.03505 0.43152 0.24307
 H417 H 0.89811 0.47643 0.30199
 H418 H 0.91250 0.51236 0.35129
 H419 H 0.90340 0.41177 0.35078
 H420 H 0.91627 0.44990 0.39882
 C421 C 0.44988 0.83528 0.09042
 C422 C 0.48524 0.83431 0.12223
 C423 C 0.51431 0.79608 0.12084
 C424 C 0.51209 0.76538 0.08526
 C425 C 0.48134 0.77180 0.04833
 C426 C 0.44890 0.80641 0.05428
 C427 C 0.42541 0.84115 0.02438
 C428 C 0.42709 0.87285 0.06395
 H429 H 0.53981 0.78985 0.14663
 H430 H 0.53710 0.73856 0.08615
 H431 H 0.39077 0.83191 0.01502
 H432 H 0.44512 0.85397 -0.00394
 H433 H 0.39342 0.88138 0.07669
 H434 H 0.44908 0.90215 0.05855
 C435 C -0.03975 0.38221 0.67006
 C436 C 0.00046 0.36297 0.65640
 C437 C 0.03926 0.37582 0.68012
 C438 C 0.03779 0.41124 0.71136
 C439 C -0.00241 0.43629 0.71900
 C440 C -0.04099 0.41805 0.69885
 C441 C -0.08374 0.43662 0.67826
 C442 C -0.08161 0.39738 0.64573
 H443 H 0.07119 0.35994 0.67312
 H444 H 0.06912 0.41981 0.72678
 H445 H -0.08076 0.47004 0.66131
 H446 H -0.11208 0.43419 0.70158
 H447 H -0.07568 0.40817 0.61041
 H448 H -0.10901 0.37312 0.65018
 C449 C 0.53834 0.15654 0.92304
 C450 C 0.50193 0.15338 0.89325
 C451 C 0.46588 0.18402 0.89924
 C452 C 0.46746 0.21707 0.93275
 C453 C 0.50401 0.21946 0.96380
 C454 C 0.53990 0.18880 0.95636
 C455 C 0.58831 0.19713 0.94670
 C456 C 0.58617 0.16099 0.91175
 H457 H 0.43633 0.18341 0.87785
 H458 H 0.43992 0.24102 0.93272
 H459 H 0.61186 0.18747 0.97471
 H460 H 0.59452 0.23057 0.93103
 H461 H 0.60646 0.13027 0.92133
 H462 H 0.59086 0.17398 0.87689
 C463 C 0.95648 0.60732 0.33575
 C464 C 0.99462 0.63314 0.34052
 C465 C 1.03067 0.62280 0.31283
 C466 C 1.02787 0.58856 0.28066
 C467 C 0.98946 0.56143 0.27597
 C468 C 0.95347 0.57380 0.30362
 C469 C 0.90570 0.58781 0.29274
 C470 C 0.90909 0.62254 0.32907
 H471 H 1.06115 0.64161 0.31578
 H472 H 1.05645 0.58446 0.25986
 H473 H 0.88094 0.56155 0.30007
 H474 H 0.90035 0.60483 0.25962
 H475 H 0.88867 0.61460 0.35880
 H476 H 0.90502 0.65758 0.31532
 C477 C 1.05790 0.51584 0.13912
 C478 C 1.10231 0.51010 0.15405
 C479 C 1.10978 0.50714 0.20114
 C480 C 1.07382 0.50919 0.23107
 C481 C 1.02868 0.51379 0.21552
 C482 C 1.02252 0.51612 0.16847
 C483 C 0.99539 0.48745 0.13763
 C484 C 1.03363 0.48820 0.10550
 H485 H 1.14327 0.50398 0.21531
 H486 H 1.08127 0.50682 0.26683
 H487 H 0.96526 0.50544 0.12344
 H488 H 0.98964 0.45316 0.15196
 H489 H 1.02555 0.50758 0.07389
 H490 H 1.04963 0.45439 0.10084
 C491 C 0.69369 -0.03339 0.62114
 C492 C 0.66697 0.00416 0.63142
 C493 C 0.67113 0.04361 0.60521
 C494 C 0.70096 0.04505 0.56970
 C495 C 0.72698 0.00664 0.55747
 C496 C 0.72365 -0.03204 0.58561
 C497 C 0.75950 -0.05408 0.61539
 C498 C 0.72625 -0.05666 0.65257
 H499 H 0.65094 0.07346 0.61177
 H500 H 0.70345 0.07698 0.55184
 H501 H 0.78744 -0.03124 0.62305
 H502 H 0.77031 -0.08818 0.60451
 H503 H 0.73527 -0.03592 0.68207
 H504 H 0.71627 -0.09175 0.66084
 C505 C -0.10703 0.44978 0.81447
 C506 C -0.12602 0.49118 0.82632
 C507 C -0.11149 0.52955 0.80236
 C508 C -0.07491 0.52651 0.77320
 C509 C -0.05035 0.48515 0.76819
 C510 C -0.07017 0.44705 0.78799
 C511 C -0.05497 0.40269 0.80860
 C512 C -0.09536 0.40651 0.83891
 H513 H -0.12707 0.56235 0.80752
 H514 H -0.06513 0.55755 0.75728
 H515 H -0.02281 0.40366 0.82757
 H516 H -0.05755 0.37455 0.78454
 H517 H -0.08625 0.41170 0.87484
 H518 H -0.12034 0.38003 0.83263
 C519 C 0.32614 0.02604 0.38950
 C520 C 0.35743 -0.00951 0.38711
 C521 C 0.35701 -0.04320 0.42119
 C522 C 0.32441 -0.04223 0.45449
 C523 C 0.29032 -0.00813 0.45446
 C524 C 0.29328 0.02659 0.42170
 C525 C 0.25942 0.04521 0.38806
 C526 C 0.29582 0.04534 0.35350
 H527 H 0.38226 -0.06994 0.42273
 H528 H 0.32616 -0.06788 0.48096
 H529 H 0.24740 0.07976 0.39654
 H530 H 0.23280 0.02088 0.38004
 H531 H 0.30545 0.07991 0.34288
 H532 H 0.29002 0.02148 0.32565
 C533 C 0.06090 0.47357 0.85963
 C534 C 0.10500 0.48137 0.84821
 C535 C 0.11381 0.48885 0.80241
 C536 C 0.07887 0.48986 0.76979
 C537 C 0.03383 0.48262 0.78150
 C538 C 0.02632 0.47506 0.82762
 C539 C -0.00326 0.50052 0.85899
 C540 C 0.03426 0.49759 0.89377
 H541 H 0.14760 0.49442 0.79179
 H542 H 0.08715 0.49628 0.73505
 H543 H -0.03264 0.48108 0.86945
 H544 H -0.01098 0.53573 0.84708
 H545 H 0.02692 0.47528 0.92303
 H546 H 0.04793 0.53104 0.90240
 C547 C 0.69386 -0.03633 0.40384
 C548 C 0.65776 -0.00604 0.39734
 C549 C 0.65074 0.02595 0.43094
 C550 C 0.68106 0.02986 0.46718
 C551 C 0.71917 0.00077 0.47294
 C552 C 0.72397 -0.03247 0.43981
 C553 C 0.76263 -0.04512 0.41113
 C554 C 0.72951 -0.04923 0.37213
 H555 H 0.62231 0.04918 0.42875
 H556 H 0.67481 0.05753 0.48904
 H557 H 0.77844 -0.07818 0.42124
 H558 H 0.78643 -0.01731 0.40640
 H559 H 0.72616 -0.08450 0.36051
 H560 H 0.73377 -0.02344 0.34499
 C561 C 0.89210 0.55071 0.16716
 C562 C 0.87492 0.50943 0.15406
 C563 C 0.88827 0.47098 0.18014
 C564 C 0.92235 0.47356 0.21347
 C565 C 0.94463 0.51471 0.22149
 C566 C 0.92663 0.55298 0.19817
 C567 C 0.94463 0.59471 0.17657
 C568 C 0.90674 0.59151 0.14174
 H569 H 0.87422 0.43839 0.17319
 H570 H 0.93332 0.44231 0.22999
 H571 H 0.97792 0.59036 0.16168
 H572 H 0.94133 0.62496 0.19787
 H573 H 0.91839 0.58335 0.10755
 H574 H 0.88205 0.62001 0.14317
 C575 C 0.35424 0.03637 0.57568
 C576 C 0.35462 0.00553 0.61179
 C577 C 0.31907 -0.02482 0.61294
 C578 C 0.28851 -0.02774 0.57653
 C579 C 0.29084 0.00067 0.53750
 C580 C 0.32464 0.03327 0.53948
 C581 C 0.35949 0.04934 0.50757
 C582 C 0.39111 0.05319 0.54768
 H583 H 0.31553 -0.04793 0.64114
 H584 H 0.26489 -0.05443 0.57919
 H585 H 0.35135 0.08263 0.49140
 H586 H 0.37195 0.02347 0.48435
 H587 H 0.39937 0.08876 0.55507
 H588 H 0.42012 0.02912 0.54720
   
