data_POSCAR
  _audit_creation_date              2014-09-24
  _audit_creation_method            'ToBaCCo'
  _symmetry_space_group_name_H-M    'P1'
  _symmetry_Int_Tables_number       1
  _symmetry_cell_setting            triclinic
  loop_
  _symmetry_equiv_pos_as_xyz
 x,y,z
_cell_length_a 42.8189
_cell_length_b 43.9889
_cell_length_c 15.7685
_cell_angle_alpha 89.949800
_cell_angle_beta 90.427700
_cell_angle_gamma 121.635100
loop_
  _atom_site_label
  _atom_site_type_symbol
  _atom_site_fract_x
  _atom_site_fract_y
  _atom_site_fract_z
C1 C 0.17767 0.48055 0.41668
 C2 C 0.16549 0.48544 0.49492
 C3 C 0.17434 0.47602 0.57221
 C4 C 0.19710 0.46150 0.57216
 C5 C 0.21088 0.45724 0.49427
 C6 C 0.20094 0.46646 0.41623
 C7 C 0.21660 0.46358 0.34087
 C8 C 0.23987 0.45049 0.34120
 C9 C 0.25011 0.44136 0.41734
 C10 C 0.23576 0.44492 0.49470
 C11 C 0.20811 0.45293 0.64819
 C12 C 0.23155 0.44005 0.64812
 C13 C 0.24713 0.43726 0.57260
 C14 C 0.27283 0.42593 0.57266
 C15 C 0.28459 0.42033 0.49438
 C16 C 0.27485 0.42928 0.41774
 H17 H 0.21190 0.47214 0.28051
 H18 H 0.25011 0.44801 0.28070
 H19 H 0.19924 0.45656 0.70928
 H20 H 0.23721 0.43227 0.70857
 H21 H 0.14532 0.49316 0.49488
 H22 H 0.30517 0.41304 0.49293
 C23 C 0.51027 -0.18821 0.57278
 C24 C 0.50952 -0.17136 0.49844
 C25 C 0.50572 -0.18698 0.41885
 C26 C 0.50302 -0.22040 0.41304
 C27 C 0.50550 -0.23705 0.48775
 C28 C 0.50973 -0.22053 0.56776
 C29 C 0.51392 -0.23637 0.64052
 C30 C 0.51354 -0.26808 0.63529
 C31 C 0.50658 -0.28664 0.55781
 C32 C 0.50343 -0.27039 0.48257
 C33 C 0.49738 -0.23778 0.33474
 C34 C 0.49464 -0.27067 0.32953
 C35 C 0.49829 -0.28722 0.40218
 C36 C 0.49474 -0.32110 0.39779
 C37 C 0.49825 -0.33636 0.47246
 C38 C 0.50480 -0.31982 0.55203
 H39 H 0.51846 -0.22387 0.70220
 H40 H 0.51924 -0.27733 0.69325
 H41 H 0.49439 -0.22636 0.27669
 H42 H 0.48918 -0.28309 0.26771
 H43 H 0.51210 -0.14556 0.50293
 H44 H 0.49576 -0.36217 0.46830
 C45 C 1.28211 0.85290 0.59904
 C46 C 1.30070 0.87559 0.53139
 C47 C 1.29485 0.86358 0.44683
 C48 C 1.26551 0.82788 0.42913
 C49 C 1.24353 0.80568 0.49726
 C50 C 1.25292 0.81778 0.58225
 C51 C 1.23266 0.79464 0.64869
 C52 C 1.20331 0.76042 0.63262
 C53 C 1.19158 0.74819 0.54930
 C54 C 1.21338 0.77044 0.48098
 C55 C 1.25917 0.81239 0.34775
 C56 C 1.22988 0.77794 0.33175
 C57 C 1.20637 0.75687 0.39693
 C58 C 1.17719 0.72177 0.38113
 C59 C 1.15458 0.70133 0.44733
 C60 C 1.16084 0.71334 0.53186
 H61 H 1.23925 0.80280 0.71437
 H62 H 1.19095 0.74352 0.68702
 H63 H 1.27724 0.82586 0.29541
 H64 H 1.22619 0.76767 0.26771
 H65 H 1.32257 0.90274 0.54579
 H66 H 1.13112 0.67522 0.43139
 C67 C 0.70502 0.55319 0.55765
 C68 C 0.69309 0.55734 0.47773
 C69 C 0.71065 0.55798 0.40337
 C70 C 0.74247 0.55623 0.40737
 C71 C 0.75589 0.55275 0.48709
 C72 C 0.73732 0.55145 0.56293
 C73 C 0.74949 0.54491 0.63995
 C74 C 0.77893 0.53973 0.64282
 C75 C 0.79770 0.54080 0.56879
 C76 C 0.78591 0.54731 0.48989
 C77 C 0.75998 0.55605 0.33278
 C78 C 0.78911 0.55074 0.33542
 C79 C 0.80222 0.54580 0.41289
 C80 C 0.82974 0.53727 0.41486
 C81 C 0.84049 0.53031 0.49250
 C82 C 0.82534 0.53199 0.56979
 H83 H 0.73552 0.54221 0.69878
 H84 H 0.78549 0.53315 0.70372
 H85 H 0.75065 0.55913 0.27116
 H86 H 0.80028 0.54934 0.27538
 H87 H 0.66846 0.55850 0.47259
 H88 H 0.86205 0.52429 0.49255
 C89 C 0.48893 0.30402 0.43081
 C90 C 0.48793 0.31747 0.51019
 C91 C 0.49153 0.30254 0.58514
 C92 C 0.49450 0.27205 0.58144
 C93 C 0.49414 0.25715 0.50149
 C94 C 0.49162 0.27338 0.42581
 C95 C 0.49301 0.25925 0.34713
 C96 C 0.49672 0.22979 0.34256
 C97 C 0.49936 0.21338 0.41648
 C98 C 0.49795 0.22695 0.49697
 C99 C 0.49949 0.25711 0.65511
 C100 C 0.50357 0.22776 0.65073
 C101 C 0.50184 0.21137 0.57261
 C102 C 0.50673 0.18172 0.56673
 C103 C 0.50765 0.16889 0.48574
 C104 C 0.50442 0.18432 0.41165
 H105 H 0.49168 0.27108 0.28809
 H106 H 0.49805 0.22030 0.28018
 H107 H 0.50109 0.26847 0.71701
 H108 H 0.50925 0.21900 0.70959
 H109 H 0.48507 0.34049 0.51393
 H110 H 0.50950 0.14533 0.47961
 C111 C 0.71902 0.15406 0.55638
 C112 C 0.70991 0.13771 0.47649
 C113 C 0.72843 0.15637 0.40348
 C114 C 0.75758 0.19241 0.41071
 C115 C 0.76771 0.20915 0.49167
 C116 C 0.74858 0.18978 0.56487
 C117 C 0.75824 0.20716 0.64400
 C118 C 0.78589 0.24295 0.65124
 C119 C 0.80507 0.26299 0.57959
 C120 C 0.79561 0.24590 0.49876
 C121 C 0.77631 0.21233 0.33879
 C122 C 0.80281 0.24845 0.34529
 C123 C 0.81266 0.26586 0.42440
 C124 C 0.83836 0.30291 0.43080
 C125 C 0.84734 0.31927 0.51031
 C126 C 0.83132 0.30023 0.58511
 H127 H 0.74408 0.19341 0.70121
 H128 H 0.79102 0.25494 0.71352
 H129 H 0.77024 0.20034 0.27629
 H130 H 0.81514 0.26264 0.28715
 H131 H 0.68633 0.11075 0.47038
 H132 H 0.86854 0.34731 0.51436
 N133 N 0.96152 0.51751 -0.15910
 N134 N 0.93394 0.50617 -0.21300
 N135 N 1.03834 0.58120 -0.11215
 N136 N 1.05855 0.61414 -0.14193
 N137 N 1.03844 0.55828 -0.16536
 N138 N 1.05870 0.57490 -0.23170
 N139 N 0.96147 0.53991 -0.10420
 N140 N 0.93395 0.54470 -0.12001
 C141 C 0.91686 0.52315 -0.18786
 C142 C 1.07163 0.60970 -0.21604
 N143 N 1.04420 0.56569 0.13115
 N144 N 1.07343 0.58513 0.17933
 N145 N 0.96527 0.54477 0.07946
 N146 N 0.93863 0.55072 0.09548
 N147 N 0.96692 0.52466 0.13874
 N148 N 0.94120 0.51583 0.19564
 N149 N 1.04213 0.58540 0.07135
 N150 N 1.06962 0.61888 0.07797
 Mn151 Mn 1.00176 0.56319 -0.01624
 C152 C 1.08899 0.61820 0.14545
 C153 C 0.92374 0.53217 0.16791
 N154 N 1.04078 0.49412 -0.15643
 N155 N 1.06654 0.50219 -0.21291
 N156 N 0.96459 0.43328 -0.09181
 N157 N 0.93728 0.39976 -0.10228
 N158 N 0.96356 0.45364 -0.15121
 N159 N 0.93556 0.43495 -0.20276
 N160 N 1.04155 0.47353 -0.09719
 N161 N 1.06743 0.46652 -0.11244
 Mn162 Mn 1.00117 0.50588 -0.15857
 C163 C 1.08303 0.48495 -0.18434
 C164 C 0.91931 0.40146 -0.17180
 N165 N 0.96842 0.46022 0.14650
 N166 N 0.94368 0.44275 0.20574
 N167 N 1.04506 0.47820 0.08557
 N168 N 1.07158 0.47210 0.10301
 N169 N 1.04569 0.50111 0.13992
 N170 N 1.07269 0.51145 0.19511
 N171 N 0.96832 0.43780 0.09141
 N172 N 0.94412 0.40452 0.11246
 Mn173 Mn 1.00634 0.51300 0.13997
 Mn174 Mn 1.00485 0.45532 -0.00298
 Cl175 Cl 1.00356 0.50939 -0.00945
 C176 C 0.92863 0.40807 0.18321
 C177 C 1.08878 0.49339 0.17118
 N178 N 0.46453 0.41778 0.08872
 N179 N 0.46099 0.38695 0.10897
 N180 N 0.43743 0.46760 0.14500
 N181 N 0.41746 0.47188 0.20145
 N182 N 0.41628 0.44258 0.09013
 N183 N 0.38135 0.42865 0.10867
 N184 N 0.48613 0.44267 0.14335
 N185 N 0.49843 0.42971 0.20102
 C186 C 0.48277 0.39503 0.17863
 C187 C 0.38260 0.44750 0.17776
 N188 N 0.51826 0.56314 0.07924
 N189 N 0.51896 0.59329 0.09125
 N190 N 0.54729 0.51471 0.13620
 N191 N 0.56901 0.51110 0.18932
 N192 N 0.56648 0.53799 0.07693
 N193 N 0.60195 0.55147 0.08917
 N194 N 0.49888 0.53989 0.13836
 N195 N 0.48568 0.55332 0.19160
 Mn196 Mn 0.49246 0.49127 0.14153
 C197 C 0.49834 0.58659 0.16171
 C198 C 0.60292 0.53410 0.15913
 N199 N 0.41274 0.44015 -0.09327
 N200 N 0.37720 0.42498 -0.10837
 N201 N 0.48029 0.43850 -0.15456
 N202 N 0.49406 0.42527 -0.20690
 N203 N 0.46125 0.41538 -0.09491
 N204 N 0.46101 0.38547 -0.10593
 N205 N 0.43179 0.46363 -0.15236
 N206 N 0.40985 0.46534 -0.20867
 Mn207 Mn 0.43837 0.42856 -0.00238
 C208 C 0.37598 0.44147 -0.17980
 C209 C 0.48178 0.39223 -0.17596
 N210 N 0.56306 0.53509 -0.10714
 N211 N 0.59782 0.54811 -0.12784
 N212 N 0.49354 0.53615 -0.15969
 N213 N 0.48507 0.55080 -0.22169
 N214 N 0.51462 0.56041 -0.10319
 N215 N 0.52052 0.59199 -0.12472
 N216 N 0.54112 0.51044 -0.16182
 N217 N 0.55997 0.50583 -0.22025
 Mn218 Mn 0.54102 0.54958 -0.01356
 Mn219 Mn 0.48657 0.48716 -0.15774
 Cl220 Cl 0.48959 0.48916 -0.00800
 C221 C 0.59525 0.52919 -0.19854
 C222 C 0.50114 0.58536 -0.19757
 N223 N 0.43843 -0.02367 0.10011
 N224 N 0.40443 -0.04129 0.12861
 N225 N 0.51024 0.04964 0.13217
 N226 N 0.52275 0.07713 0.18435
 N227 N 0.48719 0.04975 0.07691
 N228 N 0.48290 0.07690 0.09110
 N229 N 0.46106 -0.02395 0.15628
 N230 N 0.44309 -0.04146 0.22472
 C231 C 0.40771 -0.05265 0.20610
 C232 C 0.50585 0.09416 0.15713
 N233 N 0.58764 0.03167 0.06769
 N234 N 0.62358 0.05176 0.07915
 N235 N 0.52146 -0.03575 0.14856
 N236 N 0.50861 -0.06115 0.20629
 N237 N 0.53923 -0.04173 0.08980
 N238 N 0.53944 -0.07102 0.10669
 N239 N 0.57048 0.03829 0.12669
 N240 N 0.59419 0.06346 0.17864
 Mn241 Mn 0.51588 0.00704 0.14173
 C242 C 0.62711 0.07196 0.14755
 C243 C 0.52018 -0.08285 0.17947
 N244 N 0.47812 0.03972 -0.10466
 N245 N 0.47855 0.06929 -0.12289
 N246 N 0.44552 -0.04150 -0.13861
 N247 N 0.42098 -0.06757 -0.18764
 N248 N 0.42923 -0.03361 -0.08008
 N249 N 0.39327 -0.05373 -0.08822
 N250 N 0.49440 0.03232 -0.16422
 N251 N 0.50675 0.05681 -0.22400
 Mn252 Mn 0.45804 0.00815 -0.00204
 C253 C 0.49658 0.07962 -0.19767
 C254 C 0.38857 -0.07532 -0.15424
 N255 N 0.53036 -0.05163 -0.09170
 N256 N 0.53556 -0.07815 -0.10743
 N257 N 0.55471 0.02144 -0.17045
 N258 N 0.57222 0.04493 -0.23089
 N259 N 0.57802 0.02201 -0.11486
 N260 N 0.61213 0.04575 -0.13663
 N261 N 0.50636 -0.05234 -0.14530
 N262 N 0.49420 -0.07966 -0.19788
 Mn263 Mn 0.55919 -0.00988 -0.01231
 Mn264 Mn 0.50011 -0.01020 -0.15545
 Cl265 Cl 0.50832 -0.00123 -0.00693
 C266 C 0.51224 -0.09582 -0.17270
 C267 C 0.60796 0.05979 -0.20936
 C268 C 1.14986 0.46535 0.27299
 C269 C 1.16476 0.48891 0.34242
 C270 C 1.16123 0.51916 0.34043
 C271 C 1.13902 0.52227 0.27928
 C272 C 1.11950 0.49514 0.21860
 C273 C 1.12784 0.46842 0.21246
 C274 C 1.10293 0.42889 0.20505
 C275 C 1.12698 0.42552 0.27111
 H276 H 1.17362 0.53931 0.38978
 H277 H 1.13480 0.54442 0.28412
 H278 H 1.10439 0.41885 0.14146
 H279 H 1.07473 0.41934 0.22773
 H280 H 1.14224 0.41351 0.24546
 H281 H 1.11275 0.41403 0.33211
 C282 C 0.51111 0.67210 0.25218
 C283 C 0.48750 0.65894 0.32222
 C284 C 0.46075 0.62204 0.32208
 C285 C 0.46231 0.59890 0.26365
 C286 C 0.49049 0.61187 0.20345
 C287 C 0.51258 0.64899 0.19394
 C288 C 0.55322 0.67225 0.18594
 C289 C 0.55167 0.69744 0.24935
 H290 H 0.44086 0.61054 0.37266
 H291 H 0.44381 0.57052 0.27161
 H292 H 0.56146 0.68388 0.12145
 H293 H 0.56790 0.65938 0.21062
 H294 H 0.55901 0.72355 0.22132
 H295 H 0.56546 0.69918 0.31078
 C296 C 0.35799 -0.09124 0.41079
 C297 C 0.32093 -0.11277 0.38664
 C298 C 0.31215 -0.10768 0.30302
 C299 C 0.34024 -0.08710 0.24379
 C300 C 0.37755 -0.07079 0.26749
 C301 C 0.38531 -0.07110 0.35337
 C302 C 0.41204 -0.07778 0.39761
 C303 C 0.38199 -0.09997 0.46105
 H304 H 0.28383 -0.12000 0.28269
 H305 H 0.33275 -0.08538 0.17902
 H306 H 0.43549 -0.05302 0.42553
 H307 H 0.41951 -0.09386 0.35844
 H308 H 0.38807 -0.08793 0.52558
 H309 H 0.37232 -0.12888 0.45894
 C310 C 0.86647 0.56126 0.28039
 C311 C 0.84658 0.53308 0.33713
 C312 C 0.84635 0.50133 0.32312
 C313 C 0.86961 0.50014 0.26251
 C314 C 0.89310 0.53045 0.21377
 C315 C 0.88891 0.55986 0.21922
 C316 C 0.91719 0.59859 0.23029
 C317 C 0.89250 0.60001 0.29706
 H318 H 0.83053 0.47845 0.36380
 H319 H 0.87122 0.47647 0.25825
 H320 H 0.91986 0.61429 0.17259
 H321 H 0.94350 0.60318 0.25661
 H322 H 0.88088 0.61640 0.27765
 H323 H 0.90444 0.60534 0.36216
 C324 C 0.52015 0.35785 0.33721
 C325 C 0.48959 0.32416 0.35482
 C326 C 0.45919 0.31088 0.29912
 C327 C 0.45800 0.33309 0.23583
 C328 C 0.48692 0.36903 0.22863
 C329 C 0.51872 0.37969 0.27641
 C330 C 0.54417 0.41283 0.32523
 C331 C 0.54598 0.38879 0.39213
 H332 H 0.43548 0.28434 0.30827
 H333 H 0.43326 0.32315 0.19812
 H334 H 0.53075 0.42707 0.34835
 H335 H 0.57061 0.42973 0.29216
 H336 H 0.53411 0.38991 0.45352
 H337 H 0.57342 0.39191 0.39691
 C338 C 0.69742 0.15320 0.26603
 C339 C 0.71263 0.13909 0.32032
 C340 C 0.70650 0.10512 0.30000
 C341 C 0.68154 0.08430 0.23473
 C342 C 0.66193 0.09697 0.19038
 C343 C 0.67250 0.13256 0.20303
 C344 C 0.65004 0.14892 0.21722
 C345 C 0.67745 0.17168 0.28610
 H346 H 0.71824 0.09341 0.33951
 H347 H 0.67450 0.05699 0.22605
 H348 H 0.62246 0.12946 0.24245
 H349 H 0.65038 0.16465 0.16167
 H350 H 0.66556 0.16555 0.35085
 H351 H 0.69378 0.20054 0.27005
 C352 C 0.48762 0.15386 -0.29143
 C353 C 0.51060 0.16397 -0.36245
 C354 C 0.53496 0.15132 -0.36547
 C355 C 0.53210 0.12567 -0.30773
 C356 C 0.50492 0.11192 -0.24496
 C357 C 0.48498 0.12860 -0.23385
 C358 C 0.44471 0.11262 -0.22336
 C359 C 0.44756 0.14017 -0.28627
 H360 H 0.55490 0.15965 -0.41579
 H361 H 0.54952 0.11487 -0.31608
 H362 H 0.43776 0.11666 -0.15822
 H363 H 0.42826 0.08474 -0.24760
 H364 H 0.44217 0.15999 -0.25726
 H365 H 0.43281 0.12830 -0.34708
 C366 C 0.64386 0.51935 -0.38264
 C367 C 0.68091 0.54560 -0.37401
 C368 C 0.69075 0.56587 -0.29750
 C369 C 0.66342 0.56036 -0.23715
 C370 C 0.62588 0.53418 -0.25165
 C371 C 0.61823 0.51364 -0.32459
 C372 C 0.58720 0.48649 -0.37805
 C373 C 0.61629 0.49256 -0.44355
 H374 H 0.71886 0.58727 -0.28672
 H375 H 0.67147 0.57729 -0.18148
 H376 H 0.56885 0.49579 -0.39992
 H377 H 0.57320 0.45950 -0.34931
 H378 H 0.61382 0.50458 -0.50326
 H379 H 0.61939 0.46919 -0.45193
 C380 C 0.85664 0.31065 -0.26942
 C381 C 0.84199 0.31973 -0.33808
 C382 C 0.84467 0.35310 -0.33369
 C383 C 0.86655 0.37832 -0.27162
 C384 C 0.88697 0.37119 -0.21334
 C385 C 0.87888 0.33597 -0.20842
 C386 C 0.90397 0.32203 -0.20304
 C387 C 0.87973 0.29438 -0.26935
 H388 H 0.83245 0.36090 -0.38287
 H389 H 0.87052 0.40472 -0.27534
 H390 H 0.90286 0.31020 -0.14000
 H391 H 0.93204 0.34151 -0.22612
 H392 H 0.86464 0.26666 -0.24443
 H393 H 0.89375 0.29779 -0.33083
 C394 C 0.47749 -0.17646 -0.31353
 C395 C 0.51009 -0.17180 -0.34559
 C396 C 0.54303 -0.14743 -0.30317
 C397 C 0.54331 -0.12471 -0.23941
 C398 C 0.51082 -0.12550 -0.21927
 C399 C 0.47792 -0.15355 -0.25288
 C400 C 0.44489 -0.15518 -0.28982
 C401 C 0.44422 -0.18062 -0.35627
 H402 H 0.56877 -0.14382 -0.32426
 H403 H 0.56936 -0.10414 -0.21288
 H404 H 0.45095 -0.12933 -0.31700
 H405 H 0.42110 -0.16822 -0.24629
 H406 H 0.44964 -0.16946 -0.42127
 H407 H 0.42010 -0.20823 -0.35065
 C408 C 0.30442 0.45167 -0.29161
 C409 C 0.29050 0.42423 -0.35262
 C410 C 0.29971 0.39786 -0.34172
 C411 C 0.32499 0.40153 -0.27855
 C412 C 0.34232 0.43204 -0.22637
 C413 C 0.32988 0.45565 -0.23079
 C414 C 0.35064 0.49540 -0.23626
 C415 C 0.32278 0.49117 -0.30293
 H416 H 0.28893 0.37537 -0.38493
 H417 H 0.33349 0.38229 -0.27598
 H418 H 0.37874 0.50680 -0.26191
 H419 H 0.34904 0.50795 -0.17662
 H420 H 0.33471 0.50006 -0.36716
 H421 H 0.30524 0.50136 -0.28162
 C422 C 1.12146 0.65233 -0.41762
 C423 C 1.13655 0.68905 -0.40601
 C424 C 1.12400 0.69899 -0.33409
 C425 C 1.10248 0.67354 -0.27117
 C426 C 1.09234 0.63756 -0.28013
 C427 C 1.10024 0.62758 -0.35706
 C428 C 1.11633 0.60534 -0.37470
 C429 C 1.13958 0.63243 -0.44182
 H430 H 1.13092 0.72627 -0.32579
 H431 H 1.09464 0.68213 -0.21525
 H432 H 1.09570 0.57881 -0.40154
 H433 H 1.13267 0.60507 -0.32002
 H434 H 1.13225 0.62150 -0.50738
 H435 H 1.16942 0.64745 -0.42666
 C436 C 0.85122 0.54661 -0.28500
 C437 C 0.83801 0.52372 -0.35578
 C438 C 0.84359 0.49474 -0.35542
 C439 C 0.86652 0.49263 -0.29475
 C440 C 0.88491 0.51967 -0.23334
 C441 C 0.87427 0.54470 -0.22522
 C442 C 0.89704 0.58433 -0.21574
 C443 C 0.87189 0.58644 -0.28088
 H444 H 0.83248 0.47512 -0.40610
 H445 H 0.87242 0.47162 -0.30102
 H446 H 0.92558 0.59576 -0.23853
 H447 H 0.89471 0.59324 -0.15142
 H448 H 0.88583 0.59911 -0.34142
 H449 H 0.85507 0.59653 -0.25400
 C450 C 0.46629 0.30784 -0.27600
 C451 C 0.49477 0.32154 -0.33497
 C452 C 0.52401 0.35704 -0.32406
 C453 C 0.52142 0.37950 -0.26503
 C454 C 0.48957 0.36680 -0.21612
 C455 C 0.46384 0.33003 -0.21716
 C456 C 0.42302 0.31047 -0.22545
 C457 C 0.42579 0.28624 -0.28970
 H458 H 0.54703 0.36838 -0.36707
 H459 H 0.54275 0.40748 -0.26314
 H460 H 0.41313 0.32716 -0.25349
 H461 H 0.40917 0.29648 -0.16593
 H462 H 0.41756 0.28892 -0.35503
 H463 H 0.41361 0.25835 -0.26710
 C464 C 0.70139 0.12010 -0.30587
 C465 C 0.69306 0.13517 -0.37387
 C466 C 0.65794 0.13046 -0.37691
 C467 C 0.63070 0.10737 -0.31982
 C468 C 0.63812 0.08860 -0.25845
 C469 C 0.67449 0.09738 -0.24899
 C470 C 0.68968 0.07367 -0.24327
 C471 C 0.71908 0.09858 -0.30543
 H472 H 0.65091 0.14281 -0.42686
 H473 H 0.60332 0.10261 -0.32716
 H474 H 0.67063 0.04654 -0.26964
 H475 H 0.70077 0.07418 -0.17896
 H476 H 0.71706 0.08595 -0.36793
 H477 H 0.74703 0.11348 -0.27682
 C478 C 1.16065 0.51201 -0.33365
 C479 C 1.15849 0.47993 -0.35373
 C480 C 1.13572 0.45041 -0.30066
 C481 C 1.11294 0.45263 -0.23922
 C482 C 1.11245 0.48430 -0.22991
 C483 C 1.13916 0.51414 -0.27316
 C484 C 1.14312 0.54717 -0.30921
 C485 C 1.16787 0.54552 -0.37619
 H486 H 1.13270 0.42472 -0.31213
 H487 H 1.09346 0.42877 -0.20519
 H488 H 1.15794 0.57029 -0.26528
 H489 H 1.11681 0.54232 -0.33586
 H490 H 1.19703 0.56749 -0.36988
 H491 H 1.15601 0.54181 -0.44081
 C492 C 0.49138 0.65729 -0.30076
 C493 C 0.50950 0.66252 -0.37830
 C494 C 0.52984 0.64567 -0.38771
 C495 C 0.52806 0.62149 -0.32697
 C496 C 0.50613 0.61365 -0.25492
 C497 C 0.49008 0.63373 -0.23994
 C498 C 0.45146 0.62148 -0.21725
 C499 C 0.45286 0.64723 -0.28373
 H500 H 0.54592 0.64994 -0.44414
 H501 H 0.54240 0.60765 -0.33832
 H502 H 0.44931 0.62921 -0.15145
 H503 H 0.43193 0.59294 -0.23354
 H504 H 0.45147 0.66972 -0.25610
 H505 H 0.43420 0.63365 -0.33871
 C506 C 0.31256 -0.15226 -0.27601
 C507 C 0.29719 -0.13525 -0.31953
 C508 C 0.30596 -0.10139 -0.28949
 C509 C 0.33310 -0.08346 -0.22666
 C510 C 0.35311 -0.09834 -0.19605
 C511 C 0.34053 -0.13382 -0.21692
 C512 C 0.36082 -0.15100 -0.24536
 C513 C 0.33027 -0.17131 -0.31012
 H514 H 0.29426 -0.08749 -0.32001
 H515 H 0.34146 -0.05630 -0.21018
 H516 H 0.36172 -0.16847 -0.19571
 H517 H 0.38762 -0.13184 -0.27481
 H518 H 0.31359 -0.20049 -0.29780
 H519 H 0.33951 -0.16394 -0.37679
 C520 C 0.47671 -0.16176 0.32627
 C521 C 0.50561 -0.16710 0.34324
 C522 C 0.53625 -0.15022 0.28921
 C523 C 0.53983 -0.12455 0.22971
 C524 C 0.51305 -0.11512 0.22464
 C525 C 0.48042 -0.13644 0.26858
 C526 C 0.45638 -0.12796 0.31769
 C527 C 0.45214 -0.15584 0.38150
 H528 H 0.55868 -0.15465 0.29784
 H529 H 0.56497 -0.10981 0.19398
 H530 H 0.43056 -0.13577 0.28284
 H531 H 0.47152 -0.10039 0.34401
 H532 H 0.42381 -0.17960 0.38364
 H533 H 0.46438 -0.14380 0.44393
 C534 C 0.32057 0.46533 0.30707
 C535 C 0.29606 0.43188 0.34161
 C536 C 0.29552 0.40202 0.30722
 C537 C 0.32211 0.40675 0.24732
 C538 C 0.35014 0.44142 0.22371
 C539 C 0.34710 0.47004 0.25018
 C540 C 0.37458 0.50572 0.28623
 C541 C 0.34535 0.50046 0.34904
 H542 H 0.27629 0.37551 0.33075
 H543 H 0.32277 0.38371 0.22591
 H544 H 0.38157 0.52747 0.24017
 H545 H 0.39833 0.50625 0.31690
 H546 H 0.33581 0.51935 0.33940
 H547 H 0.35205 0.49769 0.41580
 C548 C 1.14924 0.71032 0.23564
 C549 C 1.16896 0.70409 0.29722
 C550 C 1.17033 0.67290 0.28884
 C551 C 1.14662 0.64578 0.23191
 C552 C 1.12172 0.64979 0.18161
 C553 C 1.12620 0.68370 0.17831
 C554 C 1.09804 0.69393 0.18268
 C555 C 1.12317 0.72291 0.24538
 H556 H 1.18570 0.66731 0.33447
 H557 H 1.14503 0.62039 0.23408
 H558 H 1.07188 0.67277 0.21122
 H559 H 1.09502 0.70467 0.12140
 H560 H 1.11156 0.71851 0.31024
 H561 H 1.13459 0.75034 0.22021
 C562 C 0.53927 0.17330 0.30179
 C563 C 0.50632 0.16890 0.33016
 C564 C 0.47422 0.14586 0.28329
 C565 C 0.47477 0.12369 0.21935
 C566 C 0.50725 0.12391 0.20305
 C567 C 0.53967 0.15123 0.24018
 C568 C 0.57220 0.15248 0.27881
 C569 C 0.57179 0.17678 0.34691
 H570 H 0.44828 0.14261 0.30128
 H571 H 0.44913 0.10384 0.18975
 H572 H 0.59647 0.16654 0.23706
 H573 H 0.56596 0.12626 0.30384
 H574 H 0.59600 0.20447 0.34434
 H575 H 0.56550 0.16445 0.41081
 C576 C 0.69278 0.58065 0.27670
 C577 C 0.69033 0.55239 0.32320
 C578 C 0.66388 0.51735 0.29802
 C579 C 0.63699 0.51127 0.23741
 C580 C 0.63649 0.54012 0.20046
 C581 C 0.66649 0.57460 0.21566
 C582 C 0.66732 0.60788 0.23947
 C583 C 0.69609 0.61445 0.30611
 H584 H 0.66179 0.49479 0.33120
 H585 H 0.61490 0.48417 0.22475
 H586 H 0.64100 0.60238 0.26696
 H587 H 0.67823 0.62791 0.18763
 H588 H 0.68645 0.61278 0.37218
 H589 H 0.72355 0.63819 0.29246
 C590 C 0.85034 0.35266 0.33150
 C591 C 0.85654 0.32562 0.35590
 C592 C 0.88224 0.32195 0.30859
 C593 C 0.90410 0.34759 0.24703
 C594 C 0.90118 0.37773 0.23346
 C595 C 0.87212 0.37798 0.27226
 C596 C 0.86852 0.40644 0.31345
 C597 C 0.84441 0.37858 0.37913
 H598 H 0.88708 0.30068 0.32311
 H599 H 0.92529 0.34545 0.21569
 H600 H 0.85313 0.41489 0.27277
 H601 H 0.89488 0.42846 0.34014
 H602 H 0.81535 0.37133 0.37612
 H603 H 0.85693 0.38521 0.44348
   
