data_POSCAR
  _audit_creation_date              2014-09-24
  _audit_creation_method            'ToBaCCo'
  _symmetry_space_group_name_H-M    'P1'
  _symmetry_Int_Tables_number       1
  _symmetry_cell_setting            triclinic
  loop_
  _symmetry_equiv_pos_as_xyz
 x,y,z
_cell_length_a 29.5905
_cell_length_b 30.0363
_cell_length_c 29.7923
_cell_angle_alpha 105.105400
_cell_angle_beta 120.438700
_cell_angle_gamma 124.756100
loop_
  _atom_site_label
  _atom_site_type_symbol
  _atom_site_fract_x
  _atom_site_fract_y
  _atom_site_fract_z
O1 O 0.58872 0.54649 0.05187
 O2 O 0.41898 0.47993 0.02548
 O3 O 0.47672 0.43764 0.03321
 O4 O 0.53240 0.58975 0.04646
 O5 O 0.40845 0.48749 -0.08910
 O6 O 0.36139 0.33903 -0.10099
 O7 O 0.29752 0.37564 -0.10971
 O8 O 0.46903 0.44804 -0.08299
 Cu9 Cu 0.51633 0.52355 0.05285
 Cu10 Cu 0.37197 0.40251 -0.10920
 C11 C 0.55753 0.50821 -0.01122
 C12 C 0.32929 0.41664 -0.04670
 C13 C 0.41136 0.36327 -0.03584
 C14 C 0.47857 0.56397 -0.01917
 O15 O 0.02165 0.58304 0.53239
 O16 O 0.00219 0.44486 0.51229
 O17 O 0.01101 0.52635 0.58496
 O18 O 0.01304 0.50173 0.45839
 O19 O 0.17400 0.61749 0.57106
 O20 O 0.17129 0.63800 0.69638
 O21 O 0.16285 0.55780 0.62151
 O22 O 0.18212 0.69683 0.64570
 Cu23 Cu -0.00417 0.50239 0.51043
 Cu24 Cu 0.18871 0.63884 0.64485
 C25 C 0.10538 0.66380 0.59319
 C26 C 0.07896 0.47771 0.56357
 C27 C 0.09119 0.58634 0.66244
 C28 C 0.09407 0.55641 0.49344
 O29 O 0.63545 0.10782 0.64863
 O30 O 0.62354 0.12456 0.52630
 O31 O 0.55524 0.11271 0.56189
 O32 O 0.70138 0.11752 0.61219
 O33 O 0.56602 -0.02393 0.50167
 O34 O 0.41990 -0.02854 0.44984
 O35 O 0.48849 -0.01679 0.41560
 O36 O 0.49826 -0.03358 0.53769
 Cu37 Cu 0.64235 0.12977 0.59815
 Cu38 Cu 0.47978 -0.03995 0.46518
 C39 C 0.56818 0.03457 0.61397
 C40 C 0.55456 0.05692 0.45036
 C41 C 0.46272 0.04112 0.49773
 C42 C 0.65844 0.04758 0.56513
 O43 O 0.33043 -0.13561 -0.19640
 O44 O 0.32691 -0.11730 -0.07173
 O45 O 0.33762 -0.05689 -0.12153
 O46 O 0.31979 -0.19501 -0.14640
 O47 O 0.48040 -0.08088 -0.03286
 O48 O 0.49839 0.05660 -0.01205
 O49 O 0.48791 -0.00112 0.04116
 O50 O 0.49082 -0.02338 -0.08475
 Cu51 Cu 0.31254 -0.13751 -0.14524
 Cu52 Cu 0.50561 -0.00046 -0.01049
 C53 C 0.41068 -0.08345 -0.16229
 C54 C 0.40673 -0.05650 0.00587
 C55 C 0.42130 0.02332 -0.06334
 C56 C 0.39676 -0.16165 -0.09391
 O57 O -0.06564 0.52422 1.00013
 O58 O 0.07937 0.52824 1.04878
 O59 O 0.00067 0.53442 0.96262
 O60 O 0.01111 0.51515 1.08367
 O61 O -0.12444 0.37388 0.97215
 O62 O -0.13637 0.39303 0.85092
 O63 O -0.05624 0.38708 0.93616
 O64 O -0.20131 0.38290 0.88849
 Cu65 Cu 0.01984 0.53971 1.03491
 Cu66 Cu -0.14307 0.37011 0.90093
 C67 C -0.15809 0.45282 0.93650
 C68 C 0.03630 0.45857 1.00026
 C69 C -0.06941 0.46672 0.88617
 C70 C -0.05510 0.44114 1.04837
 O71 O -0.03262 -0.09002 0.45522
 O72 O 0.01904 0.05983 0.46638
 O73 O 0.07804 0.01896 0.47386
 O74 O -0.09035 -0.04812 0.44972
 O75 O 0.03054 0.05125 0.58479
 O76 O 0.20060 0.12406 0.60927
 O77 O 0.13565 0.15945 0.60087
 O78 O 0.09258 0.01314 0.59093
 Cu79 Cu -0.01879 -0.02515 0.44764
 Cu80 Cu 0.12705 0.09706 0.60997
 C81 C 0.02239 -0.06351 0.52116
 C82 C 0.08450 0.13440 0.53529
 C83 C 0.16806 0.08294 0.54580
 C84 C -0.05833 -0.00936 0.51325
 C85 C -0.37546 0.53238 0.99945
 C86 C -0.40988 0.48047 0.93268
 C87 C -0.34723 0.49417 0.94359
 N88 N -0.38808 0.43262 0.87867
 N89 N -0.33342 0.44116 0.88853
 C90 C -0.23573 0.51183 0.96371
 N91 N -0.19459 0.57408 1.02836
 N92 N -0.24935 0.56534 1.01858
 C93 C -0.17545 0.51957 0.97678
 C94 C -0.21689 0.44964 0.91828
 H95 H -0.48704 0.42350 0.87084
 H96 H -0.09713 0.57951 1.03652
 H97 H -0.29897 0.58770 1.06165
 H98 H -0.29551 0.38856 0.85991
 C99 C 0.26479 0.39281 0.94217
 C100 C 0.29583 0.44002 1.00813
 C101 C 0.23138 0.42431 0.99571
 N102 N 0.27008 0.48326 1.06049
 N103 N 0.21397 0.47308 1.04951
 C104 C 0.11692 0.40324 0.97332
 N105 N 0.07788 0.34352 0.90874
 N106 N 0.13411 0.35395 0.91965
 C107 C 0.05529 0.39392 0.95935
 C108 C 0.09552 0.46229 1.01854
 H109 H 0.37177 0.49508 1.07087
 H110 H -0.02268 0.33450 0.89872
 H111 H 0.18909 0.33895 0.87966
 H112 H 0.17394 0.52309 1.07773
 C113 C 0.11433 -0.28248 0.60322
 C114 C 0.03383 -0.31359 0.54750
 C115 C 0.04457 -0.25614 0.55831
 N116 N -0.03358 -0.28940 0.49603
 N117 N -0.02442 -0.23805 0.50403
 C118 C 0.06315 -0.15151 0.57490
 N119 N 0.14098 -0.11832 0.63762
 N120 N 0.13194 -0.16965 0.62944
 C121 C 0.07550 -0.09371 0.58336
 C122 C 0.00478 -0.12269 0.51551
 H123 H -0.03918 -0.38211 0.49294
 H124 H 0.14479 -0.02581 0.64312
 H125 H 0.18691 -0.21399 0.65600
 H126 H -0.06241 -0.18990 0.45497
 C127 C 0.06959 0.42202 0.55680
 C128 C 0.14022 0.44181 0.58670
 C129 C 0.13341 0.38924 0.58623
 N130 N 0.16623 0.37784 0.57452
 N131 N 0.16039 0.33038 0.57439
 C132 C 0.12317 0.29401 0.58750
 N133 N 0.09203 0.30674 0.60069
 N134 N 0.09635 0.35295 0.59944
 C135 C 0.11697 0.24223 0.58838
 C136 C 0.09958 0.19158 0.53861
 H137 H 0.19961 0.49496 0.60826
 H138 H 0.11665 0.23731 0.62301
 H139 H 0.00429 0.36288 0.52611
 H140 H 0.08639 0.18696 0.49527
 C141 C 0.57163 0.03079 -0.33897
 C142 C 0.49520 -0.04523 -0.37272
 C143 C 0.49620 -0.04406 -0.32247
 N144 N 0.41246 -0.11321 -0.35940
 N145 N 0.41171 -0.11069 -0.31446
 C146 C 0.49485 -0.03901 -0.23088
 N147 N 0.57875 0.02950 -0.19400
 N148 N 0.57937 0.02716 -0.23891
 C149 C 0.49521 -0.03337 -0.18012
 C150 C 0.40958 -0.09330 -0.21403
 H151 H 0.42995 -0.10560 -0.43835
 H152 H 0.56503 0.02216 -0.11376
 H153 H 0.63427 0.09092 -0.27386
 H154 H 0.33969 -0.14725 -0.28018
 C155 C 0.55346 0.06515 0.40341
 C156 C 0.47502 -0.00562 0.31821
 C157 C 0.47777 0.00128 0.27226
 N158 N 0.39617 -0.06758 0.18865
 N159 N 0.39836 -0.06351 0.14618
 C160 C 0.48239 0.00952 0.18578
 N161 N 0.56402 0.07842 0.26942
 N162 N 0.56173 0.07448 0.31191
 C163 C 0.48689 0.01330 0.13968
 C164 C 0.40318 -0.05303 0.05392
 H165 H 0.40992 -0.06839 0.28406
 H166 H 0.55776 0.06832 0.17385
 H167 H 0.61684 0.12850 0.43712
 H168 H 0.33215 -0.10635 0.02015
 C169 C 0.49716 -0.37635 -0.01316
 C170 C 0.42816 -0.40471 -0.08152
 C171 C 0.44040 -0.34711 -0.07342
 N172 N 0.36343 -0.38037 -0.13762
 N173 N 0.37213 -0.32933 -0.12989
 C174 C 0.45830 -0.24310 -0.05773
 N175 N 0.53566 -0.20972 0.00606
 N176 N 0.52682 -0.26080 -0.00152
 C177 C 0.46833 -0.18617 -0.04743
 C178 C 0.38765 -0.21815 -0.10485
 H179 H 0.35996 -0.47226 -0.14173
 H180 H 0.54060 -0.11746 0.00813
 H181 H 0.56323 -0.30961 0.04765
 H182 H 0.31523 -0.28677 -0.15880
 C183 C 0.39539 0.30551 -0.03979
 C184 C 0.37839 0.25525 -0.08943
 C185 C 0.37304 0.20402 -0.08823
 N186 N 0.40481 0.19207 -0.10110
 N187 N 0.40138 0.14642 -0.09950
 C188 C 0.36463 0.10998 -0.08620
 N189 N 0.33127 0.12068 -0.07469
 N190 N 0.33622 0.16759 -0.07493
 C191 C 0.35877 0.05801 -0.08637
 C192 C 0.43000 0.07868 -0.05630
 H193 H 0.37908 0.26058 -0.12374
 H194 H 0.29941 0.00439 -0.10820
 H195 H 0.40828 0.30981 0.00333
 H196 H 0.49508 0.13813 -0.02553
 C197 C -0.28255 0.05079 0.58407
 C198 C -0.32389 -0.01949 0.52632
 C199 C -0.26356 -0.01179 0.53960
 N200 N -0.30505 -0.07498 0.47538
 N201 N -0.25035 -0.06632 0.48514
 C202 C -0.15216 0.00573 0.55965
 N203 N -0.11093 0.06824 0.62419
 N204 N -0.16555 0.05975 0.61434
 C205 C -0.08974 0.01928 0.57028
 C206 C -0.12482 -0.03341 0.50333
 H207 H -0.40228 -0.07978 0.46683
 H208 H -0.01234 0.07678 0.63185
 H209 H -0.20393 0.11209 0.64216
 H210 H -0.20156 -0.08915 0.44132
 C211 C 0.40320 0.03720 0.47883
 C212 C 0.44325 0.10584 0.53739
 C213 C 0.38138 0.09597 0.52363
 N214 N 0.42113 0.15725 0.58773
 N215 N 0.36489 0.14636 0.57731
 C216 C 0.26682 0.07391 0.50225
 N217 N 0.22734 0.01334 0.43789
 N218 N 0.28348 0.02405 0.44839
 C219 C 0.20256 0.05777 0.49056
 C220 C 0.23576 0.10876 0.55667
 H221 H 0.52142 0.16596 0.59757
 H222 H 0.12541 -0.00001 0.42871
 H223 H 0.32472 -0.02403 0.41997
 H224 H 0.31244 0.16529 0.61886
 C225 C 0.09733 0.55177 1.44508
 C226 C 0.01349 0.48527 1.35934
 C227 C 0.01801 0.48851 1.31313
 N228 N -0.06370 0.41952 1.22950
 N229 N -0.06141 0.42316 1.18693
 C230 C 0.02261 0.49614 1.22648
 N231 N 0.10430 0.56506 1.31008
 N232 N 0.10212 0.56128 1.35263
 C233 C 0.02521 0.50292 1.18046
 C234 C -0.05359 0.43232 1.09518
 H235 H -0.05742 0.43076 1.32533
 H236 H 0.09027 0.56565 1.21457
 H237 H 0.16828 0.60443 1.47858
 H238 H -0.11696 0.36892 1.06140
 C239 C 0.09247 0.59639 0.71426
 C240 C 0.00691 0.53776 0.68061
 C241 C 0.00747 0.54290 0.73137
 N242 N -0.07747 0.47649 0.69430
 N243 N -0.07795 0.47811 0.73914
 C244 C 0.00648 0.54645 0.82281
 N245 N 0.09133 0.61353 0.85999
 N246 N 0.09187 0.61174 0.81510
 C247 C 0.00748 0.54656 0.87273
 C248 C -0.07355 0.47204 0.83692
 H249 H -0.06303 0.48360 0.61441
 H250 H 0.07544 0.60429 0.93924
 H251 H 0.16238 0.64927 0.78023
 H252 H -0.13995 0.41331 0.77065
   
