data_POSCAR
  _audit_creation_date              2014-09-24
  _audit_creation_method            'ToBaCCo'
  _symmetry_space_group_name_H-M    'P1'
  _symmetry_Int_Tables_number       1
  _symmetry_cell_setting            triclinic
  loop_
  _symmetry_equiv_pos_as_xyz
 x,y,z
_cell_length_a 46.2026
_cell_length_b 44.3015
_cell_length_c 8.6995
_cell_angle_alpha 90.001600
_cell_angle_beta 90.017900
_cell_angle_gamma 90.001300
loop_
  _atom_site_label
  _atom_site_type_symbol
  _atom_site_fract_x
  _atom_site_fract_y
  _atom_site_fract_z
O1 O 0.21924 0.22044 0.23369
 O2 O 0.27409 0.27922 0.29692
 O3 O 0.21905 0.27893 0.23307
 O4 O 0.27427 0.22059 0.29775
 O5 O 0.28407 0.22040 0.04996
 O6 O 0.22859 0.27891 -0.01527
 O7 O 0.28390 0.27924 0.04890
 O8 O 0.22878 0.22029 -0.01465
 Cu9 Cu 0.24565 0.24980 0.28974
 Cu10 Cu 0.25743 0.24970 -0.00729
 C11 C 0.21436 0.21048 0.09927
 C12 C 0.28852 0.28923 0.18360
 C13 C 0.21411 0.28873 0.09843
 C14 C 0.28882 0.21052 0.18488
 O15 O 0.72869 0.22092 0.51433
 O16 O 0.78417 0.27942 0.44908
 O17 O 0.72888 0.27953 0.51356
 O18 O 0.78399 0.22058 0.45023
 O19 O 0.77418 0.22058 0.20219
 O20 O 0.71932 0.27936 0.26522
 O21 O 0.77435 0.27922 0.20128
 O22 O 0.71914 0.22087 0.26597
 Cu23 Cu 0.75753 0.25013 0.50633
 Cu24 Cu 0.74574 0.25000 0.20928
 C25 C 0.71420 0.21108 0.40064
 C26 C 0.78891 0.28930 0.31415
 C27 C 0.71445 0.28933 0.39962
 C28 C 0.78861 0.21058 0.31556
 O29 O 0.72864 0.78013 0.48601
 O30 O 0.78385 0.72132 0.55076
 O31 O 0.72857 0.72151 0.48640
 O32 O 0.78397 0.78016 0.55034
 O33 O 0.77418 0.78015 0.79814
 O34 O 0.71903 0.72168 0.73474
 O35 O 0.77405 0.72151 0.79879
 O36 O 0.71912 0.78017 0.73436
 Cu37 Cu 0.75735 0.75078 0.49386
 Cu38 Cu 0.74559 0.75090 0.79089
 C39 C 0.71420 0.79000 0.59974
 C40 C 0.78847 0.71142 0.68565
 C41 C 0.71412 0.71175 0.60030
 C42 C 0.78873 0.79013 0.68506
 O43 O 0.28302 0.77976 0.94993
 O44 O 0.22795 0.72085 1.01537
 O45 O 0.28325 0.72091 0.95141
 O46 O 0.22767 0.77945 1.01343
 O47 O 0.21822 0.77909 0.76523
 O48 O 0.27349 0.72071 0.70331
 O49 O 0.21846 0.72062 0.76694
 O50 O 0.27329 0.77935 0.70180
 Cu51 Cu 0.25657 0.75028 1.00706
 Cu52 Cu 0.24487 0.74992 0.70994
 C53 C 0.28769 0.78954 0.81489
 C54 C 0.21357 0.71085 0.90169
 C55 C 0.28796 0.71086 0.81690
 C56 C 0.21314 0.78911 0.89940
 C57 C 0.99895 0.07901 0.05881
 C58 C 1.02430 0.06421 0.01464
 C59 C 1.02401 0.03305 -0.01167
 C60 C 0.99854 0.01604 0.01162
 C61 C 0.97322 0.03134 0.05851
 C62 C 0.97337 0.06269 0.07944
 C63 C 0.99849 -0.01742 -0.01196
 C64 C 0.97311 -0.03265 -0.05869
 C65 C 0.97317 -0.06400 -0.07969
 C66 C 0.99871 -0.08040 -0.05927
 C67 C 1.02412 -0.06568 -0.01522
 C68 C 1.02392 -0.03451 0.01113
 H69 H 0.99915 0.10321 0.07789
 H70 H 1.04373 0.02231 -0.05056
 H71 H 0.95340 0.01907 0.08063
 H72 H 0.95331 -0.02032 -0.08066
 H73 H 0.99884 -0.10460 -0.07844
 H74 H 1.04369 -0.02383 0.04991
 C75 C 0.49876 0.58004 0.56065
 C76 C 0.52413 0.56533 0.51614
 C77 C 0.52393 0.53417 0.48960
 C78 C 0.49850 0.51708 0.51292
 C79 C 0.47316 0.53229 0.56009
 C80 C 0.47323 0.56364 0.58132
 C81 C 0.49854 0.48363 0.48905
 C82 C 0.47321 0.46834 0.44221
 C83 C 0.47335 0.43700 0.42086
 C84 C 0.49894 0.42067 0.44109
 C85 C 0.52431 0.43546 0.48527
 C86 C 0.52403 0.46661 0.51194
 H87 H 0.49890 0.60423 0.57994
 H88 H 0.54367 0.52350 0.45048
 H89 H 0.45337 0.51995 0.58218
 H90 H 0.45337 0.48062 0.42043
 H91 H 0.49915 0.39648 0.42169
 H92 H 0.54376 0.47733 0.55081
 C93 C -0.00173 0.41964 0.05647
 C94 C -0.02728 0.43597 0.07762
 C95 C -0.02738 0.46735 0.05778
 C96 C -0.00204 0.48268 0.01158
 C97 C 0.02341 0.46566 -0.01228
 C98 C 0.02365 0.43446 0.01289
 C99 C -0.00202 0.51618 -0.01063
 C100 C 0.02345 0.53318 0.01325
 C101 C 0.02372 0.56438 -0.01192
 C102 C -0.00165 0.57922 -0.05553
 C103 C -0.02722 0.56292 -0.07674
 C104 C -0.02736 0.53154 -0.05688
 H105 H -0.00155 0.39542 0.07480
 H106 H -0.04719 0.47963 0.08029
 H107 H 0.04316 0.47642 -0.05069
 H108 H 0.04319 0.52240 0.05167
 H109 H -0.00145 0.60345 -0.07385
 H110 H -0.04718 0.51929 -0.07942
 C111 C 0.49827 0.92075 0.55619
 C112 C 0.47269 0.93707 0.57695
 C113 C 0.47259 0.96845 0.55689
 C114 C 0.49794 0.98378 0.51078
 C115 C 0.52341 0.96676 0.48732
 C116 C 0.52366 0.93557 0.51276
 C117 C 0.49795 1.01727 0.48830
 C118 C 0.52341 1.03429 0.51214
 C119 C 0.52366 1.06549 0.48673
 C120 C 0.49829 1.08031 0.44297
 C121 C 0.47273 1.06398 0.42182
 C122 C 0.47261 1.03260 0.44185
 H123 H 0.49845 0.89653 0.57469
 H124 H 0.45277 0.98072 0.57915
 H125 H 0.54316 0.97752 0.44900
 H126 H 0.54315 1.02354 0.55071
 H127 H 0.49847 1.10453 0.42450
 H128 H 0.45280 1.02034 0.41929
 C129 C 1.15313 0.15611 0.18213
 C130 C 1.14477 0.14756 0.03388
 C131 C 1.15992 0.15862 -0.09358
 C132 C 1.18308 0.17861 -0.07273
 C133 C 1.19123 0.18781 0.07603
 C134 C 1.17617 0.17607 0.20323
 C135 C 1.11984 0.12846 0.01435
 C136 C 1.09846 0.11299 0.00455
 C137 C 1.07297 0.09547 0.00060
 C138 C 1.05090 0.08098 0.00355
 H139 H 1.14152 0.14773 0.28157
 H140 H 1.15357 0.15220 -0.20892
 H141 H 1.19421 0.18729 -0.17296
 H142 H 1.18188 0.18264 0.31925
 C143 C 0.65273 0.65757 0.68312
 C144 C 0.64442 0.64895 0.53490
 C145 C 0.65963 0.65994 0.40746
 C146 C 0.68281 0.67991 0.42831
 C147 C 0.69091 0.68916 0.57704
 C148 C 0.67578 0.67751 0.70422
 C149 C 0.61952 0.62982 0.51538
 C150 C 0.59817 0.61431 0.50565
 C151 C 0.57272 0.59673 0.50184
 C152 C 0.55069 0.58218 0.50491
 H153 H 0.64108 0.64924 0.78254
 H154 H 0.65332 0.65346 0.29214
 H155 H 0.69399 0.68851 0.32810
 H156 H 0.68147 0.68412 0.82021
 C157 C -0.15027 0.34276 0.38636
 C158 C -0.14436 0.35277 0.23714
 C159 C -0.16118 0.34242 0.11428
 C160 C -0.18356 0.32180 0.13984
 C161 C -0.18944 0.31107 0.28931
 C162 C -0.17264 0.32213 0.41256
 C163 C -0.12020 0.37252 0.20867
 C164 C -0.09956 0.38834 0.18255
 C165 C -0.07490 0.40596 0.14915
 C166 C -0.05342 0.42015 0.11805
 H167 H -0.13731 0.35057 0.48228
 H168 H -0.15672 0.34996 -0.00183
 H169 H -0.19593 0.31399 0.04183
 H170 H -0.17644 0.31456 0.52923
 C171 C 0.33866 0.84367 0.61333
 C172 C 0.35546 0.85409 0.73624
 C173 C 0.34950 0.84417 0.88565
 C174 C 0.32710 0.82356 0.91187
 C175 C 0.31040 0.81256 0.78864
 C176 C 0.31626 0.82308 0.63919
 C177 C 0.37965 0.87378 0.70765
 C178 C 0.40034 0.88955 0.68154
 C179 C 0.42504 0.90711 0.64822
 C180 C 0.44654 0.92127 0.61723
 H181 H 0.34315 0.85111 0.49711
 H182 H 0.36245 0.85200 0.98157
 H183 H 0.32316 0.81593 1.02824
 H184 H 0.30383 0.81507 0.54184
 C185 C -0.16082 0.65690 -0.11348
 C186 C -0.14402 0.64652 -0.23642
 C187 C -0.14986 0.65664 -0.38564
 C188 C -0.17215 0.67739 -0.41163
 C189 C -0.18886 0.68834 -0.28835
 C190 C -0.18311 0.67763 -0.13911
 C191 C -0.11995 0.62666 -0.20800
 C192 C -0.09937 0.61074 -0.18188
 C193 C -0.07477 0.59302 -0.14844
 C194 C -0.05334 0.57877 -0.11727
 H195 H -0.15641 0.64931 0.00260
 H196 H -0.13691 0.64885 -0.48157
 H197 H -0.17601 0.68517 -0.52785
 H198 H -0.19555 0.68559 -0.04173
 C199 C 0.34967 1.15710 0.11266
 C200 C 0.35560 1.14710 0.26188
 C201 C 0.33879 1.15743 0.38475
 C202 C 0.31639 1.17803 0.35918
 C203 C 0.31048 1.18876 0.20972
 C204 C 0.32727 1.17771 0.08647
 C205 C 0.37978 1.12738 0.29037
 C206 C 0.40044 1.11157 0.31653
 C207 C 0.42511 1.09397 0.35001
 C208 C 0.44659 1.07979 0.38122
 H209 H 0.36262 1.14930 0.01674
 H210 H 0.34327 1.14990 0.50086
 H211 H 0.30402 1.18584 0.45720
 H212 H 0.32346 1.18527 -0.03021
 C213 C 1.15166 -0.15915 -0.18386
 C214 C 1.14440 -0.14928 -0.03625
 C215 C 1.16066 -0.15898 0.09020
 C216 C 1.18385 -0.17891 0.06924
 C217 C 1.19098 -0.18955 -0.07891
 C218 C 1.17472 -0.17906 -0.20533
 C219 C 1.11953 -0.13013 -0.01609
 C220 C 1.09819 -0.11462 -0.00590
 C221 C 1.07273 -0.09705 -0.00162
 C222 C 1.05069 -0.08252 -0.00435
 H223 H 1.13921 -0.15179 -0.28255
 H224 H 1.15518 -0.15148 0.20510
 H225 H 1.19580 -0.18635 0.16946
 H226 H 1.17945 -0.18653 -0.32122
 C227 C 0.66004 0.34118 0.59249
 C228 C 0.64482 0.35219 0.46507
 C229 C 0.65313 0.34360 0.31682
 C230 C 0.67618 0.32367 0.29568
 C231 C 0.69131 0.31198 0.42285
 C232 C 0.68321 0.32122 0.57160
 C233 C 0.61988 0.37126 0.48468
 C234 C 0.59850 0.38671 0.49460
 C235 C 0.57299 0.40421 0.49876
 C236 C 0.55092 0.41869 0.49603
 H237 H 0.65373 0.34763 0.70783
 H238 H 0.64148 0.35195 0.21741
 H239 H 0.68186 0.31707 0.17968
 H240 H 0.69439 0.31258 0.67180
 C241 C 0.84969 -0.15664 -0.38805
 C242 C 0.85566 -0.14657 -0.23899
 C243 C 0.83879 -0.15674 -0.11599
 C244 C 0.81633 -0.17728 -0.14124
 C245 C 0.81041 -0.18811 -0.29051
 C246 C 0.82724 -0.17719 -0.41394
 C247 C 0.87993 -0.12696 -0.21076
 C248 C 0.90067 -0.11126 -0.18476
 C249 C 0.92543 -0.09379 -0.15142
 C250 C 0.94698 -0.07971 -0.12029
 H251 H 0.86269 -0.14897 -0.48408
 H252 H 0.84329 -0.14915 -0.00001
 H253 H 0.80393 -0.18498 -0.04312
 H254 H 0.82341 -0.18483 -0.53048
 C255 C 0.33936 0.34370 0.38383
 C256 C 0.35622 0.35394 0.26082
 C257 C 0.35035 0.34378 0.11169
 C258 C 0.32797 0.32312 0.08589
 C259 C 0.31122 0.31229 0.20927
 C260 C 0.31699 0.32305 0.35839
 C261 C 0.38039 0.37367 0.28913
 C262 C 0.40105 0.38947 0.31525
 C263 C 0.42573 0.40706 0.34877
 C264 C 0.44722 0.42121 0.38007
 H265 H 0.34379 0.35132 0.49983
 H266 H 0.36334 0.35147 0.01570
 H267 H 0.32409 0.31530 -0.03024
 H268 H 0.30451 0.31519 0.45584
 C269 C 0.15245 0.65625 -0.17978
 C270 C 0.14408 0.64787 -0.03132
 C271 C 0.15918 0.65915 0.09589
 C272 C 0.18230 0.67916 0.07456
 C273 C 0.19046 0.68818 -0.07444
 C274 C 0.17545 0.67623 -0.20136
 C275 C 0.11919 0.62874 -0.01141
 C276 C 0.09784 0.61323 -0.00145
 C277 C 0.07238 0.59566 0.00253
 C278 C 0.05032 0.58115 -0.00053
 H279 H 0.14088 0.64770 -0.27904
 H280 H 0.15281 0.65287 0.21139
 H281 H 0.19339 0.68800 0.17458
 H282 H 0.18118 0.68266 -0.31755
 C283 C 0.65946 1.15975 0.59456
 C284 C 0.64427 1.14862 0.46729
 C285 C 0.65268 1.15699 0.31888
 C286 C 0.67582 1.17680 0.29740
 C287 C 0.69093 1.18859 0.42438
 C288 C 0.68272 1.17959 0.57333
 C289 C 0.61928 1.12963 0.48712
 C290 C 0.59786 1.11422 0.49706
 C291 C 0.57234 1.09674 0.50106
 C292 C 0.55026 1.08226 0.49804
 H293 H 0.65307 1.15347 0.71003
 H294 H 0.64105 1.14856 0.21958
 H295 H 0.68158 1.18322 0.18125
 H296 H 0.69388 1.18831 0.67339
 C297 C 0.15260 0.34282 0.18026
 C298 C 0.14421 0.35124 0.03188
 C299 C 0.15940 0.34015 -0.09540
 C300 C 0.18265 0.32029 -0.07420
 C301 C 0.19084 0.31124 0.07472
 C302 C 0.17572 0.32299 0.20171
 C303 C 0.11923 0.37026 0.01208
 C304 C 0.09782 0.38569 0.00223
 C305 C 0.07232 0.40319 -0.00164
 C306 C 0.05025 0.41768 0.00148
 H307 H 0.14097 0.35123 0.27957
 H308 H 0.15302 0.34647 -0.21085
 H309 H 0.19382 0.31159 -0.17427
 H310 H 0.18148 0.31654 0.31784
 C311 C 0.65279 0.84421 0.68150
 C312 C 0.64434 0.85255 0.53308
 C313 C 0.65951 0.84140 0.40582
 C314 C 0.68276 0.82155 0.42707
 C315 C 0.69099 0.81256 0.57602
 C316 C 0.67592 0.82438 0.70300
 C317 C 0.61934 0.87152 0.51321
 C318 C 0.59790 0.88690 0.50317
 C319 C 0.57236 0.90435 0.49899
 C320 C 0.55027 0.91881 0.50179
 H321 H 0.64118 0.85266 0.78080
 H322 H 0.65309 0.84766 0.29035
 H323 H 0.69389 0.81280 0.32701
 H324 H 0.68170 0.81797 0.81916
 C325 C 0.85041 0.15601 0.38787
 C326 C 0.85627 0.14583 0.23880
 C327 C 0.83942 0.15606 0.11568
 C328 C 0.81707 0.17673 0.14097
 C329 C 0.81130 0.18751 0.29003
 C330 C 0.82804 0.17669 0.41351
 C331 C 0.88044 0.12609 0.21066
 C332 C 0.90109 0.11027 0.18470
 C333 C 0.92576 0.09267 0.15135
 C334 C 0.94724 0.07849 0.12016
 H335 H 0.86339 0.14833 0.48393
 H336 H 0.84385 0.14843 -0.00028
 H337 H 0.80460 0.18459 0.04344
 H338 H 0.82416 0.18453 0.52960
 C339 C 0.33902 0.65648 0.61790
 C340 C 0.35593 0.64642 0.74113
 C341 C 0.35005 0.65669 0.89003
 C342 C 0.32759 0.67727 0.91537
 C343 C 0.31078 0.68791 0.79176
 C344 C 0.31658 0.67705 0.64288
 C345 C 0.38016 0.62675 0.71321
 C346 C 0.40086 0.61099 0.68725
 C347 C 0.42556 0.59346 0.65374
 C348 C 0.44707 0.57935 0.62234
 H349 H 0.34346 0.64877 0.50207
 H350 H 0.36308 0.64913 0.98619
 H351 H 0.32369 0.68518 1.03132
 H352 H 0.30405 0.68477 0.54525
   
