data_POSCAR
  _audit_creation_date              2014-09-24
  _audit_creation_method            'ToBaCCo'
  _symmetry_space_group_name_H-M    'P1'
  _symmetry_Int_Tables_number       1
  _symmetry_cell_setting            triclinic
  loop_
  _symmetry_equiv_pos_as_xyz
 x,y,z
_cell_length_a 33.9382
_cell_length_b 33.3591
_cell_length_c 34.4761
_cell_angle_alpha 90.458300
_cell_angle_beta 87.584600
_cell_angle_gamma 89.617900
loop_
  _atom_site_label
  _atom_site_type_symbol
  _atom_site_fract_x
  _atom_site_fract_y
  _atom_site_fract_z
C1 C 0.72753 0.61269 1.03655
 C2 C 0.76750 0.37197 0.50878
 C3 C 0.23286 -0.12100 -0.01749
 C4 C 0.26299 0.10345 0.47448
 C5 C 0.14063 0.52444 0.25171
 C6 C -0.12283 0.02729 0.24481
 C7 C 0.40195 0.47677 0.73925
 C8 C 0.62895 0.98675 0.76029
 C9 C 0.00323 0.27581 -0.13822
 C10 C 0.49195 0.24461 0.12119
 C11 C 0.98950 0.75917 0.61743
 C12 C 0.49855 0.74708 0.40018
 C13 C 0.43262 -0.05794 0.28318
 H14 H 0.43263 -0.02722 0.29348
 C15 C 0.45169 -0.08764 0.30387
 H16 H 0.46657 -0.07965 0.32999
 C17 C 0.40989 -0.10642 0.23893
 H18 H 0.39158 -0.11420 0.21522
 C19 C 0.42914 -0.13693 0.25831
 H20 H 0.42658 -0.16765 0.24840
 N21 N 0.41207 -0.06773 0.25146
 C22 C 0.38388 0.04876 0.20231
 H23 H 0.35244 0.04400 0.20162
 C24 C 0.39966 0.08489 0.18953
 H25 H 0.38047 0.10772 0.17828
 C26 C 0.44732 0.02443 0.21714
 H27 H 0.46562 0.00056 0.22768
 C28 C 0.46449 0.06036 0.20432
 H29 H 0.49616 0.06403 0.20448
 Zn30 Zn 0.37970 -0.02700 0.23140
 N31 N 0.40762 0.01940 0.21572
 C32 C 0.35126 0.02266 0.29137
 N33 N 0.34415 -0.01236 0.27261
 C34 C 0.31549 -0.03786 0.28581
 C35 C 0.29234 -0.02812 0.31923
 C36 C 0.32917 0.03335 0.32461
 C37 C 0.37301 -0.06420 0.15832
 C38 C 0.35463 -0.07420 0.12415
 C39 C 0.29613 -0.03925 0.14874
 C40 C 0.31493 -0.03175 0.18327
 N41 N 0.35272 -0.04424 0.18744
 H42 H 0.37514 0.04174 0.28151
 H43 H 0.31117 -0.06601 0.27083
 H44 H 0.26979 -0.04850 0.32998
 H45 H 0.33563 0.06106 0.33961
 H46 H 0.40361 -0.07224 0.16155
 H47 H 0.37064 -0.09179 0.10208
 H48 H 0.26636 -0.02823 0.14560
 H49 H 0.29984 -0.01460 0.20620
 C50 C 0.44035 0.09075 0.19010
 C51 C 0.45004 -0.12772 0.29143
 C52 C 0.31608 -0.06057 0.11846
 C53 C 0.29970 0.00771 0.33902
 C54 C 0.05241 1.06293 0.75634
 H55 H 0.03371 1.03727 0.75216
 C56 C 0.03591 1.09926 0.76968
 H57 H 0.00445 1.10167 0.77597
 C58 C 0.11650 1.09115 0.75475
 H59 H 0.14793 1.08744 0.74921
 C60 C 0.10130 1.12784 0.76805
 H61 H 0.12102 1.15259 0.77299
 N62 N 0.09211 1.05953 0.74974
 C63 C 0.07393 0.93905 0.74443
 H64 H 0.09004 0.93637 0.77064
 C65 C 0.05104 0.90708 0.73244
 H66 H 0.05041 0.87959 0.74896
 C67 C 0.05701 0.97671 0.68946
 H68 H 0.06011 1.00354 0.67235
 C69 C 0.03371 0.94540 0.67641
 H70 H 0.01963 0.94791 0.64891
 Zn71 Zn 0.11647 1.01080 0.73430
 N72 N 0.07785 0.97234 0.72209
 C73 C 0.16860 0.95741 0.77203
 N74 N 0.14630 0.99141 0.77604
 C75 C 0.14149 1.01032 0.81107
 C76 C 0.15929 0.99521 0.84365
 C77 C 0.18760 0.94167 0.80384
 C78 C 0.13144 1.04638 0.66317
 C79 C 0.15095 1.05564 0.62811
 C80 C 0.20575 1.01437 0.64635
 C81 C 0.18524 1.00617 0.68150
 N82 N 0.14834 1.02152 0.68885
 H83 H 0.17048 0.94162 0.74450
 H84 H 0.12250 1.03632 0.81431
 H85 H 0.15375 1.00981 0.87154
 H86 H 0.20489 0.91438 0.80032
 H87 H 0.10264 1.05924 0.66999
 H88 H 0.13703 1.07565 0.60813
 H89 H 0.23479 1.00152 0.64045
 H90 H 0.19884 0.98740 0.70252
 C91 C 0.03174 0.90970 0.69744
 C92 C 0.06069 1.13190 0.77591
 C93 C 0.18811 1.03873 0.61889
 C94 C 0.18305 0.96070 0.84023
 C95 C 0.54458 0.52416 0.32325
 H96 H 0.54221 0.49722 0.34041
 C97 C 0.52609 0.55944 0.33683
 H98 H 0.50996 0.55936 0.36460
 C99 C 0.57209 0.55819 0.26866
 H100 H 0.59126 0.55827 0.24287
 C101 C 0.55272 0.59358 0.28020
 H102 H 0.55668 0.62019 0.26271
 N103 N 0.56911 0.52482 0.29103
 C104 C 0.60639 0.40788 0.24428
 H105 H 0.63718 0.41477 0.23879
 C106 C 0.59026 0.37499 0.22560
 H107 H 0.60875 0.35708 0.20571
 C108 C 0.54428 0.42494 0.27398
 H109 H 0.52620 0.44519 0.29182
 C110 C 0.52727 0.39121 0.25713
 H111 H 0.49610 0.38559 0.26234
 Zn112 Zn 0.60640 0.48276 0.28058
 N113 N 0.58300 0.43330 0.26629
 C114 C 0.67013 0.45101 0.31754
 N115 N 0.63775 0.47463 0.32402
 C116 C 0.62848 0.49008 0.36004
 C117 C 0.64949 0.47806 0.39196
 C118 C 0.69299 0.43987 0.34821
 C119 C 0.62752 0.49162 0.20185
 C120 C 0.65059 0.50379 0.16980
 C121 C 0.69812 0.53032 0.21346
 C122 C 0.67434 0.51722 0.24474
 N123 N 0.63974 0.49840 0.23838
 H124 H 0.67771 0.44005 0.28859
 H125 H 0.60401 0.51040 0.36472
 H126 H 0.64007 0.48799 0.42089
 H127 H 0.71801 0.41998 0.34277
 H128 H 0.59940 0.47752 0.19767
 H129 H 0.64002 0.49951 0.14085
 H130 H 0.72490 0.54662 0.21866
 H131 H 0.68291 0.52311 0.27408
 C132 C 0.54982 0.36743 0.23047
 C133 C 0.53076 0.59503 0.31558
 C134 C 0.68607 0.52365 0.17560
 C135 C 0.68096 0.45114 0.38621
 C136 C 0.88124 0.47760 0.82310
 H137 H 0.86294 0.49398 0.84417
 C138 C 0.90276 0.44445 0.83504
 H139 H 0.90045 0.43506 0.86505
 C140 C 0.90713 0.46937 0.75857
 H141 H 0.90799 0.47874 0.72858
 C142 C 0.92902 0.43598 0.76923
 H143 H 0.94705 0.41981 0.74758
 N144 N 0.88207 0.48803 0.78496
 C145 C 0.85163 0.60222 0.73186
 H146 H 0.81989 0.60158 0.73140
 C147 C 0.87163 0.63447 0.71515
 H148 H 0.85535 0.65765 0.70074
 C149 C 0.91180 0.57315 0.75047
 H150 H 0.92750 0.54914 0.76403
 C151 C 0.93303 0.60490 0.73398
 H152 H 0.96494 0.60483 0.73414
 Zn153 Zn 0.84453 0.52488 0.76537
 N154 N 0.87186 0.57164 0.74805
 C155 C 0.79903 0.57721 0.81504
 N156 N 0.80598 0.53812 0.80540
 C157 C 0.78986 0.50817 0.82736
 C158 C 0.77059 0.51703 0.86316
 C159 C 0.77756 0.58737 0.84899
 C160 C 0.80530 0.52056 0.69295
 C161 C 0.79715 0.50198 0.65770
 C162 C 0.81981 0.43935 0.68348
 C163 C 0.82633 0.45881 0.71850
 N164 N 0.82126 0.49920 0.72203
 H165 H 0.81200 0.60089 0.79795
 H166 H 0.79553 0.47725 0.81909
 H167 H 0.76235 0.49275 0.88244
 H168 H 0.77357 0.61876 0.85656
 H169 H 0.79976 0.55217 0.69625
 H170 H 0.78482 0.51942 0.63473
 H171 H 0.82605 0.40755 0.68074
 H172 H 0.83700 0.44167 0.74238
 C173 C 0.91275 0.63528 0.71526
 C174 C 0.92566 0.42255 0.80753
 C175 C 0.80628 0.46125 0.65205
 C176 C 0.76515 0.55723 0.87482
 C177 C 0.30132 0.44069 -0.04560
 H178 H 0.31330 0.44642 -0.01754
 C179 C 0.31909 0.45777 -0.07885
 H180 H 0.34459 0.47678 -0.07616
 C181 C 0.25644 0.40565 -0.08411
 H182 H 0.23304 0.38413 -0.08645
 C183 C 0.27394 0.42124 -0.11803
 H184 H 0.26391 0.41150 -0.14597
 N185 N 0.27103 0.41452 -0.04883
 C186 C 0.21425 0.39309 0.06524
 H187 H 0.20794 0.36188 0.05967
 C188 C 0.20134 0.41071 0.10026
 H189 H 0.18426 0.39324 0.12121
 C190 C 0.24357 0.45392 0.04426
 H191 H 0.25982 0.47066 0.02230
 C192 C 0.23198 0.47253 0.07951
 H193 H 0.23940 0.50362 0.08448
 Zn194 Zn 0.25300 0.38360 -0.00552
 N195 N 0.23521 0.41458 0.03820
 C196 C 0.31008 0.35920 0.04502
 N197 N 0.29528 0.35026 0.00997
 C198 C 0.31148 0.32034 -0.01284
 C199 C 0.34231 0.29654 0.00064
 C200 C 0.34089 0.33681 0.05918
 C201 C 0.17679 0.37800 -0.02677
 C202 C 0.14306 0.36168 -0.04182
 C203 C 0.17431 0.29631 -0.04143
 C204 C 0.20763 0.31395 -0.02604
 N205 N 0.20859 0.35436 -0.02032
 H206 H 0.29822 0.38399 0.06219
 H207 H 0.30024 0.31465 -0.04125
 H208 H 0.35434 0.27211 -0.01712
 H209 H 0.35208 0.34445 0.08725
 H210 H 0.17843 0.40999 -0.02177
 H211 H 0.11871 0.38113 -0.04879
 H212 H 0.17431 0.26453 -0.04810
 H213 H 0.23303 0.29567 -0.02018
 C214 C 0.21131 0.45049 0.10829
 C215 C 0.30668 0.44620 -0.11564
 C216 C 0.14212 0.32067 -0.05021
 C217 C 0.35658 0.30425 0.03757
 C218 C 0.79461 0.07743 1.03607
 H219 H 0.80928 0.07027 1.00838
 C220 C 0.80678 0.05863 1.06975
 H221 H 0.83101 0.03731 1.06793
 C222 C 0.74716 0.11583 1.07275
 H223 H 0.72432 0.13851 1.07416
 C224 C 0.75847 0.09789 1.10706
 H225 H 0.74454 0.10723 1.13453
 N226 N 0.76622 0.10655 1.03826
 C227 C 0.73638 0.12353 0.91633
 H228 H 0.74015 0.15549 0.91386
 C229 C 0.72204 0.10201 0.88510
 H230 H 0.71494 0.11757 0.85881
 C231 C 0.73771 0.06476 0.95442
 H232 H 0.74241 0.05056 0.98190
 C233 C 0.72353 0.04201 0.92373
 H234 H 0.71755 0.01043 0.92771
 Zn235 Zn 0.75539 0.13822 0.99366
 N236 N 0.74315 0.10498 0.95047
 C237 C 0.79547 0.20183 0.95527
 N238 N 0.79993 0.17057 0.97993
 C239 C 0.83598 0.16117 0.99337
 C240 C 0.86956 0.18160 0.97999
 C241 C 0.82834 0.22324 0.94129
 C242 C 0.67527 0.15966 0.99333
 C243 C 0.64072 0.17907 1.00659
 C244 C 0.67983 0.22449 1.04372
 C245 C 0.71386 0.20428 1.02952
 N246 N 0.71086 0.17171 1.00576
 H247 H 0.76649 0.20965 0.94577
 H248 H 0.83922 0.13701 1.01352
 H249 H 0.89828 0.17259 0.98953
 H250 H 0.82471 0.24690 0.92038
 H251 H 0.67335 0.13340 0.97497
 H252 H 0.61245 0.16753 0.99842
 H253 H 0.68224 0.24853 1.06476
 H254 H 0.74246 0.21301 1.03931
 C255 C 0.71448 0.06104 0.88905
 C256 C 0.78923 0.06965 1.10585
 C257 C 0.64273 0.21112 1.03291
 C258 C 0.86592 0.21249 0.95314
 C259 C 0.30163 0.55535 0.54466
 H260 H 0.31527 0.55625 0.51576
 C261 C 0.31955 0.53351 0.57363
 H262 H 0.34681 0.51743 0.56677
 C263 C 0.25238 0.57909 0.59013
 H264 H 0.22727 0.59834 0.59694
 C265 C 0.26960 0.55800 0.62005
 H266 H 0.25763 0.56116 0.64954
 N267 N 0.26935 0.57856 0.55358
 C268 C 0.21926 0.62281 0.44724
 H269 H 0.21230 0.65245 0.45853
 C270 C 0.20700 0.61209 0.41070
 H271 H 0.19150 0.63387 0.39374
 C272 C 0.24634 0.55808 0.45636
 H273 H 0.26124 0.53708 0.47451
 C274 C 0.23375 0.54574 0.41993
 H275 H 0.23896 0.51516 0.41014
 Zn276 Zn 0.25370 0.61793 0.51743
 N277 N 0.23947 0.59640 0.46891
 C278 C 0.29757 0.67803 0.47703
 N279 N 0.29594 0.65494 0.50942
 C280 C 0.32543 0.65599 0.53501
 C281 C 0.35881 0.67961 0.52759
 C282 C 0.33038 0.70172 0.46839
 C283 C 0.17467 0.62223 0.53947
 C284 C 0.13879 0.64004 0.55098
 C285 C 0.17245 0.70335 0.55731
 C286 C 0.20777 0.68433 0.54551
 N287 N 0.20813 0.64445 0.53709
 H288 H 0.27427 0.67717 0.45686
 H289 H 0.32358 0.63776 0.56078
 H290 H 0.38257 0.67916 0.54759
 H291 H 0.33199 0.71803 0.44133
 H292 H 0.17596 0.59066 0.53206
 H293 H 0.11232 0.62211 0.55334
 H294 H 0.17221 0.73499 0.56463
 H295 H 0.23475 0.70133 0.54289
 C296 C 0.21449 0.57332 0.39644
 C297 C 0.30448 0.53630 0.61212
 C298 C 0.13767 0.68095 0.55999
 C299 C 0.36174 0.70245 0.49357
 C300 C 0.76240 0.96563 0.45059
 H301 H 0.75258 0.98055 0.47725
 C302 C 0.77612 0.98829 0.41872
 H303 H 0.77697 1.02067 0.42087
 C304 C 0.77662 0.90528 0.41574
 H305 H 0.77762 0.87286 0.41518
 C306 C 0.79028 0.92657 0.38345
 H307 H 0.80207 0.91052 0.35804
 N308 N 0.76332 0.92485 0.44852
 C309 C 0.75426 0.90495 0.57044
 H310 H 0.77686 0.88205 0.56907
 C311 C 0.74212 0.92064 0.60657
 H312 H 0.75608 0.91027 0.63237
 C313 C 0.70605 0.94352 0.53949
 H314 H 0.69143 0.95139 0.51330
 C315 C 0.69270 0.95982 0.57533
 H316 H 0.66768 0.98018 0.57669
 Zn317 Zn 0.75171 0.88980 0.49026
 N318 N 0.73645 0.91663 0.53766
 C319 C 0.82940 0.88450 0.51044
 N320 N 0.79949 0.86173 0.49751
 C321 C 0.80431 0.82175 0.49089
 C322 C 0.83986 0.80288 0.49942
 C323 C 0.86457 0.86667 0.52094
 C324 C 0.69041 0.86206 0.44418
 C325 C 0.65764 0.83929 0.43532
 C326 C 0.66490 0.80243 0.49463
 C327 C 0.69789 0.82582 0.50229
 N328 N 0.70992 0.85505 0.47717
 H329 H 0.82488 0.91637 0.51492
 H330 H 0.78044 0.80440 0.47971
 H331 H 0.84298 0.77084 0.49485
 H332 H 0.88637 0.88493 0.53462
 H333 H 0.69937 0.88619 0.42517
 H334 H 0.64203 0.84573 0.40929
 H335 H 0.65489 0.77998 0.51524
 H336 H 0.71335 0.82138 0.52874
 C337 C 0.71085 0.94819 0.60938
 C338 C 0.79079 0.96842 0.38502
 C339 C 0.64446 0.80921 0.46072
 C340 C 0.87024 0.82523 0.51571
 C341 C -0.01343 0.30342 0.44090
 H342 H 0.01212 0.32264 0.43976
 C343 C -0.04673 0.31467 0.46383
 H344 H -0.04684 0.34287 0.47961
 C345 C -0.04679 0.24653 0.41755
 H346 H -0.04769 0.22091 0.39837
 C347 C -0.08037 0.25624 0.44053
 H348 H -0.10683 0.23860 0.43802
 N349 N -0.01482 0.27110 0.41664
 C350 C 0.09755 0.22306 0.37445
 H351 H 0.08910 0.21521 0.34549
 C352 C 0.13257 0.20792 0.38818
 H353 H 0.15048 0.18782 0.36988
 C354 C 0.08326 0.25676 0.43421
 H355 H 0.06368 0.27534 0.45222
 C356 C 0.11856 0.24280 0.44893
 H357 H 0.12593 0.25080 0.47824
 Zn358 Zn 0.02526 0.26272 0.37665
 N359 N 0.07339 0.24649 0.39761
 C360 C 0.06487 0.30918 0.32006
 N361 N 0.03442 0.31018 0.34706
 C362 C 0.01309 0.34444 0.35395
 C363 C 0.02392 0.38007 0.33529
 C364 C 0.07638 0.34399 0.30046
 C365 C 0.01006 0.18286 0.35700
 C366 C -0.00784 0.15190 0.33700
 C367 C -0.02759 0.19994 0.28923
 C368 C -0.00922 0.23006 0.31013
 N369 N 0.00826 0.22116 0.34382
 H370 H 0.08117 0.28162 0.31470
 H371 H -0.01169 0.34462 0.37463
 H372 H 0.00800 0.40759 0.34235
 H373 H 0.10176 0.34321 0.28034
 H374 H 0.02358 0.17677 0.38421
 H375 H -0.00804 0.12188 0.34875
 H376 H -0.04324 0.20746 0.26351
 H377 H -0.01071 0.26081 0.30059
 C378 C 0.14361 0.21789 0.42579
 C379 C -0.08124 0.29195 0.46210
 C380 C -0.02783 0.16067 0.30341
 C381 C 0.05631 0.38006 0.30873
 C382 C 1.01772 0.79016 0.05520
 H383 H 0.98770 0.79870 0.04963
 C384 C 1.04887 0.80541 0.03205
 H385 H 1.04270 0.82518 0.00826
 C386 C 1.06277 0.75683 0.09488
 H387 H 1.06822 0.73927 0.12032
 C388 C 1.09469 0.77222 0.07312
 H389 H 1.12444 0.76606 0.08177
 N390 N 1.02520 0.76686 0.08630
 C391 C 0.90826 0.72887 0.12847
 H392 H 0.91180 0.73600 0.15879
 C393 C 0.87263 0.71368 0.11648
 H394 H 0.84870 0.70867 0.13765
 C395 C 0.93561 0.72576 0.06402
 H396 H 0.96048 0.72994 0.04390
 C397 C 0.90044 0.70998 0.05081
 H398 H 0.89821 0.70206 0.02046
 Zn399 Zn 0.98442 0.75621 0.12388
 N400 N 0.93864 0.73511 0.10228
 C401 C 0.93701 0.82435 0.13888
 N402 N 0.97144 0.80626 0.14809
 C403 C 0.99774 0.82544 0.17040
 C404 C 0.98894 0.86362 0.18578
 C405 C 0.92733 0.86252 0.15317
 C406 C 1.01062 0.68068 0.14074
 C407 C 1.02851 0.64991 0.16082
 C408 C 1.02773 0.69262 0.21780
 C409 C 1.00957 0.72275 0.19655
 N410 N 1.00265 0.71665 0.15832
 H411 H 0.91725 0.80964 0.11968
 H412 H 1.02564 0.81124 0.17603
 H413 H 1.00959 0.87841 0.20414
 H414 H 0.89966 0.87639 0.14595
 H415 H 1.00466 0.67661 0.11039
 H416 H 1.03667 0.62224 0.14580
 H417 H 1.03528 0.69832 0.24754
 H418 H 1.00248 0.75131 0.21018
 C419 C 0.86846 0.70429 0.07726
 C420 C 1.08784 0.79813 0.04234
 C421 C 1.03819 0.65614 0.19942
 C422 C 0.95340 0.88241 0.17692
 C423 C 0.56750 0.25007 0.53881
 H424 H 0.54039 0.25869 0.52571
 C425 C 0.60320 0.26580 0.52443
 H426 H 0.60329 0.28608 0.50005
 C427 C 0.60004 0.21881 0.59017
 H428 H 0.59854 0.20258 0.61715
 C429 C 0.63610 0.23475 0.57737
 H430 H 0.66181 0.23057 0.59452
 N431 N 0.56643 0.22755 0.57153
 C432 C 0.44496 0.18619 0.59111
 H433 H 0.44553 0.18859 0.62239
 C434 C 0.41182 0.17067 0.57410
 H435 H 0.38708 0.16075 0.59238
 C436 C 0.47694 0.19566 0.52944
 H437 H 0.50256 0.20463 0.51216
 C438 C 0.44374 0.18137 0.51111
 H439 H 0.44378 0.18036 0.47971
 Zn440 Zn 0.51809 0.21704 0.59901
 N441 N 0.47673 0.19812 0.56884
 C442 C 0.46894 0.28423 0.61101
 N443 N 0.50160 0.26544 0.62377
 C444 C 0.52317 0.28192 0.65217
 C445 C 0.51084 0.31784 0.67030
 C446 C 0.45578 0.32012 0.62810
 C447 C 0.54471 0.14285 0.61846
 C448 C 0.55338 0.11016 0.64129
 C449 C 0.52180 0.14431 0.69649
 C450 C 0.51505 0.17728 0.67273
 N451 N 0.52681 0.17586 0.63454
 H452 H 0.45285 0.27131 0.58766
 H453 H 0.54947 0.26674 0.66122
 H454 H 0.52705 0.32995 0.69406
 H455 H 0.42892 0.33405 0.61870
 H456 H 0.55329 0.14253 0.58788
 H457 H 0.56982 0.08520 0.62828
 H458 H 0.51228 0.14556 0.72685
 H459 H 0.50010 0.20365 0.68459
 C460 C 0.41104 0.16777 0.53365
 C461 C 0.63741 0.26013 0.54535
 C462 C 0.54122 0.11016 0.68069
 C463 C 0.47650 0.33687 0.65842
 C464 C 0.44295 0.78058 0.93485
 H465 H 0.47013 0.79384 0.94382
 C466 C 0.40678 0.79656 0.94863
 H467 H 0.40615 0.82178 0.96865
 C468 C 0.41030 0.73339 0.89596
 H469 H 0.41168 0.70968 0.87444
 C470 C 0.37355 0.74873 0.90870
 H471 H 0.34688 0.73631 0.89745
 N472 N 0.44412 0.74932 0.90921
 C473 C 0.56151 0.69598 0.90773
 H474 H 0.56323 0.69073 0.87672
 C475 C 0.59172 0.68244 0.93028
 H476 H 0.61626 0.66595 0.91665
 C477 C 0.52712 0.72359 0.96313
 H478 H 0.50186 0.73956 0.97569
 C479 C 0.55766 0.71176 0.98672
 H480 H 0.55577 0.71854 1.01752
 Zn481 Zn 0.49366 0.73168 0.88731
 N482 N 0.52973 0.71548 0.92434
 C483 C 0.54206 0.79764 0.88209
 N484 N 0.51694 0.77555 0.86098
 C485 C 0.50780 0.78658 0.82452
 C486 C 0.52679 0.81921 0.80685
 C487 C 0.56061 0.83104 0.86609
 C488 C 0.47078 0.65385 0.87478
 C489 C 0.46425 0.61788 0.85538
 C490 C 0.49346 0.64660 0.79692
 C491 C 0.49951 0.68222 0.81754
 N492 N 0.48703 0.68554 0.85553
 H493 H 0.54743 0.78969 0.91171
 H494 H 0.48595 0.77010 0.80911
 H495 H 0.52024 0.82715 0.77741
 H496 H 0.58024 0.84848 0.88344
 H497 H 0.46217 0.65691 0.90524
 H498 H 0.44974 0.59346 0.87065
 H499 H 0.50197 0.64458 0.76633
 H500 H 0.51420 0.70688 0.80315
 C501 C 0.58984 0.68987 0.97030
 C502 C 0.37165 0.78063 0.93532
 C503 C 0.47523 0.61425 0.81594
 C504 C 0.55427 0.84120 0.82754
 C505 C 0.44141 -0.19089 0.32723
 C506 C 0.45376 -0.22044 0.35203
 C507 C 0.49146 -0.22044 0.36796
 C508 C 0.51981 -0.19269 0.35059
 C509 C 0.50649 -0.16194 0.32535
 C510 C 0.46662 -0.16035 0.31509
 C511 C 0.53395 -0.13460 0.30927
 N512 N 0.57254 -0.13797 0.31684
 N513 N 0.58562 -0.16728 0.33880
 C514 C 0.56107 -0.19479 0.35518
 H515 H 0.41108 -0.19116 0.31855
 H516 H 0.43192 -0.24190 0.36085
 H517 H 0.52543 -0.11123 0.28973
 H518 H 0.57525 -0.21819 0.37032
 C519 C 0.98151 0.38628 0.83383
 C520 C 1.00025 0.35177 0.84580
 C521 C 0.98341 0.31305 0.84236
 C522 C 0.94538 0.31127 0.82512
 C523 C 0.92602 0.34716 0.81398
 C524 C 0.94450 0.38458 0.81844
 C525 C 0.88843 0.34461 0.79841
 N526 N 0.87172 0.30839 0.79304
 N527 N 0.89023 0.27463 0.80185
 C528 C 0.92630 0.27483 0.81729
 H529 H 0.99570 0.41497 0.83771
 H530 H 1.02734 0.35700 0.86001
 H531 H 0.87226 0.37107 0.79024
 H532 H 0.94013 0.24632 0.82154
 C533 C 0.05136 1.17498 0.83300
 C534 C 0.03868 1.20961 0.85191
 C535 C 0.01888 1.24120 0.83308
 C536 C 0.01598 1.23713 0.79127
 C537 C 0.02735 1.20000 0.77270
 C538 C 0.04507 1.16927 0.79394
 C539 C 0.02202 1.19486 0.73273
 N540 N 0.00828 1.22550 0.71167
 N541 N 0.00023 1.26103 0.72784
 C542 C 0.00417 1.26805 0.76625
 H543 H 0.06570 1.15187 0.84939
 H544 H 0.04266 1.21061 0.88287
 H545 H 0.02920 1.16691 0.71788
 H546 H -0.00000 1.29847 0.77526
 C547 C 0.54387 0.66590 0.33192
 C548 C 0.53520 0.70160 0.35132
 C549 C 0.50063 0.70712 0.37507
 C550 C 0.46997 0.67731 0.37055
 C551 C 0.47905 0.64087 0.34959
 C552 C 0.51714 0.63435 0.33241
 C553 C 0.44910 0.61249 0.34458
 N554 N 0.41228 0.61941 0.35956
 N555 N 0.40316 0.65320 0.37851
 C556 C 0.43014 0.68222 0.38396
 H557 H 0.57280 0.66246 0.31773
 H558 H 0.55790 0.72383 0.35017
 H559 H 0.45415 0.58534 0.32776
 H560 H 0.41867 0.70876 0.39770
 C561 C 0.54702 0.29881 0.20229
 C562 C 0.53318 0.27060 0.17631
 C563 C 0.50095 0.27822 0.15262
 C564 C 0.48362 0.31808 0.15573
 C565 C 0.50009 0.34780 0.18036
 C566 C 0.53111 0.33746 0.20477
 C567 C 0.48673 0.38784 0.17830
 N568 N 0.45634 0.39743 0.15623
 N569 N 0.43866 0.36862 0.13467
 C570 C 0.45189 0.32915 0.13301
 H571 H 0.57142 0.29060 0.21995
 H572 H 0.54830 0.24194 0.17465
 H573 H 0.50044 0.41209 0.19342
 H574 H 0.43178 0.35228 0.12561
 C575 C 0.04687 0.84685 0.66388
 C576 C 0.03729 0.81183 0.64509
 C577 C -0.00225 0.79899 0.64131
 C578 C -0.03259 0.82606 0.65679
 C579 C -0.02211 0.86298 0.67494
 C580 C 0.01787 0.87267 0.67887
 C581 C -0.05208 0.88912 0.68911
 N582 N -0.09036 0.87906 0.68590
 N583 N -0.10053 0.84446 0.66987
 C584 C -0.07322 0.81779 0.65553
 H585 H 0.07775 0.85451 0.66577
 H586 H 0.06239 0.79606 0.63227
 H587 H -0.04538 0.91741 0.70282
 H588 H -0.08394 0.78987 0.64492
 C589 C 0.93926 0.70311 0.70509
 C590 C 0.95633 0.73263 0.68183
 C591 C 0.96825 0.72546 0.64245
 C592 C 0.96208 0.68541 0.62744
 C593 C 0.94609 0.65514 0.65210
 C594 C 0.93418 0.66453 0.69076
 C595 C 0.94125 0.61616 0.63697
 N596 N 0.95069 0.60814 0.59922
 N597 N 0.96403 0.63659 0.57546
 C598 C 0.96958 0.67463 0.58805
 H599 H 0.93008 0.71044 0.73480
 H600 H 0.96117 0.76091 0.69604
 H601 H 0.92975 0.59196 0.65468
 H602 H 0.97783 0.69608 0.56637
 C603 C 0.46807 0.15886 0.19543
 C604 C 0.47970 0.19536 0.17947
 C605 C 0.48096 0.20210 0.13885
 C606 C 0.47204 0.16812 0.11438
 C607 C 0.45960 0.13128 0.13119
 C608 C 0.45723 0.12708 0.17186
 C609 C 0.45029 0.09899 0.10666
 N610 N 0.45403 0.10287 0.06769
 N611 N 0.46683 0.13668 0.05163
 C612 C 0.47618 0.16896 0.07340
 H613 H 0.46609 0.15589 0.22673
 H614 H 0.48538 0.21883 0.20006
 H615 H 0.44061 0.07042 0.11804
 H616 H 0.48811 0.19407 0.05797
 C617 C 0.31670 0.47651 -0.18095
 C618 C 0.33876 0.48303 -0.21536
 C619 C 0.37715 0.46668 -0.22214
 C620 C 0.39316 0.44411 -0.19064
 C621 C 0.36989 0.43678 -0.15611
 C622 C 0.33178 0.45380 -0.15111
 C623 C 0.38516 0.41141 -0.12767
 N624 N 0.42200 0.39612 -0.13234
 N625 N 0.44438 0.40382 -0.16383
 C626 C 0.43124 0.42691 -0.19275
 H627 H 0.28747 0.48964 -0.17746
 H628 H 0.32540 0.50217 -0.23625
 H629 H 0.36818 0.40294 -0.10191
 H630 H 0.45041 0.42982 -0.21743
 C631 C 0.79266 0.99622 0.31886
 C632 C 0.81329 1.00867 0.28541
 C633 C 0.85480 1.01370 0.28382
 C634 C 0.87457 1.00792 0.31983
 C635 C 0.85266 0.99727 0.35430
 C636 C 0.81187 0.98993 0.35317
 C637 C 0.87257 0.99251 0.38904
 N638 N 0.91212 0.99689 0.38924
 N639 N 0.93316 1.00491 0.35691
 C640 C 0.91598 1.01000 0.32251
 H641 H 0.76130 0.99065 0.31773
 H642 H 0.79571 1.01437 0.26072
 H643 H 0.85711 0.98520 0.41609
 H644 H 0.93545 1.01330 0.29757
 C645 C 0.82548 0.08624 1.16373
 C646 C 0.84576 0.07675 1.19648
 C647 C 0.84806 0.03713 1.21111
 C648 C 0.82687 0.00690 1.19027
 C649 C 0.80724 0.01696 1.15569
 C650 C 0.80699 0.05688 1.14243
 C651 C 0.78788 -0.01334 1.13548
 N652 N 0.78763 -0.05133 1.14894
 N653 N 0.80513 -0.06091 1.18141
 C654 C 0.82439 -0.03332 1.20245
 H655 H 0.82586 0.11700 1.15377
 H656 H 0.86162 0.10144 1.20840
 H657 H 0.77260 -0.00711 1.10927
 H658 H 0.83627 -0.04322 1.22909
 C659 C 0.31868 0.48997 0.66604
 C660 C 0.34231 0.47625 0.69534
 C661 C 0.37776 0.49536 0.70501
 C662 C 0.39065 0.52803 0.67979
 C663 C 0.36464 0.54354 0.65202
 C664 C 0.32923 0.52354 0.64439
 C665 C 0.37512 0.57866 0.63163
 N666 N 0.41101 0.59503 0.63544
 N667 N 0.43718 0.57850 0.65804
 C668 C 0.42866 0.54562 0.67953
 H669 H 0.29189 0.47399 0.66005
 H670 H 0.33212 0.45023 0.71082
 H671 H 0.35525 0.59317 0.61239
 H672 H 0.45274 0.53376 0.69481
 C673 C 0.16010 0.56804 0.35198
 C674 C 0.14411 0.55865 0.31687
 C675 C 0.16656 0.54100 0.28552
 C676 C 0.20907 0.53986 0.28942
 C677 C 0.22501 0.54895 0.32633
 C678 C 0.19996 0.56192 0.35787
 C679 C 0.26610 0.54673 0.33032
 N680 N 0.29024 0.53713 0.29947
 N681 N 0.27616 0.53048 0.26470
 C682 C 0.23704 0.53215 0.25851
 H683 H 0.14063 0.57933 0.37536
 H684 H 0.11247 0.56211 0.31557
 H685 H 0.27957 0.55350 0.35739
 H686 H 0.22955 0.52946 0.22886
 C687 C 0.71164 0.03132 0.82321
 C688 C 0.69145 0.01466 0.79274
 C689 C 0.65042 0.00671 0.79560
 C690 C 0.63046 0.01595 0.83258
 C691 C 0.65181 0.03182 0.86393
 C692 C 0.69248 0.03992 0.85883
 C693 C 0.63138 0.04066 0.89948
 N694 N 0.59211 0.03454 0.90348
 N695 N 0.57173 0.02095 0.87416
 C696 C 0.58931 0.01198 0.83914
 H697 H 0.74282 0.03754 0.81892
 H698 H 0.70907 0.00755 0.76681
 H699 H 0.64603 0.05282 0.92412
 H700 H 0.57019 0.00413 0.81659
 C701 C 0.68029 0.93007 0.67254
 C702 C 0.66225 0.93865 0.70843
 C703 C 0.65744 0.97832 0.72320
 C704 C 0.67451 1.00971 0.69917
 C705 C 0.69224 1.00042 0.66176
 C706 C 0.69435 0.96034 0.64835
 C707 C 0.70800 1.03164 0.63888
 N708 N 0.70625 1.06987 0.65222
 N709 N 0.69021 1.07887 0.68705
 C710 C 0.67462 1.05038 0.71080
 H711 H 0.68163 0.89911 0.66271
 H712 H 0.64945 0.91301 0.72262
 H713 H 0.72210 1.02603 0.61064
 H714 H 0.66387 1.06013 0.73896
 C715 C 0.17540 0.50420 0.14443
 C716 C 0.15873 0.52159 0.17792
 C717 C 0.16422 0.50580 0.21545
 C718 C 0.18773 0.46962 0.21709
 C719 C 0.20521 0.45237 0.18239
 C720 C 0.19808 0.46945 0.14583
 C721 C 0.23027 0.41880 0.18538
 N722 N 0.23637 0.40252 0.22044
 N723 N 0.21974 0.41797 0.25282
 C724 C 0.19602 0.45077 0.25238
 H725 H 0.16891 0.51723 0.11669
 H726 H 0.13932 0.54645 0.17291
 H727 H 0.24570 0.40565 0.16030
 H728 H 0.18581 0.46260 0.27996
 C729 C -0.13669 0.30890 0.50875
 C730 C -0.17218 0.32834 0.51849
 C731 C -0.19265 0.35208 0.49186
 C732 C -0.17329 0.35721 0.45340
 C733 C -0.13826 0.33474 0.44338
 C734 C -0.11975 0.31150 0.47151
 C735 C -0.12133 0.33694 0.40527
 N736 N -0.13671 0.36162 0.37906
 N737 N -0.16737 0.38496 0.38854
 C738 C -0.18539 0.38428 0.42430
 H739 H -0.12238 0.29146 0.53056
 H740 H -0.18411 0.32436 0.54779
 H741 H -0.09558 0.31969 0.39591
 H742 H -0.20719 0.40703 0.42857
 C743 C 0.31354 0.82119 0.92001
 C744 C 0.28010 0.84365 0.93053
 C745 C 0.26411 0.84526 0.96929
 C746 C 0.28171 0.81826 0.99641
 C747 C 0.31678 0.79644 0.98544
 C748 C 0.33321 0.79914 0.94734
 C749 C 0.33440 0.77197 1.01299
 N750 N 0.31766 0.76863 1.04910
 N751 N 0.28440 0.78790 1.05936
 C752 C 0.26591 0.81216 1.03444
 H753 H 0.32561 0.82301 0.89046
 H754 H 0.26969 0.86246 0.90789
 H755 H 0.36104 0.75498 1.00600
 H756 H 0.23848 0.82521 1.04470
 C757 C 1.15179 0.79901 0.00522
 C758 C 1.18586 0.81793 -0.00876
 C759 C 1.19215 0.85957 -0.00327
 C760 C 1.15892 0.88248 0.01256
 C761 C 1.12453 0.86274 0.02768
 C762 C 1.12134 0.82060 0.02421
 C763 C 1.09471 0.88590 0.04705
 N764 N 1.09783 0.92623 0.04902
 N765 N 1.12906 0.94497 0.03361
 C766 C 1.15939 0.92457 0.01572
 H767 H 1.14938 0.76683 0.00157
 H768 H 1.20750 0.79890 -0.02371
 H769 H 1.06901 0.87259 0.06102
 H770 H 1.18385 0.94164 0.00541
 C771 C 0.70806 0.27373 0.52864
 C772 C 0.73947 0.29985 0.52171
 C773 C 0.73445 0.34198 0.52433
 C774 C 0.69667 0.35661 0.54016
 C775 C 0.66544 0.32947 0.54831
 C776 C 0.67070 0.28823 0.54011
 C777 C 0.62962 0.34430 0.56545
 N778 N 0.62481 0.38389 0.57279
 N779 N 0.65356 0.40967 0.56478
 C780 C 0.68893 0.39755 0.54911
 H781 H 0.71274 0.24186 0.52400
 H782 H 0.76691 0.28630 0.51148
 H783 H 0.60551 0.32486 0.57392
 H784 H 0.71059 0.42042 0.54552
 C785 C 0.33897 0.16810 0.52574
 C786 C 0.30468 0.15347 0.51039
 C787 C 0.30496 0.12152 0.48306
 C788 C 0.34353 0.10896 0.46736
 C789 C 0.37793 0.12049 0.48690
 C790 C 0.37565 0.15119 0.51539
 C791 C 0.41401 0.10123 0.47677
 N792 N 0.41716 0.07744 0.44487
 N793 N 0.38670 0.07196 0.42252
 C794 C 0.35061 0.08766 0.43204
 H795 H 0.33662 0.19229 0.54689
 H796 H 0.27711 0.16597 0.52203
 H797 H 0.43990 0.10525 0.49353
 H798 H 0.32890 0.08446 0.41063
 C799 C 0.83345 0.64444 0.05685
 C800 C 0.79959 0.62340 0.04947
 C801 C 0.76190 0.64195 0.04823
 C802 C 0.75935 0.68346 0.06078
 C803 C 0.79483 0.70511 0.06695
 C804 C 0.83176 0.68519 0.06507
 C805 C 0.79244 0.74627 0.07601
 N806 N 0.75686 0.76428 0.08174
 N807 N 0.72363 0.74374 0.07946
 C808 C 0.72361 0.70423 0.06995
 H809 H 0.86134 0.62842 0.05689
 H810 H 0.80325 0.59183 0.04316
 H811 H 0.81859 0.76421 0.07902
 H812 H 0.69543 0.68996 0.07155
 C813 C 0.66003 0.68422 0.98389
 C814 C 0.69172 0.66504 0.99970
 C815 C 0.68739 0.63441 1.02777
 C816 C 0.64702 0.62385 1.03995
 C817 C 0.61461 0.64359 1.02240
 C818 C 0.62152 0.67342 0.99405
 C819 C 0.57568 0.63156 1.03223
 N820 N 0.56877 0.60295 1.05897
 N821 N 0.59817 0.58472 1.07590
 C822 C 0.63635 0.59371 1.06728
 H823 H 0.66576 0.70680 0.96197
 H824 H 0.72072 0.67415 0.98907
 H825 H 0.55036 0.64409 1.01877
 H826 H 0.65650 0.57499 1.08126
 C827 C 0.17478 0.17876 0.47696
 C828 C 0.20347 0.15213 0.48854
 C829 C 0.23643 0.14104 0.46387
 C830 C 0.24438 0.16713 0.43131
 C831 C 0.21548 0.19571 0.42054
 C832 C 0.17899 0.19853 0.44166
 C833 C 0.22396 0.22105 0.38889
 N834 N 0.25871 0.21743 0.36845
 N835 N 0.28546 0.19023 0.37764
 C836 C 0.27944 0.16519 0.40806
 H837 H 0.14805 0.18224 0.49503
 H838 H 0.19793 0.13913 0.51675
 H839 H 0.20354 0.24419 0.38065
 H840 H 0.30222 0.14427 0.41331
 C841 C 0.57141 0.08468 0.73959
 C842 C 0.59200 0.05531 0.75863
 C843 C 0.59637 0.01555 0.74395
 C844 C 0.57362 0.00561 0.71069
 C845 C 0.55083 0.03573 0.69277
 C846 C 0.55269 0.07605 0.70544
 C847 C 0.52674 0.02476 0.66221
 N848 N 0.52708 -0.01340 0.64870
 N849 N 0.54949 -0.04141 0.66406
 C850 C 0.57259 -0.03330 0.69422
 H851 H 0.57295 0.11528 0.75018
 H852 H 0.60792 0.06615 0.78288
 H853 H 0.50732 0.04616 0.64919
 H854 H 0.58840 -0.05809 0.70560
 C855 C 1.04865 0.59271 0.23467
 C856 C 1.07286 0.56163 0.24668
 C857 C 1.11446 0.56201 0.24013
 C858 C 1.13099 0.59899 0.22537
 C859 C 1.10596 0.63092 0.21409
 C860 C 1.06465 0.62692 0.21757
 C861 C 1.12309 0.66604 0.19862
 N862 N 1.16274 0.66926 0.19480
 N863 N 1.18632 0.63958 0.20500
 C864 C 1.17184 0.60492 0.21983
 H865 H 1.01694 0.58972 0.23827
 H866 H 1.05793 0.53706 0.26096
 H867 H 1.10539 0.69109 0.18960
 H868 H 1.19258 0.58226 0.22600
 C869 C 0.92616 0.92158 0.23216
 C870 C 0.90802 0.95549 0.24830
 C871 C 0.90521 0.99231 0.22799
 C872 C 0.92442 0.99316 0.18978
 C873 C 0.94161 0.95751 0.17302
 C874 C 0.94168 0.92159 0.19434
 C875 C 0.95832 0.95870 0.13503
 N876 N 0.95869 0.99349 0.11512
 N877 N 0.94366 1.02710 0.13074
 C878 C 0.92684 1.02817 0.16710
 H879 H 0.92565 0.89404 0.24866
 H880 H 0.89360 0.95045 0.27612
 H881 H 0.97146 0.93236 0.12115
 H882 H 0.91678 1.05681 0.17803
 C883 C 0.46698 0.40965 0.66973
 C884 C 0.44768 0.44212 0.68790
 C885 C 0.41959 0.43746 0.71903
 C886 C 0.40583 0.39669 0.72555
 C887 C 0.42799 0.36384 0.70911
 C888 C 0.45847 0.37061 0.68098
 C889 C 0.41772 0.32440 0.71966
 N890 N 0.38486 0.31766 0.74202
 N891 N 0.36140 0.34767 0.75396
 C892 C 0.37009 0.38636 0.74582
 H893 H 0.48882 0.41511 0.64657
 H894 H 0.45668 0.47131 0.67843
 H895 H 0.43503 0.29872 0.70965
 H896 H 0.34769 0.40754 0.75456
 C897 C 0.42268 0.57852 0.78524
 C898 C 0.40680 0.54585 0.76715
 C899 C 0.42880 0.51070 0.75643
 C900 C 0.47056 0.51145 0.76423
 C901 C 0.48648 0.54599 0.78314
 C902 C 0.46201 0.57897 0.79394
 C903 C 0.52673 0.54677 0.79107
 N904 N 0.55040 0.51555 0.78038
 N905 N 0.53637 0.48364 0.76244
 C906 C 0.49784 0.48059 0.75401
 H907 H 0.40365 0.60383 0.79298
 H908 H 0.37588 0.54855 0.76131
 H909 H 0.53968 0.57207 0.80553
 H910 H 0.49006 0.45349 0.74014
 C911 C -0.03561 0.09937 0.26403
 C912 C -0.05793 0.06823 0.24964
 C913 C -0.09935 0.06605 0.25670
 C914 C -0.11779 0.09899 0.27830
 C915 C -0.09439 0.12994 0.29388
 C916 C -0.05319 0.12994 0.28642
 C917 C -0.11295 0.16012 0.31711
 N918 N -0.15262 0.16054 0.32281
 N919 N -0.17495 0.13294 0.30676
 C920 C -0.15909 0.10264 0.28472
 H921 H -0.00392 0.09893 0.25858
 H922 H -0.04140 0.04458 0.23490
 H923 H -0.09639 0.18350 0.33078
 H924 H -0.17935 0.08280 0.27144
 C925 C 0.09573 0.44025 0.31835
 C926 C 0.11583 0.47399 0.30548
 C927 C 0.11357 0.48851 0.26698
 C928 C 0.08813 0.46678 0.24196
 C929 C 0.06816 0.43158 0.25537
 C930 C 0.07264 0.41826 0.29370
 C931 C 0.04415 0.41052 0.23021
 N932 N 0.03969 0.42372 0.19377
 N933 N 0.05847 0.45767 0.18085
 C934 C 0.08297 0.48016 0.20388
 H935 H 0.09979 0.43002 0.34770
 H936 H 0.13538 0.48634 0.32613
 H937 H 0.02861 0.38377 0.23935
 H938 H 0.06877 0.47442 0.17746
 C939 C 0.55239 0.90631 0.79457
 C940 C 0.56966 0.94052 0.77921
 C941 C 0.61103 0.94659 0.77769
 C942 C 0.63473 0.91529 0.79402
 C943 C 0.61664 0.87983 0.80901
 C944 C 0.57512 0.87586 0.80971
 C945 C 0.64092 0.84855 0.82178
 N946 N 0.68051 0.85288 0.82118
 N947 N 0.69761 0.88599 0.80781
 C948 C 0.67632 0.91688 0.79410
 H949 H 0.52052 0.90405 0.79542
 H950 H 0.54926 0.96279 0.76943
 H951 H 0.62903 0.82027 0.83159
 H952 H 0.69272 0.94102 0.78147
 C953 C 0.70508 0.58508 0.14216
 C954 C 0.71446 0.60557 0.10843
 C955 C 0.72558 0.58547 0.07318
 C956 C 0.73563 0.54362 0.07605
 C957 C 0.72330 0.52242 0.11017
 C958 C 0.70634 0.54348 0.14249
 C959 C 0.72946 0.48079 0.11156
 N960 N 0.74913 0.46173 0.08177
 N961 N 0.76324 0.48166 0.05100
 C962 C 0.75772 0.52174 0.04737
 H963 H 0.69331 0.60177 0.16720
 H964 H 0.70921 0.63739 0.10931
 H965 H 0.71986 0.46345 0.13656
 H966 H 0.77212 0.53553 0.02271
 C967 C 0.24520 1.06637 0.58127
 C968 C 0.26255 1.08211 0.54753
 C969 C 0.24348 1.08207 0.51158
 C970 C 0.20585 1.06193 0.51123
 C971 C 0.18987 1.04344 0.54547
 C972 C 0.20847 1.04816 0.58108
 C973 C 0.15504 1.02098 0.54333
 N974 N 0.13547 1.01978 0.51000
 N975 N 0.14830 1.03977 0.47884
 C976 C 0.18222 1.06100 0.47850
 H977 H 0.26037 1.06938 0.60817
 H978 H 0.29176 1.09372 0.55056
 H979 H 0.14320 1.00430 0.56789
 H980 H 0.18893 1.07814 0.45311
 C981 C 0.18997 0.90297 0.88369
 C982 C 0.20075 0.88532 0.91791
 C983 C 0.22110 0.90611 0.94699
 C984 C 0.22804 0.94849 0.94011
 C985 C 0.22018 0.96498 0.90297
 C986 C 0.19948 0.94255 0.87550
 C987 C 0.23294 1.00408 0.89427
 N988 N 0.24807 1.02733 0.92214
 N989 N 0.25100 1.01410 0.95812
 C990 C 0.24092 0.97621 0.96815
 H991 H 0.17365 0.88531 0.86338
 H992 H 0.19388 0.85387 0.92109
 H993 H 0.23081 1.01650 0.86555
 H994 H 0.24176 0.96980 0.99839
 C995 C 0.71551 0.45339 0.44847
 C996 C 0.73675 0.43483 0.47716
 C997 C 0.74443 0.39305 0.47633
 C998 C 0.72736 0.37001 0.44550
 C999 C 0.70156 0.38866 0.41998
 C1000 C 0.69860 0.43081 0.41933
 C1001 C 0.67979 0.36445 0.39499
 N1002 N 0.68746 0.32471 0.39196
 N1003 N 0.71539 0.30773 0.41224
 C1004 C 0.73589 0.32899 0.43818
 H1005 H 0.71256 0.48575 0.44884
 H1006 H 0.74733 0.45396 0.49971
 H1007 H 0.65687 0.37679 0.37768
 H1008 H 0.75918 0.31343 0.45177
 C1009 C 0.77836 0.40515 0.61615
 C1010 C 0.77086 0.38378 0.58289
 C1011 C 0.78047 0.39814 0.54487
 C1012 C 0.80566 0.43267 0.54316
 C1013 C 0.81498 0.45369 0.57798
 C1014 C 0.79946 0.44060 0.61452
 C1015 C 0.84115 0.48620 0.57525
 N1016 N 0.85641 0.49763 0.54020
 N1017 N 0.84752 0.47855 0.50776
 C1018 C 0.82306 0.44661 0.50820
 H1019 H 0.76766 0.39332 0.64380
 H1020 H 0.75676 0.35534 0.58820
 H1021 H 0.85048 0.50212 0.60063
 H1022 H 0.81736 0.43287 0.48115
 C1023 C 0.25770 -0.08611 0.08636
 C1024 C 0.23759 -0.09922 0.05463
 C1025 C 0.25425 -0.09872 0.01623
 C1026 C 0.29333 -0.08190 0.01153
 C1027 C 0.31305 -0.06680 0.04438
 C1028 C 0.29559 -0.07064 0.08224
 C1029 C 0.34934 -0.04714 0.03815
 N1030 N 0.36603 -0.04464 0.00194
 N1031 N 0.34847 -0.05959 -0.02864
 C1032 C 0.31294 -0.07775 -0.02514
 H1033 H 0.24376 -0.08977 0.11497
 H1034 H 0.20973 -0.11287 0.06201
 H1035 H 0.36433 -0.03288 0.06151
 H1036 H 0.29973 -0.08645 -0.05154
 C1037 C 0.25358 0.05259 0.37387
 C1038 C 0.24654 0.07689 0.40615
 C1039 C 0.26505 0.07023 0.44172
 C1040 C 0.28556 0.03231 0.44510
 C1041 C 0.29168 0.00712 0.41172
 C1042 C 0.27841 0.01951 0.37551
 C1043 C 0.31354 -0.02857 0.41478
 N1044 N 0.32894 -0.03851 0.44896
 N1045 N 0.32476 -0.01460 0.47990
 C1046 C 0.30430 0.02040 0.47898
 H1047 H 0.24227 0.06178 0.34635
 H1048 H 0.22709 0.10186 0.40176
 H1049 H 0.31842 -0.04870 0.39029
 H1050 H 0.30510 0.03902 0.50421
 C1051 C 0.77679 0.59647 0.93386
 C1052 C 0.76831 0.60929 0.97145
 C1053 C 0.73820 0.59208 0.99566
 C1054 C 0.71434 0.56220 0.97738
 C1055 C 0.72105 0.55197 0.93720
 C1056 C 0.75343 0.56838 0.91574
 C1057 C 0.69423 0.52644 0.91939
 N1058 N 0.66448 0.50960 0.94076
 N1059 N 0.65972 0.51674 0.97865
 C1060 C 0.68356 0.54214 0.99742
 H1061 H 0.80170 0.60993 0.91831
 H1062 H 0.78540 0.63468 0.98012
 H1063 H 0.69621 0.52009 0.88860
 H1064 H 0.67882 0.54512 1.02793
 C1065 C 0.07512 0.71643 0.54979
 C1066 C 0.04033 0.73498 0.56319
 C1067 C 0.02981 0.73859 0.60329
 C1068 C 0.05679 0.72101 0.63000
 C1069 C 0.09149 0.70081 0.61568
 C1070 C 0.10079 0.69950 0.57554
 C1071 C 0.11661 0.68283 0.64215
 N1072 N 0.10841 0.68607 0.68075
 N1073 N 0.07711 0.70651 0.69461
 C1074 C 0.05154 0.72425 0.67083
 H1075 H 0.08191 0.71487 0.51881
 H1076 H 0.02126 0.74549 0.54117
 H1077 H 0.14286 0.66639 0.63256
 H1078 H 0.02871 0.74218 0.68459
 C1079 C 0.59052 0.19647 1.08126
 C1080 C 0.55578 0.20454 1.10222
 C1081 C 0.53266 0.23968 1.09668
 C1082 C 0.55136 0.27006 1.07276
 C1083 C 0.58772 0.26153 1.05155
 C1084 C 0.60635 0.22386 1.05504
 C1085 C 0.60454 0.29113 1.02745
 N1086 N 0.58701 0.32756 1.02536
 N1087 N 0.55371 0.33612 1.04553
 C1088 C 0.53556 0.30887 1.06903
 H1089 H 0.60559 0.16825 1.08593
 H1090 H 0.54786 0.18199 1.12331
 H1091 H 0.63166 0.28575 1.01055
 H1092 H 0.50845 0.31773 1.08346
 C1093 C 0.92353 0.20501 0.90853
 C1094 C 0.95602 0.21926 0.88741
 C1095 C 0.96961 0.25930 0.89098
 C1096 C 0.94836 0.28428 0.91941
 C1097 C 0.91404 0.26952 0.93989
 C1098 C 0.90169 0.22975 0.93397
 C1099 C 0.89323 0.29493 0.96638
 N1100 N 0.90615 0.33259 0.97277
 N1101 N 0.93864 0.34632 0.95470
 C1102 C 0.96012 0.32359 0.92868
 H1103 H 0.91423 0.17442 0.90359
 H1104 H 0.96812 0.19829 0.86618
 H1105 H 0.86702 0.28506 0.98240
 H1106 H 0.98684 0.33637 0.91682
 C1107 C 0.43381 0.69963 0.48020
 C1108 C 0.46655 0.71146 0.45780
 C1109 C 0.46562 0.74549 0.43362
 C1110 C 0.43398 0.77383 0.44203
 C1111 C 0.40033 0.76126 0.46496
 C1112 C 0.39919 0.72236 0.48100
 C1113 C 0.36879 0.78824 0.47197
 N1114 N 0.37092 0.82594 0.45794
 N1115 N 0.40257 0.83845 0.43762
 C1116 C 0.43406 0.81410 0.42957
 H1117 H 0.43446 0.67049 0.49382
 H1118 H 0.49105 0.69091 0.45610
 H1119 H 0.34294 0.78004 0.48949
 H1120 H 0.45856 0.82737 0.41395
 C1121 C 0.57282 0.81095 0.45332
 C1122 C 0.53813 0.79521 0.44005
 C1123 C 0.53617 0.75614 0.42408
 C1124 C 0.56919 0.72991 0.43106
 C1125 C 0.60533 0.74680 0.44336
 C1126 C 0.60725 0.78805 0.45283
 C1127 C 0.63864 0.72182 0.44570
 N1128 N 0.63547 0.68189 0.43960
 N1129 N 0.60128 0.66540 0.43125
 C1130 C 0.56820 0.68774 0.42727
 H1131 H 0.57326 0.84218 0.46221
 H1132 H 0.51357 0.81552 0.43926
 H1133 H 0.66706 0.73348 0.45293
 H1134 H 0.54183 0.67161 0.42153
 C1135 C 0.07654 0.28991 -0.05486
 C1136 C 0.04351 0.28036 -0.07552
 C1137 C 0.04144 0.28783 -0.11590
 C1138 C 0.07728 0.30151 -0.13557
 C1139 C 0.11121 0.31004 -0.11422
 C1140 C 0.11005 0.30540 -0.07362
 C1141 C 0.14569 0.32348 -0.13417
 N1142 N 0.14621 0.32838 -0.17308
 N1143 N 0.11450 0.32108 -0.19325
 C1144 C 0.08041 0.30808 -0.17593
 H1145 H 0.07578 0.28552 -0.02372
 H1146 H 0.01962 0.26682 -0.05885
 H1147 H 0.17235 0.32994 -0.11926
 H1148 H 0.05598 0.30445 -0.19393
 C1149 C 0.42499 0.27661 0.03686
 C1150 C 0.45732 0.26340 0.05716
 C1151 C 0.45441 0.25516 0.09748
 C1152 C 0.41501 0.25537 0.11534
 C1153 C 0.38195 0.26449 0.09303
 C1154 C 0.38753 0.27914 0.05497
 C1155 C 0.34376 0.26079 0.11017
 N1156 N 0.33894 0.25243 0.14837
 N1157 N 0.36977 0.24821 0.17053
 C1158 C 0.40728 0.25023 0.15558
 H1159 H 0.42964 0.28650 0.00718
 H1160 H 0.48480 0.26071 0.04061
 H1161 H 0.31775 0.26491 0.09349
 H1162 H 0.43025 0.25013 0.17586
 C1163 C 0.89646 0.77177 0.55636
 C1164 C 0.92439 0.75612 0.58017
 C1165 C 0.96261 0.77278 0.58317
 C1166 C 0.97225 0.80507 0.55688
 C1167 C 0.94343 0.82009 0.53145
 C1168 C 0.90454 0.80480 0.53310
 C1169 C 0.95453 0.84995 0.50464
 N1170 N 0.99128 0.86540 0.50435
 N1171 N 1.01788 0.85258 0.52869
 C1172 C 1.00971 0.82322 0.55468
 H1173 H 0.86701 0.75941 0.55855
 H1174 H 0.91322 0.73286 0.59894
 H1175 H 0.93448 0.86076 0.48346
 H1176 H 1.03338 0.81354 0.57199
   
