data_POSCAR
  _audit_creation_date              2014-09-24
  _audit_creation_method            'ToBaCCo'
  _symmetry_space_group_name_H-M    'P1'
  _symmetry_Int_Tables_number       1
  _symmetry_cell_setting            triclinic
  loop_
  _symmetry_equiv_pos_as_xyz
 x,y,z
_cell_length_a 26.7458
_cell_length_b 26.0133
_cell_length_c 25.9376
_cell_angle_alpha 89.513700
_cell_angle_beta 90.131600
_cell_angle_gamma 90.743600
loop_
  _atom_site_label
  _atom_site_type_symbol
  _atom_site_fract_x
  _atom_site_fract_y
  _atom_site_fract_z
C1 C 0.30150 0.36402 1.36471
 C2 C 0.32571 0.39343 1.32616
 C3 C 0.37124 0.37795 1.30517
 C4 C 0.39490 0.33444 1.32585
 C5 C 0.37146 0.30350 1.36347
 C6 C 0.32470 0.31880 1.38294
 H7 H 0.30803 0.42758 1.31072
 H8 H 0.43126 0.32360 1.31154
 H9 H 0.30811 0.29732 1.41437
 C10 C 1.19626 0.64040 0.87124
 C11 C 1.17144 0.68195 0.89388
 C12 C 1.12674 0.70140 0.87300
 C13 C 1.10667 0.67846 0.82826
 C14 C 1.13055 0.63688 0.80512
 C15 C 1.17428 0.61736 0.82748
 H16 H 1.18749 0.70002 0.92774
 H17 H 1.07339 0.69329 0.81009
 H18 H 1.18967 0.58322 0.81086
 C19 C 0.69138 -0.12850 0.12979
 C20 C 0.67176 -0.10688 0.17529
 C21 C 0.62488 -0.12265 0.19451
 C22 C 0.59666 -0.15931 0.16764
 C23 C 0.61553 -0.18221 0.12299
 C24 C 0.66233 -0.16583 0.10401
 H25 H 0.69128 -0.07657 0.19538
 H26 H 0.56016 -0.16989 0.18235
 H27 H 0.67675 -0.18337 0.06938
 C28 C -0.19655 1.12322 -0.37357
 C29 C -0.17092 1.16631 -0.39465
 C30 C -0.12701 1.18525 -0.37179
 C31 C -0.10741 1.16006 -0.32845
 C32 C -0.13234 1.11739 -0.30653
 C33 C -0.17588 1.09832 -0.33020
 H34 H -0.18438 1.18569 -0.42888
 H35 H -0.07228 1.17333 -0.31227
 H36 H -0.19501 1.06535 -0.31311
 C37 C 0.69918 0.61471 0.60877
 C38 C 0.68017 0.66055 0.58810
 C39 C 0.63746 0.68361 0.60884
 C40 C 0.61364 0.65973 0.65163
 C41 C 0.63277 0.61407 0.67326
 C42 C 0.67542 0.59225 0.65160
 H43 H 0.69939 0.67964 0.55656
 H44 H 0.58196 0.67725 0.66978
 H45 H 0.69053 0.55750 0.66860
 C46 C 0.80313 0.37877 0.11825
 C47 C 0.82556 0.40346 0.16076
 C48 C 0.86973 0.38424 0.18277
 C49 C 0.89324 0.34229 0.15936
 C50 C 0.87076 0.31650 0.11755
 C51 C 0.82499 0.33441 0.09851
 H52 H 0.80768 0.43615 0.17813
 H53 H 0.92808 0.32878 0.17516
 H54 H 0.80698 0.31479 0.06658
 C55 C 0.30999 0.12082 0.88335
 C56 C 0.32631 0.16995 0.89982
 C57 C 0.36331 0.19747 0.87233
 C58 C 0.38451 0.17537 0.82843
 C59 C 0.36961 0.12637 0.81204
 C60 C 0.33275 0.09922 0.83997
 H61 H 0.31112 0.18704 0.93418
 H62 H 0.41366 0.19573 0.80738
 H63 H 0.31947 0.06224 0.82641
 C64 C 0.19337 0.87674 0.38368
 C65 C 0.16936 0.83363 0.40615
 C66 C 0.12581 0.81216 0.38408
 C67 C 0.10512 0.83514 0.34017
 C68 C 0.12849 0.87762 0.31682
 C69 C 0.17173 0.89898 0.33919
 H70 H 0.18480 0.81669 0.44089
 H71 H 0.07172 0.81858 0.32285
 H72 H 0.18706 0.93344 0.32180
 Zn73 Zn 0.06083 0.98191 0.01987
 Zn74 Zn -0.03924 0.96115 -0.02947
 Zn75 Zn -0.03309 1.01162 0.07369
 Zn76 Zn 0.00092 1.06946 -0.01826
 O77 O -0.00268 1.00579 0.01128
 O78 O 0.07075 0.92339 -0.01407
 O79 O -0.09552 0.93675 0.00216
 O80 O 0.00504 0.99004 0.12563
 O81 O -0.00324 0.90601 -0.04899
 O82 O 0.07467 0.96783 0.08597
 O83 O -0.08901 0.97487 0.07778
 O84 O -0.02606 1.11878 0.01970
 O85 O -0.05984 0.99182 -0.08833
 O86 O -0.05118 1.07574 0.08887
 O87 O -0.03001 1.07112 -0.07885
 O88 O 0.06328 1.09155 -0.02936
 O89 O 0.10872 1.02649 -0.00164
 C90 C 0.04233 0.89472 -0.04090
 C91 C -0.11245 0.94566 0.04696
 C92 C 0.04892 0.97235 0.12673
 C93 C -0.04642 1.11743 0.06374
 C94 C -0.05391 1.03766 -0.10478
 C95 C 0.10533 1.07131 -0.02103
 Zn96 Zn 0.46961 0.01297 0.44212
 Zn97 Zn 0.45640 -0.03312 0.54689
 Zn98 Zn 0.55659 -0.03390 0.49591
 Zn99 Zn 0.51477 0.06529 0.53198
 O100 O 0.49937 0.00269 0.50437
 O101 O 0.41070 -0.01852 0.43776
 O102 O 0.48144 -0.09303 0.56859
 O103 O 0.56925 -0.04706 0.42944
 O104 O 0.39781 -0.04941 0.51637
 O105 O 0.50588 -0.00989 0.38932
 O106 O 0.55498 -0.09456 0.52966
 O107 O 0.58044 0.07509 0.54074
 O108 O 0.44239 0.00156 0.60433
 O109 O 0.61110 -0.00029 0.51875
 O110 O 0.48783 0.07275 0.59421
 O111 O 0.49172 0.11870 0.49494
 O112 O 0.45566 0.07890 0.42937
 C113 C 0.38338 -0.04220 0.47026
 C114 C 0.52232 -0.11513 0.55912
 C115 C 0.54642 -0.03464 0.38825
 C116 C 0.61709 0.04506 0.53545
 C117 C 0.45815 0.04477 0.62056
 C118 C 0.46571 0.11965 0.45403
 Zn119 Zn 1.01643 0.43007 0.46762
 Zn120 Zn 1.06966 0.52117 0.51083
 Zn121 Zn 0.96890 0.53352 0.46117
 Zn122 Zn 0.97963 0.47980 0.56346
 O123 O 1.00853 0.49119 0.50062
 O124 O 1.08066 0.41645 0.45378
 O125 O 1.07457 0.58178 0.47971
 O126 O 0.94914 0.50447 0.40153
 O127 O 1.12020 0.48410 0.48632
 O128 O 0.98386 0.42786 0.40718
 O129 O 1.00025 0.59296 0.44389
 O130 O 0.92060 0.50990 0.56866
 O131 O 1.08303 0.53470 0.57716
 O132 O 0.91219 0.55052 0.49380
 O133 O 1.01544 0.50461 0.61648
 O134 O 0.96798 0.41315 0.57633
 O135 O 0.99326 0.37638 0.50442
 C136 C 1.12076 0.44142 0.46307
 C137 C 1.04438 0.60875 0.45363
 C138 C 0.95710 0.46025 0.38316
 C139 C 0.89587 0.53826 0.53828
 C140 C 1.05753 0.52750 0.61785
 C141 C 0.97416 0.37345 0.54906
 Zn142 Zn 0.46943 0.49803 0.92846
 Zn143 Zn 0.46073 0.54791 1.03222
 Zn144 Zn 0.50717 0.44415 1.02207
 Zn145 Zn 0.56136 0.53582 0.98194
 O146 O 0.49951 0.50668 0.99122
 O147 O 0.41166 0.53127 0.92420
 O148 O 0.44137 0.51627 1.09151
 O149 O 0.48262 0.39219 0.98478
 O150 O 0.40403 0.56810 1.00036
 O151 O 0.45410 0.43183 0.91504
 O152 O 0.47550 0.43997 1.08190
 O153 O 0.61130 0.49881 1.00937
 O154 O 0.49336 0.60602 1.05060
 O155 O 0.57071 0.42959 1.03756
 O156 O 0.56660 0.59657 1.01223
 O157 O 0.57591 0.54789 0.91543
 O158 O 0.50673 0.52222 0.87564
 C159 C 0.38749 0.55891 0.95537
 C160 C 0.44973 0.47100 1.10789
 C161 C 0.46070 0.39106 0.94143
 C162 C 0.61086 0.45547 1.03226
 C163 C 0.53720 0.62228 1.03984
 C164 C 0.55029 0.54230 0.87457
 C165 C 1.25523 0.38134 0.38355
 C166 C 1.22321 0.35304 0.41236
 C167 C 1.17484 0.37308 0.43015
 C168 C 1.16922 0.42158 0.44583
 H169 H 1.22954 0.31274 0.41982
 H170 H 1.14374 0.34610 0.43286
 H171 H 1.24361 0.41953 0.37194
 H172 H 1.20128 0.44745 0.44701
 C173 C 0.24201 0.62371 0.89303
 C174 C 0.27244 0.58951 0.87074
 C175 C 0.32079 0.57165 0.89157
 C176 C 0.33905 0.58056 0.93897
 H177 H 0.26391 0.57407 0.83328
 H178 H 0.34212 0.54820 0.86545
 H179 H 0.25390 0.64113 0.92882
 H180 H 0.31849 0.60302 0.96642
 C181 C -0.26146 0.88556 0.10878
 C182 C -0.22778 0.91629 0.13228
 C183 C -0.17879 0.93273 0.11103
 C184 C -0.16080 0.92284 0.06376
 H185 H -0.23467 0.93081 0.17036
 H186 H -0.15664 0.95638 0.13687
 H187 H -0.25174 0.86954 0.07184
 H188 H -0.18174 0.89964 0.03667
 C189 C 0.75745 0.10482 0.60680
 C190 C 0.72826 0.13103 0.57375
 C191 C 0.67849 0.11225 0.55757
 C192 C 0.66770 0.06253 0.54978
 H193 H 0.73759 0.16987 0.56197
 H194 H 0.65039 0.14099 0.55001
 H195 H 0.74310 0.06863 0.62212
 H196 H 0.69666 0.03398 0.55333
 C197 C 0.39573 0.25829 0.37979
 C198 C 0.37277 0.21865 0.40378
 C199 C 0.39850 0.17040 0.41665
 C200 C 0.44487 0.16877 0.43621
 H201 H 0.33275 0.21831 0.40946
 H202 H 0.37649 0.13522 0.41422
 H203 H 0.43451 0.25349 0.36883
 H204 H 0.46523 0.20408 0.44428
 C205 C 0.89728 0.23203 0.60658
 C206 C 0.92059 0.26674 0.63646
 C207 C 0.94071 0.31608 0.61670
 C208 C 0.95763 0.32280 0.56854
 H209 H 0.92111 0.26137 0.67789
 H210 H 0.94236 0.34770 0.64359
 H211 H 0.89184 0.24016 0.56595
 H212 H 0.95908 0.29062 0.54240
 C213 C 0.10426 0.74719 -0.10208
 C214 C 0.05895 0.76632 -0.11349
 C215 C 0.03756 0.81303 -0.08971
 C216 C 0.06414 0.84781 -0.06282
 H217 H 0.03487 0.74681 -0.14067
 H218 H -0.00182 0.81961 -0.09649
 H219 H 0.12643 0.76519 -0.07223
 H220 H 0.10380 0.84296 -0.05689
 C221 C 0.58865 0.77562 1.09582
 C222 C 0.55161 0.74699 1.11685
 C223 C 0.53004 0.70067 1.09225
 C224 C 0.55605 0.67147 1.05995
 H225 H 0.53663 0.75602 1.15423
 H226 H 0.49333 0.68795 1.10494
 H227 H 0.60196 0.76630 1.05770
 H228 H 0.59402 0.68211 1.04971
 C229 C 0.39212 0.40640 1.26004
 C230 C 0.41838 0.38241 1.22361
 C231 C 0.43814 0.40590 1.17571
 C232 C 0.42912 0.45359 1.15801
 H233 H 0.42545 0.34173 1.22770
 H234 H 0.46085 0.38056 1.15285
 H235 H 0.38261 0.44644 1.25532
 H236 H 0.40615 0.47977 1.17943
 C237 C 0.60386 -0.10135 0.24250
 C238 C 0.63234 -0.08726 0.28274
 C239 C 0.61163 -0.07066 0.33263
 C240 C 0.56648 -0.04952 0.33778
 H241 H 0.67245 -0.09194 0.28104
 H242 H 0.63547 -0.07500 0.36616
 H243 H 0.56355 -0.10179 0.24624
 H244 H 0.54360 -0.04192 0.30417
 C245 C -0.11425 1.09324 -0.25811
 C246 C -0.09086 1.12104 -0.22176
 C247 C -0.07166 1.10126 -0.17220
 C248 C -0.07526 1.05252 -0.15512
 H249 H -0.08556 1.16198 -0.22765
 H250 H -0.05314 1.12975 -0.14836
 H251 H -0.12272 1.05295 -0.25173
 H252 H -0.09387 1.02315 -0.17760
 C253 C 1.10937 0.61381 0.75751
 C254 C 1.13868 0.59459 0.72053
 C255 C 1.11974 0.57248 0.67190
 C256 C 1.07583 0.54748 0.66763
 H257 H 1.17891 0.59831 0.72395
 H258 H 1.14437 0.57524 0.63887
 H259 H 1.06931 0.61540 0.75160
 H260 H 1.05217 0.54223 0.70115
 C261 C 0.74561 0.59094 0.58928
 C262 C 0.76699 0.60266 0.54369
 C263 C 0.81516 0.58172 0.52586
 C264 C 0.84759 0.55724 0.55656
 H265 H 0.74863 0.62818 0.51685
 H266 H 0.82479 0.58865 0.48583
 H267 H 0.76214 0.56207 0.61391
 H268 H 0.83950 0.55080 0.59689
 C269 C 0.75600 0.39658 1.09422
 C270 C 0.74285 0.44610 1.09166
 C271 C 0.69740 0.46444 1.06465
 C272 C 0.65711 0.43472 1.05487
 H273 H 0.76763 0.47526 1.10736
 H274 H 0.69632 0.50505 1.05517
 H275 H 0.73366 0.36799 1.07431
 H276 H 0.65597 0.39501 1.06756
 C277 C 0.27120 1.09245 -0.09254
 C278 C 0.23724 1.11216 -0.06067
 C279 C 0.19465 1.08024 -0.04287
 C280 C 0.15043 1.10160 -0.03407
 H281 H 0.23727 1.15271 -0.05176
 H282 H 0.19841 1.03881 -0.04082
 H283 H 0.26582 1.05265 -0.10382
 H284 H 0.14629 1.14268 -0.03980
 C285 C 0.23838 -0.10504 0.40606
 C286 C 0.26769 -0.06784 0.38546
 C287 C 0.31639 -0.05093 0.40649
 C288 C 0.33376 -0.06131 0.45398
 H289 H 0.25848 -0.04974 0.34923
 H290 H 0.33883 -0.02732 0.38058
 H291 H 0.25093 -0.12406 0.44092
 H292 H 0.31161 -0.08299 0.48159
 C293 C 0.62219 -0.26946 0.58643
 C294 C 0.58212 -0.24218 0.59977
 C295 C 0.57251 -0.19257 0.57374
 C296 C 0.53164 -0.16544 0.58369
 H297 H 0.55642 -0.25533 0.62928
 H298 H 0.59960 -0.17784 0.54611
 H299 H 0.64511 -0.25378 0.55541
 H300 H 0.50423 -0.18040 0.61086
 C301 C 1.10174 0.76490 0.40487
 C302 C 1.12810 0.72738 0.42726
 C303 C 1.10697 0.67792 0.44566
 C304 C 1.06107 0.65955 0.43448
 H305 H 1.16807 0.73213 0.43219
 H306 H 1.13213 0.65469 0.46856
 H307 H 1.06202 0.76009 0.39845
 H308 H 1.03543 0.68111 0.41069
 C309 C -0.10876 1.27232 0.09532
 C310 C -0.06105 1.25783 0.10076
 C311 C -0.04297 1.21046 0.07706
 C312 C -0.06521 1.16498 0.08623
 H313 H -0.03340 1.28247 0.11879
 H314 H -0.00873 1.21258 0.05486
 H315 H -0.13266 1.24932 0.07039
 H316 H -0.09637 1.16233 0.11281
 C317 C 0.38092 0.24823 0.89128
 C318 C 0.39805 0.28562 0.85964
 C319 C 0.41756 0.33566 0.87797
 C320 C 0.44168 0.34107 0.92294
 H321 H 0.39564 0.28079 0.81830
 H322 H 0.41412 0.36835 0.85213
 H323 H 0.37825 0.25538 0.93226
 H324 H 0.44764 0.30781 0.94750
 C325 C 0.61190 0.58990 0.72077
 C326 C 0.56398 0.59345 0.73529
 C327 C 0.54397 0.56968 0.78328
 C328 C 0.57188 0.56103 0.82549
 H329 H 0.53745 0.61255 0.71033
 H330 H 0.50398 0.56270 0.78487
 H331 H 0.63695 0.56637 0.74345
 H332 H 0.61113 0.57173 0.82573
 C333 C 0.39110 0.10652 0.76366
 C334 C 0.39196 0.05651 0.75135
 C335 C 0.41077 0.03725 0.70166
 C336 C 0.44177 0.06403 0.67074
 H337 H 0.37688 0.02780 0.77757
 H338 H 0.39882 -0.00111 0.69080
 H339 H 0.40613 0.13503 0.73718
 H340 H 0.45632 0.10121 0.68208
 C341 C 0.10722 0.89879 0.26869
 C342 C 0.13593 0.91930 0.23128
 C343 C 0.11572 0.93806 0.18182
 C344 C 0.06934 0.95608 0.17670
 H345 H 0.17624 0.91913 0.23508
 H346 H 0.14065 0.93811 0.14897
 H347 H 0.06744 0.89360 0.26246
 H348 H 0.04521 0.95900 0.20998
 C349 C 0.89028 0.40759 0.23074
 C350 C 0.91574 0.37963 0.26564
 C351 C 0.93778 0.39851 0.31447
 C352 C 0.93426 0.44627 0.33309
 H353 H 0.92073 0.33901 0.25918
 H354 H 0.95795 0.37001 0.33666
 H355 H 0.88225 0.44750 0.23799
 H356 H 0.91374 0.47546 0.31239
   
