data_POSCAR
  _audit_creation_date              2014-09-24
  _audit_creation_method            'ToBaCCo'
  _symmetry_space_group_name_H-M    'P1'
  _symmetry_Int_Tables_number       1
  _symmetry_cell_setting            triclinic
  loop_
  _symmetry_equiv_pos_as_xyz
 x,y,z
_cell_length_a 39.3930
_cell_length_b 20.6892
_cell_length_c 15.9274
_cell_angle_alpha 89.790500
_cell_angle_beta 89.907700
_cell_angle_gamma 90.137500
loop_
  _atom_site_label
  _atom_site_type_symbol
  _atom_site_fract_x
  _atom_site_fract_y
  _atom_site_fract_z
C1 C 0.81501 0.18961 0.42419
 C2 C 0.83080 0.17624 0.50063
 C3 C 0.81505 0.19000 0.57701
 C4 C 0.78237 0.21806 0.57798
 C5 C 0.76595 0.23191 0.50064
 C6 C 0.78231 0.21763 0.42326
 C7 C 0.76556 0.23175 0.34750
 C8 C 0.73339 0.25943 0.34753
 C9 C 0.71677 0.27398 0.42328
 C10 C 0.73313 0.26013 0.50063
 C11 C 0.76569 0.23265 0.65374
 C12 C 0.73351 0.26039 0.65371
 C13 C 0.71677 0.27456 0.57792
 C14 C 0.68410 0.30288 0.57687
 C15 C 0.66835 0.31617 0.50018
 C16 C 0.68418 0.30215 0.42394
 H17 H 0.77727 0.22145 0.28748
 H18 H 0.72160 0.26937 0.28751
 H19 H 0.77748 0.22271 0.71377
 H20 H 0.72181 0.27070 0.71373
 H21 H 0.85595 0.15462 0.50068
 H22 H 0.64330 0.33804 0.49964
 C23 C 0.18436 0.80267 0.57755
 C24 C 0.16854 0.81657 0.50121
 C25 C 0.18415 0.80259 0.42467
 C26 C 0.21657 0.77366 0.42366
 C27 C 0.23297 0.75926 0.50089
 C28 C 0.21681 0.77385 0.57826
 C29 C 0.23351 0.75933 0.65394
 C30 C 0.26557 0.73102 0.65381
 C31 C 0.28208 0.71617 0.57793
 C32 C 0.26560 0.73040 0.50071
 C33 C 0.23302 0.75883 0.34779
 C34 C 0.26505 0.73044 0.34759
 C35 C 0.28174 0.71592 0.42325
 C36 C 0.31421 0.68735 0.42385
 C37 C 0.33012 0.67357 0.49991
 C38 C 0.31465 0.68752 0.57659
 H39 H 0.22189 0.76984 0.71400
 H40 H 0.27739 0.72083 0.71374
 H41 H 0.22123 0.76909 0.28787
 H42 H 0.27668 0.71998 0.28753
 H43 H 0.14361 0.83888 0.50138
 H44 H 0.35515 0.65156 0.49922
 C45 C 0.18277 0.19797 -0.42537
 C46 C 0.16698 0.18437 -0.50183
 C47 C 0.18288 0.19797 -0.57843
 C48 C 0.21562 0.22614 -0.57948
 C49 C 0.23196 0.24030 -0.50223
 C50 C 0.21549 0.22623 -0.42476
 C51 C 0.23221 0.24070 -0.34909
 C52 C 0.26446 0.26838 -0.34931
 C53 C 0.28118 0.28257 -0.42516
 C54 C 0.26485 0.26847 -0.50241
 C55 C 0.23248 0.24043 -0.65533
 C56 C 0.26476 0.26806 -0.65548
 C57 C 0.28142 0.28245 -0.57979
 C58 C 0.31422 0.31043 -0.57881
 C59 C 0.32986 0.32401 -0.50231
 C60 C 0.31387 0.31052 -0.42610
 H61 H 0.22044 0.23069 -0.28894
 H62 H 0.27623 0.27858 -0.28940
 H63 H 0.22077 0.23031 -0.71535
 H64 H 0.27663 0.27807 -0.71552
 H65 H 0.14183 0.16256 -0.50171
 H66 H 0.35505 0.34557 -0.50188
 C67 C -0.31671 0.69545 -0.42612
 C68 C -0.33232 0.68145 -0.50267
 C69 C -0.31645 0.69546 -0.57917
 C70 C -0.28388 0.72444 -0.57985
 C71 C -0.26772 0.73892 -0.50238
 C72 C -0.28418 0.72441 -0.42512
 C73 C -0.26766 0.73918 -0.34923
 C74 C -0.23559 0.76760 -0.34905
 C75 C -0.21886 0.78229 -0.42468
 C76 C -0.23502 0.76789 -0.50214
 C77 C -0.26703 0.73927 -0.65548
 C78 C -0.23495 0.76773 -0.65522
 C79 C -0.21849 0.78241 -0.57932
 C80 C -0.18591 0.81120 -0.57796
 C81 C -0.17041 0.82503 -0.50138
 C82 C -0.18633 0.81102 -0.42526
 H83 H -0.27946 0.72883 -0.28920
 H84 H -0.22398 0.77802 -0.28902
 H85 H -0.27857 0.72891 -0.71562
 H86 H -0.22307 0.77815 -0.71514
 H87 H -0.35733 0.65907 -0.50269
 H88 H -0.14536 0.84720 -0.50083
 O89 O -0.04701 0.89206 0.15746
 O90 O -0.08479 0.94803 0.07520
 C91 C -0.07750 0.90855 0.13578
 O92 O 0.04775 1.11796 0.14889
 O93 O 0.08547 1.05788 0.07161
 C94 C 0.07822 1.10058 0.12825
 O95 O -0.04697 1.11220 0.15595
 O96 O -0.08475 1.05496 0.07533
 C97 C -0.07745 1.09485 0.13518
 O98 O 0.04750 0.88552 0.14935
 O99 O 0.08535 0.94590 0.07179
 C100 C 0.07802 0.90302 0.12866
 Zr101 Zr 0.00022 0.91958 0.10490
 O102 O 0.00104 0.90821 0.23688
 O103 O -0.00104 0.81827 0.08905
 Zr104 Zr 0.00035 1.08347 0.10540
 O105 O 0.00336 1.08648 0.23801
 O106 O -0.00321 1.18553 0.09937
 O107 O -0.02971 1.00142 0.12204
 O108 O 0.02959 1.00156 0.12088
 O109 O 0.04784 0.88591 -0.14779
 O110 O 0.08564 0.94674 -0.07138
 C111 C 0.07834 0.90365 -0.12750
 O112 O -0.04684 1.11229 -0.15627
 O113 O -0.08469 1.05543 -0.07456
 C114 C -0.07734 1.09526 -0.13483
 O115 O 0.04781 1.11820 -0.14958
 O116 O 0.08552 1.05838 -0.07178
 C117 C 0.07829 1.10089 -0.12900
 O118 O -0.04703 0.89143 -0.15560
 O119 O -0.08477 0.94842 -0.07469
 C120 C -0.07750 0.90855 -0.13456
 Zr121 Zr 0.00027 0.92023 -0.10500
 O122 O 0.00385 0.91581 -0.23743
 O123 O -0.00320 0.81815 -0.09850
 Zr124 Zr 0.00037 1.08416 -0.10493
 O125 O 0.00369 1.09118 -0.23720
 O126 O -0.00330 1.18606 -0.09618
 Zr127 Zr -0.05070 1.00178 0.00021
 Zr128 Zr 0.05122 1.00206 -0.00004
 O129 O 0.02956 1.00227 -0.12090
 O130 O -0.02971 1.00217 -0.12179
 O131 O 0.03100 0.90755 -0.00000
 O132 O -0.02964 1.09536 0.00030
 O133 O -0.02989 0.90820 0.00018
 O134 O 0.03110 1.09648 0.00011
 H135 H 0.04443 1.00157 0.17099
 H136 H -0.04535 1.13271 0.00031
 H137 H 0.04428 1.00230 -0.17138
 H138 H -0.04566 0.87080 0.00036
 H139 H 0.01783 1.20199 0.07279
 H140 H 0.01857 1.20251 -0.07438
 H141 H -0.01036 1.05595 -0.26052
 H142 H -0.01222 0.94790 -0.26049
 H143 H 0.01696 0.80234 -0.06766
 H144 H -0.00198 0.79960 0.14636
 H145 H 0.00591 0.95118 0.26086
 H146 H -0.01306 1.05441 0.26022
 O147 O 0.45373 0.38889 0.15572
 O148 O 0.41606 0.44522 0.07374
 C149 C 0.42326 0.40564 0.13430
 O150 O 0.54827 0.61466 0.14791
 O151 O 0.58603 0.55426 0.07106
 C152 C 0.57877 0.59702 0.12766
 O153 O 0.45301 0.60861 0.15316
 O154 O 0.41537 0.55124 0.07197
 C155 C 0.42256 0.59119 0.13184
 O156 O 0.54814 0.38222 0.14652
 O157 O 0.58593 0.44313 0.06955
 C158 C 0.57863 0.40000 0.12607
 Zr159 Zr 0.50086 0.41640 0.10255
 O160 O 0.50250 0.40488 0.23439
 O161 O 0.49940 0.31513 0.08631
 Zr162 Zr 0.50078 0.58063 0.10400
 O163 O 0.50377 0.58406 0.23659
 O164 O 0.49723 0.68269 0.09842
 O165 O 0.47092 0.49831 0.12030
 O166 O 0.53002 0.49851 0.11911
 O167 O 0.54828 0.38358 -0.15088
 O168 O 0.58604 0.44474 -0.07480
 C169 C 0.57878 0.40164 -0.13099
 O170 O 0.45387 0.60933 -0.15872
 O171 O 0.41613 0.55257 -0.07676
 C172 C 0.42338 0.59232 -0.13721
 O173 O 0.54843 0.61574 -0.15088
 O174 O 0.58608 0.55523 -0.07385
 C175 C 0.57887 0.59812 -0.13055
 O176 O 0.45300 0.38943 -0.15655
 O177 O 0.41537 0.44652 -0.07514
 C178 C 0.42255 0.40665 -0.13508
 Zr179 Zr 0.50075 0.41758 -0.10736
 O180 O 0.50409 0.41366 -0.23990
 O181 O 0.49737 0.31550 -0.10162
 Zr182 Zr 0.50099 0.58181 -0.10632
 O183 O 0.50422 0.59057 -0.23836
 O184 O 0.49722 0.68361 -0.09591
 Zr185 Zr 0.45012 0.49898 -0.00166
 Zr186 Zr 0.55175 0.49937 -0.00179
 O187 O 0.53004 0.49983 -0.12268
 O188 O 0.47095 0.49972 -0.12376
 O189 O 0.53161 0.40478 -0.00247
 O190 O 0.47092 0.59273 -0.00121
 O191 O 0.47072 0.40528 -0.00212
 O192 O 0.53167 0.59386 -0.00113
 H193 H 0.54473 0.49818 0.16949
 H194 H 0.45509 0.62990 -0.00133
 H195 H 0.54465 0.50009 -0.17335
 H196 H 0.45488 0.36798 -0.00187
 H197 H 0.51834 0.69920 0.07220
 H198 H 0.51933 0.70008 -0.07561
 H199 H 0.49278 0.55226 -0.26211
 H200 H 0.48727 0.44444 -0.26271
 H201 H 0.51750 0.29968 -0.07069
 H202 H 0.49868 0.29633 0.14357
 H203 H 0.50214 0.44878 0.25845
 H204 H 0.48666 0.55346 0.25909
 C205 C 0.33216 0.32555 0.35016
 C206 C 0.35032 0.34099 0.29244
 C207 C 0.37400 0.36145 0.23124
 C208 C 0.39583 0.38071 0.18421
 C209 C -0.16808 0.82685 0.35117
 C210 C -0.15009 0.84274 0.29345
 C211 C -0.12659 0.86367 0.23229
 C212 C -0.10486 0.88331 0.18540
 C213 C 0.66630 0.67962 0.34914
 C214 C 0.64922 0.66379 0.28980
 C215 C 0.62689 0.64290 0.22600
 C216 C 0.60591 0.62307 0.17732
 C217 C 0.16555 1.18243 0.35000
 C218 C 0.14850 1.16693 0.29052
 C219 C 0.12627 1.14640 0.22648
 C220 C 0.10534 1.12670 0.17769
 C221 C 0.66668 0.31881 -0.35168
 C222 C 0.64945 0.33473 -0.29255
 C223 C 0.62700 0.35567 -0.22900
 C224 C 0.60595 0.37555 -0.18051
 C225 C 0.16615 0.81958 -0.34685
 C226 C 0.14895 0.83572 -0.28790
 C227 C 0.12654 0.85695 -0.22462
 C228 C 0.10549 0.87714 -0.17645
 C229 C 0.33254 0.67230 -0.35255
 C230 C 0.35063 0.65681 -0.29493
 C231 C 0.37423 0.63636 -0.23384
 C232 C 0.39599 0.61714 -0.18692
 C233 C -0.16728 1.17497 -0.35183
 C234 C -0.14946 1.15966 -0.29370
 C235 C -0.12619 1.13937 -0.23195
 C236 C -0.10462 1.12018 -0.18462
 C237 C 0.66590 0.67972 -0.35445
 C238 C 0.64892 0.66419 -0.29462
 C239 C 0.62682 0.64371 -0.22997
 C240 C 0.60597 0.62410 -0.18060
 C241 C 0.16538 1.18236 -0.35353
 C242 C 0.14837 1.16685 -0.29365
 C243 C 0.12623 1.14637 -0.22887
 C244 C 0.10539 1.12680 -0.17932
 C245 C 0.33245 0.32660 -0.35100
 C246 C 0.35030 0.34212 -0.29315
 C247 C 0.37357 0.36256 -0.23161
 C248 C 0.39518 0.38179 -0.18447
 C249 C -0.16780 0.82739 -0.35004
 C250 C -0.14988 0.84323 -0.29239
 C251 C -0.12649 0.86403 -0.23113
 C252 C -0.10485 0.88348 -0.18414
 C253 C 0.33267 0.67112 0.34853
 C254 C 0.35042 0.65552 0.29049
 C255 C 0.37362 0.63508 0.22870
 C256 C 0.39519 0.61591 0.18138
 C257 C -0.16733 1.17432 0.35299
 C258 C -0.14955 1.15891 0.29477
 C259 C -0.12631 1.13862 0.23278
 C260 C -0.10476 1.11955 0.18522
 C261 C 0.66588 0.31829 0.34815
 C262 C 0.64879 0.33370 0.28868
 C263 C 0.62659 0.35417 0.22453
 C264 C 0.60569 0.37387 0.17562
 C265 C 0.16576 0.81947 0.34918
 C266 C 0.14851 0.83553 0.29020
 C267 C 0.12612 0.85664 0.22665
 C268 C 0.10513 0.87668 0.17812
   
