data_POSCAR
  _audit_creation_date              2014-09-24
  _audit_creation_method            'ToBaCCo'
  _symmetry_space_group_name_H-M    'P1'
  _symmetry_Int_Tables_number       1
  _symmetry_cell_setting            triclinic
  loop_
  _symmetry_equiv_pos_as_xyz
 x,y,z
_cell_length_a 16.1223
_cell_length_b 16.7581
_cell_length_c 25.6898
_cell_angle_alpha 96.200700
_cell_angle_beta 94.217300
_cell_angle_gamma 89.420000
loop_
  _atom_site_label
  _atom_site_type_symbol
  _atom_site_fract_x
  _atom_site_fract_y
  _atom_site_fract_z
O1 O 0.02694 0.57550 1.05349
 O2 O 0.04058 0.40946 0.94968
 O3 O 0.03438 0.56699 0.95214
 O4 O 0.01987 0.42051 1.04888
 O5 O -0.11679 0.42219 1.03538
 O6 O -0.10202 0.56421 0.93764
 O7 O -0.09618 0.40874 0.93475
 O8 O -0.10975 0.57910 1.03833
 Cu9 Cu 0.04415 0.49321 1.00221
 Cu10 Cu -0.11985 0.49334 0.98521
 C11 C -0.04309 0.60599 1.06340
 C12 C -0.02497 0.37976 0.92522
 C13 C -0.03196 0.59139 0.92863
 C14 C -0.05135 0.39623 1.05852
 O15 O 0.45098 0.08644 0.56246
 O16 O 0.60029 0.07722 0.45908
 O17 O 0.43266 0.09883 0.46675
 O18 O 0.60519 0.07274 0.56452
 O19 O 0.59881 -0.05889 0.54476
 O20 O 0.42212 -0.03274 0.44841
 O21 O 0.58220 -0.05336 0.44380
 O22 O 0.43862 -0.04536 0.54828
 Cu23 Cu 0.52669 0.09654 0.51239
 Cu24 Cu 0.50935 -0.06073 0.49453
 C25 C 0.41933 0.02132 0.57292
 C26 C 0.61728 0.01010 0.43390
 C27 C 0.39554 0.03767 0.44268
 C28 C 0.63029 0.00263 0.57207
 C29 C -0.01427 0.03242 0.24090
 C30 C 0.04859 -0.04743 0.75724
 C31 C -0.01297 -0.33312 0.15509
 C32 C -0.04546 -0.32538 0.10375
 C33 C -0.07063 -0.24982 0.08972
 C34 C -0.06021 -0.18156 0.12639
 C35 C -0.02746 -0.18964 0.17799
 C36 C -0.00539 -0.26590 0.19229
 C37 C -0.01515 -0.12130 0.21417
 C38 C -0.03158 -0.04292 0.19982
 C39 C -0.06504 -0.03705 0.14775
 C40 C -0.07954 -0.10517 0.11192
 H41 H -0.09405 -0.24376 0.04966
 H42 H 0.02022 -0.27317 0.23169
 H43 H 0.00815 -0.12902 0.25398
 H44 H -0.10465 -0.09784 0.07241
 H45 H 0.00758 -0.39112 0.16610
 H46 H -0.08043 0.01963 0.13340
 C47 C -0.13642 0.31185 0.10944
 C48 C -0.05808 0.33570 0.09595
 C49 C 0.01370 0.29865 0.11667
 C50 C 0.00730 0.23710 0.14906
 C51 C -0.07155 0.21279 0.16177
 C52 C -0.14308 0.25114 0.14219
 C53 C -0.07782 0.14911 0.19257
 C54 C -0.00619 0.10796 0.21110
 C55 C 0.07197 0.13390 0.19748
 C56 C 0.07851 0.19782 0.16754
 H57 H 0.07451 0.31608 0.10647
 H58 H -0.20423 0.23333 0.15148
 H59 H -0.13905 0.12907 0.20012
 H60 H 0.13954 0.21533 0.15780
 H61 H -0.19280 0.33944 0.09415
 H62 H 0.12925 0.10459 0.20886
 C63 C 0.32561 0.09613 0.63499
 C64 C 0.35786 0.02291 0.61300
 C65 C 0.32790 -0.04930 0.62766
 C66 C 0.26452 -0.04860 0.66223
 C67 C 0.23072 0.02502 0.68283
 C68 C 0.26258 0.09718 0.66961
 C69 C 0.16399 0.02551 0.71498
 C70 C 0.12945 -0.04686 0.72743
 C71 C 0.16574 -0.11973 0.70660
 C72 C 0.23243 -0.12051 0.67498
 H73 H 0.35244 -0.10625 0.61123
 H74 H 0.23762 0.15439 0.68518
 H75 H 0.13825 0.08295 0.72860
 H76 H 0.25710 -0.17768 0.65908
 H77 H 0.34763 0.15264 0.62446
 H78 H 0.13968 -0.17705 0.71245
 C79 C -0.31152 0.02793 0.66464
 C80 C -0.30353 -0.00720 0.61318
 C81 C -0.23089 -0.04941 0.60079
 C82 C -0.16497 -0.05370 0.63920
 C83 C -0.17348 -0.01902 0.69106
 C84 C -0.24757 0.02070 0.70363
 C85 C -0.10694 -0.02228 0.72912
 C86 C -0.02799 -0.05277 0.71569
 C87 C -0.02272 -0.08982 0.66373
 C88 C -0.09012 -0.09062 0.62636
 H89 H -0.22454 -0.07587 0.56084
 H90 H -0.25507 0.04813 0.74318
 H91 H -0.11604 0.00144 0.76923
 H92 H -0.08283 -0.11849 0.58688
 H93 H -0.36752 0.06056 0.67463
 H94 H 0.03317 -0.11835 0.65062
 C95 C -0.10297 -0.32395 0.86772
 C96 C -0.02893 -0.35001 0.89351
 C97 C 0.04673 -0.31380 0.88491
 C98 C 0.04774 -0.25122 0.85262
 C99 C -0.02717 -0.22504 0.82801
 C100 C -0.10201 -0.26241 0.83536
 C101 C -0.02681 -0.16105 0.79706
 C102 C 0.04777 -0.12140 0.78953
 C103 C 0.12210 -0.14922 0.81476
 C104 C 0.12213 -0.21311 0.84545
 H105 H 0.10457 -0.33268 0.90422
 H106 H -0.16019 -0.24330 0.81663
 H107 H -0.08580 -0.14258 0.77976
 H108 H 0.18037 -0.23181 0.86429
 H109 H -0.16245 -0.35034 0.87297
 H110 H 0.18088 -0.12002 0.81177
 C111 C -0.05523 0.30628 0.83593
 C112 C -0.01757 0.30873 0.88702
 C113 C 0.02855 0.24256 0.90208
 C114 C 0.03583 0.17354 0.86671
 C115 C -0.00020 0.17182 0.81495
 C116 C -0.04529 0.23876 0.79974
 C117 C 0.00826 0.10287 0.77954
 C118 C 0.04538 0.03149 0.79589
 C119 C 0.08276 0.03638 0.84778
 C120 C 0.07835 0.10617 0.88238
 H121 H 0.05705 0.24425 0.94178
 H122 H -0.07396 0.23833 0.76022
 H123 H -0.01521 0.10483 0.73912
 H124 H 0.10728 0.10690 0.92187
 H125 H -0.09084 0.35712 0.82382
 H126 H 0.11608 -0.01299 0.86287
 C127 C -0.30813 -0.07042 0.36765
 C128 C -0.32405 0.00460 0.39564
 C129 C -0.27819 0.07194 0.38553
 C130 C -0.21618 0.06351 0.34937
 C131 C -0.20060 -0.01236 0.32259
 C132 C -0.24750 -0.07866 0.33156
 C133 C -0.13771 -0.02183 0.28757
 C134 C -0.08745 0.04324 0.27820
 C135 C -0.10548 0.11921 0.30510
 C136 C -0.16856 0.12914 0.33996
 H137 H -0.28921 0.13036 0.40645
 H138 H -0.23656 -0.13743 0.31114
 H139 H -0.12947 -0.08121 0.26842
 H140 H -0.17940 0.18818 0.35999
 H141 H -0.34205 -0.12366 0.37383
 H142 H -0.06973 0.17165 0.29978
 C143 C 0.25865 0.10430 0.42801
 C144 C 0.31819 0.04830 0.40999
 C145 C 0.30137 0.00030 0.36223
 C146 C 0.22552 0.00834 0.33263
 C147 C 0.16459 0.06241 0.35201
 C148 C 0.18204 0.11063 0.39961
 C149 C 0.08754 0.06826 0.32338
 C150 C 0.06944 0.02185 0.27453
 C151 C 0.13494 -0.02662 0.25424
 C152 C 0.21027 -0.03534 0.28349
 H153 H 0.34763 -0.04240 0.34792
 H154 H 0.13643 0.15313 0.41493
 H155 H 0.04326 0.11068 0.33947
 H156 H 0.25756 -0.07470 0.26693
 H157 H 0.27047 0.14143 0.46498
 H158 H 0.12932 -0.05697 0.21483
   
