data_POSCAR
  _audit_creation_date              2014-09-24
  _audit_creation_method            'ToBaCCo'
  _symmetry_space_group_name_H-M    'P1'
  _symmetry_Int_Tables_number       1
  _symmetry_cell_setting            triclinic
  loop_
  _symmetry_equiv_pos_as_xyz
 x,y,z
_cell_length_a 51.8905
_cell_length_b 51.8899
_cell_length_c 18.3460
_cell_angle_alpha 90.000000
_cell_angle_beta 90.000000
_cell_angle_gamma 120.000000
loop_
  _atom_site_label
  _atom_site_type_symbol
  _atom_site_fract_x
  _atom_site_fract_y
  _atom_site_fract_z
C1 C 0.22454 0.50019 0.45756
 C2 C 0.22471 0.50021 0.54194
 C3 C 0.24998 0.50000 0.58259
 C4 C 0.27556 0.50011 0.54244
 C5 C 0.27513 0.49994 0.45749
 C6 C 0.24998 0.49998 0.41733
 H7 H 0.24999 0.50000 0.35437
 H8 H 0.24999 0.50002 0.64564
 C9 C 0.50015 -0.27551 0.45749
 C10 C 0.50019 -0.27531 0.54191
 C11 C 0.50002 -0.25000 0.58258
 C12 C 0.50013 -0.22455 0.54196
 C13 C 0.50048 -0.22468 0.45990
 C14 C 0.49877 -0.24975 0.41356
 H15 H 0.50116 -0.26635 0.40118
 H16 H 0.50002 -0.25000 0.64564
 C17 C 1.27533 0.77547 0.45811
 C18 C 1.27533 0.77547 0.54189
 C19 C 1.25004 0.75003 0.58244
 C20 C 1.22445 0.72437 0.54233
 C21 C 1.22464 0.72451 0.45816
 C22 C 1.25005 0.75003 0.41757
 H23 H 1.25018 0.75006 0.35446
 H24 H 1.25018 0.75005 0.64554
 C25 C 0.77536 0.49987 0.45816
 C26 C 0.77554 0.49991 0.54233
 C27 C 0.74993 0.49997 0.58250
 C28 C 0.72454 0.50019 0.54243
 C29 C 0.72471 0.50021 0.45806
 C30 C 0.74993 0.49996 0.41750
 H31 H 0.74984 0.49989 0.35443
 H32 H 0.74984 0.49989 0.64557
 C33 C 0.49983 0.27513 0.45761
 C34 C 0.49983 0.27513 0.54239
 C35 C 0.49998 0.24998 0.58270
 C36 C 0.49976 0.22437 0.54257
 C37 C 0.49979 0.22454 0.45796
 C38 C 0.49998 0.24999 0.41731
 H39 H 0.50000 0.25000 0.35435
 H40 H 0.50000 0.25000 0.64565
 C41 C 0.72459 0.22483 0.45774
 C42 C 0.72437 0.22456 0.54246
 C43 C 0.74999 0.24997 0.58261
 C44 C 0.77551 0.27564 0.54236
 C45 C 0.77533 0.27550 0.45813
 C46 C 0.74996 0.24999 0.41738
 H47 H 0.74998 0.24999 0.35436
 H48 H 0.74998 0.24999 0.64564
 O49 O 0.96953 0.50857 -0.15037
 O50 O 1.02750 0.53743 0.15603
 O51 O 0.93677 0.49233 0.07299
 O52 O 1.06071 0.55387 -0.06726
 O53 O 0.96967 0.50885 0.15541
 O54 O 1.02723 0.53720 -0.15034
 O55 O 1.06068 0.55399 0.07323
 O56 O 0.93653 0.49192 -0.06765
 C57 C 0.94719 0.50860 -0.12767
 C58 C 1.05272 0.56135 0.12788
 C59 C 0.94721 0.50870 0.12790
 C60 C 1.05271 0.56120 -0.12761
 O61 O 1.02763 0.48759 -0.15042
 O62 O 0.96958 0.45839 0.15232
 O63 O 0.94520 0.44502 -0.06666
 O64 O 1.06143 0.50452 0.07352
 O65 O 1.02803 0.48792 0.15505
 O66 O 0.96946 0.45847 -0.15221
 O67 O 1.06081 0.50427 -0.06827
 O68 O 0.93837 0.44345 0.07345
 Co69 Co 0.93258 0.41425 -0.02292
 Co70 Co 0.94011 0.41610 0.25915
 Co71 Co 0.88794 0.39084 0.11415
 Co72 Co 0.99730 0.44478 0.11745
 O73 O 0.99381 0.49262 0.01183
 C74 C 1.05291 0.49156 -0.12773
 C75 C 0.94675 0.43819 0.12850
 C76 C 0.94715 0.43844 -0.12792
 C77 C 1.05285 0.49135 0.12794
 O78 O 0.48642 0.45850 -0.15006
 O79 O 0.45802 0.48838 0.15445
 O80 O 0.50357 0.44239 0.07380
 O81 O 0.44110 0.50452 -0.06786
 O82 O 0.48676 0.45868 0.15539
 O83 O 0.45776 0.48813 -0.15112
 O84 O 0.44171 0.50480 0.07415
 O85 O 0.50288 0.44213 -0.06779
 C86 C 0.49119 0.43823 -0.12762
 C87 C 0.43823 0.49123 0.12745
 C88 C 0.49098 0.43813 0.12778
 C89 C 0.43834 0.49135 -0.12786
 O90 O 0.50670 0.53692 -0.14967
 O91 O 0.53566 0.50812 0.15618
 O92 O 0.55200 0.49147 -0.06665
 O93 O 0.48999 0.55368 0.07373
 O94 O 0.50682 0.53704 0.15606
 O95 O 0.53556 0.50813 -0.14959
 O96 O 0.48993 0.55368 -0.06658
 O97 O 0.55197 0.49142 0.07349
 Co98 Co 0.36761 0.41557 -0.02083
 Co99 Co 0.36752 0.41523 0.25787
 Co100 Co 0.39191 0.39123 0.11693
 Co101 Co 0.33179 0.45555 0.13004
 O102 O 0.48727 0.49333 0.01375
 C103 C 0.50858 0.56142 -0.12710
 C104 C 0.56138 0.50865 0.12744
 C105 C 0.56127 0.50856 -0.12709
 C106 C 0.50868 0.56149 0.12740
 O107 O 0.53664 0.02546 -0.15087
 O108 O 0.50642 -0.03244 0.15314
 O109 O 0.55167 0.05748 0.07343
 O110 O 0.49019 -0.06603 -0.06758
 O111 O 0.53471 0.02474 0.15321
 O112 O 0.50848 -0.03169 -0.15136
 O113 O 0.49036 -0.06587 0.07223
 O114 O 0.55165 0.05733 -0.06619
 C115 C 0.56107 0.05275 -0.12737
 C116 C 0.50878 -0.05293 0.12758
 C117 C 0.56117 0.05280 0.12706
 C118 C 0.50860 -0.05317 -0.12721
 O119 O 0.45852 -0.03109 -0.15152
 O120 O 0.48517 0.02472 0.15338
 O121 O 0.47897 0.03154 -0.09583
 O122 O 0.44333 -0.07120 0.06909
 O123 O 0.45760 -0.03122 0.15175
 O124 O 0.48695 0.02555 -0.15091
 O125 O 0.40239 -0.08780 -0.00277
 O126 O 0.49944 0.05207 0.07890
 Co127 Co 0.40515 -0.12622 -0.06757
 Co128 Co 0.34533 -0.13454 0.14039
 Co129 Co 0.38980 -0.10378 0.13245
 Co130 Co 0.34203 -0.20731 0.07680
 O131 O 0.48741 -0.01479 0.00688
 C132 C 0.43682 -0.05449 -0.12256
 C133 C 0.49169 0.04732 0.11028
 C134 C 0.49122 0.05288 -0.12807
 C135 C 0.43753 -0.05267 0.11960
 C136 C 1.16803 0.51751 0.33372
 C137 C 1.14999 0.48648 0.30179
 C138 C 1.15754 0.46214 0.32012
 C139 C 1.18341 0.46898 0.37090
 C140 C 1.20186 0.49965 0.40452
 C141 C 1.19449 0.52428 0.38583
 O142 O 1.15549 0.53613 0.30615
 C143 C 1.12971 0.51751 0.25705
 C144 C 1.12568 0.48647 0.25317
 C145 C 1.10084 0.46214 0.20671
 C146 C 1.07990 0.46898 0.16384
 C147 C 1.08284 0.49920 0.16697
 C148 C 1.10802 0.52428 0.21285
 H149 H 1.14372 0.43883 0.29562
 H150 H 1.18905 0.45069 0.38471
 H151 H 1.20834 0.54748 0.41035
 H152 H 1.09807 0.43883 0.20431
 H153 H 1.06118 0.45064 0.12895
 H154 H 1.11095 0.54728 0.21455
 C155 C 0.51605 0.66551 0.34090
 C156 C 0.48761 0.65194 0.29624
 C157 C 0.46531 0.66300 0.30459
 C158 C 0.47157 0.68780 0.35811
 C159 C 0.49960 0.70013 0.40481
 C160 C 0.52225 0.69093 0.39577
 O161 O 0.53310 0.65027 0.32097
 C162 C 0.51604 0.62718 0.26426
 C163 C 0.48761 0.62764 0.24763
 C164 C 0.46531 0.60629 0.19119
 C165 C 0.47155 0.58425 0.15095
 C166 C 0.50028 0.58333 0.16716
 C167 C 0.52220 0.60461 0.22295
 H168 H 0.44395 0.65255 0.27053
 H169 H 0.45487 0.69603 0.36469
 H170 H 0.54351 0.70148 0.42982
 H171 H 0.44395 0.60690 0.17922
 H172 H 0.45482 0.56829 0.10871
 H173 H 0.54350 0.60386 0.23457
 C174 C 0.33631 -0.14906 0.34534
 C175 C 0.34661 -0.16468 0.29289
 C176 C 0.33309 -0.19852 0.29499
 C177 C 0.30893 -0.21698 0.35033
 C178 C 0.29823 -0.20203 0.40388
 C179 C 0.31155 -0.16817 0.40186
 O180 O 0.35346 -0.11633 0.33016
 C181 C 0.37444 -0.11072 0.26919
 C182 C 0.36992 -0.14153 0.24578
 C183 C 0.38912 -0.14472 0.17887
 C184 C 0.41390 -0.11241 0.15785
 C185 C 0.44302 -0.10344 0.28489
 C186 C 0.39928 -0.08264 0.23049
 H187 H 0.34152 -0.21015 0.25472
 H188 H 0.29915 -0.24249 0.35102
 H189 H 0.30344 -0.15688 0.44177
 H190 H 0.38675 -0.16445 0.16363
 H191 H 0.42535 -0.12213 0.15286
 H192 H 0.40106 -0.05929 0.24659
 C193 C 0.83952 0.48851 0.35187
 C194 C 0.84418 0.50888 0.28775
 C195 C 0.82615 0.52486 0.28084
 C196 C 0.80330 0.52040 0.33868
 C197 C 0.79818 0.50020 0.40378
 C198 C 0.81602 0.48412 0.41063
 O199 O 0.86009 0.47628 0.34365
 C200 C 0.87782 0.48849 0.27519
 C201 C 0.86848 0.50888 0.23913
 C202 C 0.88284 0.52485 0.16743
 C203 C 0.90673 0.52034 0.13160
 C204 C 0.91700 0.50060 0.16654
 C205 C 0.90239 0.48431 0.23793
 H206 H 0.82991 0.54017 0.23214
 H207 H 0.78984 0.53249 0.33343
 H208 H 0.81211 0.46876 0.45276
 H209 H 0.87556 0.54017 0.14084
 H210 H 0.91758 0.53240 0.07778
 H211 H 0.91269 0.47783 0.27043
 C212 C 0.48763 0.32532 0.29683
 C213 C 0.50955 0.35516 0.33028
 C214 C 0.52669 0.35687 0.39962
 C215 C 0.52109 0.32834 0.42929
 C216 C 0.50022 0.29848 0.40468
 C217 C 0.48283 0.29624 0.33460
 O218 O 0.47448 0.33079 0.23006
 C219 C 0.48764 0.36364 0.22019
 C220 C 0.50956 0.37946 0.28166
 C221 C 0.52676 0.41355 0.28646
 C222 C 0.52188 0.43194 0.22920
 C223 C 0.49984 0.41691 0.16768
 C224 C 0.48286 0.38271 0.16178
 H225 H 0.54323 0.37951 0.42447
 H226 H 0.53581 0.32979 0.46535
 H227 H 0.46645 0.27362 0.31032
 H228 H 0.54322 0.42517 0.33316
 H229 H 0.53477 0.45754 0.23288
 H230 H 0.46644 0.37125 0.11510
 C231 C 0.65871 0.17432 0.30479
 C232 C 0.65719 0.14514 0.32413
 C233 C 0.67770 0.14395 0.38266
 C234 C 0.69990 0.17224 0.42215
 C235 C 0.70186 0.20150 0.40472
 C236 C 0.68158 0.20323 0.34563
 O237 O 0.63624 0.16845 0.24647
 C238 C 0.62039 0.13599 0.22818
 C239 C 0.63289 0.12083 0.27552
 C240 C 0.62101 0.08726 0.26928
 C241 C 0.59642 0.06875 0.21523
 C242 C 0.58350 0.08265 0.16783
 C243 C 0.59556 0.11689 0.17271
 H244 H 0.67631 0.12177 0.39668
 H245 H 0.71532 0.17135 0.46615
 H246 H 0.68304 0.22538 0.33190
 H247 H 0.63066 0.07612 0.30537
 H248 H 0.58754 0.04346 0.21066
 H249 H 0.58647 0.12846 0.13599
 C250 C 0.48182 0.15332 -0.32118
 C251 C 0.51405 0.16135 -0.31148
 C252 C 0.53932 0.18934 -0.34724
 C253 C 0.53222 0.20946 -0.39314
 C254 C 0.50042 0.20217 -0.40481
 C255 C 0.47477 0.17410 -0.36840
 O256 O 0.46248 0.12514 -0.28028
 C257 C 0.48182 0.11501 -0.24453
 C258 C 0.51406 0.13707 -0.26293
 C259 C 0.53899 0.13258 -0.23352
 C260 C 0.52482 0.10327 -0.17245
 C261 C 0.49936 0.08282 -0.16709
 C262 C 0.47481 0.08773 -0.19562
 H263 H 0.56353 0.19512 -0.33943
 H264 H 0.55121 0.23048 -0.42003
 H265 H 0.45068 0.16844 -0.37634
 H266 H 0.56353 0.14947 -0.24810
 H267 H 0.49988 0.07777 0.09794
 H268 H 0.45069 0.07082 -0.18111
 C269 C 0.66803 0.51751 -0.33372
 C270 C 0.64999 0.48648 -0.30179
 C271 C 0.65754 0.46214 -0.32012
 C272 C 0.68341 0.46898 -0.37090
 C273 C 0.70186 0.49965 -0.40452
 C274 C 0.69449 0.52428 -0.38583
 O275 O 0.65549 0.53613 -0.30615
 C276 C 0.62971 0.51750 -0.25708
 C277 C 0.62568 0.48647 -0.25317
 C278 C 0.60083 0.46214 -0.20671
 C279 C 0.57983 0.46900 -0.16354
 C280 C 0.58334 0.50031 -0.16720
 C281 C 0.60811 0.52423 -0.21300
 H282 H 0.64372 0.43883 -0.29562
 H283 H 0.68905 0.45069 -0.38471
 H284 H 0.70834 0.54748 -0.41035
 H285 H 0.59807 0.43883 -0.20431
 H286 H 0.56119 0.45070 -0.12888
 H287 H 0.61072 0.54748 -0.21510
 C288 C 0.83631 0.35094 -0.34534
 C289 C 0.84666 0.33535 -0.29281
 C290 C 0.83307 0.30144 -0.29500
 C291 C 0.80890 0.28299 -0.35029
 C292 C 0.79804 0.29778 -0.40432
 C293 C 0.81156 0.33182 -0.40193
 O294 O 0.85347 0.38366 -0.33013
 C295 C 0.87463 0.38925 -0.26866
 C296 C 0.87096 0.35966 -0.24420
 C297 C 0.88976 0.35813 -0.18159
 C298 C 0.91240 0.38650 -0.14322
 C299 C 0.91705 0.41635 -0.16661
 C300 C 0.89794 0.41788 -0.22874
 H301 H 0.84110 0.28998 -0.25502
 H302 H 0.79873 0.25751 -0.35198
 H303 H 0.80344 0.34312 -0.44177
 H304 H 0.88675 0.33564 -0.16371
 H305 H 0.92659 0.38536 -0.09624
 H306 H 0.89828 0.43194 -0.24110
 C307 C 0.51458 -0.14902 -0.34555
 C308 C 0.48855 -0.16447 -0.29303
 C309 C 0.46797 -0.19869 -0.29528
 C310 C 0.47412 -0.21705 -0.35017
 C311 C 0.49973 -0.20204 -0.40387
 C312 C 0.52023 -0.16816 -0.40194
 O313 O 0.53008 -0.11632 -0.33043
 C314 C 0.51457 -0.11073 -0.26884
 C315 C 0.48874 -0.14034 -0.24408
 C316 C 0.46848 -0.14188 -0.18128
 C317 C 0.47421 -0.11343 -0.14291
 C318 C 0.50028 -0.08305 -0.16718
 C319 C 0.52017 -0.08184 -0.22930
 H320 H 0.44907 -0.21005 -0.25451
 H321 H 0.45894 -0.24251 -0.35159
 H322 H 0.53954 -0.15685 -0.44223
 H323 H 0.44908 -0.16439 -0.16319
 H324 H 0.46010 -0.11442 -0.09561
 H325 H 0.53953 -0.05924 -0.24699
 C326 C 0.35108 0.51416 -0.34571
 C327 C 0.33532 0.48897 -0.29206
 C328 C 0.30131 0.46916 -0.29292
 C329 C 0.28286 0.47471 -0.34860
 C330 C 0.29765 0.49963 -0.40313
 C331 C 0.33305 0.52073 -0.38710
 O332 O 0.38378 0.52944 -0.33207
 C333 C 0.38932 0.51427 -0.26964
 C334 C 0.35962 0.48898 -0.24346
 C335 C 0.35802 0.46916 -0.17953
 C336 C 0.38640 0.47475 -0.14153
 C337 C 0.41637 0.49932 -0.16665
 C338 C 0.41837 0.51977 -0.23035
 H339 H 0.28979 0.45016 -0.25169
 H340 H 0.25736 0.45981 -0.34929
 H341 H 0.34834 0.54512 -0.43058
 H342 H 0.33544 0.45016 -0.16038
 H343 H 0.38521 0.45981 -0.09353
 H344 H 0.44089 0.53867 -0.24923
 C345 C 1.16017 0.64903 -0.35242
 C346 C 1.15606 0.66467 -0.28732
 C347 C 1.17453 0.69863 -0.27964
 C348 C 1.19726 0.71702 -0.33768
 C349 C 1.20202 0.70221 -0.40422
 C350 C 1.18353 0.66818 -0.41133
 O351 O 1.13927 0.61627 -0.34478
 C352 C 1.12186 0.61070 -0.27578
 C353 C 1.13176 0.64037 -0.23871
 C354 C 1.11784 0.64194 -0.16623
 C355 C 1.09382 0.61354 -0.13062
 C356 C 1.08298 0.58362 -0.16657
 C357 C 1.09709 0.58178 -0.23894
 H358 H 1.17119 0.71013 -0.23020
 H359 H 1.21101 0.74255 -0.33182
 H360 H 1.18705 0.65673 -0.45089
 H361 H 1.12554 0.66448 -0.13890
 H362 H 1.08331 0.61472 -0.07621
 H363 H 1.08917 0.55929 -0.26639
 C364 C 0.83952 0.48851 -0.35187
 C365 C 0.84418 0.50888 -0.28775
 C366 C 0.82615 0.52486 -0.28084
 C367 C 0.80328 0.52038 -0.33867
 C368 C 0.79799 0.50019 -0.40422
 C369 C 0.81603 0.48414 -0.41069
 O370 O 0.86009 0.47628 -0.34365
 C371 C 0.87782 0.48849 -0.27519
 C372 C 0.86848 0.50888 -0.23913
 C373 C 0.88284 0.52485 -0.16743
 C374 C 0.90673 0.52034 -0.13160
 C375 C 0.91701 0.50063 -0.16656
 C376 C 0.90239 0.48431 -0.23793
 H377 H 0.82991 0.54017 -0.23214
 H378 H 0.78984 0.53250 -0.33342
 H379 H 0.81211 0.46876 -0.45276
 H380 H 0.87556 0.54017 -0.14084
 H381 H 0.91758 0.53240 -0.07778
 H382 H 0.91269 0.47783 -0.27043
 C383 C 0.48763 0.32532 -0.29683
 C384 C 0.50955 0.35516 -0.33028
 C385 C 0.52669 0.35687 -0.39962
 C386 C 0.52109 0.32834 -0.42929
 C387 C 0.50022 0.29848 -0.40468
 C388 C 0.48283 0.29624 -0.33460
 O389 O 0.47448 0.33079 -0.23006
 C390 C 0.48764 0.36364 -0.22019
 C391 C 0.50956 0.37946 -0.28166
 C392 C 0.52676 0.41355 -0.28646
 C393 C 0.52188 0.43194 -0.22920
 C394 C 0.49986 0.41692 -0.16769
 C395 C 0.48286 0.38271 -0.16178
 H396 H 0.54323 0.37951 -0.42447
 H397 H 0.53581 0.32979 -0.46535
 H398 H 0.46645 0.27362 -0.31032
 H399 H 0.54322 0.42517 -0.33316
 H400 H 0.53477 0.45754 -0.23288
 H401 H 0.46644 0.37125 -0.11510
 C402 C 0.65188 0.16946 -0.33142
 C403 C 0.66298 0.14914 -0.30443
 C404 C 0.69399 0.15525 -0.32748
 C405 C 0.71328 0.18154 -0.37692
 C406 C 0.70221 0.20183 -0.40460
 C407 C 0.67117 0.19593 -0.38121
 O408 O 0.64458 0.17814 -0.28781
 C409 C 0.61380 0.13196 -0.25460
 C410 C 0.63870 0.12485 -0.25581
 C411 C 0.63729 0.09856 -0.21408
 C412 C 0.60977 0.07801 -0.16988
 C413 C 0.58378 0.08289 -0.16731
 C414 C 0.58705 0.11135 -0.21754
 H415 H 0.70263 0.14004 -0.30750
 H416 H 0.73653 0.18609 -0.39429
 H417 H 0.66262 0.21120 -0.40111
 H418 H 0.65697 0.09439 -0.21620
 H419 H 0.60872 0.05821 -0.13854
 H420 H 0.62330 0.15495 -0.45143
 C421 C 1.16803 0.51751 -0.33372
 C422 C 1.14999 0.48648 -0.30178
 C423 C 1.15754 0.46214 -0.32012
 C424 C 1.18340 0.46897 -0.37091
 C425 C 1.20168 0.49965 -0.40408
 C426 C 1.19449 0.52428 -0.38577
 O427 O 1.15549 0.53613 -0.30615
 C428 C 1.12971 0.51751 -0.25705
 C429 C 1.12568 0.48647 -0.25317
 C430 C 1.10084 0.46214 -0.20671
 C431 C 1.07990 0.46898 -0.16384
 C432 C 1.08284 0.49921 -0.16699
 C433 C 1.10802 0.52428 -0.21285
 H434 H 1.14372 0.43883 -0.29562
 H435 H 1.18905 0.45069 -0.38471
 H436 H 1.20834 0.54748 -0.41035
 H437 H 1.09807 0.43883 -0.20431
 H438 H 1.06118 0.45064 -0.12895
 H439 H 1.11095 0.54728 -0.21455
 C440 C 0.51604 0.66551 -0.34090
 C441 C 0.48761 0.65194 -0.29624
 C442 C 0.46531 0.66300 -0.30459
 C443 C 0.47157 0.68787 -0.35819
 C444 C 0.49970 0.70173 -0.40395
 C445 C 0.52224 0.69097 -0.39572
 O446 O 0.53310 0.65027 -0.32097
 C447 C 0.51604 0.62718 -0.26426
 C448 C 0.48761 0.62764 -0.24763
 C449 C 0.46531 0.60630 -0.19119
 C450 C 0.47156 0.58425 -0.15093
 C451 C 0.50030 0.58333 -0.16719
 C452 C 0.52220 0.60461 -0.22295
 H453 H 0.44395 0.65255 -0.27053
 H454 H 0.45482 0.69617 -0.36449
 H455 H 0.54351 0.70148 -0.42982
 H456 H 0.44395 0.60690 -0.17922
 H457 H 0.45482 0.56829 -0.10871
 H458 H 0.54350 0.60387 -0.23457
 C459 C 0.33631 -0.14906 -0.34534
 C460 C 0.34666 -0.16465 -0.29281
 C461 C 0.33308 -0.19857 -0.29498
 C462 C 0.30892 -0.21701 -0.35032
 C463 C 0.29823 -0.20203 -0.40388
 C464 C 0.31155 -0.16817 -0.40186
 O465 O 0.35347 -0.11634 -0.33013
 C466 C 0.37463 -0.11074 -0.26872
 C467 C 0.37095 -0.14036 -0.24421
 C468 C 0.38958 -0.14202 -0.18212
 C469 C 0.40962 -0.11618 -0.15509
 C470 C 0.41674 -0.08315 -0.16709
 C471 C 0.39792 -0.08182 -0.22908
 H472 H 0.34124 -0.21011 -0.25473
 H473 H 0.29873 -0.24249 -0.35198
 H474 H 0.30344 -0.15688 -0.44177
 H475 H 0.38676 -0.16436 -0.16372
 H476 H 0.42678 -0.12324 -0.10282
 H477 H 0.40106 -0.05926 -0.24660
 C478 C 0.50010 -0.15264 0.36006
 C479 C 0.49984 -0.16212 0.28144
 C480 C 0.49047 -0.20467 0.25456
 C481 C 0.50011 -0.21009 0.32257
 C482 C 0.49994 -0.20193 0.40364
 C483 C 0.50012 -0.17314 0.42222
 O484 O 0.50020 -0.12374 0.36049
 C485 C 0.50009 -0.11433 0.28341
 C486 C 0.49993 -0.13757 0.23282
 C487 C 0.49978 -0.13411 0.14978
 C488 C 0.49981 -0.10713 0.11713
 C489 C 0.50037 -0.08308 0.16671
 C490 C 0.50015 -0.08676 0.24942
 H491 H 0.50881 -0.17984 0.24706
 H492 H 0.48727 -0.21638 0.23999
 H493 H 0.50023 -0.16660 0.48159
 H494 H 0.49966 -0.15183 0.11230
 H495 H 0.49974 -0.10451 0.05476
 H496 H 0.50028 -0.06898 0.28651
 C497 C 0.32662 0.49408 0.28913
 C498 C 0.35415 0.50458 0.33622
 C499 C 0.35406 0.51281 0.41655
 C500 C 0.32611 0.51035 0.44810
 C501 C 0.29850 0.50013 0.40498
 C502 C 0.29806 0.49179 0.32390
 O503 O 0.33346 0.48778 0.21417
 C504 C 0.36494 0.49409 0.21243
 C505 C 0.37845 0.50458 0.28761
 C506 C 0.41074 0.51281 0.30313
 C507 C 0.42964 0.51054 0.24286
 C508 C 0.41689 0.49973 0.16800
 C509 C 0.38462 0.49152 0.14997
 H510 H 0.37497 0.52068 0.45140
 H511 H 0.32000 0.50968 0.48025
 H512 H 0.27715 0.48394 0.28940
 H513 H 0.42063 0.52068 0.36008
 H514 H 0.45390 0.51667 0.25455
 H515 H 0.38284 0.47209 0.07966
 C516 C 1.16017 0.64903 0.35242
 C517 C 1.15606 0.66467 0.28732
 C518 C 1.17453 0.69863 0.27963
 C519 C 1.19724 0.71703 0.33769
 C520 C 1.20183 0.70203 0.40377
 C521 C 1.18354 0.66817 0.41128
 O522 O 1.13927 0.61627 0.34478
 C523 C 1.12186 0.61070 0.27578
 C524 C 1.13176 0.64037 0.23871
 C525 C 1.11784 0.64194 0.16623
 C526 C 1.09382 0.61354 0.13062
 C527 C 1.08300 0.58362 0.16654
 C528 C 1.09709 0.58178 0.23894
 H529 H 1.17119 0.71013 0.23020
 H530 H 1.21101 0.74255 0.33183
 H531 H 1.18705 0.65673 0.45089
 H532 H 1.12554 0.66448 0.13890
 H533 H 1.08331 0.61472 0.07621
 H534 H 1.08917 0.55929 0.26639
 C535 C 0.48178 0.15274 0.32344
 C536 C 0.51408 0.16180 0.30972
 C537 C 0.53941 0.19061 0.34234
 C538 C 0.53229 0.21050 0.38912
 C539 C 0.50039 0.20199 0.40429
 C540 C 0.47472 0.17328 0.37152
 O541 O 0.46240 0.12393 0.28494
 C542 C 0.48177 0.11442 0.24679
 C543 C 0.51408 0.13750 0.26112
 C544 C 0.53942 0.13392 0.22893
 C545 C 0.53224 0.10691 0.18210
 C546 C 0.49976 0.08373 0.17870
 C547 C 0.47475 0.08697 0.19888
 H548 H 0.56367 0.19717 0.33153
 H549 H 0.55132 0.23213 0.41365
 H550 H 0.45057 0.16685 0.38247
 H551 H 0.56367 0.15151 0.24022
 H552 H 0.54983 0.10341 0.15832
 H553 H 0.45058 0.06923 0.18723
 C554 C 0.66803 0.51751 0.33372
 C555 C 0.64999 0.48648 0.30178
 C556 C 0.65754 0.46214 0.32012
 C557 C 0.68340 0.46897 0.37091
 C558 C 0.70168 0.49965 0.40408
 C559 C 0.69449 0.52428 0.38577
 O560 O 0.65549 0.53613 0.30615
 C561 C 0.62971 0.51750 0.25708
 C562 C 0.62568 0.48647 0.25317
 C563 C 0.60083 0.46214 0.20671
 C564 C 0.57983 0.46900 0.16355
 C565 C 0.58333 0.50029 0.16717
 C566 C 0.60811 0.52423 0.21300
 H567 H 0.64372 0.43883 0.29562
 H568 H 0.68905 0.45069 0.38471
 H569 H 0.70834 0.54748 0.41035
 H570 H 0.59807 0.43883 0.20431
 H571 H 0.56119 0.45070 0.12888
 H572 H 0.61072 0.54748 0.21510
 C573 C 0.83631 0.35094 0.34534
 C574 C 0.84666 0.33535 0.29281
 C575 C 0.83307 0.30144 0.29500
 C576 C 0.80892 0.28299 0.35032
 C577 C 0.79823 0.29797 0.40388
 C578 C 0.81155 0.33183 0.40186
 O579 O 0.85347 0.38366 0.33013
 C580 C 0.87463 0.38925 0.26866
 C581 C 0.87096 0.35966 0.24420
 C582 C 0.88977 0.35810 0.18163
 C583 C 0.91386 0.38603 0.14556
 C584 C 0.91768 0.41688 0.16805
 C585 C 0.89793 0.41790 0.22878
 H586 H 0.84110 0.28998 0.25502
 H587 H 0.79873 0.25751 0.35198
 H588 H 0.80344 0.34312 0.44177
 H589 H 0.88675 0.33564 0.16372
 H590 H 0.92660 0.38536 0.09621
 H591 H 0.89828 0.43194 0.24110
   
