data_POSCAR
  _audit_creation_date              2014-09-24
  _audit_creation_method            'ToBaCCo'
  _symmetry_space_group_name_H-M    'P1'
  _symmetry_Int_Tables_number       1
  _symmetry_cell_setting            triclinic
  loop_
  _symmetry_equiv_pos_as_xyz
 x,y,z
_cell_length_a 54.2824
_cell_length_b 27.8431
_cell_length_c 23.7959
_cell_angle_alpha 89.950000
_cell_angle_beta 90.021400
_cell_angle_gamma 90.037200
loop_
  _atom_site_label
  _atom_site_type_symbol
  _atom_site_fract_x
  _atom_site_fract_y
  _atom_site_fract_z
C1 C 0.70292 0.29663 0.55274
 C2 C 0.69124 0.30310 0.50048
 C3 C 0.70254 0.29134 0.44975
 C4 C 0.72642 0.27131 0.45001
 C5 C 0.73899 0.26437 0.50165
 C6 C 0.72764 0.27874 0.55302
 C7 C 0.74227 0.27885 0.60177
 C8 C 0.76592 0.26001 0.60187
 C9 C 0.77642 0.23992 0.55326
 C10 C 0.76336 0.24465 0.50165
 C11 C 0.73816 0.25877 0.39977
 C12 C 0.76199 0.24102 0.39955
 C13 C 0.77490 0.23186 0.44983
 C14 C 0.79959 0.21409 0.45003
 C15 C 0.81183 0.21001 0.50188
 C16 C 0.80053 0.21982 0.55370
 H17 H 0.73647 0.29606 0.64007
 H18 H 0.77628 0.26436 0.64021
 H19 H 0.72925 0.26340 0.35949
 H20 H 0.77006 0.23674 0.35864
 H21 H 0.67262 0.31713 0.49859
 H22 H 0.83019 0.19477 0.50213
 C23 C 0.20343 0.79341 0.55201
 C24 C 0.19255 0.80616 0.50094
 C25 C 0.20384 0.79642 0.44950
 C26 C 0.22696 0.77297 0.44865
 C27 C 0.23835 0.75946 0.50015
 C28 C 0.22641 0.76936 0.55195
 C29 C 0.23693 0.75214 0.60185
 C30 C 0.25906 0.72702 0.60142
 C31 C 0.27221 0.71900 0.55120
 C32 C 0.26114 0.73403 0.49968
 C33 C 0.23832 0.76031 0.39781
 C34 C 0.26046 0.73538 0.39725
 C35 C 0.27226 0.72211 0.44749
 C36 C 0.29421 0.69500 0.44683
 C37 C 0.30475 0.68022 0.49742
 C38 C 0.29497 0.69312 0.55005
 H39 H 0.22771 0.75624 0.64182
 H40 H 0.26474 0.71203 0.64108
 H41 H 0.22994 0.76834 0.35770
 H42 H 0.26782 0.72544 0.35669
 H43 H 0.17484 0.82426 0.50120
 H44 H 0.32198 0.66061 0.49512
 C45 C 0.20561 0.19553 -0.44942
 C46 C 0.19538 0.18047 -0.50017
 C47 C 0.20586 0.19213 -0.55251
 C48 C 0.22893 0.21698 -0.55296
 C49 C 0.23952 0.23291 -0.50143
 C50 C 0.22774 0.22212 -0.44959
 C51 C 0.23909 0.23580 -0.39905
 C52 C 0.26146 0.25982 -0.39898
 C53 C 0.27349 0.27124 -0.44945
 C54 C 0.26255 0.25779 -0.50140
 C55 C 0.24296 0.22231 -0.60225
 C56 C 0.26538 0.24645 -0.60224
 C57 C 0.27517 0.26683 -0.55293
 C58 C 0.29827 0.29169 -0.55228
 C59 C 0.30875 0.30282 -0.49977
 C60 C 0.29689 0.29321 -0.44912
 H61 H 0.23122 0.22678 -0.35867
 H62 H 0.26950 0.26815 -0.35858
 H63 H 0.23779 0.20533 -0.64119
 H64 H 0.27544 0.24580 -0.64121
 H65 H 0.17797 0.16141 -0.49828
 H66 H 0.32638 0.32105 -0.49752
 C67 C -0.20469 0.80484 -0.55169
 C68 C -0.19402 0.81565 -0.49933
 C69 C -0.20520 0.80346 -0.44855
 C70 C -0.22836 0.78036 -0.44885
 C71 C -0.24004 0.76946 -0.50067
 C72 C -0.22862 0.78322 -0.55221
 C73 C -0.24263 0.77945 -0.60166
 C74 C -0.26573 0.75814 -0.60185
 C75 C -0.27625 0.73902 -0.55264
 C76 C -0.26381 0.74708 -0.50075
 C77 C -0.24093 0.77123 -0.39860
 C78 C -0.26404 0.75012 -0.39860
 C79 C -0.27558 0.73551 -0.44880
 C80 C -0.29947 0.71407 -0.44902
 C81 C -0.31114 0.70676 -0.50101
 C82 C -0.29994 0.71690 -0.55290
 H83 H -0.23689 0.79573 -0.64062
 H84 H -0.27569 0.75997 -0.64096
 H85 H -0.23354 0.78223 -0.35842
 H86 H -0.27299 0.74825 -0.35832
 H87 H -0.17591 0.83205 -0.49739
 H88 H -0.32894 0.68916 -0.50118
 O89 O 0.03368 0.91884 -0.10437
 O90 O 0.06096 0.96202 -0.05067
 C91 C 0.05582 0.93193 -0.09058
 O92 O -0.03604 1.08700 -0.09750
 O93 O -0.06305 1.04048 -0.04689
 C94 C -0.05812 1.07349 -0.08374
 O95 O 0.03277 1.08382 -0.10418
 O96 O 0.06047 1.04165 -0.05052
 C97 C 0.05503 1.07155 -0.09044
 O98 O -0.03505 0.91257 -0.09805
 O99 O -0.06251 0.95765 -0.04702
 C100 C -0.05726 0.92521 -0.08426
 Zr101 Zr -0.00070 0.93970 -0.07038
 O102 O -0.00320 0.93566 -0.15899
 O103 O 0.00093 0.86416 -0.06281
 Zr104 Zr -0.00136 1.06133 -0.07018
 O105 O -0.00434 1.06400 -0.15881
 O106 O 0.00115 1.13719 -0.06669
 O107 O 0.02080 1.00103 -0.08173
 O108 O -0.02233 1.00007 -0.08066
 O109 O -0.03464 0.91181 0.09826
 O110 O -0.06231 0.95732 0.04824
 C111 C -0.05691 0.92452 0.08501
 O112 O 0.03324 1.08346 0.10400
 O113 O 0.06071 1.04155 0.04958
 C114 C 0.05545 1.07136 0.08965
 O115 O -0.03564 1.08610 0.09949
 O116 O -0.06280 1.04020 0.04862
 C117 C -0.05776 1.07260 0.08603
 O118 O 0.03412 0.91831 0.10357
 O119 O 0.06115 0.96200 0.04975
 C120 C 0.05619 0.93176 0.08966
 Zr121 Zr -0.00038 0.93933 0.07039
 O122 O -0.00292 0.93662 0.15908
 O123 O 0.00259 0.86356 0.06679
 Zr124 Zr -0.00106 1.06098 0.07081
 O125 O -0.00354 1.06338 0.15952
 O126 O 0.00130 1.13687 0.06733
 Zr127 Zr 0.03612 1.00120 -0.00022
 Zr128 Zr -0.03773 0.99955 0.00049
 O129 O -0.02198 0.99961 0.08137
 O130 O 0.02116 1.00062 0.08162
 O131 O -0.02271 0.92980 0.00014
 O132 O 0.02045 1.07031 0.00011
 O133 O 0.02130 0.93137 -0.00028
 O134 O -0.02348 1.07005 0.00057
 H135 H -0.03324 0.99987 -0.11405
 H136 H 0.03165 1.09843 0.00001
 H137 H -0.03276 0.99914 0.11494
 H138 H 0.03282 0.90375 -0.00041
 H139 H -0.01383 1.14923 -0.04769
 H140 H -0.01399 1.14893 0.04964
 H141 H 0.00873 1.04051 0.17457
 H142 H 0.00919 0.95975 0.17427
 H143 H -0.01104 0.85166 0.04292
 H144 H 0.00096 0.85149 -0.10171
 H145 H 0.00774 0.96079 -0.17445
 H146 H 0.00797 1.04146 -0.17429
 O147 O 0.46559 0.41865 0.10343
 O148 O 0.43878 0.46237 0.04911
 C149 C 0.44358 0.43218 0.08915
 O150 O 0.53620 0.58565 0.09798
 O151 O 0.56316 0.53869 0.04804
 C152 C 0.55827 0.57176 0.08473
 O153 O 0.46732 0.58343 0.10320
 O154 O 0.43966 0.54186 0.04881
 C155 C 0.44506 0.57152 0.08894
 O156 O 0.53434 0.41136 0.09877
 O157 O 0.56229 0.45596 0.04836
 C158 C 0.55669 0.42360 0.08552
 Zr159 Zr 0.50024 0.43902 0.07032
 O160 O 0.50235 0.43520 0.15902
 O161 O 0.49830 0.36348 0.06313
 Zr162 Zr 0.50150 0.56069 0.06970
 O163 O 0.50408 0.56401 0.15834
 O164 O 0.49935 0.63656 0.06532
 O165 O 0.47901 0.50071 0.08097
 O166 O 0.52211 0.49906 0.08091
 O167 O 0.53469 0.41028 -0.09744
 O168 O 0.56240 0.45557 -0.04729
 C169 C 0.55697 0.42271 -0.08393
 O170 O 0.46781 0.58291 -0.10556
 O171 O 0.43988 0.54164 -0.05150
 C172 C 0.44548 0.57119 -0.09168
 O173 O 0.53665 0.58474 -0.09907
 O174 O 0.56338 0.53821 -0.04777
 C175 C 0.55865 0.57083 -0.08518
 O176 O 0.46606 0.41774 -0.10398
 O177 O 0.43902 0.46204 -0.05105
 C178 C 0.44400 0.43150 -0.09054
 Zr179 Zr 0.50053 0.43854 -0.07041
 O180 O 0.50342 0.43611 -0.15907
 O181 O 0.49721 0.36282 -0.06695
 Zr182 Zr 0.50183 0.56016 -0.07119
 O183 O 0.50474 0.56276 -0.15981
 O184 O 0.49976 0.63607 -0.06777
 Zr185 Zr 0.46403 0.50106 -0.00086
 Zr186 Zr 0.53790 0.49819 0.00015
 O187 O 0.52248 0.49845 -0.08107
 O188 O 0.47934 0.50015 -0.08234
 O189 O 0.52252 0.42869 0.00036
 O190 O 0.48002 0.56993 -0.00107
 O191 O 0.47852 0.43099 -0.00022
 O192 O 0.52400 0.56893 -0.00051
 H193 H 0.53285 0.49869 0.11459
 H194 H 0.46891 0.59817 -0.00133
 H195 H 0.53338 0.49779 -0.11443
 H196 H 0.46690 0.40350 -0.00021
 H197 H 0.51469 0.64834 0.04758
 H198 H 0.51507 0.64791 -0.04994
 H199 H 0.49284 0.53928 -0.17512
 H200 H 0.49105 0.45856 -0.17455
 H201 H 0.51048 0.35074 -0.04217
 H202 H 0.49805 0.35089 0.10208
 H203 H 0.49114 0.45998 0.17413
 H204 H 0.49216 0.54056 0.17371
 N205 N 0.34897 0.33186 0.35960
 C206 C 0.33802 0.33757 0.30903
 N207 N 0.31361 0.32812 0.30392
 N208 N 0.30066 0.31309 0.34829
 C209 C 0.31161 0.30643 0.39921
 N210 N 0.33603 0.31686 0.40365
 C211 C 0.35264 0.35298 0.26216
 C212 C 0.36684 0.36561 0.22613
 C213 C 0.38571 0.38011 0.18747
 N214 N 0.38126 0.41314 0.14676
 N215 N 0.39957 0.42900 0.11427
 C216 C 0.42292 0.41251 0.12167
 N217 N 0.42722 0.37931 0.16227
 N218 N 0.40894 0.36343 0.19459
 N219 N -0.17990 0.80094 0.30538
 C220 C -0.16151 0.83377 0.30873
 N221 N -0.15759 0.85673 0.35799
 N222 N -0.17170 0.84752 0.40239
 C223 C -0.19051 0.81524 0.39954
 N224 N -0.19404 0.79178 0.34999
 C225 C -0.14577 0.84370 0.26168
 C226 C -0.13150 0.85375 0.22465
 C227 C -0.11332 0.86752 0.18389
 N228 N -0.08996 0.85087 0.18868
 N229 N -0.07220 0.86777 0.15552
 C230 C -0.07715 0.90198 0.11643
 N231 N -0.10064 0.91822 0.11121
 N232 N -0.11843 0.90133 0.14448
 N233 N 0.68609 0.67826 0.30349
 C234 C 0.66131 0.67260 0.30625
 N235 N 0.64962 0.68175 0.35522
 N236 N 0.66220 0.69639 0.39998
 C237 C 0.68703 0.70298 0.39781
 N238 N 0.69869 0.69295 0.34851
 C239 C 0.64720 0.65677 0.25873
 C240 C 0.63353 0.64369 0.22185
 C241 C 0.61528 0.62845 0.18200
 N242 N 0.59220 0.64665 0.18535
 N243 N 0.57427 0.62954 0.15287
 C244 C 0.57878 0.59359 0.11581
 N245 N 0.60202 0.57570 0.11200
 N246 N 0.61998 0.59278 0.14468
 N247 N 0.18045 1.19354 0.30511
 C248 C 0.16301 1.15883 0.30887
 N249 N 0.16019 1.13494 0.35794
 N250 N 0.17437 1.14529 0.40187
 C251 C 0.19212 1.17974 0.39874
 N252 N 0.19468 1.20382 0.34925
 C253 C 0.14666 1.14860 0.26301
 C254 C 0.13179 1.13849 0.22729
 C255 C 0.11288 1.12493 0.18823
 N256 N 0.11765 1.09349 0.14610
 N257 N 0.09945 1.07736 0.11350
 C258 C 0.07587 1.09196 0.12219
 N259 N 0.07123 1.12366 0.16418
 N260 N 0.08941 1.13980 0.19666
 N261 N 0.65525 0.34722 -0.35768
 C262 C 0.66068 0.32802 -0.30697
 N263 N 0.68023 0.29799 -0.30239
 N264 N 0.69402 0.28797 -0.34729
 C265 C 0.68898 0.30776 -0.39836
 N266 N 0.66902 0.33716 -0.40235
 C267 C 0.64535 0.33897 -0.25956
 C268 C 0.63130 0.34974 -0.22241
 C269 C 0.61322 0.36415 -0.18177
 N270 N 0.61842 0.39850 -0.14312
 N271 N 0.60070 0.41592 -0.11011
 C272 C 0.57717 0.39970 -0.11489
 N273 N 0.57213 0.36496 -0.15322
 N274 N 0.58983 0.34753 -0.18608
 N275 N 0.18609 0.84293 -0.30926
 C276 C 0.16177 0.83176 -0.30701
 N277 N 0.15149 0.80690 -0.34992
 N278 N 0.16502 0.79366 -0.39385
 C279 C 0.18937 0.80456 -0.39636
 N280 N 0.19968 0.82960 -0.35330
 C281 C 0.14638 0.84848 -0.26209
 C282 C 0.13192 0.86220 -0.22719
 C283 C 0.11306 0.87798 -0.18924
 N284 N 0.11791 0.91046 -0.14821
 N285 N 0.09977 0.92704 -0.11575
 C286 C 0.07622 0.91178 -0.12345
 N287 N 0.07152 0.87914 -0.16441
 N288 N 0.08962 0.86256 -0.19671
 N289 N 0.34056 0.63455 -0.36136
 C290 C 0.33875 0.65960 -0.31288
 N291 N 0.32208 0.69569 -0.30926
 N292 N 0.30760 0.70613 -0.35291
 C293 C 0.30908 0.68083 -0.40172
 N294 N 0.32612 0.64506 -0.40480
 C295 C 0.35523 0.64900 -0.26741
 C296 C 0.37007 0.63866 -0.23169
 C297 C 0.38878 0.62487 -0.19229
 N298 N 0.38366 0.59395 -0.14978
 N299 N 0.40163 0.57778 -0.11658
 C300 C 0.42532 0.59186 -0.12497
 N301 N 0.43032 0.62306 -0.16734
 N302 N 0.41237 0.63924 -0.20044
 N303 N -0.14890 1.18639 -0.35382
 C304 C -0.16064 1.17709 -0.30489
 N305 N -0.18543 1.18251 -0.30227
 N306 N -0.19801 1.19698 -0.34742
 C307 C -0.18633 1.20698 -0.39675
 N308 N -0.16148 1.20079 -0.39873
 C309 C -0.14660 1.16094 -0.25736
 C310 C -0.13304 1.14744 -0.22044
 C311 C -0.11492 1.13167 -0.18054
 N312 N -0.11976 1.09563 -0.14369
 N313 N -0.10189 1.07806 -0.11108
 C314 C -0.07860 1.09583 -0.11451
 N315 N -0.07395 1.13214 -0.15109
 N316 N -0.09178 1.14972 -0.18349
 N317 N 0.65000 0.67924 -0.35723
 C318 C 0.66183 0.66689 -0.30935
 N319 N 0.68674 0.66976 -0.30747
 N320 N 0.69935 0.68507 -0.35219
 C321 C 0.68759 0.69858 -0.40024
 N322 N 0.66261 0.69451 -0.40169
 C323 C 0.64769 0.65120 -0.26180
 C324 C 0.63404 0.63867 -0.22464
 C325 C 0.61580 0.62448 -0.18427
 N326 N 0.62035 0.58931 -0.14614
 N327 N 0.60237 0.57330 -0.11277
 C328 C 0.57927 0.59186 -0.11664
 N329 N 0.57491 0.62733 -0.15450
 N330 N 0.59286 0.64336 -0.18766
 N331 N 0.17064 1.20657 -0.31684
 C332 C 0.16302 1.16070 -0.30855
 N333 N 0.17002 1.12624 -0.34538
 N334 N 0.18420 1.13722 -0.38918
 C335 C 0.19198 1.18303 -0.39757
 N336 N 0.18486 1.21757 -0.36068
 C337 C 0.14601 1.14920 -0.26442
 C338 C 0.13091 1.13845 -0.22949
 C339 C 0.11203 1.12449 -0.19062
 N340 N 0.11698 1.09344 -0.14815
 N341 N 0.09891 1.07748 -0.11510
 C342 C 0.07529 1.09194 -0.12359
 N343 N 0.07047 1.12327 -0.16593
 N344 N 0.08852 1.13923 -0.19889
 N345 N 0.34717 0.30274 -0.34607
 C346 C 0.33770 0.33330 -0.30749
 N347 N 0.31438 0.34989 -0.31431
 N348 N 0.30098 0.33620 -0.35851
 C349 C 0.31046 0.30539 -0.39715
 N350 N 0.33382 0.28912 -0.39017
 C351 C 0.35311 0.35019 -0.26271
 C352 C 0.36761 0.36373 -0.22776
 C353 C 0.38651 0.37903 -0.18965
 N354 N 0.38187 0.41185 -0.14889
 N355 N 0.40008 0.42790 -0.11623
 C356 C 0.42349 0.41173 -0.12343
 N357 N 0.42798 0.37874 -0.16409
 N358 N 0.40981 0.36268 -0.19660
 N359 N -0.17323 0.79133 -0.31194
 C360 C -0.16352 0.83587 -0.30527
 N361 N -0.16794 0.86982 -0.34483
 N362 N -0.18168 0.85968 -0.38963
 C363 C -0.19159 0.81527 -0.39637
 N364 N -0.18701 0.78118 -0.35679
 C365 C -0.14718 0.84629 -0.25943
 C366 C -0.13258 0.85634 -0.22312
 C367 C -0.11412 0.86980 -0.18290
 N368 N -0.11904 0.90294 -0.14269
 N369 N -0.10110 0.91930 -0.10952
 C370 C -0.07763 0.90315 -0.11563
 N371 N -0.07287 0.86960 -0.15554
 N372 N -0.09079 0.85323 -0.18859
 N373 N 0.32970 0.62553 0.34298
 C374 C 0.33642 0.65984 0.30558
 N375 N 0.32851 0.70556 0.31327
 N376 N 0.31432 0.71659 0.35713
 C377 C 0.30751 0.68222 0.39464
 N378 N 0.31555 0.63654 0.38679
 C379 C 0.35353 0.64846 0.26165
 C380 C 0.36875 0.63788 0.22693
 C381 C 0.38777 0.62412 0.18835
 N382 N 0.41129 0.63862 0.19729
 N383 N 0.42945 0.62281 0.16457
 C384 C 0.42472 0.59191 0.12179
 N385 N 0.40110 0.57770 0.11264
 N386 N 0.38293 0.59350 0.14545
 N387 N -0.18555 1.16649 0.31064
 C388 C -0.16060 1.16832 0.31145
 N389 N -0.14908 1.18489 0.35795
 N390 N -0.16205 1.19971 0.40204
 C391 C -0.18713 1.19909 0.40155
 N392 N -0.19851 1.18137 0.35496
 C393 C -0.14617 1.15269 0.26440
 C394 C -0.13245 1.14024 0.22735
 C395 C -0.11432 1.12606 0.18677
 N396 N -0.09126 1.14444 0.19018
 N397 N -0.07350 1.12852 0.15650
 C398 C -0.07816 1.09369 0.11808
 N399 N -0.10138 1.07565 0.11421
 N400 N -0.11918 1.09155 0.14808
 N401 N 0.65135 0.29484 0.34805
 C402 C 0.66053 0.32337 0.30691
 N403 N 0.68381 0.34062 0.31185
 N404 N 0.69749 0.32950 0.35657
 C405 C 0.68836 0.30064 0.39771
 N406 N 0.66499 0.28376 0.39271
 C407 C 0.64498 0.33786 0.26115
 C408 C 0.63081 0.35038 0.22497
 C409 C 0.61263 0.36572 0.18500
 N410 N 0.61800 0.39945 0.14567
 N411 N 0.60035 0.41676 0.11232
 C412 C 0.57675 0.40097 0.11734
 N413 N 0.57155 0.36688 0.15641
 N414 N 0.58917 0.34957 0.18962
 N415 N 0.15248 0.80867 0.34962
 C416 C 0.16232 0.83674 0.30892
 N417 N 0.18614 0.85105 0.31349
 N418 N 0.19969 0.83747 0.35754
 C419 C 0.18984 0.80906 0.39826
 N420 N 0.16597 0.79517 0.39355
 C421 C 0.14695 0.85302 0.26372
 C422 C 0.13251 0.86598 0.22837
 C423 C 0.11365 0.88060 0.18976
 N424 N 0.11829 0.91301 0.14848
 N425 N 0.10011 0.92854 0.11541
 C426 C 0.07671 0.91223 0.12269
 N427 N 0.07222 0.87962 0.16385
 N428 N 0.09037 0.86408 0.19676
   
