data_POSCAR
  _audit_creation_date              2014-09-24
  _audit_creation_method            'ToBaCCo'
  _symmetry_space_group_name_H-M    'P1'
  _symmetry_Int_Tables_number       1
  _symmetry_cell_setting            triclinic
  loop_
  _symmetry_equiv_pos_as_xyz
 x,y,z
_cell_length_a 45.7682
_cell_length_b 45.3241
_cell_length_c 45.2060
_cell_angle_alpha 89.965700
_cell_angle_beta 90.014000
_cell_angle_gamma 89.986300
loop_
  _atom_site_label
  _atom_site_type_symbol
  _atom_site_fract_x
  _atom_site_fract_y
  _atom_site_fract_z
N1 N 0.18462 1.24614 0.16413
 N2 N 0.16397 1.24480 0.18432
 C3 C 0.14465 1.26673 0.17954
 C4 C 0.15378 1.28263 0.15510
 C5 C 0.17929 1.26906 0.14594
 H6 H 0.12516 1.27061 0.19249
 H7 H 0.19250 1.27492 0.12700
 Cu8 Cu 0.16407 1.21388 0.21421
 Cu9 Cu 0.21590 1.21703 0.16181
 Cu10 Cu 0.21611 1.16169 0.21494
 N11 N 0.16448 1.18308 0.24421
 N12 N 0.18476 1.16252 0.24412
 C13 C 0.17953 1.14336 0.26626
 C14 C 0.15465 1.15245 0.28102
 C15 C 0.14571 1.17780 0.26657
 H16 H 0.19263 1.12408 0.27107
 H17 H 0.12665 1.19097 0.27163
 N18 N 0.24589 1.16469 0.18357
 N19 N 0.24564 1.18558 0.16319
 C20 C 0.26785 1.18089 0.14422
 C21 C 0.28280 1.15599 0.15318
 C22 C 0.26839 1.14628 0.17818
 H23 H 0.27259 1.19425 0.12499
 H24 H 0.27355 1.12680 0.19099
 H25 H 0.19332 1.18282 0.18167
 H26 H 0.21621 1.20642 0.20629
 N27 N 0.81196 0.75430 0.16544
 N28 N 0.83174 0.75397 0.18655
 C29 C 0.84996 0.73104 0.18207
 C30 C 0.84112 0.71640 0.15679
 C31 C 0.81696 0.73171 0.14681
 H32 H 0.86884 0.72592 0.19551
 H33 H 0.80446 0.72720 0.12702
 Cu34 Cu 0.83304 0.78496 0.21634
 Cu35 Cu 0.78227 0.78493 0.16253
 Cu36 Cu 0.78465 0.84080 0.21481
 N37 N 0.83383 0.81624 0.24586
 N38 N 0.81512 0.83823 0.24477
 C39 C 0.82120 0.85748 0.26657
 C40 C 0.84503 0.84699 0.28215
 C41 C 0.85246 0.82071 0.26852
 H42 H 0.80946 0.87781 0.27054
 H43 H 0.87050 0.80640 0.27428
 N44 N 0.75538 0.83938 0.18287
 N45 N 0.75416 0.81785 0.16324
 C46 C 0.73190 0.82314 0.14444
 C47 C 0.71865 0.84927 0.15258
 C48 C 0.73403 0.85900 0.17696
 H49 H 0.72599 0.80933 0.12589
 H50 H 0.73000 0.87901 0.18931
 H51 H 0.80684 0.81756 0.18254
 H52 H 0.78174 0.79602 0.20692
 N53 N 0.81690 1.24478 -0.16494
 N54 N 0.83895 1.24247 -0.18345
 C55 C 0.85840 1.26401 -0.17768
 C56 C 0.84793 1.28063 -0.15438
 C57 C 0.82155 1.26788 -0.14682
 H58 H 0.87883 1.26723 -0.18925
 H59 H 0.80719 1.27451 -0.12903
 Cu60 Cu 0.84053 1.21127 -0.21292
 Cu61 Cu 0.78469 1.21672 -0.16467
 Cu62 Cu 0.78613 1.16157 -0.21773
 N63 N 0.84025 1.18089 -0.24330
 N64 N 0.81873 1.16178 -0.24534
 C65 C 0.82398 1.14335 -0.26807
 C66 C 0.85027 1.15130 -0.28086
 C67 C 0.86001 1.17521 -0.26463
 H68 H 0.80997 1.12525 -0.27453
 H69 H 0.88004 1.18740 -0.26808
 N70 N 0.75497 1.16499 -0.18790
 N71 N 0.75420 1.18620 -0.16790
 C72 C 0.73098 1.18185 -0.15009
 C73 C 0.71666 1.15665 -0.15926
 C74 C 0.73238 1.14653 -0.18325
 H75 H 0.72543 1.19534 -0.13119
 H76 H 0.72805 1.12672 -0.19581
 H77 H 0.80741 1.18173 -0.18273
 H78 H 0.78760 1.20641 -0.20910
 N79 N 0.18332 0.75677 -0.16103
 N80 N 0.16360 0.75632 -0.18220
 C81 C 0.14465 0.73416 -0.17696
 C82 C 0.15296 0.72015 -0.15113
 C83 C 0.17754 0.73505 -0.14158
 H84 H 0.12596 0.72881 -0.19058
 H85 H 0.19015 0.73051 -0.12186
 Cu86 Cu 0.16432 0.78554 -0.21375
 Cu87 Cu 0.21497 0.78551 -0.16012
 Cu88 Cu 0.21742 0.83654 -0.21737
 N89 N 0.16530 0.81464 -0.24538
 N90 N 0.18646 0.83422 -0.24693
 C91 C 0.18165 0.85217 -0.27017
 C92 C 0.15594 0.84350 -0.28372
 C93 C 0.14617 0.81958 -0.26749
 H94 H 0.19529 0.87072 -0.27618
 H95 H 0.12632 0.80718 -0.27119
 N96 N 0.24656 0.83533 -0.18524
 N97 N 0.24530 0.81623 -0.16320
 C98 C 0.26719 0.82191 -0.14413
 C99 C 0.28295 0.84563 -0.15470
 C100 C 0.26937 0.85361 -0.18078
 H101 H 0.27120 0.81003 -0.12378
 H102 H 0.27528 0.87186 -0.19499
 H103 H 0.19350 0.81852 -0.18311
 H104 H 0.21642 0.79261 -0.20525
 C105 C 0.50035 1.00275 -0.00252
 C106 C -0.00110 0.50016 1.00238
 C107 C 1.00200 -0.00170 0.49936
 C108 C 0.11124 0.35164 1.11482
 N109 N 0.13747 0.34215 1.10454
 N110 N 0.15137 0.31990 1.11771
 C111 C 0.13960 0.30637 1.14175
 N112 N 0.11345 0.31602 1.15214
 N113 N 0.09949 0.33818 1.13887
 C114 C 0.09542 0.37546 1.09968
 N115 N 0.06749 0.38204 1.10732
 N116 N 0.05273 0.40291 1.09290
 C117 C 0.06542 0.41809 1.07042
 N118 N 0.09344 0.41168 1.06293
 N119 N 0.10815 0.39070 1.07725
 C120 C 0.04876 0.44033 1.05386
 N121 N 0.06190 0.45713 1.03286
 N122 N 0.04649 0.47656 1.01715
 C123 C 0.01734 0.48003 1.02188
 N124 N 0.00425 0.46299 1.04279
 N125 N 0.01968 0.44368 1.05859
 C126 C -0.11655 0.64649 1.11429
 N127 N -0.10750 0.65576 1.14134
 N128 N -0.12113 0.67786 1.15503
 C129 C -0.14438 0.69140 1.14222
 N130 N -0.15355 0.68199 1.11527
 N131 N -0.13986 0.65998 1.10153
 C132 C -0.10088 0.62293 1.09862
 N133 N -0.10772 0.61630 1.07017
 N134 N -0.09286 0.59569 1.05553
 C135 C -0.07070 0.58084 1.06883
 N136 N -0.06398 0.58730 1.09736
 N137 N -0.07876 0.60801 1.11197
 C138 C -0.05364 0.55896 1.05222
 N139 N -0.03278 0.54254 1.06581
 N140 N -0.01665 0.52348 1.05041
 C141 C -0.02080 0.52004 1.02081
 N142 N -0.04159 0.53671 1.00729
 N143 N -0.05779 0.55565 1.02269
 C144 C -0.10984 0.35082 0.88769
 N145 N -0.09655 0.33593 0.86539
 N146 N -0.11014 0.31375 0.85182
 C147 C -0.13747 0.30559 0.86012
 N148 N -0.15079 0.32050 0.88238
 N149 N -0.13724 0.34275 0.89591
 C150 C -0.09448 0.37469 0.90319
 N151 N -0.10811 0.39052 0.92462
 N152 N -0.09384 0.41158 0.93926
 C153 C -0.06542 0.41751 0.93304
 N154 N -0.05184 0.40174 0.91154
 N155 N -0.06613 0.38075 0.89685
 C156 C -0.04931 0.43986 0.94995
 N157 N -0.02016 0.44347 0.94584
 N158 N -0.00526 0.46290 0.96196
 C159 C -0.01893 0.47975 0.98264
 N160 N -0.04814 0.47600 0.98673
 N161 N -0.06304 0.45649 0.97067
 C162 C 0.11070 0.65028 0.89157
 N163 N 0.10162 0.65952 0.86450
 N164 N 0.11514 0.68170 0.85081
 C165 C 0.13830 0.69536 0.86365
 N166 N 0.14746 0.68602 0.89064
 N167 N 0.13387 0.66393 0.90437
 C168 C 0.09535 0.62643 0.90714
 N169 N 0.10235 0.61973 0.93554
 N170 N 0.08794 0.59869 0.95005
 C171 C 0.06610 0.58347 0.93666
 N172 N 0.05920 0.59003 0.90818
 N173 N 0.07353 0.61117 0.89370
 C174 C 0.04964 0.56101 0.95309
 N175 N 0.02917 0.54421 0.93937
 N176 N 0.01363 0.52452 0.95460
 C177 C 0.01799 0.52079 0.98414
 N178 N 0.03837 0.53784 0.99780
 N179 N 0.05399 0.55741 0.98256
 C180 C 1.11363 0.11042 0.35000
 N181 N 1.13798 0.09870 0.33753
 N182 N 1.15144 0.11249 0.31536
 C183 C 1.14095 0.13844 0.30470
 N184 N 1.11659 0.15016 0.31720
 N185 N 1.10321 0.13644 0.33948
 C186 C 1.09841 0.09478 0.37391
 N187 N 1.07569 0.10757 0.38835
 N188 N 1.06138 0.09296 0.40944
 C189 C 1.06919 0.06499 0.41675
 N190 N 1.09197 0.05226 0.40237
 N191 N 1.10637 0.06691 0.38140
 C192 C 1.05271 0.04834 0.43905
 N193 N 1.05758 0.01905 0.44280
 N194 N 1.04197 0.00359 0.46221
 C195 C 1.02110 0.01684 0.47899
 N196 N 1.01618 0.04619 0.47508
 N197 N 1.03171 0.06164 0.45552
 C198 C 1.11398 -0.11588 0.64701
 N199 N 1.14046 -0.10610 0.65635
 N200 N 1.15420 -0.11942 0.67866
 C201 C 1.14202 -0.14307 0.69239
 N202 N 1.11564 -0.15298 0.68285
 N203 N 1.10185 -0.13959 0.66064
 C204 C 1.09826 -0.10049 0.62323
 N205 N 1.07026 -0.10784 0.61663
 N206 N 1.05558 -0.09318 0.59584
 C207 C 1.06841 -0.07072 0.58079
 N208 N 1.09648 -0.06350 0.58724
 N209 N 1.11113 -0.07808 0.60812
 C210 C 1.05179 -0.05386 0.55872
 N211 N 1.06493 -0.03258 0.54230
 N212 N 1.04954 -0.01661 0.52305
 C213 C 1.02041 -0.02134 0.51937
 N214 N 1.00733 -0.04253 0.53606
 N215 N 1.02272 -0.05857 0.55520
 C216 C 0.88743 -0.11185 0.35078
 N217 N 0.86397 -0.09905 0.33763
 N218 N 0.85007 -0.11256 0.31559
 C219 C 0.85917 -0.13933 0.30575
 N220 N 0.88260 -0.15218 0.31898
 N221 N 0.89645 -0.13871 0.34112
 C222 C 0.90320 -0.09644 0.37447
 N223 N 0.92555 -0.10976 0.38906
 N224 N 0.94030 -0.09537 0.40998
 C225 C 0.93331 -0.06710 0.41699
 N226 N 0.91091 -0.05384 0.40246
 N227 N 0.89609 -0.06826 0.38164
 C228 C 0.95020 -0.05076 0.43921
 N229 N 0.94558 -0.02148 0.44328
 N230 N 0.96153 -0.00632 0.46265
 C231 C 0.98253 -0.01989 0.47904
 N232 N 0.98717 -0.04924 0.47482
 N233 N 0.97129 -0.06438 0.45533
 C234 C 0.89226 0.11050 0.65006
 N235 N 0.86558 0.10104 0.65913
 N236 N 0.85189 0.11435 0.68145
 C237 C 0.86433 0.13768 0.69547
 N238 N 0.89094 0.14724 0.68625
 N239 N 0.90468 0.13385 0.66401
 C240 C 0.90776 0.09527 0.62607
 N241 N 0.93575 0.10254 0.61935
 N242 N 0.95016 0.08812 0.59823
 C243 C 0.93707 0.06599 0.58296
 N244 N 0.90900 0.05884 0.58954
 N245 N 0.89462 0.07318 0.61075
 C246 C 0.95332 0.04945 0.56040
 N247 N 0.93989 0.02844 0.54391
 N248 N 0.95492 0.01279 0.52414
 C249 C 0.98397 0.01761 0.52000
 N250 N 0.99736 0.03854 0.53675
 N251 N 0.98231 0.05426 0.55642
 C252 C 0.35273 1.11502 0.11012
 N253 N 0.34343 1.10511 0.13685
 N254 N 0.32128 1.11828 0.15069
 C255 C 0.30771 1.14191 0.13833
 N256 N 0.31714 1.15195 0.11170
 N257 N 0.33921 1.13870 0.09781
 C258 C 0.37643 1.09989 0.09434
 N259 N 0.38316 1.10750 0.06610
 N260 N 0.40396 1.09314 0.05137
 C261 C 0.41891 1.07074 0.06437
 N262 N 0.41234 1.06327 0.09269
 N263 N 0.39144 1.07755 0.10739
 C264 C 0.44101 1.05420 0.04766
 N265 N 0.45749 1.03317 0.06105
 N266 N 0.47675 1.01745 0.04556
 C267 C 0.48037 1.02219 0.01606
 N268 N 0.46364 1.04314 0.00273
 N269 N 0.44450 1.05894 0.01824
 C270 C 0.64655 1.11451 -0.11765
 N271 N 0.66033 1.10170 -0.14093
 N272 N 0.68239 1.11534 -0.15442
 C273 C 0.69157 1.14223 -0.14507
 N274 N 0.67775 1.15510 -0.12184
 N275 N 0.65560 1.14151 -0.10841
 C276 C 0.62297 1.09891 -0.10214
 N277 N 0.60797 1.11219 -0.07991
 N278 N 0.58727 1.09759 -0.06521
 C279 C 0.58092 1.06915 -0.07213
 N280 N 0.59584 1.05594 -0.09443
 N281 N 0.61644 1.07057 -0.10921
 C282 C 0.55908 1.05255 -0.05512
 N283 N 0.55567 1.02315 -0.05952
 N284 N 0.53673 1.00776 -0.04334
 C285 C 0.52016 1.02118 -0.02231
 N286 N 0.52372 1.05065 -0.01790
 N287 N 0.54277 1.06603 -0.03401
 C288 C 0.35265 0.88807 -0.11272
 N289 N 0.34394 0.89662 -0.14014
 N290 N 0.32187 0.88297 -0.15365
 C291 C 0.30779 0.86023 -0.14027
 N292 N 0.31661 0.85159 -0.11294
 N293 N 0.33860 0.86529 -0.09939
 C294 C 0.37626 0.90369 -0.09729
 N295 N 0.38269 0.89707 -0.06874
 N296 N 0.40343 0.91182 -0.05432
 C297 C 0.41861 0.93366 -0.06795
 N298 N 0.41233 0.94017 -0.09658
 N299 N 0.39150 0.92548 -0.11098
 C300 C 0.44071 0.95058 -0.05160
 N301 N 0.45711 0.97138 -0.06541
 N302 N 0.47643 0.98736 -0.05025
 C303 C 0.48018 0.98312 -0.02069
 N304 N 0.46353 0.96239 -0.00695
 N305 N 0.44432 0.94634 -0.02212
 C306 C 0.64921 0.89204 0.11035
 N307 N 0.65783 0.86477 0.10148
 N308 N 0.67987 0.85107 0.11500
 C309 C 0.69403 0.86410 0.13793
 N310 N 0.68531 0.89129 0.14689
 N311 N 0.66335 0.90503 0.13330
 C312 C 0.62550 0.90759 0.09496
 N313 N 0.61911 0.93600 0.10187
 N314 N 0.59821 0.95049 0.08737
 C315 C 0.58283 0.93705 0.06552
 N316 N 0.58907 0.90855 0.05874
 N317 N 0.61006 0.89409 0.07316
 C318 C 0.56055 0.95347 0.04888
 N319 N 0.54391 0.93984 0.02814
 N320 N 0.52441 0.95505 0.01241
 C321 C 0.52071 0.98450 0.01687
 N322 N 0.53759 0.99808 0.03754
 N323 N 0.55699 0.98285 0.05334
   
