data_POSCAR
  _audit_creation_date              2014-09-24
  _audit_creation_method            'ToBaCCo'
  _symmetry_space_group_name_H-M    'P1'
  _symmetry_Int_Tables_number       1
  _symmetry_cell_setting            triclinic
  loop_
  _symmetry_equiv_pos_as_xyz
 x,y,z
_cell_length_a 30.6334
_cell_length_b 30.6972
_cell_length_c 30.7218
_cell_angle_alpha 91.044900
_cell_angle_beta 91.024600
_cell_angle_gamma 88.949600
loop_
  _atom_site_label
  _atom_site_type_symbol
  _atom_site_fract_x
  _atom_site_fract_y
  _atom_site_fract_z
C1 C 0.03009 0.44263 0.18752
 H2 H 0.05623 0.46564 0.18510
 C3 C 0.03273 0.40239 0.16539
 H4 H 0.06079 0.39461 0.14553
 C5 C -0.03735 0.42355 0.21803
 H6 H -0.06399 0.43109 0.23956
 C7 C -0.03606 0.38318 0.19652
 H8 H -0.06207 0.36033 0.20120
 N9 N -0.00455 0.45235 0.21333
 C10 C -0.01248 0.59288 0.23778
 H11 H -0.01644 0.59180 0.27266
 C12 C -0.01282 0.63286 0.21704
 H13 H -0.01713 0.66272 0.23596
 C14 C -0.00152 0.55519 0.17062
 H15 H 0.00286 0.52480 0.15280
 C16 C -0.00162 0.59471 0.14850
 H17 H 0.00281 0.59474 0.11360
 Zn18 Zn -0.00453 0.50406 0.24820
 N19 N -0.00627 0.55515 0.21460
 C20 C 0.07659 0.53591 0.27821
 N21 N 0.04750 0.50333 0.28267
 C22 C 0.05702 0.46850 0.30821
 C23 C 0.09726 0.46554 0.33041
 C24 C 0.11698 0.53425 0.29981
 C25 C -0.09340 0.51255 0.25973
 C26 C -0.13318 0.51300 0.28101
 C27 C -0.09413 0.50112 0.34896
 C28 C -0.05484 0.50093 0.32631
 N29 N -0.05534 0.50595 0.28236
 H30 H 0.06921 0.56270 0.25689
 H31 H 0.03379 0.44255 0.31045
 H32 H 0.10493 0.43745 0.35015
 H33 H 0.14009 0.56005 0.29547
 H34 H -0.09275 0.51673 0.22486
 H35 H -0.16332 0.51760 0.26253
 H36 H -0.09373 0.49646 0.38383
 H37 H -0.02419 0.49628 0.34371
 C38 C -0.00700 0.63387 0.17209
 C39 C -0.00056 0.37225 0.17029
 C40 C -0.13363 0.50688 0.32593
 C41 C 0.12760 0.49864 0.32585
 C42 C 0.03751 0.55659 0.81032
 H43 H 0.06401 0.53295 0.81295
 C44 C 0.04011 0.59665 0.83266
 H45 H 0.06850 0.60381 0.85287
 C46 C -0.03099 0.57735 0.77917
 H47 H -0.05806 0.57052 0.75732
 C48 C -0.02972 0.61756 0.80089
 H49 H -0.05609 0.64110 0.79611
 N50 N 0.00233 0.54779 0.78412
 C51 C -0.00321 0.40765 0.75961
 H52 H -0.00699 0.40870 0.72456
 C53 C -0.00382 0.36783 0.78054
 H54 H -0.00802 0.33803 0.76160
 C55 C 0.00669 0.44537 0.82709
 H56 H 0.01042 0.47575 0.84497
 C57 C 0.00627 0.40601 0.84943
 H58 H 0.00993 0.40604 0.88456
 Zn59 Zn 0.00208 0.49621 0.74930
 N60 N 0.00242 0.44530 0.78291
 C61 C 0.08293 0.46352 0.71933
 N62 N 0.05262 0.49617 0.71463
 C63 C 0.06002 0.53076 0.68881
 C64 C 0.09937 0.53347 0.66664
 C65 C 0.12251 0.46492 0.69776
 C66 C -0.08678 0.48915 0.73896
 C67 C -0.12759 0.48859 0.71833
 C68 C -0.09229 0.49889 0.64952
 C69 C -0.05189 0.49921 0.67161
 N70 N -0.05008 0.49496 0.71563
 H71 H 0.07722 0.43696 0.74091
 H72 H 0.03583 0.55678 0.68641
 H73 H 0.10542 0.56143 0.64676
 H74 H 0.14669 0.43913 0.70235
 H75 H -0.08422 0.48553 0.77388
 H76 H -0.15654 0.48448 0.73754
 H77 H -0.09359 0.50282 0.61452
 H78 H -0.02223 0.50320 0.65371
 C79 C 0.00109 0.36694 0.82578
 C80 C 0.00627 0.62749 0.82753
 C81 C -0.13050 0.49380 0.67325
 C82 C 0.13101 0.50035 0.67152
 C83 C 0.18846 0.03862 0.44362
 H84 H 0.18573 0.06508 0.46722
 C85 C 0.16611 0.04113 0.40358
 H86 H 0.14576 0.06941 0.39637
 C87 C 0.21994 -0.02968 0.42296
 H88 H 0.24195 -0.05662 0.42983
 C89 C 0.19821 -0.02850 0.38277
 H90 H 0.20312 -0.05481 0.35928
 N91 N 0.21484 0.00359 0.45246
 C92 C 0.23956 -0.00166 0.59240
 H93 H 0.27472 -0.00531 0.59129
 C94 C 0.21864 -0.00233 0.63222
 H95 H 0.23770 -0.00645 0.66197
 C96 C 0.17179 0.00794 0.55483
 H97 H 0.15380 0.01157 0.52449
 C98 C 0.14946 0.00745 0.59419
 H99 H 0.11421 0.01096 0.59423
 Zn100 Zn 0.24976 0.00352 0.50395
 N101 N 0.21611 0.00384 0.55483
 C102 C 0.27970 0.08425 0.53647
 N103 N 0.28440 0.05396 0.50388
 C104 C 0.31033 0.06124 0.46932
 C105 C 0.33272 0.10041 0.46663
 C106 C 0.30149 0.12364 0.53509
 C107 C 0.26050 -0.08511 0.51110
 C108 C 0.28145 -0.12571 0.51177
 C109 C 0.35023 -0.09016 0.50162
 C110 C 0.32789 -0.04996 0.50118
 N111 N 0.28371 -0.04837 0.50529
 H112 H 0.25803 0.07862 0.56301
 H113 H 0.31272 0.03707 0.44336
 H114 H 0.35275 0.10635 0.43872
 H115 H 0.29695 0.14779 0.56086
 H116 H 0.22546 -0.08275 0.51463
 H117 H 0.26254 -0.15480 0.51585
 H118 H 0.38532 -0.09150 0.49781
 H119 H 0.34571 -0.02028 0.49722
 C120 C 0.17326 0.00239 0.63319
 C121 C 0.17140 0.00734 0.37280
 C122 C 0.32661 -0.12833 0.50671
 C123 C 0.32791 0.13198 0.49973
 C124 C 0.81262 0.02948 0.55491
 H125 H 0.81472 0.05563 0.53195
 C126 C 0.83474 0.03232 0.59513
 H127 H 0.85430 0.06051 0.60303
 C128 C 0.78279 -0.03819 0.57395
 H129 H 0.76150 -0.06500 0.56643
 C130 C 0.80434 -0.03667 0.61429
 H131 H 0.79998 -0.06260 0.63719
 N132 N 0.78710 -0.00537 0.54519
 C133 C 0.76209 -0.01345 0.40489
 H134 H 0.72715 -0.01766 0.40610
 C135 C 0.78274 -0.01363 0.36485
 H136 H 0.76360 -0.01809 0.33514
 C137 C 0.82946 -0.00198 0.44231
 H138 H 0.84738 0.00254 0.47262
 C139 C 0.85152 -0.00190 0.40275
 H140 H 0.88650 0.00280 0.40271
 Zn141 Zn 0.75193 -0.00551 0.49370
 N142 N 0.78541 -0.00707 0.44250
 C143 C 0.72128 0.07532 0.46203
 N144 N 0.71717 0.04629 0.49464
 C145 C 0.69198 0.05581 0.52975
 C146 C 0.66986 0.09603 0.53303
 C147 C 0.69973 0.11569 0.46400
 C148 C 0.74072 -0.09423 0.48514
 C149 C 0.71961 -0.13404 0.48501
 C150 C 0.65143 -0.09539 0.49778
 C151 C 0.67392 -0.05607 0.49763
 N152 N 0.71791 -0.05636 0.49203
 H153 H 0.74232 0.06794 0.43500
 H154 H 0.69004 0.03263 0.55572
 H155 H 0.65047 0.10373 0.56139
 H156 H 0.70385 0.13878 0.43819
 H157 H 0.77562 -0.09342 0.48053
 H158 H 0.73825 -0.16403 0.48021
 H159 H 0.61654 -0.09517 0.50293
 H160 H 0.65638 -0.02557 0.50254
 C161 C 0.82779 -0.00745 0.36366
 C162 C 0.83016 -0.00095 0.62520
 C163 C 0.67467 -0.13471 0.49176
 C164 C 0.67414 0.12635 0.49994
 C165 C 0.55479 0.18899 0.96222
 H166 H 0.53118 0.18649 0.93571
 C167 C 0.59492 0.16660 0.95965
 H168 H 0.60217 0.14646 0.93129
 C169 C 0.57542 0.21995 1.03067
 H170 H 0.56852 0.24177 1.05770
 C171 C 0.61569 0.19817 1.02944
 H172 H 0.63921 0.20287 1.05580
 N173 N 0.54590 0.21514 0.99734
 C174 C 0.40558 0.24026 1.00248
 H175 H 0.40675 0.27534 1.00619
 C176 C 0.36560 0.21947 1.00308
 H177 H 0.33583 0.23864 1.00720
 C178 C 0.44318 0.17259 0.99282
 H179 H 0.47360 0.15460 0.98920
 C180 C 0.40368 0.15035 0.99323
 H181 H 0.40373 0.11517 0.98966
 Zn182 Zn 0.49439 0.25021 0.99744
 N183 N 0.44324 0.21681 0.99699
 C184 C 0.46203 0.28046 0.91678
 N185 N 0.49472 0.28485 0.94708
 C186 C 0.52963 0.31039 0.93983
 C187 C 0.53263 0.33263 0.90066
 C188 C 0.46372 0.30212 0.87738
 C189 C 0.48707 0.26085 1.08602
 C190 C 0.48670 0.28166 1.12664
 C191 C 0.49771 0.35023 1.09127
 C192 C 0.49782 0.32803 1.05104
 N193 N 0.49317 0.28401 1.04936
 H194 H 0.43521 0.25909 0.92239
 H195 H 0.55566 0.31253 0.96400
 H196 H 0.56083 0.35231 0.89474
 H197 H 0.43788 0.29779 0.85322
 H198 H 0.48313 0.22593 1.08359
 H199 H 0.48244 0.26278 1.15567
 H200 H 0.50202 0.38518 1.09268
 H201 H 0.50204 0.34582 1.02143
 C202 C 0.36455 0.17415 0.99829
 C203 C 0.62573 0.17163 0.99349
 C204 C 0.49239 0.32665 1.12936
 C205 C 0.49946 0.32810 0.86906
 C206 C 0.44223 0.81034 0.97120
 H207 H 0.46539 0.81254 0.94519
 C208 C 0.40198 0.83257 0.96833
 H209 H 0.39434 0.85228 0.94020
 C210 C 0.42283 0.78032 1.03860
 H211 H 0.43027 0.75896 1.06533
 C212 C 0.38243 0.80194 1.03707
 H213 H 0.35944 0.79751 1.06298
 N214 N 0.45182 0.78474 1.00595
 C215 C 0.59262 0.76081 1.01455
 H216 H 0.59169 0.72593 1.01877
 C217 C 0.63258 0.78174 1.01476
 H218 H 0.66258 0.76298 1.01924
 C219 C 0.55457 0.82775 1.00299
 H220 H 0.52404 0.84542 0.99842
 C221 C 0.59405 0.85006 1.00294
 H222 H 0.59393 0.88494 0.99819
 Zn223 Zn 0.50368 0.74996 1.00634
 N224 N 0.55472 0.78378 1.00809
 C225 C 0.53603 0.71979 0.92569
 N226 N 0.50330 0.71524 0.95459
 C227 C 0.46848 0.68962 0.94496
 C228 C 0.46564 0.66752 0.90475
 C229 C 0.53451 0.69827 0.88535
 C230 C 0.51190 0.73905 1.09502
 C231 C 0.51241 0.71803 1.13484
 C232 C 0.50089 0.64970 1.09634
 C233 C 0.50064 0.67209 1.05700
 N234 N 0.50547 0.71610 1.05721
 H235 H 0.56282 0.74116 0.93315
 H236 H 0.44239 0.68732 0.96804
 H237 H 0.43751 0.64778 0.89696
 H238 H 0.56041 0.70275 0.86238
 H239 H 0.51593 0.77395 1.09414
 H240 H 0.51690 0.73676 1.16477
 H241 H 0.49642 0.61478 1.09617
 H242 H 0.49611 0.65446 1.02655
 C243 C 0.63339 0.82667 1.00854
 C244 C 0.37167 0.82799 1.00148
 C245 C 0.50652 0.67305 1.13559
 C246 C 0.49887 0.67225 0.87458
 B247 B 0.99971 1.04556 0.02714
 B248 B 1.02791 1.00124 0.04425
 B249 B 0.97288 1.00148 0.04353
 B250 B 0.95531 1.02841 -0.00097
 B251 B 0.99947 1.04477 -0.02768
 B252 B 1.04429 1.02798 0.00022
 B253 B 1.00071 0.95597 -0.02815
 B254 B 0.97250 1.00029 -0.04526
 B255 B 1.02747 1.00005 -0.04447
 B256 B 1.04511 0.97311 -0.00004
 B257 B 1.00095 0.95669 0.02672
 B258 B 0.95607 0.97349 -0.00124
 B259 B 0.54452 0.49863 0.47489
 B260 B 0.49960 0.52614 0.45755
 B261 B 0.50027 0.47127 0.45723
 B262 B 0.52821 0.45463 0.50182
 B263 B 0.54481 0.49929 0.52972
 B264 B 0.52713 0.54348 0.50237
 B265 B 0.45580 0.49984 0.52862
 B266 B 0.50073 0.47231 0.54596
 B267 B 0.50006 0.52722 0.54632
 B268 B 0.47214 0.54380 0.50168
 B269 B 0.45550 0.49918 0.47377
 B270 B 0.47320 0.45500 0.50113
 C271 C 1.00356 1.25162 0.11852
 N272 N 0.99986 1.24421 0.07498
 N273 N 0.99890 1.20359 0.05897
 C274 C 1.00146 1.16913 0.08599
 N275 N 1.00519 1.17651 0.12954
 N276 N 1.00615 1.21715 0.14555
 C277 C 1.00325 1.29535 0.13597
 C278 C 1.00204 1.33175 0.15146
 C279 C 1.00040 1.12553 0.06842
 C280 C 0.99975 1.08964 0.05190
 C281 C 0.99691 0.75389 0.11763
 N282 N 1.00638 0.75968 0.07520
 N283 N 1.00791 0.79969 0.05923
 C284 C 1.00012 0.83511 0.08519
 N285 N 0.99065 0.82933 0.12761
 N286 N 0.98913 0.78932 0.14359
 C287 C 0.99542 0.71090 0.13510
 C288 C 0.99423 0.67533 0.15102
 C289 C 1.00097 0.87802 0.06755
 C290 C 1.00130 0.91334 0.05114
 C291 C 1.00009 1.24730 -0.11902
 N292 N 0.99863 1.24167 -0.07541
 N293 N 0.99818 1.20169 -0.05925
 C294 C 0.99914 1.16619 -0.08619
 N295 N 1.00059 1.17181 -0.12980
 N296 N 1.00104 1.21179 -0.14596
 C297 C 1.00053 1.29021 -0.13666
 C298 C 1.00085 1.32568 -0.15280
 C299 C 0.99896 1.12333 -0.06853
 C300 C 0.99900 1.08805 -0.05210
 C301 C 1.00915 0.75010 -0.11940
 N302 N 1.00564 0.75753 -0.07596
 N303 N 1.00382 0.79816 -0.06000
 C304 C 1.00530 0.83258 -0.08697
 N305 N 1.00886 0.82518 -0.13042
 N306 N 1.01068 0.78453 -0.14639
 C307 C 1.00954 0.70643 -0.13684
 C308 C 1.00878 0.67010 -0.15237
 C309 C 1.00324 0.87614 -0.06946
 C310 C 1.00175 0.91199 -0.05294
 C311 C 1.11862 1.01000 0.25016
 N312 N 1.14578 1.01224 0.21589
 N313 N 1.12996 1.01031 0.17521
 C314 C 1.08652 1.00591 0.16763
 N315 N 1.05937 1.00372 0.20190
 N316 N 1.07518 1.00565 0.24256
 C317 C 1.13592 1.01049 0.29385
 C318 C 1.15136 1.00979 0.33020
 C319 C 1.06916 1.00379 0.12405
 C320 C 1.05272 1.00227 0.08819
 C321 C 1.11834 1.00109 -0.24711
 N322 N 1.14546 1.00302 -0.21175
 N323 N 1.12946 1.00245 -0.17172
 C324 C 1.08583 0.99988 -0.16591
 N325 N 1.05871 0.99795 -0.20125
 N326 N 1.07471 0.99852 -0.24128
 C327 C 1.13582 1.00165 -0.29006
 C328 C 1.15187 1.00205 -0.32555
 C329 C 1.06832 0.99962 -0.12301
 C330 C 1.05194 0.99962 -0.08771
 C331 C 0.88138 0.99691 0.24600
 N332 N 0.92396 1.00631 0.24033
 N333 N 0.94006 1.00797 0.20039
 C334 C 0.91408 1.00040 0.16493
 N335 N 0.87150 0.99100 0.17059
 N336 N 0.85540 0.98934 0.21053
 C337 C 0.86377 0.99525 0.28892
 C338 C 0.84772 0.99390 0.32442
 C339 C 0.93185 1.00137 0.12210
 C340 C 0.94836 1.00178 0.08683
 C341 C 0.88216 1.00376 -0.25163
 N342 N 0.92581 1.00075 -0.24388
 N343 N 0.94152 0.99991 -0.20317
 C344 C 0.91410 1.00191 -0.16897
 N345 N 0.87044 1.00496 -0.17670
 N346 N 0.85472 1.00580 -0.21743
 C347 C 0.86505 1.00333 -0.29546
 C348 C 0.84985 1.00202 -0.33195
 C349 C 0.93138 1.00094 -0.12528
 C350 C 0.94775 1.00033 -0.08934
 C351 C 1.24699 1.11985 -0.00061
 N352 N 1.24149 1.07620 0.00115
 N353 N 1.20148 1.05991 0.00166
 C354 C 1.16582 1.08676 0.00046
 N355 N 1.17131 1.13040 -0.00131
 N356 N 1.21132 1.14669 -0.00182
 C357 C 1.28992 1.13762 -0.00111
 C358 C 1.32541 1.15390 -0.00145
 C359 C 1.12294 1.06897 0.00068
 C360 C 1.08762 1.05245 0.00066
 C361 C 0.74873 1.11892 -0.00941
 N362 N 0.78309 1.14602 -0.01171
 N363 N 0.82389 1.13024 -0.00987
 C364 C 0.83152 1.08688 -0.00550
 N365 N 0.79717 1.05979 -0.00324
 N366 N 0.75639 1.07557 -0.00508
 C367 C 0.70491 1.13619 -0.00981
 C368 C 0.66845 1.15160 -0.00904
 C369 C 0.87524 1.06956 -0.00345
 C370 C 0.91122 1.05315 -0.00198
 C371 C 1.25112 0.88050 -0.00324
 N372 N 1.21640 0.85366 -0.00509
 N373 N 1.17579 0.86999 -0.00434
 C374 C 1.16869 0.91368 -0.00158
 N375 N 1.20341 0.94051 0.00023
 N376 N 1.24400 0.92418 -0.00051
 C377 C 1.29482 0.86275 -0.00270
 C378 C 1.33119 0.84702 -0.00131
 C379 C 1.12512 0.93157 -0.00066
 C380 C 1.08924 0.94828 -0.00008
 C381 C 0.75332 0.88170 0.00379
 N382 N 0.75883 0.92421 -0.00561
 N383 N 0.79882 0.94040 -0.00741
 C384 C 0.83449 0.91457 0.00002
 N385 N 0.82899 0.87206 0.00943
 N386 N 0.78900 0.85587 0.01122
 C387 C 0.71036 0.86401 0.00559
 C388 C 0.67482 0.84792 0.00703
 C389 C 0.87737 0.93243 -0.00106
 C390 C 0.91269 0.94898 -0.00152
 C391 C 0.74694 0.50295 0.38214
 N392 N 0.74187 0.49832 0.42555
 N393 N 0.70203 0.49684 0.44215
 C394 C 0.66609 0.49987 0.41584
 N395 N 0.67116 0.50451 0.37244
 N396 N 0.71100 0.50599 0.35584
 C397 C 0.78974 0.50448 0.36403
 C398 C 0.82513 0.50567 0.34758
 C399 C 0.62333 0.49888 0.43398
 C400 C 0.58804 0.49843 0.45060
 C401 C 0.25021 0.49427 0.37985
 N402 N 0.25706 0.49639 0.42356
 N403 N 0.29754 0.49741 0.44010
 C404 C 0.33242 0.49647 0.41348
 N405 N 0.32560 0.49432 0.36977
 N406 N 0.28510 0.49329 0.35321
 C407 C 0.20661 0.49455 0.36190
 C408 C 0.17029 0.49576 0.34609
 C409 C 0.37586 0.49777 0.43162
 C410 C 0.41160 0.49869 0.44858
 C411 C 0.75110 0.49606 0.62074
 N412 N 0.74331 0.50379 0.57797
 N413 N 0.70253 0.50483 0.56214
 C414 C 0.66836 0.49826 0.58858
 N415 N 0.67614 0.49052 0.63134
 N416 N 0.71692 0.48948 0.64718
 C417 C 0.79486 0.49516 0.63808
 C418 C 0.83107 0.49446 0.65409
 C419 C 0.62468 0.49887 0.57114
 C420 C 0.58875 0.49921 0.55466
 C421 C 0.25204 0.50492 0.61886
 N422 N 0.25808 0.50159 0.57530
 N423 N 0.29827 0.50070 0.55937
 C424 C 0.33363 0.50299 0.58649
 N425 N 0.32761 0.50635 0.63004
 N426 N 0.28741 0.50724 0.64598
 C427 C 0.20888 0.50448 0.63621
 C428 C 0.17301 0.50320 0.65162
 C429 C 0.37674 0.50173 0.56905
 C430 C 0.41222 0.50072 0.55278
 C431 C 0.50320 0.61771 0.25513
 N432 N 0.49837 0.57434 0.26056
 N433 N 0.49710 0.55806 0.30044
 C434 C 0.50054 0.58465 0.33606
 N435 N 0.50537 0.62801 0.33063
 N436 N 0.50664 0.64429 0.29076
 C437 C 0.50448 0.63549 0.21229
 C438 C 0.50549 0.65168 0.17686
 C439 C 0.49973 0.56682 0.37885
 C440 C 0.49937 0.55038 0.41413
 C441 C 0.49469 0.61937 0.75180
 N442 N 0.49346 0.64642 0.71733
 N443 N 0.49460 0.63032 0.67676
 C444 C 0.49713 0.58666 0.66947
 N445 N 0.49832 0.55962 0.70393
 N446 N 0.49719 0.57571 0.74448
 C447 C 0.49488 0.63686 0.79547
 C448 C 0.49603 0.65232 0.83185
 C449 C 0.49853 0.56897 0.62596
 C450 C 0.49951 0.55229 0.59018
 C451 C 0.49584 0.38069 0.25139
 N452 N 0.48809 0.35442 0.28533
 N453 N 0.48951 0.37011 0.32605
 C454 C 0.49885 0.41254 0.33400
 N455 N 0.50659 0.43881 0.30006
 N456 N 0.50516 0.42312 0.25934
 C457 C 0.49452 0.36352 0.20770
 C458 C 0.49348 0.34774 0.17152
 C459 C 0.49969 0.42989 0.37757
 C460 C 0.50016 0.44634 0.41341
 C461 C 0.50487 0.38120 0.74867
 N462 N 0.50658 0.35418 0.71327
 N463 N 0.50595 0.37032 0.67327
 C464 C 0.50350 0.41399 0.66751
 N465 N 0.50183 0.44100 0.70290
 N466 N 0.50245 0.42487 0.74289
 C467 C 0.50412 0.36367 0.79160
 C468 C 0.50259 0.34812 0.82727
 C469 C 0.50243 0.43163 0.62463
 C470 C 0.50154 0.44805 0.58933
 C471 C 0.61914 0.74581 0.49689
 N472 N 0.64562 0.71007 0.49319
 N473 N 0.62926 0.67022 0.49502
 C474 C 0.58590 0.66495 0.50070
 N475 N 0.55941 0.70068 0.50441
 N476 N 0.57578 0.74053 0.50258
 C477 C 0.63700 0.78862 0.49496
 C478 C 0.65325 0.82402 0.49340
 C479 C 0.56796 0.62219 0.50194
 C480 C 0.55143 0.58692 0.50252
 C481 C 0.62108 0.24915 0.50552
 N482 N 0.57728 0.25641 0.50519
 N483 N 0.56103 0.29697 0.50454
 C484 C 0.58803 0.33149 0.50409
 N485 N 0.63184 0.32425 0.50445
 N486 N 0.64810 0.28368 0.50510
 C487 C 0.63867 0.20547 0.50480
 C488 C 0.65419 0.16909 0.50324
 C489 C 0.57018 0.37499 0.50303
 C490 C 0.55337 0.41076 0.50226
 C491 C 0.38109 0.74969 0.50466
 N492 N 0.42392 0.74180 0.49672
 N493 N 0.43974 0.70108 0.49574
 C494 C 0.41320 0.66707 0.50257
 N495 N 0.37037 0.67494 0.51052
 N496 N 0.35456 0.71567 0.51150
 C497 C 0.36379 0.79338 0.50548
 C498 C 0.34788 0.82955 0.50610
 C499 C 0.43063 0.62348 0.50203
 C500 C 0.44714 0.58762 0.50174
 C501 C 0.38159 0.25230 0.49546
 N502 N 0.35467 0.28777 0.49263
 N503 N 0.37094 0.32776 0.49368
 C504 C 0.41462 0.33344 0.49771
 N505 N 0.44153 0.29798 0.50050
 N506 N 0.42527 0.25800 0.49946
 C507 C 0.36387 0.20938 0.49577
 C508 C 0.34815 0.17373 0.49696
 C509 C 0.43238 0.37630 0.49910
 C510 C 0.44887 0.41160 0.50020
   
