data_POSCAR
  _audit_creation_date              2014-09-24
  _audit_creation_method            'ToBaCCo'
  _symmetry_space_group_name_H-M    'P1'
  _symmetry_Int_Tables_number       1
  _symmetry_cell_setting            triclinic
  loop_
  _symmetry_equiv_pos_as_xyz
 x,y,z
_cell_length_a 28.4697
_cell_length_b 27.0451
_cell_length_c 40.2237
_cell_angle_alpha 87.807100
_cell_angle_beta 90.408300
_cell_angle_gamma 94.729500
loop_
  _atom_site_label
  _atom_site_type_symbol
  _atom_site_fract_x
  _atom_site_fract_y
  _atom_site_fract_z
C1 C 0.01824 0.50239 0.98449
 C2 C 0.02202 0.50147 1.01831
 C3 C 0.02337 0.54762 1.03743
 C4 C 0.02447 0.45415 1.03809
 C5 C 0.02067 0.45692 0.96524
 C6 C 0.01162 0.54898 0.96491
 C7 C 0.05562 0.58832 1.02970
 C8 C 0.05623 0.63158 1.04771
 C9 C 0.02498 0.63518 1.07469
 C10 C -0.00628 0.59291 1.08270
 C11 C -0.00710 0.55013 1.06432
 C12 C 0.06104 0.44940 1.06122
 C13 C 0.06324 0.40576 1.08067
 C14 C 0.02882 0.36576 1.07736
 C15 C -0.00818 0.37096 1.05443
 C16 C -0.01044 0.41476 1.03509
 C17 C -0.01613 0.44253 0.94345
 C18 C -0.01444 0.39994 0.92510
 C19 C 0.02426 0.37087 0.92798
 C20 C 0.06162 0.38602 0.94943
 C21 C 0.05980 0.42864 0.96786
 C22 C -0.02670 0.57688 0.97081
 C23 C -0.03200 0.62108 0.95248
 C24 C 0.00102 0.63824 0.92785
 C25 C 0.03869 0.60936 0.92160
 C26 C 0.04382 0.56518 0.93984
 H27 H 0.08064 0.58656 1.00971
 H28 H 0.08237 0.66097 1.04034
 H29 H -0.03107 0.59257 1.10302
 H30 H -0.03201 0.51892 1.07097
 H31 H 0.08790 0.47968 1.06429
 H32 H 0.09137 0.40411 1.09878
 H33 H -0.03965 0.41810 1.01799
 H34 H -0.04649 0.46406 0.94092
 H35 H -0.04374 0.38958 0.90879
 H36 H 0.09277 0.36578 0.95160
 H37 H 0.08909 0.43985 0.98397
 H38 H -0.05253 0.56431 0.98958
 H39 H -0.06239 0.64110 0.95737
 H40 H 0.06469 0.62120 0.90279
 H41 H 0.07344 0.54395 0.93477
 H42 H -0.03548 0.34113 1.05144
 C43 C 0.49267 -0.00264 0.48347
 C44 C 0.49363 -0.00030 0.51724
 C45 C 0.44952 -0.00518 0.53702
 C46 C 0.53881 0.00697 0.53586
 C47 C 0.53636 -0.00115 0.46345
 C48 C 0.44786 -0.00686 0.46435
 C49 C 0.43941 0.03280 0.55794
 C50 C 0.39690 0.02991 0.57534
 C51 C 0.36389 -0.01139 0.57254
 C52 C 0.37463 -0.04994 0.55203
 C53 C 0.41715 -0.04696 0.53462
 C54 C 0.57169 0.04722 0.52797
 C55 C 0.61529 0.05187 0.54425
 C56 C 0.62669 0.01656 0.56899
 C57 C 0.59279 -0.02245 0.57780
 C58 C 0.54932 -0.02719 0.56139
 C59 C 0.56882 -0.03706 0.46847
 C60 C 0.60858 -0.03641 0.44819
 C61 C 0.61630 -0.00019 0.42231
 C62 C 0.58397 0.03619 0.41784
 C63 C 0.54427 0.03540 0.43803
 C64 C 0.43883 -0.04638 0.44306
 C65 C 0.39814 -0.04973 0.42348
 C66 C 0.36590 -0.01308 0.42440
 C67 C 0.37468 0.02610 0.44623
 C68 C 0.41546 0.02936 0.46589
 H69 H 0.46403 0.06525 0.56020
 H70 H 0.38983 0.06011 0.59100
 H71 H 0.34983 -0.08188 0.54867
 H72 H 0.42455 -0.07693 0.51886
 H73 H 0.56374 0.07479 0.50898
 H74 H 0.63978 0.08336 0.53760
 H75 H 0.52428 -0.05828 0.56803
 H76 H 0.56296 -0.06597 0.48773
 H77 H 0.63280 -0.06489 0.45233
 H78 H 0.58935 0.06568 0.39899
 H79 H 0.51965 0.06353 0.43391
 H80 H 0.46338 -0.07478 0.44166
 H81 H 0.39197 -0.08132 0.40787
 H82 H 0.35054 0.05487 0.44756
 H83 H 0.42216 0.06053 0.48186
 H84 H 0.60032 -0.05005 0.59689
 C85 C 0.08730 -0.01137 0.27757
 H86 H 0.09159 -0.01432 0.25117
 C87 C 0.12724 -0.00748 0.29794
 H88 H 0.16168 -0.00817 0.28679
 C89 C 0.03787 -0.00483 0.32395
 H90 H 0.00316 -0.00286 0.33414
 C91 C 0.07683 -0.00088 0.34524
 H92 H 0.07094 0.00227 0.37158
 N93 N 0.04351 -0.01067 0.29078
 C94 C -0.04705 -0.11085 0.24046
 H95 H -0.07551 -0.10715 0.25748
 C96 C -0.04781 -0.15319 0.22159
 H97 H -0.07723 -0.18083 0.22469
 C98 C 0.02288 -0.07715 0.21393
 H99 H 0.04921 -0.04655 0.20987
 C100 C 0.02379 -0.11904 0.19478
 H101 H 0.05197 -0.12051 0.17701
 Zn102 Zn -0.01078 -0.01636 0.26257
 N103 N -0.01146 -0.07428 0.23695
 C104 C -0.04237 0.03874 0.20774
 N105 N -0.00994 0.03933 0.23272
 C106 C 0.02230 0.07876 0.23630
 C107 C 0.02241 0.12000 0.21433
 C108 C -0.04375 0.07936 0.18535
 C109 C -0.07293 -0.05674 0.31278
 C110 C -0.11196 -0.05906 0.33376
 C111 C -0.13578 0.01585 0.30625
 C112 C -0.09618 0.01687 0.28590
 N113 N -0.06569 -0.01915 0.28944
 H114 H -0.06735 0.00668 0.20535
 H115 H 0.04766 0.07853 0.25641
 H116 H 0.04805 0.15127 0.21776
 H117 H -0.06957 0.07783 0.16547
 H118 H -0.04803 -0.08482 0.31523
 H119 H -0.11722 -0.08975 0.35176
 H120 H -0.15944 0.04508 0.30318
 H121 H -0.08962 0.04682 0.26757
 C122 C -0.01151 -0.15830 0.19871
 C123 C 0.12239 -0.00217 0.33230
 C124 C -0.14387 -0.02218 0.33079
 C125 C -0.01125 0.12092 0.18867
 C126 C -0.00982 0.11518 0.74871
 H127 H -0.01699 0.11685 0.72226
 C128 C -0.01015 0.15793 0.76701
 H129 H -0.01676 0.19248 0.75407
 C130 C 0.00916 0.06785 0.79702
 H131 H 0.01678 0.03260 0.80852
 C132 C 0.00910 0.10974 0.81632
 H133 H 0.01643 0.10619 0.84272
 N134 N -0.00029 0.07134 0.76387
 C135 C 0.05662 -0.01433 0.68595
 H136 H 0.03125 -0.04635 0.68536
 C137 C 0.09669 -0.01203 0.66591
 H138 H 0.10149 -0.04212 0.64958
 C139 C 0.08219 0.06258 0.70905
 H140 H 0.07725 0.09094 0.72659
 C141 C 0.12258 0.06652 0.68933
 H142 H 0.14816 0.09795 0.69222
 Zn143 Zn -0.00164 0.01529 0.73716
 N144 N 0.05022 0.02251 0.70718
 C145 C -0.06265 0.00755 0.68014
 N146 N -0.06009 0.01172 0.71374
 C147 C -0.09953 0.01603 0.73194
 C148 C -0.14381 0.01406 0.71676
 C149 C -0.10632 0.00571 0.66386
 C150 C 0.04265 -0.06802 0.76292
 C151 C 0.04660 -0.11199 0.78165
 C152 C -0.03017 -0.10364 0.80479
 C153 C -0.03277 -0.05989 0.78546
 N154 N 0.00302 -0.04332 0.76456
 H155 H -0.03100 0.00589 0.66579
 H156 H -0.09658 0.02219 0.75827
 H157 H -0.17447 0.01825 0.73182
 H158 H -0.10773 0.00191 0.63716
 H159 H 0.07163 -0.05357 0.74728
 H160 H 0.07871 -0.13057 0.78005
 H161 H -0.05932 -0.11652 0.82091
 H162 H -0.06351 -0.03941 0.78719
 C163 C 0.13044 0.02872 0.66750
 C164 C -0.00108 0.15553 0.80143
 C165 C 0.00954 -0.13079 0.80258
 C166 C -0.14772 0.00823 0.68229
 C167 C -0.00643 -0.28496 0.13974
 C168 C 0.02024 -0.24062 0.13149
 N169 N 0.04836 -0.23798 0.10435
 C170 C 0.05126 -0.27778 0.08499
 C171 C 0.02426 -0.32321 0.09293
 N172 N -0.00395 -0.32459 0.12040
 N173 N -0.03408 -0.28800 0.16717
 C174 C -0.03655 -0.24837 0.18669
 C175 C -0.01033 -0.20306 0.17829
 N176 N 0.01765 -0.20083 0.15077
 H177 H 0.07379 -0.27251 0.06354
 H178 H -0.05815 -0.25298 0.20871
 C179 C -0.01188 0.24919 0.12465
 C180 C 0.03021 0.23449 0.13866
 N181 N 0.07132 0.26189 0.13191
 C182 C 0.07226 0.30378 0.11205
 C183 C 0.02994 0.31946 0.09840
 N184 N -0.01107 0.29116 0.10499
 N185 N -0.05298 0.22165 0.13129
 C186 C -0.05394 0.17996 0.15137
 C187 C -0.01178 0.16511 0.16570
 N188 N 0.02929 0.19310 0.15889
 H189 H 0.10586 0.32406 0.10679
 H190 H -0.08745 0.15947 0.15665
 C191 C 0.25832 0.03098 0.61365
 C192 C 0.23375 -0.01401 0.62383
 N193 N 0.25179 -0.05747 0.61721
 C194 C 0.29331 -0.05803 0.60075
 C195 C 0.31821 -0.01292 0.59037
 N196 N 0.29980 0.03051 0.59729
 N197 N 0.24041 0.07445 0.62038
 C198 C 0.19918 0.07504 0.63717
 C199 C 0.17458 0.02997 0.64793
 N200 N 0.19262 -0.01352 0.64065
 H201 H 0.30700 -0.09335 0.59651
 H202 H 0.18569 0.11037 0.64174
 C203 C -0.28076 0.00238 0.63371
 C204 C -0.24003 0.02315 0.61742
 N205 N -0.24328 0.04170 0.58574
 C206 C -0.28550 0.04061 0.56960
 C207 C -0.32663 0.01985 0.58585
 N208 N -0.32286 0.00102 0.61760
 N209 N -0.27756 -0.01636 0.66533
 C210 C -0.23543 -0.01504 0.68155
 C211 C -0.19433 0.00598 0.66541
 N212 N -0.19786 0.02431 0.63351
 H213 H -0.28656 0.05483 0.54414
 H214 H -0.23409 -0.03101 0.70657
 C215 C 0.01636 -0.26560 0.85920
 C216 C -0.00843 -0.22719 0.87093
 N217 N -0.02996 -0.23305 0.90098
 C218 C -0.02797 -0.27570 0.91984
 C219 C -0.00331 -0.31466 0.90811
 N220 N 0.01832 -0.30814 0.87794
 N221 N 0.03823 -0.25974 0.82930
 C222 C 0.03671 -0.21697 0.81060
 C223 C 0.01214 -0.17800 0.82229
 N224 N -0.01012 -0.18446 0.85225
 H225 H -0.04464 -0.27836 0.94396
 H226 H 0.05389 -0.21394 0.78663
 C227 C -0.00156 0.28263 0.86017
 C228 C 0.02525 0.24323 0.86962
 N229 N 0.05126 0.24570 0.89800
 C230 C 0.05191 0.28599 0.91732
 C231 C 0.02533 0.32601 0.90781
 N232 N -0.00093 0.32282 0.87937
 N233 N -0.02810 0.27999 0.83208
 C234 C -0.02881 0.23980 0.81275
 C235 C -0.00150 0.20018 0.82182
 N236 N 0.02465 0.20304 0.85035
 H237 H 0.07228 0.28603 0.94009
 H238 H -0.05119 0.23868 0.79094
 C239 C -0.26376 -0.02214 0.39280
 C240 C -0.26405 -0.00204 0.36017
 N241 N -0.30324 0.01778 0.34814
 C242 C -0.34218 0.01883 0.36735
 C243 C -0.34200 -0.00065 0.40038
 N244 N -0.30256 -0.02101 0.41209
 N245 N -0.22457 -0.04218 0.40474
 C246 C -0.18561 -0.04315 0.38547
 C247 C -0.18570 -0.02299 0.35263
 N248 N -0.22518 -0.00279 0.34097
 H249 H -0.37306 0.03396 0.35658
 H250 H -0.15471 -0.05855 0.39602
 C251 C 0.24451 0.00467 0.39370
 C252 C 0.24381 -0.01849 0.36311
 N253 N 0.28274 -0.03910 0.35280
 C254 C 0.32241 -0.03798 0.37184
 C255 C 0.32328 -0.01529 0.40285
 N256 N 0.28408 0.00583 0.41278
 N257 N 0.20568 0.02579 0.40376
 C258 C 0.16594 0.02447 0.38471
 C259 C 0.16482 0.00074 0.35406
 N260 N 0.20424 -0.01987 0.34410
 H261 H 0.35305 -0.05387 0.36242
 H262 H 0.13605 0.04253 0.39331
   
