data_POSCAR
  _audit_creation_date              2014-09-24
  _audit_creation_method            'ToBaCCo'
  _symmetry_space_group_name_H-M    'P1'
  _symmetry_Int_Tables_number       1
  _symmetry_cell_setting            triclinic
  loop_
  _symmetry_equiv_pos_as_xyz
 x,y,z
_cell_length_a 34.5948
_cell_length_b 34.5681
_cell_length_c 34.6213
_cell_angle_alpha 89.955500
_cell_angle_beta 90.000400
_cell_angle_gamma 89.911200
loop_
  _atom_site_label
  _atom_site_type_symbol
  _atom_site_fract_x
  _atom_site_fract_y
  _atom_site_fract_z
O1 O 0.21830 1.03823 0.46293
 O2 O 0.21807 0.96292 0.53815
 O3 O 0.21828 1.03831 0.53822
 O4 O 0.21810 0.96286 0.46288
 O5 O 0.28202 0.96259 0.46291
 O6 O 0.28219 1.03805 0.53824
 O7 O 0.28200 0.96265 0.53817
 O8 O 0.28223 1.03796 0.46295
 Cu9 Cu 0.21175 1.00061 0.50055
 Cu10 Cu 0.28855 1.00029 0.50058
 C11 C 0.25030 1.05079 0.45023
 C12 C 0.25000 0.95007 0.55085
 C13 C 0.25026 1.05093 0.55096
 C14 C 0.25003 0.94998 0.45017
 O15 O 0.78149 -0.03835 0.46316
 O16 O 0.78170 0.03687 0.53826
 O17 O 0.78156 -0.03848 0.53841
 O18 O 0.78160 0.03697 0.46304
 O19 O 0.71767 0.03717 0.46312
 O20 O 0.71765 -0.03828 0.53849
 O21 O 0.71777 0.03708 0.53834
 O22 O 0.71755 -0.03815 0.46323
 Cu23 Cu 0.78804 -0.00078 0.50072
 Cu24 Cu 0.71121 -0.00054 0.50081
 C25 C 0.74949 -0.05091 0.45050
 C26 C 0.74977 0.04968 0.55094
 C27 C 0.74960 -0.05112 0.55119
 C28 C 0.74964 0.04980 0.45036
 O29 O 0.21818 0.46129 0.96300
 O30 O 0.21821 0.53655 1.03816
 O31 O 0.21814 0.53662 0.96296
 O32 O 0.21829 0.46121 1.03824
 O33 O 0.28221 0.46116 1.03817
 O34 O 0.28207 0.53657 0.96289
 O35 O 0.28214 0.53651 1.03809
 O36 O 0.28211 0.46125 0.96292
 Cu37 Cu 0.21175 0.49891 1.00060
 Cu38 Cu 0.28859 0.49886 1.00052
 C39 C 0.25014 0.44859 0.95026
 C40 C 0.25018 0.54925 1.05079
 C41 C 0.25008 0.54933 0.95022
 C42 C 0.25028 0.44846 1.05093
 O43 O 0.46349 0.21781 1.03812
 O44 O 0.53871 0.21779 0.96301
 O45 O 0.53881 0.21788 1.03828
 O46 O 0.46341 0.21766 0.96289
 O47 O 0.46323 0.28163 0.96273
 O48 O 0.53863 0.28184 1.03813
 O49 O 0.53852 0.28177 0.96286
 O50 O 0.46331 0.28179 1.03796
 Cu51 Cu 0.50113 0.21133 1.00059
 Cu52 Cu 0.50091 0.28821 1.00041
 C53 C 0.45070 0.24980 1.05070
 C54 C 0.55128 0.24978 0.95024
 C55 C 0.55145 0.24990 1.05095
 C56 C 0.45059 0.24960 0.95008
 O57 O 0.46292 0.78190 -0.03831
 O58 O 0.53813 0.78220 0.03681
 O59 O 0.53825 0.78213 -0.03847
 O60 O 0.46284 0.78194 0.03692
 O61 O 0.46314 0.71798 0.03701
 O62 O 0.53855 0.71817 -0.03837
 O63 O 0.53843 0.71822 0.03690
 O64 O 0.46322 0.71792 -0.03822
 Cu65 Cu 0.50051 0.78849 -0.00078
 Cu66 Cu 0.50088 0.71162 -0.00067
 C67 C 0.45036 0.74986 -0.05091
 C68 C 0.55094 0.75026 0.04956
 C69 C 0.55114 0.75018 -0.05117
 C70 C 0.45025 0.74993 0.04970
 O71 O 1.03819 0.46309 0.21777
 O72 O 0.96292 0.53837 0.21787
 O73 O 1.03825 0.53846 0.21786
 O74 O 0.96290 0.46301 0.21784
 O75 O 0.96293 0.46291 0.28170
 O76 O 1.03828 0.53836 0.28172
 O77 O 0.96295 0.53827 0.28176
 O78 O 1.03823 0.46299 0.28166
 Cu79 Cu 1.00056 0.50075 0.21140
 Cu80 Cu 1.00060 0.50063 0.28815
 C81 C 1.05090 0.45034 0.24970
 C82 C 0.95022 0.55101 0.24983
 C83 C 1.05101 0.55115 0.24979
 C84 C 0.95019 0.45021 0.24977
 O85 O -0.03838 0.46296 0.78177
 O86 O 0.03678 0.53812 0.78201
 O87 O -0.03855 0.53835 0.78189
 O88 O 0.03691 0.46277 0.78185
 O89 O 0.03699 0.46294 0.71798
 O90 O -0.03846 0.53851 0.71803
 O91 O 0.03687 0.53828 0.71813
 O92 O -0.03829 0.46312 0.71789
 Cu93 Cu -0.00083 0.50054 0.78832
 Cu94 Cu -0.00073 0.50074 0.71157
 C95 C -0.05099 0.45033 0.74979
 C96 C 0.04953 0.55085 0.75011
 C97 C -0.05126 0.55120 0.74996
 C98 C 0.04970 0.45009 0.74991
 O99 O 0.46147 0.96310 0.21797
 O100 O 0.53666 1.03833 0.21809
 O101 O 0.53671 0.96304 0.21804
 O102 O 0.46140 1.03844 0.21804
 O103 O 0.46135 1.03835 0.28191
 O104 O 0.53665 0.96295 0.28193
 O105 O 0.53661 1.03823 0.28198
 O106 O 0.46141 0.96300 0.28185
 Cu107 Cu 0.49905 1.00074 0.21158
 Cu108 Cu 0.49899 1.00063 0.28837
 C109 C 0.44878 0.95033 0.24989
 C110 C 0.54935 1.05095 0.25005
 C111 C 0.54939 0.95028 0.24999
 C112 C 0.44867 1.05114 0.24997
 O113 O 1.03795 0.21785 0.53731
 O114 O 0.96268 0.21781 0.46216
 O115 O 1.03794 0.21793 0.46211
 O116 O 0.96270 0.21782 0.53735
 O117 O 0.96254 0.28181 0.53732
 O118 O 1.03778 0.28192 0.46209
 O119 O 0.96252 0.28179 0.46213
 O120 O 1.03780 0.28184 0.53729
 Cu121 Cu 1.00034 0.21139 0.49973
 Cu122 Cu 1.00014 0.28830 0.49970
 C123 C 1.05057 0.24985 0.54999
 C124 C 0.94990 0.24979 0.44947
 C125 C 1.05055 0.24994 0.44940
 C126 C 0.94992 0.24980 0.55003
 O127 O -0.03771 0.78203 0.53761
 O128 O 0.03754 0.78189 0.46244
 O129 O -0.03771 0.78202 0.46242
 O130 O 0.03753 0.78191 0.53765
 O131 O 0.03753 0.71793 0.53770
 O132 O -0.03772 0.71804 0.46248
 O133 O 0.03753 0.71791 0.46250
 O134 O -0.03772 0.71805 0.53767
 Cu135 Cu -0.00008 0.78843 0.50002
 Cu136 Cu -0.00009 0.71152 0.50010
 C137 C -0.05042 0.75006 0.55032
 C138 C 0.05023 0.74988 0.44978
 C139 C -0.05041 0.75005 0.44976
 C140 C 0.05022 0.74990 0.55037
 O141 O 0.78193 0.46245 1.03756
 O142 O 0.78190 0.53774 0.96241
 O143 O 0.78191 0.53774 1.03758
 O144 O 0.78197 0.46246 0.96239
 O145 O 0.71804 0.46252 0.96238
 O146 O 0.71798 0.53780 1.03757
 O147 O 0.71796 0.53780 0.96240
 O148 O 0.71799 0.46251 1.03754
 Cu149 Cu 0.78840 0.50009 0.99999
 Cu150 Cu 0.71153 0.50016 0.99997
 C151 C 0.74997 0.44978 1.05022
 C152 C 0.74993 0.55047 0.94973
 C153 C 0.74993 0.55047 1.05026
 C154 C 0.75002 0.44979 0.94969
 O155 O 0.46158 1.03833 0.78185
 O156 O 0.53690 0.96298 0.78193
 O157 O 0.53686 1.03826 0.78187
 O158 O 0.46166 0.96300 0.78200
 O159 O 0.46163 0.96296 0.71812
 O160 O 0.53684 1.03823 0.71798
 O161 O 0.53687 0.96294 0.71804
 O162 O 0.46156 1.03829 0.71798
 Cu163 Cu 0.49924 1.00065 0.78837
 Cu164 Cu 0.49921 1.00061 0.71158
 C165 C 0.44886 1.05103 0.74990
 C166 C 0.54959 0.95025 0.74999
 C167 C 0.54956 1.05092 0.74991
 C168 C 0.44898 0.95026 0.75009
 C169 C 0.25058 0.22131 0.27872
 C170 C 0.22167 0.25023 0.27862
 C171 C 0.22170 0.27910 0.24969
 C172 C 0.25058 0.27906 0.22084
 C173 C 0.27947 0.25012 0.22096
 C174 C 0.27947 0.22123 0.24987
 C175 C 0.74963 0.77919 0.27889
 C176 C 0.77860 0.75034 0.27887
 C177 C 0.77870 0.72152 0.24996
 C178 C 0.74986 0.72154 0.22107
 C179 C 0.72092 0.75043 0.22109
 C180 C 0.72079 0.77925 0.24999
 C181 C 0.75011 0.22109 0.72106
 C182 C 0.77899 0.24993 0.72099
 C183 C 0.77900 0.27883 0.74983
 C184 C 0.75020 0.27884 0.77876
 C185 C 0.72134 0.24997 0.77880
 C186 C 0.72125 0.22112 0.74993
 C187 C 0.24981 0.77868 0.72150
 C188 C 0.27868 0.77866 0.75037
 C189 C 0.27874 0.74970 0.77920
 C190 C 0.24990 0.72079 0.77924
 C191 C 0.22102 0.72087 0.75038
 C192 C 0.22098 0.74979 0.72150
 C193 C 0.22141 0.24955 0.72093
 C194 C 0.22131 0.27844 0.74985
 C195 C 0.25022 0.27832 0.77874
 C196 C 0.27920 0.24941 0.77875
 C197 C 0.27922 0.22055 0.74980
 C198 C 0.25034 0.22059 0.72087
 C199 C 0.77865 0.75026 0.72115
 C200 C 0.74972 0.77921 0.72111
 C201 C 0.72083 0.77920 0.75002
 C202 C 0.72084 0.75030 0.77895
 C203 C 0.74982 0.72139 0.77891
 C204 C 0.77874 0.72132 0.75004
 C205 C 0.22099 0.74969 0.27878
 C206 C 0.24985 0.77863 0.27880
 C207 C 0.27872 0.77861 0.24987
 C208 C 0.27881 0.74968 0.22099
 C209 C 0.24993 0.72076 0.22106
 C210 C 0.22098 0.72074 0.24992
 C211 C 0.77877 0.24991 0.27881
 C212 C 0.77885 0.27883 0.24990
 C213 C 0.74992 0.27883 0.22103
 C214 C 0.72095 0.25001 0.22102
 C215 C 0.72091 0.22115 0.24999
 C216 C 0.74982 0.22106 0.27888
 C217 C 0.25053 0.13390 0.36667
 C218 C 0.24233 0.12401 0.32832
 C219 C 0.24233 0.15248 0.29965
 C220 C 0.25039 0.08004 0.42087
 C221 C 0.25885 0.20083 0.34760
 C222 C 0.25877 0.17236 0.37626
 C223 C 0.25046 0.10460 0.39617
 C224 C 0.25060 0.19105 0.30914
 H225 H 0.23590 0.09434 0.32061
 H226 H 0.23579 0.14456 0.27011
 H227 H 0.26540 0.23047 0.35529
 H228 H 0.26517 0.18030 0.40584
 C229 C 0.74939 0.86631 0.36686
 C230 C 0.77869 0.86580 0.33897
 C231 C 0.77873 0.83746 0.31023
 C232 C 0.74941 0.91994 0.42114
 C233 C 0.72017 0.81001 0.33727
 C234 C 0.72012 0.83840 0.36595
 C235 C 0.74938 0.89547 0.39641
 C236 C 0.74949 0.80939 0.30927
 H237 H 0.80145 0.88729 0.33942
 H238 H 0.80145 0.83737 0.28871
 H239 H 0.69751 0.78843 0.33691
 H240 H 0.69734 0.83857 0.38742
 C241 C 0.75000 0.13323 0.63382
 C242 C 0.72073 0.16124 0.63444
 C243 C 0.72079 0.18992 0.66284
 C244 C 0.74986 0.07903 0.58010
 C245 C 0.77937 0.16259 0.69011
 C246 C 0.77933 0.13396 0.66167
 C247 C 0.74993 0.10373 0.60460
 C248 C 0.75010 0.19072 0.69083
 H249 H 0.69792 0.16091 0.61300
 H250 H 0.69810 0.21154 0.66301
 H251 H 0.80209 0.16283 0.71164
 H252 H 0.80209 0.11240 0.66142
 C253 C 0.24982 0.86653 0.63398
 C254 C 0.22043 0.86571 0.66178
 C255 C 0.22042 0.83710 0.69031
 C256 C 0.24991 0.92071 0.58009
 C257 C 0.27916 0.80995 0.66325
 C258 C 0.27918 0.83861 0.63477
 C259 C 0.24986 0.89602 0.60467
 C260 C 0.24979 0.80906 0.69119
 H261 H 0.19759 0.88719 0.66143
 H262 H 0.19765 0.83681 0.71178
 H263 H 0.30192 0.78841 0.66352
 H264 H 0.30204 0.83899 0.61338
 C265 C 0.36727 0.24992 0.13367
 C266 C 0.32891 0.24165 0.12383
 C267 C 0.30028 0.24169 0.15227
 C268 C 0.42138 0.24982 0.07988
 C269 C 0.34831 0.25839 0.20049
 C270 C 0.37693 0.25827 0.17204
 C271 C 0.39671 0.24986 0.10441
 C272 C 0.30984 0.25007 0.19075
 H273 H 0.32117 0.23515 0.09422
 H274 H 0.27071 0.23510 0.14441
 H275 H 0.35604 0.26502 0.23007
 H276 H 0.40653 0.26472 0.17992
 C277 C 0.36669 0.74964 0.86634
 C278 C 0.36587 0.72030 0.83849
 C279 C 0.33719 0.72030 0.81009
 C280 C 0.42098 0.74975 0.91996
 C281 C 0.30999 0.77893 0.83741
 C282 C 0.33872 0.77895 0.86576
 C283 C 0.39624 0.74969 0.89550
 C284 C 0.30911 0.74962 0.80941
 H285 H 0.38740 0.69751 0.83871
 H286 H 0.33690 0.69758 0.78857
 H287 H 0.28841 0.80166 0.83727
 H288 H 0.33911 0.80176 0.88720
 C289 C 0.63374 0.75048 0.13317
 C290 C 0.63438 0.72113 0.16105
 C291 C 0.66274 0.72115 0.18977
 C292 C 0.58009 0.75037 0.07891
 C293 C 0.68996 0.77986 0.16273
 C294 C 0.66154 0.77986 0.13406
 C295 C 0.60457 0.75044 0.10363
 C296 C 0.69070 0.75050 0.19073
 H297 H 0.61298 0.69829 0.16060
 H298 H 0.66293 0.69839 0.21128
 H299 H 0.71145 0.80261 0.16308
 H300 H 0.66128 0.80268 0.11260
 C301 C 0.63418 0.24984 0.86674
 C302 C 0.63474 0.27923 0.83889
 C303 C 0.66311 0.27926 0.81019
 C304 C 0.58046 0.24978 0.92092
 C305 C 0.69052 0.22053 0.83718
 C306 C 0.66209 0.22048 0.86583
 C307 C 0.60497 0.24980 0.89623
 C308 C 0.69116 0.24992 0.80921
 H309 H 0.61324 0.30205 0.83936
 H310 H 0.66322 0.30204 0.78869
 H311 H 0.71209 0.19779 0.83680
 H312 H 0.66190 0.19763 0.88726
 C313 C 0.13414 0.36691 0.24962
 C314 C 0.17254 0.37661 0.25790
 C315 C 0.20108 0.34799 0.25795
 C316 C 0.08018 0.42102 0.24966
 C317 C 0.15290 0.29989 0.24131
 C318 C 0.12436 0.32852 0.24135
 C319 C 0.10479 0.39635 0.24963
 C320 C 0.19140 0.30948 0.24964
 H321 H 0.18037 0.40624 0.26436
 H322 H 0.23067 0.35575 0.26454
 H323 H 0.14508 0.27029 0.23474
 H324 H 0.09473 0.32074 0.23489
 C325 C 0.86621 0.36672 0.74966
 C326 C 0.83830 0.36590 0.72039
 C327 C 0.80987 0.33725 0.72043
 C328 C 0.91986 0.42097 0.74971
 C329 C 0.83730 0.31007 0.77897
 C330 C 0.86567 0.33877 0.77895
 C331 C 0.89539 0.39625 0.74967
 C332 C 0.80923 0.30918 0.74972
 H333 H 0.83848 0.38742 0.69762
 H334 H 0.78830 0.33695 0.69776
 H335 H 0.83718 0.28850 0.80168
 H336 H 0.88716 0.33916 0.80170
 C337 C 0.13314 0.63365 0.75035
 C338 C 0.16106 0.63425 0.72108
 C339 C 0.18976 0.66262 0.72113
 C340 C 0.07889 0.58000 0.75021
 C341 C 0.16265 0.68993 0.77971
 C342 C 0.13399 0.66150 0.77968
 C343 C 0.10362 0.60447 0.75028
 C344 C 0.19068 0.69063 0.75043
 H345 H 0.16064 0.61281 0.69828
 H346 H 0.21131 0.66278 0.69843
 H347 H 0.16296 0.71146 0.80242
 H348 H 0.11250 0.66127 0.80244
 C349 C 0.86666 0.63411 0.24989
 C350 C 0.86583 0.66208 0.22063
 C351 C 0.83717 0.69059 0.22065
 C352 C 0.92087 0.58025 0.24986
 C353 C 0.81003 0.66314 0.27916
 C354 C 0.83874 0.63469 0.27916
 C355 C 0.89616 0.60482 0.24988
 C356 C 0.80911 0.69126 0.24992
 H357 H 0.88732 0.66187 0.19788
 H358 H 0.83685 0.71220 0.19799
 H359 H 0.78846 0.66327 0.30184
 H360 H 0.83914 0.61315 0.30191
 C361 C 0.13383 0.24976 0.63328
 C362 C 0.16158 0.27920 0.63421
 C363 C 0.19014 0.27913 0.66274
 C364 C 0.07985 0.24985 0.57926
 C365 C 0.16322 0.22020 0.68960
 C366 C 0.13471 0.22026 0.66101
 C367 C 0.10446 0.24982 0.60389
 C368 C 0.19110 0.24963 0.69061
 H369 H 0.16115 0.30214 0.61287
 H370 H 0.21156 0.30194 0.66312
 H371 H 0.16356 0.19734 0.71100
 H372 H 0.11336 0.19737 0.66055
 C373 C 0.86627 0.75020 0.63355
 C374 C 0.82785 0.74207 0.62380
 C375 C 0.79929 0.74206 0.65234
 C376 C 0.92029 0.75011 0.57958
 C377 C 0.84750 0.75842 0.70048
 C378 C 0.87605 0.75836 0.67193
 C379 C 0.89566 0.75014 0.60418
 C380 C 0.80897 0.75025 0.69083
 H381 H 0.82000 0.73571 0.59418
 H382 H 0.76969 0.73559 0.64452
 H383 H 0.85534 0.76491 0.73006
 H384 H 0.90569 0.76469 0.67976
 C385 C 0.13344 0.74974 0.36645
 C386 C 0.16124 0.72026 0.36556
 C387 C 0.18978 0.72024 0.33701
 C388 C 0.07950 0.74982 0.42050
 C389 C 0.16275 0.77915 0.31006
 C390 C 0.13425 0.77919 0.33866
 C391 C 0.10410 0.74977 0.39586
 C392 C 0.19068 0.74969 0.30910
 H393 H 0.16086 0.69736 0.38694
 H394 H 0.21124 0.69740 0.33667
 H395 H 0.16304 0.80198 0.28862
 H396 H 0.11287 0.80211 0.33910
 C397 C 0.86650 0.24977 0.36632
 C398 C 0.87622 0.24155 0.32792
 C399 C 0.84764 0.24154 0.29941
 C400 C 0.92058 0.24977 0.42022
 C401 C 0.79949 0.25807 0.34760
 C402 C 0.82808 0.25800 0.37611
 C403 C 0.89592 0.24976 0.39565
 C404 C 0.80912 0.24983 0.30910
 H405 H 0.90586 0.23513 0.32006
 H406 H 0.85544 0.23502 0.26983
 H407 H 0.76989 0.26463 0.35545
 H408 H 0.82026 0.26441 0.40572
 C409 C 0.25012 0.36562 0.86668
 C410 C 0.27952 0.36490 0.83889
 C411 C 0.27953 0.33650 0.81019
 C412 C 0.25013 0.41938 0.92090
 C413 C 0.22074 0.30940 0.83703
 C414 C 0.22072 0.33784 0.86568
 C415 C 0.25012 0.39486 0.89619
 C416 C 0.25015 0.30858 0.80912
 H417 H 0.30239 0.38627 0.83939
 H418 H 0.30233 0.33627 0.78875
 H419 H 0.19796 0.28794 0.83662
 H420 H 0.19785 0.33815 0.88706
 C421 C 0.74999 0.36646 0.13344
 C422 C 0.75822 0.32801 0.12371
 C423 C 0.75824 0.29944 0.15226
 C424 C 0.74997 0.42047 0.07946
 C425 C 0.74169 0.34770 0.20035
 C426 C 0.74175 0.37626 0.17179
 C427 C 0.74998 0.39583 0.10407
 C428 C 0.74995 0.30914 0.19073
 H429 H 0.76464 0.32015 0.09410
 H430 H 0.76478 0.26980 0.14448
 H431 H 0.73513 0.35554 0.22992
 H432 H 0.73533 0.40593 0.17959
 C433 C 0.74990 0.63376 0.86650
 C434 C 0.74169 0.62397 0.82813
 C435 C 0.74163 0.65253 0.79958
 C436 C 0.74991 0.57976 0.92048
 C437 C 0.75812 0.70075 0.84769
 C438 C 0.75810 0.67219 0.87624
 C439 C 0.74989 0.60438 0.89587
 C440 C 0.74986 0.69107 0.80921
 H441 H 0.73529 0.59432 0.82033
 H442 H 0.73509 0.64471 0.77001
 H443 H 0.76463 0.73038 0.85547
 H444 H 0.76449 0.68003 0.90584
 C445 C 0.25012 0.63283 0.13376
 C446 C 0.22066 0.66065 0.13452
 C447 C 0.22062 0.68934 0.16292
 C448 C 0.25018 0.57861 0.07999
 C449 C 0.27948 0.66242 0.18999
 C450 C 0.27954 0.63378 0.16153
 C451 C 0.25016 0.60332 0.10451
 C452 C 0.25001 0.69036 0.19083
 H453 H 0.19778 0.66017 0.11315
 H454 H 0.19778 0.71080 0.16316
 H455 H 0.30227 0.66280 0.21143
 H456 H 0.30245 0.61238 0.16120
 C457 C 0.36699 0.13283 0.74981
 C458 C 0.36610 0.16067 0.72042
 C459 C 0.33752 0.18927 0.72042
 C460 C 0.42111 0.07878 0.74986
 C461 C 0.31055 0.16221 0.77917
 C462 C 0.33918 0.13365 0.77919
 C463 C 0.39644 0.10342 0.74983
 C464 C 0.30958 0.19018 0.74979
 H465 H 0.38750 0.16028 0.69758
 H466 H 0.33718 0.21076 0.69764
 H467 H 0.28908 0.16251 0.80194
 H468 H 0.33962 0.11223 0.80204
 C469 C 0.36592 0.86664 0.24979
 C470 C 0.36524 0.83879 0.27918
 C471 C 0.33688 0.81006 0.27917
 C472 C 0.41961 0.92095 0.24984
 C473 C 0.30973 0.83698 0.22040
 C474 C 0.33814 0.86567 0.22039
 C475 C 0.39512 0.89620 0.24981
 C476 C 0.30895 0.80902 0.24980
 H477 H 0.38662 0.83928 0.30204
 H478 H 0.33668 0.78858 0.30196
 H479 H 0.28827 0.83659 0.19763
 H480 H 0.33842 0.88709 0.19753
 C481 C 0.63293 0.13390 0.25013
 C482 C 0.62331 0.17242 0.25818
 C483 C 0.65198 0.20085 0.25820
 C484 C 0.57871 0.08015 0.25009
 C485 C 0.70001 0.15232 0.24200
 C486 C 0.67134 0.12390 0.24207
 C487 C 0.60342 0.10466 0.25012
 C488 C 0.69049 0.19095 0.25008
 H489 H 0.59369 0.18045 0.26447
 H490 H 0.64425 0.23053 0.26460
 H491 H 0.72960 0.14430 0.23557
 H492 H 0.67907 0.09418 0.23579
 C493 C 0.63303 0.86689 0.75000
 C494 C 0.67145 0.87669 0.75809
 C495 C 0.70006 0.84812 0.75813
 C496 C 0.57892 0.92094 0.75001
 C497 C 0.65193 0.79986 0.74186
 C498 C 0.62332 0.82843 0.74190
 C499 C 0.60359 0.89629 0.75000
 C500 C 0.69046 0.80955 0.75000
 H501 H 0.67925 0.90636 0.76441
 H502 H 0.72966 0.85597 0.76458
 H503 H 0.64414 0.77023 0.73542
 H504 H 0.59369 0.82057 0.73559
 C505 C 0.74960 0.86702 0.63319
 C506 C 0.72015 0.83926 0.63424
 C507 C 0.72019 0.81067 0.66283
 C508 C 0.74959 0.92110 0.57898
 C509 C 0.77910 0.83751 0.68958
 C510 C 0.77908 0.86605 0.66093
 C511 C 0.74959 0.89645 0.60368
 C512 C 0.74966 0.80962 0.69070
 H513 H 0.69722 0.83970 0.61293
 H514 H 0.69736 0.78928 0.66324
 H515 H 0.80196 0.83716 0.71095
 H516 H 0.80199 0.88737 0.66042
 C517 C 0.25045 0.36667 0.13287
 C518 C 0.22109 0.33883 0.13384
 C519 C 0.22115 0.31028 0.16246
 C520 C 0.25033 0.42071 0.07870
 C521 C 0.27990 0.33736 0.18934
 C522 C 0.27986 0.36586 0.16067
 C523 C 0.25039 0.39607 0.10339
 C524 C 0.25055 0.30938 0.19039
 H525 H 0.19821 0.33918 0.11248
 H526 H 0.19839 0.28881 0.16283
 H527 H 0.30269 0.33710 0.21078
 H528 H 0.30269 0.38726 0.16021
 C529 C 0.25039 0.13281 0.63293
 C530 C 0.25829 0.17136 0.62325
 C531 C 0.25833 0.19992 0.65186
 C532 C 0.25032 0.07871 0.57875
 C533 C 0.24245 0.15154 0.70001
 C534 C 0.24249 0.12299 0.67140
 C535 C 0.25036 0.10337 0.60344
 C536 C 0.25039 0.19020 0.69043
 H537 H 0.26445 0.17932 0.59361
 H538 H 0.26463 0.22958 0.64402
 H539 H 0.23614 0.14360 0.72961
 H540 H 0.23632 0.09329 0.67926
 C541 C 0.24989 0.86647 0.36666
 C542 C 0.24187 0.87627 0.32821
 C543 C 0.24181 0.84769 0.29962
 C544 C 0.24996 0.92060 0.42081
 C545 C 0.25791 0.79934 0.34778
 C546 C 0.25789 0.82792 0.37636
 C547 C 0.24992 0.89593 0.39614
 C548 C 0.24985 0.80904 0.30921
 H549 H 0.23563 0.90597 0.32035
 H550 H 0.23541 0.85562 0.27003
 H551 H 0.26429 0.76968 0.35562
 H552 H 0.26415 0.81998 0.40598
 C553 C 0.74970 0.13328 0.36681
 C554 C 0.77915 0.13412 0.33906
 C555 C 0.77918 0.16266 0.31041
 C556 C 0.74965 0.07917 0.42099
 C557 C 0.72032 0.18975 0.33719
 C558 C 0.72028 0.16115 0.36579
 C559 C 0.74966 0.10384 0.39630
 C560 C 0.74977 0.19067 0.30931
 H561 H 0.80205 0.11271 0.33954
 H562 H 0.80202 0.16292 0.28902
 H563 H 0.69751 0.21123 0.33680
 H564 H 0.69736 0.16080 0.38711
 C565 C 0.63302 0.75030 0.86685
 C566 C 0.63408 0.72078 0.83916
 C567 C 0.66262 0.72080 0.81054
 C568 C 0.57891 0.75025 0.92104
 C569 C 0.68929 0.77983 0.83719
 C570 C 0.66069 0.77983 0.86576
 C571 C 0.60357 0.75028 0.89635
 C572 C 0.69044 0.75031 0.80937
 H573 H 0.61284 0.69780 0.83968
 H574 H 0.66303 0.69789 0.78921
 H575 H 0.71061 0.80274 0.83677
 H576 H 0.66020 0.80281 0.88702
 C577 C 0.13386 0.25014 0.36611
 C578 C 0.16165 0.27956 0.36532
 C579 C 0.19026 0.27960 0.33683
 C580 C 0.07984 0.24999 0.42011
 C581 C 0.16333 0.22085 0.30972
 C582 C 0.13477 0.22079 0.33826
 C583 C 0.10447 0.25005 0.39549
 C584 C 0.19125 0.25024 0.30887
 H585 H 0.16121 0.30239 0.38674
 H586 H 0.21171 0.30239 0.33658
 H587 H 0.16368 0.19809 0.28825
 H588 H 0.11340 0.19791 0.33861
 C589 C 0.63326 0.25002 0.13300
 C590 C 0.63424 0.27960 0.16062
 C591 C 0.66275 0.27959 0.18929
 C592 C 0.57920 0.24997 0.07877
 C593 C 0.68952 0.22045 0.16279
 C594 C 0.66097 0.22044 0.13418
 C595 C 0.60384 0.25001 0.10348
 C596 C 0.69059 0.25002 0.19055
 H597 H 0.61297 0.30262 0.16003
 H598 H 0.66309 0.30253 0.21057
 H599 H 0.71086 0.19750 0.16330
 H600 H 0.66052 0.19741 0.11298
 C601 C 0.36708 0.24940 0.86657
 C602 C 0.32860 0.24138 0.87629
 C603 C 0.30001 0.24132 0.84772
 C604 C 0.42121 0.24951 0.92071
 C605 C 0.34822 0.25739 0.79952
 C606 C 0.37680 0.25738 0.82810
 C607 C 0.39654 0.24945 0.89604
 C608 C 0.30962 0.24936 0.80914
 H609 H 0.32072 0.23515 0.90593
 H610 H 0.27040 0.23493 0.85559
 H611 H 0.35608 0.26378 0.76992
 H612 H 0.40644 0.26363 0.82021
 C613 C 0.36670 0.74976 0.13317
 C614 C 0.37647 0.74188 0.17166
 C615 C 0.34787 0.74180 0.20023
 C616 C 0.42087 0.74984 0.07906
 C617 C 0.29957 0.75761 0.15199
 C618 C 0.32817 0.75761 0.12342
 C619 C 0.39618 0.74979 0.10372
 C620 C 0.30923 0.74969 0.19059
 H621 H 0.40615 0.73575 0.17956
 H622 H 0.35578 0.73551 0.22985
 H623 H 0.26992 0.76388 0.14410
 H624 H 0.32025 0.76376 0.09377
 C625 C 0.86671 0.63329 0.75002
 C626 C 0.83896 0.63436 0.72056
 C627 C 0.81031 0.66297 0.72058
 C628 C 0.92093 0.57905 0.74997
 C629 C 0.83707 0.68969 0.77949
 C630 C 0.86566 0.66103 0.77949
 C631 C 0.89623 0.60378 0.74999
 C632 C 0.80919 0.69084 0.75004
 H633 H 0.83945 0.61308 0.69761
 H634 H 0.78894 0.66338 0.69772
 H635 H 0.83668 0.71105 0.80235
 H636 H 0.88697 0.66053 0.80242
 C637 C 0.36700 0.13319 0.24994
 C638 C 0.33914 0.13409 0.22062
 C639 C 0.31060 0.16275 0.22060
 C640 C 0.42096 0.07895 0.24997
 C641 C 0.33778 0.18980 0.27922
 C642 C 0.36626 0.16109 0.27925
 C643 C 0.39635 0.10367 0.24996
 C644 C 0.30977 0.19078 0.24990
 H645 H 0.33945 0.11264 0.19782
 H646 H 0.28909 0.16309 0.19787
 H647 H 0.33755 0.21133 0.30193
 H648 H 0.38770 0.16066 0.30206
 C649 C 0.13302 0.63299 0.24985
 C650 C 0.12332 0.67155 0.24191
 C651 C 0.15194 0.70010 0.24190
 C652 C 0.07881 0.57891 0.24980
 C653 C 0.20013 0.65169 0.25788
 C654 C 0.17151 0.62314 0.25781
 C655 C 0.10351 0.60356 0.24981
 C656 C 0.19054 0.69036 0.24990
 H657 H 0.09367 0.67953 0.23570
 H658 H 0.14409 0.72977 0.23557
 H659 H 0.22975 0.64372 0.26423
 H660 H 0.17938 0.59343 0.26400
 C661 C 0.86673 0.36666 0.24982
 C662 C 0.86570 0.33890 0.22037
 C663 C 0.83714 0.31029 0.22041
 C664 C 0.92084 0.42082 0.24976
 C665 C 0.81039 0.33711 0.27932
 C666 C 0.83900 0.36567 0.27930
 C667 C 0.89618 0.39613 0.24978
 C668 C 0.80928 0.30922 0.24988
 H669 H 0.88699 0.33934 0.19743
 H670 H 0.83676 0.28890 0.19757
 H671 H 0.78902 0.33676 0.30218
 H672 H 0.83946 0.38698 0.30221
 C673 C 0.13332 0.36643 0.74990
 C674 C 0.17182 0.37618 0.74205
 C675 C 0.20045 0.34756 0.74200
 C676 C 0.07910 0.42065 0.74989
 C677 C 0.15224 0.29925 0.75777
 C678 C 0.12361 0.32787 0.75774
 C679 C 0.10380 0.39594 0.74989
 C680 C 0.19085 0.30889 0.74988
 H681 H 0.17969 0.40588 0.73592
 H682 H 0.23008 0.35545 0.73573
 H683 H 0.14438 0.26958 0.76403
 H684 H 0.09395 0.31997 0.76387
 C685 C 0.86625 0.75021 0.36651
 C686 C 0.82786 0.74185 0.37621
 C687 C 0.79931 0.74186 0.34767
 C688 C 0.92028 0.75009 0.42049
 C689 C 0.84743 0.75872 0.29960
 C690 C 0.87598 0.75863 0.32815
 C691 C 0.89565 0.75014 0.39589
 C692 C 0.80893 0.75031 0.30920
 H693 H 0.82004 0.73528 0.40580
 H694 H 0.76973 0.73519 0.35545
 H695 H 0.85523 0.76541 0.27005
 H696 H 0.90559 0.76515 0.32034
 C697 C 0.86662 0.24979 0.63332
 C698 C 0.87640 0.24158 0.67172
 C699 C 0.84785 0.24159 0.70028
 C700 C 0.92063 0.24977 0.57931
 C701 C 0.79964 0.25813 0.65215
 C702 C 0.82819 0.25805 0.62359
 C703 C 0.89600 0.24977 0.60393
 C704 C 0.80931 0.24988 0.69065
 H705 H 0.90604 0.23515 0.67955
 H706 H 0.85570 0.23505 0.72986
 H707 H 0.77003 0.26471 0.64434
 H708 H 0.82032 0.26446 0.59398
 C709 C 0.13343 0.74981 0.63376
 C710 C 0.17187 0.74153 0.62409
 C711 C 0.20039 0.74149 0.65267
 C712 C 0.07949 0.74985 0.57968
 C713 C 0.15213 0.75811 0.70071
 C714 C 0.12361 0.75808 0.67212
 C715 C 0.10408 0.74982 0.60434
 C716 C 0.19068 0.74979 0.69114
 H717 H 0.17976 0.73508 0.59450
 H718 H 0.23000 0.73490 0.64491
 H719 H 0.14426 0.76470 0.73026
 H720 H 0.09397 0.76454 0.67990
 C721 C 0.74994 0.63384 0.13348
 C722 C 0.75818 0.67228 0.12373
 C723 C 0.75822 0.70085 0.15227
 C724 C 0.74991 0.57979 0.07952
 C725 C 0.74166 0.65264 0.20041
 C726 C 0.74171 0.62407 0.17187
 C727 C 0.74992 0.60444 0.10411
 C728 C 0.74992 0.69119 0.19076
 H729 H 0.76461 0.68013 0.09413
 H730 H 0.76477 0.73047 0.14444
 H731 H 0.73509 0.64480 0.22998
 H732 H 0.73528 0.59443 0.17971
 C733 C 0.24998 0.63288 0.86690
 C734 C 0.25807 0.62315 0.82847
 C735 C 0.25809 0.65178 0.79992
 C736 C 0.25002 0.57870 0.92091
 C737 C 0.24181 0.69999 0.84812
 C738 C 0.24187 0.67136 0.87666
 C739 C 0.24999 0.60340 0.89629
 C740 C 0.24994 0.69037 0.80958
 H741 H 0.26439 0.59348 0.82060
 H742 H 0.26453 0.64395 0.77033
 H743 H 0.23534 0.72962 0.85597
 H744 H 0.23555 0.67921 0.90628
 C745 C 0.75016 0.36650 0.86639
 C746 C 0.74181 0.37629 0.82802
 C747 C 0.74181 0.34774 0.79947
 C748 C 0.75005 0.42050 0.92041
 C749 C 0.75864 0.29951 0.84755
 C750 C 0.75857 0.32806 0.87610
 C751 C 0.75009 0.39588 0.89578
 C752 C 0.75024 0.30919 0.80908
 H753 H 0.73526 0.40594 0.82022
 H754 H 0.73514 0.35559 0.76992
 H755 H 0.76532 0.26989 0.85534
 H756 H 0.76508 0.32019 0.90569
 C757 C 0.63289 0.86692 0.25001
 C758 C 0.67130 0.87674 0.24189
 C759 C 0.69994 0.84818 0.24185
 C760 C 0.57874 0.92095 0.24999
 C761 C 0.65185 0.79988 0.25817
 C762 C 0.62322 0.82844 0.25813
 C763 C 0.60342 0.89631 0.24999
 C764 C 0.69037 0.80959 0.25001
 H765 H 0.67908 0.90642 0.23555
 H766 H 0.72953 0.85606 0.23538
 H767 H 0.64409 0.77023 0.26464
 H768 H 0.59359 0.82054 0.26446
 C769 C 0.63320 0.13388 0.74986
 C770 C 0.67158 0.12388 0.75807
 C771 C 0.70027 0.15229 0.75813
 C772 C 0.57894 0.08012 0.74987
 C773 C 0.65230 0.20081 0.74164
 C774 C 0.62362 0.17240 0.74166
 C775 C 0.60367 0.10464 0.74985
 C776 C 0.69079 0.19092 0.74989
 H777 H 0.67929 0.09417 0.76447
 H778 H 0.72983 0.14428 0.76468
 H779 H 0.64461 0.23049 0.73511
 H780 H 0.59402 0.18043 0.73525
 C781 C 0.36600 0.86664 0.75030
 C782 C 0.32755 0.87627 0.75862
 C783 C 0.29912 0.84761 0.75871
 C784 C 0.41978 0.92088 0.75015
 C785 C 0.34747 0.79955 0.74208
 C786 C 0.37590 0.82822 0.74207
 C787 C 0.39525 0.89616 0.75021
 C788 C 0.30892 0.80909 0.75041
 H789 H 0.31959 0.90590 0.76504
 H790 H 0.26950 0.85535 0.76530
 H791 H 0.35541 0.76996 0.73550
 H792 H 0.40556 0.82047 0.73558
   
