data_POSCAR
  _audit_creation_date              2014-09-24
  _audit_creation_method            'ToBaCCo'
  _symmetry_space_group_name_H-M    'P1'
  _symmetry_Int_Tables_number       1
  _symmetry_cell_setting            triclinic
  loop_
  _symmetry_equiv_pos_as_xyz
 x,y,z
_cell_length_a 26.2748
_cell_length_b 19.2255
_cell_length_c 25.9179
_cell_angle_alpha 89.530700
_cell_angle_beta 89.898100
_cell_angle_gamma 89.741900
loop_
  _atom_site_label
  _atom_site_type_symbol
  _atom_site_fract_x
  _atom_site_fract_y
  _atom_site_fract_z
C1 C 0.38036 0.21527 0.33441
 C2 C 0.37631 0.28573 0.33995
 C3 C 0.32752 0.30407 0.32453
 N4 N 0.30146 0.24664 0.31051
 C5 C 0.33352 0.19205 0.31712
 C6 C 0.30574 0.37133 0.32734
 C7 C 0.26484 0.39168 0.29470
 C8 C 0.23817 0.45417 0.29694
 C9 C 0.20526 0.45555 0.25579
 C10 C 0.21349 0.39495 0.22844
 N11 N 0.24962 0.35630 0.25246
 C12 C 0.19078 0.37830 0.18064
 C13 C 0.18921 0.30915 0.16265
 C14 C 0.17606 0.28939 0.11322
 C15 C 0.17377 0.21808 0.11364
 C16 C 0.18601 0.19623 0.16337
 N17 N 0.19553 0.25229 0.19302
 C18 C 0.18180 0.12775 0.18384
 C19 C 0.21307 0.10596 0.22626
 C20 C 0.21323 0.04046 0.24966
 C21 C 0.25072 0.03994 0.28612
 C22 C 0.27559 0.10301 0.28226
 N23 N 0.25230 0.14308 0.24603
 C24 C 0.31991 0.12144 0.31026
 H25 H 0.41454 0.18519 0.34157
 H26 H 0.40698 0.31873 0.35229
 H27 H 0.26610 0.19022 0.23200
 H28 H 0.24261 0.49634 0.32373
 H29 H 0.17884 0.49724 0.24692
 H30 H 0.16889 0.32264 0.08013
 H31 H 0.16510 0.18697 0.08033
 H32 H 0.25875 -0.00318 0.31190
 H33 H 0.26696 0.31214 0.23734
 H34 H 0.19173 -0.00529 0.24039
 C35 C 0.60355 0.29071 0.31499
 C36 C 0.60453 0.21935 0.31489
 C37 C 0.65356 0.19988 0.30113
 N38 N 0.68247 0.25677 0.29275
 C39 C 0.65207 0.31232 0.30148
 C40 C 0.67217 0.13097 0.30009
 C41 C 0.71896 0.11333 0.27620
 C42 C 0.74444 0.05068 0.28267
 C43 C 0.78490 0.05132 0.24917
 C44 C 0.78460 0.11561 0.22425
 N45 N 0.74374 0.15267 0.24068
 C46 C 0.81826 0.13676 0.18415
 C47 C 0.81885 0.20607 0.16535
 C48 C 0.83799 0.22778 0.11803
 C49 C 0.83570 0.29892 0.11747
 C50 C 0.81659 0.31902 0.16504
 N51 N 0.80565 0.26200 0.19392
 C52 C 0.81221 0.38831 0.18314
 C53 C 0.78101 0.40279 0.22647
 C54 C 0.78680 0.45788 0.26025
 C55 C 0.74583 0.45636 0.29330
 C56 C 0.71678 0.39956 0.27956
 N57 N 0.73894 0.36631 0.23954
 C58 C 0.66945 0.38155 0.30154
 H59 H 0.57080 0.32269 0.32401
 H60 H 0.57269 0.18580 0.32379
 H61 H 0.72316 0.32558 0.21864
 H62 H 0.73472 0.00795 0.30815
 H63 H 0.80996 0.00752 0.24335
 H64 H 0.85115 0.19671 0.08617
 H65 H 0.84616 0.33132 0.08490
 H66 H 0.73861 0.49246 0.32432
 H67 H 0.73043 0.19899 0.22447
 H68 H 0.81757 0.49501 0.26154
 C69 C 0.82666 0.79150 0.88547
 C70 C 0.82451 0.72028 0.88691
 C71 C 0.81110 0.69909 0.83782
 N72 N 0.80475 0.75502 0.80646
 C73 C 0.81473 0.81169 0.83539
 C74 C 0.80820 0.62923 0.82154
 C75 C 0.78343 0.61054 0.77514
 C76 C 0.78935 0.54784 0.74985
 C77 C 0.75495 0.54772 0.70997
 C78 C 0.72978 0.61143 0.71058
 N79 N 0.74722 0.64898 0.75096
 C80 C 0.68887 0.63166 0.67767
 C81 C 0.66866 0.69992 0.67865
 C82 C 0.62095 0.72064 0.66125
 C83 C 0.61953 0.79182 0.66381
 C84 C 0.66670 0.81250 0.68167
 N85 N 0.69638 0.75631 0.69118
 C86 C 0.68436 0.88153 0.68420
 C87 C 0.72995 0.89690 0.71013
 C88 C 0.76175 0.95219 0.69888
 C89 C 0.79933 0.95129 0.73574
 C90 C 0.78865 0.89640 0.76917
 N91 N 0.74715 0.86217 0.75221
 C92 C 0.81443 0.88079 0.81589
 H93 H 0.83473 0.82417 0.91818
 H94 H 0.83119 0.68805 0.92066
 H95 H 0.72809 0.82229 0.77168
 H96 H 0.81521 0.50573 0.75926
 H97 H 0.74859 0.50388 0.68512
 H98 H 0.58959 0.68891 0.64881
 H99 H 0.58722 0.82409 0.65360
 H100 H 0.83095 0.98704 0.73746
 H101 H 0.73170 0.69512 0.76482
 H102 H 0.75851 0.98890 0.66717
 C103 C 0.33671 0.71817 0.61796
 C104 C 0.33571 0.78924 0.61773
 C105 C 0.31715 0.80930 0.66542
 N106 N 0.30516 0.75262 0.69417
 C107 C 0.31802 0.69674 0.66555
 C108 C 0.31506 0.87834 0.68350
 C109 C 0.29100 0.89498 0.73068
 C110 C 0.30199 0.95289 0.76001
 C111 C 0.26826 0.95299 0.80042
 C112 C 0.23705 0.89563 0.79448
 N113 N 0.25219 0.85908 0.75268
 C114 C 0.19651 0.87810 0.82823
 C115 C 0.18819 0.80764 0.84252
 C116 C 0.16997 0.78519 0.89003
 C117 C 0.16870 0.71418 0.88861
 C118 C 0.18545 0.69476 0.83998
 N119 N 0.19866 0.75210 0.81236
 C120 C 0.18667 0.62564 0.82090
 C121 C 0.21304 0.60927 0.77462
 C122 C 0.20287 0.55249 0.74350
 C123 C 0.23922 0.55157 0.70558
 C124 C 0.26985 0.60871 0.71351
 N125 N 0.25306 0.64497 0.75482
 C126 C 0.31085 0.62689 0.68111
 H127 H 0.34680 0.68697 0.58500
 H128 H 0.34640 0.82176 0.58531
 H129 H 0.27101 0.68762 0.77133
 H130 H 0.33186 0.99055 0.75362
 H131 H 0.26764 0.99025 0.83150
 H132 H 0.16169 0.81568 0.92388
 H133 H 0.15840 0.68119 0.92091
 H134 H 0.24151 0.51472 0.67430
 H135 H 0.23362 0.81638 0.73699
 H136 H 0.17176 0.51607 0.74679
 O137 O 1.05079 -0.06170 -0.04311
 O138 O 0.95127 -0.03721 0.05525
 O139 O 0.95014 -0.06113 -0.04473
 O140 O 1.04665 -0.03551 0.05588
 O141 O 1.04830 0.07717 0.03799
 O142 O 0.94917 0.05202 -0.06014
 O143 O 0.95037 0.07583 0.03853
 O144 O 1.04918 0.05086 -0.06075
 Cu145 Cu 0.99970 -0.06073 0.00639
 Cu146 Cu 0.99923 0.07512 -0.01344
 C147 C 1.06735 -0.00955 -0.06822
 C148 C 0.93583 0.02389 0.06522
 C149 C 0.93249 -0.00858 -0.06881
 C150 C 1.06225 0.02548 0.06534
 O151 O 0.43846 0.54371 0.45222
 O152 O 0.54982 0.57418 0.53528
 O153 O 0.53710 0.54960 0.43658
 O154 O 0.45167 0.56804 0.54790
 O155 O 0.45813 0.45530 0.56416
 O156 O 0.54415 0.43689 0.45252
 O157 O 0.55756 0.46110 0.54951
 O158 O 0.44637 0.43058 0.46644
 Cu159 Cu 0.49410 0.57033 0.49133
 Cu160 Cu 0.50227 0.43465 0.50995
 C161 C 0.42309 0.48185 0.44607
 C162 C 0.57277 0.52292 0.55606
 C163 C 0.55513 0.49013 0.42556
 C164 C 0.43933 0.51474 0.57410
 O165 O 0.05210 0.55255 0.05499
 O166 O -0.05098 0.57339 -0.04045
 O167 O -0.04814 0.55701 0.05941
 O168 O 0.04773 0.57294 -0.04361
 O169 O 0.04705 0.45889 -0.05362
 O170 O -0.04888 0.44297 0.04941
 O171 O -0.05331 0.45931 -0.04981
 O172 O 0.04951 0.43851 0.04529
 Cu173 Cu 0.00021 0.57541 0.00885
 Cu174 Cu -0.00162 0.43851 -0.00350
 C175 C 0.06870 0.49195 0.06583
 C176 C -0.06999 0.51967 -0.06091
 C177 C -0.06511 0.49735 0.07160
 C178 C 0.06423 0.51861 -0.06555
 O179 O 0.54869 0.95790 0.44086
 O180 O 0.45313 0.93767 0.54387
 O181 O 0.45171 0.95446 0.44355
 O182 O 0.55262 0.94037 0.54104
 O183 O 0.54909 1.05380 0.55362
 O184 O 0.45066 1.06862 0.45329
 O185 O 0.44931 1.05179 0.55259
 O186 O 0.54864 1.07157 0.45302
 Cu187 Cu 0.50187 0.93599 0.49185
 Cu188 Cu 0.49949 1.07289 0.50461
 C189 C 0.56387 1.01841 0.42855
 C190 C 0.43415 0.99128 0.56492
 C191 C 0.43514 1.01428 0.43081
 C192 C 0.56772 0.99435 0.56419
 C193 C 1.14405 0.08286 0.16331
 C194 C 1.11522 0.03579 0.19170
 C195 C 1.08369 0.00463 0.15759
 C196 C 1.09338 0.03680 0.11119
 O197 O 1.12875 0.08518 0.11457
 H198 H 1.11351 0.02892 0.23310
 H199 H 1.05426 -0.03294 0.16623
 C200 C 0.66905 0.58277 0.63793
 C201 C 0.69919 0.54512 0.60425
 C202 C 0.66642 0.51320 0.57143
 C203 C 0.61884 0.53544 0.58621
 O204 O 0.62021 0.57787 0.62600
 H205 H 0.74029 0.54420 0.60181
 H206 H 0.67616 0.48167 0.53841
 C207 C -0.15958 0.44209 0.15847
 C208 C -0.17028 0.51287 0.15982
 C209 C -0.13462 0.54399 0.12914
 C210 C -0.10515 0.49033 0.11073
 O211 O -0.11998 0.42913 0.12835
 H212 H -0.20196 0.53895 0.17816
 H213 H -0.13205 0.59867 0.11929
 C214 C 0.34170 0.93419 0.65356
 C215 C 0.32522 1.00239 0.64894
 C216 C 0.35920 1.03414 0.61670
 C217 C 0.39337 0.98283 0.60326
 O218 O 0.38306 0.92252 0.62561
 H219 H 0.29165 1.02574 0.66588
 H220 H 0.35799 1.08741 0.60292
 C221 C -0.16582 0.57481 -0.14649
 C222 C -0.18331 0.50793 -0.13807
 C223 C -0.14832 0.47703 -0.10642
 C224 C -0.11274 0.52770 -0.09687
 O225 O -0.12323 0.58690 -0.12089
 H226 H -0.21794 0.48483 -0.15239
 H227 H -0.14962 0.42481 -0.09058
 C228 C 0.34986 1.06920 0.33470
 C229 C 0.35675 1.00145 0.31793
 C230 C 0.38819 0.97048 0.35312
 C231 C 0.39888 1.02154 0.38830
 O232 O 0.37615 1.08108 0.37722
 H233 H 0.34266 0.97796 0.28298
 H234 H 0.40324 0.91802 0.35204
 C235 C 1.16571 -0.06826 -0.14996
 C236 C 1.16389 0.00070 -0.16657
 C237 C 1.12723 0.03221 -0.13768
 C238 C 1.10827 -0.01939 -0.10622
 O239 O 1.13074 -0.08003 -0.11400
 H240 H 1.18467 0.02528 -0.19772
 H241 H 1.11494 0.08594 -0.14016
 C242 C 0.63862 0.43562 0.32807
 C243 C 0.63293 0.50366 0.31136
 C244 C 0.60099 0.53407 0.34617
 C245 C 0.58934 0.48221 0.38121
 O246 O 0.61205 0.42266 0.37041
 H247 H 0.64954 0.52784 0.27750
 H248 H 0.58733 0.58726 0.34574
 C249 C 0.84049 -0.06625 -0.15706
 C250 C 0.83020 0.00452 -0.16032
 C251 C 0.86400 0.03567 -0.12829
 C252 C 0.89206 -0.01789 -0.10708
 O253 O 0.87789 -0.07945 -0.12407
 H254 H 0.80030 0.03071 -0.18165
 H255 H 0.86695 0.09067 -0.12028
 C256 C 0.32554 0.42014 0.36703
 C257 C 0.29570 0.45540 0.40232
 C258 C 0.32886 0.48829 0.43423
 C259 C 0.37640 0.46911 0.41711
 O260 O 0.37461 0.42754 0.37690
 H261 H 0.25472 0.45407 0.40633
 H262 H 0.31959 0.51823 0.46819
 C263 C 0.15916 0.57282 -0.15240
 C264 C 0.17022 0.50212 -0.15248
 C265 C 0.13463 0.47157 -0.12151
 C266 C 0.10486 0.52549 -0.10406
 O267 O 0.11955 0.58645 -0.12241
 H268 H 0.20188 0.47582 -0.17074
 H269 H 0.13209 0.41707 -0.11109
 C270 C 0.64251 1.07622 0.32757
 C271 C 0.63393 1.00991 0.30948
 C272 C 0.60518 0.97798 0.34644
 C273 C 0.59756 1.02750 0.38385
 O274 O 0.61986 1.08714 0.37246
 H275 H 0.64645 0.98790 0.27330
 H276 H 0.58990 0.92582 0.34533
 C277 C 0.16482 0.43379 0.14977
 C278 C 0.18152 0.50152 0.14393
 C279 C 0.14638 0.53367 0.11311
 C280 C 0.11146 0.48292 0.10160
 O281 O 0.12254 0.42247 0.12354
 H282 H 0.21562 0.52447 0.15962
 H283 H 0.14706 0.58691 0.09924
 C284 C 0.65602 0.93790 0.65672
 C285 C 0.65252 1.00627 0.67260
 C286 C 0.62028 1.03811 0.63849
 C287 C 0.60622 0.98673 0.60471
 O288 O 0.62793 0.92633 0.61546
 H289 H 0.66990 1.02951 0.70608
 H290 H 0.60702 1.09147 0.63938
 C291 C 0.85638 0.08649 0.16318
 C292 C 0.88880 0.04629 0.19313
 C293 C 0.91940 0.01197 0.15936
 C294 C 0.90495 0.03565 0.11135
 O295 O 0.86726 0.08125 0.11343
 H296 H 0.89185 0.04506 0.23475
 H297 H 0.95138 -0.02146 0.16875
 C298 C 0.34378 0.57068 0.65888
 C299 C 0.34814 0.50316 0.67770
 C300 C 0.38497 0.47200 0.64850
 C301 C 0.40120 0.52304 0.61491
 O302 O 0.37689 0.58243 0.62148
 H303 H 0.32796 0.47956 0.70971
 H304 H 0.39862 0.41894 0.65164
   
