data_POSCAR
  _audit_creation_date              2014-09-24
  _audit_creation_method            'ToBaCCo'
  _symmetry_space_group_name_H-M    'P1'
  _symmetry_Int_Tables_number       1
  _symmetry_cell_setting            triclinic
  loop_
  _symmetry_equiv_pos_as_xyz
 x,y,z
_cell_length_a 19.9361
_cell_length_b 21.8271
_cell_length_c 23.5825
_cell_angle_alpha 90.769100
_cell_angle_beta 87.741100
_cell_angle_gamma 86.670900
loop_
  _atom_site_label
  _atom_site_type_symbol
  _atom_site_fract_x
  _atom_site_fract_y
  _atom_site_fract_z
C1 C 1.26026 0.22961 0.23173
 C2 C 0.76031 -0.26898 0.24206
 C3 C 0.74321 0.25339 -0.26163
 C4 C 1.26252 -0.24455 -0.26514
 C5 C 0.25843 0.25159 0.75887
 C6 C 0.74864 0.74423 0.75567
 C7 C 0.74284 0.26733 0.26304
 C8 C 0.22553 0.77590 0.25219
 O9 O 1.07913 0.11268 0.03143
 O10 O 0.88788 -0.09270 0.03391
 O11 O 0.87239 0.10183 0.04847
 O12 O 1.09583 -0.08132 0.03478
 O13 O 0.86381 0.00947 0.07501
 O14 O 1.10338 0.01088 0.06393
 O15 O 0.98642 -0.10069 0.06252
 O16 O 0.98326 0.11892 0.07149
 C17 C 1.04371 0.12557 0.07485
 C18 C 0.92693 -0.10944 0.07144
 C19 C 0.85472 0.06509 0.08566
 C20 C 1.11104 -0.04441 0.07290
 O21 O 1.13339 -0.02642 -0.04335
 O22 O 0.83367 0.05028 -0.02940
 O23 O 1.01258 0.14124 -0.04272
 O24 O 0.95271 -0.11684 -0.05009
 O25 O 0.88344 -0.04296 -0.07075
 O26 O 1.08170 0.06964 -0.07591
 O27 O 1.05855 -0.07854 -0.07792
 O28 O 0.90932 0.10356 -0.06509
 Co29 Co 1.08794 0.03851 -0.00576
 Co30 Co 0.87878 -0.01614 0.00180
 Co31 Co 0.94823 0.10657 0.00256
 Co32 Co 1.01958 -0.08477 -0.00743
 O33 O 0.98362 0.01095 -0.00239
 C34 C 1.11643 -0.06157 -0.08148
 C35 C 0.85240 0.08497 -0.06760
 C36 C 1.05468 0.12179 -0.08046
 C37 C 0.91326 -0.09226 -0.08455
 O38 O 1.12336 0.59082 0.52781
 O39 O 0.91610 0.39760 0.54010
 O40 O 0.91497 0.59266 0.53997
 O41 O 1.12305 0.39840 0.54881
 O42 O 0.89871 0.50295 0.57173
 O43 O 1.13677 0.49147 0.57218
 O44 O 1.01111 0.38891 0.57527
 O45 O 1.02499 0.60707 0.56114
 C46 C 1.08506 0.61193 0.56706
 C47 C 0.95055 0.38327 0.58111
 C48 C 0.89561 0.55908 0.57974
 C49 C 1.14139 0.43660 0.58413
 O50 O 1.17020 0.44096 0.46882
 O51 O 0.87562 0.53573 0.46535
 O52 O 1.06323 0.61293 0.44563
 O53 O 0.98413 0.36195 0.46293
 O54 O 0.91992 0.43503 0.43207
 O55 O 1.12739 0.53264 0.42641
 O56 O 1.09170 0.39221 0.43594
 O57 O 0.95487 0.58017 0.42458
 Co58 Co 1.12742 0.51174 0.49899
 Co59 Co 0.91432 0.47019 0.50191
 Co60 Co 0.99253 0.58856 0.49316
 Co61 Co 1.04942 0.39515 0.50506
 O62 O 1.02088 0.49144 0.49959
 C63 C 1.15107 0.40472 0.43253
 C64 C 0.89653 0.56447 0.42378
 C65 C 1.10610 0.58417 0.41299
 C66 C 0.94412 0.38163 0.42685
 O67 O 0.64895 0.01999 0.54700
 O68 O 0.37054 -0.02701 0.54064
 O69 O 0.45561 0.09928 0.56392
 O70 O 0.54688 -0.14518 0.52307
 O71 O 0.38092 0.07915 0.50728
 O72 O 0.60439 -0.07967 0.56301
 O73 O 0.45261 -0.08323 0.57137
 O74 O 0.57220 0.08927 0.57230
 C75 C 0.62820 0.06345 0.57848
 C76 C 0.39487 -0.05925 0.57926
 C77 C 0.39572 0.09923 0.55413
 C78 C 0.58524 -0.13264 0.56148
 O79 O 0.61519 -0.09938 0.44788
 O80 O 0.42706 0.03978 0.40789
 O81 O 0.59694 0.09931 0.46045
 O82 O 0.42419 -0.14644 0.48529
 O83 O 0.39894 -0.06706 0.43233
 O84 O 0.64842 0.00867 0.43868
 O85 O 0.51304 -0.10169 0.42422
 O86 O 0.47313 0.11700 0.44836
 Co87 Co 0.61816 -0.03568 0.49892
 Co88 Co 0.40594 0.00473 0.47498
 Co89 Co 0.52253 0.09244 0.50960
 Co90 Co 0.48312 -0.08905 0.49818
 O91 O 0.51313 -0.00371 0.49732
 C92 C 0.57357 -0.11131 0.41159
 C93 C 0.44480 0.09409 0.40661
 C94 C 0.64155 0.06602 0.43227
 C95 C 0.38541 -0.12110 0.44778
 O96 O 0.61814 0.57172 0.02063
 O97 O 0.34666 0.45956 0.03807
 O98 O 0.42138 0.58839 0.09278
 O99 O 0.55427 0.41840 0.08525
 O100 O 0.34332 0.56956 0.03599
 O101 O 0.62810 0.45842 0.02756
 O102 O 0.42723 0.43650 0.09409
 O103 O 0.54411 0.59462 0.08667
 C104 C 0.60429 0.58570 0.07125
 C105 C 0.36608 0.44043 0.08524
 C106 C 0.36041 0.58642 0.08402
 C107 C 0.61377 0.42886 0.07181
 O108 O 0.58819 0.44737 -0.07705
 O109 O 0.39830 0.56573 -0.07153
 O110 O 0.53448 0.63795 -0.02055
 O111 O 0.42182 0.38678 -0.00923
 O112 O 0.39863 0.45412 -0.07100
 O113 O 0.56923 0.56585 -0.08125
 O114 O 0.54431 0.38090 -0.01973
 O115 O 0.41326 0.63700 -0.01119
 Co116 Co 0.58944 0.51122 -0.02452
 Co117 Co 0.38079 0.51233 -0.01504
 Co118 Co 0.47855 0.60589 0.03441
 Co119 Co 0.48589 0.41583 0.03511
 O120 O 0.48372 0.51128 0.00757
 C121 C 0.57577 0.39343 -0.06507
 C122 C 0.39970 0.62140 -0.06030
 C123 C 0.55741 0.62158 -0.06949
 C124 C 0.40851 0.39924 -0.05893
 C125 C 1.22620 0.20433 0.18042
 C126 C 1.16644 0.17921 0.18233
 C127 C 1.13746 0.15804 0.12967
 C128 C 1.07210 0.14833 0.12719
 H129 H 1.13822 0.17522 0.22214
 H130 H 1.17006 0.15152 0.09190
 H131 H 1.25328 0.20518 0.13956
 H132 H 1.03898 0.15631 0.16445
 C133 C 1.23840 0.72860 0.67954
 C134 C 1.18649 0.69254 0.67703
 C135 C 1.16821 0.66426 0.62294
 C136 C 1.10767 0.64212 0.61850
 H137 H 1.15730 0.68334 0.71539
 H138 H 1.20361 0.66232 0.58678
 H139 H 1.26674 0.73638 0.64026
 H140 H 1.07174 0.64729 0.65424
 C141 C 0.68863 0.21423 0.71713
 C142 C 0.70375 0.16088 0.69001
 C143 C 0.65371 0.13223 0.65630
 C144 C 0.67227 0.08500 0.62175
 H145 H 0.75527 0.14182 0.68790
 H146 H 0.60310 0.15329 0.65578
 H147 H 0.63761 0.23436 0.71621
 H148 H 0.72307 0.06439 0.62231
 C149 C 0.70249 0.69155 0.22726
 C150 C 0.70979 0.64938 0.18562
 C151 C 0.65104 0.62567 0.15874
 C152 C 0.65962 0.59819 0.10801
 H153 H 0.75939 0.63903 0.16604
 H154 H 0.60088 0.63679 0.17679
 H155 H 0.65260 0.70208 0.24604
 H156 H 0.71020 0.58915 0.08996
 C157 C 0.77930 -0.23312 0.18924
 C158 C 0.83216 -0.19831 0.18491
 C159 C 0.84682 -0.16477 0.13217
 C160 C 0.90661 -0.14148 0.12338
 H161 H 0.86554 -0.19560 0.21993
 H162 H 0.80973 -0.16096 0.09980
 H163 H 0.74646 -0.23395 0.15361
 H164 H 0.94401 -0.14774 0.15531
 C165 C 0.77773 0.27907 0.68601
 C166 C 0.83179 0.31231 0.68775
 C167 C 0.85982 0.33805 0.63546
 C168 C 0.92188 0.35751 0.63305
 H169 H 0.85522 0.32063 0.72759
 H170 H 0.82985 0.33977 0.59804
 H171 H 0.75550 0.27269 0.64515
 H172 H 0.95295 0.35334 0.66967
 C173 C 0.32045 -0.20486 0.71796
 C174 C 0.31046 -0.15038 0.69325
 C175 C 0.36512 -0.12291 0.66031
 C176 C 0.35175 -0.07371 0.62868
 H177 H 0.25981 -0.12977 0.69139
 H178 H 0.41363 -0.14802 0.65544
 H179 H 0.37105 -0.22619 0.71678
 H180 H 0.30241 -0.05001 0.63269
 C181 C 0.31071 0.27381 0.20837
 C182 C 0.29087 0.32848 0.18742
 C183 C 0.33915 0.36672 0.15821
 C184 C 0.31843 0.41253 0.12479
 H185 H 0.23795 0.34327 0.18892
 H186 H 0.39231 0.35347 0.15983
 H187 H 0.36310 0.25794 0.20244
 H188 H 0.26512 0.42335 0.12056
 C189 C 0.79350 0.21660 -0.22645
 C190 C 0.77499 0.17591 -0.18768
 C191 C 0.82421 0.14765 -0.14969
 C192 C 0.80560 0.10836 -0.10990
 H193 H 0.72286 0.16481 -0.18267
 H194 H 0.87575 0.16106 -0.15283
 H195 H 0.84595 0.22714 -0.22951
 H196 H 0.75414 0.09482 -0.10688
 C197 C 0.81910 0.69017 0.26278
 C198 C 0.80925 0.65052 0.30495
 C199 C 0.86433 0.62244 0.33780
 C200 C 0.84912 0.58567 0.38086
 H201 H 0.75807 0.64292 0.31928
 H202 H 0.91550 0.63538 0.32995
 H203 H 0.87013 0.69932 0.24946
 H204 H 0.79746 0.57349 0.38766
 C205 C 0.29368 0.17552 0.26243
 C206 C 0.34948 0.17903 0.29204
 C207 C 0.37453 0.12804 0.32761
 C208 C 0.42746 0.13514 0.35970
 H209 H 0.37508 0.22142 0.29307
 H210 H 0.34632 0.08720 0.33140
 H211 H 0.26735 0.13342 0.26441
 H212 H 0.45337 0.17741 0.35696
 C213 C 0.28832 0.70254 -0.22883
 C214 C 0.32478 0.71084 -0.18318
 C215 C 0.34771 0.65892 -0.14790
 C216 C 0.38050 0.66943 -0.10078
 H217 H 0.33758 0.75677 -0.17147
 H218 H 0.33582 0.61262 -0.15928
 H219 H 0.27491 0.65633 -0.23912
 H220 H 0.39031 0.71624 -0.08923
 C221 C 1.20463 -0.20841 -0.23237
 C222 C 1.21380 -0.16383 -0.19410
 C223 C 1.15709 -0.13415 -0.15932
 C224 C 1.16759 -0.08791 -0.12341
 H225 H 1.26412 -0.14981 -0.18726
 H226 H 1.10751 -0.15179 -0.16132
 H227 H 1.15386 -0.22226 -0.23727
 H228 H 1.21759 -0.07103 -0.12184
 C229 C 1.21010 0.26393 0.27301
 C230 C 1.22976 0.29777 0.31636
 C231 C 1.18015 0.33180 0.35430
 C232 C 1.19927 0.37294 0.39188
 H233 H 1.28287 0.30143 0.32303
 H234 H 1.12739 0.32293 0.35156
 H235 H 1.15669 0.26288 0.26665
 H236 H 1.25191 0.38241 0.39394
 C237 C 0.73889 -0.22385 0.28989
 C238 C 0.68065 -0.19014 0.29209
 C239 C 0.65994 -0.15508 0.34399
 C240 C 0.59521 -0.14017 0.35680
 H241 H 0.64616 -0.19244 0.25784
 H242 H 0.69776 -0.14545 0.37419
 H243 H 0.77221 -0.21972 0.32493
 H244 H 0.55713 -0.15137 0.32739
 C245 C 0.71211 0.30663 -0.22589
 C246 C 0.66716 0.29900 -0.18346
 C247 C 0.64084 0.35123 -0.14805
 C248 C 0.59957 0.34275 -0.10339
 H249 H 0.65005 0.25381 -0.17450
 H250 H 0.65682 0.39673 -0.15770
 H251 H 0.72935 0.35225 -0.23310
 H252 H 0.58477 0.29697 -0.09339
 C253 C 1.22803 0.20106 -0.20677
 C254 C 1.16538 0.20604 -0.18404
 C255 C 1.13892 0.15694 -0.14912
 C256 C 1.07797 0.16425 -0.12366
 H257 H 1.13381 0.24732 -0.19034
 H258 H 1.17095 0.11627 -0.14141
 H259 H 1.25983 0.16052 -0.19795
 H260 H 1.04730 0.20611 -0.12986
 C261 C 1.17386 0.75017 0.28837
 C262 C 1.17643 0.69034 0.30888
 C263 C 1.12971 0.67000 0.34899
 C264 C 1.13730 0.60927 0.36581
 H265 H 1.21773 0.65854 0.29534
 H266 H 1.09090 0.70119 0.36842
 H267 H 1.13174 0.78086 0.30322
 H268 H 1.17512 0.57940 0.34311
 C269 C 0.70397 0.23433 0.30928
 C270 C 0.72070 0.17895 0.33002
 C271 C 0.67707 0.15260 0.37434
 C272 C 0.68567 0.09392 0.38930
 H273 H 0.76554 0.15282 0.31426
 H274 H 0.63608 0.18130 0.39391
 H275 H 0.65960 0.25934 0.32788
 H276 H 0.72558 0.06491 0.36856
 C277 C 0.70124 0.69510 -0.22440
 C278 C 0.65318 0.70695 -0.18362
 C279 C 0.61850 0.65711 -0.15512
 C280 C 0.57862 0.66936 -0.10888
 H281 H 0.64459 0.75344 -0.16702
 H282 H 0.63136 0.60993 -0.16816
 H283 H 0.70784 0.64865 -0.24100
 H284 H 0.56747 0.71675 -0.09563
 C285 C 0.78584 -0.23433 -0.19277
 C286 C 0.83077 -0.19091 -0.19369
 C287 C 0.86141 -0.17134 -0.14049
 C288 C 0.89728 -0.12156 -0.13866
 H289 H 0.84271 -0.16822 -0.23311
 H290 H 0.84984 -0.19479 -0.10135
 H291 H 0.77542 -0.25581 -0.15237
 H292 H 0.90451 -0.09542 -0.17694
 C293 C 0.77944 0.31693 0.29285
 C294 C 0.83552 0.30458 0.32099
 C295 C 0.86544 0.35236 0.35484
 C296 C 0.91967 0.33879 0.38479
 H297 H 0.85801 0.25813 0.32076
 H298 H 0.84059 0.39788 0.35800
 H299 H 0.75615 0.36315 0.29548
 H300 H 0.94344 0.29282 0.38217
 C301 C 0.25627 -0.17638 0.28417
 C302 C 0.27778 -0.18519 0.33953
 C303 C 0.31444 -0.14233 0.36762
 C304 C 0.34279 -0.15779 0.41895
 H305 H 0.26807 -0.22791 0.36044
 H306 H 0.32387 -0.09876 0.34817
 H307 H 0.27595 -0.13764 0.26204
 H308 H 0.33580 -0.20313 0.43573
 C309 C 0.27886 0.30098 -0.20003
 C310 C 0.33653 0.30009 -0.17308
 C311 C 0.35134 0.35331 -0.13748
 C312 C 0.39857 0.34898 -0.09920
 H313 H 0.37228 0.26082 -0.17715
 H314 H 0.32075 0.39581 -0.14055
 H315 H 0.24252 0.33920 -0.19084
 H316 H 0.42602 0.30534 -0.09328
 C317 C 1.19191 -0.20085 0.20266
 C318 C 1.17771 -0.13941 0.18920
 C319 C 1.14998 -0.12422 0.13756
 C320 C 1.13921 -0.06309 0.12319
 H321 H 1.18825 -0.10273 0.21823
 H322 H 1.13769 -0.16011 0.10812
 H323 H 1.17378 -0.23424 0.17330
 H324 H 1.15226 -0.02769 0.15290
 C325 C 1.20787 0.28056 0.71908
 C326 C 1.21691 0.33492 0.69539
 C327 C 1.17325 0.35839 0.65151
 C328 C 1.17628 0.41607 0.63427
 H329 H 1.25864 0.36157 0.70702
 H330 H 1.14039 0.32744 0.63141
 H331 H 1.16727 0.25369 0.70515
 H332 H 1.20702 0.44776 0.65578
 C333 C 0.70677 -0.20348 0.72944
 C334 C 0.66857 -0.21446 0.68502
 C335 C 0.64109 -0.16524 0.64880
 C336 C 0.60717 -0.17906 0.60273
 H337 H 0.66241 -0.26161 0.67208
 H338 H 0.65154 -0.11805 0.65810
 H339 H 0.71479 -0.15646 0.74155
 H340 H 0.59611 -0.22628 0.59427
 C341 C 0.69176 0.29747 0.22448
 C342 C 0.70767 0.33785 0.18445
 C343 C 0.65492 0.36522 0.14918
 C344 C 0.66792 0.40447 0.10753
 H345 H 0.75912 0.35070 0.17824
 H346 H 0.60383 0.35206 0.15726
 H347 H 0.64003 0.28451 0.22857
 H348 H 0.71897 0.41705 0.09840
 C349 C 0.79201 0.22676 0.22573
 C350 C 0.77632 0.17421 0.20079
 C351 C 0.82115 0.14576 0.15543
 C352 C 0.81622 0.08800 0.13702
 H353 H 0.72900 0.15428 0.21141
 H354 H 0.85791 0.17390 0.13506
 H355 H 0.83911 0.24592 0.21260
 H356 H 0.78238 0.05815 0.15871
 C357 C 0.80006 0.72111 0.70922
 C358 C 0.82368 0.66290 0.70159
 C359 C 0.85952 0.64296 0.64793
 C360 C 0.86502 0.58350 0.63377
 H361 H 0.81243 0.62860 0.73268
 H362 H 0.87749 0.67677 0.61862
 H363 H 0.81562 0.75419 0.67805
 H364 H 0.84569 0.55045 0.66326
 C365 C 0.31664 0.22376 0.72137
 C366 C 0.30590 0.18142 0.68141
 C367 C 0.35933 0.15687 0.64131
 C368 C 0.34393 0.12536 0.59496
 H369 H 0.25555 0.16607 0.67701
 H370 H 0.41120 0.16542 0.64922
 H371 H 0.36646 0.24061 0.72436
 H372 H 0.29175 0.11886 0.58643
 C373 C 0.27955 0.73182 0.23227
 C374 C 0.26974 0.68154 0.19635
 C375 C 0.32337 0.64835 0.16827
 C376 C 0.31076 0.60910 0.12323
 H377 H 0.21889 0.67087 0.18689
 H378 H 0.37462 0.65845 0.17697
 H379 H 0.33140 0.74062 0.24075
 H380 H 0.25891 0.60302 0.11305
   
