data_POSCAR
  _audit_creation_date              2014-09-24
  _audit_creation_method            'ToBaCCo'
  _symmetry_space_group_name_H-M    'P1'
  _symmetry_Int_Tables_number       1
  _symmetry_cell_setting            triclinic
  loop_
  _symmetry_equiv_pos_as_xyz
 x,y,z
_cell_length_a 35.6253
_cell_length_b 35.6772
_cell_length_c 35.6505
_cell_angle_alpha 82.265200
_cell_angle_beta 97.685100
_cell_angle_gamma 96.261200
loop_
  _atom_site_label
  _atom_site_type_symbol
  _atom_site_fract_x
  _atom_site_fract_y
  _atom_site_fract_z
C1 C 0.58483 0.53493 -0.01970
 C2 C 0.57542 0.57232 -0.02066
 C3 C 0.53835 0.58084 -0.01806
 C4 C 0.50868 0.55073 -0.01746
 C5 C 0.51724 0.51263 -0.01658
 C6 C 0.55520 0.50470 -0.01831
 C7 C 0.56175 0.46724 -0.02212
 C8 C 0.53276 0.43788 -0.02089
 C9 C 0.49553 0.44470 -0.01692
 C10 C 0.48737 0.48249 -0.01566
 C11 C 0.47022 0.55801 -0.02160
 C12 C 0.44127 0.52867 -0.02038
 C13 C 0.44919 0.49044 -0.01511
 C14 C 0.41959 0.46016 -0.01318
 C15 C 0.42866 0.42309 -0.01476
 C16 C 0.46586 0.41495 -0.01634
 H17 H 0.58913 0.46018 -0.02746
 H18 H 0.53974 0.40985 -0.02424
 H19 H 0.46181 0.58663 -0.02728
 H20 H 0.41242 0.53656 -0.02519
 H21 H 0.59828 0.59501 -0.01956
 H22 H 0.40679 0.39950 -0.01264
 C23 C -0.00640 0.58544 0.46458
 C24 C -0.00552 0.57747 0.42742
 C25 C -0.00306 0.54046 0.41912
 C26 C -0.00345 0.51000 0.44947
 C27 C -0.00400 0.51785 0.48747
 C28 C -0.00520 0.55569 0.49505
 C29 C -0.00500 0.56284 0.53291
 C30 C -0.00447 0.53339 0.56274
 C31 C -0.00359 0.49561 0.55601
 C32 C -0.00378 0.48769 0.51801
 C33 C -0.00581 0.47174 0.44275
 C34 C -0.00514 0.44235 0.47259
 C35 C -0.00401 0.44964 0.51046
 C36 C -0.00331 0.41985 0.54100
 C37 C -0.00284 0.42814 0.57826
 C38 C -0.00316 0.46541 0.58619
 H39 H -0.00524 0.59136 0.53997
 H40 H -0.00500 0.54063 0.59115
 H41 H -0.00901 0.46377 0.41425
 H42 H -0.00590 0.41372 0.46548
 H43 H -0.00504 0.60109 0.40482
 H44 H -0.00232 0.40513 0.60151
 C45 C 0.53599 0.00395 0.58561
 C46 C 0.57284 0.00005 0.57762
 C47 C 0.58106 -0.00267 0.54069
 C48 C 0.55059 -0.00335 0.51050
 C49 C 0.51328 0.00180 0.51754
 C50 C 0.50609 0.00642 0.55484
 C51 C 0.46983 0.01593 0.55972
 C52 C 0.44039 0.01690 0.52990
 C53 C 0.44604 0.00922 0.49358
 C54 C 0.48301 0.00258 0.48703
 C55 C 0.55591 -0.01103 0.47390
 C56 C 0.52646 -0.00995 0.44412
 C57 C 0.48982 -0.00292 0.44993
 C58 C 0.45983 -0.00100 0.41958
 C59 C 0.42348 0.00510 0.42667
 C60 C 0.41595 0.00938 0.46328
 H61 H 0.46387 0.02369 0.58644
 H62 H 0.41326 0.02447 0.53551
 H63 H 0.58283 -0.01855 0.46780
 H64 H 0.53282 -0.01489 0.41647
 H65 H 0.59586 -0.00073 0.60083
 H66 H 0.40046 0.00563 0.40342
 O67 O 0.47136 -0.00740 -0.05354
 O68 O 0.46438 -0.01569 0.04934
 O69 O 0.46526 0.04022 -0.00578
 O70 O 0.47158 -0.06302 0.00140
 O71 O 0.53405 -0.05364 0.01308
 O72 O 0.52774 0.04939 0.00572
 O73 O 0.52684 -0.00633 0.06098
 O74 O 0.53385 0.00180 -0.04207
 Cu75 Cu 0.46188 -0.01239 -0.00320
 Cu76 Cu 0.53686 -0.00126 0.01066
 C77 C 0.50380 -0.00166 -0.06544
 C78 C 0.49434 -0.01226 0.07279
 C79 C 0.49545 0.06249 -0.00128
 C80 C 0.50399 -0.07596 0.00806
 O81 O -0.04047 0.53496 0.99590
 O82 O 0.06287 0.52806 1.00347
 O83 O 0.00735 0.52851 0.94831
 O84 O 0.01534 0.53568 1.05104
 O85 O 0.00558 0.47334 1.06284
 O86 O -0.00220 0.46613 0.95987
 O87 O 0.05311 0.46571 1.01529
 O88 O -0.05002 0.47259 1.00751
 Cu89 Cu 0.01222 0.53805 0.99857
 Cu90 Cu 0.00065 0.46320 1.01258
 C91 C -0.06294 0.50493 1.00046
 C92 C 0.07565 0.49561 1.01039
 C93 C 0.00147 0.49612 0.93647
 C94 C 0.01166 0.50582 1.07455
 O95 O -0.01126 -0.04210 0.46620
 O96 O -0.00559 0.06041 0.47341
 O97 O 0.04299 0.01316 0.46577
 O98 O -0.05962 0.00546 0.47347
 O99 O -0.04767 -0.00614 0.53605
 O100 O 0.05494 0.00153 0.52834
 O101 O 0.00639 0.04875 0.53599
 O102 O 0.00068 -0.05366 0.52877
 Cu103 Cu -0.00951 0.01035 0.46342
 Cu104 Cu 0.00483 -0.00358 0.53855
 C105 C -0.00628 -0.06545 0.49625
 C106 C 0.00108 0.07211 0.50599
 C107 C 0.06655 0.00865 0.49572
 C108 C -0.07121 -0.00138 0.50610
 C109 C -0.29750 0.52143 0.98668
 C110 C -0.32017 0.49736 1.01068
 C111 C -0.35908 0.50138 1.00840
 C112 C -0.37613 0.52933 0.98167
 C113 C -0.35267 0.55374 0.95812
 C114 C -0.31385 0.54961 0.96045
 C115 C -0.25734 0.51781 0.98930
 C116 C -0.22363 0.51526 0.99125
 C117 C -0.18333 0.51262 0.99343
 C118 C -0.16880 0.47712 1.00090
 C119 C -0.12965 0.47459 1.00306
 C120 C -0.10446 0.50759 0.99777
 C121 C -0.11937 0.54315 0.99019
 C122 C -0.15854 0.54560 0.98804
 H123 H -0.30769 0.47580 1.03152
 H124 H -0.37555 0.48341 1.02845
 H125 H -0.36452 0.57562 0.93722
 H126 H -0.29655 0.56852 0.94182
 H127 H -0.18772 0.45140 1.00510
 H128 H -0.11913 0.44678 1.00896
 H129 H -0.10080 0.56909 0.98599
 H130 H -0.16948 0.57323 0.98221
 C131 C 0.30579 0.47393 1.00145
 C132 C 0.33603 0.49314 1.02253
 C133 C 0.37358 0.48871 1.01779
 C134 C 0.38158 0.46532 0.99143
 C135 C 0.35067 0.44543 0.97113
 C136 C 0.31322 0.44996 0.97592
 C137 C 0.26705 0.47871 1.00578
 C138 C 0.23432 0.48227 1.00866
 C139 C 0.19492 0.48595 1.01119
 C140 C 0.18104 0.52177 1.00461
 C141 C 0.14233 0.52506 1.00505
 C142 C 0.11698 0.49248 1.01200
 C143 C 0.13136 0.45666 1.01920
 C144 C 0.17005 0.45346 1.01875
 H145 H 0.33060 0.51137 1.04279
 H146 H 0.39639 0.50291 1.03546
 H147 H 0.35536 0.42726 0.95051
 H148 H 0.29001 0.43487 0.95950
 H149 H 0.20003 0.54711 0.99861
 H150 H 0.13218 0.55304 0.99937
 H151 H 0.11264 0.43102 1.02464
 H152 H 0.18047 0.42558 1.02379
 C153 C -0.00965 -0.29751 0.47845
 C154 C 0.02255 -0.30968 0.46683
 C155 C 0.02366 -0.34791 0.46268
 C156 C -0.00736 -0.37436 0.47032
 C157 C -0.03966 -0.36206 0.48186
 C158 C -0.04074 -0.32376 0.48602
 C159 C -0.01074 -0.25798 0.48211
 C160 C -0.01110 -0.22472 0.48485
 C161 C -0.01092 -0.18488 0.48782
 C162 C -0.01695 -0.15909 0.45486
 C163 C -0.01571 -0.12023 0.45758
 C164 C -0.00835 -0.10666 0.49337
 C165 C -0.00259 -0.13287 0.52637
 C166 C -0.00385 -0.17172 0.52357
 H167 H 0.04671 -0.28959 0.46080
 H168 H 0.04866 -0.35693 0.45348
 H169 H -0.06398 -0.38208 0.48743
 H170 H -0.06584 -0.31460 0.49489
 H171 H -0.02236 -0.16898 0.42704
 H172 H -0.02027 -0.10083 0.43164
 H173 H 0.00312 -0.12338 0.55434
 H174 H 0.00093 -0.19144 0.54926
 C175 C -0.00078 0.30300 0.52624
 C176 C 0.03122 0.32292 0.54408
 C177 C 0.03037 0.36107 0.54871
 C178 C -0.00244 0.37967 0.53533
 C179 C -0.03457 0.35957 0.51769
 C180 C -0.03369 0.32138 0.51306
 C181 C 0.00005 0.26360 0.52199
 C182 C 0.00084 0.23051 0.51878
 C183 C 0.00174 0.19091 0.51539
 C184 C 0.00884 0.16508 0.54812
 C185 C 0.00905 0.12647 0.54505
 C186 C 0.00213 0.11317 0.50912
 C187 C -0.00466 0.13943 0.47633
 C188 C -0.00486 0.17805 0.47949
 H189 H 0.05675 0.30892 0.55452
 H190 H 0.05527 0.37617 0.56264
 H191 H -0.06022 0.37348 0.50761
 H192 H -0.05867 0.30617 0.49938
 H193 H 0.01400 0.17476 0.57605
 H194 H 0.01435 0.10702 0.57084
 H195 H -0.01012 0.13012 0.44827
 H196 H -0.01038 0.19783 0.45397
 C197 C 0.52175 0.00369 -0.29810
 C198 C 0.55230 0.02559 -0.31344
 C199 C 0.55680 0.02588 -0.35180
 C200 C 0.53045 0.00459 -0.37580
 C201 C 0.50006 -0.01779 -0.35972
 C202 C 0.49567 -0.01804 -0.32127
 C203 C 0.51769 0.00316 -0.25840
 C204 C 0.51485 0.00284 -0.22503
 C205 C 0.51196 0.00244 -0.18509
 C206 C 0.54491 0.00723 -0.15937
 C207 C 0.54229 0.00628 -0.12046
 C208 C 0.50658 0.00051 -0.10677
 C209 C 0.47360 -0.00399 -0.13292
 C210 C 0.47631 -0.00303 -0.17181
 H211 H 0.57271 0.04245 -0.29572
 H212 H 0.58044 0.04365 -0.36291
 H213 H 0.48027 -0.03600 -0.37660
 H214 H 0.47219 -0.03553 -0.30953
 H215 H 0.57266 0.01151 -0.16936
 H216 H 0.56821 0.00981 -0.10111
 H217 H 0.44569 -0.00852 -0.12333
 H218 H 0.45062 -0.00676 -0.19149
 C219 C 0.47412 -0.01065 0.30387
 C220 C 0.47625 -0.04257 0.33139
 C221 C 0.47176 -0.03954 0.36924
 C222 C 0.46535 -0.00448 0.37982
 C223 C 0.46298 0.02733 0.35210
 C224 C 0.46746 0.02427 0.31433
 C225 C 0.47834 -0.01354 0.26479
 C226 C 0.48156 -0.01517 0.23182
 C227 C 0.48500 -0.01622 0.19221
 C228 C 0.52084 -0.01054 0.17928
 C229 C 0.52399 -0.00979 0.14049
 C230 C 0.49126 -0.01465 0.11409
 C231 C 0.45540 -0.02084 0.12748
 C232 C 0.45234 -0.02159 0.16626
 H233 H 0.48123 -0.06976 0.32357
 H234 H 0.47323 -0.06441 0.39027
 H235 H 0.45775 0.05448 0.35980
 H236 H 0.46562 0.04911 0.29325
 H237 H 0.54631 -0.00624 0.19911
 H238 H 0.55200 -0.00495 0.13113
 H239 H 0.42966 -0.02468 0.10795
 H240 H 0.42445 -0.02590 0.17594
 C241 C 0.52425 -0.30537 -0.00439
 C242 C 0.54678 -0.31289 -0.03125
 C243 C 0.55127 -0.35035 -0.03589
 C244 C 0.53280 -0.38114 -0.01407
 C245 C 0.51076 -0.37301 0.01344
 C246 C 0.50636 -0.33548 0.01802
 C247 C 0.51982 -0.26669 0.00020
 C248 C 0.51649 -0.23406 0.00351
 C249 C 0.51304 -0.19483 0.00673
 C250 C 0.54570 -0.17027 0.01463
 C251 C 0.54269 -0.13173 0.01584
 C252 C 0.50690 -0.11719 0.00909
 C253 C 0.47415 -0.14225 0.00184
 C254 C 0.47725 -0.18081 0.00063
 H255 H 0.56085 -0.28977 -0.04870
 H256 H 0.56841 -0.35518 -0.05739
 H257 H 0.49773 -0.39567 0.03223
 H258 H 0.48929 -0.32996 0.03930
 H259 H 0.57355 -0.18081 0.01932
 H260 H 0.56846 -0.11323 0.02149
 H261 H 0.44620 -0.13197 -0.00351
 H262 H 0.45178 -0.19957 -0.00558
 C263 C 0.48069 0.29685 -0.01383
 C264 C 0.49910 0.31705 0.01554
 C265 C 0.49489 0.35573 0.01444
 C266 C 0.47241 0.37459 -0.01621
 C267 C 0.45412 0.35421 -0.04562
 C268 C 0.45833 0.31556 -0.04448
 C269 C 0.48388 0.25675 -0.01208
 C270 C 0.48615 0.22309 -0.01054
 C271 C 0.48852 0.18283 -0.00859
 C272 C 0.52396 0.16810 -0.00114
 C273 C 0.52624 0.12896 0.00112
 C274 C 0.49304 0.10399 -0.00405
 C275 C 0.45755 0.11911 -0.01165
 C276 C 0.45535 0.15827 -0.01389
 H277 H 0.51629 0.30282 0.03950
 H278 H 0.50870 0.37087 0.03767
 H279 H 0.43637 0.36822 -0.06927
 H280 H 0.44383 0.30018 -0.06727
 H281 H 0.54982 0.18685 0.00303
 H282 H 0.55400 0.11827 0.00701
 H283 H 0.43147 0.10070 -0.01576
 H284 H 0.42776 0.16937 -0.01966
 C285 C -0.30289 -0.00402 0.52650
 C286 C -0.31822 -0.02708 0.55668
 C287 C -0.35650 -0.02677 0.56123
 C288 C -0.38038 -0.00374 0.53527
 C289 C -0.36428 0.01991 0.50539
 C290 C -0.32592 0.01955 0.50095
 C291 C -0.26335 -0.00421 0.52221
 C292 C -0.23014 -0.00440 0.51902
 C293 C -0.19039 -0.00453 0.51563
 C294 C -0.16440 -0.01094 0.54837
 C295 C -0.12565 -0.01034 0.54528
 C296 C -0.11238 -0.00328 0.50931
 C297 C -0.13880 0.00280 0.47652
 C298 C -0.17755 0.00218 0.47970
 H299 H -0.30056 -0.04533 0.57672
 H300 H -0.36767 -0.04542 0.58454
 H301 H -0.38110 0.03945 0.48601
 H302 H -0.31416 0.03796 0.47781
 H303 H -0.17407 -0.01617 0.57632
 H304 H -0.10607 -0.01510 0.57106
 H305 H -0.12951 0.00833 0.44842
 H306 H -0.19746 0.00718 0.45418
 C307 C 0.29901 0.01510 0.47701
 C308 C 0.31732 0.04292 0.45234
 C309 C 0.35562 0.04143 0.44825
 C310 C 0.37595 0.01221 0.46898
 C311 C 0.35740 -0.01563 0.49363
 C312 C 0.31916 -0.01410 0.49772
 C313 C 0.25933 0.01582 0.48040
 C314 C 0.22598 0.01581 0.48318
 C315 C 0.18609 0.01513 0.48641
 C316 C 0.16003 0.02083 0.45361
 C317 C 0.12113 0.01902 0.45662
 C318 C 0.10780 0.01143 0.49255
 C319 C 0.13429 0.00604 0.52539
 C320 C 0.17317 0.00786 0.52229
 H321 H 0.30193 0.06552 0.43604
 H322 H 0.36938 0.06293 0.42884
 H323 H 0.37248 -0.03873 0.50935
 H324 H 0.30520 -0.03590 0.51669
 H325 H 0.16974 0.02640 0.42569
 H326 H 0.10151 0.02331 0.43081
 H327 H 0.12497 0.00015 0.55346
 H328 H 0.19312 0.00333 0.54786
 C329 C 0.00872 0.52755 1.30489
 C330 C 0.03213 0.50934 1.33492
 C331 C 0.02839 0.51354 1.37265
 C332 C 0.00070 0.53560 1.38102
 C333 C -0.02187 0.55467 1.35030
 C334 C -0.01808 0.55039 1.31266
 C335 C 0.01193 0.52288 1.26603
 C336 C 0.01381 0.51935 1.23320
 C337 C 0.01513 0.51566 1.19372
 C338 C 0.00922 0.47980 1.18098
 C339 C 0.00865 0.47647 1.14226
 C340 C 0.01392 0.50904 1.11578
 C341 C 0.02037 0.54490 1.12899
 C342 C 0.02094 0.54814 1.16769
 H343 H 0.05339 0.49205 1.32918
 H344 H 0.04775 0.50016 1.39527
 H345 H -0.04343 0.57197 1.35537
 H346 H -0.03625 0.56475 1.28960
 H347 H 0.00459 0.45448 1.20090
 H348 H 0.00361 0.44847 1.13302
 H349 H 0.02453 0.57053 1.10938
 H350 H 0.02543 0.57604 1.17724
 C351 C -0.00320 0.47934 0.70374
 C352 C 0.02809 0.49447 0.68477
 C353 C 0.02803 0.49038 0.64628
 C354 C -0.00346 0.47133 0.62645
 C355 C -0.03469 0.45617 0.64562
 C356 C -0.03460 0.46025 0.68406
 C357 C -0.00289 0.48274 0.74353
 C358 C -0.00271 0.48526 0.77694
 C359 C -0.00241 0.48802 0.81687
 C360 C 0.00312 0.52361 0.83015
 C361 C 0.00401 0.52628 0.86903
 C362 C -0.00060 0.49332 0.89517
 C363 C -0.00643 0.45768 0.88148
 C364 C -0.00731 0.45509 0.84258
 H365 H 0.05260 0.50913 0.69979
 H366 H 0.05255 0.50178 0.63201
 H367 H -0.05904 0.44110 0.63078
 H368 H -0.05888 0.44832 0.69850
 H369 H 0.00693 0.54928 0.81049
 H370 H 0.00857 0.55414 0.87862
 H371 H -0.01004 0.43178 0.90083
 H372 H -0.01161 0.42740 0.83258
   
