data_POSCAR
  _audit_creation_date              2014-09-24
  _audit_creation_method            'ToBaCCo'
  _symmetry_space_group_name_H-M    'P1'
  _symmetry_Int_Tables_number       1
  _symmetry_cell_setting            triclinic
  loop_
  _symmetry_equiv_pos_as_xyz
 x,y,z
_cell_length_a 38.7066
_cell_length_b 38.6165
_cell_length_c 38.3265
_cell_angle_alpha 90.068900
_cell_angle_beta 89.979300
_cell_angle_gamma 89.996200
loop_
  _atom_site_label
  _atom_site_type_symbol
  _atom_site_fract_x
  _atom_site_fract_y
  _atom_site_fract_z
C1 C 0.31921 0.36469 1.36759
 C2 C 0.33582 0.33462 1.38023
 C3 C 0.36545 0.32062 1.36390
 C4 C 0.37870 0.33795 1.33441
 C5 C 0.36290 0.36793 1.32136
 C6 C 0.33344 0.38109 1.33802
 H7 H 0.32717 0.32358 1.40457
 H8 H 0.40016 0.32719 1.31994
 H9 H 0.32111 0.40360 1.32683
 C10 C 1.18097 0.63562 0.87021
 C11 C 1.16663 0.61901 0.84067
 C12 C 1.13718 0.63218 0.82388
 C13 C 1.12149 0.66226 0.83686
 C14 C 1.13497 0.67934 0.86612
 C15 C 1.16447 0.66589 0.88260
 H16 H 1.17887 0.59639 0.82956
 H17 H 1.09940 0.67310 0.82338
 H18 H 1.17338 0.67847 0.90616
 C19 C 0.68141 -0.13777 0.13078
 C20 C 0.66690 -0.12147 0.16028
 C21 C 0.63712 -0.13444 0.17642
 C22 C 0.62119 -0.16411 0.16282
 C23 C 0.63468 -0.18139 0.13336
 C24 C 0.66473 -0.16761 0.11758
 H25 H 0.67765 -0.09753 0.17013
 H26 H 0.59942 -0.17476 0.17689
 H27 H 0.67537 -0.18037 0.09498
 C28 C -0.18066 1.13724 -0.36626
 C29 C -0.16700 1.12111 -0.33656
 C30 C -0.13754 1.13440 -0.32003
 C31 C -0.12151 1.16410 -0.33369
 C32 C -0.13467 1.18107 -0.36352
 C33 C -0.16436 1.16690 -0.37956
 H34 H -0.18003 1.09882 -0.32555
 H35 H -0.09941 1.17444 -0.31996
 H36 H -0.17424 1.17780 -0.40354
 C37 C 0.67937 0.63775 0.63046
 C38 C 0.66271 0.66733 0.61736
 C39 C 0.63325 0.68085 0.63392
 C40 C 0.62039 0.66428 0.66382
 C41 C 0.63670 0.63473 0.67738
 C42 C 0.66611 0.62158 0.66045
 H43 H 0.67289 0.68006 0.59438
 H44 H 0.59724 0.67410 0.67625
 H45 H 0.67943 0.59942 0.67136
 C46 C 0.81996 0.36266 0.13328
 C47 C 0.83372 0.37944 0.16259
 C48 C 0.86327 0.36656 0.17925
 C49 C 0.87922 0.33653 0.16619
 C50 C 0.86596 0.31891 0.13674
 C51 C 0.83621 0.33272 0.12052
 H52 H 0.82120 0.40247 0.17265
 H53 H 0.90077 0.32595 0.18062
 H54 H 0.82623 0.32133 0.09679
 C55 C 0.31903 0.13544 0.86716
 C56 C 0.33554 0.16568 0.87957
 C57 C 0.36496 0.17921 0.86301
 C58 C 0.37839 0.16220 0.83366
 C59 C 0.36270 0.13212 0.82068
 C60 C 0.33330 0.11890 0.83754
 H61 H 0.32672 0.17817 0.90322
 H62 H 0.40045 0.17308 0.82016
 H63 H 0.32105 0.09627 0.82645
 C64 C 0.18038 0.86392 0.36985
 C65 C 0.16613 0.88022 0.34013
 C66 C 0.13676 0.86686 0.32333
 C67 C 0.12105 0.83689 0.33648
 C68 C 0.13444 0.82011 0.36593
 C69 C 0.16388 0.83376 0.38241
 H70 H 0.17838 0.90275 0.32891
 H71 H 0.09901 0.82590 0.32302
 H72 H 0.17272 0.82143 0.40610
 Zn73 Zn -0.02038 1.00557 0.04334
 Zn74 Zn 0.04266 0.97946 0.00704
 Zn75 Zn -0.02663 0.97244 -0.02719
 Zn76 Zn 0.00639 1.04228 -0.01961
 O77 O 0.00047 0.99991 0.00085
 O78 O 0.00511 0.98947 0.07881
 O79 O 0.04612 0.93901 -0.01533
 O80 O -0.06562 0.95863 -0.00589
 O81 O 0.05198 0.97020 0.05184
 O82 O -0.06079 0.98336 0.04612
 O83 O -0.00496 0.93356 -0.04091
 O84 O -0.01564 1.04568 -0.06045
 O85 O 0.07769 1.00534 -0.00883
 O86 O -0.04008 0.99408 -0.06640
 O87 O 0.05075 1.05194 -0.02874
 O88 O -0.00962 1.07725 0.00659
 O89 O -0.02962 1.04996 0.05325
 C90 C 0.03458 0.97519 0.07940
 C91 C 0.02515 0.92236 -0.03437
 C92 C -0.07714 0.96473 0.02448
 C93 C -0.03407 1.02443 -0.07745
 C94 C 0.07815 1.03479 -0.02338
 C95 C -0.02422 1.07753 0.03619
 Zn96 Zn 0.50653 0.04350 0.51856
 Zn97 Zn 0.54254 -0.01931 0.49137
 Zn98 Zn 0.47334 -0.02629 0.52576
 Zn99 Zn 0.47943 0.00715 0.45546
 O100 O 0.50042 0.00123 0.49782
 O101 O 0.55094 0.05295 0.52766
 O102 O 0.54592 -0.05994 0.51335
 O103 O 0.46022 -0.00486 0.56523
 O104 O 0.57771 0.00633 0.50741
 O105 O 0.48471 0.04673 0.55955
 O106 O 0.49487 -0.06535 0.53901
 O107 O 0.43889 -0.01488 0.45269
 O108 O 0.55168 -0.02837 0.44647
 O109 O 0.43418 -0.03977 0.50458
 O110 O 0.50474 -0.00892 0.41979
 O111 O 0.47028 0.05163 0.44592
 O112 O 0.49049 0.07865 0.49271
 C113 C 0.57828 0.03569 0.52221
 C114 C 0.52492 -0.07664 0.53229
 C115 C 0.46637 0.02541 0.57650
 C116 C 0.42254 -0.03351 0.47431
 C117 C 0.53418 -0.02329 0.41901
 C118 C 0.47576 0.07910 0.46318
 Zn119 Zn 0.97929 0.49402 0.54364
 Zn120 Zn 1.00633 0.45761 0.48053
 Zn121 Zn 0.97310 0.52740 0.47332
 Zn122 Zn 1.04236 0.52042 0.50759
 O123 O 1.00023 0.49990 0.50123
 O124 O 0.97002 0.44958 0.55317
 O125 O 0.98457 0.45437 0.43955
 O126 O 0.93399 0.54098 0.49461
 O127 O 0.99019 0.42252 0.50638
 O128 O 0.93883 0.51618 0.54653
 O129 O 0.95992 0.50589 0.43390
 O130 O 1.04576 0.56098 0.48549
 O131 O 1.05074 0.44803 0.47155
 O132 O 0.99468 0.56640 0.45989
 O133 O 1.07751 0.49469 0.49164
 O134 O 1.05158 0.52948 0.55247
 O135 O 1.00474 0.50993 0.57927
 C136 C 0.97545 0.42210 0.53591
 C137 C 0.96616 0.47563 0.42262
 C138 C 0.92244 0.53480 0.52495
 C139 C 1.02476 0.57765 0.46652
 C140 C 1.07809 0.46525 0.47700
 C141 C 1.03419 0.52426 0.57999
 Zn142 Zn 0.48010 0.49324 0.95632
 Zn143 Zn 0.54307 0.51936 0.99271
 Zn144 Zn 0.47373 0.52648 1.02681
 Zn145 Zn 0.50671 0.45660 1.01939
 O146 O 0.50086 0.49895 0.99884
 O147 O 0.50574 0.50920 0.92084
 O148 O 0.54648 0.55991 1.01493
 O149 O 0.43470 0.54010 1.00551
 O150 O 0.55253 0.52845 0.94792
 O151 O 0.43969 0.51547 0.95345
 O152 O 0.49531 0.56547 1.04034
 O153 O 0.48481 0.45336 1.06033
 O154 O 0.57804 0.49351 1.00871
 O155 O 0.46042 0.50500 1.06615
 O156 O 0.55105 0.44687 1.02846
 O157 O 0.49053 0.42162 0.99333
 O158 O 0.47075 0.44885 0.94655
 C159 C 0.53524 0.52341 0.92030
 C160 C 0.52544 0.57666 1.03383
 C161 C 0.42324 0.53400 0.97512
 C162 C 0.46648 0.47470 1.07733
 C163 C 0.57846 0.46404 1.02320
 C164 C 0.47596 0.42131 0.96372
 C165 C 1.23614 0.36845 0.41809
 C166 C 1.22767 0.40347 0.41526
 C167 C 1.24966 0.42586 0.39725
 C168 C 1.27989 0.41329 0.38180
 C169 C 1.28890 0.37782 0.38402
 C170 C 1.26636 0.35572 0.40277
 C171 C 1.19596 0.41632 0.43005
 C172 C 1.16921 0.42718 0.44187
 C173 C 1.13766 0.44011 0.45498
 C174 C 1.11054 0.45141 0.46547
 H175 H 1.21908 0.35079 0.43171
 H176 H 1.24346 0.45314 0.39511
 H177 H 1.29657 0.43194 0.36921
 H178 H 1.27087 0.32813 0.40439
 C179 C 0.25066 0.57460 0.89952
 C180 C 0.27279 0.59704 0.91732
 C181 C 0.26427 0.63205 0.92030
 C182 C 0.23391 0.64473 0.90524
 C183 C 0.21131 0.62257 0.88659
 C184 C 0.22031 0.58710 0.88435
 C185 C 0.30473 0.58425 0.93157
 C186 C 0.33168 0.57327 0.94279
 C187 C 0.36342 0.56006 0.95505
 C188 C 0.39067 0.54840 0.96470
 H189 H 0.25689 0.54732 0.89729
 H190 H 0.28143 0.64976 0.93377
 H191 H 0.22939 0.67230 0.90694
 H192 H 0.20356 0.56840 0.87191
 C193 C -0.25011 0.88260 0.06429
 C194 C -0.22633 0.90093 0.08455
 C195 C -0.23308 0.90668 0.11986
 C196 C -0.26341 0.89414 0.13500
 C197 C -0.28790 0.87536 0.11510
 C198 C -0.28053 0.86992 0.07930
 C199 C -0.19484 0.91382 0.06938
 C200 C -0.16819 0.92492 0.05758
 C201 C -0.13670 0.93833 0.04485
 C202 C -0.10960 0.95015 0.03498
 H203 H -0.24527 0.87827 0.03679
 H204 H -0.21466 0.92061 0.13589
 H205 H -0.26659 0.89805 0.16276
 H206 H -0.29867 0.85710 0.06218
 C207 C 0.73168 0.13336 0.58954
 C208 C 0.72706 0.09764 0.58560
 C209 C 0.75270 0.07479 0.59712
 C210 C 0.78281 0.08760 0.61265
 C211 C 0.78763 0.12348 0.61684
 C212 C 0.76174 0.14622 0.60503
 C213 C 0.69565 0.08446 0.57051
 C214 C 0.66909 0.07349 0.55836
 C215 C 0.63771 0.06058 0.54483
 C216 C 0.61069 0.04938 0.53402
 H217 H 0.71191 0.15127 0.58091
 H218 H 0.74938 0.04708 0.59421
 H219 H 0.80243 0.06948 0.62112
 H220 H 0.76448 0.17394 0.60833
 C221 C 0.37727 0.23452 0.40765
 C222 C 0.41227 0.22817 0.40159
 C223 C 0.43195 0.25236 0.38322
 C224 C 0.41671 0.28280 0.37084
 C225 C 0.38124 0.28981 0.37666
 C226 C 0.36189 0.26489 0.39541
 C227 C 0.42775 0.19667 0.41418
 C228 C 0.43999 0.17005 0.42497
 C229 C 0.45344 0.13861 0.43792
 C230 C 0.46411 0.11155 0.44927
 H231 H 0.36168 0.21577 0.42159
 H232 H 0.45920 0.24781 0.37861
 H233 H 0.43335 0.30124 0.35790
 H234 H 0.33441 0.26777 0.39956
 C235 C 0.87713 0.26662 0.59167
 C236 C 0.91209 0.27311 0.59774
 C237 C 0.93179 0.24913 0.61635
 C238 C 0.91659 0.21878 0.62901
 C239 C 0.88114 0.21168 0.62327
 C240 C 0.86179 0.23634 0.60419
 C241 C 0.92749 0.30458 0.58502
 C242 C 0.93969 0.33119 0.57416
 C243 C 0.95309 0.36263 0.56118
 C244 C 0.96376 0.38968 0.54982
 H245 H 0.86153 0.28520 0.57753
 H246 H 0.95902 0.25378 0.62096
 H247 H 0.93327 0.20051 0.64212
 H248 H 0.83432 0.23340 0.60004
 C249 C 0.12365 0.77030 -0.09813
 C250 C 0.08764 0.77313 -0.09666
 C251 C 0.06700 0.74526 -0.10721
 C252 C 0.08234 0.71469 -0.11924
 C253 C 0.11854 0.71162 -0.12081
 C254 C 0.13903 0.73979 -0.11011
 C255 C 0.07208 0.80464 -0.08416
 C256 C 0.05983 0.83129 -0.07340
 C257 C 0.04651 0.86278 -0.06039
 C258 C 0.03613 0.88988 -0.04881
 H259 H 0.13987 0.79174 -0.09009
 H260 H 0.03910 0.74714 -0.10608
 H261 H 0.06590 0.69332 -0.12695
 H262 H 0.16694 0.73840 -0.11147
 C263 C 0.62286 0.73196 1.09045
 C264 C 0.58765 0.72616 1.09574
 C265 C 0.56784 0.75093 1.11321
 C266 C 0.58319 0.78139 1.12550
 C267 C 0.61888 0.78782 1.12051
 C268 C 0.63835 0.76233 1.10260
 C269 C 0.57210 0.69461 1.08331
 C270 C 0.55989 0.66792 1.07261
 C271 C 0.54665 0.63637 1.05966
 C272 C 0.53635 0.60921 1.04815
 H273 H 0.63854 0.71275 1.07722
 H274 H 0.54043 0.74682 1.11721
 H275 H 0.56649 0.80029 1.13774
 H276 H 0.66597 0.76468 1.09918
 C277 C 0.36690 0.41120 1.23252
 C278 C 0.40255 0.41535 1.22809
 C279 C 0.42523 0.40446 1.25432
 C280 C 0.41234 0.38928 1.28477
 C281 C 0.37656 0.38480 1.28938
 C282 C 0.35396 0.39605 1.26295
 C283 C 0.41589 0.42981 1.19622
 C284 C 0.42715 0.44131 1.16928
 C285 C 0.44053 0.45396 1.13749
 C286 C 0.45220 0.46394 1.11012
 H287 H 0.34912 0.41933 1.21229
 H288 H 0.45287 0.40750 1.25114
 H289 H 0.43033 0.38116 1.30480
 H290 H 0.32633 0.39248 1.26549
 C291 C 0.63234 -0.09007 0.26471
 C292 C 0.59666 -0.08603 0.26891
 C293 C 0.57415 -0.09743 0.24273
 C294 C 0.58725 -0.11299 0.21252
 C295 C 0.62309 -0.11733 0.20815
 C296 C 0.64549 -0.10559 0.23455
 C297 C 0.58317 -0.07104 0.30050
 C298 C 0.57200 -0.05901 0.32725
 C299 C 0.55895 -0.04565 0.35890
 C300 C 0.54773 -0.03497 0.38621
 H301 H 0.64998 -0.08153 0.28490
 H302 H 0.54647 -0.09445 0.24573
 H303 H 0.56940 -0.12143 0.19250
 H304 H 0.67316 -0.10900 0.23216
 C305 C -0.10913 1.06617 -0.25471
 C306 C -0.09867 1.08678 -0.22656
 C307 C -0.10098 1.12286 -0.22893
 C308 C -0.11361 1.13833 -0.25929
 C309 C -0.12409 1.11788 -0.28779
 C310 C -0.12181 1.08160 -0.28514
 C311 C -0.08541 1.07117 -0.19521
 C312 C -0.07407 1.05895 -0.16865
 C313 C -0.06048 1.04572 -0.13719
 C314 C -0.04859 1.03541 -0.11005
 H315 H -0.10739 1.03821 -0.25319
 H316 H -0.09307 1.13906 -0.20726
 H317 H -0.11559 1.16628 -0.26030
 H318 H -0.12942 1.06522 -0.30677
 C319 C 1.07460 0.59583 0.75699
 C320 C 1.09722 0.58465 0.73079
 C321 C 1.13290 0.58846 0.73524
 C322 C 1.14594 0.60360 0.76565
 C323 C 1.12341 0.61517 0.79203
 C324 C 1.08759 0.61100 0.78742
 C325 C 1.08380 0.57022 0.69892
 C326 C 1.07256 0.55869 0.67199
 C327 C 1.05934 0.54588 0.64019
 C328 C 1.04794 0.53561 0.61281
 H329 H 1.04693 0.59303 0.75380
 H330 H 1.15062 0.58009 0.71503
 H331 H 1.17360 0.60694 0.76819
 H332 H 1.06965 0.61936 0.80742
 C333 C 0.76730 0.63438 0.58660
 C334 C 0.77227 0.59865 0.58304
 C335 C 0.74664 0.57571 0.59437
 C336 C 0.71627 0.58840 0.60948
 C337 C 0.71116 0.62426 0.61346
 C338 C 0.73695 0.64713 0.60168
 C339 C 0.80411 0.58549 0.56880
 C340 C 0.83097 0.57431 0.55753
 C341 C 0.86265 0.56094 0.54517
 C342 C 0.88987 0.54922 0.53543
 H343 H 0.78706 0.65237 0.57811
 H344 H 0.75022 0.54800 0.59176
 H345 H 0.69673 0.57018 0.61793
 H346 H 0.73400 0.67484 0.60482
 C347 C 0.73198 0.36594 1.08977
 C348 C 0.72753 0.40159 1.08509
 C349 C 0.75348 0.42455 1.09568
 C350 C 0.78368 0.41194 1.11111
 C351 C 0.78829 0.37615 1.11617
 C352 C 0.76215 0.35328 1.10518
 C353 C 0.69596 0.41465 1.07030
 C354 C 0.66930 0.42565 1.05845
 C355 C 0.63785 0.43869 1.04530
 C356 C 0.61081 0.45008 1.03478
 H357 H 0.71197 0.34796 1.08185
 H358 H 0.75029 0.45220 1.09217
 H359 H 0.80352 0.43014 1.11891
 H360 H 0.76476 0.32564 1.10913
 C361 C 0.23607 1.13178 -0.08216
 C362 C 0.22759 1.09675 -0.08502
 C363 C 0.24957 1.07434 -0.10308
 C364 C 0.27977 1.08688 -0.11855
 C365 C 0.28876 1.12236 -0.11634
 C366 C 0.26626 1.14449 -0.09752
 C367 C 0.19590 1.08393 -0.07024
 C368 C 0.16915 1.07306 -0.05844
 C369 C 0.13763 1.06009 -0.04537
 C370 C 0.11054 1.04873 -0.03490
 H371 H 0.21902 1.14945 -0.06850
 H372 H 0.24336 1.04705 -0.10523
 H373 H 0.29643 1.06821 -0.13117
 H374 H 0.27074 1.17207 -0.09586
 C375 C 0.26354 -0.13191 0.42014
 C376 C 0.27204 -0.09692 0.41689
 C377 C 0.24992 -0.07468 0.39888
 C378 C 0.21961 -0.08736 0.38374
 C379 C 0.21065 -0.12282 0.38623
 C380 C 0.23322 -0.14476 0.40512
 C381 C 0.30396 -0.08396 0.43106
 C382 C 0.33090 -0.07287 0.44222
 C383 C 0.36265 -0.05956 0.45439
 C384 C 0.38993 -0.04786 0.46397
 H385 H 0.28069 -0.14946 0.43378
 H386 H 0.25613 -0.04743 0.39644
 H387 H 0.20287 -0.06880 0.37112
 H388 H 0.22873 -0.17233 0.40703
 C389 C 0.59643 -0.25214 0.57174
 C390 C 0.58525 -0.22651 0.59500
 C391 C 0.58933 -0.23133 0.63093
 C392 C 0.60471 -0.26155 0.64359
 C393 C 0.61627 -0.28739 0.62042
 C394 C 0.61184 -0.28240 0.58434
 C395 C 0.57052 -0.19484 0.58197
 C396 C 0.55880 -0.16807 0.57099
 C397 C 0.54592 -0.13645 0.55792
 C398 C 0.53578 -0.10924 0.54645
 H399 H 0.59341 -0.24866 0.54386
 H400 H 0.58096 -0.21156 0.64916
 H401 H 0.60818 -0.26442 0.67147
 H402 H 0.62010 -0.30198 0.56589
 C403 C 1.12313 0.72953 0.40247
 C404 C 1.08712 0.72667 0.40384
 C405 C 1.06648 0.75438 0.39294
 C406 C 1.08180 0.78483 0.38067
 C407 C 1.11801 0.78794 0.37920
 C408 C 1.13850 0.75993 0.39024
 C409 C 1.07157 0.69526 0.41655
 C410 C 1.05934 0.66867 0.42745
 C411 C 1.04606 0.63724 0.44057
 C412 C 1.03572 0.61015 0.45216
 H413 H 1.13936 0.70821 0.41076
 H414 H 1.03857 0.75247 0.39399
 H415 H 1.06536 0.80609 0.37271
 H416 H 1.16641 0.76134 0.38897
 C417 C -0.12225 1.23268 0.09307
 C418 C -0.08725 1.22636 0.09907
 C419 C -0.06757 1.25057 0.11747
 C420 C -0.08282 1.28103 0.12989
 C421 C -0.11828 1.28802 0.12407
 C422 C -0.13763 1.26305 0.10535
 C423 C -0.07178 1.19490 0.08631
 C424 C -0.05962 1.16830 0.07531
 C425 C -0.04632 1.13690 0.06206
 C426 C -0.03577 1.10989 0.05043
 H427 H -0.13783 1.21391 0.07911
 H428 H -0.04032 1.24604 0.12203
 H429 H -0.06618 1.29950 0.14283
 H430 H -0.16512 1.26588 0.10122
 C431 C 0.43283 0.24503 0.89013
 C432 C 0.41214 0.27276 0.90100
 C433 C 0.37614 0.26992 0.89944
 C434 C 0.36083 0.23952 0.88712
 C435 C 0.38136 0.21146 0.87617
 C436 C 0.41756 0.21457 0.87776
 C437 C 0.42765 0.30413 0.91389
 C438 C 0.43993 0.33066 0.92491
 C439 C 0.45345 0.36200 0.93809
 C440 C 0.46419 0.38897 0.94962
 H441 H 0.46073 0.24692 0.89131
 H442 H 0.35988 0.29126 0.90770
 H443 H 0.33292 0.23810 0.88574
 H444 H 0.43402 0.19328 0.86986
 C445 C 0.59956 0.62306 0.76822
 C446 C 0.59817 0.58697 0.77093
 C447 C 0.60945 0.56636 0.74309
 C448 C 0.62204 0.58182 0.71263
 C449 C 0.62342 0.61812 0.70965
 C450 C 0.61209 0.63856 0.73783
 C451 C 0.58508 0.57132 0.80233
 C452 C 0.57393 0.55901 0.82894
 C453 C 0.56066 0.54558 0.86044
 C454 C 0.54915 0.53496 0.88763
 H455 H 0.59100 0.63926 0.78965
 H456 H 0.60842 0.53838 0.74488
 H457 H 0.63025 0.56542 0.69124
 H458 H 0.61332 0.66654 0.73655
 C459 C 0.42517 0.09578 0.75361
 C460 C 0.40251 0.08453 0.72750
 C461 C 0.36683 0.08831 0.73205
 C462 C 0.35385 0.10349 0.76248
 C463 C 0.37642 0.11513 0.78877
 C464 C 0.41224 0.11099 0.78405
 C465 C 0.41588 0.07011 0.69559
 C466 C 0.42716 0.05866 0.66862
 C467 C 0.44053 0.04607 0.63677
 C468 C 0.45217 0.03613 0.60936
 H469 H 0.45283 0.09301 0.75033
 H470 H 0.34907 0.07990 0.71191
 H471 H 0.32619 0.10681 0.76510
 H472 H 0.43021 0.11940 0.80398
 C473 C 0.13279 0.91008 0.23452
 C474 C 0.09714 0.91394 0.22995
 C475 C 0.07442 0.90284 0.25607
 C476 C 0.08728 0.88775 0.28656
 C477 C 0.12308 0.88359 0.29131
 C478 C 0.14571 0.89502 0.26499
 C479 C 0.08386 0.92847 0.19810
 C480 C 0.07274 0.94014 0.17119
 C481 C 0.05965 0.95314 0.13944
 C482 C 0.04832 0.96361 0.11213
 H483 H 0.15060 0.91839 0.21438
 H484 H 0.04676 0.90569 0.25278
 H485 H 0.06927 0.87949 0.30651
 H486 H 0.17336 0.89168 0.26764
 C487 C 0.92551 0.40364 0.24612
 C488 C 0.90275 0.41522 0.27202
 C489 C 0.86710 0.41137 0.26740
 C490 C 0.85423 0.39581 0.23713
 C491 C 0.87691 0.38384 0.21105
 C492 C 0.91270 0.38805 0.21583
 C493 C 0.91599 0.43004 0.30379
 C494 C 0.92715 0.44180 0.33066
 C495 C 0.94040 0.45469 0.36243
 C496 C 0.95197 0.46481 0.38979
 H497 H 0.95317 0.40646 0.24945
 H498 H 0.84926 0.42004 0.28737
 H499 H 0.82658 0.39250 0.23444
 H500 H 0.93076 0.37943 0.19605
   
