data_POSCAR
  _audit_creation_date              2014-09-24
  _audit_creation_method            'ToBaCCo'
  _symmetry_space_group_name_H-M    'P1'
  _symmetry_Int_Tables_number       1
  _symmetry_cell_setting            triclinic
  loop_
  _symmetry_equiv_pos_as_xyz
 x,y,z
_cell_length_a 49.8063
_cell_length_b 48.4863
_cell_length_c 49.6951
_cell_angle_alpha 89.866500
_cell_angle_beta 88.904400
_cell_angle_gamma 90.351800
loop_
  _atom_site_label
  _atom_site_type_symbol
  _atom_site_fract_x
  _atom_site_fract_y
  _atom_site_fract_z
C1 C 0.19866 1.23059 0.18975
 C2 C 0.18669 1.21650 0.21191
 C3 C 0.19764 1.19207 0.22260
 C4 C 0.22089 1.18132 0.20989
 C5 C 0.23293 1.19446 0.18754
 C6 C 0.22215 1.21922 0.17810
 H7 H 0.16734 1.22317 0.21938
 H8 H 0.23012 1.16280 0.21735
 H9 H 0.23291 1.22981 0.16203
 C10 C 0.80497 0.77567 0.19679
 C11 C 0.78200 0.78761 0.18533
 C12 C 0.76981 0.81108 0.19658
 C13 C 0.78058 0.82281 0.21980
 C14 C 0.80356 0.81178 0.23150
 C15 C 0.81539 0.78820 0.22008
 H16 H 0.77442 0.77999 0.16651
 H17 H 0.77099 0.84058 0.22887
 H18 H 0.83267 0.77965 0.22981
 C19 C 0.80863 1.22938 -0.19136
 C20 C 0.82042 1.21945 -0.21550
 C21 C 0.81016 1.19618 -0.22902
 C22 C 0.78682 1.18339 -0.21818
 C23 C 0.77466 1.19271 -0.19420
 C24 C 0.78561 1.21562 -0.18106
 H25 H 0.83665 1.23108 -0.22484
 H26 H 0.77854 1.16525 -0.22758
 H27 H 0.77703 1.22142 -0.16175
 C28 C 0.19049 0.77480 -0.19513
 C29 C 0.17878 0.78785 -0.21722
 C30 C 0.19139 0.81054 -0.23036
 C31 C 0.21620 0.81982 -0.22019
 C32 C 0.22786 0.80723 -0.19782
 C33 C 0.21514 0.78442 -0.18572
 H34 H 0.15923 0.78062 -0.22322
 H35 H 0.22733 0.83636 -0.22994
 H36 H 0.22376 0.77499 -0.16810
 C37 C 0.53959 1.03205 -0.01491
 H38 H 0.53777 1.03467 0.00667
 C39 C 0.55815 1.04789 -0.02971
 H40 H 0.57061 1.06272 -0.01941
 C41 C 0.52632 1.00865 -0.05436
 H42 H 0.51434 0.99289 -0.06380
 C43 C 0.54489 1.02378 -0.06988
 H44 H 0.54666 1.01994 -0.09129
 N45 N 0.52390 1.01313 -0.02740
 C46 C 0.46003 1.00051 0.03283
 H47 H 0.46088 0.97831 0.03480
 C48 C 0.44140 1.01544 0.04813
 H49 H 0.42825 1.00456 0.06218
 C50 C 0.47626 1.04150 0.01199
 H51 H 0.48937 1.05150 -0.00263
 C52 C 0.45785 1.05724 0.02683
 H53 H 0.45710 1.07929 0.02345
 Zn54 Zn 0.50056 0.99132 -0.00549
 N55 N 0.47714 1.01367 0.01537
 C56 C 0.52314 0.97370 0.04390
 N57 N 0.52274 0.96996 0.01679
 C58 C 0.53987 0.95221 0.00428
 C59 C 0.55831 0.93723 0.01911
 C60 C 0.54139 0.95923 0.05952
 C61 C 0.46328 0.98116 -0.04544
 C62 C 0.44607 0.96578 -0.06145
 C63 C 0.45987 0.92458 -0.03815
 C64 C 0.47719 0.94073 -0.02285
 N65 N 0.47868 0.96847 -0.02687
 H66 H 0.50993 0.98852 0.05337
 H67 H 0.53938 0.94996 -0.01736
 H68 H 0.57163 0.92308 0.00872
 H69 H 0.54193 0.96309 0.08095
 H70 H 0.46442 1.00333 -0.04778
 H71 H 0.43389 0.97622 -0.07610
 H72 H 0.45880 0.90253 -0.03473
 H73 H 0.48904 0.93114 -0.00748
 C74 C 0.44004 1.04422 0.04516
 C75 C 0.56105 1.04371 -0.05753
 C76 C 0.44415 0.93713 -0.05781
 C77 C 0.55947 0.94086 0.04711
 C78 C -0.01126 0.54699 1.03742
 H79 H 0.00920 0.55204 1.03151
 C80 C -0.02616 0.56540 1.05314
 H81 H -0.01703 0.58476 1.05891
 C82 C -0.04815 0.51594 1.03610
 H83 H -0.05653 0.49656 1.02943
 C84 C -0.06375 0.53370 1.05194
 H85 H -0.08407 0.52766 1.05751
 N86 N -0.02248 0.52295 1.02908
 C87 C 0.03971 0.46152 1.01551
 H88 H 0.03951 0.45952 0.99383
 C89 C 0.05663 0.44492 1.03053
 H90 H 0.06897 0.42992 1.02011
 C91 C 0.02262 0.48259 1.05516
 H92 H 0.00916 0.49716 1.06469
 C93 C 0.03958 0.46672 1.07097
 H94 H 0.03923 0.46970 1.09255
 Zn95 Zn -0.00149 0.49990 1.00665
 N96 N 0.02276 0.47952 1.02797
 C97 C 0.04559 0.52413 0.98331
 N98 N 0.01830 0.52305 0.98225
 C99 C 0.00474 0.54010 0.96559
 C100 C 0.01856 0.55884 0.94898
 C101 C 0.06020 0.54278 0.96724
 C102 C -0.02145 0.44736 0.99081
 C103 C -0.03765 0.42894 0.97684
 C104 C -0.06100 0.46764 0.95793
 C105 C -0.04428 0.48535 0.97224
 N106 N -0.02451 0.47509 0.98787
 H107 H 0.05613 0.51128 0.99731
 H108 H -0.01688 0.53989 0.96569
 H109 H 0.00724 0.57201 0.93580
 H110 H 0.08179 0.54384 0.96916
 H111 H -0.00653 0.43927 1.00406
 H112 H -0.03427 0.40701 0.97899
 H113 H -0.07664 0.47628 0.94572
 H114 H -0.04753 0.50727 0.97118
 C115 C 0.05664 0.44720 1.05874
 C116 C -0.05284 0.55893 1.06053
 C117 C -0.05762 0.43899 0.95993
 C118 C 0.04669 0.56064 0.94988
 C119 C 1.03674 -0.00512 0.54072
 H120 H 1.03564 0.01714 0.54129
 C121 C 1.05147 -0.01917 0.55994
 H122 H 1.06193 -0.00761 0.57518
 C123 C 1.02395 -0.04730 0.52044
 H124 H 1.01265 -0.05822 0.50545
 C125 C 1.03883 -0.06218 0.53905
 H126 H 1.03899 -0.08449 0.53817
 N127 N 1.02329 -0.01926 0.52155
 C128 C 1.01233 0.04105 0.45764
 H129 H 0.99065 0.04228 0.45752
 C130 C 1.02771 0.05631 0.43907
 H131 H 1.01773 0.06929 0.42464
 C132 C 1.05160 0.02158 0.47585
 H133 H 1.06078 0.00766 0.48991
 C134 C 1.06773 0.03623 0.45741
 H135 H 1.08932 0.03380 0.45772
 Zn136 Zn 1.00217 0.00226 0.49834
 N137 N 1.02442 0.02421 0.47560
 C138 C 0.98166 0.05242 0.52034
 N139 N 0.98007 0.02440 0.52076
 C140 C 0.96391 0.01093 0.53887
 C141 C 0.94846 0.02566 0.55753
 C142 C 0.96655 0.06800 0.53869
 C143 C 0.99404 -0.03709 0.45819
 C144 C 0.97960 -0.05285 0.43990
 C145 C 0.93862 -0.03305 0.45777
 C146 C 0.95384 -0.01783 0.47586
 N147 N 0.98104 -0.02016 0.47580
 H148 H 0.99518 0.06274 0.50630
 H149 H 0.96333 -0.01138 0.53899
 H150 H 0.93567 0.01450 0.57171
 H151 H 0.96858 0.09025 0.53852
 H152 H 1.01574 -0.03814 0.45821
 H153 H 0.99038 -0.06643 0.42630
 H154 H 0.91707 -0.03029 0.45767
 H155 H 0.94392 -0.00362 0.48941
 C156 C 1.05577 0.05377 0.43866
 C157 C 1.05256 -0.04806 0.55927
 C158 C 0.95148 -0.05078 0.43935
 C159 C 0.94986 0.05460 0.55780
 C160 C 0.16148 0.30200 1.15693
 C161 C 0.15655 0.29436 1.18376
 C162 C 0.16924 0.27143 1.19475
 C163 C 0.18687 0.25494 1.17901
 C164 C 0.19187 0.26327 1.15202
 C165 C 0.17951 0.28652 1.14129
 C166 C 0.14702 0.32540 1.14489
 C167 C 0.16102 0.34586 1.13025
 C168 C 0.14714 0.36728 1.11790
 C169 C 0.11890 0.36838 1.11947
 C170 C 0.10503 0.34789 1.13440
 C171 C 0.11896 0.32680 1.14715
 C172 C 0.10388 0.39008 1.10482
 C173 C 0.07943 0.40028 1.11523
 C174 C 0.06436 0.41907 1.10053
 C175 C 0.07353 0.42858 1.07520
 C176 C 0.09848 0.41920 1.06527
 C177 C 0.11332 0.40004 1.07974
 H178 H 0.14301 0.30634 1.19633
 H179 H 0.16550 0.26734 1.21588
 H180 H 0.20420 0.25127 1.13835
 H181 H 0.18330 0.29183 1.12037
 H182 H 0.18272 0.34530 1.12847
 H183 H 0.15859 0.38295 1.10711
 H184 H 0.08331 0.34760 1.13563
 H185 H 0.10773 0.31103 1.15808
 H186 H 0.07173 0.39357 1.13469
 H187 H 0.04515 0.42550 1.10879
 H188 H 0.10653 0.42644 1.04612
 H189 H 0.13186 0.39252 1.07085
 C190 C -0.15692 0.70627 1.16001
 C191 C -0.14239 0.72419 1.17643
 C192 C -0.15482 0.74685 1.18856
 C193 C -0.18239 0.75228 1.18481
 C194 C -0.19685 0.73378 1.16843
 C195 C -0.18427 0.71125 1.15618
 C196 C -0.14332 0.68283 1.14645
 C197 C -0.14790 0.67724 1.11920
 C198 C -0.13407 0.65605 1.10603
 C199 C -0.11548 0.63984 1.11987
 C200 C -0.11138 0.64509 1.14732
 C201 C -0.12507 0.66641 1.16042
 C202 C -0.09983 0.61816 1.10552
 C203 C -0.07261 0.61400 1.11124
 C204 C -0.05755 0.59446 1.09703
 C205 C -0.06926 0.57868 1.07660
 C206 C -0.09659 0.58253 1.07115
 C207 C -0.11170 0.60198 1.08547
 H208 H -0.12110 0.72116 1.17928
 H209 H -0.14212 0.76066 1.19973
 H210 H -0.21821 0.73587 1.16561
 H211 H -0.19606 0.69743 1.14396
 H212 H -0.16161 0.68980 1.10785
 H213 H -0.13739 0.65289 1.08479
 H214 H -0.09761 0.63268 1.15871
 H215 H -0.12145 0.67003 1.18154
 H216 H -0.06272 0.62630 1.12632
 H217 H -0.03667 0.59175 1.10203
 H218 H -0.10619 0.57094 1.05537
 H219 H -0.13270 0.60439 1.08080
 C220 C -0.15681 0.29678 0.85122
 C221 C -0.18440 0.29104 0.85362
 C222 C -0.19582 0.26910 0.83956
 C223 C -0.17999 0.25217 0.82250
 C224 C -0.15227 0.25840 0.82004
 C225 C -0.14093 0.28026 0.83420
 C226 C -0.14443 0.31950 0.86683
 C227 C -0.12392 0.33597 0.85528
 C228 C -0.11132 0.35640 0.87037
 C229 C -0.11896 0.36091 0.89737
 C230 C -0.13986 0.34483 0.90876
 C231 C -0.15244 0.32436 0.89367
 C232 C -0.10452 0.38160 0.91381
 C233 C -0.09817 0.37576 0.94066
 C234 C -0.08341 0.39457 0.95575
 C235 C -0.07457 0.41967 0.94435
 C236 C -0.08136 0.42577 0.91767
 C237 C -0.09617 0.40696 0.90258
 H238 H -0.19730 0.30377 0.86616
 H239 H -0.21732 0.26623 0.84150
 H240 H -0.13876 0.24563 0.80828
 H241 H -0.11947 0.28372 0.83239
 H242 H -0.11752 0.33300 0.83455
 H243 H -0.09511 0.36821 0.86107
 H244 H -0.14644 0.34802 0.92940
 H245 H -0.16800 0.31188 0.90325
 H246 H -0.10404 0.35631 0.94984
 H247 H -0.07885 0.38941 0.97637
 H248 H -0.07467 0.44481 0.90822
 H249 H -0.10102 0.41223 0.88206
 C250 C 0.14895 0.70920 0.84704
 C251 C 0.13552 0.73360 0.84039
 C252 C 0.14896 0.75473 0.82644
 C253 C 0.17618 0.75201 0.81909
 C254 C 0.18966 0.72765 0.82578
 C255 C 0.17611 0.70633 0.83946
 C256 C 0.13463 0.68698 0.86209
 C257 C 0.13681 0.65936 0.85396
 C258 C 0.12264 0.63858 0.86782
 C259 C 0.10620 0.64497 0.89027
 C260 C 0.10447 0.67262 0.89860
 C261 C 0.11839 0.69338 0.88459
 C262 C 0.09078 0.62303 0.90490
 C263 C 0.06496 0.62840 0.91547
 C264 C 0.05068 0.60816 0.92987
 C265 C 0.06169 0.58185 0.93383
 C266 C 0.08735 0.57631 0.92289
 C267 C 0.10175 0.59667 0.90868
 H268 H 0.11453 0.73623 0.84582
 H269 H 0.13819 0.77343 0.82177
 H270 H 0.21064 0.72507 0.82024
 H271 H 0.18695 0.68780 0.84452
 H272 H 0.14900 0.65393 0.83652
 H273 H 0.12415 0.61758 0.86060
 H274 H 0.09254 0.67824 0.91616
 H275 H 0.11671 0.71448 0.89153
 H276 H 0.05567 0.64828 0.91258
 H277 H 0.03118 0.61336 0.93832
 H278 H 0.09632 0.55619 0.92526
 H279 H 0.12168 0.59188 0.90106
 C280 C 1.15925 0.15116 0.28942
 C281 C 1.15600 0.17958 0.28535
 C282 C 1.16878 0.19300 0.26370
 C283 C 1.18512 0.17841 0.24506
 C284 C 1.18840 0.14981 0.24953
 C285 C 1.17576 0.13651 0.27135
 C286 C 1.14513 0.13678 0.31217
 C287 C 1.13475 0.10998 0.30888
 C288 C 1.12117 0.09660 0.33007
 C289 C 1.11740 0.10980 0.35496
 C290 C 1.12773 0.13655 0.35835
 C291 C 1.14158 0.14984 0.33724
 C292 C 1.10235 0.09580 0.37714
 C293 C 1.08237 0.10989 0.39185
 C294 C 1.06738 0.09633 0.41200
 C295 C 1.07232 0.06852 0.41805
 C296 C 1.09266 0.05460 0.40370
 C297 C 1.10742 0.06806 0.38334
 H298 H 1.14329 0.19154 0.29877
 H299 H 1.16627 0.21509 0.26233
 H300 H 1.19975 0.13702 0.23571
 H301 H 1.17896 0.11461 0.27400
 H302 H 1.13662 0.09949 0.28973
 H303 H 1.11306 0.07613 0.32682
 H304 H 1.12536 0.14705 0.37745
 H305 H 1.14972 0.17025 0.34067
 H306 H 1.07793 0.13123 0.38734
 H307 H 1.05191 0.10756 0.42288
 H308 H 1.09672 0.03309 0.40780
 H309 H 1.12285 0.05680 0.37243
 C310 C 1.15353 -0.14868 0.70410
 C311 C 1.17314 -0.13512 0.71917
 C312 C 1.18560 -0.14842 0.74050
 C313 C 1.17918 -0.17605 0.74741
 C314 C 1.15987 -0.18970 0.73160
 C315 C 1.14718 -0.17619 0.71052
 C316 C 1.13936 -0.13400 0.68220
 C317 C 1.13148 -0.14802 0.65886
 C318 C 1.11747 -0.13434 0.63873
 C319 C 1.11125 -0.10620 0.64127
 C320 C 1.11953 -0.09210 0.66441
 C321 C 1.13319 -0.10585 0.68468
 C322 C 1.09597 -0.09161 0.62010
 C323 C 1.07752 -0.07086 0.62716
 C324 C 1.06354 -0.05674 0.60738
 C325 C 1.06733 -0.06329 0.58009
 C326 C 1.08534 -0.08429 0.57292
 C327 C 1.09967 -0.09818 0.59269
 H328 H 1.17887 -0.11403 0.71461
 H329 H 1.19940 -0.13620 0.75209
 H330 H 1.15475 -0.21116 0.73473
 H331 H 1.13206 -0.18732 0.69948
 H332 H 1.13622 -0.16959 0.65602
 H333 H 1.11118 -0.14598 0.62137
 H334 H 1.11556 -0.07033 0.66691
 H335 H 1.13852 -0.09442 0.70249
 H336 H 1.07359 -0.06568 0.64803
 H337 H 1.04944 -0.04089 0.61343
 H338 H 1.08873 -0.08955 0.55196
 H339 H 1.11399 -0.11370 0.58643
 C340 C 0.84289 -0.14771 0.29733
 C341 C 0.83095 -0.13227 0.27683
 C342 C 0.81778 -0.14542 0.25583
 C343 C 0.81601 -0.17435 0.25489
 C344 C 0.82724 -0.18978 0.27581
 C345 C 0.84060 -0.17662 0.29674
 C346 C 0.85842 -0.13372 0.31869
 C347 C 0.85763 -0.14350 0.34536
 C348 C 0.87276 -0.13058 0.36519
 C349 C 0.88895 -0.10751 0.35884
 C350 C 0.88953 -0.09763 0.33222
 C351 C 0.87457 -0.11062 0.31240
 C352 C 0.90523 -0.09377 0.37978
 C353 C 0.93099 -0.08337 0.37339
 C354 C 0.94600 -0.06966 0.39273
 C355 C 0.93576 -0.06618 0.41906
 C356 C 0.91018 -0.07698 0.42559
 C357 C 0.89507 -0.09055 0.40617
 H358 H 0.83191 -0.10996 0.27690
 H359 H 0.80960 -0.13290 0.23993
 H360 H 0.82588 -0.21207 0.27592
 H361 H 0.84973 -0.18917 0.31207
 H362 H 0.84520 -0.16106 0.35096
 H363 H 0.87204 -0.13890 0.38543
 H364 H 0.90144 -0.07967 0.32669
 H365 H 0.87598 -0.10276 0.29201
 H366 H 0.93962 -0.08585 0.35339
 H367 H 0.96546 -0.06131 0.38686
 H368 H 0.90181 -0.07498 0.44575
 H369 H 0.87521 -0.09808 0.41172
 C370 C 0.85100 0.16093 0.70318
 C371 C 0.86489 0.17724 0.72164
 C372 C 0.85143 0.18929 0.74349
 C373 C 0.82348 0.18541 0.74769
 C374 C 0.80959 0.16963 0.72844
 C375 C 0.82315 0.15761 0.70659
 C376 C 0.86573 0.14652 0.68112
 C377 C 0.85491 0.14454 0.65526
 C378 C 0.86851 0.13013 0.63486
 C379 C 0.89315 0.11731 0.63992
 C380 C 0.90408 0.11960 0.66569
 C381 C 0.89053 0.13400 0.68603
 C382 C 0.90727 0.10119 0.61865
 C383 C 0.91958 0.07607 0.62505
 C384 C 0.93322 0.06097 0.60527
 C385 C 0.93486 0.07056 0.57858
 C386 C 0.92243 0.09561 0.57211
 C387 C 0.90872 0.11074 0.59193
 H388 H 0.88636 0.18042 0.71941
 H389 H 0.86354 0.20035 0.75776
 H390 H 0.78805 0.16684 0.72966
 H391 H 0.81185 0.14515 0.69268
 H392 H 0.83595 0.15418 0.65079
 H393 H 0.85948 0.12856 0.61527
 H394 H 0.92319 0.11026 0.67012
 H395 H 0.89926 0.13485 0.70580
 H396 H 0.91853 0.06798 0.64537
 H397 H 0.94286 0.04194 0.61100
 H398 H 0.92316 0.10343 0.55168
 H399 H 0.89961 0.13012 0.58643
 C400 C 0.29844 1.15436 0.14555
 C401 C 0.29768 1.15530 0.17383
 C402 C 0.27682 1.16884 0.18753
 C403 C 0.25622 1.18168 0.17324
 C404 C 0.25736 1.18125 0.14496
 C405 C 0.27823 1.16783 0.13129
 C406 C 0.31969 1.13866 0.13092
 C407 C 0.31329 1.12293 0.10816
 C408 C 0.33304 1.10783 0.09452
 C409 C 0.35968 1.10793 0.10333
 C410 C 0.36615 1.12373 0.12603
 C411 C 0.34637 1.13891 0.13968
 C412 C 0.38051 1.09148 0.08891
 C413 C 0.40662 1.10202 0.08473
 C414 C 0.42598 1.08667 0.07070
 C415 C 0.41968 1.06042 0.06053
 C416 C 0.39362 1.04984 0.06488
 C417 C 0.37430 1.06515 0.07894
 H418 H 0.31283 1.14497 0.18542
 H419 H 0.27672 1.16910 0.20931
 H420 H 0.24169 1.19071 0.13335
 H421 H 0.27845 1.16788 0.10950
 H422 H 0.29289 1.12196 0.10109
 H423 H 0.32744 1.09619 0.07690
 H424 H 0.38643 1.12405 0.13349
 H425 H 0.35201 1.15101 0.15699
 H426 H 0.41198 1.12234 0.09194
 H427 H 0.44595 1.09529 0.06795
 H428 H 0.38797 1.02986 0.05704
 H429 H 0.35450 1.05626 0.08212
 C430 C 0.70805 1.14854 -0.15697
 C431 C 0.70900 1.17754 -0.15659
 C432 C 0.73031 1.19186 -0.16904
 C433 C 0.75135 1.17754 -0.18196
 C434 C 0.75031 1.14856 -0.18247
 C435 C 0.72887 1.13428 -0.17031
 C436 C 0.68578 1.13319 -0.14309
 C437 C 0.69077 1.10808 -0.12990
 C438 C 0.66997 1.09361 -0.11684
 C439 C 0.64375 1.10406 -0.11636
 C440 C 0.63868 1.12919 -0.12933
 C441 C 0.65943 1.14353 -0.14270
 C442 C 0.62188 1.08883 -0.10207
 C443 C 0.60431 1.10263 -0.08431
 C444 C 0.58443 1.08800 -0.06994
 C445 C 0.58152 1.05940 -0.07337
 C446 C 0.59875 1.04571 -0.09154
 C447 C 0.61886 1.06025 -0.10562
 H448 H 0.69352 1.18924 -0.14624
 H449 H 0.73033 1.21418 -0.16850
 H450 H 0.76635 1.13680 -0.19182
 H451 H 0.72863 1.11198 -0.17141
 H452 H 0.71087 1.09977 -0.12923
 H453 H 0.67447 1.07447 -0.10664
 H454 H 0.61856 1.13754 -0.12944
 H455 H 0.65474 1.16254 -0.15301
 H456 H 0.60635 1.12462 -0.08110
 H457 H 0.57128 1.09904 -0.05616
 H458 H 0.59706 1.02363 -0.09438
 H459 H 0.63205 1.04919 -0.11934
 C460 C 0.29850 0.84172 -0.16175
 C461 C 0.27718 0.85871 -0.16952
 C462 C 0.25459 0.84749 -0.18170
 C463 C 0.25258 0.81899 -0.18614
 C464 C 0.27380 0.80191 -0.17848
 C465 C 0.29660 0.81318 -0.16656
 C466 C 0.32219 0.85379 -0.14810
 C467 C 0.33477 0.83953 -0.12719
 C468 C 0.35607 0.85158 -0.11343
 C469 C 0.36517 0.87831 -0.12006
 C470 C 0.35289 0.89234 -0.14130
 C471 C 0.33183 0.88018 -0.15524
 C472 C 0.38667 0.89198 -0.10435
 C473 C 0.40509 0.91020 -0.11696
 C474 C 0.42399 0.92455 -0.10190
 C475 C 0.42520 0.92070 -0.07395
 C476 C 0.40746 0.90188 -0.06139
 C477 C 0.38828 0.88781 -0.07638
 H478 H 0.27760 0.88065 -0.16560
 H479 H 0.23830 0.86105 -0.18699
 H480 H 0.27280 0.77988 -0.18188
 H481 H 0.31279 0.79953 -0.16123
 H482 H 0.32774 0.81930 -0.12093
 H483 H 0.36530 0.83996 -0.09748
 H484 H 0.35906 0.91308 -0.14680
 H485 H 0.32299 0.89160 -0.17155
 H486 H 0.40489 0.91348 -0.13851
 H487 H 0.43771 0.93871 -0.11208
 H488 H 0.40782 0.89879 -0.03980
 H489 H 0.37418 0.87434 -0.06587
 C490 C 0.70399 0.84932 0.15567
 C491 C 0.70534 0.82046 0.15798
 C492 C 0.72641 0.80804 0.17161
 C493 C 0.74666 0.82421 0.18320
 C494 C 0.74507 0.85308 0.18123
 C495 C 0.72397 0.86547 0.16771
 C496 C 0.68230 0.86257 0.14017
 C497 C 0.68800 0.88557 0.12372
 C498 C 0.66782 0.89792 0.10885
 C499 C 0.64142 0.88750 0.10991
 C500 C 0.63565 0.86456 0.12643
 C501 C 0.65586 0.85223 0.14140
 C502 C 0.62013 0.90051 0.09369
 C503 C 0.59396 0.90375 0.10427
 C504 C 0.57419 0.91658 0.08912
 C505 C 0.58015 0.92647 0.06305
 C506 C 0.60627 0.92300 0.05242
 C507 C 0.62597 0.91012 0.06751
 H508 H 0.69043 0.80741 0.14873
 H509 H 0.72690 0.78576 0.17303
 H510 H 0.76048 0.86614 0.18964
 H511 H 0.72333 0.88776 0.16665
 H512 H 0.70821 0.89384 0.12202
 H513 H 0.67289 0.91579 0.09664
 H514 H 0.61558 0.85587 0.12751
 H515 H 0.65074 0.83472 0.15408
 H516 H 0.58887 0.89680 0.12446
 H517 H 0.55420 0.91867 0.09780
 H518 H 0.61167 0.93069 0.03256
 H519 H 0.64581 0.90761 0.05859
   
