data_POSCAR
  _audit_creation_date              2014-09-24
  _audit_creation_method            'ToBaCCo'
  _symmetry_space_group_name_H-M    'P1'
  _symmetry_Int_Tables_number       1
  _symmetry_cell_setting            triclinic
  loop_
  _symmetry_equiv_pos_as_xyz
 x,y,z
_cell_length_a 36.4694
_cell_length_b 38.1241
_cell_length_c 37.5179
_cell_angle_alpha 85.404200
_cell_angle_beta 96.034700
_cell_angle_gamma 95.148000
loop_
  _atom_site_label
  _atom_site_type_symbol
  _atom_site_fract_x
  _atom_site_fract_y
  _atom_site_fract_z
C1 C 0.21558 0.27876 0.28152
 C2 C 0.24119 0.29952 0.25602
 C3 C 0.26040 0.27895 0.23796
 C4 C 0.25260 0.23921 0.24701
 C5 C 0.19122 0.25269 0.25803
 C6 C 0.21041 0.23232 0.23955
 C7 C 0.24090 0.25492 0.30604
 C8 C 0.26041 0.23461 0.28804
 H9 H 0.24354 0.32808 0.25234
 H10 H 0.26902 0.22288 0.23252
 H11 H 0.16138 0.24950 0.25741
 H12 H 0.24273 0.25328 0.33509
 C13 C 0.70478 0.77740 0.27766
 C14 C 0.73205 0.80033 0.25559
 C15 C 0.75328 0.78198 0.23712
 C16 C 0.74575 0.74164 0.24320
 C17 C 0.68266 0.75324 0.25061
 C18 C 0.70408 0.73469 0.23265
 C19 C 0.72872 0.75230 0.30196
 C20 C 0.75027 0.73356 0.28425
 H21 H 0.73388 0.82888 0.25463
 H22 H 0.76251 0.72622 0.22813
 H23 H 0.65289 0.74851 0.24770
 H24 H 0.72851 0.74983 0.33089
 C25 C 0.73043 0.29279 0.77655
 C26 C 0.75777 0.31345 0.75625
 C27 C 0.77891 0.29319 0.73642
 C28 C 0.76776 0.25531 0.74047
 C29 C 0.70638 0.27185 0.74805
 C30 C 0.72579 0.25193 0.72929
 C31 C 0.75180 0.26505 0.79986
 C32 C 0.77138 0.24538 0.78115
 H33 H 0.75665 0.34155 0.75032
 H34 H 0.78310 0.23818 0.72602
 H35 H 0.67664 0.27250 0.74344
 H36 H 0.75181 0.26180 0.82882
 C37 C 0.22295 0.78518 0.78351
 C38 C 0.25236 0.80801 0.76354
 C39 C 0.27333 0.78949 0.74498
 C40 C 0.26253 0.74952 0.74749
 C41 C 0.20040 0.76493 0.75364
 C42 C 0.22095 0.74604 0.73507
 C43 C 0.24439 0.75727 0.80655
 C44 C 0.26516 0.73864 0.78792
 H45 H 0.25404 0.83652 0.76085
 H46 H 0.27905 0.73411 0.73215
 H47 H 0.17069 0.76521 0.74797
 H48 H 0.24400 0.75358 0.83544
 C49 C 0.03657 0.05170 0.01225
 H50 H 0.02278 0.06209 -0.01277
 C51 C 0.05823 0.07461 0.03462
 H52 H 0.06106 0.10253 0.02647
 C53 C 0.04995 0.00270 0.05306
 H54 H 0.04610 -0.02536 0.06017
 C55 C 0.07195 0.02469 0.07625
 H56 H 0.08482 0.01338 0.10136
 N57 N 0.03247 0.01655 0.02199
 C58 C 0.00969 -0.06199 -0.05786
 H59 H -0.02017 -0.06328 -0.06255
 C60 C 0.02957 -0.08211 -0.07736
 H61 H 0.01475 -0.09855 -0.09726
 C62 C 0.06517 -0.03805 -0.02704
 H63 H 0.07900 -0.02082 -0.00743
 C64 C 0.08612 -0.05785 -0.04577
 H65 H 0.11590 -0.05593 -0.03990
 Zn66 Zn -0.00003 -0.01336 -0.00706
 N67 N 0.02764 -0.04050 -0.03323
 C68 C -0.02916 0.01729 -0.07520
 N69 N -0.03102 0.01530 -0.03903
 C70 C -0.05392 0.03511 -0.02431
 C71 C -0.07619 0.05777 -0.04600
 C72 C -0.05113 0.03960 -0.09798
 C73 C -0.03537 -0.07874 0.02004
 C74 C -0.05770 -0.10000 0.04263
 C75 C -0.06642 -0.04842 0.07315
 C76 C -0.04382 -0.02824 0.05018
 N77 N -0.02944 -0.04337 0.02369
 H78 H -0.01019 0.00213 -0.08651
 H79 H -0.05434 0.03411 0.00442
 H80 H -0.09344 0.07387 -0.03344
 H81 H -0.04941 0.04065 -0.12669
 H82 H -0.02307 -0.09062 -0.00046
 H83 H -0.06279 -0.12794 0.03886
 H84 H -0.07761 -0.03582 0.09402
 H85 H -0.03735 -0.00049 0.05386
 C86 C 0.06836 -0.08023 -0.07141
 C87 C 0.07586 0.06125 0.06733
 C88 C -0.07394 -0.08472 0.06928
 C89 C -0.07506 0.06027 -0.08339
 C90 C 0.06332 0.56094 0.50077
 H91 H 0.05723 0.56657 0.47214
 C92 C 0.08581 0.58517 0.52104
 H93 H 0.09728 0.60938 0.50784
 C94 C 0.05483 0.52299 0.55299
 H95 H 0.04209 0.49909 0.56545
 C96 C 0.07758 0.54625 0.57419
 H97 H 0.08206 0.54009 0.60292
 N98 N 0.04802 0.53077 0.51701
 C99 C 0.02008 0.44924 0.44142
 H100 H -0.00937 0.44424 0.44319
 C101 C 0.03801 0.42878 0.42049
 H102 H 0.02215 0.40783 0.40641
 C103 C 0.07664 0.48191 0.45877
 H104 H 0.09161 0.50252 0.47388
 C105 C 0.09567 0.46213 0.43816
 H106 H 0.12515 0.46814 0.43723
 Zn107 Zn 0.01406 0.50145 0.48865
 N108 N 0.03950 0.47528 0.45988
 C109 C -0.02517 0.52805 0.42357
 N110 N -0.01782 0.53113 0.45956
 C111 C -0.03307 0.55584 0.47621
 C112 C -0.05828 0.57742 0.45700
 C113 C -0.05007 0.54936 0.40320
 C114 C 0.00197 0.44098 0.53610
 C115 C -0.01750 0.41800 0.55982
 C116 C -0.06927 0.45393 0.54740
 C117 C -0.04919 0.47573 0.52351
 N118 N -0.01391 0.46948 0.51888
 H119 H -0.01223 0.50875 0.41066
 H120 H -0.02615 0.55826 0.50472
 H121 H -0.07055 0.59659 0.47085
 H122 H -0.05644 0.54598 0.37478
 H123 H 0.02997 0.43643 0.53178
 H124 H -0.00442 0.39577 0.57390
 H125 H -0.09705 0.45970 0.55136
 H126 H -0.06178 0.49794 0.50922
 C127 C 0.07635 0.43509 0.41870
 C128 C 0.09288 0.57804 0.55829
 C129 C -0.05330 0.42491 0.56610
 C130 C -0.06745 0.57397 0.42011
 C131 C 0.58310 0.03039 0.52356
 H132 H 0.59570 0.01269 0.50830
 C133 C 0.60538 0.05568 0.54284
 H134 H 0.63512 0.05724 0.54231
 C135 C 0.52907 0.05082 0.54203
 H136 H 0.49923 0.04874 0.54147
 C137 C 0.55016 0.07649 0.56140
 H138 H 0.53633 0.09382 0.57612
 N139 N 0.54567 0.02836 0.52373
 C140 C 0.52996 -0.02793 0.43262
 H141 H 0.50958 -0.01072 0.42019
 C142 C 0.54729 -0.04830 0.41120
 H143 H 0.54055 -0.04597 0.38235
 C144 C 0.56314 -0.05220 0.48519
 H145 H 0.56869 -0.05385 0.51415
 C146 C 0.58122 -0.07304 0.46474
 H147 H 0.60062 -0.09086 0.47817
 Zn148 Zn 0.51286 -0.00377 0.49758
 N149 N 0.53821 -0.03010 0.46889
 C150 C 0.49534 0.05130 0.44757
 N151 N 0.47957 0.02412 0.46799
 C152 C 0.44218 0.01889 0.46824
 C153 C 0.41912 0.04118 0.44682
 C154 C 0.47336 0.07454 0.42626
 C155 C 0.49763 -0.03437 0.56590
 C156 C 0.47828 -0.05594 0.59057
 C157 C 0.43968 -0.08102 0.54114
 C158 C 0.46030 -0.05936 0.51734
 N159 N 0.48770 -0.03564 0.53004
 H160 H 0.52515 0.05513 0.44822
 H161 H 0.43007 -0.00212 0.48535
 H162 H 0.38942 0.03696 0.44748
 H163 H 0.48635 0.09616 0.41030
 H164 H 0.52047 -0.01644 0.57554
 H165 H 0.48673 -0.05430 0.61897
 H166 H 0.41666 -0.09823 0.53038
 H167 H 0.45362 -0.06059 0.48865
 C168 C 0.57320 -0.07134 0.42721
 C169 C 0.58883 0.07926 0.56190
 C170 C 0.44808 -0.07895 0.57841
 C171 C 0.43477 0.06956 0.42576
 C172 C 0.54908 0.53938 0.00800
 H173 H 0.54685 0.54377 -0.02096
 C174 C 0.57056 0.56351 0.02923
 H175 H 0.58501 0.58647 0.01655
 C176 C 0.53229 0.50458 0.05990
 H177 H 0.51656 0.48230 0.07196
 C178 C 0.55407 0.52763 0.08209
 H179 H 0.55512 0.52264 0.11100
 N180 N 0.53057 0.51052 0.02352
 C181 C 0.51457 0.43420 -0.05884
 H182 H 0.48471 0.43015 -0.06258
 C183 C 0.53604 0.41643 -0.07912
 H184 H 0.52239 0.39915 -0.09886
 C185 C 0.56844 0.46220 -0.02893
 H186 H 0.58101 0.47968 -0.00900
 C187 C 0.59094 0.44488 -0.04846
 H188 H 0.62070 0.44922 -0.04317
 Zn189 Zn 0.50074 0.48054 -0.00800
 N190 N 0.53098 0.45695 -0.03472
 C191 C 0.47006 0.51250 -0.07496
 N192 N 0.47001 0.51009 -0.03858
 C193 C 0.44898 0.53033 -0.02211
 C194 C 0.42638 0.55377 -0.04232
 C195 C 0.44780 0.53565 -0.09626
 C196 C 0.48826 0.42375 0.04342
 C197 C 0.46733 0.40067 0.06571
 C198 C 0.41175 0.42103 0.03279
 C199 C 0.43372 0.44434 0.01174
 N200 N 0.47126 0.44607 0.01810
 H201 H 0.48754 0.49676 -0.08753
 H202 H 0.45002 0.52836 0.00690
 H203 H 0.41030 0.56998 -0.02856
 H204 H 0.44788 0.53696 -0.12519
 H205 H 0.51815 0.42493 0.04726
 H206 H 0.48112 0.38419 0.08692
 H207 H 0.38190 0.42072 0.02827
 H208 H 0.42068 0.46146 -0.00924
 C209 C 0.57482 0.42183 -0.07420
 C210 C 0.57333 0.55756 0.06673
 C211 C 0.42863 0.39962 0.06075
 C212 C 0.42553 0.55666 -0.07995
 C213 C 0.15491 -0.16090 -0.15250
 C214 C 0.18862 -0.14397 -0.16299
 C215 C 0.21080 -0.16143 -0.18307
 C216 C 0.19955 -0.19547 -0.19420
 C217 C 0.16677 -0.21262 -0.18245
 C218 C 0.14464 -0.19563 -0.16218
 C219 C 0.13190 -0.14108 -0.13135
 C220 C 0.09785 -0.15541 -0.11963
 C221 C 0.07742 -0.13572 -0.10020
 C222 C 0.09022 -0.10119 -0.09200
 C223 C 0.12408 -0.08671 -0.10359
 C224 C 0.14494 -0.10631 -0.12296
 C225 C 0.20009 -0.10964 -0.15345
 C226 C 0.17868 -0.09118 -0.13398
 H227 H 0.22597 -0.09668 -0.16140
 H228 H 0.18872 -0.06460 -0.12748
 H229 H 0.23706 -0.14828 -0.18938
 H230 H 0.15811 -0.23944 -0.18907
 H231 H 0.05166 -0.14779 -0.09118
 H232 H 0.13406 -0.05988 -0.09798
 H233 H 0.11966 -0.21020 -0.15441
 H234 H 0.08650 -0.18174 -0.12509
 C235 C 0.15437 0.34845 0.33579
 C236 C 0.18891 0.33781 0.35169
 C237 C 0.20874 0.31582 0.33390
 C238 C 0.19433 0.30309 0.30067
 C239 C 0.16108 0.31549 0.28412
 C240 C 0.14121 0.33750 0.30147
 C241 C 0.13362 0.37120 0.35614
 C242 C 0.09855 0.38239 0.34320
 C243 C 0.08018 0.40317 0.36342
 C244 C 0.09617 0.41333 0.39708
 C245 C 0.13110 0.40234 0.41018
 C246 C 0.14981 0.38142 0.39010
 C247 C 0.20351 0.34911 0.38527
 C248 C 0.18441 0.37047 0.40404
 H249 H 0.23006 0.34113 0.39737
 H250 H 0.19683 0.37834 0.43001
 H251 H 0.23561 0.30893 0.34609
 H252 H 0.15027 0.30830 0.25749
 H253 H 0.05345 0.41160 0.35249
 H254 H 0.14349 0.40950 0.43642
 H255 H 0.11572 0.34570 0.28742
 H256 H 0.08471 0.37533 0.31764
 C257 C 0.64437 -0.15815 0.33873
 C258 C 0.68249 -0.16196 0.34782
 C259 C 0.70139 -0.18261 0.32765
 C260 C 0.68296 -0.20031 0.29857
 C261 C 0.64536 -0.19530 0.28891
 C262 C 0.62633 -0.17477 0.30875
 C263 C 0.62508 -0.13616 0.36118
 C264 C 0.58705 -0.13127 0.35477
 C265 C 0.57043 -0.11037 0.37628
 C266 C 0.59115 -0.09385 0.40482
 C267 C 0.62896 -0.09884 0.41171
 C268 C 0.64601 -0.11979 0.39019
 C269 C 0.70161 -0.14509 0.37690
 C270 C 0.68378 -0.12439 0.39757
 H271 H 0.73086 -0.14792 0.38380
 H272 H 0.69983 -0.11188 0.41977
 H273 H 0.73071 -0.18503 0.33466
 H274 H 0.63026 -0.20651 0.26567
 H275 H 0.54106 -0.10747 0.37078
 H276 H 0.64529 -0.08596 0.43353
 H277 H 0.59757 -0.17206 0.29989
 H278 H 0.56954 -0.14340 0.33343
 C279 C 0.66735 0.35093 -0.15839
 C280 C 0.65498 0.31617 -0.16720
 C281 C 0.67562 0.29782 -0.18805
 C282 C 0.70857 0.31356 -0.20089
 C283 C 0.72176 0.34732 -0.19008
 C284 C 0.70137 0.36583 -0.16954
 C285 C 0.64405 0.37001 -0.13688
 C286 C 0.65297 0.40529 -0.12838
 C287 C 0.63045 0.42188 -0.10821
 C288 C 0.59842 0.40386 -0.09589
 C289 C 0.58906 0.36879 -0.10457
 C290 C 0.61140 0.35191 -0.12509
 C291 C 0.62224 0.29982 -0.15492
 C292 C 0.60110 0.31718 -0.13407
 H293 H 0.61284 0.27309 -0.16142
 H294 H 0.57607 0.30331 -0.12514
 H295 H 0.66603 0.27105 -0.19423
 H296 H 0.74824 0.35959 -0.19686
 H297 H 0.63794 0.44918 -0.10269
 H298 H 0.56453 0.35445 -0.09506
 H299 H 0.71305 0.39158 -0.16231
 H300 H 0.67695 0.42073 -0.13735
 C301 C -0.16235 0.16399 -0.16746
 C302 C -0.19727 0.16851 -0.15593
 C303 C -0.21875 0.19494 -0.17291
 C304 C -0.20617 0.21706 -0.20156
 C305 C -0.17203 0.21209 -0.21354
 C306 C -0.15030 0.18598 -0.19673
 C307 C -0.13968 0.13628 -0.14762
 C308 C -0.10398 0.13050 -0.15593
 C309 C -0.08342 0.10535 -0.13561
 C310 C -0.09790 0.08518 -0.10660
 C311 C -0.13383 0.09010 -0.09878
 C312 C -0.15455 0.11555 -0.11871
 C313 C -0.21054 0.14677 -0.12742
 C314 C -0.18972 0.12077 -0.10933
 H315 H -0.23738 0.15007 -0.11877
 H316 H -0.20113 0.10483 -0.08724
 H317 H -0.24549 0.19814 -0.16395
 H318 H -0.16165 0.22898 -0.23549
 H319 H -0.05563 0.10245 -0.14203
 H320 H -0.14561 0.07428 -0.07683
 H321 H -0.12414 0.18364 -0.20694
 H322 H -0.09111 0.14552 -0.17752
 C323 C -0.17693 0.66041 0.34184
 C324 C -0.16768 0.67835 0.30908
 C325 C -0.19181 0.70160 0.29007
 C326 C -0.22527 0.70737 0.30312
 C327 C -0.23498 0.68840 0.33486
 C328 C -0.21125 0.66530 0.35397
 C329 C -0.14963 0.63724 0.36227
 C330 C -0.15532 0.62001 0.39614
 C331 C -0.12867 0.59949 0.41457
 C332 C -0.09572 0.59539 0.39978
 C333 C -0.08985 0.61211 0.36592
 C334 C -0.11631 0.63326 0.34730
 C335 C -0.13426 0.67323 0.29568
 C336 C -0.10928 0.65096 0.31422
 H337 H -0.12724 0.68676 0.27047
 H338 H -0.08378 0.64798 0.30274
 H339 H -0.18389 0.71587 0.26565
 H340 H -0.26116 0.69126 0.34504
 H341 H -0.13397 0.58653 0.44050
 H342 H -0.06423 0.60941 0.35450
 H343 H -0.22036 0.65165 0.37816
 H344 H -0.17992 0.62227 0.40911
 C345 C 0.33881 0.16760 0.34516
 C346 C 0.30971 0.15325 0.32120
 C347 C 0.28482 0.17545 0.30170
 C348 C 0.28771 0.21159 0.30675
 C349 C 0.31599 0.22570 0.33093
 C350 C 0.34143 0.20410 0.34976
 C351 C 0.36480 0.14307 0.36547
 C352 C 0.39602 0.15501 0.38804
 C353 C 0.41884 0.13106 0.40714
 C354 C 0.41102 0.09467 0.40444
 C355 C 0.38046 0.08245 0.38156
 C356 C 0.35768 0.10636 0.36168
 C357 C 0.30498 0.11678 0.31768
 C358 C 0.32810 0.09379 0.33790
 H359 H 0.28259 0.10575 0.29953
 H360 H 0.32286 0.06572 0.33469
 H361 H 0.26234 0.16443 0.28369
 H362 H 0.31838 0.25362 0.33521
 H363 H 0.44238 0.14099 0.42462
 H364 H 0.37475 0.05432 0.37891
 H365 H 0.36242 0.21643 0.36822
 H366 H 0.40343 0.18267 0.39126
 C367 C 0.33484 0.65968 -0.16091
 C368 C 0.29999 0.66331 -0.14876
 C369 C 0.27733 0.68888 -0.16570
 C370 C 0.28877 0.71116 -0.19477
 C371 C 0.32305 0.70726 -0.20707
 C372 C 0.34584 0.68193 -0.19043
 C373 C 0.35856 0.63257 -0.14147
 C374 C 0.39395 0.62720 -0.15094
 C375 C 0.41533 0.60228 -0.13131
 C376 C 0.40206 0.58199 -0.10178
 C377 C 0.36659 0.58671 -0.09256
 C378 C 0.34493 0.61178 -0.11197
 C379 C 0.28798 0.64157 -0.11967
 C380 C 0.30994 0.61635 -0.10171
 H381 H 0.26124 0.64424 -0.11047
 H382 H 0.29946 0.60036 -0.07919
 H383 H 0.25059 0.69126 -0.15635
 H384 H 0.33275 0.72439 -0.22917
 H385 H 0.44274 0.59949 -0.13880
 H386 H 0.35577 0.57079 -0.07016
 H387 H 0.37201 0.68044 -0.20095
 H388 H 0.40585 0.64220 -0.17310
 C389 C -0.17149 -0.16594 0.16412
 C390 C -0.20413 -0.15062 0.16982
 C391 C -0.22858 -0.16797 0.19318
 C392 C -0.22096 -0.20038 0.21178
 C393 C -0.18876 -0.21566 0.20586
 C394 C -0.16432 -0.19876 0.18241
 C395 C -0.14594 -0.14625 0.13914
 C396 C -0.11297 -0.15928 0.13111
 C397 C -0.08985 -0.13951 0.10816
 C398 C -0.09888 -0.10625 0.09281
 C399 C -0.13186 -0.09332 0.10021
 C400 C -0.15539 -0.11298 0.12301
 C401 C -0.21215 -0.11791 0.15246
 C402 C -0.18822 -0.09942 0.12971
 H403 H -0.23718 -0.10622 0.15682
 H404 H -0.19552 -0.07404 0.11720
 H405 H -0.25381 -0.15617 0.19658
 H406 H -0.18193 -0.24045 0.21979
 H407 H -0.06445 -0.14999 0.10294
 H408 H -0.13939 -0.06791 0.08790
 H409 H -0.13986 -0.21169 0.17929
 H410 H -0.10445 -0.18454 0.14232
 C411 C -0.14373 0.34309 0.66635
 C412 C -0.15588 0.36157 0.69349
 C413 C -0.18021 0.34448 0.71710
 C414 C -0.19454 0.30915 0.71360
 C415 C -0.18211 0.29094 0.68644
 C416 C -0.15709 0.30754 0.66336
 C417 C -0.11823 0.36269 0.64125
 C418 C -0.10303 0.34650 0.61425
 C419 C -0.08091 0.36650 0.59047
 C420 C -0.07384 0.40299 0.59288
 C421 C -0.08767 0.41909 0.62036
 C422 C -0.10932 0.39926 0.64471
 C423 C -0.14448 0.39738 0.69650
 C424 C -0.12218 0.41594 0.67230
 H425 H -0.15378 0.41156 0.71734
 H426 H -0.11493 0.44384 0.67521
 H427 H -0.18752 0.35919 0.73843
 H428 H -0.19254 0.26424 0.68137
 H429 H -0.07018 0.35364 0.56949
 H430 H -0.08159 0.44725 0.62263
 H431 H -0.14938 0.29233 0.64270
 H432 H -0.10804 0.31859 0.61093
 C433 C 0.35331 -0.15559 0.67907
 C434 C 0.33454 -0.18791 0.66882
 C435 C 0.30894 -0.20618 0.69065
 C436 C 0.30208 -0.19287 0.72294
 C437 C 0.32226 -0.16181 0.73382
 C438 C 0.34746 -0.14340 0.71230
 C439 C 0.37849 -0.13567 0.65402
 C440 C 0.39549 -0.10180 0.66027
 C441 C 0.41797 -0.08384 0.63582
 C442 C 0.42462 -0.09913 0.60452
 C443 C 0.40770 -0.13294 0.59800
 C444 C 0.38432 -0.15100 0.62217
 C445 C 0.34131 -0.20162 0.63679
 C446 C 0.36608 -0.18382 0.61425
 H447 H 0.32728 -0.22653 0.62904
 H448 H 0.37038 -0.19558 0.58982
 H449 H 0.29363 -0.23015 0.68187
 H450 H 0.31850 -0.15155 0.75917
 H451 H 0.42951 -0.05740 0.64117
 H452 H 0.41254 -0.14523 0.57405
 H453 H 0.36203 -0.11974 0.72225
 H454 H 0.39116 -0.08827 0.68343
 C455 C 0.33404 0.32363 0.16096
 C456 C 0.33751 0.33546 0.19609
 C457 C 0.31322 0.32090 0.22100
 C458 C 0.28628 0.29369 0.21191
 C459 C 0.28409 0.28061 0.17788
 C460 C 0.30748 0.29553 0.15252
 C461 C 0.35895 0.34154 0.13445
 C462 C 0.35482 0.33490 0.09773
 C463 C 0.37781 0.35341 0.07385
 C464 C 0.40588 0.37832 0.08616
 C465 C 0.41057 0.38488 0.12262
 C466 C 0.38683 0.36738 0.14661
 C467 C 0.36535 0.36150 0.20626
 C468 C 0.38995 0.37660 0.18225
 H469 H 0.36833 0.37019 0.23330
 H470 H 0.41113 0.39654 0.19148
 H471 H 0.31553 0.33040 0.24770
 H472 H 0.26363 0.25931 0.17062
 H473 H 0.37361 0.34841 0.04563
 H474 H 0.43173 0.40483 0.13195
 H475 H 0.30445 0.28464 0.12661
 H476 H 0.33342 0.31626 0.08676
 C477 C 0.15705 0.15717 0.16634
 C478 C 0.14054 0.18851 0.17096
 C479 C 0.15809 0.21276 0.19478
 C480 C 0.19213 0.20649 0.21436
 C481 C 0.20871 0.17570 0.20930
 C482 C 0.19146 0.15131 0.18574
 C483 C 0.13712 0.13177 0.14089
 C484 C 0.15067 0.09947 0.13485
 C485 C 0.13086 0.07668 0.11100
 C486 C 0.09714 0.08552 0.09245
 C487 C 0.08342 0.11758 0.09832
 C488 C 0.10297 0.14059 0.12230
 C489 C 0.10667 0.19559 0.15176
 C490 C 0.08833 0.17219 0.12790
 H491 H 0.09408 0.21963 0.15523
 H492 H 0.06217 0.17891 0.11369
 H493 H 0.14536 0.23687 0.19761
 H494 H 0.23490 0.17002 0.22390
 H495 H 0.14217 0.05221 0.10675
 H496 H 0.05704 0.12437 0.08463
 H497 H 0.20554 0.12809 0.18319
 H498 H 0.17642 0.09123 0.14827
 C499 C 0.16960 0.67936 0.65354
 C500 C 0.19750 0.66700 0.67946
 C501 C 0.21513 0.68941 0.70512
 C502 C 0.20438 0.72364 0.70627
 C503 C 0.17665 0.73580 0.68079
 C504 C 0.15961 0.71411 0.65459
 C505 C 0.15091 0.65439 0.62708
 C506 C 0.12406 0.66455 0.59924
 C507 C 0.10607 0.63987 0.57644
 C508 C 0.11424 0.60447 0.58082
 C509 C 0.14178 0.59427 0.60765
 C510 C 0.16039 0.61898 0.63049
 C511 C 0.20673 0.63203 0.68037
 C512 C 0.18823 0.60842 0.65674
 H513 H 0.22800 0.62252 0.70025
 H514 H 0.19581 0.58142 0.65910
 H515 H 0.23614 0.67971 0.72521
 H516 H 0.16811 0.76225 0.68117
 H517 H 0.08489 0.64832 0.55591
 H518 H 0.14866 0.56704 0.61074
 H519 H 0.13819 0.72483 0.63597
 H520 H 0.11636 0.69130 0.59472
 C521 C 0.67044 0.18377 0.65065
 C522 C 0.70142 0.17286 0.67345
 C523 C 0.72001 0.19559 0.69838
 C524 C 0.70783 0.22901 0.70136
 C525 C 0.67759 0.23999 0.67831
 C526 C 0.65918 0.21782 0.65323
 C527 C 0.65029 0.15816 0.62560
 C528 C 0.61881 0.16629 0.60236
 C529 C 0.59964 0.14089 0.58118
 C530 C 0.61135 0.10674 0.58234
 C531 C 0.64353 0.09871 0.60429
 C532 C 0.66290 0.12403 0.62602
 C533 C 0.71310 0.13905 0.67185
 C534 C 0.69422 0.11515 0.64870
 H535 H 0.73689 0.13071 0.68919
 H536 H 0.70404 0.08912 0.64892
 H537 H 0.74309 0.18670 0.71638
 H538 H 0.66807 0.26591 0.67968
 H539 H 0.57532 0.14795 0.56390
 H540 H 0.65271 0.07233 0.60549
 H541 H 0.63596 0.22776 0.63652
 H542 H 0.60814 0.19191 0.60039
 C543 C 0.65494 0.65778 0.16027
 C544 C 0.64328 0.69243 0.15705
 C545 C 0.65954 0.71739 0.18070
 C546 C 0.68818 0.70874 0.20695
 C547 C 0.70108 0.67508 0.20897
 C548 C 0.68457 0.64976 0.18607
 C549 C 0.63517 0.63127 0.13598
 C550 C 0.64175 0.59521 0.13959
 C551 C 0.62176 0.57139 0.11696
 C552 C 0.59524 0.58300 0.08988
 C553 C 0.58860 0.61880 0.08585
 C554 C 0.60773 0.64280 0.10911
 C555 C 0.61561 0.70203 0.13019
 C556 C 0.59869 0.67791 0.10632
 H557 H 0.60703 0.72868 0.12744
 H558 H 0.57754 0.68669 0.08590
 H559 H 0.65011 0.74373 0.17858
 H560 H 0.72334 0.66804 0.22899
 H561 H 0.62707 0.54376 0.12054
 H562 H 0.56752 0.62768 0.06537
 H563 H 0.69539 0.62416 0.18899
 H564 H 0.66161 0.58475 0.16013
   
