data_POSCAR
  _audit_creation_date              2014-09-24
  _audit_creation_method            'ToBaCCo'
  _symmetry_space_group_name_H-M    'P1'
  _symmetry_Int_Tables_number       1
  _symmetry_cell_setting            triclinic
  loop_
  _symmetry_equiv_pos_as_xyz
 x,y,z
_cell_length_a 46.6052
_cell_length_b 49.2107
_cell_length_c 47.7681
_cell_angle_alpha 88.944400
_cell_angle_beta 89.238500
_cell_angle_gamma 89.988100
loop_
  _atom_site_label
  _atom_site_type_symbol
  _atom_site_fract_x
  _atom_site_fract_y
  _atom_site_fract_z
N1 N 0.14734 0.19852 0.22109
 N2 N 0.17130 0.18680 0.22895
 C3 C 0.16794 0.17642 0.25499
 C4 C 0.14003 0.18146 0.26417
 C5 C 0.12759 0.19556 0.24181
 H6 H 0.18437 0.16498 0.26575
 H7 H 0.10585 0.20308 0.24047
 Cu8 Cu 0.20374 0.18386 0.20347
 Cu9 Cu 0.14400 0.21557 0.18387
 Cu10 Cu 0.20871 0.22536 0.14755
 N11 N 0.23010 0.17632 0.17281
 N12 N 0.23367 0.19341 0.15162
 C13 C 0.25445 0.18383 0.13450
 C14 C 0.26382 0.15888 0.14523
 C15 C 0.24769 0.15496 0.16963
 H16 H 0.26118 0.19372 0.11511
 H17 H 0.24894 0.13819 0.18449
 N18 N 0.17355 0.24620 0.13898
 N19 N 0.14864 0.24114 0.15157
 C20 C 0.12840 0.25700 0.13981
 C21 C 0.14115 0.27299 0.11902
 C22 C 0.16985 0.26573 0.11915
 H23 H 0.10607 0.25733 0.14627
 H24 H 0.18660 0.27347 0.10529
 H25 H 0.17850 0.19928 0.16172
 H26 H 0.18571 0.22760 0.18597
 N27 N -0.16069 0.79981 0.26588
 N28 N -0.18218 0.81369 0.27657
 C29 C -0.17248 0.82901 0.29749
 C30 C -0.14322 0.82484 0.29975
 C31 C -0.13643 0.80626 0.27927
 H32 H -0.18543 0.84314 0.30927
 H33 H -0.11541 0.79816 0.27438
 Cu34 Cu -0.22005 0.81294 0.26008
 Cu35 Cu -0.16586 0.77519 0.23477
 Cu36 Cu -0.23606 0.76473 0.21438
 N37 N -0.25333 0.81624 0.23602
 N38 N -0.25990 0.79688 0.21869
 C39 C -0.28339 0.80413 0.20438
 C40 C -0.29200 0.82984 0.21276
 C41 C -0.27227 0.83674 0.23310
 H42 H -0.29247 0.79188 0.18818
 H43 H -0.27121 0.85540 0.24462
 N44 N -0.20409 0.74166 0.20216
 N45 N -0.17735 0.74542 0.20999
 C46 C -0.16054 0.72671 0.19767
 C47 C -0.17748 0.71087 0.18086
 C48 C -0.20496 0.72098 0.18415
 H49 H -0.13753 0.72526 0.19995
 H50 H -0.22409 0.71405 0.17389
 H51 H -0.20320 0.79108 0.21767
 H52 H -0.20657 0.76646 0.24772
 N53 N -0.15408 0.20306 -0.23950
 N54 N -0.15895 0.17999 -0.22596
 C55 C -0.14610 0.15968 -0.23973
 C56 C -0.13241 0.17044 -0.26328
 C57 C -0.13803 0.19810 -0.26259
 H58 H -0.14688 0.13853 -0.23317
 H59 H -0.13032 0.21350 -0.27728
 Cu60 Cu -0.18172 0.17775 -0.19168
 Cu61 Cu -0.16722 0.23762 -0.22444
 Cu62 Cu -0.21828 0.23313 -0.17148
 N63 N -0.21429 0.17525 -0.16602
 N64 N -0.22951 0.19667 -0.15932
 C65 C -0.25110 0.18892 -0.14197
 C66 C -0.24927 0.16099 -0.13728
 C67 C -0.22547 0.15314 -0.15304
 H68 H -0.26641 0.20283 -0.13290
 H69 H -0.21705 0.13285 -0.15549
 N70 N -0.20310 0.26802 -0.18588
 N71 N -0.18320 0.26984 -0.20571
 C72 C -0.17322 0.29554 -0.20694
 C73 C -0.18735 0.31062 -0.18671
 C74 C -0.20634 0.29242 -0.17402
 H75 H -0.15509 0.30204 -0.21971
 H76 H -0.21980 0.29595 -0.15588
 H77 H -0.17566 0.22576 -0.18325
 H78 H -0.20395 0.21853 -0.20989
 N79 N 0.20232 0.79078 -0.25848
 N80 N 0.22140 0.81035 -0.26113
 C81 C 0.21450 0.82633 -0.28327
 C82 C 0.18961 0.81633 -0.29497
 C83 C 0.18265 0.79367 -0.27866
 H84 H 0.22583 0.84466 -0.28953
 H85 H 0.16408 0.78075 -0.28067
 Cu86 Cu 0.25175 0.81406 -0.23368
 Cu87 Cu 0.20201 0.76497 -0.22713
 Cu88 Cu 0.25502 0.77192 -0.17755
 N89 N 0.28237 0.81702 -0.20644
 N90 N 0.28364 0.80017 -0.18485
 C91 C 0.30624 0.80669 -0.16910
 C92 C 0.31998 0.82916 -0.18120
 C93 C 0.30406 0.83505 -0.20501
 H94 H 0.31149 0.79627 -0.14974
 H95 H 0.30770 0.85135 -0.22007
 N96 N 0.22421 0.74449 -0.17414
 N97 N 0.20501 0.74103 -0.19383
 C98 C 0.18705 0.72089 -0.18576
 C99 C 0.19501 0.71142 -0.15959
 C100 C 0.21859 0.72690 -0.15276
 H101 H 0.16861 0.71440 -0.19738
 H102 H 0.23058 0.72552 -0.13356
 H103 H 0.22179 0.79018 -0.19898
 H104 H 0.24553 0.76671 -0.21901
 N105 N 0.17685 1.16617 0.78660
 N106 N 0.15376 1.18123 0.78959
 C107 C 0.13835 1.18031 0.76600
 C108 C 0.15285 1.16407 0.74717
 C109 C 0.17721 1.15546 0.76092
 H110 H 0.11775 1.19001 0.76304
 H111 H 0.19297 1.14104 0.75352
 Cu112 Cu 0.14515 1.19898 0.82476
 Cu113 Cu 0.20188 1.15825 0.81787
 Cu114 Cu 0.20261 1.21056 0.86511
 N115 N 0.14303 1.22240 0.85696
 N116 N 0.16580 1.22806 0.87174
 C117 C 0.15887 1.24697 0.89067
 C118 C 0.13005 1.25302 0.88791
 C119 C 0.12067 1.23705 0.86635
 H120 H 0.17370 1.25570 0.90522
 H121 H 0.09955 1.23719 0.85725
 N122 N 0.23255 1.18216 0.86362
 N123 N 0.23133 1.16163 0.84629
 C124 C 0.25115 1.14307 0.85343
 C125 C 0.26563 1.15231 0.87638
 C126 C 0.25355 1.17729 0.88221
 H127 H 0.25379 1.12357 0.84363
 H128 H 0.25788 1.18968 0.90014
 H129 H 0.18159 1.17651 0.85273
 H130 H 0.19754 1.19827 0.82395
 N131 N 0.76026 0.80413 0.69904
 N132 N 0.78344 0.78912 0.70132
 C133 C 0.80314 0.79784 0.68242
 C134 C 0.79186 0.81972 0.66749
 C135 C 0.76442 0.82297 0.67860
 H136 H 0.82481 0.79009 0.68120
 H137 H 0.74922 0.83885 0.67357
 Cu138 Cu 0.78813 0.76279 0.73179
 Cu139 Cu 0.72893 0.80070 0.72608
 Cu140 Cu 0.73228 0.75597 0.77991
 N141 N 0.78719 0.73412 0.76109
 N142 N 0.76636 0.73207 0.78002
 C143 C 0.77304 0.71229 0.79869
 C144 C 0.79911 0.70110 0.79080
 C145 C 0.80733 0.71531 0.76682
 H146 H 0.76015 0.70673 0.81690
 H147 H 0.82723 0.71293 0.75523
 N148 N 0.70655 0.78729 0.78058
 N149 N 0.70512 0.80463 0.75940
 C150 C 0.68646 0.82448 0.76575
 C151 C 0.67540 0.81940 0.79244
 C152 C 0.68863 0.79544 0.80111
 H153 H 0.68181 0.84157 0.75202
 H154 H 0.68622 0.78507 0.82116
 H155 H 0.76077 0.78106 0.76075
 H156 H 0.74531 0.75460 0.73790
 N157 N 0.19914 0.82933 1.24368
 N158 N 0.17463 0.82256 1.23251
 C159 C 0.15295 0.83358 1.24730
 C160 C 0.16450 0.84814 1.26896
 C161 C 0.19392 0.84492 1.26601
 H162 H 0.13049 0.83124 1.24249
 H163 H 0.21038 0.85408 1.27847
 Cu164 Cu 0.17308 0.80079 1.19926
 Cu165 Cu 0.23581 0.81978 1.22667
 Cu166 Cu 0.23392 0.77345 1.17314
 N167 N 0.17254 0.77039 1.17418
 N168 N 0.19609 0.75920 1.16428
 C169 C 0.18886 0.73891 1.14713
 C170 C 0.15917 0.73755 1.14620
 C171 C 0.14963 0.75777 1.16374
 H172 H 0.20401 0.72665 1.13556
 H173 H 0.12761 0.76296 1.16864
 N174 N 0.26973 0.79070 1.18550
 N175 N 0.27041 0.80796 1.20628
 C176 C 0.29664 0.81926 1.20714
 C177 C 0.31341 0.80894 1.18566
 C178 C 0.29557 0.79064 1.17255
 H179 H 0.30218 0.83555 1.22090
 H180 H 0.30011 0.77997 1.15344
 H181 H 0.22234 0.81188 1.18624
 H182 H 0.21950 0.78325 1.21265
 N183 N 0.82307 1.17971 1.24213
 N184 N 0.83148 1.20343 1.25112
 C185 C 0.84537 1.19994 1.27542
 C186 C 0.84538 1.17247 1.28216
 C187 C 0.83095 1.16025 1.26063
 H188 H 0.85495 1.21613 1.28713
 H189 H 0.82713 1.13876 1.25822
 Cu190 Cu 0.82465 1.23631 1.22959
 Cu191 Cu 0.80284 1.17579 1.20702
 Cu192 Cu 0.78644 1.23571 1.17081
 N193 N 0.82786 1.26543 1.20195
 N194 N 0.81232 1.26568 1.17920
 C195 C 0.81842 1.28836 1.16408
 C196 C 0.83930 1.30282 1.17795
 C197 C 0.84477 1.28756 1.20190
 H198 H 0.80906 1.29341 1.14405
 H199 H 0.85992 1.29211 1.21811
 N200 N 0.77384 1.19945 1.15876
 N201 N 0.78185 1.17671 1.17152
 C202 C 0.77113 1.15546 1.15779
 C203 C 0.75533 1.16517 1.13547
 C204 C 0.75742 1.19322 1.13675
 H205 H 0.77349 1.13444 1.16428
 H206 H 0.74777 1.20797 1.12269
 H207 H 0.81757 1.21116 1.18710
 H208 H 0.78379 1.21295 1.20825
 O209 O 0.53951 0.98086 0.95340
 O210 O 0.49107 0.97991 1.07163
 O211 O 0.55260 0.95363 1.03710
 O212 O 0.47763 0.95152 0.98800
 O213 O 0.54431 0.98325 1.06840
 O214 O 0.48772 0.97966 0.95402
 O215 O 0.47050 0.95371 1.04098
 O216 O 0.54730 0.95263 0.98689
 C217 C 0.54584 0.95723 0.96137
 C218 C 0.47712 0.95872 1.06567
 C219 C 0.55154 0.95958 1.06217
 C220 C 0.47997 0.95627 0.96239
 O221 O 0.48671 1.03121 0.97485
 O222 O 0.54075 1.03319 1.04625
 O223 O 0.57148 1.00268 0.98245
 O224 O 0.45354 1.00424 1.03564
 O225 O 0.48567 1.03093 1.05420
 O226 O 0.53823 1.03159 0.97598
 O227 O 0.45508 1.00126 0.98423
 O228 O 0.57366 1.00481 1.03299
 Co229 Co 0.51316 1.00468 0.96833
 Co230 Co 0.51552 1.00562 1.05538
 Co231 Co 0.55739 0.97963 1.00987
 Co232 Co 0.46888 0.97891 1.01183
 O233 O 0.51364 0.99225 1.01154
 C234 C 0.46109 1.02544 0.97857
 C235 C 0.56642 1.02836 1.04037
 C236 C 0.56422 1.02656 0.97683
 C237 C 0.46016 1.02561 1.04832
 O238 O 0.02570 0.49114 0.01773
 O239 O 0.01336 0.53200 -0.06703
 O240 O -0.02088 0.45452 -0.03558
 O241 O -0.00416 0.57978 0.00986
 O242 O 0.00828 0.48016 -0.06036
 O243 O 0.02286 0.54336 0.01874
 O244 O 0.01623 0.55676 -0.02972
 O245 O -0.00691 0.45987 0.01210
 C246 C 0.01913 0.46649 0.01547
 C247 C 0.02521 0.55045 -0.05364
 C248 C 0.00216 0.45753 -0.04946
 C249 C 0.01805 0.56885 0.02278
 O250 O -0.02808 0.53790 0.04396
 O251 O -0.04756 0.48610 -0.06606
 O252 O -0.05816 0.48886 0.02077
 O253 O -0.03611 0.56872 -0.03789
 O254 O -0.04209 0.53684 -0.06927
 O255 O -0.02277 0.48857 0.04709
 O256 O -0.05209 0.55297 0.00998
 O257 O -0.07043 0.48091 -0.02675
 Co258 Co -0.00225 0.51497 0.02753
 Co259 Co -0.01705 0.50895 -0.06099
 Co260 Co -0.03780 0.47402 -0.00731
 Co261 Co -0.01759 0.55159 -0.00920
 O262 O -0.01986 0.51150 -0.01525
 C263 C -0.05019 0.54946 0.03549
 C264 C -0.07016 0.47988 -0.05281
 C265 C -0.04893 0.48471 0.04443
 C266 C -0.04669 0.56052 -0.06038
 O267 O 1.06857 0.03863 0.48013
 O268 O 0.97197 0.03930 0.52335
 O269 O 0.97863 0.03932 0.47159
 O270 O 1.04039 0.01224 0.56357
 O271 O 0.94173 0.01660 0.48615
 O272 O 1.06446 0.03769 0.53337
 O273 O 0.98901 0.01737 0.55954
 O274 O 1.02704 0.05270 0.46812
 C275 C 1.05333 0.05591 0.46792
 C276 C 0.97666 0.03820 0.54922
 C277 C 0.95261 0.03343 0.46774
 C278 C 1.05543 0.03310 0.55783
 O279 O 1.07392 -0.01402 0.53304
 O280 O 0.97209 -0.02586 0.48884
 O281 O 1.04317 0.00341 0.44838
 O282 O 0.98722 -0.03480 0.53787
 O283 O 0.95263 -0.00835 0.53396
 O284 O 1.07157 -0.01379 0.48061
 O285 O 1.03674 -0.03826 0.54035
 O286 O 0.99273 -0.01096 0.45159
 Co287 Co 1.06461 0.01157 0.50677
 Co288 Co 0.97381 0.00701 0.50506
 Co289 Co 1.01085 0.01973 0.46375
 Co290 Co 1.01347 -0.00955 0.54701
 O291 O 1.01763 0.00630 0.50651
 C292 C 1.06314 -0.03609 0.54066
 C293 C 0.97804 -0.02892 0.46379
 C294 C 1.06362 -0.01214 0.45562
 C295 C 0.96144 -0.03056 0.54288
 C296 C 1.08438 0.16508 0.31907
 C297 C 1.10055 0.15141 0.33993
 C298 C 1.13065 0.14999 0.33569
 C299 C 1.14350 0.16040 0.31098
 C300 C 1.12707 0.17275 0.28976
 C301 C 1.09743 0.17557 0.29461
 C302 C 1.14791 0.13774 0.35590
 C303 C 1.13598 0.12585 0.37989
 C304 C 1.10601 0.12534 0.38456
 C305 C 1.08798 0.13865 0.36444
 C306 C 1.05798 0.13792 0.36902
 C307 C 1.04589 0.12357 0.39156
 C308 C 1.06308 0.10960 0.41067
 C309 C 1.09340 0.11097 0.40805
 C310 C 1.10974 0.09697 0.42857
 C311 C 1.09656 0.08052 0.44910
 C312 C 1.06668 0.07771 0.45029
 C313 C 1.05003 0.09329 0.43172
 H314 H 1.06152 0.16788 0.32082
 H315 H 1.16653 0.15864 0.30850
 H316 H 1.08382 0.18525 0.27921
 H317 H 1.17101 0.13695 0.35296
 H318 H 1.15100 0.11655 0.39404
 H319 H 1.04302 0.14759 0.35506
 H320 H 1.02270 0.12287 0.39365
 H321 H 1.13282 0.09761 0.42898
 H322 H 1.10997 0.06906 0.46344
 H323 H 1.02684 0.09151 0.43254
 C324 C 0.92210 -0.13871 0.32677
 C325 C 0.91268 -0.13026 0.35357
 C326 C 0.88520 -0.13915 0.36305
 C327 C 0.86728 -0.15389 0.34546
 C328 C 0.87652 -0.16106 0.31862
 C329 C 0.90431 -0.15400 0.30972
 C330 C 0.87551 -0.13297 0.38990
 C331 C 0.89232 -0.11791 0.40765
 C332 C 0.91934 -0.10761 0.39892
 C333 C 0.92933 -0.11321 0.37115
 C334 C 0.95491 -0.10055 0.36148
 C335 C 0.96980 -0.08252 0.37806
 C336 C 0.96051 -0.07720 0.40530
 C337 C 0.93594 -0.09068 0.41656
 C338 C 0.92877 -0.08629 0.44500
 C339 C 0.94370 -0.06742 0.46063
 C340 C 0.96624 -0.05224 0.44857
 C341 C 0.97517 -0.05787 0.42113
 H342 H 0.94318 -0.13405 0.31847
 H343 H 0.84602 -0.15990 0.35273
 H344 H 0.91204 -0.15964 0.28915
 H345 H 0.85457 -0.13978 0.39728
 H346 H 0.88284 -0.11356 0.42776
 H347 H 0.96329 -0.10315 0.34057
 H348 H 0.98872 -0.07250 0.36937
 H349 H 0.91169 -0.09707 0.45580
 H350 H 0.93671 -0.06394 0.48200
 H351 H 0.99303 -0.04668 0.41180
 C352 C 0.91431 0.11572 0.70583
 C353 C 0.91634 0.12336 0.67715
 C354 C 0.90223 0.14756 0.66843
 C355 C 0.88722 0.16352 0.68800
 C356 C 0.88509 0.15521 0.71620
 C357 C 0.89892 0.13133 0.72482
 C358 C 0.90262 0.15530 0.64016
 C359 C 0.91578 0.13908 0.62013
 C360 C 0.92976 0.11461 0.62770
 C361 C 0.93107 0.10730 0.65684
 C362 C 0.94699 0.08408 0.66478
 C363 C 0.95943 0.06743 0.64502
 C364 C 0.95669 0.07318 0.61656
 C365 C 0.94233 0.09700 0.60725
 C366 C 0.94060 0.10159 0.57786
 C367 C 0.95216 0.08296 0.55885
 C368 C 0.96580 0.05927 0.56848
 C369 C 0.96801 0.05476 0.59740
 H370 H 0.92358 0.09735 0.71429
 H371 H 0.87629 0.18185 0.68108
 H372 H 0.89784 0.12453 0.74650
 H373 H 0.89205 0.17384 0.63332
 H374 H 0.91473 0.14637 0.59877
 H375 H 0.95048 0.07816 0.68627
 H376 H 0.97105 0.04957 0.65218
 H377 H 0.92997 0.11905 0.56888
 H378 H 0.95003 0.08690 0.53660
 H379 H 0.97789 0.03626 0.60526
 C380 C 1.12622 -0.16434 0.65985
 C381 C 1.13790 -0.14428 0.64136
 C382 C 1.16769 -0.13877 0.64327
 C383 C 1.18450 -0.15202 0.66359
 C384 C 1.17231 -0.17108 0.68235
 C385 C 1.14315 -0.17740 0.67989
 C386 C 1.18055 -0.11971 0.62521
 C387 C 1.16444 -0.10523 0.60580
 C388 C 1.13449 -0.10903 0.60377
 C389 C 1.12104 -0.12914 0.62159
 C390 C 1.09106 -0.13285 0.61961
 C391 C 1.07457 -0.11663 0.60199
 C392 C 1.08716 -0.09628 0.58530
 C393 C 1.11739 -0.09270 0.58524
 C394 C 1.12907 -0.07227 0.56720
 C395 C 1.11137 -0.05495 0.55175
 C396 C 1.08146 -0.05747 0.55333
 C397 C 1.06953 -0.07887 0.56936
 H398 H 1.10400 -0.17027 0.65972
 H399 H 1.20714 -0.14726 0.66490
 H400 H 1.13298 -0.19202 0.69400
 H401 H 1.20337 -0.11562 0.62635
 H402 H 1.17620 -0.09067 0.59309
 H403 H 1.07940 -0.14776 0.63196
 H404 H 1.05154 -0.11975 0.60184
 H405 H 1.15175 -0.06864 0.56491
 H406 H 1.12121 -0.03892 0.53908
 H407 H 1.04640 -0.08118 0.57054
 C408 C 0.30669 1.09615 1.13308
 C409 C 0.32631 1.10452 1.11186
 C410 C 0.32534 1.13202 1.10257
 C411 C 0.30406 1.14972 1.11288
 C412 C 0.28458 1.14108 1.13398
 C413 C 0.28656 1.11413 1.14407
 C414 C 0.34594 1.14178 1.08341
 C415 C 0.36807 1.12510 1.07404
 C416 C 0.36970 1.09751 1.08252
 C417 C 0.34740 1.08670 1.10027
 C418 C 0.34653 1.05837 1.10541
 C419 C 0.36755 1.04130 1.09474
 C420 C 0.39080 1.05184 1.07944
 C421 C 0.39258 1.08017 1.07350
 C422 C 0.41763 1.08999 1.05954
 C423 C 0.43970 1.07229 1.05170
 C424 C 0.43716 1.04433 1.05684
 C425 C 0.41254 1.03418 1.07038
 H426 H 0.30700 1.07603 1.14238
 H427 H 0.30361 1.17057 1.10520
 H428 H 0.27211 1.10637 1.16021
 H429 H 0.34536 1.16275 1.07607
 H430 H 0.38318 1.13418 1.05936
 H431 H 0.32922 1.04861 1.11692
 H432 H 0.36591 1.01965 1.09908
 H433 H 0.42122 1.11131 1.05527
 H434 H 0.45870 1.08044 1.04128
 H435 H 0.41080 1.01252 1.07472
 C436 C 0.37452 0.88370 0.82878
 C437 C 0.38810 0.87509 0.85376
 C438 C 0.37990 0.84952 0.86539
 C439 C 0.35806 0.83416 0.85330
 C440 C 0.34360 0.84362 0.82938
 C441 C 0.35280 0.86825 0.81689
 C442 C 0.39305 0.83951 0.88949
 C443 C 0.41316 0.85488 0.90330
 C444 C 0.42086 0.88122 0.89367
 C445 C 0.40878 0.89120 0.86804
 C446 C 0.41703 0.91731 0.85811
 C447 C 0.43484 0.93383 0.87352
 C448 C 0.44532 0.92507 0.89934
 C449 C 0.43930 0.89834 0.90942
 C450 C 0.45094 0.89037 0.93556
 C451 C 0.46561 0.90886 0.95188
 C452 C 0.46968 0.93575 0.94265
 C453 C 0.46068 0.94338 0.91576
 H454 H 0.37974 0.90252 0.81805
 H455 H 0.35227 0.81489 0.86305
 H456 H 0.34280 0.87630 0.79820
 H457 H 0.38726 0.81971 0.89818
 H458 H 0.42180 0.84560 0.92194
 H459 H 0.40950 0.92598 0.83871
 H460 H 0.43978 0.95406 0.86547
 H461 H 0.44832 0.87032 0.94459
 H462 H 0.47291 0.90230 0.97235
 H463 H 0.46395 0.96412 0.90833
 C464 C 0.66106 0.88959 1.19691
 C465 C 0.64379 0.87990 1.17506
 C466 C 0.64721 0.85235 1.16758
 C467 C 0.66760 0.83573 1.18085
 C468 C 0.68567 0.84596 1.20151
 C469 C 0.68151 0.87294 1.20980
 C470 C 0.63074 0.84152 1.14637
 C471 C 0.61205 0.85776 1.13117
 C472 C 0.60893 0.88571 1.13666
 C473 C 0.62405 0.89670 1.15979
 C474 C 0.61936 0.92422 1.16641
 C475 C 0.60208 0.94090 1.14999
 C476 C 0.58898 0.93101 1.12616
 C477 C 0.59177 0.90317 1.11938
 C478 C 0.57830 0.89427 1.09477
 C479 C 0.56422 0.91251 1.07704
 C480 C 0.56258 0.94011 1.08329
 C481 C 0.57406 0.94910 1.10844
 H482 H 0.65992 0.91017 1.20411
 H483 H 0.66956 0.81486 1.17437
 H484 H 0.69453 0.88178 1.22584
 H485 H 0.63283 0.82030 1.14093
 H486 H 0.60045 0.84767 1.11504
 H487 H 0.62897 0.93367 1.18414
 H488 H 0.59964 0.96204 1.15557
 H489 H 0.57916 0.87359 1.08788
 H490 H 0.55519 0.90505 1.05785
 H491 H 0.57288 0.97049 1.11341
 C492 C 0.72135 1.10005 0.90076
 C493 C 0.69541 1.10994 0.91239
 C494 C 0.68832 1.13752 0.90706
 C495 C 0.70702 1.15449 0.89138
 C496 C 0.73259 1.14431 0.87958
 C497 C 0.73938 1.11685 0.88461
 C498 C 0.66229 1.14793 0.91687
 C499 C 0.64240 1.13121 0.93063
 C500 C 0.64816 1.10342 0.93582
 C501 C 0.67580 1.09309 0.92811
 C502 C 0.68289 1.06624 0.93628
 C503 C 0.66293 1.04930 0.94945
 C504 C 0.63502 1.05823 0.95457
 C505 C 0.62717 1.08547 0.94817
 C506 C 0.59828 1.09315 0.95328
 C507 C 0.57803 1.07425 0.96324
 C508 C 0.58592 1.04726 0.96878
 C509 C 0.61467 1.03967 0.96525
 H510 H 0.72796 1.07915 0.90292
 H511 H 0.70086 1.17544 0.88766
 H512 H 0.75880 1.10795 0.87622
 H513 H 0.65685 1.16911 0.91320
 H514 H 0.62273 1.14079 0.93724
 H515 H 0.70393 1.05770 0.93301
 H516 H 0.66920 1.02867 0.95489
 H517 H 0.59033 1.11328 0.94873
 H518 H 0.55596 1.08067 0.96603
 H519 H 0.62106 1.01885 0.96967
 C520 C 0.08409 0.30761 0.07564
 C521 C 0.09705 0.33269 0.06784
 C522 C 0.12534 0.33762 0.07710
 C523 C 0.14020 0.31760 0.09264
 C524 C 0.12671 0.29314 0.10061
 C525 C 0.09862 0.28841 0.09198
 C526 C 0.13823 0.36279 0.07158
 C527 C 0.12308 0.38378 0.05855
 C528 C 0.09464 0.38003 0.04952
 C529 C 0.08228 0.35350 0.05246
 C530 C 0.05548 0.34868 0.04011
 C531 C 0.03987 0.36965 0.02790
 C532 C 0.05008 0.39627 0.02797
 C533 C 0.07784 0.40192 0.03814
 C534 C 0.08686 0.42947 0.03781
 C535 C 0.06837 0.45043 0.02930
 C536 C 0.04051 0.44464 0.02054
 C537 C 0.03203 0.41737 0.01895
 H538 H 0.06227 0.30269 0.07054
 H539 H 0.16179 0.32160 0.09969
 H540 H 0.08773 0.26970 0.09795
 H541 H 0.15995 0.36666 0.07830
 H542 H 0.13436 0.40274 0.05558
 H543 H 0.04603 0.32872 0.03939
 H544 H 0.01905 0.36510 0.01924
 H545 H 0.10755 0.43562 0.04525
 H546 H 0.07557 0.47129 0.03061
 H547 H 0.01062 0.41251 0.01198
 C548 C -0.14930 0.37836 -0.18109
 C549 C -0.15650 0.38629 -0.15350
 C550 C -0.17660 0.37005 -0.13825
 C551 C -0.18796 0.34643 -0.14988
 C552 C -0.17908 0.33786 -0.17649
 C553 C -0.16032 0.35453 -0.19222
 C554 C -0.18440 0.37675 -0.11095
 C555 C -0.17111 0.39803 -0.09756
 C556 C -0.14949 0.41368 -0.11110
 C557 C -0.14334 0.40880 -0.14004
 C558 C -0.12352 0.42599 -0.15425
 C559 C -0.10810 0.44543 -0.14011
 C560 C -0.11168 0.44847 -0.11133
 C561 C -0.13300 0.43332 -0.09645
 C562 C -0.13563 0.43735 -0.06720
 C563 C -0.11641 0.45398 -0.05322
 C564 C -0.09423 0.46740 -0.06788
 C565 C -0.09295 0.46558 -0.09713
 H566 H -0.13430 0.38944 -0.19428
 H567 H -0.20255 0.33402 -0.13734
 H568 H -0.15346 0.34885 -0.21304
 H569 H -0.20026 0.36476 -0.09940
 H570 H -0.17807 0.40148 -0.07633
 H571 H -0.11907 0.42470 -0.17636
 H572 H -0.09234 0.45749 -0.15171
 H573 H -0.15131 0.42691 -0.05422
 H574 H -0.11805 0.45517 -0.03063
 H575 H -0.07608 0.47616 -0.10879
 C576 C 0.16100 0.67445 -0.09729
 C577 C 0.14537 0.65349 -0.11024
 C578 C 0.14895 0.65071 -0.13959
 C579 C 0.16566 0.66931 -0.15527
 C580 C 0.17978 0.69064 -0.14231
 C581 C 0.17801 0.69261 -0.11315
 C582 C 0.13539 0.62971 -0.15336
 C583 C 0.11784 0.61148 -0.13883
 C584 C 0.11254 0.61388 -0.10980
 C585 C 0.12611 0.63551 -0.09532
 C586 C 0.11897 0.63911 -0.06678
 C587 C 0.09875 0.62267 -0.05306
 C588 C 0.08547 0.60145 -0.06689
 C589 C 0.09302 0.59609 -0.09512
 C590 C 0.08029 0.57333 -0.10766
 C591 C 0.05926 0.55809 -0.09363
 C592 C 0.05027 0.56467 -0.06649
 C593 C 0.06412 0.58592 -0.05288
 H594 H 0.16054 0.67737 -0.07499
 H595 H 0.16754 0.66727 -0.17779
 H596 H 0.18903 0.70881 -0.10263
 H597 H 0.13816 0.62746 -0.17578
 H598 H 0.10775 0.59635 -0.15137
 H599 H 0.12782 0.65526 -0.05466
 H600 H 0.09327 0.62677 -0.03142
 H601 H 0.08599 0.56668 -0.12835
 H602 H 0.04947 0.54141 -0.10451
 H603 H 0.05776 0.59091 -0.03166
 C604 C -0.17012 0.66712 0.11691
 C605 C -0.14694 0.64979 0.12400
 C606 C -0.13570 0.65166 0.15136
 C607 C -0.14574 0.67159 0.16974
 C608 C -0.16786 0.68923 0.16189
 C609 C -0.18044 0.68637 0.13568
 C610 C -0.11424 0.63387 0.16015
 C611 C -0.10335 0.61434 0.14232
 C612 C -0.11289 0.61238 0.11449
 C613 C -0.13443 0.63092 0.10490
 C614 C -0.14167 0.63088 0.07626
 C615 C -0.12776 0.61391 0.05749
 C616 C -0.10697 0.59552 0.06661
 C617 C -0.10033 0.59354 0.09548
 C618 C -0.08086 0.57307 0.10402
 C619 C -0.06623 0.55750 0.08440
 C620 C -0.07053 0.56164 0.05567
 C621 C -0.09192 0.57980 0.04693
 H622 H -0.18095 0.66609 0.09717
 H623 H -0.13644 0.67328 0.19034
 H624 H -0.19786 0.69959 0.12933
 H625 H -0.10566 0.63510 0.18108
 H626 H -0.08632 0.60191 0.15062
 H627 H -0.15702 0.64482 0.06736
 H628 H -0.13315 0.61542 0.03550
 H629 H -0.07626 0.56874 0.12569
 H630 H -0.05054 0.54289 0.09180
 H631 H -0.09588 0.58270 0.02475
 C632 C 1.15262 0.13773 0.67352
 C633 C 1.12376 0.12940 0.67054
 C634 C 1.10447 0.13378 0.69325
 C635 C 1.11372 0.14678 0.71741
 C636 C 1.14252 0.15405 0.72026
 C637 C 1.16184 0.14948 0.69821
 C638 C 1.07633 0.12431 0.69217
 C639 C 1.06734 0.10899 0.66982
 C640 C 1.08599 0.10343 0.64713
 C641 C 1.11380 0.11563 0.64647
 C642 C 1.13064 0.11365 0.62180
 C643 C 1.12130 0.09883 0.59917
 C644 C 1.09550 0.08448 0.60072
 C645 C 1.07770 0.08619 0.62495
 C646 C 1.05302 0.06952 0.62661
 C647 C 1.04626 0.05219 0.60494
 C648 C 1.06318 0.05149 0.58056
 C649 C 1.08768 0.06790 0.57844
 H650 H 1.16888 0.13415 0.65775
 H651 H 1.09885 0.14974 0.73475
 H652 H 1.18428 0.15475 0.70022
 H653 H 1.06135 0.12796 0.70925
 H654 H 1.04532 0.10225 0.67053
 H655 H 1.15092 0.12398 0.61913
 H656 H 1.13487 0.09789 0.58060
 H657 H 1.03924 0.06848 0.64491
 H658 H 1.02771 0.03914 0.60735
 H659 H 1.10127 0.06699 0.55987
 C660 C 0.81223 -0.11770 0.62399
 C661 C 0.84065 -0.12367 0.61518
 C662 C 0.85172 -0.14968 0.62233
 C663 C 0.83521 -0.16839 0.63814
 C664 C 0.80765 -0.16167 0.64785
 C665 C 0.79615 -0.13637 0.64004
 C666 C 0.87948 -0.15682 0.61422
 C667 C 0.89719 -0.13829 0.60025
 C668 C 0.88776 -0.11170 0.59367
 C669 C 0.85866 -0.10460 0.60023
 C670 C 0.84870 -0.07861 0.59188
 C671 C 0.86670 -0.05987 0.57850
 C672 C 0.89544 -0.06599 0.57322
 C673 C 0.90648 -0.09195 0.58076
 C674 C 0.93604 -0.09678 0.57565
 C675 C 0.95360 -0.07682 0.56343
 C676 C 0.94247 -0.05139 0.55580
 C677 C 0.91332 -0.04611 0.56067
 H678 H 0.80196 -0.09853 0.61956
 H679 H 0.84433 -0.18803 0.64341
 H680 H 0.77490 -0.13046 0.64697
 H681 H 0.88787 -0.17687 0.61917
 H682 H 0.91826 -0.14561 0.59479
 H683 H 0.82691 -0.07206 0.59525
 H684 H 0.85809 -0.04014 0.57259
 H685 H 0.94652 -0.11554 0.58131
 H686 H 0.97613 -0.08132 0.56006
 H687 H 0.90458 -0.02639 0.55494
 C688 C 1.10636 -0.11051 0.30445
 C689 C 1.11996 -0.10188 0.32909
 C690 C 1.14838 -0.11104 0.33383
 C691 C 1.16258 -0.12736 0.31429
 C692 C 1.14899 -0.13524 0.28979
 C693 C 1.12069 -0.12687 0.28522
 C694 C 1.16265 -0.10384 0.35800
 C695 C 1.14935 -0.08786 0.37791
 C696 C 1.12109 -0.07815 0.37433
 C697 C 1.10639 -0.08469 0.34919
 C698 C 1.07886 -0.07348 0.34483
 C699 C 1.06597 -0.05673 0.36440
 C700 C 1.07966 -0.05083 0.38932
 C701 C 1.10721 -0.06178 0.39489
 C702 C 1.11957 -0.05612 0.42106
 C703 C 1.10539 -0.03996 0.44045
 C704 C 1.07852 -0.02871 0.43453
 C705 C 1.06578 -0.03416 0.40885
 H706 H 1.08460 -0.10519 0.29941
 H707 H 1.18429 -0.13409 0.31838
 H708 H 1.10956 -0.13263 0.26649
 H709 H 1.18443 -0.11067 0.36163
 H710 H 1.16220 -0.08304 0.39569
 H711 H 1.06677 -0.07684 0.32617
 H712 H 1.04489 -0.04846 0.36003
 H713 H 1.13991 -0.06424 0.42758
 H714 H 1.11561 -0.03624 0.46026
 H715 H 1.04475 -0.02588 0.40429
 C716 C 0.89766 0.15713 0.34002
 C717 C 0.88803 0.13156 0.35053
 C718 C 0.86277 0.12058 0.33901
 C719 C 0.84896 0.13400 0.31677
 C720 C 0.85934 0.15887 0.30616
 C721 C 0.88342 0.17051 0.31831
 C722 C 0.85145 0.09622 0.34964
 C723 C 0.86458 0.08241 0.37160
 C724 C 0.89019 0.09208 0.38335
 C725 C 0.90254 0.11665 0.37205
 C726 C 0.92942 0.12509 0.38202
 C727 C 0.94366 0.11030 0.40249
 C728 C 0.93153 0.08684 0.41428
 C729 C 0.90437 0.07758 0.40544
 C730 C 0.89271 0.05415 0.41913
 C731 C 0.90804 0.04007 0.43979
 C732 C 0.93530 0.04887 0.44739
 C733 C 0.94674 0.07242 0.43476
 H734 H 0.91589 0.16757 0.34828
 H735 H 0.82989 0.12517 0.30788
 H736 H 0.89175 0.18982 0.31061
 H737 H 0.83211 0.08775 0.34093
 H738 H 0.85452 0.06367 0.37836
 H739 H 0.94064 0.14268 0.37378
 H740 H 0.96450 0.11734 0.40915
 H741 H 0.87177 0.04628 0.41454
 H742 H 0.89874 0.02200 0.44950
 H743 H 0.96773 0.07959 0.44083
 C744 C 0.06738 0.29122 -0.08136
 C745 C 0.07970 0.31670 -0.07530
 C746 C 0.10956 0.32015 -0.08038
 C747 C 0.12622 0.29867 -0.09064
 C748 C 0.11336 0.27406 -0.09759
 C749 C 0.08396 0.27043 -0.09266
 C750 C 0.12240 0.34533 -0.07631
 C751 C 0.10591 0.36779 -0.06937
 C752 C 0.07594 0.36562 -0.06533
 C753 C 0.06310 0.33928 -0.06603
 C754 C 0.03406 0.33648 -0.05775
 C755 C 0.01743 0.35899 -0.05142
 C756 C 0.02884 0.38511 -0.05389
 C757 C 0.05827 0.38888 -0.06083
 C758 C 0.06846 0.41585 -0.06430
 C759 C 0.05010 0.43798 -0.06103
 C760 C 0.02118 0.43403 -0.05387
 C761 C 0.01077 0.40754 -0.04998
 H762 H 0.04474 0.28720 -0.07904
 H763 H 0.14892 0.30170 -0.09488
 H764 H 0.07364 0.25152 -0.09795
 H765 H 0.14529 0.34798 -0.07963
 H766 H 0.11733 0.38663 -0.06697
 H767 H 0.02365 0.31698 -0.05560
 H768 H -0.00488 0.35595 -0.04542
 H769 H 0.09026 0.42052 -0.07048
 H770 H 0.05866 0.45833 -0.06391
 H771 H -0.01163 0.40433 -0.04443
 C772 C -0.10487 0.35830 0.16848
 C773 C -0.11735 0.37564 0.14800
 C774 C -0.14548 0.36931 0.13919
 C775 C -0.15956 0.34582 0.14928
 C776 C -0.14636 0.32831 0.16858
 C777 C -0.11920 0.33511 0.17853
 C778 C -0.15935 0.38615 0.11994
 C779 C -0.14551 0.40856 0.10810
 C780 C -0.11682 0.41481 0.11465
 C781 C -0.10265 0.39841 0.13534
 C782 C -0.07388 0.40460 0.14171
 C783 C -0.05878 0.42469 0.12698
 C784 C -0.07177 0.43974 0.10566
 C785 C -0.10131 0.43592 0.10003
 C786 C -0.11369 0.45256 0.07893
 C787 C -0.09677 0.46976 0.06215
 C788 C -0.06715 0.47148 0.06616
 C789 C -0.05501 0.45760 0.08893
 H790 H -0.08398 0.36185 0.17704
 H791 H -0.18084 0.34111 0.14190
 H792 H -0.10851 0.32208 0.19363
 H793 H -0.18103 0.38166 0.11351
 H794 H -0.15777 0.42003 0.09306
 H795 H -0.06191 0.39358 0.15733
 H796 H -0.03637 0.42789 0.13178
 H797 H -0.13618 0.45221 0.07413
 H798 H -0.10678 0.48092 0.04513
 H799 H -0.03214 0.45921 0.09245
 C800 C -0.14777 0.64477 -0.19453
 C801 C -0.14747 0.64348 -0.16489
 C802 C -0.16579 0.66147 -0.15016
 C803 C -0.18418 0.67924 -0.16470
 C804 C -0.18375 0.68049 -0.19400
 C805 C -0.16543 0.66316 -0.20872
 C806 C -0.16521 0.66210 -0.12101
 C807 C -0.14603 0.64606 -0.10607
 C808 C -0.12713 0.62804 -0.11973
 C809 C -0.12902 0.62562 -0.14945
 C810 C -0.11267 0.60525 -0.16267
 C811 C -0.09435 0.58844 -0.14756
 C812 C -0.09086 0.59175 -0.11888
 C813 C -0.10674 0.61196 -0.10461
 C814 C -0.10105 0.61562 -0.07589
 C815 C -0.08115 0.59931 -0.06190
 C816 C -0.06649 0.57862 -0.07585
 C817 C -0.07144 0.57497 -0.10439
 H818 H -0.13386 0.63258 -0.20739
 H819 H -0.19790 0.69301 -0.15317
 H820 H -0.16465 0.66391 -0.23139
 H821 H -0.17935 0.67560 -0.10961
 H822 H -0.14703 0.64775 -0.08362
 H823 H -0.11415 0.60125 -0.18470
 H824 H -0.08242 0.57292 -0.15856
 H825 H -0.11113 0.63129 -0.06375
 H826 H -0.07758 0.60266 -0.03986
 H827 H -0.05985 0.55926 -0.11546
 C828 C 0.09541 0.71103 0.10726
 C829 C 0.10466 0.68510 0.09854
 C830 C 0.13275 0.67672 0.10585
 C831 C 0.15081 0.69406 0.12078
 C832 C 0.14104 0.71956 0.12937
 C833 C 0.11328 0.72779 0.12238
 C834 C 0.14250 0.65095 0.09860
 C835 C 0.12477 0.63296 0.08484
 C836 C 0.09657 0.64025 0.07725
 C837 C 0.08676 0.66712 0.08336
 C838 C 0.05942 0.67522 0.07397
 C839 C 0.04173 0.65750 0.06014
 C840 C 0.05036 0.63094 0.05520
 C841 C 0.07782 0.62173 0.06360
 C842 C 0.08499 0.59425 0.05831
 C843 C 0.06569 0.57697 0.04514
 C844 C 0.03880 0.58653 0.03677
 C845 C 0.03138 0.61353 0.04189
 H846 H 0.07426 0.71891 0.10337
 H847 H 0.17218 0.68737 0.12636
 H848 H 0.10518 0.74746 0.12850
 H849 H 0.16399 0.64444 0.10397
 H850 H 0.13399 0.61348 0.08013
 H851 H 0.05100 0.69539 0.07658
 H852 H 0.02088 0.66467 0.05343
 H853 H 0.10512 0.58533 0.06440
 H854 H 0.07186 0.55610 0.04148
 H855 H 0.01048 0.62107 0.03575
 C856 C 0.29917 1.09284 0.91418
 C857 C 0.32430 1.10424 0.92536
 C858 C 0.32971 1.13225 0.92010
 C859 C 0.30988 1.14826 0.90517
 C860 C 0.28548 1.13635 0.89384
 C861 C 0.28033 1.10864 0.89847
 C862 C 0.35526 1.14387 0.92898
 C863 C 0.37640 1.12791 0.94137
 C864 C 0.37224 1.09980 0.94634
 C865 C 0.34491 1.08835 0.94021
 C866 C 0.33911 1.06135 0.94894
 C867 C 0.36025 1.04513 0.96064
 C868 C 0.38805 1.05499 0.96354
 C869 C 0.39449 1.08254 0.95683
 C870 C 0.42331 1.09118 0.95947
 C871 C 0.44482 1.07284 0.96724
 C872 C 0.43825 1.04554 0.97303
 C873 C 0.40965 1.03704 0.97212
 H874 H 0.29410 1.07152 0.91608
 H875 H 0.31407 1.16967 0.90123
 H876 H 0.26155 1.09908 0.88986
 H877 H 0.35942 1.16533 0.92537
 H878 H 0.39574 1.13826 0.94720
 H879 H 0.31820 1.05221 0.94724
 H880 H 0.35503 1.02431 0.96651
 H881 H 0.43017 1.11161 0.95437
 H882 H 0.46679 1.07994 0.96808
 H883 H 0.40430 1.01597 0.97678
 C884 C 0.37855 0.82079 1.13874
 C885 C 0.38910 0.84598 1.14816
 C886 C 0.37643 0.85673 1.17270
 C887 C 0.35309 0.84356 1.18598
 C888 C 0.34129 0.81987 1.17490
 C889 C 0.35504 0.80813 1.15184
 C890 C 0.38622 0.88124 1.18323
 C891 C 0.40689 0.89648 1.16883
 C892 C 0.41861 0.88776 1.14312
 C893 C 0.41061 0.86149 1.13333
 C894 C 0.42342 0.85215 1.10835
 C895 C 0.44118 0.86878 1.09207
 C896 C 0.44712 0.89523 1.10007
 C897 C 0.43699 0.90488 1.12618
 C898 C 0.44448 0.93181 1.13338
 C899 C 0.45927 0.94890 1.11442
 C900 C 0.46704 0.93969 1.08787
 C901 C 0.46204 0.91251 1.08136
 H902 H 0.38721 0.81069 1.12071
 H903 H 0.34329 0.85278 1.20413
 H904 H 0.34716 0.78943 1.14320
 H905 H 0.37706 0.88925 1.20236
 H906 H 0.41269 0.91542 1.17813
 H907 H 0.41959 0.83223 1.10027
 H908 H 0.44956 0.86112 1.07245
 H909 H 0.43830 0.94070 1.15298
 H910 H 0.46319 0.96982 1.11995
 H911 H 0.46860 0.90511 1.06100
 C912 C 0.72765 1.10489 1.09609
 C913 C 0.70093 1.11434 1.08608
 C914 C 0.69349 1.14182 1.09107
 C915 C 0.71218 1.15886 1.10555
 C916 C 0.73783 1.14868 1.11651
 C917 C 0.74556 1.12175 1.11123
 C918 C 0.66692 1.15184 1.08262
 C919 C 0.64664 1.13472 1.07123
 C920 C 0.65245 1.10690 1.06720
 C921 C 0.68073 1.09708 1.07276
 C922 C 0.68768 1.07023 1.06525
 C923 C 0.66704 1.05280 1.05502
 C924 C 0.63860 1.06119 1.05249
 C925 C 0.63086 1.08842 1.05826
 C926 C 0.60150 1.09557 1.05630
 C927 C 0.58080 1.07625 1.04983
 C928 C 0.58859 1.04930 1.04473
 C929 C 0.61768 1.04215 1.04521
 H930 H 0.73475 1.08421 1.09381
 H931 H 0.70589 1.17962 1.10976
 H932 H 0.76538 1.11345 1.11931
 H933 H 0.66132 1.17295 1.08578
 H934 H 0.62652 1.14396 1.06559
 H935 H 0.70907 1.06208 1.06688
 H936 H 0.67322 1.03218 1.05004
 H937 H 0.59362 1.11559 1.06094
 H938 H 0.55847 1.08235 1.04939
 H939 H 0.62398 1.02135 1.04122
 C940 C 0.63110 0.88015 0.81483
 C941 C 0.61962 0.87158 0.84112
 C942 C 0.62631 0.84490 0.85067
 C943 C 0.64382 0.82781 0.83449
 C944 C 0.65548 0.83685 0.80875
 C945 C 0.64866 0.86310 0.79908
 C946 C 0.61592 0.83548 0.87656
 C947 C 0.60003 0.85230 0.89387
 C948 C 0.59365 0.87939 0.88587
 C949 C 0.60258 0.88882 0.85858
 C950 C 0.59448 0.91526 0.84982
 C951 C 0.57987 0.93256 0.86766
 C952 C 0.57286 0.92438 0.89497
 C953 C 0.57917 0.89756 0.90442
 C954 C 0.57170 0.89047 0.93247
 C955 C 0.55990 0.90960 0.95051
 C956 C 0.55478 0.93629 0.94126
 C957 C 0.56043 0.94328 0.91319
 H958 H 0.62760 0.90015 0.80603
 H959 H 0.64859 0.80753 0.84226
 H960 H 0.65736 0.87095 0.77946
 H961 H 0.62062 0.81497 0.88382
 H962 H 0.59306 0.84334 0.91353
 H963 H 0.59918 0.92339 0.82920
 H964 H 0.57465 0.95288 0.86017
 H965 H 0.57558 0.87065 0.94152
 H966 H 0.55547 0.90359 0.97207
 H967 H 0.55646 0.96389 0.90580
   
