data_POSCAR
  _audit_creation_date              2014-09-24
  _audit_creation_method            'ToBaCCo'
  _symmetry_space_group_name_H-M    'P1'
  _symmetry_Int_Tables_number       1
  _symmetry_cell_setting            triclinic
  loop_
  _symmetry_equiv_pos_as_xyz
 x,y,z
_cell_length_a 37.1358
_cell_length_b 38.1045
_cell_length_c 36.2016
_cell_angle_alpha 91.277500
_cell_angle_beta 89.018100
_cell_angle_gamma 91.945000
loop_
  _atom_site_label
  _atom_site_type_symbol
  _atom_site_fract_x
  _atom_site_fract_y
  _atom_site_fract_z
C1 C 0.18685 0.19172 0.22791
 N2 N 0.17176 0.21951 0.21216
 C3 C 0.18620 0.23367 0.18091
 N4 N 0.21599 0.21947 0.16504
 C5 C 0.23157 0.19169 0.18058
 N6 N 0.21679 0.17824 0.21199
 C7 C -0.20691 0.80160 0.24364
 N8 N -0.23447 0.81581 0.22572
 C9 C -0.24404 0.80436 0.19140
 N10 N -0.22571 0.77781 0.17496
 C11 C -0.19827 0.76285 0.19262
 N12 N -0.18889 0.77507 0.22682
 C13 C -0.22368 0.22057 -0.27387
 N14 N -0.25352 0.20628 -0.25740
 C15 C -0.26636 0.21909 -0.22467
 N16 N -0.24878 0.24718 -0.20832
 C17 C -0.21901 0.26230 -0.22482
 N18 N -0.20650 0.24853 -0.25736
 C19 C 0.20136 0.79825 -0.25286
 N20 N 0.18803 0.76746 -0.23949
 C21 C 0.20591 0.75007 -0.21349
 N22 N 0.23755 0.76413 -0.20028
 C23 C 0.25157 0.79488 -0.21388
 N24 N 0.23321 0.81141 -0.24011
 C25 C 0.20418 1.20130 0.77411
 N26 N 0.23303 1.18639 0.78944
 C27 C 0.24818 1.20039 0.82069
 N28 N 0.23400 1.22957 0.83676
 C29 C 0.20522 1.24493 0.82186
 N30 N 0.19069 1.23055 0.79057
 C31 C 0.81381 0.79888 0.77159
 N32 N 0.82668 0.76956 0.78686
 C33 C 0.81023 0.75487 0.81698
 N34 N 0.78050 0.77004 0.83185
 C35 C 0.76715 0.79927 0.81707
 N36 N 0.78398 0.81349 0.78700
 C37 C 0.20645 0.78982 1.25448
 N38 N 0.19394 0.75854 1.23994
 C39 C 0.21152 0.74259 1.21129
 N40 N 0.24180 0.75827 1.19706
 C41 C 0.25480 0.78944 1.21091
 N42 N 0.23693 0.80519 1.23959
 C43 C 0.80812 1.20213 1.25869
 N44 N 0.77677 1.18730 1.24552
 C45 C 0.75826 1.20317 1.21883
 N46 N 0.77143 1.23389 1.20522
 C47 C 0.80267 1.24908 1.21741
 N48 N 0.82095 1.23299 1.24423
 O49 O 0.52472 0.95557 0.94509
 O50 O 0.46670 0.96870 1.07099
 O51 O 0.57756 0.99135 1.03327
 O52 O 0.45926 0.95368 0.95504
 O53 O 0.53486 0.96630 1.06814
 O54 O 0.47755 0.98228 0.90653
 O55 O 0.45698 0.94258 1.01937
 O56 O 0.57324 0.98218 0.96602
 C57 C 0.55799 0.95585 0.95026
 C58 C 0.45529 0.94243 1.05343
 C59 C 0.56698 0.96863 1.05664
 C60 C 0.45547 0.95909 0.92095
 O61 O 0.48303 1.04063 0.94301
 O62 O 0.53888 1.03292 1.07463
 O63 O 0.54955 1.05053 0.96200
 O64 O 0.43062 1.00822 1.03403
 O65 O 0.47159 1.03644 1.06742
 O66 O 0.54023 1.01529 0.91801
 O67 O 0.43492 1.01964 0.96838
 O68 O 0.55427 1.05846 1.02499
 Co69 Co 0.50261 0.99780 0.94647
 Co70 Co 0.50304 1.00118 1.06364
 Co71 Co 0.55918 1.01901 0.99676
 Co72 Co 0.45047 0.98285 0.99488
 O73 O 0.50533 1.00158 1.00259
 C74 C 0.45047 1.04317 0.95007
 C75 C 0.55394 1.05801 1.05895
 C76 C 0.55440 1.04336 0.92892
 C77 C 0.44006 1.03315 1.05588
 O78 O 0.03279 0.46787 0.06817
 O79 O 0.01775 0.52487 -0.09325
 O80 O 0.01687 0.43195 -0.03372
 O81 O 0.05883 0.54494 0.01963
 O82 O 0.04489 0.47905 -0.05399
 O83 O 0.03269 0.53430 0.07136
 O84 O 0.04692 0.54281 -0.04461
 O85 O 0.00575 0.42736 0.03290
 C86 C 0.02929 0.43671 0.05647
 C87 C 0.04114 0.54674 -0.07860
 C88 C 0.04439 0.44670 -0.04851
 C89 C 0.05948 0.54551 0.05371
 O90 O -0.03702 0.53193 0.06818
 O91 O -0.01583 0.46415 -0.08245
 O92 O -0.06201 0.45178 0.02364
 O93 O -0.02045 0.56696 -0.03095
 O94 O -0.04196 0.52021 -0.05728
 O95 O -0.03587 0.46617 0.07386
 O96 O -0.00770 0.57136 0.03487
 O97 O -0.05287 0.45613 -0.03942
 Co98 Co -0.00197 0.50006 0.06378
 Co99 Co 0.00174 0.50075 -0.05333
 Co100 Co -0.02139 0.44614 -0.00393
 Co101 Co 0.01740 0.55160 -0.00465
 O102 O -0.00251 0.49826 0.00274
 C103 C -0.03256 0.56284 0.05764
 C104 C -0.04478 0.45040 -0.07217
 C105 C -0.06171 0.45193 0.05766
 C106 C -0.04438 0.55198 -0.04995
 O107 O 1.06655 0.03764 0.47310
 O108 O 0.92032 0.01271 0.54275
 O109 O 0.96976 0.02129 0.43508
 O110 O 1.02403 0.05749 0.55799
 O111 O 0.94491 0.04028 0.48484
 O112 O 1.07290 0.03342 0.54220
 O113 O 0.96267 0.04875 0.55307
 O114 O 1.03391 0.01025 0.43064
 C115 C 1.05590 0.03464 0.44058
 C116 C 0.93033 0.04092 0.55719
 C117 C 0.95161 0.04394 0.45150
 C118 C 1.05715 0.05770 0.55815
 O119 O 1.06680 -0.03342 0.53746
 O120 O 0.90933 -0.01801 0.47867
 O121 O 1.01922 -0.05604 0.45626
 O122 O 0.96705 -0.02022 0.57629
 O123 O 0.94728 -0.04603 0.52602
 O124 O 1.06980 -0.03020 0.46768
 O125 O 1.03249 -0.00984 0.58125
 O126 O 0.95637 -0.04556 0.45861
 Co127 Co 1.06252 0.00188 0.50512
 Co128 Co 0.94844 -0.00307 0.50420
 Co129 Co 0.99546 -0.01578 0.45041
 Co130 Co 0.99678 0.01752 0.56252
 O131 O 1.00297 0.00147 0.50710
 C132 C 1.05559 -0.03181 0.57034
 C133 C 0.92309 -0.04022 0.45530
 C134 C 1.05247 -0.05604 0.45485
 C135 C 0.95199 -0.04647 0.56020
 C136 C 1.16820 0.12793 0.30254
 C137 C 1.13511 0.13921 0.31629
 C138 C 1.12011 0.16925 0.30236
 C139 C 1.13775 0.18747 0.27387
 C140 C 1.17056 0.17560 0.25875
 C141 C 1.18587 0.14594 0.27408
 C142 C 1.11607 0.11874 0.34351
 C143 C 1.10089 0.10036 0.36581
 C144 C 1.08416 0.07784 0.39159
 C145 C 1.07077 0.05814 0.41375
 H146 H 1.18002 0.10471 0.31329
 H147 H 1.09446 0.17816 0.31297
 H148 H 1.12511 0.21023 0.26311
 H149 H 1.21114 0.13598 0.26364
 C150 C 0.84951 -0.17738 0.32574
 C151 C 0.83236 -0.14787 0.34023
 C152 C 0.80039 -0.13728 0.32483
 C153 C 0.78645 -0.15505 0.29388
 C154 C 0.80451 -0.18367 0.27760
 C155 C 0.83561 -0.19536 0.29477
 C156 C 0.84947 -0.12615 0.36814
 C157 C 0.86465 -0.10681 0.38995
 C158 C 0.88356 -0.08346 0.41387
 C159 C 0.90090 -0.06347 0.43323
 H160 H 0.87439 -0.18569 0.33749
 H161 H 0.78697 -0.11440 0.33584
 H162 H 0.76222 -0.14537 0.28201
 H163 H 0.85018 -0.21739 0.28346
 C164 C 0.84567 0.18943 0.65631
 C165 C 0.82787 0.15947 0.64158
 C166 C 0.79181 0.15213 0.65106
 C167 C 0.77418 0.17353 0.67686
 C168 C 0.79255 0.20245 0.69368
 C169 C 0.82808 0.21094 0.68212
 C170 C 0.84771 0.13416 0.62036
 C171 C 0.86506 0.11230 0.60437
 C172 C 0.88641 0.08661 0.58724
 C173 C 0.90577 0.06517 0.57337
 H174 H 0.87367 0.19523 0.64920
 H175 H 0.77784 0.12895 0.63985
 H176 H 0.74673 0.16638 0.68490
 H177 H 0.84297 0.23300 0.69448
 C178 C 1.17412 -0.12896 0.68818
 C179 C 1.13955 -0.14063 0.67813
 C180 C 1.12607 -0.17349 0.68925
 C181 C 1.14688 -0.19435 0.71124
 C182 C 1.18145 -0.18241 0.72253
 C183 C 1.19497 -0.14961 0.71012
 C184 C 1.11815 -0.11843 0.65659
 C185 C 1.10151 -0.09889 0.63828
 C186 C 1.08372 -0.07542 0.61608
 C187 C 1.07003 -0.05528 0.59596
 H188 H 1.18483 -0.10361 0.67943
 H189 H 1.09934 -0.18279 0.68133
 H190 H 1.13547 -0.21942 0.71996
 H191 H 1.22142 -0.13941 0.71784
 C192 C 0.30438 1.12873 1.16273
 C193 C 0.31744 1.13938 1.12825
 C194 C 0.30331 1.16864 1.11170
 C195 C 0.27548 1.18678 1.12935
 C196 C 0.26129 1.17557 1.16369
 C197 C 0.27664 1.14659 1.18034
 C198 C 0.34437 1.11900 1.10982
 C199 C 0.36649 1.10034 1.09586
 C200 C 0.39202 1.07729 1.08102
 C201 C 0.41383 1.05711 1.06924
 H202 H 0.31524 1.10614 1.17578
 H203 H 0.31337 1.17706 1.08495
 H204 H 0.26461 1.20897 1.11563
 H205 H 0.26695 1.13710 1.20681
 C206 C 0.33037 0.81646 0.84638
 C207 C 0.34265 0.84837 0.83137
 C208 C 0.32638 0.86092 0.80009
 C209 C 0.29713 0.84256 0.78457
 C210 C 0.28334 0.81106 0.80010
 C211 C 0.30104 0.79773 0.83070
 C212 C 0.36983 0.87010 0.84933
 C213 C 0.39123 0.88998 0.86422
 C214 C 0.41482 0.91431 0.88221
 C215 C 0.43391 0.93515 0.89884
 H216 H 0.34279 0.80657 0.87074
 H217 H 0.33564 0.88558 0.78827
 H218 H 0.28489 0.85375 0.76078
 H219 H 0.29151 0.77360 0.84340
 C220 C 0.68656 0.86873 1.17061
 C221 C 0.67949 0.86029 1.13368
 C222 C 0.69625 0.83191 1.11625
 C223 C 0.72083 0.81251 1.13557
 C224 C 0.72912 0.82155 1.17255
 C225 C 0.71105 0.84960 1.18994
 C226 C 0.65581 0.88182 1.11389
 C227 C 0.63601 0.90112 1.09888
 C228 C 0.61264 0.92459 1.08297
 C229 C 0.59218 0.94486 1.07050
 H230 H 0.67357 0.89060 1.18436
 H231 H 0.69080 0.82515 1.08762
 H232 H 0.73392 0.79110 1.12117
 H233 H 0.71623 0.85740 1.21836
 C234 C 0.66149 1.15138 0.79392
 C235 C 0.65211 1.15953 0.83051
 C236 C 0.66762 1.18937 0.84804
 C237 C 0.69352 1.21027 0.82938
 C238 C 0.70458 1.20122 0.79303
 C239 C 0.68734 1.17197 0.77530
 C240 C 0.62873 1.13552 0.85054
 C241 C 0.61028 1.11428 0.86706
 C242 C 0.58983 1.08889 0.88689
 C243 C 0.57322 1.06752 0.90505
 H244 H 0.64963 1.12839 0.78007
 H245 H 0.66051 1.19588 0.87646
 H246 H 0.70583 1.23258 0.84399
 H247 H 0.69446 1.16414 0.74724
 C248 C 0.12018 0.30480 0.16430
 C249 C 0.13144 0.31644 0.12952
 C250 C 0.16146 0.30194 0.11187
 C251 C 0.17989 0.27540 0.12882
 C252 C 0.16831 0.26306 0.16356
 C253 C 0.13844 0.27833 0.18124
 C254 C 0.11130 0.34261 0.11189
 C255 C 0.09332 0.36428 0.09807
 C256 C 0.07137 0.38945 0.08290
 C257 C 0.05220 0.41097 0.07058
 H258 H 0.09697 0.31591 0.17816
 H259 H 0.17034 0.31083 0.08488
 H260 H 0.20275 0.26420 0.11447
 H261 H 0.12884 0.26961 0.20802
 C262 C -0.18625 0.32926 -0.15244
 C263 C -0.15584 0.34413 -0.17032
 C264 C -0.14720 0.33344 -0.20648
 C265 C -0.16831 0.30751 -0.22445
 C266 C -0.19847 0.29172 -0.20647
 C267 C -0.20751 0.30328 -0.17040
 C268 C -0.13238 0.36896 -0.15104
 C269 C -0.11215 0.38896 -0.13459
 C270 C -0.08823 0.41146 -0.11448
 C271 C -0.06803 0.42978 -0.09608
 H272 H -0.19314 0.33727 -0.12437
 H273 H -0.12371 0.34469 -0.22058
 H274 H -0.16057 0.29942 -0.25225
 H275 H -0.23047 0.29172 -0.15573
 C276 C 0.18114 0.67549 -0.14899
 C277 C 0.15147 0.65982 -0.16714
 C278 C 0.14151 0.67204 -0.20145
 C279 C 0.16021 0.70055 -0.21703
 C280 C 0.18924 0.71741 -0.19848
 C281 C 0.20009 0.70407 -0.16465
 C282 C 0.12931 0.63312 -0.14961
 C283 C 0.10946 0.61181 -0.13488
 C284 C 0.08543 0.58803 -0.11696
 C285 C 0.06489 0.56866 -0.10042
 H286 H 0.18897 0.66629 -0.12228
 H287 H 0.11858 0.66017 -0.21571
 H288 H 0.15131 0.70991 -0.24327
 H289 H 0.22225 0.71649 -0.14968
 C290 C -0.12793 0.69462 0.17395
 C291 C -0.13604 0.68367 0.13784
 C292 C -0.16501 0.69793 0.11984
 C293 C -0.18563 0.72337 0.13780
 C294 C -0.17745 0.73488 0.17402
 C295 C -0.14847 0.72003 0.19196
 C296 C -0.11432 0.65802 0.11927
 C297 C -0.09576 0.63653 0.10421
 C298 C -0.07377 0.61123 0.08724
 C299 C -0.05491 0.58933 0.07336
 H300 H -0.10557 0.68368 0.18812
 H301 H -0.17151 0.68957 0.09187
 H302 H -0.20772 0.73422 0.12316
 H303 H -0.14140 0.72822 0.21982
 C304 C 1.18237 0.13922 0.69555
 C305 C 1.15177 0.15426 0.68137
 C306 C 1.13944 0.18554 0.69714
 C307 C 1.15713 0.20141 0.72728
 C308 C 1.18759 0.18618 0.74245
 C309 C 1.20021 0.15501 0.72573
 C310 C 1.13187 0.13663 0.65204
 C311 C 1.11473 0.12100 0.62843
 C312 C 1.09439 0.10122 0.60205
 C313 C 1.07713 0.08257 0.58098
 H314 H 1.19213 0.11491 0.68366
 H315 H 1.11573 0.19741 0.68652
 H316 H 1.14643 0.22539 0.73897
 H317 H 1.22350 0.14237 0.73626
 C318 C 0.88159 -0.18317 0.69597
 C319 C 0.86857 -0.15244 0.68135
 C320 C 0.83689 -0.13851 0.69608
 C321 C 0.81856 -0.15479 0.72548
 C322 C 0.83161 -0.18549 0.74095
 C323 C 0.86330 -0.19963 0.72541
 C324 C 0.88825 -0.13407 0.65243
 C325 C 0.90417 -0.11711 0.62908
 C326 C 0.92205 -0.09511 0.60299
 C327 C 0.93639 -0.07424 0.58229
 H328 H 0.90615 -0.19419 0.68493
 H329 H 0.82655 -0.11468 0.68512
 H330 H 0.79435 -0.14293 0.73627
 H331 H 0.87437 -0.22316 0.73622
 C332 C 1.17938 -0.14336 0.32600
 C333 C 1.14728 -0.15872 0.33984
 C334 C 1.13539 -0.19161 0.32606
 C335 C 1.15517 -0.20885 0.29828
 C336 C 1.18731 -0.19342 0.28357
 C337 C 1.19927 -0.16049 0.29821
 C338 C 1.12589 -0.13999 0.36702
 C339 C 1.10810 -0.12330 0.38898
 C340 C 1.08767 -0.10214 0.41361
 C341 C 1.07097 -0.08230 0.43337
 H342 H 1.18885 -0.11786 0.33636
 H343 H 1.11055 -0.20376 0.33645
 H344 H 1.14487 -0.23412 0.28810
 H345 H 1.22376 -0.14759 0.28796
 C346 C 0.83380 0.13602 0.32750
 C347 C 0.86658 0.15049 0.34017
 C348 C 0.87970 0.18251 0.32621
 C349 C 0.86032 0.19981 0.29956
 C350 C 0.82738 0.18529 0.28623
 C351 C 0.81438 0.15315 0.30088
 C352 C 0.88700 0.13164 0.36653
 C353 C 0.90340 0.11443 0.38789
 C354 C 0.92164 0.09233 0.41186
 C355 C 0.93611 0.07150 0.43097
 H356 H 0.82335 0.11121 0.33796
 H357 H 0.90508 0.19399 0.33568
 H358 H 0.87144 0.22442 0.28926
 H359 H 0.78926 0.14091 0.29169
 C360 C 0.18623 0.31721 -0.10963
 C361 C 0.15602 0.33171 -0.12522
 C362 C 0.14310 0.31822 -0.15886
 C363 C 0.15971 0.29001 -0.17660
 C364 C 0.18975 0.27455 -0.16096
 C365 C 0.20308 0.28893 -0.12738
 C366 C 0.13674 0.35914 -0.10623
 C367 C 0.11861 0.38121 -0.09134
 C368 C 0.09509 0.40579 -0.07512
 C369 C 0.07304 0.42540 -0.06233
 H370 H 0.19641 0.32736 -0.08350
 H371 H 0.11968 0.32916 -0.17116
 H372 H 0.14852 0.28012 -0.20238
 H373 H 0.22611 0.27803 -0.11435
 C374 C -0.13532 0.32400 0.19102
 C375 C -0.15461 0.33846 0.16245
 C376 C -0.18874 0.32455 0.15378
 C377 C -0.20318 0.29571 0.17270
 C378 C -0.18363 0.27998 0.20075
 C379 C -0.14974 0.29508 0.21020
 C380 C -0.13849 0.36581 0.14017
 C381 C -0.12422 0.38762 0.12065
 C382 C -0.10568 0.41181 0.09756
 C383 C -0.08733 0.43109 0.07850
 H384 H -0.10875 0.33455 0.19789
 H385 H -0.20389 0.33545 0.13169
 H386 H -0.22947 0.28536 0.16458
 H387 H -0.13384 0.28403 0.23160
 C388 C -0.17714 0.68164 -0.11788
 C389 C -0.14577 0.66699 -0.13242
 C390 C -0.12966 0.68083 -0.16440
 C391 C -0.14443 0.70948 -0.18149
 C392 C -0.17569 0.72500 -0.16679
 C393 C -0.19206 0.71030 -0.13489
 C394 C -0.12879 0.63911 -0.11356
 C395 C -0.11295 0.61673 -0.09795
 C396 C -0.09207 0.59194 -0.08015
 C397 C -0.07182 0.57246 -0.06571
 H398 H -0.18979 0.67128 -0.09304
 H399 H -0.10526 0.66981 -0.17585
 H400 H -0.13093 0.71968 -0.20595
 H401 H -0.21614 0.72117 -0.12259
 C402 C 0.19928 0.66541 0.14427
 C403 C 0.16519 0.65212 0.15479
 C404 C 0.14726 0.66684 0.18544
 C405 C 0.16285 0.69549 0.20482
 C406 C 0.19656 0.70990 0.19361
 C407 C 0.21493 0.69402 0.16357
 C408 C 0.14715 0.62558 0.13231
 C409 C 0.13049 0.60472 0.11317
 C410 C 0.10870 0.58201 0.09105
 C411 C 0.08768 0.56427 0.07310
 H412 H 0.21331 0.65434 0.12049
 H413 H 0.12073 0.65685 0.19369
 H414 H 0.14799 0.70700 0.22779
 H415 H 0.24098 0.70429 0.15423
 C416 C 0.32198 1.13624 0.83810
 C417 C 0.33602 1.14934 0.87151
 C418 C 0.32196 1.17970 0.88784
 C419 C 0.29378 1.19662 0.87110
 C420 C 0.27910 1.18333 0.83775
 C421 C 0.29380 1.15306 0.82132
 C422 C 0.36357 1.13051 0.88968
 C423 C 0.38574 1.11338 0.90455
 C424 C 0.41038 1.09138 0.92141
 C425 C 0.42984 1.07063 0.93507
 H426 H 0.33249 1.11268 0.82523
 H427 H 0.33245 1.19003 0.91377
 H428 H 0.28321 1.21983 0.88456
 H429 H 0.28330 1.14207 0.79569
 C430 C 0.32566 0.85848 1.18269
 C431 C 0.34352 0.84088 1.15372
 C432 C 0.33372 0.80599 1.14499
 C433 C 0.30561 0.78902 1.16442
 C434 C 0.28672 0.80675 1.19290
 C435 C 0.29749 0.84153 1.20225
 C436 C 0.37033 0.85922 1.13150
 C437 C 0.39180 0.87539 1.11250
 C438 C 0.41567 0.89602 1.09048
 C439 C 0.43471 0.91576 1.07261
 H440 H 0.33296 0.88558 1.18961
 H441 H 0.34726 0.79211 1.12261
 H442 H 0.29824 0.76220 1.15652
 H443 H 0.28356 0.85595 1.22395
 C444 C 0.67635 1.18892 1.15870
 C445 C 0.66749 1.15351 1.16437
 C446 C 0.68674 1.13478 1.18996
 C447 C 0.71548 1.15117 1.20899
 C448 C 0.72542 1.18646 1.20238
 C449 C 0.70501 1.20529 1.17755
 C450 C 0.64037 1.13592 1.14202
 C451 C 0.61866 1.12068 1.12252
 C452 C 0.59448 1.10144 1.09945
 C453 C 0.57510 1.08303 1.08026
 H454 H 0.66171 1.20367 1.13895
 H455 H 0.68017 1.10727 1.19448
 H456 H 0.73063 1.13592 1.22783
 H457 H 0.71169 1.23255 1.17191
 C458 C 0.69264 0.86348 0.83658
 C459 C 0.67692 0.85016 0.86902
 C460 C 0.69002 0.81959 0.88392
 C461 C 0.71895 0.80269 0.86673
 C462 C 0.73534 0.81621 0.83439
 C463 C 0.72156 0.84667 0.81937
 C464 C 0.64858 0.86897 0.88775
 C465 C 0.62572 0.88607 0.90312
 C466 C 0.60020 0.90799 0.92058
 C467 C 0.57987 0.92863 0.93471
 H468 H 0.68286 0.88719 0.82483
 H469 H 0.67822 0.80909 0.90909
 H470 H 0.72878 0.77932 0.87911
 H471 H 0.73339 0.85783 0.79454
   
