data_POSCAR
  _audit_creation_date              2014-09-24
  _audit_creation_method            'ToBaCCo'
  _symmetry_space_group_name_H-M    'P1'
  _symmetry_Int_Tables_number       1
  _symmetry_cell_setting            triclinic
  loop_
  _symmetry_equiv_pos_as_xyz
 x,y,z
_cell_length_a 25.7677
_cell_length_b 24.8597
_cell_length_c 24.7475
_cell_angle_alpha 90.270300
_cell_angle_beta 88.958300
_cell_angle_gamma 91.696700
loop_
  _atom_site_label
  _atom_site_type_symbol
  _atom_site_fract_x
  _atom_site_fract_y
  _atom_site_fract_z
N1 N 0.30753 0.23592 0.15881
 N2 N 0.28182 0.27836 0.14467
 C3 C 0.30417 0.29988 0.09984
 C4 C 0.34670 0.26983 0.08572
 C5 C 0.34781 0.22965 0.12412
 H6 H 0.29074 0.33494 0.07915
 H7 H 0.37492 0.19732 0.12560
 Cu8 Cu 0.22233 0.30230 0.18671
 Cu9 Cu 0.28461 0.19018 0.21894
 Cu10 Cu 0.16971 0.22311 0.28438
 N11 N 0.15427 0.31578 0.21804
 N12 N 0.13334 0.28412 0.25538
 C13 C 0.08603 0.30194 0.26908
 C14 C 0.07705 0.34753 0.23909
 C15 C 0.12131 0.35521 0.20720
 H16 H 0.06047 0.28378 0.29944
 H17 H 0.12869 0.38678 0.17790
 N18 N 0.21239 0.16282 0.30721
 N19 N 0.25496 0.14907 0.28070
 C20 C 0.27327 0.10436 0.30315
 C21 C 0.24128 0.08983 0.34634
 C22 C 0.20323 0.12787 0.34807
 H23 H 0.30754 0.08386 0.28944
 H24 H 0.17050 0.12885 0.37599
 H25 H 0.20718 0.20856 0.21149
 H26 H 0.24490 0.24687 0.26359
 N27 N 0.68398 -0.24227 0.16107
 N28 N 0.71657 -0.27557 0.13839
 C29 C 0.69901 -0.29040 0.08952
 C30 C 0.65175 -0.26640 0.08148
 C31 C 0.64327 -0.23650 0.12833
 H32 H 0.71819 -0.31851 0.06294
 H33 H 0.61113 -0.21067 0.13717
 Cu34 Cu 0.77605 -0.30075 0.17738
 Cu35 Cu 0.69957 -0.20695 0.23004
 Cu36 Cu 0.83023 -0.21221 0.26297
 N37 N 0.84178 -0.31485 0.21109
 N38 N 0.86455 -0.27819 0.24164
 C39 C 0.91160 -0.29516 0.25540
 C40 C 0.91823 -0.34622 0.23365
 C41 C 0.87266 -0.35743 0.20601
 H42 H 0.93797 -0.27271 0.28116
 H43 H 0.86344 -0.39284 0.18212
 N44 N 0.78220 -0.16068 0.29642
 N45 N 0.73278 -0.15829 0.28351
 C46 C 0.71114 -0.11780 0.31149
 C47 C 0.74839 -0.09462 0.34446
 C48 C 0.79290 -0.12278 0.33409
 H49 H 0.67137 -0.10574 0.30787
 H50 H 0.83056 -0.11522 0.35164
 H51 H 0.77375 -0.20621 0.20365
 H52 H 0.75990 -0.25203 0.26191
 N53 N 0.68176 0.22970 0.83552
 N54 N 0.71018 0.27139 0.85145
 C55 C 0.69065 0.29014 0.89843
 C56 C 0.64697 0.25924 0.91212
 C57 C 0.64214 0.22140 0.87113
 H58 H 0.70655 0.32423 0.92059
 H59 H 0.61285 0.18949 0.86817
 Cu60 Cu 0.76887 0.29879 0.80859
 Cu61 Cu 0.70006 0.18907 0.77054
 Cu62 Cu 0.82560 0.21447 0.72104
 N63 N 0.83891 0.31270 0.78150
 N64 N 0.86252 0.27752 0.75070
 C65 C 0.91178 0.29508 0.74131
 C66 C 0.91920 0.34471 0.76670
 C67 C 0.87168 0.35451 0.79164
 H68 H 0.93927 0.27438 0.71575
 H69 H 0.86191 0.38854 0.81679
 N70 N 0.78116 0.15342 0.69589
 N71 N 0.73405 0.14301 0.71594
 C72 C 0.71453 0.09798 0.69244
 C73 C 0.75048 0.08007 0.65493
 C74 C 0.79214 0.11613 0.65791
 H75 H 0.67672 0.07980 0.70142
 H76 H 0.82807 0.11459 0.63476
 H77 H 0.77646 0.20373 0.78775
 H78 H 0.75156 0.24155 0.72931
 N79 N 0.32029 -0.22583 0.83847
 N80 N 0.29506 -0.27088 0.85131
 C81 C 0.31622 -0.29184 0.89555
 C82 C 0.35757 -0.25878 0.91061
 C83 C 0.35929 -0.21736 0.87341
 H84 H 0.30240 -0.32826 0.91556
 H85 H 0.38544 -0.18251 0.87335
 Cu86 Cu 0.23660 -0.29829 0.80976
 Cu87 Cu 0.29716 -0.17917 0.78083
 Cu88 Cu 0.18081 -0.21662 0.72182
 N89 N 0.16769 -0.31457 0.78224
 N90 N 0.14491 -0.28055 0.75064
 C91 C 0.09650 -0.29906 0.74063
 C92 C 0.08847 -0.34816 0.76650
 C93 C 0.13498 -0.35682 0.79228
 H94 H 0.06995 -0.27905 0.71466
 H95 H 0.14387 -0.39022 0.81800
 N96 N 0.22293 -0.15346 0.69805
 N97 N 0.26638 -0.13794 0.72180
 C98 C 0.28437 -0.09189 0.69866
 C99 C 0.25116 -0.07858 0.65782
 C100 C 0.21284 -0.11857 0.65837
 H101 H 0.31929 -0.06985 0.71014
 H102 H 0.17944 -0.12113 0.63256
 H103 H 0.22099 -0.20408 0.79298
 H104 H 0.25731 -0.23630 0.73580
 N105 N 0.66050 -0.27963 0.80348
 N106 N 0.69036 -0.31762 0.82088
 C107 C 0.67560 -0.33093 0.87172
 C108 C 0.63354 -0.30031 0.88625
 C109 C 0.62472 -0.26866 0.84181
 H110 H 0.69542 -0.35884 0.89700
 H111 H 0.59750 -0.23646 0.83950
 Cu112 Cu 0.74847 -0.34235 0.77714
 Cu113 Cu 0.67655 -0.23986 0.73746
 Cu114 Cu 0.80457 -0.25052 0.69439
 N115 N 0.81859 -0.35034 0.74922
 N116 N 0.84182 -0.31122 0.72170
 C117 C 0.89266 -0.32102 0.71662
 C118 C 0.90181 -0.36962 0.74142
 C119 C 0.85351 -0.38755 0.76098
 H120 H 0.92075 -0.29459 0.69637
 H121 H 0.84532 -0.42217 0.78639
 N122 N 0.75964 -0.19293 0.67068
 N123 N 0.71094 -0.18851 0.68726
 C124 C 0.69228 -0.14253 0.66771
 C125 C 0.73094 -0.11789 0.63651
 C126 C 0.77289 -0.15070 0.63911
 H127 H 0.65422 -0.12734 0.67694
 H128 H 0.81098 -0.14282 0.62133
 H129 H 0.73235 -0.28654 0.69758
 H130 H 0.75222 -0.24684 0.75828
 N131 N 0.34351 0.27516 0.81061
 N132 N 0.31682 0.31741 0.82466
 C133 C 0.33276 0.33529 0.87328
 C134 C 0.37246 0.30318 0.88950
 C135 C 0.37844 0.26577 0.84874
 H136 H 0.31471 0.36688 0.89648
 H137 H 0.40252 0.23090 0.84975
 Cu138 Cu 0.25950 0.34005 0.78146
 Cu139 Cu 0.32280 0.22732 0.75214
 Cu140 Cu 0.21747 0.26554 0.67733
 N141 N 0.19078 0.34833 0.75274
 N142 N 0.17330 0.31719 0.71362
 C143 C 0.12316 0.32783 0.70506
 C144 C 0.10893 0.36815 0.74051
 C145 C 0.15276 0.38038 0.76999
 H146 H 0.09887 0.30742 0.67573
 H147 H 0.15595 0.40863 0.80324
 N148 N 0.25721 0.20087 0.66113
 N149 N 0.29550 0.18483 0.69131
 C150 C 0.30800 0.13466 0.67629
 C151 C 0.27669 0.11899 0.63411
 C152 C 0.24522 0.16192 0.62521
 H153 H 0.33592 0.11024 0.69615
 H154 H 0.21287 0.16265 0.59801
 H155 H 0.29161 0.28521 0.70536
 H156 H 0.24546 0.24804 0.75158
 N157 N 0.33942 -0.25584 0.18629
 N158 N 0.31373 -0.30050 0.17371
 C159 C 0.33158 -0.31870 0.12569
 C160 C 0.37146 -0.28420 0.10834
 C161 C 0.37549 -0.24496 0.14770
 H162 H 0.31519 -0.35278 0.10387
 H163 H 0.39979 -0.20876 0.14589
 Cu164 Cu 0.25608 -0.32714 0.21857
 Cu165 Cu 0.31794 -0.20945 0.24545
 Cu166 Cu 0.21425 -0.25622 0.32514
 N167 N 0.18724 -0.33982 0.25003
 N168 N 0.16996 -0.31010 0.29019
 C169 C 0.11976 -0.32352 0.30057
 C170 C 0.10523 -0.36424 0.26531
 C171 C 0.14894 -0.37379 0.23395
 H172 H 0.09555 -0.30454 0.33085
 H173 H 0.15179 -0.40138 0.20016
 N174 N 0.25293 -0.18861 0.33983
 N175 N 0.29019 -0.16912 0.30754
 C176 C 0.30190 -0.11808 0.32235
 C177 C 0.27118 -0.10546 0.36656
 C178 C 0.24085 -0.15104 0.37685
 H179 H 0.32899 -0.09121 0.30122
 H180 H 0.20913 -0.15475 0.40595
 H181 H 0.28843 -0.27003 0.29313
 H182 H 0.24109 -0.23630 0.24949
 N183 N 0.65790 0.25326 0.18732
 N184 N 0.68238 0.29929 0.17683
 C185 C 0.66581 0.31849 0.12955
 C186 C 0.62804 0.28310 0.11049
 C187 C 0.62387 0.24232 0.14800
 H188 H 0.68168 0.35400 0.10942
 H189 H 0.60081 0.20544 0.14457
 Cu190 Cu 0.73725 0.32647 0.22289
 Cu191 Cu 0.67814 0.20621 0.24530
 Cu192 Cu 0.77869 0.25332 0.32572
 N193 N 0.80493 0.34029 0.25380
 N194 N 0.82229 0.30969 0.29228
 C195 C 0.87216 0.32378 0.30178
 C196 C 0.88640 0.36580 0.26768
 C197 C 0.84279 0.37545 0.23798
 H198 H 0.89651 0.30414 0.33037
 H199 H 0.83990 0.40361 0.20506
 N200 N 0.74064 0.18470 0.33880
 N201 N 0.70446 0.16529 0.30637
 C202 C 0.69222 0.11420 0.32067
 C203 C 0.72145 0.10140 0.36471
 C204 C 0.75150 0.14700 0.37537
 H205 H 0.66550 0.08755 0.29954
 H206 H 0.78199 0.15080 0.40474
 H207 H 0.70483 0.26599 0.29538
 H208 H 0.75411 0.23517 0.24975
 C209 C 0.25948 -0.00694 0.35846
 C210 C 0.24621 0.04246 0.38140
 C211 C 0.23885 0.04653 0.43763
 C212 C 0.24809 0.00236 0.47169
 C213 C 0.25956 -0.04730 0.44725
 C214 C 0.26413 -0.05223 0.39109
 C215 C 0.25025 0.00875 0.53195
 C216 C 0.24419 -0.03596 0.56690
 C217 C 0.25493 -0.03110 0.62221
 C218 C 0.26863 0.01942 0.64366
 C219 C 0.27021 0.06495 0.61055
 C220 C 0.26235 0.05934 0.55504
 H221 H 0.26378 -0.01069 0.31496
 H222 H 0.22750 0.08476 0.45435
 H223 H 0.26702 -0.08231 0.47131
 H224 H 0.23230 -0.07507 0.55145
 H225 H 0.27517 0.02373 0.68663
 H226 H 0.26745 0.09484 0.53023
 C227 C 0.73482 -0.01841 0.64390
 C228 C 0.74568 0.03179 0.62035
 C229 C 0.75219 0.03563 0.56398
 C230 C 0.74460 -0.01004 0.53024
 C231 C 0.73510 -0.06028 0.55532
 C232 C 0.73156 -0.06457 0.61159
 C233 C 0.74377 -0.00523 0.46966
 C234 C 0.75134 -0.05024 0.43538
 C235 C 0.74299 -0.04699 0.37958
 C236 C 0.73014 0.00215 0.35690
 C237 C 0.72702 0.04822 0.38936
 C238 C 0.73244 0.04414 0.44536
 H239 H 0.73177 -0.02193 0.68751
 H240 H 0.76232 0.07464 0.54710
 H241 H 0.72960 -0.09666 0.53180
 H242 H 0.76289 -0.08833 0.45146
 H243 H 0.72539 0.00506 0.31358
 H244 H 0.72623 0.07980 0.46945
 C245 C 0.36198 0.29396 -0.01093
 C246 C 0.38191 0.27774 0.03850
 C247 C 0.43512 0.26767 0.04216
 C248 C 0.46927 0.27633 -0.00253
 C249 C 0.44788 0.29137 -0.05195
 C250 C 0.39456 0.29865 -0.05657
 C251 C 0.52690 0.27200 0.00252
 C252 C 0.55917 0.26193 -0.04307
 C253 C 0.61349 0.26562 -0.03942
 C254 C 0.63601 0.27621 0.01072
 C255 C 0.60468 0.28171 0.05698
 C256 C 0.55066 0.28077 0.05273
 H257 H 0.32061 0.29924 -0.01478
 H258 H 0.44950 0.25360 0.08018
 H259 H 0.47221 0.29805 -0.08748
 H260 H 0.54263 0.25239 -0.08191
 H261 H 0.67791 0.27737 0.01424
 H262 H 0.52778 0.28815 0.08892
 C263 C 0.64073 0.71070 -0.01387
 C264 C 0.61978 0.72807 0.03596
 C265 C 0.56650 0.73979 0.03909
 C266 C 0.53369 0.73062 -0.00547
 C267 C 0.55653 0.71522 -0.05499
 C268 C 0.60981 0.70694 -0.05973
 C269 C 0.47568 0.73317 0.00012
 C270 C 0.44428 0.74202 -0.04516
 C271 C 0.39001 0.73534 -0.04138
 C272 C 0.36644 0.72287 0.00859
 C273 C 0.39655 0.71875 0.05472
 C274 C 0.45074 0.72279 0.05030
 H275 H 0.68193 0.70407 -0.01834
 H276 H 0.55029 0.75404 0.07689
 H277 H 0.53319 0.70824 -0.09034
 H278 H 0.46159 0.75282 -0.08390
 H279 H 0.32448 0.71947 0.01217
 H280 H 0.47288 0.71631 0.08627
 C281 C -0.01787 0.35869 0.25603
 C282 C 0.03088 0.38154 0.24211
 C283 C 0.03554 0.43712 0.23216
 C284 C -0.00731 0.47081 0.23941
 C285 C -0.05611 0.44639 0.25181
 C286 C -0.06162 0.39066 0.25903
 C287 C -0.00050 0.53106 0.23883
 C288 C -0.04264 0.56480 0.22947
 C289 C -0.03851 0.62084 0.23896
 C290 C 0.00983 0.64339 0.25416
 C291 C 0.05322 0.61122 0.25789
 C292 C 0.04768 0.55549 0.25176
 H293 H -0.02221 0.31567 0.26227
 H294 H 0.07314 0.45392 0.22026
 H295 H -0.09005 0.47033 0.25811
 H296 H -0.07935 0.54727 0.21695
 H297 H 0.01494 0.68646 0.25956
 H298 H 0.08120 0.53167 0.25916
 C299 C -0.00419 0.63934 0.74980
 C300 C 0.04325 0.61843 0.76568
 C301 C 0.04457 0.56363 0.77967
 C302 C 0.00062 0.52892 0.77326
 C303 C -0.04701 0.55216 0.76114
 C304 C -0.05000 0.60735 0.75050
 C305 C 0.00559 0.46874 0.77234
 C306 C -0.03813 0.43352 0.77906
 C307 C -0.03570 0.37833 0.76563
 C308 C 0.01261 0.35763 0.75012
 C309 C 0.05736 0.39087 0.74919
 C310 C 0.05348 0.44605 0.75864
 H311 H -0.00632 0.68181 0.74127
 H312 H 0.08071 0.54751 0.79264
 H313 H -0.08156 0.52719 0.75591
 H314 H -0.07475 0.44946 0.79221
 H315 H 0.01632 0.31510 0.74184
 H316 H 0.08817 0.47097 0.75282
   
