data_POSCAR
  _audit_creation_date              2014-09-24
  _audit_creation_method            'ToBaCCo'
  _symmetry_space_group_name_H-M    'P1'
  _symmetry_Int_Tables_number       1
  _symmetry_cell_setting            triclinic
  loop_
  _symmetry_equiv_pos_as_xyz
 x,y,z
_cell_length_a 27.6727
_cell_length_b 14.9905
_cell_length_c 9.9253
_cell_angle_alpha 91.158800
_cell_angle_beta 89.635100
_cell_angle_gamma 89.832700
loop_
  _atom_site_label
  _atom_site_type_symbol
  _atom_site_fract_x
  _atom_site_fract_y
  _atom_site_fract_z
C1 C 0.70898 0.29040 0.57955
 C2 C 0.71094 0.29566 0.43672
 C3 C 0.75175 0.26417 0.36629
 C4 C 0.79283 0.23153 0.43243
 C5 C 0.79252 0.23090 0.57656
 C6 C 0.75074 0.26053 0.64586
 H7 H 0.75163 0.25985 0.75441
 H8 H 0.75251 0.27156 0.25779
 C9 C 0.20765 0.77911 0.56461
 C10 C 0.21462 0.80680 0.43034
 C11 C 0.25957 0.79229 0.36824
 C12 C 0.29753 0.74798 0.43295
 C13 C 0.29050 0.71708 0.56756
 C14 C 0.24493 0.73252 0.62864
 H15 H 0.23843 0.70936 0.72999
 H16 H 0.26490 0.81464 0.26588
 C17 C 0.28811 0.28868 -0.56479
 C18 C 0.28100 0.30226 -0.42498
 C19 C 0.23898 0.27062 -0.36341
 C20 C 0.20387 0.22139 -0.43616
 C21 C 0.21043 0.21133 -0.57950
 C22 C 0.25336 0.24176 -0.63903
 H23 H 0.25927 0.23111 -0.74639
 H24 H 0.23453 0.28497 -0.25691
 C25 C -0.20651 0.75779 -0.57582
 C26 C -0.20158 0.74097 -0.43638
 C27 C -0.24081 0.70715 -0.36399
 C28 C -0.28505 0.68787 -0.42726
 C29 C -0.28875 0.69816 -0.56851
 C30 C -0.25049 0.73719 -0.64014
 H31 H -0.25326 0.74320 -0.74844
 H32 H -0.23677 0.70053 -0.25639
 O33 O -0.08152 0.85403 0.22311
 O34 O -0.12831 0.92937 0.07287
 C35 C -0.12301 0.87637 0.17356
 O36 O 0.05065 1.16798 0.25707
 O37 O 0.11066 1.08377 0.15625
 C38 C 0.09543 1.14459 0.24187
 O39 O -0.08169 1.16014 0.21402
 O40 O -0.12819 1.07747 0.06809
 C41 C -0.12304 1.13503 0.16636
 O42 O 0.05259 0.84422 0.26029
 O43 O 0.11167 0.92847 0.16134
 C44 C 0.09734 0.86799 0.24451
 Zr45 Zr -0.01093 0.89225 0.16724
 O46 O -0.01890 0.89014 0.37877
 O47 O -0.01226 0.75149 0.15182
 Zr48 Zr -0.01135 1.11913 0.15820
 O49 O -0.01992 1.13806 0.36824
 O50 O -0.01513 1.25887 0.13165
 O51 O -0.05464 1.00608 0.17368
 O52 O 0.02860 1.00669 0.20499
 O53 O 0.07723 0.83677 -0.21113
 O54 O 0.12374 0.92266 -0.06843
 C55 C 0.11861 0.86278 -0.16340
 O56 O -0.05483 1.13367 -0.29518
 O57 O -0.11554 1.06861 -0.17304
 C58 C -0.09983 1.11412 -0.27382
 O59 O 0.07700 1.15159 -0.22317
 O60 O 0.12375 1.07515 -0.07335
 C61 C 0.11833 1.13019 -0.17163
 O62 O -0.05660 0.84702 -0.27859
 O63 O -0.11632 0.92697 -0.16803
 C64 C -0.10137 0.87226 -0.26177
 Zr65 Zr 0.00616 0.88174 -0.16521
 O66 O 0.01933 0.85394 -0.37153
 O67 O 0.00009 0.74242 -0.13785
 Zr68 Zr 0.00641 1.10823 -0.17471
 O69 O 0.02312 1.11546 -0.38170
 O70 O -0.00125 1.24885 -0.16642
 Zr71 Zr -0.07406 1.00017 -0.03099
 Zr72 Zr 0.06933 1.00146 0.02514
 O73 O 0.04869 0.99470 -0.17875
 O74 O -0.03394 0.99388 -0.21288
 O75 O 0.04119 0.87067 0.01849
 O76 O -0.04503 1.12960 -0.02595
 O77 O -0.04513 0.87091 -0.01510
 O78 O 0.04101 1.13155 0.00820
 H79 H 0.04511 1.00828 0.29329
 H80 H -0.06775 1.18002 -0.03809
 H81 H 0.07355 0.99316 -0.25091
 H82 H -0.06775 0.81996 -0.02327
 H83 H 0.01789 1.28027 0.11155
 H84 H 0.02905 1.27373 -0.12913
 H85 H 0.01845 1.05458 -0.41941
 H86 H 0.03525 0.90702 -0.40888
 H87 H 0.03044 0.72183 -0.09611
 H88 H -0.01747 0.73016 0.24462
 H89 H -0.04094 0.93954 0.40531
 H90 H -0.04000 1.08829 0.40045
 O91 O 0.41585 0.37013 0.23506
 O92 O 0.37162 0.44357 0.07672
 C93 C 0.37523 0.39381 0.18175
 O94 O 0.56202 0.67840 0.22265
 O95 O 0.61682 0.57389 0.14507
 C96 C 0.60577 0.64707 0.20915
 O97 O 0.42470 0.66887 0.21123
 O98 O 0.37608 0.58759 0.06836
 C99 C 0.38257 0.64435 0.16686
 O100 O 0.54838 0.34669 0.27888
 O101 O 0.60991 0.41967 0.17203
 C102 C 0.59370 0.36422 0.26044
 Zr103 Zr 0.48769 0.39950 0.18012
 O104 O 0.47982 0.41015 0.39177
 O105 O 0.48172 0.25894 0.17971
 Zr106 Zr 0.49492 0.62433 0.15377
 O107 O 0.49224 0.64464 0.36485
 O108 O 0.49046 0.76425 0.13148
 O109 O 0.44788 0.51702 0.17563
 O110 O 0.53141 0.51033 0.20948
 O111 O 0.57486 0.32308 -0.19793
 O112 O 0.62297 0.40651 -0.05630
 C113 C 0.61657 0.34618 -0.14949
 O114 O 0.45180 0.63999 -0.29286
 O115 O 0.38903 0.57916 -0.17381
 C116 C 0.40614 0.62637 -0.27189
 O117 O 0.58510 0.63620 -0.22055
 O118 O 0.62838 0.55503 -0.06891
 C119 C 0.62548 0.60986 -0.16703
 O120 O 0.44168 0.33492 -0.25419
 O121 O 0.38448 0.42816 -0.15877
 C122 C 0.39767 0.36371 -0.24033
 Zr123 Zr 0.50508 0.37525 -0.15304
 O124 O 0.51504 0.34456 -0.36026
 O125 O 0.49707 0.23734 -0.11598
 Zr126 Zr 0.51216 0.60038 -0.17954
 O127 O 0.52907 0.59048 -0.38680
 O128 O 0.51047 0.74133 -0.19028
 Zr129 Zr 0.42829 0.50606 -0.02934
 Zr130 Zr 0.57087 0.49328 0.02923
 O131 O 0.55080 0.48293 -0.17482
 O132 O 0.46777 0.48959 -0.21066
 O133 O 0.53894 0.36623 0.03284
 O134 O 0.46168 0.63201 -0.03134
 O135 O 0.45368 0.37531 -0.00161
 O136 O 0.54673 0.62543 0.00158
 H137 H 0.54927 0.51504 0.29556
 H138 H 0.44083 0.68496 -0.04451
 H139 H 0.57590 0.47745 -0.24604
 H140 H 0.43018 0.32554 -0.00440
 H141 H 0.51904 0.78263 0.07871
 H142 H 0.53979 0.76466 -0.14541
 H143 H 0.51309 0.53570 -0.42077
 H144 H 0.53654 0.39045 -0.39796
 H145 H 0.52642 0.21693 -0.06894
 H146 H 0.47498 0.24262 0.27424
 H147 H 0.45536 0.45688 0.41172
 H148 H 0.46653 0.60550 0.39970
 C149 C 0.33166 0.32263 0.36579
 C150 C 0.33049 0.36160 0.24534
 H151 H 0.36587 0.31735 0.41653
 H152 H 0.29639 0.37201 0.19490
 C153 C -0.16412 0.78770 0.34488
 C154 C -0.16697 0.84068 0.23783
 H155 H -0.12881 0.76884 0.38136
 H156 H -0.20180 0.86249 0.20164
 C157 C 0.67300 0.65694 0.36181
 C158 C 0.64615 0.69671 0.26937
 H159 H 0.66064 0.59278 0.39747
 H160 H 0.65214 0.76569 0.24355
 C161 C 0.17729 1.17064 0.33142
 C162 C 0.12988 1.18798 0.33443
 H163 H 0.19153 1.13392 0.24451
 H164 H 0.11540 1.23606 0.40725
 C165 C 0.66714 0.31753 -0.34673
 C166 C 0.65993 0.30820 -0.21321
 H167 H 0.63819 0.34949 -0.40022
 H168 H 0.68630 0.28021 -0.14668
 C169 C 0.16272 0.80138 -0.35884
 C170 C 0.16282 0.82762 -0.22868
 H171 H 0.12897 0.80381 -0.41243
 H172 H 0.19660 0.83382 -0.17481
 C173 C 0.32453 0.67004 -0.35279
 C174 C 0.37283 0.67023 -0.36648
 H175 H 0.31050 0.63623 -0.26522
 H176 H 0.39031 0.70997 -0.44041
 C177 C -0.16949 1.20111 -0.34005
 C178 C -0.13512 1.14175 -0.37364
 H179 H -0.17008 1.22323 -0.23508
 H180 H -0.13419 1.10662 -0.46955
 C181 C 0.67299 0.66572 -0.35332
 C182 C 0.67140 0.63972 -0.22542
 H183 H 0.63876 0.66777 -0.40551
 H184 H 0.70382 0.62995 -0.16743
 C185 C 0.16522 1.17938 -0.36677
 C186 C 0.16184 1.16963 -0.23208
 H187 H 0.13704 1.14729 -0.42416
 H188 H 0.19125 1.18574 -0.16500
 C189 C 0.31635 0.35026 -0.33930
 C190 C 0.36098 0.31819 -0.32267
 H191 H 0.30446 0.40953 -0.28412
 H192 H 0.37143 0.25643 -0.37377
 C193 C -0.15709 0.76207 -0.35905
 C194 C -0.13769 0.84341 -0.36003
 H195 H -0.14452 0.71455 -0.28608
 H196 H -0.15389 0.89454 -0.42098
 C197 C 0.34109 0.72932 0.34948
 C198 C 0.33900 0.67563 0.24017
 H199 H 0.37440 0.76351 0.37283
 H200 H 0.30467 0.64622 0.21197
 C201 C -0.16564 1.21059 0.35497
 C202 C -0.16713 1.17100 0.23194
 H203 H -0.13069 1.22150 0.40031
 H204 H -0.20142 1.15403 0.18622
 C205 C 0.67460 0.34289 0.35522
 C206 C 0.62843 0.31777 0.34665
 H207 H 0.68773 0.39607 0.29240
 H208 H 0.61561 0.26255 0.40584
 C209 C 0.17756 0.85550 0.35219
 C210 C 0.13361 0.82195 0.32709
 H211 H 0.18843 0.91692 0.30499
 H212 H 0.12354 0.75846 0.36912
   
