data_POSCAR
  _audit_creation_date              2014-09-24
  _audit_creation_method            'ToBaCCo'
  _symmetry_space_group_name_H-M    'P1'
  _symmetry_Int_Tables_number       1
  _symmetry_cell_setting            triclinic
  loop_
  _symmetry_equiv_pos_as_xyz
 x,y,z
_cell_length_a 34.3584
_cell_length_b 34.4157
_cell_length_c 34.3670
_cell_angle_alpha 100.633600
_cell_angle_beta 73.423500
_cell_angle_gamma 77.726100
loop_
  _atom_site_label
  _atom_site_type_symbol
  _atom_site_fract_x
  _atom_site_fract_y
  _atom_site_fract_z
C1 C 0.52006 0.48036 0.00123
 C2 C 0.48894 0.51162 -0.00006
 C3 C 0.44730 0.50679 -0.00175
 C4 C 0.49500 0.55296 -0.00069
 C5 C 0.56109 0.48641 0.00332
 C6 C 0.51543 0.43828 0.00066
 C7 C 0.43144 0.52162 -0.03111
 C8 C 0.39160 0.51989 -0.03218
 C9 C 0.36607 0.50250 -0.00419
 C10 C 0.38288 0.48693 0.02488
 C11 C 0.42239 0.48991 0.02662
 C12 C 0.52674 0.55835 -0.03375
 C13 C 0.52941 0.59797 -0.03577
 C14 C 0.50017 0.63277 -0.00495
 C15 C 0.46904 0.62708 0.02851
 C16 C 0.46638 0.58758 0.03048
 C17 C 0.56290 0.51612 0.03631
 C18 C 0.60203 0.51945 0.03896
 C19 C 0.63992 0.49274 0.00899
 C20 C 0.63789 0.46339 -0.02418
 C21 C 0.59890 0.46022 -0.02690
 C22 C 0.52477 0.41956 0.03117
 C23 C 0.52256 0.37948 0.03049
 C24 C 0.51068 0.35734 -0.00057
 C25 C 0.50104 0.37599 -0.03103
 C26 C 0.50399 0.41598 -0.03080
 H27 H 0.45014 0.53456 -0.05360
 H28 H 0.38233 0.53037 -0.05685
 H29 H 0.36469 0.47493 0.04859
 H30 H 0.43316 0.47961 0.05067
 H31 H 0.54862 0.53199 -0.05852
 H32 H 0.55343 0.60144 -0.06216
 H33 H 0.44163 0.58396 0.05613
 H34 H 0.53407 0.53609 0.06044
 H35 H 0.60267 0.54205 0.06508
 H36 H 0.66654 0.44280 -0.04806
 H37 H 0.59817 0.43706 -0.05253
 H38 H 0.53388 0.43606 0.05558
 H39 H 0.52991 0.36577 0.05442
 H40 H 0.49227 0.35924 -0.05556
 H41 H 0.49771 0.42936 -0.05530
 H42 H 0.44654 0.65323 0.05309
 C43 C 0.00568 0.51832 0.51807
 C44 C 0.00225 0.48809 0.48866
 C45 C 0.00144 0.44683 0.49531
 C46 C -0.00170 0.49449 0.44812
 C47 C 0.00466 0.55992 0.51181
 C48 C 0.00933 0.51224 0.55873
 C49 C 0.03118 0.41176 0.46575
 C50 C 0.02863 0.37247 0.46879
 C51 C -0.00407 0.36741 0.50123
 C52 C -0.03334 0.40263 0.53147
 C53 C -0.03068 0.44206 0.52844
 C54 C -0.03444 0.48406 0.43555
 C55 C -0.03703 0.48668 0.39629
 C56 C -0.00706 0.50006 0.36885
 C57 C 0.02535 0.51116 0.38158
 C58 C 0.02832 0.50792 0.42068
 C59 C -0.03270 0.58653 0.51231
 C60 C -0.03395 0.62672 0.50926
 C61 C 0.00235 0.64051 0.50492
 C62 C 0.03989 0.61352 0.50360
 C63 C 0.04086 0.57371 0.50759
 C64 C -0.01911 0.54000 0.59638
 C65 C -0.01526 0.53638 0.63494
 C66 C 0.01731 0.50500 0.63679
 C67 C 0.04554 0.47678 0.59913
 C68 C 0.04176 0.48054 0.56036
 H69 H 0.05611 0.41488 0.43992
 H70 H 0.05212 0.34598 0.44549
 H71 H -0.05913 0.39973 0.55656
 H72 H -0.05438 0.46882 0.55112
 H73 H -0.05781 0.47341 0.45606
 H74 H -0.06244 0.47819 0.38727
 H75 H 0.05462 0.51489 0.42903
 H76 H -0.06100 0.57641 0.51598
 H77 H -0.06321 0.64712 0.51038
 H78 H 0.06809 0.62370 0.50067
 H79 H 0.06982 0.55357 0.50746
 H80 H -0.04440 0.56461 0.59590
 H81 H -0.03791 0.55815 0.66344
 H82 H 0.07115 0.45253 0.59962
 H83 H 0.06454 0.45923 0.53165
 H84 H 0.04916 0.52101 0.36067
 C85 C 0.51130 0.00204 0.48092
 C86 C 0.47897 -0.00040 0.51351
 C87 C 0.48373 -0.00253 0.55479
 C88 C 0.43674 -0.00075 0.51030
 C89 C 0.50773 0.00211 0.43878
 C90 C 0.55260 0.00455 0.48532
 C91 C 0.51595 -0.03319 0.55799
 C92 C 0.51895 -0.03529 0.59734
 C93 C 0.48908 -0.00730 0.63470
 C94 C 0.45684 0.02336 0.63080
 C95 C 0.45429 0.02562 0.59150
 C96 C 0.41824 -0.03093 0.52329
 C97 C 0.37785 -0.03086 0.52254
 C98 C 0.35521 -0.00074 0.50851
 C99 C 0.37365 0.02944 0.49534
 C100 C 0.41387 0.02977 0.49675
 C101 C 0.51973 0.03227 0.41939
 C102 C 0.51867 0.03194 0.37906
 C103 C 0.50531 0.00159 0.35740
 C104 C 0.49305 -0.02851 0.37676
 C105 C 0.49480 -0.02860 0.41692
 C106 C 0.55509 0.03540 0.51671
 C107 C 0.59440 0.03782 0.51943
 C108 C 0.63243 0.00999 0.49010
 C109 C 0.62926 -0.02079 0.45861
 C110 C 0.58999 -0.02338 0.45635
 H111 H 0.53840 -0.05592 0.53005
 H112 H 0.54352 -0.06030 0.59821
 H113 H 0.43416 0.04689 0.65789
 H114 H 0.42930 0.04967 0.58969
 H115 H 0.43515 -0.05461 0.53412
 H116 H 0.36438 -0.05459 0.53258
 H117 H 0.42695 0.05404 0.48769
 H118 H 0.53004 0.05610 0.43553
 H119 H 0.52802 0.05560 0.36485
 H120 H 0.48311 -0.05250 0.36038
 H121 H 0.48650 -0.05284 0.43072
 H122 H 0.52661 0.05802 0.53874
 H123 H 0.59466 0.06294 0.54338
 H124 H 0.65692 -0.04419 0.43636
 H125 H 0.58875 -0.04755 0.43197
 H126 H 0.35652 0.05327 0.48486
 O127 O 0.46592 0.00013 -0.04789
 O128 O 0.46702 0.00951 0.05982
 O129 O 0.46710 0.05904 0.01017
 O130 O 0.46734 -0.04939 0.00072
 O131 O 0.53714 -0.06849 -0.02312
 O132 O 0.53694 0.03972 -0.01355
 O133 O 0.53685 -0.00922 0.03599
 O134 O 0.53571 -0.01920 -0.07244
 Cu135 Cu 0.45985 0.00681 0.00819
 Cu136 Cu 0.54368 -0.01618 -0.02072
 C137 C 0.50044 -0.01087 -0.07860
 C138 C 0.50204 0.00128 0.06637
 C139 C 0.50208 0.06783 -0.00051
 C140 C 0.50228 -0.07747 -0.01249
 O141 O -0.06063 0.53287 1.01825
 O142 O 0.05056 0.53143 1.00266
 O143 O 0.00361 0.53146 0.95517
 O144 O -0.01321 0.53392 1.06614
 O145 O 0.00371 0.46600 1.04996
 O146 O 0.02327 0.46353 0.93798
 O147 O 0.06865 0.46348 0.98806
 O148 O -0.04150 0.46494 1.00058
 Cu149 Cu -0.00691 0.53923 1.01222
 Cu150 Cu 0.01537 0.45767 0.99234
 C151 C -0.06995 0.49900 1.01147
 C152 C 0.07834 0.49718 0.99371
 C153 C 0.01622 0.49724 0.92754
 C154 C -0.00709 0.50044 1.07702
 O155 O 0.01021 -0.05791 0.46932
 O156 O -0.00205 0.05123 0.46960
 O157 O 0.05810 -0.00822 0.46973
 O158 O -0.04964 0.00164 0.46764
 O159 O -0.07515 0.02129 0.53697
 O160 O 0.03372 0.00775 0.53910
 O161 O -0.02541 0.06888 0.53898
 O162 O -0.01701 -0.03956 0.53864
 Cu163 Cu 0.00663 -0.00517 0.46214
 Cu164 Cu -0.02339 0.01631 0.54540
 C165 C -0.00223 -0.06723 0.50401
 C166 C -0.01508 0.07865 0.50435
 C167 C 0.06440 -0.00156 0.50468
 C168 C -0.08086 0.01310 0.50175
 C169 C -0.23833 0.49650 1.01615
 C170 C -0.24695 0.45841 1.00712
 C171 C -0.28703 0.45757 1.00549
 C172 C -0.31842 0.49443 1.01262
 C173 C -0.30949 0.53246 1.02235
 C174 C -0.26934 0.53365 1.02395
 C175 C -0.19576 0.49743 1.01673
 C176 C -0.18674 0.53543 1.02493
 C177 C -0.14577 0.53601 1.02420
 C178 C -0.11397 0.49886 1.01514
 C179 C -0.12395 0.46112 1.00770
 C180 C -0.16468 0.46021 1.00833
 C181 C -0.25930 0.57112 1.03256
 C182 C -0.21872 0.57200 1.03302
 C183 C -0.21518 0.42186 0.99942
 C184 C -0.17473 0.42274 1.00002
 H185 H -0.28292 0.60001 1.03865
 H186 H -0.21223 0.60154 1.03944
 H187 H -0.22153 0.39229 0.99253
 H188 H -0.15101 0.39383 0.99355
 H189 H -0.29386 0.42821 0.99867
 H190 H -0.33338 0.56094 1.02760
 H191 H -0.13850 0.56523 1.02992
 H192 H -0.09985 0.43232 1.00072
 C193 C 0.24559 0.49880 0.99262
 C194 C 0.26277 0.52919 0.97864
 C195 C 0.30320 0.52997 0.97928
 C196 C 0.32673 0.50122 0.99488
 C197 C 0.30792 0.47128 1.00949
 C198 C 0.26795 0.46963 1.00780
 C199 C 0.20317 0.49772 0.99166
 C200 C 0.18636 0.46665 1.00472
 C201 C 0.14597 0.46585 1.00388
 C202 C 0.12200 0.49659 0.99134
 C203 C 0.13918 0.52766 0.97855
 C204 C 0.18005 0.52806 0.97813
 C205 C 0.25000 0.43905 1.02073
 C206 C 0.21002 0.43743 1.01898
 C207 C 0.23894 0.55870 0.96476
 C208 C 0.19817 0.55831 0.96477
 H209 H 0.26701 0.41612 1.03229
 H210 H 0.19737 0.41336 1.02926
 H211 H 0.25178 0.58251 0.95405
 H212 H 0.18074 0.58182 0.95416
 H213 H 0.31470 0.55494 0.96995
 H214 H 0.32502 0.44745 1.01994
 H215 H 0.13261 0.44217 1.01428
 H216 H 0.12084 0.55131 0.96879
 C217 C -0.00004 -0.23501 0.50350
 C218 C 0.02991 -0.26739 0.47036
 C219 C 0.03046 -0.30820 0.47080
 C220 C 0.00077 -0.31652 0.50361
 C221 C -0.02952 -0.28373 0.53618
 C222 C -0.02976 -0.24286 0.53655
 C223 C -0.00015 -0.19208 0.50375
 C224 C -0.02939 -0.15981 0.53746
 C225 C -0.02917 -0.11907 0.53774
 C226 C -0.00066 -0.11045 0.50416
 C227 C 0.02825 -0.14316 0.47041
 C228 C 0.02895 -0.18413 0.47029
 C229 C -0.05877 -0.20972 0.56951
 C230 C -0.05845 -0.16890 0.57006
 C231 C 0.05876 -0.25824 0.43760
 C232 C 0.05812 -0.21732 0.43744
 H233 H -0.08177 -0.21538 0.59522
 H234 H -0.08126 -0.14425 0.59616
 H235 H 0.08196 -0.28293 0.41181
 H236 H 0.08079 -0.21163 0.41148
 H237 H 0.05372 -0.33349 0.44566
 H238 H -0.05208 -0.29016 0.56169
 H239 H -0.05182 -0.09403 0.56359
 H240 H 0.05035 -0.13672 0.44454
 C241 C -0.01385 0.24558 0.50357
 C242 C -0.02166 0.27450 0.54155
 C243 C -0.01886 0.31449 0.54082
 C244 C -0.00820 0.32550 0.50242
 C245 C -0.00107 0.29614 0.46475
 C246 C -0.00366 0.25614 0.46511
 C247 C -0.01582 0.20325 0.50399
 C248 C -0.00729 0.17419 0.46591
 C249 C -0.00800 0.13368 0.46631
 C250 C -0.01711 0.12210 0.50445
 C251 C -0.02632 0.15190 0.54246
 C252 C -0.02552 0.19248 0.54237
 C253 C 0.00409 0.22638 0.42772
 C254 C 0.00237 0.18608 0.42810
 C255 C -0.03164 0.26266 0.57938
 C256 C -0.03357 0.22237 0.57979
 H257 H 0.01191 0.23422 0.39785
 H258 H 0.00893 0.16397 0.39853
 H259 H -0.03778 0.28466 0.60891
 H260 H -0.04111 0.21446 0.60963
 H261 H -0.02408 0.33673 0.56992
 H262 H 0.00635 0.30449 0.43512
 H263 H -0.00091 0.11110 0.43689
 H264 H -0.03326 0.14337 0.57199
 C265 C 0.49424 -0.01284 -0.24458
 C266 C 0.45516 0.00268 -0.24926
 C267 C 0.45369 0.00412 -0.28925
 C268 C 0.49098 -0.00987 -0.32506
 C269 C 0.52995 -0.02615 -0.31949
 C270 C 0.53172 -0.02735 -0.27939
 C271 C 0.49594 -0.01352 -0.20231
 C272 C 0.53515 -0.02820 -0.19736
 C273 C 0.53662 -0.02783 -0.15687
 C274 C 0.49915 -0.01304 -0.12162
 C275 C 0.46009 0.00098 -0.12741
 C276 C 0.45833 0.00101 -0.16758
 C277 C 0.57037 -0.04222 -0.27329
 C278 C 0.57206 -0.04256 -0.23298
 C279 C 0.41815 0.01661 -0.21378
 C280 C 0.41971 0.01575 -0.17362
 H281 H 0.59960 -0.05345 -0.29988
 H282 H 0.60253 -0.05403 -0.22966
 H283 H 0.38773 0.02851 -0.21703
 H284 H 0.39046 0.02701 -0.14704
 H285 H 0.42299 0.01488 -0.29230
 H286 H 0.55936 -0.03607 -0.34576
 H287 H 0.56684 -0.03876 -0.15281
 H288 H 0.43105 0.01255 -0.10058
 C289 C 0.50369 0.00213 0.23348
 C290 C 0.54027 0.00450 0.24321
 C291 C 0.54056 0.00431 0.28387
 C292 C 0.50484 0.00119 0.31443
 C293 C 0.46860 -0.00167 0.30405
 C294 C 0.46773 -0.00086 0.26364
 C295 C 0.50307 0.00273 0.19087
 C296 C 0.46630 0.00094 0.18131
 C297 C 0.46589 0.00144 0.14073
 C298 C 0.50216 0.00296 0.10963
 C299 C 0.53880 0.00468 0.11976
 C300 C 0.53932 0.00487 0.16047
 C301 C 0.43158 -0.00274 0.25282
 C302 C 0.43083 -0.00171 0.21239
 C303 C 0.57580 0.00696 0.21208
 C304 C 0.57539 0.00698 0.17135
 H305 H 0.40361 -0.00495 0.27583
 H306 H 0.40230 -0.00320 0.20535
 H307 H 0.60422 0.00874 0.21921
 H308 H 0.60353 0.00871 0.14821
 H309 H 0.56865 0.00614 0.29171
 H310 H 0.44095 -0.00372 0.32765
 H311 H 0.43767 -0.00026 0.13312
 H312 H 0.56679 0.00598 0.09606
 C313 C 0.50178 -0.24463 -0.01256
 C314 C 0.54024 -0.27483 -0.02232
 C315 C 0.53971 -0.31505 -0.02017
 C316 C 0.50103 -0.32500 -0.00819
 C317 C 0.46284 -0.29435 0.00101
 C318 C 0.46302 -0.25411 -0.00098
 C319 C 0.50205 -0.20213 -0.01399
 C320 C 0.46354 -0.17185 -0.00364
 C321 C 0.46386 -0.13128 -0.00402
 C322 C 0.50235 -0.12083 -0.01455
 C323 C 0.54075 -0.15178 -0.02546
 C324 C 0.54076 -0.19247 -0.02508
 C325 C 0.42516 -0.22311 0.00866
 C326 C 0.42541 -0.18265 0.00740
 C327 C 0.57838 -0.26406 -0.03363
 C328 C 0.57864 -0.22358 -0.03500
 H329 H 0.39506 -0.23011 0.01756
 H330 H 0.39550 -0.15958 0.01538
 H331 H 0.60827 -0.28706 -0.04127
 H332 H 0.60872 -0.21652 -0.04363
 H333 H 0.56921 -0.33834 -0.02697
 H334 H 0.43298 -0.30188 0.00951
 H335 H 0.43413 -0.10778 0.00440
 H336 H 0.57056 -0.14413 -0.03354
 C337 C 0.50646 0.23407 -0.00021
 C338 C 0.47144 0.26218 -0.00243
 C339 C 0.47321 0.30239 -0.00343
 C340 C 0.50935 0.31454 -0.00141
 C341 C 0.54412 0.28598 0.00084
 C342 C 0.54297 0.24560 0.00116
 C343 C 0.50490 0.19175 0.00070
 C344 C 0.54027 0.16346 0.00205
 C345 C 0.53897 0.12304 0.00207
 C346 C 0.50243 0.11099 0.00134
 C347 C 0.46695 0.13996 0.00074
 C348 C 0.46818 0.18033 -0.00001
 C349 C 0.57758 0.21653 0.00287
 C350 C 0.57631 0.17610 0.00313
 C351 C 0.43532 0.24957 -0.00327
 C352 C 0.43366 0.20938 -0.00193
 H353 H 0.60593 0.22508 0.00388
 H354 H 0.60376 0.15456 0.00424
 H355 H 0.40805 0.27097 -0.00487
 H356 H 0.40518 0.20093 -0.00260
 H357 H 0.44628 0.32446 -0.00482
 H358 H 0.57212 0.29520 0.00203
 H359 H 0.56634 0.10098 0.00270
 H360 H 0.43885 0.13082 -0.00019
 C361 C -0.24698 0.01594 0.49507
 C362 C -0.25129 0.00036 0.45634
 C363 C -0.29125 -0.00119 0.45490
 C364 C -0.32738 0.01277 0.49187
 C365 C -0.32219 0.02914 0.53046
 C366 C -0.28213 0.03044 0.53221
 C367 C -0.20471 0.01662 0.49679
 C368 C -0.20012 0.03127 0.53568
 C369 C -0.15961 0.03076 0.53723
 C370 C -0.12395 0.01582 0.50016
 C371 C -0.12940 0.00192 0.46136
 C372 C -0.16961 0.00203 0.45954
 C373 C -0.27639 0.04533 0.57053
 C374 C -0.23608 0.04567 0.57224
 C375 C -0.21546 -0.01357 0.41966
 C376 C -0.17531 -0.01271 0.42123
 H377 H -0.30324 0.05657 0.59950
 H378 H -0.23304 0.05712 0.60247
 H379 H -0.21843 -0.02551 0.38951
 H380 H -0.14846 -0.02401 0.39226
 H381 H -0.29405 -0.01204 0.42446
 H382 H -0.34867 0.03902 0.55965
 H383 H -0.15583 0.04158 0.56725
 H384 H -0.10226 -0.00977 0.43263
 C385 C 0.23148 -0.00225 0.50675
 C386 C 0.26145 0.00115 0.47086
 C387 C 0.30176 0.00221 0.47179
 C388 C 0.31229 -0.00076 0.50802
 C389 C 0.28194 -0.00433 0.54366
 C390 C 0.24134 -0.00480 0.54330
 C391 C 0.18893 -0.00305 0.50607
 C392 C 0.15865 -0.00558 0.54222
 C393 C 0.11794 -0.00549 0.54164
 C394 C 0.10771 -0.00343 0.50505
 C395 C 0.13875 -0.00156 0.46890
 C396 C 0.17927 -0.00100 0.46935
 C397 C 0.21036 -0.00768 0.57873
 C398 C 0.16967 -0.00790 0.57826
 C399 C 0.25054 0.00323 0.43475
 C400 C 0.21018 0.00204 0.43396
 H401 H 0.21758 -0.00961 0.60714
 H402 H 0.14665 -0.00992 0.60633
 H403 H 0.27339 0.00575 0.40684
 H404 H 0.20304 0.00373 0.40547
 H405 H 0.32519 0.00458 0.44418
 H406 H 0.28986 -0.00627 0.57174
 H407 H 0.09430 -0.00700 0.56956
 H408 H 0.13111 0.00041 0.44069
 C409 C -0.01139 0.50180 1.24589
 C410 C -0.00721 0.53662 1.27122
 C411 C -0.00565 0.53592 1.31145
 C412 C -0.00884 0.50093 1.32648
 C413 C -0.01345 0.46646 1.30082
 C414 C -0.01440 0.46659 1.26033
 C415 C -0.01209 0.50200 1.20321
 C416 C -0.01496 0.46672 1.17741
 C417 C -0.01416 0.46657 1.13633
 C418 C -0.01099 0.50156 1.12123
 C419 C -0.00912 0.53700 1.14792
 C420 C -0.00922 0.53723 1.18880
 C421 C -0.01788 0.43211 1.23386
 C422 C -0.01798 0.43211 1.19303
 C423 C -0.00456 0.57135 1.25573
 C424 C -0.00569 0.57170 1.21527
 H425 H -0.02019 0.40476 1.24465
 H426 H -0.02030 0.40474 1.17349
 H427 H -0.00147 0.59845 1.27499
 H428 H -0.00339 0.59906 1.20448
 H429 H -0.00240 0.56260 1.33126
 H430 H -0.01545 0.43930 1.31212
 H431 H -0.01568 0.43920 1.11605
 H432 H -0.00627 0.56394 1.13647
 C433 C 0.02514 0.49978 0.75812
 C434 C 0.01834 0.53778 0.74800
 C435 C 0.01689 0.53898 0.70792
 C436 C 0.02184 0.50261 0.67805
 C437 C 0.02960 0.46457 0.68837
 C438 C 0.03105 0.46303 0.72854
 C439 C 0.02509 0.49863 0.80085
 C440 C 0.03090 0.46081 0.81143
 C441 C 0.02927 0.46016 0.85264
 C442 C 0.02149 0.49709 0.88315
 C443 C 0.01658 0.53459 0.87157
 C444 C 0.01823 0.53555 0.83058
 C445 C 0.03743 0.42567 0.74008
 C446 C 0.03735 0.42458 0.78080
 C447 C 0.01237 0.57396 0.77839
 C448 C 0.01230 0.57287 0.81900
 H449 H 0.04207 0.39707 0.71759
 H450 H 0.04193 0.39517 0.78849
 H451 H 0.00721 0.60345 0.77087
 H452 H 0.00708 0.60154 0.84166
 H453 H 0.01162 0.56828 0.70001
 H454 H 0.03316 0.43649 0.66567
 H455 H 0.03300 0.43115 0.86118
 H456 H 0.01071 0.56320 0.89464
   
