data_POSCAR
  _audit_creation_date              2014-09-24
  _audit_creation_method            'ToBaCCo'
  _symmetry_space_group_name_H-M    'P1'
  _symmetry_Int_Tables_number       1
  _symmetry_cell_setting            triclinic
  loop_
  _symmetry_equiv_pos_as_xyz
 x,y,z
_cell_length_a 29.8083
_cell_length_b 29.8170
_cell_length_c 29.7524
_cell_angle_alpha 89.986600
_cell_angle_beta 90.136700
_cell_angle_gamma 90.028600
loop_
  _atom_site_label
  _atom_site_type_symbol
  _atom_site_fract_x
  _atom_site_fract_y
  _atom_site_fract_z
C1 C 0.16640 0.16710 0.22019
 N2 N 0.14774 0.20372 0.20055
 C3 C 0.16630 0.22141 0.16290
 N4 N 0.20340 0.20236 0.14475
 C5 C 0.22208 0.16573 0.16435
 N6 N 0.20350 0.14803 0.20201
 C7 C -0.16228 0.83640 0.22212
 N8 N -0.14418 0.79920 0.20320
 C9 C -0.16387 0.78027 0.16668
 N10 N -0.20159 0.79868 0.14893
 C11 C -0.21974 0.83589 0.16784
 N12 N -0.20001 0.85481 0.20437
 C13 C -0.16877 0.16269 -0.22071
 N14 N -0.20542 0.14315 -0.20212
 C15 C -0.22453 0.16134 -0.16500
 N16 N -0.20684 0.19895 -0.14635
 C17 C -0.17018 0.21850 -0.16494
 N18 N -0.15109 0.20029 -0.20205
 C19 C 0.16652 0.83738 -0.22117
 N20 N 0.14672 0.80018 -0.20393
 C21 C 0.16411 0.78021 -0.16680
 N22 N 0.20118 0.79758 -0.14674
 C23 C 0.22100 0.83478 -0.16395
 N24 N 0.20360 0.85474 -0.20111
 C25 C 0.16614 1.16591 0.78048
 N26 N 0.20269 1.14714 0.80017
 C27 C 0.22043 1.16562 0.83791
 N28 N 0.20148 1.20277 0.85610
 C29 C 0.16492 1.22157 0.83645
 N30 N 0.14717 1.20307 0.79869
 C31 C 0.83490 0.83867 0.77585
 N32 N 0.85349 0.80106 0.79359
 C33 C 0.83484 0.78146 0.83024
 N34 N 0.79773 0.79962 0.84929
 C35 C 0.77912 0.83722 0.83155
 N36 N 0.79778 0.85680 0.79490
 C37 C 0.16246 0.83218 1.22189
 N38 N 0.14288 0.79556 1.20312
 C39 C 0.16113 0.77642 1.16604
 N40 N 0.19884 0.79403 1.14761
 C41 C 0.21843 0.83062 1.16637
 N42 N 0.20016 0.84977 1.20343
 C43 C 0.83787 1.16711 1.22083
 N44 N 0.80064 1.14727 1.20358
 C45 C 0.78049 1.16467 1.16655
 N46 N 0.79768 1.20182 1.14662
 C47 C 0.83491 1.22170 1.16385
 N48 N 0.85506 1.20427 1.20090
 O49 O 0.43686 1.07893 1.08169
 O50 O 0.38738 1.03571 1.04114
 C51 C 0.39664 1.06687 1.07003
 O52 O 0.56204 1.07513 0.92098
 O53 O 0.61160 1.03459 0.96409
 C54 C 0.60227 1.06347 0.93293
 O55 O 0.43609 1.07890 0.92522
 O56 O 0.38712 1.03519 0.96559
 C57 C 0.39604 1.06654 0.93683
 O58 O 0.56300 1.07525 1.08520
 O59 O 0.61202 1.03446 1.04197
 C60 C 0.60308 1.06353 1.07301
 Zr61 Zr 0.49983 1.05373 1.06019
 O62 O 0.50469 1.12457 1.06005
 O63 O 0.49532 1.05338 1.13119
 Zr64 Zr 0.49917 1.05370 0.94648
 O65 O 0.50405 1.12454 0.94669
 O66 O 0.49381 1.05345 0.87551
 O67 O 0.45945 1.06244 1.00348
 O68 O 0.53841 1.06199 1.00320
 O69 O 0.56306 0.91881 1.08529
 O70 O 0.61194 0.95901 1.04132
 C71 C 0.60312 0.93034 1.07278
 O72 O 0.43619 0.91523 0.92488
 O73 O 0.38718 0.95857 0.96553
 C74 C 0.39611 0.92749 0.93650
 O75 O 0.56229 0.91946 0.92074
 O76 O 0.61173 0.96016 0.96389
 C77 C 0.60249 0.93136 0.93262
 O78 O 0.43695 0.91483 1.08168
 O79 O 0.38744 0.95795 1.04111
 C80 C 0.39672 0.92683 1.07003
 Zr81 Zr 0.49992 0.94011 1.06008
 O82 O 0.50494 0.86929 1.05945
 O83 O 0.49541 0.93999 1.13108
 Zr84 Zr 0.49929 0.94025 0.94650
 O85 O 0.50436 0.86942 0.94739
 O86 O 0.49403 0.93983 0.87554
 Zr87 Zr 0.43282 0.99690 1.00365
 Zr88 Zr 0.56623 0.99714 1.00313
 O89 O 0.53859 0.93215 1.00313
 O90 O 0.45950 0.93139 1.00342
 O91 O 0.53992 0.99698 1.06885
 O92 O 0.46032 0.99693 0.93851
 O93 O 0.46103 0.99687 1.06856
 O94 O 0.53915 0.99706 0.93757
 H95 H 0.55868 1.08834 1.00312
 H96 H 0.44011 0.99697 0.91202
 H97 H 0.55892 0.90586 1.00293
 H98 H 0.44085 0.99683 1.09497
 H99 H 0.51909 1.03555 0.86369
 H100 H 0.51830 0.95908 0.86369
 H101 H 0.47849 0.85774 0.96455
 H102 H 0.47947 0.85764 1.04155
 H103 H 0.52024 0.95872 1.14272
 H104 H 0.52069 1.03538 1.14279
 H105 H 0.47954 1.13623 1.04175
 H106 H 0.47898 1.13619 0.96499
 O107 O 0.07905 0.43684 -0.08091
 O108 O 0.03596 0.38766 -0.04011
 C109 C 0.06702 0.39671 -0.06909
 O110 O 0.07542 0.56291 0.07950
 O111 O 0.03469 0.61215 0.03624
 C112 C 0.06363 0.60305 0.06746
 O113 O 0.07941 0.43690 0.07545
 O114 O 0.03614 0.38766 0.03469
 C115 C 0.06733 0.39677 0.06367
 O116 O 0.07530 0.56290 -0.08484
 O117 O 0.03463 0.61210 -0.04169
 C118 C 0.06361 0.60303 -0.07274
 Zr119 Zr 0.05382 0.49988 -0.05964
 O120 O 0.12467 0.50478 -0.05963
 O121 O 0.05312 0.49493 -0.13062
 Zr122 Zr 0.05412 0.49990 0.05410
 O123 O 0.12497 0.50493 0.05379
 O124 O 0.05417 0.49488 0.12509
 O125 O 0.06272 0.45992 -0.00275
 O126 O 0.06218 0.53880 -0.00276
 O127 O -0.08092 0.56299 -0.08500
 O128 O -0.04006 0.61217 -0.04175
 C129 C -0.06905 0.60312 -0.07295
 O130 O -0.08452 0.43691 0.07570
 O131 O -0.04161 0.38771 0.03480
 C132 C -0.07251 0.39678 0.06394
 O133 O -0.08055 0.56295 0.07948
 O134 O -0.03993 0.61214 0.03620
 C135 C -0.06876 0.60308 0.06740
 O136 O -0.08515 0.43686 -0.08078
 O137 O -0.04187 0.38766 -0.04002
 C138 C -0.07311 0.39673 -0.06894
 Zr139 Zr -0.05969 0.49992 -0.05961
 O140 O -0.13053 0.50497 -0.05945
 O141 O -0.05959 0.49487 -0.13059
 Zr142 Zr -0.05942 0.49992 0.05410
 O143 O -0.13028 0.50489 0.05355
 O144 O -0.05928 0.49502 0.12509
 Zr145 Zr -0.00282 0.43326 -0.00271
 Zr146 Zr -0.00273 0.56655 -0.00276
 O147 O -0.06769 0.53886 -0.00276
 O148 O -0.06834 0.45993 -0.00273
 O149 O -0.00292 0.53990 -0.06841
 O150 O -0.00265 0.46101 0.06232
 O151 O -0.00299 0.46096 -0.06779
 O152 O -0.00260 0.53988 0.06289
 H153 H 0.08850 0.55910 -0.00272
 H154 H -0.00256 0.44074 0.08870
 H155 H -0.09395 0.55921 -0.00278
 H156 H -0.00309 0.44060 -0.09410
 H157 H 0.03587 0.51991 0.13683
 H158 H -0.04070 0.51991 0.13682
 H159 H -0.14200 0.47933 0.03589
 H160 H -0.14221 0.48002 -0.04096
 H161 H -0.04136 0.51997 -0.14232
 H162 H 0.03537 0.52042 -0.14231
 H163 H 0.13640 0.47987 -0.04107
 H164 H 0.13662 0.47969 0.03570
 O165 O 1.08083 -0.07963 0.43680
 O166 O 1.04073 -0.03610 0.38722
 C167 C 1.06927 -0.06752 0.39651
 O168 O 0.92064 -0.07482 0.56219
 O169 O 0.96388 -0.03444 0.61180
 C170 C 0.93265 -0.06320 0.60248
 O171 O 0.92491 -0.07857 0.43592
 O172 O 0.96615 -0.03577 0.38681
 C173 C 0.93689 -0.06661 0.39577
 O174 O 1.08468 -0.07553 0.56321
 O175 O 1.04169 -0.03455 0.61230
 C176 C 1.07263 -0.06367 0.60336
 Zr177 Zr 1.05968 -0.05415 0.49990
 O178 O 1.05914 -0.12497 0.50494
 O179 O 1.13054 -0.05426 0.49524
 Zr180 Zr 0.94619 -0.05352 0.49920
 O181 O 0.94602 -0.12436 0.50410
 O182 O 0.87535 -0.05292 0.49385
 O183 O 1.00302 -0.06257 0.45948
 O184 O 1.00277 -0.06206 0.53855
 O185 O 1.08527 0.08096 0.56312
 O186 O 1.04138 0.04081 0.61212
 C187 C 1.07272 0.06954 0.60325
 O188 O 0.92553 0.08518 0.43607
 O189 O 0.96566 0.04142 0.38699
 C190 C 0.93703 0.07281 0.39593
 O191 O 0.92121 0.08087 0.56235
 O192 O 0.96407 0.04002 0.61192
 C193 C 0.93298 0.06892 0.60264
 O194 O 1.08196 0.08457 0.43678
 O195 O 1.04110 0.04170 0.38725
 C196 C 1.07022 0.07261 0.39649
 Zr197 Zr 1.06033 0.05937 0.49985
 O198 O 1.06066 0.13021 0.50469
 O199 O 1.13120 0.05845 0.49538
 Zr200 Zr 0.94683 0.05993 0.49926
 O201 O 0.94788 0.13075 0.50438
 O202 O 0.87600 0.06053 0.49388
 Zr203 Zr 1.00351 0.00295 0.43274
 Zr204 Zr 1.00306 0.00283 0.56636
 O205 O 1.00345 0.06776 0.53855
 O206 O 1.00374 0.06845 0.45944
 O207 O 1.06867 0.00257 0.54003
 O208 O 0.93849 0.00325 0.46022
 O209 O 1.06834 0.00257 0.46091
 O210 O 0.93762 0.00320 0.53924
 H211 H 1.00259 -0.08836 0.55890
 H212 H 0.91215 0.00330 0.43985
 H213 H 1.00334 0.09410 0.55885
 H214 H 1.09467 0.00242 0.44065
 H215 H 0.86366 -0.03494 0.51917
 H216 H 0.86407 0.04156 0.51836
 H217 H 0.96544 0.14236 0.47872
 H218 H 1.04217 0.14196 0.47968
 H219 H 1.14264 0.04079 0.52111
 H220 H 1.14226 -0.03597 0.52039
 H221 H 1.04071 -0.13659 0.47982
 H222 H 0.96410 -0.13612 0.47890
 C223 C 1.14720 0.14880 0.25727
 C224 C 1.12986 0.13222 0.28986
 C225 C 1.10926 0.11225 0.32756
 C226 C 1.09150 0.09457 0.35931
 C227 C 0.85792 -0.14428 0.25819
 C228 C 0.87608 -0.12698 0.29001
 C229 C 0.89743 -0.10644 0.32705
 C230 C 0.91558 -0.08852 0.35851
 C231 C 0.85207 0.14294 0.74065
 C232 C 0.87000 0.12620 0.70851
 C233 C 0.89147 0.10644 0.67123
 C234 C 0.91020 0.08940 0.63972
 C235 C 1.14854 -0.14220 0.74217
 C236 C 1.13210 -0.12407 0.70989
 C237 C 1.11216 -0.10289 0.67241
 C238 C 1.09449 -0.08491 0.64070
 C239 C 0.25864 1.14613 1.14560
 C240 C 0.29081 1.12851 1.12864
 C241 C 0.32810 1.10753 1.10844
 C242 C 0.35961 1.08923 1.09099
 C243 C 0.25759 0.85266 0.85662
 C244 C 0.28981 0.86891 0.87500
 C245 C 0.32721 0.88852 0.89656
 C246 C 0.35885 0.90590 0.91489
 C247 C 0.74305 0.85485 1.14948
 C248 C 0.71032 0.87186 1.13277
 C249 C 0.67243 0.89201 1.11260
 C250 C 0.64051 0.90940 1.09479
 C251 C 0.73933 1.14131 0.85413
 C252 C 0.70749 1.12344 0.87148
 C253 C 0.67053 1.10247 0.89230
 C254 C 0.63921 1.08461 0.91056
 C255 C 0.14603 0.25957 0.14166
 C256 C 0.12863 0.29137 0.12372
 C257 C 0.10781 0.32834 0.10268
 C258 C 0.08960 0.35970 0.08479
 C259 C -0.15079 0.25763 -0.14464
 C260 C -0.13394 0.29015 -0.12745
 C261 C -0.11353 0.32780 -0.10719
 C262 C -0.09546 0.35954 -0.08978
 C263 C 0.14262 0.74145 -0.14801
 C264 C 0.12444 0.70920 -0.13176
 C265 C 0.10312 0.67179 -0.11207
 C266 C 0.08499 0.64018 -0.09456
 C267 C -0.14411 0.74150 0.14616
 C268 C -0.12715 0.70924 0.12871
 C269 C -0.10698 0.67184 0.10790
 C270 C -0.08958 0.64023 0.08970
 C271 C 1.14788 0.14678 0.74325
 C272 C 1.13145 0.12942 0.71052
 C273 C 1.11176 0.10873 0.67262
 C274 C 1.09436 0.09089 0.64068
 C275 C 0.85406 -0.14125 0.73970
 C276 C 0.87138 -0.12330 0.70786
 C277 C 0.89213 -0.10224 0.67086
 C278 C 0.91033 -0.08433 0.63950
 C279 C 1.14369 -0.14809 0.25843
 C280 C 1.12687 -0.13023 0.29059
 C281 C 1.10699 -0.10887 0.32789
 C282 C 1.08986 -0.09022 0.35941
 C283 C 0.85846 0.14911 0.25737
 C284 C 0.87667 0.13258 0.28957
 C285 C 0.89788 0.11253 0.32696
 C286 C 0.91585 0.09476 0.35862
 C287 C 0.14547 0.25823 -0.14478
 C288 C 0.12805 0.29050 -0.12777
 C289 C 0.10732 0.32792 -0.10751
 C290 C 0.08921 0.35954 -0.09003
 C291 C -0.14736 0.25834 0.14339
 C292 C -0.13120 0.29060 0.12512
 C293 C -0.11162 0.32801 0.10368
 C294 C -0.09421 0.35962 0.08544
 C295 C -0.14491 0.74231 -0.15033
 C296 C -0.12772 0.70977 -0.13352
 C297 C -0.10742 0.67209 -0.11320
 C298 C -0.08996 0.64034 -0.09521
 C299 C 0.14110 0.74031 0.14673
 C300 C 0.12327 0.70848 0.12922
 C301 C 0.10240 0.67149 0.10822
 C302 C 0.08464 0.64012 0.08986
 C303 C 0.25857 1.14525 0.85914
 C304 C 0.29039 1.12777 0.87702
 C305 C 0.32740 1.10689 0.89796
 C306 C 0.35884 1.08868 0.91577
 C307 C 0.25767 0.84991 1.14623
 C308 C 0.29025 0.86658 1.12906
 C309 C 0.32793 0.88675 1.10871
 C310 C 0.35963 0.90463 1.09114
 C311 C 0.74171 1.14309 1.14777
 C312 C 0.70943 1.12479 1.13160
 C313 C 0.67199 1.10330 1.11205
 C314 C 0.64033 1.08503 1.09467
 C315 C 0.74047 0.85696 0.85228
 C316 C 0.70832 0.87377 0.87005
 C317 C 0.67104 0.89367 0.89131
 C318 C 0.63953 0.91082 0.90991
   
