data_POSCAR
  _audit_creation_date              2014-09-24
  _audit_creation_method            'ToBaCCo'
  _symmetry_space_group_name_H-M    'P1'
  _symmetry_Int_Tables_number       1
  _symmetry_cell_setting            triclinic
  loop_
  _symmetry_equiv_pos_as_xyz
 x,y,z
_cell_length_a 33.3297
_cell_length_b 34.2074
_cell_length_c 65.6341
_cell_angle_alpha 86.463900
_cell_angle_beta 93.251700
_cell_angle_gamma 117.994700
loop_
  _atom_site_label
  _atom_site_type_symbol
  _atom_site_fract_x
  _atom_site_fract_y
  _atom_site_fract_z
C1 C 0.03150 0.08942 0.52074
 H2 H 0.06348 0.08947 0.51860
 C3 C 0.03023 0.12103 0.53271
 H4 H 0.06136 0.14492 0.54005
 C5 C -0.04775 0.05831 0.51343
 H6 H -0.07778 0.03431 0.50550
 C7 C -0.05060 0.08943 0.52533
 H8 H -0.08300 0.08917 0.52647
 N9 N -0.00702 0.05910 0.51131
 C10 C 0.02180 -0.04803 0.49801
 H11 H 0.01825 -0.04762 0.48152
 C12 C 0.02749 -0.08197 0.50847
 H13 H 0.02924 -0.10713 0.49988
 C14 C 0.02166 -0.01679 0.52923
 H15 H 0.01764 0.00766 0.53730
 C16 C 0.02747 -0.05006 0.54030
 H17 H 0.02802 -0.05065 0.55682
 Zn18 Zn 0.00064 0.02203 0.49352
 N19 N 0.01838 -0.01670 0.50848
 C20 C 0.08490 0.05780 0.47329
 N21 N 0.04558 0.05998 0.47514
 C22 C 0.03863 0.09251 0.46526
 C23 C 0.07210 0.12482 0.45303
 C24 C 0.11935 0.08949 0.46117
 C25 C -0.08603 -0.04894 0.49042
 C26 C -0.12426 -0.08181 0.48071
 C27 C -0.09842 -0.04122 0.44862
 C28 C -0.06010 -0.00971 0.45897
 N29 N -0.05437 -0.01440 0.47945
 H30 H 0.09012 0.03220 0.48159
 H31 H 0.00745 0.09403 0.46739
 H32 H 0.06635 0.15118 0.44585
 H33 H 0.15052 0.08737 0.45994
 H34 H -0.08069 -0.05179 0.50674
 H35 H -0.14858 -0.10811 0.49032
 H36 H -0.09964 -0.03695 0.43219
 H37 H -0.03407 0.01749 0.45041
 C38 C 0.02942 -0.08380 0.52992
 C39 C -0.01107 0.12173 0.53491
 C40 C -0.13096 -0.07941 0.45925
 C41 C 0.11337 0.12390 0.45103
 C42 C 1.09757 0.03068 0.15173
 H43 H 1.09844 0.06251 0.15278
 C44 C 1.12750 0.02648 0.13916
 H45 H 1.15173 0.05549 0.13075
 C46 C 1.06570 -0.04529 0.16208
 H47 H 1.04176 -0.07303 0.17118
 C48 C 1.09504 -0.05105 0.14960
 H49 H 1.09288 -0.08353 0.14897
 N50 N 1.06717 -0.00496 0.16269
 C51 C 0.95510 0.02306 0.17144
 H52 H 0.95517 0.02295 0.18793
 C53 C 0.92011 0.02589 0.15979
 H54 H 0.89368 0.02876 0.16741
 C55 C 0.98845 0.01747 0.14153
 H56 H 1.01416 0.01259 0.13448
 C57 C 0.95427 0.02045 0.12930
 H58 H 0.95423 0.01795 0.11294
 Zn59 Zn 1.02893 0.00596 0.17904
 N60 N 0.98804 0.01841 0.16221
 C61 C 1.06354 0.09248 0.19459
 N62 N 1.06717 0.05445 0.19512
 C63 C 1.10061 0.05044 0.20639
 C64 C 1.13217 0.08549 0.21781
 C65 C 1.09442 0.12845 0.20585
 C66 C 0.96124 -0.08097 0.18671
 C67 C 0.92908 -0.11629 0.19830
 C68 C 0.96298 -0.07504 0.22868
 C69 C 0.99458 -0.04059 0.21652
 N70 N 0.99283 -0.04392 0.19591
 H71 H 1.03711 0.09519 0.18527
 H72 H 1.10309 0.02004 0.20624
 H73 H 1.15911 0.08184 0.22630
 H74 H 1.09089 0.15838 0.20536
 H75 H 0.95987 -0.08228 0.17024
 H76 H 0.90312 -0.14480 0.19062
 H77 H 0.96432 -0.07147 0.24502
 H78 H 1.01924 -0.01052 0.22352
 C79 C 0.91900 0.02382 0.13845
 C80 C 1.12631 -0.01486 0.13783
 C81 C 0.92911 -0.11315 0.21953
 C82 C 1.12947 0.12528 0.21760
 C83 C 0.03713 0.94820 0.84681
 H84 H 0.02163 0.92060 0.83687
 C85 C 0.07055 0.95016 0.86104
 H86 H 0.08113 0.92462 0.86148
 C87 C 0.04136 1.01399 0.85882
 H88 H 0.02897 1.03815 0.85814
 C89 C 0.07549 1.01754 0.87320
 H90 H 0.08955 1.04471 0.88349
 N91 N 0.02346 0.98004 0.84576
 C92 C -0.09472 0.92793 0.85505
 H93 H -0.08143 0.90446 0.85681
 C94 C -0.13092 0.92234 0.86686
 H95 H -0.14570 0.89336 0.87704
 C96 C -0.09115 0.99346 0.83932
 H97 H -0.07460 1.02226 0.82925
 C98 C -0.12716 0.98915 0.85063
 H99 H -0.13629 1.01563 0.84891
 Zn100 Zn -0.02416 0.97333 0.82667
 N101 N -0.07581 0.96296 0.84150
 C102 C -0.07394 0.88663 0.80980
 N103 N -0.03545 0.92629 0.80969
 C104 C -0.00049 0.93449 0.79751
 C105 C -0.00214 0.90141 0.78565
 C106 C -0.07714 0.85244 0.79800
 C107 C 0.02893 1.06380 0.81167
 C108 C 0.03431 1.10093 0.79949
 C109 C -0.03624 1.05481 0.78153
 C110 C -0.04015 1.01876 0.79393
 N111 N -0.00873 1.02409 0.80911
 H112 H -0.10156 0.88105 0.81940
 H113 H 0.02948 0.96651 0.79759
 H114 H 0.02653 0.90835 0.77641
 H115 H -0.10720 0.82047 0.79872
 H116 H 0.05401 1.06718 0.82354
 H117 H 0.06332 1.13282 0.80227
 H118 H -0.06242 1.05011 0.76995
 H119 H -0.06948 0.98667 0.79209
 C120 C -0.14809 0.95321 0.86482
 C121 C 0.09022 0.98511 0.87446
 C122 C 0.00065 1.09682 0.78463
 C123 C -0.04034 0.85944 0.78615
 C124 C 0.45777 -0.02435 -0.00711
 C125 C 0.46036 -0.02615 0.01448
 C126 C 0.49823 -0.02701 0.02450
 C127 C 0.53366 -0.02614 0.01356
 C128 C 0.53034 -0.02590 -0.00806
 C129 C 0.49267 -0.02439 -0.01808
 H130 H 0.48981 -0.02440 -0.03462
 H131 H 0.50092 -0.02672 0.04104
 C132 C -0.00658 0.46620 0.64954
 C133 C -0.00771 0.46335 0.67111
 C134 C -0.00998 0.49688 0.68146
 C135 C -0.00992 0.53381 0.67087
 C136 C -0.00665 0.53772 0.64936
 C137 C -0.00553 0.50358 0.63897
 H138 H -0.00372 0.50616 0.62247
 H139 H -0.01170 0.49423 0.69797
 C140 C 0.54537 0.55875 0.32629
 C141 C 0.53954 0.56173 0.34719
 C142 C 0.50220 0.52785 0.35712
 C143 C 0.47006 0.49101 0.34660
 C144 C 0.47521 0.48843 0.32551
 C145 C 0.51285 0.52232 0.31566
 H146 H 0.51709 0.52011 0.29958
 H147 H 0.49829 0.53005 0.37323
 C148 C -0.01288 0.22473 0.56896
 C149 C -0.04807 0.18092 0.57083
 C150 C -0.04780 0.14744 0.55969
 C151 C -0.01223 0.15704 0.54654
 C152 C 0.02268 0.20087 0.54455
 C153 C 0.02237 0.23427 0.55561
 C154 C -0.01252 0.26037 0.58087
 N155 N 0.02129 0.30265 0.57871
 N156 N 0.02201 0.33475 0.58946
 C157 C -0.01103 0.32597 0.60286
 N158 N -0.04490 0.28368 0.60502
 N159 N -0.04563 0.25155 0.59425
 C160 C -0.01000 0.36182 0.61484
 C161 C -0.04376 0.35271 0.62898
 C162 C -0.04268 0.38660 0.64022
 C163 C -0.00772 0.43020 0.63765
 C164 C 0.02584 0.43949 0.62347
 C165 C 0.02481 0.40565 0.61222
 H166 H -0.07575 0.17239 0.58097
 H167 H -0.07498 0.11390 0.56164
 H168 H 0.05014 0.20947 0.53427
 H169 H 0.04992 0.26762 0.55369
 H170 H -0.07112 0.31942 0.63136
 H171 H -0.06929 0.37885 0.65089
 H172 H 0.05310 0.47291 0.62126
 H173 H 0.05135 0.41391 0.60146
 C174 C 0.81799 0.78674 0.25376
 C175 C 0.83922 0.77461 0.23926
 C176 C 0.87577 0.80699 0.22835
 C177 C 0.89210 0.85214 0.23183
 C178 C 0.87143 0.86419 0.24659
 C179 C 0.83477 0.83191 0.25738
 C180 C 0.77798 0.75274 0.26473
 N181 N 0.75348 0.76483 0.27634
 N182 N 0.71702 0.73442 0.28592
 C183 C 0.70353 0.69056 0.28434
 N184 N 0.72812 0.67843 0.27280
 N185 N 0.76452 0.70887 0.26316
 C186 C 0.66276 0.65676 0.29492
 C187 C 0.65244 0.61183 0.29575
 C188 C 0.61417 0.58010 0.30587
 C189 C 0.58548 0.59260 0.31534
 C190 C 0.59518 0.63724 0.31422
 C191 C 0.63361 0.66907 0.30425
 H192 H 0.82720 0.74012 0.23610
 H193 H 0.89125 0.79674 0.21716
 H194 H 0.88282 0.89874 0.24940
 H195 H 0.81933 0.84248 0.26845
 H196 H 0.67410 0.60119 0.28873
 H197 H 0.60718 0.54576 0.30652
 H198 H 0.57284 0.64744 0.32095
 H199 H 0.64023 0.70327 0.30372
 C200 C 0.19674 -0.01203 -0.08443
 C201 C 0.15522 -0.05096 -0.08638
 C202 C 0.12026 -0.05142 -0.09928
 C203 C 0.12580 -0.01291 -0.11042
 C204 C 0.16649 0.02652 -0.10788
 C205 C 0.20174 0.02692 -0.09508
 C206 C 0.23504 -0.01278 -0.07206
 N207 N 0.27749 0.02215 -0.07281
 N208 N 0.31225 0.02049 -0.06245
 C209 C 0.30606 -0.01615 -0.05089
 N210 N 0.26355 -0.05090 -0.05000
 N211 N 0.22883 -0.04928 -0.06039
 C212 C 0.34492 -0.01850 -0.03976
 C213 C 0.33769 -0.05449 -0.02616
 C214 C 0.37433 -0.05672 -0.01571
 C215 C 0.41887 -0.02302 -0.01864
 C216 C 0.42631 0.01258 -0.03240
 C217 C 0.38970 0.01496 -0.04279
 H218 H 0.15005 -0.08150 -0.07835
 H219 H 0.08897 -0.08213 -0.10076
 H220 H 0.17165 0.05661 -0.11637
 H221 H 0.23318 0.05754 -0.09384
 H222 H 0.30370 -0.08089 -0.02349
 H223 H 0.36797 -0.08464 -0.00526
 H224 H 0.46047 0.03890 -0.03485
 H225 H 0.39654 0.04300 -0.05323
 C226 C 0.02517 0.80331 0.56473
 C227 C -0.00020 0.79781 0.54629
 C228 C 0.00215 0.83451 0.53479
 C229 C 0.02987 0.87764 0.54144
 C230 C 0.05591 0.88328 0.55966
 C231 C 0.05368 0.84652 0.57116
 C232 C 0.02093 0.76414 0.57735
 N233 N 0.04668 0.76894 0.59474
 N234 N 0.04217 0.73367 0.60621
 C235 C 0.01162 0.69209 0.60082
 N236 N -0.01407 0.68732 0.58342
 N237 N -0.00952 0.72256 0.57194
 C238 C 0.00645 0.65274 0.61355
 C239 C -0.02744 0.61009 0.60860
 C240 C -0.03195 0.57289 0.62038
 C241 C -0.00278 0.57750 0.63736
 C242 C 0.03109 0.62000 0.64236
 C243 C 0.03553 0.65727 0.63064
 H244 H -0.02247 0.76507 0.54084
 H245 H -0.01887 0.82901 0.52099
 H246 H 0.07788 0.91613 0.56507
 H247 H 0.07382 0.85200 0.58524
 H248 H -0.05051 0.60534 0.59559
 H249 H -0.05831 0.54041 0.61625
 H250 H 0.05450 0.62427 0.65519
 H251 H 0.06210 0.68956 0.63485
 C252 C 0.23264 0.23549 0.25024
 C253 C 0.21479 0.19213 0.25879
 C254 C 0.18077 0.15657 0.24838
 C255 C 0.16388 0.16344 0.22913
 C256 C 0.18124 0.20687 0.22070
 C257 C 0.21517 0.24249 0.23115
 C258 C 0.26962 0.27304 0.26106
 N259 N 0.28434 0.31543 0.25377
 N260 N 0.31771 0.34910 0.26344
 C261 C 0.33793 0.34185 0.28078
 N262 N 0.32325 0.29946 0.28805
 N263 N 0.28982 0.26579 0.27840
 C264 C 0.37468 0.37938 0.29169
 C265 C 0.39828 0.37165 0.30860
 C266 C 0.43187 0.40705 0.31927
 C267 C 0.44205 0.45081 0.31343
 C268 C 0.41947 0.45871 0.29626
 C269 C 0.38611 0.42337 0.28549
 H270 H 0.22714 0.18555 0.27354
 H271 H 0.16760 0.12363 0.25546
 H272 H 0.16943 0.21325 0.20578
 H273 H 0.22818 0.27543 0.22408
 H274 H 0.39066 0.33824 0.31368
 H275 H 0.44944 0.40030 0.33230
 H276 H 0.42694 0.49226 0.29149
 H277 H 0.36874 0.43056 0.27252
 C278 C 0.74923 -0.05086 -0.09776
 C279 C 0.75657 -0.02992 -0.11724
 C280 C 0.78913 -0.02983 -0.12969
 C281 C 0.81606 -0.05040 -0.12308
 C282 C 0.80697 -0.07318 -0.10379
 C283 C 0.77414 -0.07325 -0.09133
 C284 C 0.71664 -0.04802 -0.08419
 N285 N 0.70508 -0.07186 -0.06619
 N286 N 0.67645 -0.06832 -0.05395
 C287 C 0.65840 -0.04061 -0.05915
 N288 N 0.67001 -0.01684 -0.07713
 N289 N 0.69846 -0.02048 -0.08937
 C290 C 0.62661 -0.03632 -0.04563
 C291 C 0.61349 -0.00302 -0.04978
 C292 C 0.58284 0.00069 -0.03739
 C293 C 0.56451 -0.02884 -0.02059
 C294 C 0.57758 -0.06210 -0.01637
 C295 C 0.60856 -0.06564 -0.02868
 H296 H 0.73722 -0.01325 -0.12294
 H297 H 0.79213 -0.01418 -0.14475
 H298 H 0.82673 -0.08895 -0.09757
 H299 H 0.76926 -0.08982 -0.07639
 H300 H 0.62686 0.02027 -0.06264
 H301 H 0.57337 0.02668 -0.04092
 H302 H 0.56329 -0.08577 -0.00371
 H303 H 0.61775 -0.09179 -0.02510
 C304 C 0.22130 -0.02502 0.09926
 C305 C 0.20999 -0.04883 0.11812
 C306 C 0.17865 -0.04615 0.13053
 C307 C 0.15785 -0.01972 0.12431
 C308 C 0.16836 0.00318 0.10522
 C309 C 0.19978 0.00068 0.09289
 C310 C 0.25602 -0.02605 0.08648
 N311 N 0.27184 0.00208 0.06992
 N312 N 0.30372 0.00195 0.05863
 C313 C 0.32111 -0.02640 0.06339
 N314 N 0.30517 -0.05469 0.07990
 N315 N 0.27336 -0.05446 0.09123
 C316 C 0.35689 -0.02620 0.05091
 C317 C 0.37043 -0.05940 0.05403
 C318 C 0.40407 -0.05923 0.04220
 C319 C 0.42486 -0.02588 0.02703
 C320 C 0.41199 0.00773 0.02410
 C321 C 0.37810 0.00739 0.03580
 H322 H 0.22599 -0.06889 0.12351
 H323 H 0.17164 -0.06385 0.14522
 H324 H 0.15225 0.02310 0.09979
 H325 H 0.20730 0.01908 0.07837
 H326 H 0.35484 -0.08575 0.06553
 H327 H 0.41361 -0.08540 0.04474
 H328 H 0.42824 0.03428 0.01276
 H329 H 0.36880 0.03369 0.03311
 C330 C 0.76496 0.81513 0.42727
 C331 C 0.78384 0.85843 0.41881
 C332 C 0.81807 0.89358 0.42941
 C333 C 0.83392 0.88677 0.44916
 C334 C 0.81291 0.84290 0.45775
 C335 C 0.77961 0.80779 0.44685
 C336 C 0.73098 0.77753 0.41556
 N337 N 0.72776 0.73654 0.41870
 N338 N 0.69777 0.70268 0.40793
 C339 C 0.66949 0.70835 0.39375
 N340 N 0.67250 0.74928 0.39069
 N341 N 0.70285 0.78327 0.40130
 C342 C 0.63616 0.67072 0.38187
 C343 C 0.59513 0.66942 0.37455
 C344 C 0.56334 0.63350 0.36356
 C345 C 0.57271 0.59906 0.35922
 C346 C 0.61369 0.60029 0.36637
 C347 C 0.64502 0.63566 0.37780
 H348 H 0.77279 0.86507 0.40376
 H349 H 0.83046 0.92623 0.42217
 H350 H 0.82395 0.83422 0.47233
 H351 H 0.76551 0.77462 0.45376
 H352 H 0.58735 0.69586 0.37758
 H353 H 0.53172 0.63283 0.35814
 H354 H 0.62125 0.57381 0.36313
 H355 H 0.67647 0.63596 0.38320
 C356 C 0.00273 0.21043 0.75146
 C357 C -0.03736 0.17749 0.76016
 C358 C -0.03773 0.14085 0.77086
 C359 C 0.00199 0.13621 0.77325
 C360 C 0.04233 0.16931 0.76483
 C361 C 0.04264 0.20598 0.75392
 C362 C 0.00236 0.24886 0.73987
 N363 N 0.03852 0.27774 0.72883
 N364 N 0.03751 0.31178 0.71820
 C365 C 0.00036 0.31840 0.71820
 N366 N -0.03565 0.28961 0.72930
 N367 N -0.03469 0.25558 0.73987
 C368 C -0.00122 0.35593 0.70628
 C369 C -0.03749 0.36548 0.70835
 C370 C -0.03938 0.40052 0.69701
 C371 C -0.00534 0.42645 0.68323
 C372 C 0.03110 0.41731 0.68121
 C373 C 0.03317 0.38238 0.69262
 H374 H -0.06870 0.17979 0.75862
 H375 H -0.06914 0.11623 0.77749
 H376 H 0.07338 0.16647 0.76641
 H377 H 0.07413 0.23083 0.74746
 H378 H -0.06447 0.34591 0.71876
 H379 H -0.06774 0.40711 0.69879
 H380 H 0.05799 0.43731 0.67081
 H381 H 0.06157 0.37599 0.69065
 C382 C 0.80430 0.01279 0.10077
 C383 C 0.79795 -0.00939 0.12002
 C384 C 0.83522 -0.00481 0.13243
 C385 C 0.87974 0.02189 0.12587
 C386 C 0.88620 0.04468 0.10679
 C387 C 0.84889 0.04031 0.09440
 C388 C 0.76459 0.00644 0.08733
 N389 N 0.76999 0.03068 0.06955
 N390 N 0.73422 0.02461 0.05745
 C391 C 0.69156 -0.00611 0.06256
 N392 N 0.68622 -0.03038 0.08032
 N393 N 0.72194 -0.02423 0.09243
 C394 C 0.65157 -0.01251 0.04932
 C395 C 0.60813 -0.04708 0.05379
 C396 C 0.57008 -0.05210 0.04186
 C397 C 0.57461 -0.02271 0.02521
 C398 C 0.61798 0.01152 0.02054
 C399 C 0.65613 0.01643 0.03241
 H400 H 0.76412 -0.03077 0.12544
 H401 H 0.82914 -0.02328 0.14692
 H402 H 0.92015 0.06577 0.10142
 H403 H 0.85503 0.05798 0.07971
 H404 H 0.60337 -0.07012 0.06663
 H405 H 0.53695 -0.07876 0.04573
 H406 H 0.62219 0.03507 0.00799
 H407 H 0.68902 0.04349 0.02857
 C408 C 0.22094 0.23245 0.41844
 C409 C 0.23063 0.21340 0.43639
 C410 C 0.19589 0.17763 0.44671
 C411 C 0.15062 0.15997 0.43931
 C412 C 0.14105 0.17840 0.42112
 C413 C 0.17578 0.21424 0.41082
 C414 C 0.25761 0.27152 0.40796
 N415 N 0.24808 0.29191 0.39138
 N416 N 0.28099 0.32735 0.38216
 C417 C 0.32486 0.34395 0.38913
 N418 N 0.33436 0.32353 0.40570
 N419 N 0.30146 0.28814 0.41492
 C420 C 0.36169 0.38307 0.37877
 C421 C 0.40731 0.39806 0.38527
 C422 C 0.44224 0.43380 0.37507
 C423 C 0.43237 0.45528 0.35814
 C424 C 0.38683 0.44138 0.35198
 C425 C 0.35181 0.40546 0.36212
 H426 H 0.26500 0.22656 0.44272
 H427 H 0.20436 0.16465 0.46082
 H428 H 0.10661 0.16516 0.41487
 H429 H 0.16711 0.22784 0.39695
 H430 H 0.41621 0.38177 0.39805
 H431 H 0.47717 0.44403 0.38006
 H432 H 0.37847 0.45790 0.33910
 H433 H 0.31706 0.39503 0.35680
 C434 C -0.03711 0.75627 0.75294
 C435 C 0.00021 0.78397 0.76528
 C436 C -0.00131 0.81697 0.77614
 C437 C -0.04024 0.82303 0.77507
 C438 C -0.07807 0.79478 0.76316
 C439 C -0.07644 0.76183 0.75209
 C440 C -0.03428 0.72242 0.74088
 N441 N -0.06705 0.69946 0.72669
 N442 N -0.06358 0.66985 0.71561
 C443 C -0.02724 0.66195 0.71828
 N444 N 0.00535 0.68479 0.73252
 N445 N 0.00194 0.71441 0.74354
 C446 C -0.02294 0.62926 0.70597
 C447 C 0.01236 0.61816 0.71041
 C448 C 0.01655 0.58729 0.69895
 C449 C -0.01418 0.56713 0.68270
 C450 C -0.04945 0.57808 0.67817
 C451 C -0.05382 0.60886 0.68970
 H452 H 0.03098 0.78060 0.76638
 H453 H 0.02808 0.83782 0.78547
 H454 H -0.10845 0.79886 0.76204
 H455 H -0.10585 0.74092 0.74280
 H456 H 0.03672 0.63314 0.72282
 H457 H 0.04399 0.57927 0.70268
 H458 H -0.07382 0.56249 0.66582
 H459 H -0.08135 0.61665 0.68585
   
