data_POSCAR
  _audit_creation_date              2014-09-24
  _audit_creation_method            'ToBaCCo'
  _symmetry_space_group_name_H-M    'P1'
  _symmetry_Int_Tables_number       1
  _symmetry_cell_setting            triclinic
  loop_
  _symmetry_equiv_pos_as_xyz
 x,y,z
_cell_length_a 43.9041
_cell_length_b 44.2116
_cell_length_c 43.5010
_cell_angle_alpha 91.206400
_cell_angle_beta 91.090400
_cell_angle_gamma 92.762700
loop_
  _atom_site_label
  _atom_site_type_symbol
  _atom_site_fract_x
  _atom_site_fract_y
  _atom_site_fract_z
C1 C 0.22808 0.49451 1.02940
 H2 H 0.24021 0.47424 1.02491
 C3 C 0.21015 0.49642 1.05550
 H4 H 0.21001 0.47773 1.07114
 C5 C 0.21439 0.54320 1.01429
 H6 H 0.21562 0.56101 0.99761
 C7 C 0.19651 0.54627 1.04020
 H8 H 0.18373 0.56647 1.04234
 N9 N 0.22993 0.51778 1.00951
 C10 C 0.29924 0.54949 0.94545
 H11 H 0.29501 0.53366 0.92637
 C12 C 0.32151 0.57299 0.94324
 H13 H 0.33454 0.57506 0.92244
 C14 C 0.28771 0.56578 0.99597
 H15 H 0.27475 0.56275 1.01662
 C16 C 0.31008 0.58927 0.99493
 H17 H 0.31382 0.60440 1.01468
 Zn18 Zn 0.25169 0.51500 0.97260
 N19 N 0.28241 0.54672 0.97127
 C20 C 0.22399 0.54327 0.92215
 N21 N 0.22245 0.51865 0.94039
 C22 C 0.19791 0.49860 0.93889
 C23 C 0.17345 0.50319 0.91874
 C24 C 0.20000 0.54883 0.90190
 C25 C 0.29440 0.47488 0.99132
 C26 C 0.30945 0.44788 0.99290
 C27 C 0.27619 0.42695 0.95210
 C28 C 0.26201 0.45459 0.95099
 N29 N 0.27101 0.47768 0.97081
 H30 H 0.24305 0.55955 0.92430
 H31 H 0.19675 0.47975 0.95434
 H32 H 0.15361 0.48766 0.91864
 H33 H 0.20130 0.56896 0.88813
 H34 H 0.30108 0.49362 1.00678
 H35 H 0.32770 0.44592 1.00973
 H36 H 0.26869 0.40864 0.93641
 H37 H 0.24368 0.45740 0.93455
 C38 C 0.32706 0.59326 0.96820
 C39 C 0.19389 0.52264 1.06150
 C40 C 0.30017 0.42340 0.97335
 C41 C 0.17405 0.52901 0.90050
 C42 C 0.79511 0.49978 -0.01602
 H43 H 0.79918 0.51755 0.00113
 C44 C 0.81372 0.49883 -0.04166
 H45 H 0.83219 0.51574 -0.04371
 C46 C 0.76664 0.45586 -0.03398
 H47 H 0.74810 0.43929 -0.03119
 C48 C 0.78487 0.45391 -0.05985
 H49 H 0.78017 0.43578 -0.07665
 N50 N 0.77249 0.47811 -0.01226
 C51 C 0.71574 0.51874 0.05683
 H52 H 0.71849 0.50274 0.07504
 C53 C 0.69926 0.54447 0.06195
 H54 H 0.68899 0.54785 0.08411
 C55 C 0.72533 0.53307 0.00558
 H56 H 0.73560 0.52844 -0.01631
 C57 C 0.70903 0.55922 0.00974
 H58 H 0.70714 0.57475 -0.00904
 Zn59 Zn 0.75050 0.47804 0.02504
 N60 N 0.72826 0.51347 0.02900
 C61 C 0.78418 0.45411 0.07591
 N62 N 0.77871 0.47872 0.05868
 C63 C 0.79307 0.50608 0.06525
 C64 C 0.81425 0.50945 0.08942
 C65 C 0.80543 0.45646 0.10037
 C66 C 0.69258 0.44785 0.02717
 C67 C 0.67145 0.42329 0.02578
 C68 C 0.71303 0.38978 0.02119
 C69 C 0.73345 0.41506 0.02292
 N70 N 0.72297 0.44345 0.02565
 H71 H 0.77216 0.43268 0.07087
 H72 H 0.78780 0.52553 0.05187
 H73 H 0.82571 0.53140 0.09380
 H74 H 0.80955 0.43675 0.11392
 H75 H 0.68449 0.47047 0.02891
 H76 H 0.64743 0.42745 0.02731
 H77 H 0.72180 0.36748 0.01811
 H78 H 0.75766 0.41208 0.02107
 C79 C 0.69574 0.56519 0.03827
 C80 C 0.80907 0.47531 -0.06365
 C81 C 0.68151 0.39377 0.02234
 C82 C 0.82070 0.48448 0.10737
 C83 C 0.02179 0.30573 0.48006
 H84 H 0.01711 0.31742 0.50138
 C85 C 0.02619 0.32231 0.45341
 H86 H 0.02549 0.34667 0.45546
 C87 C 0.03034 0.26006 0.45302
 H88 H 0.03186 0.23571 0.45314
 C89 C 0.03506 0.27571 0.42583
 H90 H 0.03912 0.26251 0.40525
 N91 N 0.02370 0.27517 0.47936
 C92 C -0.02950 0.21766 0.54025
 H93 H -0.01639 0.22141 0.56142
 C94 C -0.05716 0.20072 0.54034
 H95 H -0.06514 0.19119 0.56163
 C96 C -0.03494 0.22546 0.48672
 H97 H -0.02640 0.23541 0.46594
 C98 C -0.06251 0.20828 0.48568
 H99 H -0.07499 0.20514 0.46405
 Zn100 Zn 0.01845 0.25291 0.51573
 N101 N -0.01892 0.22957 0.51370
 C102 C -0.00897 0.29384 0.55525
 N103 N 0.01742 0.27984 0.55017
 C104 C 0.04210 0.28476 0.56929
 C105 C 0.04102 0.30497 0.59432
 C106 C -0.01122 0.31385 0.58027
 C107 C 0.08028 0.23913 0.51609
 C108 C 0.10526 0.22085 0.51844
 C109 C 0.07052 0.17811 0.52767
 C110 C 0.04622 0.19720 0.52512
 N111 N 0.05149 0.22716 0.51972
 H112 H -0.02837 0.28934 0.53984
 H113 H 0.06283 0.27333 0.56502
 H114 H 0.06130 0.30922 0.60858
 H115 H -0.03267 0.32425 0.58407
 H116 H 0.08380 0.26293 0.51124
 H117 H 0.12797 0.23077 0.51520
 H118 H 0.06585 0.15445 0.53258
 H119 H 0.02319 0.18800 0.52756
 C120 C -0.07393 0.19576 0.51276
 C121 C 0.03301 0.30751 0.42543
 C122 C 0.10055 0.18988 0.52438
 C123 C 0.01410 0.31993 0.60012
 C124 C 0.94219 0.70542 0.51370
 H125 H 0.92980 0.70257 0.49201
 C126 C 0.93480 0.68666 0.53808
 H127 H 0.91675 0.66924 0.53496
 C128 C 0.98156 0.73097 0.54360
 H129 H 0.99993 0.74810 0.54552
 C130 C 0.97505 0.71254 0.56856
 H131 H 0.98827 0.71590 0.58973
 N132 N 0.96496 0.72726 0.51696
 C133 C 0.94563 0.79895 0.45324
 H134 H 0.96707 0.80148 0.44148
 C135 C 0.92237 0.81863 0.44711
 H136 H 0.92588 0.83629 0.43049
 C137 C 0.91501 0.77316 0.48960
 H138 H 0.91230 0.75589 0.50659
 C139 C 0.89106 0.79193 0.48381
 H140 H 0.87016 0.78887 0.49645
 Zn141 Zn 0.97376 0.75085 0.48226
 N142 N 0.94152 0.77667 0.47409
 C143 C 0.96409 0.72696 0.42140
 N144 N 0.97851 0.72356 0.44896
 C145 C 0.99678 0.70008 0.45383
 C146 C 1.00197 0.67935 0.43015
 C147 C 0.96871 0.70676 0.39701
 C148 C 1.01051 0.79876 0.50918
 C149 C 1.03721 0.81681 0.51449
 C150 C 1.06281 0.78536 0.47803
 C151 C 1.03561 0.76823 0.47311
 N152 N 1.01027 0.77485 0.48895
 H153 H 0.94924 0.74547 0.41819
 H154 H 1.00774 0.69781 0.47610
 H155 H 1.01729 0.66133 0.43424
 H156 H 0.95719 0.70984 0.37515
 H157 H 0.98994 0.80373 0.52123
 H158 H 1.03721 0.83560 0.53086
 H159 H 1.08279 0.77970 0.46528
 H160 H 1.03491 0.74962 0.45664
 C161 C 0.89460 0.81498 0.46236
 C162 C 0.95131 0.69012 0.56596
 C163 C 1.06384 0.80990 0.49901
 C164 C 0.98809 0.68274 0.40118
 C165 C 0.43696 -0.02732 0.28767
 H166 H 0.45652 -0.04128 0.28748
 C167 C 0.41294 -0.03411 0.30728
 H168 H 0.41404 -0.05353 0.32196
 C169 C 0.41281 0.01615 0.27025
 H170 H 0.41327 0.03611 0.25630
 C171 C 0.38849 0.01048 0.28999
 H172 H 0.37004 0.02586 0.29075
 N173 N 0.43642 -0.00267 0.26953
 C174 C 0.50181 -0.01696 0.19760
 H175 H 0.51365 0.00506 0.19933
 C176 C 0.50748 -0.03644 0.17301
 H177 H 0.52450 -0.02920 0.15670
 C178 C 0.46557 -0.05246 0.21731
 H179 H 0.44840 -0.05820 0.23392
 C180 C 0.47137 -0.07323 0.19362
 H181 H 0.45822 -0.09458 0.19259
 Zn182 Zn 0.47202 0.00658 0.24713
 N183 N 0.48071 -0.02487 0.21877
 C184 C 0.52828 -0.00525 0.27731
 N185 N 0.50411 0.01283 0.27647
 C186 C 0.50103 0.03521 0.29792
 C187 C 0.52290 0.04030 0.32135
 C188 C 0.55055 -0.00120 0.30066
 C189 C 0.44672 0.04123 0.20046
 C190 C 0.44811 0.06295 0.17753
 C191 C 0.49330 0.08579 0.20276
 C192 C 0.49091 0.06390 0.22529
 N193 N 0.46841 0.04166 0.22328
 H194 H 0.52995 -0.02326 0.26031
 H195 H 0.48141 0.04908 0.29679
 H196 H 0.52013 0.05861 0.33782
 H197 H 0.56910 -0.01644 0.30146
 H198 H 0.42957 0.02282 0.19892
 H199 H 0.43181 0.06131 0.15850
 H200 H 0.51232 0.10234 0.20374
 H201 H 0.50846 0.06341 0.24296
 C202 C 0.49192 -0.06504 0.17030
 C203 C 0.38849 -0.01490 0.30886
 C204 C 0.47237 0.08479 0.17796
 C205 C 0.54794 0.02174 0.32326
 C206 C 0.56228 -0.03154 0.70485
 H207 H 0.54856 -0.05255 0.70400
 C208 C 0.58641 -0.02730 0.68469
 H209 H 0.59144 -0.04542 0.66874
 C210 C 0.57220 0.01755 0.72676
 H211 H 0.56622 0.03521 0.74273
 C212 C 0.59649 0.02277 0.70699
 H213 H 0.60893 0.04453 0.70801
 N214 N 0.55580 -0.00937 0.72551
 C215 C 0.50763 -0.05420 0.80050
 H216 H 0.48687 -0.04201 0.80124
 C217 C 0.51340 -0.07575 0.82274
 H218 H 0.49698 -0.07991 0.84060
 C219 C 0.55505 -0.06225 0.77737
 H220 H 0.57159 -0.05659 0.76012
 C221 C 0.56167 -0.08394 0.79900
 H222 H 0.58301 -0.09514 0.79758
 Zn223 Zn 0.52145 -0.01625 0.75063
 N224 N 0.52842 -0.04781 0.77846
 C225 C 0.46764 -0.04971 0.72822
 N226 N 0.48789 -0.02603 0.72374
 C227 C 0.48509 -0.00780 0.69917
 C228 C 0.46085 -0.01259 0.67823
 C229 C 0.44282 -0.05519 0.70789
 C230 C 0.53419 0.02925 0.79617
 C231 C 0.52969 0.05606 0.81277
 C232 C 0.48314 0.06157 0.78335
 C233 C 0.48840 0.03463 0.76752
 N234 N 0.51390 0.01937 0.77370
 H235 H 0.47044 -0.06411 0.74772
 H236 H 0.50171 0.01068 0.69599
 H237 H 0.45933 0.00210 0.65871
 H238 H 0.42646 -0.07362 0.71229
 H239 H 0.55413 0.01651 0.80085
 H240 H 0.54639 0.06400 0.83010
 H241 H 0.46280 0.07348 0.77796
 H242 H 0.47215 0.02615 0.75011
 C243 C 0.54096 -0.09064 0.82239
 C244 C 0.60386 0.00020 0.68555
 C245 C 0.50410 0.07279 0.80605
 C246 C 0.43906 -0.03633 0.68257
 C247 C 0.23376 0.02209 0.52224
 C248 C 0.25878 0.01458 0.54564
 C249 C 0.27154 -0.01246 0.54025
 C250 C 0.25756 -0.02991 0.51190
 C251 C 0.24854 0.01924 0.49076
 C252 C 0.26090 -0.00789 0.48520
 C253 C 0.21091 -0.00531 0.52364
 C254 C 0.22298 -0.03267 0.51772
 H255 H 0.26414 0.02816 0.56616
 H256 H 0.26849 -0.05142 0.50703
 H257 H 0.24832 0.03700 0.47401
 H258 H 0.18757 -0.00309 0.53047
 C259 C 0.76455 -0.01647 0.47166
 C260 C 0.75014 -0.01820 0.50353
 C261 C 0.73549 0.00687 0.51195
 C262 C 0.73624 0.03167 0.48801
 C263 C 0.73832 -0.00890 0.44975
 C264 C 0.72310 0.01589 0.45846
 C265 C 0.78506 0.01283 0.47322
 C266 C 0.77038 0.03799 0.48211
 H267 H 0.75211 -0.03735 0.51846
 H268 H 0.72404 0.05204 0.49497
 H269 H 0.73099 -0.02341 0.43037
 H270 H 0.80927 0.01371 0.46944
 C271 C 0.44517 0.26632 0.98753
 C272 C 0.44705 0.25011 0.95628
 C273 C 0.47111 0.23217 0.95352
 C274 C 0.49156 0.23207 0.98249
 C275 C 0.44582 0.24094 1.01118
 C276 C 0.47004 0.22262 1.00879
 C277 C 0.47634 0.28333 0.99232
 C278 C 0.50059 0.26556 0.98950
 H279 H 0.43002 0.25208 0.93818
 H280 H 0.51156 0.21834 0.97886
 H281 H 0.42942 0.23941 1.02934
 H282 H 0.47934 0.30647 1.00070
 C283 C 0.55548 0.72601 0.02266
 C284 C 0.56556 0.74249 -0.00644
 C285 C 0.54441 0.76057 -0.01876
 C286 C 0.51439 0.75988 -0.00106
 C287 C 0.54576 0.75168 0.04443
 C288 C 0.52445 0.76943 0.03190
 C289 C 0.52561 0.70882 0.01337
 C290 C 0.50410 0.72623 0.00096
 H291 H 0.58835 0.74113 -0.01527
 H292 H 0.49663 0.77422 -0.01067
 H293 H 0.55708 0.75809 0.06600
 H294 H 0.52203 0.68462 0.01615
 C295 C 1.03770 0.45722 0.26804
 C296 C 1.00694 0.45499 0.25059
 C297 C 1.00117 0.47981 0.23403
 C298 C 1.02681 0.50452 0.23573
 C299 C 1.06155 0.46413 0.24338
 C300 C 1.05589 0.48884 0.22650
 C301 C 1.03734 0.48713 0.28702
 C302 C 1.03101 0.51198 0.27030
 H303 H 0.99006 0.43662 0.25349
 H304 H 1.02164 0.52371 0.22090
 H305 H 1.08266 0.45267 0.24144
 H306 H 1.04234 0.48833 0.31145
 C307 C -0.04097 0.54479 0.72760
 C308 C -0.06453 0.53338 0.75093
 C309 C -0.05450 0.51142 0.76952
 C310 C -0.02158 0.50296 0.76350
 C311 C -0.01319 0.55503 0.74771
 C312 C -0.00291 0.53336 0.76660
 C313 C -0.03130 0.51633 0.71059
 C314 C -0.02138 0.49411 0.72902
 H315 H -0.08663 0.54267 0.75378
 H316 H -0.01378 0.48547 0.77930
 H317 H -0.00306 0.57782 0.74739
 H318 H -0.03180 0.51462 0.68574
 C319 C 0.14912 0.12164 0.51873
 C320 C 0.17533 0.13244 0.53386
 C321 C 0.17877 0.16177 0.54605
 C322 C 0.15413 0.18064 0.54263
 C323 C 0.12672 0.16997 0.52723
 C324 C 0.12443 0.13997 0.51501
 O325 O 0.15032 0.09306 0.50908
 C326 C 0.17784 0.08560 0.51845
 C327 C 0.19410 0.10884 0.53369
 C328 C 0.22350 0.10584 0.54525
 C329 C 0.23646 0.07760 0.54137
 C330 C 0.21972 0.05272 0.52673
 C331 C 0.19026 0.05744 0.51427
 H332 H 0.19956 0.16975 0.55801
 H333 H 0.15621 0.20334 0.55251
 H334 H 0.10407 0.13114 0.50282
 H335 H 0.23611 0.12463 0.55668
 H336 H 0.25966 0.07549 0.54949
 H337 H 0.17723 0.03971 0.50162
 C338 C 0.64118 0.62777 0.02602
 C339 C 0.64321 0.64245 0.05422
 C340 C 0.66238 0.63359 0.07783
 C341 C 0.67998 0.60844 0.07219
 C342 C 0.67802 0.59259 0.04338
 C343 C 0.65839 0.60271 0.01993
 O344 O 0.62140 0.63960 0.00682
 C345 C 0.61071 0.66221 0.02328
 C346 C 0.62321 0.66493 0.05243
 C347 C 0.61471 0.68679 0.07360
 C348 C 0.59252 0.70678 0.06432
 C349 C 0.57941 0.70477 0.03409
 C350 C 0.58882 0.68184 0.01352
 H351 H 0.66369 0.64555 0.09982
 H352 H 0.69519 0.60140 0.09027
 H353 H 0.65595 0.59099 -0.00214
 H354 H 0.62467 0.68829 0.09657
 H355 H 0.58584 0.72336 0.08106
 H356 H 0.57922 0.67937 -0.00957
 C357 C 0.85054 -0.11420 0.45627
 C358 C 0.82133 -0.12652 0.45213
 C359 C 0.81475 -0.15757 0.44980
 C360 C 0.83924 -0.17670 0.45222
 C361 C 0.86954 -0.16454 0.45681
 C362 C 0.87525 -0.13278 0.45833
 O363 O 0.85164 -0.08432 0.46013
 C364 C 0.82252 -0.07762 0.45842
 C365 C 0.80307 -0.10261 0.45349
 C366 C 0.77157 -0.10100 0.45306
 C367 C 0.75964 -0.07250 0.45808
 C368 C 0.77910 -0.04609 0.46321
 C369 C 0.81119 -0.04903 0.46331
 H370 H 0.79154 -0.16676 0.44702
 H371 H 0.83461 -0.20098 0.45103
 H372 H 0.89804 -0.12292 0.46260
 H373 H 0.75667 -0.12110 0.44986
 H374 H 0.73511 -0.07109 0.45885
 H375 H 0.82726 -0.03034 0.46848
 C376 C 0.36127 0.36663 0.98054
 C377 C 0.34390 0.33998 0.98200
 C378 C 0.31218 0.33894 0.97990
 C379 C 0.29788 0.36650 0.97647
 C380 C 0.31539 0.39431 0.97549
 C381 C 0.34757 0.39420 0.97744
 O382 O 0.39100 0.36278 0.98213
 C383 C 0.39251 0.33307 0.98484
 C384 C 0.36440 0.31801 0.98504
 C385 C 0.36098 0.28670 0.98719
 C386 C 0.38761 0.27034 0.98903
 C387 C 0.41706 0.28529 0.98878
 C388 C 0.41917 0.31732 0.98638
 H389 H 0.29893 0.31771 0.98090
 H390 H 0.27322 0.36629 0.97520
 H391 H 0.36156 0.41500 0.97639
 H392 H 0.33864 0.27523 0.98702
 H393 H 0.38535 0.24588 0.98994
 H394 H 0.44061 0.33002 0.98449
 C395 C 0.86441 0.13636 0.49065
 C396 C 0.84342 0.14138 0.51305
 C397 C 0.84780 0.16403 0.53561
 C398 C 0.87497 0.18211 0.53514
 C399 C 0.89698 0.17735 0.51226
 C400 C 0.89138 0.15427 0.48954
 O401 O 0.85673 0.11265 0.47243
 C402 C 0.83033 0.10246 0.48357
 C403 C 0.82108 0.11931 0.50831
 C404 C 0.79470 0.11186 0.52422
 C405 C 0.77745 0.08569 0.51457
 C406 C 0.78689 0.06742 0.48958
 C407 C 0.81352 0.07643 0.47355
 H408 H 0.83113 0.16733 0.55323
 H409 H 0.87893 0.19977 0.55258
 H410 H 0.90801 0.14972 0.47218
 H411 H 0.78803 0.12528 0.54384
 H412 H 0.75749 0.07915 0.52749
 H413 H 0.82140 0.06321 0.45432
 C414 C 0.39430 0.64673 -0.01114
 C415 C 0.39542 0.66468 -0.03661
 C416 C 0.37493 0.66041 -0.06131
 C417 C 0.35245 0.63677 -0.05961
 C418 C 0.35074 0.61819 -0.03341
 C419 C 0.37198 0.62344 -0.00882
 O420 O 0.41661 0.65346 0.00918
 C421 C 0.43216 0.67616 -0.00365
 C422 C 0.42013 0.68413 -0.03159
 C423 C 0.43350 0.70700 -0.04915
 C424 C 0.46061 0.72179 -0.03766
 C425 C 0.47385 0.71322 -0.00936
 C426 C 0.45900 0.69041 0.00804
 H427 H 0.37639 0.67455 -0.08129
 H428 H 0.33625 0.63304 -0.07855
 H429 H 0.37160 0.60932 0.01123
 H430 H 0.42375 0.71283 -0.07115
 H431 H 0.47187 0.73897 -0.05134
 H432 H 0.46844 0.68344 0.02981
 C433 C 0.12108 -0.12382 0.50819
 C434 C 0.14754 -0.13872 0.51268
 C435 C 0.14814 -0.17010 0.51346
 C436 C 0.12034 -0.18682 0.50925
 C437 C 0.09271 -0.17199 0.50456
 C438 C 0.09313 -0.13998 0.50429
 O439 O 0.12563 -0.09395 0.50743
 C440 C 0.15559 -0.08993 0.51163
 C441 C 0.17002 -0.11656 0.51502
 C442 C 0.20135 -0.11756 0.51926
 C443 C 0.21854 -0.08996 0.52020
 C444 C 0.20438 -0.06190 0.51687
 C445 C 0.17223 -0.06225 0.51227
 H446 H 0.16928 -0.18132 0.51691
 H447 H 0.12028 -0.21130 0.50968
 H448 H 0.07247 -0.12808 0.50035
 H449 H 0.21223 -0.13885 0.52175
 H450 H 0.24278 -0.09094 0.52370
 H451 H 0.16027 -0.04178 0.50866
 C452 C 0.61007 0.34591 1.00166
 C453 C 0.61623 0.31916 1.01551
 C454 C 0.64343 0.31506 1.03149
 C455 C 0.66503 0.33959 1.03338
 C456 C 0.65910 0.36753 1.01940
 C457 C 0.63121 0.37041 1.00305
 O458 O 0.58255 0.34563 0.98852
 C459 C 0.57099 0.31812 0.99426
 C460 C 0.59067 0.30094 1.01061
 C461 C 0.58270 0.27174 1.01983
 C462 C 0.55318 0.25995 1.01213
 C463 C 0.53234 0.27737 0.99561
 C464 C 0.54164 0.30684 0.98636
 H465 H 0.64767 0.29390 1.04252
 H466 H 0.68600 0.33702 1.04634
 H467 H 0.62596 0.39118 0.99178
 H468 H 0.59840 0.25873 1.03300
 H469 H 0.54633 0.23776 1.02005
 H470 H 0.52634 0.32077 0.97373
 C471 C 0.46282 0.13765 1.11141
 C472 C 0.49138 0.13687 1.09903
 C473 C 0.51443 0.12014 1.11138
 C474 C 0.50781 0.10344 1.13762
 C475 C 0.47849 0.10354 1.15081
 C476 C 0.45556 0.12077 1.13735
 O477 O 0.44466 0.15586 1.09650
 C478 C 0.46221 0.16671 1.07428
 C479 C 0.49084 0.15559 1.07479
 C480 C 0.51289 0.16380 1.05380
 C481 C 0.50545 0.18488 1.03166
 C482 C 0.47643 0.19802 1.03097
 C483 C 0.45428 0.18792 1.05249
 H484 H 0.53676 0.12007 1.10127
 H485 H 0.52539 0.09003 1.14746
 H486 H 0.43305 0.12130 1.14702
 H487 H 0.53522 0.15444 1.05455
 H488 H 0.52299 0.19084 1.01569
 H489 H 0.43156 0.19624 1.05275
 C490 C -0.03959 0.63724 0.63216
 C491 C -0.06960 0.63016 0.63863
 C492 C -0.09376 0.64227 0.62273
 C493 C -0.08666 0.66240 0.59908
 C494 C -0.05584 0.66994 0.59186
 C495 C -0.03202 0.65727 0.60890
 O496 O -0.02010 0.62252 0.64926
 C497 C -0.03820 0.60582 0.66694
 C498 C -0.06866 0.60965 0.66140
 C499 C -0.09149 0.59339 0.67649
 C500 C -0.08258 0.57248 0.69837
 C501 C -0.05116 0.56856 0.70523
 C502 C -0.02882 0.58527 0.68857
 H503 H -0.11721 0.63625 0.62813
 H504 H -0.10513 0.67211 0.58642
 H505 H -0.00831 0.66212 0.60360
 H506 H -0.11535 0.59621 0.67115
 H507 H -0.10040 0.55894 0.70899
 H508 H -0.00472 0.58196 0.69192
 C509 C 0.53548 0.84797 -0.11795
 C510 C 0.56513 0.84887 -0.10708
 C511 C 0.58765 0.86880 -0.11793
 C512 C 0.57935 0.88858 -0.14108
 C513 C 0.54896 0.88810 -0.15302
 C514 C 0.52669 0.86746 -0.14105
 O515 O 0.51761 0.82752 -0.10411
 C516 C 0.53643 0.81534 -0.08408
 C517 C 0.56574 0.82762 -0.08506
 C518 C 0.58907 0.81865 -0.06584
 C519 C 0.58191 0.79617 -0.04456
 C520 C 0.55182 0.78294 -0.04289
 C521 C 0.52878 0.79280 -0.06311
 H522 H 0.61077 0.86925 -0.10878
 H523 H 0.59658 0.90458 -0.14936
 H524 H 0.50335 0.86639 -0.14964
 H525 H 0.61190 0.82893 -0.06686
 H526 H 0.59976 0.78987 -0.02880
 H527 H 0.50562 0.78339 -0.06254
 C528 C 1.03062 0.36856 0.36729
 C529 C 1.04818 0.35681 0.34463
 C530 C 1.06110 0.32889 0.34697
 C531 C 1.05582 0.31247 0.37382
 C532 C 1.03785 0.32405 0.39806
 C533 C 1.02508 0.35278 0.39416
 O534 O 1.02028 0.39540 0.36060
 C535 C 1.03177 0.40079 0.33316
 C536 C 1.04904 0.37793 0.32233
 C537 C 1.06297 0.37895 0.29391
 C538 C 1.05930 0.40478 0.27617
 C539 C 1.04234 0.42929 0.28725
 C540 C 1.02769 0.42652 0.31592
 H541 H 1.07506 0.32015 0.32890
 H542 H 1.06703 0.29136 0.37586
 H543 H 1.01028 0.36252 0.41087
 H544 H 1.07602 0.36042 0.28557
 H545 H 1.06931 0.40517 0.25369
 H546 H 1.01341 0.44391 0.32466
 C547 C 0.49860 0.86552 0.12087
 C548 C 0.50456 0.87844 0.09305
 C549 C 0.50691 0.90954 0.08929
 C550 C 0.50299 0.92816 0.11525
 C551 C 0.49617 0.91565 0.14446
 C552 C 0.49367 0.88357 0.14689
 O553 O 0.49913 0.83549 0.11984
 C554 C 0.50535 0.82939 0.09065
 C555 C 0.50851 0.85490 0.07322
 C556 C 0.51521 0.85383 0.04211
 C557 C 0.51919 0.82529 0.02847
 C558 C 0.51702 0.79871 0.04614
 C559 C 0.50980 0.80080 0.07767
 H560 H 0.51186 0.91917 0.06716
 H561 H 0.50414 0.95238 0.11204
 H562 H 0.48954 0.87279 0.16862
 H563 H 0.51764 0.87425 0.02890
 H564 H 0.52506 0.82404 0.00444
 H565 H 0.50813 0.78085 0.09167
 C566 C -0.00553 0.38874 0.64779
 C567 C 0.01114 0.38464 0.67432
 C568 C 0.02875 0.35966 0.67841
 C569 C 0.02927 0.33820 0.65413
 C570 C 0.01263 0.34218 0.62622
 C571 C -0.00506 0.36798 0.62330
 O572 O -0.02067 0.41396 0.64831
 C573 C -0.01332 0.42615 0.67571
 C574 C 0.00616 0.40927 0.69256
 C575 C 0.01725 0.41853 0.72159
 C576 C 0.00804 0.44638 0.73357
 C577 C -0.01212 0.46429 0.71660
 C578 C -0.02314 0.45349 0.68731
 H579 H 0.04159 0.35677 0.69954
 H580 H 0.04249 0.31842 0.65724
 H581 H -0.01760 0.37231 0.60232
 H582 H 0.03281 0.40503 0.73438
 H583 H 0.01721 0.45401 0.75574
 H584 H -0.03905 0.46576 0.67368
 C585 C 0.49778 0.13282 0.86863
 C586 C 0.48819 0.15656 0.85160
 C587 C 0.48391 0.15462 0.81987
 C588 C 0.48958 0.12701 0.80509
 C589 C 0.49933 0.10204 0.82211
 C590 C 0.50375 0.10519 0.85438
 O591 O 0.49944 0.13910 0.89863
 C592 C 0.49070 0.16741 0.90053
 C593 C 0.48359 0.17913 0.87240
 C594 C 0.47307 0.20806 0.86911
 C595 C 0.46950 0.22556 0.89595
 C596 C 0.47638 0.21394 0.92534
 C597 C 0.48743 0.18448 0.92753
 H598 H 0.47621 0.17359 0.80698
 H599 H 0.48642 0.12509 0.78037
 H600 H 0.51075 0.08646 0.86805
 H601 H 0.46754 0.21674 0.84671
 H602 H 0.46139 0.24818 0.89382
 H603 H 0.49236 0.17473 0.94960
 C604 C 1.00397 0.61177 0.35540
 C605 C 1.00902 0.62366 0.32691
 C606 C 1.00702 0.65428 0.32097
 C607 C 0.99971 0.67351 0.34552
 C608 C 0.99461 0.66189 0.37528
 C609 C 0.99670 0.63046 0.38014
 O610 O 1.00689 0.58204 0.35607
 C611 C 1.01405 0.57504 0.32735
 C612 C 1.01565 0.59970 0.30868
 C613 C 1.02260 0.59755 0.27780
 C614 C 1.02802 0.56879 0.26556
 C615 C 1.02655 0.54264 0.28415
 C616 C 1.01934 0.54615 0.31569
 H617 H 1.01114 0.66307 0.29832
 H618 H 0.99865 0.69752 0.34149
 H619 H 0.99268 0.62083 0.40246
 H620 H 1.02366 0.61732 0.26353
 H621 H 1.03320 0.56749 0.24153
 H622 H 1.01707 0.52707 0.33075
 C623 C 1.14269 0.50224 0.12642
 C624 C 1.13700 0.53054 0.13784
 C625 C 1.14965 0.55690 0.12566
 C626 C 1.16880 0.55407 0.10044
 C627 C 1.17517 0.52508 0.08765
 C628 C 1.16185 0.49879 0.10150
 O629 O 1.12777 0.48010 0.14093
 C630 C 1.11239 0.49483 0.16204
 C631 C 1.11732 0.52575 0.16109
 C632 C 1.10333 0.54560 0.18086
 C633 C 1.08332 0.53308 0.20242
 C634 C 1.07748 0.50131 0.20373
 C635 C 1.09251 0.48189 0.18332
 H636 H 1.14494 0.57895 0.13523
 H637 H 1.17929 0.57472 0.09176
 H638 H 1.16480 0.47619 0.09243
 H639 H 1.10772 0.56985 0.17980
 H640 H 1.07292 0.54815 0.21844
 H641 H 1.08847 0.45755 0.18368
 C642 C 0.65082 0.00004 0.61348
 C643 C 0.67706 0.01552 0.62384
 C644 C 0.68092 0.02649 0.65393
 C645 C 0.65673 0.02131 0.67413
 C646 C 0.62933 0.00543 0.66399
 C647 C 0.62650 -0.00531 0.63310
 O648 O 0.65175 -0.00863 0.58413
 C649 C 0.67921 0.00158 0.57577
 C650 C 0.69563 0.01657 0.59920
 C651 C 0.72503 0.02899 0.59543
 C652 C 0.73800 0.02575 0.56635
 C653 C 0.72145 0.01034 0.54204
 C654 C 0.69168 -0.00190 0.54673
 H655 H 0.70185 0.03850 0.66162
 H656 H 0.65953 0.02933 0.69774
 H657 H 0.60585 -0.01716 0.62443
 H658 H 0.73755 0.04063 0.61420
 H659 H 0.76093 0.03494 0.56277
 H660 H 0.67875 -0.01377 0.52835
 C661 C -0.13946 0.49540 0.87044
 C662 C -0.12884 0.46748 0.86288
 C663 C -0.13812 0.44123 0.87788
 C664 C -0.15902 0.44395 0.90173
 C665 C -0.17001 0.47260 0.91019
 C666 C -0.16006 0.49864 0.89412
 O667 O -0.12792 0.51750 0.85339
 C668 C -0.10955 0.50326 0.83471
 C669 C -0.10914 0.47265 0.83960
 C670 C -0.09105 0.45359 0.82275
 C671 C -0.07281 0.46664 0.79985
 C672 C -0.07322 0.49809 0.79416
 C673 C -0.09183 0.51661 0.81202
 H674 H -0.12946 0.41950 0.87158
 H675 H -0.16612 0.42386 0.91404
 H676 H -0.16816 0.52077 0.89985
 H677 H -0.09101 0.42957 0.82704
 H678 H -0.05884 0.45219 0.78620
 H679 H -0.09227 0.54077 0.80860
 C680 C 0.33457 -0.00402 0.37433
 C681 C 0.32220 -0.03302 0.37694
 C682 C 0.32958 -0.05672 0.35735
 C683 C 0.35086 -0.05035 0.33439
 C684 C 0.36411 -0.02066 0.33135
 C685 C 0.35546 0.00290 0.35142
 O686 O 0.32573 0.01485 0.39619
 C687 C 0.30739 -0.00260 0.41296
 C688 C 0.30441 -0.03207 0.40214
 C689 C 0.28712 -0.05439 0.41686
 C690 C 0.27245 -0.04604 0.44393
 C691 C 0.27546 -0.01586 0.45583
 C692 C 0.29301 0.00620 0.43982
 H693 H 0.31980 -0.07943 0.36004
 H694 H 0.35731 -0.06855 0.31918
 H695 H 0.36570 0.02560 0.35011
 H696 H 0.28517 -0.07746 0.40796
 H697 H 0.25866 -0.06310 0.45548
 H698 H 0.29619 0.02929 0.44850
 C699 C 0.10464 0.52314 0.84724
 C700 C 0.09531 0.55234 0.84944
 C701 C 0.11064 0.57477 0.86740
 C702 C 0.13669 0.56678 0.88385
 C703 C 0.14682 0.53678 0.88221
 C704 C 0.13039 0.51460 0.86367
 O705 O 0.08701 0.50552 0.82842
 C706 C 0.06610 0.52404 0.81863
 C707 C 0.07015 0.55288 0.83092
 C708 C 0.05100 0.57594 0.82389
 C709 C 0.02678 0.56911 0.80307
 C710 C 0.02228 0.53966 0.78944
 C711 C 0.04217 0.51674 0.79771
 H712 H 0.10283 0.59760 0.86870
 H713 H 0.14872 0.58387 0.89828
 H714 H 0.13765 0.49158 0.86186
 H715 H 0.05454 0.59840 0.83409
 H716 H 0.01143 0.58680 0.79785
 H717 H 0.03965 0.49417 0.78770
 C718 C 0.62196 0.02357 0.36990
 C719 C 0.61192 0.03212 0.39839
 C720 C 0.58161 0.03771 0.40388
 C721 C 0.56080 0.03436 0.37901
 C722 C 0.57052 0.02573 0.34920
 C723 C 0.60174 0.02040 0.34476
 O724 O 0.65140 0.01800 0.36987
 C725 C 0.66010 0.02310 0.39899
 C726 C 0.63685 0.03194 0.41737
 C727 C 0.64073 0.03745 0.44883
 C728 C 0.66964 0.03323 0.46196
 C729 C 0.69388 0.02352 0.44361
 C730 C 0.68900 0.01881 0.41154
 H731 H 0.57414 0.04390 0.42663
 H732 H 0.53701 0.03782 0.38326
 H733 H 0.61014 0.01390 0.32246
 H734 H 0.62199 0.04406 0.46289
 H735 H 0.67265 0.03630 0.48659
 H736 H 0.70695 0.01135 0.39688
 C737 C 0.88834 0.47203 0.16001
 C738 C 0.88911 0.49841 0.17739
 C739 C 0.86748 0.52011 0.17429
 C740 C 0.84435 0.51468 0.15195
 C741 C 0.84340 0.48805 0.13302
 C742 C 0.86548 0.46614 0.13761
 O743 O 0.91187 0.45506 0.16577
 C744 C 0.92789 0.47119 0.18713
 C745 C 0.91495 0.49796 0.19491
 C746 C 0.92872 0.51925 0.21533
 C747 C 0.95708 0.51276 0.22820
 C748 C 0.97088 0.48528 0.22071
 C749 C 0.95591 0.46400 0.20014
 H750 H 0.86867 0.54074 0.18820
 H751 H 0.82741 0.53146 0.14907
 H752 H 0.86572 0.44588 0.12322
 H753 H 0.91826 0.54034 0.22073
 H754 H 0.96832 0.52912 0.24402
 H755 H 0.96627 0.44311 0.19372
 C756 C 0.37420 -0.02090 0.62741
 C757 C 0.36355 -0.04986 0.61973
 C758 C 0.37631 -0.07537 0.63181
 C759 C 0.40111 -0.07079 0.65257
 C760 C 0.41255 -0.04106 0.66091
 C761 C 0.39861 -0.01582 0.64809
 O762 O 0.35905 0.00026 0.61334
 C763 C 0.33833 -0.01569 0.59639
 C764 C 0.34006 -0.04644 0.59947
 C765 C 0.32035 -0.06725 0.58387
 C766 C 0.29794 -0.05588 0.56440
 C767 C 0.29562 -0.02422 0.56070
 C768 C 0.31639 -0.00393 0.57702
 H769 H 0.36763 -0.09798 0.62532
 H770 H 0.41167 -0.09041 0.66170
 H771 H 0.40630 0.00718 0.65421
 H772 H 0.32200 -0.09137 0.58677
 H773 H 0.28217 -0.07189 0.55281
 H774 H 0.31579 0.02035 0.57459
   
