data_POSCAR
  _audit_creation_date              2014-09-24
  _audit_creation_method            'ToBaCCo'
  _symmetry_space_group_name_H-M    'P1'
  _symmetry_Int_Tables_number       1
  _symmetry_cell_setting            triclinic
  loop_
  _symmetry_equiv_pos_as_xyz
 x,y,z
_cell_length_a 35.9708
_cell_length_b 36.1501
_cell_length_c 48.6037
_cell_angle_alpha 89.970800
_cell_angle_beta 90.068600
_cell_angle_gamma 120.004600
loop_
  _atom_site_label
  _atom_site_type_symbol
  _atom_site_fract_x
  _atom_site_fract_y
  _atom_site_fract_z
C1 C -0.01979 0.49161 1.24844
 C2 C 0.02394 0.51387 1.24843
 C3 C 0.04910 0.52824 1.27440
 C4 C 0.04901 0.52467 1.22250
 C5 C -0.04514 0.47980 1.22252
 C6 C -0.04471 0.47750 1.27443
 C7 C 0.04259 0.55368 1.29348
 C8 C 0.06635 0.56662 1.31792
 C9 C 0.09713 0.55457 1.32339
 C10 C 0.10415 0.52977 1.30420
 C11 C 0.08039 0.51684 1.27983
 C12 C 0.07985 0.56734 1.21702
 C13 C 0.10401 0.57806 1.19286
 C14 C 0.09783 0.54621 1.17402
 C15 C 0.06746 0.50349 1.17946
 C16 C 0.04326 0.49271 1.20366
 C17 C -0.07609 0.43691 1.21768
 C18 C -0.10062 0.42523 1.19362
 C19 C -0.09473 0.45628 1.17419
 C20 C -0.06419 0.49920 1.17895
 C21 C -0.03960 0.51096 1.20307
 C22 C -0.03821 0.45197 1.29345
 C23 C -0.06209 0.43883 1.31777
 C24 C -0.09288 0.45077 1.32316
 C25 C -0.09983 0.47576 1.30413
 C26 C -0.07598 0.48894 1.27983
 H27 H 0.01916 0.56347 1.28943
 H28 H 0.06067 0.58601 1.33245
 H29 H 0.12792 0.52028 1.30803
 H30 H 0.08604 0.49745 1.26531
 H31 H 0.08495 0.59237 1.23138
 H32 H 0.12754 0.61118 1.18889
 H33 H 0.02023 0.45951 1.20779
 H34 H -0.08102 0.41246 1.23248
 H35 H -0.12426 0.39196 1.19019
 H36 H -0.05956 0.52353 1.16413
 H37 H -0.01648 0.54431 1.20666
 H38 H -0.01482 0.44214 1.28939
 H39 H -0.05670 0.41923 1.33229
 H40 H -0.12373 0.48498 1.30804
 H41 H -0.08163 0.50836 1.26532
 H42 H 0.06263 0.47858 1.16508
 C43 C 0.50935 0.48817 1.25201
 C44 C 0.48846 0.51088 1.25196
 C45 C 0.47468 0.52237 1.27785
 C46 C 0.47830 0.52558 1.22596
 C47 C 0.52030 0.47401 1.22608
 C48 C 0.52292 0.47670 1.27799
 C49 C 0.44828 0.49091 1.29694
 C50 C 0.43516 0.50235 1.32101
 C51 C 0.44801 0.54524 1.32607
 C52 C 0.47395 0.57661 1.30700
 C53 C 0.48709 0.56524 1.28299
 C54 C 0.43573 0.51473 1.22038
 C55 C 0.42558 0.52831 1.19606
 C56 C 0.45788 0.55314 1.17716
 C57 C 0.50052 0.56457 1.18273
 C58 C 0.51074 0.55102 1.20710
 C59 C 0.56302 0.48493 1.22104
 C60 C 0.57393 0.47191 1.19680
 C61 C 0.54225 0.44759 1.17739
 C62 C 0.49946 0.43611 1.18239
 C63 C 0.48847 0.44909 1.20668
 C64 C 0.54931 0.50826 1.29704
 C65 C 0.56241 0.49695 1.32117
 C66 C 0.54953 0.45408 1.32635
 C67 C 0.52354 0.42258 1.30734
 C68 C 0.51042 0.43384 1.28324
 H69 H 0.43766 0.45757 1.29311
 H70 H 0.41486 0.47778 1.33555
 H71 H 0.48395 0.60987 1.31066
 H72 H 0.50720 0.58992 1.26846
 H73 H 0.41034 0.49538 1.23475
 H74 H 0.39251 0.51941 1.19199
 H75 H 0.54388 0.56040 1.21129
 H76 H 0.58797 0.50390 1.23580
 H77 H 0.60711 0.48085 1.19319
 H78 H 0.47464 0.41707 1.16757
 H79 H 0.45521 0.43966 1.21041
 H80 H 0.56000 0.54159 1.29310
 H81 H 0.58279 0.52160 1.33566
 H82 H 0.51358 0.38936 1.31109
 H83 H 0.49033 0.40911 1.26872
 H84 H 0.52579 0.58398 1.16830
 C85 C 0.51168 1.02222 1.25061
 C86 C 0.48943 0.97869 1.25057
 C87 C 0.47755 0.95350 1.27649
 C88 C 0.47555 0.95377 1.22458
 C89 C 0.52532 1.04739 1.22468
 C90 C 0.52327 1.04713 1.27660
 C91 C 0.50886 0.95879 1.29591
 C92 C 0.49695 0.93456 1.32012
 C93 C 0.45371 0.90458 1.32502
 C94 C 0.42251 0.89889 1.30557
 C95 C 0.43438 0.92308 1.28143
 C96 C 0.48752 0.92296 1.21939
 C97 C 0.47471 0.89909 1.19513
 C98 C 0.44953 0.90552 1.17588
 C99 C 0.43700 0.93584 1.18104
 C100 C 0.44978 0.95975 1.20536
 C101 C 0.51335 1.07831 1.21979
 C102 C 0.52585 1.10239 1.19561
 C103 C 0.55075 1.09608 1.17607
 C104 C 0.56327 1.06563 1.18094
 C105 C 0.55077 1.04152 1.20520
 C106 C 0.49167 1.04174 1.29573
 C107 C 0.50320 1.06574 1.32000
 C108 C 0.54638 1.09559 1.32525
 C109 C 0.57791 1.10139 1.30609
 C110 C 0.56639 1.07741 1.28186
 H111 H 0.54242 0.98151 1.29225
 H112 H 0.52149 0.93914 1.33489
 H113 H 0.38896 0.87573 1.30901
 H114 H 0.40982 0.91835 1.26665
 H115 H 0.50713 0.91770 1.23404
 H116 H 0.48446 0.87562 1.19139
 H117 H 0.43954 0.98280 1.20924
 H118 H 0.49396 1.08348 1.23462
 H119 H 0.51604 1.12591 1.19218
 H120 H 0.58275 1.06057 1.16609
 H121 H 0.56101 1.01840 1.20882
 H122 H 0.45814 1.01913 1.29178
 H123 H 0.47843 1.06113 1.33455
 H124 H 0.61140 1.12451 1.30981
 H125 H 0.59115 1.08221 1.26727
 H126 H 0.41730 0.94088 1.16634
 C127 C 1.02323 0.50847 0.75144
 C128 C 0.97952 0.48518 0.75170
 C129 C 0.95420 0.47034 0.72584
 C130 C 0.95455 0.47385 0.77774
 C131 C 1.04883 0.52060 0.77724
 C132 C 1.04784 0.52307 0.72530
 C133 C 0.92225 0.48091 0.72057
 C134 C 0.89846 0.46767 0.69623
 C135 C 0.90611 0.44347 0.67698
 C136 C 0.93747 0.43222 0.68226
 C137 C 0.96130 0.44542 0.70665
 C138 C 0.95967 0.50553 0.79662
 C139 C 0.93495 0.49438 0.82063
 C140 C 0.90468 0.45154 0.82588
 C141 C 0.89930 0.41993 0.80707
 C142 C 0.92397 0.43102 0.78310
 C143 C 1.04411 0.48952 0.79650
 C144 C 1.06886 0.50150 0.82054
 C145 C 1.09878 0.54459 0.82542
 C146 C 1.10387 0.57561 0.80615
 C147 C 1.07914 0.56366 0.78217
 C148 C 1.07988 0.51277 0.71969
 C149 C 1.10331 0.52624 0.69522
 C150 C 1.09520 0.55044 0.67616
 C151 C 1.06363 0.56130 0.68179
 C152 C 1.04019 0.54785 0.70629
 H153 H 0.91616 0.49989 0.73516
 H154 H 0.87419 0.47644 0.69238
 H155 H 0.94348 0.41331 0.66756
 H156 H 0.98527 0.43630 0.71058
 H157 H 0.98242 0.53885 0.79261
 H158 H 0.93917 0.51914 0.83495
 H159 H 0.91931 0.40617 0.76871
 H160 H 1.02150 0.45606 0.79283
 H161 H 1.06480 0.47712 0.83517
 H162 H 1.12702 0.60904 0.80959
 H163 H 1.08343 0.58804 0.76749
 H164 H 1.08643 0.49394 0.73416
 H165 H 1.12775 0.51775 0.69123
 H166 H 1.05719 0.58025 0.66733
 H167 H 1.01619 0.55682 0.71048
 H168 H 0.87585 0.38672 0.81086
 C169 C 0.49181 0.51339 0.74830
 C170 C 0.51281 0.49077 0.74846
 C171 C 0.52664 0.47927 0.72263
 C172 C 0.52305 0.47623 0.77453
 C173 C 0.48112 0.52772 0.77423
 C174 C 0.47803 0.52473 0.72232
 C175 C 0.51446 0.43643 0.71762
 C176 C 0.52771 0.42505 0.69367
 C177 C 0.55353 0.45639 0.67455
 C178 C 0.56614 0.49925 0.67948
 C179 C 0.55291 0.51070 0.70348
 C180 C 0.49062 0.45083 0.79342
 C181 C 0.50084 0.43731 0.81781
 C182 C 0.54346 0.44873 0.82342
 C183 C 0.57578 0.47358 0.80452
 C184 C 0.56563 0.48713 0.78017
 C185 C 0.51323 0.55300 0.79336
 C186 C 0.50253 0.56596 0.81775
 C187 C 0.45975 0.55409 0.82312
 C188 C 0.42775 0.52944 0.80396
 C189 C 0.43838 0.51644 0.77960
 C190 C 0.48992 0.56748 0.71719
 C191 C 0.47631 0.57859 0.69323
 C192 C 0.45043 0.54707 0.67420
 C193 C 0.43823 0.50431 0.67922
 C194 C 0.45181 0.49314 0.70322
 H195 H 0.49446 0.41178 0.73220
 H196 H 0.51789 0.39182 0.69009
 H197 H 0.58634 0.52378 0.66489
 H198 H 0.56334 0.54402 0.70723
 H199 H 0.45747 0.44139 0.78920
 H200 H 0.47553 0.41785 0.83220
 H201 H 0.59102 0.50644 0.76580
 H202 H 0.54648 0.56268 0.78935
 H203 H 0.52758 0.58529 0.83237
 H204 H 0.39458 0.52025 0.80786
 H205 H 0.41323 0.49718 0.76503
 H206 H 0.50985 0.59225 0.73174
 H207 H 0.48579 0.61173 0.68962
 H208 H 0.41795 0.47962 0.66472
 H209 H 0.44156 0.45988 0.70704
 H210 H 0.60883 0.48244 0.80861
 C211 C 0.48520 -0.02325 0.74977
 C212 C 0.50664 0.02026 0.74974
 C213 C 0.52024 0.04515 0.72376
 C214 C 0.51819 0.04538 0.77567
 C215 C 0.47462 -0.04812 0.77573
 C216 C 0.47141 -0.04838 0.72384
 C217 C 0.54642 0.03957 0.70473
 C218 C 0.55917 0.06350 0.68045
 C219 C 0.54619 0.09343 0.67512
 C220 C 0.52051 0.09943 0.69415
 C221 C 0.50772 0.07552 0.71839
 C222 C 0.56117 0.07645 0.78061
 C223 C 0.57270 0.10037 0.80486
 C224 C 0.54138 0.09374 0.82437
 C225 C 0.49835 0.06318 0.81947
 C226 C 0.48675 0.03921 0.79517
 C227 C 0.43186 -0.07911 0.78122
 C228 C 0.42129 -0.10291 0.80548
 C229 C 0.45341 -0.09621 0.82445
 C230 C 0.49626 -0.06570 0.81896
 C231 C 0.50686 -0.04188 0.79464
 C232 C 0.44532 -0.04287 0.70463
 C233 C 0.43271 -0.06685 0.68033
 C234 C 0.44575 -0.09680 0.67514
 C235 C 0.47128 -0.10277 0.69440
 C236 C 0.48390 -0.07881 0.71864
 H237 H 0.55709 0.01688 0.70876
 H238 H 0.57934 0.05887 0.66595
 H239 H 0.51050 0.12268 0.69028
 H240 H 0.48779 0.08046 0.73292
 H241 H 0.58583 0.08184 0.76577
 H242 H 0.60606 0.12403 0.80839
 H243 H 0.45332 0.01596 0.79152
 H244 H 0.40663 -0.08455 0.76679
 H245 H 0.38803 -0.12652 0.80941
 H246 H 0.52148 -0.06038 0.83338
 H247 H 0.54014 -0.01869 0.79050
 H248 H 0.43469 -0.02012 0.70850
 H249 H 0.41273 -0.06208 0.66570
 H250 H 0.48148 -0.12593 0.69073
 H251 H 0.50379 -0.08369 0.73326
 H252 H 0.47382 0.05798 0.83437
 O253 O 0.40253 0.67343 0.96844
 O254 O 0.40186 0.74415 0.97696
 C255 C 0.37458 0.74819 0.96250
 O256 O 0.33468 0.72762 0.96745
 O257 O 0.26328 0.65638 0.97580
 C258 C 0.25920 0.62474 0.96188
 O259 O 0.27988 0.60578 0.96740
 O260 O 0.35140 0.60635 0.97679
 C261 C 0.38335 0.63388 0.96295
 O262 O 0.40395 0.66109 1.02323
 O263 O 0.39916 0.72966 1.03171
 C264 C 0.37788 0.74817 1.03670
 O265 O 0.34579 0.74214 1.02224
 O266 O 0.27662 0.66893 1.03058
 C267 C 0.25798 0.62935 1.03591
 O268 O 0.26439 0.60321 1.02203
 O269 O 0.33773 0.60764 1.03140
 C270 C 0.37738 0.62870 1.03709
 Cr271 Cr 0.39960 0.70089 1.00007
 Cr272 Cr 0.30629 0.69770 0.99903
 Cr273 Cr 0.30944 0.60802 0.99941
 O274 O 0.33844 0.66886 0.99950
 O275 O 0.59817 0.32705 0.96913
 O276 O 0.59795 0.25591 0.97800
 C277 C 0.62493 0.25131 0.96364
 O278 O 0.66486 0.27143 0.96867
 O279 O 0.73676 0.34235 0.97687
 C280 C 0.74135 0.37410 0.96283
 O281 O 0.72109 0.39354 0.96817
 O282 O 0.64994 0.39393 0.97728
 C283 C 0.61778 0.36657 0.96349
 O284 O 0.59702 0.33982 1.02390
 O285 O 0.60088 0.27077 1.03273
 C286 C 0.62186 0.25199 1.03791
 O287 O 0.65384 0.25761 1.02355
 O288 O 0.72361 0.33053 1.03170
 C289 C 0.74261 0.37019 1.03688
 O290 O 0.73641 0.39638 1.02286
 O291 O 0.66345 0.39295 1.03200
 C292 C 0.62379 0.37220 1.03770
 Cr293 Cr 0.60080 0.29957 1.00092
 Cr294 Cr 0.69357 0.30157 1.00020
 Cr295 Cr 0.69159 0.39191 1.00009
 O296 O 0.66200 0.33103 1.00040
 O297 O 0.66239 0.39738 0.52318
 O298 O 0.73157 0.39297 0.53157
 C299 C 0.75028 0.37193 0.53668
 O300 O 0.74431 0.33994 0.52235
 O301 O 0.67110 0.27102 0.53117
 C302 C 0.63141 0.25238 0.53672
 O303 O 0.60483 0.25851 0.52297
 O304 O 0.60919 0.33154 0.53212
 C305 C 0.63015 0.37116 0.53735
 O306 O 0.67404 0.39516 0.46841
 O307 O 0.74548 0.39498 0.47681
 C308 C 0.74953 0.36776 0.46248
 O309 O 0.72898 0.32811 0.46762
 O310 O 0.65764 0.25711 0.47647
 C311 C 0.62561 0.25285 0.46269
 O312 O 0.60644 0.27326 0.46830
 O313 O 0.60686 0.34442 0.47749
 C314 C 0.63414 0.37607 0.46337
 Cr315 Cr 0.70220 0.39286 0.49999
 Cr316 Cr 0.69943 0.30023 0.49941
 Cr317 Cr 0.60910 0.30301 0.50021
 O318 O 0.67023 0.33202 0.49986
 O319 O 0.32506 0.60549 0.53192
 O320 O 0.25342 0.60490 0.52279
 C321 C 0.24868 0.63212 0.53666
 O322 O 0.26860 0.67166 0.53107
 O323 O 0.33977 0.74298 0.52252
 C324 C 0.37141 0.74757 0.53690
 O325 O 0.39123 0.72760 0.53182
 O326 O 0.39214 0.65689 0.52341
 C327 C 0.36485 0.62499 0.53734
 O328 O 0.33767 0.60312 0.47723
 O329 O 0.26806 0.60636 0.46807
 C330 C 0.24927 0.62712 0.46232
 O331 O 0.25482 0.65933 0.47623
 O332 O 0.32798 0.72860 0.46772
 C333 C 0.36785 0.74751 0.46262
 O334 O 0.39421 0.74186 0.47699
 O335 O 0.39094 0.66912 0.46862
 C336 C 0.37020 0.62950 0.46332
 Cr337 Cr 0.29721 0.60726 0.50000
 Cr338 Cr 0.29890 0.69946 0.49940
 Cr339 Cr 0.38983 0.69777 0.50020
 O340 O 0.32864 0.66815 0.49987
 C341 C 0.41062 0.58336 0.39462
 C342 C 0.43363 0.62657 0.40188
 C343 C 0.42079 0.64148 0.42439
 C344 C 0.43433 0.55737 0.35059
 C345 C 0.36191 0.56978 0.43269
 C346 C 0.37484 0.55496 0.41012
 C347 C 0.42331 0.56864 0.37083
 C348 C 0.38463 0.61331 0.44002
 H349 H 0.46133 0.64886 0.38998
 H350 H 0.43900 0.67516 0.42939
 H351 H 0.33389 0.54724 0.44421
 H352 H 0.35674 0.52144 0.40464
 C353 C 0.41504 0.83214 0.39300
 C354 C 0.44340 0.82543 0.40911
 C355 C 0.42823 0.79833 0.43198
 C356 C 0.44175 0.88065 0.34845
 C357 C 0.35625 0.78484 0.42279
 C358 C 0.37150 0.81194 0.39997
 C359 C 0.43014 0.85888 0.36892
 C360 C 0.38439 0.77752 0.43902
 H361 H 0.47716 0.84084 0.40386
 H362 H 0.45077 0.79336 0.44396
 H363 H 0.32234 0.76935 0.42755
 H364 H 0.34924 0.81683 0.38761
 C365 C 0.16636 0.58869 0.39158
 C366 C 0.18593 0.56528 0.39957
 C367 C 0.21236 0.57740 0.42280
 C368 C 0.11941 0.56638 0.34620
 C369 C 0.19940 0.63628 0.43039
 C370 C 0.17296 0.62407 0.40710
 C371 C 0.14047 0.57681 0.36704
 C372 C 0.21965 0.61322 0.43842
 H373 H 0.18110 0.53788 0.38768
 H374 H 0.22743 0.55894 0.42833
 H375 H 0.20438 0.66406 0.44188
 H376 H 0.15802 0.64247 0.40106
 C377 C 0.58992 0.41893 0.39488
 C378 C 0.63355 0.44013 0.40170
 C379 C 0.64789 0.42653 0.42418
 C380 C 0.56363 0.44232 0.35083
 C381 C 0.57480 0.37062 0.43327
 C382 C 0.56056 0.38430 0.41077
 C383 C 0.57553 0.43190 0.37107
 C384 C 0.61870 0.39144 0.44015
 H385 H 0.65656 0.46690 0.38948
 H386 H 0.68189 0.44327 0.42885
 H387 H 0.55149 0.34349 0.44508
 H388 H 0.52672 0.36759 0.40560
 C389 C 0.58176 0.16782 0.39327
 C390 C 0.56044 0.18971 0.40080
 C391 C 0.57435 0.21695 0.42358
 C392 C 0.55779 0.11949 0.34866
 C393 C 0.63084 0.20016 0.43158
 C394 C 0.61684 0.17294 0.40877
 C395 C 0.56846 0.14119 0.36915
 C396 C 0.60990 0.22270 0.43917
 H397 H 0.53332 0.18606 0.38890
 H398 H 0.55750 0.23380 0.42880
 H399 H 0.65832 0.20389 0.44307
 H400 H 0.63366 0.15623 0.40305
 C401 C 0.83410 0.41116 0.39274
 C402 C 0.82925 0.44052 0.40888
 C403 C 0.80220 0.42655 0.43181
 C404 C 0.88207 0.43691 0.34796
 C405 C 0.78510 0.35378 0.42265
 C406 C 0.81216 0.36784 0.39975
 C407 C 0.86053 0.42526 0.36852
 C408 C 0.77958 0.38295 0.43887
 H409 H 0.84602 0.47413 0.40357
 H410 H 0.79865 0.44984 0.44380
 H411 H 0.76817 0.32000 0.42746
 H412 H 0.81563 0.34484 0.38735
 C413 C 0.57904 0.41153 1.10767
 C414 C 0.55017 0.37601 1.09219
 C415 C 0.56453 0.36348 1.06918
 C416 C 0.55394 0.43437 1.15250
 C417 C 0.63668 0.42227 1.07697
 C418 C 0.62224 0.43471 1.09993
 C419 C 0.56482 0.42375 1.13191
 C420 C 0.60805 0.38634 1.06139
 H421 H 0.51667 0.35778 1.09804
 H422 H 0.54165 0.33564 1.05771
 H423 H 0.67037 0.44058 1.07162
 H424 H 0.64488 0.46221 1.11180
 C425 C 0.82962 0.41723 1.10555
 C426 C 0.80932 0.37396 1.09846
 C427 C 0.78143 0.35875 1.07594
 C428 C 0.87945 0.44382 1.14962
 C429 C 0.79433 0.43028 1.06730
 C430 C 0.82222 0.44540 1.08986
 C431 C 0.85710 0.43226 1.12935
 C432 C 0.77341 0.38668 1.06015
 H433 H 0.81475 0.35185 1.11050
 H434 H 0.76589 0.32503 1.07108
 H435 H 0.78883 0.45264 1.05565
 H436 H 0.83770 0.47896 1.09522
 C437 C 0.58456 0.16796 1.10784
 C438 C 0.56118 0.18798 1.10074
 C439 C 0.57298 0.21488 1.07783
 C440 C 0.56278 0.11982 1.15256
 C441 C 0.63153 0.20157 1.06879
 C442 C 0.61964 0.17466 1.09176
 C443 C 0.57296 0.14142 1.13201
 C444 C 0.60845 0.22219 1.06163
 H445 H 0.53401 0.18309 1.11308
 H446 H 0.55452 0.23023 1.07297
 H447 H 0.65904 0.20654 1.05683
 H448 H 0.63803 0.15940 1.09710
 C449 C 0.42235 0.58987 1.10721
 C450 C 0.37930 0.56624 1.09920
 C451 C 0.36483 0.57857 1.07620
 C452 C 0.44692 0.56682 1.15218
 C453 C 0.43669 0.63815 1.06889
 C454 C 0.45108 0.62573 1.09197
 C455 C 0.43644 0.57767 1.13151
 C456 C 0.39329 0.61482 1.06084
 H457 H 0.35679 0.53847 1.11090
 H458 H 0.33124 0.55988 1.07063
 H459 H 0.45941 0.66625 1.05758
 H460 H 0.48448 0.64429 1.09805
 C461 C 0.17194 0.58311 1.10488
 C462 C 0.17975 0.55486 1.08963
 C463 C 0.20729 0.56968 1.06692
 C464 C 0.12309 0.55770 1.14929
 C465 C 0.21891 0.64098 1.07458
 C466 C 0.19139 0.62609 1.09722
 C467 C 0.14497 0.56858 1.12886
 C468 C 0.22740 0.61301 1.05923
 H469 H 0.16491 0.52153 1.09545
 H470 H 0.21319 0.54733 1.05561
 H471 H 0.23383 0.67451 1.06928
 H472 H 0.18562 0.64823 1.10892
 C473 C 0.41481 0.83258 1.10631
 C474 C 0.43868 0.81314 1.09918
 C475 C 0.42699 0.78613 1.07635
 C476 C 0.43657 0.88065 1.15099
 C477 C 0.36756 0.79822 1.06745
 C478 C 0.37935 0.82525 1.09035
 C479 C 0.42633 0.85911 1.13044
 C480 C 0.39114 0.77815 1.06028
 H481 H 0.46614 0.81854 1.11143
 H482 H 0.44584 0.77122 1.07147
 H483 H 0.33975 0.79271 1.05558
 H484 H 0.36059 0.84008 1.09574
 C485 C 0.59081 0.41792 0.60620
 C486 C 0.62642 0.44618 0.59051
 C487 C 0.63909 0.43113 0.56793
 C488 C 0.56727 0.44424 0.65010
 C489 C 0.58031 0.35950 0.57663
 C490 C 0.56774 0.37463 0.59915
 C491 C 0.57828 0.43286 0.62991
 C492 C 0.61625 0.38754 0.56079
 H493 H 0.64457 0.47975 0.59585
 H494 H 0.66693 0.45356 0.55623
 H495 H 0.56201 0.32578 0.57176
 H496 H 0.54018 0.35247 0.61120
 C497 C 0.58610 0.16714 0.60594
 C498 C 0.55738 0.17437 0.59062
 C499 C 0.57191 0.20165 0.56784
 C500 C 0.55989 0.11870 0.65043
 C501 C 0.64393 0.21422 0.57558
 C502 C 0.62931 0.18694 0.59830
 C503 C 0.57162 0.14045 0.63000
 C504 C 0.61545 0.22212 0.56015
 H505 H 0.52386 0.15926 0.59643
 H506 H 0.54915 0.20708 0.55648
 H507 H 0.67764 0.22944 0.57027
 H508 H 0.65182 0.18163 0.61007
 C509 C 0.83431 0.40884 0.60674
 C510 C 0.81520 0.43282 0.59915
 C511 C 0.78842 0.42119 0.57613
 C512 C 0.88163 0.43044 0.65189
 C513 C 0.80015 0.36166 0.56792
 C514 C 0.82695 0.37338 0.59102
 C515 C 0.86044 0.42023 0.63113
 C516 C 0.78033 0.38529 0.56032
 H517 H 0.82063 0.46029 0.61121
 H518 H 0.77370 0.44009 0.57091
 H519 H 0.79453 0.33380 0.55627
 H520 H 0.84154 0.35454 0.59677
 C521 C 0.40908 0.58229 0.60603
 C522 C 0.36547 0.56097 0.59912
 C523 C 0.35110 0.57458 0.57664
 C524 C 0.43581 0.55873 0.64986
 C525 C 0.42409 0.63082 0.56775
 C526 C 0.43836 0.61713 0.59025
 C527 C 0.42363 0.56917 0.62974
 C528 C 0.38023 0.60982 0.56073
 H529 H 0.34251 0.53403 0.61124
 H530 H 0.31714 0.55769 0.57187
 H531 H 0.44738 0.65806 0.55601
 H532 H 0.47219 0.63396 0.59546
 C533 C 0.41094 0.83168 0.60678
 C534 C 0.37630 0.82613 0.59062
 C535 C 0.36375 0.79926 0.56763
 C536 C 0.43352 0.87957 0.65161
 C537 C 0.42082 0.78373 0.57679
 C538 C 0.43328 0.81061 0.59973
 C539 C 0.42306 0.85808 0.63101
 C540 C 0.38573 0.77752 0.56053
 H541 H 0.35872 0.84224 0.59594
 H542 H 0.33655 0.79515 0.55564
 H543 H 0.43843 0.76749 0.57197
 H544 H 0.46011 0.81462 0.61213
 C545 C 0.16512 0.58919 0.60703
 C546 C 0.17029 0.55985 0.59109
 C547 C 0.19686 0.57362 0.56791
 C548 C 0.11835 0.56367 0.65242
 C549 C 0.21280 0.64619 0.57635
 C550 C 0.18621 0.63232 0.59951
 C551 C 0.13934 0.57529 0.63159
 C552 C 0.21871 0.61705 0.56037
 H553 H 0.15420 0.52639 0.59677
 H554 H 0.20073 0.55034 0.55614
 H555 H 0.22915 0.67984 0.57120
 H556 H 0.18252 0.65534 0.61173
 C557 C 0.42593 0.59214 0.89316
 C558 C 0.44752 0.63525 0.90070
 C559 C 0.43413 0.64874 0.92367
 C560 C 0.44853 0.56750 0.84808
 C561 C 0.37770 0.57580 0.93187
 C562 C 0.39118 0.56241 0.90887
 C563 C 0.43851 0.57867 0.86878
 C564 C 0.39884 0.61921 0.93942
 H565 H 0.47440 0.65854 0.88864
 H566 H 0.45111 0.68238 0.92886
 H567 H 0.35040 0.55225 0.94348
 H568 H 0.37417 0.52896 0.90315
 C569 C 0.17311 0.58091 0.89272
 C570 C 0.17812 0.61563 0.90833
 C571 C 0.20579 0.62970 0.93101
 C572 C 0.12345 0.55640 0.84857
 C573 C 0.22329 0.57404 0.92262
 C574 C 0.19561 0.56006 0.89997
 C575 C 0.14579 0.56735 0.86884
 C576 C 0.22887 0.60917 0.93836
 H577 H 0.16093 0.63207 0.90284
 H578 H 0.20936 0.65685 0.94262
 H579 H 0.24055 0.55752 0.92765
 H580 H 0.19204 0.53321 0.88798
 C581 C 0.41836 0.83251 0.89280
 C582 C 0.44783 0.82740 0.90882
 C583 C 0.43377 0.80044 0.93177
 C584 C 0.44275 0.88031 0.84800
 C585 C 0.36074 0.78399 0.92281
 C586 C 0.37488 0.81094 0.89992
 C587 C 0.43225 0.85890 0.86860
 C588 C 0.38998 0.77820 0.93893
 H589 H 0.48157 0.84390 0.90343
 H590 H 0.45711 0.79664 0.94368
 H591 H 0.32682 0.76737 0.92768
 H592 H 0.35180 0.81463 0.88762
 C593 C 0.57615 0.40914 0.89345
 C594 C 0.55429 0.36597 0.90087
 C595 C 0.56738 0.35218 0.92390
 C596 C 0.55419 0.43466 0.84837
 C597 C 0.62404 0.42492 0.93237
 C598 C 0.61087 0.43861 0.90933
 C599 C 0.56387 0.42301 0.86905
 C600 C 0.60262 0.38147 0.93984
 H601 H 0.52744 0.34286 0.88868
 H602 H 0.55019 0.31851 0.92901
 H603 H 0.65131 0.44831 0.94412
 H604 H 0.62810 0.47210 0.90372
 C605 C 0.82814 0.41649 0.89406
 C606 C 0.82259 0.38181 0.90997
 C607 C 0.79468 0.36823 0.93249
 C608 C 0.87840 0.43991 0.85021
 C609 C 0.77792 0.42422 0.92336
 C610 C 0.80586 0.43773 0.90086
 C611 C 0.85578 0.42952 0.87033
 C612 C 0.77185 0.38917 0.93940
 H613 H 0.83958 0.36505 0.90484
 H614 H 0.79075 0.34112 0.94434
 H615 H 0.76087 0.44106 0.92805
 H616 H 0.80981 0.46454 0.88863
 C617 C 0.57957 0.16675 0.89398
 C618 C 0.55056 0.17222 0.91020
 C619 C 0.56515 0.19923 0.93312
 C620 C 0.55369 0.11870 0.84924
 C621 C 0.63785 0.21506 0.92379
 C622 C 0.62317 0.18804 0.90091
 C623 C 0.56500 0.14025 0.86979
 C624 C 0.60905 0.22119 0.94010
 H625 H 0.51674 0.15596 0.90498
 H626 H 0.54212 0.20328 0.94516
 H627 H 0.67183 0.23147 0.92851
 H628 H 0.64592 0.18409 0.88846
   
