data_POSCAR
  _audit_creation_date              2014-09-24
  _audit_creation_method            'ToBaCCo'
  _symmetry_space_group_name_H-M    'P1'
  _symmetry_Int_Tables_number       1
  _symmetry_cell_setting            triclinic
  loop_
  _symmetry_equiv_pos_as_xyz
 x,y,z
_cell_length_a 40.9050
_cell_length_b 40.9041
_cell_length_c 42.0272
_cell_angle_alpha 89.963500
_cell_angle_beta 89.963000
_cell_angle_gamma 89.940000
loop_
  _atom_site_label
  _atom_site_type_symbol
  _atom_site_fract_x
  _atom_site_fract_y
  _atom_site_fract_z
O1 O 0.03105 0.27345 -0.03028
 O2 O -0.03249 0.27346 0.03178
 O3 O 0.03110 0.27337 0.03166
 O4 O -0.03253 0.27350 -0.03018
 O5 O -0.03256 0.21943 -0.03022
 O6 O 0.03112 0.21929 0.03167
 O7 O -0.03253 0.21939 0.03180
 O8 O 0.03108 0.21938 -0.03034
 Cu9 Cu -0.00072 0.27890 0.00075
 Cu10 Cu -0.00073 0.21391 0.00073
 C11 C 0.04176 0.24644 -0.04082
 C12 C -0.04320 0.24645 0.04232
 C13 C 0.04182 0.24632 0.04213
 C14 C -0.04324 0.24650 -0.04068
 O15 O 0.53152 0.77416 0.46869
 O16 O 0.46790 0.77418 0.53067
 O17 O 0.53152 0.77417 0.53068
 O18 O 0.46791 0.77417 0.46869
 O19 O 0.46792 0.72010 0.46870
 O20 O 0.53160 0.72011 0.53075
 O21 O 0.46791 0.72011 0.53075
 O22 O 0.53161 0.72009 0.46870
 Cu23 Cu 0.49971 0.77961 0.49968
 Cu24 Cu 0.49977 0.71464 0.49973
 C25 C 0.54227 0.74714 0.45819
 C26 C 0.45719 0.74716 0.54121
 C27 C 0.54226 0.74716 0.54122
 C28 C 0.45721 0.74715 0.45819
 O29 O 1.03288 0.72615 0.03073
 O30 O 0.96929 0.72618 -0.03128
 O31 O 1.03290 0.72619 -0.03128
 O32 O 0.96927 0.72618 0.03070
 O33 O 0.96920 0.78025 0.03071
 O34 O 1.03289 0.78025 -0.03132
 O35 O 0.96921 0.78024 -0.03133
 O36 O 1.03287 0.78020 0.03074
 Cu37 Cu 1.00110 0.72073 -0.00028
 Cu38 Cu 1.00104 0.78569 -0.00030
 C39 C 1.04358 0.75315 0.04126
 C40 C 0.95853 0.75320 -0.04180
 C41 C 1.04360 0.75321 -0.04181
 C42 C 0.95852 0.75320 0.04120
 O43 O 0.46823 0.22601 0.46915
 O44 O 0.53172 0.22606 0.53111
 O45 O 0.46815 0.22603 0.53111
 O46 O 0.53182 0.22607 0.46916
 O47 O 0.53176 0.28014 0.46909
 O48 O 0.46803 0.28010 0.53110
 O49 O 0.53167 0.28013 0.53110
 O50 O 0.46810 0.28008 0.46907
 Cu51 Cu 0.49999 0.22059 0.50014
 Cu52 Cu 0.49987 0.28558 0.50008
 C53 C 0.45749 0.25301 0.45861
 C54 C 0.54238 0.25309 0.54160
 C55 C 0.45738 0.25305 0.54161
 C56 C 0.54251 0.25310 0.45864
 O57 O 0.72666 0.03109 -0.03036
 O58 O 0.72678 -0.03251 0.03163
 O59 O 0.72676 0.03107 0.03158
 O60 O 0.72670 -0.03248 -0.03032
 O61 O 0.78077 -0.03255 -0.03046
 O62 O 0.78083 0.03107 0.03151
 O63 O 0.78084 -0.03258 0.03157
 O64 O 0.78073 0.03110 -0.03051
 Cu65 Cu 0.72127 -0.00071 0.00064
 Cu66 Cu 0.78626 -0.00075 0.00052
 C67 C 0.75365 0.04180 -0.04093
 C68 C 0.75380 -0.04325 0.04211
 C69 C 0.75379 0.04177 0.04202
 C70 C 0.75371 -0.04320 -0.04088
 O71 O 0.22558 0.46821 0.53095
 O72 O 0.22556 0.53177 0.46889
 O73 O 0.22566 0.46815 0.46896
 O74 O 0.22551 0.53183 0.53089
 O75 O 0.27957 0.53188 0.53093
 O76 O 0.27972 0.46813 0.46895
 O77 O 0.27962 0.53182 0.46887
 O78 O 0.27965 0.46820 0.53100
 Cu79 Cu 0.22013 0.49999 0.49992
 Cu80 Cu 0.28510 0.50001 0.49994
 C81 C 0.25260 0.45751 0.54148
 C82 C 0.25257 0.54249 0.45837
 C83 C 0.25270 0.45742 0.45847
 C84 C 0.25250 0.54257 0.54141
 O85 O 0.27409 1.03300 0.03095
 O86 O 0.27389 0.96949 -0.03114
 O87 O 0.27401 1.03311 -0.03105
 O88 O 0.27390 0.96938 0.03083
 O89 O 0.21983 0.96954 0.03093
 O90 O 0.21995 1.03333 -0.03101
 O91 O 0.21982 0.96964 -0.03110
 O92 O 0.22003 1.03322 0.03106
 Cu93 Cu 0.27942 1.00123 -0.00011
 Cu94 Cu 0.21445 1.00146 -0.00002
 C95 C 0.24711 1.04379 0.04154
 C96 C 0.24684 0.95886 -0.04163
 C97 C 0.24701 1.04394 -0.04153
 C98 C 0.24686 0.95872 0.04135
 O99 O 0.77397 0.53170 0.53091
 O100 O 0.77403 0.46813 0.46903
 O101 O 0.77405 0.53171 0.46896
 O102 O 0.77393 0.46812 0.53098
 O103 O 0.71986 0.46817 0.53097
 O104 O 0.71998 0.53183 0.46889
 O105 O 0.71996 0.46818 0.46895
 O106 O 0.71990 0.53182 0.53090
 Cu107 Cu 0.77945 0.49991 0.49997
 Cu108 Cu 0.71445 0.50000 0.49993
 C109 C 0.74694 0.54246 0.54138
 C110 C 0.74702 0.45746 0.45850
 C111 C 0.74705 0.54247 0.45843
 C112 C 0.74689 0.45744 0.54148
 C113 C 0.25048 0.22530 0.22604
 C114 C 0.22599 0.24953 0.22622
 C115 C 0.22585 0.27350 0.25001
 C116 C 0.24994 0.27349 0.27367
 C117 C 0.27441 0.24924 0.27351
 C118 C 0.27457 0.22528 0.24971
 H119 H 0.29343 0.20662 0.24961
 H120 H 0.20698 0.29216 0.25011
 C121 C 0.75025 0.77451 0.22593
 C122 C 0.77464 0.75017 0.22602
 C123 C 0.77467 0.72616 0.24980
 C124 C 0.75056 0.72623 0.27348
 C125 C 0.72617 0.75056 0.27338
 C126 C 0.72614 0.77457 0.24961
 H127 H 0.70736 0.79331 0.24954
 H128 H 0.79345 0.70742 0.24987
 C129 C 0.77472 0.24994 0.22630
 C130 C 0.75041 0.22558 0.22645
 C131 C 0.72640 0.22555 0.25022
 C132 C 0.72645 0.24965 0.27387
 C133 C 0.75076 0.27400 0.27374
 C134 C 0.77477 0.27403 0.24996
 H135 H 0.79349 0.29279 0.24988
 H136 H 0.70768 0.20679 0.25030
 C137 C 0.22535 0.74987 0.22553
 C138 C 0.24965 0.77425 0.22562
 C139 C 0.27361 0.77430 0.24942
 C140 C 0.27354 0.75024 0.27315
 C141 C 0.24923 0.72587 0.27307
 C142 C 0.22527 0.72581 0.24926
 H143 H 0.20656 0.70704 0.24921
 H144 H 0.29233 0.79307 0.24948
 C145 C 0.72559 0.24948 0.72659
 C146 C 0.74990 0.27384 0.72658
 C147 C 0.77388 0.27390 0.75034
 C148 C 0.77380 0.24986 0.77408
 C149 C 0.74951 0.22549 0.77407
 C150 C 0.72551 0.22543 0.75032
 H151 H 0.70679 0.20667 0.75031
 H152 H 0.79261 0.29266 0.75036
 C153 C 0.27355 0.75065 0.72626
 C154 C 0.24926 0.72626 0.72641
 C155 C 0.22532 0.72622 0.75026
 C156 C 0.22542 0.75030 0.77396
 C157 C 0.24969 0.77471 0.77379
 C158 C 0.27364 0.77474 0.74995
 H159 H 0.29235 0.79351 0.74982
 H160 H 0.20662 0.70744 0.75039
 C161 C 0.24946 0.27406 0.72672
 C162 C 0.27393 0.24981 0.72683
 C163 C 0.27408 0.22586 0.75067
 C164 C 0.25000 0.22591 0.77439
 C165 C 0.22552 0.25015 0.77426
 C166 C 0.22539 0.27411 0.75043
 H167 H 0.20654 0.29279 0.75034
 H168 H 0.29292 0.20718 0.75076
 C169 C 0.75042 0.72596 0.72611
 C170 C 0.72599 0.75025 0.72618
 C171 C 0.72591 0.77422 0.74997
 C172 C 0.74999 0.77413 0.77365
 C173 C 0.77444 0.74985 0.77357
 C174 C 0.77451 0.72588 0.74979
 H175 H 0.79332 0.70716 0.74971
 H176 H 0.70710 0.79293 0.75005
 C177 C 0.24844 0.11201 0.11073
 C178 C 0.25317 0.09738 0.14406
 C179 C 0.25400 0.12019 0.16767
 C180 C 0.25003 0.15540 0.15565
 C181 C 0.21793 0.15537 0.13671
 C182 C 0.21709 0.13256 0.11309
 C183 C 0.27616 0.13700 0.10699
 C184 C 0.27699 0.15980 0.13060
 C185 C 0.24766 0.08736 0.08537
 C186 C 0.24728 0.06695 0.06467
 C187 C 0.25086 0.17997 0.18104
 C188 C 0.25109 0.20040 0.20170
 H189 H 0.25563 0.07138 0.14872
 H190 H 0.25719 0.11373 0.19254
 H191 H 0.19762 0.17177 0.14148
 H192 H 0.19610 0.12946 0.09760
 H193 H 0.29359 0.13681 0.08750
 H194 H 0.29513 0.17915 0.13133
 C195 C 0.74817 0.61226 0.61145
 C196 C 0.76887 0.60213 0.64028
 C197 C 0.76973 0.62506 0.66375
 C198 C 0.74980 0.65587 0.65609
 C199 C 0.71522 0.64348 0.64863
 C200 C 0.71437 0.62054 0.62515
 C201 C 0.76240 0.64516 0.60065
 C202 C 0.76324 0.66810 0.62413
 C203 C 0.74740 0.58751 0.58625
 C204 C 0.74704 0.56701 0.56568
 C205 C 0.75067 0.68053 0.68132
 C206 C 0.75095 0.70102 0.70188
 H207 H 0.78173 0.57897 0.64210
 H208 H 0.78331 0.62156 0.68568
 H209 H 0.69333 0.65207 0.66064
 H210 H 0.69175 0.60945 0.61705
 H211 H 0.77097 0.65004 0.57666
 H212 H 0.77252 0.69264 0.62026
 C213 C 0.75262 0.88827 0.11106
 C214 C 0.74033 0.90154 0.14308
 C215 C 0.73946 0.87862 0.16659
 C216 C 0.75096 0.84467 0.15579
 C217 C 0.78525 0.85014 0.14188
 C218 C 0.78612 0.87307 0.11835
 C219 C 0.73025 0.85917 0.10357
 C220 C 0.72939 0.83624 0.12709
 C221 C 0.75340 0.91303 0.08580
 C222 C 0.75374 0.93352 0.06518
 C223 C 0.75008 0.81999 0.18107
 C224 C 0.74977 0.79948 0.20167
 H225 H 0.73297 0.92674 0.14694
 H226 H 0.73136 0.88417 0.19060
 H227 H 0.80693 0.83715 0.14981
 H228 H 0.80853 0.87970 0.10610
 H229 H 0.71636 0.85675 0.08170
 H230 H 0.71476 0.81418 0.12537
 C231 C 0.25143 0.38773 0.61175
 C232 C 0.23871 0.40088 0.64366
 C233 C 0.23791 0.37796 0.66718
 C234 C 0.24990 0.34414 0.65650
 C235 C 0.28424 0.35001 0.64286
 C236 C 0.28504 0.37293 0.61933
 C237 C 0.22948 0.35836 0.60410
 C238 C 0.22868 0.33543 0.62762
 C239 C 0.25216 0.41248 0.58649
 C240 C 0.25250 0.43297 0.56586
 C241 C 0.24910 0.31947 0.68180
 C242 C 0.24888 0.29899 0.70241
 H243 H 0.23101 0.42598 0.64744
 H244 H 0.22952 0.38342 0.69111
 H245 H 0.30600 0.33727 0.65098
 H246 H 0.30748 0.37981 0.60726
 H247 H 0.21580 0.35577 0.58211
 H248 H 0.21433 0.31320 0.62580
 C249 C 0.88838 0.24766 0.11132
 C250 C 0.87782 0.21366 0.12285
 C251 C 0.85490 0.21449 0.14639
 C252 C 0.84481 0.24926 0.15609
 C253 C 0.83363 0.26566 0.12509
 C254 C 0.85654 0.26483 0.10155
 C255 C 0.89977 0.26562 0.14141
 C256 C 0.87686 0.26645 0.16494
 C257 C 0.91312 0.24690 0.08605
 C258 C 0.93360 0.24655 0.06541
 C259 C 0.82015 0.25012 0.18140
 C260 C 0.79967 0.25041 0.20201
 H261 H 0.88741 0.19093 0.11331
 H262 H 0.84486 0.19248 0.15702
 H263 H 0.80979 0.27687 0.12188
 H264 H 0.85233 0.27534 0.07818
 H265 H 0.92373 0.27670 0.14400
 H266 H 0.88119 0.27825 0.18769
 C267 C 0.38733 0.74840 0.61139
 C268 C 0.37914 0.71459 0.62511
 C269 C 0.35618 0.71542 0.64861
 C270 C 0.34367 0.74998 0.65608
 C271 C 0.33142 0.76341 0.62412
 C272 C 0.35438 0.76259 0.60062
 C273 C 0.39737 0.76911 0.64022
 C274 C 0.37442 0.76994 0.66371
 C275 C 0.41211 0.74764 0.58616
 C276 C 0.43262 0.74728 0.56556
 C277 C 0.31898 0.75084 0.68135
 C278 C 0.29848 0.75113 0.70196
 H279 H 0.39030 0.69198 0.61700
 H280 H 0.34765 0.69352 0.66063
 H281 H 0.30686 0.77267 0.62027
 H282 H 0.34949 0.77116 0.57664
 H283 H 0.42049 0.78199 0.64202
 H284 H 0.37787 0.78353 0.68563
 C285 C 0.11190 0.75197 0.11035
 C286 C 0.12318 0.71730 0.11908
 C287 C 0.14602 0.71649 0.14265
 C288 C 0.15536 0.75044 0.15521
 C289 C 0.12293 0.76621 0.16536
 C290 C 0.10008 0.76701 0.14179
 C291 C 0.14339 0.77055 0.10212
 C292 C 0.16624 0.76974 0.12570
 C293 C 0.08721 0.75271 0.08502
 C294 C 0.06677 0.75304 0.06436
 C295 C 0.17997 0.74962 0.18057
 C296 C 0.20042 0.74936 0.20121
 H297 H 0.11403 0.69530 0.10772
 H298 H 0.15643 0.69381 0.15149
 H299 H 0.11832 0.77592 0.18898
 H300 H 0.07590 0.77741 0.14522
 H301 H 0.14739 0.78322 0.07974
 H302 H 0.18983 0.78168 0.12351
 C303 C 0.61203 0.25182 0.61180
 C304 C 0.62347 0.21713 0.62025
 C305 C 0.64635 0.21626 0.64377
 C306 C 0.65553 0.25016 0.65654
 C307 C 0.62306 0.26570 0.66687
 C308 C 0.60017 0.26657 0.64335
 C309 C 0.64340 0.27061 0.60363
 C310 C 0.66629 0.26973 0.62716
 C311 C 0.58733 0.25262 0.58656
 C312 C 0.56688 0.25299 0.56594
 C313 C 0.68016 0.24927 0.68180
 C314 C 0.70064 0.24898 0.70237
 H315 H 0.61440 0.19518 0.60875
 H316 H 0.65688 0.19357 0.65244
 H317 H 0.61846 0.27522 0.69057
 H318 H 0.57595 0.27683 0.64689
 H319 H 0.64729 0.28347 0.58134
 H320 H 0.68982 0.28180 0.62502
 C321 C 0.75216 0.11164 0.88885
 C322 C 0.78403 0.13113 0.88548
 C323 C 0.78307 0.15406 0.86196
 C324 C 0.75033 0.15525 0.84413
 C325 C 0.72443 0.16045 0.87008
 C326 C 0.72538 0.13751 0.89360
 C327 C 0.74578 0.09732 0.85567
 C328 C 0.74482 0.12025 0.83216
 C329 C 0.75305 0.08687 0.91410
 C330 C 0.75349 0.06637 0.93471
 C331 C 0.74936 0.17994 0.81887
 C332 C 0.74902 0.20047 0.79830
 H333 H 0.80546 0.12726 0.90025
 H334 H 0.80369 0.16982 0.85655
 H335 H 0.70690 0.18039 0.87002
 H336 H 0.70867 0.13781 0.91367
 H337 H 0.74234 0.07144 0.85105
 H338 H 0.74055 0.11403 0.80740
 C339 C 0.25133 0.61218 0.38802
 C340 C 0.26961 0.64379 0.39638
 C341 C 0.26878 0.66668 0.37282
 C342 C 0.24976 0.65570 0.34321
 C343 C 0.21580 0.64608 0.35558
 C344 C 0.21663 0.62320 0.37914
 C345 C 0.26667 0.60053 0.35666
 C346 C 0.26585 0.62342 0.33310
 C347 C 0.25209 0.58747 0.41332
 C348 C 0.25245 0.56701 0.43397
 C349 C 0.24892 0.68035 0.31789
 C350 C 0.24868 0.70086 0.29730
 H351 H 0.28210 0.64783 0.41882
 H352 H 0.28053 0.69036 0.37509
 H353 H 0.19310 0.65634 0.34663
 H354 H 0.19463 0.61386 0.39038
 H355 H 0.27728 0.57644 0.35326
 H356 H 0.27575 0.61895 0.30952
 C357 C 0.24783 0.88891 0.88826
 C358 C 0.23238 0.90040 0.85689
 C359 C 0.23312 0.87739 0.83346
 C360 C 0.24925 0.84515 0.84367
 C361 C 0.23034 0.83432 0.87344
 C362 C 0.22958 0.85733 0.89688
 C363 C 0.28250 0.87784 0.87927
 C364 C 0.28325 0.85484 0.85584
 C365 C 0.24716 0.91375 0.91344
 C366 C 0.24687 0.93429 0.93402
 C367 C 0.25001 0.82037 0.81847
 C368 C 0.25023 0.79978 0.79796
 H369 H 0.22176 0.92447 0.85341
 H370 H 0.22314 0.88175 0.80991
 H371 H 0.21859 0.81066 0.87590
 H372 H 0.21717 0.85339 0.91939
 H373 H 0.30454 0.88724 0.89035
 H374 H 0.30592 0.84455 0.84685
 C375 C 0.74838 0.38775 0.38835
 C376 C 0.73332 0.39945 0.35689
 C377 C 0.73420 0.37654 0.33339
 C378 C 0.75008 0.34420 0.34366
 C379 C 0.73079 0.33333 0.37318
 C380 C 0.72990 0.35624 0.39669
 C381 C 0.78310 0.37658 0.37969
 C382 C 0.78399 0.35367 0.35618
 C383 C 0.74756 0.41247 0.41358
 C384 C 0.74716 0.43294 0.43418
 C385 C 0.75098 0.31955 0.31842
 C386 C 0.75127 0.29903 0.29788
 H387 H 0.72284 0.42358 0.35340
 H388 H 0.72448 0.38104 0.30975
 H389 H 0.71892 0.30970 0.37542
 H390 H 0.71723 0.35227 0.41907
 H391 H 0.80506 0.38583 0.39103
 H392 H 0.80670 0.34331 0.34738
 C393 C 0.11157 0.24775 0.88895
 C394 C 0.09943 0.23416 0.85704
 C395 C 0.12238 0.23504 0.83354
 C396 C 0.15521 0.24944 0.84425
 C397 C 0.16542 0.22882 0.87314
 C398 C 0.14247 0.22793 0.89664
 C399 C 0.12388 0.28234 0.88137
 C400 C 0.14682 0.28322 0.85787
 C401 C 0.08680 0.24694 0.91419
 C402 C 0.06631 0.24655 0.93481
 C403 C 0.17992 0.25034 0.81900
 C404 C 0.20047 0.25064 0.79845
 H405 H 0.07497 0.22465 0.85324
 H406 H 0.11758 0.22630 0.80961
 H407 H 0.18865 0.21609 0.87498
 H408 H 0.14601 0.21440 0.91861
 H409 H 0.11533 0.30421 0.89341
 H410 H 0.15793 0.30585 0.84977
 C411 C 0.61213 0.74836 0.38800
 C412 C 0.60039 0.73365 0.35642
 C413 C 0.62335 0.73448 0.33294
 C414 C 0.65580 0.74995 0.34333
 C415 C 0.66645 0.73035 0.37272
 C416 C 0.64349 0.72951 0.39622
 C417 C 0.62360 0.78303 0.37958
 C418 C 0.64656 0.78387 0.35609
 C419 C 0.58735 0.74760 0.41323
 C420 C 0.56684 0.74724 0.43384
 C421 C 0.68053 0.75080 0.31809
 C422 C 0.70110 0.75107 0.29755
 H423 H 0.57618 0.72344 0.35284
 H424 H 0.61882 0.72499 0.30923
 H425 H 0.68998 0.71823 0.37490
 H426 H 0.64732 0.71664 0.41851
 H427 H 0.61449 0.80500 0.39107
 H428 H 0.65711 0.80654 0.34745
 C429 C 0.88858 0.75202 0.88809
 C430 C 0.85337 0.75489 0.90049
 C431 C 0.83038 0.75409 0.87704
 C432 C 0.84484 0.75049 0.84350
 C433 C 0.86612 0.71961 0.84497
 C434 C 0.88911 0.72041 0.86841
 C435 C 0.89209 0.77971 0.86365
 C436 C 0.86909 0.77891 0.84022
 C437 C 0.91341 0.75275 0.91328
 C438 C 0.93395 0.75310 0.93386
 C439 C 0.82007 0.74964 0.81828
 C440 C 0.79950 0.74936 0.79775
 H441 H 0.84707 0.75746 0.92546
 H442 H 0.80438 0.75602 0.88193
 H443 H 0.86339 0.69893 0.82901
 H444 H 0.90606 0.70042 0.87252
 H445 H 0.91092 0.79836 0.86472
 H446 H 0.86820 0.79689 0.82122
 C447 C 0.38794 0.25165 0.38832
 C448 C 0.40024 0.26515 0.35641
 C449 C 0.37739 0.26426 0.33285
 C450 C 0.34450 0.24994 0.34353
 C451 C 0.33420 0.27063 0.37232
 C452 C 0.35705 0.27154 0.39588
 C453 C 0.37561 0.21706 0.38083
 C454 C 0.35277 0.21616 0.35727
 C455 C 0.41259 0.25247 0.41360
 C456 C 0.43301 0.25287 0.43424
 C457 C 0.31991 0.24903 0.31824
 C458 C 0.29942 0.24874 0.29768
 H459 H 0.42473 0.27461 0.35265
 H460 H 0.38230 0.27295 0.30891
 H461 H 0.31098 0.28341 0.37406
 H462 H 0.35344 0.28511 0.41779
 H463 H 0.38407 0.19520 0.39296
 H464 H 0.34166 0.19354 0.34921
 C465 C 0.75234 0.88729 0.88878
 C466 C 0.75148 0.90208 0.85521
 C467 C 0.75057 0.87929 0.83161
 C468 C 0.75061 0.84396 0.84390
 C469 C 0.72149 0.84198 0.86685
 C470 C 0.72239 0.86477 0.89045
 C471 C 0.78194 0.86419 0.88877
 C472 C 0.78104 0.84139 0.86515
 C473 C 0.75317 0.91190 0.91410
 C474 C 0.75357 0.93231 0.93476
 C475 C 0.74970 0.81944 0.81855
 C476 C 0.74943 0.79902 0.79792
 H477 H 0.75159 0.92817 0.85041
 H478 H 0.74990 0.88584 0.80658
 H479 H 0.70189 0.82423 0.86475
 H480 H 0.70357 0.86655 0.90860
 H481 H 0.80185 0.86561 0.90578
 H482 H 0.80019 0.82329 0.86190
 C483 C 0.25171 0.38744 0.38838
 C484 C 0.23463 0.39906 0.35787
 C485 C 0.23390 0.37608 0.33443
 C486 C 0.25032 0.34372 0.34376
 C487 C 0.23305 0.33299 0.37448
 C488 C 0.23377 0.35597 0.39793
 C489 C 0.28577 0.37614 0.37760
 C490 C 0.28504 0.35316 0.35414
 C491 C 0.25237 0.41227 0.41358
 C492 C 0.25265 0.43281 0.43415
 C493 C 0.24957 0.31898 0.31853
 C494 C 0.24936 0.29845 0.29795
 H495 H 0.22405 0.42322 0.35494
 H496 H 0.22269 0.38055 0.31142
 H497 H 0.22135 0.30938 0.37755
 H498 H 0.22268 0.35206 0.42109
 H499 H 0.30845 0.38532 0.38756
 H500 H 0.30710 0.34265 0.34401
 C501 C 0.24817 0.11238 0.88949
 C502 C 0.26607 0.14388 0.89892
 C503 C 0.26683 0.16678 0.87536
 C504 C 0.24963 0.15592 0.84469
 C505 C 0.21489 0.14650 0.85509
 C506 C 0.21412 0.12361 0.87865
 C507 C 0.26531 0.10065 0.85906
 C508 C 0.26608 0.12354 0.83551
 C509 C 0.24747 0.08765 0.91478
 C510 C 0.24714 0.06717 0.93541
 C511 C 0.25040 0.18055 0.81936
 C512 C 0.25061 0.20101 0.79872
 H513 H 0.27712 0.14788 0.92207
 H514 H 0.27852 0.19040 0.87833
 H515 H 0.19285 0.15697 0.84489
 H516 H 0.19143 0.11445 0.88864
 H517 H 0.27592 0.07648 0.85625
 H518 H 0.27734 0.11899 0.81253
 C519 C 0.74834 0.61234 0.38825
 C520 C 0.76761 0.64316 0.39725
 C521 C 0.76843 0.66613 0.37376
 C522 C 0.74992 0.65602 0.34358
 C523 C 0.71522 0.64776 0.35495
 C524 C 0.71438 0.62479 0.37845
 C525 C 0.76412 0.60018 0.35729
 C526 C 0.76496 0.62313 0.33380
 C527 C 0.74757 0.58755 0.41347
 C528 C 0.74719 0.56704 0.43407
 C529 C 0.75077 0.68073 0.31832
 C530 C 0.75105 0.70125 0.29774
 H531 H 0.77950 0.64667 0.42008
 H532 H 0.78103 0.68932 0.37646
 H533 H 0.69324 0.65900 0.34543
 H534 H 0.69170 0.61636 0.38906
 H535 H 0.77380 0.57567 0.35409
 H536 H 0.77534 0.61831 0.31049
 C537 C 0.11198 0.75216 0.88915
 C538 C 0.09952 0.73707 0.85799
 C539 C 0.12239 0.73633 0.83442
 C540 C 0.15548 0.75073 0.84431
 C541 C 0.16548 0.73157 0.87418
 C542 C 0.14260 0.73231 0.89775
 C543 C 0.12479 0.78610 0.87981
 C544 C 0.14767 0.78535 0.85623
 C545 C 0.08728 0.75283 0.91446
 C546 C 0.06681 0.75313 0.93511
 C547 C 0.18010 0.74998 0.81897
 C548 C 0.20054 0.74976 0.79831
 H549 H 0.07490 0.72779 0.85473
 H550 H 0.11737 0.72641 0.81098
 H551 H 0.18852 0.71861 0.87662
 H552 H 0.14603 0.71997 0.92039
 H553 H 0.11666 0.80871 0.89078
 H554 H 0.15913 0.80733 0.84699
 C555 C 0.61247 0.25191 0.38855
 C556 C 0.60025 0.23646 0.35747
 C557 C 0.62324 0.23563 0.33402
 C558 C 0.65619 0.25033 0.34392
 C559 C 0.66616 0.23152 0.37400
 C560 C 0.64317 0.23234 0.39747
 C561 C 0.62512 0.28585 0.37897
 C562 C 0.64811 0.28502 0.35549
 C563 C 0.58764 0.25266 0.41374
 C564 C 0.56710 0.25301 0.43432
 C565 C 0.68093 0.24948 0.31869
 C566 C 0.70147 0.24919 0.29813
 H567 H 0.57570 0.22700 0.35419
 H568 H 0.61839 0.22546 0.31064
 H569 H 0.68927 0.21873 0.37666
 H570 H 0.64657 0.22024 0.42023
 H571 H 0.61680 0.30851 0.38970
 H572 H 0.65949 0.30698 0.34612
 C573 C 0.88717 0.24777 0.88907
 C574 C 0.85279 0.23808 0.90027
 C575 C 0.82994 0.23889 0.87670
 C576 C 0.84374 0.24931 0.84426
 C577 C 0.87193 0.22546 0.83770
 C578 C 0.89479 0.22466 0.86126
 C579 C 0.88302 0.28163 0.87380
 C580 C 0.86018 0.28243 0.85024
 C581 C 0.91182 0.24702 0.91435
 C582 C 0.93225 0.24665 0.93498
 C583 C 0.81916 0.25014 0.81895
 C584 C 0.79872 0.25040 0.79834
 H585 H 0.84692 0.23111 0.92454
 H586 H 0.80449 0.23259 0.88076
 H587 H 0.87375 0.21047 0.81646
 H588 H 0.91620 0.20898 0.86021
 H589 H 0.89681 0.30308 0.88088
 H590 H 0.85440 0.30457 0.83713
 C591 C 0.38734 0.74827 0.38800
 C592 C 0.39973 0.76329 0.35675
 C593 C 0.37679 0.76405 0.33326
 C594 C 0.34369 0.74973 0.34331
 C595 C 0.33384 0.76895 0.37318
 C596 C 0.35679 0.76819 0.39667
 C597 C 0.37442 0.71434 0.37879
 C598 C 0.35147 0.71511 0.35529
 C599 C 0.41213 0.74757 0.41323
 C600 C 0.43264 0.74725 0.43383
 C601 C 0.31899 0.75051 0.31805
 C602 C 0.29849 0.75075 0.29745
 H603 H 0.42437 0.77251 0.35336
 H604 H 0.38177 0.77393 0.30977
 H605 H 0.31083 0.78197 0.37568
 H606 H 0.35344 0.78056 0.41928
 H607 H 0.38253 0.69172 0.38978
 H608 H 0.33994 0.69314 0.34615
 C609 C 0.24786 0.88858 0.11128
 C610 C 0.26271 0.90086 0.14260
 C611 C 0.26344 0.87779 0.16600
 C612 C 0.24925 0.84472 0.15578
 C613 C 0.26862 0.83506 0.12593
 C614 C 0.26790 0.85813 0.10253
 C615 C 0.21392 0.87553 0.12033
 C616 C 0.21466 0.85246 0.14374
 C617 C 0.24720 0.91348 0.08615
 C618 C 0.24691 0.93408 0.06563
 C619 C 0.24999 0.81990 0.18093
 C620 C 0.25020 0.79930 0.20144
 H621 H 0.27184 0.92550 0.14611
 H622 H 0.27320 0.88267 0.18954
 H623 H 0.28170 0.81211 0.12338
 H624 H 0.28037 0.85494 0.07994
 H625 H 0.19133 0.88364 0.10931
 H626 H 0.19268 0.84082 0.15278
 C627 C 0.74795 0.38763 0.61172
 C628 C 0.76364 0.39981 0.64269
 C629 C 0.76442 0.37688 0.66621
 C630 C 0.74942 0.34401 0.65645
 C631 C 0.76802 0.33383 0.62631
 C632 C 0.76725 0.35676 0.60279
 C633 C 0.71397 0.37526 0.62149
 C634 C 0.71474 0.35232 0.64502
 C635 C 0.74725 0.41239 0.58647
 C636 C 0.74695 0.43289 0.56585
 C637 C 0.75021 0.31933 0.68173
 C638 C 0.75044 0.29882 0.70232
 H639 H 0.77330 0.42431 0.64588
 H640 H 0.77473 0.38172 0.68953
 H641 H 0.78062 0.31062 0.62365
 H642 H 0.77921 0.35321 0.57998
 H643 H 0.69131 0.38371 0.61083
 H644 H 0.69275 0.34112 0.65452
 C645 C 0.75259 0.11160 0.11205
 C646 C 0.76521 0.09911 0.14424
 C647 C 0.76438 0.12207 0.16769
 C648 C 0.75100 0.15526 0.15664
 C649 C 0.71732 0.14776 0.14236
 C650 C 0.71816 0.12479 0.11891
 C651 C 0.77331 0.14196 0.10472
 C652 C 0.77247 0.16493 0.12817
 C653 C 0.75336 0.08682 0.08688
 C654 C 0.75371 0.06632 0.06632
 C655 C 0.75016 0.17997 0.18182
 C656 C 0.74989 0.20053 0.20232
 H657 H 0.77404 0.07441 0.14825
 H658 H 0.77249 0.11706 0.19179
 H659 H 0.69480 0.15945 0.14999
 H660 H 0.69635 0.11681 0.10644
 H661 H 0.78738 0.14515 0.08302
 H662 H 0.78578 0.18783 0.12656
 C663 C 0.25125 0.61240 0.61164
 C664 C 0.26094 0.59904 0.64445
 C665 C 0.26015 0.62197 0.66796
 C666 C 0.24972 0.65600 0.65636
 C667 C 0.21659 0.65077 0.64004
 C668 C 0.21739 0.62785 0.61653
 C669 C 0.27434 0.64135 0.60576
 C670 C 0.27354 0.66428 0.62927
 C671 C 0.25198 0.58763 0.58638
 C672 C 0.25235 0.56714 0.56577
 C673 C 0.24892 0.68070 0.68164
 C674 C 0.24869 0.70123 0.70220
 H675 H 0.26786 0.57381 0.64884
 H676 H 0.26637 0.61636 0.69248
 H677 H 0.19445 0.66391 0.64637
 H678 H 0.19593 0.62137 0.60273
 H679 H 0.28993 0.64366 0.58496
 H680 H 0.28841 0.68624 0.62859
 C681 C 0.88864 0.75208 0.11137
 C682 C 0.87976 0.71738 0.12229
 C683 C 0.85680 0.71662 0.14578
 C684 C 0.84497 0.75063 0.15605
 C685 C 0.83304 0.76707 0.12532
 C686 C 0.85601 0.76784 0.10182
 C687 C 0.89907 0.77002 0.14179
 C688 C 0.87610 0.76926 0.16528
 C689 C 0.91343 0.75278 0.08615
 C690 C 0.93395 0.75310 0.06555
 C691 C 0.82025 0.74985 0.18129
 C692 C 0.79969 0.74962 0.20184
 H693 H 0.89055 0.69534 0.11243
 H694 H 0.84793 0.69394 0.15604
 H695 H 0.80870 0.77722 0.12228
 H696 H 0.85136 0.77867 0.07867
 H697 H 0.92242 0.78228 0.14461
 H698 H 0.87977 0.78087 0.18822
 C699 C 0.38766 0.25185 0.61192
 C700 C 0.37864 0.21713 0.62266
 C701 C 0.35574 0.21633 0.64621
 C702 C 0.34411 0.25033 0.65672
 C703 C 0.33217 0.26703 0.62611
 C704 C 0.35507 0.26783 0.60256
 C705 C 0.39826 0.26955 0.64241
 C706 C 0.37536 0.26875 0.66596
 C707 C 0.41238 0.25259 0.58663
 C708 C 0.43284 0.25293 0.56599
 C709 C 0.31946 0.24952 0.68202
 C710 C 0.29894 0.24928 0.70261
 H711 H 0.38930 0.19510 0.61264
 H712 H 0.34679 0.19363 0.65637
 H713 H 0.30787 0.27732 0.62321
 H714 H 0.35040 0.27883 0.57948
 H715 H 0.42168 0.28167 0.64524
 H716 H 0.37916 0.28020 0.68897
 C717 C 0.11181 0.24740 0.11201
 C718 C 0.11445 0.28066 0.12870
 C719 C 0.13747 0.28145 0.15209
 C720 C 0.15557 0.24890 0.15650
 C721 C 0.16953 0.24066 0.12354
 C722 C 0.14650 0.23987 0.10014
 C723 C 0.10561 0.22268 0.13884
 C724 C 0.12864 0.22346 0.16224
 C725 C 0.08697 0.24669 0.08690
 C726 C 0.06642 0.24638 0.06638
 C727 C 0.18034 0.24972 0.18164
 C728 C 0.20093 0.25000 0.20211
 H729 H 0.09955 0.30175 0.12266
 H730 H 0.14229 0.30321 0.16611
 H731 H 0.19521 0.23575 0.11902
 H732 H 0.15245 0.23430 0.07555
 H733 H 0.08501 0.20598 0.13937
 H734 H 0.12778 0.20743 0.18282
 C735 C 0.61210 0.74830 0.61144
 C736 C 0.64117 0.72532 0.60549
 C737 C 0.66411 0.72611 0.62899
 C738 C 0.65571 0.74978 0.65615
 C739 C 0.62174 0.73919 0.66774
 C740 C 0.59882 0.73842 0.64424
 C741 C 0.62736 0.78218 0.61642
 C742 C 0.65029 0.78296 0.63992
 C743 C 0.58733 0.74759 0.58619
 C744 C 0.56683 0.74726 0.56558
 C745 C 0.68042 0.75057 0.68142
 C746 C 0.70096 0.75080 0.70198
 H747 H 0.64355 0.70983 0.58465
 H748 H 0.68615 0.71131 0.62826
 H749 H 0.61619 0.73284 0.69224
 H750 H 0.57362 0.73140 0.64862
 H751 H 0.62076 0.80368 0.60268
 H752 H 0.66331 0.80512 0.64631
   
