data_POSCAR
  _audit_creation_date              2014-09-24
  _audit_creation_method            'ToBaCCo'
  _symmetry_space_group_name_H-M    'P1'
  _symmetry_Int_Tables_number       1
  _symmetry_cell_setting            triclinic
  loop_
  _symmetry_equiv_pos_as_xyz
 x,y,z
_cell_length_a 39.7686
_cell_length_b 41.1970
_cell_length_c 41.8971
_cell_angle_alpha 89.294800
_cell_angle_beta 89.083900
_cell_angle_gamma 89.803400
loop_
  _atom_site_label
  _atom_site_type_symbol
  _atom_site_fract_x
  _atom_site_fract_y
  _atom_site_fract_z
N1 N 0.19599 1.19499 0.18642
 N2 N 0.79781 0.79038 0.22337
 N3 N 0.80118 1.20897 -0.19793
 N4 N 0.20212 0.80119 -0.21146
 C5 C 0.56152 1.02600 -0.01065
 H6 H 0.56220 1.02410 0.01511
 C7 C 0.58605 1.04388 -0.02720
 H8 H 0.60541 1.05605 -0.01401
 C9 C 0.53574 1.01188 -0.05916
 H10 H 0.51657 0.99876 -0.07156
 C11 C 0.55961 1.02981 -0.07666
 H12 H 0.55855 1.03036 -0.10247
 N13 N 0.53708 1.01039 -0.02674
 C14 C 0.45338 0.99552 0.04001
 H15 H 0.45124 0.96937 0.03927
 C16 C 0.43002 1.01361 0.05758
 H17 H 0.41016 1.00115 0.07072
 C18 C 0.48172 1.04348 0.02334
 H19 H 0.50147 1.05507 0.00940
 C20 C 0.45898 1.06252 0.04073
 H21 H 0.46146 1.08868 0.03997
 Zn22 Zn 0.50711 0.98438 -0.00209
 N23 N 0.47854 1.01062 0.02332
 C24 C 0.53077 0.95711 0.05621
 N25 N 0.53376 0.95695 0.02383
 C26 C 0.55761 0.93866 0.00887
 C27 C 0.57959 0.91937 0.02656
 C28 C 0.55229 0.93819 0.07487
 C29 C 0.45652 0.97578 -0.04679
 C30 C 0.43390 0.95876 -0.06541
 C31 C 0.45826 0.90857 -0.04614
 C32 C 0.48041 0.92656 -0.02788
 N33 N 0.47924 0.95956 -0.02861
 H34 H 0.51208 0.97228 0.06769
 H35 H 0.55985 0.93950 -0.01690
 H36 H 0.59885 0.90554 0.01418
 H37 H 0.54950 0.93855 0.10061
 H38 H 0.45566 1.00203 -0.04641
 H39 H 0.41558 0.97214 -0.07921
 H40 H 0.45972 0.88233 -0.04537
 H41 H 0.49815 0.91406 -0.01281
 C42 C 0.43252 1.04759 0.05793
 C43 C 0.58537 1.04579 -0.06065
 C44 C 0.43446 0.92466 -0.06510
 C45 C 0.57723 0.91910 0.06005
 C46 C -0.01557 0.55375 1.04807
 H47 H 0.01152 0.55606 1.04701
 C48 C -0.03455 0.57383 1.06804
 H49 H -0.02184 0.59170 1.08219
 C50 C -0.06500 0.52863 1.02960
 H51 H -0.07680 0.51138 1.01418
 C52 C -0.08498 0.54830 1.04918
 H53 H -0.11204 0.54550 1.04906
 N54 N -0.03094 0.53163 1.02948
 C55 C 0.04483 0.45826 1.00753
 H56 H 0.04406 0.45881 0.98173
 C57 C 0.06465 0.43520 1.02314
 H58 H 0.07950 0.41830 1.00917
 C59 C 0.02568 0.47919 1.05705
 H60 H 0.00976 0.49576 1.07021
 C61 C 0.04530 0.45664 1.07364
 H62 H 0.04428 0.45615 1.09948
 Zn63 Zn -0.00328 0.50728 1.00141
 N64 N 0.02579 0.47958 1.02458
 C65 C 0.05567 0.53710 0.97509
 N66 N 0.02146 0.53742 0.97615
 C67 C 0.00360 0.56091 0.96082
 C68 C 0.02012 0.58550 0.94367
 C69 C 0.07324 0.56116 0.95802
 C70 C -0.04652 0.45576 0.99043
 C71 C -0.06447 0.43340 0.97274
 C72 C -0.04747 0.46217 0.92456
 C73 C -0.02975 0.48398 0.94321
 N74 N -0.02960 0.48038 0.97553
 H75 H 0.06941 0.51864 0.98800
 H76 H -0.02359 0.56077 0.96239
 H77 H 0.00547 0.60404 0.93169
 H78 H 0.10047 0.56095 0.95794
 H79 H -0.04562 0.45326 1.01614
 H80 H -0.07780 0.41398 0.98507
 H81 H -0.04669 0.46494 0.89882
 H82 H -0.01553 0.50328 0.93177
 C83 C 0.06481 0.43401 1.05664
 C84 C -0.06977 0.57137 1.06866
 C85 C -0.06486 0.43627 0.93931
 C86 C 0.05541 0.58597 0.94233
 C87 C 1.04553 0.00209 0.54858
 H88 H 1.04405 0.02825 0.55018
 C89 C 1.06593 -0.01545 0.56944
 H90 H 1.07991 -0.00254 0.58722
 C91 C 1.02759 -0.04644 0.52442
 H92 H 1.01220 -0.05847 0.50720
 C93 C 1.04776 -0.06494 0.54474
 H94 H 1.04813 -0.09108 0.54243
 N95 N 1.02692 -0.01353 0.52663
 C96 C 1.00569 0.05630 0.45067
 H97 H 0.97850 0.05537 0.45086
 C98 C 1.02271 0.07439 0.42717
 H99 H 1.00841 0.08777 0.40957
 C100 C 1.05730 0.03926 0.47303
 H101 H 1.07069 0.02485 0.49041
 C102 C 1.07535 0.05716 0.45002
 H103 H 1.10256 0.05633 0.44997
 Zn104 Zn 0.99799 0.01204 0.50112
 N105 N 1.02309 0.03910 0.47288
 C106 C 0.96958 0.06991 0.52687
 N107 N 0.97089 0.03697 0.52915
 C108 C 0.95404 0.02063 0.55277
 C109 C 0.93463 0.03741 0.57519
 C110 C 0.95036 0.08769 0.54877
 C111 C 0.98667 -0.03159 0.45207
 C112 C 0.96807 -0.05003 0.43097
 C113 C 0.91727 -0.03312 0.45855
 C114 C 0.93686 -0.01494 0.47912
 N115 N 0.97092 -0.01457 0.47558
 H116 H 0.98360 0.08250 0.50825
 H117 H 0.95602 -0.00554 0.55434
 H118 H 0.92194 0.02392 0.59414
 H119 H 0.94932 0.11387 0.54636
 H120 H 1.01374 -0.03033 0.44941
 H121 H 0.98109 -0.06277 0.41198
 H122 H 0.89021 -0.03322 0.46181
 H123 H 0.92475 -0.00078 0.49754
 C124 C 1.05802 0.07468 0.42644
 C125 C 1.06713 -0.04948 0.56781
 C126 C 0.93285 -0.05082 0.43393
 C127 C 0.93261 0.07144 0.57342
 C128 C 0.18310 0.22283 1.13537
 C129 C 0.17050 0.24952 1.11847
 C130 C 0.15893 0.27724 1.13452
 C131 C 0.16063 0.27772 1.16810
 C132 C 0.17348 0.25106 1.18497
 C133 C 0.18456 0.22324 1.16882
 C134 C 0.14384 0.30396 1.11527
 C135 C 0.13530 0.33323 1.12668
 C136 C 0.11825 0.35875 1.10741
 C137 C 0.11884 0.39096 1.11800
 C138 C 0.10189 0.41551 1.10137
 C139 C 0.08391 0.40835 1.07375
 C140 C 0.08329 0.37617 1.06311
 C141 C 0.10004 0.35160 1.07981
 H142 H 0.19104 0.20154 1.12234
 H143 H 0.16931 0.24826 1.09270
 H144 H 0.15148 0.29808 1.18173
 H145 H 0.17437 0.25191 1.21077
 H146 H 0.14000 0.29904 1.09030
 H147 H 0.14139 0.33942 1.15089
 H148 H 0.13238 0.39714 1.13930
 H149 H 0.10291 0.44013 1.11006
 H150 H 0.06897 0.36980 1.04234
 H151 H 0.09769 0.32703 1.07141
 C152 C -0.15005 0.76134 1.20777
 C153 C -0.13375 0.73499 1.19362
 C154 C -0.15229 0.70934 1.18103
 C155 C -0.18762 0.71005 1.18392
 C156 C -0.20391 0.73644 1.19816
 C157 C -0.18530 0.76247 1.20994
 C158 C -0.13379 0.68248 1.16526
 C159 C -0.14732 0.66345 1.14312
 C160 C -0.12775 0.63865 1.12533
 C161 C -0.13860 0.62963 1.09500
 C162 C -0.12011 0.60743 1.07680
 C163 C -0.09043 0.59355 1.08868
 C164 C -0.08015 0.60174 1.11948
 C165 C -0.09866 0.62392 1.13769
 H166 H -0.13514 0.78120 1.21651
 H167 H -0.10654 0.73496 1.19192
 H168 H -0.20279 0.69026 1.17553
 H169 H -0.23110 0.73661 1.20001
 H170 H -0.10730 0.68015 1.17038
 H171 H -0.17292 0.66778 1.13575
 H172 H -0.16105 0.64040 1.08500
 H173 H -0.12857 0.60183 1.05306
 H174 H -0.05782 0.59085 1.12957
 H175 H -0.09017 0.62923 1.16146
 C176 C -0.18765 0.23457 0.85282
 C177 C -0.17360 0.25975 0.87007
 C178 C -0.15760 0.28584 0.85440
 C179 C -0.15598 0.28623 0.82082
 C180 C -0.17011 0.26105 0.80347
 C181 C -0.18601 0.23454 0.81912
 C182 C -0.14149 0.31094 0.87411
 C183 C -0.13213 0.34037 0.86318
 C184 C -0.11509 0.36451 0.88330
 C185 C -0.11702 0.39756 0.87492
 C186 C -0.10088 0.42094 0.89309
 C187 C -0.08229 0.41169 0.91999
 C188 C -0.07993 0.37858 0.92810
 C189 C -0.09597 0.35524 0.90992
 H190 H -0.19876 0.21443 0.86600
 H191 H -0.17488 0.25860 0.89591
 H192 H -0.14325 0.30544 0.80771
 H193 H -0.16872 0.26238 0.77766
 H194 H -0.13814 0.30496 0.89908
 H195 H -0.13814 0.34780 0.83908
 H196 H -0.13128 0.40534 0.85436
 H197 H -0.10324 0.44628 0.88632
 H198 H -0.06505 0.37063 0.94817
 H199 H -0.09261 0.32997 0.91645
 C200 C 0.17812 0.74597 0.78731
 C201 C 0.16395 0.71901 0.80294
 C202 C 0.15956 0.71864 0.83625
 C203 C 0.17081 0.74531 0.85380
 C204 C 0.18515 0.77216 0.83817
 C205 C 0.18865 0.77286 0.80477
 C206 C 0.14350 0.69010 0.85194
 C207 C 0.12539 0.69230 0.87911
 C208 C 0.10783 0.66440 0.89444
 C209 C 0.07964 0.67053 0.91403
 C210 C 0.06249 0.64505 0.92928
 C211 C 0.07345 0.61284 0.92561
 C212 C 0.10197 0.60666 0.90636
 C213 C 0.11900 0.63216 0.89088
 H214 H 0.18085 0.74596 0.76155
 H215 H 0.15582 0.69864 0.78894
 H216 H 0.16880 0.74546 0.87958
 H217 H 0.19309 0.79265 0.85209
 H218 H 0.14474 0.66724 0.83950
 H219 H 0.12140 0.71589 0.88968
 H220 H 0.07075 0.69515 0.91745
 H221 H 0.04096 0.65061 0.94441
 H222 H 0.11096 0.58206 0.90313
 H223 H 0.14118 0.62658 0.87668
 C224 C 1.14231 0.18480 0.21544
 C225 C 1.12452 0.17294 0.24208
 C226 C 1.14151 0.16008 0.26853
 C227 C 1.17695 0.15946 0.26772
 C228 C 1.19474 0.17151 0.24108
 C229 C 1.17762 0.18409 0.21460
 C230 C 1.12117 0.14607 0.29534
 C231 C 1.13335 0.13847 0.32420
 C232 C 1.11287 0.12289 0.35006
 C233 C 1.12379 0.12488 0.38168
 C234 C 1.10587 0.10958 0.40658
 C235 C 1.07663 0.09186 0.40034
 C236 C 1.06575 0.08973 0.36871
 C237 C 1.08372 0.10487 0.34382
 H238 H 1.12849 0.19393 0.19515
 H239 H 1.09728 0.17347 0.24185
 H240 H 1.19120 0.14904 0.28707
 H241 H 1.22196 0.17065 0.24091
 H242 H 1.09471 0.14252 0.29098
 H243 H 1.15901 0.14451 0.32976
 H244 H 1.14630 0.13833 0.38715
 H245 H 1.11479 0.11173 0.43075
 H246 H 1.04379 0.07556 0.36306
 H247 H 1.07509 0.10152 0.31976
 C248 C 1.14949 -0.18288 0.76188
 C249 C 1.13267 -0.16879 0.73617
 C250 C 1.15064 -0.15653 0.70957
 C251 C 1.18596 -0.15954 0.70885
 C252 C 1.20277 -0.17360 0.73466
 C253 C 1.18471 -0.18519 0.76148
 C254 C 1.13146 -0.14119 0.68324
 C255 C 1.14494 -0.12061 0.66152
 C256 C 1.12496 -0.10369 0.63669
 C257 C 1.13759 -0.07484 0.62305
 C258 C 1.11911 -0.05747 0.60041
 C259 C 1.08757 -0.06869 0.59073
 C260 C 1.07535 -0.09809 0.60368
 C261 C 1.09387 -0.11550 0.62624
 H262 H 1.13503 -0.19151 0.78237
 H263 H 1.10549 -0.16702 0.73730
 H264 H 1.20076 -0.15147 0.68842
 H265 H 1.22992 -0.17559 0.73370
 H266 H 1.10466 -0.14554 0.68329
 H267 H 1.17114 -0.11396 0.66311
 H268 H 1.16166 -0.06541 0.63029
 H269 H 1.12956 -0.03526 0.59044
 H270 H 1.05110 -0.10737 0.59687
 H271 H 1.08370 -0.13819 0.63524
 C272 C 0.82254 -0.21253 0.27708
 C273 C 0.83737 -0.19753 0.30306
 C274 C 0.84136 -0.16368 0.30351
 C275 C 0.83028 -0.14511 0.27722
 C276 C 0.81542 -0.16014 0.25130
 C277 C 0.81156 -0.19399 0.25091
 C278 C 0.85894 -0.14898 0.33074
 C279 C 0.85623 -0.11752 0.33837
 C280 C 0.87538 -0.10216 0.36426
 C281 C 0.86419 -0.07217 0.37599
 C282 C 0.88245 -0.05583 0.39901
 C283 C 0.91252 -0.06904 0.41074
 C284 C 0.92362 -0.09920 0.39922
 C285 C 0.90539 -0.11553 0.37616
 H286 H 0.81982 -0.23868 0.27724
 H287 H 0.84594 -0.21245 0.32281
 H288 H 0.83393 -0.11913 0.27596
 H289 H 0.80774 -0.14543 0.23108
 H290 H 0.87399 -0.16507 0.34532
 H291 H 0.83873 -0.10216 0.32563
 H292 H 0.84140 -0.06112 0.36702
 H293 H 0.87349 -0.03239 0.40696
 H294 H 0.94658 -0.11011 0.40791
 H295 H 0.91551 -0.13810 0.36721
 C296 C 0.85301 0.19818 0.77237
 C297 C 0.86947 0.18603 0.74533
 C298 C 0.85119 0.17358 0.71991
 C299 C 0.81584 0.17463 0.72161
 C300 C 0.79931 0.18664 0.74870
 C301 C 0.81755 0.19839 0.77476
 C302 C 0.87002 0.15984 0.69229
 C303 C 0.85676 0.13869 0.67189
 C304 C 0.87629 0.12289 0.64584
 C305 C 0.86392 0.09398 0.63315
 C306 C 0.88191 0.07756 0.60939
 C307 C 0.91271 0.08975 0.59760
 C308 C 0.92466 0.11919 0.60960
 C309 C 0.90661 0.13568 0.63333
 H310 H 0.86813 0.20629 0.79198
 H311 H 0.89672 0.18568 0.74462
 H312 H 0.80070 0.16653 0.70206
 H313 H 0.77207 0.18720 0.74913
 H314 H 0.89644 0.16576 0.69030
 H315 H 0.83112 0.13063 0.67557
 H316 H 0.84044 0.08378 0.64199
 H317 H 0.87164 0.05530 0.60020
 H318 H 0.94834 0.12921 0.60112
 H319 H 0.91655 0.15842 0.64158
 C320 C 0.22131 1.14165 0.17376
 C321 C 0.24726 1.12301 0.16051
 C322 C 0.27604 1.13784 0.14716
 C323 C 0.27829 1.17198 0.14745
 C324 C 0.25235 1.19060 0.16089
 C325 C 0.22352 1.17565 0.17398
 C326 C 0.30193 1.11682 0.13186
 C327 C 0.33309 1.12661 0.12365
 C328 C 0.35806 1.10544 0.10724
 C329 C 0.39232 1.11335 0.10866
 C330 C 0.41656 1.09452 0.09287
 C331 C 0.40702 1.06738 0.07521
 C332 C 0.37274 1.05959 0.07355
 C333 C 0.34850 1.07847 0.08919
 H334 H 0.19915 1.12953 0.18329
 H335 H 0.24464 1.09684 0.16038
 H336 H 0.29947 1.18461 0.13674
 H337 H 0.25455 1.21679 0.16074
 H338 H 0.29492 1.09185 0.12798
 H339 H 0.34137 1.15063 0.12993
 H340 H 0.40038 1.13413 0.12212
 H341 H 0.44281 1.10103 0.09468
 H342 H 0.36456 1.03929 0.05947
 H343 H 0.32236 1.07221 0.08631
 C344 C 0.74583 1.20979 -0.17238
 C345 C 0.71805 1.19319 -0.15956
 C346 C 0.71676 1.15922 -0.16021
 C347 C 0.74301 1.14214 -0.17539
 C348 C 0.77063 1.15866 -0.18851
 C349 C 0.77290 1.19280 -0.18672
 C350 C 0.68793 1.14226 -0.14477
 C351 C 0.69120 1.11317 -0.13044
 C352 C 0.66341 1.09664 -0.11291
 C353 C 0.67134 1.07539 -0.08771
 C354 C 0.64597 1.05917 -0.07060
 C355 C 0.61210 1.06343 -0.07871
 C356 C 0.60410 1.08425 -0.10431
 C357 C 0.62951 1.10082 -0.12123
 H358 H 0.74613 1.23603 -0.17126
 H359 H 0.69786 1.20690 -0.14841
 H360 H 0.74232 1.11595 -0.17711
 H361 H 0.79091 1.14456 -0.19900
 H362 H 0.66426 1.15524 -0.14296
 H363 H 0.71582 1.10190 -0.12947
 H364 H 0.69728 1.07152 -0.08107
 H365 H 0.65287 1.04286 -0.05129
 H366 H 0.57818 1.08791 -0.11106
 H367 H 0.62258 1.11638 -0.14107
 C368 C 0.23203 0.85150 -0.19742
 C369 C 0.25947 0.86715 -0.18409
 C370 C 0.28638 0.84916 -0.17163
 C371 C 0.28585 0.81508 -0.17384
 C372 C 0.25841 0.79945 -0.18724
 C373 C 0.23109 0.81747 -0.19889
 C374 C 0.31442 0.86682 -0.15677
 C375 C 0.33423 0.85354 -0.13446
 C376 C 0.36060 0.87187 -0.11778
 C377 C 0.37051 0.86104 -0.08747
 C378 C 0.39464 0.87798 -0.07051
 C379 C 0.40966 0.90605 -0.08363
 C380 C 0.40036 0.91648 -0.11433
 C381 C 0.37619 0.89954 -0.13130
 H382 H 0.21121 0.86595 -0.20605
 H383 H 0.25935 0.89340 -0.18291
 H384 H 0.30662 0.80040 -0.16556
 H385 H 0.25845 0.77322 -0.18857
 H386 H 0.31702 0.89231 -0.16280
 H387 H 0.32950 0.82895 -0.12623
 H388 H 0.35907 0.83970 -0.07659
 H389 H 0.40098 0.86948 -0.04679
 H390 H 0.41202 0.93761 -0.12537
 H391 H 0.37016 0.90801 -0.15507
 C392 C 0.74195 0.81699 0.22509
 C393 C 0.71490 0.83178 0.20964
 C394 C 0.71447 0.83424 0.17620
 C395 C 0.74194 0.82191 0.15847
 C396 C 0.76897 0.80719 0.17393
 C397 C 0.76928 0.80460 0.20738
 C398 C 0.68603 0.85137 0.16079
 C399 C 0.67727 0.84650 0.13043
 C400 C 0.65016 0.86481 0.11418
 C401 C 0.63611 0.85169 0.08668
 C402 C 0.61195 0.86896 0.06949
 C403 C 0.60145 0.89993 0.07931
 C404 C 0.61529 0.91300 0.10698
 C405 C 0.63946 0.89573 0.12418
 H406 H 0.74166 0.81528 0.25090
 H407 H 0.69425 0.84136 0.22387
 H408 H 0.74322 0.82438 0.13276
 H409 H 0.79007 0.79845 0.15979
 H410 H 0.67140 0.86783 0.17543
 H411 H 0.68987 0.82774 0.11684
 H412 H 0.64401 0.82803 0.07834
 H413 H 0.60153 0.85809 0.04845
 H414 H 0.60826 0.93709 0.11477
 H415 H 0.65043 0.90724 0.14459
   
