data_POSCAR
  _audit_creation_date              2014-09-24
  _audit_creation_method            'ToBaCCo'
  _symmetry_space_group_name_H-M    'P1'
  _symmetry_Int_Tables_number       1
  _symmetry_cell_setting            triclinic
  loop_
  _symmetry_equiv_pos_as_xyz
 x,y,z
_cell_length_a 40.2784
_cell_length_b 40.2547
_cell_length_c 45.5584
_cell_angle_alpha 90.077000
_cell_angle_beta 89.960400
_cell_angle_gamma 120.019100
loop_
  _atom_site_label
  _atom_site_type_symbol
  _atom_site_fract_x
  _atom_site_fract_y
  _atom_site_fract_z
O1 O 0.03663 0.54496 1.27820
 O2 O -0.03787 0.50761 1.22085
 O3 O -0.03798 0.50754 1.27804
 O4 O 0.03674 0.54503 1.22101
 O5 O 0.03679 0.49011 1.22094
 O6 O -0.03791 0.45263 1.27796
 O7 O -0.03780 0.45271 1.22077
 O8 O 0.03669 0.49005 1.27812
 Cu9 Cu -0.00063 0.53183 1.24953
 Cu10 Cu -0.00055 0.46583 1.24944
 C11 C 0.04918 0.52378 1.28788
 C12 C -0.05037 0.47388 1.21108
 C13 C -0.05049 0.47379 1.28767
 C14 C 0.04932 0.52386 1.21131
 O15 O 0.45447 0.49262 1.27925
 O16 O 0.49195 0.45543 1.22190
 O17 O 0.49185 0.45534 1.27910
 O18 O 0.45452 0.49263 1.22203
 O19 O 0.50940 0.54763 1.22211
 O20 O 0.54673 0.51034 1.27918
 O21 O 0.54682 0.51043 1.22199
 O22 O 0.50935 0.54760 1.27932
 Cu23 Cu 0.46766 0.46846 1.25057
 Cu24 Cu 0.53361 0.53455 1.25066
 C25 C 0.47561 0.52637 1.28901
 C26 C 0.52569 0.47668 1.21223
 C27 C 0.52557 0.47656 1.28880
 C28 C 0.47569 0.52640 1.21239
 O29 O 0.50734 0.96244 1.27970
 O30 O 0.54489 1.03704 1.22241
 O31 O 0.54487 1.03714 1.27962
 O32 O 0.50737 0.96237 1.22248
 O33 O 0.45255 0.96255 1.22247
 O34 O 0.49005 1.03731 1.27960
 O35 O 0.49007 1.03721 1.22240
 O36 O 0.45253 0.96262 1.27969
 Cu37 Cu 0.53164 0.99973 1.25106
 Cu38 Cu 0.46577 0.99994 1.25104
 C39 C 0.47362 0.94998 1.28941
 C40 C 0.52379 1.04966 1.21269
 C41 C 0.52376 1.04980 1.28929
 C42 C 0.47366 0.94991 1.21279
 O43 O 0.96326 0.51004 0.72086
 O44 O 1.03801 0.54750 0.77791
 O45 O 1.03791 0.54748 0.72069
 O46 O 0.96338 0.51009 0.77807
 O47 O 0.96344 0.45518 0.77800
 O48 O 1.03797 0.49258 0.72060
 O49 O 1.03808 0.49259 0.77783
 O50 O 0.96331 0.45512 0.72077
 Cu51 Cu 1.00064 0.53431 0.74938
 Cu52 Cu 1.00071 0.46833 0.74929
 C53 C 0.95072 0.47628 0.71115
 C54 C 1.05060 0.52634 0.78754
 C55 C 1.05048 0.52632 0.71091
 C56 C 0.95088 0.47636 0.78777
 O57 O 0.49019 0.45272 0.72144
 O58 O 0.45306 0.49027 0.77855
 O59 O 0.45302 0.49016 0.72136
 O60 O 0.49023 0.45284 0.77863
 O61 O 0.54521 0.50773 0.77860
 O62 O 0.50799 0.54506 0.72133
 O63 O 0.50804 0.54518 0.77853
 O64 O 0.54518 0.50762 0.72140
 Cu65 Cu 0.46607 0.46596 0.75000
 Cu66 Cu 0.53216 0.53194 0.74996
 C67 C 0.52392 0.47385 0.71174
 C68 C 0.47431 0.52403 0.78822
 C69 C 0.47425 0.52388 0.71164
 C70 C 0.52397 0.47401 0.78832
 O71 O 0.54700 0.03668 0.72097
 O72 O 0.50979 -0.03796 0.77802
 O73 O 0.50969 -0.03797 0.72082
 O74 O 0.54708 0.03668 0.77816
 O75 O 0.49217 0.03667 0.77826
 O76 O 0.45477 -0.03800 0.72092
 O77 O 0.45486 -0.03798 0.77813
 O78 O 0.49208 0.03667 0.72106
 Cu79 Cu 0.53393 -0.00064 0.74948
 Cu80 Cu 0.46792 -0.00067 0.74960
 C81 C 0.52579 0.04922 0.71135
 C82 C 0.47608 -0.05049 0.78775
 C83 C 0.47594 -0.05054 0.71114
 C84 C 0.52591 0.04922 0.78793
 O85 O 0.39139 0.65821 0.97559
 O86 O 0.38983 0.72134 0.96660
 C87 C 0.37164 0.73868 0.96110
 O88 O 0.34236 0.73351 0.97539
 O89 O 0.27930 0.66877 0.96621
 C90 C 0.26195 0.63319 0.96075
 O91 O 0.26706 0.60912 0.97515
 O92 O 0.33183 0.61079 0.96640
 C93 C 0.36742 0.62901 0.96112
 O94 O 0.38941 0.66867 1.03397
 O95 O 0.39114 0.73345 1.02500
 C96 C 0.36703 0.73863 1.03929
 O97 O 0.33151 0.72129 1.03375
 O98 O 0.26682 0.65818 1.02456
 C99 C 0.26155 0.62892 1.03892
 O100 O 0.27891 0.61070 1.03357
 O101 O 0.34202 0.60905 1.02482
 C102 C 0.37117 0.63308 1.03931
 Cr103 Cr 0.38832 0.69436 1.00028
 Cr104 Cr 0.30606 0.69438 0.99998
 Cr105 Cr 0.30602 0.61204 0.99999
 O106 O 0.33347 0.66693 1.00009
 O107 O 0.61075 0.33159 0.96681
 O108 O 0.60918 0.26679 0.97550
 C109 C 0.63313 0.26135 0.96122
 O110 O 0.66868 0.27857 0.96670
 O111 O 0.73351 0.34183 0.97528
 C112 C 0.73894 0.37125 0.96106
 O113 O 0.72176 0.38960 0.96663
 O114 O 0.65856 0.39119 0.97539
 C115 C 0.62909 0.36713 0.96123
 O116 O 0.60932 0.34195 1.02530
 O117 O 0.61092 0.27873 1.03398
 C118 C 0.62926 0.26153 1.03949
 O119 O 0.65864 0.26693 1.02521
 O120 O 0.72188 0.33179 1.03379
 C121 C 0.73908 0.36736 1.03932
 O122 O 0.73362 0.39133 1.02511
 O123 O 0.66886 0.38979 1.03387
 C124 C 0.63334 0.37145 1.03947
 Cr125 Cr 0.61221 0.30585 1.00040
 Cr126 Cr 0.69459 0.30587 1.00025
 Cr127 Cr 0.69461 0.38830 1.00025
 O128 O 0.66714 0.33334 1.00030
 O129 O 0.65769 0.39058 0.52453
 O130 O 0.72077 0.38895 0.53346
 C131 C 0.73815 0.37076 0.53881
 O132 O 0.73294 0.34151 0.52439
 O133 O 0.66817 0.27840 0.53332
 C134 C 0.63260 0.26101 0.53869
 O135 O 0.60858 0.26618 0.52430
 O136 O 0.61020 0.33093 0.53337
 C137 C 0.62843 0.36650 0.53885
 O138 O 0.66823 0.38903 0.46613
 O139 O 0.73293 0.39063 0.47506
 C140 C 0.73810 0.36658 0.46064
 O141 O 0.72075 0.33099 0.46601
 O142 O 0.65766 0.26621 0.47493
 C143 C 0.62845 0.26101 0.46054
 O144 O 0.61028 0.27841 0.46593
 O145 O 0.60863 0.34152 0.47501
 C146 C 0.63268 0.37082 0.46071
 Cr147 Cr 0.69384 0.38766 0.49979
 Cr148 Cr 0.69382 0.30534 0.49966
 Cr149 Cr 0.61155 0.30532 0.49965
 O150 O 0.66640 0.33278 0.49970
 O151 O 0.33158 0.61065 0.53343
 O152 O 0.26675 0.60903 0.52489
 C153 C 0.26134 0.63304 0.53916
 O154 O 0.27855 0.66859 0.53365
 O155 O 0.34177 0.73341 0.52494
 C156 C 0.37126 0.73887 0.53907
 O157 O 0.38959 0.72168 0.53342
 O158 O 0.39109 0.65841 0.52464
 C159 C 0.36713 0.62900 0.53890
 O160 O 0.34160 0.60898 0.47492
 O161 O 0.27839 0.61059 0.46639
 C162 C 0.26121 0.62895 0.46090
 O163 O 0.26669 0.65841 0.47516
 O164 O 0.33146 0.72167 0.46645
 C165 C 0.36698 0.73886 0.46083
 O166 O 0.39099 0.73339 0.47495
 O167 O 0.38934 0.66853 0.46617
 C168 C 0.37099 0.63296 0.46065
 Cr169 Cr 0.30567 0.61199 0.49991
 Cr170 Cr 0.30570 0.69443 0.50004
 Cr171 Cr 0.38808 0.69442 0.49980
 O172 O 0.33315 0.66695 0.49992
 C173 C 0.43560 0.56659 0.35284
 C174 C 0.45228 0.61021 0.35187
 C175 C 0.43900 0.62375 0.37366
 C176 C 0.41034 0.59234 0.39431
 C177 C 0.43133 0.57189 0.40562
 C178 C 0.44461 0.55836 0.38383
 C179 C 0.39193 0.54952 0.35233
 C180 C 0.37865 0.56306 0.37413
 C181 C 0.44999 0.55199 0.32943
 C182 C 0.46196 0.53995 0.31035
 C183 C 0.39611 0.60690 0.41785
 C184 C 0.38456 0.61882 0.43733
 H185 H 0.47270 0.62884 0.33550
 H186 H 0.44805 0.65396 0.37595
 H187 H 0.43542 0.56834 0.42871
 H188 H 0.46006 0.54323 0.38827
 H189 H 0.37310 0.52865 0.33626
 H190 H 0.34845 0.55378 0.37672
 C191 C 0.43319 0.86981 0.35317
 C192 C 0.44223 0.88709 0.38418
 C193 C 0.42870 0.86030 0.40594
 C194 C 0.40742 0.81882 0.39459
 C195 C 0.43598 0.81578 0.37399
 C196 C 0.44952 0.84258 0.35222
 C197 C 0.38948 0.84346 0.35259
 C198 C 0.37593 0.81666 0.37435
 C199 C 0.44782 0.89878 0.32979
 C200 C 0.45992 0.92277 0.31072
 C201 C 0.39287 0.79004 0.41811
 C202 C 0.38100 0.76658 0.43755
 H203 H 0.45790 0.91769 0.38865
 H204 H 0.43277 0.86796 0.42904
 H205 H 0.44477 0.79444 0.37629
 H206 H 0.46991 0.84419 0.33588
 H207 H 0.37081 0.84565 0.33648
 H208 H 0.34567 0.79590 0.37689
 C209 C 0.13064 0.56441 0.35301
 C210 C 0.15692 0.54697 0.35250
 C211 C 0.18363 0.56023 0.37433
 C212 C 0.18146 0.58962 0.39455
 C213 C 0.13997 0.56946 0.40580
 C214 C 0.11327 0.55622 0.38397
 C215 C 0.15791 0.60799 0.35212
 C216 C 0.18462 0.62124 0.37396
 C217 C 0.10178 0.55007 0.32956
 C218 C 0.07787 0.53814 0.31044
 C219 C 0.21014 0.60382 0.41813
 C220 C 0.23354 0.61536 0.43761
 H221 H 0.15476 0.52608 0.33639
 H222 H 0.20434 0.55067 0.37693
 H223 H 0.13224 0.56591 0.42888
 H224 H 0.08267 0.54132 0.38836
 H225 H 0.15637 0.62677 0.33578
 H226 H 0.20597 0.65138 0.37632
 C227 C 0.56660 0.43577 0.35345
 C228 C 0.61007 0.45177 0.35200
 C229 C 0.62358 0.43842 0.37370
 C230 C 0.59229 0.41039 0.39471
 C231 C 0.56236 0.37864 0.37492
 C232 C 0.54885 0.39199 0.35322
 C233 C 0.55915 0.44549 0.38447
 C234 C 0.57266 0.43215 0.40616
 C235 C 0.55203 0.45019 0.33018
 C236 C 0.53998 0.46218 0.31120
 C237 C 0.60679 0.39610 0.41812
 C238 C 0.61865 0.38448 0.43750
 H239 H 0.62860 0.47181 0.33539
 H240 H 0.65369 0.44702 0.37568
 H241 H 0.55265 0.34835 0.37769
 H242 H 0.52756 0.37314 0.33740
 H243 H 0.54455 0.46145 0.38901
 H244 H 0.56963 0.43668 0.42928
 C245 C 0.56379 0.13008 0.35292
 C246 C 0.54691 0.15683 0.35205
 C247 C 0.56021 0.18367 0.37382
 C248 C 0.58908 0.18111 0.39432
 C249 C 0.62073 0.18372 0.37401
 C250 C 0.60743 0.15687 0.35224
 C251 C 0.55504 0.11284 0.38391
 C252 C 0.56833 0.13967 0.40567
 C253 C 0.54941 0.10110 0.32958
 C254 C 0.53742 0.07706 0.31055
 C255 C 0.60332 0.20988 0.41781
 C256 C 0.61487 0.23333 0.43726
 H257 H 0.52634 0.15487 0.33577
 H258 H 0.55104 0.20471 0.37619
 H259 H 0.65092 0.20479 0.37651
 H260 H 0.62622 0.15494 0.33607
 H261 H 0.53974 0.08224 0.38837
 H262 H 0.56443 0.13206 0.42877
 C263 C 0.86814 0.43273 0.35266
 C264 C 0.88510 0.44749 0.38325
 C265 C 0.85847 0.43396 0.40512
 C266 C 0.81748 0.40701 0.39423
 C267 C 0.81977 0.37530 0.37718
 C268 C 0.84642 0.38883 0.35531
 C269 C 0.83687 0.44358 0.34896
 C270 C 0.81022 0.43005 0.37084
 C271 C 0.89691 0.44731 0.32922
 C272 C 0.92080 0.45937 0.31014
 C273 C 0.78893 0.39250 0.41782
 C274 C 0.76563 0.38063 0.43732
 H275 H 0.91538 0.46686 0.38739
 H276 H 0.86591 0.44175 0.42798
 H277 H 0.80201 0.34491 0.38186
 H278 H 0.85150 0.37003 0.34125
 H279 H 0.83575 0.46039 0.33077
 H280 H 0.78626 0.43526 0.37139
 C281 C 0.56695 0.43614 1.14721
 C282 C 0.61082 0.45490 1.14699
 C283 C 0.62441 0.44165 1.12521
 C284 C 0.59281 0.41094 1.10577
 C285 C 0.56999 0.42950 1.09447
 C286 C 0.55641 0.44274 1.11624
 C287 C 0.55204 0.39284 1.14891
 C288 C 0.56563 0.37960 1.12713
 C289 C 0.55228 0.45046 1.17061
 C290 C 0.54017 0.46236 1.18969
 C291 C 0.60740 0.39673 1.08223
 C292 C 0.61930 0.38515 1.06277
 H293 H 0.62956 0.47665 1.16258
 H294 H 0.65479 0.45207 1.12214
 H295 H 0.56494 0.43202 1.07138
 H296 H 0.53973 0.45659 1.11180
 H297 H 0.53254 0.37422 1.16575
 H298 H 0.55777 0.34964 1.12531
 C299 C 0.86969 0.43363 1.14718
 C300 C 0.88705 0.44124 1.11623
 C301 C 0.86033 0.42773 1.09441
 C302 C 0.81886 0.40792 1.10565
 C303 C 0.81684 0.43773 1.12548
 C304 C 0.84356 0.45125 1.14731
 C305 C 0.84228 0.39010 1.14846
 C306 C 0.81556 0.37659 1.12663
 C307 C 0.89856 0.44821 1.17062
 C308 C 0.92249 0.46026 1.18973
 C309 C 0.79017 0.39338 1.08208
 C310 C 0.76676 0.38148 1.06261
 H311 H 0.91764 0.45596 1.11184
 H312 H 0.86805 0.43088 1.07133
 H313 H 0.79622 0.44736 1.12263
 H314 H 0.84584 0.47245 1.16316
 H315 H 0.84372 0.37154 1.16506
 H316 H 0.79411 0.34644 1.12453
 C317 C 0.56460 0.13111 1.14752
 C318 C 0.54784 0.15798 1.14832
 C319 C 0.56114 0.18466 1.12647
 C320 C 0.58990 0.18188 1.10594
 C321 C 0.56901 0.14033 1.09472
 C322 C 0.55572 0.11366 1.11657
 C323 C 0.60826 0.15784 1.14809
 C324 C 0.62156 0.18452 1.12623
 C325 C 0.55020 0.10227 1.17099
 C326 C 0.53822 0.07836 1.19012
 C327 C 0.60415 0.21053 1.08233
 C328 C 0.61569 0.23390 1.06283
 H329 H 0.52735 0.15622 1.16462
 H330 H 0.55203 0.20575 1.12406
 H331 H 0.56501 0.13254 1.07164
 H332 H 0.54034 0.08304 1.11219
 H333 H 0.62707 0.15598 1.16424
 H334 H 0.65175 0.20552 1.12367
 C335 C 0.43520 0.56720 1.14735
 C336 C 0.44274 0.55724 1.11644
 C337 C 0.42956 0.57066 1.09457
 C338 C 0.41012 0.59273 1.10576
 C339 C 0.44006 0.62444 1.12557
 C340 C 0.45325 0.61101 1.14745
 C341 C 0.39177 0.55150 1.14859
 C342 C 0.37858 0.56493 1.12672
 C343 C 0.44947 0.55272 1.17080
 C344 C 0.46136 0.54074 1.18989
 C345 C 0.39602 0.60716 1.08216
 C346 C 0.38459 0.61900 1.06264
 H347 H 0.45716 0.54106 1.11210
 H348 H 0.43268 0.56598 1.07151
 H349 H 0.45000 0.65476 1.12269
 H350 H 0.47449 0.62983 1.16331
 H351 H 0.37303 0.53161 1.16520
 H352 H 0.34854 0.55655 1.12457
 C353 C 0.13091 0.56453 1.14648
 C354 C 0.15758 0.60821 1.14705
 C355 C 0.18434 0.62145 1.12526
 C356 C 0.18178 0.58969 1.10506
 C357 C 0.14034 0.56875 1.09373
 C358 C 0.11359 0.55551 1.11552
 C359 C 0.15775 0.54776 1.14744
 C360 C 0.18451 0.56100 1.12565
 C361 C 0.10203 0.55021 1.16984
 C362 C 0.07807 0.53827 1.18887
 C363 C 0.21046 0.60386 1.08157
 C364 C 0.23388 0.61537 1.06214
 H365 H 0.15562 0.62707 1.16315
 H366 H 0.20533 0.65166 1.12268
 H367 H 0.13267 0.56468 1.07064
 H368 H 0.08300 0.54010 1.11108
 H369 H 0.15591 0.52731 1.16379
 H370 H 0.20561 0.55190 1.12333
 C371 C 0.43271 0.86858 1.14760
 C372 C 0.44112 0.88614 1.11672
 C373 C 0.42768 0.85953 1.09479
 C374 C 0.40714 0.81797 1.10590
 C375 C 0.37565 0.81506 1.12654
 C376 C 0.38910 0.84168 1.14847
 C377 C 0.44972 0.84193 1.14796
 C378 C 0.43627 0.81531 1.12602
 C379 C 0.44722 0.89733 1.17111
 C380 C 0.45925 0.92121 1.19025
 C381 C 0.39272 0.78944 1.08224
 C382 C 0.38095 0.76615 1.06267
 H383 H 0.45630 0.91677 1.11244
 H384 H 0.43135 0.86737 1.07174
 H385 H 0.34546 0.79394 1.12414
 H386 H 0.37043 0.84337 1.16487
 H387 H 0.47048 0.84378 1.16403
 H388 H 0.44551 0.79436 1.12330
 C389 C 0.56427 0.43268 0.64677
 C390 C 0.54624 0.38887 0.64695
 C391 C 0.55940 0.37531 0.62510
 C392 C 0.58929 0.40691 0.60523
 C393 C 0.62087 0.43485 0.62613
 C394 C 0.60770 0.44841 0.64798
 C395 C 0.55666 0.44244 0.61584
 C396 C 0.56982 0.42889 0.59400
 C397 C 0.55004 0.44729 0.67018
 C398 C 0.53819 0.45939 0.68926
 C399 C 0.60339 0.39238 0.58167
 C400 C 0.61487 0.38052 0.56217
 H401 H 0.52502 0.37014 0.66285
 H402 H 0.54947 0.34498 0.62227
 H403 H 0.65090 0.44323 0.62397
 H404 H 0.62646 0.46840 0.66455
 H405 H 0.54222 0.45858 0.61148
 H406 H 0.56665 0.43342 0.57093
 C407 C 0.56663 0.13068 0.64644
 C408 C 0.54906 0.15685 0.64663
 C409 C 0.56253 0.18356 0.62481
 C410 C 0.59223 0.18144 0.60495
 C411 C 0.57236 0.13994 0.59368
 C412 C 0.55890 0.11325 0.61550
 C413 C 0.61014 0.15805 0.64770
 C414 C 0.62361 0.18475 0.62587
 C415 C 0.55212 0.10186 0.66983
 C416 C 0.54013 0.07794 0.68889
 C417 C 0.60669 0.21006 0.58142
 C418 C 0.61854 0.23342 0.56196
 H419 H 0.52793 0.15462 0.66251
 H420 H 0.55294 0.20421 0.62198
 H421 H 0.56913 0.13220 0.57060
 H422 H 0.54414 0.08263 0.61110
 H423 H 0.62873 0.15659 0.66427
 H424 H 0.65373 0.20618 0.62375
 C425 C 0.86896 0.43549 0.64636
 C426 C 0.88620 0.44486 0.61537
 C427 C 0.85941 0.43155 0.59362
 C428 C 0.81798 0.41017 0.60498
 C429 C 0.81497 0.43853 0.62584
 C430 C 0.84178 0.45184 0.64761
 C431 C 0.84263 0.39175 0.64668
 C432 C 0.81582 0.37843 0.62492
 C433 C 0.89791 0.44988 0.66970
 C434 C 0.92191 0.46186 0.68872
 C435 C 0.78924 0.39593 0.58150
 C436 C 0.76581 0.38436 0.56207
 H437 H 0.91678 0.46057 0.61090
 H438 H 0.86702 0.43586 0.57052
 H439 H 0.79364 0.44736 0.62372
 H440 H 0.84343 0.47208 0.66413
 H441 H 0.84483 0.37290 0.66261
 H442 H 0.79505 0.34818 0.62220
 C443 C 0.43333 0.56450 0.64662
 C444 C 0.38965 0.54735 0.64731
 C445 C 0.37616 0.56060 0.62551
 C446 C 0.40766 0.58970 0.60515
 C447 C 0.42865 0.56921 0.59384
 C448 C 0.44213 0.55597 0.61563
 C449 C 0.44992 0.60813 0.64741
 C450 C 0.43643 0.62137 0.62561
 C451 C 0.44788 0.55017 0.67003
 C452 C 0.45989 0.53824 0.68911
 C453 C 0.39314 0.60390 0.58161
 C454 C 0.38125 0.61543 0.56216
 H455 H 0.37097 0.52664 0.66350
 H456 H 0.34592 0.55123 0.62304
 H457 H 0.43258 0.56544 0.57075
 H458 H 0.45761 0.54086 0.61119
 H459 H 0.47045 0.62695 0.66366
 H460 H 0.44540 0.65154 0.62319
 C461 C 0.43602 0.86946 0.64716
 C462 C 0.44342 0.88683 0.61623
 C463 C 0.43015 0.86012 0.59437
 C464 C 0.41075 0.81862 0.60555
 C465 C 0.37930 0.81494 0.62661
 C466 C 0.39259 0.84166 0.64848
 C467 C 0.45405 0.84369 0.64716
 C468 C 0.44077 0.81697 0.62529
 C469 C 0.45039 0.89834 0.67064
 C470 C 0.46234 0.92228 0.68977
 C471 C 0.39651 0.78993 0.58194
 C472 C 0.38492 0.76653 0.56242
 H473 H 0.45783 0.91743 0.61188
 H474 H 0.43319 0.86785 0.57130
 H475 H 0.34926 0.79324 0.62453
 H476 H 0.37392 0.84285 0.66514
 H477 H 0.47536 0.84620 0.66296
 H478 H 0.45071 0.79660 0.62236
 C479 C 0.13056 0.56669 0.64703
 C480 C 0.11365 0.56413 0.61637
 C481 C 0.14041 0.57768 0.59457
 C482 C 0.18149 0.59248 0.60553
 C483 C 0.17977 0.55879 0.62261
 C484 C 0.15300 0.54524 0.64442
 C485 C 0.16129 0.60906 0.65078
 C486 C 0.18806 0.62261 0.62897
 C487 C 0.10163 0.55206 0.67046
 C488 C 0.07766 0.53998 0.68956
 C489 C 0.21024 0.60705 0.58197
 C490 C 0.23366 0.61895 0.56249
 H491 H 0.08332 0.55268 0.61214
 H492 H 0.13298 0.57782 0.57168
 H493 H 0.19798 0.54666 0.61798
 H494 H 0.14830 0.52150 0.65846
 H495 H 0.16198 0.62684 0.66897
 H496 H 0.21166 0.65200 0.62849
 C497 C 0.43353 0.56472 0.85324
 C498 C 0.45017 0.60834 0.85254
 C499 C 0.43670 0.62158 0.87441
 C500 C 0.40793 0.58988 0.89479
 C501 C 0.42888 0.56936 0.90602
 C502 C 0.44234 0.55613 0.88417
 C503 C 0.38986 0.54758 0.85255
 C504 C 0.37640 0.56082 0.87441
 C505 C 0.44803 0.55040 0.82981
 C506 C 0.46001 0.53845 0.81072
 C507 C 0.39345 0.60403 0.91836
 C508 C 0.38156 0.61551 0.93784
 H509 H 0.47071 0.62717 0.83631
 H510 H 0.44569 0.65175 0.87691
 H511 H 0.43281 0.56556 0.92910
 H512 H 0.45780 0.54099 0.88853
 H513 H 0.37117 0.52690 0.83632
 H514 H 0.34617 0.55148 0.87690
 C515 C 0.13199 0.56729 0.85260
 C516 C 0.15872 0.61096 0.85186
 C517 C 0.18535 0.62442 0.87375
 C518 C 0.18263 0.59289 0.89422
 C519 C 0.18543 0.56392 0.87390
 C520 C 0.15879 0.55046 0.85201
 C521 C 0.11449 0.55866 0.88352
 C522 C 0.14112 0.57212 0.90539
 C523 C 0.10322 0.55277 0.82914
 C524 C 0.07932 0.54075 0.81004
 C525 C 0.21119 0.60734 0.91783
 C526 C 0.23446 0.61917 0.93738
 H527 H 0.15690 0.62965 0.83558
 H528 H 0.20636 0.65465 0.87622
 H529 H 0.20648 0.55481 0.87648
 H530 H 0.15701 0.52981 0.83583
 H531 H 0.08388 0.54333 0.88785
 H532 H 0.13331 0.56831 0.92846
 C533 C 0.43578 0.86837 0.85290
 C534 C 0.44552 0.88601 0.88377
 C535 C 0.43239 0.85947 0.90569
 C536 C 0.41080 0.81789 0.89459
 C537 C 0.43886 0.81451 0.87367
 C538 C 0.45201 0.84106 0.85174
 C539 C 0.39206 0.84213 0.85283
 C540 C 0.37892 0.81558 0.87476
 C541 C 0.44999 0.89704 0.82940
 C542 C 0.46182 0.92086 0.81027
 C543 C 0.39673 0.78943 0.91823
 C544 C 0.38524 0.76619 0.93777
 H545 H 0.46134 0.91666 0.88805
 H546 H 0.43695 0.86738 0.92875
 H547 H 0.44762 0.79314 0.87588
 H548 H 0.47202 0.84244 0.83515
 H549 H 0.37309 0.84421 0.83694
 H550 H 0.34869 0.79490 0.87767
 C551 C 0.56451 0.43306 0.85338
 C552 C 0.60808 0.44950 0.85254
 C553 C 0.62132 0.43603 0.87436
 C554 C 0.58969 0.40743 0.89489
 C555 C 0.56044 0.37586 0.87461
 C556 C 0.54721 0.38933 0.85279
 C557 C 0.55617 0.44210 0.88435
 C558 C 0.56940 0.42863 0.90616
 C559 C 0.55019 0.44760 0.82996
 C560 C 0.53829 0.45963 0.81086
 C561 C 0.60389 0.39295 0.91845
 C562 C 0.61545 0.38113 0.93793
 H563 H 0.62688 0.46992 0.83623
 H564 H 0.65145 0.44490 0.87674
 H565 H 0.55098 0.34559 0.87715
 H566 H 0.52640 0.37061 0.83665
 H567 H 0.54118 0.45771 0.88877
 H568 H 0.56575 0.43271 0.92926
 C569 C 0.86942 0.43572 0.85298
 C570 C 0.84235 0.45223 0.85201
 C571 C 0.81566 0.43899 0.87386
 C572 C 0.81863 0.41053 0.89458
 C573 C 0.86013 0.43176 0.90578
 C574 C 0.88682 0.44500 0.88393
 C575 C 0.84292 0.39200 0.85261
 C576 C 0.81623 0.37876 0.87447
 C577 C 0.89828 0.45005 0.82950
 C578 C 0.92219 0.46198 0.81036
 C579 C 0.78996 0.39634 0.91819
 C580 C 0.76657 0.38481 0.93771
 H581 H 0.84400 0.47252 0.83558
 H582 H 0.79445 0.44795 0.87616
 H583 H 0.86789 0.43603 0.92886
 H584 H 0.91742 0.46059 0.88830
 H585 H 0.84494 0.37310 0.83658
 H586 H 0.79539 0.34853 0.87716
 C587 C 0.56692 0.13074 0.85315
 C588 C 0.54946 0.15701 0.85304
 C589 C 0.56296 0.18373 0.87491
 C590 C 0.59260 0.18156 0.89477
 C591 C 0.62395 0.18476 0.87382
 C592 C 0.61045 0.15805 0.85195
 C593 C 0.55913 0.11334 0.88408
 C594 C 0.57263 0.14004 0.90594
 C595 C 0.55235 0.10187 0.82966
 C596 C 0.54031 0.07795 0.81052
 C597 C 0.60712 0.21024 0.91838
 C598 C 0.61901 0.23365 0.93789
 H599 H 0.52836 0.15483 0.83717
 H600 H 0.55342 0.20443 0.87778
 H601 H 0.65409 0.20614 0.87597
 H602 H 0.62903 0.15655 0.83536
 H603 H 0.54431 0.08272 0.88842
 H604 H 0.56936 0.13229 0.92901
   
