data_POSCAR
  _audit_creation_date              2014-09-24
  _audit_creation_method            'ToBaCCo'
  _symmetry_space_group_name_H-M    'P1'
  _symmetry_Int_Tables_number       1
  _symmetry_cell_setting            triclinic
  loop_
  _symmetry_equiv_pos_as_xyz
 x,y,z
_cell_length_a 30.3565
_cell_length_b 37.9840
_cell_length_c 26.0754
_cell_angle_alpha 89.881300
_cell_angle_beta 90.000100
_cell_angle_gamma 90.102600
loop_
  _atom_site_label
  _atom_site_type_symbol
  _atom_site_fract_x
  _atom_site_fract_y
  _atom_site_fract_z
O1 O 0.24107 0.28414 0.18944
 O2 O 0.30329 0.21561 0.25825
 O3 O 0.24120 0.21537 0.18936
 O4 O 0.30311 0.28396 0.25838
 O5 O 0.25283 0.28370 0.31977
 O6 O 0.19091 0.21508 0.25069
 O7 O 0.25302 0.21532 0.31965
 O8 O 0.19077 0.28388 0.25078
 Cu9 Cu 0.27716 0.24980 0.21758
 Cu10 Cu 0.21672 0.24946 0.29133
 C11 C 0.20554 0.29571 0.20861
 C12 C 0.28876 0.20401 0.30066
 C13 C 0.20572 0.20351 0.20847
 C14 C 0.28852 0.29531 0.30082
 O15 O 0.80323 0.28396 0.24087
 O16 O 0.74133 0.21522 0.31001
 O17 O 0.80341 0.21560 0.24111
 O18 O 0.74120 0.28398 0.30982
 O19 O 0.69089 0.28386 0.24849
 O20 O 0.75313 0.21544 0.17972
 O21 O 0.69103 0.21506 0.24868
 O22 O 0.75295 0.28383 0.17949
 Cu23 Cu 0.77728 0.24970 0.28173
 Cu24 Cu 0.71684 0.24953 0.20799
 C25 C 0.78864 0.29540 0.19842
 C26 C 0.70583 0.20341 0.29092
 C27 C 0.78887 0.20408 0.19872
 C28 C 0.70567 0.29559 0.29065
 O29 O 0.69185 0.71522 0.75241
 O30 O 0.75407 0.78376 0.82132
 O31 O 0.69197 0.78402 0.75238
 O32 O 0.75400 0.71535 0.82132
 O33 O 0.80423 0.71548 0.75989
 O34 O 0.74224 0.78410 0.69100
 O35 O 0.80431 0.78384 0.75989
 O36 O 0.74212 0.71534 0.69104
 Cu37 Cu 0.71782 0.74957 0.79297
 Cu38 Cu 0.77821 0.74970 0.71918
 C39 C 0.70659 0.70360 0.71020
 C40 C 0.78978 0.79526 0.80231
 C41 C 0.70675 0.79576 0.71016
 C42 C 0.78969 0.70393 0.80233
 O43 O 0.19134 0.78415 0.74884
 O44 O 0.25308 0.71551 0.67993
 O45 O 0.19096 0.71535 0.74886
 O46 O 0.25343 0.78390 0.67988
 O47 O 0.30369 0.78372 0.74130
 O48 O 0.24123 0.71520 0.81022
 O49 O 0.30334 0.71536 0.74135
 O50 O 0.24163 0.78396 0.81020
 Cu51 Cu 0.21705 0.74974 0.70827
 Cu52 Cu 0.27746 0.74954 0.78205
 C53 C 0.20619 0.79577 0.79104
 C54 C 0.28873 0.70396 0.69893
 C55 C 0.20566 0.70358 0.79108
 C56 C 0.28919 0.79527 0.69887
 C57 C 0.98006 0.00018 0.00059
 C58 C 1.02498 0.00030 0.00051
 C59 C 1.05063 0.02670 0.03013
 C60 C 1.05064 -0.02597 -0.02919
 C61 C 0.95430 -0.02809 -0.02491
 C62 C 0.95423 0.02831 0.02616
 C63 C 1.08220 0.04763 0.00509
 C64 C 1.10556 0.07332 0.03216
 C65 C 1.09786 0.07816 0.08461
 C66 C 1.06713 0.05685 0.11008
 C67 C 1.04378 0.03111 0.08305
 C68 C 1.04369 -0.03041 -0.08209
 C69 C 1.06696 -0.05610 -0.10916
 C70 C 1.09771 -0.07734 -0.08376
 C71 C 1.10553 -0.07246 -0.03134
 C72 C 1.08225 -0.04681 -0.00422
 C73 C 0.96084 -0.06369 -0.01222
 C74 C 0.93649 -0.08998 -0.03685
 C75 C 0.90513 -0.08091 -0.07396
 C76 C 0.89799 -0.04547 -0.08612
 C77 C 0.92232 -0.01919 -0.06160
 C78 C 0.92229 0.01922 0.06284
 C79 C 0.89783 0.04536 0.08736
 C80 C 0.90479 0.08084 0.07519
 C81 C 0.93614 0.09009 0.03810
 C82 C 0.96061 0.06394 0.01348
 H83 H 1.08813 0.04449 -0.03560
 H84 H 1.12936 0.08958 0.01211
 H85 H 1.06109 0.06023 0.15071
 H86 H 1.02017 0.01479 0.10326
 H87 H 1.02004 -0.01416 -0.10224
 H88 H 1.06083 -0.05952 -0.14977
 H89 H 1.08825 -0.04365 0.03646
 H90 H 0.98475 -0.07105 0.01668
 H91 H 0.94212 -0.11732 -0.02697
 H92 H 0.87372 -0.03816 -0.11468
 H93 H 0.91661 0.00811 -0.07165
 H94 H 0.91670 -0.00811 0.07289
 H95 H 0.87358 0.03791 0.11590
 H96 H 0.94163 0.11746 0.02822
 H97 H 0.98448 0.07144 -0.01542
 H98 H 1.12934 -0.08867 -0.01134
 C99 C 0.47884 0.49968 0.50022
 C100 C 0.52376 0.49968 0.50025
 C101 C 0.54948 0.52597 0.52999
 C102 C 0.54937 0.47338 0.47054
 C103 C 0.45301 0.47151 0.47457
 C104 C 0.45310 0.52784 0.52582
 C105 C 0.58118 0.54684 0.50507
 C106 C 0.60463 0.57241 0.53225
 C107 C 0.59689 0.57720 0.58471
 C108 C 0.56602 0.55596 0.61005
 C109 C 0.54257 0.53033 0.58291
 C110 C 0.54252 0.46904 0.41760
 C111 C 0.56582 0.44338 0.39049
 C112 C 0.59650 0.42208 0.41589
 C113 C 0.60420 0.42686 0.46836
 C114 C 0.58090 0.45247 0.49551
 C115 C 0.45939 0.43588 0.48716
 C116 C 0.43500 0.40969 0.46238
 C117 C 0.40374 0.41889 0.42522
 C118 C 0.39675 0.45436 0.41316
 C119 C 0.42113 0.48055 0.43784
 C120 C 0.42108 0.51879 0.56244
 C121 C 0.39673 0.54496 0.58702
 C122 C 0.40388 0.58044 0.57499
 C123 C 0.43529 0.58966 0.53796
 C124 C 0.45966 0.56348 0.51327
 H125 H 0.58715 0.54373 0.46438
 H126 H 0.62853 0.58863 0.51230
 H127 H 0.55994 0.55931 0.65069
 H128 H 0.51886 0.51406 0.60303
 H129 H 0.51894 0.48536 0.39744
 H130 H 0.55977 0.44004 0.34985
 H131 H 0.58683 0.45555 0.53622
 H132 H 0.48322 0.42842 0.51609
 H133 H 0.44051 0.38232 0.47218
 H134 H 0.37257 0.46177 0.38457
 H135 H 0.41555 0.50788 0.42787
 H136 H 0.41535 0.49146 0.57238
 H137 H 0.37243 0.53755 0.61552
 H138 H 0.44093 0.61703 0.52818
 H139 H 0.48359 0.57095 0.48443
 H140 H 0.62797 0.41060 0.48836
 C141 C 0.02372 0.50057 -0.00072
 C142 C -0.02121 0.50055 -0.00073
 C143 C -0.04702 0.47227 0.02484
 C144 C -0.04696 0.52879 -0.02629
 C145 C 0.04943 0.52699 -0.03039
 C146 C 0.04933 0.47417 0.02894
 C147 C -0.04061 0.43669 0.01219
 C148 C -0.06498 0.41039 0.03691
 C149 C -0.09625 0.41943 0.07409
 C150 C -0.10328 0.45486 0.08621
 C151 C -0.07892 0.48115 0.06159
 C152 C -0.07897 0.51986 -0.06293
 C153 C -0.10334 0.54612 -0.08746
 C154 C -0.09623 0.58155 -0.07535
 C155 C -0.06483 0.59064 -0.03829
 C156 C -0.04044 0.56438 -0.01366
 C157 C 0.08112 0.54776 -0.00541
 C158 C 0.10459 0.57344 -0.03253
 C159 C 0.09688 0.57842 -0.08498
 C160 C 0.06602 0.55728 -0.11038
 C161 C 0.04255 0.53155 -0.08331
 C162 C 0.04245 0.46961 0.08186
 C163 C 0.06575 0.44384 0.10891
 C164 C 0.09644 0.42265 0.08348
 C165 C 0.10416 0.42763 0.03103
 C166 C 0.08087 0.45335 0.00393
 H167 H -0.01677 0.42935 -0.01676
 H168 H -0.05944 0.38306 0.02706
 H169 H -0.12747 0.46214 0.11482
 H170 H -0.08453 0.50844 0.07162
 H171 H -0.08467 0.49257 -0.07293
 H172 H -0.12763 0.53879 -0.11597
 H173 H -0.01652 0.57176 0.01521
 H174 H 0.08707 0.54450 0.03528
 H175 H 0.12849 0.58957 -0.01252
 H176 H 0.05997 0.56078 -0.15102
 H177 H 0.01885 0.51535 -0.10348
 H178 H 0.01886 0.48584 0.10204
 H179 H 0.05968 0.44034 0.14955
 H180 H 0.12793 0.41146 0.01100
 H181 H 0.08681 0.45660 -0.03677
 H182 H -0.05922 0.61798 -0.02845
 C183 C 0.52496 1.00015 0.49983
 C184 C 0.48004 1.00004 0.49977
 C185 C 0.45427 0.97179 0.52546
 C186 C 0.45422 1.02817 0.47402
 C187 C 0.55062 1.02654 0.47005
 C188 C 0.55062 0.97386 0.52965
 C189 C 0.46077 0.93618 0.51299
 C190 C 0.43638 0.90992 0.53775
 C191 C 0.40500 0.91901 0.57478
 C192 C 0.39791 0.95445 0.58674
 C193 C 0.42229 0.98072 0.56208
 C194 C 0.42227 1.01908 0.43740
 C195 C 0.39781 1.04522 0.41273
 C196 C 0.40478 1.08070 0.42469
 C197 C 0.43613 1.08995 0.46172
 C198 C 0.46061 1.06381 0.48648
 C199 C 0.58220 1.04746 0.49497
 C200 C 0.60557 1.07314 0.46776
 C201 C 0.59788 1.07799 0.41528
 C202 C 0.56714 1.05670 0.38993
 C203 C 0.54377 1.03097 0.41711
 C204 C 0.54370 0.96942 0.58259
 C205 C 0.56702 0.94374 0.60980
 C206 C 0.59779 0.92253 0.58450
 C207 C 0.60556 0.92742 0.53204
 C208 C 0.58224 0.95304 0.50479
 H209 H 0.48468 0.92881 0.48414
 H210 H 0.44196 0.88257 0.52803
 H211 H 0.37364 0.96178 0.61523
 H212 H 0.41662 1.00802 0.57196
 H213 H 0.41668 0.99175 0.42752
 H214 H 0.37356 1.03778 0.38424
 H215 H 0.48448 1.07131 0.51534
 H216 H 0.58813 1.04431 0.53568
 H217 H 0.62938 1.08940 0.48771
 H218 H 0.56110 1.06010 0.34928
 H219 H 0.52015 1.01466 0.39699
 H220 H 0.52005 0.98566 0.60266
 H221 H 0.56092 0.94032 0.65044
 H222 H 0.62939 0.91123 0.51212
 H223 H 0.58822 0.95621 0.46409
 H224 H 0.44162 1.11733 0.47144
 C225 C 1.18330 0.17783 0.18337
 C226 C 1.16360 0.15492 0.16105
 C227 C 1.14070 0.12808 0.13476
 C228 C 1.12119 0.10523 0.11208
 C229 C 0.68276 0.67652 0.68370
 C230 C 0.66296 0.65368 0.66136
 C231 C 0.63994 0.62692 0.63503
 C232 C 0.62033 0.60417 0.61228
 C233 C -0.18693 0.32185 0.17125
 C234 C -0.16622 0.34404 0.14855
 C235 C -0.14187 0.37007 0.12222
 C236 C -0.12105 0.39245 0.10005
 C237 C 0.31383 0.82164 0.67178
 C238 C 0.33469 0.84377 0.64913
 C239 C 0.35919 0.86974 0.62286
 C240 C 0.38012 0.89207 0.60073
 C241 C -0.18715 0.67895 -0.17206
 C242 C -0.16639 0.65680 -0.14944
 C243 C -0.14196 0.63082 -0.12324
 C244 C -0.12109 0.60849 -0.10118
 C245 C 0.31337 1.17769 0.32774
 C246 C 0.33424 1.15563 0.35038
 C247 C 0.35880 1.12975 0.37663
 C248 C 0.37980 1.10752 0.39876
 C249 C 1.18260 -0.17707 -0.18250
 C250 C 1.16302 -0.15414 -0.16021
 C251 C 1.14028 -0.12727 -0.13393
 C252 C 1.12090 -0.10442 -0.11125
 C253 C 0.68188 0.32266 0.31708
 C254 C 0.66216 0.34551 0.33936
 C255 C 0.63926 0.37229 0.36565
 C256 C 0.61978 0.39508 0.38836
 C257 C 0.81431 -0.17836 -0.17064
 C258 C 0.83508 -0.15621 -0.14805
 C259 C 0.85948 -0.13022 -0.12185
 C260 C 0.88032 -0.10787 -0.09979
 C261 C 0.31297 0.32168 0.32797
 C262 C 0.33369 0.34380 0.35067
 C263 C 0.35807 0.36973 0.37701
 C264 C 0.37892 0.39202 0.39921
 C265 C 0.18303 0.67794 -0.18383
 C266 C 0.16314 0.65507 -0.16151
 C267 C 0.14004 0.62827 -0.13521
 C268 C 0.12038 0.60546 -0.11250
 C269 C 0.68340 1.17770 0.31608
 C270 C 0.66368 1.15478 0.33848
 C271 C 0.64075 1.12792 0.36488
 C272 C 0.62123 1.10507 0.38766
 C273 C 0.18177 0.32286 0.18217
 C274 C 0.16206 0.34578 0.15990
 C275 C 0.13917 0.37266 0.13364
 C276 C 0.11971 0.39553 0.11096
 C277 C 0.68304 0.82291 0.68366
 C278 C 0.66337 0.84582 0.66130
 C279 C 0.64051 0.87266 0.63493
 C280 C 0.62106 0.89549 0.61214
 C281 C 0.81346 0.17779 0.17171
 C282 C 0.83431 0.15575 0.14915
 C283 C 0.85885 0.12988 0.12300
 C284 C 0.87983 0.10765 0.10098
 C285 C 0.31314 0.67760 0.67184
 C286 C 0.33384 0.65549 0.64922
 C287 C 0.35822 0.62957 0.62298
 C288 C 0.37906 0.60730 0.60088
   
