data_POSCAR
  _audit_creation_date              2014-09-24
  _audit_creation_method            'ToBaCCo'
  _symmetry_space_group_name_H-M    'P1'
  _symmetry_Int_Tables_number       1
  _symmetry_cell_setting            triclinic
  loop_
  _symmetry_equiv_pos_as_xyz
 x,y,z
_cell_length_a 38.4644
_cell_length_b 45.9846
_cell_length_c 35.8957
_cell_angle_alpha 88.489500
_cell_angle_beta 90.581800
_cell_angle_gamma 90.051200
loop_
  _atom_site_label
  _atom_site_type_symbol
  _atom_site_fract_x
  _atom_site_fract_y
  _atom_site_fract_z
Si1 Si 1.24766 0.24871 0.25275
 Si2 Si 0.74219 -0.24770 0.24738
 Si3 Si 0.74286 0.25199 -0.23709
 Si4 Si 1.23664 -0.24983 -0.26415
 Si5 Si 0.25883 0.24756 0.74693
 Si6 Si 0.76046 0.74672 0.75229
 Si7 Si 0.75226 0.24833 0.23713
 Si8 Si 0.25548 0.74789 0.26301
 N9 N 1.06731 0.03055 0.03956
 N10 N 1.08804 0.05314 0.04428
 N11 N 1.04706 -0.03238 0.06653
 N12 N 1.05575 -0.05252 0.09190
 N13 N 1.07073 -0.03050 0.04044
 N14 N 1.09632 -0.04897 0.04761
 N15 N 1.04409 0.02894 0.06606
 N16 N 1.04802 0.05048 0.08921
 C17 C 1.07549 0.06544 0.07536
 C18 C 1.08631 -0.06293 0.07937
 N19 N 0.94678 -0.03400 0.04399
 N20 N 0.92453 -0.05517 0.05109
 N21 N 0.96979 0.02697 0.06835
 N22 N 0.96487 0.04796 0.09213
 N23 N 0.94491 0.02701 0.04305
 N24 N 0.92220 0.04782 0.04915
 N25 N 0.97203 -0.03426 0.06885
 N26 N 0.96759 -0.05562 0.09366
 Mn27 Mn 1.00828 -0.00280 0.06786
 C28 C 0.93792 -0.06859 0.08200
 C29 C 0.93509 0.06083 0.07979
 N30 N 1.06774 -0.02982 -0.04001
 N31 N 1.09274 -0.04820 -0.04801
 N32 N 1.03968 0.03001 -0.06650
 N33 N 1.04361 0.05114 -0.09172
 N34 N 1.06437 0.03108 -0.04104
 N35 N 1.08585 0.05281 -0.04837
 N36 N 1.04218 -0.03133 -0.06448
 N37 N 1.04895 -0.05112 -0.08945
 Mn38 Mn 1.06790 0.00042 -0.00029
 C39 C 1.08041 -0.06166 -0.07850
 C40 C 1.07246 0.06529 -0.07994
 N41 N 0.94194 0.02762 -0.03748
 N42 N 0.91908 0.04877 -0.04285
 N43 N 0.96684 -0.03331 -0.06236
 N44 N 0.96082 -0.05487 -0.08527
 N45 N 0.94384 -0.03353 -0.03560
 N46 N 0.92188 -0.05529 -0.03924
 N47 N 0.96505 0.02804 -0.06415
 N48 N 0.95875 0.04965 -0.08817
 Mn49 Mn 0.94402 -0.00314 0.00348
 Mn50 Mn 1.00343 -0.00175 -0.06484
 Cl51 Cl 1.00593 -0.00185 0.00153
 C52 C 0.92999 0.06243 -0.07455
 C53 C 0.93273 -0.06850 -0.07025
 N54 N 1.05817 0.52159 0.53628
 N55 N 1.08028 0.54334 0.54051
 N56 N 1.02958 0.46140 0.56191
 N57 N 1.03626 0.44203 0.58877
 N58 N 1.05326 0.46032 0.53584
 N59 N 1.07629 0.43978 0.54402
 N60 N 1.03392 0.52227 0.56171
 N61 N 1.03860 0.54451 0.58363
 C62 C 1.06768 0.55740 0.57027
 C63 C 1.06499 0.42830 0.57683
 N64 N 0.93041 0.46737 0.53542
 N65 N 0.90632 0.44729 0.54059
 N66 N 0.95972 0.52630 0.56167
 N67 N 0.95645 0.54700 0.58609
 N68 N 0.93527 0.52838 0.53599
 N69 N 0.91442 0.55045 0.54249
 N70 N 0.95450 0.46529 0.56151
 N71 N 0.94722 0.44387 0.58544
 Mn72 Mn 0.99444 0.49374 0.56207
 C73 C 0.91714 0.43272 0.57183
 C74 C 0.92819 0.56199 0.57374
 N75 N 1.05277 0.46222 0.45545
 N76 N 1.07449 0.44090 0.44822
 N77 N 1.03320 0.52533 0.43003
 N78 N 1.03899 0.54771 0.40715
 N79 N 1.05770 0.52331 0.45570
 N80 N 1.08100 0.54413 0.45076
 N81 N 1.02844 0.46430 0.42960
 N82 N 1.03301 0.44462 0.40406
 Mn83 Mn 1.05592 0.49182 0.49583
 C84 C 1.06162 0.42997 0.41618
 C85 C 1.06894 0.55924 0.42038
 N86 N 0.93486 0.53024 0.45556
 N87 N 0.91348 0.55223 0.44869
 N88 N 0.95358 0.46825 0.42957
 N89 N 0.94656 0.44727 0.40617
 N90 N 0.92984 0.46919 0.45552
 N91 N 0.90622 0.44880 0.45071
 N92 N 0.95873 0.52917 0.42977
 N93 N 0.95431 0.55032 0.40472
 Mn94 Mn 0.93220 0.49887 0.49561
 Mn95 Mn 0.99349 0.49674 0.42935
 Cl96 Cl 0.99404 0.49524 0.49571
 C97 C 0.92618 0.56469 0.41700
 C98 C 0.91693 0.43526 0.41984
 N99 N 0.56380 0.03469 0.54471
 N100 N 0.58530 0.05634 0.55170
 N101 N 0.54275 -0.02694 0.57328
 N102 N 0.54846 -0.04712 0.59938
 N103 N 0.56801 -0.02642 0.54893
 N104 N 0.59152 -0.04643 0.55774
 N105 N 0.53828 0.03400 0.56874
 N106 N 0.54158 0.05524 0.59251
 C107 C 0.57090 0.06914 0.58143
 C108 C 0.57889 -0.05923 0.58926
 N109 N 0.44521 -0.03271 0.54148
 N110 N 0.42348 -0.05444 0.54777
 N111 N 0.46375 0.02997 0.56420
 N112 N 0.45650 0.05193 0.58568
 N113 N 0.44099 0.02835 0.53687
 N114 N 0.41770 0.04931 0.53884
 N115 N 0.46804 -0.03099 0.56876
 N116 N 0.46238 -0.05150 0.59443
 Mn117 Mn 0.50319 0.00151 0.56915
 C118 C 0.43460 -0.06611 0.58080
 C119 C 0.42776 0.06384 0.56946
 N120 N 0.57166 -0.02786 0.46881
 N121 N 0.59599 -0.04781 0.46559
 N122 N 0.54412 0.03123 0.43736
 N123 N 0.54867 0.05204 0.41192
 N124 N 0.56739 0.03312 0.46420
 N125 N 0.58867 0.05520 0.45748
 N126 N 0.54850 -0.02978 0.44187
 N127 N 0.55633 -0.05116 0.41969
 Mn128 Mn 0.56816 0.00342 0.50669
 C129 C 0.58594 -0.06229 0.43493
 C130 C 0.57645 0.06692 0.42482
 N131 N 0.44443 0.02646 0.45713
 N132 N 0.42131 0.04691 0.44927
 N133 N 0.47388 -0.03375 0.43715
 N134 N 0.46986 -0.05467 0.41297
 N135 N 0.44871 -0.03450 0.46157
 N136 N 0.42693 -0.05594 0.45471
 N137 N 0.46975 0.02735 0.43292
 N138 N 0.46467 0.04856 0.40798
 Mn139 Mn 0.44446 -0.00313 0.49927
 Mn140 Mn 0.50911 -0.00127 0.43693
 Cl141 Cl 0.50626 0.00011 0.50301
 C142 C 0.43432 0.06057 0.41858
 C143 C 0.44061 -0.06853 0.42447
 N144 N 0.55121 0.53468 0.04183
 N145 N 0.57424 0.55504 0.04953
 N146 N 0.52549 0.47353 0.06898
 N147 N 0.53011 0.45261 0.09452
 N148 N 0.55078 0.47345 0.04469
 N149 N 0.57298 0.45232 0.05272
 N150 N 0.52600 0.53454 0.06624
 N151 N 0.53111 0.55471 0.09106
 C152 C 0.56112 0.56751 0.08017
 C153 C 0.55976 0.43940 0.08379
 N154 N 0.42758 0.47500 0.03623
 N155 N 0.40486 0.45373 0.04024
 N156 N 0.45144 0.53564 0.06129
 N157 N 0.44422 0.55630 0.08489
 N158 N 0.42909 0.53613 0.03341
 N159 N 0.40602 0.55703 0.03734
 N160 N 0.45028 0.47440 0.06377
 N161 N 0.44338 0.45279 0.08755
 Mn162 Mn 0.48829 0.50445 0.06550
 C163 C 0.41499 0.44002 0.07232
 C164 C 0.41593 0.56963 0.06945
 N165 N 0.55479 0.47249 -0.03489
 N166 N 0.57722 0.45097 -0.03708
 N167 N 0.53266 0.53315 -0.06629
 N168 N 0.53922 0.55398 -0.09122
 N169 N 0.55539 0.53370 -0.03877
 N170 N 0.57829 0.55476 -0.04450
 N171 N 0.53212 0.47186 -0.06245
 N172 N 0.53886 0.44998 -0.08444
 Mn173 Mn 0.55343 0.50370 0.00323
 C174 C 0.56701 0.43703 -0.06805
 C175 C 0.56772 0.56735 -0.07727
 N176 N 0.43316 0.53508 -0.04673
 N177 N 0.41117 0.55622 -0.05553
 N178 N 0.45669 0.47263 -0.06735
 N179 N 0.45184 0.45022 -0.08921
 N180 N 0.43156 0.47405 -0.04299
 N181 N 0.40925 0.45268 -0.04725
 N182 N 0.45804 0.53387 -0.07140
 N183 N 0.45369 0.55426 -0.09762
 Mn184 Mn 0.43004 0.50518 -0.00507
 Mn185 Mn 0.49491 0.50277 -0.06737
 Cl186 Cl 0.49170 0.50405 -0.00094
 C187 C 0.42442 0.56816 -0.08722
 C188 C 0.42211 0.43793 -0.07608
 C189 C 1.22673 0.19237 0.16804
 C190 C 1.19042 0.18748 0.16961
 C191 C 1.17135 0.20253 0.19673
 C192 C 1.18810 0.22198 0.22058
 C193 C 1.22397 0.22630 0.21851
 C194 C 1.24311 0.21126 0.19240
 C195 C 1.13582 0.19756 0.20058
 C196 C 1.11892 0.17696 0.17934
 C197 C 1.13690 0.16078 0.15273
 C198 C 1.17275 0.16729 0.14635
 C199 C 1.18972 0.15336 0.11703
 C200 C 1.17300 0.13240 0.09621
 C201 C 1.13896 0.12409 0.10411
 C202 C 1.12031 0.13817 0.13241
 C203 C 1.08623 0.12821 0.14012
 C204 C 1.07175 0.10507 0.12098
 C205 C 1.09040 0.09122 0.09327
 C206 C 1.12375 0.10122 0.08441
 H207 H 1.24348 0.18113 0.14935
 H208 H 1.17336 0.23282 0.24167
 H209 H 1.27109 0.21380 0.19117
 H210 H 1.12099 0.20927 0.22088
 H211 H 1.09149 0.17448 0.18419
 H212 H 1.21601 0.15844 0.10909
 H213 H 1.18722 0.12208 0.07423
 H214 H 1.07046 0.13708 0.16167
 H215 H 1.04588 0.09774 0.12833
 H216 H 1.13843 0.09046 0.06313
 C217 C 1.21924 0.68587 0.65960
 C218 C 1.18267 0.68286 0.65740
 C219 C 1.16222 0.70192 0.67860
 C220 C 1.17804 0.72320 0.70057
 C221 C 1.21424 0.72485 0.70360
 C222 C 1.23456 0.70645 0.68242
 C223 C 1.12612 0.69926 0.67840
 C224 C 1.10984 0.67707 0.65931
 C225 C 1.12909 0.65699 0.63873
 C226 C 1.16584 0.66105 0.63590
 C227 C 1.18449 0.64317 0.61170
 C228 C 1.16819 0.62100 0.59258
 C229 C 1.13293 0.61522 0.59750
 C230 C 1.11285 0.63300 0.62081
 C231 C 1.07760 0.62530 0.62632
 C232 C 1.06319 0.60101 0.60953
 C233 C 1.08309 0.58378 0.58629
 C234 C 1.11782 0.59127 0.57986
 H235 H 1.23684 0.67202 0.64512
 H236 H 1.16199 0.73802 0.71567
 H237 H 1.26261 0.70772 0.68366
 H238 H 1.11027 0.71403 0.69404
 H239 H 1.08188 0.67652 0.66073
 H240 H 1.21180 0.64604 0.60642
 H241 H 1.18361 0.60776 0.57445
 H242 H 1.06076 0.63694 0.64451
 H243 H 1.03627 0.59560 0.61501
 H244 H 1.13347 0.57781 0.56221
 C245 C 0.72451 0.19105 0.68245
 C246 C 0.68803 0.18669 0.68277
 C247 C 0.66839 0.20275 0.70840
 C248 C 0.68468 0.22284 0.73168
 C249 C 0.72063 0.22702 0.73046
 C250 C 0.74041 0.21075 0.70618
 C251 C 0.63264 0.19843 0.71110
 C252 C 0.61587 0.17785 0.68975
 C253 C 0.63421 0.16099 0.66415
 C254 C 0.67058 0.16641 0.65941
 C255 C 0.68820 0.15153 0.63134
 C256 C 0.67138 0.13109 0.60978
 C257 C 0.63653 0.12422 0.61567
 C258 C 0.61739 0.13894 0.64300
 C259 C 0.58242 0.13035 0.64868
 C260 C 0.56743 0.10808 0.62827
 C261 C 0.58648 0.09378 0.60128
 C262 C 0.62090 0.10225 0.59474
 H263 H 0.74165 0.17903 0.66500
 H264 H 0.66936 0.23462 0.75143
 H265 H 0.76842 0.21320 0.70565
 H266 H 0.61744 0.21083 0.73040
 H267 H 0.58823 0.17603 0.69359
 H268 H 0.71509 0.15553 0.62485
 H269 H 0.68605 0.12016 0.58865
 H270 H 0.56616 0.13973 0.66945
 H271 H 0.54079 0.10185 0.63393
 H272 H 0.63595 0.09109 0.57411
 C273 C 0.70901 0.70458 0.15758
 C274 C 0.68164 0.68726 0.17225
 C275 C 0.67260 0.69100 0.21006
 C276 C 0.69111 0.71044 0.23220
 C277 C 0.71780 0.72736 0.21704
 C278 C 0.72678 0.72425 0.17978
 C279 C 0.64518 0.67532 0.22570
 C280 C 0.62595 0.65619 0.20455
 C281 C 0.63390 0.65150 0.16686
 C282 C 0.66297 0.66649 0.15082
 C283 C 0.67287 0.65970 0.11427
 C284 C 0.65493 0.63914 0.09397
 C285 C 0.62586 0.62510 0.10874
 C286 C 0.61434 0.63162 0.14500
 C287 C 0.58351 0.61804 0.15780
 C288 C 0.56610 0.59779 0.13628
 C289 C 0.57868 0.59036 0.10137
 C290 C 0.60832 0.60438 0.08748
 H291 H 0.71711 0.70378 0.12900
 H292 H 0.68451 0.71263 0.26130
 H293 H 0.74792 0.73671 0.16772
 H294 H 0.63833 0.67799 0.25464
 H295 H 0.60555 0.64470 0.21905
 H296 H 0.69514 0.66930 0.10079
 H297 H 0.66385 0.63427 0.06626
 H298 H 0.57182 0.62279 0.18408
 H299 H 0.54287 0.58760 0.14737
 H300 H 0.61783 0.59910 0.06014
 C301 C 0.77227 -0.18668 0.16847
 C302 C 0.80841 -0.18299 0.17462
 C303 C 0.82407 -0.19871 0.20490
 C304 C 0.80446 -0.21842 0.22660
 C305 C 0.76911 -0.22236 0.21907
 C306 C 0.75304 -0.20595 0.19059
 C307 C 0.85908 -0.19447 0.21357
 C308 C 0.87884 -0.17436 0.19346
 C309 C 0.86449 -0.15819 0.16306
 C310 C 0.82917 -0.16365 0.15244
 C311 C 0.81585 -0.14991 0.11971
 C312 C 0.83559 -0.13018 0.09919
 C313 C 0.86912 -0.12302 0.11068
 C314 C 0.88423 -0.13682 0.14272
 C315 C 0.91811 -0.12800 0.15351
 C316 C 0.93579 -0.10624 0.13347
 C317 C 0.92047 -0.09279 0.10201
 C318 C 0.88739 -0.10164 0.09046
 H319 H 0.75784 -0.17447 0.14750
 H320 H 0.81666 -0.23021 0.24974
 H321 H 0.72539 -0.20814 0.18528
 H322 H 0.87124 -0.20653 0.23655
 H323 H 0.90564 -0.17242 0.20203
 H324 H 0.79032 -0.15438 0.10866
 H325 H 0.82419 -0.12003 0.07435
 H326 H 0.93129 -0.13679 0.17791
 H327 H 0.96136 -0.09965 0.14296
 H328 H 0.87527 -0.09125 0.06616
 C329 C 0.81845 0.31367 0.74102
 C330 C 0.81819 0.31743 0.70172
 C331 C 0.79365 0.30111 0.68112
 C332 C 0.77154 0.28106 0.69926
 C333 C 0.77285 0.27734 0.73799
 C334 C 0.79589 0.29410 0.75871
 C335 C 0.79100 0.30509 0.64258
 C336 C 0.81146 0.32554 0.62394
 C337 C 0.83614 0.34249 0.64312
 C338 C 0.84069 0.33736 0.68236
 C339 C 0.86783 0.35205 0.70083
 C340 C 0.88881 0.37205 0.68207
 C341 C 0.88319 0.37873 0.64439
 C342 C 0.85663 0.36425 0.62435
 C343 C 0.85110 0.37279 0.58655
 C344 C 0.87106 0.39470 0.56968
 C345 C 0.89743 0.40862 0.58958
 C346 C 0.90369 0.40027 0.62681
 H347 H 0.83504 0.32608 0.75900
 H348 H 0.75280 0.26889 0.68321
 H349 H 0.79649 0.29200 0.78884
 H350 H 0.77250 0.29253 0.62665
 H351 H 0.80778 0.32711 0.59418
 H352 H 0.87407 0.34811 0.72985
 H353 H 0.90930 0.38280 0.69745
 H354 H 0.83086 0.36366 0.56951
 H355 H 0.86564 0.40089 0.54088
 H356 H 0.92382 0.41121 0.64252
 C357 C 0.27557 -0.19862 0.64959
 C358 C 0.30745 -0.18768 0.66364
 C359 C 0.31780 -0.19681 0.70015
 C360 C 0.29701 -0.21602 0.72129
 C361 C 0.26567 -0.22640 0.70680
 C362 C 0.25507 -0.21755 0.67101
 C363 C 0.34855 -0.18639 0.71570
 C364 C 0.36907 -0.16645 0.69628
 C365 C 0.35972 -0.15615 0.66014
 C366 C 0.32885 -0.16751 0.64317
 C367 C 0.32029 -0.15819 0.60642
 C368 C 0.34019 -0.13762 0.58742
 C369 C 0.36943 -0.12543 0.60409
 C370 C 0.37998 -0.13465 0.64049
 C371 C 0.41002 -0.12145 0.65585
 C372 C 0.42805 -0.09969 0.63618
 C373 C 0.41692 -0.09038 0.60063
 C374 C 0.38789 -0.10368 0.58455
 H375 H 0.26522 -0.19260 0.62251
 H376 H 0.30484 -0.22233 0.74945
 H377 H 0.23053 -0.22497 0.65964
 H378 H 0.35669 -0.19346 0.74350
 H379 H 0.39224 -0.15952 0.71058
 H380 H 0.29823 -0.16638 0.59130
 H381 H 0.33230 -0.13090 0.55941
 H382 H 0.42004 -0.12697 0.68323
 H383 H 0.45051 -0.08980 0.64917
 H384 H 0.37916 -0.09670 0.55691
 C385 C 0.32215 0.31194 0.23471
 C386 C 0.32107 0.31769 0.19574
 C387 C 0.29654 0.30203 0.17430
 C388 C 0.27493 0.28106 0.19125
 C389 C 0.27694 0.27547 0.22960
 C390 C 0.30023 0.29125 0.25123
 C391 C 0.29339 0.30753 0.13608
 C392 C 0.31334 0.32887 0.11858
 C393 C 0.33777 0.34542 0.13863
 C394 C 0.34274 0.33890 0.17753
 C395 C 0.36932 0.35365 0.19684
 C396 C 0.38932 0.37496 0.17928
 C397 C 0.38339 0.38281 0.14200
 C398 C 0.35750 0.36824 0.12108
 C399 C 0.35183 0.37771 0.08366
 C400 C 0.37090 0.40065 0.06802
 C401 C 0.39640 0.41484 0.08885
 C402 C 0.40288 0.40556 0.12569
 H403 H 0.33899 0.32347 0.25339
 H404 H 0.25606 0.26956 0.17455
 H405 H 0.30148 0.28758 0.28115
 H406 H 0.27493 0.29542 0.11951
 H407 H 0.30926 0.33153 0.08897
 H408 H 0.37573 0.34894 0.22564
 H409 H 0.40933 0.38578 0.19530
 H410 H 0.33223 0.36849 0.06590
 H411 H 0.36538 0.40747 0.03945
 H412 H 0.42244 0.41662 0.14207
 C413 C 0.76843 0.19028 -0.15530
 C414 C 0.80457 0.18562 -0.15991
 C415 C 0.82172 0.20269 -0.18763
 C416 C 0.80341 0.22363 -0.20915
 C417 C 0.76778 0.22773 -0.20424
 C418 C 0.75040 0.21081 -0.17748
 C419 C 0.85689 0.19835 -0.19448
 C420 C 0.87538 0.17663 -0.17548
 C421 C 0.85946 0.15851 -0.14824
 C422 C 0.82395 0.16399 -0.13906
 C423 C 0.80910 0.14770 -0.10935
 C424 C 0.82769 0.12598 -0.09032
 C425 C 0.86155 0.11913 -0.10052
 C426 C 0.87792 0.13514 -0.12977
 C427 C 0.91179 0.12651 -0.13997
 C428 C 0.92850 0.10315 -0.12182
 C429 C 0.91233 0.08769 -0.09272
 C430 C 0.87895 0.09599 -0.08194
 H431 H 0.75305 0.17770 -0.13581
 H432 H 0.81680 0.23584 -0.23087
 H433 H 0.72258 0.21307 -0.17417
 H434 H 0.87021 0.21158 -0.21533
 H435 H 0.90243 0.17489 -0.18250
 H436 H 0.78313 0.15153 -0.09967
 H437 H 0.81515 0.11403 -0.06775
 H438 H 0.92582 0.13678 -0.16256
 H439 H 0.95425 0.09709 -0.13079
 H440 H 0.86608 0.08395 -0.05965
 C441 C 0.77890 0.70504 0.33922
 C442 C 0.80684 0.68876 0.32495
 C443 C 0.81546 0.69350 0.28693
 C444 C 0.79596 0.71273 0.26419
 C445 C 0.76850 0.72838 0.27885
 C446 C 0.76003 0.72445 0.31636
 C447 C 0.84329 0.67884 0.27158
 C448 C 0.86300 0.65944 0.29305
 C449 C 0.85524 0.65345 0.33085
 C450 C 0.82622 0.66787 0.34687
 C451 C 0.81696 0.66028 0.38385
 C452 C 0.83508 0.63915 0.40437
 C453 C 0.86364 0.62522 0.38934
 C454 C 0.87481 0.63275 0.35279
 C455 C 0.90509 0.61903 0.33968
 C456 C 0.92206 0.59758 0.36107
 C457 C 0.90966 0.58912 0.39620
 C458 C 0.88084 0.60343 0.41054
 H459 H 0.77097 0.70344 0.36787
 H460 H 0.80218 0.71557 0.23491
 H461 H 0.73836 0.73593 0.32806
 H462 H 0.84992 0.68239 0.24252
 H463 H 0.88362 0.64877 0.27867
 H464 H 0.79505 0.66966 0.39757
 H465 H 0.82653 0.63359 0.43236
 H466 H 0.91654 0.62439 0.31313
 H467 H 0.94473 0.58722 0.34965
 H468 H 0.87148 0.59734 0.43806
 C469 C 0.27205 0.18191 0.32695
 C470 C 0.30864 0.17910 0.32492
 C471 C 0.32651 0.19764 0.29934
 C472 C 0.30844 0.21899 0.27826
 C473 C 0.27247 0.22178 0.28153
 C474 C 0.25438 0.20280 0.30530
 C475 C 0.36222 0.19457 0.29459
 C476 C 0.38062 0.17293 0.31393
 C477 C 0.36407 0.15391 0.33970
 C478 C 0.32785 0.15801 0.34658
 C479 C 0.31211 0.14121 0.37525
 C480 C 0.33063 0.12015 0.39537
 C481 C 0.36529 0.11455 0.38730
 C482 C 0.38256 0.13112 0.35919
 C483 C 0.41740 0.12365 0.35125
 C484 C 0.43416 0.10088 0.37062
 C485 C 0.41696 0.08501 0.39864
 C486 C 0.38264 0.09213 0.40705
 H487 H 0.25617 0.16779 0.34410
 H488 H 0.32236 0.23292 0.25871
 H489 H 0.22633 0.20416 0.30718
 H490 H 0.37605 0.20878 0.27524
 H491 H 0.40811 0.17212 0.30865
 H492 H 0.28556 0.14429 0.38352
 H493 H 0.31746 0.10779 0.41716
 H494 H 0.43215 0.13441 0.32958
 H495 H 0.46069 0.09563 0.36353
 H496 H 0.36904 0.07974 0.42851
 C497 C 0.27091 0.70163 -0.17189
 C498 C 0.30228 0.68876 -0.18375
 C499 C 0.31404 0.69635 -0.22004
 C500 C 0.29459 0.71523 -0.24344
 C501 C 0.26333 0.72708 -0.23147
 C502 C 0.25184 0.72042 -0.19549
 C503 C 0.34495 0.68485 -0.23311
 C504 C 0.36440 0.66543 -0.21130
 C505 C 0.35356 0.65647 -0.17532
 C506 C 0.32206 0.66844 -0.16121
 C507 C 0.31108 0.65930 -0.12535
 C508 C 0.32961 0.63875 -0.10430
 C509 C 0.35997 0.62656 -0.11784
 C510 C 0.37280 0.63549 -0.15324
 C511 C 0.40417 0.62266 -0.16515
 C512 C 0.42113 0.60131 -0.14339
 C513 C 0.40762 0.59204 -0.10906
 C514 C 0.37730 0.60509 -0.09620
 H515 H 0.26013 0.69757 -0.14469
 H516 H 0.30385 0.72060 -0.27118
 H517 H 0.22779 0.72937 -0.18554
 H518 H 0.35412 0.69075 -0.26076
 H519 H 0.38770 0.65752 -0.22389
 H520 H 0.28783 0.66728 -0.11273
 H521 H 0.31984 0.63213 -0.07715
 H522 H 0.41629 0.62838 -0.19122
 H523 H 0.44472 0.59173 -0.15380
 H524 H 0.36680 0.59822 -0.06946
 C525 C 1.15677 -0.21674 -0.19978
 C526 C 1.16631 -0.18727 -0.19518
 C527 C 1.19825 -0.17778 -0.21065
 C528 C 1.21811 -0.19644 -0.23219
 C529 C 1.20790 -0.22528 -0.23728
 C530 C 1.17772 -0.23551 -0.21990
 C531 C 1.21050 -0.14979 -0.20424
 C532 C 1.19222 -0.13114 -0.18186
 C533 C 1.16003 -0.13936 -0.16628
 C534 C 1.14588 -0.16717 -0.17492
 C535 C 1.11146 -0.17353 -0.16407
 C536 C 1.09176 -0.15354 -0.14487
 C537 C 1.10615 -0.12715 -0.13401
 C538 C 1.14099 -0.12022 -0.14333
 C539 C 1.15564 -0.09466 -0.12862
 C540 C 1.13595 -0.07623 -0.10695
 C541 C 1.10096 -0.08220 -0.10002
 C542 C 1.08607 -0.10767 -0.11360
 H543 H 1.13405 -0.22614 -0.18685
 H544 H 1.24214 -0.18850 -0.24411
 H545 H 1.17041 -0.25818 -0.22144
 H546 H 1.23484 -0.14237 -0.21615
 H547 H 1.20330 -0.10981 -0.17851
 H548 H 1.09855 -0.19341 -0.17150
 H549 H 1.06517 -0.15904 -0.13785
 H550 H 1.18254 -0.08881 -0.13242
 H551 H 1.14800 -0.05683 -0.09614
 H552 H 1.05914 -0.11265 -0.10741
 C553 C 1.20557 0.28955 0.34314
 C554 C 1.17964 0.30805 0.32730
 C555 C 1.17316 0.30638 0.28841
 C556 C 1.19317 0.28806 0.26643
 C557 C 1.21898 0.27042 0.28264
 C558 C 1.22495 0.27120 0.32104
 C559 C 1.14711 0.32327 0.27152
 C560 C 1.12722 0.34198 0.29225
 C561 C 1.13312 0.34506 0.33086
 C562 C 1.16028 0.32829 0.34852
 C563 C 1.16790 0.33298 0.38647
 C564 C 1.14991 0.35344 0.40646
 C565 C 1.12303 0.36958 0.38987
 C566 C 1.11353 0.36510 0.35215
 C567 C 1.08483 0.38101 0.33735
 C568 C 1.06768 0.40145 0.35853
 C569 C 1.07843 0.40681 0.39507
 C570 C 1.10581 0.39048 0.41078
 H571 H 1.21161 0.28864 0.37250
 H572 H 1.18885 0.28771 0.23654
 H573 H 1.24528 0.25816 0.33411
 H574 H 1.14205 0.32207 0.24183
 H575 H 1.10806 0.35449 0.27676
 H576 H 1.18849 0.32180 0.40146
 H577 H 1.15720 0.35669 0.43531
 H578 H 1.07475 0.37810 0.30960
 H579 H 1.04621 0.41349 0.34592
 H580 H 1.11388 0.39414 0.43931
 C581 C 0.65697 -0.20231 0.28461
 C582 C 0.67096 -0.18502 0.31327
 C583 C 0.70680 -0.18827 0.32209
 C584 C 0.72762 -0.20720 0.30206
 C585 C 0.71325 -0.22394 0.27396
 C586 C 0.67795 -0.22138 0.26525
 C587 C 0.72186 -0.17251 0.35064
 C588 C 0.70221 -0.15341 0.37092
 C589 C 0.66656 -0.14889 0.36298
 C590 C 0.65082 -0.16453 0.33320
 C591 C 0.61577 -0.15862 0.32372
 C592 C 0.59682 -0.13795 0.34227
 C593 C 0.61166 -0.12279 0.37151
 C594 C 0.64640 -0.12853 0.38305
 C595 C 0.65949 -0.11343 0.41413
 C596 C 0.63951 -0.09250 0.43146
 C597 C 0.60595 -0.08596 0.41853
 C598 C 0.59194 -0.10156 0.38899
 H599 H 0.62997 -0.20180 0.27647
 H600 H 0.75517 -0.20901 0.30846
 H601 H 0.66650 -0.23373 0.24302
 H602 H 0.74926 -0.17496 0.35741
 H603 H 0.71613 -0.14187 0.39209
 H604 H 0.60230 -0.16902 0.30128
 H605 H 0.57020 -0.13373 0.33349
 H606 H 0.68497 -0.11727 0.42592
 H607 H 0.65068 -0.08102 0.45468
 H608 H 0.56567 -0.09696 0.37928
 C609 C 0.66544 0.31236 -0.22215
 C610 C 0.66467 0.31664 -0.18325
 C611 C 0.68841 0.30037 -0.16045
 C612 C 0.71108 0.28015 -0.17617
 C613 C 0.71111 0.27626 -0.21463
 C614 C 0.68852 0.29269 -0.23741
 C615 C 0.68989 0.30477 -0.12220
 C616 C 0.66924 0.32569 -0.10608
 C617 C 0.64559 0.34279 -0.12759
 C618 C 0.64208 0.33717 -0.16647
 C619 C 0.61602 0.35219 -0.18723
 C620 C 0.59537 0.37310 -0.17117
 C621 C 0.60011 0.38031 -0.13399
 C622 C 0.62529 0.36532 -0.11158
 C623 C 0.62978 0.37419 -0.07436
 C624 C 0.61041 0.39705 -0.06039
 C625 C 0.58566 0.41171 -0.08270
 C626 C 0.58021 0.40290 -0.11933
 H627 H 0.64940 0.32454 -0.24175
 H628 H 0.72939 0.26816 -0.15855
 H629 H 0.68889 0.29047 -0.26739
 H630 H 0.70771 0.29225 -0.10455
 H631 H 0.67211 0.32763 -0.07638
 H632 H 0.61050 0.34796 -0.21605
 H633 H 0.57586 0.38417 -0.18832
 H634 H 0.64879 0.36458 -0.05558
 H635 H 0.61514 0.40346 -0.03196
 H636 H 0.56127 0.41429 -0.13688
 C637 C 1.22906 0.19434 -0.16399
 C638 C 1.19439 0.18632 -0.17265
 C639 C 1.17924 0.19845 -0.20573
 C640 C 1.19818 0.21770 -0.22879
 C641 C 1.23257 0.22487 -0.22001
 C642 C 1.24773 0.21315 -0.18746
 C643 C 1.14549 0.19087 -0.21610
 C644 C 1.12667 0.17066 -0.19516
 C645 C 1.14080 0.15732 -0.16251
 C646 C 1.17469 0.16614 -0.15029
 C647 C 1.18782 0.15435 -0.11626
 C648 C 1.16939 0.13365 -0.09577
 C649 C 1.13730 0.12360 -0.10835
 C650 C 1.12230 0.13533 -0.14174
 C651 C 1.08981 0.12392 -0.15334
 C652 C 1.07346 0.10163 -0.13294
 C653 C 1.08873 0.09002 -0.10030
 C654 C 1.12041 0.10144 -0.08788
 H655 H 1.24296 0.18594 -0.13986
 H656 H 1.18631 0.22641 -0.25417
 H657 H 1.27427 0.21840 -0.18000
 H658 H 1.13364 0.20031 -0.24115
 H659 H 1.10089 0.16606 -0.20535
 H660 H 1.21237 0.16079 -0.10440
 H661 H 1.18074 0.12503 -0.07000
 H662 H 1.07662 0.13118 -0.17849
 H663 H 1.04894 0.09317 -0.14310
 H664 H 1.13245 0.09257 -0.06261
 C665 C 1.23169 0.68355 0.33808
 C666 C 1.19502 0.68142 0.33672
 C667 C 1.17683 0.70156 0.31315
 C668 C 1.19488 0.72297 0.29232
 C669 C 1.23134 0.72366 0.29242
 C670 C 1.24932 0.70422 0.31629
 C671 C 1.14072 0.69990 0.30991
 C672 C 1.12231 0.67778 0.32802
 C673 C 1.13929 0.65676 0.35109
 C674 C 1.17594 0.65962 0.35717
 C675 C 1.19225 0.64066 0.38353
 C676 C 1.17381 0.61878 0.40200
 C677 C 1.13864 0.61435 0.39433
 C678 C 1.12084 0.63307 0.36853
 C679 C 1.08556 0.62669 0.36045
 C680 C 1.06889 0.60287 0.37741
 C681 C 1.08653 0.58483 0.40329
 C682 C 1.12131 0.59091 0.41193
 H683 H 1.24773 0.66896 0.35473
 H684 H 1.18016 0.73873 0.27590
 H685 H 1.27737 0.70467 0.31822
 H686 H 1.12655 0.71546 0.29236
 H687 H 1.09454 0.67804 0.32387
 H688 H 1.21931 0.64246 0.39111
 H689 H 1.18748 0.60475 0.42199
 H690 H 1.07039 0.63911 0.34030
 H691 H 1.04202 0.59852 0.37012
 H692 H 1.13529 0.57684 0.43163
 C693 C 0.73132 0.18962 0.32299
 C694 C 0.69491 0.18512 0.32112
 C695 C 0.67595 0.20063 0.29289
 C696 C 0.69284 0.22032 0.26850
 C697 C 0.72875 0.22452 0.27115
 C698 C 0.74783 0.20881 0.29814
 C699 C 0.64033 0.19605 0.28868
 C700 C 0.62314 0.17563 0.31095
 C701 C 0.64086 0.15923 0.33902
 C702 C 0.67695 0.16509 0.34538
 C703 C 0.69381 0.15084 0.37586
 C704 C 0.67659 0.13046 0.39819
 C705 C 0.64213 0.12300 0.39075
 C706 C 0.62372 0.13718 0.36100
 C707 C 0.58921 0.12799 0.35381
 C708 C 0.57399 0.10561 0.37500
 C709 C 0.59230 0.09180 0.40433
 C710 C 0.62620 0.10093 0.41248
 H711 H 0.74800 0.17798 0.34250
 H712 H 0.67811 0.23166 0.24675
 H713 H 0.77582 0.21125 0.29986
 H714 H 0.62562 0.20805 0.26743
 H715 H 0.59563 0.17355 0.30578
 H716 H 0.72036 0.15530 0.38363
 H717 H 0.69069 0.11999 0.42115
 H718 H 0.57356 0.13693 0.33125
 H719 H 0.54775 0.09890 0.36809
 H720 H 0.64068 0.09015 0.43493
 C721 C 0.73244 0.68833 -0.16379
 C722 C 0.69609 0.68463 -0.16849
 C723 C 0.67939 0.70109 -0.19749
 C724 C 0.69837 0.72081 -0.21995
 C725 C 0.73420 0.72407 -0.21471
 C726 C 0.75108 0.70749 -0.18688
 C727 C 0.64400 0.69730 -0.20455
 C728 C 0.62490 0.67672 -0.18447
 C729 C 0.64035 0.65938 -0.15578
 C730 C 0.67607 0.66444 -0.14643
 C731 C 0.69054 0.64922 -0.11530
 C732 C 0.67138 0.62874 -0.09510
 C733 C 0.63730 0.62210 -0.10542
 C734 C 0.62126 0.63719 -0.13600
 C735 C 0.58708 0.62878 -0.14615
 C736 C 0.56985 0.60641 -0.12679
 C737 C 0.58577 0.59182 -0.09647
 C738 C 0.61937 0.60004 -0.08563
 H739 H 0.74750 0.67595 -0.14351
 H740 H 0.68538 0.73273 -0.24248
 H741 H 0.77902 0.70902 -0.18331
 H742 H 0.63101 0.71001 -0.22642
 H743 H 0.59774 0.67525 -0.19179
 H744 H 0.71662 0.65302 -0.10536
 H745 H 0.68366 0.61755 -0.07148
 H746 H 0.57325 0.63840 -0.16961
 H747 H 0.54393 0.60040 -0.13583
 H748 H 0.63203 0.58867 -0.06239
 C749 C 0.83894 -0.19388 -0.22944
 C750 C 0.83821 -0.18894 -0.19066
 C751 C 0.81342 -0.20470 -0.16912
 C752 C 0.79088 -0.22471 -0.18588
 C753 C 0.79219 -0.22918 -0.22416
 C754 C 0.81609 -0.21352 -0.24577
 C755 C 0.81075 -0.20005 -0.13107
 C756 C 0.83126 -0.17937 -0.11392
 C757 C 0.85577 -0.16257 -0.13417
 C758 C 0.86036 -0.16832 -0.17281
 C759 C 0.88688 -0.15324 -0.19226
 C760 C 0.90707 -0.13226 -0.17518
 C761 C 0.90146 -0.12509 -0.13824
 C762 C 0.87578 -0.14014 -0.11711
 C763 C 0.87052 -0.13144 -0.08005
 C764 C 0.88954 -0.10866 -0.06505
 C765 C 0.91469 -0.09382 -0.08611
 C766 C 0.92097 -0.10247 -0.12253
 H767 H 0.85610 -0.18234 -0.24818
 H768 H 0.77164 -0.23609 -0.16919
 H769 H 0.81687 -0.21627 -0.27563
 H770 H 0.79215 -0.21225 -0.11439
 H771 H 0.82743 -0.17730 -0.08445
 H772 H 0.89301 -0.15736 -0.22084
 H773 H 0.92693 -0.12112 -0.19137
 H774 H 0.85120 -0.14115 -0.06213
 H775 H 0.88418 -0.10242 -0.03679
 H776 H 0.94025 -0.09097 -0.13911
 C777 C 0.82759 0.31025 0.25714
 C778 C 0.82521 0.31554 0.29575
 C779 C 0.79983 0.29972 0.31637
 C780 C 0.77869 0.27902 0.29905
 C781 C 0.78186 0.27397 0.26104
 C782 C 0.80601 0.28995 0.24018
 C783 C 0.79529 0.30489 0.35408
 C784 C 0.81466 0.32603 0.37178
 C785 C 0.83997 0.34267 0.35252
 C786 C 0.84636 0.33647 0.31431
 C787 C 0.87383 0.35122 0.29607
 C788 C 0.89348 0.37213 0.31393
 C789 C 0.88625 0.37965 0.35041
 C790 C 0.85927 0.36519 0.37023
 C791 C 0.85221 0.37444 0.40672
 C792 C 0.87118 0.39691 0.42260
 C793 C 0.89796 0.41084 0.40299
 C794 C 0.90562 0.40190 0.36701
 H795 H 0.84514 0.32198 0.23900
 H796 H 0.75913 0.26744 0.31508
 H797 H 0.80810 0.28682 0.21048
 H798 H 0.77616 0.29269 0.37005
 H799 H 0.80950 0.32845 0.40095
 H800 H 0.88128 0.34673 0.26796
 H801 H 0.91428 0.38288 0.29875
 H802 H 0.83163 0.36534 0.42347
 H803 H 0.86466 0.40349 0.45044
 H804 H 0.92614 0.41277 0.35150
 C805 C 0.28710 -0.20236 0.34891
 C806 C 0.31896 -0.19006 0.33665
 C807 C 0.33133 -0.19838 0.30140
 C808 C 0.31225 -0.21773 0.27950
 C809 C 0.28079 -0.22955 0.29211
 C810 C 0.26839 -0.22160 0.32687
 C811 C 0.36245 -0.18706 0.28781
 C812 C 0.38162 -0.16728 0.30810
 C813 C 0.37032 -0.15779 0.34307
 C814 C 0.33856 -0.16950 0.35771
 C815 C 0.32722 -0.15995 0.39264
 C816 C 0.34560 -0.13921 0.41217
 C817 C 0.37618 -0.12722 0.39804
 C818 C 0.38940 -0.13659 0.36361
 C819 C 0.42099 -0.12398 0.35108
 C820 C 0.43782 -0.10244 0.37125
 C821 C 0.42395 -0.09272 0.40457
 C822 C 0.39338 -0.10555 0.41809
 H823 H 0.27557 -0.19738 0.37517
 H824 H 0.32167 -0.22309 0.25215
 H825 H 0.24379 -0.22989 0.33705
 H826 H 0.37206 -0.19342 0.26092
 H827 H 0.40513 -0.15958 0.29519
 H828 H 0.30388 -0.16786 0.40571
 H829 H 0.33555 -0.13230 0.43863
 H830 H 0.43340 -0.13002 0.32569
 H831 H 0.46158 -0.09305 0.36034
 H832 H 0.38258 -0.09834 0.44406
 C833 C 0.33719 0.30639 -0.23231
 C834 C 0.33252 0.31429 -0.19481
 C835 C 0.30451 0.30122 -0.17506
 C836 C 0.28264 0.28098 -0.19221
 C837 C 0.28810 0.27334 -0.22904
 C838 C 0.31519 0.28632 -0.24901
 C839 C 0.29815 0.30860 -0.13841
 C840 C 0.31834 0.32929 -0.12095
 C841 C 0.34607 0.34347 -0.13951
 C842 C 0.35400 0.33518 -0.17663
 C843 C 0.38304 0.34810 -0.19431
 C844 C 0.40270 0.36935 -0.17715
 C845 C 0.39422 0.37879 -0.14182
 C846 C 0.36596 0.36586 -0.12231
 C847 C 0.35824 0.37652 -0.08671
 C848 C 0.37714 0.39934 -0.07180
 C849 C 0.40454 0.41231 -0.09148
 C850 C 0.41346 0.40156 -0.12619
 H851 H 0.35712 0.31564 -0.24982
 H852 H 0.26089 0.27173 -0.17706
 H853 H 0.31930 0.28104 -0.27787
 H854 H 0.27701 0.29847 -0.12308
 H855 H 0.31148 0.33353 -0.09263
 H856 H 0.39149 0.34219 -0.22159
 H857 H 0.42450 0.37886 -0.19203
 H858 H 0.33723 0.36831 -0.06988
 H859 H 0.36984 0.40714 -0.04474
 H860 H 0.43464 0.41155 -0.14161
 C861 C 1.17945 -0.22165 0.19157
 C862 C 1.18545 -0.19126 0.18953
 C863 C 1.21536 -0.18055 0.20798
 C864 C 1.23629 -0.19917 0.23020
 C865 C 1.22916 -0.22907 0.23345
 C866 C 1.20133 -0.24018 0.21266
 C867 C 1.22427 -0.15122 0.20438
 C868 C 1.20438 -0.13220 0.18239
 C869 C 1.17378 -0.14157 0.16427
 C870 C 1.16321 -0.17122 0.16946
 C871 C 1.13024 -0.17952 0.15570
 C872 C 1.10849 -0.15958 0.13718
 C873 C 1.11937 -0.13102 0.13001
 C874 C 1.15276 -0.12194 0.14223
 C875 C 1.16399 -0.09368 0.13132
 C876 C 1.14238 -0.07496 0.11048
 C877 C 1.10873 -0.08344 0.10060
 C878 C 1.09722 -0.11147 0.11039
 H879 H 1.15856 -0.23178 0.17641
 H880 H 1.25833 -0.18999 0.24465
 H881 H 1.19596 -0.26331 0.21311
 H882 H 1.24710 -0.14287 0.21848
 H883 H 1.21282 -0.10984 0.18149
 H884 H 1.11991 -0.20111 0.16029
 H885 H 1.08306 -0.16674 0.12789
 H886 H 1.18973 -0.08572 0.13747
 H887 H 1.15184 -0.05351 0.10247
 H888 H 1.07140 -0.11827 0.10185
 C889 C 1.19048 0.27666 0.66324
 C890 C 1.18354 0.30573 0.67285
 C891 C 1.19795 0.31574 0.70667
 C892 C 1.22103 0.29826 0.72772
 C893 C 1.22899 0.27010 0.71682
 C894 C 1.21225 0.25896 0.68551
 C895 C 1.18914 0.34309 0.71948
 C896 C 1.16573 0.36066 0.69976
 C897 C 1.15149 0.35205 0.66537
 C898 C 1.16214 0.32493 0.65068
 C899 C 1.15227 0.31847 0.61382
 C900 C 1.13242 0.33787 0.59214
 C901 C 1.12005 0.36358 0.60701
 C902 C 1.12811 0.37033 0.64445
 C903 C 1.11208 0.39498 0.65960
 C904 C 1.09064 0.41304 0.63771
 C905 C 1.08513 0.40751 0.60003
 C906 C 1.09966 0.38269 0.58474
 H907 H 1.17829 0.26672 0.63955
 H908 H 1.23220 0.30652 0.75317
 H909 H 1.21556 0.23642 0.67841
 H910 H 1.20011 0.35086 0.74533
 H911 H 1.16054 0.38161 0.71127
 H912 H 1.16105 0.29914 0.60038
 H913 H 1.12631 0.33249 0.56358
 H914 H 1.11497 0.40044 0.68850
 H915 H 1.07909 0.43194 0.65006
 H916 H 1.09464 0.37807 0.55570
 C917 C 0.72142 -0.20453 0.66279
 C918 C 0.69639 -0.18616 0.67875
 C919 C 0.68970 -0.19011 0.71736
 C920 C 0.70865 -0.21057 0.73905
 C921 C 0.73347 -0.22817 0.72272
 C922 C 0.73966 -0.22508 0.68455
 C923 C 0.66439 -0.17346 0.73426
 C924 C 0.64522 -0.15299 0.71373
 C925 C 0.65120 -0.14781 0.67536
 C926 C 0.67794 -0.16405 0.65784
 C927 C 0.68599 -0.15708 0.62035
 C928 C 0.66847 -0.13520 0.60052
 C929 C 0.64162 -0.11985 0.61678
 C930 C 0.63198 -0.12635 0.65414
 C931 C 0.60331 -0.11114 0.66856
 C932 C 0.58601 -0.08976 0.64723
 C933 C 0.59667 -0.08264 0.61098
 C934 C 0.62437 -0.09791 0.59580
 H935 H 0.72744 -0.20377 0.63355
 H936 H 0.70415 -0.21276 0.76877
 H937 H 0.75923 -0.23811 0.67143
 H938 H 0.65922 -0.17634 0.76377
 H939 H 0.62653 -0.14089 0.72917
 H940 H 0.70655 -0.16759 0.60566
 H941 H 0.67596 -0.13034 0.57198
 H942 H 0.59319 -0.11549 0.69601
 H943 H 0.56435 -0.07850 0.65943
 H944 H 0.63239 -0.09287 0.56748
 C945 C 0.70607 0.29444 0.14903
 C946 C 0.68097 0.31211 0.16620
 C947 C 0.67652 0.30834 0.20522
 C948 C 0.69760 0.28880 0.22601
 C949 C 0.72253 0.27197 0.20851
 C950 C 0.72651 0.27482 0.16998
 C951 C 0.65139 0.32434 0.22342
 C952 C 0.63049 0.34422 0.20391
 C953 C 0.63439 0.34944 0.16522
 C954 C 0.66050 0.33350 0.14618
 C955 C 0.66601 0.34010 0.10805
 C956 C 0.64708 0.36165 0.08921
 C957 C 0.62133 0.37710 0.10719
 C958 C 0.61384 0.37076 0.14515
 C959 C 0.58617 0.38623 0.16134
 C960 C 0.56806 0.40790 0.14114
 C961 C 0.57695 0.41500 0.10432
 C962 C 0.60327 0.39919 0.08737
 H963 H 0.71062 0.29516 0.11948
 H964 H 0.69476 0.28680 0.25600
 H965 H 0.74605 0.26238 0.15593
 H966 H 0.64785 0.32151 0.25322
 H967 H 0.61212 0.35586 0.22032
 H968 H 0.68560 0.32957 0.09200
 H969 H 0.65278 0.36632 0.06014
 H970 H 0.57769 0.38206 0.18948
 H971 H 0.54749 0.41958 0.15470
 H972 H 0.60989 0.40417 0.05860
 C973 C 0.77559 0.18472 0.16223
 C974 C 0.81196 0.18051 0.16599
 C975 C 0.83007 0.19762 0.19220
 C976 C 0.81246 0.21865 0.21257
 C977 C 0.77664 0.22262 0.20796
 C978 C 0.75833 0.20526 0.18319
 C979 C 0.86555 0.19334 0.19843
 C980 C 0.88346 0.17188 0.18002
 C981 C 0.86667 0.15411 0.15385
 C982 C 0.83070 0.15938 0.14553
 C983 C 0.81475 0.14358 0.11680
 C984 C 0.83277 0.12249 0.09790
 C985 C 0.86717 0.11586 0.10720
 C986 C 0.88466 0.13138 0.13545
 C987 C 0.91922 0.12296 0.14460
 C988 C 0.93547 0.10027 0.12638
 C989 C 0.91810 0.08534 0.09827
 C990 C 0.88404 0.09345 0.08860
 H991 H 0.75948 0.17189 0.14424
 H992 H 0.82655 0.23128 0.23281
 H993 H 0.73040 0.20746 0.18018
 H994 H 0.87959 0.20647 0.21823
 H995 H 0.91079 0.17012 0.18650
 H996 H 0.78836 0.14740 0.10765
 H997 H 0.81939 0.11093 0.07606
 H998 H 0.93417 0.13293 0.16635
 H999 H 0.96178 0.09433 0.13447
 H1000 H 0.87027 0.08183 0.06707
 C1001 C 0.77732 0.68355 0.67521
 C1002 C 0.81379 0.67928 0.67554
 C1003 C 0.83394 0.69537 0.70117
 C1004 C 0.81816 0.71575 0.72406
 C1005 C 0.78225 0.72010 0.72241
 C1006 C 0.76195 0.70353 0.69848
 C1007 C 0.86971 0.69091 0.70402
 C1008 C 0.88597 0.67027 0.68270
 C1009 C 0.86711 0.65359 0.65689
 C1010 C 0.83073 0.65915 0.65204
 C1011 C 0.81260 0.64470 0.62355
 C1012 C 0.82896 0.62446 0.60172
 C1013 C 0.86379 0.61733 0.60780
 C1014 C 0.88342 0.63164 0.63558
 C1015 C 0.91831 0.62273 0.64152
 C1016 C 0.93276 0.60052 0.62096
 C1017 C 0.91323 0.58666 0.59354
 C1018 C 0.87892 0.59549 0.58666
 H1019 H 0.75983 0.67134 0.65798
 H1020 H 0.83384 0.72786 0.74350
 H1021 H 0.73397 0.70620 0.69760
 H1022 H 0.88529 0.70328 0.72333
 H1023 H 0.91367 0.66834 0.68660
 H1024 H 0.78570 0.64898 0.61685
 H1025 H 0.81394 0.61386 0.58025
 H1026 H 0.93487 0.63177 0.66265
 H1027 H 0.95936 0.59399 0.62684
 H1028 H 0.86353 0.58462 0.56570
 C1029 C 0.33462 0.18667 0.72770
 C1030 C 0.33459 0.18331 0.68866
 C1031 C 0.31092 0.20040 0.66689
 C1032 C 0.28911 0.22058 0.68381
 C1033 C 0.28875 0.22274 0.72258
 C1034 C 0.31204 0.20603 0.74416
 C1035 C 0.30877 0.19695 0.62845
 C1036 C 0.32833 0.17583 0.61129
 C1037 C 0.35183 0.15795 0.63188
 C1038 C 0.35654 0.16305 0.67073
 C1039 C 0.38319 0.14790 0.69033
 C1040 C 0.40316 0.12716 0.67321
 C1041 C 0.39686 0.12016 0.63624
 C1042 C 0.37100 0.13526 0.61496
 C1043 C 0.36468 0.12626 0.57805
 C1044 C 0.38327 0.10326 0.56322
 C1045 C 0.40896 0.08881 0.58442
 C1046 C 0.41595 0.09765 0.62070
 H1047 H 0.35094 0.17401 0.74651
 H1048 H 0.27253 0.23438 0.66657
 H1049 H 0.31298 0.20787 0.77410
 H1050 H 0.29106 0.21018 0.61155
 H1051 H 0.32500 0.17442 0.58155
 H1052 H 0.38982 0.15200 0.71894
 H1053 H 0.42327 0.11599 0.68941
 H1054 H 0.34476 0.13586 0.56037
 H1055 H 0.37734 0.09666 0.53511
 H1056 H 0.43560 0.08634 0.63741
 C1057 C 0.33595 0.69623 0.23402
 C1058 C 0.32753 0.68736 0.19756
 C1059 C 0.29672 0.69881 0.18084
 C1060 C 0.27532 0.71797 0.20023
 C1061 C 0.28372 0.72594 0.23664
 C1062 C 0.31439 0.71501 0.25304
 C1063 C 0.28707 0.69077 0.14502
 C1064 C 0.30678 0.67106 0.12558
 C1065 C 0.33730 0.65849 0.14118
 C1066 C 0.34823 0.66723 0.17749
 C1067 C 0.37931 0.65533 0.19266
 C1068 C 0.39848 0.63499 0.17374
 C1069 C 0.38764 0.62554 0.13896
 C1070 C 0.35710 0.63726 0.12189
 C1071 C 0.34746 0.62676 0.08647
 C1072 C 0.36690 0.60527 0.06941
 C1073 C 0.39663 0.59352 0.08680
 C1074 C 0.40709 0.60406 0.12139
 H1075 H 0.35874 0.68881 0.24906
 H1076 H 0.25186 0.72612 0.18686
 H1077 H 0.32202 0.72087 0.28096
 H1078 H 0.26368 0.69959 0.13195
 H1079 H 0.29719 0.66609 0.09821
 H1080 H 0.38970 0.66119 0.21937
 H1081 H 0.42195 0.62631 0.18677
 H1082 H 0.32478 0.63430 0.07130
 H1083 H 0.35828 0.59759 0.04257
 H1084 H 0.43014 0.59515 0.13506
   
