data_POSCAR
  _audit_creation_date              2014-09-24
  _audit_creation_method            'ToBaCCo'
  _symmetry_space_group_name_H-M    'P1'
  _symmetry_Int_Tables_number       1
  _symmetry_cell_setting            triclinic
  loop_
  _symmetry_equiv_pos_as_xyz
 x,y,z
_cell_length_a 48.9136
_cell_length_b 47.2577
_cell_length_c 40.1781
_cell_angle_alpha 90.121500
_cell_angle_beta 90.010900
_cell_angle_gamma 89.987600
loop_
  _atom_site_label
  _atom_site_type_symbol
  _atom_site_fract_x
  _atom_site_fract_y
  _atom_site_fract_z
C1 C 0.29215 0.28822 0.23606
 H2 H 0.29349 0.28893 0.26293
 C3 C 0.30941 0.30508 0.21684
 H4 H 0.32397 0.31876 0.22924
 C5 C 0.27139 0.26941 0.18755
 H6 H 0.25676 0.25527 0.17620
 C7 C 0.28826 0.28592 0.16735
 H8 H 0.28617 0.28442 0.14058
 N9 N 0.27327 0.27124 0.22127
 C10 C 0.20884 0.26260 0.29575
 H11 H 0.20749 0.23982 0.29781
 C12 C 0.19169 0.27982 0.31487
 H13 H 0.17725 0.27004 0.33171
 C14 C 0.22922 0.30284 0.27096
 H15 H 0.24355 0.31178 0.25349
 C16 C 0.21248 0.32082 0.28953
 H17 H 0.21445 0.34346 0.28626
 Zn18 Zn 0.25026 0.24987 0.24961
 N19 N 0.22745 0.27430 0.27473
 C20 C 0.27140 0.23031 0.31164
 N21 N 0.27322 0.22842 0.27793
 C22 C 0.29202 0.21134 0.26314
 C23 C 0.30926 0.19444 0.28237
 C24 C 0.28825 0.21376 0.33186
 C25 C 0.20875 0.23730 0.20351
 C26 C 0.19150 0.22015 0.18444
 C27 C 0.21216 0.17907 0.20980
 C28 C 0.22901 0.19699 0.22831
 N29 N 0.22734 0.22553 0.22451
 H30 H 0.25684 0.24453 0.32299
 H31 H 0.29333 0.21059 0.23627
 H32 H 0.32376 0.18068 0.26998
 H33 H 0.28619 0.21532 0.35863
 H34 H 0.20748 0.26009 0.20142
 H35 H 0.17707 0.22997 0.16761
 H36 H 0.21405 0.15642 0.21310
 H37 H 0.24332 0.18800 0.24578
 C38 C 0.19351 0.30939 0.31205
 C39 C 0.30742 0.30430 0.18197
 C40 C 0.19320 0.19057 0.18730
 C41 C 0.30732 0.19529 0.31725
 C42 C 0.79272 0.78898 0.23575
 H43 H 0.79409 0.78968 0.26262
 C44 C 0.80985 0.80599 0.21653
 H45 H 0.82429 0.81969 0.22911
 C46 C 0.77204 0.77005 0.18730
 H47 H 0.75750 0.75580 0.17598
 C48 C 0.78876 0.78668 0.16705
 H49 H 0.78651 0.78503 0.14030
 N50 N 0.77393 0.77189 0.22100
 C51 C 0.70947 0.76306 0.29541
 H52 H 0.70818 0.74027 0.29748
 C53 C 0.69226 0.78023 0.31450
 H54 H 0.67782 0.77042 0.33133
 C55 C 0.72976 0.80335 0.27064
 H56 H 0.74409 0.81234 0.25319
 C57 C 0.71295 0.82129 0.28918
 H58 H 0.71487 0.84393 0.28591
 Zn59 Zn 0.75098 0.75044 0.24934
 N60 N 0.72807 0.77481 0.27442
 C61 C 0.77204 0.73091 0.31143
 N62 N 0.77397 0.72906 0.27772
 C63 C 0.79282 0.71199 0.26300
 C64 C 0.80997 0.69504 0.28229
 C65 C 0.78879 0.71431 0.33170
 C66 C 0.70953 0.73771 0.20322
 C67 C 0.69235 0.72048 0.18415
 C68 C 0.71312 0.67949 0.20957
 C69 C 0.72990 0.69748 0.22807
 N70 N 0.72815 0.72601 0.22424
 H71 H 0.75745 0.74512 0.32273
 H72 H 0.79421 0.71127 0.23614
 H73 H 0.82448 0.68127 0.26995
 H74 H 0.78664 0.71582 0.35846
 H75 H 0.70819 0.76049 0.20111
 H76 H 0.67789 0.73024 0.16730
 H77 H 0.71509 0.65685 0.21289
 H78 H 0.74424 0.68854 0.24556
 C79 C 0.69400 0.80981 0.31168
 C80 C 0.80785 0.80532 0.18156
 C81 C 0.69414 0.69091 0.18704
 C82 C 0.80789 0.69582 0.31716
 C83 C 0.79299 0.28773 0.73713
 H84 H 0.79439 0.28843 0.76400
 C85 C 0.81013 0.30468 0.71786
 H86 H 0.82466 0.31843 0.73021
 C87 C 0.77219 0.26886 0.68868
 H88 H 0.75759 0.25466 0.67737
 C89 C 0.78894 0.28546 0.66843
 H90 H 0.78677 0.28397 0.64167
 N91 N 0.77413 0.27068 0.72239
 C92 C 0.70971 0.26203 0.79690
 H93 H 0.70838 0.23925 0.79899
 C94 C 0.69253 0.27926 0.81596
 H95 H 0.67808 0.26949 0.83280
 C96 C 0.73008 0.30225 0.77207
 H97 H 0.74442 0.31120 0.75459
 C98 C 0.71331 0.32025 0.79058
 H99 H 0.71527 0.34288 0.78727
 Zn100 Zn 0.75115 0.24929 0.75076
 N101 N 0.72833 0.27373 0.77588
 C102 C 0.77224 0.22963 0.81276
 N103 N 0.77410 0.22781 0.77908
 C104 C 0.79288 0.21073 0.76431
 C105 C 0.81002 0.19369 0.78349
 C106 C 0.78895 0.21297 0.83301
 C107 C 0.70961 0.23675 0.70469
 C108 C 0.69238 0.21960 0.68558
 C109 C 0.71308 0.17851 0.71087
 C110 C 0.72991 0.19642 0.72941
 N111 N 0.72822 0.22496 0.72566
 H112 H 0.75771 0.24389 0.82410
 H113 H 0.79424 0.21006 0.73744
 H114 H 0.82441 0.18004 0.77072
 H115 H 0.78661 0.21473 0.85974
 H116 H 0.70833 0.25953 0.70264
 H117 H 0.67795 0.22943 0.66877
 H118 H 0.71499 0.15586 0.71411
 H119 H 0.74424 0.18741 0.74686
 C120 C 0.69432 0.30883 0.81309
 C121 C 0.80804 0.30393 0.68299
 C122 C 0.69412 0.19002 0.68838
 C123 C 0.80808 0.19425 0.81854
 C124 C 0.29213 0.78862 0.73671
 H125 H 0.29345 0.78936 0.76358
 C126 C 0.30937 0.80551 0.71749
 H127 H 0.32388 0.81925 0.72988
 C128 C 0.27148 0.76968 0.68821
 H129 H 0.25691 0.75547 0.67686
 C130 C 0.28833 0.78621 0.66800
 H131 H 0.28627 0.78466 0.64123
 N132 N 0.27332 0.77156 0.72192
 C133 C 0.20885 0.76277 0.79633
 H134 H 0.20757 0.73999 0.79845
 C135 C 0.19161 0.77996 0.81537
 H136 H 0.17717 0.77017 0.83220
 C137 C 0.22912 0.80304 0.77149
 H138 H 0.24344 0.81202 0.75402
 C139 C 0.21228 0.82100 0.78996
 H140 H 0.21418 0.84364 0.78664
 Zn141 Zn 0.25035 0.75014 0.75025
 N142 N 0.22744 0.77451 0.77532
 C143 C 0.27148 0.73058 0.81232
 N144 N 0.27335 0.72876 0.77860
 C145 C 0.29223 0.71176 0.76381
 C146 C 0.30949 0.69489 0.78304
 C147 C 0.28835 0.71405 0.83253
 C148 C 0.20892 0.73741 0.70410
 C149 C 0.19176 0.72019 0.68500
 C150 C 0.21253 0.67919 0.71040
 C151 C 0.22929 0.69718 0.72895
 N152 N 0.22752 0.72571 0.72514
 H153 H 0.25685 0.74473 0.82366
 H154 H 0.29357 0.71106 0.73695
 H155 H 0.32405 0.68120 0.77064
 H156 H 0.28625 0.71555 0.85930
 H157 H 0.20758 0.76019 0.70201
 H158 H 0.17731 0.72996 0.66814
 H159 H 0.21450 0.65655 0.71370
 H160 H 0.24362 0.68823 0.74644
 C161 C 0.19332 0.80954 0.81247
 C162 C 0.30742 0.80467 0.68261
 C163 C 0.19356 0.69062 0.68787
 C164 C 0.30750 0.69567 0.81791
 C165 C -0.03103 -0.02172 0.01534
 C166 C -0.01669 0.00017 -0.00035
 C167 C -0.03106 0.02205 -0.01603
 C168 C -0.05979 0.02207 -0.01659
 C169 C -0.07393 0.00015 -0.00034
 C170 C -0.05976 -0.02176 0.01590
 C171 C 0.01344 0.00018 -0.00035
 C172 C 0.02780 -0.02124 -0.01703
 C173 C 0.05652 -0.02125 -0.01755
 C174 C 0.07066 0.00018 -0.00032
 C175 C 0.05651 0.02160 0.01689
 C176 C 0.02778 0.02160 0.01634
 H177 H -0.01965 -0.03842 0.02754
 H178 H -0.01971 0.03876 -0.02823
 H179 H 0.01645 -0.03758 -0.02998
 H180 H 0.01642 0.03793 0.02929
 H181 H -0.09607 0.00014 -0.00034
 H182 H 0.09279 0.00017 -0.00031
 C183 C -0.03025 0.47803 0.51580
 C184 C -0.01592 0.49992 0.50012
 C185 C -0.03028 0.52181 0.48444
 C186 C -0.05901 0.52183 0.48388
 C187 C -0.07316 0.49991 0.50013
 C188 C -0.05898 0.47800 0.51637
 C189 C 0.01421 0.49993 0.50011
 C190 C 0.02857 0.47854 0.48339
 C191 C 0.05729 0.47854 0.48282
 C192 C 0.07144 0.49995 0.50007
 C193 C 0.05729 0.52135 0.51734
 C194 C 0.02856 0.52133 0.51682
 H195 H -0.01887 0.46133 0.52800
 H196 H -0.01892 0.53851 0.47224
 H197 H 0.01721 0.46221 0.47041
 H198 H 0.01720 0.53765 0.52981
 H199 H -0.09529 0.49990 0.50013
 H200 H 0.09357 0.49996 0.50006
 C201 C 0.47004 -0.02188 0.51569
 C202 C 0.48439 0.00000 0.50000
 C203 C 0.47003 0.02189 0.48431
 C204 C 0.44130 0.02191 0.48374
 C205 C 0.42715 -0.00000 0.49998
 C206 C 0.44131 -0.02191 0.51623
 C207 C 0.51451 0.00000 0.50000
 C208 C 0.52886 -0.02136 0.48321
 C209 C 0.55759 -0.02137 0.48267
 C210 C 0.57174 -0.00001 0.50000
 C211 C 0.55759 0.02136 0.51733
 C212 C 0.52887 0.02135 0.51679
 H213 H 0.48141 -0.03858 0.52789
 H214 H 0.48139 0.03859 0.47211
 H215 H 0.51751 -0.03765 0.47017
 H216 H 0.51751 0.03765 0.52983
 H217 H 0.40502 -0.00000 0.49998
 H218 H 0.59387 -0.00001 0.50000
 C219 C 0.47017 0.47793 0.01549
 C220 C 0.48452 0.49987 -0.00007
 C221 C 0.47017 0.52183 -0.01564
 C222 C 0.44144 0.52186 -0.01620
 C223 C 0.42729 0.49989 -0.00009
 C224 C 0.44144 0.47791 0.01604
 C225 C 0.51466 0.49987 -0.00005
 C226 C 0.52902 0.47840 -0.01663
 C227 C 0.55775 0.47838 -0.01715
 C228 C 0.57188 0.49986 -0.00001
 C229 C 0.55773 0.52135 0.01712
 C230 C 0.52900 0.52134 0.01655
 H231 H 0.48153 0.46117 0.02761
 H232 H 0.48154 0.53858 -0.02774
 H233 H 0.51767 0.46202 -0.02952
 H234 H 0.51764 0.53772 0.02943
 H235 H 0.40515 0.49990 -0.00009
 H236 H 0.59401 0.49986 0.00001
 N237 N 0.16200 -0.12603 -0.15172
 C238 C 0.14412 -0.13694 -0.12943
 N239 N 0.14215 -0.16542 -0.12627
 N240 N 0.15765 -0.18246 -0.14484
 C241 C 0.17568 -0.17163 -0.16721
 N242 N 0.17748 -0.14306 -0.17026
 C243 C 0.12791 -0.11841 -0.10911
 C244 C 0.11481 -0.10223 -0.09222
 C245 C 0.09984 -0.08228 -0.07235
 N246 N 0.07213 -0.08257 -0.07190
 N247 N 0.05835 -0.06338 -0.05424
 C248 C 0.07178 -0.04320 -0.03643
 N249 N 0.09956 -0.04313 -0.03695
 N250 N 0.11334 -0.06230 -0.05458
 N251 N 0.14256 0.33450 0.37353
 C252 C 0.14464 0.36298 0.37047
 N253 N 0.16253 0.37387 0.34818
 N254 N 0.17790 0.35682 0.32954
 C255 C 0.17599 0.32824 0.33248
 N256 N 0.15795 0.31744 0.35486
 C257 C 0.12852 0.38152 0.39089
 C258 C 0.11548 0.39769 0.40785
 C259 C 0.10054 0.41761 0.42779
 N260 N 0.11406 0.43759 0.44555
 N261 N 0.10032 0.45672 0.46326
 C262 C 0.07253 0.45663 0.46387
 N263 N 0.05908 0.43645 0.44608
 N264 N 0.07284 0.41730 0.42834
 N265 N 0.64298 -0.16522 0.37316
 C266 C 0.64499 -0.13673 0.37009
 N267 N 0.66284 -0.12580 0.34780
 N268 N 0.67826 -0.14280 0.32915
 C269 C 0.67642 -0.17139 0.33210
 N270 N 0.65842 -0.18224 0.35448
 C271 C 0.62885 -0.11823 0.39053
 C272 C 0.61578 -0.10210 0.40751
 C273 C 0.60084 -0.08221 0.42750
 N274 N 0.61436 -0.06228 0.44533
 N275 N 0.60061 -0.04317 0.46308
 C276 C 0.57283 -0.04324 0.46366
 N277 N 0.55938 -0.06337 0.44578
 N278 N 0.57314 -0.08250 0.42801
 N279 N 0.64323 0.33399 -0.12563
 C280 C 0.64527 0.36247 -0.12877
 N281 N 0.66319 0.37333 -0.15104
 N282 N 0.67863 0.35627 -0.16959
 C283 C 0.67675 0.32770 -0.16656
 N284 N 0.65868 0.31691 -0.14420
 C285 C 0.62910 0.38103 -0.10845
 C286 C 0.61601 0.39724 -0.09158
 C287 C 0.60105 0.41722 -0.07176
 N288 N 0.61455 0.43725 -0.05407
 N289 N 0.60079 0.45646 -0.03649
 C290 C 0.57300 0.45639 -0.03595
 N291 N 0.55957 0.43616 -0.05368
 N292 N 0.57334 0.41693 -0.07129
 N293 N -0.14313 0.14139 -0.15786
 C294 C -0.14563 0.14164 -0.12430
 N295 N -0.16346 0.15988 -0.10992
 N296 N -0.17841 0.17728 -0.12859
 C297 C -0.17620 0.17710 -0.16239
 N298 N -0.15808 0.15878 -0.17651
 C299 C -0.13025 0.12213 -0.10437
 C300 C -0.11759 0.10528 -0.08797
 C301 C -0.10283 0.08470 -0.06887
 N302 N -0.11644 0.06411 -0.05233
 N303 N -0.10277 0.04441 -0.03546
 C304 C -0.07499 0.04455 -0.03453
 N305 N -0.06147 0.06535 -0.05110
 N306 N -0.07513 0.08505 -0.06798
 N307 N -0.14190 0.64146 0.34256
 C308 C -0.14464 0.64152 0.37612
 N309 N -0.16263 0.65963 0.39046
 N310 N -0.17750 0.67710 0.37177
 C311 C -0.17493 0.67708 0.33807
 N312 N -0.15676 0.65892 0.32389
 C313 C -0.12934 0.62196 0.39605
 C314 C -0.11673 0.60508 0.41246
 C315 C -0.10199 0.58448 0.43157
 N316 N -0.07430 0.58483 0.43251
 N317 N -0.06066 0.56512 0.44940
 C318 C -0.07419 0.54431 0.46593
 N319 N -0.10198 0.54417 0.46494
 N320 N -0.11562 0.56387 0.44807
 N321 N 0.35787 0.14122 0.34250
 C322 C 0.35530 0.14136 0.37607
 N323 N 0.33729 0.15942 0.39047
 N324 N 0.32227 0.17678 0.37182
 C325 C 0.32467 0.17667 0.33811
 N326 N 0.34285 0.15856 0.32387
 C327 C 0.37075 0.12189 0.39597
 C328 C 0.38345 0.10508 0.41236
 C329 C 0.39824 0.08452 0.43146
 N330 N 0.38464 0.06394 0.44805
 N331 N 0.39832 0.04426 0.46492
 C332 C 0.42610 0.04439 0.46579
 N333 N 0.43961 0.06516 0.44917
 N334 N 0.42594 0.08486 0.43229
 N335 N 0.35813 0.64166 -0.15690
 C336 C 0.35548 0.64169 -0.12334
 N337 N 0.33740 0.65966 -0.10892
 N338 N 0.32238 0.67703 -0.12754
 C339 C 0.32485 0.67704 -0.16125
 N340 N 0.34311 0.65902 -0.17551
 C341 C 0.37092 0.62218 -0.10348
 C342 C 0.38362 0.60532 -0.08715
 C343 C 0.39840 0.58469 -0.06814
 N344 N 0.38479 0.56406 -0.05165
 N345 N 0.39847 0.54431 -0.03490
 C346 C 0.42625 0.54442 -0.03402
 N347 N 0.43977 0.56525 -0.05053
 N348 N 0.42610 0.58502 -0.06730
 N349 N -0.14284 -0.14116 0.15723
 C350 C -0.14538 -0.14140 0.12366
 N351 N -0.16322 -0.15964 0.10929
 N352 N -0.17814 -0.17706 0.12797
 C353 C -0.17583 -0.17688 0.16173
 N354 N -0.15775 -0.15857 0.17589
 C355 C -0.13005 -0.12187 0.10372
 C356 C -0.11743 -0.10501 0.08732
 C357 C -0.10270 -0.08442 0.06820
 N358 N -0.11634 -0.06383 0.05167
 N359 N -0.10271 -0.04413 0.03480
 C360 C -0.07492 -0.04425 0.03385
 N361 N -0.06137 -0.06504 0.05041
 N362 N -0.07500 -0.08476 0.06730
 N363 N -0.14175 0.35828 0.65763
 C364 C -0.14450 0.35824 0.62408
 N365 N -0.16250 0.34015 0.60972
 N366 N -0.17736 0.32268 0.62840
 C367 C -0.17478 0.32267 0.66209
 N368 N -0.15661 0.34081 0.67629
 C369 C -0.12921 0.37782 0.60416
 C370 C -0.11661 0.39471 0.58776
 C371 C -0.10190 0.41532 0.56866
 N372 N -0.11555 0.43592 0.55216
 N373 N -0.10193 0.45563 0.53530
 C374 C -0.07414 0.45550 0.53432
 N375 N -0.06058 0.43470 0.55085
 N376 N -0.07421 0.41498 0.56773
 N377 N 0.33735 -0.15945 0.60940
 C378 C 0.35537 -0.14141 0.62381
 N379 N 0.35796 -0.14128 0.65738
 N380 N 0.34295 -0.15863 0.67600
 C381 C 0.32476 -0.17672 0.66176
 N382 N 0.32234 -0.17680 0.62804
 C383 C 0.37081 -0.12193 0.60392
 C384 C 0.38350 -0.10511 0.58755
 C385 C 0.39828 -0.08454 0.56846
 N386 N 0.42598 -0.08487 0.56765
 N387 N 0.43964 -0.06517 0.55079
 C388 C 0.42612 -0.04439 0.53416
 N389 N 0.39834 -0.04428 0.53502
 N390 N 0.38467 -0.06397 0.55187
 N391 N 0.35808 0.35825 0.15678
 C392 C 0.35544 0.35821 0.12322
 N393 N 0.33735 0.34024 0.10880
 N394 N 0.32232 0.32289 0.12742
 C395 C 0.32479 0.32290 0.16113
 N396 N 0.34305 0.34091 0.17539
 C397 C 0.37088 0.37769 0.10336
 C398 C 0.38359 0.39453 0.08702
 C399 C 0.39837 0.41513 0.06800
 N400 N 0.38478 0.43577 0.05149
 N401 N 0.39846 0.45550 0.03472
 C402 C 0.42624 0.45537 0.03386
 N403 N 0.43975 0.43454 0.05039
 N404 N 0.42607 0.41479 0.06717
 N405 N 0.14207 0.16563 0.12593
 C406 C 0.14403 0.13714 0.12906
 N407 N 0.16189 0.12619 0.15135
 N408 N 0.17737 0.14319 0.16993
 C409 C 0.17557 0.17177 0.16693
 N410 N 0.15756 0.18264 0.14455
 C411 C 0.12783 0.11864 0.10868
 C412 C 0.11474 0.10250 0.09174
 C413 C 0.09978 0.08258 0.07182
 N414 N 0.11329 0.06261 0.05403
 N415 N 0.09954 0.04346 0.03636
 C416 C 0.07175 0.04353 0.03581
 N417 N 0.05831 0.06370 0.05363
 N418 N 0.07208 0.08287 0.07133
 N419 N 0.16254 0.62613 0.65183
 C420 C 0.14465 0.63701 0.62952
 N421 N 0.14259 0.66548 0.62641
 N422 N 0.15800 0.68255 0.64506
 C423 C 0.17603 0.67176 0.66746
 N424 N 0.17793 0.64318 0.67045
 C425 C 0.12853 0.61845 0.60913
 C426 C 0.11548 0.60228 0.59219
 C427 C 0.10054 0.58234 0.57228
 N428 N 0.07283 0.58262 0.57178
 N429 N 0.05908 0.56345 0.55407
 C430 C 0.07252 0.54328 0.53627
 N431 N 0.10031 0.54321 0.53683
 N432 N 0.11406 0.56236 0.55451
 N433 N 0.66291 0.12567 0.65223
 C434 C 0.64505 0.13663 0.62995
 N435 N 0.64305 0.16512 0.62690
 N436 N 0.65851 0.18212 0.64558
 C437 C 0.67652 0.17124 0.66795
 N438 N 0.67835 0.14265 0.67088
 C439 C 0.62889 0.11815 0.60950
 C440 C 0.61582 0.10204 0.59251
 C441 C 0.60087 0.08216 0.57252
 N442 N 0.57316 0.08246 0.57202
 N443 N 0.55940 0.06335 0.55423
 C444 C 0.57284 0.04322 0.53635
 N445 N 0.60062 0.04314 0.53691
 N446 N 0.61438 0.06224 0.55467
 N447 N 0.64308 0.66574 0.12571
 C448 C 0.64514 0.63726 0.12886
 N449 N 0.66304 0.62640 0.15116
 N450 N 0.67846 0.64346 0.16972
 C451 C 0.67658 0.67204 0.16669
 N452 N 0.65852 0.68282 0.14430
 C453 C 0.62898 0.61869 0.10853
 C454 C 0.61592 0.60249 0.09164
 C455 C 0.60097 0.58250 0.07179
 N456 N 0.61450 0.56247 0.05412
 N457 N 0.60075 0.54326 0.03652
 C458 C 0.57296 0.54334 0.03594
 N459 N 0.55951 0.56357 0.05364
 N460 N 0.57327 0.58280 0.07127
   
