data_POSCAR
  _audit_creation_date              2014-09-24
  _audit_creation_method            'ToBaCCo'
  _symmetry_space_group_name_H-M    'P1'
  _symmetry_Int_Tables_number       1
  _symmetry_cell_setting            triclinic
  loop_
  _symmetry_equiv_pos_as_xyz
 x,y,z
_cell_length_a 39.4308
_cell_length_b 11.1037
_cell_length_c 14.1859
_cell_angle_alpha 107.681100
_cell_angle_beta 89.324500
_cell_angle_gamma 88.026600
loop_
  _atom_site_label
  _atom_site_type_symbol
  _atom_site_fract_x
  _atom_site_fract_y
  _atom_site_fract_z
C1 C 0.85375 0.29082 0.44094
 C2 C 0.85577 0.24793 0.52150
 C3 C 0.82305 0.25378 0.55977
 N4 N 0.80127 0.30104 0.50569
 C5 C 0.81996 0.32469 0.43298
 C6 C 0.81395 0.23626 0.65125
 C7 C 0.78021 0.21283 0.67391
 C8 C 0.76769 0.22031 0.76742
 C9 C 0.73488 0.18157 0.75639
 C10 C 0.72837 0.14738 0.65594
 N11 N 0.75625 0.16651 0.60624
 C12 C 0.69716 0.10317 0.61213
 C13 C 0.68941 0.10649 0.51580
 C14 C 0.66440 0.03806 0.45730
 C15 C 0.66216 0.07940 0.37599
 C16 C 0.68626 0.17014 0.38661
 N17 N 0.70295 0.18669 0.47203
 C18 C 0.69112 0.24131 0.32095
 C19 C 0.71945 0.31597 0.32373
 C20 C 0.72238 0.40607 0.27496
 C21 C 0.75500 0.44750 0.28867
 C22 C 0.77125 0.37928 0.34355
 N23 N 0.74914 0.30103 0.36590
 C24 C 0.80648 0.37789 0.36121
 H25 H 0.87501 0.29113 0.39244
 H26 H 0.87895 0.21524 0.54701
 H27 H 0.75510 0.22872 0.39602
 H28 H 0.78067 0.25022 0.83690
 H29 H 0.71780 0.18209 0.81664
 H30 H 0.64922 -0.03393 0.47199
 H31 H 0.64496 0.04556 0.31555
 H32 H 0.76579 0.51684 0.25870
 H33 H 0.75975 0.14002 0.52959
 H34 H 0.70323 0.43720 0.23253
 C35 C 0.34970 0.76931 0.57509
 C36 C 0.34945 0.81081 0.49366
 C37 C 0.31673 0.79975 0.45891
 N38 N 0.29675 0.75560 0.51807
 C39 C 0.31684 0.73682 0.58953
 C40 C 0.30691 0.81406 0.36723
 C41 C 0.27250 0.82396 0.34239
 C42 C 0.26102 0.81285 0.24814
 C43 C 0.22631 0.83086 0.25593
 C44 C 0.21744 0.85135 0.35448
 N45 N 0.24572 0.84802 0.40688
 C46 C 0.18415 0.87821 0.39500
 C47 C 0.17578 0.86661 0.48856
 C48 C 0.14840 0.92762 0.54739
 C49 C 0.14870 0.88751 0.62973
 C50 C 0.17554 0.79909 0.61667
 N51 N 0.19255 0.78873 0.53096
 C52 C 0.18368 0.72584 0.68060
 C53 C 0.21679 0.67207 0.67971
 C54 C 0.22554 0.57446 0.71788
 C55 C 0.26025 0.56372 0.71580
 C56 C 0.27202 0.65062 0.67144
 N57 N 0.24519 0.71593 0.64950
 C58 C 0.30661 0.67352 0.65740
 H59 H 0.37208 0.76182 0.61604
 H60 H 0.37126 0.84262 0.46228
 H61 H 0.24619 0.79509 0.62504
 H62 H 0.27585 0.79235 0.18015
 H63 H 0.20956 0.82767 0.19547
 H64 H 0.13068 0.99660 0.53367
 H65 H 0.13149 0.92251 0.69286
 H66 H 0.27451 0.49995 0.74610
 H67 H 0.24679 0.87159 0.48363
 H68 H 0.20885 0.51798 0.74666
 C69 C 0.15854 0.37692 -0.39594
 C70 C 0.15867 0.40928 -0.48167
 C71 C 0.18277 0.32980 -0.54458
 N72 N 0.19804 0.25216 -0.49922
 C73 C 0.18289 0.27985 -0.40870
 C74 C 0.18932 0.32402 -0.64415
 C75 C 0.22034 0.27000 -0.69179
 C76 C 0.22543 0.21492 -0.79302
 C77 C 0.25937 0.18123 -0.80823
 C78 C 0.27399 0.21639 -0.71594
 N79 N 0.24989 0.26709 -0.64505
 C80 C 0.30908 0.21058 -0.69856
 C81 C 0.32046 0.20213 -0.60655
 C82 C 0.35198 0.23583 -0.56771
 C83 C 0.35330 0.20686 -0.48116
 C84 C 0.32202 0.16103 -0.46684
 N85 N 0.30183 0.15843 -0.54395
 C86 C 0.31210 0.12261 -0.38438
 C87 C 0.27751 0.11140 -0.36259
 C88 C 0.26553 0.04205 -0.30381
 C89 C 0.23118 0.06914 -0.29028
 C90 C 0.22317 0.15625 -0.33982
 N91 N 0.25149 0.17929 -0.38558
 C92 C 0.19095 0.21819 -0.33763
 H93 H 0.14315 0.42299 -0.33040
 H94 H 0.14320 0.48439 -0.49536
 H95 H 0.25382 0.24941 -0.41996
 H96 H 0.20665 0.19886 -0.85006
 H97 H 0.27190 0.13611 -0.87915
 H98 H 0.37171 0.28173 -0.59587
 H99 H 0.37476 0.22443 -0.43352
 H100 H 0.21418 0.02983 -0.24789
 H101 H 0.25404 0.31006 -0.56997
 H102 H 0.28013 -0.02055 -0.27288
 C103 C -0.15077 0.83675 -0.42119
 C104 C -0.15098 0.85720 -0.51116
 C105 C -0.18350 0.83468 -0.54768
 N106 N -0.20321 0.80340 -0.48026
 C107 C -0.18314 0.80319 -0.40331
 C108 C -0.19561 0.86223 -0.63362
 C109 C -0.23035 0.85242 -0.66134
 C110 C -0.24478 0.90111 -0.73185
 C111 C -0.27797 0.86956 -0.73924
 C112 C -0.28308 0.79502 -0.67824
 N113 N -0.25403 0.78629 -0.62991
 C114 C -0.31357 0.73305 -0.67169
 C115 C -0.31974 0.68122 -0.59356
 C116 C -0.34215 0.58645 -0.59758
 C117 C -0.34158 0.56522 -0.50777
 C118 C -0.31885 0.64790 -0.45110
 N119 N -0.30501 0.71776 -0.50406
 C120 C -0.31162 0.65882 -0.35152
 C121 C -0.28081 0.70854 -0.30867
 C122 C -0.27498 0.75019 -0.20790
 C123 C -0.24180 0.78309 -0.19721
 C124 C -0.22833 0.76586 -0.29146
 N125 N -0.25228 0.71939 -0.35926
 C126 C -0.19433 0.78890 -0.31199
 H127 H -0.12947 0.85408 -0.37234
 H128 H -0.12981 0.89445 -0.54064
 H129 H -0.24853 0.68524 -0.43566
 H130 H -0.23316 0.95189 -0.77674
 H131 H -0.29605 0.89911 -0.78532
 H132 H -0.35660 0.53468 -0.66010
 H133 H -0.35554 0.49409 -0.48766
 H134 H -0.22945 0.81658 -0.12699
 H135 H -0.24980 0.72734 -0.58630
 H136 H -0.29275 0.75780 -0.14749
 N137 N -0.04392 1.06156 0.21707
 N138 N -0.07379 1.08721 0.26301
 N139 N 0.02927 0.93548 0.16006
 N140 N 0.05826 0.87539 0.16762
 N141 N 0.02766 1.04876 0.22524
 N142 N 0.05528 1.06796 0.27843
 N143 N -0.04250 0.94607 0.15548
 N144 N -0.07116 0.88934 0.15968
 C145 C -0.09019 0.97823 0.22775
 C146 C 0.07376 0.95856 0.24371
 N147 N 0.03243 0.88335 -0.12820
 N148 N 0.05907 0.83975 -0.18652
 N149 N -0.04010 0.85008 -0.05718
 N150 N -0.07047 0.80404 -0.05425
 N151 N -0.03800 0.89814 -0.13115
 N152 N -0.06636 0.88312 -0.18083
 N153 N 0.03204 0.83588 -0.05396
 N154 N 0.05907 0.75992 -0.05912
 Mn155 Mn -0.00519 0.89032 0.05122
 C156 C 0.07530 0.76232 -0.14329
 C157 C -0.08611 0.82173 -0.13373
 N158 N 0.02954 1.30114 0.21250
 N159 N 0.05721 1.31769 0.26493
 N160 N -0.03961 1.36393 0.13244
 N161 N -0.06795 1.43057 0.13046
 N162 N -0.04095 1.31612 0.20639
 N163 N -0.06948 1.35190 0.25794
 N164 N 0.03257 1.34790 0.13818
 N165 N 0.06283 1.39578 0.13799
 Mn166 Mn -0.00706 1.18210 0.21616
 C167 C 0.07760 1.37777 0.21859
 C168 C -0.08592 1.42486 0.21097
 N169 N -0.03564 1.15173 -0.14439
 N170 N -0.06316 1.13772 -0.19807
 N171 N 0.03604 1.24877 -0.07432
 N172 N 0.06527 1.30193 -0.07851
 N173 N 0.03577 1.13659 -0.14068
 N174 N 0.06458 1.11171 -0.19279
 N175 N -0.03589 1.26484 -0.07939
 N176 N -0.06384 1.33017 -0.08656
 Mn177 Mn -0.00136 1.01704 -0.13707
 Mn178 Mn -0.00165 1.30771 0.02900
 Cl179 Cl -0.00381 1.09929 0.03984
 C180 C -0.08031 1.25011 -0.16160
 C181 C 0.08250 1.21646 -0.15395
 N182 N 0.53039 0.59196 0.14703
 N183 N 0.55819 0.61234 0.19931
 N184 N 0.45917 0.64698 0.07621
 N185 N 0.43107 0.71855 0.08562
 N186 N 0.45937 0.58569 0.14209
 N187 N 0.43147 0.61336 0.19777
 N188 N 0.53107 0.64967 0.07870
 N189 N 0.55986 0.70816 0.08165
 C190 C 0.57611 0.68606 0.15858
 C191 C 0.41415 0.69642 0.16188
 N192 N 0.46391 0.46377 -0.20704
 N193 N 0.43556 0.44300 -0.25633
 N194 N 0.53337 0.57726 -0.13416
 N195 N 0.56135 0.63970 -0.13349
 N196 N 0.53522 0.46896 -0.20532
 N197 N 0.56438 0.45540 -0.25486
 N198 N 0.46151 0.57274 -0.13652
 N199 N 0.43133 0.62896 -0.13691
 Mn200 Mn 0.49625 0.61314 -0.02885
 C201 C 0.41574 0.54703 -0.21318
 C202 C 0.58001 0.56375 -0.21067
 N203 N 0.46307 0.32466 0.13478
 N204 N 0.43299 0.34120 0.17946
 N205 N 0.53702 0.22274 0.06643
 N206 N 0.56696 0.16576 0.06620
 N207 N 0.53443 0.32943 0.13921
 N208 N 0.56236 0.34634 0.19132
 N209 N 0.46526 0.21601 0.06396
 N210 N 0.43659 0.15630 0.05929
 Mn211 Mn 0.49678 0.45818 0.14192
 C212 C 0.41712 0.23440 0.13319
 C213 C 0.58218 0.24287 0.14535
 N214 N 0.53879 0.20753 -0.21295
 N215 N 0.56683 0.18379 -0.26772
 N216 N 0.46790 0.14252 -0.14831
 N217 N 0.43934 0.08287 -0.15062
 N218 N 0.46807 0.20085 -0.21606
 N219 N 0.44009 0.17950 -0.26767
 N220 N 0.53988 0.14813 -0.14593
 N221 N 0.56908 0.08300 -0.15292
 Mn222 Mn 0.50150 0.33519 -0.21136
 Mn223 Mn 0.50261 0.18101 -0.04088
 Cl224 Cl 0.49929 0.39690 -0.03483
 C225 C 0.58537 0.10544 -0.23018
 C226 C 0.42269 0.10428 -0.22705
 N227 N 0.35704 0.28861 0.11362
 N228 N 0.32659 0.28406 0.16306
 C229 C 0.33263 0.21754 0.22703
 C230 C 0.36650 0.17388 0.21552
 C231 C 0.38077 0.22184 0.14592
 H232 H 0.37996 0.12064 0.25675
 H233 H 0.36113 0.34672 0.06922
 H234 H 0.30483 0.33895 0.16008
 N235 N -0.14953 1.05926 0.25645
 N236 N -0.17900 1.02728 0.29657
 C237 C -0.17305 0.91460 0.31222
 C238 C -0.13989 0.87181 0.28067
 C239 C -0.12604 0.96659 0.24941
 H240 H -0.12675 0.78723 0.28657
 H241 H -0.14617 1.14387 0.24038
 H242 H -0.19982 1.08943 0.32232
 N243 N 0.63604 0.70738 0.11322
 N244 N 0.66718 0.71339 0.15980
 C245 C 0.66109 0.72502 0.25627
 C246 C 0.62614 0.72486 0.27192
 C247 C 0.61163 0.71352 0.18158
 H248 H 0.61267 0.73100 0.34022
 H249 H 0.63297 0.68879 0.03716
 H250 H 0.69064 0.69703 0.12228
 N251 N 0.13718 1.42569 0.18570
 N252 N 0.16883 1.40670 0.22329
 C253 C 0.16363 1.36389 0.30174
 C254 C 0.12900 1.35599 0.31559
 C255 C 0.11352 1.39405 0.24197
 H256 H 0.11658 1.31551 0.36670
 H257 H 0.13328 1.45049 0.12120
 H258 H 0.19198 1.42528 0.19510
 N259 N 0.64329 0.01190 -0.21649
 N260 N 0.67520 0.01452 -0.25997
 C261 C 0.67109 0.07075 -0.33146
 C262 C 0.63699 0.10365 -0.33493
 C263 C 0.62068 0.06734 -0.26215
 H264 H 0.62573 0.15815 -0.37902
 H265 H 0.63872 -0.02015 -0.15569
 H266 H 0.69773 -0.02233 -0.23999
 N267 N 0.13394 0.69749 -0.11372
 N268 N 0.16502 0.69504 -0.16255
 C269 C 0.15870 0.70654 -0.25310
 C270 C 0.12386 0.71071 -0.26444
 C271 C 0.10946 0.71008 -0.17543
 H272 H 0.11025 0.72294 -0.32684
 H273 H 0.13099 0.70890 -0.03821
 H274 H 0.18833 0.70319 -0.12746
 N275 N 0.36270 0.45059 -0.27925
 N276 N 0.33479 0.48232 -0.31742
 C277 C 0.33299 0.60863 -0.29899
 C278 C 0.36144 0.65974 -0.24608
 C279 C 0.38000 0.55487 -0.23840
 H280 H 0.36890 0.75712 -0.22370
 H281 H 0.37042 0.35832 -0.28360
 H282 H 0.31821 0.41749 -0.35995
 N283 N -0.13488 1.37474 -0.14148
 N284 N -0.16518 1.36655 -0.19230
 C285 C -0.16224 1.26392 -0.27302
 C286 C -0.13068 1.20387 -0.27472
 C287 C -0.11443 1.27627 -0.19190
 H288 H -0.12068 1.11875 -0.32940
 H289 H -0.12943 1.44587 -0.07668
 H290 H -0.18512 1.43459 -0.17429
 N291 N 0.64131 0.54081 -0.18213
 N292 N 0.67171 0.56567 -0.22248
 C293 C 0.66407 0.62039 -0.29307
 C294 C 0.62884 0.63101 -0.29888
 C295 C 0.61584 0.58114 -0.22843
 H296 H 0.61441 0.67129 -0.34721
 H297 H 0.63920 0.49495 -0.12815
 H298 H 0.69569 0.53645 -0.20530
 N299 N 0.14366 1.23778 -0.11509
 N300 N 0.17415 1.23234 -0.16749
 C301 C 0.16666 1.22103 -0.26239
 C302 C 0.13150 1.21665 -0.27235
 C303 C 0.11828 1.22662 -0.17930
 H304 H 0.11733 1.20504 -0.33921
 H305 H 0.14148 1.24480 -0.04013
 H306 H 0.19803 1.24380 -0.13557
 N307 N 0.36249 0.12594 -0.17310
 N308 N 0.33324 0.13742 -0.21479
 C309 C 0.33803 0.10207 -0.31402
 C310 C 0.37192 0.06448 -0.33539
 C311 C 0.38658 0.08364 -0.24456
 H312 H 0.38511 0.03760 -0.40639
 H313 H 0.36643 0.15933 -0.09705
 H314 H 0.31119 0.17920 -0.17503
 N315 N -0.14426 0.91221 -0.09600
 N316 N -0.17246 0.90882 -0.14590
 C317 C -0.16975 0.81100 -0.22995
 C318 C -0.13823 0.74992 -0.23353
 C319 C -0.12280 0.81746 -0.14743
 H320 H -0.12673 0.67626 -0.29528
 H321 H -0.13856 0.98569 -0.03285
 H322 H -0.19201 0.97832 -0.12622
 N323 N 0.36431 0.84723 0.17684
 N324 N 0.33612 0.87915 0.23174
 C325 C 0.33404 0.80470 0.29092
 C326 C 0.36191 0.72081 0.27152
 C327 C 0.38067 0.75237 0.20052
 H328 H 0.36814 0.64864 0.30614
 H329 H 0.37242 0.89131 0.12563
 H330 H 0.31899 0.95188 0.22960
 N331 N -0.14485 1.41197 0.15581
 N332 N -0.17355 1.39105 0.19611
 C333 C -0.17030 1.42201 0.29519
 C334 C -0.13843 1.47038 0.31822
 C335 C -0.12240 1.45548 0.22776
 H336 H -0.12648 1.49400 0.38946
 H337 H -0.13929 1.37956 0.07987
 H338 H -0.19342 1.34262 0.15509
 N339 N 0.64171 0.16236 0.10257
 N340 N 0.67090 0.16729 0.14809
 C341 C 0.66576 0.23364 0.24405
 C342 C 0.63196 0.27323 0.26064
 C343 C 0.61769 0.22610 0.16896
 H344 H 0.61934 0.32388 0.33025
 H345 H 0.63839 0.11583 0.02755
 H346 H 0.69359 0.12219 0.11470
 N347 N 0.13327 1.02243 0.24610
 N348 N 0.16198 1.00430 0.28769
 C349 C 0.15731 0.91983 0.33714
 C350 C 0.12391 0.88176 0.32572
 C351 C 0.10973 0.94887 0.26701
 H352 H 0.11145 0.81794 0.35809
 H353 H 0.12973 1.08599 0.20553
 H354 H 0.18418 1.05111 0.28377
   
