data_POSCAR
  _audit_creation_date              2014-09-24
  _audit_creation_method            'ToBaCCo'
  _symmetry_space_group_name_H-M    'P1'
  _symmetry_Int_Tables_number       1
  _symmetry_cell_setting            triclinic
  loop_
  _symmetry_equiv_pos_as_xyz
 x,y,z
_cell_length_a 50.7722
_cell_length_b 52.8031
_cell_length_c 21.4512
_cell_angle_alpha 89.969800
_cell_angle_beta 90.013300
_cell_angle_gamma 124.323700
loop_
  _atom_site_label
  _atom_site_type_symbol
  _atom_site_fract_x
  _atom_site_fract_y
  _atom_site_fract_z
C1 C 0.50236 1.00028 0.46566
 C2 C 0.50197 0.99944 0.52908
 C3 C 0.49029 0.97072 0.56405
 C4 C 0.51277 1.02697 0.56774
 C5 C 0.51854 1.02949 0.43022
 C6 C 0.48641 0.97193 0.42738
 C7 C 0.45846 0.94547 0.56071
 C8 C 0.44818 0.91880 0.59488
 C9 C 0.46964 0.91703 0.63385
 C10 C 0.50152 0.94271 0.63657
 C11 C 0.51161 0.96917 0.60246
 C12 C 0.49118 1.02608 0.60991
 C13 C 0.50035 1.05125 0.64763
 C14 C 0.53128 1.07800 0.64391
 C15 C 0.55322 1.07882 0.60225
 C16 C 0.54404 1.05339 0.56469
 C17 C 0.54308 1.03620 0.38899
 C18 C 0.55831 1.06293 0.35339
 C19 C 0.54943 1.08364 0.35826
 C20 C 0.52453 1.07681 0.39929
 C21 C 0.50912 1.04983 0.43479
 C22 C 0.49530 0.95114 0.43026
 C23 C 0.47969 0.92470 0.39318
 C24 C 0.45518 0.91889 0.35216
 C25 C 0.44699 0.94016 0.34855
 C26 C 0.46237 0.96633 0.38582
 H27 H 0.44159 0.94644 0.53167
 H28 H 0.42350 0.90003 0.58982
 H29 H 0.51891 0.94252 0.66560
 H30 H 0.53626 0.98854 0.60577
 H31 H 0.46703 1.00582 0.61337
 H32 H 0.48308 1.04989 0.67963
 H33 H 0.56132 1.05423 0.53362
 H34 H 0.55047 1.02063 0.38437
 H35 H 0.57718 1.06746 0.32185
 H36 H 0.51629 1.09167 0.40305
 H37 H 0.48966 1.04464 0.46524
 H38 H 0.51441 0.95548 0.46082
 H39 H 0.48745 0.90941 0.39580
 H40 H 0.42845 0.93641 0.31696
 H41 H 0.45539 0.98226 0.38247
 H42 H 0.57757 1.09864 0.59940
 C43 C -0.00048 0.49919 0.46619
 C44 C -0.00078 0.49835 0.52963
 C45 C 0.02893 0.51576 0.56713
 C46 C -0.03093 0.48019 0.56563
 C47 C -0.03039 0.48091 0.42960
 C48 C 0.02965 0.51862 0.43065
 C49 C 0.05340 0.51114 0.55966
 C50 C 0.08049 0.52668 0.59768
 C51 C 0.08343 0.54702 0.64407
 C52 C 0.05878 0.55138 0.65139
 C53 C 0.03183 0.53593 0.61337
 C54 C -0.03475 0.45852 0.60907
 C55 C -0.06202 0.44256 0.64621
 C56 C -0.08604 0.44791 0.64077
 C57 C -0.08218 0.46971 0.59709
 C58 C -0.05479 0.48574 0.55997
 C59 C -0.03969 0.49586 0.39073
 C60 C -0.06889 0.47924 0.35943
 C61 C -0.08944 0.44705 0.36603
 C62 C -0.07916 0.43213 0.40300
 C63 C -0.05005 0.44887 0.43467
 C64 C 0.04957 0.55041 0.44053
 C65 C 0.07863 0.56816 0.40894
 C66 C 0.08833 0.55448 0.36713
 C67 C 0.06775 0.52278 0.35562
 C68 C 0.03866 0.50507 0.38706
 H69 H 0.05122 0.49506 0.52524
 H70 H 0.09842 0.52192 0.59155
 H71 H 0.06028 0.56671 0.68695
 H72 H 0.01309 0.53961 0.62019
 H73 H -0.01644 0.45414 0.61453
 H74 H -0.06423 0.42610 0.67975
 H75 H -0.05186 0.50300 0.52787
 H76 H -0.02458 0.52057 0.38573
 H77 H -0.07470 0.49197 0.32985
 H78 H -0.09400 0.40743 0.40859
 H79 H -0.04300 0.43690 0.46382
 H80 H 0.04272 0.56138 0.47312
 H81 H 0.09379 0.59259 0.41786
 H82 H 0.07383 0.51160 0.32200
 H83 H 0.02338 0.48064 0.37821
 H84 H -0.09955 0.47529 0.59262
 C85 C 0.50045 0.50072 0.46539
 C86 C 0.50033 0.50057 0.52893
 C87 C 0.48336 0.51113 0.56523
 C88 C 0.51712 0.48980 0.56522
 C89 C 0.51566 0.48833 0.42890
 C90 C 0.48535 0.51325 0.42899
 C91 C 0.50033 0.53527 0.60771
 C92 C 0.48510 0.54644 0.64034
 C93 C 0.45226 0.53344 0.63142
 C94 C 0.43518 0.50841 0.59033
 C95 C 0.45055 0.49742 0.55749
 C96 C 0.54992 0.50344 0.55778
 C97 C 0.56511 0.49219 0.59042
 C98 C 0.54784 0.46697 0.63105
 C99 C 0.51500 0.45405 0.63973
 C100 C 0.49996 0.46547 0.60727
 C101 C 0.50707 0.45824 0.43804
 C102 C 0.52202 0.44713 0.40406
 C103 C 0.54541 0.46577 0.35922
 C104 C 0.55360 0.49572 0.34983
 C105 C 0.53879 0.50684 0.38407
 C106 C 0.46226 0.49488 0.38400
 C107 C 0.44753 0.50612 0.34985
 C108 C 0.45578 0.53606 0.35946
 C109 C 0.47913 0.55458 0.40443
 C110 C 0.49397 0.54334 0.43838
 H111 H 0.52560 0.54584 0.61486
 H112 H 0.49937 0.56489 0.67284
 H113 H 0.40987 0.49752 0.58279
 H114 H 0.43693 0.47836 0.52567
 H115 H 0.56370 0.52264 0.52630
 H116 H 0.59043 0.50304 0.58309
 H117 H 0.47468 0.45494 0.61418
 H118 H 0.48891 0.44342 0.47180
 H119 H 0.51537 0.42417 0.41392
 H120 H 0.57156 0.51061 0.31580
 H121 H 0.54567 0.53008 0.37614
 H122 H 0.45536 0.47164 0.37589
 H123 H 0.42959 0.49132 0.31572
 H124 H 0.48577 0.57753 0.41442
 H125 H 0.51207 0.55804 0.47231
 H126 H 0.50058 0.43545 0.67186
 O127 O 0.39240 0.67673 -0.08480
 O128 O 0.38867 0.72324 -0.06145
 C129 C 0.36551 0.72264 -0.08595
 O130 O 0.33694 0.70443 -0.06854
 O131 O 0.28819 0.64947 -0.04348
 C132 C 0.28565 0.62791 -0.07571
 O133 O 0.30319 0.61815 -0.06767
 O134 O 0.35952 0.62774 -0.05718
 C135 C 0.38086 0.64857 -0.09258
 O136 O 0.40145 0.67167 0.03759
 O137 O 0.39494 0.71633 0.06107
 C138 C 0.37797 0.72565 0.07841
 O139 O 0.35103 0.71638 0.05420
 O140 O 0.30301 0.66053 0.07908
 C141 C 0.29064 0.63237 0.08935
 O142 O 0.29714 0.61644 0.05703
 O143 O 0.35504 0.62964 0.06749
 C144 C 0.38507 0.64811 0.07212
 Cr145 Cr 0.39263 0.69591 -0.01156
 Cr146 Cr 0.32085 0.68216 0.00510
 Cr147 Cr 0.32942 0.62463 -0.00012
 O148 O 0.34762 0.66764 -0.00211
 O149 O 0.60634 0.32280 -0.08338
 O150 O 0.60987 0.27634 -0.05914
 C151 C 0.63267 0.27626 -0.08342
 O152 O 0.66136 0.29413 -0.06631
 O153 O 0.71058 0.34934 -0.04441
 C154 C 0.71314 0.37073 -0.07733
 O155 O 0.69593 0.38088 -0.06939
 O156 O 0.63993 0.37197 -0.05805
 C157 C 0.61813 0.35093 -0.09232
 O158 O 0.59844 0.32889 0.03912
 O159 O 0.60452 0.28402 0.06341
 C160 C 0.62156 0.27485 0.08130
 O161 O 0.64842 0.28393 0.05702
 O162 O 0.69697 0.33989 0.07887
 C163 C 0.70950 0.36816 0.08791
 O164 O 0.70283 0.38381 0.05506
 O165 O 0.64521 0.37120 0.06655
 C166 C 0.61523 0.35282 0.07243
 Cr167 Cr 0.60656 0.30410 -0.00969
 Cr168 Cr 0.67828 0.31738 0.00606
 Cr169 Cr 0.67026 0.37529 -0.00143
 O170 O 0.65170 0.33218 -0.00160
 C171 C 0.46131 0.89221 -0.33108
 C172 C 0.43054 0.86534 -0.32561
 C173 C 0.42336 0.83988 -0.28364
 C174 C 0.39300 0.82177 -0.25660
 C175 C 0.38565 0.79826 -0.21503
 C176 C 0.40845 0.79192 -0.20049
 C177 C 0.43866 0.80972 -0.22846
 C178 C 0.44603 0.83333 -0.26989
 C179 C 0.40211 0.76797 -0.15477
 C180 C 0.37150 0.74441 -0.13584
 H181 H 0.41038 0.86336 -0.34787
 H182 H 0.37512 0.82635 -0.26644
 H183 H 0.36237 0.78580 -0.19346
 H184 H 0.45664 0.80533 -0.21825
 H185 H 0.46937 0.84615 -0.29138
 H186 H 0.42236 0.76898 -0.13525
 H187 H 0.47977 0.89345 -0.30308
 H188 H 0.35083 0.74188 -0.15708
 C189 C 0.11077 0.56306 -0.31229
 C190 C 0.13997 0.56676 -0.32184
 C191 C 0.16637 0.58203 -0.27596
 C192 C 0.18927 0.57509 -0.27623
 C193 C 0.21408 0.58840 -0.23266
 C194 C 0.21648 0.60907 -0.18780
 C195 C 0.19420 0.61680 -0.18902
 C196 C 0.16946 0.60353 -0.23259
 C197 C 0.24193 0.62349 -0.13987
 C198 C 0.26090 0.61299 -0.12415
 H199 H 0.14353 0.55727 -0.36306
 H200 H 0.18779 0.55904 -0.30989
 H201 H 0.23130 0.58255 -0.23503
 H202 H 0.19584 0.63311 -0.15586
 H203 H 0.15317 0.61057 -0.23239
 H204 H 0.24519 0.64276 -0.11427
 H205 H 0.10734 0.57221 -0.27032
 H206 H 0.25769 0.59324 -0.14722
 C207 C 0.43577 0.54407 -0.33760
 C208 C 0.45033 0.57092 -0.30182
 C209 C 0.43229 0.58068 -0.26703
 C210 C 0.44785 0.61167 -0.25057
 C211 C 0.43238 0.62163 -0.21473
 C212 C 0.40086 0.60067 -0.19432
 C213 C 0.38529 0.56966 -0.21074
 C214 C 0.40076 0.55971 -0.24674
 C215 C 0.38444 0.60975 -0.15206
 C216 C 0.39409 0.64003 -0.14300
 H217 H 0.47599 0.58656 -0.30111
 H218 H 0.47229 0.62822 -0.26484
 H219 H 0.44567 0.64553 -0.20156
 H220 H 0.36121 0.55295 -0.19476
 H221 H 0.38828 0.53548 -0.25668
 H222 H 0.36428 0.59174 -0.12568
 H223 H 0.41017 0.53115 -0.34381
 H224 H 0.41275 0.65828 -0.17148
 C225 C 0.53962 0.10380 -0.31419
 C226 C 0.56476 0.13427 -0.32461
 C227 C 0.57194 0.15959 -0.28216
 C228 C 0.60290 0.18642 -0.28121
 C229 C 0.61079 0.21044 -0.24057
 C230 C 0.58772 0.20809 -0.19993
 C231 C 0.55644 0.18180 -0.20283
 C232 C 0.54856 0.15781 -0.24344
 C233 C 0.59518 0.23235 -0.15421
 C234 C 0.62598 0.25407 -0.13287
 H235 H 0.58034 0.13992 -0.36420
 H236 H 0.62118 0.18867 -0.31151
 H237 H 0.63488 0.23076 -0.24172
 H238 H 0.53805 0.17964 -0.17300
 H239 H 0.52406 0.13817 -0.24462
 H240 H 0.57541 0.23180 -0.13343
 H241 H 0.52455 0.09830 -0.27380
 H242 H 0.64597 0.25415 -0.15049
 C243 C 0.88640 0.43151 -0.31616
 C244 C 0.85767 0.42888 -0.32492
 C245 C 0.83126 0.41393 -0.27904
 C246 C 0.80902 0.42172 -0.27885
 C247 C 0.78431 0.40888 -0.23511
 C248 C 0.78133 0.38784 -0.19048
 C249 C 0.80291 0.37925 -0.19217
 C250 C 0.82756 0.39204 -0.23594
 C251 C 0.75604 0.37399 -0.14216
 C252 C 0.73756 0.38502 -0.12649
 H253 H 0.85462 0.43916 -0.36544
 H254 H 0.81098 0.43810 -0.31227
 H255 H 0.76766 0.41543 -0.23712
 H256 H 0.80082 0.36266 -0.15918
 H257 H 0.84330 0.38437 -0.23603
 H258 H 0.75253 0.35469 -0.11619
 H259 H 0.88935 0.42140 -0.27521
 H260 H 0.74092 0.40474 -0.15004
 C261 C 0.56415 0.45608 -0.33819
 C262 C 0.54943 0.42912 -0.30270
 C263 C 0.56732 0.41914 -0.26798
 C264 C 0.55157 0.38813 -0.25149
 C265 C 0.56691 0.37799 -0.21566
 C266 C 0.59847 0.39880 -0.19531
 C267 C 0.61423 0.42982 -0.21186
 C268 C 0.59890 0.43995 -0.24779
 C269 C 0.61479 0.38961 -0.15302
 C270 C 0.60471 0.35926 -0.14281
 H271 H 0.52376 0.41357 -0.30206
 H272 H 0.52710 0.37170 -0.26569
 H273 H 0.55348 0.35408 -0.20249
 H274 H 0.63835 0.44642 -0.19597
 H275 H 0.61154 0.46419 -0.25773
 H276 H 0.63529 0.40765 -0.12742
 H277 H 0.58975 0.46893 -0.34430
 H278 H 0.58565 0.34088 -0.17034
 C279 C 0.88047 0.42923 0.33695
 C280 C 0.86527 0.44122 0.30678
 C281 C 0.83412 0.42195 0.27468
 C282 C 0.81546 0.43363 0.26619
 C283 C 0.78677 0.41697 0.23313
 C284 C 0.77636 0.38836 0.20680
 C285 C 0.79466 0.37636 0.21655
 C286 C 0.82332 0.39300 0.24980
 C287 C 0.74734 0.37086 0.16747
 C288 C 0.73394 0.38435 0.13661
 H289 H 0.87527 0.46547 0.30925
 H290 H 0.82317 0.45582 0.28510
 H291 H 0.77299 0.42669 0.22848
 H292 H 0.78722 0.35440 0.19680
 H293 H 0.83736 0.38351 0.25405
 H294 H 0.73814 0.34714 0.15732
 H295 H 0.86759 0.40453 0.34063
 H296 H 0.74374 0.40841 0.14310
 C297 C 0.56589 0.11115 0.31769
 C298 C 0.56632 0.13750 0.32807
 C299 C 0.58249 0.16428 0.28542
 C300 C 0.57224 0.18400 0.28393
 C301 C 0.58597 0.20875 0.24249
 C302 C 0.61037 0.21430 0.20155
 C303 C 0.62166 0.19546 0.20518
 C304 C 0.60794 0.17073 0.24660
 C305 C 0.62452 0.23927 0.15461
 C306 C 0.60871 0.25204 0.13184
 H307 H 0.55344 0.13834 0.36727
 H308 H 0.55317 0.17996 0.31428
 H309 H 0.57744 0.22344 0.24312
 H310 H 0.64087 0.19961 0.17514
 H311 H 0.61757 0.15697 0.24819
 H312 H 0.64718 0.24631 0.13402
 H313 H 0.57840 0.11038 0.27773
 H314 H 0.58529 0.24418 0.14928
 C315 C 0.56226 0.45534 0.32212
 C316 C 0.55207 0.42471 0.31642
 C317 C 0.56875 0.41481 0.27721
 C318 C 0.55181 0.38432 0.25650
 C319 C 0.56636 0.37425 0.21801
 C320 C 0.59832 0.39460 0.19933
 C321 C 0.61560 0.42477 0.22206
 C322 C 0.60107 0.43481 0.26065
 C323 C 0.61455 0.38549 0.15658
 C324 C 0.59849 0.35958 0.11839
 H325 H 0.52985 0.40690 0.33763
 H326 H 0.52707 0.36828 0.26960
 H327 H 0.55242 0.35052 0.20362
 H328 H 0.64041 0.44077 0.20941
 H329 H 0.61540 0.45813 0.27765
 H330 H 0.64024 0.40089 0.15231
 H331 H 0.58269 0.47262 0.29538
 H332 H 0.57278 0.34431 0.11965
 C333 C 0.11951 0.57391 0.33522
 C334 C 0.13663 0.56241 0.31260
 C335 C 0.16735 0.58115 0.27866
 C336 C 0.18653 0.56989 0.27282
 C337 C 0.21487 0.58598 0.23846
 C338 C 0.22444 0.61362 0.20850
 C339 C 0.20564 0.62524 0.21551
 C340 C 0.17729 0.60914 0.24979
 C341 C 0.25319 0.63055 0.16837
 C342 C 0.26657 0.61673 0.13891
 H343 H 0.12779 0.53874 0.32200
 H344 H 0.17950 0.54845 0.29474
 H345 H 0.22909 0.57666 0.23574
 H346 H 0.21245 0.64647 0.19289
 H347 H 0.16294 0.61833 0.25181
 H348 H 0.26210 0.65402 0.15634
 H349 H 0.12999 0.59829 0.33301
 H350 H 0.25694 0.59281 0.14714
 C351 C 0.43836 0.89178 0.31065
 C352 C 0.43615 0.86457 0.32175
 C353 C 0.41945 0.83787 0.27901
 C354 C 0.42778 0.81666 0.28000
 C355 C 0.41347 0.79179 0.23892
 C356 C 0.39040 0.78759 0.19585
 C357 C 0.38097 0.80796 0.19688
 C358 C 0.39530 0.83285 0.23793
 C359 C 0.37582 0.76244 0.14937
 C360 C 0.39102 0.74883 0.12817
 H361 H 0.44788 0.86288 0.36206
 H362 H 0.44579 0.81959 0.31210
 H363 H 0.42047 0.77590 0.24148
 H364 H 0.36279 0.80488 0.16510
 H365 H 0.38712 0.84782 0.23748
 H366 H 0.35355 0.75603 0.12784
 H367 H 0.42684 0.89347 0.26998
 H368 H 0.41423 0.75634 0.14630
 C369 C 0.43898 0.54661 0.32258
 C370 C 0.44958 0.57733 0.31617
 C371 C 0.43285 0.58727 0.27724
 C372 C 0.45000 0.61747 0.25476
 C373 C 0.43531 0.62748 0.21640
 C374 C 0.40300 0.60735 0.19974
 C375 C 0.38558 0.57751 0.22427
 C376 C 0.40024 0.56754 0.26267
 C377 C 0.38653 0.61630 0.15723
 C378 C 0.40228 0.64184 0.11795
 H379 H 0.47213 0.59508 0.33644
 H380 H 0.47498 0.63332 0.26630
 H381 H 0.44944 0.65098 0.20050
 H382 H 0.36053 0.56169 0.21318
 H383 H 0.38581 0.54449 0.28111
 H384 H 0.36078 0.60100 0.15409
 H385 H 0.41826 0.52934 0.29648
 H386 H 0.42799 0.65709 0.11819
   
