data_POSCAR
  _audit_creation_date              2014-09-24
  _audit_creation_method            'ToBaCCo'
  _symmetry_space_group_name_H-M    'P1'
  _symmetry_Int_Tables_number       1
  _symmetry_cell_setting            triclinic
  loop_
  _symmetry_equiv_pos_as_xyz
 x,y,z
_cell_length_a 55.1543
_cell_length_b 55.1113
_cell_length_c 18.8181
_cell_angle_alpha 89.960200
_cell_angle_beta 90.023500
_cell_angle_gamma 119.978100
loop_
  _atom_site_label
  _atom_site_type_symbol
  _atom_site_fract_x
  _atom_site_fract_y
  _atom_site_fract_z
O1 O 0.26245 0.47808 0.56628
 O2 O 0.21486 0.47798 0.42930
 O3 O 0.26226 0.47809 0.42887
 O4 O 0.21516 0.47805 0.56685
 O5 O 0.23809 0.52425 0.56693
 O6 O 0.28533 0.52429 0.42848
 O7 O 0.23764 0.52413 0.42925
 O8 O 0.28560 0.52428 0.56621
 Cu9 Cu 0.23638 0.47344 0.49779
 Cu10 Cu 0.26398 0.52888 0.49763
 C11 C 0.28243 0.50114 0.58899
 C12 C 0.21768 0.50098 0.40658
 C13 C 0.28216 0.50115 0.40589
 C14 C 0.21828 0.50110 0.58987
 O15 O 0.52205 -0.21522 0.57035
 O16 O 0.52207 -0.26274 0.43337
 O17 O 0.52202 -0.21545 0.43289
 O18 O 0.52204 -0.26257 0.57094
 O19 O 0.47593 -0.28587 0.57084
 O20 O 0.47585 -0.23842 0.43275
 O21 O 0.47590 -0.28594 0.43308
 O22 O 0.47594 -0.23815 0.57048
 Cu23 Cu 0.52664 -0.23670 0.50194
 Cu24 Cu 0.47127 -0.26442 0.50190
 C25 C 0.49905 -0.21812 0.59310
 C26 C 0.49904 -0.28269 0.41037
 C27 C 0.49898 -0.21857 0.40988
 C28 C 0.49905 -0.28266 0.59376
 O29 O 1.26253 0.78450 0.43236
 O30 O 1.21490 0.73696 0.56920
 O31 O 1.26229 0.78419 0.56983
 O32 O 1.21522 0.73720 0.43169
 O33 O 1.23814 0.71392 0.43151
 O34 O 1.28536 0.76106 0.57013
 O35 O 1.23765 0.71356 0.56920
 O36 O 1.28568 0.76145 0.43237
 Cu37 Cu 1.23644 0.76303 0.50077
 Cu38 Cu 1.26402 0.73517 0.50085
 C39 C 1.28252 0.78143 0.40965
 C40 C 1.21771 0.71677 0.59190
 C41 C 1.28216 0.78099 0.59286
 C42 C 1.21832 0.71726 0.40865
 O43 O 0.78560 0.52442 0.43179
 O44 O 0.73815 0.52451 0.56889
 O45 O 0.78535 0.52445 0.56948
 O46 O 0.73843 0.52452 0.43105
 O47 O 0.71519 0.47832 0.43080
 O48 O 0.76230 0.47825 0.56992
 O49 O 0.71476 0.47836 0.56881
 O50 O 0.76264 0.47822 0.43183
 Cu51 Cu 0.76418 0.52907 0.50032
 Cu52 Cu 0.73640 0.47364 0.50040
 C53 C 0.78249 0.50136 0.40884
 C54 C 0.71807 0.50152 0.59186
 C55 C 0.78212 0.50140 0.59287
 C56 C 0.71862 0.50150 0.40763
 O57 O 0.47565 0.26120 0.43176
 O58 O 0.47555 0.21374 0.56928
 O59 O 0.47567 0.26104 0.56945
 O60 O 0.47556 0.21391 0.43143
 O61 O 0.52172 0.23682 0.43109
 O62 O 0.52183 0.28413 0.56973
 O63 O 0.52166 0.23644 0.56912
 O64 O 0.52181 0.28438 0.43168
 Cu65 Cu 0.47101 0.23517 0.50050
 Cu66 Cu 0.52640 0.26275 0.50045
 C67 C 0.49868 0.28110 0.40866
 C68 C 0.49852 0.21663 0.59230
 C69 C 0.49871 0.28085 0.59270
 C70 C 0.49856 0.21708 0.40802
 O71 O 0.73880 0.21434 0.43224
 O72 O 0.78627 0.26175 0.56947
 O73 O 0.73904 0.21456 0.56997
 O74 O 0.78604 0.26154 0.43166
 O75 O 0.76311 0.28481 0.43129
 O76 O 0.71592 0.23765 0.57020
 O77 O 0.76354 0.28517 0.56928
 O78 O 0.71561 0.23733 0.43213
 Cu79 Cu 0.76484 0.23575 0.50085
 Cu80 Cu 0.73723 0.26357 0.50076
 C81 C 0.71889 0.21747 0.40918
 C82 C 0.78337 0.28184 0.59241
 C83 C 0.71924 0.21781 0.59325
 C84 C 0.78285 0.28139 0.40823
 O85 O 1.03882 0.56100 0.13080
 O86 O 1.06975 0.55498 0.06228
 C87 C 1.06404 0.56738 0.11266
 O88 O 0.96046 0.43639 0.12377
 O89 O 0.92953 0.44368 0.05869
 C90 C 0.93523 0.43006 0.10577
 O91 O 1.03869 0.47808 0.13158
 O92 O 1.06973 0.51461 0.06200
 C93 C 1.06396 0.49668 0.11297
 O94 O 0.96057 0.52396 0.12471
 O95 O 0.92963 0.48543 0.06057
 C96 C 0.93532 0.50485 0.10737
 Zr97 Zr 0.99970 0.53026 0.08920
 O98 O 0.99723 0.53024 0.20149
 O99 O 1.00087 0.56908 0.08134
 Zr100 Zr 0.99974 0.46878 0.08719
 O101 O 0.99790 0.46367 0.19868
 O102 O 1.00294 0.43219 0.07705
 O103 O 1.02450 0.51189 0.10251
 O104 O 0.97556 0.48740 0.10166
 O105 O 0.96044 0.52435 -0.12465
 O106 O 0.92956 0.48582 -0.06040
 C107 C 0.93521 0.50529 -0.10701
 O108 O 1.03886 0.47783 -0.13221
 O109 O 1.06977 0.51484 -0.06381
 C110 C 1.06408 0.49669 -0.11406
 O111 O 0.96055 0.43669 -0.12653
 O112 O 0.92961 0.44397 -0.06150
 C113 C 0.93531 0.43038 -0.10870
 O114 O 1.03865 0.56080 -0.13289
 O115 O 1.06970 0.55519 -0.06362
 C116 C 1.06393 0.56742 -0.11442
 Zr117 Zr 0.99969 0.53098 -0.08874
 O118 O 0.99780 0.53407 -0.20029
 O119 O 1.00253 0.57063 -0.07903
 Zr120 Zr 0.99974 0.46952 -0.09098
 O121 O 0.99692 0.46783 -0.20329
 O122 O 1.00276 0.43270 -0.08935
 Zr123 Zr 1.04168 0.52087 -0.00082
 Zr124 Zr 0.95787 0.47892 -0.00077
 O125 O 0.97552 0.48818 -0.10329
 O126 O 1.02452 0.51270 -0.10421
 O127 O 0.97442 0.52262 0.00042
 O128 O 1.02442 0.47712 -0.00188
 O129 O 1.02445 0.54738 0.00028
 O130 O 0.97449 0.45177 -0.00197
 H131 H 0.96324 0.48120 0.14400
 H132 H 1.03736 0.46954 -0.00187
 H133 H 0.96311 0.48206 -0.14546
 H134 H 1.03737 0.56791 0.00030
 H135 H 0.98453 0.41676 0.06130
 H136 H 0.98634 0.41819 -0.06315
 H137 H 1.01236 0.48568 -0.22197
 H138 H 0.99892 0.51814 -0.22054
 H139 H 0.98545 0.56779 -0.05443
 H140 H 1.00093 0.57526 0.13081
 H141 H 1.01168 0.52633 0.22039
 H142 H 0.99894 0.48066 0.21908
 O143 O 0.43963 0.47842 0.13186
 O144 O 0.44505 0.51490 0.06202
 C145 C 0.43296 0.49703 0.11312
 O146 O 0.56385 0.52447 0.12266
 O147 O 0.55625 0.48592 0.05863
 C148 C 0.57005 0.50542 0.10510
 O149 O 0.52263 0.56159 0.12903
 O150 O 0.48538 0.55531 0.06138
 C151 C 0.50369 0.56789 0.11127
 O152 O 0.47615 0.43674 0.12447
 O153 O 0.51434 0.44400 0.05928
 C154 C 0.49508 0.43041 0.10657
 Zr155 Zr 0.46952 0.46930 0.08805
 O156 O 0.46628 0.46520 0.19989
 O157 O 0.43093 0.43175 0.07603
 Zr158 Zr 0.53086 0.53071 0.08770
 O159 O 0.53298 0.53010 0.19998
 O160 O 0.56760 0.57057 0.08461
 O161 O 0.48781 0.51246 0.10209
 O162 O 0.51237 0.48792 0.10124
 O163 O 0.47592 0.43650 -0.12589
 O164 O 0.51426 0.44395 -0.06115
 C165 C 0.49490 0.43025 -0.10803
 O166 O 0.52233 0.56142 -0.13208
 O167 O 0.48524 0.55522 -0.06392
 C168 C 0.50344 0.56776 -0.11400
 O169 O 0.56342 0.52410 -0.12647
 O170 O 0.55608 0.48575 -0.06175
 C171 C 0.56970 0.50510 -0.10879
 O172 O 0.43946 0.47830 -0.13385
 O173 O 0.44490 0.51479 -0.06422
 C174 C 0.43277 0.49690 -0.11522
 Zr175 Zr 0.46919 0.46904 -0.08963
 O176 O 0.46632 0.46433 -0.20124
 O177 O 0.42954 0.43226 -0.08060
 Zr178 Zr 0.53059 0.53049 -0.09100
 O179 O 0.53254 0.52965 -0.20330
 O180 O 0.56735 0.57034 -0.08875
 Zr181 Zr 0.47911 0.52095 -0.00125
 Zr182 Zr 0.52112 0.47908 -0.00122
 O183 O 0.51199 0.48767 -0.10373
 O184 O 0.48747 0.51218 -0.10466
 O185 O 0.47741 0.45188 -0.00067
 O186 O 0.52285 0.54729 -0.00167
 O187 O 0.45255 0.47722 -0.00068
 O188 O 0.54813 0.52284 -0.00172
 H189 H 0.51874 0.48178 0.14324
 H190 H 0.53063 0.56785 -0.00174
 H191 H 0.51817 0.48146 -0.14595
 H192 H 0.43205 0.46974 -0.00056
 H193 H 0.58211 0.56848 0.05898
 H194 H 0.58198 0.56827 -0.06363
 H195 H 0.51474 0.52730 -0.22217
 H196 H 0.48226 0.48142 -0.22123
 H197 H 0.43238 0.41769 -0.05771
 H198 H 0.42390 0.42527 0.12480
 H199 H 0.48446 0.47952 0.21959
 H200 H 0.51472 0.52655 0.21868
 O201 O 0.52223 -0.03897 0.13131
 O202 O 0.48530 -0.06992 0.06277
 C203 C 0.50340 -0.06421 0.11318
 O204 O 0.47574 0.03941 0.12309
 O205 O 0.51427 0.07039 0.05899
 C206 C 0.49477 0.06467 0.10552
 O207 O 0.43923 -0.03880 0.13112
 O208 O 0.44498 -0.06987 0.06237
 C209 C 0.43268 -0.06409 0.11290
 O210 O 0.56349 0.03933 0.12499
 O211 O 0.55593 0.07030 0.06069
 C212 C 0.56965 0.06460 0.10754
 Zr213 Zr 0.53064 0.00017 0.08953
 O214 O 0.53295 0.00253 0.20183
 O215 O 0.56825 -0.00102 0.08186
 Zr216 Zr 0.46924 0.00019 0.08744
 O217 O 0.46563 0.00125 0.19910
 O218 O 0.43066 -0.00093 0.07411
 O219 O 0.48751 -0.02464 0.10278
 O220 O 0.51201 0.02442 0.10185
 O221 O 0.56393 0.03944 -0.12438
 O222 O 0.55636 0.07036 -0.06009
 C223 C 0.57012 0.06469 -0.10674
 O224 O 0.43895 -0.03901 -0.13166
 O225 O 0.44514 -0.06993 -0.06338
 C226 C 0.43263 -0.06424 -0.11353
 O227 O 0.47607 0.03934 -0.12591
 O228 O 0.51443 0.07031 -0.06135
 C229 C 0.49507 0.06461 -0.10830
 O230 O 0.52213 -0.03884 -0.13251
 O231 O 0.48551 -0.06990 -0.06321
 C232 C 0.50348 -0.06413 -0.11402
 Zr233 Zr 0.53132 0.00016 -0.08843
 O234 O 0.53624 0.00201 -0.19998
 O235 O 0.56809 -0.00270 -0.07869
 Zr236 Zr 0.46986 0.00014 -0.09065
 O237 O 0.47107 0.00292 -0.20298
 O238 O 0.43021 -0.00251 -0.08924
 Zr239 Zr 0.47927 -0.04184 -0.00047
 Zr240 Zr 0.52115 0.04204 -0.00056
 O241 O 0.51271 0.02437 -0.10305
 O242 O 0.48823 -0.02467 -0.10387
 O243 O 0.54826 0.02546 0.00070
 O244 O 0.45281 -0.02456 -0.00148
 O245 O 0.52297 -0.02461 0.00065
 O246 O 0.47745 0.02541 -0.00169
 H247 H 0.51814 0.03681 0.14405
 H248 H 0.43228 -0.03742 -0.00147
 H249 H 0.51898 0.03680 -0.14522
 H250 H 0.53057 -0.03755 0.00073
 H251 H 0.42348 -0.00139 0.12263
 H252 H 0.43178 0.01276 -0.05844
 H253 H 0.47331 -0.01264 -0.22152
 H254 H 0.51938 0.00129 -0.22023
 H255 H 0.58234 0.01438 -0.05406
 H256 H 0.57436 -0.00109 0.13135
 H257 H 0.51438 -0.01157 0.22041
 H258 H 0.48329 0.00390 0.21941
 C259 C 1.15582 0.49968 0.27051
 C260 C 1.15488 0.47466 0.29049
 C261 C 1.17569 0.47513 0.33369
 C262 C 1.19812 0.50070 0.35810
 C263 C 1.19961 0.52582 0.33567
 C264 C 1.17868 0.52529 0.29255
 C265 C 1.13246 0.49892 0.22924
 C266 C 1.13764 0.51852 0.17509
 C267 C 1.11546 0.51779 0.13714
 C268 C 1.08760 0.49748 0.15264
 C269 C 1.08248 0.47796 0.20692
 C270 C 1.10461 0.47869 0.24473
 H271 H 1.17383 0.45531 0.34894
 H272 H 1.21651 0.54595 0.35304
 H273 H 1.12018 0.53318 0.09573
 H274 H 1.06131 0.46211 0.22058
 H275 H 1.17991 0.54493 0.27847
 H276 H 1.15886 0.53423 0.16154
 H277 H 1.13785 0.45461 0.27313
 H278 H 1.09987 0.46363 0.28700
 C279 C 0.50051 0.65640 0.26995
 C280 C 0.47489 0.65313 0.29381
 C281 C 0.47430 0.67332 0.33771
 C282 C 0.49933 0.69719 0.35866
 C283 C 0.52486 0.70087 0.33286
 C284 C 0.52543 0.68074 0.28900
 C285 C 0.50142 0.63403 0.22799
 C286 C 0.52199 0.62676 0.24232
 C287 C 0.52278 0.60546 0.20416
 C288 C 0.50299 0.59084 0.15064
 C289 C 0.48239 0.59811 0.13615
 C290 C 0.48160 0.61945 0.17449
 H291 H 0.45429 0.66983 0.35678
 H292 H 0.54451 0.71910 0.34760
 H293 H 0.53885 0.60036 0.21710
 H294 H 0.46680 0.58725 0.09535
 H295 H 0.54547 0.68412 0.27043
 H296 H 0.53724 0.63722 0.28408
 H297 H 0.45534 0.63450 0.28058
 H298 H 0.46562 0.62472 0.16186
 C299 C 0.34395 -0.15587 0.27083
 C300 C 0.31964 -0.15518 0.28966
 C301 C 0.29933 -0.17601 0.33294
 C302 C 0.30280 -0.19807 0.35839
 C303 C 0.32665 -0.19929 0.33766
 C304 C 0.34701 -0.17841 0.29432
 C305 C 0.36646 -0.13254 0.22933
 C306 C 0.38103 -0.13776 0.17578
 C307 C 0.40245 -0.11560 0.13770
 C308 C 0.40981 -0.08772 0.15249
 C309 C 0.39522 -0.08256 0.20611
 C310 C 0.37384 -0.10468 0.24402
 H311 H 0.28114 -0.17450 0.34755
 H312 H 0.32998 -0.21597 0.35647
 H313 H 0.41326 -0.12034 0.09679
 H314 H 0.40038 -0.06138 0.21921
 H315 H 0.36561 -0.17941 0.28123
 H316 H 0.37569 -0.15900 0.16287
 H317 H 0.31642 -0.13837 0.27135
 H318 H 0.36338 -0.09991 0.28581
 C319 C 0.84409 0.50281 0.26550
 C320 C 0.84461 0.52772 0.28452
 C321 C 0.82420 0.52714 0.32953
 C322 C 0.80269 0.50162 0.35651
 C323 C 0.80160 0.47659 0.33565
 C324 C 0.82209 0.47718 0.29065
 C325 C 0.86718 0.50375 0.22254
 C326 C 0.89502 0.52464 0.23538
 C327 C 0.91698 0.52522 0.19716
 C328 C 0.91172 0.50488 0.14509
 C329 C 0.88383 0.48412 0.13157
 C330 C 0.86181 0.48356 0.16996
 H331 H 0.82556 0.54679 0.34411
 H332 H 0.78533 0.45658 0.35557
 H333 H 0.93816 0.54144 0.20932
 H334 H 0.87901 0.46813 0.09184
 H335 H 0.82124 0.45765 0.27754
 H336 H 0.89994 0.54021 0.27634
 H337 H 0.86098 0.54776 0.26504
 H338 H 0.84057 0.46735 0.15835
 C339 C 0.49720 0.34119 0.26481
 C340 C 0.52282 0.34480 0.28998
 C341 C 0.52342 0.32492 0.33514
 C342 C 0.49842 0.30102 0.35613
 C343 C 0.47291 0.29699 0.32911
 C344 C 0.47232 0.31681 0.28395
 C345 C 0.49623 0.36333 0.22179
 C346 C 0.47539 0.37034 0.23477
 C347 C 0.47480 0.39173 0.19652
 C348 C 0.49507 0.40676 0.14429
 C349 C 0.51578 0.39957 0.13063
 C350 C 0.51637 0.37811 0.16905
 H351 H 0.54342 0.32866 0.35510
 H352 H 0.45328 0.27873 0.34380
 H353 H 0.45862 0.39675 0.20880
 H354 H 0.53173 0.41071 0.09078
 H355 H 0.45229 0.31316 0.26447
 H356 H 0.45987 0.35972 0.27587
 H357 H 0.54233 0.36348 0.27678
 H358 H 0.53254 0.37302 0.15737
 C359 C 0.65881 0.15588 0.26564
 C360 C 0.65517 0.17787 0.29084
 C361 C 0.67504 0.19836 0.33591
 C362 C 0.69897 0.19727 0.35678
 C363 C 0.70301 0.17579 0.32974
 C364 C 0.68321 0.15538 0.28466
 C365 C 0.63669 0.13279 0.22265
 C366 C 0.62977 0.10493 0.23545
 C367 C 0.60839 0.08295 0.19724
 C368 C 0.59329 0.08822 0.14522
 C369 C 0.60039 0.11613 0.13172
 C370 C 0.62185 0.13816 0.17010
 H371 H 0.67128 0.21461 0.35587
 H372 H 0.72129 0.17444 0.34433
 H373 H 0.60345 0.06176 0.20939
 H374 H 0.58921 0.12096 0.09204
 H375 H 0.68688 0.13902 0.26515
 H376 H 0.64044 0.10000 0.27639
 H377 H 0.63648 0.17870 0.27773
 H378 H 0.62687 0.15942 0.15852
 C379 C 0.49698 0.15598 -0.26615
 C380 C 0.52260 0.17836 -0.28991
 C381 C 0.52323 0.19887 -0.33504
 C382 C 0.49819 0.19740 -0.35789
 C383 C 0.47262 0.17547 -0.33191
 C384 C 0.47206 0.15513 -0.28660
 C385 C 0.49605 0.13286 -0.22317
 C386 C 0.47537 0.10497 -0.23657
 C387 C 0.47480 0.08298 -0.19838
 C388 C 0.49498 0.08824 -0.14586
 C389 C 0.51554 0.11616 -0.13178
 C390 C 0.51607 0.13822 -0.17007
 H391 H 0.54337 0.21540 -0.35355
 H392 H 0.45287 0.17367 -0.34735
 H393 H 0.45874 0.06177 -0.21099
 H394 H 0.53141 0.12099 -0.09170
 H395 H 0.45200 0.13851 -0.26802
 H396 H 0.45994 0.10002 -0.27796
 H397 H 0.54217 0.17951 -0.27564
 H398 H 0.53211 0.15949 -0.15799
 C399 C 0.65890 0.50306 -0.26712
 C400 C 0.65566 0.47742 -0.29079
 C401 C 0.67556 0.47679 -0.33576
 C402 C 0.69913 0.50185 -0.35855
 C403 C 0.70274 0.52744 -0.33273
 C404 C 0.68294 0.52800 -0.28757
 C405 C 0.63673 0.50399 -0.22413
 C406 C 0.62955 0.52471 -0.23746
 C407 C 0.60820 0.52531 -0.19913
 C408 C 0.59334 0.50514 -0.14652
 C409 C 0.60066 0.48453 -0.13256
 C410 C 0.62211 0.48396 -0.17099
 H411 H 0.67197 0.45664 -0.35417
 H412 H 0.72069 0.54721 -0.34815
 H413 H 0.60308 0.54141 -0.21166
 H414 H 0.58965 0.46865 -0.09244
 H415 H 0.68638 0.54808 -0.26909
 H416 H 0.64000 0.54015 -0.27886
 H417 H 0.63726 0.45783 -0.27655
 H418 H 0.62731 0.46788 -0.15896
 C419 C 0.84403 0.34101 -0.26648
 C420 C 0.82163 0.34425 -0.29016
 C421 C 0.80112 0.32435 -0.33515
 C422 C 0.80260 0.30077 -0.35793
 C423 C 0.82456 0.29714 -0.33204
 C424 C 0.84491 0.31695 -0.28687
 C425 C 0.86713 0.36322 -0.22361
 C426 C 0.89501 0.37043 -0.23707
 C427 C 0.91697 0.39183 -0.19891
 C428 C 0.91169 0.40672 -0.14633
 C429 C 0.88379 0.39936 -0.13221
 C430 C 0.86175 0.37785 -0.17048
 H431 H 0.78457 0.32794 -0.35360
 H432 H 0.82639 0.27919 -0.34745
 H433 H 0.93817 0.39697 -0.21154
 H434 H 0.87895 0.41038 -0.09209
 H435 H 0.86155 0.31351 -0.26837
 H436 H 0.89996 0.35997 -0.27847
 H437 H 0.82046 0.36267 -0.27594
 H438 H 0.84050 0.37263 -0.15835
 C439 C 0.50032 -0.15616 -0.27121
 C440 C 0.47474 -0.17907 -0.29316
 C441 C 0.47421 -0.20004 -0.33613
 C442 C 0.49931 -0.19855 -0.35849
 C443 C 0.52486 -0.17608 -0.33413
 C444 C 0.52532 -0.15523 -0.29109
 C445 C 0.50110 -0.13275 -0.23010
 C446 C 0.48154 -0.13790 -0.17598
 C447 C 0.48231 -0.11568 -0.13810
 C448 C 0.50264 -0.08780 -0.15362
 C449 C 0.52212 -0.08272 -0.20789
 C450 C 0.52135 -0.10489 -0.24563
 H451 H 0.45409 -0.21697 -0.35346
 H452 H 0.54466 -0.17421 -0.34932
 H453 H 0.46695 -0.12037 -0.09670
 H454 H 0.53798 -0.06155 -0.22158
 H455 H 0.54536 -0.13818 -0.27378
 H456 H 0.46582 -0.15913 -0.16238
 H457 H 0.45511 -0.18030 -0.27915
 H458 H 0.53638 -0.10017 -0.28789
 C459 C 0.34391 0.49993 -0.27238
 C460 C 0.31966 0.47491 -0.29137
 C461 C 0.29931 0.47540 -0.33453
 C462 C 0.30270 0.50093 -0.35970
 C463 C 0.32648 0.52603 -0.33874
 C464 C 0.34687 0.52554 -0.29550
 C465 C 0.36649 0.49914 -0.23118
 C466 C 0.37404 0.47884 -0.24652
 C467 C 0.39548 0.47813 -0.20884
 C468 C 0.40994 0.49771 -0.15480
 C469 C 0.40242 0.51807 -0.13940
 C470 C 0.38095 0.51880 -0.17727
 H471 H 0.28117 0.45569 -0.34932
 H472 H 0.32974 0.54605 -0.35732
 H473 H 0.40076 0.46223 -0.22239
 H474 H 0.41312 0.53349 -0.09814
 H475 H 0.36542 0.54515 -0.28224
 H476 H 0.36365 0.46373 -0.28860
 H477 H 0.31653 0.45488 -0.27332
 H478 H 0.37547 0.53456 -0.16389
 C479 C 1.15584 0.65626 -0.27190
 C480 C 1.17867 0.65348 -0.29396
 C481 C 1.19960 0.67386 -0.33714
 C482 C 1.19814 0.69750 -0.35959
 C483 C 1.17574 0.70068 -0.33514
 C484 C 1.15493 0.68036 -0.29189
 C485 C 1.13246 0.63368 -0.23061
 C486 C 1.10462 0.62611 -0.24606
 C487 C 1.08247 0.60471 -0.20827
 C488 C 1.08757 0.59028 -0.15402
 C489 C 1.11543 0.59780 -0.13853
 C490 C 1.13762 0.61925 -0.17647
 H491 H 1.21648 0.67060 -0.35452
 H492 H 1.17391 0.71865 -0.35040
 H493 H 1.06131 0.59942 -0.22192
 H494 H 1.12013 0.58712 -0.09714
 H495 H 1.13793 0.68341 -0.27452
 H496 H 1.09989 0.63644 -0.28832
 H497 H 1.17988 0.63507 -0.27985
 H498 H 1.15884 0.62474 -0.16292
 C499 C 0.84370 0.50301 -0.26375
 C500 C 0.82185 0.47736 -0.28915
 C501 C 0.80131 0.47669 -0.33405
 C502 C 0.80221 0.50167 -0.35451
 C503 C 0.82355 0.52721 -0.32720
 C504 C 0.84401 0.52786 -0.28229
 C505 C 0.86687 0.50405 -0.22110
 C506 C 0.89465 0.52501 -0.23423
 C507 C 0.91670 0.52566 -0.19630
 C508 C 0.91156 0.50532 -0.14430
 C509 C 0.88373 0.48450 -0.13050
 C510 C 0.86162 0.48386 -0.16858
 H511 H 0.78518 0.45668 -0.35432
 H512 H 0.82476 0.54682 -0.34154
 H513 H 0.93785 0.54192 -0.20866
 H514 H 0.87901 0.46850 -0.09082
 H515 H 0.86029 0.54790 -0.26261
 H516 H 0.89944 0.54057 -0.27520
 H517 H 0.82119 0.45787 -0.27640
 H518 H 0.84041 0.46761 -0.15683
 C519 C 0.49717 0.34092 -0.26425
 C520 C 0.47236 0.31624 -0.28202
 C521 C 0.47299 0.29640 -0.32684
 C522 C 0.49847 0.30071 -0.35479
 C523 C 0.52341 0.32491 -0.33508
 C524 C 0.52277 0.34482 -0.29030
 C525 C 0.49613 0.36306 -0.22172
 C526 C 0.51649 0.37821 -0.16981
 C527 C 0.51588 0.39972 -0.13189
 C528 C 0.49491 0.40657 -0.14526
 C529 C 0.47440 0.39118 -0.19664
 C530 C 0.47502 0.36972 -0.23440
 H531 H 0.45341 0.27789 -0.34057
 H532 H 0.54337 0.32887 -0.35587
 H533 H 0.53201 0.41115 -0.09268
 H534 H 0.45801 0.39593 -0.20858
 H535 H 0.54221 0.36374 -0.27815
 H536 H 0.53287 0.37338 -0.15842
 H537 H 0.45237 0.31240 -0.26179
 H538 H 0.45931 0.35879 -0.27487
 C539 C 0.65934 0.15626 -0.26325
 C540 C 0.68401 0.15613 -0.28105
 C541 C 0.70380 0.17659 -0.32601
 C542 C 0.69944 0.19773 -0.35410
 C543 C 0.67523 0.19847 -0.33437
 C544 C 0.65538 0.17793 -0.28944
 C545 C 0.63725 0.13309 -0.22058
 C546 C 0.62210 0.13832 -0.16871
 C547 C 0.60063 0.11619 -0.13070
 C548 C 0.59381 0.08836 -0.14394
 C549 C 0.60922 0.08324 -0.19525
 C550 C 0.63064 0.10531 -0.23310
 H551 H 0.72231 0.17552 -0.33976
 H552 H 0.67123 0.21445 -0.35527
 H553 H 0.58918 0.12090 -0.09157
 H554 H 0.60449 0.06209 -0.20712
 H555 H 0.63645 0.17844 -0.27729
 H556 H 0.62689 0.15952 -0.15745
 H557 H 0.68789 0.13999 -0.26072
 H558 H 0.64159 0.10053 -0.27355
 C559 C 1.15598 0.49973 -0.27028
 C560 C 1.15560 0.47479 -0.28820
 C561 C 1.17634 0.47534 -0.33176
 C562 C 1.19800 0.50086 -0.35830
 C563 C 1.19897 0.52590 -0.33831
 C564 C 1.17816 0.52534 -0.29475
 C565 C 1.13263 0.49883 -0.22899
 C566 C 1.13774 0.51882 -0.17607
 C567 C 1.11553 0.51809 -0.13841
 C568 C 1.08774 0.49739 -0.15306
 C569 C 1.08270 0.47744 -0.20603
 C570 C 1.10487 0.47816 -0.24349
 H571 H 1.17508 0.45569 -0.34578
 H572 H 1.21534 0.54590 -0.35802
 H573 H 1.12017 0.53380 -0.09800
 H574 H 1.06158 0.46129 -0.21896
 H575 H 1.17889 0.54488 -0.28235
 H576 H 1.15893 0.53487 -0.16338
 H577 H 1.13905 0.45478 -0.26909
 H578 H 1.10022 0.46279 -0.28484
 C579 C 0.50039 0.65692 -0.26979
 C580 C 0.52536 0.68113 -0.28909
 C581 C 0.52486 0.70145 -0.33238
 C582 C 0.49931 0.69815 -0.35744
 C583 C 0.47423 0.67443 -0.33551
 C584 C 0.47479 0.65403 -0.29238
 C585 C 0.50122 0.63431 -0.22879
 C586 C 0.48146 0.61960 -0.17528
 C587 C 0.48221 0.59807 -0.13772
 C588 C 0.50272 0.59076 -0.15297
 C589 C 0.52243 0.60548 -0.20655
 C590 C 0.52167 0.62695 -0.24399
 H591 H 0.54465 0.71951 -0.34722
 H592 H 0.45411 0.67108 -0.35342
 H593 H 0.46666 0.58713 -0.09686
 H594 H 0.53842 0.60034 -0.22001
 H595 H 0.45519 0.63551 -0.27883
 H596 H 0.46558 0.62491 -0.16197
 H597 H 0.54539 0.68427 -0.27124
 H598 H 0.53686 0.63750 -0.28581
 C599 C 0.34352 -0.15638 -0.26869
 C600 C 0.31897 -0.15599 -0.28633
 C601 C 0.29862 -0.17686 -0.32936
 C602 C 0.30234 -0.19864 -0.35565
 C603 C 0.32643 -0.19961 -0.33594
 C604 C 0.34682 -0.17868 -0.29290
 C605 C 0.36609 -0.13295 -0.22782
 C606 C 0.38103 -0.13801 -0.17496
 C607 C 0.40257 -0.11575 -0.13756
 C608 C 0.40965 -0.08794 -0.15238
 C609 C 0.39469 -0.08295 -0.20533
 C610 C 0.37318 -0.10518 -0.24256
 H611 H 0.28023 -0.17558 -0.34322
 H612 H 0.32995 -0.21607 -0.35551
 H613 H 0.41369 -0.12035 -0.09717
 H614 H 0.39965 -0.06182 -0.21841
 H615 H 0.36563 -0.17942 -0.28072
 H616 H 0.37591 -0.15920 -0.16210
 H617 H 0.31560 -0.13935 -0.26741
 H618 H 0.36241 -0.10056 -0.28387
 C619 C 0.50032 -0.15613 0.27015
 C620 C 0.47471 -0.17856 0.29378
 C621 C 0.47417 -0.19940 0.33734
 C622 C 0.49922 -0.19822 0.35812
 C623 C 0.52474 -0.17631 0.33241
 C624 C 0.52528 -0.15553 0.28890
 C625 C 0.50118 -0.13277 0.22879
 C626 C 0.52159 -0.10496 0.24389
 C627 C 0.52234 -0.08279 0.20621
 C628 C 0.50266 -0.08787 0.15245
 C629 C 0.48220 -0.11572 0.13726
 C630 C 0.48146 -0.13793 0.17512
 H631 H 0.45417 -0.21598 0.35637
 H632 H 0.54441 -0.17486 0.34708
 H633 H 0.53829 -0.06163 0.21962
 H634 H 0.46670 -0.12039 0.09623
 H635 H 0.54530 -0.13878 0.27045
 H636 H 0.53675 -0.10027 0.28584
 H637 H 0.45515 -0.17947 0.28070
 H638 H 0.46560 -0.15916 0.16198
 C639 C 0.34386 0.49998 0.26853
 C640 C 0.34676 0.52558 0.29133
 C641 C 0.32625 0.52606 0.33400
 C642 C 0.30243 0.50095 0.35471
 C643 C 0.29910 0.47542 0.32982
 C644 C 0.31956 0.47495 0.28720
 C645 C 0.36653 0.49923 0.22792
 C646 C 0.37411 0.47898 0.24381
 C647 C 0.39563 0.47829 0.20657
 C648 C 0.41012 0.49785 0.15246
 C649 C 0.40259 0.51817 0.13660
 C650 C 0.38105 0.51886 0.17402
 H651 H 0.32947 0.54607 0.35245
 H652 H 0.28093 0.45570 0.34450
 H653 H 0.40093 0.46243 0.22044
 H654 H 0.41333 0.53357 0.09529
 H655 H 0.31650 0.45493 0.26938
 H656 H 0.36368 0.46389 0.28595
 H657 H 0.36535 0.54520 0.27829
 H658 H 0.37554 0.53459 0.16027
 C659 C 1.15590 0.65620 0.26921
 C660 C 1.15528 0.68056 0.28793
 C661 C 1.17606 0.70081 0.33132
 C662 C 1.19799 0.69719 0.35693
 C663 C 1.19917 0.67330 0.33617
 C664 C 1.17834 0.65301 0.29274
 C665 C 1.13255 0.63371 0.22798
 C666 C 1.13771 0.61914 0.17430
 C667 C 1.11551 0.59768 0.13655
 C668 C 1.08768 0.59029 0.15185
 C669 C 1.08260 0.60488 0.20563
 C670 C 1.10476 0.62630 0.24321
 H671 H 1.17461 0.71904 0.34599
 H672 H 1.21576 0.66987 0.35515
 H673 H 1.12018 0.58685 0.09551
 H674 H 1.06146 0.59967 0.21913
 H675 H 1.17926 0.63436 0.27969
 H676 H 1.15892 0.62451 0.16107
 H677 H 1.13853 0.68384 0.26956
 H678 H 1.10008 0.63677 0.28518
 C679 C 0.49687 0.15589 0.26316
 C680 C 0.47205 0.15555 0.28192
 C681 C 0.47271 0.17586 0.32742
 C682 C 0.49823 0.19707 0.35508
 C683 C 0.52318 0.19801 0.33441
 C684 C 0.52250 0.17761 0.28894
 C685 C 0.49581 0.13283 0.22003
 C686 C 0.51604 0.13820 0.16760
 C687 C 0.51546 0.11616 0.12931
 C688 C 0.49467 0.08828 0.14283
 C689 C 0.47426 0.08302 0.19464
 C690 C 0.47485 0.10500 0.23277
 H691 H 0.45312 0.17464 0.34188
 H692 H 0.54318 0.21405 0.35490
 H693 H 0.53151 0.12097 0.08977
 H694 H 0.45801 0.06183 0.20676
 H695 H 0.54196 0.17829 0.27603
 H696 H 0.53230 0.15945 0.15616
 H697 H 0.45202 0.13936 0.26194
 H698 H 0.45926 0.10011 0.27365
 C699 C 0.65917 0.50325 0.26263
 C700 C 0.65524 0.47758 0.28846
 C701 C 0.67495 0.47688 0.33394
 C702 C 0.69896 0.50183 0.35459
 C703 C 0.70330 0.52739 0.32686
 C704 C 0.68367 0.52807 0.28135
 C705 C 0.63718 0.50434 0.21950
 C706 C 0.63038 0.52536 0.23216
 C707 C 0.60900 0.52598 0.19404
 C708 C 0.59380 0.50554 0.14232
 C709 C 0.60082 0.48470 0.12887
 C710 C 0.62227 0.48409 0.16715
 H711 H 0.67097 0.45686 0.35449
 H712 H 0.72167 0.54697 0.34130
 H713 H 0.60410 0.54227 0.20611
 H714 H 0.58954 0.46863 0.08940
 H715 H 0.68752 0.54813 0.26135
 H716 H 0.64111 0.54097 0.27298
 H717 H 0.63645 0.45812 0.27559
 H718 H 0.62721 0.46779 0.15574
 C719 C 0.84405 0.34098 0.26355
 C720 C 0.82226 0.34484 0.28913
 C721 C 0.80186 0.32509 0.33452
 C722 C 0.80285 0.30109 0.35530
 C723 C 0.82411 0.29682 0.32782
 C724 C 0.84444 0.31651 0.28241
 C725 C 0.86711 0.36301 0.22051
 C726 C 0.89492 0.36993 0.23350
 C727 C 0.91689 0.39131 0.19535
 C728 C 0.91163 0.40640 0.14325
 C729 C 0.88377 0.39928 0.12954
 C730 C 0.86174 0.37784 0.16786
 H731 H 0.78578 0.32901 0.35489
 H732 H 0.82538 0.27847 0.34239
 H733 H 0.93806 0.39627 0.20762
 H734 H 0.87898 0.41048 0.08979
 H735 H 0.86067 0.31271 0.26260
 H736 H 0.89980 0.35926 0.27456
 H737 H 0.82155 0.36362 0.27614
 H738 H 0.84051 0.37281 0.15624
   
