data_POSCAR
  _audit_creation_date              2014-09-24
  _audit_creation_method            'ToBaCCo'
  _symmetry_space_group_name_H-M    'P1'
  _symmetry_Int_Tables_number       1
  _symmetry_cell_setting            triclinic
  loop_
  _symmetry_equiv_pos_as_xyz
 x,y,z
_cell_length_a 32.0833
_cell_length_b 35.2312
_cell_length_c 34.8449
_cell_angle_alpha 97.291000
_cell_angle_beta 88.840600
_cell_angle_gamma 88.513800
loop_
  _atom_site_label
  _atom_site_type_symbol
  _atom_site_fract_x
  _atom_site_fract_y
  _atom_site_fract_z
C1 C 0.27842 0.46167 1.05117
 C2 C 0.26317 0.49600 1.03988
 C3 C 0.28954 0.52725 1.04022
 C4 C 0.33118 0.52457 1.05220
 C5 C 0.34622 0.48894 1.06191
 C6 C 0.31991 0.45770 1.06140
 C7 C 0.22021 0.49790 1.02565
 C8 C 0.18726 0.48344 1.04594
 C9 C 0.14717 0.48021 1.03033
 C10 C 0.14088 0.49196 0.99355
 C11 C 0.17334 0.50806 0.97383
 C12 C 0.21281 0.51099 0.99011
 H13 H 0.25849 0.43717 1.04986
 H14 H 0.27680 0.55375 1.03215
 H15 H 0.19373 0.47352 1.07341
 H16 H 0.23833 0.52190 0.97429
 H17 H 0.37838 0.48474 1.06941
 H18 H 0.11037 0.49075 0.98092
 C19 C 0.70418 0.46377 -0.00197
 C20 C 0.71035 0.50287 -0.00285
 C21 C 0.67659 0.52710 -0.00942
 C22 C 0.63656 0.51266 -0.01520
 C23 C 0.63059 0.47358 -0.01331
 C24 C 0.66432 0.44888 -0.00746
 C25 C 0.75288 0.51737 -0.00394
 C26 C 0.76719 0.53009 -0.03813
 C27 C 0.80817 0.54217 -0.04192
 C28 C 0.83422 0.54285 -0.00977
 C29 C 0.81944 0.53235 0.02568
 C30 C 0.77896 0.51834 0.02797
 H31 H 0.73061 0.44485 0.00157
 H32 H 0.68229 0.55685 -0.01195
 H33 H 0.74655 0.52813 -0.06244
 H34 H 0.76713 0.50955 0.05471
 H35 H 0.59998 0.46189 -0.01781
 H36 H 0.86578 0.55255 -0.01194
 C37 C 0.03072 0.23369 0.46711
 C38 C -0.00689 0.25160 0.48147
 C39 C -0.03790 0.22996 0.49631
 C40 C -0.03167 0.19071 0.49765
 C41 C 0.00609 0.17279 0.48320
 C42 C 0.03777 0.19423 0.46832
 C43 C -0.01125 0.29360 0.48903
 C44 C -0.02055 0.31624 0.45975
 C45 C -0.03118 0.35562 0.46926
 C46 C -0.02982 0.37180 0.50862
 C47 C -0.02009 0.34909 0.53770
 C48 C -0.01091 0.31022 0.52757
 H49 H 0.05539 0.25104 0.45771
 H50 H -0.06654 0.24428 0.50807
 H51 H -0.02219 0.30243 0.43027
 H52 H -0.00398 0.29235 0.54992
 H53 H 0.01129 0.14254 0.48476
 H54 H -0.03677 0.40188 0.51723
 C55 C 1.06878 0.77693 0.48832
 C56 C 1.03348 0.75571 0.47852
 C57 C 0.99908 0.77308 0.46330
 C58 C 0.99905 0.81218 0.45950
 C59 C 1.03469 0.83351 0.46934
 C60 C 1.07020 0.81605 0.48389
 C61 C 1.03055 0.71716 0.49011
 C62 C 1.03200 0.71325 0.52951
 C63 C 1.03001 0.67717 0.54240
 C64 C 1.02720 0.64471 0.51447
 C65 C 1.02700 0.64820 0.47468
 C66 C 1.02760 0.68477 0.46271
 H67 H 1.09486 0.76212 0.49950
 H68 H 0.97119 0.75684 0.45739
 H69 H 1.03338 0.73904 0.54985
 H70 H 1.02768 0.68804 0.43221
 H71 H 1.03380 0.86383 0.46688
 H72 H 1.02631 0.61645 0.52337
 C73 C 0.54867 0.02941 0.20031
 C74 C 0.54320 -0.00793 0.20886
 C75 C 0.54210 -0.03834 0.17881
 C76 C 0.54742 -0.03146 0.14017
 C77 C 0.55171 0.00630 0.13200
 C78 C 0.55225 0.03678 0.16201
 C79 C 0.53972 -0.01428 0.24964
 C80 C 0.50302 -0.02801 0.26457
 C81 C 0.49729 -0.02758 0.30471
 C82 C 0.52953 -0.01489 0.32960
 C83 C 0.56658 -0.00165 0.31456
 C84 C 0.57134 -0.00149 0.27463
 H85 H 0.54879 0.05290 0.22364
 H86 H 0.53875 -0.06727 0.18568
 H87 H 0.47791 -0.03620 0.24518
 H88 H 0.59960 0.00909 0.26272
 H89 H 0.55465 0.01211 0.10230
 H90 H 0.52530 -0.01415 0.36061
 C91 C 0.47096 0.00798 0.80731
 C92 C 0.47760 -0.02201 0.77743
 C93 C 0.47160 -0.05979 0.78441
 C94 C 0.45813 -0.06825 0.82121
 C95 C 0.45130 -0.03728 0.85102
 C96 C 0.45791 0.00072 0.84418
 C97 C 0.48877 -0.01359 0.73817
 C98 C 0.52721 -0.02621 0.72071
 C99 C 0.53771 -0.01836 0.68316
 C100 C 0.50825 0.00114 0.66270
 C101 C 0.46953 0.01375 0.68010
 C102 C 0.46045 0.00686 0.71806
 H103 H 0.47519 0.03716 0.80150
 H104 H 0.47761 -0.08209 0.76056
 H105 H 0.54921 -0.04110 0.73707
 H106 H 0.43052 0.01605 0.73157
 H107 H 0.44073 -0.04229 0.87956
 H108 H 0.51534 0.00660 0.63341
 C109 C 0.33274 0.02724 0.43302
 H110 H 0.33365 0.05467 0.45087
 C111 C 0.36389 0.01669 0.40492
 H112 H 0.38815 0.03663 0.40074
 C113 C 0.30053 -0.03242 0.41792
 H114 H 0.27664 -0.05199 0.42398
 C115 C 0.33090 -0.04402 0.38923
 H116 H 0.32970 -0.07238 0.37327
 N117 N 0.30212 0.00264 0.43922
 C118 C 0.20125 0.06976 0.50362
 H119 H 0.20021 0.05586 0.52957
 C120 C 0.17063 0.09725 0.49783
 H121 H 0.14669 0.10490 0.51998
 C122 C 0.23312 0.07550 0.44279
 H123 H 0.25671 0.06603 0.42085
 C124 C 0.20326 0.10331 0.43593
 H125 H 0.20459 0.11508 0.40874
 Zn126 Zn 0.26656 0.01661 0.48286
 N127 N 0.23146 0.05921 0.47613
 C128 C 0.30100 0.06027 0.54948
 N129 N 0.30233 0.02671 0.52539
 C130 C 0.33160 -0.00108 0.52922
 C131 C 0.36055 0.00385 0.55864
 C132 C 0.32941 0.06639 0.57949
 C133 C 0.20193 -0.03370 0.46335
 C134 C 0.17538 -0.06387 0.46722
 C135 C 0.20876 -0.07282 0.52708
 C136 C 0.23445 -0.04239 0.52220
 N137 N 0.23123 -0.02407 0.49028
 H138 H 0.27810 0.08236 0.54537
 H139 H 0.33237 -0.02726 0.50926
 H140 H 0.38292 -0.01910 0.56132
 H141 H 0.32783 0.09334 0.59824
 H142 H 0.19962 -0.01821 0.43855
 H143 H 0.15305 -0.07180 0.44495
 H144 H 0.21207 -0.08716 0.55258
 H145 H 0.25703 -0.03360 0.54387
 C146 C 0.17107 0.11412 0.46340
 C147 C 0.36349 -0.01956 0.38291
 C148 C 0.17915 -0.08424 0.49913
 C149 C 0.35962 0.03785 0.58451
 C150 C 0.70827 0.01475 0.56478
 H151 H 0.70885 0.04095 0.55162
 C152 C 0.67662 0.00953 0.59157
 H153 H 0.65371 0.03238 0.59955
 C154 C 0.73661 -0.04735 0.56870
 H155 H 0.75910 -0.06996 0.55856
 C156 C 0.70553 -0.05375 0.59571
 H157 H 0.70499 -0.08130 0.60626
 N158 N 0.73712 -0.01365 0.55356
 C159 C 0.83477 0.03799 0.48986
 H160 H 0.83430 0.01805 0.46357
 C161 C 0.86266 0.06781 0.49284
 H162 H 0.88314 0.07071 0.46841
 C163 C 0.80759 0.05828 0.55307
 H164 H 0.78627 0.05415 0.57650
 C165 C 0.83505 0.08868 0.55731
 H166 H 0.83448 0.10764 0.58428
 Zn167 Zn 0.77164 -0.00749 0.51021
 N168 N 0.80756 0.03411 0.51943
 C169 C 0.73506 0.03492 0.45539
 N170 N 0.73498 0.00122 0.47052
 C171 C 0.70667 -0.02587 0.45963
 C172 C 0.67777 -0.02014 0.43139
 C173 C 0.70664 0.04192 0.42723
 C174 C 0.83759 -0.05851 0.51900
 C175 C 0.86893 -0.08587 0.50681
 C176 C 0.83568 -0.09787 0.44504
 C177 C 0.80517 -0.07002 0.45829
 N178 N 0.80677 -0.05088 0.49466
 H179 H 0.75673 0.05671 0.46550
 H180 H 0.70670 -0.05203 0.47289
 H181 H 0.65617 -0.04249 0.42262
 H182 H 0.70720 0.06912 0.41599
 H183 H 0.83862 -0.04225 0.54746
 H184 H 0.89337 -0.09121 0.52655
 H185 H 0.83440 -0.11202 0.41567
 H186 H 0.78132 -0.06269 0.43887
 C187 C 0.86277 0.09400 0.52672
 C188 C 0.67447 -0.02536 0.60695
 C189 C 0.86847 -0.10564 0.46919
 C190 C 0.67774 0.01404 0.41456
 C191 C 0.48289 0.18030 1.05960
 H192 H 0.45398 0.17702 1.04424
 C193 C 0.49382 0.15483 1.08537
 H194 H 0.47285 0.13222 1.09021
 C195 C 0.54621 0.21284 1.07063
 H196 H 0.56721 0.23458 1.06372
 C197 C 0.55803 0.18837 1.09724
 H198 H 0.58798 0.19166 1.11085
 N199 N 0.50933 0.20814 1.05225
 C200 C 0.44042 0.29482 1.00040
 H201 H 0.45642 0.29253 0.97253
 C202 C 0.41311 0.32581 1.01197
 H203 H 0.40731 0.34674 0.99235
 C204 C 0.43043 0.27125 1.06060
 H205 H 0.43863 0.25083 1.08005
 C206 C 0.40230 0.30146 1.07308
 H207 H 0.38856 0.30364 1.10194
 Zn208 Zn 0.49539 0.23525 1.01107
 N209 N 0.44922 0.26884 1.02499
 C210 C 0.44228 0.19046 0.96205
 N211 N 0.48305 0.19723 0.96965
 C212 C 0.51379 0.17163 0.95541
 C213 C 0.50391 0.13720 0.93334
 C214 C 0.43097 0.15590 0.94108
 C215 C 0.54334 0.29708 1.02924
 C216 C 0.57284 0.32469 1.02577
 C217 C 0.59596 0.28953 0.96463
 C218 C 0.56516 0.26275 0.96890
 N219 N 0.53978 0.26702 1.00103
 H220 H 0.41826 0.21050 0.97482
 H221 H 0.54574 0.17668 0.96344
 H222 H 0.52860 0.11648 0.92356
 H223 H 0.39828 0.15014 0.93685
 H224 H 0.52268 0.29982 1.05441
 H225 H 0.57481 0.34856 1.04846
 H226 H 0.61576 0.28627 0.93882
 H227 H 0.56130 0.23907 0.94646
 C228 C 0.39427 0.32973 1.04900
 C229 C 0.53209 0.15841 1.10400
 C230 C 0.59947 0.32117 0.99315
 C231 C 0.46195 0.12847 0.92725
 C232 C 0.42635 0.79671 -0.05142
 H233 H 0.41342 0.80504 -0.02258
 C234 C 0.42285 0.82190 -0.07930
 H235 H 0.40614 0.84904 -0.07204
 C236 C 0.46712 0.75283 -0.09482
 H237 H 0.48672 0.72726 -0.10015
 C238 C 0.46362 0.77673 -0.12374
 H239 H 0.47985 0.76847 -0.15117
 N240 N 0.44916 0.76338 -0.05924
 C241 C 0.43508 0.70778 0.04564
 H242 H 0.46037 0.72265 0.06037
 C243 C 0.41871 0.67650 0.06084
 H244 H 0.42991 0.66951 0.08826
 C245 C 0.39460 0.69537 -0.01041
 H246 H 0.38796 0.70098 -0.03951
 C247 C 0.37754 0.66341 0.00373
 H248 H 0.35688 0.64547 -0.01430
 Zn249 Zn 0.46646 0.73949 -0.01606
 N250 N 0.42386 0.71606 0.01013
 C251 C 0.47104 0.79801 0.04788
 N252 N 0.49169 0.77883 0.01651
 C253 C 0.52827 0.79144 0.00324
 C254 C 0.54571 0.82444 0.02178
 C255 C 0.48741 0.83123 0.06735
 C256 C 0.49036 0.66876 -0.05569
 C257 C 0.51045 0.63288 -0.05977
 C258 C 0.55986 0.65769 -0.01225
 C259 C 0.53889 0.69325 -0.00922
 N260 N 0.50441 0.69794 -0.03039
 H261 H 0.44083 0.78876 0.05663
 H262 H 0.54320 0.77646 -0.02265
 H263 H 0.57477 0.83390 0.01048
 H264 H 0.46982 0.84674 0.09146
 H265 H 0.46190 0.67267 -0.07102
 H266 H 0.49796 0.61014 -0.07961
 H267 H 0.58594 0.65423 0.00630
 H268 H 0.54835 0.71609 0.01221
 C269 C 0.39140 0.65259 0.03892
 C270 C 0.44245 0.81235 -0.11575
 C271 C 0.54484 0.62655 -0.03687
 C272 C 0.52482 0.84524 0.05382
 C273 C 1.00004 0.43091 0.17977
 H274 H 0.97192 0.41523 0.18308
 C275 C 1.02204 0.42599 0.14439
 H276 H 1.01130 0.40564 0.12102
 C277 C 1.04558 0.47935 0.20490
 H278 H 1.05288 0.50206 0.22737
 C279 C 1.06884 0.47495 0.17022
 H280 H 1.09440 0.49384 0.16707
 N281 N 1.01122 0.45818 0.20861
 C282 C 0.91515 0.44542 0.29584
 H283 H 0.89393 0.46757 0.28842
 C284 C 0.90915 0.43040 0.33069
 H285 H 0.88213 0.43997 0.34881
 C286 C 0.97907 0.41031 0.28396
 H287 H 1.00794 0.40512 0.26731
 C288 C 0.97418 0.39444 0.31865
 H289 H 0.99892 0.37629 0.32763
 Zn290 Zn 0.96954 0.47549 0.24625
 N291 N 0.95051 0.43645 0.27412
 C292 C 0.89956 0.47516 0.19720
 N293 N 0.92800 0.49739 0.21716
 C294 C 0.93656 0.53265 0.20767
 C295 C 0.91694 0.54663 0.17685
 C296 C 0.87966 0.48783 0.16542
 C297 C 1.02530 0.50091 0.30306
 C298 C 1.03798 0.52150 0.33746
 C299 C 0.97858 0.56465 0.33532
 C300 C 0.96678 0.54297 0.30104
 N301 N 0.99023 0.51179 0.28557
 H302 H 0.89481 0.44642 0.20392
 H303 H 0.96110 0.54890 0.22212
 H304 H 0.92519 0.57458 0.17003
 H305 H 0.85900 0.46882 0.14860
 H306 H 1.04243 0.47511 0.29116
 H307 H 1.06567 0.51191 0.35108
 H308 H 0.95880 0.58857 0.34787
 H309 H 0.93759 0.54978 0.28819
 C310 C 0.94003 0.40629 0.34352
 C311 C 1.05594 0.44924 0.13885
 C312 C 1.01405 0.55336 0.35441
 C313 C 0.88954 0.52350 0.15398
 C314 C -0.03618 0.52461 0.81995
 H315 H -0.01129 0.50380 0.82235
 C316 C -0.06846 0.52945 0.84756
 H317 H -0.06852 0.51176 0.87079
 C318 C -0.06623 0.57256 0.78629
 H319 H -0.06480 0.58964 0.76268
 C320 C -0.09968 0.57784 0.81298
 H321 H -0.12407 0.59888 0.80956
 N322 N -0.03564 0.54592 0.79006
 C323 C 0.03318 0.48529 0.69204
 H324 H 0.05801 0.50493 0.68887
 C325 C 0.02653 0.45536 0.66267
 H326 H 0.04698 0.45151 0.63729
 C327 C -0.02501 0.46761 0.72815
 H328 H -0.04596 0.47331 0.75299
 C329 C -0.03223 0.43687 0.69989
 H330 H -0.05852 0.41892 0.70356
 Zn331 Zn 0.01147 0.53769 0.75664
 N332 N 0.00707 0.49123 0.72361
 C333 C 0.07873 0.50351 0.79268
 N334 N 0.05747 0.53678 0.78926
 C335 C 0.06378 0.56925 0.81376
 C336 C 0.09291 0.56932 0.84283
 C337 C 0.10710 0.50196 0.82244
 C338 C -0.01301 0.57601 0.69578
 C339 C -0.00954 0.60056 0.66757
 C340 C 0.05182 0.62662 0.69899
 C341 C 0.04783 0.60085 0.72600
 N342 N 0.01559 0.57639 0.72409
 H343 H 0.07206 0.47777 0.77368
 H344 H 0.04498 0.59478 0.81156
 H345 H 0.09712 0.59522 0.86253
 H346 H 0.12288 0.47511 0.82596
 H347 H -0.03782 0.55569 0.69446
 H348 H -0.03214 0.59953 0.64483
 H349 H 0.07792 0.64560 0.70052
 H350 H 0.07124 0.59979 0.74764
 C351 C -0.00683 0.43101 0.66629
 C352 C -0.10084 0.55618 0.84411
 C353 C 0.02327 0.62614 0.66906
 C354 C 0.11413 0.53520 0.84787
 N355 N 0.14143 0.16821 0.43089
 N356 N 0.10641 0.18898 0.43195
 C357 C 0.07937 0.17639 0.45729
 C358 C 0.09824 0.14630 0.47314
 C359 C 0.13773 0.14206 0.45579
 H360 H 0.08531 0.13033 0.49489
 H361 H 0.16760 0.17272 0.41394
 H362 H 0.10144 0.21145 0.41556
 N363 N 0.54372 0.55487 -0.05044
 N364 N 0.56724 0.52511 -0.04404
 C365 C 0.60191 0.53773 -0.02587
 C366 C 0.60022 0.57747 -0.02066
 C367 C 0.56282 0.58731 -0.03666
 H368 H 0.62295 0.59652 -0.00697
 H369 H 0.51477 0.55247 -0.06351
 H370 H 0.55952 0.49676 -0.05270
 N371 N 0.89762 -0.16370 0.42726
 N372 N 0.93231 -0.18502 0.42424
 C373 C 0.95990 -0.16892 0.44957
 C374 C 0.94189 -0.13600 0.46977
 C375 C 0.90213 -0.13386 0.45506
 H376 H 0.95507 -0.11767 0.49347
 H377 H 0.87081 -0.17073 0.41174
 H378 H 0.93636 -0.21084 0.40603
 N379 N 0.33440 0.36325 1.08751
 N380 N 0.31511 0.39716 1.09112
 C381 C 0.33567 0.41990 1.06933
 C382 C 0.36926 0.39951 1.05067
 C383 C 0.36716 0.36351 1.06272
 H384 H 0.39074 0.40897 1.02975
 H385 H 0.32403 0.34000 1.10054
 H386 H 0.28764 0.40415 1.10737
 N387 N 0.88367 0.15982 0.55402
 N388 N 0.91111 0.18519 0.54613
 C389 C 0.93604 0.16959 0.51636
 C390 C 0.92409 0.13245 0.50496
 C391 C 0.89031 0.12740 0.52935
 H392 H 0.93709 0.11273 0.48115
 H393 H 0.85993 0.16552 0.57504
 H394 H 0.91221 0.21290 0.56078
 N395 N 0.40991 0.59473 0.07009
 N396 N 0.39399 0.55872 0.07264
 C397 C 0.35704 0.55671 0.05469
 C398 C 0.34908 0.59146 0.04024
 C399 C 0.38282 0.61432 0.05042
 H400 H 0.32277 0.59916 0.02362
 H401 H 0.43904 0.60341 0.08010
 H402 H 0.40853 0.53833 0.08748
 N403 N 0.16690 -0.14765 0.52100
 N404 N 0.13704 -0.17568 0.51615
 C405 C 0.10595 -0.16297 0.49496
 C406 C 0.11564 -0.12663 0.48607
 C407 C 0.15401 -0.11831 0.50260
 H408 H 0.09780 -0.10879 0.46894
 H409 H 0.19503 -0.15053 0.53504
 H410 H 0.13911 -0.20102 0.52863
 N411 N 0.66748 0.34630 0.97189
 N412 N 0.68504 0.37998 0.97292
 C413 C 0.65806 0.40728 0.99001
 C414 C 0.62205 0.39020 1.00065
 C415 C 0.62923 0.35159 0.98867
 H416 H 0.59402 0.40403 1.01421
 H417 H 0.68155 0.32033 0.95986
 H418 H 0.71438 0.38415 0.96088
 N419 N 0.56951 0.13670 1.15999
 N420 N 0.57484 0.10451 1.17530
 C421 C 0.55507 0.07647 1.15349
 C422 C 0.53605 0.09140 1.12332
 C423 C 0.54571 0.12969 1.12860
 H424 H 0.51730 0.07656 1.10101
 H425 H 0.58132 0.16299 1.17141
 H426 H 0.59180 0.10197 1.20016
 N427 N 0.04227 0.68724 0.64526
 N428 N 0.04359 0.70164 0.60983
 C429 C 0.03138 0.67381 0.58228
 C430 C 0.02155 0.64169 0.59978
 C431 C 0.02861 0.65132 0.63885
 H432 H 0.01061 0.61455 0.58624
 H433 H 0.05026 0.70230 0.67173
 H434 H 0.05473 0.72856 0.60630
 N435 N 0.44843 0.82975 -0.18287
 N436 N 0.45352 0.86285 -0.20028
 C437 C 0.45190 0.89326 -0.17227
 C438 C 0.44494 0.87977 -0.13664
 C439 C 0.44355 0.84003 -0.14451
 H440 H 0.44376 0.89618 -0.10821
 H441 H 0.44914 0.80204 -0.19768
 H442 H 0.45745 0.86258 -0.23008
 N443 N 0.92447 0.42506 0.41370
 N444 N 0.93419 0.41202 0.44862
 C445 C 0.95498 0.37799 0.44067
 C446 C 0.95901 0.36901 0.40040
 C447 C 0.93972 0.39925 0.38468
 H448 H 0.97504 0.34440 0.38441
 H449 H 0.91022 0.45162 0.41136
 H450 H 0.92468 0.42630 0.47555
 N451 N 0.56541 0.90472 0.05229
 N452 N 0.57079 0.93726 0.07468
 C453 C 0.54947 0.93661 0.10829
 C454 C 0.52974 0.90199 0.10728
 C455 C 0.54046 0.88258 0.07110
 H456 H 0.50963 0.89274 0.12938
 H457 H 0.57777 0.89864 0.02417
 H458 H 0.58888 0.95937 0.06680
 N459 N -0.03270 0.36663 0.64107
 N460 N -0.03615 0.34528 0.60738
 C461 C -0.02187 0.36473 0.57913
 C462 C -0.00845 0.40006 0.59564
 C463 C -0.01571 0.40001 0.63510
 H464 H 0.00494 0.42239 0.58107
 H465 H -0.04127 0.35800 0.66764
 H466 H -0.04843 0.31792 0.60397
 N467 N 0.41781 0.07053 0.92111
 N468 N 0.41766 0.03637 0.90039
 C469 C 0.44999 0.03336 0.87482
 C470 C 0.47195 0.06702 0.87982
 C471 C 0.45048 0.08987 0.90942
 H472 H 0.49938 0.07405 0.86387
 H473 H 0.39613 0.08010 0.94321
 H474 H 0.39513 0.01596 0.90318
 N475 N 1.04438 0.55538 0.42011
 N476 N 1.04693 0.57991 0.45185
 C477 C 1.02870 0.61349 0.44586
 C478 C 1.01382 0.61007 0.40849
 C479 C 1.02439 0.57269 0.39312
 H480 H 0.99753 0.63166 0.39455
 H481 H 1.05557 0.52705 0.41754
 H482 H 1.06162 0.57365 0.47687
 N483 N 1.05247 0.44443 0.06686
 N484 N 1.07731 0.45467 0.03670
 C485 C 1.11424 0.46602 0.05145
 C486 C 1.11344 0.46310 0.09102
 C487 C 1.07430 0.45011 0.09961
 H488 H 1.13714 0.47170 0.11172
 H489 H 1.02126 0.43701 0.06432
 H490 H 1.06789 0.45312 0.00807
 N491 N 0.63978 -0.06006 0.65707
 N492 N 0.60393 -0.05846 0.67665
 C493 C 0.57962 -0.02997 0.66600
 C494 C 0.60122 -0.01270 0.63828
 C495 C 0.63943 -0.03253 0.63348
 H496 H 0.59071 0.01123 0.62402
 H497 H 0.66410 -0.07949 0.66055
 H498 H 0.59651 -0.07691 0.69681
 N499 N -0.17616 0.56637 0.86206
 N500 N -0.20180 0.56123 0.89365
 C501 C -0.17718 0.55229 0.92244
 C502 C -0.13574 0.55185 0.90983
 C503 C -0.13651 0.55993 0.87186
 H504 H -0.10854 0.54388 0.92516
 H505 H -0.18680 0.57111 0.83490
 H506 H -0.23423 0.56443 0.89393
 N507 N 0.39362 -0.05823 0.32283
 N508 N 0.42898 -0.06062 0.30241
 C509 C 0.45614 -0.03634 0.32062
 C510 C 0.43714 -0.01759 0.35398
 C511 C 0.39736 -0.03200 0.35422
 H512 H 0.45001 0.00457 0.37432
 H513 H 0.36710 -0.07343 0.31447
 H514 H 0.43397 -0.07819 0.27616
 N515 N 0.16884 0.56120 0.89269
 N516 N 0.18431 0.55407 0.92595
 C517 C 0.16622 0.52277 0.93661
 C518 C 0.13853 0.50899 0.90851
 C519 C 0.14124 0.53420 0.88121
 H520 H 0.11795 0.48514 0.90870
 H521 H 0.17646 0.58466 0.87863
 H522 H 0.20559 0.57137 0.94171
 N523 N 0.65411 0.04616 0.35839
 N524 N 0.62487 0.04204 0.33224
 C525 C 0.60001 0.01360 0.33998
 C526 C 0.61382 -0.00090 0.37269
 C527 C 0.64863 0.02031 0.38336
 H528 H 0.60135 -0.02469 0.38557
 H529 H 0.67815 0.06548 0.35783
 H530 H 0.62261 0.05818 0.30917
 N531 N 0.89331 0.56264 0.09879
 N532 N 0.87566 0.56438 0.06519
 C533 C 0.84583 0.53811 0.06038
 C534 C 0.84432 0.51886 0.09289
 C535 C 0.87519 0.53527 0.11668
 H536 H 0.82421 0.49577 0.09804
 H537 H 0.91818 0.57955 0.10837
 H538 H 0.88400 0.58371 0.04621
 N539 N 0.38204 0.06712 0.65001
 N540 N 0.41105 0.06087 0.67503
 C541 C 0.43744 0.03277 0.65872
 C542 C 0.42466 0.02060 0.62156
 C543 C 0.38893 0.04281 0.61720
 H544 H 0.43795 -0.00293 0.60175
 H545 H 0.35684 0.08636 0.65643
 H546 H 0.41177 0.07482 0.70330
   
