data_POSCAR
  _audit_creation_date              2014-09-24
  _audit_creation_method            'ToBaCCo'
  _symmetry_space_group_name_H-M    'P1'
  _symmetry_Int_Tables_number       1
  _symmetry_cell_setting            triclinic
  loop_
  _symmetry_equiv_pos_as_xyz
 x,y,z
_cell_length_a 19.1024
_cell_length_b 19.2432
_cell_length_c 49.1725
_cell_angle_alpha 91.217700
_cell_angle_beta 89.778500
_cell_angle_gamma 121.543900
loop_
  _atom_site_label
  _atom_site_type_symbol
  _atom_site_fract_x
  _atom_site_fract_y
  _atom_site_fract_z
Si1 Si 0.06766 0.00239 0.50452
 Si2 Si 0.98950 0.04317 0.16444
 Si3 Si -0.04437 0.95820 0.83101
 O4 O 0.43720 0.07501 0.02101
 O5 O 0.57690 0.06555 -0.02930
 O6 O 0.44716 0.07933 -0.03174
 O7 O 0.58011 0.08766 0.02318
 O8 O 0.51034 -0.04689 0.02457
 O9 O 0.37481 -0.05525 -0.03063
 O10 O 0.50309 -0.06898 -0.02796
 O11 O 0.36741 -0.05950 0.02259
 Cu12 Cu 0.51727 0.09008 -0.00439
 Cu13 Cu 0.43176 -0.07081 -0.00268
 C14 C 0.37842 0.00868 0.03036
 C15 C 0.56350 -0.00409 -0.03702
 C16 C 0.38819 0.01134 -0.04045
 C17 C 0.56872 0.02243 0.03314
 O18 O -0.05923 0.51155 0.63940
 O19 O -0.08248 0.36378 0.69116
 O20 O -0.09961 0.49115 0.69053
 O21 O -0.06943 0.37104 0.63858
 O22 O 0.06434 0.44148 0.64658
 O23 O 0.03354 0.56264 0.69958
 O24 O 0.05132 0.43781 0.69894
 O25 O 0.07422 0.58299 0.64783
 Cu26 Cu -0.09079 0.42759 0.66421
 Cu27 Cu 0.06897 0.51375 0.67390
 C28 C 0.01221 0.57252 0.63484
 C29 C -0.01844 0.37559 0.70354
 C30 C -0.03907 0.54707 0.70388
 C31 C 0.00179 0.38468 0.63384
 O32 O 0.43882 0.47291 0.36551
 O33 O 0.55913 0.62013 0.31188
 O34 O 0.41274 0.48616 0.31393
 O35 O 0.56865 0.61795 0.36429
 O36 O 0.63599 0.55484 0.35663
 O37 O 0.47987 0.42385 0.30450
 O38 O 0.62452 0.55507 0.30419
 O39 O 0.50290 0.40752 0.35614
 Cu40 Cu 0.48778 0.55499 0.33957
 Cu41 Cu 0.56676 0.47847 0.32971
 C42 C 0.45117 0.41516 0.36994
 C43 C 0.61355 0.61297 0.29925
 C44 C 0.41977 0.43358 0.30034
 C45 C 0.62907 0.60989 0.36898
 C46 C 0.03074 0.17027 0.56116
 N47 N 0.09795 0.16400 0.56300
 N48 N 0.10610 0.11281 0.54667
 C49 C 0.04763 0.06611 0.52783
 N50 N -0.02011 0.07169 0.52593
 N51 N -0.02858 0.12276 0.54246
 C52 C 0.02360 0.22793 0.57921
 N53 N -0.04785 0.22681 0.58104
 N54 N -0.05418 0.27783 0.59817
 C55 C 0.01082 0.33223 0.61388
 N56 N 0.08249 0.33389 0.61184
 N57 N 0.08865 0.28255 0.59484
 C58 C 0.82584 0.84860 0.22446
 N59 N 0.87526 0.83586 0.20777
 N60 N 0.92523 0.89277 0.19035
 C61 C 0.92769 0.96440 0.18932
 N62 N 0.87883 0.97713 0.20608
 N63 N 0.82885 0.92039 0.22334
 C64 C 0.76935 0.78622 0.24339
 N65 N 0.71539 0.79743 0.25802
 N66 N 0.66460 0.74175 0.27553
 C67 C 0.66608 0.67281 0.27904
 N68 N 0.71987 0.66149 0.26434
 N69 N 0.77042 0.71702 0.24676
 C70 C 0.17190 0.00394 -0.12000
 N71 N 0.14726 0.05869 -0.11898
 N72 N 0.08577 0.04844 -0.13482
 C73 C 0.04755 -0.01641 -0.15241
 N74 N 0.07420 -0.06924 -0.15395
 N75 N 0.13494 -0.05952 -0.13805
 C76 C 0.23157 0.00791 -0.10032
 N77 N 0.23465 -0.05977 -0.09560
 N78 N 0.28475 -0.05878 -0.07662
 C79 C 0.33425 0.01028 -0.06183
 N80 N 0.33188 0.07827 -0.06674
 N81 N 0.28101 0.07700 -0.08550
 C82 C 0.05309 0.80882 0.55975
 N83 N 0.12780 0.86761 0.55040
 N84 N 0.13425 0.92495 0.53387
 C85 C 0.06606 0.92526 0.52641
 N86 N -0.00801 0.86681 0.53582
 N87 N -0.01450 0.80956 0.55208
 C88 C 0.04384 0.74595 0.57840
 N89 N -0.03253 0.68412 0.58500
 N90 N -0.04262 0.62823 0.60269
 C91 C 0.02339 0.63235 0.61457
 N92 N 0.09990 0.69400 0.60792
 N93 N 0.11002 0.74979 0.59010
 C94 C 0.18199 0.24358 0.21960
 N95 N 0.20340 0.21323 0.19822
 N96 N 0.14662 0.15950 0.18091
 C97 C 0.06628 0.13407 0.18420
 N98 N 0.04458 0.16538 0.20531
 N99 N 0.10167 0.21978 0.22262
 C100 C 0.24418 0.29521 0.24021
 N101 N 0.22889 0.33672 0.25959
 N102 N 0.28504 0.38095 0.27872
 C103 C 0.35785 0.38423 0.27940
 N104 N 0.37295 0.34249 0.26009
 N105 N 0.31720 0.29897 0.24082
 C106 C 0.78046 -0.03236 -0.10830
 N107 N 0.85557 0.03401 -0.11300
 N108 N 0.90697 0.02908 -0.13010
 C109 C 0.88541 -0.04226 -0.14312
 N110 N 0.81049 -0.10910 -0.13840
 N111 N 0.75897 -0.10427 -0.12114
 C112 C 0.72340 -0.02516 -0.09004
 N113 N 0.65120 -0.09206 -0.08292
 N114 N 0.60008 -0.08492 -0.06623
 C115 C 0.61889 -0.01066 -0.05623
 N116 N 0.69087 0.05631 -0.06347
 N117 N 0.74218 0.04912 -0.08006
 C118 C 0.15485 0.01530 0.10422
 N119 N 0.10887 -0.04625 0.12161
 N120 N 0.05819 -0.04082 0.13914
 C121 C 0.05156 0.02607 0.13955
 N122 N 0.09658 0.08661 0.12196
 N123 N 0.14734 0.08149 0.10467
 C124 C 0.21347 0.01276 0.08547
 N125 N 0.26863 0.08120 0.07227
 N126 N 0.32191 0.08022 0.05498
 C127 C 0.32166 0.01050 0.05012
 N128 N 0.26650 -0.05809 0.06331
 N129 N 0.21354 -0.05695 0.08078
 C130 C 0.87288 0.83503 0.44251
 N131 N 0.86000 0.88554 0.45866
 N132 N 0.91738 0.93703 0.47644
 C133 C 0.98970 0.94000 0.47842
 N134 N 1.00269 0.89013 0.46216
 N135 N 0.94546 0.83866 0.44450
 C136 C 0.80919 0.77601 0.42358
 N137 N 0.82022 0.72111 0.40939
 N138 N 0.76257 0.66723 0.39221
 C139 C 0.69177 0.66642 0.38862
 N140 N 0.68075 0.72125 0.40284
 N141 N 0.73824 0.77489 0.42007
 C142 C -0.02986 0.14296 0.77450
 N143 N 0.03916 0.15649 0.78744
 N144 N 0.03631 0.10102 0.80400
 C145 C -0.03569 0.03005 0.80801
 N146 N -0.10437 0.01654 0.79503
 N147 N -0.10156 0.07182 0.77853
 C148 C -0.02760 0.20411 0.75654
 N149 N -0.09705 0.19027 0.74387
 N150 N -0.09495 0.24527 0.72729
 C151 C -0.02323 0.31622 0.72289
 N152 N 0.04602 0.33011 0.73566
 N153 N 0.04391 0.27521 0.75222
 C154 C 0.79603 0.04181 0.11056
 N155 N 0.79445 -0.02748 0.11632
 N156 N 0.85133 -0.02513 0.13243
 C157 C 0.91172 0.04635 0.14353
 N158 N 0.91362 0.11613 0.13802
 N159 N 0.85662 0.11385 0.12169
 C160 C 0.73458 0.03765 0.09164
 N161 N 0.73992 0.10630 0.08251
 N162 N 0.68614 0.10128 0.06417
 C163 C 0.62509 0.02757 0.05438
 N164 N 0.61934 -0.04099 0.06372
 N165 N 0.67317 -0.03597 0.08198
 C166 C 0.27145 0.18853 0.45160
 N167 N 0.24291 0.21180 0.47299
 N168 N 0.18878 0.15681 0.48990
 C169 C 0.16114 0.07646 0.48620
 N170 N 0.19098 0.05297 0.46517
 N171 N 0.24577 0.10824 0.44826
 C172 C 0.32174 0.24843 0.43103
 N173 N 0.36107 0.23115 0.41148
 N174 N 0.40281 0.28463 0.39212
 C175 C 0.40558 0.35661 0.39136
 N176 N 0.36614 0.37375 0.41088
 N177 N 0.32520 0.32071 0.43038
 C178 C -0.09083 0.74036 0.77928
 N179 N -0.07247 0.74469 0.80612
 N180 N -0.06829 0.80353 0.82210
 C181 C -0.08110 0.86087 0.81179
 N182 N -0.10183 0.85505 0.78512
 N183 N -0.10756 0.79531 0.76921
 C184 C -0.08179 0.68482 0.76080
 N185 N -0.12818 0.65483 0.73782
 N186 N -0.11517 0.60979 0.71998
 C187 C -0.05393 0.59494 0.72408
 N188 N -0.00719 0.62527 0.74699
 N189 N -0.02123 0.66906 0.76510
   
