data_POSCAR
  _audit_creation_date              2014-09-24
  _audit_creation_method            'ToBaCCo'
  _symmetry_space_group_name_H-M    'P1'
  _symmetry_Int_Tables_number       1
  _symmetry_cell_setting            triclinic
  loop_
  _symmetry_equiv_pos_as_xyz
 x,y,z
_cell_length_a 38.1324
_cell_length_b 38.1785
_cell_length_c 37.9946
_cell_angle_alpha 90.000600
_cell_angle_beta 89.999200
_cell_angle_gamma 91.130100
loop_
  _atom_site_label
  _atom_site_type_symbol
  _atom_site_fract_x
  _atom_site_fract_y
  _atom_site_fract_z
Zn1 Zn 0.79646 0.72552 0.79047
 Zn2 Zn 0.79377 0.78065 0.73507
 Zn3 Zn 0.74088 0.72162 0.73521
 Zn4 Zn 0.73819 0.77695 0.79035
 O5 O 0.76733 0.75118 0.76277
 O6 O 0.84193 0.73524 0.78280
 O7 O 0.78748 0.77234 0.68906
 O8 O 0.75065 0.67646 0.74216
 O9 O 0.83990 0.77727 0.74281
 O10 O 0.79124 0.67928 0.78364
 O11 O 0.74718 0.72972 0.68918
 O12 O 0.69271 0.76721 0.78272
 O13 O 0.78400 0.82585 0.74184
 O14 O 0.69475 0.72502 0.74290
 O15 O 0.74341 0.82314 0.78333
 O16 O 0.74527 0.76980 0.83638
 O17 O 0.78938 0.73287 0.83649
 C18 C 0.85718 0.75738 0.76283
 C19 C 0.76733 0.75099 0.67280
 C20 C 0.77175 0.66154 0.76291
 C21 C 0.67746 0.74499 0.76283
 C22 C 0.76289 0.84083 0.76254
 C23 C 0.76732 0.75138 0.85275
 Zn24 Zn 0.24088 0.72162 0.73521
 Zn25 Zn 0.23819 0.77695 0.79035
 Zn26 Zn 0.29646 0.72552 0.79047
 Zn27 Zn 0.29377 0.78065 0.73507
 O28 O 0.26733 0.75119 0.76277
 O29 O 0.19475 0.72502 0.74291
 O30 O 0.24528 0.76981 0.83638
 O31 O 0.29124 0.67929 0.78364
 O32 O 0.19271 0.76721 0.78272
 O33 O 0.25065 0.67646 0.74216
 O34 O 0.28938 0.73288 0.83649
 O35 O 0.33990 0.77728 0.74281
 O36 O 0.24341 0.82314 0.78333
 O37 O 0.34194 0.73525 0.78279
 O38 O 0.28400 0.82585 0.74184
 O39 O 0.28748 0.77234 0.68906
 O40 O 0.24718 0.72972 0.68918
 C41 C 0.17746 0.74499 0.76284
 C42 C 0.26732 0.75138 0.85275
 C43 C 0.27175 0.66154 0.76291
 C44 C 0.35718 0.75739 0.76282
 C45 C 0.26289 0.84083 0.76254
 C46 C 0.26733 0.75099 0.67280
 Zn47 Zn 0.74088 0.22162 0.76479
 Zn48 Zn 0.79646 0.22552 0.70952
 Zn49 Zn 0.73819 0.27695 0.70965
 Zn50 Zn 0.79377 0.28065 0.76493
 O51 O 0.76733 0.25118 0.73722
 O52 O 0.75065 0.17646 0.75784
 O53 O 0.78938 0.23287 0.66351
 O54 O 0.69271 0.26720 0.71728
 O55 O 0.79124 0.17928 0.71636
 O56 O 0.69475 0.22502 0.75709
 O57 O 0.74527 0.26980 0.66362
 O58 O 0.78400 0.32585 0.75816
 O59 O 0.84193 0.23524 0.71720
 O60 O 0.74341 0.32314 0.71667
 O61 O 0.83990 0.27727 0.75719
 O62 O 0.78748 0.27234 0.81094
 O63 O 0.74718 0.22972 0.81082
 C64 C 0.77175 0.16154 0.73709
 C65 C 0.76732 0.25137 0.64724
 C66 C 0.67746 0.24499 0.73716
 C67 C 0.76289 0.34083 0.73746
 C68 C 0.85718 0.25738 0.73717
 C69 C 0.76733 0.25099 0.82720
 Zn70 Zn 0.29646 0.22552 0.70953
 Zn71 Zn 0.24088 0.22162 0.76479
 Zn72 Zn 0.29377 0.28065 0.76493
 Zn73 Zn 0.23819 0.27695 0.70965
 O74 O 0.26733 0.25119 0.73722
 O75 O 0.29124 0.17929 0.71636
 O76 O 0.24718 0.22972 0.81082
 O77 O 0.33990 0.27728 0.75719
 O78 O 0.25065 0.17646 0.75783
 O79 O 0.34194 0.23524 0.71720
 O80 O 0.28748 0.27234 0.81094
 O81 O 0.24341 0.32314 0.71667
 O82 O 0.19475 0.22502 0.75709
 O83 O 0.28400 0.32585 0.75816
 O84 O 0.19271 0.26721 0.71728
 O85 O 0.24528 0.26981 0.66362
 O86 O 0.28938 0.23287 0.66351
 C87 C 0.27175 0.16154 0.73709
 C88 C 0.26733 0.25099 0.82720
 C89 C 0.35718 0.25738 0.73718
 C90 C 0.26289 0.34083 0.73746
 C91 C 0.17746 0.24499 0.73716
 C92 C 0.26732 0.25138 0.64724
 Zn93 Zn 0.70624 0.71935 0.23507
 Zn94 Zn 0.75912 0.77838 0.23521
 Zn95 Zn 0.70354 0.77448 0.29047
 Zn96 Zn 0.76181 0.72305 0.29035
 O97 O 0.73267 0.74881 0.26278
 O98 O 0.71252 0.72766 0.18906
 O99 O 0.74936 0.82354 0.24217
 O100 O 0.65806 0.76476 0.28279
 O101 O 0.75282 0.77028 0.18918
 O102 O 0.66010 0.72272 0.24281
 O103 O 0.70876 0.82071 0.28364
 O104 O 0.75472 0.73020 0.33638
 O105 O 0.80525 0.77498 0.24291
 O106 O 0.71062 0.76713 0.33649
 O107 O 0.80729 0.73279 0.28273
 O108 O 0.75659 0.67686 0.28333
 O109 O 0.71600 0.67415 0.24184
 C110 C 0.73267 0.74901 0.17280
 C111 C 0.72825 0.83846 0.26291
 C112 C 0.64282 0.74262 0.26282
 C113 C 0.73267 0.74862 0.35276
 C114 C 0.82254 0.75501 0.26284
 C115 C 0.73712 0.65917 0.26254
 Zn116 Zn 0.25912 0.77838 0.23520
 Zn117 Zn 0.20623 0.71935 0.23507
 Zn118 Zn 0.26181 0.72305 0.29035
 Zn119 Zn 0.20354 0.77448 0.29047
 O120 O 0.23267 0.74882 0.26277
 O121 O 0.25281 0.77028 0.18918
 O122 O 0.21600 0.67415 0.24184
 O123 O 0.30729 0.73279 0.28272
 O124 O 0.21252 0.72766 0.18906
 O125 O 0.30525 0.77498 0.24290
 O126 O 0.25659 0.67686 0.28333
 O127 O 0.21062 0.76713 0.33649
 O128 O 0.16010 0.72273 0.24281
 O129 O 0.25473 0.73020 0.33638
 O130 O 0.15807 0.76476 0.28280
 O131 O 0.20876 0.82071 0.28364
 O132 O 0.24935 0.82354 0.24216
 C133 C 0.23267 0.74901 0.17280
 C134 C 0.23711 0.65917 0.26254
 C135 C 0.32254 0.75501 0.26283
 C136 C 0.23268 0.74862 0.35275
 C137 C 0.14282 0.74262 0.26283
 C138 C 0.22825 0.83846 0.26291
 Zn139 Zn 0.70354 0.27448 0.20953
 Zn140 Zn 0.76181 0.22305 0.20965
 Zn141 Zn 0.75912 0.27838 0.26479
 Zn142 Zn 0.70623 0.21935 0.26493
 O143 O 0.73267 0.24881 0.23722
 O144 O 0.71062 0.26713 0.16351
 O145 O 0.80729 0.23279 0.21727
 O146 O 0.74936 0.32354 0.25784
 O147 O 0.75472 0.23020 0.16362
 O148 O 0.70876 0.32071 0.21636
 O149 O 0.80525 0.27498 0.25709
 O150 O 0.71252 0.22766 0.31094
 O151 O 0.75659 0.17686 0.21667
 O152 O 0.75282 0.27028 0.31082
 O153 O 0.71600 0.17415 0.25816
 O154 O 0.66010 0.22272 0.25719
 O155 O 0.65806 0.26476 0.21721
 C156 C 0.73267 0.24862 0.14724
 C157 C 0.82254 0.25501 0.23716
 C158 C 0.72825 0.33846 0.23709
 C159 C 0.73267 0.24901 0.32720
 C160 C 0.73712 0.15917 0.23746
 C161 C 0.64282 0.24262 0.23718
 Zn162 Zn 0.20354 0.27448 0.20953
 Zn163 Zn 0.26181 0.22305 0.20965
 Zn164 Zn 0.25912 0.27838 0.26480
 Zn165 Zn 0.20623 0.21935 0.26493
 O166 O 0.23267 0.24881 0.23723
 O167 O 0.21063 0.26713 0.16351
 O168 O 0.30729 0.23279 0.21728
 O169 O 0.24935 0.32354 0.25784
 O170 O 0.25473 0.23020 0.16362
 O171 O 0.20876 0.32071 0.21636
 O172 O 0.30525 0.27498 0.25710
 O173 O 0.21252 0.22766 0.31094
 O174 O 0.25659 0.17686 0.21667
 O175 O 0.25281 0.27028 0.31082
 O176 O 0.21600 0.17415 0.25816
 O177 O 0.16010 0.22273 0.25719
 O178 O 0.15807 0.26476 0.21720
 C179 C 0.23268 0.24862 0.14725
 C180 C 0.32254 0.25501 0.23717
 C181 C 0.22825 0.33846 0.23709
 C182 C 0.23267 0.24901 0.32720
 C183 C 0.23711 0.15917 0.23746
 C184 C 0.14282 0.24262 0.23717
 C185 C -0.05065 0.79529 0.75887
 C186 C -0.02984 0.76539 0.76398
 C187 C -0.04732 0.73240 0.76707
 C188 C -0.08413 0.73010 0.76749
 C189 C -0.10420 0.76005 0.76292
 C190 C -0.08721 0.79248 0.75801
 C191 C -0.02803 0.70185 0.76945
 C192 C 0.00837 0.70313 0.76796
 C193 C 0.02702 0.73535 0.76546
 C194 C 0.00763 0.76704 0.76542
 C195 C 0.02628 0.79926 0.76783
 C196 C 0.06267 0.80055 0.76931
 C197 C 0.08197 0.76999 0.76701
 C198 C 0.06449 0.73699 0.76402
 C199 C 0.08529 0.70707 0.75899
 C200 C 0.12185 0.70988 0.75812
 C201 C 0.13885 0.74232 0.76294
 C202 C 0.11877 0.77229 0.76743
 H203 H -0.03944 0.82105 0.75444
 H204 H -0.09722 0.70479 0.77048
 H205 H -0.10230 0.81590 0.75398
 H206 H -0.04122 0.67655 0.77195
 H207 H 0.02131 0.67838 0.77018
 H208 H 0.01334 0.82401 0.76998
 H209 H 0.07587 0.82585 0.77174
 H210 H 0.07408 0.68130 0.75463
 H211 H 0.13694 0.68645 0.75415
 H212 H 0.13187 0.79761 0.77035
 C213 C 0.73572 -0.06685 0.78495
 C214 C 0.75709 -0.04595 0.76240
 C215 C 0.78056 -0.06350 0.73977
 C216 C 0.78230 -0.10023 0.73995
 C217 C 0.76094 -0.12042 0.76245
 C218 C 0.73769 -0.10332 0.78488
 C219 C 0.80225 -0.04440 0.71701
 C220 C 0.80135 -0.00812 0.71602
 C221 C 0.77854 0.01080 0.73793
 C222 C 0.75602 -0.00844 0.76152
 C223 C 0.73321 0.01047 0.78342
 C224 C 0.73232 0.04675 0.78244
 C225 C 0.75402 0.06585 0.75970
 C226 C 0.77748 0.04831 0.73706
 C227 C 0.79887 0.06922 0.71453
 C228 C 0.79691 0.10570 0.71464
 C229 C 0.77367 0.12279 0.73709
 C230 C 0.75230 0.10257 0.75956
 H231 H 0.71712 -0.05602 0.80304
 H232 H 0.80044 -0.11309 0.72243
 H233 H 0.72083 -0.11819 0.80258
 H234 H 0.82023 -0.05770 0.69966
 H235 H 0.81905 0.00431 0.69761
 H236 H 0.71549 -0.00196 0.80182
 H237 H 0.71433 0.06004 0.79980
 H238 H 0.81746 0.05839 0.69644
 H239 H 0.81379 0.12058 0.69696
 H240 H 0.73416 0.11542 0.77709
 C241 C 0.79897 0.74970 -0.05306
 C242 C 0.76740 0.75262 -0.03373
 C243 C 0.73551 0.75349 -0.05289
 C244 C 0.73575 0.75390 -0.08985
 C245 C 0.76730 0.75151 -0.10845
 C246 C 0.79875 0.74881 -0.08980
 C247 C 0.70353 0.75367 -0.03511
 C248 C 0.70235 0.75211 0.00140
 C249 C 0.73336 0.75175 0.02169
 C250 C 0.76637 0.75398 0.00387
 C251 C 0.79714 0.75851 0.02416
 C252 C 0.79582 0.75989 0.06066
 C253 C 0.76407 0.75540 0.07845
 C254 C 0.73247 0.75025 0.05928
 C255 C 0.70138 0.74310 0.07861
 C256 C 0.70168 0.74224 0.11535
 C257 C 0.73268 0.74915 0.13400
 C258 C 0.76379 0.75578 0.11541
 H259 H 0.82414 0.74703 -0.04054
 H260 H 0.71124 0.75518 -0.10423
 H261 H 0.82339 0.74648 -0.10373
 H262 H 0.67906 0.75446 -0.04959
 H263 H 0.67662 0.75255 0.01311
 H264 H 0.82266 0.76241 0.01245
 H265 H 0.82006 0.76397 0.07514
 H266 H 0.67663 0.73706 0.06609
 H267 H 0.67743 0.73661 0.12929
 H268 H 0.78803 0.76034 0.12979
 C269 C 0.58529 0.70707 0.75898
 C270 C 0.56449 0.73699 0.76400
 C271 C 0.58197 0.76999 0.76699
 C272 C 0.61877 0.77229 0.76741
 C273 C 0.63885 0.74232 0.76293
 C274 C 0.62185 0.70987 0.75811
 C275 C 0.56267 0.80055 0.76929
 C276 C 0.52628 0.79926 0.76780
 C277 C 0.50763 0.76704 0.76540
 C278 C 0.52702 0.73535 0.76544
 C279 C 0.50837 0.70313 0.76795
 C280 C 0.47197 0.70185 0.76944
 C281 C 0.45267 0.73240 0.76705
 C282 C 0.47016 0.76539 0.76396
 C283 C 0.44935 0.79529 0.75885
 C284 C 0.41279 0.79249 0.75800
 C285 C 0.39580 0.76006 0.76291
 C286 C 0.41587 0.73010 0.76748
 H287 H 0.57408 0.68130 0.75462
 H288 H 0.63187 0.79760 0.77033
 H289 H 0.63694 0.68645 0.75415
 H290 H 0.57587 0.82585 0.77171
 H291 H 0.51334 0.82401 0.76995
 H292 H 0.52130 0.67838 0.77016
 H293 H 0.45877 0.67656 0.77194
 H294 H 0.46056 0.82105 0.75442
 H295 H 0.39770 0.81590 0.75396
 H296 H 0.40278 0.70479 0.77047
 C297 C 0.23571 -0.06684 0.78494
 C298 C 0.25709 -0.04595 0.76239
 C299 C 0.28055 -0.06350 0.73977
 C300 C 0.28230 -0.10022 0.73994
 C301 C 0.26094 -0.12042 0.76245
 C302 C 0.23769 -0.10332 0.78488
 C303 C 0.30225 -0.04440 0.71700
 C304 C 0.30135 -0.00811 0.71602
 C305 C 0.27854 0.01080 0.73793
 C306 C 0.25602 -0.00844 0.76151
 C307 C 0.23321 0.01047 0.78341
 C308 C 0.23231 0.04676 0.78244
 C309 C 0.25402 0.06586 0.75969
 C310 C 0.27748 0.04832 0.73706
 C311 C 0.29887 0.06922 0.71453
 C312 C 0.29691 0.10571 0.71463
 C313 C 0.27367 0.12279 0.73708
 C314 C 0.25229 0.10258 0.75955
 H315 H 0.21712 -0.05601 0.80303
 H316 H 0.30044 -0.11308 0.72242
 H317 H 0.22083 -0.11818 0.80257
 H318 H 0.32023 -0.05769 0.69965
 H319 H 0.31905 0.00431 0.69761
 H320 H 0.21549 -0.00195 0.80182
 H321 H 0.21433 0.06005 0.79979
 H322 H 0.31746 0.05839 0.69643
 H323 H 0.31379 0.12059 0.69696
 H324 H 0.23416 0.11543 0.77709
 C325 C 0.29898 0.74970 -0.05306
 C326 C 0.26741 0.75262 -0.03373
 C327 C 0.23552 0.75349 -0.05289
 C328 C 0.23576 0.75391 -0.08985
 C329 C 0.26731 0.75152 -0.10845
 C330 C 0.29876 0.74881 -0.08980
 C331 C 0.20354 0.75367 -0.03511
 C332 C 0.20236 0.75212 0.00140
 C333 C 0.23337 0.75175 0.02169
 C334 C 0.26637 0.75398 0.00387
 C335 C 0.29715 0.75850 0.02416
 C336 C 0.29583 0.75988 0.06066
 C337 C 0.26407 0.75540 0.07845
 C338 C 0.23247 0.75025 0.05928
 C339 C 0.20138 0.74310 0.07861
 C340 C 0.20168 0.74224 0.11535
 C341 C 0.23267 0.74915 0.13400
 C342 C 0.26379 0.75577 0.11541
 H343 H 0.32415 0.74702 -0.04054
 H344 H 0.21124 0.75519 -0.10424
 H345 H 0.32340 0.74648 -0.10373
 H346 H 0.17907 0.75448 -0.04959
 H347 H 0.17663 0.75256 0.01311
 H348 H 0.32267 0.76239 0.01245
 H349 H 0.32006 0.76395 0.07515
 H350 H 0.17663 0.73706 0.06609
 H351 H 0.17743 0.73661 0.12928
 H352 H 0.28803 0.76033 0.12979
 C353 C -0.05065 0.29529 0.74113
 C354 C -0.02984 0.26539 0.73602
 C355 C -0.04733 0.23239 0.73293
 C356 C -0.08413 0.23009 0.73251
 C357 C -0.10420 0.26005 0.73708
 C358 C -0.08721 0.29248 0.74199
 C359 C -0.02803 0.20184 0.73055
 C360 C 0.00837 0.20313 0.73204
 C361 C 0.02702 0.23534 0.73454
 C362 C 0.00763 0.26703 0.73459
 C363 C 0.02628 0.29926 0.73217
 C364 C 0.06267 0.30055 0.73069
 C365 C 0.08197 0.26999 0.73299
 C366 C 0.06449 0.23699 0.73598
 C367 C 0.08529 0.20707 0.74101
 C368 C 0.12185 0.20988 0.74188
 C369 C 0.13885 0.24232 0.73706
 C370 C 0.11877 0.27229 0.73257
 H371 H -0.03944 0.32105 0.74556
 H372 H -0.09722 0.20479 0.72952
 H373 H -0.10230 0.31590 0.74602
 H374 H -0.04122 0.17655 0.72805
 H375 H 0.02130 0.17838 0.72982
 H376 H 0.01334 0.32401 0.73003
 H377 H 0.07587 0.32584 0.72826
 H378 H 0.07408 0.18130 0.74537
 H379 H 0.13694 0.18645 0.74584
 H380 H 0.13187 0.29760 0.72966
 C381 C 0.79887 0.56922 0.78546
 C382 C 0.77748 0.54831 0.76293
 C383 C 0.75402 0.56585 0.74030
 C384 C 0.75230 0.60257 0.74044
 C385 C 0.77368 0.62279 0.76291
 C386 C 0.79691 0.60570 0.78536
 C387 C 0.73232 0.54675 0.71755
 C388 C 0.73321 0.51047 0.71658
 C389 C 0.75602 0.49156 0.73848
 C390 C 0.77854 0.51080 0.76207
 C391 C 0.80135 0.49189 0.78397
 C392 C 0.80225 0.45560 0.78299
 C393 C 0.78055 0.43650 0.76023
 C394 C 0.75709 0.45405 0.73760
 C395 C 0.73572 0.43315 0.71505
 C396 C 0.73769 0.39667 0.71512
 C397 C 0.76094 0.37958 0.73755
 C398 C 0.78230 0.39977 0.76005
 H399 H 0.81746 0.55839 0.80356
 H400 H 0.73416 0.61542 0.72291
 H401 H 0.81379 0.62058 0.80303
 H402 H 0.71434 0.56004 0.70020
 H403 H 0.71549 0.49804 0.69818
 H404 H 0.81905 0.50431 0.80238
 H405 H 0.82023 0.44231 0.80034
 H406 H 0.71712 0.44398 0.69696
 H407 H 0.72083 0.38181 0.69742
 H408 H 0.80044 0.38691 0.77757
 C409 C 0.79862 0.25691 -0.07861
 C410 C 0.76753 0.24975 -0.05928
 C411 C 0.73593 0.24460 -0.07845
 C412 C 0.73621 0.24422 -0.11541
 C413 C 0.76732 0.25085 -0.13400
 C414 C 0.79831 0.25776 -0.11535
 C415 C 0.70417 0.24011 -0.06066
 C416 C 0.70285 0.24149 -0.02416
 C417 C 0.73362 0.24602 -0.00387
 C418 C 0.76663 0.24825 -0.02169
 C419 C 0.79764 0.24789 -0.00140
 C420 C 0.79646 0.24633 0.03510
 C421 C 0.76448 0.24651 0.05289
 C422 C 0.73259 0.24738 0.03373
 C423 C 0.70102 0.25030 0.05306
 C424 C 0.70124 0.25119 0.08980
 C425 C 0.73269 0.24849 0.10845
 C426 C 0.76424 0.24609 0.08985
 H427 H 0.82337 0.26294 -0.06609
 H428 H 0.71197 0.23966 -0.12979
 H429 H 0.82257 0.26339 -0.12928
 H430 H 0.67994 0.23603 -0.07515
 H431 H 0.67733 0.23759 -0.01245
 H432 H 0.82337 0.24745 -0.01311
 H433 H 0.82093 0.24554 0.04959
 H434 H 0.67585 0.25297 0.04054
 H435 H 0.67660 0.25351 0.10373
 H436 H 0.78875 0.24482 0.10423
 C437 C 0.58529 0.20707 0.74102
 C438 C 0.56449 0.23699 0.73600
 C439 C 0.58197 0.26999 0.73300
 C440 C 0.61877 0.27229 0.73259
 C441 C 0.63885 0.24232 0.73707
 C442 C 0.62185 0.20987 0.74188
 C443 C 0.56267 0.30054 0.73071
 C444 C 0.52628 0.29926 0.73219
 C445 C 0.50763 0.26703 0.73460
 C446 C 0.52702 0.23534 0.73456
 C447 C 0.50837 0.20313 0.73205
 C448 C 0.47197 0.20184 0.73056
 C449 C 0.45267 0.23240 0.73294
 C450 C 0.47016 0.26539 0.73604
 C451 C 0.44935 0.29529 0.74115
 C452 C 0.41279 0.29248 0.74200
 C453 C 0.39580 0.26006 0.73709
 C454 C 0.41587 0.23010 0.73252
 H455 H 0.57408 0.18129 0.74538
 H456 H 0.63187 0.29760 0.72967
 H457 H 0.63694 0.18645 0.74585
 H458 H 0.57587 0.32584 0.72829
 H459 H 0.51334 0.32401 0.73005
 H460 H 0.52130 0.17838 0.72983
 H461 H 0.45877 0.17655 0.72806
 H462 H 0.46056 0.32105 0.74558
 H463 H 0.39770 0.31590 0.74604
 H464 H 0.40278 0.20479 0.72953
 C465 C 0.29887 0.56922 0.78547
 C466 C 0.27748 0.54832 0.76294
 C467 C 0.25402 0.56586 0.74030
 C468 C 0.25230 0.60258 0.74044
 C469 C 0.27367 0.62279 0.76291
 C470 C 0.29691 0.60571 0.78536
 C471 C 0.23232 0.54676 0.71756
 C472 C 0.23321 0.51047 0.71658
 C473 C 0.25602 0.49156 0.73848
 C474 C 0.27854 0.51080 0.76207
 C475 C 0.30135 0.49189 0.78398
 C476 C 0.30224 0.45560 0.78299
 C477 C 0.28055 0.43650 0.76023
 C478 C 0.25709 0.45405 0.73760
 C479 C 0.23571 0.43315 0.71506
 C480 C 0.23769 0.39668 0.71512
 C481 C 0.26094 0.37958 0.73755
 C482 C 0.28230 0.39978 0.76006
 H483 H 0.31746 0.55839 0.80356
 H484 H 0.23416 0.61543 0.72291
 H485 H 0.31379 0.62059 0.80304
 H486 H 0.21433 0.56005 0.70021
 H487 H 0.21549 0.49805 0.69818
 H488 H 0.31905 0.50432 0.80239
 H489 H 0.32022 0.44231 0.80034
 H490 H 0.21712 0.44399 0.69696
 H491 H 0.22083 0.38181 0.69742
 H492 H 0.30043 0.38692 0.77758
 C493 C 0.29862 0.25690 -0.07861
 C494 C 0.26754 0.24974 -0.05928
 C495 C 0.23593 0.24459 -0.07845
 C496 C 0.23621 0.24422 -0.11541
 C497 C 0.26732 0.25085 -0.13400
 C498 C 0.29832 0.25776 -0.11535
 C499 C 0.20418 0.24011 -0.06066
 C500 C 0.20286 0.24149 -0.02416
 C501 C 0.23363 0.24601 -0.00387
 C502 C 0.26664 0.24824 -0.02169
 C503 C 0.29765 0.24788 -0.00140
 C504 C 0.29647 0.24633 0.03510
 C505 C 0.26449 0.24651 0.05289
 C506 C 0.23260 0.24738 0.03373
 C507 C 0.20103 0.25030 0.05306
 C508 C 0.20125 0.25119 0.08980
 C509 C 0.23270 0.24849 0.10845
 C510 C 0.26425 0.24609 0.08985
 H511 H 0.32338 0.26294 -0.06609
 H512 H 0.21197 0.23966 -0.12979
 H513 H 0.32257 0.26339 -0.12929
 H514 H 0.17994 0.23603 -0.07514
 H515 H 0.17734 0.23759 -0.01245
 H516 H 0.32338 0.24745 -0.01311
 H517 H 0.32094 0.24553 0.04959
 H518 H 0.17586 0.25297 0.04054
 H519 H 0.17661 0.25352 0.10373
 H520 H 0.28876 0.24482 0.10423
 C521 C -0.08529 0.79293 0.25898
 C522 C -0.06449 0.76301 0.26402
 C523 C -0.08197 0.73001 0.26702
 C524 C -0.11877 0.72771 0.26743
 C525 C -0.13885 0.75768 0.26294
 C526 C -0.12185 0.79012 0.25812
 C527 C -0.06267 0.69946 0.26932
 C528 C -0.02628 0.70074 0.26784
 C529 C -0.00763 0.73297 0.26542
 C530 C -0.02702 0.76466 0.26546
 C531 C -0.00837 0.79687 0.26796
 C532 C 0.02803 0.79816 0.26944
 C533 C 0.04733 0.76761 0.26707
 C534 C 0.02984 0.73461 0.26399
 C535 C 0.05065 0.70471 0.25888
 C536 C 0.08721 0.70752 0.25802
 C537 C 0.10420 0.73995 0.26292
 C538 C 0.08413 0.76990 0.26749
 H539 H -0.07408 0.81870 0.25462
 H540 H -0.13187 0.70240 0.27036
 H541 H -0.13694 0.81355 0.25415
 H542 H -0.07587 0.67416 0.27176
 H543 H -0.01334 0.67599 0.26999
 H544 H -0.02130 0.82162 0.27017
 H545 H 0.04123 0.82345 0.27194
 H546 H 0.03944 0.67895 0.25445
 H547 H 0.10230 0.68410 0.25399
 H548 H 0.09722 0.79521 0.27047
 C549 C 0.70114 -0.06922 0.28547
 C550 C 0.72253 -0.04831 0.26294
 C551 C 0.74599 -0.06585 0.24031
 C552 C 0.74771 -0.10258 0.24045
 C553 C 0.72633 -0.12279 0.26292
 C554 C 0.70309 -0.10570 0.28536
 C555 C 0.76770 -0.04676 0.21757
 C556 C 0.76681 -0.01047 0.21659
 C557 C 0.74399 0.00844 0.23849
 C558 C 0.72147 -0.01080 0.26208
 C559 C 0.69867 0.00811 0.28399
 C560 C 0.69777 0.04440 0.28300
 C561 C 0.71946 0.06350 0.26023
 C562 C 0.74292 0.04595 0.23761
 C563 C 0.76429 0.06685 0.21505
 C564 C 0.76231 0.10332 0.21512
 C565 C 0.73907 0.12042 0.23755
 C566 C 0.71771 0.10022 0.26006
 H567 H 0.68254 -0.05839 0.30356
 H568 H 0.76585 -0.11542 0.22291
 H569 H 0.68621 -0.12058 0.30303
 H570 H 0.78568 -0.06004 0.20022
 H571 H 0.78452 0.00195 0.19819
 H572 H 0.68096 -0.00431 0.30240
 H573 H 0.67979 0.05769 0.30035
 H574 H 0.78288 0.05601 0.19696
 H575 H 0.77917 0.11819 0.19742
 H576 H 0.69957 0.11308 0.27758
 C577 C 0.79862 0.75691 0.57861
 C578 C 0.76753 0.74975 0.55928
 C579 C 0.73593 0.74460 0.57845
 C580 C 0.73621 0.74422 0.61541
 C581 C 0.76732 0.75085 0.63400
 C582 C 0.79831 0.75777 0.61535
 C583 C 0.70417 0.74011 0.56066
 C584 C 0.70285 0.74149 0.52416
 C585 C 0.73362 0.74602 0.50387
 C586 C 0.76663 0.74825 0.52169
 C587 C 0.79764 0.74789 0.50139
 C588 C 0.79646 0.74634 0.46489
 C589 C 0.76448 0.74651 0.44711
 C590 C 0.73259 0.74738 0.46627
 C591 C 0.70102 0.75030 0.44694
 C592 C 0.70124 0.75119 0.41020
 C593 C 0.73269 0.74849 0.39155
 C594 C 0.76424 0.74610 0.41015
 H595 H 0.82337 0.76295 0.56609
 H596 H 0.71197 0.73966 0.62979
 H597 H 0.82257 0.76340 0.62928
 H598 H 0.67994 0.73603 0.57515
 H599 H 0.67733 0.73759 0.51245
 H600 H 0.82337 0.74746 0.51310
 H601 H 0.82093 0.74554 0.45041
 H602 H 0.67585 0.75297 0.45946
 H603 H 0.67660 0.75352 0.39627
 H604 H 0.78875 0.74482 0.39576
 C605 C 0.55065 0.70471 0.25885
 C606 C 0.52984 0.73461 0.26396
 C607 C 0.54732 0.76760 0.26705
 C608 C 0.58413 0.76990 0.26748
 C609 C 0.60420 0.73994 0.26291
 C610 C 0.58721 0.70752 0.25799
 C611 C 0.52803 0.79815 0.26943
 C612 C 0.49163 0.79687 0.26794
 C613 C 0.47298 0.76465 0.26544
 C614 C 0.49237 0.73296 0.26539
 C615 C 0.47372 0.70074 0.26780
 C616 C 0.43733 0.69945 0.26928
 C617 C 0.41803 0.73001 0.26699
 C618 C 0.43551 0.76301 0.26400
 C619 C 0.41471 0.79293 0.25897
 C620 C 0.37815 0.79013 0.25811
 C621 C 0.36115 0.75768 0.26292
 C622 C 0.38123 0.72771 0.26740
 H623 H 0.53944 0.67895 0.25441
 H624 H 0.59722 0.79521 0.27047
 H625 H 0.60230 0.68410 0.25396
 H626 H 0.54122 0.82345 0.27194
 H627 H 0.47870 0.82162 0.27016
 H628 H 0.48666 0.67599 0.26994
 H629 H 0.42413 0.67415 0.27170
 H630 H 0.42592 0.81870 0.25462
 H631 H 0.36306 0.81355 0.25415
 H632 H 0.36813 0.70240 0.27032
 C633 C 0.20113 -0.06922 0.28547
 C634 C 0.22252 -0.04831 0.26294
 C635 C 0.24598 -0.06585 0.24030
 C636 C 0.24771 -0.10257 0.24044
 C637 C 0.22633 -0.12279 0.26291
 C638 C 0.20309 -0.10570 0.28536
 C639 C 0.26769 -0.04675 0.21755
 C640 C 0.26680 -0.01047 0.21658
 C641 C 0.24398 0.00844 0.23848
 C642 C 0.22146 -0.01080 0.26207
 C643 C 0.19865 0.00811 0.28397
 C644 C 0.19775 0.04440 0.28299
 C645 C 0.21945 0.06350 0.26022
 C646 C 0.24291 0.04595 0.23760
 C647 C 0.26429 0.06685 0.21505
 C648 C 0.26231 0.10332 0.21512
 C649 C 0.23906 0.12042 0.23755
 C650 C 0.21770 0.10022 0.26005
 H651 H 0.18254 -0.05839 0.30356
 H652 H 0.26584 -0.11542 0.22291
 H653 H 0.18622 -0.12058 0.30303
 H654 H 0.28567 -0.06004 0.20020
 H655 H 0.28451 0.00195 0.19818
 H656 H 0.18095 -0.00431 0.30238
 H657 H 0.17977 0.05769 0.30034
 H658 H 0.28288 0.05601 0.19696
 H659 H 0.27917 0.11819 0.19742
 H660 H 0.19956 0.11308 0.27757
 C661 C 0.29862 0.75690 0.57861
 C662 C 0.26753 0.74974 0.55928
 C663 C 0.23593 0.74459 0.57845
 C664 C 0.23621 0.74422 0.61541
 C665 C 0.26733 0.75085 0.63400
 C666 C 0.29832 0.75776 0.61535
 C667 C 0.20418 0.74011 0.56066
 C668 C 0.20286 0.74149 0.52416
 C669 C 0.23363 0.74601 0.50387
 C670 C 0.26664 0.74824 0.52169
 C671 C 0.29764 0.74788 0.50139
 C672 C 0.29647 0.74633 0.46489
 C673 C 0.26449 0.74651 0.44711
 C674 C 0.23260 0.74738 0.46627
 C675 C 0.20103 0.75030 0.44694
 C676 C 0.20125 0.75119 0.41020
 C677 C 0.23270 0.74849 0.39155
 C678 C 0.26425 0.74609 0.41015
 H679 H 0.32337 0.76293 0.56609
 H680 H 0.21198 0.73966 0.62979
 H681 H 0.32257 0.76339 0.62928
 H682 H 0.17994 0.73603 0.57515
 H683 H 0.17734 0.73759 0.51245
 H684 H 0.32337 0.74745 0.51310
 H685 H 0.32094 0.74553 0.45041
 H686 H 0.17586 0.75297 0.45946
 H687 H 0.17661 0.75352 0.39627
 H688 H 0.28876 0.74482 0.39576
 C689 C -0.08529 0.29293 0.24102
 C690 C -0.06448 0.26301 0.23598
 C691 C -0.08197 0.23001 0.23298
 C692 C -0.11877 0.22771 0.23257
 C693 C -0.13885 0.25768 0.23706
 C694 C -0.12185 0.29013 0.24188
 C695 C -0.06267 0.19946 0.23067
 C696 C -0.02628 0.20074 0.23216
 C697 C -0.00763 0.23297 0.23458
 C698 C -0.02702 0.26466 0.23454
 C699 C -0.00837 0.29687 0.23204
 C700 C 0.02803 0.29816 0.23056
 C701 C 0.04733 0.26761 0.23293
 C702 C 0.02984 0.23461 0.23602
 C703 C 0.05065 0.20471 0.24112
 C704 C 0.08721 0.20752 0.24198
 C705 C 0.10420 0.23995 0.23708
 C706 C 0.08413 0.26991 0.23251
 H707 H -0.07408 0.31870 0.24538
 H708 H -0.13187 0.20240 0.22964
 H709 H -0.13694 0.31355 0.24585
 H710 H -0.07587 0.17416 0.22824
 H711 H -0.01334 0.17599 0.23001
 H712 H -0.02130 0.32162 0.22984
 H713 H 0.04123 0.32345 0.22807
 H714 H 0.03944 0.17895 0.24555
 H715 H 0.10230 0.18410 0.24601
 H716 H 0.09722 0.29521 0.22953
 C717 C 0.76429 0.56685 0.28495
 C718 C 0.74292 0.54595 0.26239
 C719 C 0.71946 0.56350 0.23977
 C720 C 0.71771 0.60022 0.23994
 C721 C 0.73907 0.62042 0.26245
 C722 C 0.76231 0.60332 0.28488
 C723 C 0.69777 0.54440 0.21700
 C724 C 0.69867 0.50811 0.21602
 C725 C 0.72147 0.48920 0.23792
 C726 C 0.74399 0.50844 0.26151
 C727 C 0.76681 0.48953 0.28341
 C728 C 0.76770 0.45325 0.28244
 C729 C 0.74599 0.43415 0.25969
 C730 C 0.72253 0.45169 0.23706
 C731 C 0.70114 0.43078 0.21453
 C732 C 0.70309 0.39430 0.21464
 C733 C 0.72633 0.37721 0.23709
 C734 C 0.74771 0.39743 0.25955
 H735 H 0.78288 0.55601 0.30304
 H736 H 0.69958 0.61308 0.22242
 H737 H 0.77917 0.61819 0.30258
 H738 H 0.67979 0.55769 0.19965
 H739 H 0.68096 0.49569 0.19760
 H740 H 0.78452 0.50195 0.30181
 H741 H 0.78568 0.43996 0.29978
 H742 H 0.68254 0.44161 0.19644
 H743 H 0.68621 0.37941 0.19697
 H744 H 0.76585 0.38458 0.27709
 C745 C 0.79897 0.24969 0.55306
 C746 C 0.76740 0.25261 0.53373
 C747 C 0.73551 0.25348 0.55289
 C748 C 0.73575 0.25390 0.58985
 C749 C 0.76730 0.25151 0.60845
 C750 C 0.79875 0.24880 0.58980
 C751 C 0.70353 0.25366 0.53511
 C752 C 0.70236 0.25211 0.49860
 C753 C 0.73336 0.25175 0.47831
 C754 C 0.76637 0.25398 0.49613
 C755 C 0.79714 0.25850 0.47584
 C756 C 0.79582 0.25988 0.43934
 C757 C 0.76407 0.25540 0.42155
 C758 C 0.73247 0.25025 0.44072
 C759 C 0.70138 0.24310 0.42139
 C760 C 0.70168 0.24224 0.38465
 C761 C 0.73268 0.24915 0.36600
 C762 C 0.76379 0.25578 0.38459
 H763 H 0.82414 0.24702 0.54054
 H764 H 0.71124 0.25518 0.60424
 H765 H 0.82339 0.24648 0.60373
 H766 H 0.67906 0.25446 0.54959
 H767 H 0.67663 0.25254 0.48689
 H768 H 0.82266 0.26240 0.48755
 H769 H 0.82006 0.26397 0.42485
 H770 H 0.67663 0.23706 0.43391
 H771 H 0.67743 0.23661 0.37072
 H772 H 0.78803 0.26034 0.37021
 C773 C 0.55065 0.20471 0.24115
 C774 C 0.52984 0.23461 0.23604
 C775 C 0.54733 0.26760 0.23295
 C776 C 0.58413 0.26990 0.23252
 C777 C 0.60420 0.23994 0.23709
 C778 C 0.58721 0.20752 0.24200
 C779 C 0.52803 0.29815 0.23056
 C780 C 0.49163 0.29687 0.23205
 C781 C 0.47298 0.26465 0.23456
 C782 C 0.49237 0.23296 0.23461
 C783 C 0.47372 0.20074 0.23220
 C784 C 0.43733 0.19945 0.23072
 C785 C 0.41803 0.23001 0.23301
 C786 C 0.43551 0.26301 0.23600
 C787 C 0.41471 0.29293 0.24103
 C788 C 0.37815 0.29012 0.24189
 C789 C 0.36115 0.25768 0.23707
 C790 C 0.38123 0.22771 0.23259
 H791 H 0.53944 0.17895 0.24559
 H792 H 0.59722 0.29521 0.22953
 H793 H 0.60230 0.18410 0.24604
 H794 H 0.54123 0.32345 0.22806
 H795 H 0.47870 0.32162 0.22984
 H796 H 0.48666 0.17599 0.23006
 H797 H 0.42413 0.17415 0.22829
 H798 H 0.42592 0.31870 0.24538
 H799 H 0.36306 0.31355 0.24585
 H800 H 0.36813 0.20239 0.22968
 C801 C 0.26429 0.56685 0.28495
 C802 C 0.24291 0.54595 0.26240
 C803 C 0.21945 0.56350 0.23977
 C804 C 0.21770 0.60022 0.23995
 C805 C 0.23906 0.62042 0.26245
 C806 C 0.26231 0.60332 0.28488
 C807 C 0.19776 0.54440 0.21701
 C808 C 0.19866 0.50811 0.21602
 C809 C 0.22146 0.48920 0.23793
 C810 C 0.24398 0.50844 0.26152
 C811 C 0.26680 0.48953 0.28342
 C812 C 0.26769 0.45325 0.28244
 C813 C 0.24598 0.43415 0.25970
 C814 C 0.22253 0.45169 0.23707
 C815 C 0.20114 0.43078 0.21454
 C816 C 0.20309 0.39430 0.21464
 C817 C 0.22633 0.37721 0.23709
 C818 C 0.24771 0.39743 0.25956
 H819 H 0.28288 0.55602 0.30304
 H820 H 0.19957 0.61308 0.22243
 H821 H 0.27917 0.61819 0.30258
 H822 H 0.17978 0.55769 0.19966
 H823 H 0.18095 0.49569 0.19761
 H824 H 0.28451 0.50196 0.30182
 H825 H 0.28567 0.43996 0.29980
 H826 H 0.18254 0.44161 0.19644
 H827 H 0.18622 0.37942 0.19697
 H828 H 0.26584 0.38458 0.27709
 C829 C 0.29898 0.24970 0.55306
 C830 C 0.26741 0.25262 0.53373
 C831 C 0.23552 0.25349 0.55289
 C832 C 0.23576 0.25391 0.58985
 C833 C 0.26731 0.25151 0.60845
 C834 C 0.29876 0.24881 0.58980
 C835 C 0.20354 0.25367 0.53511
 C836 C 0.20236 0.25211 0.49861
 C837 C 0.23337 0.25175 0.47831
 C838 C 0.26638 0.25398 0.49613
 C839 C 0.29715 0.25850 0.47584
 C840 C 0.29583 0.25988 0.43934
 C841 C 0.26407 0.25540 0.42155
 C842 C 0.23247 0.25025 0.44072
 C843 C 0.20138 0.24309 0.42139
 C844 C 0.20168 0.24223 0.38465
 C845 C 0.23267 0.24915 0.36600
 C846 C 0.26379 0.25577 0.38459
 H847 H 0.32415 0.24702 0.54054
 H848 H 0.21125 0.25519 0.60424
 H849 H 0.32340 0.24648 0.60373
 H850 H 0.17907 0.25447 0.54959
 H851 H 0.17663 0.25255 0.48690
 H852 H 0.32267 0.26239 0.48755
 H853 H 0.32006 0.26396 0.42485
 H854 H 0.17663 0.23706 0.43391
 H855 H 0.17743 0.23661 0.37072
 H856 H 0.28803 0.26033 0.37021
   
