data_POSCAR
  _audit_creation_date              2014-09-24
  _audit_creation_method            'ToBaCCo'
  _symmetry_space_group_name_H-M    'P1'
  _symmetry_Int_Tables_number       1
  _symmetry_cell_setting            triclinic
  loop_
  _symmetry_equiv_pos_as_xyz
 x,y,z
_cell_length_a 21.6136
_cell_length_b 21.5542
_cell_length_c 21.5439
_cell_angle_alpha 90.089200
_cell_angle_beta 90.050700
_cell_angle_gamma 90.033700
loop_
  _atom_site_label
  _atom_site_type_symbol
  _atom_site_fract_x
  _atom_site_fract_y
  _atom_site_fract_z
C1 C 0.15174 1.23201 0.23036
 C2 C 0.12619 1.28397 0.20073
 C3 C 0.15191 1.30768 0.14519
 C4 C 0.20550 1.27862 0.12138
 C5 C 0.23189 1.22709 0.15104
 C6 C 0.20493 1.20372 0.20574
 C7 C 0.12306 1.20651 0.28288
 C8 C 0.14639 1.15250 0.31165
 C9 C 0.20150 1.12632 0.28773
 C10 C 0.23019 1.15100 0.23485
 C11 C 0.28213 1.12181 0.20891
 C12 C 0.30860 1.14390 0.15356
 C13 C 0.28364 1.19722 0.12546
 H14 H 0.08364 1.30287 0.21922
 H15 H 0.22803 1.29651 0.08029
 H16 H 0.08274 1.22974 0.30150
 H17 H 0.22008 1.08386 0.30694
 H18 H 0.30133 1.08112 0.23127
 H19 H 0.30280 1.21398 0.08215
 C20 C 0.85420 0.76967 0.22764
 C21 C 0.88251 0.71778 0.20046
 C22 C 0.85718 0.68886 0.14731
 C23 C 0.80057 0.71199 0.12378
 C24 C 0.77203 0.76409 0.15040
 C25 C 0.79897 0.79311 0.20246
 C26 C 0.88172 0.79949 0.27853
 C27 C 0.85568 0.85373 0.30465
 C28 C 0.79953 0.87600 0.27932
 C29 C 0.77162 0.84659 0.22824
 C30 C 0.71847 0.87181 0.20055
 C31 C 0.69228 0.84428 0.14737
 C32 C 0.71858 0.78949 0.12362
 H33 H 0.92419 0.69981 0.22171
 H34 H 0.78047 0.69276 0.08193
 H35 H 0.92321 0.77932 0.29812
 H36 H 0.77910 0.91859 0.29630
 H37 H 0.69926 0.91455 0.21873
 H38 H 0.69826 0.76739 0.08323
 C39 C 0.84624 1.22911 -0.22803
 C40 C 0.87471 1.28086 -0.20043
 C41 C 0.85026 1.30760 -0.14609
 C42 C 0.79536 1.28322 -0.12092
 C43 C 0.76707 1.23093 -0.14732
 C44 C 0.79277 1.20352 -0.20088
 C45 C 0.87244 1.20078 -0.28047
 C46 C 0.84694 1.14591 -0.30606
 C47 C 0.79288 1.12139 -0.27836
 C48 C 0.76610 1.14944 -0.22609
 C49 C 0.71440 1.12266 -0.19717
 C50 C 0.68922 1.14898 -0.14298
 C51 C 0.71511 1.20401 -0.11925
 H52 H 0.91748 1.29852 -0.21978
 H53 H 0.77542 1.30399 -0.07969
 H54 H 0.91519 1.21978 -0.29837
 H55 H 0.77041 1.08086 -0.29774
 H56 H 0.69558 1.07967 -0.21528
 H57 H 0.69569 1.22512 -0.07794
 C58 C 0.14821 0.77368 -0.23290
 C59 C 0.12028 0.72202 -0.20506
 C60 C 0.14566 0.69437 -0.15126
 C61 C 0.20133 0.71928 -0.12715
 C62 C 0.22950 0.77126 -0.15433
 C63 C 0.20301 0.79839 -0.20753
 C64 C 0.12060 0.80253 -0.28431
 C65 C 0.14687 0.85615 -0.31058
 C66 C 0.20258 0.87938 -0.28600
 C67 C 0.23024 0.85147 -0.23424
 C68 C 0.28307 0.87767 -0.20702
 C69 C 0.30828 0.85266 -0.15232
 C70 C 0.28194 0.79857 -0.12705
 H71 H 0.07911 0.70301 -0.22653
 H72 H 0.22109 0.70125 -0.08467
 H73 H 0.07708 0.78483 -0.30202
 H74 H 0.22371 0.92021 -0.30626
 H75 H 0.30354 0.91874 -0.22748
 H76 H 0.30041 0.77936 -0.08443
 C77 C 0.59648 1.07874 -0.01178
 H78 H 0.59876 1.07479 0.03822
 C79 C 0.64085 1.11339 -0.04340
 H80 H 0.67744 1.13558 -0.01715
 C81 C 0.54823 1.05062 -0.10656
 H82 H 0.51287 1.02493 -0.13103
 C83 C 0.59159 1.08508 -0.14010
 H84 H 0.58834 1.08650 -0.19023
 N85 N 0.55163 1.04793 -0.04356
 C86 C 0.40289 1.01153 0.08732
 H87 H 0.40078 0.96148 0.08416
 C88 C 0.35813 1.04369 0.12109
 H89 H 0.32153 1.01780 0.14351
 C90 C 0.45074 1.10587 0.05766
 H91 H 0.48599 1.12996 0.03159
 C92 C 0.40704 1.13993 0.09119
 H93 H 0.40999 1.19007 0.09159
 Zn94 Zn 0.49938 0.99563 0.00339
 N95 N 0.44760 1.04285 0.05600
 C96 C 0.54948 0.94073 0.11289
 N97 N 0.55162 0.94293 0.04983
 C98 C 0.59577 0.91187 0.01746
 C99 C 0.64097 0.87778 0.04851
 C100 C 0.59373 0.90682 0.14591
 C101 C 0.40243 0.98183 -0.07977
 C102 C 0.35778 0.95109 -0.11497
 C103 C 0.40557 0.85357 -0.08758
 C104 C 0.44928 0.88629 -0.05252
 N105 N 0.44674 0.94928 -0.04918
 H106 H 0.51460 0.96661 0.13778
 H107 H 0.59707 0.91549 -0.03261
 H108 H 0.67712 0.85563 0.02173
 H109 H 0.59165 0.90598 0.19611
 H110 H 0.40082 1.03180 -0.07528
 H111 H 0.32165 0.97800 -0.13698
 H112 H 0.40812 0.80345 -0.08958
 H113 H 0.48427 0.86123 -0.02699
 C114 C 0.35927 1.10887 0.12267
 C115 C 0.63922 1.11645 -0.10854
 C116 C 0.35857 0.88600 -0.11888
 C117 C 0.64090 0.87552 0.11371
 C118 C -0.01053 0.59444 1.08728
 H119 H 0.03952 0.59341 1.08840
 C120 C -0.04127 0.63698 1.12017
 H121 H -0.01454 0.67050 1.14624
 C122 C -0.10333 0.55170 1.04530
 H123 H -0.12706 0.51998 1.01455
 C124 C -0.13937 0.59806 1.08053
 H125 H -0.18922 0.59601 1.07686
 N126 N -0.04325 0.55108 1.04878
 C127 C 0.09719 0.40582 1.01273
 H128 H 0.09996 0.40815 0.96263
 C129 C 0.12900 0.36249 1.04358
 H130 H 0.15604 0.32983 1.01686
 C131 C 0.05229 0.44598 1.10543
 H132 H 0.02043 0.47649 1.12905
 C133 C 0.08646 0.39902 1.14151
 H134 H 0.08127 0.40004 1.19142
 Zn135 Zn 0.00531 0.49955 0.99727
 N136 N 0.05743 0.44804 1.04533
 C137 C 0.11437 0.55655 0.94986
 N138 N 0.05171 0.55328 0.94609
 C139 C 0.01919 0.59323 0.91002
 C140 C 0.04952 0.63890 0.87583
 C141 C 0.14672 0.60201 0.91695
 C142 C -0.07733 0.40271 0.98272
 C143 C -0.11259 0.35794 0.95217
 C144 C -0.08285 0.40362 0.85429
 C145 C -0.04758 0.44733 0.88683
 N146 N -0.04556 0.44605 0.94994
 H147 H 0.13931 0.52502 0.97971
 H148 H -0.03081 0.59077 0.90938
 H149 H 0.02118 0.67140 0.85033
 H150 H 0.19664 0.60234 0.92045
 H151 H -0.07400 0.40216 1.03283
 H152 H -0.13559 0.32265 0.97941
 H153 H -0.08407 0.40546 0.80410
 H154 H -0.02105 0.48140 0.86153
 C155 C 0.12284 0.35701 1.11244
 C156 C -0.11020 0.64054 1.11646
 C157 C -0.11555 0.35769 0.88700
 C158 C 0.11451 0.64502 0.87946
 C159 C 1.07774 -0.01249 0.59602
 H160 H 1.07544 0.03764 0.59736
 C161 C 1.11230 -0.04427 0.64038
 H162 H 1.13590 -0.01798 0.67612
 C163 C 1.04597 -0.10717 0.54990
 H164 H 1.01886 -0.13153 0.51550
 C165 C 1.08041 -0.14091 0.59321
 H166 H 1.08044 -0.19108 0.59071
 N167 N 1.04532 -0.04409 0.55213
 C168 C 1.01284 0.09729 0.40719
 H169 H 0.96287 0.10015 0.40866
 C170 C 1.04443 0.12963 0.36488
 H171 H 1.01843 0.15716 0.33207
 C172 C 1.10442 0.05171 0.44859
 H173 H 1.12729 0.01952 0.47937
 C174 C 1.14133 0.08624 0.40251
 H175 H 1.19102 0.08073 0.40405
 Zn176 Zn 0.99513 0.00468 0.49946
 N177 N 1.04447 0.05695 0.44954
 C178 C 0.94804 0.11408 0.55632
 N179 N 0.94302 0.05141 0.55213
 C180 C 0.90534 0.01914 0.59075
 C181 C 0.87132 0.04972 0.63649
 C182 C 0.91523 0.14665 0.60172
 C183 C 0.98167 -0.08122 0.40438
 C184 C 0.95166 -0.11617 0.35895
 C185 C 0.85407 -0.07573 0.39550
 C186 C 0.88614 -0.04207 0.44081
 N187 N 0.94881 -0.04541 0.44434
 H188 H 0.97903 0.13882 0.52580
 H189 H 0.90350 -0.03092 0.58741
 H190 H 0.84473 0.02144 0.66814
 H191 H 0.91989 0.19659 0.60277
 H192 H 1.03166 -0.08151 0.40703
 H193 H 0.98021 -0.14175 0.32665
 H194 H 0.80412 -0.07279 0.39513
 H195 H 0.86091 -0.01236 0.47229
 C196 C 1.11313 0.12329 0.36050
 C197 C 1.11372 -0.10944 0.63969
 C198 C 0.88660 -0.11363 0.35305
 C199 C 0.87670 0.11465 0.64394
   
