data_POSCAR
  _audit_creation_date              2014-09-24
  _audit_creation_method            'ToBaCCo'
  _symmetry_space_group_name_H-M    'P1'
  _symmetry_Int_Tables_number       1
  _symmetry_cell_setting            triclinic
  loop_
  _symmetry_equiv_pos_as_xyz
 x,y,z
_cell_length_a 51.3046
_cell_length_b 51.4340
_cell_length_c 51.5989
_cell_angle_alpha 90.003900
_cell_angle_beta 89.992400
_cell_angle_gamma 89.993400
loop_
  _atom_site_label
  _atom_site_type_symbol
  _atom_site_fract_x
  _atom_site_fract_y
  _atom_site_fract_z
N1 N 0.29153 0.23928 0.21914
 N2 N 0.28094 0.26028 0.20906
 C3 C 0.29474 0.26742 0.18800
 C4 C 0.31489 0.24998 0.18491
 C5 C 0.31240 0.23237 0.20488
 H6 H 0.29052 0.28401 0.17582
 H7 H 0.32483 0.21584 0.20874
 Cu8 Cu 0.25022 0.27616 0.22455
 Cu9 Cu 0.27751 0.22250 0.24997
 Cu10 Cu 0.22231 0.25003 0.27743
 N11 N 0.21898 0.29118 0.23988
 N12 N 0.20818 0.28085 0.26059
 C13 C 0.18708 0.29491 0.26726
 C14 C 0.18463 0.31501 0.24978
 C15 C 0.20505 0.31219 0.23265
 H16 H 0.17450 0.29087 0.28360
 H17 H 0.20939 0.32454 0.21625
 N18 N 0.23946 0.21885 0.29165
 N19 N 0.26049 0.20835 0.28120
 C20 C 0.26747 0.18739 0.29524
 C21 C 0.25002 0.18471 0.31534
 C22 C 0.23252 0.20483 0.31262
 H23 H 0.28398 0.17496 0.29121
 H24 H 0.21601 0.20888 0.32500
 H25 H 0.23946 0.23460 0.24462
 H26 H 0.26046 0.25527 0.26577
 N27 N 0.70815 -0.23934 0.21843
 N28 N 0.71829 -0.26076 0.20877
 C29 C 0.70431 -0.26809 0.18789
 C30 C 0.68449 -0.25031 0.18452
 C31 C 0.68736 -0.23233 0.20410
 H32 H 0.70824 -0.28497 0.17600
 H33 H 0.67524 -0.21550 0.20770
 Cu34 Cu 0.74905 -0.27678 0.22409
 Cu35 Cu 0.72239 -0.22232 0.24900
 Cu36 Cu 0.77472 -0.25251 0.27890
 N37 N 0.78097 -0.29086 0.23902
 N38 N 0.79104 -0.28113 0.26037
 C39 C 0.81251 -0.29474 0.26682
 C40 C 0.81598 -0.31388 0.24845
 C41 C 0.79576 -0.31102 0.23108
 H42 H 0.82440 -0.29125 0.28378
 H43 H 0.79194 -0.32292 0.21422
 N44 N 0.75928 -0.21991 0.29177
 N45 N 0.73945 -0.20828 0.28026
 C46 C 0.73328 -0.18663 0.29365
 C47 C 0.75009 -0.18464 0.31438
 C48 C 0.76633 -0.20591 0.31271
 H49 H 0.71763 -0.17340 0.28888
 H50 H 0.78200 -0.21081 0.32584
 H51 H 0.76028 -0.23609 0.24541
 H52 H 0.73675 -0.25572 0.26488
 N53 N 0.70887 0.23978 0.78063
 N54 N 0.71968 0.26055 0.79092
 C55 C 0.70580 0.26781 0.81190
 C56 C 0.68537 0.25063 0.81473
 C57 C 0.68778 0.23310 0.79468
 H58 H 0.71017 0.28425 0.82421
 H59 H 0.67518 0.21674 0.79066
 Cu60 Cu 0.75085 0.27595 0.77585
 Cu61 Cu 0.72294 0.22292 0.74985
 Cu62 Cu 0.77817 0.25045 0.72237
 N63 N 0.78162 0.29146 0.76009
 N64 N 0.79222 0.28136 0.73916
 C65 C 0.81312 0.29564 0.73230
 C66 C 0.81560 0.31564 0.74990
 C67 C 0.79544 0.31257 0.76729
 H68 H 0.82556 0.29176 0.71581
 H69 H 0.79121 0.32474 0.78386
 N70 N 0.76107 0.21916 0.70822
 N71 N 0.74004 0.20869 0.71869
 C72 C 0.73307 0.18768 0.70469
 C73 C 0.75054 0.18494 0.68461
 C74 C 0.76802 0.20508 0.68729
 H75 H 0.71655 0.17527 0.70872
 H76 H 0.78452 0.20912 0.67488
 H77 H 0.76114 0.23457 0.75503
 H78 H 0.74015 0.25577 0.73441
 N79 N 0.29146 -0.23984 0.78133
 N80 N 0.28086 -0.26082 0.79143
 C81 C 0.29467 -0.26796 0.81250
 C82 C 0.31483 -0.25052 0.81557
 C83 C 0.31233 -0.23293 0.79558
 H84 H 0.29046 -0.28455 0.82467
 H85 H 0.32477 -0.21641 0.79170
 Cu86 Cu 0.25011 -0.27668 0.77594
 Cu87 Cu 0.27749 -0.22309 0.75045
 Cu88 Cu 0.22231 -0.25067 0.72298
 N89 N 0.21893 -0.29181 0.76058
 N90 N 0.20816 -0.28150 0.73983
 C91 C 0.18706 -0.29557 0.73315
 C92 C 0.18463 -0.31564 0.75067
 C93 C 0.20503 -0.31283 0.76783
 H94 H 0.17449 -0.29153 0.71681
 H95 H 0.20937 -0.32516 0.78426
 N96 N 0.23946 -0.21946 0.70873
 N97 N 0.26048 -0.20896 0.71919
 C98 C 0.26749 -0.18801 0.70512
 C99 C 0.25006 -0.18535 0.68500
 C100 C 0.23256 -0.20546 0.68774
 H101 H 0.28399 -0.17558 0.70915
 H102 H 0.21606 -0.20952 0.67534
 H103 H 0.23946 -0.23514 0.75574
 H104 H 0.26049 -0.25588 0.73469
 N105 N 0.70949 -0.23892 0.78145
 N106 N 0.71959 -0.26036 0.79110
 C107 C 0.70507 -0.26815 0.81144
 C108 C 0.68500 -0.25061 0.81452
 C109 C 0.68826 -0.23231 0.79531
 H110 H 0.70888 -0.28510 0.82325
 H111 H 0.67629 -0.21535 0.79183
 Cu112 Cu 0.75085 -0.27555 0.77603
 Cu113 Cu 0.72533 -0.22063 0.75239
 Cu114 Cu 0.77780 -0.25064 0.72225
 N115 N 0.78208 -0.29074 0.76096
 N116 N 0.79232 -0.28102 0.73966
 C117 C 0.81331 -0.29520 0.73291
 C118 C 0.81622 -0.31472 0.75095
 C119 C 0.79622 -0.31150 0.76849
 H120 H 0.82544 -0.29163 0.71614
 H121 H 0.79222 -0.32345 0.78528
 N122 N 0.76033 -0.21957 0.70804
 N123 N 0.74044 -0.20805 0.71959
 C124 C 0.73319 -0.18725 0.70546
 C125 C 0.74934 -0.18570 0.68420
 C126 C 0.76631 -0.20633 0.68631
 H127 H 0.71748 -0.17409 0.71030
 H128 H 0.78198 -0.21111 0.67312
 H129 H 0.73978 -0.25401 0.73562
 H130 H 0.76326 -0.23469 0.75542
 N131 N 0.29174 0.23934 0.78076
 N132 N 0.28092 0.26011 0.79106
 C133 C 0.29480 0.26738 0.81201
 C134 C 0.31523 0.25022 0.81481
 C135 C 0.31283 0.23267 0.79479
 H136 H 0.29044 0.28382 0.82433
 H137 H 0.32544 0.21631 0.79077
 Cu138 Cu 0.24976 0.27549 0.77607
 Cu139 Cu 0.27768 0.22246 0.75004
 Cu140 Cu 0.22248 0.25003 0.72257
 N141 N 0.21907 0.29101 0.76027
 N142 N 0.20849 0.28092 0.73933
 C143 C 0.18762 0.29521 0.73247
 C144 C 0.18512 0.31520 0.75005
 C145 C 0.20526 0.31211 0.76744
 H146 H 0.17518 0.29135 0.71599
 H147 H 0.20944 0.32429 0.78401
 N148 N 0.23952 0.21876 0.70848
 N149 N 0.26055 0.20826 0.71893
 C150 C 0.26748 0.18724 0.70495
 C151 C 0.24999 0.18454 0.68491
 C152 C 0.23254 0.20469 0.68757
 H153 H 0.28399 0.17480 0.70897
 H154 H 0.21603 0.20874 0.67518
 H155 H 0.26050 0.25537 0.73464
 H156 H 0.23948 0.23415 0.75525
 N157 N 0.29162 -0.23880 0.21866
 N158 N 0.28094 -0.25969 0.20848
 C159 C 0.29474 -0.26688 0.18744
 C160 C 0.31501 -0.24956 0.18449
 C161 C 0.31258 -0.23200 0.20450
 H162 H 0.29046 -0.28340 0.17520
 H163 H 0.32513 -0.21557 0.20846
 Cu164 Cu 0.25014 -0.27539 0.22390
 Cu165 Cu 0.27767 -0.22200 0.24950
 Cu166 Cu 0.22241 -0.24954 0.27693
 N167 N 0.21903 -0.29055 0.23924
 N168 N 0.20831 -0.28032 0.26003
 C169 C 0.18726 -0.29443 0.26672
 C170 C 0.18478 -0.31444 0.24916
 C171 C 0.20511 -0.31154 0.23195
 H172 H 0.17472 -0.29048 0.28311
 H173 H 0.20937 -0.32379 0.21545
 N174 N 0.23960 -0.21842 0.29117
 N175 N 0.26064 -0.20793 0.28074
 C176 C 0.26775 -0.18710 0.29491
 C177 C 0.25034 -0.18451 0.31505
 C178 C 0.23277 -0.20453 0.31225
 H179 H 0.28432 -0.17473 0.29095
 H180 H 0.21631 -0.20863 0.32468
 H181 H 0.26055 -0.25472 0.26519
 H182 H 0.23958 -0.23388 0.24419
 N183 N 0.70794 0.23904 0.21934
 N184 N 0.71876 0.25981 0.20905
 C185 C 0.70488 0.26709 0.18810
 C186 C 0.68444 0.24994 0.18530
 C187 C 0.68684 0.23239 0.20532
 H188 H 0.70926 0.28352 0.17578
 H189 H 0.67422 0.21604 0.20934
 Cu190 Cu 0.74995 0.27517 0.22401
 Cu191 Cu 0.72202 0.22215 0.25006
 Cu192 Cu 0.77723 0.24970 0.27750
 N193 N 0.78065 0.29067 0.23980
 N194 N 0.79122 0.28059 0.26074
 C195 C 0.81210 0.29488 0.26760
 C196 C 0.81460 0.31486 0.25001
 C197 C 0.79446 0.31176 0.23262
 H198 H 0.82452 0.29103 0.28409
 H199 H 0.79028 0.32393 0.21605
 N200 N 0.76019 0.21843 0.29160
 N201 N 0.73916 0.20793 0.28115
 C202 C 0.73224 0.18691 0.29514
 C203 C 0.74974 0.18422 0.31518
 C204 C 0.76718 0.20437 0.31251
 H205 H 0.71573 0.17448 0.29112
 H206 H 0.78368 0.20843 0.32490
 H207 H 0.73920 0.25505 0.26543
 H208 H 0.76022 0.23382 0.24482
 O209 O 0.22858 0.02510 0.47499
 O210 O 0.22861 -0.02554 0.52547
 O211 O 0.22859 0.02507 0.52546
 O212 O 0.22863 -0.02553 0.47503
 O213 O 0.27162 -0.02552 0.47503
 O214 O 0.27158 0.02508 0.52545
 O215 O 0.27160 -0.02554 0.52547
 O216 O 0.27157 0.02510 0.47498
 Cu217 Cu 0.22429 -0.00022 0.50024
 Cu218 Cu 0.27590 -0.00021 0.50023
 C219 C 0.25007 0.03377 0.46633
 C220 C 0.25010 -0.03422 0.53412
 C221 C 0.25009 0.03375 0.53410
 C222 C 0.25013 -0.03420 0.46639
 O223 O 0.77140 0.02492 0.52529
 O224 O 0.77140 -0.02567 0.47478
 O225 O 0.77133 0.02493 0.47483
 O226 O 0.77124 -0.02572 0.52526
 O227 O 0.72825 -0.02565 0.52520
 O228 O 0.72834 0.02496 0.47482
 O229 O 0.72842 -0.02564 0.47473
 O230 O 0.72841 0.02498 0.52527
 Cu231 Cu 0.77565 -0.00039 0.50005
 Cu232 Cu 0.72405 -0.00034 0.50001
 C233 C 0.74992 0.03364 0.53393
 C234 C 0.74992 -0.03430 0.46607
 C235 C 0.74984 0.03360 0.46617
 C236 C 0.74972 -0.03437 0.53387
 O237 O 0.47474 0.22915 0.02504
 O238 O 0.52551 0.22924 -0.02546
 O239 O 0.52547 0.22917 0.02500
 O240 O 0.47475 0.22918 -0.02542
 O241 O 0.47472 0.27206 -0.02538
 O242 O 0.52544 0.27205 0.02504
 O243 O 0.52547 0.27212 -0.02542
 O244 O 0.47471 0.27203 0.02507
 Cu245 Cu 0.50012 0.22488 -0.00022
 Cu246 Cu 0.50008 0.27636 -0.00017
 C247 C 0.46602 0.25058 0.03371
 C248 C 0.53420 0.25070 -0.03409
 C249 C 0.53413 0.25060 0.03367
 C250 C 0.46604 0.25062 -0.03403
 O251 O 0.52604 0.77078 0.02535
 O252 O 0.47522 0.77075 -0.02511
 O253 O 0.47531 0.77080 0.02535
 O254 O 0.52598 0.77070 -0.02514
 O255 O 0.52594 0.72782 -0.02508
 O256 O 0.47527 0.72792 0.02541
 O257 O 0.47519 0.72787 -0.02505
 O258 O 0.52601 0.72790 0.02540
 Cu259 Cu 0.50065 0.77505 0.00010
 Cu260 Cu 0.50061 0.72359 0.00017
 C261 C 0.53472 0.74934 0.03404
 C262 C 0.46649 0.74931 -0.03372
 C263 C 0.46659 0.74938 0.03403
 C264 C 0.53464 0.74924 -0.03377
 O265 O 0.02474 0.47522 0.22788
 O266 O -0.02604 0.52585 0.22771
 O267 O 0.02473 0.52580 0.22780
 O268 O -0.02598 0.47521 0.22787
 O269 O -0.02603 0.47532 0.27061
 O270 O 0.02468 0.52590 0.27055
 O271 O -0.02610 0.52598 0.27045
 O272 O 0.02470 0.47531 0.27063
 Cu273 Cu -0.00064 0.50052 0.22354
 Cu274 Cu -0.00071 0.50065 0.27484
 C275 C 0.03343 0.46659 0.24928
 C276 C -0.03477 0.53461 0.24904
 C277 C 0.03343 0.53448 0.24917
 C278 C -0.03467 0.46657 0.24926
 O279 O 0.02516 0.52561 0.77214
 O280 O -0.02563 0.47496 0.77206
 O281 O 0.02512 0.47500 0.77207
 O282 O -0.02561 0.52559 0.77215
 O283 O -0.02561 0.52567 0.72941
 O284 O 0.02513 0.47507 0.72933
 O285 O -0.02562 0.47503 0.72932
 O286 O 0.02516 0.52568 0.72940
 Cu287 Cu -0.00025 0.50029 0.77639
 Cu288 Cu -0.00024 0.50038 0.72508
 C289 C 0.03388 0.53431 0.75079
 C290 C -0.03432 0.46630 0.75067
 C291 C 0.03382 0.46637 0.75069
 C292 C -0.03431 0.53430 0.75080
 C293 C 0.41650 0.22702 0.08301
 C294 C 0.40681 0.25054 0.09265
 C295 C 0.41647 0.27409 0.08302
 C296 C 0.43574 0.27413 0.06385
 C297 C 0.33454 0.25017 0.16506
 C298 C 0.43577 0.22700 0.06384
 C299 C 0.38701 0.25051 0.11243
 C300 C 0.37045 0.25044 0.12901
 C301 C 0.35107 0.25031 0.14844
 C302 C 0.44561 0.25057 0.05403
 H303 H 0.40916 0.20868 0.09032
 H304 H 0.40911 0.29242 0.09034
 H305 H 0.44289 0.29260 0.05673
 H306 H 0.44294 0.20853 0.05671
 C307 C 0.58413 0.77289 0.08348
 C308 C 0.59377 0.74935 0.09315
 C309 C 0.58414 0.72582 0.08348
 C310 C 0.56494 0.72579 0.06424
 C311 C 0.66591 0.74955 0.16572
 C312 C 0.56493 0.77291 0.06424
 C313 C 0.61352 0.74936 0.11299
 C314 C 0.63005 0.74940 0.12960
 C315 C 0.64940 0.74946 0.14907
 C316 C 0.55510 0.74935 0.05439
 H317 H 0.59144 0.79123 0.09083
 H318 H 0.59146 0.70748 0.09082
 H319 H 0.55781 0.70731 0.05709
 H320 H 0.55779 0.79138 0.05709
 C321 C 0.58373 0.27434 -0.08336
 C322 C 0.59343 0.25082 -0.09301
 C323 C 0.58379 0.22726 -0.08341
 C324 C 0.56452 0.22719 -0.06423
 C325 C 0.66571 0.25083 -0.16543
 C326 C 0.56446 0.27432 -0.06418
 C327 C 0.61324 0.25088 -0.11279
 C328 C 0.62981 0.25091 -0.12937
 C329 C 0.64919 0.25091 -0.14881
 C330 C 0.55462 0.25074 -0.05440
 H331 H 0.59105 0.29269 -0.09066
 H332 H 0.59115 0.20894 -0.09075
 H333 H 0.55738 0.20871 -0.05713
 H334 H 0.55727 0.29278 -0.05704
 C335 C 0.41677 0.77281 -0.08288
 C336 C 0.40707 0.74927 -0.09247
 C337 C 0.41680 0.72574 -0.08287
 C338 C 0.43613 0.72573 -0.06376
 C339 C 0.33450 0.74933 -0.16460
 C340 C 0.43611 0.77285 -0.06378
 C341 C 0.38716 0.74925 -0.11215
 C342 C 0.37052 0.74924 -0.12865
 C343 C 0.35106 0.74926 -0.14802
 C344 C 0.44602 0.74930 -0.05398
 H345 H 0.40940 0.79114 -0.09018
 H346 H 0.40944 0.70740 -0.09016
 H347 H 0.44333 0.70726 -0.05666
 H348 H 0.44329 0.79133 -0.05669
 C349 C 0.08296 0.41714 0.27279
 C350 C 0.09264 0.40747 0.24934
 C351 C 0.08299 0.41712 0.22587
 C352 C 0.06373 0.43637 0.22583
 C353 C 0.16495 0.33488 0.24959
 C354 C 0.06371 0.43639 0.27281
 C355 C 0.11245 0.38764 0.24936
 C356 C 0.12902 0.37101 0.24940
 C357 C 0.14841 0.35153 0.24948
 C358 C 0.05386 0.44623 0.24931
 H359 H 0.09029 0.40980 0.29107
 H360 H 0.09033 0.40976 0.20760
 H361 H 0.05658 0.44350 0.20741
 H362 H 0.05653 0.44355 0.29121
 C363 C 0.08367 0.58359 0.72742
 C364 C 0.09336 0.59319 0.75090
 C365 C 0.08362 0.58355 0.77434
 C366 C 0.06426 0.56441 0.77433
 C367 C 0.16596 0.66557 0.75087
 C368 C 0.06431 0.56444 0.72735
 C369 C 0.11327 0.61295 0.75094
 C370 C 0.12991 0.62952 0.75097
 C371 C 0.14937 0.64895 0.75095
 C372 C 0.05437 0.55463 0.75082
 H373 H 0.09107 0.59091 0.70915
 H374 H 0.09098 0.59084 0.79263
 H375 H 0.05706 0.55727 0.79273
 H376 H 0.05715 0.55733 0.70893
 C377 C -0.08412 0.58444 0.27221
 C378 C -0.09361 0.59414 0.24868
 C379 C -0.08396 0.58429 0.22529
 C380 C -0.06487 0.56488 0.22538
 C381 C -0.16532 0.66737 0.24830
 C382 C -0.06502 0.56503 0.27236
 C383 C -0.11320 0.61420 0.24854
 C384 C -0.12960 0.63100 0.24842
 C385 C -0.14883 0.65065 0.24831
 C386 C -0.05514 0.55504 0.24893
 H387 H -0.09146 0.59191 0.29044
 H388 H -0.09118 0.59164 0.20697
 H389 H -0.05771 0.55761 0.20702
 H390 H -0.05798 0.55788 0.29082
 C391 C -0.08376 0.41679 0.72710
 C392 C -0.09346 0.40709 0.75054
 C393 C -0.08383 0.41674 0.77402
 C394 C -0.06460 0.43601 0.77410
 C395 C -0.16579 0.33448 0.75012
 C396 C -0.06454 0.43606 0.72712
 C397 C -0.11328 0.38725 0.75048
 C398 C -0.12986 0.37063 0.75041
 C399 C -0.14926 0.35115 0.75027
 C400 C -0.05472 0.44590 0.75063
 H401 H -0.09106 0.40945 0.70881
 H402 H -0.09118 0.40936 0.79228
 H403 H -0.05748 0.44315 0.79252
 H404 H -0.05737 0.44324 0.70872
 C405 C 0.22648 0.08311 0.41695
 C406 C 0.25007 0.09274 0.40730
 C407 C 0.27367 0.08311 0.41695
 C408 C 0.27370 0.06393 0.43616
 C409 C 0.25001 0.16497 0.33504
 C410 C 0.22645 0.06393 0.43616
 C411 C 0.25007 0.11248 0.38752
 C412 C 0.25005 0.12903 0.37096
 C413 C 0.25003 0.14841 0.35158
 C414 C 0.25007 0.05411 0.44599
 H415 H 0.20810 0.09043 0.40962
 H416 H 0.29205 0.09042 0.40962
 H417 H 0.29221 0.05680 0.44330
 H418 H 0.20793 0.05680 0.44329
 C419 C 0.72643 0.08321 0.58314
 C420 C 0.75005 0.09285 0.59272
 C421 C 0.77362 0.08315 0.58308
 C422 C 0.77360 0.06387 0.56397
 C423 C 0.75048 0.16520 0.66490
 C424 C 0.72635 0.06393 0.56403
 C425 C 0.75013 0.11266 0.61245
 C426 C 0.75023 0.12923 0.62899
 C427 C 0.75038 0.14863 0.64836
 C428 C 0.74995 0.05403 0.55421
 H429 H 0.70806 0.09059 0.59046
 H430 H 0.79202 0.09048 0.59034
 H431 H 0.79210 0.05668 0.55685
 H432 H 0.70782 0.05678 0.55695
 C433 C 0.27371 -0.08357 0.58348
 C434 C 0.25012 -0.09322 0.59312
 C435 C 0.22652 -0.08358 0.58348
 C436 C 0.22649 -0.06441 0.56426
 C437 C 0.25008 -0.16561 0.66527
 C438 C 0.27373 -0.06440 0.56426
 C439 C 0.25012 -0.11302 0.61286
 C440 C 0.25011 -0.12961 0.62938
 C441 C 0.25010 -0.14904 0.64873
 C442 C 0.25011 -0.05458 0.55443
 H443 H 0.29209 -0.09088 0.59081
 H444 H 0.20814 -0.09089 0.59081
 H445 H 0.20797 -0.05729 0.55711
 H446 H 0.29225 -0.05727 0.55711
 C447 C 0.72643 -0.08344 0.41643
 C448 C 0.75005 -0.09299 0.40674
 C449 C 0.77361 -0.08340 0.41649
 C450 C 0.77360 -0.06432 0.43580
 C451 C 0.75020 -0.16486 0.33406
 C452 C 0.72635 -0.06436 0.43575
 C453 C 0.75011 -0.11261 0.38681
 C454 C 0.75017 -0.12904 0.37013
 C455 C 0.75022 -0.14833 0.35064
 C456 C 0.74995 -0.05457 0.44566
 H457 H 0.70806 -0.09073 0.40904
 H458 H 0.79202 -0.09065 0.40914
 H459 H 0.79210 -0.05721 0.44299
 H460 H 0.70782 -0.05727 0.44290
 C461 C 0.58389 0.77264 -0.08335
 C462 C 0.59344 0.74907 -0.09302
 C463 C 0.58384 0.72556 -0.08327
 C464 C 0.56473 0.72559 -0.06396
 C465 C 0.66526 0.74913 -0.16575
 C466 C 0.56478 0.77273 -0.06404
 C467 C 0.61306 0.74901 -0.11294
 C468 C 0.62949 0.74899 -0.12963
 C469 C 0.64876 0.74902 -0.14914
 C470 C 0.55497 0.74919 -0.05414
 H471 H 0.59120 0.79096 -0.09075
 H472 H 0.59111 0.70721 -0.09062
 H473 H 0.55760 0.70714 -0.05676
 H474 H 0.55769 0.79122 -0.05689
 C475 C 0.41654 0.27416 -0.08328
 C476 C 0.40689 0.25062 -0.09290
 C477 C 0.41654 0.22708 -0.08328
 C478 C 0.43578 0.22705 -0.06410
 C479 C 0.33486 0.25043 -0.16537
 C480 C 0.43578 0.27419 -0.06410
 C481 C 0.38715 0.25063 -0.11269
 C482 C 0.37064 0.25061 -0.12929
 C483 C 0.35134 0.25055 -0.14875
 C484 C 0.44563 0.25062 -0.05431
 H485 H 0.40919 0.29250 -0.09060
 H486 H 0.40919 0.20875 -0.09060
 H487 H 0.44294 0.20858 -0.05698
 H488 H 0.44294 0.29266 -0.05698
 C489 C 0.41698 0.72601 0.08326
 C490 C 0.40735 0.74959 0.09282
 C491 C 0.41706 0.77309 0.08317
 C492 C 0.43635 0.77305 0.06404
 C493 C 0.33475 0.75016 0.16477
 C494 C 0.43628 0.72591 0.06413
 C495 C 0.38750 0.74967 0.11251
 C496 C 0.37086 0.74978 0.12899
 C497 C 0.35137 0.74996 0.14827
 C498 C 0.44619 0.74944 0.05430
 H499 H 0.40957 0.70770 0.09059
 H500 H 0.40971 0.79145 0.09042
 H501 H 0.44356 0.79149 0.05689
 H502 H 0.44343 0.70741 0.05705
 C503 C 0.58345 0.27412 0.08310
 C504 C 0.59304 0.25058 0.09277
 C505 C 0.58343 0.22704 0.08309
 C506 C 0.56428 0.22702 0.06384
 C507 C 0.66483 0.25019 0.16548
 C508 C 0.56429 0.27416 0.06384
 C509 C 0.61269 0.25055 0.11265
 C510 C 0.62913 0.25048 0.12931
 C511 C 0.64838 0.25035 0.14882
 C512 C 0.55448 0.25060 0.05400
 H513 H 0.59077 0.29245 0.09046
 H514 H 0.59074 0.20870 0.09045
 H515 H 0.55714 0.20856 0.05668
 H516 H 0.55717 0.29264 0.05669
 C517 C -0.08376 0.58371 0.77442
 C518 C -0.09341 0.59344 0.75099
 C519 C -0.08380 0.58381 0.72749
 C520 C -0.06459 0.56454 0.72739
 C521 C -0.16525 0.66640 0.75111
 C522 C -0.06454 0.56443 0.77438
 C523 C -0.11310 0.61336 0.75107
 C524 C -0.12957 0.63007 0.75112
 C525 C -0.14882 0.64966 0.75115
 C526 C -0.05472 0.55465 0.75085
 H527 H -0.09106 0.59102 0.79272
 H528 H -0.09115 0.59122 0.70924
 H529 H -0.05746 0.55742 0.70896
 H530 H -0.05738 0.55723 0.79277
 C531 C -0.08401 0.41697 0.22589
 C532 C -0.09364 0.40734 0.24937
 C533 C -0.08400 0.41705 0.27282
 C534 C -0.06481 0.43634 0.27281
 C535 C -0.16577 0.33474 0.24979
 C536 C -0.06481 0.43625 0.22582
 C537 C -0.11338 0.38750 0.24942
 C538 C -0.12992 0.37087 0.24950
 C539 C -0.14927 0.35139 0.24963
 C540 C -0.05500 0.44616 0.24929
 H541 H -0.09134 0.40957 0.20763
 H542 H -0.09133 0.40973 0.29111
 H543 H -0.05766 0.44354 0.29120
 H544 H -0.05767 0.44338 0.20739
 C545 C 0.08338 0.41699 0.77409
 C546 C 0.09305 0.40738 0.75061
 C547 C 0.08337 0.41703 0.72716
 C548 C 0.06410 0.43624 0.72715
 C549 C 0.16547 0.33505 0.75027
 C550 C 0.06410 0.43620 0.77414
 C551 C 0.11290 0.38763 0.75058
 C552 C 0.12951 0.37108 0.75053
 C553 C 0.14892 0.35167 0.75041
 C554 C 0.05424 0.44604 0.75066
 H555 H 0.09074 0.40963 0.79236
 H556 H 0.09072 0.40971 0.70888
 H557 H 0.05693 0.44340 0.70875
 H558 H 0.05694 0.44332 0.79256
 C559 C 0.08315 0.58363 0.22566
 C560 C 0.09283 0.59328 0.24911
 C561 C 0.08312 0.58370 0.27259
 C562 C 0.06380 0.56455 0.27264
 C563 C 0.16514 0.66570 0.24899
 C564 C 0.06383 0.56448 0.22564
 C565 C 0.11266 0.61303 0.24908
 C566 C 0.12925 0.62961 0.24903
 C567 C 0.14862 0.64905 0.24897
 C568 C 0.05391 0.55474 0.24915
 H569 H 0.09054 0.59092 0.20738
 H570 H 0.09049 0.59104 0.29086
 H571 H 0.05662 0.55744 0.29105
 H572 H 0.05667 0.55731 0.20724
 C573 C 0.77309 -0.08396 0.58303
 C574 C 0.74944 -0.09357 0.59255
 C575 C 0.72589 -0.08381 0.58295
 C576 C 0.72596 -0.06453 0.56386
 C577 C 0.74917 -0.16607 0.66442
 C578 C 0.77322 -0.06467 0.56394
 C579 C 0.74933 -0.11345 0.61217
 C580 C 0.74923 -0.13008 0.62861
 C581 C 0.74915 -0.14952 0.64790
 C582 C 0.74964 -0.05475 0.55412
 H583 H 0.79143 -0.09138 0.59035
 H584 H 0.70747 -0.09111 0.59021
 H585 H 0.70748 -0.05730 0.55673
 H586 H 0.79177 -0.05756 0.55687
 C587 C 0.22653 -0.08333 0.41690
 C588 C 0.25013 -0.09287 0.40718
 C589 C 0.27373 -0.08331 0.41687
 C590 C 0.27376 -0.06427 0.43620
 C591 C 0.25037 -0.16486 0.33481
 C592 C 0.22650 -0.06430 0.43623
 C593 C 0.25016 -0.11252 0.38734
 C594 C 0.25023 -0.12901 0.37075
 C595 C 0.25032 -0.14835 0.35137
 C596 C 0.25013 -0.05451 0.44607
 H597 H 0.20815 -0.09061 0.40953
 H598 H 0.29211 -0.09057 0.40947
 H599 H 0.29227 -0.05720 0.44339
 H600 H 0.20799 -0.05724 0.44345
 C601 C 0.72622 0.08290 0.41686
 C602 C 0.74981 0.09250 0.40720
 C603 C 0.77341 0.08289 0.41681
 C604 C 0.77346 0.06372 0.43601
 C605 C 0.74975 0.16451 0.33487
 C606 C 0.72620 0.06373 0.43606
 C607 C 0.74979 0.11219 0.38740
 C608 C 0.74978 0.12867 0.37081
 C609 C 0.74977 0.14799 0.35141
 C610 C 0.74984 0.05392 0.44586
 H611 H 0.70783 0.09022 0.40955
 H612 H 0.79179 0.09020 0.40946
 H613 H 0.79198 0.05657 0.44312
 H614 H 0.70769 0.05660 0.44320
 C615 C 0.22651 0.08316 0.58334
 C616 C 0.25011 0.09280 0.59293
 C617 C 0.27371 0.08317 0.58329
 C618 C 0.27373 0.06394 0.56415
 C619 C 0.25000 0.16484 0.66521
 C620 C 0.22647 0.06393 0.56420
 C621 C 0.25010 0.11251 0.61269
 C622 C 0.25007 0.12901 0.62926
 C623 C 0.25003 0.14833 0.64866
 C624 C 0.25009 0.05410 0.55438
 H625 H 0.20813 0.09050 0.59066
 H626 H 0.29209 0.09052 0.59058
 H627 H 0.29224 0.05678 0.55702
 H628 H 0.20795 0.05677 0.55710
   
