data_POSCAR
  _audit_creation_date              2014-09-24
  _audit_creation_method            'ToBaCCo'
  _symmetry_space_group_name_H-M    'P1'
  _symmetry_Int_Tables_number       1
  _symmetry_cell_setting            triclinic
  loop_
  _symmetry_equiv_pos_as_xyz
 x,y,z
_cell_length_a 71.1462
_cell_length_b 12.1818
_cell_length_c 13.1733
_cell_angle_alpha 95.414500
_cell_angle_beta 90.341600
_cell_angle_gamma 87.373500
loop_
  _atom_site_label
  _atom_site_type_symbol
  _atom_site_fract_x
  _atom_site_fract_y
  _atom_site_fract_z
C1 C 0.75199 0.22265 0.42819
 C2 C 0.75394 0.22344 0.53099
 C3 C 0.73705 0.23157 0.59740
 C4 C 0.77298 0.22168 0.57662
 C5 C 0.76825 0.23343 0.36107
 C6 C 0.73332 0.21866 0.38038
 C7 C 0.72720 0.33368 0.61718
 C8 C 0.70896 0.33925 0.65706
 C9 C 0.70026 0.24259 0.67742
 C10 C 0.71048 0.14084 0.66295
 C11 C 0.72883 0.13559 0.62355
 C12 C 0.78006 0.31906 0.62478
 C13 C 0.79946 0.32688 0.64082
 C14 C 0.81180 0.23707 0.60953
 C15 C 0.80465 0.13778 0.56732
 C16 C 0.78534 0.13010 0.55107
 C17 C 0.77492 0.14373 0.29402
 C18 C 0.79151 0.15121 0.23885
 C19 C 0.80132 0.24892 0.24973
 C20 C 0.79425 0.33973 0.31357
 C21 C 0.77776 0.33216 0.36867
 C22 C 0.72445 0.11821 0.36536
 C23 C 0.70589 0.11605 0.33097
 C24 C 0.69616 0.21437 0.31202
 C25 C 0.70519 0.31439 0.32384
 C26 C 0.72380 0.31648 0.35758
 H27 H 0.73328 0.40798 0.59585
 H28 H 0.70134 0.41850 0.66735
 H29 H 0.70403 0.06505 0.67761
 H30 H 0.73621 0.05623 0.60754
 H31 H 0.77082 0.39140 0.64241
 H32 H 0.80486 0.40445 0.67292
 H33 H 0.78017 0.05562 0.51127
 H34 H 0.76773 0.06688 0.28768
 H35 H 0.79695 0.08001 0.19042
 H36 H 0.80180 0.41532 0.32328
 H37 H 0.77270 0.40192 0.41979
 H38 H 0.73183 0.04252 0.38251
 H39 H 0.69901 0.03848 0.32072
 H40 H 0.69771 0.39054 0.30891
 H41 H 0.73059 0.39435 0.36941
 H42 H 0.81405 0.06805 0.54213
 C43 C 0.24758 0.74677 0.52439
 C44 C 0.24883 0.75017 0.62778
 C45 C 0.23217 0.73688 0.69056
 C46 C 0.26680 0.76792 0.68230
 C47 C 0.26490 0.73560 0.46204
 C48 C 0.22892 0.75273 0.47391
 C49 C 0.22570 0.82332 0.76122
 C50 C 0.20870 0.81581 0.81177
 C51 C 0.19833 0.72120 0.79299
 C52 C 0.20528 0.63233 0.72680
 C53 C 0.22222 0.63986 0.67602
 C54 C 0.27686 0.86227 0.66997
 C55 C 0.29422 0.87659 0.71796
 C56 C 0.30153 0.79719 0.77950
 C57 C 0.29127 0.70477 0.79464
 C58 C 0.27390 0.69042 0.74659
 C59 C 0.27725 0.64345 0.46924
 C60 C 0.29562 0.64334 0.43310
 C61 C 0.30182 0.73526 0.38912
 C62 C 0.28920 0.82448 0.37530
 C63 C 0.27070 0.82442 0.41120
 C64 C 0.22244 0.66151 0.41254
 C65 C 0.20340 0.65796 0.38492
 C66 C 0.19085 0.74657 0.41726
 C67 C 0.19758 0.84066 0.47235
 C68 C 0.21648 0.84374 0.50058
 H69 H 0.23334 0.89833 0.77321
 H70 H 0.20323 0.88541 0.86173
 H71 H 0.19719 0.55946 0.71110
 H72 H 0.22726 0.57198 0.62264
 H73 H 0.27144 0.92339 0.62149
 H74 H 0.30222 0.94737 0.70434
 H75 H 0.26631 0.61711 0.75663
 H76 H 0.27301 0.57485 0.50889
 H77 H 0.30523 0.57375 0.44395
 H78 H 0.29388 0.89583 0.34103
 H79 H 0.26140 0.89668 0.40629
 H80 H 0.23184 0.59057 0.39130
 H81 H 0.19838 0.58486 0.34159
 H82 H 0.18807 0.91017 0.49690
 H83 H 0.22122 0.91451 0.54823
 H84 H 0.29703 0.64191 0.84037
 C85 C 0.25054 0.23702 -0.64948
 C86 C 0.24993 0.24650 -0.54560
 C87 C 0.23145 0.25848 -0.49202
 C88 C 0.26769 0.24256 -0.48601
 C89 C 0.26841 0.23728 -0.70610
 C90 C 0.23321 0.22512 -0.71026
 C91 C 0.21903 0.34881 -0.50684
 C92 C 0.20009 0.34843 -0.47852
 C93 C 0.19335 0.25830 -0.43345
 C94 C 0.20595 0.17075 -0.41304
 C95 C 0.22490 0.17092 -0.44206
 C96 C 0.27381 0.33828 -0.43028
 C97 C 0.29256 0.34347 -0.39739
 C98 C 0.30520 0.25244 -0.41850
 C99 C 0.29872 0.15415 -0.46716
 C100 C 0.28006 0.14916 -0.50039
 C101 C 0.27479 0.14287 -0.76784
 C102 C 0.29253 0.13918 -0.81356
 C103 C 0.30381 0.23066 -0.79895
 C104 C 0.29712 0.32651 -0.74053
 C105 C 0.27947 0.33003 -0.69468
 C106 C 0.22270 0.13121 -0.70577
 C107 C 0.20475 0.12778 -0.74830
 C108 C 0.19723 0.21827 -0.79566
 C109 C 0.20807 0.30990 -0.80496
 C110 C 0.22613 0.31285 -0.76295
 H111 H 0.22379 0.41680 -0.54560
 H112 H 0.19063 0.41686 -0.49478
 H113 H 0.20102 0.10064 -0.37764
 H114 H 0.23418 0.10011 -0.43088
 H115 H 0.26445 0.41092 -0.41842
 H116 H 0.29739 0.41984 -0.35940
 H117 H 0.27559 0.07475 -0.54342
 H118 H 0.26637 0.07068 -0.77698
 H119 H 0.29765 0.06401 -0.85725
 H120 H 0.30580 0.39731 -0.72753
 H121 H 0.27464 0.40380 -0.64798
 H122 H 0.22802 0.06356 -0.66452
 H123 H 0.19637 0.05717 -0.73919
 H124 H 0.20227 0.38101 -0.84010
 H125 H 0.23410 0.38609 -0.76550
 H126 H 0.30829 0.08302 -0.48361
 C127 C -0.25130 0.74745 -0.40000
 C128 C -0.25044 0.74551 -0.50359
 C129 C -0.23194 0.73841 -0.55509
 C130 C -0.26792 0.75320 -0.56572
 C131 C -0.26945 0.74190 -0.34764
 C132 C -0.23425 0.76101 -0.33604
 C133 C -0.22595 0.82839 -0.60329
 C134 C -0.20703 0.83345 -0.63009
 C135 C -0.19405 0.74823 -0.60930
 C136 C -0.20024 0.65503 -0.56721
 C137 C -0.21911 0.65003 -0.54053
 C138 C -0.28103 0.84209 -0.54381
 C139 C -0.29930 0.83771 -0.58260
 C140 C -0.30467 0.74548 -0.64574
 C141 C -0.29131 0.65947 -0.67332
 C142 C -0.27296 0.66363 -0.63396
 C143 C -0.28137 0.65597 -0.37723
 C144 C -0.29993 0.66176 -0.34399
 C145 C -0.30654 0.75199 -0.27860
 C146 C -0.29445 0.83497 -0.24381
 C147 C -0.27587 0.82976 -0.27817
 C148 C -0.22682 0.67338 -0.28415
 C149 C -0.20926 0.68112 -0.23611
 C150 C -0.19926 0.77727 -0.23838
 C151 C -0.20710 0.86666 -0.28587
 C152 C -0.22456 0.85878 -0.33405
 H153 H -0.23562 0.89770 -0.61368
 H154 H -0.20240 0.90589 -0.66289
 H155 H -0.19035 0.58874 -0.55051
 H156 H -0.22347 0.58102 -0.50178
 H157 H -0.27750 0.91151 -0.49093
 H158 H -0.30947 0.90429 -0.55958
 H159 H -0.26315 0.59370 -0.65102
 H160 H -0.27664 0.58847 -0.43156
 H161 H -0.30930 0.59825 -0.37268
 H162 H -0.29952 0.90555 -0.19353
 H163 H -0.26686 0.89705 -0.25546
 H164 H -0.23418 0.59749 -0.28539
 H165 H -0.20321 0.61103 -0.20059
 H166 H -0.19936 0.94080 -0.28900
 H167 H -0.23026 0.92708 -0.37307
 H168 H -0.29527 0.58703 -0.72141
 N169 N -0.02001 0.78301 -0.07404
 N170 N -0.03695 0.74554 -0.06409
 N171 N 0.02067 0.81841 -0.14397
 N172 N 0.03757 0.80055 -0.18420
 N173 N 0.01951 0.76861 -0.06009
 N174 N 0.03562 0.71603 -0.04162
 N175 N -0.01911 0.83456 -0.15728
 N176 N -0.03553 0.83357 -0.20477
 C177 C -0.04630 0.77521 -0.14709
 C178 C 0.04650 0.73443 -0.12107
 N179 N 0.02220 1.14127 -0.13369
 N180 N 0.03754 1.19486 -0.14884
 N181 N -0.01704 1.06011 -0.20472
 N182 N -0.03075 1.05800 -0.27300
 N183 N -0.01731 1.15579 -0.14983
 N184 N -0.03114 1.22149 -0.17932
 N185 N 0.02266 1.04537 -0.18883
 N186 N 0.03841 1.03147 -0.24271
 Mn187 Mn 0.00180 0.93865 -0.17498
 C188 C 0.04747 1.12585 -0.21736
 C189 C -0.03923 1.15975 -0.25671
 N190 N 0.01722 0.83858 0.15472
 N191 N 0.03163 0.77513 0.18115
 N192 N -0.02260 0.94761 0.19552
 N193 N -0.03769 0.95906 0.25426
 N194 N -0.02216 0.85182 0.14065
 N195 N -0.03689 0.79543 0.16053
 N196 N 0.01689 0.93437 0.20973
 N197 N 0.03109 0.93853 0.27488
 Mn198 Mn -0.00133 0.80924 0.03999
 C199 C 0.03994 0.83790 0.25715
 C200 C -0.04632 0.86304 0.23198
 N201 N -0.02039 1.22363 0.06481
 N202 N -0.03684 1.27132 0.04375
 N203 N 0.01824 1.16039 0.16398
 N204 N 0.03427 1.16593 0.21484
 N205 N 0.01923 1.21170 0.08089
 N206 N 0.03586 1.25392 0.07407
 N207 N -0.02152 1.17373 0.14886
 N208 N -0.03873 1.18693 0.18641
 Mn209 Mn 0.00093 1.18440 -0.03417
 Mn210 Mn -0.00225 1.05501 0.18066
 Cl211 Cl -0.00020 0.99679 0.00282
 C212 C -0.04793 1.24989 0.12153
 C213 C 0.04486 1.22707 0.15911
 N214 N 0.51918 0.70809 -0.05520
 N215 N 0.53462 0.76420 -0.04324
 N216 N 0.47992 0.65263 -0.14703
 N217 N 0.46368 0.66559 -0.19451
 N218 N 0.47977 0.71368 -0.05915
 N219 N 0.46357 0.76960 -0.04517
 N220 N 0.51938 0.64857 -0.14373
 N221 N 0.53483 0.66295 -0.19432
 C222 C 0.54396 0.73649 -0.13163
 C223 C 0.45391 0.74073 -0.13085
 N224 N 0.48150 0.32886 -0.16523
 N225 N 0.46606 0.27460 -0.18664
 N226 N 0.52128 0.41535 -0.20624
 N227 N 0.53772 0.42365 -0.25066
 N228 N 0.52137 0.32512 -0.15872
 N229 N 0.53779 0.27004 -0.17028
 N230 N 0.48127 0.41928 -0.21226
 N231 N 0.46573 0.42853 -0.26689
 Mn232 Mn 0.50043 0.53418 -0.17864
 C233 C 0.45655 0.33686 -0.25154
 C234 C 0.54770 0.33119 -0.22930
 N235 N 0.47890 0.66800 0.15072
 N236 N 0.46310 0.72749 0.17016
 N237 N 0.51889 0.57264 0.20311
 N238 N 0.53493 0.56183 0.25355
 N239 N 0.51863 0.66277 0.15545
 N240 N 0.53432 0.71532 0.17267
 N241 N 0.47905 0.57759 0.19767
 N242 N 0.46341 0.57340 0.25041
 Mn243 Mn 0.49915 0.68933 0.04827
 C244 C 0.45378 0.66813 0.23384
 C245 C 0.54417 0.65271 0.23538
 N246 N 0.52061 0.28018 0.05213
 N247 N 0.53709 0.22545 0.04296
 N248 N 0.48004 0.34431 0.13261
 N249 N 0.46361 0.33452 0.17633
 N250 N 0.48102 0.28329 0.04478
 N251 N 0.46537 0.23073 0.02696
 N252 N 0.51951 0.33963 0.14065
 N253 N 0.53503 0.32630 0.19382
 Mn254 Mn 0.50117 0.30304 -0.05711
 Mn255 Mn 0.49933 0.45818 0.16971
 Cl256 Cl 0.50002 0.49624 -0.00446
 C257 C 0.54566 0.25361 0.13299
 C258 C 0.45487 0.26161 0.11043
 C259 C 0.39825 0.22852 0.12447
 C260 C 0.38774 0.18251 0.04053
 C261 C 0.36781 0.18177 0.04717
 C262 C 0.35864 0.22667 0.13768
 C263 C 0.36908 0.27855 0.21897
 C264 C 0.38896 0.27906 0.21256
 C265 C 0.39907 0.33397 0.29370
 C266 C 0.38976 0.38710 0.37835
 C267 C 0.37030 0.38706 0.38436
 C268 C 0.36001 0.33345 0.30612
 C269 C 0.35752 0.13737 -0.03792
 C270 C 0.36665 0.09555 -0.12767
 C271 C 0.38615 0.09606 -0.13420
 C272 C 0.39666 0.13848 -0.05106
 C273 C 0.33846 0.22234 0.14893
 C274 C 0.32196 0.22394 0.16878
 C275 C 0.41850 0.23266 0.11819
 C276 C 0.43523 0.24248 0.11523
 H277 H 0.41424 0.33671 0.29280
 H278 H 0.39777 0.42621 0.44044
 H279 H 0.36310 0.42545 0.45137
 H280 H 0.34490 0.33627 0.31490
 H281 H 0.34234 0.13486 -0.03595
 H282 H 0.35856 0.06162 -0.19214
 H283 H 0.39317 0.06283 -0.20388
 H284 H 0.41180 0.13661 -0.05943
 C285 C -0.10038 0.81327 0.31233
 C286 C -0.10581 0.75913 0.39720
 C287 C -0.12521 0.74632 0.41608
 C288 C -0.13901 0.78827 0.35026
 C289 C -0.13360 0.84545 0.26748
 C290 C -0.11422 0.85601 0.24723
 C291 C -0.10915 0.90894 0.16093
 C292 C -0.12283 0.95047 0.09720
 C293 C -0.14178 0.94361 0.11891
 C294 C -0.14720 0.89189 0.20310
 C295 C -0.13035 0.69278 0.50178
 C296 C -0.11672 0.65355 0.56744
 C297 C -0.09774 0.66581 0.54879
 C298 C -0.09226 0.71754 0.46442
 C299 C -0.15879 0.77158 0.36590
 C300 C -0.17534 0.75958 0.37694
 C301 C -0.08067 0.82708 0.29114
 C302 C -0.06473 0.84225 0.26738
 H303 H -0.09461 0.91740 0.14071
 H304 H -0.11864 0.98644 0.02976
 H305 H -0.15236 0.97635 0.06914
 H306 H -0.16213 0.88757 0.21616
 H307 H -0.14494 0.68168 0.51948
 H308 H -0.12091 0.61374 0.63329
 H309 H -0.08722 0.63551 0.60025
 H310 H -0.07736 0.72544 0.45298
 C311 C 0.60048 0.69459 0.28452
 C312 C 0.61191 0.61185 0.32604
 C313 C 0.63179 0.62040 0.33036
 C314 C 0.64014 0.71331 0.29610
 C315 C 0.62886 0.79310 0.24957
 C316 C 0.60897 0.78386 0.24393
 C317 C 0.59811 0.86199 0.19313
 C318 C 0.60668 0.94344 0.14509
 C319 C 0.62608 0.95220 0.15027
 C320 C 0.63707 0.87983 0.20406
 C321 C 0.64295 0.53384 0.36753
 C322 C 0.63471 0.44251 0.40097
 C323 C 0.61527 0.43596 0.39981
 C324 C 0.60393 0.51876 0.36205
 C325 C 0.66025 0.72671 0.31086
 C326 C 0.67683 0.73574 0.32836
 C327 C 0.58029 0.68126 0.27321
 C328 C 0.56370 0.66841 0.25930
 H329 H 0.58296 0.85909 0.18742
 H330 H 0.59819 1.00007 0.10362
 H331 H 0.63264 1.01561 0.11265
 H332 H 0.65210 0.89030 0.20663
 H333 H 0.65814 0.53547 0.37102
 H334 H 0.64347 0.37812 0.43090
 H335 H 0.60888 0.36744 0.43027
 H336 H 0.58889 0.50897 0.36185
 C337 C 0.10196 1.22692 0.16977
 C338 C 0.11227 1.17392 0.24478
 C339 C 0.13220 1.17255 0.24395
 C340 C 0.14163 1.22243 0.16711
 C341 C 0.13136 1.27089 0.08944
 C342 C 0.11141 1.27292 0.09055
 C343 C 0.10135 1.31990 0.01097
 C344 C 0.11080 1.36315 -0.06756
 C345 C 0.13034 1.36184 -0.06807
 C346 C 0.14059 1.31673 0.00965
 C347 C 0.14231 1.11993 0.32020
 C348 C 0.13297 1.06973 0.39458
 C349 C 0.11345 1.06965 0.39460
 C350 C 0.10313 1.12076 0.32056
 C351 C 0.16189 1.22403 0.17017
 C352 C 0.17865 1.22249 0.18148
 C353 C 0.08165 1.23122 0.17207
 C354 C 0.06476 1.23198 0.16987
 H355 H 0.08615 1.32239 0.00780
 H356 H 0.10290 1.39720 -0.12868
 H357 H 0.13762 1.39515 -0.12941
 H358 H 0.15577 1.31689 0.00586
 H359 H 0.15753 1.11570 0.32273
 H360 H 0.14100 1.03046 0.45205
 H361 H 0.10625 1.02977 0.45216
 H362 H 0.08797 1.11754 0.32310
 C363 C 0.60503 0.28580 -0.26391
 C364 C 0.61488 0.19680 -0.22178
 C365 C 0.63494 0.18783 -0.22511
 C366 C 0.64508 0.26729 -0.27109
 C367 C 0.63531 0.36059 -0.30567
 C368 C 0.61528 0.36908 -0.30358
 C369 C 0.60593 0.46291 -0.33939
 C370 C 0.61606 0.54669 -0.37442
 C371 C 0.63560 0.53993 -0.37371
 C372 C 0.64519 0.44786 -0.34054
 C373 C 0.64445 0.10220 -0.17732
 C374 C 0.63452 0.03038 -0.12380
 C375 C 0.61498 0.03853 -0.12119
 C376 C 0.60518 0.11902 -0.17141
 C377 C 0.66547 0.25408 -0.28396
 C378 C 0.68226 0.24696 -0.29992
 C379 C 0.58455 0.29864 -0.25631
 C380 C 0.56766 0.31256 -0.24671
 H381 H 0.59074 0.47271 -0.34108
 H382 H 0.60867 0.61601 -0.40454
 H383 H 0.64341 0.60489 -0.40170
 H384 H 0.66040 0.44663 -0.34204
 H385 H 0.65964 0.09280 -0.17727
 H386 H 0.64205 -0.03196 -0.08407
 H387 H 0.60735 -0.01782 -0.07994
 H388 H 0.58998 0.12166 -0.16746
 C389 C 0.10346 0.72491 -0.12180
 C390 C 0.11498 0.67739 -0.04818
 C391 C 0.13483 0.68025 -0.05545
 C392 C 0.14288 0.72993 -0.13659
 C393 C 0.13133 0.78225 -0.20723
 C394 C 0.11151 0.78138 -0.19865
 C395 C 0.10014 0.83742 -0.26792
 C396 C 0.10818 0.88947 -0.34557
 C397 C 0.12762 0.88885 -0.35492
 C398 C 0.13913 0.83657 -0.28660
 C399 C 0.14618 0.63387 0.01956
 C400 C 0.13806 0.58775 0.10074
 C401 C 0.11860 0.58484 0.10784
 C402 C 0.10711 0.62825 0.03391
 C403 C 0.16298 0.72467 -0.15095
 C404 C 0.17940 0.72188 -0.17163
 C405 C 0.08331 0.71808 -0.11881
 C406 C 0.06645 0.71987 -0.11955
 H407 H 0.08495 0.84184 -0.26298
 H408 H 0.09927 0.93084 -0.39829
 H409 H 0.13383 0.92971 -0.41480
 H410 H 0.15417 0.84115 -0.29578
 H411 H 0.16138 0.63463 0.01713
 H412 H 0.14691 0.55441 0.15856
 H413 H 0.11237 0.54915 0.17111
 H414 H 0.09205 0.62424 0.04249
 C415 C 0.39704 0.78245 -0.14625
 C416 C 0.38801 0.73671 -0.23516
 C417 C 0.36810 0.74092 -0.24064
 C418 C 0.35740 0.79133 -0.15727
 C419 C 0.36638 0.83114 -0.06598
 C420 C 0.38634 0.82702 -0.06049
 C421 C 0.39511 0.86650 0.03164
 C422 C 0.38443 0.90828 0.11618
 C423 C 0.36489 0.91189 0.11084
 C424 C 0.35588 0.87414 0.02076
 C425 C 0.35932 0.69081 -0.32891
 C426 C 0.36994 0.63757 -0.40871
 C427 C 0.38945 0.63382 -0.40345
 C428 C 0.39846 0.68287 -0.31807
 C429 C 0.33718 0.79972 -0.16739
 C430 C 0.32064 0.80156 -0.18639
 C431 C 0.41731 0.77494 -0.14124
 C432 C 0.43413 0.76243 -0.13829
 H433 H 0.41027 0.86485 0.03942
 H434 H 0.39137 0.93784 0.18621
 H435 H 0.35667 0.94463 0.17666
 H436 H 0.34065 0.87877 0.01977
 H437 H 0.34419 0.69120 -0.33721
 H438 H 0.36295 0.60219 -0.47617
 H439 H 0.39770 0.59499 -0.46660
 H440 H 0.41367 0.67739 -0.31781
 C441 C -0.09152 1.24937 -0.35685
 C442 C -0.09975 1.20624 -0.44907
 C443 C -0.11965 1.21253 -0.46049
 C444 C -0.13106 1.26383 -0.38035
 C445 C -0.12262 1.31784 -0.29326
 C446 C -0.10276 1.31114 -0.28176
 C447 C -0.09461 1.36380 -0.19297
 C448 C -0.10583 1.41911 -0.11659
 C449 C -0.12529 1.42396 -0.12714
 C450 C -0.13366 1.37534 -0.21481
 C451 C -0.12768 1.16622 -0.55215
 C452 C -0.11634 1.11816 -0.63151
 C453 C -0.09687 1.11263 -0.62072
 C454 C -0.08858 1.15516 -0.53009
 C455 C -0.15135 1.25638 -0.38458
 C456 C -0.16818 1.24844 -0.38641
 C457 C -0.07221 1.21855 -0.33199
 C458 C -0.05679 1.19153 -0.30204
 H459 H -0.07954 1.36169 -0.18116
 H460 H -0.09936 1.45533 -0.04773
 H461 H -0.13404 1.46321 -0.06641
 H462 H -0.14886 1.38154 -0.21952
 H463 H -0.14274 1.16943 -0.56440
 H464 H -0.12276 1.08722 -0.70238
 H465 H -0.08814 1.07610 -0.68312
 H466 H -0.07339 1.14948 -0.52461
 C467 C 0.59955 0.76913 -0.18042
 C468 C 0.60610 0.80773 -0.27120
 C469 C 0.62571 0.80628 -0.29027
 C470 C 0.63853 0.76868 -0.21726
 C471 C 0.63196 0.72520 -0.12907
 C472 C 0.61235 0.72362 -0.11144
 C473 C 0.60601 0.67298 -0.02638
 C474 C 0.61874 0.62527 0.03899
 C475 C 0.63797 0.62996 0.02360
 C476 C 0.64459 0.67964 -0.05920
 C477 C 0.63201 0.83756 -0.38467
 C478 C 0.61923 0.86706 -0.45890
 C479 C 0.60002 0.87063 -0.43951
 C480 C 0.59345 0.84270 -0.34632
 C481 C 0.65846 0.76657 -0.23658
 C482 C 0.67499 0.76125 -0.25450
 C483 C 0.57962 0.76723 -0.16197
 C484 C 0.56316 0.75845 -0.14713
 H485 H 0.59119 0.66772 -0.01044
 H486 H 0.61366 0.58349 0.10157
 H487 H 0.64779 0.59306 0.07504
 H488 H 0.65967 0.67977 -0.06894
 H489 H 0.64682 0.83581 -0.40348
 H490 H 0.62426 0.88725 -0.53188
 H491 H 0.59016 0.89396 -0.49740
 H492 H 0.57837 0.84548 -0.33509
 C493 C 0.10122 1.19006 -0.30571
 C494 C 0.11670 1.15063 -0.24904
 C495 C 0.13546 1.17136 -0.27672
 C496 C 0.13879 1.23225 -0.36056
 C497 C 0.12337 1.27356 -0.41638
 C498 C 0.10458 1.25185 -0.38936
 C499 C 0.08951 1.29185 -0.44811
 C500 C 0.09283 1.35153 -0.53097
 C501 C 0.11113 1.37273 -0.55714
 C502 C 0.12628 1.33484 -0.50044
 C503 C 0.15064 1.12912 -0.21970
 C504 C 0.14746 1.06658 -0.13916
 C505 C 0.12922 1.04590 -0.11303
 C506 C 0.11394 1.08840 -0.16555
 C507 C 0.15818 1.24719 -0.39052
 C508 C 0.17462 1.25420 -0.41148
 C509 C 0.08197 1.16662 -0.27770
 C510 C 0.06617 1.14730 -0.25192
 H511 H 0.07505 1.27677 -0.43106
 H512 H 0.08113 1.38117 -0.57534
 H513 H 0.11360 1.41908 -0.62164
 H514 H 0.14027 1.35345 -0.52358
 H515 H 0.16513 1.14294 -0.23709
 H516 H 0.15921 1.03244 -0.09784
 H517 H 0.12698 0.99323 -0.05412
 H518 H 0.10004 1.06903 -0.14183
 C519 C 0.40101 0.30365 -0.33073
 C520 C 0.39476 0.23406 -0.41520
 C521 C 0.37512 0.22304 -0.43293
 C522 C 0.36183 0.28216 -0.36649
 C523 C 0.36807 0.35723 -0.28634
 C524 C 0.38769 0.36868 -0.26900
 C525 C 0.39351 0.44794 -0.19129
 C526 C 0.38039 0.51472 -0.13365
 C527 C 0.36126 0.50166 -0.14865
 C528 C 0.35508 0.42359 -0.22378
 C529 C 0.36924 0.15557 -0.51954
 C530 C 0.38232 0.10369 -0.58873
 C531 C 0.40148 0.11442 -0.57138
 C532 C 0.40771 0.17747 -0.48490
 C533 C 0.34172 0.27035 -0.38341
 C534 C 0.32504 0.26195 -0.39789
 C535 C 0.42104 0.31050 -0.30742
 C536 C 0.43740 0.31994 -0.28393
 H537 H 0.40823 0.46169 -0.17613
 H538 H 0.38512 0.57787 -0.07747
 H539 H 0.35114 0.55372 -0.10314
 H540 H 0.34004 0.41777 -0.23359
 H541 H 0.35450 0.14450 -0.53600
 H542 H 0.37756 0.05358 -0.65534
 H543 H 0.41155 0.07268 -0.62473
 H544 H 0.42274 0.18339 -0.47449
 C545 C -0.10377 0.78704 -0.15757
 C546 C -0.11423 0.73876 -0.08353
 C547 C -0.13422 0.74266 -0.08845
 C548 C -0.14356 0.79441 -0.16741
 C549 C -0.13316 0.84792 -0.23792
 C550 C -0.11320 0.84408 -0.23309
 C551 C -0.10308 0.89568 -0.30621
 C552 C -0.11244 0.94724 -0.38306
 C553 C -0.13197 0.95224 -0.38706
 C554 C -0.14228 0.90390 -0.31524
 C555 C -0.14442 0.69512 -0.01328
 C556 C -0.13515 0.64630 0.06569
 C557 C -0.11560 0.64176 0.07023
 C558 C -0.10518 0.68698 -0.00362
 C559 C -0.16369 0.78656 -0.18210
 C560 C -0.18013 0.78108 -0.20315
 C561 C -0.08336 0.77876 -0.15636
 C562 C -0.06641 0.77472 -0.15455
 H563 H -0.08787 0.89491 -0.30607
 H564 H -0.10446 0.98178 -0.44063
 H565 H -0.13921 0.99211 -0.44697
 H566 H -0.15746 0.91030 -0.32160
 H567 H -0.15964 0.69710 -0.01374
 H568 H -0.14317 0.61169 0.12357
 H569 H -0.10846 0.60354 0.13162
 H570 H -0.09002 0.68220 0.00348
 C571 C 0.39780 0.71142 0.30362
 C572 C 0.38568 0.64667 0.23959
 C573 C 0.36589 0.65831 0.25381
 C574 C 0.35830 0.73350 0.33296
 C575 C 0.37045 0.79390 0.40054
 C576 C 0.39028 0.78184 0.38649
 C577 C 0.40217 0.83746 0.45866
 C578 C 0.39470 0.90070 0.54402
 C579 C 0.37532 0.91366 0.55707
 C580 C 0.36325 0.86300 0.48515
 C581 C 0.35409 0.59173 0.18943
 C582 C 0.36167 0.51321 0.11573
 C583 C 0.38104 0.49986 0.10392
 C584 C 0.39296 0.56705 0.16308
 C585 C 0.33815 0.73986 0.35044
 C586 C 0.32147 0.74006 0.36612
 C587 C 0.41795 0.70288 0.28426
 C588 C 0.43446 0.69051 0.26341
 H589 H 0.41733 0.83003 0.45141
 H590 H 0.40398 0.94094 0.59973
 H591 H 0.36960 0.96405 0.62273
 H592 H 0.34828 0.87567 0.49839
 H593 H 0.33894 0.59809 0.19665
 H594 H 0.35248 0.46119 0.06868
 H595 H 0.38693 0.43649 0.04863
 H596 H 0.40791 0.55351 0.15016
 C597 C -0.10531 1.28054 0.13094
 C598 C -0.11658 1.23071 0.05214
 C599 C -0.13642 1.23041 0.06453
 C600 C -0.14476 1.27747 0.15660
 C601 C -0.13358 1.33147 0.23347
 C602 C -0.11378 1.33192 0.22102
 C603 C -0.10277 1.38031 0.30161
 C604 C -0.11108 1.42581 0.39216
 C605 C -0.13049 1.42801 0.40344
 C606 C -0.14170 1.38241 0.32497
 C607 C -0.14745 1.18140 -0.01553
 C608 C -0.13909 1.13312 -0.10528
 C609 C -0.11966 1.13187 -0.11677
 C610 C -0.10845 1.17939 -0.03894
 C611 C -0.16444 1.26307 0.17778
 C612 C -0.18036 1.25409 0.20546
 C613 C -0.08495 1.27381 0.12297
 C614 C -0.06801 1.26576 0.12106
 H615 H -0.08761 1.38100 0.29667
 H616 H -0.10231 1.45757 0.45434
 H617 H -0.13690 1.46257 0.47428
 H618 H -0.15673 1.38547 0.33792
 H619 H -0.16261 1.18013 -0.00951
 H620 H -0.14774 1.09684 -0.16622
 H621 H -0.11323 1.09507 -0.18669
 H622 H -0.09341 1.17693 -0.05146
 C623 C 0.60161 0.22424 0.19509
 C624 C 0.60799 0.18489 0.28746
 C625 C 0.62752 0.18099 0.31017
 C626 C 0.64045 0.21564 0.23985
 C627 C 0.63397 0.26046 0.15023
 C628 C 0.61442 0.26656 0.12860
 C629 C 0.60812 0.31859 0.04212
 C630 C 0.62083 0.36357 -0.02052
 C631 C 0.64002 0.35404 -0.00138
 C632 C 0.64661 0.30258 0.08265
 C633 C 0.63356 0.14771 0.40561
 C634 C 0.62061 0.12256 0.47775
 C635 C 0.60149 0.12516 0.45506
 C636 C 0.59520 0.15435 0.36048
 C637 C 0.66027 0.21333 0.26366
 C638 C 0.67670 0.21329 0.28466
 C639 C 0.58176 0.22681 0.17073
 C640 C 0.56524 0.23414 0.15198
 H641 H 0.59332 0.32765 0.02352
 H642 H 0.61575 0.40689 -0.08382
 H643 H 0.64982 0.38814 -0.05113
 H644 H 0.66167 0.29805 0.09498
 H645 H 0.64827 0.14480 0.42697
 H646 H 0.62545 0.10093 0.55167
 H647 H 0.59148 0.10570 0.51162
 H648 H 0.58019 0.15697 0.34708
 C649 C 0.09454 0.77502 0.33681
 C650 C 0.10161 0.71782 0.41859
 C651 C 0.12140 0.70319 0.43274
 C652 C 0.13398 0.74762 0.36605
 C653 C 0.12687 0.80431 0.28413
 C654 C 0.10714 0.81755 0.26929
 C655 C 0.10041 0.87559 0.18732
 C656 C 0.11272 0.92126 0.12360
 C657 C 0.13205 0.90861 0.13812
 C658 C 0.13911 0.85003 0.21673
 C659 C 0.12814 0.64535 0.51474
 C660 C 0.11570 0.60463 0.58186
 C661 C 0.09638 0.61940 0.56829
 C662 C 0.08933 0.67539 0.48763
 C663 C 0.15416 0.74105 0.38405
 C664 C 0.17094 0.74090 0.39811
 C665 C 0.07444 0.79178 0.31991
 C666 C 0.05830 0.81092 0.29607
 H667 H 0.08555 0.88855 0.17239
 H668 H 0.10697 0.96843 0.06441
 H669 H 0.14170 0.94561 0.08979
 H670 H 0.15425 0.84233 0.22470
 H671 H 0.14305 0.63199 0.52837
 H672 H 0.12109 0.56129 0.64478
 H673 H 0.08681 0.58753 0.62077
 H674 H 0.07421 0.68574 0.48030
   
