data_POSCAR
  _audit_creation_date              2014-09-24
  _audit_creation_method            'ToBaCCo'
  _symmetry_space_group_name_H-M    'P1'
  _symmetry_Int_Tables_number       1
  _symmetry_cell_setting            triclinic
  loop_
  _symmetry_equiv_pos_as_xyz
 x,y,z
_cell_length_a 30.7411
_cell_length_b 30.7005
_cell_length_c 30.7327
_cell_angle_alpha 89.994300
_cell_angle_beta 89.998900
_cell_angle_gamma 90.004200
loop_
  _atom_site_label
  _atom_site_type_symbol
  _atom_site_fract_x
  _atom_site_fract_y
  _atom_site_fract_z
C1 C 0.36890 0.97332 -0.47904
 C2 C 0.36934 0.97315 -0.52359
 C3 C 0.40855 0.99160 -0.53641
 N4 N 0.43258 1.00164 -0.50093
 C5 C 0.40843 0.99046 -0.46581
 C6 C 0.42106 1.00169 -0.57974
 C7 C 0.46534 1.01034 -0.58978
 C8 C 0.47984 1.03535 -0.62451
 C9 C 0.52445 1.03343 -0.62423
 C10 C 0.53628 1.00731 -0.58934
 N11 N 0.50005 0.99422 -0.56783
 C12 C 0.57949 0.99490 -0.57860
 C13 C 0.59029 0.98453 -0.53495
 C14 C 0.62689 0.96187 -0.52113
 C15 C 0.62658 0.96288 -0.47654
 C16 C 0.58947 0.98536 -0.46453
 N17 N 0.56712 0.99829 -0.50017
 C18 C 0.57780 0.99594 -0.42143
 C19 C 0.53473 1.00741 -0.41024
 C20 C 0.52195 1.02605 -0.37120
 C21 C 0.47723 1.02663 -0.37117
 C22 C 0.46384 1.00915 -0.41063
 N23 N 0.49917 0.99770 -0.43424
 C24 C 0.42045 0.99938 -0.42233
 H25 H 0.34227 0.96195 -0.45913
 H26 H 0.34359 0.96033 -0.54383
 H27 H 0.49890 0.97911 -0.46258
 H28 H 0.46048 1.05403 -0.64721
 H29 H 0.54562 1.05041 -0.64666
 H30 H 0.65106 0.94551 -0.54078
 H31 H 0.65053 0.94806 -0.45540
 H32 H 0.45732 1.03788 -0.34448
 H33 H 0.49897 0.97202 -0.54214
 H34 H 0.54251 1.03727 -0.34492
 C35 C -0.47754 1.36951 0.02567
 C36 C -0.52208 1.36912 0.02508
 C37 C -0.53529 1.40817 0.00645
 N38 N -0.50006 1.43292 -0.00287
 C39 C -0.46477 1.40937 0.00889
 C40 C -0.57874 1.42020 -0.00387
 C41 C -0.58899 1.46429 -0.01342
 C42 C -0.62451 1.47849 -0.03753
 C43 C -0.62420 1.52323 -0.03620
 C44 C -0.58826 1.53522 -0.01183
 N45 N -0.56655 1.49923 0.00136
 C46 C -0.57791 1.57819 0.00068
 C47 C -0.53544 1.58978 0.01335
 C48 C -0.52436 1.62680 0.03649
 C49 C -0.47983 1.62736 0.03887
 C50 C -0.46512 1.59094 0.01643
 N51 N -0.49934 1.56768 0.00140
 C52 C -0.42103 1.58009 0.00809
 C53 C -0.40964 1.53687 -0.00406
 C54 C -0.37170 1.52445 -0.02524
 C55 C -0.37169 1.47977 -0.02705
 C56 C -0.41025 1.46589 -0.00821
 N57 N -0.43333 1.50088 0.00540
 C58 C -0.42147 1.42212 0.00047
 H59 H -0.45733 1.34323 0.03740
 H60 H -0.54196 1.34298 0.03767
 H61 H -0.46123 1.49991 0.02468
 H62 H -0.64808 1.45887 -0.05481
 H63 H -0.64768 1.54446 -0.05165
 H64 H -0.54606 1.65058 0.05078
 H65 H -0.46082 1.65150 0.05603
 H66 H -0.34586 1.46021 -0.04065
 H67 H -0.54068 1.49859 0.02332
 H68 H -0.34644 1.54510 -0.03841
 C69 C -0.03618 0.37363 0.52057
 C70 C -0.03472 0.37388 0.47601
 C71 C -0.01000 0.40972 0.46405
 N72 N 0.00304 0.43179 0.49988
 C73 C -0.01226 0.40929 0.53452
 C74 C 0.00174 0.42133 0.42097
 C75 C 0.01239 0.46524 0.41125
 C76 C 0.03628 0.47976 0.37568
 C77 C 0.03487 0.52453 0.37638
 C78 C 0.01081 0.53615 0.41265
 N79 N -0.00210 0.49997 0.43415
 C80 C -0.00178 0.57892 0.42363
 C81 C -0.01331 0.58985 0.46662
 C82 C -0.03569 0.62689 0.47912
 C83 C -0.03652 0.62671 0.52374
 C84 C -0.01403 0.58978 0.53702
 N85 N -0.00051 0.56695 0.50193
 C86 C -0.00350 0.57826 0.58042
 C87 C 0.00781 0.53453 0.59034
 C88 C 0.03318 0.52104 0.62520
 C89 C 0.03354 0.47629 0.62452
 C90 C 0.00847 0.46349 0.58923
 N91 N -0.00614 0.49920 0.56790
 C92 C -0.00260 0.42001 0.57829
 H93 H -0.05400 0.35044 0.54017
 H94 H -0.05126 0.35097 0.45501
 H95 H -0.02810 0.49928 0.54200
 H96 H 0.05334 0.46042 0.35174
 H97 H 0.05002 0.54602 0.35293
 H98 H -0.05036 0.65126 0.45833
 H99 H -0.05256 0.65078 0.54379
 H100 H 0.05110 0.45572 0.64706
 H101 H -0.02379 0.49905 0.46025
 H102 H 0.05055 0.54113 0.64830
 O103 O -0.11255 1.00018 -0.05756
 O104 O 0.11142 0.99953 -0.05939
 O105 O -0.00245 1.05773 -0.11243
 O106 O 0.00059 0.93980 -0.11086
 O107 O 0.00117 0.88728 -0.05710
 O108 O -0.00255 1.11147 -0.05988
 O109 O 0.05795 0.99676 -0.11207
 O110 O -0.05987 1.00028 -0.11111
 Zr111 Zr -0.00070 0.99919 -0.07624
 O112 O 0.03924 0.96033 -0.03897
 O113 O -0.04009 1.03899 -0.03930
 C114 C -0.09997 1.00066 -0.09789
 C115 C 0.09824 0.99745 -0.09944
 C116 C -0.00335 1.09813 -0.09995
 C117 C 0.00149 0.89970 -0.09748
 H118 H 0.05692 1.05766 -0.05874
 O119 O 0.03863 1.03920 -0.03977
 H120 H -0.05822 0.94124 -0.05624
 O121 O -0.03954 0.96017 -0.03812
 O122 O 0.11248 1.00288 0.05810
 O123 O -0.11143 0.99850 0.06021
 O124 O 0.05812 1.11263 -0.00006
 O125 O 0.05916 0.88834 -0.00004
 O126 O -0.05847 0.88786 0.00410
 O127 O -0.05955 1.11185 -0.00288
 O128 O 0.00220 1.06050 0.11155
 O129 O 0.00002 0.94258 0.11316
 O130 O 0.00112 1.11306 0.05783
 O131 O -0.00087 0.88887 0.06061
 O132 O 0.11148 1.05973 0.00006
 O133 O -0.11239 1.05850 0.00003
 O134 O -0.11172 0.94083 0.00370
 O135 O 0.11205 0.94169 -0.00192
 O136 O 0.05991 1.00362 0.11173
 O137 O -0.05797 0.99970 0.11294
 Zr138 Zr 0.07644 1.00056 -0.00033
 Zr139 Zr -0.07659 0.99982 0.00105
 Zr140 Zr -0.00050 1.07680 -0.00060
 Zr141 Zr 0.00022 0.92355 0.00131
 Zr142 Zr 0.00064 1.00111 0.07697
 O143 O -0.03899 0.96100 0.04070
 O144 O 0.03953 1.04038 0.03899
 C145 C 0.09999 1.00428 0.09842
 C146 C -0.09827 0.99839 0.10033
 C147 C 0.09839 1.09993 0.00030
 C148 C 0.09928 0.90137 -0.00168
 C149 C -0.09869 0.90066 0.00506
 C150 C -0.09967 1.09874 -0.00215
 C151 C 0.00244 1.10061 0.09819
 C152 C -0.00100 0.90219 0.10068
 H153 H -0.05770 1.05852 0.05808
 O154 O -0.03920 1.03980 0.03956
 H155 H 0.05861 0.94324 0.05841
 O156 O 0.03975 0.96150 0.03980
 C157 C 0.32752 1.00883 0.32329
 N158 N 0.31663 1.01510 0.36556
 N159 N 0.34676 1.01315 0.39660
 C160 C 0.38909 1.00464 0.38693
 N161 N 0.39983 0.99881 0.34435
 N162 N 0.36974 1.00083 0.31319
 C163 C 0.29391 1.00979 0.28932
 N164 N 0.30457 1.00471 0.24674
 N165 N 0.27382 1.00472 0.21616
 C166 C 0.23129 1.00971 0.22706
 N167 N 0.22067 1.01487 0.26961
 N168 N 0.25140 1.01495 0.30016
 C169 C 0.19723 1.00888 0.19353
 N170 N 0.15460 1.01107 0.20486
 N171 N 0.12362 1.00970 0.17457
 C172 C 0.13415 1.00617 0.13181
 N173 N 0.17680 1.00412 0.12047
 N174 N 0.20777 1.00539 0.15078
 C175 C -0.32513 0.99488 0.32599
 N176 N -0.31435 0.99902 0.36855
 N177 N -0.34502 0.99902 0.39915
 C178 C -0.38781 0.99477 0.38868
 N179 N -0.39834 0.99070 0.34585
 N180 N -0.36771 0.99075 0.31517
 C181 C -0.29123 0.99495 0.29229
 N182 N -0.30193 0.99202 0.24953
 N183 N -0.27113 0.99225 0.21903
 C184 C -0.22849 0.99535 0.23016
 N185 N -0.21778 0.99823 0.27292
 N186 N -0.24859 0.99805 0.30341
 C187 C -0.19456 0.99583 0.19649
 N188 N -0.15185 0.99803 0.20758
 N189 N -0.12112 0.99871 0.17700
 C190 C -0.13199 0.99726 0.13419
 N191 N -0.17470 0.99502 0.12314
 N192 N -0.20541 0.99429 0.15371
 C193 C -0.32567 0.99588 -0.32456
 N194 N -0.36581 0.97947 -0.31618
 N195 N -0.39634 0.97915 -0.34695
 C196 C -0.38800 0.99548 -0.38719
 N197 N -0.34776 1.01178 -0.39552
 N198 N -0.31716 1.01188 -0.36484
 C199 C -0.29208 0.99665 -0.29059
 N200 N -0.25063 1.00839 -0.30034
 N201 N -0.22014 1.00926 -0.26955
 C202 C -0.23004 0.99869 -0.22781
 N203 N -0.27151 0.98705 -0.21802
 N204 N -0.30196 0.98595 -0.24887
 C205 C -0.19636 0.99966 -0.19393
 N206 N -0.20699 0.99410 -0.15140
 N207 N -0.17634 0.99478 -0.12074
 C208 C -0.13393 1.00083 -0.13151
 N209 N -0.12332 1.00635 -0.17405
 N210 N -0.15398 1.00591 -0.20467
 C211 C 0.32395 0.99799 -0.32569
 N212 N 0.33210 0.96186 -0.34977
 N213 N 0.36299 0.96221 -0.38017
 C214 C 0.38645 0.99886 -0.38805
 N215 N 0.37805 1.03506 -0.36409
 N216 N 0.34759 1.03455 -0.33326
 C217 C 0.29018 0.99756 -0.29198
 N218 N 0.29148 1.02651 -0.25863
 N219 N 0.26099 1.02597 -0.22783
 C220 C 0.22777 0.99690 -0.22962
 N221 N 0.22629 0.96814 -0.26314
 N222 N 0.25713 0.96827 -0.29362
 C223 C 0.19412 0.99661 -0.19579
 N224 N 0.15416 0.97958 -0.20386
 N225 N 0.12346 0.97995 -0.17323
 C226 C 0.13188 0.99679 -0.13325
 N227 N 0.17195 1.01349 -0.12511
 N228 N 0.20242 1.01367 -0.15592
 C229 C 0.32425 1.32649 -0.00668
 N230 N 0.36633 1.31539 -0.01373
 N231 N 0.39741 1.34558 -0.01325
 C232 C 0.38795 1.38815 -0.00549
 N233 N 0.34554 1.39906 0.00112
 N234 N 0.31435 1.36892 0.00055
 C235 C 0.29024 1.29292 -0.00607
 N236 N 0.24781 1.30389 -0.00054
 N237 N 0.21712 1.27324 0.00061
 C238 C 0.22779 1.23052 -0.00355
 N239 N 0.27021 1.21958 -0.00907
 N240 N 0.30086 1.25022 -0.01034
 C241 C 0.19412 1.19665 -0.00210
 N242 N 0.20521 1.15389 -0.00398
 N243 N 0.17472 1.12308 -0.00289
 C244 C 0.13200 1.13390 0.00005
 N245 N 0.12090 1.17667 0.00197
 N246 N 0.15141 1.20749 0.00099
 C247 C 0.32505 0.67458 -0.00219
 N248 N 0.36628 0.68387 -0.01495
 N249 N 0.39697 0.65326 -0.01419
 C250 C 0.38769 0.61224 -0.00044
 N251 N 0.34639 0.60301 0.01232
 N252 N 0.31564 0.63358 0.01138
 C253 C 0.29128 0.70840 -0.00284
 N254 N 0.24926 0.69831 0.00626
 N255 N 0.21867 0.72904 0.00586
 C256 C 0.22900 0.77102 -0.00348
 N257 N 0.27103 0.78112 -0.01254
 N258 N 0.30160 0.75035 -0.01231
 C259 C 0.19531 0.80492 -0.00347
 N260 N 0.20613 0.84751 -0.00852
 N261 N 0.17555 0.87828 -0.00802
 C262 C 0.13304 0.86754 -0.00264
 N263 N 0.12224 0.82494 0.00225
 N264 N 0.15282 0.79420 0.00193
 C265 C -0.32563 0.67534 0.01340
 N266 N -0.31533 0.63283 0.01944
 N267 N -0.34607 0.60228 0.01812
 C268 C -0.38840 0.61279 0.01056
 N269 N -0.39843 0.65556 0.00479
 N270 N -0.36777 0.68618 0.00620
 C271 C -0.29170 0.70897 0.01376
 N272 N -0.30231 0.75163 0.00902
 N273 N -0.27150 0.78212 0.00848
 C274 C -0.22893 0.77108 0.01253
 N275 N -0.21830 0.72842 0.01735
 N276 N -0.24914 0.69792 0.01799
 C277 C -0.19500 0.80469 0.01113
 N278 N -0.15227 0.79362 0.01258
 N279 N -0.12153 0.82417 0.01070
 C280 C -0.13244 0.86691 0.00736
 N281 N -0.17518 0.87795 0.00603
 N282 N -0.20589 0.84741 0.00782
 C283 C -0.32451 1.32591 -0.00109
 N284 N -0.33272 1.35008 -0.03714
 N285 N -0.36358 1.38053 -0.03669
 C286 C -0.38692 1.38840 -0.00001
 N287 N -0.37840 1.36443 0.03613
 N288 N -0.34797 1.33355 0.03552
 C289 C -0.29105 1.29190 -0.00173
 N290 N -0.29251 1.25846 0.02713
 N291 N -0.26232 1.22734 0.02637
 C292 C -0.22927 1.22889 -0.00287
 N293 N -0.22763 1.26249 -0.03154
 N294 N -0.25817 1.29329 -0.03118
 C295 C -0.19576 1.19491 -0.00326
 N296 N -0.15586 1.20295 -0.02039
 N297 N -0.12517 1.17231 -0.01998
 C298 C -0.13352 1.13234 -0.00302
 N299 N -0.17355 1.12418 0.01375
 N300 N -0.20404 1.15502 0.01390
 C301 C 0.00438 1.32705 0.32445
 N302 N 0.00027 1.36978 0.31402
 N303 N -0.00053 1.40007 0.34505
 C304 C 0.00277 1.38908 0.38782
 N305 N 0.00697 1.34613 0.39791
 N306 N 0.00772 1.31578 0.36697
 C307 C 0.00491 1.29348 0.29040
 N308 N 0.00781 1.25070 0.30115
 N309 N 0.00795 1.22015 0.27038
 C310 C 0.00524 1.23125 0.22770
 N311 N 0.00243 1.27405 0.21692
 N312 N 0.00224 1.30462 0.24771
 C313 C 0.00499 1.19743 0.19390
 N314 N 0.00294 1.20829 0.15112
 N315 N 0.00231 1.17749 0.12057
 C316 C 0.00365 1.13470 0.13171
 N317 N 0.00576 1.12387 0.17449
 N318 N 0.00643 1.15466 0.20501
 C319 C -0.00429 1.32446 -0.32639
 N320 N -0.00766 1.36714 -0.31555
 N321 N -0.00712 1.39782 -0.34620
 C322 C -0.00316 1.38726 -0.38903
 N323 N 0.00030 1.34435 -0.39954
 N324 N -0.00029 1.31361 -0.36897
 C325 C -0.00487 1.29056 -0.29266
 N326 N -0.00253 1.24779 -0.30366
 N327 N -0.00290 1.21704 -0.27306
 C328 C -0.00561 1.22794 -0.23034
 N329 N -0.00797 1.27071 -0.21934
 N330 N -0.00764 1.30146 -0.24994
 C331 C -0.00559 1.19411 -0.19654
 N332 N -0.00678 1.20519 -0.15380
 N333 N -0.00625 1.17458 -0.12309
 C334 C -0.00458 1.13174 -0.13395
 N335 N -0.00352 1.12064 -0.17671
 N336 N -0.00399 1.15127 -0.20744
 C337 C -0.00060 0.67262 -0.32313
 N338 N 0.00289 0.68383 -0.36565
 N339 N 0.00194 0.65347 -0.39656
 C340 C -0.00265 0.61058 -0.38648
 N341 N -0.00611 0.59962 -0.34370
 N342 N -0.00510 0.62993 -0.31268
 C343 C 0.00038 0.70625 -0.28914
 N344 N -0.00191 0.69526 -0.24640
 N345 N -0.00116 0.72592 -0.21570
 C346 C 0.00187 0.76867 -0.22664
 N347 N 0.00417 0.77963 -0.26937
 N348 N 0.00348 0.74899 -0.30004
 C349 C 0.00228 0.80261 -0.19295
 N350 N 0.00361 0.84534 -0.20422
 N351 N 0.00352 0.87623 -0.17379
 C352 C 0.00218 0.86554 -0.13094
 N353 N 0.00098 0.82278 -0.11966
 N354 N 0.00100 0.79188 -0.15011
 C355 C -0.00208 0.67591 0.32709
 N356 N -0.01511 0.63473 0.31769
 N357 N -0.01506 0.60401 0.34831
 C358 C -0.00183 0.61323 0.38947
 N359 N 0.01139 0.65443 0.39874
 N360 N 0.01116 0.68520 0.36818
 C361 C -0.00229 0.70983 0.29340
 N362 N 0.00678 0.75187 0.30369
 N363 N 0.00656 0.78265 0.27312
 C364 C -0.00259 0.77247 0.23112
 N365 N -0.01160 0.73042 0.22082
 N366 N -0.01156 0.69968 0.25142
 C367 C -0.00251 0.80629 0.19732
 N368 N -0.00735 0.79541 0.15479
 N369 N -0.00690 0.82599 0.12404
 C370 C -0.00178 0.86861 0.13470
 N371 N 0.00291 0.87951 0.17726
 N372 N 0.00264 0.84890 0.20801
   
