data_POSCAR
  _audit_creation_date              2014-09-24
  _audit_creation_method            'ToBaCCo'
  _symmetry_space_group_name_H-M    'P1'
  _symmetry_Int_Tables_number       1
  _symmetry_cell_setting            triclinic
  loop_
  _symmetry_equiv_pos_as_xyz
 x,y,z
_cell_length_a 36.7982
_cell_length_b 40.2180
_cell_length_c 31.0855
_cell_angle_alpha 90.048800
_cell_angle_beta 89.773500
_cell_angle_gamma 89.923500
loop_
  _atom_site_label
  _atom_site_type_symbol
  _atom_site_fract_x
  _atom_site_fract_y
  _atom_site_fract_z
C1 C 0.27795 0.28381 0.22715
 C2 C 0.25041 0.26635 0.24861
 C3 C 0.22257 0.28380 0.26967
 C4 C 0.22226 0.31873 0.26989
 C5 C 0.24982 0.33597 0.24782
 C6 C 0.27768 0.31873 0.22614
 C7 C 0.25079 0.22974 0.24915
 C8 C 0.27857 0.21271 0.27060
 C9 C 0.27912 0.17780 0.27148
 C10 C 0.25187 0.16014 0.24966
 C11 C 0.22414 0.17693 0.22748
 C12 C 0.22356 0.21186 0.22792
 H13 H 0.29950 0.27012 0.21116
 H14 H 0.20127 0.27010 0.28601
 H15 H 0.29967 0.22674 0.28667
 H16 H 0.20262 0.22526 0.21068
 H17 H 0.24961 0.36289 0.24754
 H18 H 0.25170 0.13323 0.25083
 C19 C 0.77748 0.78580 0.22861
 C20 C 0.74954 0.76907 0.25014
 C21 C 0.72311 0.78700 0.27285
 C22 C 0.72437 0.82200 0.27503
 C23 C 0.75243 0.83840 0.25224
 C24 C 0.77928 0.82082 0.22877
 C25 C 0.74845 0.73245 0.24986
 C26 C 0.77544 0.71420 0.27105
 C27 C 0.77418 0.67930 0.27184
 C28 C 0.74596 0.66289 0.25011
 C29 C 0.71891 0.68090 0.22839
 C30 C 0.72018 0.71581 0.22886
 H31 H 0.79818 0.77103 0.21277
 H32 H 0.70295 0.77306 0.29069
 H33 H 0.79677 0.72731 0.28797
 H34 H 0.69925 0.73012 0.21285
 H35 H 0.75152 0.86516 0.24979
 H36 H 0.74559 0.63597 0.24921
 C37 C 0.77895 0.28571 0.73000
 C38 C 0.75117 0.26905 0.75190
 C39 C 0.72431 0.28719 0.77379
 C40 C 0.72502 0.32233 0.77474
 C41 C 0.75306 0.33853 0.75163
 C42 C 0.77989 0.32053 0.72923
 C43 C 0.75041 0.23241 0.75236
 C44 C 0.77801 0.21458 0.77304
 C45 C 0.77790 0.17943 0.77383
 C46 C 0.74944 0.16287 0.75211
 C47 C 0.72182 0.18059 0.73096
 C48 C 0.72234 0.21542 0.73168
 H49 H 0.79972 0.27145 0.71340
 H50 H 0.70423 0.27337 0.79189
 H51 H 0.79995 0.22857 0.78737
 H52 H 0.70102 0.22943 0.71593
 H53 H 0.75322 0.36533 0.74879
 H54 H 0.74783 0.13605 0.75228
 C55 C 0.27799 0.78454 0.72748
 C56 C 0.25006 0.76744 0.74877
 C57 C 0.22341 0.78512 0.77144
 C58 C 0.22471 0.81991 0.77357
 C59 C 0.25252 0.83687 0.75161
 C60 C 0.27959 0.81964 0.72803
 C61 C 0.24922 0.73084 0.74818
 C62 C 0.27620 0.71266 0.76949
 C63 C 0.27519 0.67775 0.77001
 C64 C 0.24725 0.66126 0.74788
 C65 C 0.22021 0.67921 0.72603
 C66 C 0.22122 0.71412 0.72677
 H67 H 0.29885 0.76998 0.71162
 H68 H 0.20237 0.77164 0.78853
 H69 H 0.29730 0.72583 0.78672
 H70 H 0.20029 0.72838 0.71067
 H71 H 0.25152 0.86373 0.75135
 H72 H 0.24708 0.63434 0.74680
 C73 C 0.04908 0.05128 0.01628
 H74 H 0.04927 0.05317 -0.01844
 C75 C 0.07156 0.07181 0.04073
 H76 H 0.08922 0.08954 0.02485
 C77 C 0.02622 0.02556 0.07946
 H78 H 0.00838 0.00769 0.09447
 C79 C 0.04829 0.04563 0.10512
 H80 H 0.04765 0.04290 0.13978
 N81 N 0.02759 0.02823 0.03581
 C82 C 0.01577 -0.05030 -0.06021
 H83 H -0.01349 -0.05212 -0.06243
 C84 C 0.03785 -0.07121 -0.08505
 H85 H 0.02563 -0.08910 -0.10665
 C86 C 0.06762 -0.02506 -0.02908
 H87 H 0.07922 -0.00749 -0.00677
 C88 C 0.09062 -0.04546 -0.05325
 H89 H 0.11981 -0.04321 -0.04983
 Zn90 Zn -0.00025 0.00016 -0.00026
 N91 N 0.03092 -0.02745 -0.03339
 C92 C -0.02684 0.02552 -0.07988
 N93 N -0.02861 0.02788 -0.03622
 C94 C -0.05053 0.05063 -0.01662
 C95 C -0.07288 0.07131 -0.04106
 C96 C -0.04876 0.04575 -0.10554
 C97 C -0.01480 -0.05063 0.05932
 C98 C -0.03617 -0.07177 0.08455
 C99 C -0.08982 -0.04666 0.05385
 C100 C -0.06750 -0.02600 0.02925
 N101 N -0.03070 -0.02795 0.03289
 H102 H -0.00865 0.00789 -0.09492
 H103 H -0.05100 0.05231 0.01812
 H104 H -0.09073 0.08894 -0.02517
 H105 H -0.04765 0.04339 -0.14024
 H106 H 0.01452 -0.05207 0.06102
 H107 H -0.02334 -0.08946 0.10594
 H108 H -0.11909 -0.04471 0.05109
 H109 H -0.07968 -0.00851 0.00727
 C110 C 0.07562 -0.06861 -0.08162
 C111 C 0.07144 0.06869 0.08552
 C112 C -0.07403 -0.06959 0.08192
 C113 C -0.07219 0.06864 -0.08590
 C114 C 0.04858 0.55165 0.51286
 H115 H 0.04891 0.55338 0.47813
 C116 C 0.07058 0.57261 0.53731
 H117 H 0.08805 0.59050 0.52143
 C118 C 0.02559 0.52611 0.57610
 H119 H 0.00779 0.50822 0.59115
 C120 C 0.04717 0.54662 0.60176
 H121 H 0.04622 0.54418 0.63645
 N122 N 0.02719 0.52854 0.53245
 C123 C 0.01461 0.45002 0.43651
 H124 H -0.01469 0.44815 0.43494
 C125 C 0.03633 0.42915 0.41120
 H126 H 0.02379 0.41121 0.38992
 C127 C 0.06689 0.47539 0.46645
 H128 H 0.07878 0.49301 0.48846
 C129 C 0.08956 0.45501 0.44176
 H130 H 0.11879 0.45731 0.44453
 Zn131 Zn -0.00077 0.50042 0.49659
 N132 N 0.03012 0.47290 0.46298
 C133 C -0.02820 0.52578 0.41735
 N134 N -0.02947 0.52814 0.46104
 C135 C -0.05122 0.55085 0.48099
 C136 C -0.07396 0.57142 0.45692
 C137 C -0.05053 0.54591 0.39206
 C138 C -0.01496 0.44966 0.55646
 C139 C -0.03619 0.42862 0.58198
 C140 C -0.09001 0.45364 0.55159
 C141 C -0.06782 0.47422 0.52670
 N142 N -0.03100 0.47228 0.53004
 H143 H -0.01014 0.50819 0.40202
 H144 H -0.05130 0.55252 0.51573
 H145 H -0.09174 0.58894 0.47312
 H146 H -0.04989 0.54350 0.35735
 H147 H 0.01437 0.44824 0.55794
 H148 H -0.02324 0.41099 0.60335
 H149 H -0.11929 0.45559 0.54904
 H150 H -0.08013 0.49163 0.50473
 C151 C 0.07415 0.43181 0.41376
 C152 C 0.07008 0.56986 0.58214
 C153 C -0.07406 0.43081 0.57967
 C154 C -0.07384 0.56870 0.41209
 C155 C 0.54984 0.05234 0.51965
 H156 H 0.55040 0.05406 0.48492
 C157 C 0.57165 0.07334 0.54429
 H158 H 0.58918 0.09125 0.52854
 C159 C 0.52654 0.02675 0.58269
 H160 H 0.50873 0.00878 0.59758
 C161 C 0.54793 0.04729 0.60854
 H162 H 0.54681 0.04483 0.64322
 N163 N 0.52840 0.02919 0.53905
 C164 C 0.51744 -0.04958 0.44321
 H165 H 0.48819 -0.05157 0.44106
 C166 C 0.53962 -0.07032 0.41829
 H167 H 0.52749 -0.08827 0.39669
 C168 C 0.56915 -0.02396 0.47416
 H169 H 0.58064 -0.00626 0.49638
 C170 C 0.59227 -0.04420 0.44988
 H171 H 0.62144 -0.04171 0.45314
 Zn172 Zn 0.50100 0.00089 0.50281
 N173 N 0.53246 -0.02660 0.46995
 C174 C 0.47490 0.02601 0.42286
 N175 N 0.47274 0.02842 0.46649
 C176 C 0.45049 0.05106 0.48577
 C177 C 0.42820 0.07157 0.46101
 C178 C 0.45306 0.04606 0.39689
 C179 C 0.48626 -0.04985 0.56242
 C180 C 0.46480 -0.07112 0.58736
 C181 C 0.41128 -0.04641 0.55580
 C182 C 0.43369 -0.02561 0.53152
 N183 N 0.47046 -0.02730 0.53570
 H184 H 0.49335 0.00847 0.40807
 H185 H 0.44971 0.05279 0.52050
 H186 H 0.41008 0.08910 0.47664
 H187 H 0.45448 0.04366 0.36221
 H188 H 0.51557 -0.05109 0.56455
 H189 H 0.47754 -0.08871 0.60895
 H190 H 0.38203 -0.04468 0.55257
 H191 H 0.42161 -0.00825 0.50931
 C192 C 0.57738 -0.06743 0.42154
 C193 C 0.57092 0.07057 0.58911
 C194 C 0.42696 -0.06922 0.58413
 C195 C 0.42929 0.06883 0.41618
 C196 C 0.54755 0.55285 0.01598
 H197 H 0.54816 0.55445 -0.01876
 C198 C 0.56920 0.57402 0.04056
 H199 H 0.58668 0.59195 0.02477
 C200 C 0.52427 0.52734 0.07909
 H201 H 0.50653 0.50935 0.09403
 C202 C 0.54550 0.54806 0.10488
 H203 H 0.54434 0.54570 0.13958
 N204 N 0.52621 0.52965 0.03545
 C205 C 0.51600 0.45062 -0.06024
 H206 H 0.48677 0.44844 -0.06256
 C207 C 0.53844 0.43001 -0.08504
 H208 H 0.52654 0.41199 -0.10670
 C209 C 0.56739 0.47654 -0.02899
 H210 H 0.57867 0.49430 -0.00669
 C211 C 0.59076 0.45645 -0.05313
 H212 H 0.61990 0.45911 -0.04968
 Zn213 Zn 0.49903 0.50110 -0.00070
 N214 N 0.53074 0.47369 -0.03340
 C215 C 0.47249 0.52584 -0.08074
 N216 N 0.47063 0.52843 -0.03710
 C217 C 0.44842 0.55108 -0.01777
 C218 C 0.42582 0.57135 -0.04244
 C219 C 0.45033 0.54567 -0.10663
 C220 C 0.48429 0.45058 0.05936
 C221 C 0.46279 0.42950 0.08453
 C222 C 0.40931 0.45397 0.05259
 C223 C 0.43176 0.47458 0.02808
 N224 N 0.46852 0.47293 0.03234
 H225 H 0.49090 0.50830 -0.09557
 H226 H 0.44787 0.55294 0.01696
 H227 H 0.40769 0.58883 -0.02673
 H228 H 0.45145 0.54307 -0.14130
 H229 H 0.51360 0.44936 0.06157
 H230 H 0.47551 0.41205 0.10634
 H231 H 0.38007 0.45566 0.04927
 H232 H 0.41969 0.49178 0.00564
 C233 C 0.57617 0.43313 -0.08158
 C234 C 0.56841 0.57138 0.08539
 C235 C 0.42495 0.43139 0.08125
 C236 C 0.42655 0.56839 -0.08724
 C237 C 0.14599 -0.12498 -0.15266
 C238 C 0.13483 -0.15199 -0.17776
 C239 C 0.16038 -0.17008 -0.20173
 C240 C 0.19737 -0.16126 -0.20091
 C241 C 0.20825 -0.13417 -0.17539
 C242 C 0.18273 -0.11618 -0.15149
 C243 C 0.12002 -0.10599 -0.12811
 C244 C 0.09924 -0.08933 -0.10713
 H245 H 0.10643 -0.15897 -0.17895
 H246 H 0.15115 -0.19063 -0.22138
 H247 H 0.23659 -0.12709 -0.17357
 H248 H 0.19168 -0.09539 -0.13205
 C249 C 0.14215 0.37406 0.34124
 C250 C 0.15715 0.34506 0.35861
 C251 C 0.18273 0.32673 0.33510
 C252 C 0.19371 0.33725 0.29389
 C253 C 0.17802 0.36616 0.27643
 C254 C 0.15244 0.38443 0.30000
 C255 C 0.11737 0.39390 0.36641
 C256 C 0.09729 0.41094 0.38783
 H257 H 0.14953 0.33691 0.39061
 H258 H 0.19464 0.30484 0.34962
 H259 H 0.18557 0.37464 0.24458
 H260 H 0.14099 0.40684 0.28624
 C261 C 0.64728 -0.12308 0.34888
 C262 C 0.63805 -0.15427 0.33247
 C263 C 0.66325 -0.17243 0.30812
 C264 C 0.69839 -0.15966 0.29951
 C265 C 0.70703 -0.12799 0.31655
 C266 C 0.68177 -0.11003 0.34087
 C267 C 0.62167 -0.10430 0.37422
 C268 C 0.60103 -0.08786 0.39568
 H269 H 0.61125 -0.16452 0.33827
 H270 H 0.65433 -0.19589 0.29487
 H271 H 0.73382 -0.11732 0.31293
 H272 H 0.68933 -0.08601 0.35383
 C273 C 0.64687 0.37766 -0.15345
 C274 C 0.63825 0.34598 -0.16872
 C275 C 0.66378 0.32773 -0.19246
 C276 C 0.69867 0.34087 -0.20158
 C277 C 0.70664 0.37308 -0.18583
 C278 C 0.68105 0.39113 -0.16210
 C279 C 0.62098 0.39643 -0.12846
 C280 C 0.60010 0.41281 -0.10723
 H281 H 0.61169 0.33539 -0.16244
 H282 H 0.65529 0.30385 -0.20482
 H283 H 0.73319 0.38415 -0.18991
 H284 H 0.68815 0.41555 -0.15004
 C285 C -0.14224 0.12448 -0.15744
 C286 C -0.15030 0.15717 -0.14561
 C287 C -0.17612 0.17545 -0.16852
 C288 C -0.19474 0.16131 -0.20387
 C289 C -0.18564 0.12831 -0.21566
 C290 C -0.15975 0.11020 -0.19266
 C291 C -0.11688 0.10519 -0.13266
 C292 C -0.09619 0.08871 -0.11153
 H293 H -0.13711 0.16839 -0.11809
 H294 H -0.18254 0.20007 -0.15672
 H295 H -0.19746 0.11642 -0.24348
 H296 H -0.15347 0.08494 -0.20235
 C297 C -0.14615 0.62333 0.34221
 C298 C -0.13542 0.65086 0.31776
 C299 C -0.16126 0.66909 0.29473
 C300 C -0.19816 0.65994 0.29588
 C301 C -0.20860 0.63221 0.32054
 C302 C -0.18277 0.61406 0.34352
 C303 C -0.11985 0.60458 0.36629
 C304 C -0.09849 0.58845 0.38692
 H305 H -0.10713 0.65821 0.31648
 H306 H -0.15234 0.69010 0.27568
 H307 H -0.23685 0.62484 0.32260
 H308 H -0.19139 0.59288 0.36248
 C309 C 0.35953 0.12407 0.34352
 C310 C 0.34422 0.15319 0.36038
 C311 C 0.31847 0.17095 0.33670
 C312 C 0.30762 0.15973 0.29583
 C313 C 0.32352 0.13065 0.27893
 C314 C 0.34929 0.11295 0.30266
 C315 C 0.38477 0.10500 0.36874
 C316 C 0.40537 0.08870 0.39020
 H317 H 0.35181 0.16192 0.39207
 H318 H 0.30638 0.19299 0.35080
 H319 H 0.31606 0.12163 0.24735
 H320 H 0.36098 0.09044 0.28931
 C321 C 0.35462 0.62219 -0.15871
 C322 C 0.36537 0.64983 -0.18294
 C323 C 0.33962 0.66790 -0.20631
 C324 C 0.30279 0.65848 -0.20574
 C325 C 0.29235 0.63061 -0.18133
 C326 C 0.31809 0.61262 -0.15801
 C327 C 0.38081 0.60370 -0.13413
 C328 C 0.40206 0.58781 -0.11302
 H329 H 0.39360 0.65742 -0.18374
 H330 H 0.34855 0.68901 -0.22516
 H331 H 0.26415 0.62303 -0.17971
 H332 H 0.30946 0.59135 -0.13922
 C333 C -0.14129 -0.12621 0.15646
 C334 C -0.15118 -0.15837 0.14425
 C335 C -0.17673 -0.17615 0.16842
 C336 C -0.19327 -0.16195 0.20533
 C337 C -0.18212 -0.12963 0.21759
 C338 C -0.15652 -0.11205 0.19337
 C339 C -0.11667 -0.10710 0.13029
 C340 C -0.09682 -0.09036 0.10827
 H341 H -0.13972 -0.16949 0.11547
 H342 H -0.18471 -0.20028 0.15640
 H343 H -0.19226 -0.11790 0.24658
 H344 H -0.14879 -0.08724 0.20336
 C345 C -0.14079 0.37391 0.65459
 C346 C -0.15655 0.34494 0.63812
 C347 C -0.18184 0.32720 0.66269
 C348 C -0.19177 0.33829 0.70405
 C349 C -0.17529 0.36713 0.72059
 C350 C -0.14999 0.38480 0.69599
 C351 C -0.11642 0.39327 0.62837
 C352 C -0.09672 0.41007 0.60624
 H353 H -0.14978 0.33639 0.60601
 H354 H -0.19438 0.30534 0.64887
 H355 H -0.18204 0.37604 0.75252
 H356 H -0.13796 0.40720 0.70905
 C357 C 0.35932 -0.12650 0.65731
 C358 C 0.34982 -0.15867 0.64472
 C359 C 0.32415 -0.17672 0.66836
 C360 C 0.30710 -0.16280 0.70514
 C361 C 0.31783 -0.13044 0.71777
 C362 C 0.34354 -0.11259 0.69407
 C363 C 0.38408 -0.10712 0.63167
 C364 C 0.40405 -0.09019 0.61006
 H365 H 0.36168 -0.16959 0.61604
 H366 H 0.31651 -0.20085 0.65604
 H367 H 0.30731 -0.11889 0.74667
 H368 H 0.35096 -0.08776 0.70434
 C369 C 0.35737 0.37379 0.15417
 C370 C 0.34280 0.34446 0.13727
 C371 C 0.31734 0.32624 0.16097
 C372 C 0.30603 0.33721 0.20190
 C373 C 0.32127 0.36647 0.21888
 C374 C 0.34675 0.38463 0.19513
 C375 C 0.38204 0.39350 0.12881
 C376 C 0.40200 0.41050 0.10726
 H377 H 0.35068 0.33595 0.10549
 H378 H 0.30578 0.30406 0.14682
 H379 H 0.31348 0.37530 0.25052
 H380 H 0.35785 0.40731 0.20852
 C381 C 0.14396 0.12221 0.15639
 C382 C 0.18037 0.11217 0.15571
 C383 C 0.20635 0.12988 0.17896
 C384 C 0.19628 0.15796 0.20329
 C385 C 0.15957 0.16787 0.20385
 C386 C 0.13358 0.15007 0.18054
 C387 C 0.11752 0.10393 0.13197
 C388 C 0.09609 0.08813 0.11103
 H389 H 0.18872 0.09072 0.13699
 H390 H 0.23445 0.12192 0.17735
 H391 H 0.15092 0.18916 0.22263
 H392 H 0.10545 0.15803 0.18135
 C393 C 0.13943 0.62584 0.65431
 C394 C 0.15496 0.65473 0.63724
 C395 C 0.18078 0.67244 0.66086
 C396 C 0.19146 0.66139 0.70186
 C397 C 0.17526 0.63260 0.71899
 C398 C 0.14944 0.61495 0.69533
 C399 C 0.11429 0.60665 0.62912
 C400 C 0.09382 0.59012 0.60781
 H401 H 0.14754 0.66328 0.60542
 H402 H 0.19308 0.69427 0.64660
 H403 H 0.18258 0.62372 0.75068
 H404 H 0.13757 0.59262 0.70885
 C405 C 0.64036 0.12676 0.66089
 C406 C 0.65598 0.15538 0.64320
 C407 C 0.68199 0.17323 0.66632
 C408 C 0.69281 0.16259 0.70744
 C409 C 0.67650 0.13410 0.72524
 C410 C 0.65047 0.11630 0.70207
 C411 C 0.61509 0.10740 0.63610
 C412 C 0.59459 0.09081 0.61490
 H413 H 0.64848 0.16360 0.61125
 H414 H 0.69436 0.19484 0.65157
 H415 H 0.68390 0.12557 0.75706
 H416 H 0.63853 0.09418 0.71608
 C417 C 0.63755 0.62761 0.15748
 C418 C 0.65313 0.65640 0.14017
 C419 C 0.67910 0.67411 0.16355
 C420 C 0.68991 0.66316 0.20454
 C421 C 0.67363 0.63450 0.22195
 C422 C 0.64765 0.61685 0.19853
 C423 C 0.61239 0.60835 0.13244
 C424 C 0.59197 0.59174 0.11116
 H425 H 0.64565 0.66484 0.10832
 H426 H 0.69145 0.69583 0.14907
 H427 H 0.68104 0.62570 0.25364
 H428 H 0.63576 0.59460 0.21223
   
