data_POSCAR
  _audit_creation_date              2014-09-24
  _audit_creation_method            'ToBaCCo'
  _symmetry_space_group_name_H-M    'P1'
  _symmetry_Int_Tables_number       1
  _symmetry_cell_setting            triclinic
  loop_
  _symmetry_equiv_pos_as_xyz
 x,y,z
_cell_length_a 19.2008
_cell_length_b 19.2008
_cell_length_c 19.2010
_cell_angle_alpha 65.883200
_cell_angle_beta 114.121900
_cell_angle_gamma 65.873500
loop_
  _atom_site_label
  _atom_site_type_symbol
  _atom_site_fract_x
  _atom_site_fract_y
  _atom_site_fract_z
O1 O 0.66373 0.41899 0.09489
 O2 O 0.44944 0.46646 0.07937
 O3 O 0.58331 0.33496 0.09506
 O4 O 0.53008 0.55047 0.07919
 O5 O 0.41533 0.66555 -0.09473
 O6 O 0.46792 0.45021 -0.07888
 O7 O 0.33421 0.58198 -0.09439
 O8 O 0.54866 0.53379 -0.07903
 Cu9 Cu 0.56745 0.43185 0.10419
 Cu10 Cu 0.43053 0.56879 -0.10382
 C11 C 0.64101 0.47292 0.00941
 C12 C 0.35685 0.52758 -0.00900
 C13 C 0.53004 0.35749 0.00962
 C14 C 0.46878 0.64293 -0.00926
 O15 O -0.09505 0.66478 0.41906
 O16 O -0.07952 0.45025 0.46738
 O17 O -0.07919 0.53119 0.55098
 O18 O -0.09509 0.58375 0.33565
 O19 O 0.07883 0.46906 0.45067
 O20 O 0.09477 0.41583 0.66624
 O21 O 0.09437 0.33522 0.58210
 O22 O 0.07876 0.54959 0.53457
 Cu23 Cu -0.10424 0.56830 0.43242
 Cu24 Cu 0.10378 0.43144 0.56932
 C25 C -0.00966 0.64219 0.47343
 C26 C 0.00890 0.35792 0.52821
 C27 C 0.00930 0.46950 0.64355
 C28 C -0.00966 0.53076 0.35810
 O29 O 0.46590 0.07876 0.55005
 O30 O 0.41844 0.09432 0.33572
 O31 O 0.33442 0.09446 0.41626
 O32 O 0.55000 0.07849 0.46957
 O33 O 0.66506 -0.09544 0.58428
 O34 O 0.44965 -0.07949 0.53158
 O35 O 0.53321 -0.07958 0.45076
 O36 O 0.58139 -0.09503 0.66523
 Cu37 Cu 0.43128 0.10360 0.43201
 Cu38 Cu 0.56819 -0.10441 0.56887
 C39 C 0.52703 -0.00965 0.64264
 C40 C 0.47240 0.00884 0.35845
 C41 C 0.35698 0.00901 0.46962
 C42 C 0.64251 -0.01000 0.53101
 C43 C 0.50796 -0.00990 -0.06747
 C44 C 0.49507 -0.06806 -0.00875
 C45 C 0.48925 -0.05793 0.05756
 C46 C 0.49641 0.00758 0.06808
 C47 C 0.50941 0.06565 0.00954
 C48 C 0.51555 0.05532 -0.05654
 H49 H 0.52803 0.09800 -0.09938
 H50 H 0.47703 -0.10075 0.10069
 C51 C -0.00957 0.50926 1.06667
 C52 C -0.06815 0.49631 1.00855
 C53 C -0.05757 0.48910 0.94307
 C54 C 0.00876 0.49492 0.93298
 C55 C 0.06740 0.50789 0.99110
 C56 C 0.05648 0.51544 1.05633
 H57 H 0.09929 0.52796 1.09899
 H58 H -0.10069 0.47689 0.90023
 C59 C 0.06581 0.00876 0.49157
 C60 C 0.00778 0.06724 0.50466
 C61 C -0.05765 0.05662 0.51192
 C62 C -0.06781 -0.00964 0.50602
 C63 C -0.00978 -0.06821 0.49294
 C64 C 0.05540 -0.05725 0.48533
 H65 H 0.09798 -0.09999 0.47271
 H66 H -0.10042 0.09967 0.52423
 C67 C -0.17803 0.40772 1.10733
 C68 C -0.28080 0.47241 1.01144
 C69 C -0.31271 0.54586 0.91638
 C70 C -0.24415 0.55483 0.91691
 C71 C -0.14150 0.49020 1.01213
 C72 C -0.10866 0.41607 1.10763
 H73 H -0.15173 0.35151 1.18194
 H74 H -0.39174 0.59836 0.84117
 H75 H -0.27139 0.61267 0.84243
 H76 H -0.02940 0.36432 1.18205
 C77 C 0.31179 0.45927 1.08401
 C78 C 0.28215 0.52892 0.98887
 C79 C 0.17996 0.59191 0.89281
 C80 C 0.11001 0.58469 0.89247
 C81 C 0.14124 0.51347 0.98795
 C82 C 0.24270 0.45121 1.08331
 H83 H 0.38967 0.40849 1.15977
 H84 H 0.15427 0.64599 0.81785
 H85 H 0.03151 0.63507 0.81783
 H86 H 0.26876 0.39578 1.15795
 C87 C 0.08324 -0.31264 0.54166
 C88 C -0.01188 -0.28307 0.47205
 C89 C -0.10798 -0.18090 0.40907
 C90 C -0.10838 -0.11090 0.41622
 C91 C -0.01291 -0.14207 0.48740
 C92 C 0.08248 -0.24351 0.54967
 H93 H 0.15904 -0.39051 0.59244
 H94 H -0.18292 -0.15528 0.35504
 H95 H -0.18305 -0.03240 0.36582
 H96 H 0.15710 -0.26953 0.60508
 C97 C 0.10676 0.17704 0.59323
 C98 C 0.01089 0.27974 0.52873
 C99 C -0.08424 0.31162 0.45545
 C100 C -0.08379 0.24311 0.44645
 C101 C 0.01141 0.14054 0.51085
 C102 C 0.10697 0.10772 0.58482
 H103 H 0.18141 0.15075 0.64932
 H104 H -0.15944 0.39060 0.40313
 H105 H -0.15834 0.27033 0.38874
 H106 H 0.18138 0.02853 0.63639
 C107 C 0.59149 -0.10796 -0.18042
 C108 C 0.52846 -0.01186 -0.28259
 C109 C 0.45892 0.08325 -0.31210
 C110 C 0.45103 0.08246 -0.24289
 C111 C 0.51336 -0.01295 -0.14144
 C112 C 0.58445 -0.10839 -0.11035
 H113 H 0.64548 -0.18289 -0.15484
 H114 H 0.40811 0.15904 -0.38996
 H115 H 0.39566 0.15708 -0.26886
 H116 H 0.63489 -0.18308 -0.03187
 C117 C 0.54566 -0.08431 0.31241
 C118 C 0.47202 0.01080 0.28035
 C119 C 0.40732 0.10665 0.17755
 C120 C 0.41585 0.10684 0.10830
 C121 C 0.49015 0.01129 0.14130
 C122 C 0.55479 -0.08386 0.24397
 H123 H 0.59817 -0.15949 0.39147
 H124 H 0.35096 0.18129 0.15114
 H125 H 0.36410 0.18122 0.02903
 H126 H 0.61276 -0.15837 0.27132
 C127 C 0.54272 -0.31144 0.08367
 C128 C 0.46796 -0.27888 -0.01128
 C129 C 0.40265 -0.17591 -0.10721
 C130 C 0.41197 -0.10703 -0.10766
 C131 C 0.48769 -0.14069 -0.01231
 C132 C 0.55272 -0.24342 0.08296
 H133 H 0.59573 -0.39068 0.15886
 H134 H 0.34543 -0.14919 -0.18172
 H135 H 0.35993 -0.02763 -0.18202
 H136 H 0.61175 -0.27117 0.15732
 C137 C 0.45941 0.31023 -0.08322
 C138 C 0.53246 0.27860 0.01179
 C139 C 0.59797 0.17560 0.10780
 C140 C 0.59022 0.10593 0.10827
 C141 C 0.51597 0.13875 0.01286
 C142 C 0.45106 0.24136 -0.08250
 H143 H 0.40647 0.38938 -0.15849
 H144 H 0.65406 0.14947 0.18235
 H145 H 0.64227 0.02660 0.18273
 H146 H 0.39324 0.26844 -0.15691
 C147 C -0.17603 -0.10804 0.59779
 C148 C -0.27911 -0.01208 0.53224
 C149 C -0.31151 0.08286 0.45772
 C150 C -0.24328 0.08212 0.44811
 C151 C -0.14050 -0.01317 0.51328
 C152 C -0.10694 -0.10851 0.58885
 H153 H -0.14938 -0.18255 0.65490
 H154 H -0.39080 0.15807 0.40459
 H155 H -0.27093 0.15647 0.38922
 H156 H -0.02748 -0.18290 0.64104
 C157 C 0.17542 0.10714 0.40249
 C158 C 0.27826 0.01115 0.46757
 C159 C 0.30997 -0.08390 0.54068
 C160 C 0.24132 -0.08323 0.54943
 C161 C 0.13882 0.01213 0.48486
 C162 C 0.10595 0.10757 0.41062
 H163 H 0.14928 0.18170 0.34644
 H164 H 0.38903 -0.15917 0.59335
 H165 H 0.26846 -0.15768 0.60726
 H166 H 0.02674 0.18202 0.35887
 C167 C 0.08321 0.45966 1.31106
 C168 C -0.01180 0.53290 1.27933
 C169 C -0.10782 0.59828 1.17639
 C170 C -0.10830 0.59028 1.10684
 C171 C -0.01290 0.51588 1.13974
 C172 C 0.08248 0.45103 1.24232
 H173 H 0.15848 0.40678 1.39019
 H174 H -0.18237 0.65450 1.15020
 H175 H -0.18277 0.64228 1.02752
 H176 H 0.15691 0.39308 1.26947
 C177 C 0.10729 0.40301 0.82488
 C178 C 0.01135 0.46843 0.72186
 C179 C -0.08362 0.54300 0.68941
 C180 C -0.08292 0.55272 0.75756
 C181 C 0.01235 0.48762 0.86032
 C182 C 0.10772 0.41206 0.89389
 H183 H 0.18182 0.34592 0.85154
 H184 H -0.15882 0.59606 0.61015
 H185 H -0.15729 0.61162 0.72988
 H186 H 0.18208 0.35999 0.97331
   
