data_POSCAR
  _audit_creation_date              2014-09-24
  _audit_creation_method            'ToBaCCo'
  _symmetry_space_group_name_H-M    'P1'
  _symmetry_Int_Tables_number       1
  _symmetry_cell_setting            triclinic
  loop_
  _symmetry_equiv_pos_as_xyz
 x,y,z
_cell_length_a 27.5292
_cell_length_b 27.5594
_cell_length_c 27.5563
_cell_angle_alpha 87.884200
_cell_angle_beta 91.676900
_cell_angle_gamma 94.940500
loop_
  _atom_site_label
  _atom_site_type_symbol
  _atom_site_fract_x
  _atom_site_fract_y
  _atom_site_fract_z
C1 C 0.59455 0.38177 0.03011
 C2 C 0.63172 0.41726 0.03754
 C3 C 0.61344 0.46167 0.02503
 N4 N 0.56648 0.45394 0.00928
 C5 C 0.55491 0.40519 0.01230
 C6 C 0.64137 0.50747 0.02151
 C7 C 0.61939 0.55171 0.01108
 C8 C 0.64355 0.59565 -0.00448
 C9 C 0.60998 0.62978 -0.00649
 C10 C 0.56649 0.60673 0.00998
 N11 N 0.57246 0.55902 0.02004
 C12 C 0.52307 0.62985 0.01713
 C13 C 0.47779 0.60181 0.02272
 C14 C 0.43689 0.61768 0.04349
 C15 C 0.39997 0.58159 0.03763
 C16 C 0.41968 0.54459 0.01418
 N17 N 0.46733 0.55676 0.00536
 C18 C 0.39290 0.50233 -0.00273
 C19 C 0.41593 0.46091 -0.01516
 C20 C 0.39453 0.42268 -0.04180
 C21 C 0.42800 0.38836 -0.04240
 C22 C 0.46879 0.40664 -0.01601
 N23 N 0.46113 0.45090 0.00034
 C24 C 0.51049 0.38137 -0.00493
 H25 H 0.59698 0.34301 0.03599
 H26 H 0.66836 0.41032 0.04915
 H27 H 0.48311 0.47075 0.02528
 H28 H 0.68151 0.60328 -0.01311
 H29 H 0.61731 0.66748 -0.01835
 H30 H 0.43389 0.65190 0.06074
 H31 H 0.36281 0.58249 0.04914
 H32 H 0.42270 0.35374 -0.05994
 H33 H 0.54746 0.53412 0.03730
 H34 H 0.35846 0.41964 -0.05870
 C35 C -0.02486 0.57855 0.62216
 C36 C -0.03021 0.61487 0.58761
 C37 C -0.00988 0.60028 0.54558
 N38 N 0.00670 0.55581 0.55299
 C39 C -0.00216 0.54272 0.59987
 C40 C -0.00326 0.62931 0.50237
 C41 C 0.00299 0.60748 0.45727
 C42 C 0.02071 0.63154 0.41540
 C43 C 0.01806 0.59793 0.37958
 C44 C 0.00054 0.55377 0.40085
 N45 N -0.00873 0.55990 0.44808
 C46 C -0.00931 0.50982 0.37617
 C47 C -0.01304 0.46374 0.40053
 C48 C -0.02708 0.41989 0.37895
 C49 C -0.02088 0.38384 0.41363
 C50 C -0.00249 0.40675 0.45504
 N51 N 0.00218 0.45560 0.44697
 C52 C 0.01343 0.38262 0.49804
 C53 C 0.02523 0.40729 0.54140
 C54 C 0.05105 0.38887 0.58094
 C55 C 0.05131 0.42243 0.61677
 C56 C 0.02564 0.46028 0.59800
 N57 N 0.00994 0.45081 0.55212
 C58 C 0.01430 0.50089 0.62379
 H59 H -0.03606 0.57859 0.65948
 H60 H -0.04664 0.64850 0.59296
 H61 H -0.01456 0.47027 0.53147
 H62 H 0.03430 0.66939 0.41082
 H63 H 0.02838 0.60537 0.34231
 H64 H -0.03960 0.41418 0.34187
 H65 H -0.02829 0.34514 0.40855
 H66 H 0.06809 0.41912 0.65261
 H67 H -0.02665 0.53408 0.47135
 H68 H 0.06764 0.35465 0.58383
 C69 C 0.38128 0.04623 0.57140
 C70 C 0.41696 0.04619 0.60713
 C71 C 0.45204 0.01742 0.59150
 N72 N 0.43930 0.00061 0.54704
 C73 C 0.39602 0.01813 0.53482
 C74 C 0.49419 0.00562 0.61872
 C75 C 0.53384 -0.01396 0.59637
 C76 C 0.57019 -0.03738 0.62110
 C77 C 0.60400 -0.04613 0.58773
 C78 C 0.58669 -0.02996 0.54260
 N79 N 0.54377 -0.01028 0.54841
 C80 C 0.61253 -0.02862 0.49845
 C81 C 0.58885 -0.02403 0.45219
 C82 C 0.61168 -0.02369 0.40784
 C83 C 0.57575 -0.02396 0.37245
 C84 C 0.53190 -0.02473 0.39599
 N85 N 0.53996 -0.02554 0.44468
 C86 C 0.48540 -0.02845 0.37251
 C87 C 0.44128 -0.02800 0.39751
 C88 C 0.39520 -0.04149 0.37810
 C89 C 0.36220 -0.03244 0.41235
 C90 C 0.38881 -0.01261 0.45139
 N91 N 0.43696 -0.01029 0.44219
 C92 C 0.36836 0.00673 0.49222
 H93 H 0.34843 0.06511 0.57208
 H94 H 0.41712 0.06541 0.64068
 H95 H 0.46462 0.00813 0.46248
 H96 H 0.57285 -0.04652 0.65955
 H97 H 0.63768 -0.06199 0.59692
 H98 H 0.65005 -0.02521 0.40128
 H99 H 0.58140 -0.02515 0.33384
 H100 H 0.32297 -0.03871 0.40833
 H101 H 0.52559 0.01016 0.52232
 H102 H 0.38579 -0.05573 0.34272
 O103 O 0.43316 -0.00126 -0.06966
 O104 O 0.44499 -0.00800 0.06383
 O105 O 0.43635 0.06230 -0.00082
 O106 O 0.44243 -0.07043 -0.00487
 O107 O 0.52283 -0.05987 -0.00527
 O108 O 0.51597 0.07345 -0.01007
 O109 O 0.52478 0.00821 0.05887
 O110 O 0.51333 0.00694 -0.07450
 Cu111 Cu 0.43118 -0.00536 -0.00243
 Cu112 Cu 0.52731 0.00805 -0.00828
 C113 C 0.47126 0.00322 -0.09492
 C114 C 0.48682 0.00006 0.08397
 C115 C 0.47508 0.09058 -0.00514
 C116 C 0.48363 -0.08787 -0.00518
 O117 O -0.04304 0.54237 0.99232
 O118 O 0.08803 0.52563 0.99635
 O119 O 0.02092 0.52495 0.92935
 O120 O 0.02540 0.54255 1.06107
 O121 O 0.00780 0.46343 1.07413
 O122 O 0.00309 0.44596 0.94210
 O123 O 0.07179 0.44657 1.01020
 O124 O -0.05971 0.46339 1.00711
 Cu125 Cu 0.02434 0.54190 0.99366
 Cu126 Cu 0.00415 0.44682 1.00962
 C127 C -0.07361 0.50572 0.99894
 C128 C 0.10236 0.48334 1.00366
 C129 C 0.01137 0.48255 0.91318
 C130 C 0.01748 0.50592 1.08992
 O131 O -0.01310 -0.05518 0.45299
 O132 O -0.00088 0.07690 0.47133
 O133 O 0.05970 0.01031 0.46890
 O134 O -0.07371 0.01258 0.45663
 O135 O -0.08019 -0.00604 0.53501
 O136 O 0.05349 -0.00107 0.54829
 O137 O -0.01125 0.06331 0.54998
 O138 O -0.01518 -0.06847 0.53247
 Cu139 Cu -0.00639 0.01241 0.45445
 Cu140 Cu -0.01394 -0.00423 0.54945
 C141 C -0.01518 -0.08433 0.48981
 C142 C -0.00482 0.09263 0.51363
 C143 C 0.07938 0.00448 0.51077
 C144 C -0.09962 0.00311 0.49372
 C145 C -0.28505 0.49316 1.06996
 C146 C -0.30730 0.50832 1.02598
 C147 C -0.27783 0.52164 0.98594
 C148 C -0.22709 0.51977 0.98971
 C149 C -0.20549 0.50262 1.03355
 C150 C -0.23473 0.48985 1.07357
 C151 C -0.15509 0.49809 1.03640
 C152 C -0.12595 0.51213 0.99655
 C153 C -0.14722 0.53098 0.95384
 C154 C -0.19758 0.53418 0.95017
 H155 H -0.29455 0.53224 0.95147
 H156 H -0.21873 0.47712 1.10759
 H157 H -0.13842 0.48395 1.06954
 H158 H -0.21346 0.54776 0.91643
 H159 H -0.30693 0.48311 1.10140
 H160 H -0.12496 0.54188 0.92288
 C161 C 0.31954 0.54037 0.96276
 C162 C 0.33907 0.50269 0.99070
 C163 C 0.30737 0.46678 1.01361
 C164 C 0.25664 0.46930 1.00969
 C165 C 0.23758 0.50846 0.98293
 C166 C 0.26927 0.54343 0.95913
 C167 C 0.18716 0.51240 0.98084
 C168 C 0.15519 0.47739 1.00455
 C169 C 0.17422 0.43771 1.02975
 C170 C 0.22459 0.43386 1.03259
 H171 H 0.32229 0.43760 1.03516
 H172 H 0.25521 0.57340 0.93812
 H173 H 0.17278 0.54283 0.96076
 H174 H 0.23850 0.40345 1.05303
 H175 H 0.34346 0.56802 0.94443
 H176 H 0.15021 0.41029 1.04826
 C177 C 0.02525 -0.29605 0.54433
 C178 C -0.00060 -0.31910 0.50531
 C179 C -0.02357 -0.28973 0.47001
 C180 C -0.02093 -0.23888 0.47386
 C181 C 0.00384 -0.21699 0.51413
 C182 C 0.02698 -0.24580 0.54895
 C183 C 0.00521 -0.16654 0.51902
 C184 C -0.01679 -0.13725 0.48354
 C185 C -0.04019 -0.15887 0.44281
 C186 C -0.04276 -0.20945 0.43827
 H187 H -0.04463 -0.30645 0.44024
 H188 H 0.04678 -0.22944 0.57964
 H189 H 0.02395 -0.14992 0.55020
 H190 H -0.06169 -0.22551 0.40696
 H191 H 0.04492 -0.31695 0.57124
 H192 H -0.05735 -0.13675 0.41506
 C193 C 0.04789 0.31057 0.46299
 C194 C 0.01858 0.32938 0.49742
 C195 C -0.00693 0.29736 0.53048
 C196 C -0.00438 0.24690 0.52824
 C197 C 0.02341 0.22822 0.49196
 C198 C 0.04992 0.26036 0.45995
 C199 C 0.02366 0.17772 0.48787
 C200 C -0.00272 0.14558 0.52015
 C201 C -0.02858 0.16441 0.55734
 C202 C -0.02975 0.21472 0.56112
 H203 H -0.02935 0.31179 0.55729
 H204 H 0.07184 0.24667 0.43231
 H205 H 0.04419 0.16339 0.45945
 H206 H -0.05093 0.22842 0.58935
 H207 H 0.06836 0.33487 0.43775
 H208 H -0.04917 0.14017 0.58253
 C209 C 0.53891 0.03290 -0.30706
 C210 C 0.49621 0.01188 -0.33021
 C211 C 0.45606 -0.00411 -0.30129
 C212 C 0.45900 -0.00052 -0.25061
 C213 C 0.50269 0.01907 -0.22803
 C214 C 0.54220 0.03620 -0.25662
 C215 C 0.50635 0.02069 -0.17719
 C216 C 0.46667 0.00339 -0.14854
 C217 C 0.42293 -0.01485 -0.17146
 C218 C 0.41921 -0.01703 -0.22202
 H219 H 0.42310 -0.02122 -0.31802
 H220 H 0.57578 0.05192 -0.23996
 H221 H 0.54014 0.03525 -0.15996
 H222 H 0.38534 -0.03202 -0.23873
 H223 H 0.56995 0.04697 -0.32817
 H224 H 0.39185 -0.02843 -0.15021
 C225 C 0.46522 -0.07545 0.29696
 C226 C 0.48290 -0.03197 0.31878
 C227 C 0.49887 0.00867 0.28947
 C228 C 0.49700 0.00612 0.23875
 C229 C 0.47712 -0.03712 0.21691
 C230 C 0.46155 -0.07779 0.24636
 C231 C 0.47343 -0.03889 0.16606
 C232 C 0.49121 0.00128 0.13707
 C233 C 0.51251 0.04334 0.15895
 C234 C 0.51478 0.04604 0.20947
 H235 H 0.51316 0.04206 0.30636
 H236 H 0.44686 -0.11141 0.23029
 H237 H 0.45746 -0.07157 0.14900
 H238 H 0.53050 0.07926 0.22563
 H239 H 0.45355 -0.10731 0.31921
 H240 H 0.52627 0.07455 0.13683
 C241 C 0.56164 -0.28968 0.04100
 C242 C 0.52410 -0.31829 0.01677
 C243 C 0.48685 -0.29412 -0.00773
 C244 C 0.48649 -0.24331 -0.00736
 C245 C 0.52475 -0.21523 0.01642
 C246 C 0.56221 -0.23881 0.04038
 C247 C 0.52443 -0.16418 0.01628
 C248 C 0.48546 -0.14124 -0.00606
 C249 C 0.44734 -0.16971 -0.02898
 C250 C 0.44812 -0.22021 -0.03015
 H251 H 0.45819 -0.31487 -0.02782
 H252 H 0.59156 -0.21797 0.05937
 H253 H 0.55375 -0.14248 0.03447
 H254 H 0.41841 -0.24124 -0.04842
 H255 H 0.59007 -0.30671 0.06160
 H256 H 0.41709 -0.15277 -0.04658
 C257 C 0.54170 0.30876 -0.04256
 C258 C 0.50797 0.32791 -0.01276
 C259 C 0.47262 0.29599 0.01043
 C260 C 0.47171 0.24546 0.00490
 C261 C 0.50719 0.22649 -0.02346
 C262 C 0.54166 0.25849 -0.04746
 C263 C 0.50786 0.17585 -0.02697
 C264 C 0.47283 0.14387 -0.00343
 C265 C 0.43665 0.16313 0.02317
 C266 C 0.43634 0.21347 0.02768
 H267 H 0.44633 0.31057 0.03325
 H268 H 0.56876 0.24464 -0.06979
 H269 H 0.53560 0.16131 -0.04802
 H270 H 0.40868 0.22735 0.04928
 H271 H 0.56872 0.33285 -0.06130
 H272 H 0.40937 0.13913 0.04168
 C273 C -0.31544 -0.07275 0.51992
 C274 C -0.33635 -0.03123 0.50038
 C275 C -0.30547 0.00791 0.48148
 C276 C -0.25470 0.00617 0.48316
 C277 C -0.23412 -0.03462 0.50540
 C278 C -0.26482 -0.07405 0.52328
 C279 C -0.18323 -0.03533 0.50905
 C280 C -0.15287 0.00334 0.48902
 C281 C -0.17356 0.04279 0.46531
 C282 C -0.22413 0.04456 0.46298
 H283 H -0.32110 0.03991 0.46574
 H284 H -0.24970 -0.10611 0.53938
 H285 H -0.16718 -0.06612 0.52683
 H286 H -0.23933 0.07588 0.44541
 H287 H -0.33836 -0.10445 0.53232
 H288 H -0.15046 0.07286 0.44974
 C289 C 0.29536 0.04268 0.45310
 C290 C 0.31534 0.01412 0.49066
 C291 C 0.28457 -0.00867 0.52603
 C292 C 0.23424 -0.00384 0.52342
 C293 C 0.21422 0.02345 0.48444
 C294 C 0.24516 0.04697 0.44975
 C295 C 0.16359 0.02636 0.48059
 C296 C 0.13280 0.00318 0.51578
 C297 C 0.15325 -0.02249 0.55521
 C298 C 0.20350 -0.02631 0.55881
 H299 H 0.29983 -0.03069 0.55513
 H300 H 0.23053 0.06841 0.41990
 H301 H 0.14815 0.04667 0.45032
 H302 H 0.21827 -0.04712 0.58906
 H303 H 0.31866 0.06092 0.42584
 H304 H 0.13019 -0.04071 0.58268
 C305 C -0.05841 0.50222 1.29863
 C306 C -0.01294 0.51160 1.32231
 C307 C 0.02927 0.52009 1.29485
 C308 C 0.02619 0.51890 1.24399
 C309 C -0.01957 0.50757 1.22046
 C310 C -0.06169 0.49975 1.24808
 C311 C -0.02226 0.50371 1.16980
 C312 C 0.01994 0.51248 1.14246
 C313 C 0.06487 0.52550 1.16570
 C314 C 0.06810 0.52824 1.21625
 H315 H 0.06441 0.52719 1.31321
 H316 H -0.09705 0.49139 1.23063
 H317 H -0.05699 0.49390 1.15158
 H318 H 0.10336 0.53730 1.23364
 H319 H -0.09119 0.49555 1.31952
 H320 H 0.09763 0.53222 1.14478
 C321 C 0.05154 0.53938 0.69836
 C322 C 0.02197 0.50117 0.67745
 C323 C -0.00163 0.46487 0.70771
 C324 C 0.00314 0.46760 0.75847
 C325 C 0.03155 0.50728 0.77901
 C326 C 0.05610 0.54257 0.74868
 C327 C 0.03444 0.51146 0.82953
 C328 C 0.00981 0.47624 0.86014
 C329 C -0.01704 0.43605 0.83960
 C330 C -0.02061 0.43191 0.78913
 H331 H -0.02444 0.43530 0.69169
 H332 H 0.07835 0.57297 0.76386
 H333 H 0.05576 0.54230 0.84504
 H334 H -0.04233 0.40111 0.77408
 H335 H 0.07037 0.56736 0.67553
 H336 H -0.03627 0.40845 0.86254
   
