data_POSCAR
  _audit_creation_date              2014-09-24
  _audit_creation_method            'ToBaCCo'
  _symmetry_space_group_name_H-M    'P1'
  _symmetry_Int_Tables_number       1
  _symmetry_cell_setting            triclinic
  loop_
  _symmetry_equiv_pos_as_xyz
 x,y,z
_cell_length_a 26.3223
_cell_length_b 26.3258
_cell_length_c 26.3165
_cell_angle_alpha 90.241500
_cell_angle_beta 90.260800
_cell_angle_gamma 89.744600
loop_
  _atom_site_label
  _atom_site_type_symbol
  _atom_site_fract_x
  _atom_site_fract_y
  _atom_site_fract_z
N1 N 0.16641 0.16804 0.16738
 N2 N -0.16344 0.83510 0.16689
 N3 N -0.17039 0.16472 -0.16626
 N4 N 0.16584 0.83159 -0.16595
 N5 N 0.16677 1.16557 0.83663
 N6 N 0.83244 0.83427 0.83015
 N7 N 0.16634 0.83118 1.16733
 N8 N 0.83276 1.16808 1.16702
 O9 O 0.57057 0.90910 0.90895
 O10 O 0.62601 0.95584 0.95771
 C11 C 0.61597 0.92287 0.92250
 O12 O 0.42615 1.09005 0.91403
 O13 O 0.37144 1.04127 0.96070
 C14 C 0.38096 1.07628 0.92774
 O15 O 0.56913 1.08616 0.90921
 O16 O 0.62531 1.04010 0.95791
 C17 C 0.61471 1.07283 0.92282
 O18 O 0.42763 0.90433 0.91399
 O19 O 0.37214 0.95328 0.96054
 C20 C 0.38224 0.91805 0.92762
 Zr21 Zr 0.49915 0.93310 0.93809
 O22 O 0.49293 0.93267 0.85786
 O23 O 0.50538 0.85289 0.93873
 Zr24 Zr 0.49808 1.06179 0.93807
 O25 O 0.49187 1.06123 0.85783
 O26 O 0.50306 1.14204 0.93855
 O27 O 0.54375 0.99756 0.92797
 O28 O 0.45452 0.99727 0.92895
 O29 O 0.42887 0.90488 1.09114
 O30 O 0.37278 0.95341 1.04480
 C31 C 0.38327 0.91844 1.07769
 O32 O 0.57088 1.08696 1.09498
 O33 O 0.62614 1.04035 1.04596
 C34 C 0.61623 1.07347 1.08105
 O35 O 0.42829 1.09109 1.09173
 O36 O 0.37288 1.04158 1.04590
 C37 C 0.38294 1.07703 1.07857
 O38 O 0.57206 0.90965 1.09502
 O39 O 0.62669 0.95605 1.04585
 C40 C 0.61722 0.92329 1.08104
 Zr41 Zr 0.50010 0.93355 1.06668
 O42 O 0.49518 0.93408 1.14695
 O43 O 0.50624 0.85334 1.06616
 Zr44 Zr 0.49931 1.06220 1.06677
 O45 O 0.49450 1.06161 1.14706
 O46 O 0.50430 1.14244 1.06661
 Zr47 Zr 0.57450 0.99791 1.00208
 Zr48 Zr 0.42369 0.99748 1.00260
 O49 O 0.45570 0.99780 1.07605
 O50 O 0.54505 0.99803 1.07645
 O51 O 0.45440 0.92333 1.00251
 O52 O 0.54265 1.07136 1.00223
 O53 O 0.54378 0.92425 1.00221
 O54 O 0.45331 1.07176 1.00261
 H55 H 0.43128 0.99711 0.89923
 H56 H 0.56545 1.10120 1.00216
 H57 H 0.43298 0.99778 1.10596
 H58 H 0.56708 0.89458 1.00205
 H59 H 0.47431 1.15524 0.95883
 H60 H 0.47590 1.15549 1.04560
 H61 H 0.52380 1.04184 1.16006
 H62 H 0.52357 0.95491 1.16007
 H63 H 0.47752 0.84001 1.04583
 H64 H 0.47670 0.83970 0.95884
 H65 H 0.52068 0.95393 0.84451
 H66 H 0.52044 1.04070 0.84450
 O67 O 0.09018 0.42649 -0.09123
 O68 O 0.04116 0.37182 -0.04476
 C69 C 0.07637 0.38130 -0.07751
 O70 O 0.08654 0.57085 0.08978
 O71 O 0.04012 0.62624 0.04065
 C72 C 0.07308 0.61623 0.07590
 O73 O 0.09038 0.42796 0.08598
 O74 O 0.04127 0.37254 0.03959
 C75 C 0.07644 0.38260 0.07259
 O76 O 0.08619 0.56951 -0.09606
 O77 O 0.03991 0.62554 -0.04745
 C78 C 0.07280 0.61506 -0.08239
 Zr79 Zr 0.06160 0.49840 -0.06747
 O80 O 0.14185 0.50336 -0.06749
 O81 O 0.06049 0.49221 -0.14771
 Zr82 Zr 0.06203 0.49938 0.06127
 O83 O 0.14228 0.50436 0.06079
 O84 O 0.06210 0.49443 0.14154
 O85 O 0.07160 0.45358 -0.00292
 O86 O 0.07116 0.54283 -0.00321
 O87 O -0.09131 0.57089 -0.09643
 O88 O -0.04444 0.62621 -0.04765
 C89 C -0.07755 0.61626 -0.08276
 O90 O -0.09524 0.42913 0.08576
 O91 O -0.04676 0.37311 0.03938
 C92 C -0.08163 0.38356 0.07236
 O93 O -0.09045 0.57210 0.08962
 O94 O -0.04412 0.62681 0.04049
 C95 C -0.07679 0.61727 0.07574
 O96 O -0.09608 0.42787 -0.09150
 O97 O -0.04703 0.37250 -0.04491
 C98 C -0.08236 0.38251 -0.07776
 Zr99 Zr -0.06705 0.49936 -0.06764
 O100 O -0.14727 0.50552 -0.06771
 O101 O -0.06666 0.49317 -0.14787
 Zr102 Zr -0.06670 0.50026 0.06107
 O103 O -0.14693 0.50643 0.06011
 O104 O -0.06659 0.49529 0.14134
 Zr105 Zr -0.00271 0.42401 -0.00292
 Zr106 Zr -0.00231 0.57468 -0.00337
 O107 O -0.07597 0.54393 -0.00341
 O108 O -0.07688 0.45463 -0.00315
 O109 O -0.00262 0.54409 -0.07755
 O110 O -0.00242 0.45589 0.07055
 O111 O -0.00287 0.45473 -0.07662
 O112 O -0.00218 0.54510 0.07095
 H113 H 0.10101 0.56564 -0.00318
 H114 H -0.00240 0.43314 0.10044
 H115 H -0.10564 0.56721 -0.00349
 H116 H -0.00301 0.43139 -0.10625
 H117 H 0.04148 0.52307 0.15465
 H118 H -0.04525 0.52326 0.15454
 H119 H -0.16024 0.47723 0.04046
 H120 H -0.16049 0.47768 -0.04647
 H121 H -0.04641 0.52173 -0.16109
 H122 H 0.04066 0.52131 -0.16097
 H123 H 0.15507 0.47549 -0.04602
 H124 H 0.15533 0.47522 0.04083
 O125 O 1.09614 -0.08584 0.57217
 O126 O 1.04693 -0.03968 0.62768
 C127 C 1.08208 -0.07267 0.61756
 O128 O 1.09211 0.09694 0.43131
 O129 O 1.04653 0.04797 0.37509
 C130 C 1.07904 0.08320 0.38569
 O131 O 1.09539 0.09185 0.57419
 O132 O 1.04652 0.04531 0.62899
 C133 C 1.08154 0.07822 0.61944
 O134 O 1.09212 -0.08935 0.42928
 O135 O 1.04582 -0.04026 0.37370
 C136 C 1.07864 -0.07558 0.38383
 Zr137 Zr 1.06778 -0.06067 0.50088
 O138 O 1.14804 -0.05975 0.49594
 O139 O 1.06820 -0.14092 0.50577
 Zr140 Zr 1.06732 0.06770 0.50206
 O141 O 1.14760 0.06678 0.49729
 O142 O 1.06705 0.14791 0.50817
 O143 O 1.07725 0.00334 0.54698
 O144 O 1.07693 0.00363 0.45737
 O145 O 0.91490 -0.08931 0.42861
 O146 O 0.96090 -0.04018 0.37374
 C147 C 0.92828 -0.07541 0.38342
 O148 O 0.90913 0.09211 0.57163
 O149 O 0.95822 0.04612 0.62739
 C150 C 0.92272 0.07866 0.61708
 O151 O 0.91438 0.09638 0.42899
 O152 O 0.96148 0.04788 0.37360
 C153 C 0.92816 0.08277 0.38360
 O154 O 0.91019 -0.08559 0.57071
 O155 O 0.95878 -0.03969 0.62692
 C156 C 0.92373 -0.07241 0.61630
 Zr157 Zr 0.93924 -0.06057 0.50007
 O158 O 0.85900 -0.05973 0.49385
 O159 O 0.93996 -0.14082 0.50510
 Zr160 Zr 0.93882 0.06796 0.50062
 O161 O 0.85861 0.06848 0.49431
 O162 O 0.93981 0.14819 0.50668
 Zr163 Zr 1.00294 0.00345 0.57667
 Zr164 Zr 1.00354 0.00375 0.42528
 O165 O 0.92994 0.00376 0.45620
 O166 O 0.92892 0.00363 0.54565
 O167 O 1.00366 -0.07047 0.45509
 O168 O 1.00280 0.07698 0.54556
 O169 O 1.00339 -0.06992 0.54451
 O170 O 1.00326 0.07785 0.45604
 H171 H 1.10682 0.00359 0.43462
 H172 H 1.00259 0.10674 0.56873
 H173 H 0.90014 0.00385 0.43307
 H174 H 1.00337 -0.09995 0.56707
 H175 H 1.04566 0.16121 0.48021
 H176 H 0.95879 0.16137 0.47721
 H177 H 0.84526 0.04660 0.52158
 H178 H 0.84562 -0.03989 0.52289
 H179 H 0.96064 -0.15398 0.47661
 H180 H 1.04724 -0.15409 0.47740
 H181 H 1.16100 -0.04014 0.52536
 H182 H 1.16067 0.04687 0.52637
 C183 C 1.15246 0.15550 0.21649
 C184 C 1.13874 0.14290 0.25821
 C185 C 1.12024 0.12525 0.30514
 C186 C 1.10245 0.10755 0.34324
 C187 C 0.85219 -0.15056 0.21519
 C188 C 0.86716 -0.13663 0.25626
 C189 C 0.88670 -0.11789 0.30260
 C190 C 0.90494 -0.09970 0.34053
 C191 C 0.84445 0.15067 0.78519
 C192 C 0.85895 0.13703 0.74395
 C193 C 0.87852 0.11884 0.69749
 C194 C 0.89748 0.10147 0.65961
 C195 C 1.15300 -0.15218 0.78561
 C196 C 1.14037 -0.13654 0.74445
 C197 C 1.12301 -0.11606 0.69806
 C198 C 1.10575 -0.09697 0.66019
 C199 C 0.21486 1.15314 1.15308
 C200 C 0.25603 1.13884 1.13899
 C201 C 0.30242 1.11981 1.12008
 C202 C 0.34029 1.10147 1.10204
 C203 C 0.21422 0.84456 0.85037
 C204 C 0.25535 0.85758 0.86579
 C205 C 0.30172 0.87569 0.88568
 C206 C 0.33959 0.89365 0.90412
 C207 C 0.78755 0.84957 1.15371
 C208 C 0.74585 0.86364 1.14069
 C209 C 0.69880 0.88238 1.12282
 C210 C 0.66038 0.90016 1.10513
 C211 C 0.78144 1.14927 0.84780
 C212 C 0.74055 1.13435 0.86155
 C213 C 0.69453 1.11474 0.88019
 C214 C 0.65698 1.09637 0.89838
 C215 C 0.15167 0.21594 0.15123
 C216 C 0.13752 0.25661 0.13568
 C217 C 0.11872 0.30248 0.11536
 C218 C 0.10060 0.34005 0.09650
 C219 C -0.15705 0.21349 -0.15146
 C220 C -0.14371 0.25494 -0.13723
 C221 C -0.12527 0.30166 -0.11849
 C222 C -0.10704 0.33975 -0.10078
 C223 C 0.15014 0.78301 -0.15359
 C224 C 0.13501 0.74176 -0.14116
 C225 C 0.11518 0.69532 -0.12378
 C226 C 0.09661 0.65749 -0.10635
 C227 C -0.14932 0.78648 0.15212
 C228 C -0.13552 0.74512 0.13783
 C229 C -0.11712 0.69845 0.11874
 C230 C -0.09960 0.66030 0.10030
 C231 C 1.15434 0.15200 0.79011
 C232 C 1.14134 0.13801 0.74827
 C233 C 1.12339 0.11930 0.70111
 C234 C 1.10566 0.10148 0.66266
 C235 C 0.84717 -0.14981 0.78228
 C236 C 0.86151 -0.13453 0.74167
 C237 C 0.88072 -0.11461 0.69593
 C238 C 0.89920 -0.09608 0.65855
 C239 C 1.15210 -0.15362 0.21577
 C240 C 1.13814 -0.13890 0.25690
 C241 C 1.11950 -0.11928 0.30327
 C242 C 1.10178 -0.10047 0.34113
 C243 C 0.84921 0.15509 0.21543
 C244 C 0.86495 0.14217 0.25654
 C245 C 0.88536 0.12437 0.30292
 C246 C 0.90423 0.10676 0.34082
 C247 C 0.15289 0.21171 -0.15002
 C248 C 0.13864 0.25320 -0.13625
 C249 C 0.11947 0.29995 -0.11784
 C250 C 0.10098 0.33816 -0.10033
 C251 C -0.15420 0.21634 0.15076
 C252 C -0.14122 0.25730 0.13520
 C253 C -0.12334 0.30346 0.11498
 C254 C -0.10566 0.34113 0.09623
 C255 C -0.15272 0.78546 -0.15647
 C256 C -0.13826 0.74400 -0.14321
 C257 C -0.11908 0.69725 -0.12502
 C258 C -0.10098 0.65913 -0.10710
 C259 C 0.15042 0.78319 0.15248
 C260 C 0.13513 0.74245 0.13808
 C261 C 0.11519 0.69650 0.11884
 C262 C 0.09667 0.65888 0.10037
 C263 C 0.21252 1.15186 0.85146
 C264 C 0.25363 1.13779 0.86649
 C265 C 0.29997 1.11885 0.88614
 C266 C 0.33792 1.10058 0.90442
 C267 C 0.21501 0.84458 1.15259
 C268 C 0.25633 0.85788 1.13824
 C269 C 0.30287 0.87612 1.11918
 C270 C 0.34076 0.89408 1.10113
 C271 C 0.78437 1.15188 1.15379
 C272 C 0.74328 1.13635 1.14067
 C273 C 0.69693 1.11614 1.12268
 C274 C 0.65903 1.09737 1.10500
 C275 C 0.78401 0.84885 0.84506
 C276 C 0.74290 0.86307 0.85955
 C277 C 0.69655 0.88195 0.87896
 C278 C 0.65869 0.89978 0.89765
   
