data_POSCAR
  _audit_creation_date              2014-09-24
  _audit_creation_method            'ToBaCCo'
  _symmetry_space_group_name_H-M    'P1'
  _symmetry_Int_Tables_number       1
  _symmetry_cell_setting            triclinic
  loop_
  _symmetry_equiv_pos_as_xyz
 x,y,z
_cell_length_a 21.9321
_cell_length_b 21.9090
_cell_length_c 21.8920
_cell_angle_alpha 90.024200
_cell_angle_beta 90.171100
_cell_angle_gamma 90.032700
loop_
  _atom_site_label
  _atom_site_type_symbol
  _atom_site_fract_x
  _atom_site_fract_y
  _atom_site_fract_z
N1 N 0.55685 0.12264 0.02676
 N2 N 0.60325 0.15502 0.04769
 N3 N 0.42751 0.11876 -0.03056
 N4 N 0.38093 0.15152 -0.05008
 N5 N 0.42846 0.11680 0.02934
 N6 N 0.38263 0.14838 0.05221
 N7 N 0.55581 0.12347 -0.03318
 N8 N 0.60148 0.15615 -0.05473
 C9 C 0.63093 0.17521 -0.00378
 C10 C 0.35279 0.16904 0.00203
 N11 N 0.43001 -0.03098 -0.12721
 N12 N 0.38585 -0.05247 -0.16228
 N13 N 0.55672 0.03349 -0.12847
 N14 N 0.60062 0.05746 -0.16172
 N15 N 0.55813 -0.02615 -0.13133
 N16 N 0.60564 -0.04424 -0.16932
 N17 N 0.42886 0.02893 -0.12618
 N18 N 0.38435 0.04994 -0.16093
 Mn19 Mn 0.49227 0.07670 -0.08002
 C20 C 0.35748 -0.00137 -0.18232
 C21 C 0.63066 0.00982 -0.18711
 N22 N 0.43511 0.02121 0.11998
 N23 N 0.39304 0.03885 0.15924
 N24 N 0.56659 -0.03206 0.11568
 N25 N 0.60227 -0.05233 0.16010
 N26 N 0.56293 0.02776 0.11742
 N27 N 0.59726 0.04953 0.16632
 N28 N 0.43857 -0.03860 0.11831
 N29 N 0.39884 -0.06324 0.15610
 Mn30 Mn 0.49566 0.07258 0.07378
 C31 C 0.37087 -0.01442 0.18146
 C32 C 0.62050 -0.00188 0.19140
 N33 N 0.56514 -0.12150 -0.04102
 N34 N 0.60957 -0.15468 -0.06443
 N35 N 0.44004 -0.12850 0.02286
 N36 N 0.39529 -0.16180 0.04517
 N37 N 0.43679 -0.12641 -0.03694
 N38 N 0.38937 -0.15797 -0.05686
 N39 N 0.56785 -0.12212 0.01889
 N40 N 0.61404 -0.15569 0.03782
 Mn41 Mn 0.49745 -0.07688 -0.08470
 Mn42 Mn 0.50347 -0.08082 0.06919
 Cl43 Cl 0.49723 -0.00212 -0.00537
 C44 C 0.64033 -0.17498 -0.01464
 C45 C 0.36348 -0.17936 -0.00491
 N46 N 0.11987 0.43539 0.03053
 N47 N 0.15051 0.38872 0.05334
 N48 N 0.11985 0.56317 -0.03149
 N49 N 0.15406 0.60834 -0.05194
 N50 N 0.11820 0.56375 0.02835
 N51 N 0.15172 0.60881 0.05014
 N52 N 0.12172 0.43457 -0.02939
 N53 N 0.15354 0.38747 -0.04899
 C54 C 0.17079 0.35888 0.00305
 C55 C 0.17305 0.63719 -0.00042
 N56 N -0.02917 0.55907 -0.13044
 N57 N -0.04934 0.60764 -0.16014
 N58 N 0.03265 0.43152 -0.12610
 N59 N 0.05609 0.39165 -0.16461
 N60 N -0.02718 0.43051 -0.12887
 N61 N -0.04595 0.38993 -0.16937
 N62 N 0.03051 0.55947 -0.12760
 N63 N 0.05285 0.61122 -0.15648
 Mn64 Mn 0.07667 0.49717 -0.07904
 C65 C 0.00152 0.63992 -0.17542
 C66 C 0.00654 0.36595 -0.19116
 N67 N 0.02129 0.56458 0.11728
 N68 N 0.03970 0.60989 0.15269
 N69 N -0.03582 0.43439 0.11776
 N70 N -0.05721 0.39359 0.15661
 N71 N 0.02399 0.43609 0.12004
 N72 N 0.04490 0.39652 0.16028
 N73 N -0.03854 0.56229 0.11553
 N74 N -0.06247 0.60528 0.15015
 Mn75 Mn 0.07135 0.50001 0.07456
 C76 C -0.01320 0.63512 0.17225
 C77 C -0.00620 0.37037 0.18273
 N78 N -0.12332 0.42973 -0.03899
 N79 N -0.15683 0.38423 -0.06023
 N80 N -0.12729 0.55935 0.01868
 N81 N -0.16007 0.60597 0.03791
 N82 N -0.12544 0.55829 -0.04121
 N83 N -0.15712 0.60402 -0.06433
 N84 N -0.12510 0.43102 0.02094
 N85 N -0.15984 0.38673 0.04208
 Mn86 Mn -0.07686 0.49432 -0.08545
 Mn87 Mn -0.08222 0.49668 0.06858
 Cl88 Cl -0.00276 0.49696 -0.00532
 C89 C -0.17867 0.35733 -0.00894
 C90 C -0.17793 0.63387 -0.01439
 N91 N 0.02591 0.11188 0.42485
 N92 N 0.04661 0.15157 0.38465
 N93 N -0.02873 0.11967 0.55492
 N94 N -0.04725 0.15969 0.59595
 N95 N 0.03103 0.11797 0.55282
 N96 N 0.05483 0.15678 0.59234
 N97 N -0.03393 0.11339 0.42686
 N98 N -0.05542 0.15421 0.38803
 C99 C -0.00464 0.17722 0.36173
 C100 C 0.00543 0.18255 0.61883
 N101 N -0.12449 -0.03005 0.56786
 N102 N -0.15672 -0.04691 0.61585
 N103 N -0.12866 0.02268 0.43527
 N104 N -0.16950 0.04361 0.39639
 N105 N -0.13238 -0.03700 0.43970
 N106 N -0.17667 -0.05794 0.40426
 N107 N -0.12364 0.02960 0.56313
 N108 N -0.15585 0.05469 0.60715
 Mn109 Mn -0.07914 0.07162 0.49493
 C110 C -0.17546 0.00670 0.64068
 C111 C -0.19950 -0.00692 0.37752
 N112 N 0.12136 0.02284 0.55385
 N113 N 0.15618 0.04583 0.59737
 N114 N 0.11468 -0.04313 0.42875
 N115 N 0.15335 -0.06720 0.38945
 N116 N 0.11641 0.01670 0.42596
 N117 N 0.15641 0.03484 0.38484
 N118 N 0.11943 -0.03696 0.55748
 N119 N 0.15231 -0.05630 0.60426
 Mn120 Mn 0.07406 0.06766 0.48931
 C121 C 0.17465 -0.00401 0.62870
 C122 C 0.17894 -0.01802 0.36226
 N123 N -0.04094 -0.13251 0.44006
 N124 N -0.06500 -0.16615 0.39607
 N125 N 0.02514 -0.12795 0.56448
 N126 N 0.04819 -0.16054 0.60950
 N127 N -0.03441 -0.12558 0.56856
 N128 N -0.05324 -0.15585 0.61720
 N129 N 0.01889 -0.13286 0.43657
 N130 N 0.03716 -0.16616 0.38990
 Mn131 Mn -0.08361 -0.08194 0.50415
 Mn132 Mn 0.06997 -0.08576 0.49673
 Cl133 Cl -0.00470 -0.00712 0.49611
 C134 C -0.01565 -0.18644 0.36507
 C135 C -0.00090 -0.17687 0.64299
 C136 C -0.27138 0.31081 0.03384
 C137 C -0.31696 0.26670 0.03567
 C138 C -0.31603 0.21687 -0.00425
 C139 C -0.26590 0.20949 -0.04447
 C140 C -0.21940 0.25472 -0.04656
 C141 C -0.22333 0.30667 -0.00802
 C142 C -0.16935 0.24491 -0.08544
 N143 N -0.16625 0.19334 -0.11953
 N144 N -0.20957 0.15084 -0.11726
 C145 C -0.25918 0.15707 -0.08099
 H146 H -0.27475 0.34962 0.06435
 H147 H -0.35444 0.27270 0.06726
 H148 H -0.13182 0.27668 -0.08804
 H149 H -0.29194 0.12025 -0.08011
 C150 C 0.25491 0.69581 -0.05083
 C151 C 0.30048 0.73995 -0.05230
 C152 C 0.30914 0.78020 -0.00338
 C153 C 0.26761 0.77863 0.04634
 C154 C 0.22153 0.73276 0.04848
 C155 C 0.21633 0.68971 -0.00018
 C156 C 0.18142 0.73314 0.09868
 N157 N 0.18746 0.77562 0.14327
 N158 N 0.22966 0.81907 0.14059
 C159 C 0.26920 0.82260 0.09340
 H160 H 0.25150 0.66448 -0.08899
 H161 H 0.33085 0.74095 -0.09123
 H162 H 0.14409 0.70171 0.10281
 H163 H 0.29995 0.86096 0.09271
 C164 C 0.25595 0.30201 0.04994
 C165 C 0.29990 0.25622 0.04964
 C166 C 0.30010 0.21124 0.00413
 C167 C 0.25184 0.20973 -0.03924
 C168 C 0.20689 0.25649 -0.03891
 C169 C 0.21070 0.30439 0.00475
 C170 C 0.15857 0.25245 -0.08126
 N171 N 0.15615 0.20541 -0.12144
 N172 N 0.19824 0.16169 -0.12177
 C173 C 0.24565 0.16197 -0.08192
 H174 H 0.25911 0.33756 0.08424
 H175 H 0.33577 0.25768 0.08375
 H176 H 0.12165 0.28498 -0.08193
 H177 H 0.27683 0.12389 -0.08313
 C178 C -0.26421 0.69006 0.02962
 C179 C -0.30784 0.73590 0.02954
 C180 C -0.30888 0.78051 -0.01623
 C181 C -0.26243 0.78053 -0.06135
 C182 C -0.21745 0.73363 -0.06112
 C183 C -0.21972 0.68699 -0.01598
 C184 C -0.17050 0.73668 -0.10479
 N185 N -0.16953 0.78260 -0.14625
 N186 N -0.21171 0.82623 -0.14661
 C187 C -0.25774 0.82707 -0.10545
 H188 H -0.26649 0.65549 0.06493
 H189 H -0.34239 0.73528 0.06481
 H190 H -0.13352 0.70430 -0.10569
 H191 H -0.28901 0.86502 -0.10697
 C192 C -0.04779 -0.28411 0.31935
 C193 C -0.04678 -0.32745 0.27279
 C194 C -0.01689 -0.31539 0.21766
 C195 C 0.00910 -0.25714 0.20775
 C196 C 0.00889 -0.21329 0.25543
 C197 C -0.01856 -0.22779 0.31210
 C198 C 0.03444 -0.15553 0.24391
 N199 N 0.05729 -0.14257 0.18790
 N200 N 0.05654 -0.18346 0.14287
 C201 C 0.03343 -0.24032 0.15090
 H202 H -0.06961 -0.29549 0.36221
 H203 H -0.06790 -0.37149 0.28055
 H204 H 0.03514 -0.12011 0.27831
 H205 H 0.03327 -0.27141 0.11252
 C206 C -0.03130 0.22707 0.71536
 C207 C -0.03093 0.27114 0.76117
 C208 C 0.00891 0.32101 0.75851
 C209 C 0.04775 0.32781 0.70710
 C210 C 0.04730 0.28282 0.66026
 C211 C 0.00810 0.23144 0.66533
 C212 C 0.08408 0.29258 0.60847
 N213 N 0.11941 0.34316 0.60462
 N214 N 0.11990 0.38521 0.64845
 C215 C 0.08506 0.37960 0.69914
 H216 H -0.06218 0.18867 0.71946
 H217 H -0.06161 0.26583 0.79953
 H218 H 0.08423 0.26169 0.57013
 H219 H 0.08605 0.41660 0.73157
 C220 C -0.04337 0.22636 0.26806
 C221 C -0.04401 0.27316 0.22503
 C222 C -0.00635 0.32435 0.23197
 C223 C 0.03029 0.33010 0.28526
 C224 C 0.03101 0.28233 0.32904
 C225 C -0.00500 0.22937 0.31917
 C226 C 0.06595 0.29051 0.38258
 N227 N 0.09831 0.34255 0.39097
 N228 N 0.09756 0.38737 0.34999
 C229 C 0.06444 0.38319 0.29781
 H230 H -0.07204 0.18673 0.26064
 H231 H -0.07300 0.26862 0.18512
 H232 H 0.06689 0.25702 0.41869
 H233 H 0.06406 0.42221 0.26778
 C234 C -0.05226 -0.24765 0.71417
 C235 C -0.05260 -0.29184 0.75977
 C236 C 0.00115 -0.30782 0.79109
 C237 C 0.05387 -0.27016 0.78257
 C238 C 0.05460 -0.22594 0.73474
 C239 C 0.00138 -0.21679 0.69821
 C240 C 0.10816 -0.19102 0.72705
 N241 N 0.15634 -0.19856 0.76507
 N242 N 0.15447 -0.23730 0.81162
 C243 C 0.10479 -0.27222 0.82241
 H244 H -0.09410 -0.24002 0.68890
 H245 H -0.09473 -0.31667 0.76693
 H246 H 0.11235 -0.15581 0.69335
 H247 H 0.10510 -0.29859 0.86390
 C248 C 0.27540 0.02410 0.66951
 C249 C 0.31968 0.02457 0.71518
 C250 C 0.30788 -0.00122 0.77240
 C251 C 0.24938 -0.02529 0.78499
 C252 C 0.20387 -0.02462 0.73882
 C253 C 0.21800 -0.00166 0.68010
 C254 C 0.14501 -0.04488 0.75383
 N255 N 0.13324 -0.06567 0.81097
 N256 N 0.17634 -0.06756 0.85393
 C257 C 0.23401 -0.04818 0.84292
 H258 H 0.28646 0.04283 0.62510
 H259 H 0.36404 0.04394 0.70532
 H260 H 0.10813 -0.04373 0.72093
 H261 H 0.26694 -0.04984 0.87976
 C262 C -0.26163 -0.05589 0.29665
 C263 C -0.30667 -0.05517 0.25168
 C264 C -0.34342 -0.00330 0.24201
 C265 C -0.33996 0.04537 0.28579
 C266 C -0.29462 0.04363 0.33263
 C267 C -0.25279 -0.00591 0.33540
 C268 C -0.29503 0.09000 0.37744
 N269 N -0.33693 0.13521 0.37515
 N270 N -0.37980 0.13656 0.33224
 C271 C -0.38351 0.09304 0.28850
 H272 H -0.23173 -0.09515 0.29949
 H273 H -0.30928 -0.09423 0.22136
 H274 H -0.26473 0.08981 0.41620
 H275 H -0.42282 0.09510 0.25913
 C276 C 0.22673 0.01913 0.26760
 C277 C 0.27305 0.02032 0.22430
 C278 C 0.32362 -0.01831 0.22940
 C279 C 0.32843 -0.05791 0.28060
 C280 C 0.28110 -0.05912 0.32490
 C281 C 0.22935 -0.02072 0.31753
 C282 C 0.28897 -0.09661 0.37665
 N283 N 0.33991 -0.13104 0.38278
 N284 N 0.38411 -0.12993 0.34136
 C285 C 0.38044 -0.09430 0.29093
 H286 H 0.18812 0.04944 0.26179
 H287 H 0.26903 0.05138 0.18598
 H288 H 0.25630 -0.09814 0.41324
 H289 H 0.41908 -0.09393 0.26066
 C290 C -0.24781 -0.04232 0.71147
 C291 C -0.29604 -0.04110 0.75218
 C292 C -0.32049 0.01417 0.77452
 C293 C -0.29106 0.07027 0.75627
 C294 C -0.23723 0.06749 0.71958
 C295 C -0.21899 0.01127 0.69276
 C296 C -0.20303 0.12136 0.71141
 N297 N -0.22490 0.17554 0.73101
 N298 N -0.27828 0.17955 0.75910
 C299 C -0.31200 0.12945 0.77223
 H300 H -0.23398 -0.08618 0.69332
 H301 H -0.31546 -0.08490 0.76441
 H302 H -0.15818 0.12119 0.69152
 H303 H -0.35463 0.13848 0.79399
   
