data_POSCAR
  _audit_creation_date              2014-09-24
  _audit_creation_method            'ToBaCCo'
  _symmetry_space_group_name_H-M    'P1'
  _symmetry_Int_Tables_number       1
  _symmetry_cell_setting            triclinic
  loop_
  _symmetry_equiv_pos_as_xyz
 x,y,z
_cell_length_a 37.5949
_cell_length_b 37.9367
_cell_length_c 37.7222
_cell_angle_alpha 90.065800
_cell_angle_beta 90.261800
_cell_angle_gamma 89.721700
loop_
  _atom_site_label
  _atom_site_type_symbol
  _atom_site_fract_x
  _atom_site_fract_y
  _atom_site_fract_z
O1 O 0.22124 1.04386 0.45257
 O2 O 0.24085 0.97253 0.51570
 O3 O 0.24361 1.03998 0.51843
 O4 O 0.21961 0.97362 0.45090
 O5 O 0.27551 0.97185 0.43297
 O6 O 0.29794 1.04172 0.49678
 O7 O 0.29677 0.97249 0.49809
 O8 O 0.27602 1.04046 0.43171
 Cu9 Cu 0.22547 1.00795 0.48576
 Cu10 Cu 0.29211 1.00659 0.46299
 C11 C 0.24535 1.05445 0.43175
 C12 C 0.27231 0.96038 0.51774
 C13 C 0.27491 1.05254 0.51892
 C14 C 0.24392 0.96037 0.43169
 O15 O 0.69881 -0.04056 0.50305
 O16 O 0.72131 0.03010 0.56548
 O17 O 0.69947 0.02892 0.50051
 O18 O 0.72320 -0.03887 0.56688
 O19 O 0.77933 -0.03404 0.55108
 O20 O 0.75391 0.02648 0.47905
 O21 O 0.77539 0.03324 0.54284
 O22 O 0.75459 -0.04289 0.48516
 Cu23 Cu 0.70514 -0.00521 0.53576
 Cu24 Cu 0.77136 -0.00503 0.51226
 C25 C 0.72293 -0.05457 0.48427
 C26 C 0.75162 0.04454 0.56388
 C27 C 0.72285 0.03973 0.47882
 C28 C 0.75575 -0.04718 0.57108
 O29 O 0.29414 0.46637 0.94715
 O30 O 0.30076 0.54111 1.00961
 O31 O 0.29754 0.47465 1.01567
 O32 O 0.30130 0.53399 0.94002
 O33 O 0.24297 0.54100 0.94116
 O34 O 0.23887 0.47625 1.01489
 O35 O 0.24219 0.54475 1.01115
 O36 O 0.23562 0.47233 0.94714
 Cu37 Cu 0.30428 0.50384 0.97769
 Cu38 Cu 0.23400 0.50951 0.97840
 C39 C 0.26348 0.45630 0.93712
 C40 C 0.27247 0.55444 1.02237
 C41 C 0.26794 0.46505 1.02835
 C42 C 0.27311 0.54754 0.92747
 O43 O 0.46606 0.20925 1.01946
 O44 O 0.54675 0.21263 0.96479
 O45 O 0.53532 0.20039 1.03067
 O46 O 0.47882 0.22199 0.95368
 O47 O 0.48708 0.27868 0.96417
 O48 O 0.53766 0.25662 1.04527
 O49 O 0.55421 0.26842 0.98009
 O50 O 0.47062 0.26630 1.03048
 Cu51 Cu 0.50602 0.20532 0.99114
 Cu52 Cu 0.51274 0.27325 1.00619
 C53 C 0.45412 0.23737 1.03337
 C54 C 0.56476 0.24081 0.96417
 C55 C 0.54676 0.22478 1.05083
 C56 C 0.47376 0.25408 0.94554
 O57 O 0.46874 0.73386 -0.04571
 O58 O 0.52141 0.70922 0.03299
 O59 O 0.45395 0.71895 0.01857
 O60 O 0.53635 0.72573 -0.03374
 O61 O 0.54071 0.78146 -0.01789
 O62 O 0.46017 0.77422 0.03619
 O63 O 0.52726 0.76532 0.04734
 O64 O 0.47165 0.78965 -0.02922
 Cu65 Cu 0.49518 0.71615 -0.00837
 Cu66 Cu 0.50071 0.78335 0.01032
 C67 C 0.45987 0.76590 -0.04993
 C68 C 0.53298 0.73297 0.05378
 C69 C 0.44292 0.74557 0.03587
 C70 C 0.55259 0.75502 -0.03491
 O71 O 1.00291 0.47245 0.21360
 O72 O 0.94237 0.54340 0.24254
 O73 O 1.01057 0.53961 0.23118
 O74 O 0.93475 0.47776 0.22800
 O75 O 0.94705 0.46041 0.28264
 O76 O 1.02037 0.52402 0.28663
 O77 O 0.95099 0.52686 0.29801
 O78 O 1.01465 0.45871 0.26933
 Cu79 Cu 0.97202 0.50969 0.22310
 Cu80 Cu 0.98436 0.49130 0.28977
 C81 C 1.01919 0.45367 0.23641
 C82 C 0.93523 0.54623 0.27526
 C83 C 1.02861 0.54224 0.25968
 C84 C 0.92785 0.45892 0.25495
 O85 O -0.01268 0.46550 0.71435
 O86 O 0.05916 0.52854 0.69900
 O87 O 0.05572 0.46114 0.71183
 O88 O -0.01113 0.53158 0.70268
 O89 O -0.00692 0.54375 0.75969
 O90 O 0.05641 0.46998 0.76975
 O91 O 0.06326 0.53872 0.75646
 O92 O -0.01135 0.47788 0.77173
 Cu93 Cu 0.02293 0.49606 0.70109
 Cu94 Cu 0.02647 0.50909 0.77019
 C95 C -0.02474 0.46165 0.74544
 C96 C 0.07386 0.54404 0.72499
 C97 C 0.06608 0.45253 0.74267
 C98 C -0.02176 0.54861 0.72974
 O99 O 0.43162 0.97440 0.26743
 O100 O 0.51050 1.03089 0.28189
 O101 O 0.44380 1.04204 0.26408
 O102 O 0.49622 0.96314 0.28841
 O103 O 0.51281 0.95642 0.23270
 O104 O 0.45694 1.03263 0.20796
 O105 O 0.52496 1.02358 0.22564
 O106 O 0.44787 0.96667 0.21167
 Cu107 Cu 0.46929 1.00359 0.28114
 Cu108 Cu 0.48764 0.99450 0.21398
 C109 C 0.42636 0.96119 0.23683
 C110 C 0.53126 1.03643 0.25602
 C111 C 0.43974 1.04959 0.23151
 C112 C 0.51302 0.94612 0.26474
 O113 O 1.04135 0.20636 0.51999
 O114 O 0.96028 0.22505 0.46836
 O115 O 1.02617 0.21284 0.45201
 O116 O 0.97613 0.21551 0.53450
 O117 O 0.98569 0.27274 0.53986
 O118 O 1.03718 0.26978 0.45584
 O119 O 0.97031 0.28213 0.47347
 O120 O 1.05235 0.26333 0.52422
 Cu121 Cu 1.00020 0.20929 0.49283
 Cu122 Cu 1.01268 0.27779 0.49843
 C123 C 1.05974 0.23163 0.53230
 C124 C 0.95104 0.25683 0.46277
 C125 C 1.03984 0.24056 0.43939
 C126 C 0.97274 0.24410 0.55158
 O127 O -0.02955 0.73293 0.53592
 O128 O 0.02760 0.74298 0.45817
 O129 O 0.03761 0.74210 0.52669
 O130 O -0.04083 0.73623 0.46713
 O131 O -0.04620 0.79427 0.46901
 O132 O 0.02880 0.79965 0.53028
 O133 O 0.02090 0.80081 0.46103
 O134 O -0.03828 0.79062 0.53769
 Cu135 Cu -0.00070 0.73267 0.49655
 Cu136 Cu -0.00934 0.80215 0.49975
 C137 C -0.04287 0.76005 0.55045
 C138 C 0.03367 0.77354 0.44609
 C139 C 0.04548 0.77203 0.53963
 C140 C -0.05603 0.76461 0.45722
 O141 O 0.79283 0.46835 1.06248
 O142 O 0.78266 0.53205 0.98891
 O143 O 0.78051 0.53705 1.05774
 O144 O 0.79825 0.46588 0.99512
 O145 O 0.74099 0.45337 0.99215
 O146 O 0.72296 0.52559 1.05612
 O147 O 0.72540 0.51952 0.98645
 O148 O 0.73521 0.45755 1.06049
 Cu149 Cu 0.79421 0.50235 1.02673
 Cu150 Cu 0.72527 0.48814 1.02380
 C151 C 0.76590 0.45117 1.07307
 C152 C 0.75225 0.53569 0.97444
 C153 C 0.74898 0.54385 1.06732
 C154 C 0.77301 0.44728 0.98306
 O155 O 0.49151 1.03204 0.79370
 O156 O 0.55550 0.95972 0.78301
 O157 O 0.56146 1.02612 0.79727
 O158 O 0.48706 0.96590 0.78065
 O159 O 0.48708 0.98141 0.72412
 O160 O 0.56601 1.03639 0.73987
 O161 O 0.55545 0.96927 0.72519
 O162 O 0.49785 1.04708 0.73765
 Cu163 Cu 0.52384 0.99506 0.79454
 Cu164 Cu 0.52729 1.00966 0.72587
 C165 C 0.48320 1.05163 0.76759
 C166 C 0.56539 0.95150 0.75201
 C167 C 0.57687 1.04095 0.77144
 C168 C 0.47372 0.96438 0.74975
 C169 C 0.23017 0.22630 0.24591
 C170 C 0.20190 0.25110 0.24369
 C171 C 0.20270 0.27810 0.21804
 C172 C 0.23190 0.28027 0.19491
 C173 C 0.25633 0.25193 0.19291
 C174 C 0.25569 0.22456 0.21849
 C175 C 0.70592 0.75847 0.31233
 C176 C 0.73663 0.73702 0.31070
 C177 C 0.73872 0.70923 0.28595
 C178 C 0.71238 0.70599 0.25954
 C179 C 0.68153 0.72740 0.26089
 C180 C 0.67802 0.75333 0.28761
 C181 C 0.77951 0.22243 0.74328
 C182 C 0.80523 0.24945 0.74236
 C183 C 0.80548 0.27567 0.76870
 C184 C 0.78370 0.27219 0.79885
 C185 C 0.75982 0.24368 0.80137
 C186 C 0.75758 0.21875 0.77344
 C187 C 0.26922 0.78504 0.70128
 C188 C 0.29157 0.78884 0.73118
 C189 C 0.29194 0.76250 0.75775
 C190 C 0.27170 0.73150 0.75273
 C191 C 0.24710 0.72954 0.72436
 C192 C 0.24430 0.75763 0.70013
 C193 C 0.24690 0.24400 0.70641
 C194 C 0.27826 0.22309 0.70574
 C195 C 0.30401 0.22720 0.73281
 C196 C 0.30118 0.25533 0.75717
 C197 C 0.27008 0.27611 0.75796
 C198 C 0.24269 0.27009 0.73285
 C199 C 0.79323 0.74171 0.74341
 C200 C 0.76878 0.77014 0.74527
 C201 C 0.74037 0.76808 0.76953
 C202 C 0.73934 0.74073 0.79487
 C203 C 0.76209 0.71121 0.79118
 C204 C 0.78799 0.71110 0.76422
 C205 C 0.19798 0.75232 0.25414
 C206 C 0.22297 0.78004 0.25357
 C207 C 0.24742 0.78221 0.22536
 C208 C 0.24957 0.75411 0.20072
 C209 C 0.22983 0.72288 0.20655
 C210 C 0.20284 0.72245 0.23235
 C211 C 0.75135 0.25353 0.30462
 C212 C 0.75337 0.27569 0.27456
 C213 C 0.73553 0.26630 0.24275
 C214 C 0.71366 0.23611 0.24168
 C215 C 0.71075 0.21466 0.27220
 C216 C 0.72955 0.22327 0.30353
 C217 C 0.23466 0.11383 0.35266
 C218 C 0.23633 0.14604 0.36936
 C219 C 0.23843 0.14977 0.40596
 C220 C 0.23948 0.11893 0.42628
 C221 C 0.23904 0.08548 0.40970
 C222 C 0.23645 0.08271 0.37241
 O223 O 0.23257 0.11642 0.31755
 C224 C 0.23328 0.15102 0.31206
 C225 C 0.23603 0.17013 0.34298
 C226 C 0.23893 0.20655 0.34369
 C227 C 0.23843 0.22415 0.31119
 C228 C 0.23403 0.20540 0.27892
 C229 C 0.23164 0.16818 0.27927
 H230 H 0.23967 0.17547 0.41838
 H231 H 0.24198 0.12100 0.45484
 H232 H 0.23654 0.05729 0.35932
 H233 H 0.24172 0.22087 0.36837
 H234 H 0.24079 0.25259 0.31104
 H235 H 0.22834 0.15329 0.25499
 C236 C 0.72173 0.87716 0.41100
 C237 C 0.69575 0.85507 0.42353
 C238 C 0.67765 0.86124 0.45495
 C239 C 0.68666 0.89145 0.47433
 C240 C 0.71381 0.91442 0.46245
 C241 C 0.73173 0.90706 0.43032
 O242 O 0.73520 0.86656 0.38023
 C243 C 0.71747 0.83705 0.37343
 C244 C 0.69325 0.82878 0.39930
 C245 C 0.67265 0.79847 0.39828
 C246 C 0.67732 0.77561 0.36946
 C247 C 0.70156 0.78379 0.34206
 C248 C 0.72180 0.81512 0.34395
 H249 H 0.65723 0.84349 0.46417
 H250 H 0.67289 0.89664 0.49896
 H251 H 0.75242 0.92422 0.42055
 H252 H 0.65411 0.79234 0.41922
 H253 H 0.66226 0.75138 0.36848
 H254 H 0.74040 0.82200 0.32333
 C255 C 0.76766 0.10686 0.63993
 C256 C 0.76350 0.13851 0.62258
 C257 C 0.75722 0.14098 0.58632
 C258 C 0.75470 0.10946 0.56712
 C259 C 0.75800 0.07656 0.58448
 C260 C 0.76466 0.07508 0.62137
 O261 O 0.77351 0.11060 0.67452
 C262 C 0.77273 0.14536 0.67907
 C263 C 0.76637 0.16349 0.64809
 C264 C 0.76311 0.19990 0.64669
 C265 C 0.76671 0.21851 0.67852
 C266 C 0.77416 0.20072 0.71081
 C267 C 0.77735 0.16350 0.71105
 H268 H 0.75407 0.16625 0.57334
 H269 H 0.74924 0.11054 0.53891
 H270 H 0.76692 0.05010 0.63508
 H271 H 0.75766 0.21348 0.62203
 H272 H 0.76398 0.24694 0.67810
 H273 H 0.78332 0.14925 0.73522
 C274 C 0.26281 0.89343 0.59094
 C275 C 0.29422 0.87506 0.58750
 C276 C 0.31985 0.88368 0.56255
 C277 C 0.31268 0.91227 0.54000
 C278 C 0.28024 0.93138 0.54267
 C279 C 0.25503 0.92175 0.56868
 O280 O 0.24233 0.88137 0.61677
 C281 C 0.26118 0.85470 0.62984
 C282 C 0.29308 0.84968 0.61276
 C283 C 0.31718 0.82347 0.62233
 C284 C 0.30816 0.80176 0.65091
 C285 C 0.27569 0.80671 0.66928
 C286 C 0.25174 0.83350 0.65847
 H287 H 0.34446 0.86891 0.56049
 H288 H 0.33219 0.91916 0.52017
 H289 H 0.23009 0.93583 0.57155
 H290 H 0.34217 0.82010 0.60857
 H291 H 0.32672 0.78147 0.65931
 H292 H 0.22727 0.83851 0.67259
 C293 C 0.38271 0.24523 0.10260
 C294 C 0.35304 0.23932 0.08195
 C295 C 0.35489 0.23147 0.04599
 C296 C 0.38873 0.22992 0.03058
 C297 C 0.41956 0.23688 0.05106
 C298 C 0.41661 0.24470 0.08757
 O299 O 0.37503 0.25122 0.13643
 C300 C 0.33976 0.24929 0.13706
 C301 C 0.32506 0.24247 0.10429
 C302 C 0.28860 0.24012 0.09859
 C303 C 0.26636 0.24449 0.12798
 C304 C 0.28088 0.25024 0.16222
 C305 C 0.31812 0.25298 0.16684
 H306 H 0.33117 0.22664 0.03039
 H307 H 0.39098 0.22411 0.00254
 H308 H 0.43992 0.25001 0.10364
 H309 H 0.27769 0.23503 0.07249
 H310 H 0.23784 0.24243 0.12439
 H311 H 0.32968 0.25755 0.19277
 C312 C 0.40013 0.75952 0.86988
 C313 C 0.37814 0.78803 0.87554
 C314 C 0.38318 0.81167 0.90329
 C315 C 0.41158 0.80518 0.92668
 C316 C 0.43381 0.77516 0.92225
 C317 C 0.42819 0.75228 0.89309
 O318 O 0.39084 0.74046 0.84182
 C319 C 0.36215 0.75712 0.82970
 C320 C 0.35307 0.78619 0.84962
 C321 C 0.32339 0.80693 0.84228
 C322 C 0.30257 0.79768 0.81282
 C323 C 0.31209 0.76861 0.79110
 C324 C 0.34221 0.74787 0.79985
 H325 H 0.36556 0.83399 0.90710
 H326 H 0.41531 0.82269 0.94907
 H327 H 0.44461 0.72910 0.88909
 H328 H 0.31658 0.82947 0.85854
 H329 H 0.27953 0.81367 0.80623
 H330 H 0.35045 0.72596 0.78340
 C331 C 0.59237 0.73854 0.13422
 C332 C 0.58604 0.70640 0.14973
 C333 C 0.56390 0.68124 0.13451
 C334 C 0.54723 0.68978 0.10221
 C335 C 0.55263 0.72316 0.08623
 C336 C 0.57571 0.74776 0.10250
 O337 O 0.61506 0.75832 0.15240
 C338 C 0.62308 0.73833 0.18015
 C339 C 0.60582 0.70641 0.17996
 C340 C 0.61044 0.68142 0.20654
 C341 C 0.63422 0.68949 0.23412
 C342 C 0.65303 0.72178 0.23426
 C343 C 0.64718 0.74666 0.20703
 H344 H 0.55955 0.65599 0.14706
 H345 H 0.52949 0.67079 0.09013
 H346 H 0.58056 0.77334 0.09082
 H347 H 0.59658 0.65649 0.20586
 H348 H 0.63888 0.67026 0.25484
 H349 H 0.66188 0.77109 0.20615
 C350 C 0.63556 0.24189 0.89418
 C351 C 0.66551 0.23795 0.91499
 C352 C 0.66415 0.23563 0.95176
 C353 C 0.63052 0.23725 0.96768
 C354 C 0.59938 0.24075 0.94669
 C355 C 0.60182 0.24306 0.90946
 O356 O 0.64277 0.24432 0.85987
 C357 C 0.67799 0.24175 0.85900
 C358 C 0.69318 0.23757 0.89199
 C359 C 0.72969 0.23402 0.89713
 C360 C 0.75144 0.23516 0.86703
 C361 C 0.73644 0.24048 0.83287
 C362 C 0.69915 0.24347 0.82883
 H363 H 0.68807 0.23275 0.96758
 H364 H 0.62858 0.23534 0.99626
 H365 H 0.57825 0.24576 0.89304
 H366 H 0.74100 0.23051 0.92333
 H367 H 0.77995 0.23236 0.87023
 H368 H 0.68713 0.24750 0.80300
 C369 C 0.09628 0.39003 0.23382
 C370 C 0.08702 0.36973 0.20501
 C371 C 0.05678 0.37635 0.18461
 C372 C 0.03503 0.40488 0.19451
 C373 C 0.04345 0.42543 0.22479
 C374 C 0.07460 0.41792 0.24462
 O375 O 0.12633 0.37965 0.24932
 C376 C 0.13613 0.35199 0.23007
 C377 C 0.11276 0.34458 0.20288
 C378 C 0.11702 0.31581 0.18042
 C379 C 0.14666 0.29391 0.18614
 C380 C 0.17168 0.30173 0.21319
 C381 C 0.16635 0.33114 0.23554
 H382 H 0.05015 0.36010 0.16194
 H383 H 0.01117 0.41038 0.17927
 H384 H 0.08172 0.43335 0.26774
 H385 H 0.09801 0.31017 0.15957
 H386 H 0.15049 0.27107 0.16931
 H387 H 0.18499 0.33734 0.25657
 C388 C 0.91616 0.38314 0.75698
 C389 C 0.88336 0.39932 0.75486
 C390 C 0.87909 0.43554 0.75098
 C391 C 0.90996 0.45594 0.74884
 C392 C 0.94392 0.43980 0.75047
 C393 C 0.94724 0.40297 0.75469
 O394 O 0.91417 0.34839 0.76064
 C395 C 0.87938 0.34254 0.76069
 C396 C 0.85945 0.37287 0.75705
 C397 C 0.82253 0.37299 0.75596
 C398 C 0.80538 0.34050 0.75900
 C399 C 0.82522 0.30891 0.76329
 C400 C 0.86281 0.30989 0.76413
 H401 H 0.85297 0.44758 0.74937
 H402 H 0.90754 0.48420 0.74529
 H403 H 0.97309 0.39026 0.75568
 H404 H 0.80750 0.39721 0.75296
 H405 H 0.77658 0.33982 0.75848
 H406 H 0.87846 0.28614 0.76780
 C407 C 0.14070 0.61767 0.73420
 C408 C 0.16028 0.61252 0.70390
 C409 C 0.15302 0.58586 0.67969
 C410 C 0.12435 0.56356 0.68696
 C411 C 0.10389 0.56798 0.71821
 C412 C 0.11239 0.59538 0.74229
 O413 O 0.15133 0.64537 0.75299
 C414 C 0.17826 0.65785 0.73416
 C415 C 0.18491 0.63851 0.70401
 C416 C 0.21175 0.64690 0.68029
 C417 C 0.23248 0.67659 0.68785
 C418 C 0.22568 0.69738 0.71831
 C419 C 0.19832 0.68779 0.74196
 H420 H 0.16866 0.58255 0.65589
 H421 H 0.11826 0.54266 0.66834
 H422 H 0.09704 0.59963 0.76615
 H423 H 0.21650 0.63122 0.65678
 H424 H 0.25364 0.68372 0.66988
 H425 H 0.19254 0.70347 0.76524
 C426 C 0.86418 0.61708 0.27370
 C427 C 0.84720 0.60997 0.30507
 C428 C 0.85910 0.58445 0.32879
 C429 C 0.88937 0.56485 0.31948
 C430 C 0.90672 0.57065 0.28667
 C431 C 0.89410 0.59755 0.26368
 O432 O 0.84830 0.64235 0.25492
 C433 C 0.82050 0.65113 0.27477
 C434 C 0.81853 0.63179 0.30555
 C435 C 0.79087 0.63540 0.32955
 C436 C 0.76435 0.66027 0.32176
 C437 C 0.76628 0.68147 0.29091
 C438 C 0.79473 0.67673 0.26689
 H439 H 0.84522 0.57941 0.35333
 H440 H 0.89840 0.54420 0.33721
 H441 H 0.90659 0.60249 0.23837
 H442 H 0.78962 0.61949 0.35330
 H443 H 0.74245 0.66354 0.34005
 H444 H 0.79693 0.69266 0.24324
 C445 C 0.14003 0.24091 0.59247
 C446 C 0.13417 0.21315 0.61509
 C447 C 0.10654 0.18939 0.61045
 C448 C 0.08350 0.19478 0.58166
 C449 C 0.08789 0.22403 0.55867
 C450 C 0.11683 0.24730 0.56403
 O451 O 0.16799 0.26026 0.60183
 C452 C 0.17973 0.24449 0.63114
 C453 C 0.15954 0.21586 0.64057
 C454 C 0.16542 0.19679 0.67148
 C455 C 0.19374 0.20721 0.69326
 C456 C 0.21636 0.23514 0.68310
 C457 C 0.20889 0.25461 0.65196
 H458 H 0.10257 0.16774 0.62864
 H459 H 0.06124 0.17707 0.57827
 H460 H 0.12067 0.26998 0.54710
 H461 H 0.14851 0.17500 0.67881
 H462 H 0.19863 0.19312 0.71778
 H463 H 0.22516 0.27682 0.64439
 C464 C 0.88604 0.75305 0.61971
 C465 C 0.90695 0.74903 0.64951
 C466 C 0.94388 0.74821 0.64844
 C467 C 0.95996 0.75168 0.61522
 C468 C 0.93899 0.75621 0.58429
 C469 C 0.90154 0.75700 0.58639
 O470 O 0.85146 0.75283 0.62668
 C471 C 0.85060 0.74872 0.66162
 C472 C 0.88388 0.74643 0.67681
 C473 C 0.88930 0.74277 0.71307
 C474 C 0.85914 0.74155 0.73464
 C475 C 0.82454 0.74343 0.71963
 C476 C 0.82020 0.74690 0.68254
 H477 H 0.95971 0.74494 0.67226
 H478 H 0.98873 0.75112 0.61350
 H479 H 0.88517 0.76036 0.56293
 H480 H 0.91578 0.74126 0.72436
 H481 H 0.86257 0.73925 0.76306
 H482 H 0.79402 0.74833 0.67052
 C483 C 0.09884 0.75551 0.37280
 C484 C 0.08933 0.78150 0.34914
 C485 C 0.06326 0.80659 0.35633
 C486 C 0.04584 0.80443 0.38906
 C487 C 0.05442 0.77720 0.41341
 C488 C 0.08139 0.75245 0.40515
 O489 O 0.12551 0.73543 0.36155
 C490 C 0.13282 0.74888 0.32997
 C491 C 0.11117 0.77687 0.32101
 C492 C 0.11464 0.79538 0.28949
 C493 C 0.14207 0.78512 0.26664
 C494 C 0.16551 0.75715 0.27581
 C495 C 0.16055 0.73851 0.30782
 H496 H 0.05660 0.82709 0.33747
 H497 H 0.02503 0.82334 0.39504
 H498 H 0.08862 0.73157 0.42341
 H499 H 0.09741 0.81744 0.28311
 H500 H 0.14616 0.79990 0.24245
 H501 H 0.17897 0.71826 0.31638
 C502 C 0.87194 0.24710 0.40196
 C503 C 0.85340 0.27761 0.40926
 C504 C 0.86573 0.30272 0.43322
 C505 C 0.89830 0.29594 0.45045
 C506 C 0.91744 0.26427 0.44382
 C507 C 0.90390 0.23954 0.41923
 O508 O 0.85670 0.22746 0.37717
 C509 C 0.82779 0.24579 0.36874
 C510 C 0.82423 0.27657 0.38775
 C511 C 0.79599 0.29992 0.38248
 C512 C 0.77076 0.29137 0.35622
 C513 C 0.77464 0.26025 0.33570
 C514 C 0.80344 0.23714 0.34231
 H515 H 0.85097 0.32676 0.43825
 H516 H 0.90836 0.31505 0.46928
 H517 H 0.91813 0.21538 0.41327
 H518 H 0.79376 0.32408 0.39761
 H519 H 0.74893 0.30938 0.35100
 H520 H 0.80767 0.21388 0.32620
 C521 C 0.27374 0.39016 0.86306
 C522 C 0.24972 0.36514 0.87386
 C523 C 0.22974 0.36844 0.90458
 C524 C 0.23457 0.39890 0.92502
 C525 C 0.25959 0.42478 0.91489
 C526 C 0.27971 0.42029 0.88360
 O527 O 0.28901 0.38227 0.83231
 C528 C 0.27443 0.35155 0.82371
 C529 C 0.25050 0.33986 0.84851
 C530 C 0.23275 0.30797 0.84550
 C531 C 0.23988 0.28725 0.81563
 C532 C 0.26344 0.29917 0.78905
 C533 C 0.28119 0.33171 0.79320
 H534 H 0.21080 0.34851 0.91229
 H535 H 0.21910 0.40224 0.94896
 H536 H 0.29864 0.43997 0.87518
 H537 H 0.21446 0.29914 0.86567
 H538 H 0.22716 0.26183 0.81313
 H539 H 0.29967 0.34106 0.77344
 C540 C 0.74513 0.37993 0.13939
 C541 C 0.77632 0.36086 0.13866
 C542 C 0.80589 0.37152 0.11946
 C543 C 0.80281 0.40256 0.09937
 C544 C 0.77040 0.42189 0.09849
 C545 C 0.74131 0.41053 0.11920
 O546 O 0.72068 0.36596 0.16034
 C547 C 0.73664 0.33724 0.17285
 C548 C 0.77059 0.33270 0.16010
 C549 C 0.79223 0.30455 0.17007
 C550 C 0.77875 0.28080 0.19507
 C551 C 0.74449 0.28586 0.20987
 C552 C 0.72289 0.31416 0.19805
 H553 H 0.83031 0.35630 0.11963
 H554 H 0.82517 0.41073 0.08340
 H555 H 0.71626 0.42474 0.11913
 H556 H 0.81890 0.30157 0.15978
 H557 H 0.79573 0.25968 0.20463
 H558 H 0.69741 0.31970 0.21008
 C559 C 0.76402 0.60780 0.90632
 C560 C 0.73984 0.59712 0.88106
 C561 C 0.71868 0.56748 0.88507
 C562 C 0.72268 0.54790 0.91635
 C563 C 0.74796 0.55780 0.94254
 C564 C 0.76904 0.58819 0.93735
 O565 O 0.78052 0.63748 0.89774
 C566 C 0.76657 0.64554 0.86632
 C567 C 0.74181 0.62145 0.85481
 C568 C 0.72411 0.62446 0.82249
 C569 C 0.73197 0.65372 0.80130
 C570 C 0.75647 0.67947 0.81309
 C571 C 0.77430 0.67524 0.84590
 H572 H 0.69962 0.55981 0.86494
 H573 H 0.70653 0.52461 0.91990
 H574 H 0.78832 0.59651 0.95703
 H575 H 0.70488 0.60505 0.81395
 H576 H 0.71840 0.65693 0.77611
 H577 H 0.79316 0.69465 0.85526
 C578 C 0.24621 0.61939 0.09360
 C579 C 0.27677 0.61965 0.11375
 C580 C 0.30744 0.60150 0.10409
 C581 C 0.30629 0.58143 0.07285
 C582 C 0.27467 0.57964 0.05219
 C583 C 0.24434 0.59934 0.06262
 O584 O 0.22046 0.63949 0.10688
 C585 C 0.23505 0.65254 0.13619
 C586 C 0.26937 0.64091 0.14172
 C587 C 0.28996 0.65172 0.17036
 C588 C 0.27506 0.67655 0.19352
 C589 C 0.24045 0.69034 0.18738
 C590 C 0.21971 0.67738 0.15890
 H591 H 0.33131 0.60249 0.12021
 H592 H 0.32964 0.56635 0.06547
 H593 H 0.21984 0.59860 0.04744
 H594 H 0.31693 0.64226 0.17409
 H595 H 0.29119 0.68677 0.21503
 H596 H 0.19365 0.68824 0.15312
 C597 C 0.42080 0.12516 0.74794
 C598 C 0.39704 0.12061 0.77508
 C599 C 0.40208 0.09620 0.80204
 C600 C 0.43248 0.07480 0.80051
 C601 C 0.45628 0.07700 0.77138
 C602 C 0.45046 0.10311 0.74498
 O603 O 0.41146 0.15083 0.72575
 C604 C 0.38078 0.16227 0.73893
 C605 C 0.37053 0.14401 0.76867
 C606 C 0.33831 0.14973 0.78553
 C607 C 0.31603 0.17592 0.77162
 C608 C 0.32698 0.19690 0.74261
 C609 C 0.35971 0.18979 0.72567
 H610 H 0.38316 0.09358 0.82341
 H611 H 0.43622 0.05518 0.82106
 H612 H 0.46817 0.10594 0.72261
 H613 H 0.33047 0.13438 0.80833
 H614 H 0.29066 0.18089 0.78423
 H615 H 0.36872 0.20540 0.70353
 C616 C 0.35550 0.89160 0.24310
 C617 C 0.33701 0.89808 0.21218
 C618 C 0.34592 0.92499 0.18894
 C619 C 0.37531 0.94587 0.19775
 C620 C 0.39460 0.93994 0.22959
 C621 C 0.38430 0.91269 0.25286
 O622 O 0.34378 0.86351 0.26040
 C623 C 0.31729 0.85217 0.24002
 C624 C 0.31191 0.87259 0.21034
 C625 C 0.28582 0.86533 0.18516
 C626 C 0.26435 0.83578 0.19081
 C627 C 0.26975 0.81397 0.22085
 C628 C 0.29666 0.82227 0.24580
 H629 H 0.33125 0.92926 0.16456
 H630 H 0.38316 0.96666 0.17978
 H631 H 0.39910 0.90727 0.27696
 H632 H 0.28217 0.88179 0.16200
 H633 H 0.24374 0.82956 0.17169
 H634 H 0.30149 0.80578 0.26875
 C635 C 0.59522 0.11140 0.26993
 C636 C 0.62702 0.09386 0.26536
 C637 C 0.62913 0.05786 0.25872
 C638 C 0.59712 0.03918 0.25633
 C639 C 0.56408 0.05656 0.26119
 C640 C 0.56302 0.09312 0.26844
 O641 O 0.59916 0.14595 0.27420
 C642 C 0.63417 0.15024 0.27235
 C643 C 0.65239 0.11911 0.26719
 C644 C 0.68917 0.11742 0.26394
 C645 C 0.70800 0.14913 0.26604
 C646 C 0.68986 0.18159 0.27087
 C647 C 0.65242 0.18222 0.27419
 H648 H 0.65445 0.04478 0.25475
 H649 H 0.59794 0.01123 0.25045
 H650 H 0.53797 0.10697 0.27147
 H651 H 0.70285 0.09260 0.25977
 H652 H 0.73668 0.14865 0.26344
 H653 H 0.63813 0.20679 0.27785
 C654 C 0.63993 0.88619 0.76206
 C655 C 0.62551 0.85772 0.74466
 C656 C 0.59279 0.85905 0.72731
 C657 C 0.57384 0.89096 0.72846
 C658 C 0.58760 0.92016 0.74735
 C659 C 0.62112 0.91787 0.76429
 O660 O 0.67170 0.87950 0.77614
 C661 C 0.67731 0.84596 0.76770
 C662 C 0.64957 0.83135 0.74887
 C663 C 0.64913 0.79628 0.73831
 C664 C 0.67884 0.77557 0.74688
 C665 C 0.70842 0.79041 0.76479
 C666 C 0.70760 0.82601 0.77577
 H667 H 0.58215 0.83631 0.71363
 H668 H 0.54796 0.89262 0.71582
 H669 H 0.63191 0.93993 0.77900
 H670 H 0.62680 0.78531 0.72393
 H671 H 0.67949 0.74824 0.73855
 H672 H 0.72991 0.83772 0.78958
 C673 C 0.75180 0.88224 0.63898
 C674 C 0.78563 0.88417 0.65280
 C675 C 0.81108 0.90719 0.63978
 C676 C 0.80116 0.92928 0.61151
 C677 C 0.76573 0.92933 0.59808
 C678 C 0.74069 0.90542 0.61238
 O679 O 0.73262 0.85658 0.65310
 C680 C 0.75464 0.84242 0.67680
 C681 C 0.78711 0.85887 0.67827
 C682 C 0.81359 0.84917 0.70222
 C683 C 0.80637 0.82119 0.72538
 C684 C 0.77393 0.80226 0.72292
 C685 C 0.74776 0.81319 0.69806
 H686 H 0.83782 0.90765 0.65051
 H687 H 0.82082 0.94720 0.60100
 H688 H 0.71373 0.90395 0.60226
 H689 H 0.83875 0.86288 0.70332
 H690 H 0.82643 0.81353 0.74460
 H691 H 0.72312 0.79901 0.69471
 C692 C 0.24063 0.39794 0.09442
 C693 C 0.27059 0.39735 0.11543
 C694 C 0.30025 0.41784 0.10880
 C695 C 0.29909 0.43997 0.07919
 C696 C 0.26800 0.44238 0.05762
 C697 C 0.23805 0.42130 0.06583
 O698 O 0.21706 0.37352 0.10340
 C699 C 0.23244 0.35756 0.13089
 C700 C 0.26493 0.37172 0.13961
 C701 C 0.28606 0.35901 0.16704
 C702 C 0.27341 0.33013 0.18608
 C703 C 0.24084 0.31378 0.17671
 C704 C 0.21988 0.32787 0.14877
 H705 H 0.32386 0.41612 0.12524
 H706 H 0.32232 0.45577 0.07360
 H707 H 0.21432 0.42165 0.04944
 H708 H 0.31155 0.37066 0.17330
 H709 H 0.28962 0.31951 0.20739
 H710 H 0.19566 0.31529 0.14005
 C711 C 0.27166 0.11244 0.59691
 C712 C 0.30078 0.13314 0.59030
 C713 C 0.32313 0.12752 0.56158
 C714 C 0.31497 0.09959 0.53851
 C715 C 0.28398 0.07881 0.54360
 C716 C 0.26210 0.08553 0.57348
 O717 O 0.25455 0.12153 0.62629
 C718 C 0.27295 0.14894 0.63816
 C719 C 0.30114 0.15749 0.61677
 C720 C 0.32258 0.18662 0.62303
 C721 C 0.31434 0.20796 0.65231
 C722 C 0.28602 0.19922 0.67535
 C723 C 0.26556 0.16873 0.66851
 H724 H 0.34613 0.14395 0.55715
 H725 H 0.33219 0.09509 0.51600
 H726 H 0.23857 0.07005 0.57868
 H727 H 0.34423 0.19322 0.60548
 H728 H 0.32992 0.23145 0.65708
 H729 H 0.24458 0.16058 0.68608
 C730 C 0.22841 0.89770 0.35551
 C731 C 0.23203 0.86626 0.37334
 C732 C 0.23728 0.86413 0.40976
 C733 C 0.23942 0.89580 0.42867
 C734 C 0.23675 0.92856 0.41096
 C735 C 0.23099 0.92973 0.37387
 O736 O 0.22398 0.89346 0.32072
 C737 C 0.22516 0.85862 0.31662
 C738 C 0.23041 0.84099 0.34808
 C739 C 0.23449 0.80471 0.35016
 C740 C 0.23282 0.78563 0.31853
 C741 C 0.22616 0.80271 0.28570
 C742 C 0.22230 0.83990 0.28467
 H743 H 0.24014 0.83901 0.42305
 H744 H 0.24432 0.89492 0.45699
 H745 H 0.22947 0.95458 0.35984
 H746 H 0.23931 0.79160 0.37521
 H747 H 0.23648 0.75731 0.31950
 H748 H 0.21741 0.85363 0.25998
 C749 C 0.73167 0.10803 0.40652
 C750 C 0.70302 0.12945 0.41387
 C751 C 0.67874 0.12185 0.44048
 C752 C 0.68463 0.09133 0.46081
 C753 C 0.71459 0.06928 0.45445
 C754 C 0.73819 0.07773 0.42655
 O755 O 0.75135 0.11971 0.37989
 C756 C 0.73491 0.14929 0.37035
 C757 C 0.70531 0.15660 0.39045
 C758 C 0.68423 0.18637 0.38499
 C759 C 0.69371 0.20918 0.35732
 C760 C 0.72364 0.20178 0.33583
 C761 C 0.74462 0.17146 0.34255
 H762 H 0.65629 0.13902 0.44569
 H763 H 0.66647 0.08551 0.48219
 H764 H 0.76134 0.06160 0.42099
 H765 H 0.66103 0.19158 0.40109
 H766 H 0.67719 0.23200 0.35179
 H767 H 0.76697 0.16472 0.32585
 C768 C 0.62483 0.73756 0.90020
 C769 C 0.64600 0.76634 0.90645
 C770 C 0.63754 0.79229 0.93102
 C771 C 0.60593 0.78844 0.95012
 C772 C 0.58388 0.75841 0.94520
 C773 C 0.59387 0.73243 0.91990
 O774 O 0.63651 0.71746 0.87373
 C775 C 0.66586 0.73383 0.86333
 C776 C 0.67300 0.76360 0.88292
 C777 C 0.70204 0.78509 0.87656
 C778 C 0.72445 0.77582 0.84852
 C779 C 0.71709 0.74607 0.82693
 C780 C 0.68741 0.72457 0.83459
 H781 H 0.65435 0.81506 0.93489
 H782 H 0.59906 0.80872 0.96917
 H783 H 0.57749 0.70956 0.91477
 H784 H 0.70704 0.80839 0.89235
 H785 H 0.74704 0.79245 0.84277
 H786 H 0.68047 0.70240 0.81796
 C787 C 0.10183 0.25748 0.36221
 C788 C 0.09276 0.22972 0.34052
 C789 C 0.06679 0.20541 0.34924
 C790 C 0.04947 0.20971 0.38174
 C791 C 0.05814 0.23807 0.40482
 C792 C 0.08453 0.26258 0.39465
 O793 O 0.12863 0.27637 0.34955
 C794 C 0.13651 0.26014 0.31929
 C795 C 0.11521 0.23150 0.31256
 C796 C 0.11974 0.20966 0.28329
 C797 C 0.14767 0.21738 0.26014
 C798 C 0.17028 0.24644 0.26662
 C799 C 0.16442 0.26840 0.29643
 H800 H 0.06044 0.18358 0.33187
 H801 H 0.02927 0.19080 0.38894
 H802 H 0.09208 0.28416 0.41187
 H803 H 0.10288 0.18702 0.27887
 H804 H 0.15237 0.20029 0.23760
 H805 H 0.18201 0.29012 0.30243
 C806 C 0.60665 0.23509 0.12856
 C807 C 0.62538 0.20393 0.12681
 C808 C 0.61727 0.17755 0.10252
 C809 C 0.58931 0.18390 0.07848
 C810 C 0.57099 0.21685 0.07818
 C811 C 0.57969 0.24254 0.10414
 O812 O 0.61774 0.25622 0.15436
 C813 C 0.64442 0.23824 0.16886
 C814 C 0.65065 0.20634 0.15262
 C815 C 0.67849 0.18411 0.16258
 C816 C 0.70042 0.19505 0.19074
 C817 C 0.69334 0.22700 0.20905
 C818 C 0.66491 0.24884 0.19782
 H819 H 0.63206 0.15301 0.10196
 H820 H 0.58328 0.16377 0.05901
 H821 H 0.56619 0.26781 0.10518
 H822 H 0.68332 0.15941 0.14902
 H823 H 0.72241 0.17836 0.19886
 H824 H 0.65831 0.27286 0.21183
 C825 C 0.40019 0.25220 0.87755
 C826 C 0.41221 0.27675 0.85367
 C827 C 0.44349 0.29562 0.85890
 C828 C 0.46326 0.28869 0.88989
 C829 C 0.45193 0.26264 0.91420
 C830 C 0.41990 0.24423 0.90794
 O831 O 0.36967 0.23748 0.86791
 C832 C 0.36242 0.25277 0.83707
 C833 C 0.38779 0.27672 0.82693
 C834 C 0.38624 0.29448 0.79469
 C835 C 0.35756 0.28699 0.77194
 C836 C 0.33093 0.26277 0.78208
 C837 C 0.33306 0.24592 0.81542
 H838 H 0.45236 0.31494 0.83984
 H839 H 0.48779 0.30286 0.89451
 H840 H 0.41058 0.22439 0.92627
 H841 H 0.40669 0.31292 0.78706
 H842 H 0.35595 0.30001 0.74644
 H843 H 0.31279 0.22772 0.82399
 C844 C 0.37311 0.75239 0.10664
 C845 C 0.34298 0.74649 0.08668
 C846 C 0.34404 0.73835 0.05073
 C847 C 0.37753 0.73673 0.03456
 C848 C 0.40878 0.74396 0.05431
 C849 C 0.40662 0.75188 0.09085
 O850 O 0.36627 0.75830 0.14065
 C851 C 0.33105 0.75643 0.14211
 C852 C 0.31555 0.74976 0.10968
 C853 C 0.27899 0.74733 0.10491
 C854 C 0.25755 0.75116 0.13495
 C855 C 0.27290 0.75612 0.16900
 C856 C 0.31023 0.75937 0.17254
 H857 H 0.31997 0.73342 0.03571
 H858 H 0.37915 0.73093 0.00648
 H859 H 0.43025 0.75742 0.10637
 H860 H 0.26741 0.74239 0.07907
 H861 H 0.22898 0.74897 0.13202
 H862 H 0.32266 0.76276 0.19825
 C863 C 0.90490 0.61022 0.75351
 C864 C 0.88528 0.60920 0.72271
 C865 C 0.89632 0.59099 0.69273
 C866 C 0.92845 0.57218 0.69482
 C867 C 0.94866 0.57128 0.72683
 C868 C 0.93669 0.59121 0.75645
 O869 O 0.89041 0.63059 0.77831
 C870 C 0.86086 0.64246 0.76285
 C871 C 0.85635 0.62976 0.72894
 C872 C 0.82768 0.63915 0.70755
 C873 C 0.80335 0.66370 0.72114
 C874 C 0.80844 0.67874 0.75522
 C875 C 0.83702 0.66718 0.77685
 H876 H 0.88066 0.59114 0.66858
 H877 H 0.93680 0.55734 0.67173
 H878 H 0.95133 0.59159 0.78124
 H879 H 0.82477 0.62884 0.68094
 H880 H 0.78174 0.67278 0.70434
 H881 H 0.84196 0.67896 0.80255
 C882 C 0.37206 0.12144 0.23530
 C883 C 0.35799 0.11855 0.20176
 C884 C 0.37193 0.09607 0.17623
 C885 C 0.40105 0.07490 0.18588
 C886 C 0.41457 0.07516 0.22120
 C887 C 0.39993 0.09929 0.24613
 O888 O 0.35580 0.14585 0.25486
 C889 C 0.33053 0.15812 0.23329
 C890 C 0.33029 0.14157 0.20083
 C891 C 0.30474 0.14833 0.17504
 C892 C 0.27888 0.17389 0.18261
 C893 C 0.28019 0.19370 0.21455
 C894 C 0.30616 0.18520 0.24061
 H895 H 0.36073 0.09482 0.14977
 H896 H 0.41158 0.05683 0.16627
 H897 H 0.40973 0.10067 0.27313
 H898 H 0.30446 0.13416 0.15013
 H899 H 0.25844 0.17922 0.16301
 H900 H 0.30774 0.19960 0.26535
 C901 C 0.09427 0.61230 0.23840
 C902 C 0.11826 0.60715 0.26553
 C903 C 0.11355 0.58204 0.29180
 C904 C 0.08297 0.56113 0.29001
 C905 C 0.05821 0.56472 0.26152
 C906 C 0.06427 0.59078 0.23521
 O907 O 0.10267 0.63928 0.21760
 C908 C 0.13278 0.65113 0.23180
 C909 C 0.14369 0.63194 0.26084
 C910 C 0.17461 0.63940 0.27969
 C911 C 0.19478 0.66829 0.26861
 C912 C 0.18312 0.68968 0.24006
 C913 C 0.15198 0.68071 0.22094
 H914 H 0.13252 0.57899 0.31327
 H915 H 0.07917 0.54153 0.31048
 H916 H 0.04581 0.59486 0.21346
 H917 H 0.18276 0.62371 0.30229
 H918 H 0.21879 0.67497 0.28307
 H919 H 0.14264 0.69675 0.19905
 C920 C 0.86643 0.38137 0.26615
 C921 C 0.83408 0.39786 0.26145
 C922 C 0.83087 0.43333 0.25259
 C923 C 0.86230 0.45278 0.24900
 C924 C 0.89589 0.43677 0.25508
 C925 C 0.89804 0.40053 0.26374
 O926 O 0.86351 0.34712 0.27295
 C927 C 0.82855 0.34200 0.27288
 C928 C 0.80942 0.37237 0.26652
 C929 C 0.77248 0.37334 0.26597
 C930 C 0.75449 0.34153 0.27129
 C931 C 0.77349 0.30945 0.27571
 C932 C 0.81114 0.30978 0.27724
 H933 H 0.80511 0.44558 0.24859
 H934 H 0.86052 0.48058 0.24264
 H935 H 0.92346 0.38777 0.26843
 H936 H 0.75802 0.39764 0.26130
 H937 H 0.72569 0.34151 0.27045
 H938 H 0.82625 0.28562 0.28038
 C939 C 0.13910 0.38525 0.73209
 C940 C 0.12536 0.35788 0.75155
 C941 C 0.09352 0.36058 0.77004
 C942 C 0.07488 0.39267 0.76798
 C943 C 0.08795 0.42075 0.74711
 C944 C 0.12049 0.41703 0.72888
 O945 O 0.17046 0.37774 0.71782
 C946 C 0.17649 0.34483 0.72827
 C947 C 0.14946 0.33129 0.74855
 C948 C 0.15010 0.29713 0.76191
 C949 C 0.18021 0.27637 0.75475
 C950 C 0.20908 0.29042 0.73544
 C951 C 0.20701 0.32490 0.72152
 H952 H 0.08345 0.33882 0.78550
 H953 H 0.04977 0.39536 0.78173
 H954 H 0.13093 0.43823 0.71285
 H955 H 0.12840 0.28697 0.77757
 H956 H 0.18177 0.24989 0.76535
 H957 H 0.22888 0.33606 0.70679
 C958 C 0.85897 0.74714 0.40682
 C959 C 0.86445 0.76849 0.37789
 C960 C 0.89508 0.78819 0.37325
 C961 C 0.92111 0.78616 0.39976
 C962 C 0.91638 0.76419 0.42970
 C963 C 0.88505 0.74405 0.43324
 O964 O 0.82745 0.73138 0.40617
 C965 C 0.81295 0.74296 0.37611
 C966 C 0.83474 0.76553 0.35783
 C967 C 0.82562 0.78013 0.32529
 C968 C 0.79278 0.77073 0.31067
 C969 C 0.76963 0.74785 0.32902
 C970 C 0.77958 0.73396 0.36242
 H971 H 0.89859 0.80489 0.35030
 H972 H 0.94508 0.80166 0.39703
 H973 H 0.88078 0.72747 0.45617
 H974 H 0.84344 0.79757 0.31136
 H975 H 0.78533 0.78098 0.28488
 H976 H 0.76236 0.71618 0.37666
 C977 C 0.90882 0.26071 0.62683
 C978 C 0.91808 0.23300 0.64856
 C979 C 0.94554 0.20965 0.64095
 C980 C 0.96395 0.21461 0.60925
 C981 C 0.95493 0.24271 0.58611
 C982 C 0.92738 0.26658 0.59526
 O983 O 0.88035 0.27830 0.63822
 C984 C 0.87155 0.26120 0.66768
 C985 C 0.89397 0.23335 0.67505
 C986 C 0.88911 0.21072 0.70346
 C987 C 0.85985 0.21695 0.72533
 C988 C 0.83616 0.24531 0.71846
 C989 C 0.84212 0.26800 0.68931
 H990 H 0.95191 0.18781 0.65832
 H991 H 0.98494 0.19620 0.60235
 H992 H 0.91952 0.28771 0.57757
 H993 H 0.90694 0.18876 0.70836
 H994 H 0.85532 0.19953 0.74758
 H995 H 0.82409 0.28957 0.68342
 C996 C 0.12804 0.75939 0.59584
 C997 C 0.11925 0.78055 0.62415
 C998 C 0.08784 0.79981 0.62589
 C999 C 0.06430 0.79714 0.59724
 C1000 C 0.07216 0.77495 0.56801
 C1001 C 0.10444 0.75558 0.56730
 O1002 O 0.15988 0.74429 0.59934
 C1003 C 0.17117 0.75606 0.63065
 C1004 C 0.14698 0.77801 0.64693
 C1005 C 0.15261 0.79288 0.68008
 C1006 C 0.18468 0.78501 0.69722
 C1007 C 0.21057 0.76335 0.68073
 C1008 C 0.20384 0.74852 0.64696
 H1009 H 0.08175 0.81643 0.64842
 H1010 H 0.03950 0.81178 0.59814
 H1011 H 0.11103 0.73858 0.54518
 H1012 H 0.13297 0.80984 0.69236
 H1013 H 0.18981 0.79627 0.72314
 H1014 H 0.22334 0.73200 0.63390
 C1015 C 0.72584 0.60092 0.14597
 C1016 C 0.73926 0.63259 0.13450
 C1017 C 0.75466 0.63703 0.10142
 C1018 C 0.75682 0.60745 0.07931
 C1019 C 0.74313 0.57452 0.09030
 C1020 C 0.72697 0.57120 0.12394
 O1021 O 0.71380 0.60229 0.17906
 C1022 C 0.71974 0.63555 0.18855
 C1023 C 0.73512 0.65510 0.16205
 C1024 C 0.74391 0.69040 0.16597
 C1025 C 0.73632 0.70639 0.19850
 C1026 C 0.72074 0.68691 0.22636
 C1027 C 0.71237 0.65091 0.22150
 H1028 H 0.76536 0.66216 0.09324
 H1029 H 0.76947 0.61000 0.05370
 H1030 H 0.71706 0.54607 0.13312
 H1031 H 0.75600 0.70514 0.14468
 H1032 H 0.74252 0.73402 0.20218
 H1033 H 0.70032 0.63567 0.24246
 C1034 C 0.26365 0.62318 0.86292
 C1035 C 0.28752 0.61248 0.83747
 C1036 C 0.30631 0.58096 0.83947
 C1037 C 0.30068 0.55971 0.86919
 C1038 C 0.27620 0.56993 0.89584
 C1039 C 0.25700 0.60195 0.89248
 O1040 O 0.24959 0.65473 0.85626
 C1041 C 0.26489 0.66397 0.82596
 C1042 C 0.28815 0.63886 0.81335
 C1043 C 0.30697 0.64272 0.78198
 C1044 C 0.30139 0.67370 0.76257
 C1045 C 0.27789 0.70012 0.77510
 C1046 C 0.25942 0.69537 0.80730
 H1047 H 0.32510 0.57330 0.81918
 H1048 H 0.31547 0.53524 0.87155
 H1049 H 0.23859 0.61055 0.91275
 H1050 H 0.32500 0.62247 0.77262
 H1051 H 0.31525 0.67724 0.73772
 H1052 H 0.24106 0.71517 0.81703
 C1053 C 0.76698 0.37827 0.91090
 C1054 C 0.80100 0.36481 0.91233
 C1055 C 0.82649 0.37659 0.93620
 C1056 C 0.81666 0.40362 0.95949
 C1057 C 0.78175 0.41809 0.95874
 C1058 C 0.75641 0.40494 0.93425
 O1059 O 0.74733 0.36386 0.88538
 C1060 C 0.76948 0.34083 0.87053
 C1061 C 0.80259 0.34038 0.88623
 C1062 C 0.83007 0.31857 0.87498
 C1063 C 0.82318 0.29616 0.84631
 C1064 C 0.78944 0.29627 0.82938
 C1065 C 0.76213 0.31893 0.84165
 H1066 H 0.85313 0.36563 0.93663
 H1067 H 0.83631 0.41325 0.97817
 H1068 H 0.72971 0.41571 0.93283
 H1069 H 0.85587 0.31877 0.88782
 H1070 H 0.84407 0.27867 0.83716
 H1071 H 0.73622 0.31950 0.82901
 C1072 C 0.58257 0.87417 0.26876
 C1073 C 0.56601 0.85033 0.29058
 C1074 C 0.53289 0.85681 0.30564
 C1075 C 0.51609 0.88902 0.29767
 C1076 C 0.53216 0.91351 0.27439
 C1077 C 0.56590 0.90592 0.25972
 O1078 O 0.61446 0.86345 0.25813
 C1079 C 0.61799 0.83205 0.27330
 C1080 C 0.58892 0.82255 0.29310
 C1081 C 0.58672 0.79027 0.31049
 C1082 C 0.61579 0.76703 0.30758
 C1083 C 0.64642 0.77684 0.28832
 C1084 C 0.64750 0.80977 0.27090
 H1085 H 0.52050 0.83781 0.32298
 H1086 H 0.49019 0.89456 0.30890
 H1087 H 0.57884 0.92430 0.24209
 H1088 H 0.56345 0.78321 0.32565
 H1089 H 0.61487 0.74174 0.32083
 H1090 H 0.67071 0.81772 0.25607
 C1091 C 0.64553 0.11249 0.76338
 C1092 C 0.66737 0.10419 0.79153
 C1093 C 0.66090 0.07611 0.81421
 C1094 C 0.63064 0.05565 0.80754
 C1095 C 0.60806 0.06324 0.77828
 C1096 C 0.61573 0.09202 0.75581
 O1097 O 0.65579 0.14107 0.74596
 C1098 C 0.68484 0.15089 0.76342
 C1099 C 0.69319 0.12897 0.79133
 C1100 C 0.72253 0.13415 0.81317
 C1101 C 0.74403 0.16332 0.80615
 C1102 C 0.73546 0.18690 0.77820
 C1103 C 0.70554 0.18049 0.75634
 H1104 H 0.67833 0.07035 0.83639
 H1105 H 0.62507 0.03361 0.82484
 H1106 H 0.59869 0.09862 0.73354
 H1107 H 0.72861 0.11644 0.83486
 H1108 H 0.76708 0.16801 0.82279
 H1109 H 0.69846 0.19822 0.73494
 C1110 C 0.40902 0.88946 0.74291
 C1111 C 0.37777 0.90803 0.73850
 C1112 C 0.37649 0.94460 0.73610
 C1113 C 0.40876 0.96282 0.73870
 C1114 C 0.44109 0.94430 0.74418
 C1115 C 0.44135 0.90714 0.74632
 O1116 O 0.40435 0.85479 0.74374
 C1117 C 0.36938 0.85145 0.74003
 C1118 C 0.35191 0.88329 0.73711
 C1119 C 0.31520 0.88609 0.73389
 C1120 C 0.29567 0.85476 0.73322
 C1121 C 0.31307 0.82151 0.73481
 C1122 C 0.35051 0.81988 0.73856
 H1123 H 0.35158 0.95857 0.73242
 H1124 H 0.40858 0.99135 0.73735
 H1125 H 0.46586 0.89260 0.75058
 H1126 H 0.30205 0.91147 0.73208
 H1127 H 0.26698 0.85624 0.73099
 H1128 H 0.36443 0.79486 0.73975
   
