data_POSCAR
  _audit_creation_date              2014-09-24
  _audit_creation_method            'ToBaCCo'
  _symmetry_space_group_name_H-M    'P1'
  _symmetry_Int_Tables_number       1
  _symmetry_cell_setting            triclinic
  loop_
  _symmetry_equiv_pos_as_xyz
 x,y,z
_cell_length_a 36.2353
_cell_length_b 38.5821
_cell_length_c 36.1723
_cell_angle_alpha 89.724200
_cell_angle_beta 90.116500
_cell_angle_gamma 90.122900
loop_
  _atom_site_label
  _atom_site_type_symbol
  _atom_site_fract_x
  _atom_site_fract_y
  _atom_site_fract_z
Si1 Si 0.24951 0.25069 0.25026
 Si2 Si 0.74816 0.75069 0.25040
 Si3 Si 0.75011 0.25010 0.75118
 Si4 Si 0.24884 0.75008 0.74976
 C5 C 0.05298 0.05144 0.01278
 H6 H 0.05346 0.05297 -0.01709
 C7 C 0.07461 0.07409 0.03370
 H8 H 0.09194 0.09307 0.01997
 C9 C 0.02942 0.02519 0.06731
 H10 H 0.01137 0.00652 0.08034
 C11 C 0.05062 0.04734 0.08925
 H12 H 0.04911 0.04539 0.11910
 N13 N 0.03129 0.02734 0.02977
 C14 C 0.01560 -0.05469 -0.05145
 H15 H -0.01421 -0.05627 -0.05186
 C16 C 0.03645 -0.07710 -0.07323
 H17 H 0.02271 -0.09594 -0.09063
 C18 C 0.07006 -0.02853 -0.02796
 H19 H 0.08309 -0.00995 -0.00989
 C20 C 0.09193 -0.05046 -0.04930
 H21 H 0.12173 -0.04846 -0.04788
 Zn22 Zn 0.00222 -0.00183 -0.00063
 N23 N 0.03259 -0.03074 -0.02974
 C24 C -0.02565 0.02510 -0.06863
 N25 N -0.02709 0.02721 -0.03110
 C26 C -0.04878 0.05103 -0.01407
 C27 C -0.07090 0.07339 -0.03493
 C28 C -0.04736 0.04697 -0.09053
 C29 C -0.01121 -0.05496 0.05064
 C30 C -0.03217 -0.07760 0.07239
 C31 C -0.08754 -0.05150 0.04751
 C32 C -0.06557 -0.02932 0.02626
 N33 N -0.02811 -0.03115 0.02852
 H34 H -0.00761 0.00662 -0.08170
 H35 H -0.04895 0.05250 0.01579
 H36 H -0.08827 0.09213 -0.02116
 H37 H -0.04623 0.04504 -0.12037
 H38 H 0.01860 -0.05625 0.05141
 H39 H -0.01853 -0.09632 0.09013
 H40 H -0.11733 -0.04982 0.04568
 H41 H -0.07851 -0.01089 0.00784
 C42 C 0.07495 -0.07487 -0.07221
 C43 C 0.07346 0.07192 0.07228
 C44 C -0.07068 -0.07575 0.07085
 C45 C -0.07027 0.07122 -0.07349
 C46 C 0.05205 0.55392 0.51357
 H47 H 0.05265 0.55530 0.48369
 C48 C 0.07386 0.57645 0.53444
 H49 H 0.09146 0.59518 0.52066
 C50 C 0.02804 0.52815 0.56815
 H51 H 0.00975 0.50970 0.58122
 C52 C 0.04939 0.55021 0.59005
 H53 H 0.04775 0.54842 0.61990
 N54 N 0.03007 0.53010 0.53061
 C55 C 0.01398 0.44780 0.44976
 H56 H -0.01584 0.44637 0.44928
 C57 C 0.03475 0.42525 0.42806
 H58 H 0.02095 0.40644 0.41068
 C59 C 0.06853 0.47376 0.47329
 H60 H 0.08163 0.49232 0.49133
 C61 C 0.09033 0.45170 0.45204
 H62 H 0.12013 0.45358 0.45349
 Zn63 Zn 0.00083 0.50101 0.50031
 N64 N 0.03105 0.47173 0.47144
 C65 C -0.02643 0.52786 0.43208
 N66 N -0.02810 0.53013 0.46960
 C67 C -0.04969 0.55419 0.48637
 C68 C -0.07152 0.57659 0.46526
 C69 C -0.04782 0.54978 0.40995
 C70 C -0.01301 0.44814 0.55168
 C71 C -0.03408 0.42586 0.57372
 C72 C -0.08930 0.45269 0.54941
 C73 C -0.06722 0.47447 0.52780
 N74 N -0.02977 0.47212 0.52965
 H75 H -0.00845 0.50920 0.41922
 H76 H -0.05002 0.55580 0.51622
 H77 H -0.08886 0.59548 0.47883
 H78 H -0.04653 0.54770 0.38012
 H79 H 0.01679 0.44647 0.55215
 H80 H -0.02053 0.40698 0.59134
 H81 H -0.11908 0.45480 0.54794
 H82 H -0.08007 0.49305 0.50949
 C83 C 0.07326 0.42734 0.42914
 C84 C 0.07256 0.57448 0.57302
 C85 C -0.07256 0.42827 0.57265
 C86 C -0.07066 0.57425 0.42672
 C87 C 0.55029 0.05234 0.51535
 H88 H 0.55057 0.05412 0.48549
 C89 C 0.57232 0.07457 0.53633
 H90 H 0.58975 0.09352 0.52266
 C91 C 0.52691 0.02578 0.56978
 H92 H 0.50880 0.00711 0.58275
 C93 C 0.54852 0.04751 0.59179
 H94 H 0.54725 0.04528 0.62163
 N95 N 0.52851 0.02827 0.53226
 C96 C 0.51235 -0.05337 0.45075
 H97 H 0.48254 -0.05482 0.45025
 C98 C 0.53316 -0.07577 0.42892
 H99 H 0.51939 -0.09449 0.41140
 C100 C 0.56687 -0.02752 0.47451
 H101 H 0.57994 -0.00907 0.49270
 C102 C 0.58870 -0.04944 0.45313
 H103 H 0.61850 -0.04756 0.45463
 Zn104 Zn 0.49918 -0.00052 0.50172
 N105 N 0.52940 -0.02957 0.47261
 C106 C 0.47216 0.02687 0.43368
 N107 N 0.47028 0.02885 0.47120
 C108 C 0.44861 0.05280 0.48806
 C109 C 0.42695 0.07542 0.46701
 C110 C 0.45095 0.04901 0.41161
 C111 C 0.48541 -0.05391 0.55247
 C112 C 0.46439 -0.07645 0.57426
 C113 C 0.40912 -0.04933 0.55042
 C114 C 0.43117 -0.02730 0.52906
 N115 N 0.46862 -0.02968 0.53080
 H116 H 0.49020 0.00831 0.42075
 H117 H 0.44812 0.05420 0.51792
 H118 H 0.40957 0.09424 0.48064
 H119 H 0.45243 0.04717 0.38177
 H120 H 0.51521 -0.05561 0.55286
 H121 H 0.47796 -0.09552 0.59163
 H122 H 0.37934 -0.04719 0.54906
 H123 H 0.41828 -0.00851 0.51102
 C124 C 0.57167 -0.07367 0.43006
 C125 C 0.57150 0.07202 0.57489
 C126 C 0.42591 -0.07402 0.57330
 C127 C 0.42806 0.07339 0.42845
 C128 C 0.54953 0.55447 0.01219
 H129 H 0.54994 0.55639 -0.01765
 C130 C 0.57115 0.57689 0.03339
 H131 H 0.58840 0.59609 0.01990
 C132 C 0.52623 0.52741 0.06638
 H133 H 0.50829 0.50850 0.07918
 C134 C 0.54742 0.54931 0.08860
 H135 H 0.54604 0.54695 0.11843
 N136 N 0.52800 0.53007 0.02888
 C137 C 0.51322 0.44902 -0.05354
 H138 H 0.48342 0.44730 -0.05421
 C139 C 0.53438 0.42690 -0.07536
 H140 H 0.52089 0.40812 -0.09303
 C141 C 0.56735 0.47517 -0.02927
 H142 H 0.58013 0.49358 -0.01084
 C143 C 0.58952 0.45355 -0.05065
 H144 H 0.61929 0.45562 -0.04890
 Zn145 Zn 0.49919 0.50113 -0.00198
 N146 N 0.52990 0.47279 -0.03137
 C147 C 0.47210 0.52919 -0.06970
 N148 N 0.46989 0.53043 -0.03216
 C149 C 0.44773 0.55376 -0.01495
 C150 C 0.42595 0.57652 -0.03567
 C151 C 0.45079 0.55153 -0.09145
 C152 C 0.48618 0.44733 0.04851
 C153 C 0.46549 0.42436 0.07011
 C154 C 0.40982 0.45032 0.04575
 C155 C 0.43155 0.47284 0.02463
 N156 N 0.46903 0.47126 0.02673
 H157 H 0.49052 0.51112 -0.08288
 H158 H 0.44700 0.55458 0.01493
 H159 H 0.40821 0.59488 -0.02177
 H160 H 0.45259 0.55035 -0.12131
 H161 H 0.51601 0.44625 0.04917
 H162 H 0.47935 0.40560 0.08762
 H163 H 0.38001 0.45185 0.04410
 H164 H 0.41840 0.49139 0.00649
 C165 C 0.57286 0.42927 -0.07394
 C166 C 0.57015 0.57417 0.07193
 C167 C 0.42697 0.42598 0.06879
 C168 C 0.42746 0.57532 -0.07426
 C169 C 0.13756 -0.13914 -0.13635
 C170 C 0.14688 -0.12891 -0.17282
 C171 C 0.16860 -0.15108 -0.19523
 C172 C 0.18082 -0.18334 -0.18105
 C173 C 0.17163 -0.19354 -0.14457
 C174 C 0.14991 -0.17138 -0.12214
 C175 C 0.14107 -0.18213 -0.08575
 C176 C 0.15341 -0.21384 -0.07189
 C177 C 0.17470 -0.23548 -0.09381
 C178 C 0.18378 -0.22559 -0.12976
 C179 C 0.17768 -0.14026 -0.23156
 C180 C 0.16562 -0.10846 -0.24536
 C181 C 0.14433 -0.08681 -0.22347
 C182 C 0.13498 -0.09678 -0.18760
 C183 C 0.20308 -0.20587 -0.20391
 C184 C 0.22177 -0.22429 -0.22299
 C185 C 0.11537 -0.11647 -0.11346
 C186 C 0.09695 -0.09755 -0.09459
 H187 H 0.12460 -0.16618 -0.06764
 H188 H 0.14641 -0.22164 -0.04398
 H189 H 0.18423 -0.26006 -0.08291
 H190 H 0.20042 -0.24330 -0.14574
 H191 H 0.19418 -0.15620 -0.24966
 H192 H 0.17282 -0.10060 -0.27320
 H193 H 0.13501 -0.06213 -0.23432
 H194 H 0.11839 -0.07903 -0.17164
 C195 C 0.13615 0.36289 0.36550
 C196 C 0.17476 0.36828 0.36326
 C197 C 0.19669 0.34622 0.34094
 C198 C 0.17990 0.31890 0.32099
 C199 C 0.14132 0.31345 0.32330
 C200 C 0.11938 0.33551 0.34562
 C201 C 0.08086 0.32957 0.34747
 C202 C 0.06449 0.30260 0.32783
 C203 C 0.08595 0.28102 0.30601
 C204 C 0.12394 0.28626 0.30366
 C205 C 0.23522 0.35214 0.33910
 C206 C 0.25161 0.37908 0.35877
 C207 C 0.23016 0.40064 0.38061
 C208 C 0.19217 0.39543 0.38294
 C209 C 0.20230 0.29652 0.29803
 C210 C 0.22104 0.27810 0.27895
 C211 C 0.11373 0.38559 0.38811
 C212 C 0.09522 0.40456 0.40685
 H213 H 0.06301 0.34566 0.36407
 H214 H 0.03499 0.29842 0.32956
 H215 H 0.07310 0.26011 0.29080
 H216 H 0.13947 0.26880 0.28632
 H217 H 0.25307 0.33606 0.32249
 H218 H 0.28111 0.38323 0.35705
 H219 H 0.24302 0.42153 0.39584
 H220 H 0.17666 0.41289 0.40030
 C221 C 0.63473 -0.13772 0.36618
 C222 C 0.67346 -0.13288 0.36487
 C223 C 0.69548 -0.15480 0.34247
 C224 C 0.67864 -0.18142 0.32152
 C225 C 0.63993 -0.18633 0.32290
 C226 C 0.61791 -0.16441 0.34530
 C227 C 0.57926 -0.16979 0.34621
 C228 C 0.56285 -0.19608 0.32559
 C229 C 0.58439 -0.21752 0.30369
 C230 C 0.62250 -0.21282 0.30225
 C231 C 0.73413 -0.14944 0.34157
 C232 C 0.75056 -0.12318 0.36222
 C233 C 0.72903 -0.10175 0.38413
 C234 C 0.69092 -0.10642 0.38555
 C235 C 0.70111 -0.20364 0.29847
 C236 C 0.71985 -0.22197 0.27930
 C237 C 0.61223 -0.11516 0.38886
 C238 C 0.59367 -0.09631 0.40766
 H239 H 0.56135 -0.15378 0.36283
 H240 H 0.53326 -0.19984 0.32661
 H241 H 0.57151 -0.23790 0.28772
 H242 H 0.63809 -0.23016 0.28482
 H243 H 0.75205 -0.16544 0.32495
 H244 H 0.78016 -0.11945 0.36121
 H245 H 0.74193 -0.08139 0.40012
 H246 H 0.67535 -0.08910 0.40301
 C247 C 0.63636 0.36447 -0.13657
 C248 C 0.66646 0.37787 -0.15710
 C249 C 0.68849 0.35525 -0.17868
 C250 C 0.68028 0.31936 -0.17960
 C251 C 0.65018 0.30596 -0.15910
 C252 C 0.62814 0.32858 -0.13753
 C253 C 0.59818 0.31457 -0.11729
 C254 C 0.59022 0.27924 -0.11834
 C255 C 0.61178 0.25712 -0.13943
 C256 C 0.64145 0.27018 -0.15963
 C257 C 0.71844 0.36924 -0.19898
 C258 C 0.72641 0.40457 -0.19797
 C259 C 0.70486 0.42669 -0.17688
 C260 C 0.67520 0.41365 -0.15662
 C261 C 0.70274 0.29633 -0.20173
 C262 C 0.72152 0.27753 -0.22031
 C263 C 0.61388 0.38754 -0.11445
 C264 C 0.59519 0.40661 -0.09601
 H265 H 0.58059 0.33073 -0.10049
 H266 H 0.56719 0.26896 -0.10269
 H267 H 0.60549 0.22969 -0.14015
 H268 H 0.65742 0.25196 -0.17563
 H269 H 0.73602 0.35308 -0.21578
 H270 H 0.74946 0.41482 -0.21359
 H271 H 0.71116 0.45412 -0.17619
 H272 H 0.65925 0.43188 -0.14063
 C273 C -0.13493 0.13594 -0.13593
 C274 C -0.13629 0.17175 -0.12760
 C275 C -0.15865 0.19429 -0.14925
 C276 C -0.17952 0.18090 -0.17909
 C277 C -0.17824 0.14509 -0.18738
 C278 C -0.15587 0.12254 -0.16574
 C279 C -0.15503 0.08685 -0.17456
 C280 C -0.17568 0.07381 -0.20394
 C281 C -0.19753 0.09587 -0.22512
 C282 C -0.19892 0.13111 -0.21705
 C283 C -0.15957 0.22998 -0.14042
 C284 C -0.13898 0.24303 -0.11101
 C285 C -0.11712 0.22099 -0.08983
 C286 C -0.11568 0.18574 -0.09789
 C287 C -0.20223 0.20390 -0.20132
 C288 C -0.22117 0.22268 -0.22004
 C289 C -0.11200 0.11294 -0.11387
 C290 C -0.09295 0.09390 -0.09549
 H291 H -0.13843 0.06867 -0.15891
 H292 H -0.17469 0.04645 -0.21032
 H293 H -0.21347 0.08562 -0.24795
 H294 H -0.21632 0.14722 -0.23433
 H295 H -0.17618 0.24815 -0.15609
 H296 H -0.14001 0.27040 -0.10463
 H297 H -0.10119 0.23126 -0.06701
 H298 H -0.09828 0.16964 -0.08061
 C299 C -0.13532 0.63815 0.36333
 C300 C -0.12231 0.67137 0.35269
 C301 C -0.14498 0.69344 0.33081
 C302 C -0.18051 0.68217 0.31976
 C303 C -0.19345 0.64889 0.33019
 C304 C -0.17079 0.62682 0.35207
 C305 C -0.18432 0.59366 0.36217
 C306 C -0.21921 0.58261 0.35091
 C307 C -0.24134 0.60418 0.32946
 C308 C -0.22876 0.63698 0.31914
 C309 C -0.13137 0.72649 0.32038
 C310 C -0.09635 0.73744 0.33130
 C311 C -0.07421 0.71589 0.35276
 C312 C -0.08689 0.68321 0.36342
 C313 C -0.20370 0.70471 0.29753
 C314 C -0.22296 0.72326 0.27892
 C315 C -0.11224 0.61563 0.38579
 C316 C -0.09320 0.59682 0.40445
 H317 H -0.16813 0.57593 0.37881
 H318 H -0.22910 0.55716 0.35886
 H319 H -0.26840 0.59548 0.32075
 H320 H -0.24699 0.65280 0.30243
 H321 H -0.14757 0.74418 0.30368
 H322 H -0.08636 0.76278 0.32305
 H323 H -0.04703 0.72451 0.36118
 H324 H -0.06864 0.66737 0.38009
 C325 C 0.36434 0.13796 0.36483
 C326 C 0.37720 0.17155 0.35538
 C327 C 0.35498 0.19375 0.33317
 C328 C 0.32004 0.18225 0.32060
 C329 C 0.30723 0.14864 0.32991
 C330 C 0.32943 0.12643 0.35211
 C331 C 0.31603 0.09294 0.36105
 C332 C 0.28171 0.08170 0.34837
 C333 C 0.26002 0.10340 0.32662
 C334 C 0.27248 0.13651 0.31741
 C335 C 0.36845 0.22716 0.32396
 C336 C 0.40288 0.23833 0.33637
 C337 C 0.42458 0.21665 0.35814
 C338 C 0.41203 0.18362 0.36763
 C339 C 0.29732 0.20489 0.29799
 C340 C 0.27832 0.22344 0.27909
 C341 C 0.38703 0.11523 0.38747
 C342 C 0.40579 0.09623 0.40620
 H343 H 0.33190 0.07510 0.37788
 H344 H 0.27190 0.05599 0.35546
 H345 H 0.23340 0.09454 0.31681
 H346 H 0.25460 0.15243 0.30041
 H347 H 0.35258 0.24496 0.30709
 H348 H 0.41277 0.26395 0.32904
 H349 H 0.45131 0.22545 0.36772
 H350 H 0.42992 0.16769 0.38460
 C351 C 0.36397 0.64095 -0.13683
 C352 C 0.33021 0.65362 -0.12264
 C353 C 0.30776 0.67572 -0.14472
 C354 C 0.31919 0.68497 -0.18085
 C355 C 0.35318 0.67273 -0.19485
 C356 C 0.37563 0.65062 -0.17279
 C357 C 0.40944 0.63861 -0.18744
 C358 C 0.42079 0.64826 -0.22282
 C359 C 0.39887 0.66995 -0.24436
 C360 C 0.36541 0.68210 -0.23070
 C361 C 0.27412 0.68808 -0.12997
 C362 C 0.26299 0.67887 -0.09441
 C363 C 0.28493 0.65724 -0.07282
 C364 C 0.31817 0.64467 -0.08663
 C365 C 0.29584 0.70676 -0.20374
 C366 C 0.27641 0.72470 -0.22287
 C367 C 0.38656 0.61782 -0.11456
 C368 C 0.40524 0.59849 -0.09615
 H369 H 0.42747 0.62172 -0.17172
 H370 H 0.44676 0.63888 -0.23357
 H371 H 0.40783 0.67741 -0.27181
 H372 H 0.34934 0.69894 -0.24849
 H373 H 0.25614 0.70501 -0.14569
 H374 H 0.23721 0.68859 -0.08355
 H375 H 0.27615 0.65015 -0.04520
 H376 H 0.33430 0.62795 -0.06877
 C377 C -0.13451 -0.14043 0.13421
 C378 C -0.12164 -0.15199 0.16914
 C379 C -0.14435 -0.17363 0.19147
 C380 C -0.17979 -0.18354 0.17874
 C381 C -0.19246 -0.17240 0.14361
 C382 C -0.16977 -0.15074 0.12128
 C383 C -0.18309 -0.13984 0.08630
 C384 C -0.21778 -0.15013 0.07371
 C385 C -0.23993 -0.17138 0.09552
 C386 C -0.22758 -0.18244 0.13011
 C387 C -0.13091 -0.18489 0.22629
 C388 C -0.09602 -0.17505 0.23868
 C389 C -0.07382 -0.15386 0.21686
 C390 C -0.08634 -0.14237 0.18247
 C391 C -0.20329 -0.20494 0.20190
 C392 C -0.22278 -0.22264 0.22123
 C393 C -0.11166 -0.11771 0.11173
 C394 C -0.09287 -0.09866 0.09308
 H395 H -0.16685 -0.12334 0.06831
 H396 H -0.22751 -0.14159 0.04687
 H397 H -0.26684 -0.17934 0.08560
 H398 H -0.24580 -0.19897 0.14605
 H399 H -0.14714 -0.20144 0.24425
 H400 H -0.08616 -0.18394 0.26536
 H401 H -0.04673 -0.14628 0.22661
 H402 H -0.06804 -0.12596 0.16648
 C403 C -0.13591 0.36377 0.63671
 C404 C -0.12792 0.32788 0.63822
 C405 C -0.14996 0.30543 0.66035
 C406 C -0.17982 0.31902 0.68082
 C407 C -0.18778 0.35492 0.67937
 C408 C -0.16576 0.37736 0.65724
 C409 C -0.17426 0.41315 0.65622
 C410 C -0.20368 0.42638 0.67648
 C411 C -0.22522 0.40442 0.69810
 C412 C -0.21749 0.36909 0.69965
 C413 C -0.14146 0.26965 0.66143
 C414 C -0.11202 0.25641 0.64123
 C415 C -0.09047 0.27835 0.61960
 C416 C -0.09820 0.31369 0.61801
 C417 C -0.20233 0.29615 0.70342
 C418 C -0.22118 0.27745 0.72233
 C419 C -0.11346 0.38667 0.61403
 C420 C -0.09480 0.40565 0.59516
 H421 H -0.15831 0.43126 0.63980
 H422 H -0.20980 0.45381 0.67536
 H423 H -0.24808 0.41481 0.71373
 H424 H -0.23505 0.35306 0.71686
 H425 H -0.15743 0.25155 0.67786
 H426 H -0.10590 0.22897 0.64237
 H427 H -0.06763 0.26794 0.60396
 H428 H -0.08064 0.32972 0.60080
 C429 C 0.36219 -0.13847 0.63706
 C430 C 0.37585 -0.17118 0.64850
 C431 C 0.35354 -0.19338 0.67063
 C432 C 0.31772 -0.18272 0.68114
 C433 C 0.30412 -0.14996 0.66987
 C434 C 0.32641 -0.12777 0.64772
 C435 C 0.31220 -0.09514 0.63677
 C436 C 0.27702 -0.08471 0.64745
 C437 C 0.25525 -0.10638 0.66916
 C438 C 0.26848 -0.13867 0.68031
 C439 C 0.36778 -0.22593 0.68183
 C440 C 0.40308 -0.23627 0.67145
 C441 C 0.42489 -0.21458 0.64978
 C442 C 0.41158 -0.18239 0.63835
 C443 C 0.29492 -0.20535 0.70367
 C444 C 0.27592 -0.22393 0.72253
 C445 C 0.38494 -0.11578 0.61443
 C446 C 0.40369 -0.09681 0.59566
 H447 H 0.32810 -0.07735 0.61989
 H448 H 0.26660 -0.05965 0.63884
 H449 H 0.22795 -0.09816 0.67740
 H450 H 0.25051 -0.15460 0.69719
 H451 H 0.35186 -0.24369 0.69872
 H452 H 0.41355 -0.26123 0.68029
 H453 H 0.45229 -0.22273 0.64179
 H454 H 0.42959 -0.16642 0.62155
 C455 C 0.36453 0.36052 0.13268
 C456 C 0.37707 0.35086 0.16839
 C457 C 0.35498 0.32895 0.19104
 C458 C 0.32049 0.31685 0.17787
 C459 C 0.30819 0.32607 0.14199
 C460 C 0.33026 0.34800 0.11933
 C461 C 0.31732 0.35696 0.08360
 C462 C 0.28359 0.34452 0.07059
 C463 C 0.26204 0.32302 0.09272
 C464 C 0.27404 0.31383 0.12804
 C465 C 0.36806 0.31964 0.22663
 C466 C 0.40202 0.33163 0.23947
 C467 C 0.42362 0.35309 0.21733
 C468 C 0.41142 0.36269 0.18218
 C469 C 0.29752 0.29522 0.20136
 C470 C 0.27837 0.27740 0.22090
 C471 C 0.38673 0.38354 0.10987
 C472 C 0.40510 0.40281 0.09106
 H473 H 0.33311 0.37358 0.06534
 H474 H 0.27414 0.35160 0.04317
 H475 H 0.23588 0.31339 0.08248
 H476 H 0.25632 0.29701 0.14421
 H477 H 0.35228 0.30297 0.24486
 H478 H 0.41163 0.32422 0.26674
 H479 H 0.44998 0.36235 0.22743
 H480 H 0.42922 0.37939 0.16598
 C481 C 0.13630 0.13701 0.13579
 C482 C 0.14613 0.12691 0.17220
 C483 C 0.16794 0.14933 0.19443
 C484 C 0.17971 0.18173 0.18014
 C485 C 0.17003 0.19179 0.14372
 C486 C 0.14824 0.16937 0.12147
 C487 C 0.13892 0.17998 0.08512
 C488 C 0.15085 0.21180 0.07114
 C489 C 0.17220 0.23371 0.09288
 C490 C 0.18175 0.22396 0.12878
 C491 C 0.17756 0.13862 0.23068
 C492 C 0.16592 0.10669 0.24459
 C493 C 0.14453 0.08480 0.22288
 C494 C 0.13466 0.09465 0.18709
 C495 C 0.20201 0.20455 0.20284
 C496 C 0.22074 0.22324 0.22176
 C497 C 0.11402 0.11408 0.11311
 C498 C 0.09553 0.09492 0.09441
 H499 H 0.12239 0.16382 0.06714
 H500 H 0.14349 0.21950 0.04327
 H501 H 0.18142 0.25839 0.08189
 H502 H 0.19842 0.24188 0.14462
 H503 H 0.19417 0.15474 0.24863
 H504 H 0.17353 0.09891 0.27236
 H505 H 0.13554 0.06002 0.23382
 H506 H 0.11801 0.07671 0.17127
 C507 C 0.13628 0.63910 0.63619
 C508 C 0.12158 0.67068 0.64939
 C509 C 0.14368 0.69282 0.67165
 C510 C 0.18034 0.68325 0.68057
 C511 C 0.19508 0.65172 0.66731
 C512 C 0.17298 0.62958 0.64504
 C513 C 0.18832 0.59819 0.63212
 C514 C 0.22444 0.58893 0.64095
 C515 C 0.24604 0.61058 0.66274
 C516 C 0.23168 0.64164 0.67584
 C517 C 0.12839 0.72424 0.68457
 C518 C 0.09228 0.73353 0.67573
 C519 C 0.07067 0.71188 0.65396
 C520 C 0.08500 0.68079 0.64086
 C521 C 0.20286 0.70573 0.70348
 C522 C 0.22171 0.72419 0.72255
 C523 C 0.11363 0.61633 0.61368
 C524 C 0.09488 0.59731 0.59509
 H525 H 0.17262 0.58049 0.61509
 H526 H 0.23573 0.56482 0.63084
 H527 H 0.27408 0.60327 0.66952
 H528 H 0.24956 0.65761 0.69269
 H529 H 0.14413 0.74194 0.70159
 H530 H 0.08102 0.75765 0.68584
 H531 H 0.04263 0.71921 0.64717
 H532 H 0.06711 0.66482 0.62402
 C533 C 0.63561 0.13645 0.63787
 C534 C 0.63681 0.17238 0.62975
 C535 C 0.65897 0.19482 0.65161
 C536 C 0.67979 0.18119 0.68145
 C537 C 0.67865 0.14526 0.68956
 C538 C 0.65648 0.12282 0.66770
 C539 C 0.65577 0.08701 0.67635
 C540 C 0.67636 0.07374 0.70575
 C541 C 0.69802 0.09569 0.72713
 C542 C 0.69927 0.13105 0.71925
 C543 C 0.65974 0.23064 0.64297
 C544 C 0.63920 0.24392 0.61356
 C545 C 0.61753 0.22198 0.59217
 C546 C 0.61624 0.18661 0.60004
 C547 C 0.70240 0.20406 0.70381
 C548 C 0.72131 0.22275 0.72255
 C549 C 0.61290 0.11356 0.61558
 C550 C 0.59402 0.09461 0.59704
 H551 H 0.63933 0.06890 0.66053
 H552 H 0.67548 0.04628 0.71198
 H553 H 0.71390 0.08527 0.74997
 H554 H 0.71652 0.14707 0.73668
 H555 H 0.67618 0.24873 0.65881
 H556 H 0.64010 0.27138 0.60733
 H557 H 0.60163 0.23243 0.56935
 H558 H 0.59899 0.17060 0.58260
 C559 C 0.63354 0.63840 0.13586
 C560 C 0.64442 0.62758 0.17172
 C561 C 0.66657 0.64970 0.19395
 C562 C 0.67761 0.68253 0.18021
 C563 C 0.66685 0.69332 0.14432
 C564 C 0.64472 0.67120 0.12208
 C565 C 0.63432 0.68253 0.08627
 C566 C 0.64552 0.71479 0.07282
 C567 C 0.66719 0.73641 0.09457
 C568 C 0.67781 0.72594 0.12994
 C569 C 0.67726 0.63827 0.22965
 C570 C 0.66635 0.60592 0.24302
 C571 C 0.64463 0.58431 0.22131
 C572 C 0.63370 0.59488 0.18606
 C573 C 0.70022 0.70506 0.20291
 C574 C 0.71918 0.72353 0.22183
 C575 C 0.61100 0.61574 0.11312
 C576 C 0.59235 0.59684 0.09431
 H577 H 0.61750 0.66663 0.06831
 H578 H 0.63734 0.72304 0.04537
 H579 H 0.67585 0.76143 0.08399
 H580 H 0.69469 0.74366 0.14580
 H581 H 0.69416 0.65415 0.24758
 H582 H 0.67479 0.59759 0.27037
 H583 H 0.63620 0.55921 0.23183
 H584 H 0.61683 0.57714 0.17022
   
