data_POSCAR
  _audit_creation_date              2014-09-24
  _audit_creation_method            'ToBaCCo'
  _symmetry_space_group_name_H-M    'P1'
  _symmetry_Int_Tables_number       1
  _symmetry_cell_setting            triclinic
  loop_
  _symmetry_equiv_pos_as_xyz
 x,y,z
_cell_length_a 22.6767
_cell_length_b 22.4682
_cell_length_c 24.0669
_cell_angle_alpha 89.721500
_cell_angle_beta 91.426800
_cell_angle_gamma 88.372900
loop_
  _atom_site_label
  _atom_site_type_symbol
  _atom_site_fract_x
  _atom_site_fract_y
  _atom_site_fract_z
N1 N 0.25538 0.21417 0.24501
 N2 N 0.77464 -0.22760 0.25992
 N3 N 0.72821 0.27070 0.74797
 N4 N 0.25991 -0.25085 0.77176
 N5 N 0.74366 -0.20789 0.76172
 N6 N 0.23545 0.24406 0.73197
 N7 N 0.28880 -0.28686 0.27331
 N8 N 0.72739 0.27015 0.24193
 O9 O 0.20250 0.02255 0.44333
 O10 O 0.21960 -0.08375 0.56017
 O11 O 0.19416 0.02935 0.55174
 O12 O 0.22387 -0.09103 0.45246
 O13 O 0.31934 -0.07363 0.45701
 O14 O 0.28974 0.04605 0.55767
 O15 O 0.31516 -0.06736 0.56577
 O16 O 0.29782 0.04005 0.45033
 Cu17 Cu 0.20044 -0.03246 0.50136
 Cu18 Cu 0.31513 -0.01211 0.50838
 C19 C 0.24771 0.04887 0.42665
 C20 C 0.27002 -0.09293 0.58336
 C21 C 0.23713 0.05776 0.57197
 C22 C 0.27614 -0.10211 0.43712
 O23 O 0.76554 0.08738 0.55724
 O24 O 0.78496 -0.03023 0.45315
 O25 O 0.77900 0.08716 0.44915
 O26 O 0.77654 -0.02696 0.55886
 O27 O 0.67975 -0.02900 0.55093
 O28 O 0.68238 0.08138 0.43745
 O29 O 0.68846 -0.03464 0.44317
 O30 O 0.66864 0.08563 0.54500
 Cu31 Cu 0.78628 0.03040 0.50516
 Cu32 Cu 0.67010 0.02554 0.49271
 C33 C 0.71400 0.10570 0.56947
 C34 C 0.73975 -0.05433 0.43183
 C35 C 0.73111 0.10350 0.42451
 C36 C 0.72787 -0.04769 0.57386
 O37 O 0.43706 0.17183 0.03681
 O38 O 0.54763 0.20486 -0.06813
 O39 O 0.54960 0.18883 0.03869
 O40 O 0.43508 0.18388 -0.07249
 O41 O 0.41682 0.28035 -0.06303
 O42 O 0.53068 0.28514 0.04836
 O43 O 0.52913 0.30142 -0.05896
 O44 O 0.41801 0.26836 0.04521
 Cu45 Cu 0.49376 0.17760 -0.01750
 Cu46 Cu 0.47152 0.29341 -0.00617
 C47 C 0.40986 0.21494 0.05983
 C48 C 0.55742 0.25854 -0.08104
 C49 C 0.55978 0.23800 0.06231
 C50 C 0.40748 0.23146 -0.08750
 O51 O 0.56423 0.80422 0.07107
 O52 O 0.44224 0.78691 -0.03009
 O53 O 0.45455 0.77919 0.07864
 O54 O 0.55280 0.81024 -0.03649
 O55 O 0.57795 0.71514 -0.04031
 O56 O 0.47589 0.68297 0.07135
 O57 O 0.46705 0.69164 -0.03881
 O58 O 0.58713 0.70869 0.06509
 Cu59 Cu 0.50070 0.80465 0.02146
 Cu60 Cu 0.52843 0.68957 0.01392
 C61 C 0.59742 0.75989 0.08470
 C62 C 0.43543 0.73692 -0.05325
 C63 C 0.44938 0.72594 0.09508
 C64 C 0.58356 0.76827 -0.05724
 O65 O 0.06492 0.43287 0.19747
 O66 O -0.04003 0.55969 0.20752
 O67 O 0.07341 0.54608 0.21279
 O68 O -0.05086 0.44506 0.19533
 O69 O -0.05285 0.43385 0.28655
 O70 O 0.07262 0.53255 0.30382
 O71 O -0.04079 0.54926 0.29869
 O72 O 0.06187 0.41983 0.28848
 Cu73 Cu 0.01167 0.49680 0.19404
 Cu74 Cu 0.00949 0.48231 0.30351
 C75 C 0.08216 0.40566 0.24150
 C76 C -0.05653 0.57765 0.25471
 C77 C 0.09460 0.55580 0.26118
 C78 C -0.07323 0.42273 0.23827
 O79 O 0.05004 0.56387 0.79949
 O80 O -0.07139 0.45956 0.78836
 O81 O 0.04353 0.44937 0.78722
 O82 O -0.06418 0.57430 0.79802
 O83 O -0.06700 0.58357 0.70668
 O84 O 0.04408 0.46204 0.69611
 O85 O -0.07156 0.46772 0.69676
 O86 O 0.04678 0.57665 0.70825
 Cu87 Cu -0.01049 0.51053 0.80243
 Cu88 Cu -0.01237 0.52325 0.69266
 C89 C 0.06846 0.58852 0.75595
 C90 C -0.09165 0.44544 0.74082
 C91 C 0.06309 0.43542 0.73989
 C92 C -0.08316 0.60094 0.75420
 C93 C 0.31060 0.21775 0.09963
 C94 C 0.27342 0.21731 0.14479
 C95 C 0.29518 0.20494 0.19902
 C96 C 0.35648 0.18983 0.20672
 C97 C 0.39373 0.18782 0.15997
 C98 C 0.37070 0.20381 0.10657
 C99 C 0.45400 0.17295 0.16860
 N100 N 0.47590 0.16241 0.22066
 N101 N 0.44174 0.16645 0.26466
 C102 C 0.38329 0.18032 0.25955
 H103 H 0.29254 0.23058 0.05906
 H104 H 0.22719 0.22903 0.13769
 H105 H 0.48409 0.16990 0.13462
 H106 H 0.35959 0.18505 0.29718
 C107 C 0.66650 0.71540 0.15505
 C108 C 0.70919 0.71815 0.19710
 C109 C 0.73272 0.77250 0.21343
 C110 C 0.71586 0.82489 0.18288
 C111 C 0.67421 0.82165 0.13773
 C112 C 0.64702 0.76658 0.12567
 C113 C 0.66328 0.87338 0.10515
 N114 N 0.68947 0.92492 0.11876
 N115 N 0.72683 0.92829 0.16198
 C116 C 0.74115 0.88015 0.19412
 H117 H 0.64759 0.67258 0.14640
 H118 H 0.72213 0.67746 0.21898
 H119 H 0.63620 0.87361 0.06779
 H120 H 0.77362 0.88566 0.22672
 C121 C 0.58453 0.27238 -0.17863
 C122 C 0.62615 0.27412 -0.22012
 C123 C 0.68694 0.27240 -0.20703
 C124 C 0.70563 0.27140 -0.15024
 C125 C 0.66289 0.27289 -0.10812
 C126 C 0.60223 0.27045 -0.12265
 C127 C 0.68236 0.27610 -0.05245
 N128 N 0.74094 0.27431 -0.03967
 N129 N 0.78112 0.26917 -0.07889
 C130 C 0.76551 0.26710 -0.13360
 H131 H 0.53818 0.27144 -0.19037
 H132 H 0.61077 0.27559 -0.26306
 H133 H 0.65143 0.28048 -0.01915
 H134 H 0.80015 0.26135 -0.16310
 C135 C 0.33206 0.74331 -0.08727
 C136 C 0.28939 0.74553 -0.12986
 C137 C 0.30515 0.73917 -0.18555
 C138 C 0.36459 0.72470 -0.19800
 C139 C 0.40811 0.72222 -0.15459
 C140 C 0.39149 0.73257 -0.09897
 C141 C 0.46717 0.71059 -0.16865
 N142 N 0.48096 0.69987 -0.22225
 N143 N 0.43974 0.69996 -0.26263
 C144 C 0.38207 0.71171 -0.25231
 H145 H 0.31878 0.75118 -0.04492
 H146 H 0.24391 0.75557 -0.11979
 H147 H 0.50246 0.70963 -0.13769
 H148 H 0.35054 0.70959 -0.28650
 C149 C 0.11155 0.29976 0.25077
 C150 C 0.15362 0.25347 0.25221
 C151 C 0.21355 0.26418 0.24397
 C152 C 0.23090 0.32341 0.23380
 C153 C 0.18739 0.36987 0.22869
 C154 C 0.12758 0.35786 0.23865
 C155 C 0.20561 0.42742 0.21542
 N156 N 0.26379 0.43807 0.21050
 N157 N 0.30487 0.39513 0.21820
 C158 C 0.29049 0.33839 0.23014
 H159 H 0.06595 0.29011 0.25873
 H160 H 0.13925 0.20872 0.25996
 H161 H 0.17432 0.46419 0.20954
 H162 H 0.32590 0.30613 0.23771
 C163 C 0.17350 0.60998 0.77017
 C164 C 0.22000 0.64891 0.77466
 C165 C 0.20981 0.71074 0.77172
 C166 C 0.15106 0.73358 0.76561
 C167 C 0.10401 0.69386 0.75864
 C168 C 0.11568 0.63170 0.76101
 C169 C 0.04653 0.71787 0.75037
 N170 N 0.03689 0.77770 0.75111
 N171 N 0.08082 0.81496 0.75960
 C172 C 0.13747 0.79497 0.76712
 H173 H 0.18284 0.56250 0.77286
 H174 H 0.26456 0.63067 0.77941
 H175 H 0.00926 0.68968 0.74357
 H176 H 0.17105 0.82720 0.77509
 C177 C -0.14079 0.63219 0.29652
 C178 C -0.18156 0.67972 0.29837
 C179 C -0.17815 0.72803 0.26176
 C180 C -0.13064 0.73026 0.22497
 C181 C -0.08829 0.68260 0.22371
 C182 C -0.09503 0.63186 0.25833
 C183 C -0.03988 0.68840 0.18866
 N184 N -0.03580 0.73744 0.15608
 N185 N -0.07636 0.78140 0.15650
 C186 C -0.12348 0.77952 0.18993
 H187 H -0.14633 0.59438 0.32381
 H188 H -0.21766 0.67775 0.32686
 H189 H -0.00444 0.65545 0.18752
 H190 H -0.15417 0.81700 0.18951
 C191 C -0.19422 0.41586 0.75468
 C192 C -0.23743 0.37314 0.75761
 C193 C -0.22489 0.31328 0.74463
 C194 C -0.16639 0.29653 0.72931
 C195 C -0.12345 0.34075 0.72357
 C196 C -0.13747 0.40047 0.73729
 C197 C -0.06659 0.32325 0.70665
 N198 N -0.05294 0.26492 0.69861
 N199 N -0.09207 0.22302 0.70707
 C200 C -0.14783 0.23675 0.72273
 H201 H -0.20509 0.46133 0.76629
 H202 H -0.28124 0.38687 0.77017
 H203 H -0.03272 0.35527 0.70024
 H204 H -0.17571 0.20053 0.73210
 C205 C 0.25920 0.14923 0.38804
 C206 C 0.26093 0.18935 0.34398
 C207 C 0.25011 0.17097 0.28917
 C208 C 0.23052 0.11254 0.27943
 C209 C 0.22637 0.07218 0.32469
 C210 C 0.24286 0.09043 0.37909
 C211 C 0.20634 0.01468 0.31364
 N212 N 0.19101 -0.00081 0.26095
 N213 N 0.19415 0.03734 0.21869
 C214 C 0.21318 0.09349 0.22615
 H215 H 0.27110 0.16409 0.42950
 H216 H 0.27377 0.23462 0.35209
 H217 H 0.20272 -0.01819 0.34619
 H218 H 0.21346 0.12280 0.19054
 C219 C 0.71785 0.12913 0.66889
 C220 C 0.72016 0.16929 0.71263
 C221 C 0.71642 0.23076 0.70243
 C222 C 0.70077 0.25162 0.64826
 C223 C 0.69547 0.21043 0.60410
 C224 C 0.70749 0.14924 0.61434
 C225 C 0.67836 0.23202 0.55112
 N226 N 0.66751 0.29115 0.54311
 N227 N 0.67239 0.32988 0.58459
 C228 C 0.68847 0.31212 0.63689
 H229 H 0.72564 0.08212 0.67746
 H230 H 0.72952 0.15276 0.75437
 H231 H 0.67261 0.20233 0.51630
 H232 H 0.68988 0.34522 0.66919
 C233 C 0.25277 -0.19018 0.62635
 C234 C 0.24997 -0.22809 0.67192
 C235 C 0.26707 -0.20974 0.72558
 C236 C 0.28901 -0.15127 0.73241
 C237 C 0.29538 -0.11401 0.68504
 C238 C 0.27513 -0.13320 0.63201
 C239 C 0.31913 -0.05733 0.69292
 N240 N 0.33307 -0.03837 0.74479
 N241 N 0.32418 -0.07185 0.78935
 C242 C 0.30200 -0.12705 0.78500
 H243 H 0.23701 -0.20543 0.58613
 H244 H 0.23332 -0.27225 0.66531
 H245 H 0.32570 -0.02720 0.65873
 H246 H 0.29322 -0.15002 0.82295
 C247 C 0.80097 -0.10845 0.36380
 C248 C 0.81022 -0.15119 0.32314
 C249 C 0.76581 -0.19024 0.30785
 C250 C 0.71382 -0.19123 0.33930
 C251 C 0.70486 -0.14885 0.38227
 C252 C 0.74777 -0.10470 0.39243
 C253 C 0.65427 -0.15408 0.41470
 N254 N 0.61515 -0.19721 0.40360
 N255 N 0.62344 -0.23630 0.36303
 C256 C 0.67158 -0.23508 0.33091
 H257 H 0.83530 -0.07678 0.37162
 H258 H 0.85103 -0.15138 0.30070
 H259 H 0.64592 -0.12621 0.45002
 H260 H 0.67717 -0.26977 0.30068
 C261 C 0.64038 0.73070 -0.13609
 C262 C 0.67874 0.73600 -0.17951
 C263 C 0.70214 0.79086 -0.19351
 C264 C 0.68792 0.84150 -0.16066
 C265 C 0.65055 0.83566 -0.11419
 C266 C 0.62519 0.77957 -0.10279
 C267 C 0.64240 0.88580 -0.07978
 N268 N 0.66730 0.93805 -0.09253
 N269 N 0.70083 0.94370 -0.13664
 C270 C 0.71228 0.89729 -0.17073
 H271 H 0.62239 0.68730 -0.12864
 H272 H 0.68952 0.69665 -0.20344
 H273 H 0.61836 0.88451 -0.04191
 H274 H 0.74164 0.90458 -0.20419
 C275 C 0.30760 0.25304 -0.12648
 C276 C 0.26639 0.25702 -0.17024
 C277 C 0.28117 0.24047 -0.22454
 C278 C 0.34026 0.22053 -0.23437
 C279 C 0.38148 0.21386 -0.18904
 C280 C 0.36484 0.23086 -0.13486
 C281 C 0.43914 0.19293 -0.19998
 N282 N 0.45490 0.18136 -0.25282
 N283 N 0.41722 0.19003 -0.29550
 C284 C 0.36093 0.20975 -0.28815
 H285 H 0.29447 0.26695 -0.08543
 H286 H 0.22212 0.27275 -0.16132
 H287 H 0.47225 0.18643 -0.16738
 H288 H 0.33423 0.21883 -0.32474
 C289 C 0.35438 0.69825 0.13297
 C290 C 0.31551 0.69423 0.17649
 C291 C 0.33354 0.70655 0.23155
 C292 C 0.39404 0.71763 0.24294
 C293 C 0.43332 0.72279 0.19829
 C294 C 0.41255 0.71446 0.14303
 C295 C 0.49244 0.73613 0.21050
 N296 N 0.51111 0.74226 0.26406
 N297 N 0.47469 0.73580 0.30608
 C298 C 0.41700 0.72345 0.29740
 H299 H 0.33821 0.69131 0.09080
 H300 H 0.26996 0.68502 0.16637
 H301 H 0.52405 0.74103 0.17806
 H302 H 0.39022 0.71714 0.33326
 C303 C 0.58706 0.26751 0.15757
 C304 C 0.62725 0.27451 0.20148
 C305 C 0.68712 0.25952 0.19566
 C306 C 0.70515 0.22918 0.14713
 C307 C 0.66352 0.21903 0.10331
 C308 C 0.60447 0.24086 0.10790
 C309 C 0.68283 0.18747 0.05647
 N310 N 0.73960 0.16724 0.05414
 N311 N 0.77833 0.17617 0.09551
 C312 C 0.76301 0.20623 0.14189
 H313 H 0.54170 0.28261 0.16261
 H314 H 0.61216 0.29422 0.23977
 H315 H 0.65373 0.17852 0.02156
 H316 H 0.79586 0.21046 0.17459
 C317 C -0.17100 0.65686 0.71781
 C318 C -0.21275 0.70331 0.71898
 C319 C -0.21005 0.74684 0.76022
 C320 C -0.16306 0.74463 0.80003
 C321 C -0.12014 0.69741 0.79894
 C322 C -0.12509 0.65236 0.75787
 C323 C -0.07276 0.69850 0.83794
 N324 N -0.06967 0.74306 0.87559
 N325 N -0.11028 0.78694 0.87671
 C326 C -0.15665 0.78935 0.84010
 H327 H -0.17530 0.62337 0.68582
 H328 H -0.24840 0.70471 0.68819
 H329 H -0.03727 0.66554 0.83841
 H330 H -0.18729 0.82676 0.84206
 C331 C -0.11790 0.32492 0.24950
 C332 C -0.16620 0.28812 0.25038
 C333 C -0.22332 0.30959 0.23547
 C334 C -0.23097 0.37050 0.21901
 C335 C -0.18113 0.40737 0.21641
 C336 C -0.12458 0.38434 0.23265
 C337 C -0.18996 0.46739 0.20041
 N338 N -0.24519 0.48932 0.18905
 N339 N -0.29210 0.45555 0.19338
 C340 C -0.28691 0.39738 0.20849
 H341 H -0.07492 0.30702 0.26277
 H342 H -0.15916 0.24241 0.26399
 H343 H -0.15369 0.49733 0.19746
 H344 H -0.32680 0.37398 0.21379
 C345 C 0.09516 0.33049 0.75438
 C346 C 0.13647 0.28359 0.75137
 C347 C 0.19295 0.29295 0.73142
 C348 C 0.20765 0.35027 0.71287
 C349 C 0.16523 0.39778 0.71457
 C350 C 0.10860 0.38758 0.73581
 C351 C 0.18167 0.45429 0.69608
 N352 N 0.23668 0.46205 0.67689
 N353 N 0.27630 0.41724 0.67501
 C354 C 0.26366 0.36162 0.69235
 H355 H 0.05220 0.32207 0.77100
 H356 H 0.12497 0.23984 0.76590
 H357 H 0.15157 0.49240 0.69689
 H358 H 0.29736 0.32684 0.68978
 C359 C 0.14012 0.65218 0.24431
 C360 C 0.18687 0.69088 0.24780
 C361 C 0.24078 0.67255 0.27266
 C362 C 0.24719 0.61501 0.29631
 C363 C 0.19898 0.57623 0.29474
 C364 C 0.14530 0.59494 0.26757
 C365 C 0.20695 0.51956 0.31941
 N366 N 0.25968 0.50335 0.34362
 N367 N 0.30489 0.53991 0.34491
 C368 C 0.30044 0.59517 0.32205
 H369 H 0.09937 0.66721 0.22366
 H370 H 0.18175 0.73505 0.22979
 H371 H 0.17226 0.48762 0.31923
 H372 H 0.33838 0.62313 0.32442
 C373 C 0.77756 -0.09282 0.65667
 C374 C 0.78167 -0.13128 0.70187
 C375 C 0.73587 -0.16914 0.71392
 C376 C 0.68668 -0.17180 0.67650
 C377 C 0.68309 -0.13381 0.62882
 C378 C 0.72843 -0.09224 0.61995
 C379 C 0.63547 -0.14112 0.59085
 N380 N 0.59405 -0.18184 0.60091
 N381 N 0.59724 -0.21666 0.64577
 C382 C 0.64227 -0.21337 0.68353
 H383 H 0.81336 -0.06266 0.65085
 H384 H 0.82044 -0.13044 0.72904
 H385 H 0.63102 -0.11679 0.55234
 H386 H 0.64340 -0.24446 0.71761
 C387 C 0.27055 -0.20630 0.40773
 C388 C 0.27218 -0.25058 0.36765
 C389 C 0.28659 -0.23792 0.31245
 C390 C 0.29950 -0.17819 0.29791
 C391 C 0.30211 -0.13408 0.33998
 C392 C 0.28576 -0.14819 0.39479
 C393 C 0.31871 -0.07640 0.32517
 N394 N 0.32867 -0.06301 0.27133
 N395 N 0.32248 -0.10320 0.23134
 C396 C 0.30752 -0.15991 0.24264
 H397 H 0.25732 -0.21753 0.44937
 H398 H 0.26187 -0.29539 0.37995
 H399 H 0.32299 -0.04153 0.35564
 H400 H 0.30047 -0.18913 0.20798
 C401 C 0.71410 0.13041 0.32628
 C402 C 0.71228 0.17063 0.28216
 C403 C 0.72526 0.23095 0.29011
 C404 C 0.73922 0.25047 0.34495
 C405 C 0.74570 0.20829 0.38900
 C406 C 0.73169 0.14814 0.37953
 C407 C 0.76448 0.22824 0.44161
 N408 N 0.77250 0.28706 0.45026
 N409 N 0.76265 0.32714 0.40995
 C410 C 0.74571 0.31097 0.35787
 H411 H 0.70299 0.08454 0.31851
 H412 H 0.70125 0.15392 0.24126
 H413 H 0.77232 0.19781 0.47608
 H414 H 0.73631 0.34575 0.32767
 C415 C 0.23168 0.16396 0.59674
 C416 C 0.22976 0.20954 0.63571
 C417 C 0.22638 0.19666 0.69264
 C418 C 0.21643 0.13744 0.70965
 C419 C 0.21587 0.09129 0.66965
 C420 C 0.22653 0.10464 0.61330
 C421 C 0.20523 0.03308 0.68764
 N422 N 0.19570 0.02216 0.74211
 N423 N 0.19595 0.06555 0.77962
 C424 C 0.20586 0.12279 0.76525
 H425 H 0.23883 0.17487 0.55356
 H426 H 0.23574 0.25487 0.62196
 H427 H 0.20400 -0.00373 0.65891
 H428 H 0.20400 0.15630 0.79718
   
