data_POSCAR
  _audit_creation_date              2014-09-24
  _audit_creation_method            'ToBaCCo'
  _symmetry_space_group_name_H-M    'P1'
  _symmetry_Int_Tables_number       1
  _symmetry_cell_setting            triclinic
  loop_
  _symmetry_equiv_pos_as_xyz
 x,y,z
_cell_length_a 39.0544
_cell_length_b 39.8859
_cell_length_c 39.7376
_cell_angle_alpha 88.816600
_cell_angle_beta 86.428700
_cell_angle_gamma 88.185200
loop_
  _atom_site_label
  _atom_site_type_symbol
  _atom_site_fract_x
  _atom_site_fract_y
  _atom_site_fract_z
C1 C 0.29554 0.29264 0.22352
 H2 H 0.29691 0.29395 0.25057
 C3 C 0.31580 0.31328 0.20223
 H4 H 0.33257 0.33064 0.21313
 C5 C 0.27208 0.26819 0.17660
 H6 H 0.25564 0.25008 0.16662
 C7 C 0.29177 0.28848 0.15438
 H8 H 0.29017 0.28553 0.12753
 N9 N 0.27379 0.27106 0.21050
 C10 C 0.19444 0.25583 0.29123
 H11 H 0.19531 0.22874 0.29346
 C12 C 0.17179 0.27461 0.31254
 H13 H 0.15583 0.26154 0.33142
 C14 C 0.21546 0.30538 0.26459
 H15 H 0.23228 0.31731 0.24570
 C16 C 0.19321 0.32513 0.28533
 H17 H 0.19334 0.35216 0.28217
 Zn18 Zn 0.24724 0.24419 0.24147
 N19 N 0.21612 0.27139 0.26828
 C20 C 0.27628 0.22407 0.30300
 N21 N 0.27829 0.22073 0.26894
 C22 C 0.30318 0.20099 0.25327
 C23 C 0.32673 0.18282 0.27205
 C24 C 0.29931 0.20637 0.32276
 C25 C 0.19777 0.22589 0.19734
 C26 C 0.17882 0.20419 0.17917
 C27 C 0.20720 0.15726 0.20630
 C28 C 0.22579 0.17986 0.22373
 N29 N 0.22135 0.21347 0.21847
 H30 H 0.25691 0.24051 0.31497
 H31 H 0.30438 0.19903 0.22611
 H32 H 0.34550 0.16647 0.25897
 H33 H 0.29716 0.20927 0.34985
 H34 H 0.19412 0.25275 0.19420
 H35 H 0.16080 0.21471 0.16189
 H36 H 0.21102 0.13074 0.21150
 H37 H 0.24361 0.17042 0.24162
 C38 C 0.17104 0.30984 0.30985
 C39 C 0.31371 0.31173 0.16716
 C40 C 0.18377 0.16928 0.18305
 C41 C 0.32499 0.18537 0.30737
 C42 C 0.80202 0.77610 0.22385
 H43 H 0.81470 0.76305 0.24393
 C44 C 0.82078 0.79695 0.20145
 H45 H 0.84790 0.79917 0.20487
 C46 C 0.75126 0.78888 0.19609
 H47 H 0.72402 0.78567 0.19442
 C48 C 0.76897 0.80996 0.17303
 H49 H 0.75418 0.82247 0.15423
 N50 N 0.76790 0.77256 0.22087
 C51 C 0.69564 0.75768 0.30756
 H52 H 0.69612 0.73061 0.31015
 C53 C 0.67452 0.77699 0.32972
 H54 H 0.65932 0.76444 0.34959
 C55 C 0.71585 0.80659 0.27901
 H56 H 0.73203 0.81806 0.25925
 C57 C 0.69517 0.82688 0.30069
 H58 H 0.69552 0.85387 0.29719
 Zn59 Zn 0.74242 0.74509 0.25186
 N60 N 0.71539 0.77260 0.28248
 C61 C 0.77523 0.72153 0.30994
 N62 N 0.77324 0.71721 0.27624
 C63 C 0.79375 0.69397 0.25954
 C64 C 0.81690 0.67367 0.27682
 C65 C 0.79783 0.70164 0.32822
 C66 C 0.67868 0.71927 0.23518
 C67 C 0.65694 0.70019 0.21728
 C68 C 0.70594 0.68122 0.18199
 C69 C 0.72682 0.70061 0.20070
 N70 N 0.71311 0.71866 0.22722
 H71 H 0.75972 0.74076 0.32278
 H72 H 0.79249 0.69130 0.23271
 H73 H 0.83244 0.65500 0.26302
 H74 H 0.79900 0.70560 0.35500
 H75 H 0.66770 0.73487 0.25511
 H76 H 0.62965 0.70158 0.22394
 H77 H 0.71742 0.66687 0.16113
 H78 H 0.75389 0.70171 0.19356
 C79 C 0.67371 0.81212 0.32613
 C80 C 0.80452 0.81458 0.17534
 C81 C 0.67055 0.68044 0.19053
 C82 C 0.81918 0.67742 0.31168
 C83 C 0.80290 0.28652 0.72825
 H84 H 0.80637 0.28620 0.75506
 C85 C 0.82254 0.30746 0.70666
 H86 H 0.84102 0.32338 0.71709
 C87 C 0.77448 0.26614 0.68220
 H88 H 0.75617 0.24962 0.67263
 C89 C 0.79343 0.28679 0.65975
 H90 H 0.78949 0.28564 0.63309
 N91 N 0.77897 0.26688 0.71584
 C92 C 0.69958 0.25189 0.79639
 H93 H 0.69868 0.22480 0.79710
 C94 C 0.67691 0.27083 0.81751
 H95 H 0.65923 0.25787 0.83489
 C96 C 0.72447 0.30126 0.77315
 H97 H 0.74266 0.31311 0.75551
 C98 C 0.70230 0.32117 0.79379
 H99 H 0.70393 0.34820 0.79186
 Zn100 Zn 0.75241 0.23994 0.74669
 N101 N 0.72302 0.26726 0.77507
 C102 C 0.77938 0.21262 0.80654
 N103 N 0.78295 0.21367 0.77235
 C104 C 0.80874 0.19619 0.75546
 C105 C 0.83196 0.17614 0.77291
 C106 C 0.80164 0.19262 0.82506
 C107 C 0.69860 0.22676 0.70614
 C108 C 0.67668 0.20735 0.68876
 C109 C 0.70725 0.15757 0.70778
 C110 C 0.72867 0.17797 0.72469
 N111 N 0.72420 0.21191 0.72333
 H112 H 0.75917 0.22719 0.81965
 H113 H 0.81111 0.19766 0.72819
 H114 H 0.85132 0.16250 0.75776
 H115 H 0.79749 0.19250 0.85227
 H116 H 0.69531 0.25380 0.70590
 H117 H 0.65652 0.21967 0.67512
 H118 H 0.71189 0.13069 0.70856
 H119 H 0.74887 0.16661 0.73886
 C120 C 0.67802 0.30604 0.81633
 C121 C 0.81748 0.30823 0.67198
 C122 C 0.68074 0.17224 0.68954
 C123 C 0.82878 0.17366 0.80860
 C124 C 0.30895 0.77262 0.71689
 H125 H 0.32234 0.75748 0.73496
 C126 C 0.32763 0.79415 0.69511
 H127 H 0.35523 0.79466 0.69639
 C128 C 0.25703 0.79135 0.69409
 H129 H 0.22944 0.79121 0.69450
 C130 C 0.27469 0.81331 0.67192
 H131 H 0.26009 0.82958 0.65565
 N132 N 0.27426 0.77119 0.71581
 C133 C 0.19477 0.75164 0.79516
 H134 H 0.19342 0.72463 0.79430
 C135 C 0.17216 0.76982 0.81708
 H136 H 0.15396 0.75622 0.83331
 C137 C 0.22153 0.80153 0.77586
 H138 H 0.24112 0.81377 0.76010
 C139 C 0.19936 0.82069 0.79722
 H140 H 0.20200 0.84763 0.79723
 Zn141 Zn 0.24921 0.74188 0.74630
 N142 N 0.21882 0.76767 0.77514
 C143 C 0.27929 0.71969 0.80657
 N144 N 0.28065 0.71679 0.77246
 C145 C 0.30463 0.69639 0.75628
 C146 C 0.32833 0.67775 0.77444
 C147 C 0.30252 0.70147 0.82574
 C148 C 0.19762 0.72501 0.70307
 C149 C 0.17908 0.70410 0.68362
 C150 C 0.21103 0.65650 0.70522
 C151 C 0.22907 0.67835 0.72409
 N152 N 0.22292 0.71209 0.72198
 H153 H 0.26032 0.73626 0.81900
 H154 H 0.30526 0.69455 0.72912
 H155 H 0.34650 0.66114 0.76089
 H156 H 0.30106 0.70423 0.85285
 H157 H 0.19153 0.75156 0.70315
 H158 H 0.15961 0.71516 0.66823
 H159 H 0.21640 0.62985 0.70781
 H160 H 0.24784 0.66809 0.74055
 C161 C 0.17409 0.80497 0.81819
 C162 C 0.31059 0.81471 0.67198
 C163 C 0.18617 0.66935 0.68390
 C164 C 0.32763 0.68029 0.80971
 C165 C 0.02582 0.06447 0.02403
 H166 H 0.01269 0.07429 0.00266
 C167 C 0.04351 0.08632 0.04321
 H168 H 0.04364 0.11269 0.03622
 C169 C 0.04333 0.01811 0.05766
 H170 H 0.04343 -0.00849 0.06313
 C171 C 0.06162 0.03905 0.07734
 H172 H 0.07540 0.02827 0.09798
 N173 N 0.02549 0.03109 0.03181
 C174 C 0.01799 -0.04899 -0.04021
 H175 H -0.00923 -0.05352 -0.03787
 C176 C 0.03978 -0.06886 -0.06130
 H177 H 0.02896 -0.08856 -0.07529
 C178 C 0.06486 -0.01764 -0.02473
 H179 H 0.07451 0.00230 -0.01030
 C180 C 0.08760 -0.03701 -0.04537
 H181 H 0.11466 -0.03194 -0.04585
 Zn182 Zn 0.00013 0.00239 0.00550
 N183 N 0.03075 -0.02377 -0.02271
 C184 C -0.02824 0.02636 -0.05517
 N185 N -0.02949 0.02919 -0.02107
 C186 C -0.05124 0.05187 -0.00511
 C187 C -0.07302 0.07263 -0.02343
 C188 C -0.04986 0.04638 -0.07447
 C189 C -0.00918 -0.05309 0.04960
 C190 C -0.02720 -0.07593 0.07051
 C191 C -0.07989 -0.04623 0.05820
 C192 C -0.06087 -0.02401 0.03751
 N193 N -0.02606 -0.02740 0.03401
 H194 H -0.01044 0.00864 -0.06755
 H195 H -0.05129 0.05414 0.02198
 H196 H -0.08914 0.09096 -0.00986
 H197 H -0.04855 0.04340 -0.10154
 H198 H 0.01832 -0.05630 0.04526
 H199 H -0.01310 -0.09644 0.08203
 H200 H -0.10753 -0.04276 0.06086
 H201 H -0.07413 -0.00419 0.02423
 C202 C 0.07512 -0.06285 -0.06440
 C203 C 0.06143 0.07372 0.07053
 C204 C -0.06310 -0.07244 0.07537
 C205 C -0.07289 0.06985 -0.05870
 C206 C 0.02552 0.56930 0.52372
 H207 H 0.00941 0.57992 0.50489
 C208 C 0.04311 0.59073 0.54347
 H209 H 0.04018 0.61755 0.53938
 C210 C 0.05048 0.52173 0.55036
 H211 H 0.05373 0.49488 0.55277
 C212 C 0.06869 0.54224 0.57051
 H213 H 0.08539 0.53076 0.58852
 N214 N 0.02887 0.53541 0.52788
 C215 C 0.01961 0.45603 0.45550
 H216 H -0.00739 0.45092 0.45953
 C217 C 0.04049 0.43652 0.43328
 H218 H 0.02921 0.41648 0.42017
 C219 C 0.06682 0.48856 0.46780
 H220 H 0.07693 0.50887 0.48140
 C221 C 0.08868 0.46963 0.44586
 H222 H 0.11561 0.47532 0.44353
 Zn223 Zn 0.00308 0.50675 0.50179
 N224 N 0.03297 0.48156 0.47206
 C225 C -0.02675 0.53158 0.44236
 N226 N -0.02810 0.53322 0.47657
 C227 C -0.05128 0.55398 0.49338
 C228 C -0.07463 0.57371 0.47583
 C229 C -0.04975 0.55076 0.42380
 C230 C -0.00341 0.45135 0.54668
 C231 C -0.02025 0.42806 0.56802
 C232 C -0.07432 0.45437 0.55457
 C233 C -0.05645 0.47724 0.53364
 N234 N -0.02153 0.47583 0.53054
 H235 H -0.00784 0.51541 0.42931
 H236 H -0.05147 0.55532 0.52056
 H237 H -0.09216 0.59046 0.48995
 H238 H -0.04838 0.54877 0.39661
 H239 H 0.02414 0.44931 0.54240
 H240 H -0.00524 0.40861 0.58019
 H241 H -0.10209 0.45619 0.55691
 H242 H -0.07070 0.49589 0.51978
 C243 C 0.07552 0.44331 0.42797
 C244 C 0.06469 0.57725 0.56764
 C245 C -0.05622 0.42963 0.57248
 C246 C -0.07439 0.57199 0.44049
 C247 C 0.54003 0.06838 0.51530
 H248 H 0.53976 0.07069 0.48814
 C249 C 0.55927 0.09019 0.53300
 H250 H 0.57416 0.10887 0.51906
 C251 C 0.52176 0.04021 0.56603
 H252 H 0.50687 0.02095 0.57889
 C253 C 0.54075 0.06138 0.58472
 H254 H 0.54038 0.05799 0.61185
 N255 N 0.52228 0.04363 0.53188
 C256 C 0.51667 -0.03609 0.45940
 H257 H 0.48926 -0.03961 0.46056
 C258 C 0.53851 -0.05641 0.43886
 H259 H 0.52765 -0.07544 0.42405
 C260 C 0.56399 -0.00715 0.47769
 H261 H 0.57393 0.01154 0.49342
 C262 C 0.58676 -0.02683 0.45741
 H263 H 0.61401 -0.02301 0.45805
 Zn264 Zn 0.49829 0.01417 0.50571
 N265 N 0.52961 -0.01177 0.47798
 C266 C 0.47164 0.03903 0.44483
 N267 N 0.46894 0.04067 0.47905
 C268 C 0.44602 0.06221 0.49508
 C269 C 0.42384 0.08247 0.47665
 C270 C 0.45002 0.05888 0.42542
 C271 C 0.49042 -0.03835 0.55300
 C272 C 0.47306 -0.06144 0.57412
 C273 C 0.41949 -0.03922 0.55442
 C274 C 0.43787 -0.01645 0.53378
 N275 N 0.47268 -0.01609 0.53381
 H276 H 0.49061 0.02244 0.43246
 H277 H 0.44499 0.06358 0.52229
 H278 H 0.40614 0.09966 0.49003
 H279 H 0.45235 0.05692 0.39822
 H280 H 0.51816 -0.03810 0.55186
 H281 H 0.48782 -0.07910 0.58886
 H282 H 0.39176 -0.03889 0.55429
 H283 H 0.42425 0.00076 0.51767
 C284 C 0.57406 -0.05171 0.43741
 C285 C 0.55998 0.08668 0.56822
 C286 C 0.43703 -0.06184 0.57529
 C287 C 0.42541 0.08070 0.44128
 C288 C 0.55072 0.55933 0.01035
 H289 H 0.54988 0.56173 -0.01676
 C290 C 0.57133 0.58029 0.02755
 H291 H 0.58573 0.59915 0.01337
 C292 C 0.53184 0.53234 0.06151
 H293 H 0.51618 0.51387 0.07473
 C294 C 0.55206 0.55279 0.07973
 H295 H 0.55198 0.54945 0.10685
 N296 N 0.53212 0.53543 0.02735
 C297 C 0.52311 0.45725 -0.04637
 H298 H 0.49556 0.45476 -0.04558
 C299 C 0.54437 0.43693 -0.06753
 H300 H 0.53292 0.41899 -0.08319
 C301 C 0.57137 0.48347 -0.02656
 H302 H 0.58193 0.50101 -0.00998
 C303 C 0.59356 0.46371 -0.04732
 H304 H 0.62093 0.46637 -0.04615
 Zn305 Zn 0.50662 0.50684 0.00158
 N306 N 0.53682 0.48033 -0.02684
 C307 C 0.47904 0.53317 -0.05849
 N308 N 0.47732 0.53437 -0.02425
 C309 C 0.45508 0.55598 -0.00741
 C310 C 0.43249 0.57662 -0.02497
 C311 C 0.45698 0.55341 -0.07706
 C312 C 0.49779 0.45470 0.04945
 C313 C 0.47988 0.43201 0.07061
 C314 C 0.42686 0.45478 0.05015
 C315 C 0.44577 0.47716 0.02955
 N316 N 0.48058 0.47707 0.02991
 H317 H 0.49750 0.51654 -0.07153
 H318 H 0.45481 0.55699 0.01980
 H319 H 0.41528 0.59376 -0.01094
 H320 H 0.45845 0.55172 -0.10428
 H321 H 0.52554 0.45456 0.04858
 H322 H 0.49420 0.41427 0.08567
 H323 H 0.39915 0.45545 0.04970
 H324 H 0.43255 0.49439 0.01314
 C325 C 0.58011 0.44030 -0.06852
 C326 C 0.57270 0.57675 0.06272
 C327 C 0.44385 0.43206 0.07136
 C328 C 0.43292 0.57518 -0.06032
 C329 C 0.14044 -0.12346 -0.12940
 C330 C 0.10875 -0.13492 -0.11625
 N331 N 0.09857 -0.16569 -0.12468
 C332 C 0.11877 -0.18567 -0.14556
 C333 C 0.15091 -0.17445 -0.15867
 N334 N 0.16065 -0.14335 -0.15017
 N335 N 0.15040 -0.09248 -0.12146
 C336 C 0.13017 -0.07243 -0.10073
 C337 C 0.09835 -0.08388 -0.08704
 N338 N 0.08851 -0.11498 -0.09549
 H339 H 0.10934 -0.20968 -0.15220
 H340 H 0.13875 -0.04764 -0.09571
 C341 C 0.13815 0.38280 0.36058
 C342 C 0.10774 0.37075 0.37623
 N343 N 0.09802 0.33929 0.36973
 C344 C 0.11754 0.31915 0.34845
 C345 C 0.14843 0.33094 0.33290
 N346 N 0.15769 0.36274 0.33937
 N347 N 0.14767 0.41439 0.36680
 C348 C 0.12825 0.43447 0.38820
 C349 C 0.09777 0.42242 0.40438
 N350 N 0.08833 0.39073 0.39763
 H351 H 0.10862 0.29447 0.34346
 H352 H 0.13637 0.45970 0.39192
 C353 C 0.63982 -0.11413 0.37502
 C354 C 0.60851 -0.12565 0.38925
 N355 N 0.59894 -0.15717 0.38285
 C356 C 0.61935 -0.17783 0.36292
 C357 C 0.65093 -0.16648 0.34859
 N358 N 0.66017 -0.13467 0.35501
 N359 N 0.64927 -0.08253 0.38126
 C360 C 0.62887 -0.06189 0.40124
 C361 C 0.59739 -0.07334 0.41572
 N362 N 0.58806 -0.10506 0.40908
 H363 H 0.61053 -0.20254 0.35783
 H364 H 0.63694 -0.03666 0.40516
 C365 C 0.64481 0.37859 -0.13268
 C366 C 0.61265 0.36777 -0.12004
 N367 N 0.60207 0.33713 -0.12842
 C368 C 0.62232 0.31667 -0.14874
 C369 C 0.65484 0.32727 -0.16133
 N370 N 0.66502 0.35824 -0.15296
 N371 N 0.65530 0.40932 -0.12458
 C372 C 0.63517 0.42973 -0.10413
 C373 C 0.60292 0.41892 -0.09102
 N374 N 0.59248 0.38811 -0.09964
 H375 H 0.61272 0.29271 -0.15536
 H376 H 0.64415 0.45430 -0.09875
 C377 C -0.13691 0.13124 -0.11891
 C378 C -0.10806 0.11409 -0.13322
 N379 N -0.10041 0.11699 -0.16686
 C380 C -0.12037 0.13621 -0.18702
 C381 C -0.14979 0.15392 -0.17289
 N382 N -0.15673 0.15062 -0.13883
 N383 N -0.14499 0.12797 -0.08534
 C384 C -0.12525 0.10843 -0.06530
 C385 C -0.09567 0.09144 -0.07940
 N386 N -0.08813 0.09475 -0.11328
 H387 H -0.11234 0.13762 -0.21342
 H388 H -0.13319 0.10597 -0.03888
 C389 C -0.14360 0.63033 0.38318
 C390 C -0.11219 0.61820 0.36855
 N391 N -0.10363 0.62531 0.33561
 C392 C -0.12514 0.64400 0.31656
 C393 C -0.15676 0.65633 0.33113
 N394 N -0.16501 0.64912 0.36428
 N395 N -0.15227 0.62305 0.41604
 C396 C -0.13080 0.60435 0.43510
 C397 C -0.09889 0.59243 0.42074
 N398 N -0.09066 0.59964 0.38756
 H399 H -0.11720 0.64970 0.29057
 H400 H -0.13905 0.59852 0.46096
 C401 C 0.35927 0.13920 0.38099
 C402 C 0.39205 0.12871 0.36832
 N403 N 0.40278 0.13718 0.33623
 C404 C 0.38206 0.15548 0.31605
 C405 C 0.34886 0.16577 0.32846
 N406 N 0.33853 0.15740 0.36088
 N407 N 0.34853 0.13071 0.41307
 C408 C 0.36915 0.11221 0.43317
 C409 C 0.40220 0.10159 0.42064
 N410 N 0.41264 0.11017 0.38830
 H411 H 0.39175 0.16222 0.29083
 H412 H 0.35942 0.10533 0.45835
 C413 C 0.36452 0.63395 -0.11801
 C414 C 0.39693 0.62356 -0.13176
 N415 N 0.40655 0.63217 -0.16410
 C416 C 0.38508 0.65048 -0.18348
 C417 C 0.35222 0.66065 -0.17000
 N418 N 0.34300 0.65217 -0.13733
 N419 N 0.35491 0.62532 -0.08567
 C420 C 0.37630 0.60677 -0.06637
 C421 C 0.40897 0.59623 -0.08002
 N422 N 0.41827 0.60497 -0.11259
 H423 H 0.39393 0.65736 -0.20893
 H424 H 0.36743 0.59978 -0.04095
 C425 C -0.12248 -0.13874 0.13841
 C426 C -0.13674 -0.12137 0.11150
 N427 N -0.17013 -0.12553 0.10561
 C428 C -0.19012 -0.14618 0.12551
 C429 C -0.17613 -0.16381 0.15307
 N430 N -0.14233 -0.15933 0.15833
 N431 N -0.08911 -0.13447 0.14448
 C432 C -0.06925 -0.11359 0.12469
 C433 C -0.08341 -0.09606 0.09741
 N434 N -0.11704 -0.10049 0.09173
 H435 H -0.21635 -0.14844 0.11921
 H436 H -0.04300 -0.11030 0.13079
 C437 C -0.11183 0.36122 0.63631
 C438 C -0.12593 0.37522 0.60743
 N439 N -0.15799 0.36708 0.59990
 C440 C -0.17665 0.34544 0.61991
 C441 C -0.16269 0.33127 0.64901
 N442 N -0.13051 0.33977 0.65646
 N443 N -0.07980 0.36949 0.64387
 C444 C -0.06113 0.39111 0.62380
 C445 C -0.07519 0.40534 0.59476
 N446 N -0.10745 0.39696 0.58751
 H447 H -0.20238 0.34004 0.61347
 H448 H -0.03593 0.39760 0.63092
 C449 C 0.38022 -0.12984 0.63855
 C450 C 0.36788 -0.11813 0.60797
 N451 N 0.33732 -0.12869 0.59842
 C452 C 0.31835 -0.15029 0.61822
 C453 C 0.33039 -0.16188 0.64924
 N454 N 0.36130 -0.15132 0.65838
 N455 N 0.41082 -0.11936 0.64807
 C456 C 0.42977 -0.09772 0.62830
 C457 C 0.41756 -0.08588 0.59747
 N458 N 0.38668 -0.09645 0.58826
 H459 H 0.29447 -0.15862 0.60940
 H460 H 0.45372 -0.08942 0.63702
 C461 C 0.38502 0.36547 0.13442
 C462 C 0.37353 0.37682 0.10335
 N463 N 0.34297 0.36669 0.09341
 C464 C 0.32332 0.34559 0.11313
 C465 C 0.33467 0.33409 0.14443
 N466 N 0.36535 0.34458 0.15424
 N467 N 0.41553 0.37574 0.14442
 C468 C 0.43517 0.39683 0.12468
 C469 C 0.42376 0.40840 0.09342
 N470 N 0.39299 0.39804 0.08372
 H471 H 0.29880 0.33856 0.10468
 H472 H 0.45903 0.40499 0.13374
 C473 C 0.11645 0.13761 0.13037
 C474 C 0.12784 0.10444 0.12461
 N475 N 0.15719 0.09279 0.13788
 C476 C 0.17567 0.11276 0.15681
 C477 C 0.16424 0.14612 0.16302
 N478 N 0.13479 0.15756 0.14933
 N479 N 0.08729 0.14941 0.11680
 C480 C 0.06907 0.12956 0.09751
 C481 C 0.08046 0.09622 0.09147
 N482 N 0.10962 0.08453 0.10547
 H483 H 0.19934 0.10268 0.16613
 H484 H 0.04568 0.13963 0.08750
 C485 C 0.11859 0.63888 0.63080
 C486 C 0.13194 0.60726 0.62117
 N487 N 0.16265 0.59626 0.63199
 C488 C 0.18063 0.61539 0.65219
 C489 C 0.16725 0.64715 0.66231
 N490 N 0.13645 0.65799 0.65103
 N491 N 0.08799 0.65000 0.61977
 C492 C 0.07013 0.63094 0.59938
 C493 C 0.08345 0.59915 0.58948
 N494 N 0.11411 0.58815 0.60091
 H495 H 0.20538 0.60600 0.65952
 H496 H 0.04553 0.64036 0.59159
 C497 C 0.62308 0.14640 0.62431
 C498 C 0.61538 0.11360 0.63484
 N499 N 0.62869 0.10050 0.66315
 C500 C 0.64964 0.11865 0.68134
 C501 C 0.65779 0.15153 0.67073
 N502 N 0.64394 0.16457 0.64245
 N503 N 0.60970 0.15951 0.59603
 C504 C 0.58915 0.14116 0.57757
 C505 C 0.58159 0.10804 0.58782
 N506 N 0.59486 0.09528 0.61649
 H507 H 0.65933 0.10758 0.70407
 H508 H 0.57857 0.15256 0.55541
 C509 C 0.63678 0.63544 0.11903
 C510 C 0.60660 0.62207 0.13392
 N511 N 0.59784 0.62761 0.16695
 C512 C 0.61781 0.64616 0.18578
 C513 C 0.64808 0.65992 0.17094
 N514 N 0.65682 0.65390 0.13781
 N515 N 0.64565 0.62963 0.08607
 C516 C 0.62560 0.61115 0.06721
 C517 C 0.59510 0.59775 0.08197
 N518 N 0.58661 0.60356 0.11518
 H519 H 0.61032 0.64956 0.21217
 H520 H 0.63393 0.60646 0.04124
   
