data_POSCAR
  _audit_creation_date              2014-09-24
  _audit_creation_method            'ToBaCCo'
  _symmetry_space_group_name_H-M    'P1'
  _symmetry_Int_Tables_number       1
  _symmetry_cell_setting            triclinic
  loop_
  _symmetry_equiv_pos_as_xyz
 x,y,z
_cell_length_a 40.5871
_cell_length_b 40.5356
_cell_length_c 40.5575
_cell_angle_alpha 94.370900
_cell_angle_beta 92.928500
_cell_angle_gamma 91.578300
loop_
  _atom_site_label
  _atom_site_type_symbol
  _atom_site_fract_x
  _atom_site_fract_y
  _atom_site_fract_z
O1 O 0.53716 0.49799 0.02411
 O2 O 0.44676 0.49899 0.02567
 O3 O 0.49016 0.45288 0.02439
 O4 O 0.49344 0.54391 0.02381
 O5 O 0.48920 0.53907 -0.03079
 O6 O 0.48616 0.44853 -0.03022
 O7 O 0.44262 0.49418 -0.02888
 O8 O 0.53347 0.49349 -0.03049
 Cu9 Cu 0.49234 0.49889 0.02995
 Cu10 Cu 0.48759 0.49337 -0.03556
 C11 C 0.55087 0.49559 -0.00338
 C12 C 0.42907 0.49676 -0.00123
 C13 C 0.48736 0.43515 -0.00291
 C14 C 0.49158 0.55704 -0.00369
 O15 O -0.02380 0.54838 0.50576
 O16 O -0.02499 0.45700 0.50185
 O17 O -0.02594 0.50413 0.54898
 O18 O -0.02477 0.50133 0.45852
 O19 O 0.02967 0.50295 0.46183
 O20 O 0.02848 0.50450 0.55282
 O21 O 0.02945 0.45831 0.50469
 O22 O 0.03056 0.54925 0.51019
 Cu23 Cu -0.03031 0.50259 0.50342
 Cu24 Cu 0.03499 0.50386 0.50773
 C25 C 0.00367 0.56454 0.50876
 C26 C 0.00215 0.44204 0.50255
 C27 C 0.00095 0.50465 0.56644
 C28 C 0.00254 0.50184 0.44462
 O29 O 0.51439 0.02583 0.54296
 O30 O 0.51104 0.03048 0.45229
 O31 O 0.46728 0.02993 0.49765
 O32 O 0.55778 0.02720 0.49820
 O33 O 0.55452 -0.02733 0.49153
 O34 O 0.46375 -0.02453 0.48952
 O35 O 0.50818 -0.02403 0.44541
 O36 O 0.51022 -0.02858 0.53580
 Cu37 Cu 0.51288 0.03382 0.49841
 Cu38 Cu 0.50877 -0.03156 0.48987
 C39 C 0.51285 -0.00222 0.55499
 C40 C 0.50941 0.00395 0.43333
 C41 C 0.45002 0.00318 0.49354
 C42 C 0.57169 -0.00047 0.49511
 C43 C 0.46701 0.07280 -0.06726
 C44 C 0.46954 0.04791 -0.09171
 C45 C 0.48330 0.02146 -0.07681
 N46 N 0.48779 0.02892 -0.04376
 C47 C 0.47843 0.06052 -0.03800
 C48 C 0.49026 -0.00945 -0.09337
 C49 C 0.48525 -0.03829 -0.07634
 C50 C 0.46653 -0.06604 -0.08866
 C51 C 0.46794 -0.08827 -0.06480
 C52 C 0.48591 -0.07282 -0.03776
 N53 N 0.49589 -0.04204 -0.04464
 C54 C 0.49308 -0.08792 -0.00810
 C55 C 0.49978 -0.07007 0.02281
 C56 C 0.50561 -0.08425 0.05251
 C57 C 0.50695 -0.05885 0.07692
 C58 C 0.50229 -0.02994 0.06129
 N59 N 0.49804 -0.03693 0.02822
 C60 C 0.50174 0.00207 0.07768
 C61 C 0.49840 0.03147 0.06121
 C62 C 0.50390 0.06305 0.07655
 C63 C 0.49876 0.08485 0.05264
 C64 C 0.49011 0.06608 0.02329
 N65 N 0.48959 0.03358 0.02876
 C66 C 0.48220 0.07944 -0.00724
 H67 H 0.45755 0.09710 -0.07058
 H68 H 0.46127 0.04897 -0.11738
 H69 H 0.48114 0.01436 0.01181
 H70 H 0.45178 -0.06941 -0.11171
 H71 H 0.45586 -0.11253 -0.06658
 H72 H 0.50775 -0.11025 0.05633
 H73 H 0.51061 -0.06151 0.10319
 H74 H 0.50131 0.11153 0.05649
 H75 H 0.51155 -0.02565 -0.02970
 H76 H 0.51132 0.06973 0.10226
 C77 C -0.07176 0.50154 0.91790
 C78 C -0.09518 0.49866 0.94077
 C79 C -0.07835 0.49816 0.97135
 N80 N -0.04547 0.50039 0.96776
 C81 C -0.04132 0.50240 0.93514
 C82 C -0.09367 0.49655 1.00179
 C83 C -0.07648 0.49687 1.03317
 C84 C -0.09152 0.50069 1.06312
 C85 C -0.06697 0.50075 1.08769
 C86 C -0.03742 0.49702 1.07225
 N87 N -0.04354 0.49404 1.03898
 C88 C -0.00612 0.49663 1.08943
 C89 C 0.02458 0.49746 1.07447
 C90 C 0.05507 0.49796 1.09165
 C91 C 0.07849 0.50013 1.06866
 C92 C 0.06159 0.50087 1.03816
 N93 N 0.02871 0.49922 1.04184
 C94 C 0.07681 0.50216 1.00770
 C95 C 0.05963 0.50235 0.97641
 C96 C 0.07466 0.49888 0.94645
 C97 C 0.05018 0.49945 0.92195
 C98 C 0.02067 0.50328 0.93745
 N99 N 0.02673 0.50565 0.97070
 C100 C -0.01059 0.50400 0.92028
 H101 H -0.07667 0.50261 0.89152
 H102 H -0.12159 0.49722 0.93541
 H103 H 0.00980 0.51151 0.98829
 H104 H -0.11749 0.50370 1.06697
 H105 H -0.07054 0.50369 1.11400
 H106 H 0.06000 0.49711 1.11804
 H107 H 0.10494 0.50099 1.07384
 H108 H 0.05374 0.49673 0.89563
 H109 H -0.02658 0.48807 1.02144
 H110 H 0.10060 0.49572 0.94252
 C111 C 0.09622 -0.05197 0.52376
 C112 C 0.07248 -0.07645 0.52538
 C113 C 0.04272 -0.06324 0.51573
 N114 N 0.04748 -0.03166 0.50802
 C115 C 0.08019 -0.02467 0.51295
 C116 C 0.01219 -0.08099 0.51211
 C117 C -0.01832 -0.06603 0.50603
 C118 C -0.04753 -0.08313 0.49562
 C119 C -0.07160 -0.06003 0.49406
 C120 C -0.05646 -0.02946 0.50363
 N121 N -0.02402 -0.03337 0.51110
 C122 C -0.07311 0.00070 0.50671
 C123 C -0.05687 0.03211 0.51029
 C124 C -0.07229 0.06181 0.51683
 C125 C -0.04850 0.08641 0.51621
 C126 C -0.01933 0.07090 0.50936
 N127 N -0.02456 0.03774 0.50553
 C128 C 0.01078 0.08747 0.50415
 C129 C 0.04055 0.07105 0.49887
 C130 C 0.06833 0.08525 0.48649
 C131 C 0.09227 0.06191 0.48659
 C132 C 0.07865 0.03419 0.49947
 N133 N 0.04711 0.04002 0.50695
 C134 C 0.09601 0.00529 0.50581
 H135 H 0.12233 -0.05413 0.52970
 H136 H 0.07666 -0.10120 0.53268
 H137 H 0.03226 0.02525 0.52031
 H138 H -0.05116 -0.10953 0.48983
 H139 H -0.09738 -0.06520 0.48682
 H140 H -0.09808 0.06541 0.52121
 H141 H -0.05239 0.11271 0.51984
 H142 H 0.11702 0.06518 0.47838
 H143 H -0.00753 -0.01543 0.52241
 H144 H 0.07115 0.10992 0.47832
 C145 C -0.34296 0.49447 0.99633
 C146 C -0.36219 0.49230 0.96635
 C147 C -0.39666 0.49264 0.96637
 C148 C -0.41264 0.49523 0.99636
 C149 C -0.39337 0.49747 1.02630
 C150 C -0.35897 0.49709 1.02628
 C151 C -0.30633 0.49413 0.99649
 C152 C -0.28835 0.47653 1.01956
 C153 C -0.25389 0.47676 1.02026
 C154 C -0.23655 0.49460 0.99793
 C155 C -0.25452 0.51202 0.97471
 C156 C -0.28902 0.51174 0.97397
 C157 C -0.19987 0.49513 0.99898
 C158 C -0.18188 0.52457 0.99484
 C159 C -0.14739 0.52507 0.99589
 C160 C -0.13030 0.49614 1.00098
 C161 C -0.14804 0.46677 1.00527
 C162 C -0.18254 0.46624 1.00427
 H163 H -0.35060 0.48988 0.94287
 H164 H -0.41078 0.49081 0.94288
 H165 H -0.40486 0.49961 1.04986
 H166 H -0.34487 0.49932 1.04978
 H167 H -0.30097 0.46239 1.03698
 H168 H -0.24078 0.46334 1.03865
 H169 H -0.24191 0.52568 0.95693
 H170 H -0.30213 0.52577 0.95609
 H171 H -0.19447 0.54733 0.99124
 H172 H -0.13396 0.54797 0.99274
 H173 H -0.13514 0.44425 1.00920
 H174 H -0.19566 0.44312 1.00717
 C175 C 0.32490 0.49830 1.00183
 C176 C 0.34496 0.50130 1.03120
 C177 C 0.37929 0.50067 1.03019
 C178 C 0.39450 0.49718 0.99970
 C179 C 0.37426 0.49420 0.97027
 C180 C 0.33990 0.49467 0.97136
 C181 C 0.28843 0.49893 1.00303
 C182 C 0.26817 0.47664 0.98227
 C183 C 0.23384 0.47708 0.98360
 C184 C 0.21903 0.49996 1.00558
 C185 C 0.23929 0.52234 1.02625
 C186 C 0.27362 0.52176 1.02506
 C187 C 0.18257 0.50054 1.00684
 C188 C 0.16637 0.53081 1.00885
 C189 C 0.13199 0.53132 1.00946
 C190 C 0.11333 0.50162 1.00826
 C191 C 0.12931 0.47139 1.00657
 C192 C 0.16367 0.47083 1.00580
 H193 H 0.33407 0.50371 1.05506
 H194 H 0.39385 0.50295 1.05344
 H195 H 0.38489 0.49152 0.94628
 H196 H 0.32504 0.49266 0.94831
 H197 H 0.27890 0.45857 0.96528
 H198 H 0.21884 0.45976 0.96714
 H199 H 0.22857 0.54006 1.04362
 H200 H 0.28860 0.53943 1.04115
 H201 H 0.18025 0.55405 1.00929
 H202 H 0.11986 0.55482 1.01057
 H203 H 0.11511 0.44828 1.00559
 H204 H 0.17550 0.44718 1.00462
 C205 C 0.00633 -0.33050 0.51259
 C206 C 0.03553 -0.34798 0.51637
 C207 C 0.03464 -0.38253 0.51510
 C208 C 0.00442 -0.40065 0.51035
 C209 C -0.02488 -0.38308 0.50702
 C210 C -0.02390 -0.34849 0.50797
 C211 C 0.00750 -0.29370 0.51315
 C212 C -0.01724 -0.27488 0.52781
 C213 C -0.01615 -0.24035 0.52807
 C214 C 0.00982 -0.22373 0.51387
 C215 C 0.03467 -0.24255 0.49944
 C216 C 0.03343 -0.27706 0.49892
 C217 C 0.01084 -0.18700 0.51374
 C218 C 0.02227 -0.17160 0.48632
 C219 C 0.02309 -0.13716 0.48604
 C220 C 0.01225 -0.11747 0.51299
 C221 C 0.00080 -0.13252 0.54038
 C222 C 0.00024 -0.16698 0.54084
 H223 H 0.05919 -0.33495 0.52061
 H224 H 0.05778 -0.39496 0.51804
 H225 H -0.04865 -0.39599 0.50321
 H226 H -0.04684 -0.33589 0.50447
 H227 H -0.03737 -0.28680 0.53935
 H228 H -0.03593 -0.22670 0.53904
 H229 H 0.05529 -0.23062 0.48868
 H230 H 0.05267 -0.29072 0.48698
 H231 H 0.03006 -0.18618 0.46479
 H232 H 0.03177 -0.12581 0.46463
 H233 H -0.00761 -0.11753 0.56138
 H234 H -0.00820 -0.17791 0.56256
 C235 C 0.00282 0.33559 0.49949
 C236 C 0.03209 0.35416 0.49653
 C237 C 0.03179 0.38867 0.49744
 C238 C 0.00214 0.40540 0.50105
 C239 C -0.02723 0.38681 0.50368
 C240 C -0.02686 0.35225 0.50306
 C241 C 0.00343 0.29899 0.49933
 C242 C -0.01395 0.28227 0.52245
 C243 C -0.01255 0.24790 0.52297
 C244 C 0.00605 0.22949 0.50022
 C245 C 0.02309 0.24616 0.47683
 C246 C 0.02192 0.28057 0.47649
 C247 C 0.00787 0.19306 0.50108
 C248 C 0.00500 0.17229 0.47160
 C249 C 0.00625 0.13794 0.47255
 C250 C 0.01073 0.12390 0.50292
 C251 C 0.01390 0.14447 0.53235
 C252 C 0.01238 0.17879 0.53146
 H253 H 0.05537 0.34201 0.49414
 H254 H 0.05485 0.40224 0.49537
 H255 H -0.05046 0.39895 0.50652
 H256 H -0.04983 0.33852 0.50511
 H257 H -0.02816 0.29586 0.54052
 H258 H -0.02619 0.23565 0.54105
 H259 H 0.03779 0.23262 0.45915
 H260 H 0.03535 0.29279 0.45824
 H261 H 0.00116 0.18259 0.44790
 H262 H 0.00350 0.12224 0.44968
 H263 H 0.01723 0.13388 0.55597
 H264 H 0.01500 0.19421 0.55450
 C265 C 0.51554 -0.00788 -0.34088
 C266 C 0.51850 0.02287 -0.35443
 C267 C 0.51762 0.02478 -0.38875
 C268 C 0.51398 -0.00410 -0.41045
 C269 C 0.51137 -0.03491 -0.39672
 C270 C 0.51202 -0.03673 -0.36240
 C271 C 0.51544 -0.00978 -0.30444
 C272 C 0.49265 -0.03085 -0.29078
 C273 C 0.49172 -0.03192 -0.25648
 C274 C 0.51370 -0.01208 -0.23493
 C275 C 0.53688 0.00861 -0.24866
 C276 C 0.53766 0.00982 -0.28301
 C277 C 0.51142 -0.01225 -0.19839
 C278 C 0.51639 0.01693 -0.17765
 C279 C 0.51135 0.01708 -0.14379
 C280 C 0.49913 -0.01138 -0.12962
 C281 C 0.49868 -0.04136 -0.15001
 C282 C 0.50386 -0.04163 -0.18386
 H283 H 0.52085 0.04556 -0.33846
 H284 H 0.51971 0.04900 -0.39819
 H285 H 0.50863 -0.05776 -0.41243
 H286 H 0.51002 -0.06081 -0.35266
 H287 H 0.47490 -0.04590 -0.30663
 H288 H 0.47315 -0.04769 -0.24682
 H289 H 0.55457 0.02378 -0.23289
 H290 H 0.55582 0.02594 -0.29284
 H291 H 0.52353 0.03994 -0.18759
 H292 H 0.51722 0.03991 -0.12890
 H293 H 0.49513 -0.06516 -0.14063
 H294 H 0.50221 -0.06507 -0.19868
 C295 C 0.51046 0.00787 0.32738
 C296 C 0.51201 0.03719 0.34838
 C297 C 0.51146 0.03601 0.38275
 C298 C 0.50931 0.00547 0.39689
 C299 C 0.50760 -0.02382 0.37586
 C300 C 0.50818 -0.02263 0.34156
 C301 C 0.51101 0.00897 0.29083
 C302 C 0.52887 -0.01414 0.27189
 C303 C 0.52856 -0.01377 0.23743
 C304 C 0.51034 0.00968 0.22106
 C305 C 0.49286 0.03309 0.24004
 C306 C 0.49321 0.03275 0.27451
 C307 C 0.50871 0.00900 0.18430
 C308 C 0.47864 0.01405 0.16687
 C309 C 0.47665 0.01215 0.13229
 C310 C 0.50463 0.00514 0.11445
 C311 C 0.53484 0.00062 0.13162
 C312 C 0.53686 0.00247 0.16627
 H313 H 0.51414 0.06107 0.33825
 H314 H 0.51295 0.05902 0.39824
 H315 H 0.50585 -0.04777 0.38591
 H316 H 0.50642 -0.04565 0.32607
 H317 H 0.54315 -0.03253 0.28373
 H318 H 0.54202 -0.03234 0.22353
 H319 H 0.47887 0.05169 0.22822
 H320 H 0.47897 0.05070 0.28834
 H321 H 0.45643 0.01869 0.17995
 H322 H 0.45315 0.01567 0.11934
 H323 H 0.55670 -0.00461 0.11815
 H324 H 0.56046 -0.00110 0.17897
 C325 C 0.49132 -0.33688 -0.00577
 C326 C 0.48449 -0.35760 -0.03485
 C327 C 0.48486 -0.39196 -0.03415
 C328 C 0.49183 -0.40650 -0.00430
 C329 C 0.49858 -0.38587 0.02482
 C330 C 0.49843 -0.35143 0.02408
 C331 C 0.49099 -0.30029 -0.00666
 C332 C 0.47834 -0.28042 0.01938
 C333 C 0.47805 -0.24603 0.01848
 C334 C 0.49024 -0.23068 -0.00856
 C335 C 0.50274 -0.25058 -0.03467
 C336 C 0.50321 -0.28493 -0.03367
 C337 C 0.49034 -0.19407 -0.00934
 C338 C 0.51705 -0.17706 -0.02194
 C339 C 0.51753 -0.14261 -0.02202
 C340 C 0.49150 -0.12454 -0.00929
 C341 C 0.46460 -0.14126 0.00296
 C342 C 0.46398 -0.17576 0.00288
 H343 H 0.47834 -0.34726 -0.05814
 H344 H 0.47930 -0.40717 -0.05699
 H345 H 0.50418 -0.39631 0.04818
 H346 H 0.50429 -0.33620 0.04684
 H347 H 0.46835 -0.29145 0.04036
 H348 H 0.46864 -0.23142 0.03920
 H349 H 0.51197 -0.23963 -0.05605
 H350 H 0.51350 -0.29943 -0.05396
 H351 H 0.53795 -0.19030 -0.03108
 H352 H 0.53849 -0.12994 -0.03146
 H353 H 0.44425 -0.12754 0.01271
 H354 H 0.44280 -0.18811 0.01223
 C355 C 0.48176 0.32881 -0.00395
 C356 C 0.47529 0.34472 -0.03309
 C357 C 0.47719 0.37918 -0.03269
 C358 C 0.48534 0.39863 -0.00307
 C359 C 0.49141 0.38283 0.02619
 C360 C 0.48974 0.34828 0.02574
 C361 C 0.48067 0.29206 -0.00474
 C362 C 0.46797 0.27572 0.02145
 C363 C 0.46734 0.24115 0.02069
 C364 C 0.47933 0.22214 -0.00632
 C365 C 0.49173 0.23850 -0.03262
 C366 C 0.49252 0.27300 -0.03178
 C367 C 0.47958 0.18544 -0.00685
 C368 C 0.50640 0.16815 -0.01937
 C369 C 0.50693 0.13372 -0.01975
 C370 C 0.48077 0.11593 -0.00748
 C371 C 0.45393 0.13289 0.00507
 C372 C 0.45328 0.16740 0.00532
 H373 H 0.46846 0.33053 -0.05625
 H374 H 0.47206 0.39059 -0.05561
 H375 H 0.49783 0.39714 0.04938
 H376 H 0.49529 0.33682 0.04854
 H377 H 0.45831 0.28963 0.04247
 H378 H 0.45795 0.22935 0.04152
 H379 H 0.50075 0.22462 -0.05400
 H380 H 0.50287 0.28476 -0.05217
 H381 H 0.52731 0.18126 -0.02837
 H382 H 0.52793 0.12090 -0.02928
 H383 H 0.43356 0.11939 0.01461
 H384 H 0.43208 0.17992 0.01472
 C385 C -0.32220 -0.00246 0.49687
 C386 C -0.33826 0.02743 0.50341
 C387 C -0.37266 0.02802 0.50276
 C388 C -0.39185 -0.00129 0.49572
 C389 C -0.37585 -0.03123 0.48929
 C390 C -0.34139 -0.03180 0.48981
 C391 C -0.28559 -0.00292 0.49747
 C392 C -0.26850 -0.02882 0.51107
 C393 C -0.23403 -0.02888 0.51210
 C394 C -0.21585 -0.00301 0.49963
 C395 C -0.23296 0.02278 0.48588
 C396 C -0.26740 0.02279 0.48475
 C397 C -0.17920 -0.00268 0.50121
 C398 C -0.16157 0.00833 0.47492
 C399 C -0.12710 0.00937 0.47674
 C400 C -0.10968 -0.00068 0.50476
 C401 C -0.12702 -0.01199 0.53090
 C402 C -0.16151 -0.01292 0.52920
 H403 H -0.32421 0.05037 0.50949
 H404 H -0.38421 0.05148 0.50799
 H405 H -0.38994 -0.05421 0.48362
 H406 H -0.32979 -0.05516 0.48424
 H407 H -0.28175 -0.04882 0.52138
 H408 H -0.22161 -0.04931 0.52249
 H409 H -0.21971 0.04328 0.47641
 H410 H -0.27980 0.04288 0.47372
 H411 H -0.17442 0.01586 0.45282
 H412 H -0.11396 0.01796 0.45628
 H413 H -0.11381 -0.01977 0.55272
 H414 H -0.17431 -0.02108 0.55004
 C415 C 0.34431 0.00619 0.49499
 C416 C 0.36420 0.03287 0.50940
 C417 C 0.39855 0.03208 0.50849
 C418 C 0.41366 0.00433 0.49369
 C419 C 0.39373 -0.02243 0.47939
 C420 C 0.35934 -0.02135 0.47976
 C421 C 0.30797 0.00692 0.49624
 C422 C 0.28766 -0.00064 0.46748
 C423 C 0.25333 -0.00003 0.46875
 C424 C 0.23854 0.00757 0.49894
 C425 C 0.25907 0.01505 0.52773
 C426 C 0.29340 0.01497 0.52632
 C427 C 0.20193 0.00731 0.50048
 C428 C 0.18659 0.02973 0.52262
 C429 C 0.15229 0.02895 0.52447
 C430 C 0.13255 0.00615 0.50387
 C431 C 0.14766 -0.01594 0.48146
 C432 C 0.18196 -0.01560 0.48000
 H433 H 0.35312 0.05444 0.52112
 H434 H 0.41331 0.05299 0.51984
 H435 H 0.40472 -0.04410 0.46777
 H436 H 0.34447 -0.04230 0.46867
 H437 H 0.29839 -0.00656 0.44393
 H438 H 0.23842 -0.00520 0.44595
 H439 H 0.24868 0.02037 0.55153
 H440 H 0.30861 0.02054 0.54889
 H441 H 0.20102 0.04810 0.53837
 H442 H 0.14108 0.04622 0.54192
 H443 H 0.13284 -0.03371 0.46532
 H444 H 0.19281 -0.03367 0.46313
 C445 C 0.00189 0.50074 1.33845
 C446 C -0.02774 0.50199 1.35484
 C447 C -0.02746 0.50221 1.38926
 C448 C 0.00250 0.50128 1.40811
 C449 C 0.03218 0.49996 1.39173
 C450 C 0.03186 0.49960 1.35721
 C451 C 0.00136 0.50063 1.30188
 C452 C 0.02141 0.47929 1.28341
 C453 C 0.02025 0.47868 1.24887
 C454 C -0.00084 0.49953 1.23215
 C455 C -0.02065 0.52108 1.25065
 C456 C -0.01960 0.52158 1.28514
 C457 C -0.00231 0.49875 1.19552
 C458 C -0.00352 0.52836 1.17960
 C459 C -0.00495 0.52763 1.14508
 C460 C -0.00535 0.49731 1.12600
 C461 C -0.00424 0.46771 1.14166
 C462 C -0.00269 0.46841 1.17619
 H463 H -0.05124 0.50242 1.34098
 H464 H -0.05077 0.50317 1.40110
 H465 H 0.05565 0.49924 1.40557
 H466 H 0.05509 0.49893 1.34522
 H467 H 0.03759 0.46269 1.29565
 H468 H 0.03603 0.46207 1.23525
 H469 H -0.03734 0.53721 1.23841
 H470 H -0.03507 0.53852 1.29877
 H471 H -0.00287 0.55209 1.19386
 H472 H -0.00559 0.55065 1.13318
 H473 H -0.00449 0.44416 1.12711
 H474 H -0.00217 0.44523 1.18780
 C475 C -0.00237 0.50559 0.67236
 C476 C 0.02805 0.50450 0.65727
 C477 C 0.02922 0.50434 0.62287
 C478 C -0.00000 0.50528 0.60288
 C479 C -0.03037 0.50657 0.61802
 C480 C -0.03153 0.50676 0.65236
 C481 C -0.00380 0.50532 0.70881
 C482 C -0.02851 0.48657 0.72259
 C483 C -0.03012 0.48649 0.75689
 C484 C -0.00704 0.50514 0.77818
 C485 C 0.01773 0.52382 0.76442
 C486 C 0.01934 0.52390 0.73010
 C487 C -0.00873 0.50499 0.81461
 C488 C -0.00292 0.53437 0.83511
 C489 C -0.00399 0.53410 0.86945
 C490 C -0.01097 0.50451 0.88379
 C491 C -0.01701 0.47518 0.86353
 C492 C -0.01594 0.47541 0.82919
 H493 H 0.05091 0.50321 0.67202
 H494 H 0.05299 0.50323 0.61193
 H495 H -0.05334 0.50745 0.60335
 H496 H -0.05529 0.50814 0.66329
 H497 H -0.04646 0.47170 0.70683
 H498 H -0.04966 0.47208 0.76674
 H499 H 0.03610 0.53812 0.78020
 H500 H 0.03848 0.53882 0.72022
 H501 H 0.00225 0.55759 0.82457
 H502 H 0.00080 0.55688 0.88490
 H503 H -0.02214 0.45212 0.87440
 H504 H -0.02010 0.45233 0.81409
   
