data_POSCAR
  _audit_creation_date              2014-09-24
  _audit_creation_method            'ToBaCCo'
  _symmetry_space_group_name_H-M    'P1'
  _symmetry_Int_Tables_number       1
  _symmetry_cell_setting            triclinic
  loop_
  _symmetry_equiv_pos_as_xyz
 x,y,z
_cell_length_a 41.1487
_cell_length_b 40.5192
_cell_length_c 41.1117
_cell_angle_alpha 89.875900
_cell_angle_beta 90.035100
_cell_angle_gamma 90.012500
loop_
  _atom_site_label
  _atom_site_type_symbol
  _atom_site_fract_x
  _atom_site_fract_y
  _atom_site_fract_z
C1 C 0.60156 0.64802 0.62499
 N2 N 0.60180 0.62458 0.64862
 C3 C 0.62535 0.60114 0.64891
 N4 N 0.64867 0.60116 0.62558
 C5 C 0.64843 0.62460 0.60196
 N6 N 0.62487 0.64803 0.60167
 C7 C 0.89969 0.35085 0.12502
 N8 N 0.89949 0.37429 0.14854
 C9 C 0.87600 0.39780 0.14869
 N10 N 0.85270 0.39785 0.12532
 C11 C 0.85289 0.37441 0.10179
 N12 N 0.87638 0.35091 0.10164
 C13 C 0.39861 0.14843 -0.12486
 N14 N 0.39834 0.12501 -0.14841
 C15 C 0.37479 0.10157 -0.14861
 N16 N 0.35149 0.10155 -0.12527
 C17 C 0.35175 0.12496 -0.10171
 N18 N 0.37531 0.14840 -0.10152
 C19 C 0.10038 0.85136 0.37458
 N20 N 0.12373 0.85134 0.39791
 C21 C 0.14725 0.87482 0.39768
 N22 N 0.14743 0.89833 0.37412
 C23 C 0.12408 0.89836 0.35078
 N24 N 0.10056 0.87487 0.35102
 N25 N 0.08674 0.17723 0.11066
 N26 N 0.07392 0.16364 0.13670
 C27 C 0.04754 0.18109 0.14558
 C28 C 0.04356 0.20709 0.12395
 C29 C 0.06900 0.20376 0.10210
 H30 H 0.03253 0.17544 0.16641
 H31 H 0.07419 0.21929 0.08135
 Cu32 Cu 0.09312 0.12456 0.15647
 Cu33 Cu 0.12545 0.15958 0.08973
 Cu34 Cu 0.16001 0.08984 0.12451
 N35 N 0.11277 0.08548 0.17579
 N36 N 0.13893 0.07206 0.16317
 C37 C 0.14745 0.04559 0.18104
 C38 C 0.12546 0.04209 0.20636
 C39 C 0.10377 0.06796 0.20216
 H40 H 0.16828 0.03020 0.17599
 H41 H 0.08286 0.07353 0.21704
 N42 N 0.17773 0.11148 0.08536
 N43 N 0.16463 0.13805 0.07217
 C44 C 0.18223 0.14689 0.04596
 C45 C 0.20770 0.12483 0.04237
 C46 C 0.20399 0.10272 0.06785
 H47 H 0.17672 0.16771 0.03046
 H48 H 0.21943 0.08191 0.07343
 H49 H 0.11891 0.11132 0.10474
 H50 H 0.14495 0.13804 0.13096
 N51 N 0.41266 0.82245 0.61018
 N52 N 0.42534 0.83587 0.63633
 C53 C 0.45173 0.81842 0.64528
 C54 C 0.45589 0.79264 0.62356
 C55 C 0.43054 0.79607 0.60159
 H56 H 0.46692 0.82424 0.66593
 H57 H 0.42523 0.78044 0.58100
 Cu58 Cu 0.40607 0.87486 0.65601
 Cu59 Cu 0.37389 0.84008 0.58920
 Cu60 Cu 0.33914 0.90958 0.62390
 N61 N 0.38636 0.91385 0.67525
 N62 N 0.36018 0.92726 0.66257
 C63 C 0.35157 0.95364 0.68043
 C64 C 0.37355 0.95708 0.70577
 C65 C 0.39531 0.93130 0.70162
 H66 H 0.33096 0.96927 0.67512
 H67 H 0.41595 0.92547 0.71682
 N68 N 0.32148 0.88804 0.58474
 N69 N 0.33465 0.86157 0.57158
 C70 C 0.31707 0.85279 0.54535
 C71 C 0.29154 0.87478 0.54172
 C72 C 0.29519 0.89680 0.56721
 H73 H 0.32264 0.83205 0.52986
 H74 H 0.27969 0.91753 0.57278
 H75 H 0.38030 0.88829 0.60423
 H76 H 0.35430 0.86139 0.63040
 N77 N 0.91338 0.67759 0.38938
 N78 N 0.92608 0.66419 0.36324
 C79 C 0.95239 0.68174 0.35425
 C80 C 0.95647 0.70759 0.37594
 C81 C 0.93116 0.70406 0.39792
 H82 H 0.96758 0.67597 0.33362
 H83 H 0.92582 0.71970 0.41848
 Cu84 Cu 0.90693 0.62508 0.34361
 Cu85 Cu 0.87472 0.65981 0.41040
 Cu86 Cu 0.84023 0.59008 0.37584
 N87 N 0.88733 0.58597 0.32442
 N88 N 0.86128 0.57241 0.33720
 C89 C 0.85280 0.54591 0.31944
 C90 C 0.87469 0.54258 0.29404
 C91 C 0.89628 0.56854 0.29805
 H92 H 0.83203 0.53043 0.32457
 H93 H 0.91712 0.57418 0.28307
 N94 N 0.82251 0.61161 0.41495
 N95 N 0.83560 0.63817 0.42806
 C96 C 0.81801 0.64692 0.45427
 C97 C 0.79257 0.62483 0.45794
 C98 C 0.79628 0.60278 0.43249
 H99 H 0.82352 0.66772 0.46971
 H100 H 0.78085 0.58196 0.42696
 H101 H 0.88136 0.61162 0.39545
 H102 H 0.85518 0.63833 0.36927
 N103 N 0.58697 0.32344 -0.11002
 N104 N 0.57392 0.33728 -0.13583
 C105 C 0.54755 0.31982 -0.14476
 C106 C 0.54377 0.29360 -0.12336
 C107 C 0.56934 0.29678 -0.10162
 H108 H 0.53213 0.32590 -0.16519
 H109 H 0.57497 0.28078 -0.08133
 Cu110 Cu 0.59269 0.37674 -0.15528
 Cu111 Cu 0.62589 0.34086 -0.08929
 Cu112 Cu 0.66068 0.41034 -0.12417
 N113 N 0.61302 0.41524 -0.17502
 N114 N 0.63953 0.42827 -0.16271
 C115 C 0.64837 0.45446 -0.18085
 C116 C 0.62623 0.45812 -0.20604
 C117 C 0.60413 0.43269 -0.20149
 H118 H 0.66953 0.46949 -0.17613
 H119 H 0.58300 0.42739 -0.21618
 N120 N 0.67849 0.38860 -0.08511
 N121 N 0.66528 0.36213 -0.07187
 C122 C 0.68294 0.35319 -0.04571
 C123 C 0.70856 0.37510 -0.04221
 C124 C 0.70488 0.39722 -0.06769
 H125 H 0.67735 0.33242 -0.03018
 H126 H 0.72041 0.41794 -0.07333
 H127 H 0.61965 0.38926 -0.10389
 H128 H 0.64479 0.36238 -0.13081
 C129 C -0.03098 0.28158 0.12455
 C130 C -0.00399 0.28497 0.10416
 C131 C 0.02025 0.26079 0.10394
 C132 C -0.07680 0.32734 0.12487
 C133 C -0.00946 0.22968 0.14459
 C134 C -0.03366 0.25389 0.14476
 C135 C -0.05592 0.30648 0.12474
 C136 C 0.01783 0.23280 0.12416
 H137 H -0.00163 0.30635 0.08846
 H138 H 0.04092 0.26428 0.08807
 H139 H -0.01239 0.20847 0.16032
 H140 H -0.05450 0.25099 0.16062
 C141 C 0.53073 0.71845 0.62422
 C142 C 0.51028 0.72180 0.59723
 C143 C 0.48596 0.74589 0.59697
 C144 C 0.57665 0.67280 0.62470
 C145 C 0.50249 0.76343 0.65081
 C146 C 0.52678 0.73931 0.65099
 C147 C 0.55572 0.69361 0.62447
 C148 C 0.48174 0.76704 0.62378
 H149 H 0.51316 0.70580 0.57634
 H150 H 0.47072 0.74799 0.57564
 H151 H 0.49993 0.77898 0.67199
 H152 H 0.54245 0.73689 0.67206
 C153 C 1.03103 0.78208 0.37523
 C154 C 1.01073 0.77856 0.40229
 C155 C 0.98649 0.75437 0.40255
 C156 C 1.07686 0.82785 0.37479
 C157 C 1.00280 0.73710 0.34858
 C158 C 1.02701 0.76131 0.34839
 C159 C 1.05597 0.80698 0.37499
 C160 C 0.98220 0.73330 0.37568
 H161 H 1.01367 0.79447 0.42323
 H162 H 0.97137 0.75213 0.42394
 H163 H 1.00017 0.72161 0.32736
 H164 H 1.04256 0.76387 0.32728
 C165 C 0.46934 0.21898 -0.12422
 C166 C 0.47296 0.24026 -0.15080
 C167 C 0.49713 0.26452 -0.15056
 C168 C 0.42351 0.17322 -0.12466
 C169 C 0.51421 0.24623 -0.09707
 C170 C 0.49001 0.22201 -0.09737
 C171 C 0.44441 0.19407 -0.12447
 C172 C 0.51809 0.26783 -0.12367
 H173 H 0.45711 0.23809 -0.17175
 H174 H 0.49943 0.28042 -0.17159
 H175 H 0.52962 0.24810 -0.07583
 H176 H 0.48739 0.20569 -0.07663
 C177 C 0.12470 -0.03237 0.28122
 C178 C 0.14633 -0.03486 0.25512
 C179 C 0.14660 -0.01070 0.23079
 C180 C 0.12427 -0.07813 0.32719
 C181 C 0.10353 0.01859 0.25864
 C182 C 0.10331 -0.00561 0.28292
 C183 C 0.12445 -0.05727 0.30624
 C184 C 0.12519 0.01638 0.23221
 H185 H 0.16298 -0.05551 0.25354
 H186 H 0.16351 -0.01348 0.21087
 H187 H 0.08681 0.03904 0.26081
 H188 H 0.08647 -0.00342 0.30306
 C189 C 0.62595 0.53209 -0.28131
 C190 C 0.60521 0.50484 -0.28348
 C191 C 0.60529 0.48077 -0.25905
 C192 C 0.62559 0.57770 -0.32744
 C193 C 0.64696 0.51117 -0.23017
 C194 C 0.64682 0.53520 -0.25463
 C195 C 0.62577 0.55690 -0.30642
 C196 C 0.62617 0.48363 -0.23205
 H197 H 0.58898 0.50216 -0.30407
 H198 H 0.58912 0.45989 -0.26157
 H199 H 0.66320 0.51444 -0.20974
 H200 H 0.66295 0.55625 -0.25268
 C201 C 0.37409 1.03120 0.78058
 C202 C 0.40095 1.01046 0.77654
 C203 C 0.40081 0.98636 0.75225
 C204 C 0.37451 1.07681 0.82649
 C205 C 0.34685 1.00369 0.73591
 C206 C 0.34706 1.02776 0.76023
 C207 C 0.37430 1.05602 0.80556
 C208 C 0.37374 0.98266 0.73160
 H209 H 0.42204 1.01295 0.79213
 H210 H 0.42205 0.97090 0.74961
 H211 H 0.32548 1.00151 0.72075
 H212 H 0.32610 1.04366 0.76318
 C213 C 0.87539 0.46826 0.21942
 C214 C 0.85509 0.46477 0.24648
 C215 C 0.85483 0.48890 0.27074
 C216 C 0.87579 0.42259 0.17356
 C217 C 0.89527 0.52015 0.24091
 C218 C 0.89546 0.49598 0.21669
 C219 C 0.87560 0.44341 0.19446
 C220 C 0.87493 0.51692 0.26828
 H221 H 0.83947 0.44337 0.24886
 H222 H 0.83903 0.48534 0.29145
 H223 H 0.91089 0.54140 0.23795
 H224 H 0.91124 0.49896 0.19579
 C225 C 0.28171 0.12493 -0.03154
 C226 C 0.27785 0.09748 -0.01122
 C227 C 0.25383 0.09742 0.01281
 C228 C 0.32713 0.12494 -0.07703
 C229 C 0.23739 0.15236 -0.00374
 C230 C 0.26145 0.15236 -0.02774
 C231 C 0.30643 0.12493 -0.05629
 C232 C 0.23326 0.12487 0.01687
 H233 H 0.29338 0.07607 -0.01399
 H234 H 0.25130 0.07571 0.02794
 H235 H 0.22229 0.17405 -0.00127
 H236 H 0.26426 0.17377 -0.04331
 C237 C 0.71854 0.62470 0.53184
 C238 C 0.72227 0.59739 0.51144
 C239 C 0.74631 0.59739 0.48742
 C240 C 0.67308 0.62462 0.57729
 C241 C 0.76300 0.65214 0.50413
 C242 C 0.73894 0.65207 0.52812
 C243 C 0.69380 0.62465 0.55657
 C244 C 0.76701 0.62479 0.48344
 H245 H 0.70664 0.57604 0.51414
 H246 H 0.74872 0.57578 0.47222
 H247 H 0.77820 0.67378 0.50173
 H248 H 0.73621 0.67339 0.54375
 C249 C 0.78278 0.37466 0.03158
 C250 C 0.76232 0.34736 0.02787
 C251 C 0.73820 0.34746 0.00390
 C252 C 0.82826 0.37448 0.07707
 C253 C 0.75499 0.40226 -0.01280
 C254 C 0.77907 0.40209 0.01120
 C255 C 0.80754 0.37456 0.05633
 C256 C 0.73421 0.37494 -0.01676
 H257 H 0.76502 0.32596 0.04349
 H258 H 0.72295 0.32587 0.00150
 H259 H 0.75258 0.42395 -0.02798
 H260 H 0.79475 0.42339 0.01390
 C261 C 0.21746 0.87478 0.46778
 C262 C 0.23791 0.84746 0.47149
 C263 C 0.26200 0.84743 0.49550
 C264 C 0.17194 0.87479 0.42234
 C265 C 0.24522 0.90213 0.51223
 C266 C 0.22117 0.90210 0.48819
 C267 C 0.19269 0.87478 0.44306
 C268 C 0.26597 0.87478 0.51620
 H269 H 0.23522 0.82614 0.45585
 H270 H 0.27724 0.82582 0.49789
 H271 H 0.24761 0.92374 0.52743
 H272 H 0.20549 0.92341 0.48549
   
