data_POSCAR
  _audit_creation_date              2014-09-24
  _audit_creation_method            'ToBaCCo'
  _symmetry_space_group_name_H-M    'P1'
  _symmetry_Int_Tables_number       1
  _symmetry_cell_setting            triclinic
  loop_
  _symmetry_equiv_pos_as_xyz
 x,y,z
_cell_length_a 40.8338
_cell_length_b 43.0859
_cell_length_c 42.5920
_cell_angle_alpha 87.798300
_cell_angle_beta 90.168300
_cell_angle_gamma 83.171400
loop_
  _atom_site_label
  _atom_site_type_symbol
  _atom_site_fract_x
  _atom_site_fract_y
  _atom_site_fract_z
N1 N 0.31337 0.21714 0.20496
 N2 N 0.29885 0.24379 0.19283
 C3 C 0.31555 0.25185 0.16709
 C4 C 0.34160 0.22880 0.16275
 C5 C 0.33944 0.20715 0.18723
 H6 H 0.30939 0.27291 0.15260
 H7 H 0.35611 0.18612 0.19232
 Cu8 Cu 0.25966 0.26529 0.21207
 Cu9 Cu 0.29855 0.19792 0.24356
 Cu10 Cu 0.23044 0.23647 0.27967
 N11 N 0.22176 0.28698 0.23314
 N12 N 0.21096 0.27585 0.25984
 C13 C 0.18522 0.29545 0.26965
 C14 C 0.17939 0.32015 0.24785
 C15 C 0.20295 0.31396 0.22492
 H16 H 0.17145 0.29169 0.29081
 H17 H 0.20619 0.32821 0.20396
 N18 N 0.25355 0.19635 0.29615
 N19 N 0.27998 0.18207 0.28275
 C20 C 0.29058 0.15579 0.29978
 C21 C 0.26965 0.15329 0.32494
 C22 C 0.24638 0.17928 0.32184
 H23 H 0.31159 0.13937 0.29399
 H24 H 0.22589 0.18531 0.33736
 H25 H 0.24957 0.21650 0.23936
 H26 H 0.27717 0.23914 0.26214
 N27 N 0.68289 -0.20555 0.20879
 N28 N 0.69603 -0.23229 0.19787
 C29 C 0.67846 -0.23882 0.17260
 C30 C 0.65320 -0.21466 0.16725
 C31 C 0.65696 -0.19389 0.19067
 H32 H 0.68353 -0.25957 0.15909
 H33 H 0.64143 -0.17241 0.19502
 Cu34 Cu 0.73484 -0.25571 0.21799
 Cu35 Cu 0.69861 -0.18871 0.24697
 Cu36 Cu 0.76721 -0.22982 0.28348
 N37 N 0.77461 -0.27761 0.23784
 N38 N 0.78628 -0.26792 0.26405
 C39 C 0.81299 -0.28745 0.27339
 C40 C 0.81878 -0.31054 0.25162
 C41 C 0.79395 -0.30344 0.22929
 H42 H 0.82748 -0.28446 0.29408
 H43 H 0.79020 -0.31631 0.20853
 N44 N 0.74449 -0.19072 0.29949
 N45 N 0.71799 -0.17538 0.28584
 C46 C 0.70777 -0.15017 0.30255
 C47 C 0.72904 -0.14947 0.32774
 C48 C 0.75210 -0.17539 0.32500
 H49 H 0.68674 -0.13328 0.29658
 H50 H 0.77272 -0.18259 0.34066
 H51 H 0.74712 -0.20821 0.24259
 H52 H 0.71968 -0.23079 0.26722
 N53 N 0.73043 0.22485 0.78809
 N54 N 0.74093 0.24940 0.80044
 C55 C 0.72396 0.25591 0.82699
 C56 C 0.70206 0.23398 0.83159
 C57 C 0.70688 0.21466 0.80645
 H58 H 0.72705 0.27519 0.84181
 H59 H 0.69346 0.19528 0.80130
 Cu60 Cu 0.77552 0.27035 0.78012
 Cu61 Cu 0.74627 0.20892 0.74813
 Cu62 Cu 0.80765 0.24557 0.71148
 N63 N 0.81115 0.28986 0.75990
 N64 N 0.82268 0.28067 0.73256
 C65 C 0.84611 0.29839 0.72323
 C66 C 0.84988 0.31972 0.74613
 C67 C 0.82734 0.31351 0.76915
 H68 H 0.85977 0.29538 0.70165
 H69 H 0.82292 0.32555 0.79083
 N70 N 0.78923 0.20962 0.69390
 N71 N 0.76534 0.19613 0.70760
 C72 C 0.75755 0.17293 0.68972
 C73 C 0.77778 0.17145 0.66380
 C74 C 0.79761 0.19501 0.66716
 H75 H 0.73885 0.15784 0.69527
 H76 H 0.81645 0.20125 0.65113
 H77 H 0.79274 0.22319 0.75171
 H78 H 0.76070 0.25031 0.72985
 N79 N 0.26728 -0.24505 0.79540
 N80 N 0.25355 -0.26758 0.81001
 C81 C 0.26986 -0.27554 0.83725
 C82 C 0.29484 -0.25665 0.83990
 C83 C 0.29236 -0.23754 0.81302
 H84 H 0.26377 -0.29342 0.85401
 H85 H 0.30790 -0.21969 0.80666
 Cu86 Cu 0.21528 -0.28395 0.79243
 Cu87 Cu 0.25187 -0.22703 0.75472
 Cu88 Cu 0.18403 -0.25554 0.72257
 N89 N 0.18447 -0.30566 0.76895
 N90 N 0.17325 -0.29491 0.74120
 C91 C 0.15235 -0.31392 0.73026
 C92 C 0.15002 -0.33789 0.75254
 C93 C 0.17079 -0.33182 0.77682
 H94 H 0.13914 -0.30982 0.70819
 H95 H 0.17543 -0.34535 0.79864
 N96 N 0.20572 -0.22173 0.70224
 N97 N 0.23233 -0.21165 0.71389
 C98 C 0.24174 -0.18914 0.69428
 C99 C 0.21982 -0.18464 0.66929
 C100 C 0.19731 -0.20573 0.67506
 H101 H 0.26255 -0.17637 0.69816
 H102 H 0.17654 -0.20937 0.66043
 H103 H 0.20395 -0.23490 0.76064
 H104 H 0.23090 -0.26590 0.74039
 N105 N 0.68794 -0.23252 0.79136
 N106 N 0.70644 -0.25594 0.80564
 C107 C 0.68993 -0.26677 0.83023
 C108 C 0.65953 -0.24893 0.83162
 C109 C 0.65915 -0.22732 0.80671
 H110 H 0.69965 -0.28570 0.84629
 H111 H 0.63941 -0.20912 0.80034
 Cu112 Cu 0.75065 -0.26973 0.79158
 Cu113 Cu 0.70282 -0.21041 0.75424
 Cu114 Cu 0.78038 -0.23749 0.72654
 N115 N 0.78774 -0.29073 0.76933
 N116 N 0.79852 -0.27862 0.74313
 C117 C 0.82401 -0.29797 0.73246
 C118 C 0.82967 -0.32356 0.75337
 C119 C 0.80617 -0.31809 0.77651
 H120 H 0.83780 -0.29315 0.71156
 H121 H 0.80267 -0.33295 0.79698
 N122 N 0.75271 -0.20129 0.70724
 N123 N 0.72284 -0.19134 0.71718
 C124 C 0.71029 -0.16653 0.69886
 C125 C 0.73349 -0.16061 0.67646
 C126 C 0.76003 -0.18304 0.68252
 H127 H 0.68637 -0.15339 0.70200
 H128 H 0.78298 -0.18588 0.66975
 H129 H 0.73459 -0.24814 0.73950
 H130 H 0.75217 -0.21891 0.76373
 N131 N 0.33108 0.21217 0.77683
 N132 N 0.31604 0.23819 0.78773
 C133 C 0.33415 0.24746 0.81129
 C134 C 0.36180 0.22595 0.81567
 C135 C 0.35912 0.20379 0.79338
 H136 H 0.32752 0.26799 0.82478
 H137 H 0.37626 0.18322 0.78940
 Cu138 Cu 0.27368 0.25685 0.77096
 Cu139 Cu 0.31315 0.19135 0.74191
 Cu140 Cu 0.23824 0.22548 0.71049
 N141 N 0.23176 0.27564 0.75331
 N142 N 0.21840 0.26378 0.72908
 C143 C 0.19003 0.28163 0.72116
 C144 C 0.18531 0.30580 0.74175
 C145 C 0.21215 0.30121 0.76189
 H146 H 0.17379 0.27703 0.70224
 H147 H 0.21703 0.31565 0.78117
 N148 N 0.26215 0.18670 0.69498
 N149 N 0.29090 0.17397 0.70653
 C150 C 0.30105 0.14817 0.69063
 C151 C 0.27742 0.14441 0.66819
 C152 C 0.25311 0.16915 0.67170
 H153 H 0.32373 0.13302 0.69529
 H154 H 0.23060 0.17404 0.65804
 H155 H 0.28648 0.23094 0.72187
 H156 H 0.26416 0.20680 0.75000
 N157 N 0.27847 -0.23950 0.21407
 N158 N 0.26435 -0.26152 0.20068
 C159 C 0.28204 -0.27120 0.17553
 C160 C 0.30850 -0.25405 0.17280
 C161 C 0.30540 -0.23404 0.19754
 H162 H 0.27557 -0.28871 0.15988
 H163 H 0.32155 -0.21680 0.20304
 Cu164 Cu 0.22316 -0.27429 0.21591
 Cu165 Cu 0.26081 -0.21988 0.25199
 Cu166 Cu 0.19358 -0.25015 0.28549
 N167 N 0.18913 -0.29436 0.23744
 N168 N 0.17797 -0.28524 0.26491
 C169 C 0.15497 -0.30332 0.27461
 C170 C 0.15148 -0.32483 0.25186
 C171 C 0.17346 -0.31840 0.22858
 H172 H 0.14151 -0.30069 0.29634
 H173 H 0.17787 -0.33049 0.20692
 N174 N 0.21303 -0.21465 0.30264
 N175 N 0.23910 -0.20351 0.29035
 C176 C 0.24693 -0.18000 0.30784
 C177 C 0.22446 -0.17594 0.33198
 C178 C 0.20332 -0.19829 0.32797
 H179 H 0.26725 -0.16655 0.30325
 H180 H 0.18272 -0.20262 0.34270
 H181 H 0.24057 -0.25944 0.26721
 H182 H 0.21222 -0.22766 0.24676
 N183 N 0.71004 0.25975 0.22127
 N184 N 0.72039 0.28594 0.21076
 C185 C 0.70250 0.29686 0.18523
 C186 C 0.67987 0.27633 0.17933
 C187 C 0.68541 0.25298 0.20258
 H188 H 0.70641 0.31760 0.17134
 H189 H 0.67261 0.23248 0.20549
 Cu190 Cu 0.75759 0.30250 0.22978
 Cu191 Cu 0.72957 0.23641 0.25809
 Cu192 Cu 0.79748 0.26370 0.29159
 N193 N 0.79704 0.31594 0.24782
 N194 N 0.81212 0.30122 0.27236
 C195 C 0.83825 0.31578 0.28006
 C196 C 0.83975 0.34078 0.25897
 C197 C 0.81336 0.34010 0.23877
 H198 H 0.85525 0.30833 0.29914
 H199 H 0.80659 0.35613 0.21903
 N200 N 0.77904 0.22614 0.30777
 N201 N 0.75273 0.21608 0.29547
 C202 C 0.74576 0.19056 0.31227
 C203 C 0.76904 0.18409 0.33596
 C204 C 0.78975 0.20711 0.33242
 H205 H 0.72542 0.17743 0.30755
 H206 H 0.81073 0.21007 0.34706
 H207 H 0.74832 0.27328 0.27856
 H208 H 0.77601 0.24995 0.25099
 O209 O 0.21985 0.01954 0.46915
 O210 O 0.22225 -0.04386 0.52968
 O211 O 0.22096 0.01689 0.52998
 O212 O 0.22272 -0.04129 0.46855
 O213 O 0.27715 -0.04560 0.46868
 O214 O 0.27541 0.01225 0.53013
 O215 O 0.27668 -0.04817 0.53025
 O216 O 0.27429 0.01489 0.46887
 Cu217 Cu 0.21599 -0.01181 0.49933
 Cu218 Cu 0.28135 -0.01718 0.49950
 C219 C 0.24659 0.02809 0.45871
 C220 C 0.24979 -0.05667 0.54048
 C221 C 0.24794 0.02459 0.54041
 C222 C 0.25028 -0.05321 0.45800
 O223 O 0.77818 0.03464 0.53019
 O224 O 0.78055 -0.02514 0.47060
 O225 O 0.77649 0.03588 0.46929
 O226 O 0.78108 -0.02623 0.53153
 O227 O 0.72671 -0.02299 0.53201
 O228 O 0.72212 0.03920 0.46987
 O229 O 0.72614 -0.02142 0.47067
 O230 O 0.72384 0.03754 0.53130
 Cu231 Cu 0.78453 0.00446 0.50033
 Cu232 Cu 0.71923 0.00844 0.50101
 C233 C 0.75066 0.04616 0.54104
 C234 C 0.75378 -0.03345 0.46043
 C235 C 0.74851 0.04814 0.45898
 C236 C 0.75467 -0.03522 0.54236
 O237 O 0.48757 0.23056 0.02514
 O238 O 0.55718 0.23137 -0.02989
 O239 O 0.55094 0.22868 0.03119
 O240 O 0.49400 0.23041 -0.03583
 O241 O 0.48742 0.28206 -0.03673
 O242 O 0.54507 0.28031 0.03038
 O243 O 0.55105 0.28300 -0.03044
 O244 O 0.48138 0.28221 0.02389
 Cu245 Cu 0.52307 0.22509 -0.00229
 Cu246 Cu 0.51566 0.28707 -0.00337
 C247 C 0.47264 0.25634 0.03390
 C248 C 0.56596 0.25740 -0.03952
 C249 C 0.55762 0.25409 0.04236
 C250 C 0.48084 0.25642 -0.04762
 O251 O 0.51010 0.79312 0.02697
 O252 O 0.44155 0.79572 -0.03014
 O253 O 0.44659 0.79549 0.03120
 O254 O 0.50472 0.79631 -0.03419
 O255 O 0.51080 0.74466 -0.03358
 O256 O 0.45173 0.74387 0.03192
 O257 O 0.44694 0.74408 -0.02906
 O258 O 0.51581 0.74149 0.02717
 Cu259 Cu 0.47513 0.80032 -0.00160
 Cu260 Cu 0.48181 0.73835 -0.00083
 C261 C 0.52471 0.76678 0.03668
 C262 C 0.43269 0.77026 -0.03942
 C263 C 0.43930 0.76967 0.04283
 C264 C 0.51777 0.77075 -0.04501
 O265 O 0.03173 0.47591 0.19587
 O266 O -0.03769 0.53884 0.19693
 O267 O 0.02653 0.53675 0.19630
 O268 O -0.03248 0.47829 0.19766
 O269 O -0.03075 0.47638 0.24954
 O270 O 0.02794 0.53464 0.24818
 O271 O -0.03575 0.53740 0.24880
 O272 O 0.03298 0.47364 0.24774
 Cu273 Cu -0.00306 0.50763 0.19147
 Cu274 Cu -0.00122 0.50531 0.25376
 C275 C 0.04406 0.46390 0.22160
 C276 C -0.04852 0.54889 0.22303
 C277 C 0.03716 0.54574 0.22209
 C278 C -0.04170 0.46744 0.22392
 O279 O 0.03387 0.51396 0.80339
 O280 O -0.02620 0.45651 0.80246
 O281 O 0.03818 0.45334 0.80169
 O282 O -0.03039 0.51704 0.80329
 O283 O -0.03069 0.52037 0.75140
 O284 O 0.03709 0.45624 0.74981
 O285 O -0.02667 0.45936 0.75058
 O286 O 0.03294 0.51721 0.75152
 Cu287 Cu 0.00397 0.48487 0.80792
 Cu288 Cu 0.00310 0.48857 0.74563
 C289 C 0.04347 0.52554 0.77762
 C290 C -0.03664 0.44812 0.77635
 C291 C 0.04924 0.44389 0.77544
 C292 C -0.04207 0.52967 0.77756
 C293 C 0.39528 0.25587 0.09967
 C294 C 0.41591 0.22832 0.09367
 N295 N 0.41163 0.20140 0.10990
 C296 C 0.38779 0.20079 0.13206
 C297 C 0.36710 0.22836 0.13825
 N298 N 0.37133 0.25525 0.12166
 N299 N 0.39996 0.28291 0.08385
 C300 C 0.42445 0.28371 0.06237
 C301 C 0.44522 0.25615 0.05629
 N302 N 0.44025 0.22904 0.07210
 H303 H 0.38502 0.17894 0.14455
 H304 H 0.42768 0.30565 0.05022
 C305 C 0.60212 0.76331 0.10335
 C306 C 0.57952 0.79030 0.09885
 N307 N 0.58187 0.81524 0.11683
 C308 C 0.60571 0.81444 0.13930
 C309 C 0.62863 0.78742 0.14394
 N310 N 0.62621 0.76257 0.12552
 N311 N 0.59921 0.73804 0.08593
 C312 C 0.57461 0.73851 0.06425
 C313 C 0.55201 0.76561 0.05953
 N314 N 0.55518 0.79094 0.07696
 H315 H 0.60667 0.83486 0.15308
 H316 H 0.57282 0.71799 0.05076
 C317 C 0.64332 0.25879 -0.10521
 C318 C 0.62891 0.23130 -0.09857
 N319 N 0.63909 0.20512 -0.11425
 C320 C 0.66286 0.20521 -0.13652
 C321 C 0.67729 0.23274 -0.14340
 N322 N 0.66723 0.25887 -0.12732
 N323 N 0.63261 0.28516 -0.09000
 C324 C 0.60798 0.28535 -0.06854
 C325 C 0.59342 0.25784 -0.06184
 N326 N 0.60447 0.23140 -0.07701
 H327 H 0.67039 0.18396 -0.14864
 H328 H 0.59983 0.30676 -0.05689
 C329 C 0.35783 0.77059 -0.10823
 C330 C 0.36667 0.74411 -0.08846
 N331 N 0.35128 0.71815 -0.09178
 C332 C 0.32755 0.71740 -0.11415
 C333 C 0.31920 0.74362 -0.13452
 N334 N 0.33463 0.76963 -0.13095
 N335 N 0.37275 0.79675 -0.10455
 C336 C 0.39635 0.79758 -0.08209
 C337 C 0.40590 0.77084 -0.06274
 N338 N 0.39068 0.74470 -0.06644
 H339 H 0.31592 0.69630 -0.11643
 H340 H 0.40803 0.81868 -0.07986
 C341 C 0.12123 0.38908 0.22107
 C342 C 0.10413 0.39671 0.24879
 N343 N 0.11194 0.37942 0.27564
 C344 C 0.13602 0.35472 0.27606
 C345 C 0.15332 0.34699 0.24836
 N346 N 0.14548 0.36457 0.22151
 N347 N 0.11300 0.40605 0.19409
 C348 C 0.08837 0.43030 0.19354
 C349 C 0.07125 0.43812 0.22131
 N350 N 0.07972 0.42105 0.24832
 H351 H 0.14169 0.34149 0.29789
 H352 H 0.08230 0.44336 0.17166
 C353 C 0.10814 0.59534 0.77797
 C354 C 0.08986 0.59059 0.75100
 N355 N 0.09207 0.60934 0.72498
 C356 C 0.11159 0.63280 0.72465
 C357 C 0.13012 0.63775 0.75164
 N358 N 0.12793 0.61857 0.77761
 N359 N 0.10527 0.57704 0.80426
 C360 C 0.08482 0.55427 0.80484
 C361 C 0.06655 0.54937 0.77779
 N362 N 0.06971 0.56769 0.75145
 H363 H 0.11259 0.64717 0.70339
 H364 H 0.08291 0.54014 0.82617
 C365 C -0.12691 0.62239 0.22489
 C366 C -0.10537 0.61578 0.25062
 N367 N -0.10925 0.63367 0.27616
 C368 C -0.13368 0.65797 0.27720
 C369 C -0.15570 0.66460 0.25156
 N370 N -0.15165 0.64636 0.22605
 N371 N -0.12246 0.60501 0.19899
 C372 C -0.09738 0.58129 0.19765
 C373 C -0.07596 0.57435 0.22358
 N374 N -0.08064 0.59183 0.24952
 H375 H -0.13589 0.67156 0.29805
 H376 H -0.09438 0.56783 0.17670
 C377 C -0.10417 0.38098 0.77414
 C378 C -0.08502 0.38710 0.74784
 N379 N -0.08766 0.37079 0.72154
 C380 C -0.10856 0.34855 0.72025
 C381 C -0.12820 0.34244 0.74647
 N382 N -0.12543 0.35908 0.77278
 N383 N -0.10088 0.39676 0.80074
 C384 C -0.07927 0.41841 0.80222
 C385 C -0.06031 0.42487 0.77575
 N386 N -0.06380 0.40900 0.74913
 H387 H -0.10991 0.33618 0.69878
 H388 H -0.07713 0.43063 0.82373
 C389 C 0.24384 0.10107 0.38917
 C390 C 0.27298 0.08098 0.39535
 N391 N 0.30046 0.08477 0.37846
 C392 C 0.30013 0.10774 0.35560
 C393 C 0.27104 0.12809 0.34949
 N394 N 0.24359 0.12422 0.36661
 N395 N 0.21619 0.09692 0.40562
 C396 C 0.21632 0.07355 0.42801
 C397 C 0.24555 0.05353 0.43451
 N398 N 0.27325 0.05786 0.41796
 H399 H 0.32246 0.11023 0.34264
 H400 H 0.19389 0.07081 0.44077
 C401 C 0.75009 0.11283 0.61132
 C402 C 0.77772 0.10620 0.59214
 N403 N 0.80462 0.12137 0.59624
 C404 C 0.80521 0.14285 0.61875
 C405 C 0.77780 0.14917 0.63840
 N406 N 0.75086 0.13389 0.63412
 N407 N 0.72296 0.09810 0.60685
 C408 C 0.72223 0.07687 0.58411
 C409 C 0.75009 0.06970 0.56523
 N410 N 0.77721 0.08465 0.56978
 H411 H 0.82710 0.15438 0.62161
 H412 H 0.70031 0.06537 0.58116
 C413 C 0.24953 -0.12642 0.61304
 C414 C 0.22122 -0.11710 0.59469
 N415 N 0.19324 -0.13040 0.60051
 C416 C 0.19220 -0.15256 0.62398
 C417 C 0.22033 -0.16159 0.64283
 N418 N 0.24837 -0.14820 0.63679
 N419 N 0.27764 -0.11341 0.60692
 C420 C 0.27870 -0.09134 0.58334
 C421 C 0.25018 -0.08148 0.56529
 N422 N 0.22211 -0.09474 0.57149
 H423 H 0.16943 -0.16249 0.62820
 H424 H 0.30138 -0.08123 0.57911
 C425 C 0.75581 -0.10156 0.39142
 C426 C 0.72667 -0.08208 0.39757
 N427 N 0.69892 -0.08484 0.38082
 C428 C 0.69895 -0.10619 0.35813
 C429 C 0.72802 -0.12597 0.35207
 N430 N 0.75577 -0.12315 0.36904
 N431 N 0.78374 -0.09837 0.40772
 C432 C 0.78388 -0.07655 0.42995
 C433 C 0.75464 -0.05720 0.43642
 N434 N 0.72668 -0.06055 0.42001
 H435 H 0.67639 -0.10792 0.34528
 H436 H 0.80651 -0.07455 0.44260
 C437 C 0.58764 0.77352 -0.11769
 C438 C 0.58638 0.74619 -0.09890
 N439 N 0.60873 0.72084 -0.10336
 C440 C 0.63244 0.72161 -0.12565
 C441 C 0.63375 0.74895 -0.14454
 N442 N 0.61109 0.77420 -0.14013
 N443 N 0.56588 0.79915 -0.11274
 C444 C 0.54297 0.79880 -0.08968
 C445 C 0.54155 0.77146 -0.07082
 N446 N 0.56330 0.74570 -0.07606
 H447 H 0.64992 0.70105 -0.12864
 H448 H 0.52602 0.81965 -0.08616
 C449 C 0.41226 0.25515 -0.12189
 C450 C 0.43367 0.22832 -0.11310
 N451 N 0.43197 0.20141 -0.12827
 C452 C 0.40962 0.20004 -0.15177
 C453 C 0.38762 0.22671 -0.16022
 N454 N 0.38961 0.25368 -0.14499
 N455 N 0.41420 0.28216 -0.10696
 C456 C 0.43650 0.28350 -0.08340
 C457 C 0.45753 0.25647 -0.07404
 N458 N 0.45557 0.22950 -0.08928
 H459 H 0.40864 0.17818 -0.16320
 H460 H 0.43734 0.30528 -0.07175
 C461 C 0.37197 0.77020 0.11804
 C462 C 0.37878 0.74364 0.09997
 N463 N 0.36282 0.71824 0.10620
 C464 C 0.34021 0.71822 0.12959
 C465 C 0.33342 0.74474 0.14781
 N466 N 0.34969 0.77007 0.14160
 N467 N 0.38728 0.79590 0.11134
 C468 C 0.40905 0.79633 0.08730
 C469 C 0.41610 0.76973 0.06922
 N470 N 0.40081 0.74391 0.07616
 H471 H 0.32787 0.69763 0.13399
 H472 H 0.42085 0.81719 0.08247
 C473 C 0.62233 0.25161 0.12028
 C474 C 0.61329 0.27958 0.10273
 N475 N 0.62587 0.30601 0.11061
 C476 C 0.64724 0.30573 0.13520
 C477 C 0.65632 0.27776 0.15290
 N478 N 0.64343 0.25137 0.14498
 N479 N 0.61022 0.22505 0.11209
 C480 C 0.58945 0.22515 0.08708
 C481 C 0.58015 0.25317 0.06951
 N482 N 0.59231 0.27978 0.07792
 H483 H 0.65681 0.32719 0.14092
 H484 H 0.58016 0.20360 0.08111
 C485 C -0.11795 0.60529 0.77790
 C486 C -0.09738 0.60049 0.75181
 N487 N -0.10128 0.62091 0.72666
 C488 C -0.12482 0.64604 0.72638
 C489 C -0.14583 0.65086 0.75240
 N490 N -0.14178 0.63009 0.77748
 N491 N -0.11344 0.58538 0.80344
 C492 C -0.08916 0.56083 0.80408
 C493 C -0.06873 0.55574 0.77781
 N494 N -0.07348 0.57575 0.75223
 H495 H -0.12714 0.66174 0.70587
 H496 H -0.08604 0.54533 0.82475
 C497 C -0.11022 0.40134 0.22812
 C498 C -0.09080 0.40604 0.25434
 N499 N -0.09401 0.38911 0.28146
 C500 C -0.11587 0.36767 0.28358
 C501 C -0.13573 0.36321 0.25750
 N502 N -0.13237 0.38027 0.23036
 N503 N -0.10659 0.41789 0.20084
 C504 C -0.08443 0.43906 0.19861
 C505 C -0.06530 0.44420 0.22500
 N506 N -0.06903 0.42747 0.25227
 H507 H -0.11803 0.35467 0.30556
 H508 H -0.08212 0.45202 0.17661
 C509 C 0.12722 0.37040 0.77175
 C510 C 0.10685 0.37891 0.74549
 N511 N 0.11209 0.36317 0.71861
 C512 C 0.13689 0.33928 0.71676
 C513 C 0.15767 0.33098 0.74288
 N514 N 0.15225 0.34688 0.76977
 N515 N 0.12158 0.38571 0.79883
 C516 C 0.09647 0.40928 0.80084
 C517 C 0.07631 0.41821 0.77442
 N518 N 0.08209 0.40272 0.74733
 H519 H 0.14060 0.32729 0.69497
 H520 H 0.09256 0.42114 0.82269
 C521 C 0.10266 0.61458 0.22320
 C522 C 0.08694 0.60546 0.25070
 N523 N 0.09244 0.61922 0.27804
 C524 C 0.11297 0.64179 0.27916
 C525 C 0.12895 0.65090 0.25169
 N526 N 0.12339 0.63691 0.22435
 N527 N 0.09674 0.60112 0.19576
 C528 C 0.07575 0.57892 0.19458
 C529 C 0.06013 0.56956 0.22216
 N530 N 0.06624 0.58314 0.24959
 H531 H 0.11694 0.65221 0.30134
 H532 H 0.07145 0.56860 0.17239
 C533 C 0.75884 -0.10675 0.61353
 C534 C 0.72883 -0.08895 0.60525
 N535 N 0.70085 -0.09467 0.62043
 C536 C 0.70149 -0.11742 0.64355
 C537 C 0.73150 -0.13549 0.65176
 N538 N 0.75945 -0.12963 0.63639
 N539 N 0.78691 -0.10082 0.59867
 C540 C 0.78636 -0.07785 0.57581
 C541 C 0.75629 -0.06009 0.56722
 N542 N 0.72820 -0.06619 0.58224
 H543 H 0.67875 -0.12149 0.65509
 H544 H 0.80914 -0.07368 0.56434
 C545 C 0.25163 -0.11839 0.38614
 C546 C 0.22290 -0.11025 0.40345
 N547 N 0.19529 -0.12368 0.39723
 C548 C 0.19509 -0.14496 0.37448
 C549 C 0.22374 -0.15301 0.35687
 N550 N 0.25134 -0.13936 0.36316
 N551 N 0.27941 -0.10538 0.39274
 C552 C 0.27978 -0.08454 0.41589
 C553 C 0.25093 -0.07605 0.43308
 N554 N 0.22313 -0.08917 0.42631
 H555 H 0.17264 -0.15514 0.37000
 H556 H 0.30228 -0.07449 0.42059
 C557 C 0.74431 0.12026 0.38840
 C558 C 0.77354 0.11080 0.40537
 N559 N 0.80070 0.12533 0.39942
 C560 C 0.79997 0.14901 0.37730
 C561 C 0.77080 0.15847 0.36008
 N562 N 0.74365 0.14368 0.36606
 N563 N 0.71698 0.10610 0.39477
 C564 C 0.71753 0.08288 0.41740
 C565 C 0.74686 0.07315 0.43428
 N566 N 0.77421 0.08742 0.42771
 H567 H 0.82208 0.16003 0.37303
 H568 H 0.69537 0.07201 0.42199
 C569 C 0.24800 0.09331 0.60864
 C570 C 0.27706 0.07423 0.60143
 N571 N 0.30561 0.07801 0.61642
 C572 C 0.30648 0.10011 0.63828
 C573 C 0.27749 0.11959 0.64528
 N574 N 0.24891 0.11562 0.63017
 N575 N 0.21935 0.08927 0.59395
 C576 C 0.21845 0.06705 0.57222
 C577 C 0.24763 0.04818 0.56456
 N578 N 0.27627 0.05231 0.57947
 H579 H 0.32966 0.10268 0.64964
 H580 H 0.19529 0.06446 0.56078
   
