data_POSCAR
  _audit_creation_date              2014-09-24
  _audit_creation_method            'ToBaCCo'
  _symmetry_space_group_name_H-M    'P1'
  _symmetry_Int_Tables_number       1
  _symmetry_cell_setting            triclinic
  loop_
  _symmetry_equiv_pos_as_xyz
 x,y,z
_cell_length_a 26.2714
_cell_length_b 26.2678
_cell_length_c 26.2729
_cell_angle_alpha 89.995800
_cell_angle_beta 90.000000
_cell_angle_gamma 90.000600
loop_
  _atom_site_label
  _atom_site_type_symbol
  _atom_site_fract_x
  _atom_site_fract_y
  _atom_site_fract_z
N1 N 0.56470 0.70621 0.60409
 N2 N 0.54477 0.68541 0.64480
 C3 C 0.50346 0.71279 0.65878
 C4 C 0.49685 0.75495 0.62416
 C5 C 0.53666 0.74728 0.59101
 H6 H 0.47987 0.70418 0.69095
 H7 H 0.54462 0.77136 0.55902
 Cu8 Cu 0.57461 0.62501 0.67540
 Cu9 Cu 0.62509 0.67884 0.57106
 Cu10 Cu 0.67894 0.57116 0.62490
 N11 N 0.60519 0.56459 0.70521
 N12 N 0.64591 0.54379 0.68530
 C13 C 0.65897 0.50269 0.71334
 C14 C 0.62488 0.49475 0.75528
 C15 C 0.59121 0.53721 0.74658
 H16 H 0.69098 0.47864 0.70538
 H17 H 0.55904 0.54581 0.77013
 N18 N 0.70666 0.60454 0.56380
 N19 N 0.68620 0.64546 0.54334
 C20 C 0.71397 0.65886 0.50217
 C21 C 0.75469 0.62500 0.49531
 C22 C 0.74783 0.59114 0.53603
 H23 H 0.70586 0.69091 0.47823
 H24 H 0.77177 0.55909 0.54414
 H25 H 0.61464 0.60451 0.59437
 H26 H 0.65563 0.64549 0.63535
 N27 N 0.93533 0.29379 0.10411
 N28 N 0.95523 0.31456 0.14477
 C29 C 0.99675 0.28701 0.15876
 C30 C 1.00582 0.24427 0.12509
 C31 C 0.96353 0.25252 0.09105
 H32 H 1.02013 0.29584 0.19096
 H33 H 0.95537 0.22865 0.05901
 Cu34 Cu 0.92539 0.37499 0.17540
 Cu35 Cu 0.87491 0.32116 0.07106
 Cu36 Cu 0.82106 0.42884 0.12490
 N37 N 0.89481 0.43541 0.20521
 N38 N 0.85408 0.45621 0.18530
 C39 C 0.84103 0.49727 0.21335
 C40 C 0.87514 0.50387 0.25423
 C41 C 0.90880 0.46279 0.24654
 H42 H 0.80902 0.52136 0.20538
 H43 H 0.94096 0.45419 0.27013
 N44 N 0.79334 0.39546 0.06380
 N45 N 0.81380 0.35454 0.04334
 C46 C 0.78603 0.34114 0.00217
 C47 C 0.74531 0.37500 -0.00469
 C48 C 0.75217 0.40886 0.03603
 H49 H 0.79414 0.30909 -0.02177
 H50 H 0.72823 0.44091 0.04414
 H51 H 0.88536 0.39549 0.09437
 H52 H 0.84437 0.35451 0.13535
 N53 N 0.43530 0.20621 -0.10409
 N54 N 0.45523 0.18541 -0.14480
 C55 C 0.49656 0.21278 -0.15877
 C56 C 0.50403 0.25407 -0.12455
 C57 C 0.46332 0.24729 -0.09103
 H58 H 0.52014 0.20418 -0.19095
 H59 H 0.45539 0.27136 -0.05902
 Cu60 Cu 0.42539 0.12501 -0.17540
 Cu61 Cu 0.37491 0.17884 -0.07106
 Cu62 Cu 0.32106 0.07116 -0.12490
 N63 N 0.39481 0.06459 -0.20521
 N64 N 0.35408 0.04379 -0.18530
 C65 C 0.34103 0.00274 -0.21335
 C66 C 0.37548 -0.00416 -0.25394
 C67 C 0.40880 0.03721 -0.24654
 H68 H 0.30902 -0.02136 -0.20538
 H69 H 0.44096 0.04581 -0.27013
 N70 N 0.29334 0.10454 -0.06380
 N71 N 0.31380 0.14546 -0.04334
 C72 C 0.28603 0.15886 -0.00217
 C73 C 0.24532 0.12500 0.00469
 C74 C 0.25217 0.09114 -0.03603
 H75 H 0.29414 0.19091 0.02177
 H76 H 0.22823 0.05909 -0.04414
 H77 H 0.38536 0.10451 -0.09437
 H78 H 0.34437 0.14549 -0.13535
 N79 N 0.06470 0.79379 0.39591
 N80 N 0.04477 0.81459 0.35520
 C81 C 0.00341 0.78721 0.34121
 C82 C -0.00531 0.74478 0.37489
 C83 C 0.03666 0.75269 0.40897
 H84 H -0.02014 0.79582 0.30905
 H85 H 0.04462 0.72864 0.44098
 Cu86 Cu 0.07461 0.87499 0.32460
 Cu87 Cu 0.12509 0.82116 0.42894
 Cu88 Cu 0.17894 0.92884 0.37510
 N89 N 0.10519 0.93541 0.29479
 N90 N 0.14592 0.95621 0.31470
 C91 C 0.15897 0.99727 0.28665
 C92 C 0.12496 1.00389 0.24580
 C93 C 0.09120 0.96279 0.25346
 H94 H 0.19098 1.02136 0.29462
 H95 H 0.05904 0.95419 0.22987
 N96 N 0.20666 0.89546 0.43620
 N97 N 0.18620 0.85454 0.45666
 C98 C 0.21397 0.84114 0.49783
 C99 C 0.25461 0.87501 0.50477
 C100 C 0.24783 0.90886 0.46397
 H101 H 0.20586 0.80909 0.52177
 H102 H 0.27177 0.94091 0.45586
 H103 H 0.11464 0.89549 0.40563
 H104 H 0.15563 0.85451 0.36465
 N105 N 0.12473 0.12526 0.12493
 N106 N 0.37583 0.87518 0.62505
 N107 N 0.87483 0.62500 0.37541
 N108 N 0.62512 0.37487 -0.12465
 N109 N 0.04507 0.20497 0.12511
 N110 N 0.08219 0.16787 0.12494
 N111 N 0.45248 0.79436 0.62716
 N112 N 0.41705 0.83326 0.62396
 N113 N 0.95477 0.70480 0.37541
 N114 N 0.91740 0.66748 0.37415
 N115 N 0.54608 0.29580 -0.12564
 N116 N 0.58314 0.33306 -0.12555
 N117 N 0.12489 0.04603 0.20417
 N118 N 0.12495 0.08317 0.16698
 N119 N 0.62524 0.45464 -0.20492
 N120 N 0.62453 0.41784 -0.16704
 N121 N 0.37474 0.95421 0.70391
 N122 N 0.37450 0.91716 0.66671
 N123 N 0.87472 0.54623 0.29565
 N124 N 0.87550 0.58290 0.33328
 N125 N 0.20383 0.12508 0.04619
 N126 N 0.16677 0.12488 0.08320
 N127 N 0.79618 0.62500 0.45382
 N128 N 0.83321 0.62500 0.41676
 N129 N 0.70382 0.37500 -0.04618
 N130 N 0.66678 0.37501 -0.08320
 N131 N 0.29628 0.87491 0.54608
 N132 N 0.33325 0.87513 0.58324
   
