data_POSCAR
  _audit_creation_date              2014-09-24
  _audit_creation_method            'ToBaCCo'
  _symmetry_space_group_name_H-M    'P1'
  _symmetry_Int_Tables_number       1
  _symmetry_cell_setting            triclinic
  loop_
  _symmetry_equiv_pos_as_xyz
 x,y,z
_cell_length_a 43.3963
_cell_length_b 43.2657
_cell_length_c 43.4094
_cell_angle_alpha 90.436300
_cell_angle_beta 90.010100
_cell_angle_gamma 90.446200
loop_
  _atom_site_label
  _atom_site_type_symbol
  _atom_site_fract_x
  _atom_site_fract_y
  _atom_site_fract_z
C1 C 0.72406 0.67024 0.95816
 H2 H 0.74555 0.66785 0.94576
 C3 C 0.69913 0.68504 0.94432
 H4 H 0.70171 0.69407 0.92127
 C5 C 0.69383 0.65894 1.00215
 H6 H 0.69140 0.64797 1.02426
 C7 C 0.66846 0.67361 0.98929
 H8 H 0.64708 0.67436 1.00212
 N9 N 0.72080 0.65701 0.98630
 C10 C 0.80930 0.63537 1.02832
 H11 H 0.80422 0.61153 1.03386
 C12 C 0.83738 0.64846 1.03711
 H13 H 0.85361 0.63462 1.04987
 C14 C 0.79380 0.68231 1.00541
 H15 H 0.77669 0.69528 0.99297
 C16 C 0.82171 0.69645 1.01394
 H17 H 0.82599 0.72032 1.00784
 Zn18 Zn 0.75205 0.63049 1.00093
 N19 N 0.78838 0.65215 1.01238
 C20 C 0.79114 0.59837 0.96005
 N21 N 0.76130 0.60218 0.96876
 C22 C 0.73783 0.58850 0.95277
 C23 C 0.74401 0.57068 0.92646
 C24 C 0.79834 0.58045 0.93431
 C25 C 0.73620 0.62729 1.06253
 C26 C 0.72467 0.61478 1.08968
 C27 C 0.71706 0.56621 1.06293
 C28 C 0.72890 0.57981 1.03624
 N29 N 0.73762 0.60998 1.03643
 H30 H 0.80949 0.60995 0.97240
 H31 H 0.71426 0.59232 0.95985
 H32 H 0.72513 0.56047 0.91353
 H33 H 0.82220 0.57848 0.92731
 H34 H 0.74396 0.65111 1.06216
 H35 H 0.72548 0.62959 1.10979
 H36 H 0.70884 0.54270 1.06068
 H37 H 0.73036 0.56642 1.01517
 C38 C 0.84405 0.67929 1.02970
 C39 C 0.67059 0.68612 0.95963
 C40 C 0.71398 0.58374 1.09057
 C41 C 0.77464 0.56671 0.91689
 C42 C 0.72762 0.33056 0.52308
 H43 H 0.74941 0.33062 0.53520
 C44 C 0.70227 0.31464 0.53526
 H45 H 0.70480 0.30249 0.55681
 C46 C 0.69728 0.34840 0.48157
 H47 H 0.69502 0.36225 0.46114
 C48 C 0.67148 0.33276 0.49281
 H49 H 0.64992 0.33423 0.48037
 N50 N 0.72457 0.34743 0.49696
 C51 C 0.81460 0.36909 0.45740
 H52 H 0.81197 0.39387 0.45572
 C53 C 0.84116 0.35512 0.44613
 H54 H 0.85875 0.36932 0.43546
 C55 C 0.79418 0.32058 0.47259
 H56 H 0.77569 0.30730 0.48283
 C57 C 0.82043 0.30556 0.46146
 H58 H 0.82210 0.28071 0.46352
 Zn59 Zn 0.75722 0.37400 0.48474
 N60 N 0.79194 0.35185 0.47061
 C61 C 0.79792 0.39896 0.52946
 N62 N 0.76822 0.39854 0.51944
 C63 C 0.74571 0.41353 0.53530
 C64 C 0.75276 0.42982 0.56239
 C65 C 0.80600 0.41512 0.55619
 C66 C 0.74039 0.38384 0.42414
 C67 C 0.72824 0.39925 0.39890
 C68 C 0.72428 0.44540 0.43033
 C69 C 0.73664 0.42905 0.45505
 N70 N 0.74369 0.39863 0.45168
 H71 H 0.81537 0.38622 0.51718
 H72 H 0.72215 0.41233 0.52718
 H73 H 0.73459 0.44153 0.57483
 H74 H 0.82967 0.41462 0.56406
 H75 H 0.74649 0.35972 0.42206
 H76 H 0.72545 0.38689 0.37728
 H77 H 0.71763 0.46925 0.43368
 H78 H 0.73977 0.44045 0.47707
 C79 C 0.84444 0.32295 0.44818
 C80 C 0.67352 0.31624 0.52042
 C81 C 0.71935 0.43025 0.40197
 C82 C 0.78328 0.43068 0.57314
 C83 C 0.23120 -0.16777 0.02630
 H84 H 0.25264 -0.16732 0.03901
 C85 C 0.20567 -0.18378 0.03799
 H86 H 0.20772 -0.19562 0.05977
 C87 C 0.20185 -0.15082 -0.01629
 H88 H 0.20006 -0.13734 -0.03701
 C89 C 0.17590 -0.16657 -0.00556
 H90 H 0.15469 -0.16552 -0.01862
 N91 N 0.22870 -0.15129 -0.00013
 C92 C 0.31931 -0.12957 -0.03828
 H93 H 0.31679 -0.10478 -0.04002
 C94 C 0.34585 -0.14368 -0.04946
 H95 H 0.36354 -0.12956 -0.06007
 C96 C 0.29854 -0.17799 -0.02329
 H97 H 0.27990 -0.19120 -0.01323
 C98 C 0.32476 -0.19314 -0.03431
 H99 H 0.32624 -0.21801 -0.03233
 Zn100 Zn 0.26142 -0.12460 -0.01188
 N101 N 0.29645 -0.14672 -0.02530
 C102 C 0.30125 -0.09899 0.03326
 N103 N 0.27170 -0.09978 0.02285
 C104 C 0.24881 -0.08498 0.03833
 C105 C 0.25532 -0.06849 0.06543
 C106 C 0.30880 -0.08263 0.06003
 C107 C 0.24649 -0.11499 -0.07298
 C108 C 0.23465 -0.10002 -0.09862
 C109 C 0.22778 -0.05429 -0.06727
 C110 C 0.23999 -0.07027 -0.04223
 N111 N 0.24827 -0.10030 -0.04535
 H112 H 0.31901 -0.11158 0.02128
 H113 H 0.22538 -0.08649 0.02992
 H114 H 0.23685 -0.05692 0.07756
 H115 H 0.33237 -0.08283 0.06822
 H116 H 0.25390 -0.13874 -0.07497
 H117 H 0.23504 -0.11282 -0.12005
 H118 H 0.21977 -0.03117 -0.06263
 H119 H 0.24182 -0.05890 -0.02005
 C120 C 0.34890 -0.17588 -0.04753
 C121 C 0.17734 -0.18270 0.02233
 C122 C 0.22386 -0.06922 -0.09629
 C123 C 0.28568 -0.06724 0.07660
 C124 C 0.22060 0.17193 0.46234
 H125 H 0.24213 0.16942 0.45005
 C126 C 0.19590 0.18709 0.44848
 H127 H 0.19871 0.19624 0.42550
 C128 C 0.18999 0.16059 0.50607
 H129 H 0.18732 0.14947 0.52807
 C130 C 0.16485 0.17563 0.49318
 H131 H 0.14340 0.17649 0.50588
 N132 N 0.21704 0.15852 0.49037
 C133 C 0.30514 0.13607 0.53278
 H134 H 0.29982 0.11230 0.53840
 C135 C 0.33333 0.14892 0.54157
 H136 H 0.34940 0.13499 0.55441
 C137 C 0.29016 0.18304 0.50958
 H138 H 0.27324 0.19611 0.49700
 C139 C 0.31820 0.19694 0.51808
 H140 H 0.32274 0.22072 0.51181
 Zn141 Zn 0.24801 0.13163 0.50493
 N142 N 0.28444 0.15297 0.51669
 C143 C 0.28707 0.09923 0.46420
 N144 N 0.25720 0.10353 0.47257
 C145 C 0.23369 0.09037 0.45621
 C146 C 0.23987 0.07262 0.42986
 C147 C 0.29426 0.08135 0.43842
 C148 C 0.23132 0.12788 0.56641
 C149 C 0.21949 0.11488 0.59322
 C150 C 0.21273 0.06649 0.56575
 C151 C 0.22478 0.08047 0.53937
 N152 N 0.23328 0.11079 0.54010
 H153 H 0.30547 0.11036 0.47688
 H154 H 0.21011 0.09454 0.46306
 H155 H 0.22096 0.06285 0.41663
 H156 H 0.31816 0.07898 0.43170
 H157 H 0.23856 0.15186 0.56636
 H158 H 0.21805 0.12896 0.61389
 H159 H 0.20519 0.04260 0.56459
 H160 H 0.22677 0.06730 0.51822
 C161 C 0.34035 0.17964 0.53397
 C162 C 0.16729 0.18834 0.46362
 C163 C 0.20958 0.08392 0.59303
 C164 C 0.27053 0.06816 0.42063
 C165 C 0.17975 0.46437 0.21920
 H166 H 0.18025 0.45261 0.24110
 C167 C 0.19445 0.45138 0.19357
 H168 H 0.20627 0.42959 0.19603
 C169 C 0.16134 0.50560 0.18886
 H170 H 0.14759 0.52614 0.18670
 C171 C 0.17580 0.49356 0.16278
 H172 H 0.17360 0.50554 0.14109
 N173 N 0.16308 0.49068 0.21627
 C174 C 0.14201 0.52905 0.30695
 H175 H 0.11738 0.53096 0.30369
 C176 C 0.15530 0.53870 0.33459
 H177 H 0.14077 0.54852 0.35236
 C178 C 0.19072 0.51422 0.28729
 H179 H 0.20427 0.50452 0.26876
 C180 C 0.20509 0.52380 0.31470
 H181 H 0.22977 0.52128 0.31717
 Zn182 Zn 0.13726 0.50308 0.24922
 N183 N 0.15963 0.51667 0.28420
 C184 C 0.11701 0.45611 0.28877
 N185 N 0.11313 0.46811 0.26017
 C186 C 0.09505 0.45356 0.23882
 C187 C 0.08005 0.42574 0.24599
 C188 C 0.10272 0.42842 0.29677
 C189 C 0.12854 0.56382 0.23276
 C190 C 0.11342 0.58993 0.22212
 C191 C 0.06600 0.56031 0.22046
 C192 C 0.08208 0.53468 0.23131
 N193 N 0.11293 0.53677 0.23659
 H194 H 0.13208 0.46734 0.30522
 H195 H 0.09299 0.46309 0.21595
 H196 H 0.06622 0.41405 0.22864
 H197 H 0.10635 0.41919 0.31960
 H198 H 0.15304 0.56484 0.23731
 H199 H 0.12660 0.61089 0.21821
 H200 H 0.04153 0.55826 0.21594
 H201 H 0.07000 0.51311 0.23504
 C202 C 0.18718 0.53584 0.33892
 C203 C 0.19186 0.46560 0.16467
 C204 C 0.08181 0.58832 0.21545
 C205 C 0.08433 0.41264 0.27516
 C206 C -0.16617 0.02652 0.22750
 H207 H -0.16665 0.03721 0.25011
 C208 C -0.18270 0.03954 0.20325
 H209 H -0.19671 0.05947 0.20836
 C210 C -0.14732 -0.01266 0.19445
 H211 H -0.13259 -0.03231 0.19067
 C212 C -0.16349 -0.00057 0.16961
 H213 H -0.16009 -0.01141 0.14737
 N214 N -0.14867 0.00108 0.22265
 C215 C -0.12710 -0.04156 0.31072
 H216 H -0.10242 -0.04324 0.30769
 C217 C -0.14094 -0.05383 0.33690
 H218 H -0.12664 -0.06462 0.35414
 C219 C -0.17545 -0.02505 0.29184
 H220 H -0.18878 -0.01411 0.27400
 C221 C -0.19032 -0.03701 0.31783
 H222 H -0.21513 -0.03530 0.31972
 Zn223 Zn -0.12224 -0.01265 0.25440
 N224 N -0.14434 -0.02737 0.28894
 C225 C -0.09660 0.03087 0.29614
 N226 N -0.09696 0.02129 0.26623
 C227 C -0.08141 0.03715 0.24412
 C228 C -0.06468 0.06388 0.25178
 C229 C -0.08003 0.05724 0.30483
 C230 C -0.11442 -0.07284 0.23445
 C231 C -0.09968 -0.09844 0.22183
 C232 C -0.05217 -0.06893 0.22081
 C233 C -0.06790 -0.04378 0.23356
 N234 N -0.09861 -0.04603 0.23946
 H235 H -0.10978 0.01860 0.31328
 H236 H -0.08253 0.02935 0.22040
 H237 H -0.05256 0.07637 0.23391
 H238 H -0.08064 0.06484 0.32864
 H239 H -0.13876 -0.07405 0.23974
 H240 H -0.11280 -0.11947 0.21781
 H241 H -0.02796 -0.06649 0.21525
 H242 H -0.05571 -0.02236 0.23809
 C243 C -0.17298 -0.05176 0.34071
 C244 C -0.18118 0.02647 0.17331
 C245 C -0.06827 -0.09653 0.21429
 C246 C -0.06396 0.07425 0.28251
 C247 C 0.32968 0.52630 0.72659
 H248 H 0.32845 0.53649 0.74940
 C249 C 0.31336 0.53943 0.70225
 H250 H 0.29912 0.55941 0.70664
 C251 C 0.35073 0.48862 0.69294
 H252 H 0.36616 0.46955 0.68904
 C253 C 0.33482 0.50094 0.66803
 H254 H 0.33824 0.49102 0.64533
 N255 N 0.34814 0.50153 0.72150
 C256 C 0.36914 0.45916 0.80980
 H257 H 0.39394 0.45858 0.80737
 C258 C 0.35523 0.44629 0.83565
 H259 H 0.36957 0.43616 0.85324
 C260 C 0.32055 0.47348 0.78972
 H261 H 0.30719 0.48378 0.77152
 C262 C 0.30560 0.46088 0.81536
 H263 H 0.28070 0.46148 0.81666
 Zn264 Zn 0.37423 0.48796 0.75358
 N265 N 0.35180 0.47252 0.78757
 C266 C 0.39597 0.53301 0.79565
 N267 N 0.39845 0.52238 0.76620
 C268 C 0.41564 0.53779 0.74498
 C269 C 0.43104 0.56520 0.75308
 C270 C 0.41085 0.56025 0.80468
 C271 C 0.38284 0.42836 0.73286
 C272 C 0.39787 0.40290 0.72036
 C273 C 0.44554 0.43214 0.72149
 C274 C 0.42951 0.45718 0.73409
 N275 N 0.39858 0.45500 0.73884
 H276 H 0.38168 0.52095 0.81205
 H277 H 0.41666 0.52924 0.72152
 H278 H 0.44400 0.57761 0.73575
 H279 H 0.40842 0.56837 0.82820
 H280 H 0.35832 0.42718 0.73729
 H281 H 0.38478 0.38200 0.71554
 H282 H 0.46996 0.43449 0.71687
 H283 H 0.44165 0.47844 0.73946
 C284 C 0.32304 0.44690 0.83866
 C285 C 0.31623 0.52701 0.67237
 C286 C 0.42952 0.40474 0.71395
 C287 C 0.42829 0.57698 0.78318
 C288 C 0.68018 0.96643 0.72204
 H289 H 0.68043 0.95448 0.74384
 C290 C 0.69539 0.95377 0.69653
 H291 H 0.70734 0.93207 0.69900
 C292 C 0.66184 1.00771 0.69173
 H293 H 0.64790 1.02811 0.68950
 C294 C 0.67682 0.99602 0.66579
 H295 H 0.67483 1.00815 0.64416
 N296 N 0.66326 0.99256 0.71904
 C297 C 0.63924 1.02970 0.80946
 H298 H 0.61469 1.03118 0.80543
 C299 C 0.65145 1.03943 0.83755
 H300 H 0.63572 1.04940 0.85410
 C301 C 0.68873 1.01636 0.79110
 H302 H 0.70302 1.00702 0.77292
 C303 C 0.70212 1.02609 0.81896
 H304 H 0.72670 1.02327 0.82167
 Zn305 Zn 0.63650 1.00425 0.75151
 N306 N 0.65774 1.01799 0.78714
 C307 C 0.61650 0.95650 0.79021
 N308 N 0.61276 0.96876 0.76170
 C309 C 0.59513 0.95418 0.73999
 C310 C 0.58039 0.92611 0.74673
 C311 C 0.60248 0.92855 0.79777
 C312 C 0.62714 1.06496 0.73535
 C313 C 0.61184 1.09093 0.72466
 C314 C 0.56491 1.06062 0.72180
 C315 C 0.58117 1.03512 0.73272
 N316 N 0.61188 1.03763 0.73862
 H317 H 0.63124 0.96775 0.80694
 H318 H 0.59320 0.96392 0.71720
 H319 H 0.56688 0.91442 0.72913
 H320 H 0.60598 0.91913 0.82054
 H321 H 0.65153 1.06630 0.74040
 H322 H 0.62478 1.11212 0.72120
 H323 H 0.54056 1.05824 0.71680
 H324 H 0.56933 1.01335 0.73604
 C325 C 0.68342 1.03750 0.84317
 C326 C 0.69307 0.96817 0.66770
 C327 C 0.58039 1.08891 0.71736
 C328 C 0.58451 0.91277 0.77581
 C329 C 0.02253 0.22567 -0.16399
 H330 H 0.03459 0.24759 -0.16534
 C331 C 0.03439 0.19963 -0.17899
 H332 H 0.05565 0.20177 -0.19187
 C333 C -0.01858 0.19583 -0.14362
 H334 H -0.03874 0.19412 -0.12916
 C335 C -0.00760 0.16931 -0.15825
 H336 H -0.01995 0.14768 -0.15541
 N337 N -0.00330 0.22324 -0.14642
 C338 C -0.04088 0.31506 -0.12946
 H339 H -0.04243 0.31381 -0.10462
 C340 C -0.05164 0.34107 -0.14466
 H341 H -0.06175 0.35965 -0.13132
 C342 C -0.02669 0.29167 -0.17687
 H343 H -0.01712 0.27222 -0.18925
 C344 C -0.03737 0.31731 -0.19310
 H345 H -0.03563 0.31754 -0.21798
 Zn346 Zn -0.01526 0.25737 -0.12170
 N347 N -0.02841 0.29120 -0.14558
 C348 C 0.03026 0.29867 -0.09893
 N349 N 0.01929 0.26919 -0.09752
 C350 C 0.03405 0.24733 -0.08078
 C351 C 0.06095 0.25487 -0.06452
 C352 C 0.05683 0.30724 -0.08288
 C353 C -0.07621 0.24149 -0.11172
 C354 C -0.10227 0.23137 -0.09590
 C355 C -0.07212 0.23076 -0.04917
 C356 C -0.04666 0.24116 -0.06602
 N357 N -0.04901 0.24561 -0.09683
 H358 H 0.01889 0.31553 -0.11306
 H359 H 0.02519 0.22389 -0.08051
 H360 H 0.07250 0.23722 -0.05138
 H361 H 0.06547 0.33070 -0.08482
 H362 H -0.07739 0.24524 -0.13631
 H363 H -0.12247 0.22667 -0.10973
 H364 H -0.06904 0.22845 -0.02462
 H365 H -0.02498 0.24540 -0.05445
 C366 C -0.04989 0.34252 -0.17690
 C367 C 0.01959 0.17082 -0.17569
 C368 C -0.10083 0.22502 -0.06393
 C369 C 0.07263 0.28521 -0.06550
 C370 C 0.45413 0.22655 0.17944
 H371 H 0.44352 0.24904 0.17804
 C372 C 0.43948 0.20277 0.19564
 H373 H 0.41787 0.20734 0.20720
 C374 C 0.49435 0.19280 0.16472
 H375 H 0.51507 0.18851 0.15169
 C376 C 0.48060 0.16850 0.18067
 H377 H 0.49110 0.14589 0.17968
 N378 N 0.48083 0.22106 0.16401
 C379 C 0.52667 0.30741 0.13926
 H380 H 0.53047 0.30189 0.11522
 C381 C 0.53818 0.33498 0.15152
 H382 H 0.55062 0.35068 0.13661
 C383 C 0.50521 0.29365 0.18751
 H384 H 0.49249 0.27731 0.20139
 C385 C 0.51634 0.32117 0.20078
 H386 H 0.51228 0.32575 0.22499
 Zn387 Zn 0.49641 0.25131 0.13662
 N388 N 0.51037 0.28750 0.15717
 C389 C 0.45602 0.29164 0.10610
 N390 N 0.46414 0.26153 0.10925
 C391 C 0.44778 0.23845 0.09521
 C392 C 0.42183 0.24532 0.07744
 C393 C 0.43062 0.29952 0.08829
 C394 C 0.55660 0.23132 0.13238
 C395 C 0.58306 0.21906 0.11907
 C396 C 0.55614 0.21567 0.07040
 C397 C 0.53007 0.22806 0.08472
 N398 N 0.53070 0.23515 0.11529
 H399 H 0.46866 0.30965 0.11802
 H400 H 0.45441 0.21465 0.09851
 H401 H 0.40872 0.22673 0.06676
 H402 H 0.42414 0.32358 0.08670
 H403 H 0.55653 0.23758 0.15656
 H404 H 0.60343 0.21623 0.13315
 H405 H 0.55511 0.20943 0.04622
 H406 H 0.50930 0.23167 0.07151
 C407 C 0.53317 0.34219 0.18267
 C408 C 0.45244 0.17309 0.19586
 C409 C 0.58298 0.21072 0.08777
 C410 C 0.41297 0.27623 0.07396
 C411 C 0.95857 0.71967 0.67561
 H412 H 0.94693 0.74168 0.67502
 C413 C 0.94470 0.69445 0.69030
 H414 H 0.92237 0.69734 0.70101
 C415 C 1.00054 0.68855 0.66003
 H416 H 1.02181 0.68591 0.64745
 C417 C 0.98764 0.66289 0.67452
 H418 H 0.99965 0.64107 0.67350
 N419 N 0.98571 0.71613 0.66036
 C420 C 1.03046 0.80411 0.64004
 H421 H 1.03431 0.79978 0.61578
 C422 C 1.04192 0.83105 0.65363
 H423 H 1.05440 0.84747 0.63955
 C424 C 1.00879 0.78803 0.68748
 H425 H 0.99594 0.77106 0.70048
 C426 C 1.01981 0.81494 0.70207
 H427 H 1.01555 0.81844 0.72642
 Zn428 Zn 1.00014 0.74828 0.63453
 N429 N 1.01414 0.78333 0.65692
 C430 C 0.95898 0.79012 0.60738
 N431 N 0.96711 0.75987 0.60866
 C432 C 0.95046 0.73763 0.59364
 C433 C 0.92427 0.74554 0.57669
 C434 C 0.93333 0.79905 0.59046
 C435 C 1.06080 0.73033 0.62712
 C436 C 1.08718 0.71996 0.61213
 C437 C 1.05837 0.71785 0.56450
 C438 C 1.03245 0.72843 0.58045
 N439 N 1.03408 0.73406 0.61128
 H440 H 0.97189 0.80743 0.62002
 H441 H 0.95713 0.71367 0.59544
 H442 H 0.91100 0.72762 0.56512
 H443 H 0.92692 0.82319 0.59029
 H444 H 1.06144 0.73518 0.65160
 H445 H 1.10798 0.71645 0.62538
 H446 H 1.05676 0.71338 0.53997
 H447 H 1.01107 0.73199 0.56825
 C448 C 1.03672 0.83679 0.68504
 C449 C 0.95892 0.66537 0.68915
 C450 C 1.08618 0.71344 0.58043
 C451 C 0.91547 0.77664 0.57505
 C452 C 0.52629 0.73333 0.33234
 H453 H 0.53714 0.75588 0.33091
 C454 C 0.53859 0.70832 0.31602
 H455 H 0.55861 0.71195 0.30158
 C456 C 0.48775 0.70099 0.35388
 H457 H 0.46864 0.69787 0.36948
 C458 C 0.49925 0.67542 0.33799
 H459 H 0.48868 0.65299 0.34160
 N460 N 0.50150 0.72920 0.35105
 C461 C 0.46252 0.81963 0.37212
 H462 H 0.46164 0.81739 0.39692
 C463 C 0.45094 0.84602 0.35825
 H464 H 0.44047 0.86313 0.37310
 C465 C 0.47542 0.79814 0.32361
 H466 H 0.48496 0.77933 0.31026
 C467 C 0.46386 0.82415 0.30862
 H468 H 0.46580 0.82492 0.28381
 Zn469 Zn 0.48909 0.76211 0.37718
 N470 N 0.47476 0.79653 0.35484
 C471 C 0.53437 0.80340 0.40063
 N472 N 0.52372 0.77376 0.40132
 C473 C 0.53876 0.75165 0.41746
 C474 C 0.56553 0.75908 0.43396
 C475 C 0.56083 0.81186 0.41693
 C476 C 0.42894 0.74321 0.38724
 C477 C 0.40339 0.73216 0.40328
 C478 C 0.43363 0.73348 0.45004
 C479 C 0.45867 0.74465 0.43304
 N480 N 0.45600 0.74871 0.40212
 H481 H 0.52280 0.82048 0.38695
 H482 H 0.53013 0.72812 0.41716
 H483 H 0.57724 0.74124 0.44669
 H484 H 0.56919 0.83546 0.41561
 H485 H 0.42746 0.74683 0.36265
 H486 H 0.38239 0.72695 0.39075
 H487 H 0.43615 0.73003 0.47459
 H488 H 0.48024 0.74970 0.44451
 C489 C 0.45141 0.84897 0.32587
 C490 C 0.52534 0.67875 0.31917
 C491 C 0.40561 0.72683 0.43506
 C492 C 0.57684 0.78958 0.43380
 Si493 Si 0.35369 0.00571 0.25125
 Si494 Si 0.11744 1.00869 0.75542
 Si495 Si 0.61788 0.51326 0.25032
 Si496 Si 0.85539 0.50140 0.74691
 Si497 Si 0.24693 0.35854 0.00259
 Si498 Si 0.74749 0.12213 1.01316
 Si499 Si 0.25029 0.62302 0.50891
 Si500 Si 0.75002 0.86230 0.50548
 Si501 Si 0.00732 0.24752 0.35737
 Si502 Si 1.01262 0.74736 0.11554
 Si503 Si 0.51044 0.24747 0.61724
 Si504 Si 0.50843 0.74707 0.85738
 C505 C 0.41099 -0.07219 0.28455
 C506 C 0.41358 -0.09973 0.26776
 C507 C 0.42764 -0.12550 0.28091
 C508 C 0.43913 -0.12435 0.31144
 C509 C 0.43715 -0.09583 0.32753
 C510 C 0.42319 -0.07020 0.31424
 C511 C 0.39399 -0.04658 0.27236
 C512 C 0.37873 -0.02538 0.26323
 H513 H 0.40394 -0.10160 0.24479
 H514 H 0.42767 -0.14665 0.26751
 H515 H 0.44687 -0.09274 0.35028
 H516 H 0.42152 -0.04888 0.32739
 C517 C 0.91074 0.42173 0.77939
 C518 C 0.90640 0.39225 0.76648
 C519 C 0.92010 0.36651 0.78003
 C520 C 0.93812 0.36997 0.80679
 C521 C 0.94312 0.39983 0.81898
 C522 C 0.92948 0.42550 0.80539
 C523 C 0.89416 0.44776 0.76753
 C524 C 0.87940 0.46941 0.75863
 H525 H 0.89176 0.38905 0.74648
 H526 H 0.91559 0.34380 0.77030
 H527 H 0.95724 0.40328 0.83930
 H528 H 0.93295 0.44818 0.81561
 C529 C 0.06193 1.08853 0.78837
 C530 C 0.06180 1.11556 0.77083
 C531 C 0.04761 1.14224 0.78220
 C532 C 0.03336 1.14220 0.81131
 C533 C 0.03328 1.11475 0.82855
 C534 C 0.04748 1.08814 0.81715
 C535 C 0.07836 1.06177 0.77762
 C536 C 0.09309 1.03992 0.76881
 H537 H 0.07303 1.11614 0.74855
 H538 H 0.04782 1.16290 0.76827
 H539 H 0.02302 1.11407 0.85127
 H540 H 0.04770 1.06745 0.83105
 C541 C 0.56737 0.59681 0.28213
 C542 C 0.53529 0.59981 0.28154
 C543 C 0.52157 0.62679 0.29283
 C544 C 0.53980 0.65111 0.30486
 C545 C 0.57205 0.64803 0.30480
 C546 C 0.58569 0.62108 0.29352
 C547 C 0.58178 0.56881 0.27157
 C548 C 0.59510 0.54595 0.26303
 H549 H 0.52089 0.58122 0.27265
 H550 H 0.49670 0.62859 0.29227
 H551 H 0.58672 0.66604 0.31435
 H552 H 0.61055 0.61898 0.29412
 C553 C 0.56941 0.42810 0.21818
 C554 C 0.58706 0.40978 0.19835
 C555 C 0.57541 0.38168 0.18730
 C556 C 0.54582 0.37141 0.19586
 C557 C 0.52834 0.38971 0.21622
 C558 C 0.54009 0.41796 0.22729
 C559 C 0.58217 0.45689 0.22931
 C560 C 0.59486 0.48025 0.23799
 H561 H 0.60990 0.41724 0.19140
 H562 H 0.58966 0.36789 0.17211
 H563 H 0.50540 0.38251 0.22302
 H564 H 0.52629 0.43190 0.24276
 C565 C 0.07180 0.92189 0.72338
 C566 C 0.09000 0.90408 0.70359
 C567 C 0.07880 0.87612 0.69177
 C568 C 0.04911 0.86549 0.69952
 C569 C 0.03114 0.88316 0.71998
 C570 C 0.04243 0.91129 0.73181
 C571 C 0.08383 0.95090 0.73474
 C572 C 0.09577 0.97465 0.74342
 H573 H 0.11287 0.91192 0.69713
 H574 H 0.09337 0.86280 0.67648
 H575 H 0.00811 0.87565 0.72616
 H576 H 0.02819 0.92486 0.74721
 C577 C 0.91113 0.58432 0.72141
 C578 C 0.90980 0.61189 0.73848
 C579 C 0.92563 0.63825 0.72833
 C580 C 0.94300 0.63730 0.70096
 C581 C 0.94431 0.60937 0.68416
 C582 C 0.92852 0.58313 0.69433
 C583 C 0.89376 0.55751 0.73078
 C584 C 0.87885 0.53500 0.73772
 H585 H 0.89631 0.61309 0.75945
 H586 H 0.92433 0.65932 0.74187
 H587 H 0.95691 0.60797 0.66268
 H588 H 0.92949 0.56201 0.68079
 C589 C 0.40479 0.09250 0.22901
 C590 C 0.43641 0.09609 0.23440
 C591 C 0.45177 0.12285 0.22470
 C592 C 0.43569 0.14635 0.20941
 C593 C 0.40373 0.14288 0.20494
 C594 C 0.38843 0.11612 0.21465
 C595 C 0.38924 0.06415 0.23699
 C596 C 0.37563 0.04056 0.24301
 H597 H 0.44929 0.07799 0.24558
 H598 H 0.47632 0.12498 0.22877
 H599 H 0.39075 0.16027 0.19283
 H600 H 0.36395 0.11355 0.21028
 C601 C 0.28182 0.40633 -0.08102
 C602 C 0.30602 0.39148 -0.09623
 C603 C 0.31902 0.40447 -0.12257
 C604 C 0.30805 0.43262 -0.13413
 C605 C 0.28336 0.44719 -0.11900
 C606 C 0.27036 0.43412 -0.09253
 C607 C 0.26919 0.39273 -0.05358
 C608 C 0.25964 0.38008 -0.03083
 H609 H 0.31494 0.36987 -0.08764
 H610 H 0.33764 0.39242 -0.13398
 H611 H 0.27460 0.46900 -0.12721
 H612 H 0.25160 0.44579 -0.08093
 C613 C 0.78575 0.90949 0.42190
 C614 C 0.80901 0.89363 0.40624
 C615 C 0.82205 0.90606 0.37966
 C616 C 0.81206 0.93466 0.36829
 C617 C 0.78833 0.95029 0.38391
 C618 C 0.77528 0.93777 0.41062
 C619 C 0.77294 0.89631 0.44947
 C620 C 0.76316 0.88386 0.47224
 H621 H 0.81714 0.87162 0.41465
 H622 H 0.83989 0.89321 0.36788
 H623 H 0.78034 0.97246 0.37586
 H624 H 0.75725 0.95022 0.42256
 C625 C 0.78026 0.06990 1.09472
 C626 C 0.78534 0.03810 1.09444
 C627 C 0.79722 0.02359 1.12050
 C628 C 0.80448 0.04069 1.14756
 C629 C 0.79821 0.07275 1.14756
 C630 C 0.78636 0.08709 1.12142
 C631 C 0.76947 0.08524 1.06751
 C632 C 0.76069 0.09908 1.04522
 H633 H 0.78029 0.02447 1.07398
 H634 H 0.79996 -0.00119 1.11931
 H635 H 0.80398 0.08749 1.16696
 H636 H 0.78259 0.11182 1.12184
 C637 C 0.27968 0.57145 0.59218
 C638 C 0.27858 0.53922 0.59441
 C639 C 0.28961 0.52472 0.62088
 C640 C 0.30192 0.54232 0.64545
 C641 C 0.30227 0.57474 0.64321
 C642 C 0.29124 0.58916 0.61676
 C643 C 0.26973 0.58656 0.56453
 C644 C 0.26182 0.60022 0.54180
 H645 H 0.26957 0.52529 0.57557
 H646 H 0.28873 0.49974 0.62204
 H647 H 0.31203 0.58894 0.66145
 H648 H 0.29225 0.61414 0.61524
 C649 C 0.22416 0.56992 0.42452
 C650 C 0.19758 0.55146 0.42431
 C651 C 0.18623 0.53944 0.39656
 C652 C 0.20126 0.54584 0.36856
 C653 C 0.22865 0.56341 0.36910
 C654 C 0.23995 0.57549 0.39694
 C655 C 0.23361 0.58526 0.45254
 C656 C 0.24067 0.59932 0.47558
 H657 H 0.18513 0.54705 0.44549
 H658 H 0.16535 0.52558 0.39691
 H659 H 0.24057 0.56891 0.34790
 H660 H 0.26045 0.58995 0.39682
 C661 C 0.71911 0.07018 0.92879
 C662 C 0.73813 0.06920 0.90282
 C663 C 0.72683 0.05759 0.87477
 C664 C 0.69597 0.04711 0.87203
 C665 C 0.67759 0.04727 0.89900
 C666 C 0.68903 0.05875 0.92690
 C667 C 0.72941 0.08505 0.95676
 C668 C 0.73709 0.09879 0.97980
 H669 H 0.76145 0.07828 0.90398
 H670 H 0.74197 0.05874 0.85503
 H671 H 0.65438 0.03801 0.89906
 H672 H 0.67415 0.05916 0.94694
 C673 C 0.72546 0.92135 0.58625
 C674 C 0.74323 0.92113 0.61319
 C675 C 0.73315 0.93687 0.63959
 C676 C 0.70512 0.95302 0.63934
 C677 C 0.68771 0.95342 0.61195
 C678 C 0.69783 0.93772 0.58566
 C679 C 0.73448 0.90339 0.55973
 C680 C 0.74115 0.88764 0.53774
 H681 H 0.76463 0.90841 0.61393
 H682 H 0.74717 0.93630 0.66021
 H683 H 0.66574 0.96505 0.61109
 H684 H 0.68374 0.93780 0.56505
 C685 C 0.22316 0.41811 0.08320
 C686 C 0.19557 0.43456 0.08280
 C687 C 0.18580 0.45047 0.10910
 C688 C 0.20351 0.45019 0.13629
 C689 C 0.23148 0.43395 0.13634
 C690 C 0.24122 0.41800 0.10994
 C691 C 0.23185 0.39996 0.05671
 C692 C 0.23831 0.38407 0.03476
 H693 H 0.18125 0.43455 0.06234
 H694 H 0.16386 0.46218 0.10841
 H695 H 0.24574 0.43348 0.15680
 H696 H 0.26259 0.40522 0.11053
 C697 C -0.07440 0.28199 0.40908
 C698 C -0.07202 0.30906 0.42676
 C699 C -0.09830 0.32192 0.44013
 C700 C -0.12740 0.30790 0.43594
 C701 C -0.12945 0.28022 0.41880
 C702 C -0.10310 0.26741 0.40539
 C703 C -0.04767 0.27018 0.39341
 C704 C -0.02548 0.26086 0.37958
 H705 H -0.04993 0.32054 0.42977
 H706 H -0.09591 0.34298 0.45358
 H707 H -0.15155 0.26906 0.41491
 H708 H -0.10522 0.24652 0.39162
 C709 C 0.42916 0.78265 0.91204
 C710 C 0.43204 0.80961 0.92983
 C711 C 0.40607 0.82260 0.94370
 C712 C 0.37680 0.80885 0.93989
 C713 C 0.37426 0.78127 0.92265
 C714 C 0.40029 0.76832 0.90877
 C715 C 0.45542 0.77074 0.89568
 C716 C 0.47702 0.76116 0.88109
 H717 H 0.45426 0.82090 0.93252
 H718 H 0.40884 0.84359 0.95720
 H719 H 0.35203 0.77032 0.91900
 H720 H 0.39777 0.74753 0.89489
 C721 C 1.09535 0.77942 0.06363
 C722 C 1.09425 0.80747 0.04791
 C723 C 1.12081 0.81948 0.03416
 C724 C 1.14895 0.80358 0.03590
 C725 C 1.14977 0.77521 0.05150
 C726 C 1.12311 0.76322 0.06528
 C727 C 1.06830 0.76819 0.07930
 C728 C 1.04579 0.75950 0.09310
 H729 H 1.07298 0.82035 0.04674
 H730 H 1.11947 0.84166 0.02287
 H731 H 1.17099 0.76231 0.05304
 H732 H 1.12423 0.74152 0.07750
 C733 C 0.59227 0.27881 0.56354
 C734 C 0.59109 0.30707 0.54821
 C735 C 0.61739 0.31893 0.53386
 C736 C 0.64537 0.30268 0.53461
 C737 C 0.64628 0.27410 0.54984
 C738 C 0.61987 0.26225 0.56421
 C739 C 0.56553 0.26773 0.57981
 C740 C 0.54326 0.25922 0.59411
 H741 H 0.56994 0.32022 0.54779
 H742 H 0.61600 0.34127 0.52290
 H743 H 0.66738 0.26093 0.55062
 H744 H 0.62107 0.24039 0.57613
 C745 C 0.42703 0.21669 0.56543
 C746 C 0.42558 0.18724 0.55200
 C747 C 0.39756 0.17563 0.54084
 C748 C 0.37053 0.19329 0.54308
 C749 C 0.37241 0.22331 0.55562
 C750 C 0.40049 0.23488 0.56683
 C751 C 0.45502 0.22710 0.58011
 C752 C 0.47784 0.23536 0.59380
 H753 H 0.44593 0.17292 0.55087
 H754 H 0.39693 0.15262 0.53086
 H755 H 0.35197 0.23734 0.55790
 H756 H 0.40131 0.25763 0.57742
 C757 C 0.93013 0.71685 0.06215
 C758 C 0.92910 0.68761 0.04823
 C759 C 0.90129 0.67588 0.03668
 C760 C 0.87405 0.69321 0.03900
 C761 C 0.87552 0.72307 0.05198
 C762 C 0.90340 0.73476 0.06359
 C763 C 0.95785 0.72725 0.07734
 C764 C 0.98043 0.73544 0.09146
 H765 H 0.94960 0.67352 0.04706
 H766 H 0.90097 0.65301 0.02638
 H767 H 0.85491 0.73683 0.05433
 H768 H 0.90390 0.75734 0.07455
 C769 C 0.58987 0.71868 0.91272
 C770 C 0.61798 0.73446 0.90947
 C771 C 0.64424 0.72423 0.92500
 C772 C 0.64265 0.69807 0.94402
 C773 C 0.61419 0.68258 0.94728
 C774 C 0.58804 0.69283 0.93175
 C775 C 0.56316 0.72824 0.89568
 C776 C 0.54098 0.73584 0.88092
 H777 H 0.61967 0.75449 0.89471
 H778 H 0.66572 0.73678 0.92219
 H779 H 0.61227 0.66201 0.96123
 H780 H 0.56648 0.68029 0.93425
 C781 C 0.08730 0.22131 0.41578
 C782 C 0.11551 0.23700 0.41291
 C783 C 0.14149 0.22671 0.42885
 C784 C 0.13955 0.20058 0.44787
 C785 C 0.11097 0.18525 0.45084
 C786 C 0.08508 0.19556 0.43492
 C787 C 0.06101 0.23057 0.39796
 C788 C 0.03921 0.23765 0.38239
 H789 H 0.11750 0.25692 0.39805
 H790 H 0.16308 0.23913 0.42625
 H791 H 0.10878 0.16470 0.46478
 H792 H 0.06346 0.18307 0.43710
 C793 C 0.53967 0.16741 0.67378
 C794 C 0.53219 0.13748 0.66364
 C795 C 0.54447 0.11184 0.67858
 C796 C 0.56452 0.11585 0.70378
 C797 C 0.57105 0.14601 0.71443
 C798 C 0.55873 0.17161 0.69948
 C799 C 0.52944 0.19371 0.65660
 C800 C 0.52155 0.21548 0.64146
 H801 H 0.51757 0.13399 0.64366
 H802 H 0.53931 0.08896 0.66961
 H803 H 0.58609 0.14982 0.73402
 H804 H 0.56466 0.19467 0.70752
 C805 C 1.04144 0.66701 0.17191
 C806 C 1.03335 0.63712 0.16217
 C807 C 1.04553 0.61143 0.17711
 C808 C 1.06609 0.61537 0.20192
 C809 C 1.07324 0.64552 0.21218
 C810 C 1.06102 0.67116 0.19723
 C811 C 1.03129 0.69333 0.15470
 C812 C 1.02350 0.71515 0.13959
 H813 H 1.01833 0.63366 0.14248
 H814 H 1.03988 0.58854 0.16845
 H815 H 1.08869 0.64927 0.23146
 H816 H 1.06742 0.69420 0.20495
 C817 C 0.97525 0.82681 0.16880
 C818 C 0.94535 0.83543 0.16075
 C819 C 0.93135 0.86038 0.17552
 C820 C 0.94705 0.87711 0.19867
 C821 C 0.97722 0.86844 0.20653
 C822 C 0.99123 0.84336 0.19168
 C823 C 0.98918 0.80111 0.15310
 C824 C 0.99951 0.77954 0.13888
 H825 H 0.93286 0.82290 0.14294
 H826 H 0.90834 0.86682 0.16852
 H827 H 0.98978 0.88075 0.22441
 H828 H 1.01442 0.83687 0.19805
 C829 C 0.47364 0.32793 0.66935
 C830 C 0.44431 0.33723 0.66012
 C831 C 0.43019 0.36230 0.67452
 C832 C 0.44518 0.37849 0.69850
 C833 C 0.47485 0.36923 0.70747
 C834 C 0.48899 0.34400 0.69299
 C835 C 0.48756 0.30190 0.65416
 C836 C 0.49774 0.28005 0.64028
 H837 H 0.43232 0.32507 0.64171
 H838 H 0.40759 0.36922 0.66667
 H839 H 0.48686 0.38114 0.72599
 H840 H 0.51175 0.33699 0.70027
 C841 C 0.46950 0.66316 0.81172
 C842 C 0.48611 0.64279 0.79291
 C843 C 0.47259 0.61492 0.78301
 C844 C 0.44241 0.60708 0.79209
 C845 C 0.42577 0.62805 0.81044
 C846 C 0.43924 0.65583 0.82018
 C847 C 0.48363 0.69077 0.82405
 C848 C 0.49435 0.71362 0.83610
 H849 H 0.50963 0.64816 0.78638
 H850 H 0.48598 0.59913 0.76903
 H851 H 0.40232 0.62292 0.81734
 H852 H 0.42618 0.67141 0.83474
 C853 C -0.02242 0.15992 0.31169
 C854 C -0.01835 0.13315 0.32905
 C855 C -0.03094 0.10505 0.31898
 C856 C -0.04783 0.10334 0.29137
 C857 C -0.05088 0.13012 0.27346
 C858 C -0.03833 0.15831 0.28365
 C859 C -0.01211 0.18917 0.32403
 C860 C -0.00402 0.21306 0.33607
 H861 H -0.00610 0.13415 0.35079
 H862 H -0.02791 0.08473 0.33305
 H863 H -0.06404 0.12955 0.25227
 H864 H -0.04178 0.17894 0.27013
 C865 C 0.04436 0.32668 0.30405
 C866 C 0.07567 0.33280 0.30889
 C867 C 0.08879 0.36033 0.29852
 C868 C 0.07075 0.38223 0.28315
 C869 C 0.03957 0.37542 0.27717
 C870 C 0.02638 0.34780 0.28777
 C871 C 0.03061 0.30014 0.31849
 C872 C 0.02041 0.27850 0.33261
 H873 H 0.08977 0.31668 0.32154
 H874 H 0.11298 0.36479 0.30302
 H875 H 0.02519 0.39198 0.26549
 H876 H 0.00204 0.34339 0.28411
 C877 C 0.54508 0.82635 0.80398
 C878 C 0.52700 0.84744 0.78777
 C879 C 0.54005 0.87519 0.77733
 C880 C 0.57117 0.88216 0.78341
 C881 C 0.58933 0.86028 0.79866
 C882 C 0.57636 0.83261 0.80887
 C883 C 0.53146 0.79973 0.81840
 C884 C 0.52135 0.77806 0.83255
 H885 H 0.50269 0.84291 0.78408
 H886 H 0.52557 0.89174 0.76574
 H887 H 0.61347 0.86489 0.80325
 H888 H 0.59054 0.81652 0.82147
 C889 C 0.67198 0.54692 0.17004
 C890 C 0.68326 0.52714 0.14723
 C891 C 0.69752 0.53917 0.12096
 C892 C 0.70088 0.57158 0.11671
 C893 C 0.68942 0.59098 0.14063
 C894 C 0.67525 0.57876 0.16673
 C895 C 0.65576 0.53488 0.19628
 C896 C 0.64131 0.52570 0.21810
 H897 H 0.68098 0.50232 0.14968
 H898 H 0.70676 0.52251 0.10488
 H899 H 0.68934 0.61585 0.13899
 H900 H 0.66615 0.59433 0.18410
 C901 C 0.16750 1.04520 0.67380
 C902 C 0.18778 1.02736 0.65612
 C903 C 0.20156 1.03985 0.62980
 C904 C 0.19521 1.07037 0.62092
 C905 C 0.17475 1.08802 0.63888
 C906 C 0.16104 1.07552 0.66510
 C907 C 0.15260 1.03247 0.70047
 C908 C 0.13925 1.02253 0.72265
 H909 H 0.19288 1.00383 0.66264
 H910 H 0.21741 1.02580 0.61660
 H911 H 0.16895 1.11138 0.63237
 H912 H 0.14520 1.08944 0.67849
 C913 C 0.17727 0.97343 0.83028
 C914 C 0.18945 0.99142 0.85420
 C915 C 0.20543 0.97751 0.87838
 C916 C 0.20957 0.94495 0.87936
 C917 C 0.19732 0.92747 0.85426
 C918 C 0.18148 0.94156 0.83026
 C919 C 0.15914 0.98703 0.80627
 C920 C 0.14308 0.99684 0.78600
 H921 H 0.18650 1.01627 0.85428
 H922 H 0.21519 0.99294 0.89549
 H923 H 0.19781 0.90255 0.85344
 H924 H 0.17176 0.92733 0.81199
 C925 C 0.67293 0.47518 0.32738
 C926 C 0.66646 0.44428 0.33419
 C927 C 0.68163 0.42978 0.35836
 C928 C 0.70363 0.44598 0.37614
 C929 C 0.70999 0.47712 0.36922
 C930 C 0.69472 0.49163 0.34492
 C931 C 0.65663 0.48963 0.30259
 C932 C 0.64190 0.50019 0.28170
 H933 H 0.64949 0.43139 0.32089
 H934 H 0.67575 0.40600 0.36346
 H935 H 0.72696 0.49011 0.38237
 H936 H 0.69987 0.51559 0.33983
 C937 C 0.81069 0.47162 0.65933
 C938 C 0.82849 0.47629 0.63288
 C939 C 0.81900 0.46387 0.60463
 C940 C 0.79154 0.44654 0.60244
 C941 C 0.77319 0.44287 0.62891
 C942 C 0.78280 0.45525 0.65725
 C943 C 0.82249 0.48183 0.68870
 C944 C 0.83423 0.48992 0.71261
 H945 H 0.85013 0.48890 0.63424
 H946 H 0.83340 0.46738 0.58457
 H947 H 0.75208 0.42937 0.62795
 H948 H 0.76895 0.45134 0.67763
 C949 C 0.31131 -0.02544 0.16296
 C950 C 0.28361 -0.04209 0.16052
 C951 C 0.27459 -0.05479 0.13213
 C952 C 0.29336 -0.05115 0.10594
 C953 C 0.32064 -0.03357 0.10847
 C954 C 0.32953 -0.02084 0.13678
 C955 C 0.32244 -0.01481 0.19244
 C956 C 0.33356 -0.00635 0.21653
 H957 H 0.26942 -0.04595 0.18069
 H958 H 0.25362 -0.06848 0.13091
 H959 H 0.33534 -0.03007 0.08863
 H960 H 0.35102 -0.00801 0.13841
 C961 C 0.29945 0.02823 0.33499
 C962 C 0.27371 0.04753 0.33578
 C963 C 0.26299 0.05914 0.36397
 C964 C 0.27818 0.05179 0.39157
 C965 C 0.30305 0.03119 0.39063
 C966 C 0.31359 0.01950 0.36253
 C967 C 0.31381 0.02009 0.30623
 C968 C 0.32812 0.01396 0.28323
 H969 H 0.26277 0.05465 0.31458
 H970 H 0.24398 0.07521 0.36405
 H971 H 0.31499 0.02498 0.41158
 H972 H 0.33361 0.00469 0.36218
 C973 C 0.80310 0.52634 0.83127
 C974 C 0.81783 0.51826 0.85870
 C975 C 0.80750 0.53011 0.88681
 C976 C 0.78225 0.55024 0.88787
 C977 C 0.76654 0.55699 0.86041
 C978 C 0.77704 0.54521 0.83219
 C979 C 0.81695 0.51771 0.80239
 C980 C 0.83074 0.51097 0.77925
 H981 H 0.83807 0.50375 0.85824
 H982 H 0.81985 0.52436 0.90765
 H983 H 0.74723 0.57270 0.86057
 H984 H 0.76562 0.55179 0.81107
 C985 C 0.16689 0.67446 0.53877
 C986 C 0.16968 0.69953 0.55913
 C987 C 0.14336 0.71288 0.57192
 C988 C 0.11387 0.70124 0.56455
 C989 C 0.11125 0.67666 0.54329
 C990 C 0.13763 0.66331 0.53055
 C991 C 0.19404 0.65890 0.52799
 C992 C 0.21669 0.64515 0.51985
 H993 H 0.19222 0.70832 0.56566
 H994 H 0.14608 0.73206 0.58788
 H995 H 0.08890 0.66699 0.53744
 H996 H 0.13524 0.64378 0.51494
 C997 C 0.66387 0.16975 1.04818
 C998 C 0.64706 0.19133 1.03131
 C999 C 0.62055 0.20458 1.04399
 C1000 C 0.61065 0.19640 1.07373
 C1001 C 0.62763 0.17450 1.09032
 C1002 C 0.65402 0.16132 1.07762
 C1003 C 0.69107 0.15577 1.03551
 C1004 C 0.71378 0.14311 1.02591
 H1005 H 0.65448 0.19797 1.00845
 H1006 H 0.60810 0.22156 1.03079
 H1007 H 0.62032 0.16732 1.11303
 H1008 H 0.66674 0.14448 1.09078
 C1009 C 0.82357 0.18294 0.98035
 C1010 C 0.81911 0.19988 0.95357
 C1011 C 0.84392 0.21478 0.93942
 C1012 C 0.87428 0.21291 0.95153
 C1013 C 0.87777 0.19683 0.97974
 C1014 C 0.85278 0.18191 0.99371
 C1015 C 0.79867 0.16468 0.99258
 C1016 C 0.77799 0.14840 1.00162
 H1017 H 0.79642 0.20117 0.94324
 H1018 H 0.83855 0.22831 0.91936
 H1019 H 0.89998 0.19337 0.99032
 H1020 H 0.85651 0.16859 1.01440
 C1021 C 0.32880 0.68230 0.47896
 C1022 C 0.32382 0.70668 0.45862
 C1023 C 0.34884 0.72199 0.44520
 C1024 C 0.37920 0.71302 0.45190
 C1025 C 0.38399 0.68921 0.47324
 C1026 C 0.35891 0.67391 0.48661
 C1027 C 0.30313 0.66434 0.49000
 C1028 C 0.28180 0.64846 0.49823
 H1029 H 0.30060 0.71332 0.45250
 H1030 H 0.34445 0.74050 0.42917
 H1031 H 0.40705 0.68154 0.47857
 H1032 H 0.36300 0.65491 0.50217
 C1033 C 0.66207 0.81770 0.47609
 C1034 C 0.65999 0.78909 0.46092
 C1035 C 0.63193 0.77931 0.44808
 C1036 C 0.60574 0.79821 0.45009
 C1037 C 0.60789 0.82644 0.46623
 C1038 C 0.63586 0.83610 0.47911
 C1039 C 0.69133 0.82958 0.48658
 C1040 C 0.71531 0.84130 0.49464
 H1041 H 0.68020 0.77477 0.45827
 H1042 H 0.63102 0.75760 0.43553
 H1043 H 0.58802 0.84128 0.46847
 H1044 H 0.63722 0.85831 0.49076
 C1045 C 0.15857 0.31359 -0.02492
 C1046 C 0.15607 0.28462 -0.03935
 C1047 C 0.12776 0.27474 -0.05155
 C1048 C 0.10175 0.29390 -0.04965
 C1049 C 0.10432 0.32249 -0.03422
 C1050 C 0.13253 0.33223 -0.02196
 C1051 C 0.18805 0.32552 -0.01513
 C1052 C 0.21215 0.33734 -0.00761
 H1053 H 0.17613 0.27009 -0.04193
 H1054 H 0.12651 0.25275 -0.06358
 H1055 H 0.08460 0.33754 -0.03209
 H1056 H 0.13422 0.35471 -0.01087
 C1057 C 0.32936 0.30598 0.03138
 C1058 C 0.32913 0.27961 0.04989
 C1059 C 0.35669 0.26882 0.06253
 C1060 C 0.38462 0.28454 0.05701
 C1061 C 0.38473 0.31019 0.03734
 C1062 C 0.35728 0.32081 0.02463
 C1063 C 0.30105 0.31990 0.02156
 C1064 C 0.27842 0.33376 0.01377
 H1065 H 0.30760 0.26810 0.05543
 H1066 H 0.35594 0.24919 0.07785
 H1067 H 0.40597 0.32253 0.03249
 H1068 H 0.35771 0.34128 0.01039
 C1069 C 0.83199 0.80884 0.53396
 C1070 C 0.85996 0.82399 0.52816
 C1071 C 0.88733 0.81269 0.54042
 C1072 C 0.88711 0.78601 0.55869
 C1073 C 0.85912 0.77007 0.56330
 C1074 C 0.83164 0.78155 0.55111
 C1075 C 0.80379 0.82311 0.52438
 C1076 C 0.78127 0.83723 0.51670
 H1077 H 0.86049 0.84515 0.51495
 H1078 H 0.90861 0.82522 0.53626
 H1079 H 0.85830 0.74963 0.57753
 H1080 H 0.81008 0.76975 0.55589
   
