data_POSCAR
  _audit_creation_date              2014-09-24
  _audit_creation_method            'ToBaCCo'
  _symmetry_space_group_name_H-M    'P1'
  _symmetry_Int_Tables_number       1
  _symmetry_cell_setting            triclinic
  loop_
  _symmetry_equiv_pos_as_xyz
 x,y,z
_cell_length_a 35.4653
_cell_length_b 35.7813
_cell_length_c 10.5858
_cell_angle_alpha 90.085500
_cell_angle_beta 91.133100
_cell_angle_gamma 120.680300
loop_
  _atom_site_label
  _atom_site_type_symbol
  _atom_site_fract_x
  _atom_site_fract_y
  _atom_site_fract_z
C1 C 0.23166 0.54777 0.44680
 C2 C 0.24154 0.54651 0.57717
 C3 C 0.27550 0.53829 0.60969
 C4 C 0.29436 0.52452 0.51782
 C5 C 0.28282 0.52428 0.38852
 C6 C 0.25174 0.53555 0.35599
 H7 H 0.24545 0.53759 0.25639
 H8 H 0.28311 0.53693 0.70870
 C9 C 0.51778 -0.27575 0.40691
 C10 C 0.52077 -0.28392 0.53710
 C11 C 0.52034 -0.25591 0.62918
 C12 C 0.52147 -0.21699 0.59790
 C13 C 0.52249 -0.20689 0.46738
 C14 C 0.51846 -0.23709 0.37551
 H15 H 0.51851 -0.22870 0.27708
 H16 H 0.52167 -0.26373 0.72750
 C17 C 1.27950 0.80473 0.46084
 C18 C 1.27201 0.78661 0.58343
 C19 C 1.23090 0.75135 0.61069
 C20 C 1.19691 0.73308 0.51920
 C21 C 1.20235 0.75333 0.40001
 C22 C 1.24365 0.79007 0.37500
 H23 H 1.24903 0.80437 0.28218
 H24 H 1.22605 0.73659 0.70290
 C25 C 0.76567 0.47647 0.44329
 C26 C 0.76387 0.45793 0.56309
 C27 C 0.73119 0.45175 0.64701
 C28 C 0.69913 0.46206 0.61611
 C29 C 0.69770 0.47621 0.49168
 C30 C 0.73182 0.48468 0.40869
 H31 H 0.72972 0.49373 0.31222
 H32 H 0.73164 0.43966 0.74071
 C33 C 0.45823 0.26146 0.46210
 C34 C 0.45666 0.24959 0.59120
 C35 C 0.46299 0.21454 0.62011
 C36 C 0.47636 0.19534 0.52861
 C37 C 0.47995 0.20939 0.40173
 C38 C 0.47076 0.24184 0.37080
 H39 H 0.47190 0.25089 0.27252
 H40 H 0.46165 0.20483 0.71754
 C41 C 0.74210 0.22583 0.42195
 C42 C 0.73619 0.21124 0.54768
 C43 C 0.77125 0.23149 0.63573
 C44 C 0.81181 0.26816 0.60340
 C45 C 0.81731 0.28201 0.47524
 C46 C 0.78232 0.26100 0.38776
 H47 H 0.78695 0.27113 0.28996
 H48 H 0.76537 0.22063 0.73271
 O49 O 1.04282 0.62398 0.17092
 O50 O 1.09841 0.62416 0.06299
 C51 C 1.08332 0.64286 0.13356
 O52 O 0.97480 0.43091 0.27197
 O53 O 0.91363 0.41472 0.15206
 C54 C 0.93352 0.40684 0.24370
 O55 O 1.08753 0.52640 0.26331
 O56 O 1.12098 0.57880 0.11320
 C57 C 1.12127 0.56020 0.21781
 O58 O 0.92292 0.53383 0.18903
 O59 O 0.88942 0.46448 0.10663
 C60 C 0.88870 0.49516 0.17006
 Zr61 Zr 0.98860 0.55996 0.12571
 O62 O 0.98641 0.57363 0.31912
 O63 O 0.96844 0.60356 0.06668
 Zr64 Zr 1.02263 0.48939 0.19303
 O65 O 1.01754 0.50044 0.38677
 O66 O 1.04951 0.45060 0.24506
 O67 O 1.04299 0.55494 0.17599
 O68 O 0.96943 0.49801 0.18954
 O69 O 0.92078 0.50286 -0.25228
 O70 O 0.88802 0.44921 -0.10530
 C71 C 0.88717 0.46864 -0.20811
 O72 O 1.08526 0.49382 -0.18710
 O73 O 1.11972 0.56215 -0.09785
 C74 C 1.11986 0.53188 -0.16476
 O75 O 0.96717 0.40221 -0.15923
 O76 O 0.91018 0.40129 -0.05727
 C77 C 0.92630 0.38330 -0.12684
 O78 O 1.03814 0.58371 -0.29072
 O79 O 1.09616 0.60715 -0.15087
 C80 C 1.07901 0.60855 -0.25855
 Zr81 Zr 0.98608 0.53724 -0.18354
 O82 O 0.97844 0.52652 -0.38108
 O83 O 0.97060 0.58671 -0.20831
 Zr84 Zr 1.02030 0.46631 -0.11756
 O85 O 1.01666 0.44919 -0.31075
 O86 O 1.04483 0.42516 -0.06876
 Zr87 Zr 1.06647 0.56064 -0.00856
 Zr88 Zr 0.94211 0.46491 0.01703
 O89 O 0.96709 0.47257 -0.16601
 O90 O 1.03972 0.52812 -0.18241
 O91 O 0.94702 0.52476 -0.02642
 O92 O 1.06019 0.50048 0.03578
 O93 O 1.02175 0.58189 -0.04226
 O94 O 0.98696 0.44363 0.05043
 H95 H 0.95126 0.48802 0.26585
 H96 H 1.08697 0.49869 0.04876
 H97 H 0.94837 0.45349 -0.23653
 H98 H 1.03365 0.61279 -0.06410
 H99 H 1.03880 0.42688 0.18147
 H100 H 1.02150 0.39998 -0.02375
 H101 H 1.03006 0.47652 -0.35896
 H102 H 0.98250 0.50167 -0.39820
 H103 H 0.94099 0.57583 -0.17456
 H104 H 0.96624 0.61749 0.14492
 H105 H 1.01355 0.57773 0.36036
 H106 H 1.03846 0.53149 0.40603
 O107 O 0.54309 0.57450 -0.25414
 O108 O 0.48609 0.57797 -0.16803
 C109 C 0.51856 0.59159 -0.24466
 O110 O 0.43987 0.37958 -0.19864
 O111 O 0.48995 0.38474 -0.04857
 C112 C 0.46217 0.36480 -0.14102
 O113 O 0.40044 0.45612 -0.27263
 O114 O 0.41665 0.52036 -0.17689
 C115 C 0.39562 0.48948 -0.26032
 O116 O 0.58666 0.50140 -0.18207
 O117 O 0.56160 0.44408 -0.04607
 C118 C 0.58843 0.46943 -0.13078
 Zr119 Zr 0.54252 0.52339 -0.15229
 O120 O 0.55351 0.52165 -0.34750
 O121 O 0.60631 0.57751 -0.12306
 Zr122 Zr 0.43899 0.43759 -0.16671
 O123 O 0.44565 0.42829 -0.36074
 O124 O 0.37262 0.38660 -0.17490
 O125 O 0.47811 0.50351 -0.20614
 O126 O 0.50432 0.45629 -0.16142
 O127 O 0.57613 0.51684 0.25648
 O128 O 0.55533 0.45087 0.16405
 C129 C 0.57834 0.48172 0.24504
 O130 O 0.38751 0.47336 0.17895
 O131 O 0.41030 0.52808 0.03468
 C132 C 0.38489 0.50429 0.12356
 O133 O 0.42519 0.39412 0.23681
 O134 O 0.48437 0.39298 0.15797
 C135 C 0.45051 0.37789 0.22975
 O136 O 0.52734 0.58879 0.20364
 O137 O 0.48000 0.58524 0.04677
 C138 C 0.50524 0.60369 0.14482
 Zr139 Zr 0.53372 0.53425 0.15968
 O140 O 0.53256 0.54024 0.35824
 O141 O 0.59704 0.59049 0.15794
 Zr142 Zr 0.42962 0.44884 0.14604
 O143 O 0.42582 0.45312 0.34452
 O144 O 0.36306 0.39846 0.13536
 Zr145 Zr 0.46367 0.52596 -0.04035
 Zr146 Zr 0.50807 0.44559 0.03248
 O147 O 0.49381 0.46895 0.19664
 O148 O 0.46761 0.51637 0.15527
 O149 O 0.55937 0.51097 0.02593
 O150 O 0.41372 0.46023 -0.03261
 O151 O 0.53237 0.55854 -0.01649
 O152 O 0.43931 0.41237 0.01030
 H153 H 0.51275 0.44135 -0.22376
 H154 H 0.38275 0.45214 -0.04659
 H155 H 0.49832 0.45950 0.28068
 H156 H 0.54948 0.59060 -0.02375
 H157 H 0.36974 0.36362 -0.11716
 H158 H 0.36196 0.37319 0.09341
 H159 H 0.43171 0.48262 0.36534
 H160 H 0.50336 0.53545 0.37873
 H161 H 0.61715 0.58178 0.12292
 H162 H 0.61989 0.58467 -0.20715
 H163 H 0.53396 0.49152 -0.37814
 H164 H 0.45835 0.45701 -0.40129
 O165 O 0.47333 0.06941 0.19086
 O166 O 0.52787 0.11216 0.05471
 C167 C 0.50017 0.10667 0.14071
 O168 O 0.56035 -0.03924 0.25061
 O169 O 0.49899 -0.09650 0.15780
 C170 C 0.53240 -0.08040 0.23669
 O171 O 0.61042 0.07968 0.20990
 O172 O 0.59404 0.11703 0.06521
 C173 C 0.61724 0.11541 0.15871
 O174 O 0.41569 -0.05192 0.23690
 O175 O 0.43089 -0.10188 0.15279
 C176 C 0.40933 -0.09094 0.22666
 Zr177 Zr 0.46372 0.00669 0.15302
 O178 O 0.46545 0.01419 0.35186
 O179 O 0.40227 0.00262 0.13538
 Zr180 Zr 0.56307 0.01476 0.16252
 O181 O 0.56536 0.02124 0.36174
 O182 O 0.62723 0.02460 0.16529
 O183 O 0.53122 0.05026 0.16582
 O184 O 0.49723 -0.02505 0.19767
 O185 O 0.40567 -0.07492 -0.19390
 O186 O 0.42380 -0.11374 -0.05899
 C187 C 0.39864 -0.11106 -0.14524
 O188 O 0.59998 0.05518 -0.24885
 O189 O 0.58741 0.10524 -0.15268
 C190 C 0.60667 0.09431 -0.23466
 O191 O 0.54703 -0.06570 -0.18977
 O192 O 0.49306 -0.10866 -0.05191
 C193 C 0.52066 -0.10295 -0.13886
 O194 O 0.46556 0.04422 -0.26278
 O195 O 0.52465 0.10050 -0.15858
 C196 C 0.49453 0.08520 -0.24638
 Zr197 Zr 0.45707 -0.01080 -0.16138
 O198 O 0.44976 -0.02741 -0.35600
 O199 O 0.39734 -0.01092 -0.16907
 Zr200 Zr 0.55613 -0.00316 -0.15252
 O201 O 0.55217 -0.01782 -0.34767
 O202 O 0.62006 0.00618 -0.14039
 Zr203 Zr 0.53877 0.06534 -0.02759
 Zr204 Zr 0.48112 -0.06211 0.02957
 O205 O 0.48899 -0.04552 -0.16294
 O206 O 0.52322 0.02952 -0.19844
 O207 O 0.43557 -0.04102 0.01235
 O208 O 0.58367 0.04363 -0.01099
 O209 O 0.47008 0.03461 -0.02182
 O210 O 0.54997 -0.03190 0.02298
 H211 H 0.49048 -0.03994 0.28009
 H212 H 0.61541 0.06501 -0.01780
 H213 H 0.47800 -0.06891 -0.22803
 H214 H 0.45583 0.05204 -0.03451
 H215 H 0.62586 -0.00035 0.12048
 H216 H 0.61830 -0.01841 -0.09271
 H217 H 0.54195 -0.00012 -0.39148
 H218 H 0.47613 -0.00470 -0.39825
 H219 H 0.38039 -0.02714 -0.09486
 H220 H 0.39471 0.00691 0.22172
 H221 H 0.49304 0.04126 0.37506
 H222 H 0.55923 0.04457 0.38229
 N223 N 1.17009 0.59796 0.39403
 N224 N 1.19795 0.59251 0.46541
 C225 C 1.20578 0.56452 0.40222
 C226 C 1.18312 0.55457 0.28801
 N227 N 1.16136 0.57600 0.28635
 H228 H 1.17822 0.52977 0.21986
 N229 N 0.51217 0.67413 0.11442
 N230 N 0.51573 0.70679 0.18290
 C231 C 0.51504 0.69654 0.30628
 C232 C 0.51027 0.65543 0.30958
 N233 N 0.50939 0.64334 0.18905
 H234 H 0.50523 0.63455 0.38860
 N235 N 0.39170 -0.14144 0.39678
 N236 N 0.35776 -0.16871 0.46405
 C237 C 0.32241 -0.16773 0.41837
 C238 C 0.33605 -0.13888 0.31871
 N239 N 0.37935 -0.12322 0.30973
 H240 H 0.31685 -0.12979 0.25953
 N241 N 0.80931 0.45386 0.17151
 N242 N 0.77620 0.44789 0.24141
 C243 C 0.79335 0.47552 0.34093
 C244 C 0.83870 0.49940 0.32845
 N245 N 0.84713 0.48470 0.22112
 H246 H 0.86301 0.52410 0.39162
 N247 N 0.40585 0.32122 0.37915
 N248 N 0.40693 0.29014 0.44431
 C249 C 0.44449 0.29161 0.41467
 C250 C 0.46591 0.32390 0.32725
 N251 N 0.44092 0.34172 0.30834
 H252 H 0.49686 0.33378 0.28311
 N253 N 0.66550 0.19429 0.16161
 N254 N 0.69901 0.22470 0.22964
 C255 C 0.70737 0.20407 0.32299
 C256 C 0.67848 0.16009 0.30872
 N257 N 0.65277 0.15540 0.20811
 H258 H 0.67629 0.13400 0.36583
 N259 N 0.52157 0.12841 -0.43311
 N260 N 0.51828 0.15883 -0.49420
 C261 C 0.48897 0.16536 -0.43326
 C262 C 0.47520 0.13833 -0.32932
 N263 N 0.49547 0.11529 -0.33549
 H264 H 0.45228 0.13498 -0.25792
 N265 N 0.63249 0.43503 -0.11789
 N266 N 0.66225 0.43245 -0.18481
 C267 C 0.66926 0.45673 -0.28931
 C268 C 0.64336 0.47521 -0.28188
 N269 N 0.62094 0.46065 -0.17468
 H270 H 0.64124 0.49755 -0.34636
 N271 N 0.87328 0.30598 -0.11082
 N272 N 0.84140 0.27474 -0.18129
 C273 C 0.84346 0.29077 -0.29837
 C274 C 0.87805 0.33357 -0.29539
 N275 N 0.89619 0.34123 -0.17862
 H276 H 0.88643 0.35851 -0.36507
 N277 N 0.52243 -0.16939 -0.10862
 N278 N 0.52294 -0.20001 -0.17763
 C279 C 0.52209 -0.19036 -0.30103
 C280 C 0.52059 -0.15222 -0.30378
 N281 N 0.52154 -0.14024 -0.18288
 H282 H 0.51673 -0.13548 -0.38304
 N283 N 0.34747 0.46528 -0.44433
 N284 N 0.32005 0.47376 -0.50613
 C285 C 0.31980 0.50652 -0.44355
 C286 C 0.34747 0.51721 -0.33830
 N287 N 0.36462 0.49125 -0.34442
 H288 H 0.35533 0.54199 -0.26692
 N289 N 1.11037 0.62297 -0.46493
 N290 N 1.14220 0.65532 -0.52712
 C291 C 1.15888 0.69068 -0.45102
 C292 C 1.13775 0.67869 -0.33759
 N293 N 1.10733 0.63657 -0.35165
 H294 H 1.14401 0.69832 -0.25316
 N295 N 0.81208 0.41255 -0.25714
 N296 N 0.77824 0.40777 -0.32531
 C297 C 0.79227 0.44392 -0.39556
 C298 C 0.83620 0.47136 -0.36638
 N299 N 0.84694 0.45079 -0.27910
 H300 H 0.85641 0.50525 -0.39065
 N301 N 0.45298 0.29301 -0.11319
 N302 N 0.45066 0.26134 -0.18413
 C303 C 0.45318 0.27329 -0.30655
 C304 C 0.45743 0.31407 -0.30675
 N305 N 0.45673 0.32468 -0.18564
 H306 H 0.46444 0.33623 -0.38378
 N307 N 0.62311 0.15257 -0.37738
 N308 N 0.65691 0.18473 -0.43404
 C309 C 0.69180 0.18035 -0.40788
 C310 C 0.67829 0.14416 -0.33319
 N311 N 0.63504 0.12760 -0.31814
 H312 H 0.69796 0.13204 -0.29096
 N313 N 1.19769 0.55777 -0.13949
 N314 N 1.23101 0.56204 -0.20558
 C315 C 1.21579 0.54817 -0.32464
 C316 C 1.17104 0.53358 -0.32729
 N317 N 1.16141 0.54062 -0.21051
 H318 H 1.14763 0.51858 -0.40506
 N319 N 0.56433 0.64775 -0.39242
 N320 N 0.56623 0.68122 -0.45170
 C321 C 0.53060 0.68284 -0.41811
 C322 C 0.50719 0.64981 -0.33391
 N323 N 0.52912 0.62839 -0.32182
 H324 H 0.47719 0.64199 -0.28719
 N325 N 0.34869 -0.19015 -0.15921
 N326 N 0.31468 -0.21848 -0.23052
 C327 C 0.30578 -0.19512 -0.31333
 C328 C 0.33459 -0.15181 -0.28847
 N329 N 0.36111 -0.14998 -0.19333
 H330 H 0.33704 -0.12424 -0.33818
 N331 N 0.57454 -0.09465 0.39134
 N332 N 0.57288 -0.12703 0.45607
 C333 C 0.53504 -0.16317 0.42159
 C334 C 0.51398 -0.15209 0.33024
 N335 N 0.53962 -0.10886 0.31543
 H336 H 0.48321 -0.17316 0.28059
 N337 N 0.31259 0.49477 0.09947
 N338 N 0.28384 0.49777 0.17020
 C339 C 0.30431 0.51595 0.28172
 C340 C 0.34715 0.52533 0.27499
 N341 N 0.35070 0.51133 0.16078
 H342 H 0.37291 0.53955 0.34705
 N343 N 1.14910 0.71099 0.10083
 N344 N 1.18251 0.74015 0.17102
 C345 C 1.16960 0.73444 0.29188
 C346 C 1.12534 0.70193 0.29053
 N347 N 1.11451 0.68691 0.17058
 H348 H 1.10399 0.68766 0.36958
 N349 N 0.52790 0.18434 0.14733
 N350 N 0.52335 0.21286 0.21512
 C351 C 0.49103 0.18978 0.29673
 C352 C 0.47488 0.14615 0.27411
 N353 N 0.49953 0.14427 0.18272
 H354 H 0.45014 0.11876 0.32581
 N355 N 0.58647 0.43625 0.39586
 N356 N 0.61704 0.43323 0.46020
 C357 C 0.65564 0.46962 0.43835
 C358 C 0.64762 0.49535 0.35666
 N359 N 0.60381 0.47334 0.33444
 H360 H 0.67111 0.52588 0.31479
 N361 N 0.92802 0.35131 0.38533
 N362 N 0.89825 0.31797 0.44986
 C363 C 0.85953 0.31518 0.42398
 C364 C 0.86619 0.34702 0.33852
 N365 N 0.90939 0.36900 0.31807
 H366 H 0.84234 0.35423 0.29824
   
