data_POSCAR
  _audit_creation_date              2014-09-24
  _audit_creation_method            'ToBaCCo'
  _symmetry_space_group_name_H-M    'P1'
  _symmetry_Int_Tables_number       1
  _symmetry_cell_setting            triclinic
  loop_
  _symmetry_equiv_pos_as_xyz
 x,y,z
_cell_length_a 29.0591
_cell_length_b 17.7471
_cell_length_c 17.7134
_cell_angle_alpha 89.768000
_cell_angle_beta 90.139300
_cell_angle_gamma 89.869300
loop_
  _atom_site_label
  _atom_site_type_symbol
  _atom_site_fract_x
  _atom_site_fract_y
  _atom_site_fract_z
O1 O 0.06495 0.12852 0.14075
 O2 O 0.11571 0.06191 0.06726
 C3 C 0.10618 0.10937 0.12034
 O4 O -0.06340 -0.14009 0.13127
 O5 O -0.11432 -0.06679 0.06390
 C6 C -0.10467 -0.11982 0.11178
 O7 O 0.06530 -0.13262 0.13922
 O8 O 0.11586 -0.06474 0.06656
 C9 C 0.10655 -0.11326 0.11913
 O10 O -0.06366 0.13659 0.13330
 O11 O -0.11447 0.06523 0.06464
 C12 C -0.10493 0.11710 0.11340
 Zr13 Zr 0.00066 0.09374 0.09653
 O14 O -0.00351 0.09228 0.21580
 O15 O 0.00584 0.21275 0.09591
 Zr16 Zr 0.00088 -0.09601 0.09603
 O17 O -0.00129 -0.08876 0.21503
 O18 O 0.00565 -0.21501 0.09913
 O19 O 0.04200 -0.00140 0.11074
 O20 O -0.03951 -0.00126 0.11000
 O21 O -0.06392 0.13894 -0.12996
 O22 O -0.11459 0.06619 -0.06228
 C23 C -0.10511 0.11895 -0.11042
 O24 O 0.06475 -0.13074 -0.13809
 O25 O 0.11562 -0.06357 -0.06541
 C26 C 0.10600 -0.11139 -0.11807
 O27 O -0.06391 -0.13750 -0.13119
 O28 O -0.11459 -0.06558 -0.06292
 C29 C -0.10514 -0.11764 -0.11151
 O30 O 0.06475 0.13173 -0.13708
 O31 O 0.11564 0.06315 -0.06489
 C32 C 0.10604 0.11190 -0.11720
 Zr33 Zr 0.00047 0.09532 -0.09398
 O34 O -0.00498 0.09563 -0.21321
 O35 O 0.00569 0.21430 -0.09292
 Zr36 Zr 0.00049 -0.09490 -0.09462
 O37 O -0.00493 -0.09379 -0.21384
 O38 O 0.00584 -0.21393 -0.09395
 Zr39 Zr 0.06951 -0.00067 0.00079
 Zr40 Zr -0.06831 -0.00033 0.00089
 O41 O -0.03963 0.00043 -0.10813
 O42 O 0.04158 0.00021 -0.10923
 O43 O -0.04060 0.10945 0.00132
 O44 O 0.04077 -0.10939 0.00064
 O45 O 0.04069 0.10823 0.00137
 O46 O -0.04041 -0.11018 0.00065
 H47 H -0.06024 -0.00161 0.15435
 H48 H 0.06146 -0.15385 0.00061
 H49 H -0.06042 0.00083 -0.15255
 H50 H 0.06144 0.15245 0.00166
 H51 H -0.01739 -0.23474 0.06318
 H52 H -0.02051 -0.23389 -0.06490
 H53 H 0.02059 -0.06271 -0.23358
 H54 H 0.02095 0.06559 -0.23316
 H55 H -0.02009 0.23390 -0.06234
 H56 H -0.02041 0.23275 0.06631
 H57 H 0.01792 0.05278 0.23409
 H58 H -0.00124 -0.14135 0.23404
 O59 O 0.56459 0.63198 0.63659
 O60 O 0.61539 0.56447 0.56383
 C61 C 0.60588 0.61260 0.61637
 O62 O 0.43590 0.36343 0.63115
 O63 O 0.38499 0.43573 0.56272
 C64 C 0.39461 0.38332 0.61135
 O65 O 0.56492 0.37197 0.63842
 O66 O 0.61552 0.43923 0.56489
 C67 C 0.60612 0.39133 0.61796
 O68 O 0.43552 0.64007 0.62932
 O69 O 0.38481 0.56771 0.56145
 C70 C 0.39431 0.62014 0.60959
 Zr71 Zr 0.49988 0.59702 0.59332
 O72 O 0.49569 0.59729 0.71258
 O73 O 0.50500 0.71601 0.59151
 Zr74 Zr 0.50016 0.40723 0.59532
 O75 O 0.49793 0.41595 0.71421
 O76 O 0.50508 0.28830 0.60035
 O77 O 0.54115 0.50212 0.60899
 O78 O 0.45973 0.50210 0.60791
 O79 O 0.43519 0.63918 0.36598
 O80 O 0.38467 0.56699 0.43446
 C81 C 0.39400 0.61925 0.38570
 O82 O 0.56434 0.36903 0.36186
 O83 O 0.61482 0.43743 0.43392
 C84 C 0.60551 0.38875 0.38190
 O85 O 0.43574 0.36229 0.36886
 O86 O 0.38493 0.43513 0.43591
 C87 C 0.39452 0.38233 0.38825
 O88 O 0.56387 0.63209 0.35912
 O89 O 0.61457 0.56456 0.43255
 C90 C 0.60507 0.61251 0.37953
 Zr91 Zr 0.49969 0.59615 0.40264
 O92 O 0.49430 0.59487 0.28342
 O93 O 0.50477 0.71515 0.40232
 Zr94 Zr 0.50004 0.40582 0.40446
 O95 O 0.49467 0.40632 0.28522
 O96 O 0.50544 0.28682 0.40593
 Zr97 Zr 0.56857 0.50149 0.49904
 Zr98 Zr 0.43102 0.50147 0.49873
 O99 O 0.45974 0.50087 0.38972
 O100 O 0.54098 0.50091 0.38883
 O101 O 0.45861 0.61134 0.49779
 O102 O 0.54007 0.39263 0.50017
 O103 O 0.53981 0.61042 0.49797
 O104 O 0.45905 0.39170 0.49994
 H105 H 0.43900 0.50224 0.65224
 H106 H 0.56081 0.34824 0.50080
 H107 H 0.43893 0.50061 0.34533
 H108 H 0.56059 0.65461 0.49776
 H109 H 0.48205 0.26793 0.56475
 H110 H 0.47979 0.26719 0.43681
 H111 H 0.52081 0.43584 0.26524
 H112 H 0.52012 0.56425 0.26396
 H113 H 0.47900 0.73499 0.43278
 H114 H 0.47882 0.73565 0.56149
 H115 H 0.51726 0.55827 0.73145
 H116 H 0.49846 0.36360 0.73386
 C117 C 0.21555 0.21019 0.22565
 C118 C 0.26188 0.17270 0.20764
 C119 C 0.29852 0.20699 0.24104
 C120 C 0.28519 0.27535 0.28914
 C121 C 0.24956 0.24545 0.34560
 C122 C 0.21291 0.21116 0.31219
 C123 C 0.22138 0.29299 0.20231
 C124 C 0.25799 0.32725 0.23570
 C125 C 0.17622 0.17363 0.18929
 C126 C 0.14407 0.14408 0.15837
 C127 C 0.32453 0.31258 0.32479
 C128 C 0.35666 0.34400 0.35381
 H129 H 0.26558 0.12352 0.17188
 H130 H 0.33362 0.18721 0.23390
 H131 H 0.25284 0.25068 0.40643
 H132 H 0.18477 0.18701 0.34436
 H133 H 0.19873 0.32216 0.16303
 H134 H 0.26671 0.38579 0.22503
 C135 C 0.78547 0.77487 0.21117
 C136 C 0.78322 0.68941 0.19867
 C137 C 0.74620 0.65613 0.23201
 C138 C 0.71512 0.71163 0.27451
 C139 C 0.70205 0.77204 0.21601
 C140 C 0.73905 0.80531 0.18269
 C141 C 0.78413 0.78489 0.29715
 C142 C 0.74715 0.75164 0.33045
 C143 C 0.82516 0.81112 0.17553
 C144 C 0.85746 0.84202 0.14642
 C145 C 0.67541 0.67610 0.31076
 C146 C 0.64304 0.64709 0.34157
 H147 H 0.80844 0.65786 0.16648
 H148 H 0.73970 0.59602 0.22840
 H149 H 0.66685 0.78730 0.20193
 H150 H 0.73555 0.84907 0.14004
 H151 H 0.80998 0.81537 0.32907
 H152 H 0.74130 0.75363 0.39094
 C153 C 0.78545 0.22556 0.78868
 C154 C 0.73977 0.18413 0.80119
 C155 C 0.70310 0.21825 0.76719
 C156 C 0.71574 0.29043 0.72406
 C157 C 0.75356 0.26657 0.66867
 C158 C 0.79022 0.23246 0.70267
 C159 C 0.77679 0.30624 0.81627
 C160 C 0.74011 0.34039 0.78225
 C161 C 0.82481 0.18849 0.82503
 C162 C 0.85697 0.15719 0.85461
 C163 C 0.67635 0.32686 0.68718
 C164 C 0.64412 0.35643 0.65604
 H165 H 0.73651 0.13254 0.83388
 H166 H 0.66842 0.19592 0.77075
 H167 H 0.75172 0.27571 0.60809
 H168 H 0.81980 0.21236 0.67123
 H169 H 0.79763 0.33407 0.85875
 H170 H 0.72951 0.39751 0.79553
 C171 C 0.21523 0.78881 0.77537
 C172 C 0.21857 0.80617 0.69058
 C173 C 0.25521 0.77261 0.65642
 C174 C 0.28486 0.72506 0.71047
 C175 C 0.25136 0.66897 0.74685
 C176 C 0.21475 0.70250 0.78098
 C177 C 0.26188 0.81247 0.80837
 C178 C 0.29851 0.77894 0.77423
 C179 C 0.17592 0.82467 0.81245
 C180 C 0.14382 0.85392 0.84374
 C181 C 0.32421 0.68867 0.67403
 C182 C 0.35639 0.65789 0.64447
 H183 H 0.19431 0.84166 0.66009
 H184 H 0.26235 0.77931 0.59663
 H185 H 0.25598 0.60825 0.74584
 H186 H 0.18799 0.67052 0.80923
 H187 H 0.26580 0.85211 0.85446
 H188 H 0.33382 0.78982 0.79105
 C189 C 0.21546 0.21314 0.77698
 C190 C 0.21571 0.20488 0.69073
 C191 C 0.25233 0.23877 0.65678
 C192 C 0.28512 0.27759 0.71243
 C193 C 0.29883 0.21594 0.76926
 C194 C 0.26222 0.18206 0.80318
 C195 C 0.21803 0.29832 0.79105
 C196 C 0.25463 0.33218 0.75713
 C197 C 0.17608 0.17682 0.81386
 C198 C 0.14394 0.14716 0.84491
 C199 C 0.32452 0.31438 0.67611
 C200 C 0.35670 0.34539 0.64651
 H201 H 0.18944 0.17504 0.65911
 H202 H 0.25744 0.23796 0.59609
 H203 H 0.33418 0.20022 0.78172
 H204 H 0.26621 0.13733 0.84469
 H205 H 0.19325 0.32933 0.82467
 H206 H 0.26119 0.39220 0.76171
 C207 C 0.78525 0.77731 0.78701
 C208 C 0.79168 0.69229 0.77514
 C209 C 0.75502 0.65856 0.74113
 C210 C 0.71552 0.71316 0.72229
 C211 C 0.73761 0.77549 0.67431
 C212 C 0.77423 0.80921 0.70832
 C213 C 0.74021 0.78474 0.83154
 C214 C 0.70356 0.75103 0.79752
 C215 C 0.82466 0.81396 0.82347
 C216 C 0.85686 0.84478 0.85320
 C217 C 0.67609 0.67703 0.68535
 C218 C 0.64388 0.64757 0.65428
 H219 H 0.82229 0.66130 0.79203
 H220 H 0.75424 0.59867 0.72889
 H221 H 0.72555 0.79173 0.61849
 H222 H 0.79353 0.85431 0.68162
 H223 H 0.73736 0.81384 0.88513
 H224 H 0.66933 0.75126 0.82196
 C225 C 0.21326 0.78869 0.22095
 C226 C 0.25876 0.83054 0.20786
 C227 C 0.29574 0.79681 0.24144
 C228 C 0.28363 0.72452 0.28485
 C229 C 0.25912 0.67435 0.22700
 C230 C 0.22216 0.70807 0.19342
 C231 C 0.20895 0.78183 0.30706
 C232 C 0.24594 0.74810 0.34066
 C233 C 0.17351 0.82489 0.18439
 C234 C 0.14114 0.85458 0.15346
 C235 C 0.32342 0.68789 0.32087
 C236 C 0.35586 0.65703 0.35039
 H237 H 0.26166 0.88218 0.17516
 H238 H 0.33031 0.81956 0.23749
 H239 H 0.26985 0.61732 0.21360
 H240 H 0.20125 0.67991 0.15127
 H241 H 0.17947 0.80174 0.33886
 H242 H 0.24813 0.73914 0.40124
 C243 C 0.78539 0.22279 0.21407
 C244 C 0.77852 0.30523 0.18988
 C245 C 0.74177 0.33919 0.22339
 C246 C 0.71548 0.28737 0.27780
 C247 C 0.75189 0.25879 0.33404
 C248 C 0.78862 0.22485 0.30055
 C249 C 0.73928 0.18426 0.19712
 C250 C 0.70254 0.21819 0.23060
 C251 C 0.82489 0.18591 0.17808
 C252 C 0.85711 0.15491 0.14859
 C253 C 0.67593 0.32374 0.31412
 C254 C 0.64361 0.35344 0.34464
 H255 H 0.80058 0.33438 0.14997
 H256 H 0.73237 0.39743 0.21221
 H257 H 0.74908 0.26472 0.39484
 H258 H 0.81726 0.20173 0.33266
 H259 H 0.73578 0.13466 0.16189
 H260 H 0.66760 0.19767 0.22405
   
