data_POSCAR
  _audit_creation_date              2014-09-24
  _audit_creation_method            'ToBaCCo'
  _symmetry_space_group_name_H-M    'P1'
  _symmetry_Int_Tables_number       1
  _symmetry_cell_setting            triclinic
  loop_
  _symmetry_equiv_pos_as_xyz
 x,y,z
_cell_length_a 40.7181
_cell_length_b 42.3559
_cell_length_c 29.3202
_cell_angle_alpha 89.823100
_cell_angle_beta 90.597600
_cell_angle_gamma 87.954700
loop_
  _atom_site_label
  _atom_site_type_symbol
  _atom_site_fract_x
  _atom_site_fract_y
  _atom_site_fract_z
C1 C 1.22214 0.23581 0.20387
 C2 C 1.24058 0.25878 0.17366
 C3 C 1.26244 0.27627 0.19746
 C4 C 1.26410 0.26913 0.24892
 C5 C 1.24891 0.21577 0.22854
 C6 C 1.27083 0.23321 0.25216
 C7 C 1.20645 0.25655 0.24100
 C8 C 1.22839 0.27409 0.26438
 H9 H 1.23548 0.26220 0.13751
 H10 H 1.28205 0.28324 0.26821
 H11 H 1.24998 0.19010 0.22828
 H12 H 1.18002 0.25963 0.24510
 C13 C 0.73311 -0.27766 0.19993
 C14 C 0.76002 -0.25775 0.17988
 C15 C 0.77389 -0.23820 0.21099
 C16 C 0.75944 -0.24033 0.25950
 C17 C 0.74925 -0.29500 0.24043
 C18 C 0.76291 -0.27569 0.27163
 C19 C 0.70839 -0.25408 0.22101
 C20 C 0.72203 -0.23465 0.25240
 H21 H 0.76772 -0.25925 0.14456
 H22 H 0.77065 -0.22439 0.28485
 H23 H 0.75083 -0.32062 0.24339
 H24 H 0.68211 -0.25424 0.21415
 C25 C 0.72355 0.23526 -0.29698
 C26 C 0.74024 0.25784 -0.32560
 C27 C 0.76345 0.27594 -0.30043
 C28 C 0.76553 0.26796 -0.25184
 C29 C 0.74948 0.21577 -0.27522
 C30 C 0.77266 0.23386 -0.25024
 C31 C 0.70866 0.25390 -0.26043
 C32 C 0.73184 0.27211 -0.23559
 H33 H 0.73430 0.26217 -0.36137
 H34 H 0.78366 0.28184 -0.23234
 H35 H 0.75051 0.19007 -0.27585
 H36 H 0.68223 0.25746 -0.25651
 C37 C 1.23382 -0.27634 -0.29883
 C38 C 1.26059 -0.25646 -0.31944
 C39 C 1.27460 -0.23673 -0.28864
 C40 C 1.26042 -0.23865 -0.23996
 C41 C 1.25026 -0.29342 -0.25833
 C42 C 1.26410 -0.27394 -0.22752
 C43 C 1.20920 -0.25272 -0.27772
 C44 C 1.22296 -0.23310 -0.24670
 H45 H 1.26822 -0.25826 -0.35476
 H46 H 1.27171 -0.22256 -0.21489
 H47 H 1.25231 -0.31904 -0.25544
 H48 H 1.18289 -0.25296 -0.28429
 C49 C 0.22561 0.23192 0.79878
 C50 C 0.24342 0.25302 0.82838
 C51 C 0.26669 0.27132 0.80446
 C52 C 0.26799 0.26514 0.75562
 C53 C 0.21012 0.25322 0.76137
 C54 C 0.23233 0.27074 0.73887
 C55 C 0.25197 0.21168 0.77429
 C56 C 0.27417 0.22915 0.75159
 H57 H 0.23768 0.25672 0.86413
 H58 H 0.28617 0.27915 0.73695
 H59 H 0.18372 0.25668 0.75653
 H60 H 0.25261 0.18601 0.77412
 C61 C 0.73347 0.72057 0.79667
 C62 C 0.75977 0.73812 0.81755
 C63 C 0.77479 0.75917 0.78607
 C64 C 0.76057 0.75852 0.73976
 C65 C 0.71035 0.74415 0.77755
 C66 C 0.72521 0.76507 0.74588
 C67 C 0.74804 0.70449 0.75773
 C68 C 0.76296 0.72525 0.72632
 H69 H 0.76704 0.73604 0.85326
 H70 H 0.77215 0.77481 0.71531
 H71 H 0.68396 0.74415 0.78303
 H72 H 0.75043 0.67887 0.75471
 C73 C 0.72530 0.23321 0.29689
 C74 C 0.74335 0.25616 0.32793
 C75 C 0.76555 0.27363 0.30524
 C76 C 0.76792 0.26647 0.25395
 C77 C 0.71017 0.25400 0.25874
 C78 C 0.73248 0.27149 0.23644
 C79 C 0.75235 0.21312 0.27383
 C80 C 0.77460 0.23055 0.25129
 H81 H 0.73740 0.25992 0.36358
 H82 H 0.78619 0.28053 0.23560
 H83 H 0.68382 0.25718 0.25316
 H84 H 0.75308 0.18745 0.27375
 C85 C 0.23410 0.71951 0.29784
 C86 C 0.26050 0.73985 0.31900
 C87 C 0.27465 0.75933 0.28823
 C88 C 0.26097 0.75668 0.23895
 C89 C 0.20952 0.74271 0.27477
 C90 C 0.22343 0.76208 0.24377
 C91 C 0.25104 0.70202 0.25873
 C92 C 0.26500 0.72124 0.22790
 H93 H 0.26766 0.73867 0.35478
 H94 H 0.27240 0.77253 0.21387
 H95 H 0.18319 0.74262 0.28049
 H96 H 0.25291 0.67638 0.25646
 O97 O 1.05573 -0.04623 0.07938
 O98 O 1.02715 -0.08184 0.03713
 C99 C 1.04904 -0.07484 0.06787
 O100 O 0.93389 0.04128 0.07718
 O101 O 0.96320 0.07702 0.03680
 C102 C 0.94078 0.06997 0.06608
 O103 O 0.94039 -0.04621 0.08211
 O104 O 0.96996 -0.08175 0.03840
 C105 C 0.94884 -0.07481 0.07023
 O106 O 1.05659 0.04093 0.07317
 O107 O 1.02289 0.07681 0.03494
 C108 C 1.04756 0.06963 0.06202
 Zr109 Zr 1.03672 -0.00253 0.05491
 O110 O 1.03160 -0.00136 0.12654
 O111 O 1.08849 -0.00392 0.06190
 Zr112 Zr 0.95520 -0.00242 0.05673
 O113 O 0.96264 -0.00156 0.12814
 O114 O 0.90372 -0.00333 0.06506
 O115 O 0.99716 -0.03131 0.06442
 O116 O 0.99517 0.02582 0.06412
 O117 O 1.05280 0.04154 -0.08114
 O118 O 1.02151 0.07703 -0.03978
 C119 C 1.04468 0.07008 -0.06864
 O120 O 0.93742 -0.04570 -0.08404
 O121 O 0.96868 -0.08152 -0.04188
 C122 C 0.94639 -0.07440 -0.07275
 O123 O 0.93187 0.04206 -0.07969
 O124 O 0.96215 0.07737 -0.03944
 C125 C 0.93902 0.07064 -0.06838
 O126 O 1.05245 -0.04602 -0.08579
 O127 O 1.02592 -0.08186 -0.04176
 C128 C 1.04646 -0.07468 -0.07359
 Zr129 Zr 1.03477 -0.00222 -0.06043
 O130 O 1.03113 0.00178 -0.13238
 O131 O 1.08668 -0.00546 -0.06403
 Zr132 Zr 0.95269 -0.00200 -0.05852
 O133 O 0.95219 0.00178 -0.13058
 O134 O 0.90089 -0.00489 -0.05793
 Zr135 Zr 0.99661 -0.05008 -0.00220
 Zr136 Zr 0.99323 0.04538 -0.00185
 O137 O 0.99267 0.02586 -0.06773
 O138 O 0.99459 -0.03070 -0.06861
 O139 O 1.04145 0.02550 -0.00289
 O140 O 0.94871 -0.02973 -0.00087
 O141 O 1.04302 -0.02976 -0.00294
 O142 O 0.94627 0.02588 -0.00071
 H143 H 0.99533 0.04049 0.09041
 H144 H 0.92973 -0.04371 -0.00060
 H145 H 0.99187 0.04044 -0.09425
 H146 H 1.06315 -0.04358 -0.00336
 H147 H 0.89407 -0.00717 0.03464
 H148 H 0.89217 0.01219 -0.03798
 H149 H 0.96502 -0.01654 -0.14273
 H150 H 1.02154 -0.01776 -0.14414
 H151 H 1.09540 0.00983 -0.04193
 H152 H 1.09750 -0.00720 0.03108
 H153 H 1.05416 -0.00021 0.13926
 H154 H 0.94045 -0.00057 0.14170
 O155 O 1.04885 0.55148 0.58800
 O156 O 1.08401 0.52197 0.54314
 C157 C 1.07807 0.54298 0.57439
 O158 O 0.95436 0.44395 0.58320
 O159 O 0.91752 0.47614 0.54366
 C160 C 0.92464 0.45308 0.57192
 O161 O 1.04578 0.44206 0.58714
 O162 O 1.08245 0.46790 0.54288
 C163 C 1.07545 0.44776 0.57442
 O164 O 0.95790 0.56105 0.58384
 O165 O 0.91937 0.53406 0.54349
 C166 C 0.92786 0.55620 0.57149
 Zr167 Zr 1.00227 0.53914 0.56297
 O168 O 1.00019 0.53903 0.63508
 O169 O 1.00526 0.58883 0.55938
 Zr170 Zr 1.00004 0.46045 0.56252
 O171 O 0.99939 0.46470 0.63429
 O172 O 1.00187 0.41055 0.56676
 O173 O 1.03097 0.49791 0.57122
 O174 O 0.97201 0.50150 0.57139
 O175 O 0.95577 0.56229 0.42911
 O176 O 0.91825 0.53455 0.46928
 C177 C 0.92604 0.55723 0.44179
 O178 O 1.04358 0.44300 0.42136
 O179 O 1.08147 0.46877 0.46445
 C180 C 1.07359 0.44878 0.43313
 O181 O 0.95215 0.44556 0.42627
 O182 O 0.91648 0.47680 0.46802
 C183 C 0.92281 0.45450 0.43864
 O184 O 1.04652 0.55285 0.42232
 O185 O 1.08295 0.52250 0.46533
 C186 C 1.07612 0.54400 0.43470
 Zr187 Zr 1.00067 0.54001 0.44808
 O188 O 0.99597 0.54115 0.37610
 O189 O 1.00389 0.58965 0.45249
 Zr190 Zr 0.99842 0.46122 0.44696
 O191 O 0.99369 0.46415 0.37503
 O192 O 1.00047 0.41128 0.44368
 Zr193 Zr 1.04956 0.49711 0.50444
 Zr194 Zr 0.95075 0.50306 0.50574
 O195 O 0.97029 0.50250 0.43961
 O196 O 1.02907 0.49889 0.43811
 O197 O 0.97251 0.54740 0.50595
 O198 O 1.02739 0.45301 0.50434
 O199 O 1.03021 0.54372 0.50522
 O200 O 0.96993 0.45613 0.50503
 H201 H 0.95719 0.50241 0.59799
 H202 H 1.04128 0.43333 0.50406
 H203 H 0.95478 0.50390 0.41335
 H204 H 1.04518 0.56166 0.50521
 H205 H 0.98779 0.40278 0.54184
 H206 H 0.98412 0.40349 0.46532
 H207 H 1.01413 0.47285 0.36305
 H208 H 1.01374 0.52726 0.36367
 H209 H 1.00409 0.59766 0.42069
 H210 H 1.00652 0.59638 0.59130
 H211 H 1.01631 0.52265 0.64615
 H212 H 0.99901 0.44286 0.64644
 O213 O 0.43993 -0.04560 0.41779
 O214 O 0.47082 -0.08130 0.46075
 C215 C 0.44875 -0.07427 0.42948
 O216 O 0.55567 0.04169 0.42214
 O217 O 0.52367 0.07731 0.46228
 C218 C 0.54717 0.07030 0.43395
 O219 O 0.55492 -0.04545 0.41633
 O220 O 0.52808 -0.08131 0.45994
 C221 C 0.54878 -0.07412 0.42828
 O222 O 0.43349 0.04199 0.42296
 O223 O 0.46396 0.07748 0.46269
 C224 C 0.44065 0.07062 0.43407
 Zr225 Zr 0.45506 -0.00194 0.44332
 O226 O 0.45823 -0.00037 0.37145
 O227 O 0.40326 -0.00438 0.44128
 Zr228 Zr 0.53670 -0.00190 0.44151
 O229 O 0.52854 -0.00050 0.37023
 O230 O 0.58814 -0.00306 0.43216
 O231 O 0.49684 -0.03066 0.43377
 O232 O 0.49477 0.02637 0.43420
 O233 O 0.43747 0.04167 0.58143
 O234 O 0.46554 0.07730 0.53910
 C235 C 0.44391 0.07031 0.56953
 O236 O 0.55738 -0.04608 0.58191
 O237 O 0.52966 -0.08180 0.53864
 C238 C 0.55110 -0.07472 0.56994
 O239 O 0.55762 0.04152 0.57706
 O240 O 0.52479 0.07718 0.53707
 C241 C 0.54896 0.07014 0.56504
 O242 O 0.44371 -0.04591 0.58560
 O243 O 0.47258 -0.08149 0.54117
 C244 C 0.45185 -0.07453 0.57345
 Zr245 Zr 0.45682 -0.00215 0.55812
 O246 O 0.45419 -0.00256 0.63020
 O247 O 0.40508 -0.00294 0.55233
 Zr248 Zr 0.53908 -0.00218 0.55683
 O249 O 0.53871 0.00079 0.62891
 O250 O 0.59110 -0.00534 0.55749
 Zr251 Zr 0.49889 -0.04981 0.50029
 Zr252 Zr 0.49535 0.04564 0.50016
 O253 O 0.49719 0.02572 0.56591
 O254 O 0.49921 -0.03062 0.56661
 O255 O 0.44839 0.02623 0.50093
 O256 O 0.54524 -0.02943 0.49909
 O257 O 0.45087 -0.02977 0.50098
 O258 O 0.54359 0.02585 0.49906
 H259 H 0.49397 0.04112 0.40786
 H260 H 0.56538 -0.04324 0.49877
 H261 H 0.49754 0.04027 0.59228
 H262 H 0.43193 -0.04382 0.50144
 H263 H 0.59834 -0.00675 0.46250
 H264 H 0.59882 0.01050 0.53555
 H265 H 0.52591 -0.01696 0.64039
 H266 H 0.47335 0.00852 0.64225
 H267 H 0.39673 -0.00363 0.58392
 H268 H 0.39476 0.00790 0.46755
 H269 H 0.43530 0.00020 0.35977
 H270 H 0.55053 0.00078 0.35635
 O271 O 0.55011 0.55145 0.07772
 O272 O 0.58559 0.52156 0.03379
 C273 C 0.57941 0.54290 0.06453
 O274 O 0.45678 0.44210 0.07474
 O275 O 0.41964 0.47419 0.03552
 C276 C 0.42698 0.45113 0.06368
 O277 O 0.54814 0.44135 0.07895
 O278 O 0.58468 0.46733 0.03454
 C279 C 0.57778 0.44727 0.06628
 O280 O 0.45944 0.56073 0.07245
 O281 O 0.42094 0.53248 0.03407
 C282 C 0.42938 0.55545 0.06068
 Zr283 Zr 0.50380 0.53784 0.05377
 O284 O 0.50286 0.53325 0.12552
 O285 O 0.50728 0.58745 0.05772
 Zr286 Zr 0.50218 0.45953 0.05481
 O287 O 0.50185 0.46599 0.12623
 O288 O 0.50307 0.40994 0.06331
 O289 O 0.53297 0.49713 0.06267
 O290 O 0.47356 0.50032 0.06289
 O291 O 0.45697 0.55965 -0.08068
 O292 O 0.41979 0.53200 -0.03971
 C293 C 0.42733 0.55441 -0.06774
 O294 O 0.54586 0.44084 -0.08612
 O295 O 0.58354 0.46727 -0.04350
 C296 C 0.57584 0.44692 -0.07444
 O297 O 0.45436 0.44277 -0.08114
 O298 O 0.41851 0.47416 -0.03992
 C299 C 0.42496 0.45154 -0.06873
 O300 O 0.54783 0.55116 -0.08715
 O301 O 0.58446 0.52130 -0.04388
 C302 C 0.57748 0.54271 -0.07455
 Zr303 Zr 0.50212 0.53774 -0.06163
 O304 O 0.49730 0.53687 -0.13362
 O305 O 0.50495 0.58751 -0.06046
 Zr306 Zr 0.50053 0.45898 -0.06086
 O307 O 0.49581 0.46091 -0.13284
 O308 O 0.50276 0.40898 -0.06253
 Zr309 Zr 0.55137 0.49588 -0.00426
 Zr310 Zr 0.45255 0.50111 -0.00289
 O311 O 0.47201 0.49994 -0.06906
 O312 O 0.53092 0.49678 -0.07063
 O313 O 0.47415 0.54553 -0.00367
 O314 O 0.52956 0.45162 -0.00332
 O315 O 0.53144 0.54230 -0.00438
 O316 O 0.47220 0.45433 -0.00261
 H317 H 0.45847 0.50140 0.08920
 H318 H 0.54366 0.43207 -0.00331
 H319 H 0.45643 0.50093 -0.09527
 H320 H 0.54602 0.56053 -0.00469
 H321 H 0.50285 0.40078 0.03239
 H322 H 0.48602 0.40146 -0.04123
 H323 H 0.51595 0.47010 -0.14499
 H324 H 0.51647 0.52467 -0.14564
 H325 H 0.50463 0.59464 -0.09271
 H326 H 0.49999 0.59598 0.02769
 H327 H 0.50308 0.55504 0.13766
 H328 H 0.50107 0.44455 0.13970
 C329 C 1.08412 0.14999 0.08207
 C330 C 1.11033 0.14170 0.11165
 C331 C 1.11482 0.11047 0.12642
 C332 C 1.09381 0.08742 0.11114
 C333 C 1.19792 0.21711 0.17949
 C334 C 1.06284 0.12683 0.06673
 C335 C 1.13318 0.16463 0.12718
 C336 C 1.15332 0.18223 0.14196
 C337 C 1.17743 0.20143 0.16128
 C338 C 1.06777 0.09515 0.08064
 H339 H 1.08033 0.17419 0.07057
 H340 H 1.13489 0.10379 0.14945
 H341 H 1.09839 0.06337 0.12284
 H342 H 1.04295 0.13361 0.04355
 C343 C 1.12312 0.60438 0.63982
 C344 C 1.15197 0.60601 0.61467
 C345 C 1.15887 0.58378 0.58058
 C346 C 1.13588 0.56108 0.56992
 C347 C 1.21882 0.70091 0.67077
 C348 C 1.10011 0.58200 0.62903
 C349 C 1.17323 0.63159 0.62341
 C350 C 1.18906 0.65388 0.63394
 C351 C 1.20570 0.67986 0.65111
 C352 C 1.10566 0.56088 0.59279
 H353 H 1.11778 0.62129 0.66665
 H354 H 1.18135 0.58468 0.56126
 H355 H 1.14097 0.54490 0.54224
 H356 H 1.07725 0.58232 0.64762
 C357 C 0.61558 0.11138 0.63027
 C358 C 0.61208 0.14227 0.61370
 C359 C 0.58652 0.15029 0.58292
 C360 C 0.56501 0.12717 0.56808
 C361 C 0.70051 0.21762 0.67975
 C362 C 0.59434 0.08836 0.61548
 C363 C 0.63529 0.16512 0.62851
 C364 C 0.65565 0.18271 0.64275
 C365 C 0.67994 0.20195 0.66161
 C366 C 0.56904 0.09578 0.58368
 H367 H 0.63513 0.10491 0.65426
 H368 H 0.58346 0.17421 0.57001
 H369 H 0.54572 0.13372 0.54382
 H370 H 0.59822 0.06454 0.62847
 C371 C 0.65966 0.58462 0.07187
 C372 C 0.65276 0.60577 0.10736
 C373 C 0.62407 0.60321 0.13258
 C374 C 0.60122 0.58095 0.12067
 C375 C 0.71838 0.69987 0.16885
 C376 C 0.63683 0.56203 0.06007
 C377 C 0.67382 0.63124 0.11757
 C378 C 0.68938 0.65338 0.12947
 C379 C 0.70560 0.67910 0.14817
 C380 C 0.60679 0.56088 0.08324
 H381 H 0.68203 0.58628 0.05244
 H382 H 0.61872 0.61928 0.16045
 H383 H 0.57850 0.58047 0.13951
 H384 H 0.64189 0.54667 0.03144
 C385 C 0.90882 -0.15284 0.09413
 C386 C 0.89191 -0.14560 0.13447
 C387 C 0.89602 -0.11638 0.15535
 C388 C 0.91579 -0.09405 0.13534
 C389 C 0.80056 -0.21839 0.19849
 C390 C 0.92887 -0.13047 0.07405
 C391 C 0.86845 -0.16683 0.15300
 C392 C 0.84774 -0.18348 0.16841
 C393 C 0.82256 -0.20231 0.18553
 C394 C 0.93189 -0.10051 0.09393
 H395 H 0.90574 -0.17536 0.07751
 H396 H 0.88312 -0.11044 0.18648
 H397 H 0.91774 -0.07132 0.15177
 H398 H 0.94079 -0.13609 0.04211
 C399 C 0.88210 0.39144 0.64091
 C400 C 0.85015 0.39354 0.62318
 C401 C 0.84151 0.41716 0.59117
 C402 C 0.86524 0.43790 0.57589
 C403 C 0.77873 0.30114 0.68126
 C404 C 0.90573 0.41180 0.62556
 C405 C 0.82741 0.37010 0.63685
 C406 C 0.81053 0.34906 0.64968
 C407 C 0.79277 0.32341 0.66611
 C408 C 0.89789 0.43480 0.59199
 H409 H 0.88906 0.37339 0.66583
 H410 H 0.81674 0.41910 0.57734
 H411 H 0.85830 0.45564 0.55064
 H412 H 0.93045 0.40886 0.63926
 C413 C 0.41134 -0.15235 0.59674
 C414 C 0.39421 -0.14508 0.63687
 C415 C 0.39852 -0.11599 0.65808
 C416 C 0.41866 -0.09378 0.63848
 C417 C 0.30147 -0.21719 0.69871
 C418 C 0.43173 -0.13010 0.57709
 C419 C 0.37029 -0.16612 0.65475
 C420 C 0.34924 -0.18263 0.66955
 C421 C 0.32371 -0.20129 0.68605
 C422 C 0.43491 -0.10022 0.59718
 H423 H 0.40812 -0.17476 0.57988
 H424 H 0.38545 -0.11004 0.68907
 H425 H 0.42068 -0.07110 0.65506
 H426 H 0.44375 -0.13572 0.54521
 C427 C 0.38467 0.38948 0.13289
 C428 C 0.35252 0.39207 0.11600
 C429 C 0.34378 0.41578 0.08421
 C430 C 0.36757 0.43624 0.06841
 C431 C 0.27946 0.30197 0.17723
 C432 C 0.40836 0.40959 0.11706
 C433 C 0.32954 0.36914 0.13052
 C434 C 0.31235 0.34859 0.14408
 C435 C 0.29409 0.32360 0.16138
 C436 C 0.40036 0.43278 0.08385
 H437 H 0.39169 0.37133 0.15762
 H438 H 0.31885 0.41807 0.07103
 H439 H 0.36054 0.45410 0.04338
 H440 H 0.43322 0.40635 0.13019
 C441 C 0.90258 0.15243 -0.09851
 C442 C 0.88038 0.14494 -0.13343
 C443 C 0.87786 0.11353 -0.14704
 C444 C 0.89706 0.08968 -0.12597
 C445 C 0.79688 0.21962 -0.22388
 C446 C 0.92203 0.12844 -0.07727
 C447 C 0.85947 0.16874 -0.15553
 C448 C 0.84071 0.18665 -0.17584
 C449 C 0.81753 0.20541 -0.20124
 C450 C 0.91936 0.09671 -0.09070
 H451 H 0.90472 0.17668 -0.08758
 H452 H 0.86081 0.10739 -0.17395
 H453 H 0.89431 0.06564 -0.13746
 H454 H 0.93887 0.13466 -0.05018
 C455 C 0.88744 0.62948 0.38455
 C456 C 0.85500 0.62883 0.39911
 C457 C 0.84486 0.60367 0.42616
 C458 C 0.86756 0.57948 0.43923
 C459 C 0.78141 0.71058 0.30914
 C460 C 0.90992 0.60556 0.39730
 C461 C 0.83236 0.65305 0.38239
 C462 C 0.81531 0.67311 0.36382
 C463 C 0.79681 0.69487 0.33673
 C464 C 0.90047 0.58036 0.42517
 H465 H 0.89541 0.64852 0.36297
 H466 H 0.81955 0.60269 0.43693
 H467 H 0.85948 0.56037 0.46044
 H468 H 0.93494 0.60721 0.38562
 C469 C 0.40387 0.15224 0.40375
 C470 C 0.38123 0.14452 0.36951
 C471 C 0.37849 0.11303 0.35644
 C472 C 0.39794 0.08932 0.37736
 C473 C 0.29675 0.21845 0.27968
 C474 C 0.42357 0.12837 0.42486
 C475 C 0.36009 0.16817 0.34752
 C476 C 0.34110 0.18590 0.32731
 C477 C 0.31764 0.20442 0.30210
 C478 C 0.42069 0.09656 0.41196
 H479 H 0.40618 0.17656 0.41424
 H480 H 0.36110 0.10672 0.33005
 H481 H 0.39502 0.06521 0.36629
 H482 H 0.44077 0.13476 0.45139
 C483 C 0.38717 0.62268 -0.13219
 C484 C 0.35775 0.62733 -0.10877
 C485 C 0.34944 0.60622 -0.07417
 C486 C 0.37124 0.58110 -0.06212
 C487 C 0.28380 0.71240 -0.19111
 C488 C 0.40883 0.59783 -0.12029
 C489 C 0.33598 0.65300 -0.12295
 C490 C 0.31903 0.67395 -0.13957
 C491 C 0.30002 0.69641 -0.16476
 C492 C 0.40149 0.57708 -0.08454
 H493 H 0.39356 0.63851 -0.15957
 H494 H 0.32639 0.60934 -0.05633
 H495 H 0.36495 0.56552 -0.03451
 H496 H 0.43178 0.59537 -0.13852
 C497 C 1.10368 -0.11458 -0.15772
 C498 C 1.11211 -0.14296 -0.13543
 C499 C 1.09648 -0.15058 -0.09462
 C500 C 1.07340 -0.12922 -0.07537
 C501 C 1.20231 -0.21309 -0.21835
 C502 C 1.08091 -0.09329 -0.13858
 C503 C 1.13745 -0.16338 -0.15463
 C504 C 1.15872 -0.17928 -0.17280
 C505 C 1.18295 -0.19734 -0.19638
 C506 C 1.06605 -0.09996 -0.09665
 H507 H 1.11535 -0.10850 -0.18946
 H508 H 1.10269 -0.17260 -0.07717
 H509 H 1.06246 -0.13494 -0.04306
 H510 H 1.07564 -0.07109 -0.15607
 C511 C 1.11699 0.39269 0.35202
 C512 C 1.14848 0.39016 0.37140
 C513 C 1.15631 0.40845 0.40941
 C514 C 1.13228 0.42863 0.42869
 C515 C 1.21719 0.30006 0.29231
 C516 C 1.09300 0.41259 0.37128
 C517 C 1.17156 0.36722 0.35316
 C518 C 1.18848 0.34675 0.33599
 C519 C 1.20533 0.32180 0.31356
 C520 C 1.10017 0.43038 0.41031
 H521 H 1.11070 0.37862 0.32259
 H522 H 1.18063 0.40658 0.42471
 H523 H 1.13853 0.44201 0.45876
 H524 H 1.06862 0.41353 0.35608
 C525 C 0.59665 -0.15108 0.40540
 C526 C 0.61309 -0.14321 0.36532
 C527 C 0.60612 -0.11409 0.34424
 C528 C 0.58394 -0.09243 0.36380
 C529 C 0.70139 -0.21466 0.28080
 C530 C 0.57416 -0.12933 0.42507
 C531 C 0.63772 -0.16417 0.34559
 C532 C 0.65848 -0.18044 0.32698
 C533 C 0.68227 -0.19879 0.30299
 C534 C 0.56820 -0.09944 0.40497
 H535 H 0.60172 -0.17367 0.42191
 H536 H 0.61843 -0.10780 0.31308
 H537 H 0.57975 -0.06976 0.34714
 H538 H 0.56247 -0.13538 0.45674
 C539 C 0.65911 0.40749 -0.09766
 C540 C 0.65141 0.38826 -0.13473
 C541 C 0.61975 0.38982 -0.15369
 C542 C 0.59552 0.40971 -0.13494
 C543 C 0.72109 0.29739 -0.21052
 C544 C 0.63484 0.42764 -0.07889
 C545 C 0.67481 0.36533 -0.15231
 C546 C 0.69201 0.34477 -0.16878
 C547 C 0.70913 0.31954 -0.19023
 C548 C 0.60259 0.42845 -0.09682
 H549 H 0.68356 0.40638 -0.08267
 H550 H 0.61355 0.37502 -0.18239
 H551 H 0.57104 0.40988 -0.14979
 H552 H 0.64105 0.44179 -0.04956
 C553 C 1.10816 0.11144 -0.13793
 C554 C 1.10890 0.14088 -0.11667
 C555 C 1.08662 0.14829 -0.08183
 C556 C 1.06437 0.12585 -0.06744
 C557 C 1.20094 0.21334 -0.17798
 C558 C 1.08619 0.08905 -0.12355
 C559 C 1.13339 0.16263 -0.13034
 C560 C 1.15465 0.17945 -0.14353
 C561 C 1.17981 0.19799 -0.16106
 C562 C 1.06445 0.09570 -0.08751
 H563 H 1.12513 0.10548 -0.16506
 H564 H 1.08689 0.17109 -0.06521
 H565 H 1.04795 0.13171 -0.03971
 H566 H 1.08686 0.06619 -0.14001
 C567 C 1.11957 0.60550 0.36777
 C568 C 1.14999 0.60553 0.39023
 C569 C 1.15796 0.58254 0.42329
 C570 C 1.13471 0.56055 0.43551
 C571 C 1.21889 0.69718 0.32849
 C572 C 1.09634 0.58383 0.38009
 C573 C 1.17197 0.63010 0.37951
 C574 C 1.18834 0.65159 0.36746
 C575 C 1.20547 0.67673 0.34888
 C576 C 1.10320 0.56181 0.41522
 H577 H 1.11335 0.62299 0.34173
 H578 H 1.18165 0.58219 0.44049
 H579 H 1.14083 0.54361 0.46218
 H580 H 1.07247 0.58529 0.36341
 C581 C 0.58746 0.14917 0.41825
 C582 C 0.61019 0.14153 0.38407
 C583 C 0.61050 0.11156 0.36430
 C584 C 0.58906 0.08896 0.37943
 C585 C 0.70065 0.21464 0.32010
 C586 C 0.56572 0.12650 0.43340
 C587 C 0.63407 0.16361 0.36950
 C588 C 0.65492 0.18061 0.35559
 C589 C 0.67970 0.19927 0.33736
 C590 C 0.56679 0.09590 0.41475
 H591 H 0.58693 0.17238 0.43371
 H592 H 0.62785 0.10542 0.33769
 H593 H 0.59047 0.06576 0.36400
 H594 H 0.54883 0.13260 0.46049
 C595 C 0.65894 0.58211 -0.08477
 C596 C 0.65054 0.60597 -0.11636
 C597 C 0.62003 0.60624 -0.13858
 C598 C 0.59710 0.58399 -0.12736
 C599 C 0.71886 0.69906 -0.17488
 C600 C 0.63599 0.55955 -0.07367
 C601 C 0.67226 0.63102 -0.12595
 C602 C 0.68844 0.65287 -0.13713
 C603 C 0.70545 0.67838 -0.15490
 C604 C 0.60435 0.56108 -0.09355
 H605 H 0.68273 0.58150 -0.06784
 H606 H 0.61349 0.62438 -0.16355
 H607 H 0.57313 0.58572 -0.14373
 H608 H 0.64246 0.54189 -0.04810
 C609 C 0.89010 -0.11581 -0.15511
 C610 C 0.88885 -0.14594 -0.13578
 C611 C 0.90841 -0.15355 -0.09732
 C612 C 0.92840 -0.13079 -0.07763
 C613 C 0.79952 -0.22170 -0.20056
 C614 C 0.90982 -0.09311 -0.13548
 C615 C 0.86590 -0.16801 -0.15413
 C616 C 0.84566 -0.18540 -0.16954
 C617 C 0.82104 -0.20506 -0.18696
 C618 C 0.92877 -0.10006 -0.09599
 H619 H 0.87514 -0.10956 -0.18479
 H620 H 0.90761 -0.17678 -0.08191
 H621 H 0.94257 -0.13688 -0.04721
 H622 H 0.90963 -0.06979 -0.15079
 C623 C 0.84205 0.41344 0.42467
 C624 C 0.84881 0.39478 0.38624
 C625 C 0.87804 0.39837 0.36261
 C626 C 0.90122 0.41923 0.37844
 C627 C 0.78136 0.30003 0.32578
 C628 C 0.86525 0.43467 0.44044
 C629 C 0.82745 0.37019 0.37221
 C630 C 0.81160 0.34849 0.35891
 C631 C 0.79483 0.32241 0.34172
 C632 C 0.89555 0.43695 0.41828
 H633 H 0.81942 0.41086 0.44322
 H634 H 0.88350 0.38417 0.33276
 H635 H 0.92413 0.42065 0.36024
 H636 H 0.86017 0.44812 0.47098
 C637 C 0.39321 -0.11572 0.34628
 C638 C 0.39108 -0.14556 0.36627
 C639 C 0.40992 -0.15306 0.40544
 C640 C 0.43003 -0.13043 0.42521
 C641 C 0.30093 -0.22044 0.30167
 C642 C 0.41305 -0.09315 0.36598
 C643 C 0.36789 -0.16736 0.34788
 C644 C 0.34744 -0.18451 0.33245
 C645 C 0.32261 -0.20392 0.31508
 C646 C 0.43123 -0.09995 0.40619
 H647 H 0.37881 -0.10956 0.31605
 H648 H 0.40843 -0.17606 0.42137
 H649 H 0.44360 -0.13637 0.45619
 H650 H 0.41352 -0.07002 0.35017
 C651 C 0.34381 0.41080 -0.08120
 C652 C 0.35071 0.39079 -0.11815
 C653 C 0.38033 0.39311 -0.14131
 C654 C 0.40365 0.41416 -0.12650
 C655 C 0.28170 0.29636 -0.17619
 C656 C 0.36717 0.43221 -0.06645
 C657 C 0.32890 0.36631 -0.13130
 C658 C 0.31263 0.34471 -0.14393
 C659 C 0.29541 0.31870 -0.16052
 C660 C 0.39777 0.43337 -0.08815
 H661 H 0.32089 0.40923 -0.06305
 H662 H 0.38590 0.37785 -0.17003
 H663 H 0.42679 0.41465 -0.14433
 H664 H 0.36190 0.44679 -0.03705
 C665 C 1.09627 -0.15259 0.09079
 C666 C 1.11464 -0.14465 0.12962
 C667 C 1.10939 -0.11511 0.14980
 C668 C 1.08694 -0.09317 0.13064
 C669 C 1.20302 -0.21762 0.21468
 C670 C 1.07349 -0.13053 0.07150
 C671 C 1.13930 -0.16609 0.14922
 C672 C 1.16012 -0.18272 0.16788
 C673 C 1.18394 -0.20146 0.19212
 C674 C 1.06915 -0.10029 0.09072
 H675 H 1.09996 -0.17551 0.07500
 H676 H 1.12318 -0.10876 0.18002
 H677 H 1.08406 -0.07025 0.14668
 H678 H 1.06019 -0.13671 0.04085
 C679 C 1.12119 0.39123 0.65429
 C680 C 1.15201 0.38858 0.63383
 C681 C 1.15867 0.40689 0.59543
 C682 C 1.13413 0.42724 0.57686
 C683 C 1.22145 0.29721 0.71115
 C684 C 1.09668 0.41129 0.63574
 C685 C 1.17549 0.36540 0.65136
 C686 C 1.19267 0.34467 0.66808
 C687 C 1.20965 0.31934 0.69013
 C688 C 1.10265 0.42912 0.59637
 H689 H 1.11580 0.37713 0.68402
 H690 H 1.18246 0.40491 0.57927
 H691 H 1.13944 0.44063 0.54648
 H692 H 1.07282 0.41233 0.65178
 C693 C 0.61047 -0.11492 0.65322
 C694 C 0.61719 -0.14389 0.63204
 C695 C 0.60001 -0.15159 0.59207
 C696 C 0.57700 -0.12982 0.57264
 C697 C 0.70594 -0.21590 0.71802
 C698 C 0.58777 -0.09325 0.63392
 C699 C 0.64214 -0.16496 0.65178
 C700 C 0.66309 -0.18134 0.67060
 C701 C 0.68694 -0.19987 0.69512
 C702 C 0.57123 -0.10009 0.59289
 H703 H 0.62332 -0.10875 0.68432
 H704 H 0.60484 -0.17407 0.57549
 H705 H 0.56471 -0.13574 0.54107
 H706 H 0.58376 -0.07072 0.65071
 C707 C 0.62351 0.39230 0.14817
 C708 C 0.65405 0.38859 0.12718
 C709 C 0.66064 0.40583 0.08769
 C710 C 0.63624 0.42611 0.06859
 C711 C 0.72181 0.29754 0.20778
 C712 C 0.59915 0.41227 0.12909
 C713 C 0.67719 0.36536 0.14535
 C714 C 0.69395 0.34463 0.16283
 C715 C 0.71039 0.31943 0.18589
 C716 C 0.60500 0.42895 0.08864
 H717 H 0.61819 0.37904 0.17873
 H718 H 0.68421 0.40301 0.07112
 H719 H 0.64141 0.43863 0.03739
 H720 H 0.57548 0.41410 0.14557
 C721 C 0.88216 0.11176 0.14718
 C722 C 0.88326 0.14317 0.13283
 C723 C 0.90378 0.15109 0.09670
 C724 C 0.92295 0.12748 0.07493
 C725 C 0.80014 0.21585 0.22393
 C726 C 0.90106 0.08829 0.12559
 C727 C 0.86243 0.16647 0.15527
 C728 C 0.84375 0.18387 0.17585
 C729 C 0.82069 0.20203 0.20140
 C730 C 0.92160 0.09572 0.08902
 H731 H 0.86641 0.10530 0.17503
 H732 H 0.90478 0.17535 0.08520
 H733 H 0.93844 0.13397 0.04686
 H734 H 0.89944 0.06422 0.13766
 C735 C 0.84950 0.60699 0.58124
 C736 C 0.85924 0.62903 0.61383
 C737 C 0.89005 0.62552 0.63488
 C738 C 0.91154 0.60081 0.62260
 C739 C 0.78319 0.71254 0.69402
 C740 C 0.87112 0.58203 0.56880
 C741 C 0.83749 0.65440 0.62845
 C742 C 0.82027 0.67501 0.64479
 C743 C 0.80048 0.69701 0.66898
 C744 C 0.90264 0.57904 0.58883
 H745 H 0.82540 0.60921 0.56529
 H746 H 0.89760 0.64208 0.66073
 H747 H 0.93550 0.59923 0.63899
 H748 H 0.86355 0.56565 0.54282
 C749 C 0.38797 0.11239 0.65373
 C750 C 0.38586 0.14310 0.63616
 C751 C 0.40387 0.15061 0.59730
 C752 C 0.42354 0.12723 0.57583
 C753 C 0.29999 0.21455 0.72460
 C754 C 0.40733 0.08914 0.63240
 C755 C 0.36403 0.16593 0.65780
 C756 C 0.34465 0.18302 0.67771
 C757 C 0.32094 0.20090 0.70256
 C758 C 0.42512 0.09609 0.59291
 H759 H 0.37419 0.10625 0.68372
 H760 H 0.40237 0.17431 0.58328
 H761 H 0.43685 0.13331 0.54544
 H762 H 0.40809 0.06554 0.64678
 C763 C 0.34781 0.60004 0.07976
 C764 C 0.35859 0.62656 0.10340
 C765 C 0.39182 0.62899 0.11421
 C766 C 0.41435 0.60537 0.10128
 C767 C 0.28415 0.70742 0.19172
 C768 C 0.37054 0.57617 0.06654
 C769 C 0.33599 0.65041 0.12049
 C770 C 0.31883 0.67019 0.13882
 C771 C 0.29999 0.69175 0.16511
 C772 C 0.40415 0.57869 0.07706
 H773 H 0.32197 0.59772 0.07188
 H774 H 0.40036 0.64914 0.13308
 H775 H 0.43996 0.60836 0.11000
 H776 H 0.36189 0.55592 0.04812
   
