data_POSCAR
  _audit_creation_date              2014-09-24
  _audit_creation_method            'ToBaCCo'
  _symmetry_space_group_name_H-M    'P1'
  _symmetry_Int_Tables_number       1
  _symmetry_cell_setting            triclinic
  loop_
  _symmetry_equiv_pos_as_xyz
 x,y,z
_cell_length_a 38.1287
_cell_length_b 35.5143
_cell_length_c 36.1802
_cell_angle_alpha 90.983000
_cell_angle_beta 90.863100
_cell_angle_gamma 90.972100
loop_
  _atom_site_label
  _atom_site_type_symbol
  _atom_site_fract_x
  _atom_site_fract_y
  _atom_site_fract_z
C1 C 0.36809 0.33398 0.32351
 N2 N 0.35541 0.36396 0.30505
 C3 C 0.32568 0.38093 0.31596
 N4 N 0.30834 0.36785 0.34578
 C5 C 0.32061 0.33799 0.36464
 N6 N 0.35049 0.32091 0.35326
 C7 C 0.36005 0.81556 -0.17281
 N8 N 0.34223 0.80371 -0.14280
 C9 C 0.31349 0.82241 -0.13100
 N10 N 0.30256 0.85310 -0.14963
 C11 C 0.32014 0.86542 -0.17977
 N12 N 0.34880 0.84649 -0.19111
 C13 C 0.87770 0.33268 -0.17147
 N14 N 0.86131 0.31984 -0.14079
 C15 C 0.83362 0.33876 -0.12663
 N16 N 0.82247 0.37016 -0.14338
 C17 C 0.83830 0.38332 -0.17404
 N18 N 0.86593 0.36441 -0.18806
 C19 C 0.86881 0.84013 0.33791
 N20 N 0.85612 0.87082 0.32034
 C21 C 0.82698 0.88819 0.33252
 N22 N 0.81037 0.87479 0.36266
 C23 C 0.82254 0.84437 0.38061
 N24 N 0.85178 0.82692 0.36804
 C25 C 0.62514 0.67251 0.34127
 N26 N 0.63624 0.64135 0.32280
 C27 C 0.66548 0.62336 0.33392
 N28 N 0.68390 0.63665 0.36388
 C29 C 0.67322 0.66761 0.38271
 N30 N 0.64384 0.68572 0.37122
 C31 C 0.64242 0.15636 -0.16038
 N32 N 0.65525 0.12687 -0.18031
 C33 C 0.68635 0.11125 -0.17054
 N34 N 0.70466 0.12550 -0.14071
 C35 C 0.69222 0.15491 -0.12080
 N36 N 0.66111 0.17017 -0.13080
 C37 C 0.14510 0.63730 -0.17538
 N38 N 0.16330 0.61060 -0.19395
 C39 C 0.19352 0.59695 -0.17923
 N40 N 0.20537 0.61023 -0.14591
 C41 C 0.18745 0.63684 -0.12719
 N42 N 0.15743 0.65044 -0.14207
 C43 C 0.12702 0.15942 0.32389
 N44 N 0.14115 0.13019 0.30509
 C45 C 0.17177 0.11545 0.31631
 N46 N 0.18825 0.12987 0.34700
 C47 C 0.17470 0.15903 0.36619
 N48 N 0.14394 0.17427 0.35448
 C49 C 0.62890 0.32336 0.68464
 N50 N 0.64562 0.31536 0.65281
 C51 C 0.67256 0.33746 0.64130
 N52 N 0.68279 0.36798 0.66203
 C53 C 0.66598 0.37667 0.69393
 N54 N 0.63919 0.35410 0.70530
 C55 C 0.62153 0.83144 1.16957
 N56 N 0.63902 0.82481 1.13789
 C57 C 0.66593 0.84778 1.12772
 N58 N 0.67546 0.87758 1.14977
 C59 C 0.65792 0.88485 1.18154
 N60 N 0.63111 0.86163 1.19138
 C61 C 0.11632 0.31883 1.16567
 N62 N 0.13048 0.30423 1.13478
 C63 C 0.15869 0.32074 1.11918
 N64 N 0.17317 0.35283 1.13483
 C65 C 0.15859 0.36815 1.16588
 N66 N 0.13035 0.35085 1.18103
 C67 C 0.12402 0.81149 0.67421
 N68 N 0.13666 0.84396 0.68973
 C69 C 0.16249 0.86411 0.67353
 N70 N 0.17625 0.85126 0.64097
 C71 C 0.16316 0.81860 0.62504
 N72 N 0.13718 0.79920 0.64185
 C73 C 0.37381 0.66895 0.64349
 N74 N 0.35363 0.68141 0.61523
 C75 C 0.32571 0.66043 0.60244
 N76 N 0.31784 0.62707 0.61831
 C77 C 0.33792 0.61432 0.64659
 N78 N 0.36571 0.63543 0.65917
 C79 C 0.37763 0.17233 1.16724
 N80 N 0.36345 0.18892 1.13702
 C81 C 0.33388 0.17470 1.12062
 N82 N 0.31843 0.14341 1.13453
 C83 C 0.33226 0.12638 1.16464
 N84 N 0.36188 0.14105 1.18111
 C85 C 0.85822 0.68931 1.16728
 N86 N 0.83730 0.69943 1.13858
 C87 C 0.80825 0.67857 1.12870
 N88 N 0.80017 0.64726 1.14803
 C89 C 0.82083 0.63664 1.17701
 N90 N 0.84982 0.65784 1.18650
 C91 C 0.87545 0.16616 0.67009
 N92 N 0.85904 0.18553 0.64298
 C93 C 0.82814 0.17293 0.62798
 N94 N 0.81342 0.14039 0.64015
 C95 C 0.82963 0.12053 0.66713
 N96 N 0.86058 0.13369 0.68209
 C97 C 0.35703 0.34863 0.66643
 N98 N 0.34232 0.33324 0.63511
 C99 C 0.35516 0.30132 0.61966
 N100 N 0.38299 0.28465 0.63589
 C101 C 0.39797 0.29965 0.66725
 N102 N 0.38487 0.33163 0.68259
 C103 C 0.33725 0.86807 0.16044
 N104 N 0.32497 0.84741 0.13123
 C105 C 0.34112 0.81540 0.12051
 N106 N 0.37012 0.80414 0.13933
 C107 C 0.38285 0.82494 0.16874
 N108 N 0.36610 0.85660 0.17935
 C109 C 0.84341 0.38066 0.17787
 N110 N 0.87213 0.36750 0.19546
 C111 C 0.88774 0.33585 0.18340
 N112 N 0.87472 0.31720 0.15302
 C113 C 0.84624 0.33025 0.13469
 N114 N 0.83021 0.36194 0.14743
 C115 C 0.85738 0.85381 0.68530
 N116 N 0.84150 0.84023 0.65377
 C117 C 0.85383 0.80892 0.63639
 N118 N 0.88195 0.79116 0.65082
 C119 C 0.89796 0.80441 0.68223
 N120 N 0.88553 0.83571 0.69944
 C121 C 0.67363 0.63960 0.68133
 N122 N 0.68463 0.65933 0.65182
 C123 C 0.66516 0.68774 0.63804
 N124 N 0.63432 0.69640 0.65429
 C125 C 0.62287 0.67659 0.68392
 N126 N 0.64273 0.64842 0.69734
 C127 C 0.67235 0.14645 0.17405
 N128 N 0.68529 0.16457 0.14443
 C129 C 0.66803 0.19394 0.12942
 N130 N 0.63748 0.20527 0.14449
 C131 C 0.62409 0.18725 0.17423
 N132 N 0.64170 0.15797 0.18896
 C133 C 0.14910 0.63100 0.17189
 N134 N 0.12044 0.64609 0.18762
 C135 C 0.10627 0.67793 0.17435
 N136 N 0.12120 0.69509 0.14488
 C137 C 0.15012 0.68026 0.12888
 N138 N 0.16401 0.64821 0.14264
 C139 C 0.17218 0.13246 0.66572
 N140 N 0.14240 0.14374 0.68289
 C141 C 0.12439 0.17392 0.67035
 N142 N 0.13654 0.19292 0.64065
 C143 C 0.16607 0.18190 0.62336
 N144 N 0.18378 0.15173 0.63615
 C145 C 0.32758 0.63111 0.31622
 N146 N 0.35986 0.64364 0.30606
 C147 C 0.37541 0.67357 0.32379
 N148 N 0.35841 0.69118 0.35155
 C149 C 0.32620 0.67921 0.36205
 N150 N 0.31059 0.64902 0.34428
 C151 C 0.33540 0.11871 0.82976
 N152 N 0.31903 0.13592 0.85850
 C153 C 0.33548 0.16453 0.87769
 N154 N 0.36813 0.17580 0.86798
 C155 C 0.38466 0.15902 0.83939
 N156 N 0.36813 0.13055 0.82010
 C157 C 0.84144 0.63563 0.84772
 N158 N 0.82365 0.65571 0.87347
 C159 C 0.83945 0.68546 0.89162
 N160 N 0.87300 0.69500 0.88390
 C161 C 0.89096 0.67518 0.85836
 N162 N 0.87502 0.64569 0.84004
 C163 C 0.83455 0.13640 0.34399
 N164 N 0.86605 0.14996 0.33261
 C165 C 0.88228 0.17909 0.35122
 N166 N 0.86676 0.19480 0.38099
 C167 C 0.83537 0.18157 0.39251
 N168 N 0.81919 0.15243 0.37386
 C169 C 0.66398 0.37552 0.33171
 N170 N 0.63246 0.36296 0.31821
 C171 C 0.61509 0.33418 0.33426
 N172 N 0.62940 0.31778 0.36416
 C173 C 0.66073 0.32996 0.37840
 N174 N 0.67845 0.35891 0.36203
 C175 C 0.66340 0.87350 0.81589
 N176 N 0.67419 0.85552 0.84685
 C177 C 0.65324 0.82879 0.86233
 N178 N 0.62159 0.82010 0.84637
 C179 C 0.61068 0.83820 0.81547
 N180 N 0.63174 0.86464 0.80041
 C181 C 0.17449 0.36570 0.81019
 N182 N 0.19190 0.35360 0.84068
 C183 C 0.17693 0.32747 0.86272
 N184 N 0.14443 0.31308 0.85380
 C185 C 0.12685 0.32530 0.82346
 N186 N 0.14214 0.35152 0.80184
 C187 C 0.16278 0.88982 0.32925
 N188 N 0.13380 0.87366 0.31230
 C189 C 0.11704 0.84405 0.32872
 N190 N 0.13029 0.83019 0.36081
 C191 C 0.15906 0.84645 0.37728
 N192 N 0.17467 0.87631 0.36160
 O193 O 0.26040 1.02790 0.30039
 O194 O 0.30851 0.95565 0.25491
 O195 O 0.30885 1.02922 0.25287
 O196 O 0.24394 0.95796 0.28442
 O197 O 0.21341 0.96328 0.23250
 O198 O 0.27526 1.03485 0.20316
 O199 O 0.27679 0.96057 0.20372
 O200 O 0.22540 1.03366 0.25155
 Cu201 Cu 0.28315 0.99101 0.27757
 Cu202 Cu 0.24505 0.99845 0.21787
 C203 C 0.23488 1.04319 0.28452
 C204 C 0.30186 0.94583 0.22193
 C205 C 0.30189 1.04512 0.22229
 C206 C 0.21707 0.94936 0.26410
 O207 O 0.25893 0.51041 0.67025
 O208 O 0.22242 0.44005 0.73320
 O209 O 0.21296 0.51050 0.72189
 O210 O 0.26417 0.43719 0.67649
 O211 O 0.30827 0.44689 0.71598
 O212 O 0.25648 0.52055 0.76206
 O213 O 0.26692 0.44992 0.77218
 O214 O 0.30297 0.52046 0.70970
 Cu215 Cu 0.23547 0.47320 0.69626
 Cu216 Cu 0.28829 0.48569 0.74365
 C217 C 0.28692 0.52809 0.67985
 C218 C 0.23811 0.43350 0.76367
 C219 C 0.22574 0.52766 0.75007
 C220 C 0.29445 0.42905 0.68850
 O221 O 0.73573 -0.02338 0.31204
 O222 O 0.68821 0.04992 0.26406
 O223 O 0.69525 -0.02287 0.25362
 O224 O 0.73746 0.04983 0.31530
 O225 O 0.78094 0.05441 0.27595
 O226 O 0.73872 -0.01550 0.21459
 O227 O 0.73170 0.05694 0.22502
 O228 O 0.77952 -0.01898 0.27296
 Cu229 Cu 0.70983 0.01292 0.28998
 Cu230 Cu 0.76194 0.01982 0.24327
 C231 C 0.76537 -0.03394 0.30100
 C232 C 0.70158 0.06621 0.23671
 C233 C 0.71035 -0.03160 0.22352
 C234 C 0.76683 0.06414 0.30601
 O235 O 0.78854 0.55225 0.77936
 O236 O 0.74560 0.48017 0.71982
 O237 O 0.73848 0.55278 0.72891
 O238 O 0.79126 0.47877 0.77362
 O239 O 0.75001 0.47349 0.81556
 O240 O 0.69693 0.54388 0.76990
 O241 O 0.70472 0.47129 0.76155
 O242 O 0.74649 0.54641 0.82026
 Cu243 Cu 0.77011 0.51693 0.74627
 Cu244 Cu 0.72041 0.50813 0.79590
 C245 C 0.77496 0.56179 0.80985
 C246 C 0.71843 0.46286 0.73068
 C247 C 0.70853 0.56061 0.74190
 C248 C 0.77906 0.46350 0.80242
 O249 O 0.24427 0.46658 0.18903
 O250 O 0.28133 0.54203 0.24992
 O251 O 0.28195 0.46878 0.24981
 O252 O 0.24096 0.54057 0.19124
 O253 O 0.19404 0.53776 0.22614
 O254 O 0.23496 0.46746 0.28478
 O255 O 0.23426 0.54054 0.28467
 O256 O 0.19759 0.46405 0.22428
 Cu257 Cu 0.26681 0.50470 0.21645
 Cu258 Cu 0.21037 0.50223 0.25821
 C259 C 0.21478 0.45189 0.19675
 C260 C 0.26435 0.55422 0.27750
 C261 C 0.26537 0.45604 0.27732
 C262 C 0.21051 0.55180 0.19930
 O263 O 0.81464 0.94672 0.74722
 O264 O 0.77410 1.02091 0.80399
 O265 O 0.76964 0.94800 0.80099
 O266 O 0.82066 1.02057 0.75258
 O267 O 0.77802 1.02540 0.71105
 O268 O 0.72730 0.95275 0.75912
 O269 O 0.73137 1.02556 0.76248
 O270 O 0.77228 0.95162 0.70543
 Cu271 Cu 0.79921 0.98348 0.78018
 Cu272 Cu 0.74813 0.98911 0.73018
 C273 C 0.80016 0.93623 0.71678
 C274 C 0.74581 1.03579 0.79299
 C275 C 0.73949 0.93839 0.78849
 C276 C 0.80773 1.03600 0.72420
 O277 O 0.79460 0.46715 0.23846
 O278 O 0.75508 0.53630 0.30070
 O279 O 0.75890 0.46325 0.29971
 O280 O 0.79127 0.54077 0.24069
 O281 O 0.74284 0.53585 0.20659
 O282 O 0.71013 0.46065 0.26613
 O283 O 0.70652 0.53355 0.26659
 O284 O 0.74584 0.46226 0.20500
 Cu285 Cu 0.77999 0.50207 0.27308
 Cu286 Cu 0.72149 0.49760 0.23267
 C287 C 0.77722 0.45265 0.21138
 C288 C 0.72410 0.54699 0.29405
 C289 C 0.72850 0.44920 0.29319
 C290 C 0.77229 0.55169 0.21382
 O291 O 0.24313 -0.03399 0.69788
 O292 O 0.28335 0.03549 0.76139
 O293 O 0.27949 -0.03891 0.76020
 O294 O 0.23279 0.03861 0.71130
 O295 O 0.18865 0.03048 0.74926
 O296 O 0.23486 -0.04229 0.79823
 O297 O 0.23897 0.03120 0.79957
 O298 O 0.19934 -0.04168 0.73633
 Cu299 Cu 0.26383 0.00089 0.72917
 Cu300 Cu 0.21127 -0.00600 0.77418
 C301 C 0.21493 -0.05058 0.70643
 C302 C 0.26857 0.04556 0.79095
 C303 C 0.26443 -0.05364 0.78801
 C304 C 0.20235 0.04761 0.72268
 O305 O 0.23532 0.28223 0.95578
 O306 O 0.28386 0.23346 1.03018
 O307 O 0.28477 0.23221 0.95792
 O308 O 0.24650 0.29479 1.02706
 O309 O 0.20249 0.25435 1.03284
 O310 O 0.24058 0.19171 0.96186
 O311 O 0.23884 0.19392 1.03503
 O312 O 0.19075 0.24261 0.96325
 Cu313 Cu 0.26696 0.26461 0.99222
 Cu314 Cu 0.21453 0.21679 0.99828
 C315 C 0.20448 0.27022 0.94689
 C316 C 0.26920 0.20506 1.04518
 C317 C 0.26967 0.20159 0.94789
 C318 C 0.21811 0.28523 1.04215
 O319 O 0.22562 0.79445 0.45279
 O320 O 0.29057 0.75368 0.51518
 O321 O 0.27661 0.74664 0.44484
 O322 O 0.24314 0.80451 0.52192
 O323 O 0.20483 0.75895 0.53296
 O324 O 0.23847 0.70092 0.45590
 O325 O 0.25263 0.70772 0.52636
 O326 O 0.18755 0.74851 0.46335
 Cu327 Cu 0.26274 0.77936 0.48216
 Cu328 Cu 0.21704 0.72447 0.49595
 C329 C 0.19566 0.77885 0.44742
 C330 C 0.28245 0.72358 0.53159
 C331 C 0.26379 0.71404 0.43738
 C332 C 0.21817 0.79134 0.54078
 O333 O 0.29347 0.73462 -0.03311
 O334 O 0.24322 0.69156 0.04095
 O335 O 0.23712 0.69011 -0.03286
 O336 O 0.28837 0.74580 0.03650
 O337 O 0.24791 0.78953 0.03357
 O338 O 0.19666 0.73385 -0.03406
 O339 O 0.20277 0.73515 0.03697
 O340 O 0.25335 0.77829 -0.03922
 Cu341 Cu 0.26852 0.71072 0.00265
 Cu342 Cu 0.22211 0.76368 -0.00166
 C343 C 0.28217 0.76359 -0.04903
 C344 C 0.21485 0.70571 0.05198
 C345 C 0.20836 0.70276 -0.04559
 C346 C 0.27651 0.77757 0.04669
 O347 O 0.29747 0.24396 0.45500
 O348 O 0.24854 0.19598 0.52627
 O349 O 0.23876 0.20476 0.45535
 O350 O 0.29726 0.24820 0.52744
 O351 O 0.26251 0.29729 0.52884
 O352 O 0.20397 0.25368 0.45935
 O353 O 0.21292 0.24396 0.53195
 O354 O 0.26194 0.29228 0.45738
 Cu355 Cu 0.27386 0.21870 0.49057
 Cu356 Cu 0.23183 0.27576 0.49532
 C357 C 0.28838 0.27581 0.44360
 C358 C 0.22294 0.21146 0.54177
 C359 C 0.21129 0.22209 0.44508
 C360 C 0.28938 0.28052 0.54049
 O361 O 0.73841 0.71115 0.96342
 O362 O 0.68669 0.76332 1.02869
 O363 O 0.69623 0.76746 0.95735
 O364 O 0.74311 0.72108 1.03588
 O365 O 0.78188 0.76798 1.03600
 O366 O 0.73620 0.81309 0.96106
 O367 O 0.72651 0.80914 1.03309
 O368 O 0.77923 0.75605 0.96502
 Cu369 Cu 0.71256 0.73662 0.99653
 Cu370 Cu 0.75951 0.79099 0.99864
 C371 C 0.76754 0.72410 0.95302
 C372 C 0.69739 0.79426 1.04273
 C373 C 0.70914 0.79851 0.94580
 C374 C 0.77102 0.73724 1.04896
 O375 O 0.68791 0.25338 0.53922
 O376 O 0.73680 0.20218 0.47004
 O377 O 0.73507 0.20260 0.54016
 O378 O 0.70030 0.26468 0.46760
 O379 O 0.74435 0.30484 0.47715
 O380 O 0.77913 0.24311 0.54857
 O381 O 0.78104 0.24291 0.47682
 O382 O 0.73139 0.29469 0.54792
 Cu383 Cu 0.71040 0.22798 0.50288
 Cu384 Cu 0.76330 0.27546 0.51335
 C385 C 0.70105 0.28189 0.55600
 C386 C 0.76725 0.21336 0.46171
 C387 C 0.76377 0.21237 0.55638
 C388 C 0.71670 0.29500 0.45957
 O389 O 0.81123 0.25084 -0.02963
 O390 O 0.75870 0.20748 0.04102
 O391 O 0.75347 0.20935 -0.03099
 O392 O 0.80175 0.26554 0.04173
 O393 O 0.76280 0.31040 0.03557
 O394 O 0.71473 0.25483 -0.03351
 O395 O 0.71954 0.25254 0.03848
 O396 O 0.77264 0.29604 -0.03566
 Cu397 Cu 0.78497 0.22943 0.00594
 Cu398 Cu 0.73920 0.28261 0.00066
 C399 C 0.80110 0.28026 -0.04534
 C400 C 0.73071 0.22198 0.05226
 C401 C 0.72526 0.22305 -0.04431
 C402 C 0.78975 0.29765 0.05129
 O403 O 0.70393 0.76144 0.47542
 O404 O 0.76059 0.80621 0.54563
 O405 O 0.76354 0.79914 0.47320
 O406 O 0.71284 0.75165 0.54739
 O407 O 0.74877 0.70378 0.54234
 O408 O 0.79886 0.75054 0.47151
 O409 O 0.79624 0.75789 0.54413
 O410 O 0.73933 0.71301 0.47148
 Cu411 Cu 0.73197 0.78383 0.51078
 Cu412 Cu 0.77411 0.72713 0.50720
 C413 C 0.71167 0.73001 0.46115
 C414 C 0.78762 0.78989 0.55745
 C415 C 0.79005 0.78235 0.45974
 C416 C 0.72286 0.71915 0.55744
 O417 O 1.03355 0.29883 0.26062
 O418 O 0.96740 0.23923 0.30469
 O419 O 1.03540 0.24936 0.31239
 O420 O 0.96673 0.28837 0.25211
 O421 O 0.97400 0.24298 0.21052
 O422 O 1.04189 0.20446 0.27027
 O423 O 0.97427 0.19430 0.26258
 O424 O 1.04053 0.25387 0.21853
 Cu425 Cu 0.99978 0.27338 0.28685
 Cu426 Cu 1.00866 0.21914 0.23645
 C427 C 1.04815 0.28644 0.23174
 C428 C 0.95913 0.20705 0.29100
 C429 C 1.05080 0.22015 0.30089
 C430 C 0.95892 0.27264 0.22113
 O431 O 0.48206 0.23936 0.71511
 O432 O 0.54980 0.17948 0.75427
 O433 O 0.48019 0.17974 0.75452
 O434 O 0.54953 0.24502 0.72167
 O435 O 0.54726 0.27743 0.77420
 O436 O 0.47998 0.21204 0.80713
 O437 O 0.54959 0.21276 0.80634
 O438 O 0.47960 0.27236 0.76726
 Cu439 Cu 0.51586 0.20737 0.73142
 Cu440 Cu 0.51389 0.24649 0.79415
 C441 C 0.46908 0.26583 0.73416
 C442 C 0.56207 0.18639 0.78641
 C443 C 0.46739 0.18594 0.78628
 C444 C 0.55965 0.27277 0.74225
 O445 O -0.03584 0.31423 0.73456
 O446 O 0.03177 0.26276 0.68436
 O447 O -0.03665 0.26165 0.68411
 O448 O 0.03233 0.31401 0.73579
 O449 O 0.03254 0.27066 0.77886
 O450 O -0.03671 0.21756 0.72640
 O451 O 0.03275 0.21911 0.72709
 O452 O -0.03663 0.27080 0.77750
 Cu453 Cu -0.00215 0.29241 0.70545
 Cu454 Cu -0.00217 0.24007 0.75676
 C455 C -0.04802 0.30139 0.76432
 C456 C 0.04442 0.23283 0.69730
 C457 C -0.04876 0.23098 0.69653
 C458 C 0.04464 0.30108 0.76568
 O459 O 0.45960 0.32219 0.23469
 O460 O 0.53000 0.27494 0.18499
 O461 O 0.46179 0.27108 0.18286
 O462 O 0.52788 0.32518 0.23723
 O463 O 0.52749 0.28088 0.27936
 O464 O 0.46217 0.22633 0.22452
 O465 O 0.53096 0.23050 0.22696
 O466 O 0.45880 0.27761 0.27651
 Cu467 Cu 0.49468 0.30280 0.20576
 Cu468 Cu 0.49484 0.24928 0.25606
 C469 C 0.44689 0.30805 0.26365
 C470 C 0.54300 0.24513 0.19777
 C471 C 0.45053 0.23971 0.19453
 C472 C 0.53932 0.31192 0.26733
 O473 O 1.05103 0.78416 0.77575
 O474 O 0.98514 0.72502 0.82060
 O475 O 1.05387 0.72890 0.82220
 O476 O 0.98365 0.78232 0.77812
 O477 O 0.98281 0.74225 0.73067
 O478 O 1.05421 0.68903 0.77470
 O479 O 0.98529 0.68458 0.77355
 O480 O 1.05047 0.74411 0.72833
 Cu481 Cu 1.01866 0.75882 0.80421
 Cu482 Cu 1.01830 0.71076 0.74714
 C483 C 1.06149 0.77440 0.74394
 C484 C 0.97321 0.69541 0.80428
 C485 C 1.06640 0.70035 0.80596
 C486 C 0.97124 0.77149 0.74694
 O487 O 0.53384 0.79200 0.25219
 O488 O 0.46674 0.72890 0.28688
 O489 O 0.53545 0.73134 0.29185
 O490 O 0.46733 0.77962 0.23586
 O491 O 0.47712 0.74027 0.18934
 O492 O 0.54171 0.69176 0.24478
 O493 O 0.47268 0.68959 0.23961
 O494 O 0.54306 0.75314 0.20517
 Cu495 Cu 0.50007 0.76174 0.27118
 Cu496 Cu 0.50973 0.71473 0.21544
 C497 C 0.55000 0.78377 0.22303
 C498 C 0.45724 0.69932 0.26920
 C499 C 0.55010 0.70285 0.27714
 C500 C 0.46060 0.76756 0.20297
 O501 O -0.04821 0.82195 0.24368
 O502 O 0.01531 0.76946 0.18927
 O503 O -0.05222 0.76135 0.20153
 O504 O 0.02086 0.82330 0.23850
 O505 O 0.02641 0.78502 0.28548
 O506 O -0.04374 0.72286 0.24795
 O507 O 0.02367 0.73114 0.23588
 O508 O -0.04282 0.78300 0.29023
 Cu509 Cu -0.01693 0.79783 0.21384
 Cu510 Cu -0.00837 0.75181 0.26947
 C511 C -0.05708 0.81141 0.27551
 C512 C 0.03096 0.74192 0.20336
 C513 C -0.06031 0.73142 0.21878
 C514 C 0.03653 0.81397 0.26826
 O515 O 0.45729 0.69597 0.73939
 O516 O 0.51599 0.75215 0.79738
 O517 O 0.44855 0.75476 0.78373
 O518 O 0.52553 0.71061 0.73805
 O519 O 0.52264 0.75420 0.69535
 O520 O 0.45108 0.79909 0.74178
 O521 O 0.51916 0.79589 0.75474
 O522 O 0.45504 0.74002 0.69707
 Cu523 Cu 0.48667 0.72424 0.76824
 Cu524 Cu 0.48669 0.77639 0.71851
 C525 C 0.44568 0.70772 0.70896
 C526 C 0.52872 0.78273 0.78597
 C527 C 0.43714 0.78528 0.77000
 C528 C 0.53718 0.72571 0.70863
 C529 C 0.39972 0.31465 0.31011
 C530 C 0.41748 0.32761 0.28107
 H531 H 0.40771 0.28899 0.32339
 H532 H 0.40932 0.35336 0.26805
 C533 C 0.38914 0.79536 0.81504
 C534 C 0.40728 0.80579 0.78539
 H535 H 0.39680 0.77047 0.82988
 H536 H 0.39980 0.83081 0.77065
 C537 C -0.09280 0.31132 0.81277
 C538 C -0.07604 0.32275 0.78253
 H539 H -0.08530 0.28539 0.82586
 H540 H -0.08375 0.34867 0.76953
 C541 C -0.10186 0.82117 0.32427
 C542 C -0.08503 0.83261 0.29396
 H543 H -0.09348 0.79587 0.33795
 H544 H -0.09351 0.85774 0.28003
 C545 C 0.59449 0.69332 0.32723
 C546 C 0.57760 0.68177 0.29626
 H547 H 0.58706 0.71915 0.34117
 H548 H 0.58575 0.65622 0.28228
 C549 C 0.61126 0.17410 0.82945
 C550 C 0.59201 0.16409 0.79946
 H551 H 0.60335 0.19814 0.84601
 H552 H 0.59983 0.14056 0.78215
 C553 C 1.11337 0.65324 0.80756
 C554 C 1.09592 0.68125 0.82386
 H555 H 1.10513 0.64275 0.78046
 H556 H 1.10447 0.69201 0.85079
 C557 C 1.09636 0.17412 0.30943
 C558 C 1.08023 0.20469 0.32235
 H559 H 1.08600 0.16006 0.28464
 H560 H 1.08971 0.21949 0.34707
 C561 C 0.60097 0.29734 0.69659
 C562 C 0.58616 0.30012 0.72969
 H563 H 0.59331 0.27439 0.67788
 H564 H 0.59399 0.32282 0.74860
 C565 C 0.59491 0.80630 0.17972
 C566 C 0.57714 0.81055 0.21103
 H567 H 0.58896 0.78230 0.16164
 H568 H 0.58264 0.83463 0.22916
 C569 C 1.08895 0.29925 0.18200
 C570 C 1.07457 0.31008 0.21384
 H571 H 1.07997 0.27325 0.16852
 H572 H 1.08275 0.33620 0.22759
 C573 C 1.09886 0.78973 0.69175
 C574 C 1.08672 0.79872 0.72523
 H575 H 1.08977 0.76399 0.67788
 H576 H 1.09572 0.82415 0.73968
 C577 C 0.40227 0.69332 0.65897
 C578 C 0.42057 0.68302 0.68874
 H579 H 0.40677 0.72079 0.64715
 H580 H 0.41559 0.65568 0.70064
 C581 C 0.40704 0.18826 0.18521
 C582 C 0.42274 0.21978 0.17327
 H583 H 0.41641 0.17530 0.21032
 H584 H 0.41375 0.23295 0.14812
 C585 C -0.11101 0.71360 0.17769
 C586 C -0.08952 0.70610 0.20615
 H587 H -0.10656 0.73888 0.16196
 H588 H -0.09416 0.68093 0.22198
 C589 C -0.09372 0.18035 0.68706
 C590 C -0.07812 0.21238 0.67620
 H591 H -0.08294 0.16542 0.71041
 H592 H -0.08823 0.22701 0.65235
 C593 C 0.31185 0.41204 0.29404
 C594 C 0.28076 0.42722 0.30090
 H595 H 0.32706 0.42155 0.27079
 H596 H 0.26533 0.41741 0.32385
 C597 C 0.30857 -0.10347 0.80010
 C598 C 0.27982 -0.08451 0.80941
 H599 H 0.32295 -0.09527 0.77582
 H600 H 0.26528 -0.09288 0.83353
 C601 C 0.82519 0.41501 0.80816
 C602 C 0.79734 0.43320 0.82140
 H603 H 0.83705 0.42399 0.78266
 H604 H 0.78541 0.42418 0.84685
 C605 C 0.81265 -0.07979 0.31194
 C606 C 0.78239 -0.06413 0.32156
 H607 H 0.82653 -0.06988 0.28797
 H608 H 0.76851 -0.07450 0.34536
 C609 C 0.32812 0.57977 0.66612
 C610 C 0.29980 0.55876 0.65657
 H611 H 0.34353 0.57281 0.69040
 H612 H 0.28427 0.56563 0.63236
 C613 C 0.31472 1.09493 0.17837
 C614 C 0.32417 1.07641 0.20899
 H615 H 0.29123 1.08582 0.16325
 H616 H 0.34725 1.08502 0.22504
 C617 C 0.81214 0.60489 0.19782
 C618 C 0.78341 0.58343 0.19063
 H619 H 0.82900 0.59813 0.22107
 H620 H 0.76621 0.59005 0.16760
 C621 C 0.81338 1.08792 0.68025
 C622 C 0.82717 1.06742 0.70752
 H623 H 0.78796 1.07988 0.66851
 H624 H 0.85252 1.07507 0.71966
 C625 C 0.67815 0.59138 0.31173
 C626 C 0.70926 0.57588 0.31846
 H627 H 0.66234 0.58184 0.28814
 H628 H 0.72534 0.58585 0.34168
 C629 C 0.69972 1.08174 0.80803
 C630 C 0.73041 1.06553 0.81617
 H631 H 0.68478 1.07220 0.78381
 H632 H 0.74534 1.07444 0.84061
 C633 C 0.21339 0.57039 0.80202
 C634 C 0.20419 0.55581 0.76889
 H635 H 0.23745 0.56136 0.81527
 H636 H 0.17990 0.56382 0.75546
 C637 C 0.18675 1.08692 0.29539
 C638 C 0.21726 1.07231 0.30555
 H639 H 0.17347 1.07690 0.27030
 H640 H 0.23031 1.08154 0.33106
 C641 C 0.67756 0.40934 0.71709
 C642 C 0.70385 0.43220 0.70694
 H643 H 0.66493 0.41393 0.74337
 H644 H 0.71651 0.42740 0.68071
 C645 C 0.66883 -0.08350 0.20630
 C646 C 0.69607 -0.06107 0.19829
 H647 H 0.65508 -0.07954 0.23204
 H648 H 0.70992 -0.06549 0.17269
 C649 C 0.17214 0.40052 0.18392
 C650 C 0.20094 0.41972 0.17397
 H651 H 0.15850 0.40983 0.20845
 H652 H 0.21554 0.41086 0.14997
 C653 C 0.17461 -0.10346 0.69240
 C654 C 0.20128 -0.08145 0.68197
 H655 H 0.16192 -0.09678 0.71828
 H656 H 0.21489 -0.08753 0.65652
 C657 C 0.30037 0.32383 0.39621
 C658 C 0.30911 0.29249 0.41378
 H659 H 0.27711 0.33888 0.40419
 H660 H 0.33205 0.27724 0.40522
 C661 C 0.29325 0.80906 -0.09903
 C662 C 0.30293 0.77917 -0.07948
 H663 H 0.26955 0.82378 -0.09196
 H664 H 0.32672 0.76462 -0.08657
 C665 C 0.81390 0.32535 -0.09451
 C666 C 0.82259 0.29491 -0.07563
 H667 H 0.79082 0.34085 -0.08677
 H668 H 0.84571 0.27938 -0.08319
 C669 C 0.80267 0.83018 0.41248
 C670 C 0.81109 0.79864 0.42985
 H671 H 0.77972 0.84551 0.42093
 H672 H 0.83371 0.78301 0.42097
 C673 C 0.69213 0.32676 0.60800
 C674 C 0.68060 0.29847 0.58595
 H675 H 0.71689 0.34091 0.60268
 H676 H 0.65555 0.28489 0.59130
 C677 C 0.68639 0.83867 1.09457
 C678 C 0.67559 0.81101 1.07143
 H679 H 0.71137 0.85294 1.09059
 H680 H 0.65050 0.79709 1.07580
 C681 C 0.17318 0.30126 1.08680
 C682 C 0.20375 0.30980 1.07136
 H683 H 0.15835 0.27683 1.07656
 H684 H 0.21910 0.33400 1.08120
 C685 C 0.17689 0.80150 0.59089
 C686 C 0.20491 0.81358 0.57250
 H687 H 0.16343 0.77594 0.58128
 H688 H 0.21878 0.83913 0.58128
 C689 C 0.30213 0.67470 0.57370
 C690 C 0.30793 0.70768 0.55745
 H691 H 0.27872 0.65818 0.56677
 H692 H 0.33157 0.72403 0.56387
 C693 C 0.31808 0.19460 1.08921
 C694 C 0.28676 0.18443 1.07490
 H695 H 0.33199 0.21891 1.07864
 H696 H 0.27271 0.16042 1.08592
 C697 C 0.78507 0.69032 1.09778
 C698 C 0.79220 0.72184 1.07939
 H699 H 0.76199 0.67333 1.09056
 H700 H 0.81538 0.73839 1.08721
 C701 C 0.81097 0.19588 0.59967
 C702 C 0.77949 0.18765 0.58433
 H703 H 0.82503 0.22111 0.59151
 H704 H 0.76520 0.16244 0.59210
 C705 C 0.69504 0.68194 0.41399
 C706 C 0.68829 0.71407 0.43195
 H707 H 0.71811 0.66616 0.42141
 H708 H 0.66544 0.73009 0.42431
 C709 C 0.71348 0.17139 -0.08995
 C710 C 0.70394 0.20313 -0.07284
 H711 H 0.73797 0.15826 -0.08244
 H712 H 0.67976 0.21645 -0.08106
 C713 C 0.20265 0.65267 -0.09267
 C714 C 0.18905 0.68240 -0.07531
 H715 H 0.22732 0.64134 -0.08308
 H716 H 0.16474 0.69430 -0.08521
 C717 C 0.19521 0.17409 0.39809
 C718 C 0.18783 0.20613 0.41585
 H719 H 0.21858 0.15889 0.40589
 H720 H 0.16490 0.22186 0.40784
 C721 C 0.34188 0.38247 0.68382
 C722 C 0.31273 0.39795 0.67014
 H723 H 0.35399 0.39373 0.70903
 H724 H 0.30033 0.38609 0.64533
 C725 C 0.31725 0.90065 0.17301
 C726 C 0.32384 0.91674 0.20588
 H727 H 0.29527 0.90968 0.15623
 H728 H 0.34528 0.90690 0.22300
 C729 C 0.82673 0.41378 0.19429
 C730 C 0.79348 0.42350 0.18795
 H731 H 0.84203 0.42879 0.21553
 H732 H 0.77755 0.40846 0.16730
 C733 C 0.84366 0.88681 0.70553
 C734 C 0.81511 0.90533 0.69449
 H735 H 0.85701 0.89534 0.73105
 H736 H 0.80151 0.89689 0.66910
 C737 C 0.69589 0.60964 0.69614
 C738 C 0.68641 0.58955 0.72534
 H739 H 0.72078 0.60449 0.68306
 H740 H 0.66148 0.59475 0.73832
 C741 C 0.69249 0.11535 0.19007
 C742 C 0.68135 0.09633 0.21932
 H743 H 0.71730 0.10836 0.17768
 H744 H 0.65646 0.10325 0.23155
 C745 C 0.16420 0.59731 0.18846
 C746 C 0.19464 0.58243 0.17814
 H747 H 0.15031 0.58555 0.21162
 H748 H 0.20909 0.59427 0.15543
 C749 C 0.19296 0.10038 0.67924
 C750 C 0.18193 0.07850 0.70654
 H751 H 0.21802 0.09503 0.66661
 H752 H 0.15667 0.08387 0.71873
 C753 C 0.31153 0.59920 0.29514
 C754 C 0.27945 0.58490 0.30123
 H755 H 0.32695 0.58751 0.27291
 H756 H 0.26379 0.59613 0.32347
 C757 C 0.31773 0.08848 0.80772
 C758 C 0.28572 0.07448 0.81521
 H759 H 0.33168 0.07774 0.78399
 H760 H 0.27171 0.08461 0.83913
 C761 C 0.82429 0.60471 0.82617
 C762 C 0.79205 0.59134 0.83330
 H763 H 0.83875 0.59288 0.80329
 H764 H 0.77779 0.60229 0.85671
 C765 C 0.81665 0.10620 0.32224
 C766 C 0.78464 0.09257 0.33017
 H767 H 0.83014 0.09561 0.29814
 H768 H 0.77107 0.10271 0.35437
 C769 C 0.68123 0.40630 0.31156
 C770 C 0.71411 0.41931 0.31713
 H771 H 0.66555 0.41813 0.28952
 H772 H 0.73042 0.40797 0.33888
 C773 C 0.68551 0.90175 0.79777
 C774 C 0.71845 0.91033 0.80841
 H775 H 0.67406 0.91565 0.77415
 H776 H 0.73014 0.89679 0.83207
 C777 C 0.19043 0.39269 0.78489
 C778 C 0.22285 0.40686 0.78982
 H779 H 0.17488 0.40080 0.76109
 H780 H 0.23839 0.39937 0.81382
 C781 C 0.18402 0.92011 0.31328
 C782 C 0.18963 0.92335 0.27727
 H783 H 0.19975 0.93724 0.33258
 H784 H 0.17434 0.90661 0.25732
 C785 C 0.42749 0.27993 0.68433
 C786 C 0.44109 0.28870 0.71783
 H787 H 0.43750 0.25608 0.66892
 H788 H 0.43083 0.31195 0.73389
 C789 C 0.41305 0.81235 0.19097
 C790 C 0.43266 0.78363 0.18000
 H791 H 0.41868 0.82650 0.21723
 H792 H 0.42732 0.77012 0.15336
 C793 C 0.91700 0.32118 0.20515
 C794 C 0.93181 0.28836 0.19711
 H795 H 0.92558 0.33730 0.22944
 H796 H 0.92355 0.27225 0.17269
 C797 C 0.92765 0.78361 0.69784
 C798 C 0.94288 0.79333 0.73020
 H799 H 0.93650 0.75907 0.68265
 H800 H 0.93391 0.81774 0.74547
 C801 C 0.58249 0.31833 0.31793
 C802 C 0.56785 0.33210 0.28731
 H803 H 0.57161 0.29315 0.33018
 H804 H 0.57864 0.35726 0.27497
 C805 C 0.57788 0.82732 0.79593
 C806 C 0.55634 0.80095 0.80887
 H807 H 0.57296 0.83905 0.76893
 H808 H 0.56165 0.78887 0.83566
 C809 C 0.09280 0.30799 0.81213
 C810 C 0.07447 0.32131 0.78343
 H811 H 0.08399 0.28276 0.82588
 H812 H 0.08340 0.34675 0.77009
 C813 C 0.08532 0.82517 0.31259
 C814 C 0.06741 0.83621 0.28252
 H815 H 0.07623 0.80037 0.32693
 H816 H 0.07597 0.86091 0.26775
 C817 C 0.58985 0.68607 0.70263
 C818 C 0.56832 0.71196 0.68932
 H819 H 0.58376 0.67226 0.72831
 H820 H 0.57473 0.72567 0.66370
 C821 C 0.59156 0.20013 0.19179
 C822 C 0.57310 0.22879 0.17850
 H823 H 0.58342 0.18658 0.21694
 H824 H 0.58142 0.24239 0.15345
 C825 C 0.07627 0.69416 0.19397
 C826 C 0.05866 0.72373 0.18169
 H827 H 0.06897 0.68158 0.21990
 H828 H 0.06547 0.73594 0.15546
 C829 C 0.09269 0.18686 0.68988
 C830 C 0.07365 0.21549 0.67722
 H831 H 0.08569 0.17354 0.71552
 H832 H 0.08094 0.22862 0.65158
 C833 C 0.40935 0.68926 0.31223
 C834 C 0.42681 0.67739 0.28240
 H835 H 0.41913 0.71354 0.32802
 H836 H 0.41726 0.65336 0.26614
 C837 C 0.41928 0.17415 0.82894
 C838 C 0.43627 0.16416 0.79820
 H839 H 0.42998 0.19677 0.84641
 H840 H 0.42552 0.14222 0.77997
 C841 C 0.92597 0.68881 0.84839
 C842 C 0.94340 0.67472 0.81971
 H843 H 0.93595 0.71383 0.86290
 H844 H 0.93328 0.65013 0.80465
 C845 C 0.91466 0.19658 0.33778
 C846 C 0.93065 0.18477 0.30721
 H847 H 0.92432 0.22162 0.35247
 H848 H 0.92138 0.15962 0.29249
 C849 C 0.33789 0.28346 0.58684
 C850 C 0.31027 0.29911 0.57027
 H851 H 0.34724 0.25643 0.57722
 H852 H 0.30114 0.32619 0.58013
 C853 C 0.32552 0.79167 0.09058
 C854 C 0.29523 0.80119 0.07432
 H855 H 0.33812 0.76560 0.08301
 H856 H 0.28273 0.82726 0.08211
 C857 C 0.83251 0.30855 0.10234
 C858 C 0.80589 0.32048 0.08154
 H859 H 0.84429 0.28169 0.09598
 H860 H 0.79423 0.34746 0.08784
 C861 C 0.83601 0.79248 0.60334
 C862 C 0.80804 0.80825 0.58772
 H863 H 0.84549 0.76596 0.59250
 H864 H 0.79863 0.83485 0.59847
 C865 C 0.30898 0.70081 0.39164
 C866 C 0.27865 0.69090 0.40721
 H867 H 0.32269 0.72615 0.40145
 H868 H 0.26513 0.66508 0.39858
 C869 C 0.31823 0.18537 0.90759
 C870 C 0.28589 0.17753 0.91949
 H871 H 0.33288 0.20903 0.91973
 H872 H 0.27108 0.15364 0.90812
 C873 C 0.82033 0.70893 0.91810
 C874 C 0.78722 0.70114 0.92679
 H875 H 0.83381 0.73325 0.93047
 H876 H 0.77400 0.67642 0.91489
 C877 C 0.81828 0.20106 0.42323
 C878 C 0.78599 0.19168 0.43370
 H879 H 0.83207 0.22479 0.43635
 H880 H 0.77218 0.16796 0.42062
 C881 C 0.67464 0.30949 0.41033
 C882 C 0.70406 0.31866 0.42906
 H883 H 0.65945 0.28505 0.41861
 H884 H 0.71940 0.34324 0.42155
 C885 C 0.66510 0.80809 0.89534
 C886 C 0.69430 0.81852 0.91398
 H887 H 0.64980 0.78398 0.90415
 H888 H 0.70894 0.84314 0.90526
 C889 C 0.19694 0.31382 0.89494
 C890 C 0.18404 0.28722 0.91686
 H891 H 0.22328 0.32503 0.89985
 H892 H 0.15780 0.27589 0.91166
 C893 C 0.17657 0.83059 0.40957
 C894 C 0.17063 0.79577 0.42152
 H895 H 0.19833 0.84710 0.42127
 H896 H 0.14892 0.77879 0.41046
 C897 C 0.67809 0.70977 0.60640
 C898 C 0.70595 0.69831 0.58739
 H899 H 0.66505 0.73552 0.59909
 H900 H 0.71810 0.67201 0.59458
 C901 C 0.68301 0.21426 0.09783
 C902 C 0.71237 0.20240 0.08194
 H903 H 0.67028 0.23936 0.08812
 H904 H 0.72462 0.17702 0.09171
 C905 C 0.16685 0.69962 0.09754
 C906 C 0.19659 0.68715 0.08262
 H907 H 0.15481 0.72477 0.08701
 H908 H 0.20865 0.66216 0.09349
 C909 C 0.17937 0.20340 0.59169
 C910 C 0.20615 0.19076 0.57180
 H911 H 0.16732 0.22991 0.58506
 H912 H 0.21753 0.16392 0.57845
   
