data_POSCAR
  _audit_creation_date              2014-09-24
  _audit_creation_method            'ToBaCCo'
  _symmetry_space_group_name_H-M    'P1'
  _symmetry_Int_Tables_number       1
  _symmetry_cell_setting            triclinic
  loop_
  _symmetry_equiv_pos_as_xyz
 x,y,z
_cell_length_a 60.3264
_cell_length_b 60.3090
_cell_length_c 19.7920
_cell_angle_alpha 90.089200
_cell_angle_beta 89.873600
_cell_angle_gamma 120.079400
loop_
  _atom_site_label
  _atom_site_type_symbol
  _atom_site_fract_x
  _atom_site_fract_y
  _atom_site_fract_z
O1 O 0.25942 0.47906 0.56225
 O2 O 0.21540 0.47904 0.43422
 O3 O 0.25871 0.47918 0.43159
 O4 O 0.21621 0.47907 0.56491
 O5 O 0.23730 0.52145 0.56531
 O6 O 0.28000 0.52156 0.43150
 O7 O 0.23646 0.52142 0.43410
 O8 O 0.28073 0.52144 0.56267
 Cu9 Cu 0.23530 0.47483 0.49820
 Cu10 Cu 0.26077 0.52577 0.49839
 C11 C 0.27766 0.50019 0.58356
 C12 C 0.21826 0.50016 0.41309
 C13 C 0.27672 0.50034 0.40963
 C14 C 0.21937 0.50019 0.58711
 O15 O 0.51420 -0.22304 0.57048
 O16 O 0.51056 -0.26779 0.43885
 O17 O 0.51379 -0.22299 0.43968
 O18 O 0.51068 -0.26798 0.56945
 O19 O 0.46841 -0.28676 0.57051
 O20 O 0.47152 -0.24163 0.44029
 O21 O 0.46828 -0.28662 0.43948
 O22 O 0.47195 -0.24162 0.57157
 Cu23 Cu 0.51656 -0.24355 0.50455
 Cu24 Cu 0.46575 -0.26604 0.50556
 C25 C 0.49377 -0.22455 0.59275
 C26 C 0.48884 -0.28497 0.41757
 C27 C 0.49324 -0.22452 0.41857
 C28 C 0.48904 -0.28519 0.59121
 O29 O 1.23087 0.72914 0.56317
 O30 O 1.27424 0.77278 0.43294
 O31 O 1.23084 0.72955 0.43251
 O32 O 1.27447 0.77220 0.56367
 O33 O 1.29542 0.75083 0.56225
 O34 O 1.25166 0.70805 0.43065
 O35 O 1.29525 0.75147 0.43109
 O36 O 1.25162 0.70758 0.56174
 Cu37 Cu 1.25051 0.75308 0.49825
 Cu38 Cu 1.27561 0.72731 0.49628
 C39 C 1.23366 0.71080 0.58380
 C40 C 1.29224 0.76973 0.41058
 C41 C 1.23366 0.71141 0.41006
 C42 C 1.29249 0.76894 0.58450
 O43 O 0.78316 0.52645 0.43332
 O44 O 0.73938 0.52518 0.56469
 O45 O 0.78347 0.52672 0.56421
 O46 O 0.73896 0.52456 0.43408
 O47 O 0.71902 0.48220 0.43482
 O48 O 0.76356 0.48437 0.56522
 O49 O 0.71935 0.48282 0.56565
 O50 O 0.76333 0.48410 0.43405
 Cu51 Cu 0.76328 0.52999 0.49904
 Cu52 Cu 0.73932 0.47909 0.50009
 C53 C 0.78083 0.50555 0.41198
 C54 C 0.72170 0.50380 0.58651
 C55 C 0.78123 0.50593 0.58608
 C56 C 0.72126 0.50302 0.41315
 O57 O 0.48319 0.26143 0.43913
 O58 O 0.48404 0.21773 0.56718
 O59 O 0.48449 0.26131 0.56961
 O60 O 0.48257 0.21785 0.43640
 O61 O 0.52491 0.23858 0.43286
 O62 O 0.52685 0.28223 0.56637
 O63 O 0.52638 0.23851 0.56395
 O64 O 0.52555 0.28230 0.43561
 Cu65 Cu 0.47931 0.23745 0.50347
 Cu66 Cu 0.53021 0.26249 0.49942
 C67 C 0.50422 0.27946 0.41648
 C68 C 0.50531 0.22051 0.58655
 C69 C 0.50596 0.27938 0.58964
 C70 C 0.50336 0.22068 0.41261
 O71 O 0.77461 0.27312 0.56492
 O72 O 0.73105 0.22905 0.43573
 O73 O 0.77346 0.27329 0.43436
 O74 O 0.73232 0.22887 0.56639
 O75 O 0.70968 0.24850 0.57010
 O76 O 0.75108 0.29319 0.43759
 O77 O 0.70847 0.24875 0.43897
 O78 O 0.75217 0.29295 0.56860
 Cu79 Cu 0.75511 0.24908 0.49997
 Cu80 Cu 0.72805 0.27284 0.50413
 C81 C 0.77097 0.29067 0.58796
 C82 C 0.71222 0.23122 0.41616
 C83 C 0.76949 0.29097 0.41437
 C84 C 0.71390 0.23096 0.59001
 N85 N 0.97703 0.53268 0.07060
 N86 N 0.95785 0.53726 0.07606
 N87 N 1.02918 0.53974 0.11853
 N88 N 1.04946 0.55041 0.15811
 N89 N 1.03093 0.55577 0.07114
 N90 N 1.05254 0.57784 0.07717
 N91 N 0.97553 0.51672 0.11787
 N92 N 0.95539 0.51004 0.15682
 C93 C 0.94473 0.52311 0.13031
 C94 C 1.06369 0.57412 0.13186
 N95 N 1.02341 0.47379 0.07434
 N96 N 1.04259 0.46929 0.08133
 N97 N 0.97095 0.46696 0.11981
 N98 N 0.95060 0.45645 0.15939
 N99 N 0.96949 0.45058 0.07374
 N100 N 0.94802 0.42843 0.08065
 N101 N 1.02465 0.49005 0.12049
 N102 N 1.04463 0.49704 0.16013
 Mn103 Mn 1.00007 0.50337 0.11994
 C104 C 1.05547 0.48384 0.13527
 C105 C 0.93661 0.43247 0.13444
 N106 N 1.03118 0.55520 -0.07443
 N107 N 1.05272 0.57729 -0.08146
 N108 N 0.97589 0.51576 -0.12091
 N109 N 0.95592 0.50886 -0.16051
 N110 N 0.97728 0.53212 -0.07487
 N111 N 0.95820 0.53677 -0.08185
 N112 N 1.02957 0.53879 -0.12059
 N113 N 1.04989 0.54920 -0.16029
 Mn114 Mn 1.00414 0.54429 -0.00190
 C115 C 1.06400 0.57317 -0.13541
 C116 C 0.94525 0.52223 -0.13570
 N117 N 0.96973 0.44999 -0.07175
 N118 N 0.94839 0.42771 -0.07848
 N119 N 1.02501 0.48908 -0.11860
 N120 N 1.04524 0.49592 -0.15734
 N121 N 1.02363 0.47321 -0.07120
 N122 N 1.04296 0.46884 -0.07638
 N123 N 0.97134 0.46601 -0.11901
 N124 N 0.95125 0.45511 -0.15923
 Mn125 Mn 0.99654 0.46156 0.00130
 Mn126 Mn 1.00044 0.50240 -0.12054
 Cl127 Cl 1.00029 0.50290 -0.00030
 C128 C 0.93724 0.43130 -0.13339
 C129 C 1.05605 0.48303 -0.13060
 N130 N 0.53456 0.50974 0.11949
 N131 N 0.54705 0.50230 0.15953
 N132 N 0.52121 0.55080 0.07207
 N133 N 0.52321 0.57354 0.07888
 N134 N 0.50600 0.53496 0.11864
 N135 N 0.49724 0.54643 0.15843
 N136 N 0.54988 0.52549 0.07291
 N137 N 0.57327 0.52917 0.07994
 C138 C 0.57111 0.51468 0.13436
 C139 C 0.50821 0.57041 0.13311
 N140 N 0.50666 0.53485 -0.12034
 N141 N 0.49790 0.54621 -0.16024
 N142 N 0.55030 0.52544 -0.07262
 N143 N 0.57387 0.52958 -0.07985
 N144 N 0.53521 0.50965 -0.11940
 N145 N 0.54801 0.50262 -0.15975
 N146 N 0.52161 0.55071 -0.07345
 N147 N 0.52340 0.57335 -0.08013
 Mn148 Mn 0.53607 0.53844 -0.00027
 C149 C 0.50861 0.57015 -0.13466
 C150 C 0.57201 0.51523 -0.13449
 N151 N 0.45933 0.48636 0.11811
 N152 N 0.44666 0.49402 0.15702
 N153 N 0.47287 0.44524 0.07231
 N154 N 0.47037 0.42235 0.08038
 N155 N 0.48785 0.46111 0.11912
 N156 N 0.49594 0.44952 0.16035
 N157 N 0.44428 0.47060 0.07121
 N158 N 0.42092 0.46711 0.07690
 Mn159 Mn 0.49693 0.49804 0.11962
 C160 C 0.42279 0.48174 0.13084
 C161 C 0.48485 0.42544 0.13554
 N162 N 0.48856 0.46097 -0.11980
 N163 N 0.49737 0.44947 -0.15930
 N164 N 0.44467 0.47051 -0.07427
 N165 N 0.42131 0.46692 -0.08127
 N166 N 0.46001 0.48623 -0.12086
 N167 N 0.44757 0.49374 -0.16085
 N168 N 0.47332 0.44517 -0.07319
 N169 N 0.47134 0.42244 -0.07967
 Mn170 Mn 0.49762 0.49792 -0.12087
 Mn171 Mn 0.45848 0.45756 -0.00100
 Cl172 Cl 0.49728 0.49799 -0.00063
 C173 C 0.48637 0.42551 -0.13374
 C174 C 0.42351 0.48144 -0.13567
 N175 N 0.44930 -0.02991 0.06996
 N176 N 0.42685 -0.05116 0.07554
 N177 N 0.48933 0.02511 0.11729
 N178 N 0.49633 0.04532 0.15620
 N179 N 0.47388 0.02417 0.06931
 N180 N 0.46997 0.04380 0.07422
 N181 N 0.46485 -0.02867 0.11803
 N182 N 0.45349 -0.04893 0.15763
 C183 C 0.42985 -0.06263 0.13072
 C184 C 0.48400 0.05663 0.12886
 N185 N 0.55471 0.02894 0.07626
 N186 N 0.57714 0.05003 0.08384
 N187 N 0.51375 -0.02583 0.12213
 N188 N 0.50583 -0.04603 0.16155
 N189 N 0.53001 -0.02510 0.07671
 N190 N 0.53358 -0.04487 0.08399
 N191 N 0.53829 0.02796 0.12152
 N192 N 0.54904 0.04827 0.16116
 Mn193 Mn 0.50155 -0.00034 0.12049
 C194 C 0.57321 0.06170 0.13721
 C195 C 0.51848 -0.05754 0.13734
 N196 N 0.47530 0.02404 -0.07615
 N197 N 0.47147 0.04363 -0.08398
 N198 N 0.46717 -0.02892 -0.12103
 N199 N 0.45651 -0.04931 -0.16038
 N200 N 0.45074 -0.03000 -0.07561
 N201 N 0.42841 -0.05123 -0.08281
 N202 N 0.49166 0.02485 -0.12140
 N203 N 0.49935 0.04490 -0.16127
 Mn204 Mn 0.46196 -0.00295 -0.00315
 C205 C 0.48651 0.05626 -0.13751
 C206 C 0.43240 -0.06288 -0.13610
 N207 N 0.53142 -0.02528 -0.06880
 N208 N 0.53495 -0.04517 -0.07343
 N209 N 0.54066 0.02780 -0.11718
 N210 N 0.55219 0.04815 -0.15646
 N211 N 0.55613 0.02879 -0.06916
 N212 N 0.57866 0.04993 -0.07442
 N213 N 0.51610 -0.02603 -0.11692
 N214 N 0.50882 -0.04634 -0.15559
 Mn215 Mn 0.54340 0.00185 0.00377
 Mn216 Mn 0.50391 -0.00056 -0.11989
 Cl217 Cl 0.50271 -0.00050 0.00030
 C218 C 0.52085 -0.05791 -0.12812
 C219 C 0.57583 0.06163 -0.12929
 C220 C 1.12101 0.49113 0.21710
 C221 C 1.14138 0.51584 0.23402
 C222 C 1.16284 0.51845 0.27052
 C223 C 1.16389 0.49635 0.28933
 C224 C 1.14406 0.47173 0.26974
 C225 C 1.12254 0.46911 0.23360
 C226 C 1.10281 0.44428 0.21527
 C227 C 1.10431 0.42265 0.23208
 C228 C 1.12535 0.42519 0.26738
 C229 C 1.14505 0.44940 0.28615
 C230 C 1.18276 0.54329 0.28791
 C231 C 1.18165 0.56498 0.26907
 C232 C 1.16082 0.56245 0.23272
 C233 C 1.14077 0.53820 0.21566
 C234 C 1.18457 0.49869 0.33180
 C235 C 1.20090 0.49982 0.36904
 C236 C 1.09796 0.48829 0.18589
 C237 C 1.07858 0.48601 0.16183
 H238 H 1.08610 0.44133 0.18758
 H239 H 1.08907 0.40381 0.21758
 H240 H 1.12644 0.40833 0.28029
 H241 H 1.16105 0.45038 0.31341
 H242 H 1.19942 0.54621 0.31581
 H243 H 1.19709 0.58386 0.28257
 H244 H 1.16018 0.57937 0.21775
 H245 H 1.12492 0.53720 0.18758
 C246 C 0.49451 0.62421 0.21820
 C247 C 0.50694 0.64994 0.19568
 C248 C 0.50373 0.66851 0.23197
 C249 C 0.48807 0.66120 0.29041
 C250 C 0.47451 0.63519 0.31071
 C251 C 0.47782 0.61665 0.27466
 C252 C 0.46443 0.59084 0.29667
 C253 C 0.44809 0.58353 0.35236
 C254 C 0.44472 0.60164 0.38732
 C255 C 0.45780 0.62721 0.36711
 C256 C 0.51661 0.69419 0.20906
 C257 C 0.53216 0.70131 0.15176
 C258 C 0.53528 0.68314 0.11626
 C259 C 0.52287 0.65772 0.13777
 C260 C 0.48744 0.68060 0.33264
 C261 C 0.48767 0.69650 0.37009
 C262 C 0.49964 0.60570 0.18537
 C263 C 0.50380 0.58991 0.16030
 H264 H 0.46624 0.57601 0.27079
 H265 H 0.43785 0.56368 0.36817
 H266 H 0.43189 0.59583 0.43028
 H267 H 0.45453 0.64059 0.39585
 H268 H 0.51468 0.70896 0.23490
 H269 H 0.54183 0.72103 0.13483
 H270 H 0.54739 0.68878 0.07184
 H271 H 0.52583 0.64426 0.10844
 C272 C 0.37825 -0.13133 0.21485
 C273 C 0.38648 -0.13897 0.27281
 C274 C 0.36891 -0.16138 0.30872
 C275 C 0.34316 -0.17587 0.28689
 C276 C 0.33527 -0.16893 0.22713
 C277 C 0.35289 -0.14661 0.19090
 C278 C 0.34454 -0.13994 0.13156
 C279 C 0.31947 -0.15492 0.10859
 C280 C 0.30222 -0.17673 0.14407
 C281 C 0.30991 -0.18372 0.20277
 C282 C 0.37756 -0.16863 0.36653
 C283 C 0.40285 -0.15413 0.38829
 C284 C 0.42000 -0.13213 0.35343
 C285 C 0.41202 -0.12452 0.29640
 C286 C 0.32448 -0.19665 0.32875
 C287 C 0.30918 -0.21297 0.36602
 C288 C 0.39569 -0.10730 0.18176
 C289 C 0.41080 -0.08700 0.15689
 H290 H 0.35730 -0.12317 0.10224
 H291 H 0.31340 -0.14958 0.06306
 H292 H 0.28277 -0.18830 0.12601
 H293 H 0.29586 -0.20090 0.22854
 H294 H 0.36494 -0.18563 0.39524
 H295 H 0.40916 -0.16001 0.43242
 H296 H 0.43964 -0.12096 0.37043
 H297 H 0.42614 -0.10736 0.27071
 C298 C 0.87877 0.51582 0.20942
 C299 C 0.87702 0.53774 0.22589
 C300 C 0.85546 0.53497 0.26235
 C301 C 0.83581 0.51030 0.28225
 C302 C 0.83701 0.48829 0.26311
 C303 C 0.85851 0.49105 0.22631
 C304 C 0.85930 0.46879 0.20772
 C305 C 0.83938 0.44448 0.22485
 C306 C 0.81849 0.44179 0.26147
 C307 C 0.81721 0.46338 0.28055
 C308 C 0.85425 0.55719 0.27883
 C309 C 0.87377 0.58144 0.25978
 C310 C 0.89487 0.58415 0.22416
 C311 C 0.89659 0.56261 0.20731
 C312 C 0.81528 0.50780 0.32575
 C313 C 0.79904 0.50639 0.36398
 C314 C 0.90200 0.51883 0.17881
 C315 C 0.92150 0.52109 0.15557
 H316 H 0.87520 0.46991 0.17938
 H317 H 0.84018 0.42764 0.20974
 H318 H 0.80315 0.42286 0.27502
 H319 H 0.80051 0.46034 0.30865
 H320 H 0.83819 0.55607 0.30632
 H321 H 0.87252 0.59823 0.27272
 H322 H 0.90998 0.60303 0.20945
 H323 H 0.91332 0.56567 0.17936
 C324 C 0.49595 0.37102 0.22667
 C325 C 0.50419 0.37543 0.29482
 C326 C 0.50714 0.35666 0.33057
 C327 C 0.50184 0.33359 0.29796
 C328 C 0.49436 0.32953 0.22923
 C329 C 0.49141 0.34832 0.19345
 C330 C 0.48382 0.34382 0.12487
 C331 C 0.47932 0.32140 0.09249
 C332 C 0.48218 0.30301 0.12750
 C333 C 0.48958 0.30692 0.19514
 C334 C 0.51521 0.36143 0.39885
 C335 C 0.52019 0.38406 0.43085
 C336 C 0.51729 0.40240 0.39590
 C337 C 0.50944 0.39827 0.32865
 C338 C 0.50310 0.31377 0.33636
 C339 C 0.50380 0.29776 0.37122
 C340 C 0.49172 0.38970 0.19162
 C341 C 0.48836 0.40568 0.16473
 H342 H 0.48138 0.35758 0.09557
 H343 H 0.47360 0.31828 0.03996
 H344 H 0.47865 0.28563 0.10211
 H345 H 0.49162 0.29212 0.22028
 H346 H 0.51781 0.34779 0.42822
 H347 H 0.52630 0.38737 0.48305
 H348 H 0.52120 0.41996 0.42097
 H349 H 0.50757 0.41318 0.30359
 C350 C 0.62487 0.13043 0.22120
 C351 C 0.65073 0.14430 0.19983
 C352 C 0.66851 0.16677 0.23522
 C353 C 0.66028 0.17525 0.29162
 C354 C 0.63412 0.16213 0.31076
 C355 C 0.61638 0.13957 0.27565
 C356 C 0.59043 0.12650 0.29656
 C357 C 0.58221 0.13556 0.35027
 C358 C 0.59952 0.15772 0.38428
 C359 C 0.62522 0.17089 0.36509
 C360 C 0.69434 0.18015 0.21349
 C361 C 0.70237 0.17163 0.15818
 C362 C 0.68498 0.14967 0.12352
 C363 C 0.65943 0.13606 0.14394
 C364 C 0.67892 0.19620 0.33300
 C365 C 0.69427 0.21272 0.36967
 C366 C 0.60715 0.10629 0.18904
 C367 C 0.59201 0.08599 0.16428
 H368 H 0.57618 0.10929 0.27133
 H369 H 0.56225 0.12543 0.36525
 H370 H 0.59302 0.16474 0.42577
 H371 H 0.63797 0.18807 0.39299
 H372 H 0.70854 0.19739 0.23872
 H373 H 0.72219 0.18213 0.14211
 H374 H 0.69130 0.14314 0.08056
 H375 H 0.64659 0.11912 0.11535
 C376 C 0.49756 0.12280 -0.22235
 C377 C 0.48392 0.13505 -0.20131
 C378 C 0.48710 0.15697 -0.23667
 C379 C 0.50394 0.16651 -0.29272
 C380 C 0.51847 0.15495 -0.31179
 C381 C 0.51518 0.13296 -0.27673
 C382 C 0.52955 0.12144 -0.29757
 C383 C 0.54680 0.13148 -0.35122
 C384 C 0.55015 0.15310 -0.38518
 C385 C 0.53617 0.16476 -0.36600
 C386 C 0.47305 0.16873 -0.21523
 C387 C 0.45639 0.15917 -0.16026
 C388 C 0.45331 0.13776 -0.12564
 C389 C 0.46685 0.12574 -0.14576
 C390 C 0.50504 0.18700 -0.33363
 C391 C 0.50541 0.20320 -0.36997
 C392 C 0.49301 0.09934 -0.18972
 C393 C 0.48963 0.07968 -0.16468
 H394 H 0.52779 0.10472 -0.27241
 H395 H 0.55776 0.12253 -0.36619
 H396 H 0.56367 0.16090 -0.42659
 H397 H 0.53947 0.18157 -0.39388
 H398 H 0.47490 0.18549 -0.24044
 H399 H 0.44584 0.16844 -0.14442
 H400 H 0.44035 0.13042 -0.08296
 H401 H 0.46385 0.10916 -0.11724
 C402 C 0.62896 0.50776 -0.22433
 C403 C 0.65217 0.51382 -0.19160
 C404 C 0.67154 0.51180 -0.22749
 C405 C 0.66754 0.50373 -0.29579
 C406 C 0.64402 0.49696 -0.32790
 C407 C 0.62468 0.49899 -0.29207
 C408 C 0.60139 0.49228 -0.32542
 C409 C 0.59737 0.48391 -0.39228
 C410 C 0.61628 0.48192 -0.42730
 C411 C 0.63935 0.48833 -0.39577
 C412 C 0.69465 0.51811 -0.19394
 C413 C 0.69850 0.52610 -0.12672
 C414 C 0.67955 0.52804 -0.09160
 C415 C 0.65662 0.52202 -0.12346
 C416 C 0.68785 0.50339 -0.33446
 C417 C 0.70413 0.50342 -0.36993
 C418 C 0.60956 0.51091 -0.18924
 C419 C 0.59282 0.51321 -0.16273
 H420 H 0.58603 0.49340 -0.30031
 H421 H 0.57946 0.47889 -0.41699
 H422 H 0.61306 0.47540 -0.47919
 H423 H 0.65342 0.48638 -0.42520
 H424 H 0.70990 0.51683 -0.21919
 H425 H 0.71627 0.53080 -0.10174
 H426 H 0.68262 0.53423 -0.03939
 H427 H 0.64242 0.52379 -0.09411
 C428 C 0.86916 0.37914 -0.21911
 C429 C 0.85391 0.35407 -0.19311
 C430 C 0.83180 0.33589 -0.22900
 C431 C 0.82508 0.34293 -0.29051
 C432 C 0.83957 0.36841 -0.31460
 C433 C 0.86173 0.38655 -0.27892
 C434 C 0.87615 0.41179 -0.30459
 C435 C 0.86876 0.41895 -0.36351
 C436 C 0.84702 0.40124 -0.39823
 C437 C 0.83256 0.37622 -0.37441
 C438 C 0.81701 0.31085 -0.20250
 C439 C 0.82380 0.30399 -0.14207
 C440 C 0.84541 0.32178 -0.10695
 C441 C 0.86039 0.34656 -0.13199
 C442 C 0.80445 0.32369 -0.33153
 C443 C 0.78822 0.30796 -0.36813
 C444 C 0.89298 0.39709 -0.18608
 C445 C 0.91309 0.41238 -0.16082
 H446 H 0.89312 0.42631 -0.27914
 H447 H 0.87991 0.43839 -0.38213
 H448 H 0.84133 0.40692 -0.44387
 H449 H 0.81577 0.36314 -0.40312
 H450 H 0.79999 0.29639 -0.22793
 H451 H 0.81223 0.28477 -0.12239
 H452 H 0.85060 0.31635 -0.06007
 H453 H 0.87699 0.35976 -0.10286
 C454 C 0.50986 -0.12548 -0.20624
 C455 C 0.48460 -0.14481 -0.22264
 C456 C 0.48050 -0.16675 -0.25979
 C457 C 0.50165 -0.16933 -0.27967
 C458 C 0.52679 -0.15063 -0.26020
 C459 C 0.53090 -0.12862 -0.22347
 C460 C 0.55622 -0.11002 -0.20537
 C461 C 0.57690 -0.11310 -0.22294
 C462 C 0.57289 -0.13463 -0.25882
 C463 C 0.54817 -0.15323 -0.27743
 C464 C 0.45513 -0.18557 -0.27684
 C465 C 0.43438 -0.18295 -0.25697
 C466 C 0.43837 -0.16167 -0.21990
 C467 C 0.46316 -0.14266 -0.20321
 C468 C 0.49786 -0.19031 -0.32339
 C469 C 0.49551 -0.20689 -0.36180
 C470 C 0.51429 -0.10170 -0.17565
 C471 C 0.51767 -0.08172 -0.15266
 H472 H 0.56029 -0.09299 -0.17723
 H473 H 0.59614 -0.09871 -0.20858
 H474 H 0.58901 -0.13694 -0.27232
 H475 H 0.54602 -0.16967 -0.30516
 H476 H 0.45109 -0.20253 -0.30525
 H477 H 0.41509 -0.19755 -0.27023
 H478 H 0.42216 -0.15984 -0.20412
 H479 H 0.46530 -0.12641 -0.17452
 C480 C 0.36637 0.49045 -0.21787
 C481 C 0.37181 0.51511 -0.23906
 C482 C 0.35311 0.51799 -0.27542
 C483 C 0.32902 0.49623 -0.28987
 C484 C 0.32317 0.47176 -0.26591
 C485 C 0.34191 0.46886 -0.22990
 C486 C 0.33573 0.44417 -0.20716
 C487 C 0.31169 0.42295 -0.21952
 C488 C 0.29334 0.42578 -0.25469
 C489 C 0.29891 0.44985 -0.27778
 C490 C 0.35912 0.54275 -0.29705
 C491 C 0.38284 0.56411 -0.28252
 C492 C 0.40102 0.56133 -0.24635
 C493 C 0.39575 0.53714 -0.22512
 C494 C 0.31076 0.49865 -0.33245
 C495 C 0.29561 0.49984 -0.36972
 C496 C 0.38627 0.48710 -0.18671
 C497 C 0.40305 0.48434 -0.16255
 H498 H 0.34934 0.44102 -0.17940
 H499 H 0.30726 0.40421 -0.20167
 H500 H 0.27468 0.40924 -0.26413
 H501 H 0.28398 0.45109 -0.30473
 H502 H 0.34552 0.54587 -0.32496
 H503 H 0.38711 0.58293 -0.29919
 H504 H 0.41931 0.57802 -0.23465
 H505 H 0.41053 0.53593 -0.19729
 C506 C 1.13309 0.62376 -0.21992
 C507 C 1.14093 0.61546 -0.27752
 C508 C 1.16351 0.63298 -0.31295
 C509 C 1.17798 0.65874 -0.29098
 C510 C 1.17082 0.66670 -0.23152
 C511 C 1.14832 0.64913 -0.19580
 C512 C 1.14141 0.65756 -0.13683
 C513 C 1.15634 0.68264 -0.11374
 C514 C 1.17834 0.69982 -0.14869
 C515 C 1.18557 0.69206 -0.20700
 C516 C 1.17096 0.62427 -0.37043
 C517 C 1.15650 0.59896 -0.39229
 C518 C 1.13433 0.58187 -0.35791
 C519 C 1.12651 0.58993 -0.30123
 C520 C 1.19892 0.67740 -0.33247
 C521 C 1.21536 0.69278 -0.36935
 C522 C 1.10889 0.60642 -0.18734
 C523 C 1.08848 0.59160 -0.16243
 H524 H 1.12450 0.64486 -0.10790
 H525 H 1.15080 0.68878 -0.06854
 H526 H 1.18987 0.71928 -0.13052
 H527 H 1.20289 0.70606 -0.23236
 H528 H 1.18809 0.63684 -0.39877
 H529 H 1.16255 0.59259 -0.43610
 H530 H 1.12319 0.56222 -0.37500
 H531 H 1.10922 0.57586 -0.27590
 C532 C 0.87964 0.51513 -0.21627
 C533 C 0.87719 0.53698 -0.22744
 C534 C 0.85563 0.53452 -0.26302
 C535 C 0.83669 0.51023 -0.28734
 C536 C 0.83861 0.48821 -0.27370
 C537 C 0.86011 0.49065 -0.23781
 C538 C 0.86161 0.46837 -0.22473
 C539 C 0.84239 0.44436 -0.24639
 C540 C 0.82151 0.44200 -0.28209
 C541 C 0.81953 0.46361 -0.29575
 C542 C 0.85371 0.55667 -0.27411
 C543 C 0.87252 0.58057 -0.25062
 C544 C 0.89361 0.58297 -0.21584
 C545 C 0.89603 0.56149 -0.20428
 C546 C 0.81612 0.50820 -0.32964
 C547 C 0.79975 0.50694 -0.36690
 C548 C 0.90278 0.51798 -0.18569
 C549 C 0.92217 0.52018 -0.16203
 H550 H 0.87752 0.46923 -0.19726
 H551 H 0.84369 0.42748 -0.23535
 H552 H 0.80670 0.42331 -0.29908
 H553 H 0.80285 0.46081 -0.32334
 H554 H 0.83762 0.55576 -0.30075
 H555 H 0.87073 0.59731 -0.25944
 H556 H 0.90817 0.60157 -0.19766
 H557 H 0.91274 0.56430 -0.17681
 C558 C 0.49969 0.37103 -0.21600
 C559 C 0.48668 0.34534 -0.19303
 C560 C 0.48968 0.32641 -0.22809
 C561 C 0.50569 0.33331 -0.28581
 C562 C 0.51972 0.35924 -0.30666
 C563 C 0.51671 0.37816 -0.27165
 C564 C 0.53074 0.40392 -0.29386
 C565 C 0.54731 0.41079 -0.34896
 C566 C 0.55028 0.39230 -0.38314
 C567 C 0.53663 0.36678 -0.36260
 C568 C 0.47626 0.30081 -0.20472
 C569 C 0.46038 0.29410 -0.14815
 C570 C 0.45746 0.31261 -0.11385
 C571 C 0.47041 0.33798 -0.13582
 C572 C 0.50639 0.31364 -0.32659
 C573 C 0.50647 0.29770 -0.36324
 C574 C 0.49480 0.38992 -0.18453
 C575 C 0.49077 0.40593 -0.16036
 H576 H 0.52915 0.41902 -0.26877
 H577 H 0.55790 0.43056 -0.36519
 H578 H 0.56319 0.39775 -0.42589
 H579 H 0.53961 0.35310 -0.39077
 H580 H 0.47800 0.28577 -0.22966
 H581 H 0.45029 0.27442 -0.13084
 H582 H 0.44509 0.30729 -0.06998
 H583 H 0.46761 0.35173 -0.10740
 C584 C 0.63022 0.13027 -0.20817
 C585 C 0.65518 0.13471 -0.22154
 C586 C 0.67294 0.15698 -0.25759
 C587 C 0.66561 0.17465 -0.28022
 C588 C 0.64108 0.17084 -0.26399
 C589 C 0.62335 0.14863 -0.22755
 C590 C 0.59895 0.14523 -0.21177
 C591 C 0.59228 0.16332 -0.23125
 C592 C 0.60948 0.18488 -0.26760
 C593 C 0.63364 0.18869 -0.28397
 C594 C 0.69772 0.16089 -0.27092
 C595 C 0.70474 0.14330 -0.24917
 C596 C 0.68735 0.12151 -0.21394
 C597 C 0.66282 0.11715 -0.20018
 C598 C 0.68276 0.19576 -0.32363
 C599 C 0.69701 0.21239 -0.36187
 C600 C 0.61124 0.10621 -0.17797
 C601 C 0.59527 0.08593 -0.15484
 H602 H 0.58487 0.12872 -0.18381
 H603 H 0.57362 0.16056 -0.21826
 H604 H 0.60412 0.19876 -0.28304
 H605 H 0.64645 0.20582 -0.31193
 H606 H 0.71195 0.17759 -0.29795
 H607 H 0.72378 0.14661 -0.25970
 H608 H 0.69290 0.10791 -0.19712
 H609 H 0.65000 0.09997 -0.17240
 C610 C 1.12239 0.49088 -0.20851
 C611 C 1.12462 0.46907 -0.22258
 C612 C 1.14615 0.47181 -0.25913
 C613 C 1.16528 0.49635 -0.28148
 C614 C 1.16368 0.51832 -0.26450
 C615 C 1.14221 0.51558 -0.22759
 C616 C 1.14100 0.53781 -0.21110
 C617 C 1.16050 0.56205 -0.23039
 C618 C 1.18134 0.56469 -0.26720
 C619 C 1.18301 0.54314 -0.28423
 C620 C 1.14783 0.44968 -0.27328
 C621 C 1.12880 0.42555 -0.25180
 C622 C 1.10775 0.42287 -0.21603
 C623 C 1.10556 0.44432 -0.20150
 C624 C 1.18560 0.49867 -0.32548
 C625 C 1.20158 0.49982 -0.36421
 C626 C 1.09906 0.48775 -0.17831
 C627 C 1.07943 0.48531 -0.15544
 H628 H 1.12513 0.53671 -0.18271
 H629 H 1.15943 0.57887 -0.21676
 H630 H 1.19634 0.58356 -0.28243
 H631 H 1.19966 0.54615 -0.31253
 H632 H 1.16388 0.45079 -0.30076
 H633 H 1.13042 0.40883 -0.26294
 H634 H 1.09303 0.40409 -0.19940
 H635 H 1.08888 0.44129 -0.17333
 C636 C 0.49449 0.62380 -0.21790
 C637 C 0.47928 0.61690 -0.27705
 C638 C 0.47600 0.63562 -0.31193
 C639 C 0.48812 0.66116 -0.28776
 C640 C 0.50219 0.66771 -0.22671
 C641 C 0.50536 0.64894 -0.19158
 C642 C 0.51965 0.65595 -0.13090
 C643 C 0.53047 0.68080 -0.10555
 C644 C 0.52741 0.69916 -0.13997
 C645 C 0.51349 0.69281 -0.19997
 C646 C 0.46076 0.62831 -0.37105
 C647 C 0.44909 0.60322 -0.39496
 C648 C 0.45243 0.58494 -0.36108
 C649 C 0.46737 0.59160 -0.30284
 C650 C 0.48769 0.68093 -0.32846
 C651 C 0.48802 0.69708 -0.36492
 C652 C 0.49970 0.60526 -0.18596
 C653 C 0.50398 0.58951 -0.16146
 H654 H 0.52250 0.64230 -0.10232
 H655 H 0.54130 0.68583 -0.05898
 H656 H 0.53585 0.71844 -0.12005
 H657 H 0.51152 0.70770 -0.22485
 H658 H 0.45756 0.64184 -0.39908
 H659 H 0.43737 0.59792 -0.43998
 H660 H 0.44328 0.56545 -0.37977
 H661 H 0.46923 0.57665 -0.27798
 C662 C 0.38085 -0.13183 -0.21901
 C663 C 0.35536 -0.14631 -0.19516
 C664 C 0.33738 -0.16866 -0.23063
 C665 C 0.34507 -0.17638 -0.28955
 C666 C 0.37094 -0.16274 -0.31105
 C667 C 0.38887 -0.14032 -0.27586
 C668 C 0.41453 -0.12670 -0.29909
 C669 C 0.42229 -0.13516 -0.35505
 C670 C 0.40478 -0.15718 -0.38925
 C671 C 0.37936 -0.17084 -0.36784
 C672 C 0.31190 -0.18266 -0.20646
 C673 C 0.30441 -0.17485 -0.14867
 C674 C 0.32200 -0.15301 -0.11392
 C675 C 0.34721 -0.13881 -0.13672
 C676 C 0.32609 -0.19697 -0.33114
 C677 C 0.31055 -0.21312 -0.36825
 C678 C 0.39859 -0.10766 -0.18712
 C679 C 0.41370 -0.08729 -0.16272
 H680 H 0.42891 -0.10958 -0.27386
 H681 H 0.44203 -0.12464 -0.37176
 H682 H 0.41092 -0.16372 -0.43256
 H683 H 0.36645 -0.18789 -0.39598
 H684 H 0.29758 -0.19982 -0.23168
 H685 H 0.28485 -0.18582 -0.13074
 H686 H 0.31609 -0.14703 -0.06909
 H687 H 0.36023 -0.12199 -0.10797
 C688 C 0.50791 -0.12447 0.21833
 C689 C 0.52925 -0.12701 0.23594
 C690 C 0.52551 -0.14895 0.27217
 C691 C 0.50045 -0.16818 0.29065
 C692 C 0.47902 -0.16616 0.27050
 C693 C 0.48276 -0.14427 0.23396
 C694 C 0.46106 -0.14266 0.21427
 C695 C 0.43638 -0.16217 0.23007
 C696 C 0.43274 -0.18344 0.26645
 C697 C 0.45375 -0.18551 0.28659
 C698 C 0.54717 -0.15096 0.28982
 C699 C 0.57180 -0.13185 0.27208
 C700 C 0.57545 -0.11040 0.23662
 C701 C 0.55449 -0.10790 0.21867
 C702 C 0.49696 -0.18920 0.33354
 C703 C 0.49482 -0.20584 0.37123
 C704 C 0.51191 -0.10093 0.18743
 C705 C 0.51515 -0.08114 0.16366
 H706 H 0.46293 -0.12644 0.18611
 H707 H 0.41998 -0.16076 0.21411
 H708 H 0.41353 -0.19844 0.27897
 H709 H 0.44998 -0.20248 0.31445
 H710 H 0.54531 -0.16731 0.31724
 H711 H 0.58815 -0.13372 0.28590
 H712 H 0.59462 -0.09562 0.22291
 H713 H 0.55829 -0.09090 0.19091
 C714 C 0.36509 0.49089 0.20879
 C715 C 0.37028 0.51557 0.22897
 C716 C 0.35143 0.51842 0.26491
 C717 C 0.32746 0.49659 0.27988
 C718 C 0.32178 0.47210 0.25645
 C719 C 0.34067 0.46923 0.22086
 C720 C 0.33470 0.44452 0.19869
 C721 C 0.31070 0.42324 0.21121
 C722 C 0.29221 0.42603 0.24602
 C723 C 0.29758 0.45012 0.26855
 C724 C 0.35720 0.54321 0.28572
 C725 C 0.38083 0.56464 0.27070
 C726 C 0.39916 0.56189 0.23489
 C727 C 0.39413 0.53767 0.21454
 C728 C 0.30927 0.49892 0.32311
 C729 C 0.29429 0.50004 0.36135
 C730 C 0.38523 0.48756 0.17905
 C731 C 0.40220 0.48476 0.15621
 H732 H 0.34843 0.44141 0.17121
 H733 H 0.30643 0.40448 0.19377
 H734 H 0.27359 0.40944 0.25560
 H735 H 0.28255 0.45133 0.29521
 H736 H 0.34347 0.54630 0.31331
 H737 H 0.38492 0.58348 0.28673
 H738 H 0.41739 0.57862 0.22284
 H739 H 0.40901 0.53648 0.18698
 C740 C 1.13294 0.62476 0.21457
 C741 C 1.14832 0.65000 0.18983
 C742 C 1.17086 0.66758 0.22521
 C743 C 1.17789 0.65974 0.28492
 C744 C 1.16328 0.63407 0.30748
 C745 C 1.14066 0.61655 0.27240
 C746 C 1.12607 0.59112 0.29670
 C747 C 1.13376 0.58318 0.35364
 C748 C 1.15599 0.60027 0.38767
 C749 C 1.17062 0.62547 0.36521
 C750 C 1.18578 0.69282 0.20011
 C751 C 1.17868 0.70046 0.14150
 C752 C 1.15664 0.68326 0.10686
 C753 C 1.14154 0.65829 0.13056
 C754 C 1.19885 0.67842 0.32609
 C755 C 1.21531 0.69369 0.36296
 C756 C 1.10869 0.60746 0.18245
 C757 C 1.08824 0.59262 0.15807
 H758 H 1.10873 0.57705 0.27166
 H759 H 1.12249 0.56361 0.37120
 H760 H 1.16196 0.59398 0.43167
 H761 H 1.18779 0.63805 0.39329
 H762 H 1.20313 0.70683 0.22523
 H763 H 1.19034 0.71983 0.12286
 H764 H 1.15120 0.68929 0.06142
 H765 H 1.12459 0.64557 0.10186
 C766 C 0.49231 0.12306 0.20761
 C767 C 0.47055 0.12518 0.22342
 C768 C 0.47350 0.14675 0.26017
 C769 C 0.49819 0.16604 0.28100
 C770 C 0.52007 0.16453 0.26230
 C771 C 0.51712 0.14302 0.22521
 C772 C 0.53926 0.14192 0.20706
 C773 C 0.56362 0.16156 0.22486
 C774 C 0.56647 0.18245 0.26178
 C775 C 0.54501 0.18402 0.28047
 C776 C 0.45144 0.14832 0.27603
 C777 C 0.42716 0.12915 0.25603
 C778 C 0.42429 0.10805 0.22009
 C779 C 0.44566 0.10597 0.20388
 C780 C 0.50081 0.18647 0.32509
 C781 C 0.50234 0.20260 0.36388
 C782 C 0.48905 0.09972 0.17707
 C783 C 0.48649 0.08007 0.15395
 H784 H 0.53800 0.12600 0.17855
 H785 H 0.58036 0.16053 0.21009
 H786 H 0.58543 0.19756 0.27588
 H787 H 0.54818 0.20072 0.30883
 H788 H 0.45270 0.16440 0.30371
 H789 H 0.41050 0.13068 0.26847
 H790 H 0.40539 0.09321 0.20463
 H791 H 0.44248 0.08925 0.17565
 C792 C 0.62786 0.50545 0.21804
 C793 C 0.65364 0.51975 0.19618
 C794 C 0.67307 0.51786 0.23181
 C795 C 0.66657 0.50167 0.28896
 C796 C 0.64060 0.48635 0.30861
 C797 C 0.62119 0.48825 0.27303
 C798 C 0.59538 0.47289 0.29390
 C799 C 0.58894 0.45607 0.34820
 C800 C 0.60791 0.45419 0.38295
 C801 C 0.63349 0.46917 0.36378
 C802 C 0.69875 0.53251 0.20947
 C803 C 0.70504 0.54848 0.15329
 C804 C 0.68604 0.55029 0.11839
 C805 C 0.66059 0.53616 0.13943
 C806 C 0.68656 0.50181 0.32998
 C807 C 0.70273 0.50223 0.36654
 C808 C 0.60829 0.50907 0.18594
 C809 C 0.59161 0.51189 0.16136
 H810 H 0.57991 0.47359 0.26831
 H811 H 0.56911 0.44443 0.36334
 H812 H 0.60279 0.44105 0.42503
 H813 H 0.64756 0.46700 0.39234
 H814 H 0.71417 0.53165 0.23487
 H815 H 0.72477 0.55949 0.13672
 H816 H 0.69102 0.56271 0.07477
 H817 H 0.64646 0.53813 0.11060
 C818 C 0.86765 0.38065 0.21732
 C819 C 0.85376 0.35500 0.19425
 C820 C 0.83150 0.33680 0.22968
 C821 C 0.82327 0.34438 0.28785
 C822 C 0.83628 0.37037 0.30846
 C823 C 0.85861 0.38855 0.27326
 C824 C 0.87159 0.41433 0.29561
 C825 C 0.86262 0.42197 0.35075
 C826 C 0.84069 0.40422 0.38490
 C827 C 0.82765 0.37867 0.36438
 C828 C 0.81810 0.31119 0.20627
 C829 C 0.82642 0.30378 0.14930
 C830 C 0.84818 0.32159 0.11464
 C831 C 0.86179 0.34693 0.13666
 C832 C 0.80291 0.32521 0.32975
 C833 C 0.78702 0.30942 0.36701
 C834 C 0.89182 0.39865 0.18569
 C835 C 0.91219 0.41385 0.16131
 H836 H 0.88862 0.42888 0.27034
 H837 H 0.87266 0.44180 0.36679
 H838 H 0.83372 0.41028 0.42746
 H839 H 0.81065 0.36557 0.39245
 H840 H 0.80100 0.29669 0.23144
 H841 H 0.81591 0.28412 0.13196
 H842 H 0.85458 0.31573 0.07049
 H843 H 0.87857 0.36012 0.10798
   
