data_POSCAR
  _audit_creation_date              2014-09-24
  _audit_creation_method            'ToBaCCo'
  _symmetry_space_group_name_H-M    'P1'
  _symmetry_Int_Tables_number       1
  _symmetry_cell_setting            triclinic
  loop_
  _symmetry_equiv_pos_as_xyz
 x,y,z
_cell_length_a 32.1857
_cell_length_b 32.1369
_cell_length_c 43.2592
_cell_angle_alpha 88.372700
_cell_angle_beta 90.978800
_cell_angle_gamma 92.332000
loop_
  _atom_site_label
  _atom_site_type_symbol
  _atom_site_fract_x
  _atom_site_fract_y
  _atom_site_fract_z
C1 C 0.00387 0.50085 0.98353
 C2 C 0.00075 0.50004 1.01488
 C3 C -0.00142 0.53863 1.03283
 C4 C -0.00037 0.45998 1.03281
 C5 C 0.00247 0.46178 0.96612
 C6 C 0.00830 0.54032 0.96504
 C7 C 0.02560 0.54492 1.05805
 C8 C 0.02414 0.58083 1.07532
 C9 C -0.00470 0.61206 1.06803
 C10 C -0.03211 0.60481 1.04249
 C11 C -0.03068 0.56857 1.02547
 C12 C 0.03323 0.43356 1.03234
 C13 C 0.03181 0.39574 1.04910
 C14 C -0.00327 0.38364 1.06666
 C15 C -0.03674 0.41045 1.06721
 C16 C -0.03515 0.44838 1.05059
 C17 C -0.03370 0.43591 0.96556
 C18 C -0.03467 0.39895 0.94926
 C19 C 0.00068 0.38716 0.93359
 C20 C 0.03681 0.41318 0.93417
 C21 C 0.03754 0.45044 0.95006
 C22 C -0.02002 0.54824 0.94081
 C23 C -0.01669 0.58534 0.92333
 C24 C 0.01536 0.61515 0.92948
 C25 C 0.04408 0.60690 0.95354
 C26 C 0.04066 0.56973 0.97110
 H27 H 0.04863 0.52225 1.06405
 H28 H 0.04768 0.58448 1.09324
 H29 H -0.05660 0.62561 1.03626
 H30 H -0.05285 0.56368 1.00668
 H31 H 0.06063 0.44239 1.01912
 H32 H 0.05844 0.37625 1.04865
 H33 H -0.06134 0.46846 1.05119
 H34 H -0.06110 0.44443 0.97773
 H35 H -0.06280 0.37928 0.94920
 H36 H 0.06428 0.40488 0.92200
 H37 H 0.06562 0.47020 0.95022
 H38 H -0.04521 0.52594 0.93579
 H39 H -0.03969 0.59100 0.90530
 H40 H 0.06946 0.62896 0.95854
 H41 H 0.06328 0.56382 0.98935
 H42 H -0.06442 0.40187 1.08015
 C43 C 0.49876 0.00052 0.48454
 C44 C 0.49979 0.00529 0.51576
 C45 C 0.46151 0.00942 0.53399
 C46 C 0.53964 0.00526 0.53345
 C47 C 0.53769 -0.00093 0.46671
 C48 C 0.45904 -0.00311 0.46661
 C49 C 0.43212 0.03913 0.52580
 C50 C 0.39540 0.04107 0.54245
 C51 C 0.38774 0.01385 0.56795
 C52 C 0.41806 -0.01465 0.57679
 C53 C 0.45447 -0.01685 0.55998
 C54 C 0.55341 0.04088 0.54922
 C55 C 0.59118 0.04134 0.56562
 C56 C 0.61527 0.00584 0.56705
 C57 C 0.60106 -0.03007 0.55167
 C58 C 0.56359 -0.03029 0.53485
 C59 C 0.54452 -0.03534 0.44852
 C60 C 0.58126 -0.03735 0.43198
 C61 C 0.61175 -0.00479 0.43317
 C62 C 0.60449 0.02997 0.45105
 C63 C 0.56770 0.03198 0.46753
 C64 C 0.42776 -0.03299 0.47474
 C65 C 0.38991 -0.03466 0.45836
 C66 C 0.38289 -0.00689 0.43326
 C67 C 0.41490 0.02195 0.42456
 C68 C 0.45256 0.02376 0.44104
 H69 H 0.43733 0.06038 0.50625
 H70 H 0.37266 0.06328 0.53494
 H71 H 0.41367 -0.03534 0.59675
 H72 H 0.47692 -0.03965 0.56697
 H73 H 0.53513 0.06846 0.54845
 H74 H 0.60135 0.06921 0.57756
 H75 H 0.55315 -0.05815 0.52300
 H76 H 0.52164 -0.06096 0.44753
 H77 H 0.58611 -0.06469 0.41864
 H78 H 0.62703 0.05587 0.45196
 H79 H 0.56257 0.05924 0.48088
 H80 H 0.43245 -0.05461 0.49402
 H81 H 0.36586 -0.05712 0.46574
 H82 H 0.41087 0.04313 0.40492
 H83 H 0.47647 0.04670 0.43415
 H84 H 0.61921 -0.05774 0.55238
 C85 C 0.07516 0.01610 0.26698
 H86 H 0.07363 0.03538 0.24615
 C87 C 0.11151 0.01678 0.28502
 H88 H 0.13771 0.03682 0.27795
 C89 C 0.04362 -0.03478 0.30077
 H90 H 0.01695 -0.05485 0.30661
 C91 C 0.07953 -0.03531 0.31937
 H92 H 0.08021 -0.05561 0.33977
 N93 N 0.04204 -0.00917 0.27523
 C94 C -0.04027 -0.06734 0.20639
 H95 H -0.06663 -0.04746 0.20576
 C96 C -0.04102 -0.10288 0.18849
 H97 H -0.06827 -0.11030 0.17438
 C98 C 0.02663 -0.08239 0.22631
 H99 H 0.05307 -0.07427 0.24096
 C100 C 0.02725 -0.11810 0.20874
 H101 H 0.05444 -0.13687 0.20992
 Zn102 Zn -0.00683 -0.01039 0.25030
 N103 N -0.00692 -0.05796 0.22506
 C104 C -0.01407 0.03774 0.19398
 N105 N -0.00782 0.03933 0.22514
 C106 C -0.00121 0.07649 0.23910
 C107 C -0.00141 0.11380 0.22184
 C108 C -0.01486 0.07439 0.17583
 C109 C -0.08097 -0.04717 0.27603
 C110 C -0.11656 -0.04862 0.29411
 C111 C -0.09485 0.01807 0.31449
 C112 C -0.05970 0.01825 0.29600
 N113 N -0.05384 -0.01355 0.27664
 H114 H -0.01846 0.00814 0.18300
 H115 H 0.00551 0.07725 0.26361
 H116 H 0.00482 0.14283 0.23347
 H117 H -0.02073 0.07236 0.15119
 H118 H -0.07519 -0.07307 0.26161
 H119 H -0.13783 -0.07555 0.29315
 H120 H -0.09948 0.04434 0.32900
 H121 H -0.03729 0.04402 0.29707
 C122 C -0.00703 -0.12898 0.18969
 C123 C 0.11400 -0.00914 0.31161
 C124 C -0.12418 -0.01541 0.31335
 C125 C -0.00858 0.11315 0.18975
 C126 C -0.00207 0.09396 0.76179
 H127 H -0.00541 0.09629 0.73688
 C128 C -0.00379 0.12961 0.77932
 H129 H -0.00815 0.15951 0.76778
 C130 C 0.00766 0.05206 0.80712
 H131 H 0.01126 0.02173 0.81795
 C132 C 0.00678 0.08705 0.82551
 H133 H 0.00998 0.08338 0.85039
 N134 N 0.00384 0.05621 0.77581
 C135 C 0.05733 -0.01619 0.70402
 H136 H 0.03385 -0.04108 0.70211
 C137 C 0.09253 -0.01582 0.68563
 H138 H 0.09548 -0.04028 0.66920
 C139 C 0.08149 0.04601 0.72773
 H140 H 0.07739 0.06960 0.74460
 C141 C 0.11741 0.04738 0.70999
 H142 H 0.14072 0.07209 0.71354
 Zn143 Zn 0.00486 0.01015 0.74957
 N144 N 0.05233 0.01456 0.72440
 C145 C -0.04274 0.01687 0.69371
 N146 N -0.04435 0.01067 0.72493
 C147 C -0.08134 0.00607 0.73963
 C148 C -0.11866 0.00562 0.72270
 C149 C -0.07936 0.01730 0.67593
 C150 C 0.04109 -0.04625 0.79184
 C151 C 0.04482 -0.08342 0.80903
 C152 C -0.01917 -0.10949 0.78529
 C153 C -0.02186 -0.07174 0.76878
 N154 N 0.00771 -0.04077 0.77264
 H155 H -0.01313 0.02173 0.68253
 H156 H -0.08175 0.00219 0.76454
 H157 H -0.14786 0.00143 0.73469
 H158 H -0.07763 0.02177 0.65107
 H159 H 0.06482 -0.02160 0.79382
 H160 H 0.07152 -0.08724 0.82426
 H161 H -0.04332 -0.13355 0.78222
 H162 H -0.04738 -0.06754 0.75264
 C163 C 0.12339 0.01609 0.68863
 C164 C 0.00094 0.12637 0.81157
 C165 C 0.01437 -0.11560 0.80585
 C166 C -0.11786 0.01113 0.69043
 C167 C -0.00717 -0.27897 0.11953
 C168 C 0.00991 -0.31478 0.13281
 C169 C 0.01049 -0.35106 0.11563
 C170 C -0.00591 -0.35242 0.08490
 C171 C -0.02339 -0.31549 0.07236
 C172 C -0.02388 -0.27901 0.08943
 C173 C -0.00745 -0.24062 0.13750
 C174 C -0.02416 -0.20457 0.12408
 C175 C -0.02404 -0.16810 0.14120
 C176 C -0.00743 -0.16761 0.17157
 C177 C 0.00893 -0.20425 0.18467
 C178 C 0.00911 -0.24075 0.16772
 C179 C -0.04037 -0.24229 0.07676
 C180 C -0.04048 -0.20571 0.09377
 C181 C 0.02597 -0.31377 0.16323
 C182 C 0.02556 -0.27740 0.18039
 H183 H -0.05327 -0.24178 0.05346
 H184 H -0.05344 -0.17811 0.08310
 H185 H 0.03912 -0.34131 0.17384
 H186 H 0.03837 -0.27794 0.20371
 H187 H 0.02197 -0.37857 0.12731
 H188 H -0.03462 -0.31364 0.04869
 H189 H -0.03628 -0.14001 0.13074
 H190 H 0.02113 -0.20449 0.20818
 C191 C -0.00716 0.26766 0.11849
 C192 C 0.01065 0.26963 0.08906
 C193 C 0.01158 0.30752 0.07211
 C194 C -0.00481 0.34339 0.08452
 C195 C -0.02253 0.34073 0.11413
 C196 C -0.02391 0.30293 0.13115
 C197 C -0.00809 0.22795 0.13647
 C198 C -0.02590 0.22601 0.16589
 C199 C -0.02647 0.18828 0.18298
 C200 C -0.00897 0.15268 0.17102
 C201 C 0.00865 0.15525 0.14137
 C202 C 0.00907 0.19277 0.12397
 C203 C -0.04154 0.29974 0.16066
 C204 C -0.04261 0.26190 0.17770
 C205 C 0.02725 0.23370 0.07722
 C206 C 0.02657 0.19595 0.09441
 H207 H -0.05460 0.32673 0.17068
 H208 H -0.05645 0.26080 0.20038
 H209 H 0.04107 0.23480 0.05453
 H210 H 0.03989 0.16903 0.08448
 H211 H 0.02472 0.30897 0.04919
 H212 H -0.03466 0.36819 0.12415
 H213 H -0.04074 0.18659 0.20551
 H214 H 0.02273 0.12832 0.13206
 C215 C 0.27403 0.01521 0.61830
 C216 C 0.29183 -0.02293 0.61263
 C217 C 0.32867 -0.02310 0.59587
 C218 C 0.34813 0.01454 0.58509
 C219 C 0.32970 0.05255 0.59093
 C220 C 0.29257 0.05304 0.60747
 C221 C 0.23533 0.01552 0.63605
 C222 C 0.21743 0.05362 0.64172
 C223 C 0.18065 0.05370 0.65869
 C224 C 0.16200 0.01603 0.67021
 C225 C 0.18062 -0.02185 0.66432
 C226 C 0.21712 -0.02230 0.64715
 C227 C 0.27371 0.09056 0.61357
 C228 C 0.23673 0.09084 0.63033
 C229 C 0.27252 -0.06016 0.62393
 C230 C 0.23586 -0.05984 0.64099
 H231 H 0.28767 0.11997 0.60533
 H232 H 0.22323 0.12046 0.63453
 H233 H 0.28598 -0.08979 0.61969
 H234 H 0.22206 -0.08924 0.64941
 H235 H 0.34203 -0.05259 0.59103
 H236 H 0.34455 0.08173 0.58308
 H237 H 0.16640 0.08300 0.66269
 H238 H 0.16712 -0.05098 0.67349
 C239 C -0.27041 0.00757 0.61903
 C240 C -0.29978 -0.02542 0.62381
 C241 C -0.33695 -0.02612 0.60640
 C242 C -0.34503 0.00622 0.58478
 C243 C -0.31534 0.03914 0.58035
 C244 C -0.27778 0.03982 0.59728
 C245 C -0.23125 0.00845 0.63724
 C246 C -0.20161 0.04112 0.63216
 C247 C -0.16435 0.04169 0.64947
 C248 C -0.15703 0.01026 0.67201
 C249 C -0.18718 -0.02212 0.67693
 C250 C -0.22426 -0.02335 0.65943
 C251 C -0.24747 0.07207 0.59294
 C252 C -0.20995 0.07262 0.61000
 C253 C -0.29151 -0.05685 0.64604
 C254 C -0.25444 -0.05575 0.66363
 H255 H -0.25276 0.09707 0.57618
 H256 H -0.18737 0.09802 0.60591
 H257 H -0.31396 -0.08241 0.64997
 H258 H -0.24936 -0.08051 0.68063
 H259 H -0.35994 -0.05131 0.61004
 H260 H -0.32137 0.06390 0.56352
 H261 H -0.14133 0.06685 0.64581
 H262 H -0.18144 -0.04659 0.69406
 C263 C 0.02018 -0.27020 0.87615
 C264 C 0.02911 -0.26955 0.90803
 C265 C 0.02818 -0.30719 0.92533
 C266 C 0.01838 -0.34524 0.91093
 C267 C 0.01022 -0.34525 0.87881
 C268 C 0.01085 -0.30783 0.86136
 C269 C 0.01995 -0.23066 0.85800
 C270 C 0.01017 -0.23130 0.82625
 C271 C 0.00892 -0.19358 0.80926
 C272 C 0.01743 -0.15541 0.82376
 C273 C 0.02784 -0.15537 0.85554
 C274 C 0.02891 -0.19295 0.87282
 C275 C 0.00184 -0.30726 0.82946
 C276 C 0.00144 -0.26962 0.81221
 C277 C 0.03819 -0.23123 0.92201
 C278 C 0.03815 -0.19358 0.90470
 H279 H -0.00534 -0.33611 0.81777
 H280 H -0.00603 -0.27052 0.78771
 H281 H 0.04515 -0.23029 0.94658
 H282 H 0.04510 -0.16471 0.91641
 H283 H 0.03402 -0.30674 0.95007
 H284 H 0.00331 -0.37437 0.86740
 H285 H 0.00141 -0.19387 0.78474
 H286 H 0.03403 -0.12609 0.86691
 C287 C -0.00075 0.27453 0.88310
 C288 C 0.03166 0.28286 0.90446
 C289 C 0.03196 0.31981 0.92096
 C290 C -0.00014 0.34794 0.91647
 C291 C -0.03272 0.33884 0.89530
 C292 C -0.03298 0.30231 0.87832
 C293 C -0.00074 0.23617 0.86519
 C294 C -0.03257 0.22838 0.84324
 C295 C -0.03191 0.19230 0.82580
 C296 C -0.00005 0.16394 0.83050
 C297 C 0.03127 0.17190 0.85292
 C298 C 0.03129 0.20821 0.87016
 C299 C -0.06456 0.29317 0.85643
 C300 C -0.06427 0.25691 0.83910
 C301 C 0.06316 0.25415 0.90880
 C302 C 0.06289 0.21737 0.89202
 H303 H -0.08956 0.31438 0.85251
 H304 H -0.08904 0.25118 0.82230
 H305 H 0.08826 0.26017 0.92528
 H306 H 0.08780 0.19608 0.89603
 H307 H 0.05689 0.32661 0.93746
 H308 H -0.05728 0.36064 0.89162
 H309 H -0.05627 0.18607 0.80873
 H310 H 0.05605 0.15030 0.85639
 C311 C -0.27527 -0.01097 0.38263
 C312 C -0.27374 0.00398 0.41283
 C313 C -0.31076 0.00588 0.42929
 C314 C -0.34912 -0.00702 0.41572
 C315 C -0.34998 -0.02200 0.38540
 C316 C -0.31316 -0.02403 0.36875
 C317 C -0.23647 -0.01277 0.36514
 C318 C -0.23805 -0.02750 0.33488
 C319 C -0.20116 -0.02872 0.31822
 C320 C -0.16286 -0.01526 0.33158
 C321 C -0.16186 -0.00082 0.36206
 C322 C -0.19860 0.00052 0.37894
 C323 C -0.31347 -0.03866 0.33845
 C324 C -0.27655 -0.04036 0.32180
 C325 C -0.23522 0.01675 0.42594
 C326 C -0.19829 0.01506 0.40928
 H327 H -0.34251 -0.04881 0.32748
 H328 H -0.27818 -0.05175 0.29845
 H329 H -0.23361 0.02828 0.44924
 H330 H -0.16927 0.02536 0.42020
 H331 H -0.30971 0.01694 0.45274
 H332 H -0.37937 -0.03149 0.37462
 H333 H -0.20237 -0.03931 0.29464
 H334 H -0.13251 0.00914 0.37267
 C335 C 0.26643 -0.00814 0.38339
 C336 C 0.28314 -0.04605 0.39325
 C337 C 0.32112 -0.04557 0.40972
 C338 C 0.34228 -0.00750 0.41635
 C339 C 0.32468 0.03021 0.40655
 C340 C 0.28691 0.03006 0.38995
 C341 C 0.22690 -0.00845 0.36562
 C342 C 0.21056 0.02948 0.35538
 C343 C 0.17342 0.02902 0.33798
 C344 C 0.15257 -0.00899 0.33087
 C345 C 0.16912 -0.04674 0.34167
 C346 C 0.20644 -0.04665 0.35894
 C347 C 0.26933 0.06738 0.37962
 C348 C 0.23183 0.06709 0.36258
 C349 C 0.26170 -0.08366 0.38622
 C350 C 0.22397 -0.08395 0.36939
 H351 H 0.28482 0.09706 0.38458
 H352 H 0.21947 0.09655 0.35487
 H353 H 0.27423 -0.11313 0.39370
 H354 H 0.20851 -0.11363 0.36438
 H355 H 0.33455 -0.07478 0.41684
 H356 H 0.34025 0.05969 0.41199
 H357 H 0.16060 0.05820 0.33007
 H358 H 0.15348 -0.07612 0.33602
   
