data_POSCAR
  _audit_creation_date              2014-09-24
  _audit_creation_method            'ToBaCCo'
  _symmetry_space_group_name_H-M    'P1'
  _symmetry_Int_Tables_number       1
  _symmetry_cell_setting            triclinic
  loop_
  _symmetry_equiv_pos_as_xyz
 x,y,z
_cell_length_a 25.3310
_cell_length_b 25.3594
_cell_length_c 16.6969
_cell_angle_alpha 89.681100
_cell_angle_beta 90.152100
_cell_angle_gamma 88.543600
loop_
  _atom_site_label
  _atom_site_type_symbol
  _atom_site_fract_x
  _atom_site_fract_y
  _atom_site_fract_z
C1 C -0.04080 0.26982 0.06499
 C2 C -0.04289 0.27429 -0.02073
 C3 C 0.00561 0.27590 -0.06294
 C4 C 0.05532 0.27191 -0.02458
 C5 C 0.05630 0.27035 0.06024
 C6 C 0.00886 0.26751 0.10295
 H7 H 0.01068 0.26604 0.16787
 H8 H 0.00473 0.27765 -0.12697
 C9 C 0.44214 0.75777 0.54421
 C10 C 0.44556 0.76312 0.45985
 C11 C 0.49450 0.77183 0.42431
 C12 C 0.54155 0.77201 0.46904
 C13 C 0.53865 0.76507 0.55334
 C14 C 0.48931 0.75805 0.58936
 H15 H 0.48864 0.75041 0.65313
 H16 H 0.49562 0.77754 0.35999
 C17 C 1.03746 0.72207 0.05597
 C18 C 1.04129 0.72346 -0.02928
 C19 C 0.99432 0.72395 -0.07539
 C20 C 0.94375 0.72322 -0.03999
 C21 C 0.94099 0.72069 0.04458
 C22 C 0.98712 0.72114 0.09062
 H23 H 0.98342 0.71981 0.15539
 H24 H 0.99761 0.72691 -0.13941
 C25 C 0.55585 0.24864 0.56352
 C26 C 0.55697 0.23574 0.48098
 C27 C 0.50870 0.22528 0.44246
 C28 C 0.45988 0.23015 0.48266
 C29 C 0.45986 0.24250 0.56561
 C30 C 0.50764 0.25255 0.60391
 H31 H 0.50737 0.26318 0.66680
 H32 H 0.50911 0.21282 0.38068
 C33 C 0.72314 -0.03374 0.04448
 C34 C 0.73665 -0.03950 -0.03830
 C35 C 0.74772 0.00631 -0.08295
 C36 C 0.74395 0.05686 -0.05011
 C37 C 0.72969 0.06287 0.03115
 C38 C 0.71961 0.01751 0.07666
 H39 H 0.70814 0.02224 0.13880
 H40 H 0.76192 0.00296 -0.14387
 C41 C 0.21738 0.44204 0.54686
 C42 C 0.22946 0.43912 0.46429
 C43 C 0.23743 0.48617 0.42172
 C44 C 0.23294 0.53542 0.45874
 C45 C 0.22302 0.53840 0.54215
 C46 C 0.21474 0.49133 0.58504
 H47 H 0.20528 0.49286 0.64823
 H48 H 0.24845 0.48530 0.35926
 C49 C 0.27004 1.04018 0.04421
 C50 C 0.26984 1.03805 -0.04160
 C51 C 0.26553 0.98855 -0.07954
 C52 C 0.26068 0.94147 -0.03535
 C53 C 0.25923 0.94431 0.04908
 C54 C 0.26400 0.99274 0.08721
 H55 H 0.26010 0.99256 0.15158
 H56 H 0.26906 0.98623 -0.14395
 C57 C 0.78571 0.56257 0.52668
 C58 C 0.77656 0.55848 0.44341
 C59 C 0.77799 0.50899 0.40738
 C60 C 0.78697 0.46240 0.45170
 C61 C 0.79541 0.46578 0.53593
 C62 C 0.79594 0.51611 0.57130
 H63 H 0.80343 0.51905 0.63504
 H64 H 0.77225 0.50710 0.34310
 O65 O 0.23508 0.28530 0.35448
 O66 O 0.25701 0.15229 0.27229
 O67 O 0.31172 0.21623 0.36021
 O68 O 0.17858 0.22013 0.27243
 O69 O 0.21034 0.25769 0.16365
 O70 O 0.34446 0.25077 0.24996
 O71 O 0.28673 0.18811 0.16084
 O72 O 0.26738 0.32070 0.24433
 Cu73 Cu 0.24261 0.21485 0.32592
 Cu74 Cu 0.28091 0.25749 0.19345
 C75 C 0.24753 0.32555 0.31353
 C76 C 0.27411 0.14781 0.20125
 C77 C 0.35059 0.23353 0.32108
 C78 C 0.17170 0.24011 0.20330
 O79 O 0.65741 0.73484 0.24592
 O80 O 0.78833 0.72939 0.15270
 O81 O 0.74276 0.67854 0.26542
 O82 O 0.70284 0.78553 0.12631
 O83 O 0.72996 0.84352 0.21442
 O84 O 0.77677 0.73649 0.34815
 O85 O 0.81642 0.79019 0.23589
 O86 O 0.68732 0.79003 0.33612
 Cu87 Cu 0.71936 0.72659 0.18867
 Cu88 Cu 0.75426 0.79653 0.29280
 C89 C 0.65084 0.76151 0.30927
 C90 C 0.82471 0.75848 0.17858
 C91 C 0.76789 0.68920 0.32901
 C92 C 0.71129 0.83286 0.14574
 O93 O 0.82606 0.26012 0.22334
 O94 O 0.70437 0.23975 0.34316
 O95 O 0.76477 0.18062 0.24977
 O96 O 0.77712 0.31092 0.33891
 O97 O 0.72605 0.34595 0.24423
 O98 O 0.71988 0.21536 0.14807
 O99 O 0.65716 0.27136 0.24159
 O100 O 0.77700 0.29816 0.12884
 Cu101 Cu 0.77273 0.24440 0.29828
 Cu102 Cu 0.71523 0.28603 0.18134
 C103 C 0.82174 0.28305 0.15524
 C104 C 0.65975 0.25255 0.31186
 C105 C 0.74184 0.17564 0.18298
 C106 C 0.75324 0.35049 0.30799
 O107 O 0.16175 0.74874 0.21628
 O108 O 0.26644 0.78426 0.35765
 O109 O 0.23215 0.82067 0.21992
 O110 O 0.19763 0.70941 0.35089
 O111 O 0.25434 0.65838 0.28500
 O112 O 0.28954 0.76958 0.15539
 O113 O 0.32244 0.73239 0.29198
 O114 O 0.21776 0.69793 0.14888
 Cu115 Cu 0.20881 0.77088 0.29282
 Cu116 Cu 0.27653 0.70919 0.21373
 C117 C 0.17176 0.71813 0.15800
 C118 C 0.31240 0.76412 0.34902
 C119 C 0.26654 0.81402 0.16530
 C120 C 0.22081 0.66501 0.34069
 O121 O 0.79738 0.28489 0.62707
 O122 O 0.77982 0.17845 0.77550
 O123 O 0.73283 0.21181 0.65020
 O124 O 0.85512 0.24809 0.75163
 O125 O 0.80932 0.29486 0.83964
 O126 O 0.68965 0.27395 0.71792
 O127 O 0.72773 0.23256 0.84446
 O128 O 0.76334 0.34246 0.71254
 Cu129 Cu 0.79752 0.22578 0.69438
 Cu130 Cu 0.74419 0.29219 0.78721
 C131 C 0.78214 0.33162 0.64407
 C132 C 0.74729 0.18685 0.83226
 C133 C 0.69067 0.23783 0.66513
 C134 C 0.85295 0.27535 0.81491
 O135 O 0.32595 0.73228 0.76724
 O136 O 0.19594 0.71255 0.85761
 O137 O 0.25833 0.65582 0.76525
 O138 O 0.26094 0.78920 0.85255
 O139 O 0.22238 0.82230 0.74409
 O140 O 0.21997 0.68937 0.65687
 O141 O 0.15698 0.74358 0.74782
 O142 O 0.28751 0.76367 0.65732
 Cu143 Cu 0.26421 0.71906 0.82148
 Cu144 Cu 0.21786 0.75839 0.69078
 C145 C 0.32889 0.75093 0.69686
 C146 C 0.15446 0.72472 0.81827
 C147 C 0.23875 0.64998 0.69573
 C148 C 0.24181 0.82844 0.81347
 O149 O 0.26107 0.31874 0.75821
 O150 O 0.27330 0.18379 0.83758
 O151 O 0.32772 0.24085 0.73704
 O152 O 0.20176 0.25976 0.84676
 O153 O 0.15848 0.23126 0.74120
 O154 O 0.28372 0.20671 0.63619
 O155 O 0.22729 0.15308 0.73644
 O156 O 0.21880 0.28853 0.65280
 Cu157 Cu 0.27036 0.25347 0.80542
 Cu158 Cu 0.21788 0.21697 0.68120
 C159 C 0.23808 0.32670 0.69167
 C160 C 0.25204 0.14559 0.80200
 C161 C 0.32682 0.22015 0.66781
 C162 C 0.15852 0.24922 0.81183
 O163 O 0.71477 0.79850 0.62536
 O164 O 0.84026 0.77123 0.72799
 O165 O 0.77703 0.71511 0.64074
 O166 O 0.76592 0.84563 0.73724
 O167 O 0.72724 0.80843 0.84093
 O168 O 0.73805 0.67914 0.74509
 O169 O 0.79868 0.73568 0.83013
 O170 O 0.67171 0.76097 0.72445
 Cu171 Cu 0.77879 0.78607 0.67313
 Cu172 Cu 0.72870 0.74321 0.79363
 C173 C 0.67199 0.78415 0.65644
 C174 C 0.84134 0.74929 0.79625
 C175 C 0.75938 0.67474 0.67693
 C176 C 0.74456 0.84894 0.80605
 C177 C 0.27091 0.08911 0.08556
 C178 C 0.27777 0.09520 0.16494
 H179 H 0.26375 0.12515 0.05224
 H180 H 0.28433 0.06237 0.20540
 C181 C 0.78380 0.61464 0.56731
 C182 C 0.76298 0.62208 0.64000
 H183 H 0.79831 0.64857 0.53616
 H184 H 0.74651 0.58927 0.67241
 C185 C 0.71763 0.92467 0.10055
 C186 C 0.70291 0.87525 0.08554
 H187 H 0.72549 0.93412 0.16271
 H188 H 0.68714 0.86457 0.02783
 C189 C 0.20805 0.39316 0.59303
 C190 C 0.23614 0.38066 0.65848
 H191 H 0.18329 0.36380 0.56618
 H192 H 0.26165 0.40957 0.68483
 C193 C 0.91499 0.26738 0.11677
 C194 C 0.86801 0.29137 0.10366
 H195 H 0.92066 0.24769 0.17414
 H196 H 0.86220 0.31748 0.05276
 C197 C 0.39048 0.74875 0.58407
 C198 C 0.38115 0.75839 0.66165
 H199 H 0.35833 0.73398 0.54861
 H200 H 0.41181 0.77169 0.70123
 C201 C 0.08012 0.72486 0.11053
 C202 C 0.12998 0.70739 0.09879
 H203 H 0.07084 0.74009 0.16962
 H204 H 0.14068 0.68474 0.04634
 C205 C 0.60350 0.26092 0.61000
 C206 C 0.64307 0.22575 0.61956
 H207 H 0.60410 0.29821 0.64134
 H208 H 0.64151 0.18780 0.59020
 C209 C 0.76118 0.10110 0.89881
 C210 C 0.73033 0.14339 0.88364
 H211 H 0.79905 0.09693 0.86912
 H212 H 0.69128 0.14660 0.90964
 C213 C 0.24428 0.58181 0.40821
 C214 C 0.20895 0.62097 0.39479
 H215 H 0.28125 0.58106 0.37562
 H216 H 0.17123 0.62134 0.42525
 C217 C 0.25907 0.88932 0.92392
 C218 C 0.24186 0.88174 0.84892
 H219 H 0.27212 0.85497 0.95756
 H220 H 0.22633 0.91444 0.81341
 C221 C 0.78884 0.41179 0.40756
 C222 C 0.75529 0.40205 0.34726
 H223 H 0.81694 0.38140 0.42690
 H224 H 0.72669 0.43195 0.32791
 C225 C 0.10335 0.26684 0.93124
 C226 C 0.10724 0.25742 0.85222
 H227 H 0.14043 0.26701 0.96321
 H228 H 0.07296 0.25206 0.81505
 C229 C 0.59276 0.77668 0.42594
 C230 C 0.60032 0.75784 0.35178
 H231 H 0.62555 0.79472 0.45544
 H232 H 0.56964 0.73615 0.32230
 C233 C 0.89640 0.72779 0.91418
 C234 C 0.89289 0.74061 0.83614
 H235 H 0.85918 0.72371 0.94468
 H236 H 0.92729 0.74886 0.80071
 C237 C 0.40940 0.22439 0.43773
 C238 C 0.40313 0.23514 0.35937
 H239 H 0.37463 0.21426 0.47070
 H240 H 0.43577 0.24871 0.32375
 C241 C 0.74584 0.90832 0.92233
 C242 C 0.73794 0.90084 0.84365
 H243 H 0.76081 0.87535 0.95773
 H244 H 0.72525 0.93309 0.80495
 C245 C 0.23732 0.38665 0.42531
 C246 C 0.23902 0.37868 0.34617
 H247 H 0.24306 0.35241 0.46364
 H248 H 0.23504 0.41084 0.30378
 C249 C 0.27551 0.08437 0.91172
 C250 C 0.25399 0.09239 0.83879
 H251 H 0.29522 0.11730 0.93807
 H252 H 0.23215 0.06180 0.80950
 C253 C 0.75894 0.60330 0.39233
 C254 C 0.78719 0.64638 0.38134
 H255 H 0.72266 0.59885 0.35866
 H256 H 0.82463 0.65081 0.41162
 C257 C 0.09237 0.73220 0.92926
 C258 C 0.10278 0.71628 0.85443
 H259 H 0.12245 0.75372 0.96047
 H260 H 0.07374 0.69657 0.81862
 C261 C 0.60757 0.23556 0.43453
 C262 C 0.60976 0.24735 0.35628
 H263 H 0.64459 0.22924 0.46559
 H264 H 0.57386 0.25743 0.32377
 C265 C 0.90902 0.27023 0.93552
 C266 C 0.90215 0.28483 0.85840
 H267 H 0.87554 0.25269 0.96443
 H268 H 0.93277 0.30297 0.82384
 C269 C 0.40157 0.75272 0.40413
 C270 C 0.35425 0.77722 0.40658
 H271 H 0.41022 0.72532 0.35602
 H272 H 0.34582 0.80646 0.45218
 C273 C 0.24647 0.89890 0.10062
 C274 C 0.27987 0.85798 0.11207
 H275 H 0.20997 0.90148 0.13427
 H276 H 0.31693 0.85590 0.07981
 C277 C 0.80245 0.41971 0.59178
 C278 C 0.78135 0.37235 0.58119
 H279 H 0.82222 0.42665 0.64833
 H280 H 0.75856 0.36352 0.52859
 C281 C 0.72702 0.11556 0.07024
 C282 C 0.74225 0.12309 0.14601
 H283 H 0.71391 0.14962 0.03619
 H284 H 0.75847 0.09041 0.18101
 C285 C 0.22180 0.59010 0.58391
 C286 C 0.23833 0.59697 0.65949
 H287 H 0.20912 0.62459 0.55030
 H288 H 0.25366 0.56384 0.69435
 C289 C 0.88995 0.71978 0.08699
 C290 C 0.87713 0.75604 0.14175
 H291 H 0.86158 0.69071 0.06943
 H292 H 0.90542 0.78537 0.15869
 C293 C 0.41126 0.24927 0.61439
 C294 C 0.37593 0.21138 0.62273
 H295 H 0.40610 0.28554 0.64788
 H296 H 0.38120 0.17445 0.59110
 C297 C 0.10681 0.27269 0.10513
 C298 C 0.11846 0.24161 0.16799
 H299 H 0.13631 0.29944 0.08352
 H300 H 0.08935 0.21529 0.19198
 C301 C 0.58586 0.75810 0.60538
 C302 C 0.62283 0.79441 0.61152
 H303 H 0.58928 0.72239 0.64123
 H304 H 0.61919 0.83069 0.57722
   
