data_POSCAR
  _audit_creation_date              2014-09-24
  _audit_creation_method            'ToBaCCo'
  _symmetry_space_group_name_H-M    'P1'
  _symmetry_Int_Tables_number       1
  _symmetry_cell_setting            triclinic
  loop_
  _symmetry_equiv_pos_as_xyz
 x,y,z
_cell_length_a 47.5997
_cell_length_b 45.3411
_cell_length_c 45.2724
_cell_angle_alpha 89.854100
_cell_angle_beta 89.967800
_cell_angle_gamma 89.978500
loop_
  _atom_site_label
  _atom_site_type_symbol
  _atom_site_fract_x
  _atom_site_fract_y
  _atom_site_fract_z
C1 C 0.29236 0.29049 0.23852
 H2 H 0.29347 0.29106 0.26238
 C3 C 0.31062 0.30782 0.22168
 H4 H 0.32580 0.32189 0.23256
 C5 C 0.27148 0.27122 0.19510
 H6 H 0.25652 0.25662 0.18480
 C7 C 0.28936 0.28818 0.17744
 H8 H 0.28791 0.28681 0.15360
 N9 N 0.27305 0.27294 0.22507
 C10 C 0.20642 0.26097 0.29026
 H11 H 0.20525 0.23715 0.29094
 C12 C 0.18824 0.27783 0.30759
 H13 H 0.17305 0.26701 0.32177
 C14 C 0.22742 0.30427 0.27074
 H15 H 0.24241 0.31452 0.25604
 C16 C 0.20962 0.32195 0.28769
 H17 H 0.21116 0.34575 0.28622
 Zn18 Zn 0.24940 0.24986 0.24958
 N19 N 0.22577 0.27435 0.27260
 C20 C 0.27127 0.22855 0.30415
 N21 N 0.27295 0.22679 0.27418
 C22 C 0.29233 0.20922 0.26082
 C23 C 0.31056 0.19194 0.27774
 C24 C 0.28911 0.21164 0.32189
 C25 C 0.20657 0.23880 0.20878
 C26 C 0.18841 0.22196 0.19143
 C27 C 0.20975 0.17782 0.21135
 C28 C 0.22752 0.19547 0.22833
 N29 N 0.22586 0.22540 0.22648
 H30 H 0.25626 0.24317 0.31438
 H31 H 0.29353 0.20862 0.23696
 H32 H 0.32580 0.17787 0.26693
 H33 H 0.28757 0.21305 0.34572
 H34 H 0.20539 0.26263 0.20811
 H35 H 0.17325 0.23280 0.17724
 H36 H 0.21127 0.15402 0.21282
 H37 H 0.24247 0.18521 0.24304
 C38 C 0.18994 0.30859 0.30635
 C39 C 0.30903 0.30671 0.19087
 C40 C 0.19010 0.19120 0.19267
 C41 C 0.30885 0.19311 0.30854
 C42 C 0.79309 0.79107 0.23838
 H43 H 0.79419 0.79166 0.26224
 C44 C 0.81129 0.80846 0.22153
 H45 H 0.82640 0.82258 0.23247
 C46 C 0.77225 0.77170 0.19498
 H47 H 0.75733 0.75704 0.18470
 C48 C 0.79006 0.78871 0.17729
 H49 H 0.78853 0.78727 0.15345
 N50 N 0.77383 0.77345 0.22495
 C51 C 0.70714 0.76135 0.29007
 H52 H 0.70600 0.73753 0.29072
 C53 C 0.68890 0.77817 0.30737
 H54 H 0.67370 0.76731 0.32151
 C55 C 0.72812 0.80471 0.27062
 H56 H 0.74312 0.81500 0.25597
 C57 C 0.71026 0.82234 0.28756
 H58 H 0.71177 0.84614 0.28611
 Zn59 Zn 0.75020 0.75034 0.24946
 N60 N 0.72650 0.77478 0.27245
 C61 C 0.77197 0.72901 0.30406
 N62 N 0.77376 0.72729 0.27410
 C63 C 0.79317 0.70973 0.26078
 C64 C 0.81129 0.69236 0.27774
 C65 C 0.78970 0.71201 0.32184
 C66 C 0.70740 0.73917 0.20865
 C67 C 0.68928 0.72228 0.19131
 C68 C 0.71069 0.67819 0.21127
 C69 C 0.72842 0.69590 0.22824
 N70 N 0.72672 0.72582 0.22636
 H71 H 0.75694 0.74362 0.31427
 H72 H 0.79444 0.70916 0.23693
 H73 H 0.82653 0.67827 0.26697
 H74 H 0.78806 0.71336 0.34567
 H75 H 0.70619 0.76299 0.20796
 H76 H 0.67410 0.73308 0.17711
 H77 H 0.71226 0.65440 0.21276
 H78 H 0.74338 0.68567 0.24296
 C79 C 0.69057 0.80894 0.30617
 C80 C 0.80968 0.80734 0.19069
 C81 C 0.69103 0.69152 0.19258
 C82 C 0.80945 0.69345 0.30855
 C83 C 0.79359 0.28949 0.73982
 H84 H 0.79471 0.29005 0.76368
 C85 C 0.81182 0.30685 0.72298
 H86 H 0.82699 0.32094 0.73385
 C87 C 0.77268 0.27024 0.69640
 H88 H 0.75772 0.25564 0.68610
 C89 C 0.79053 0.28723 0.67874
 H90 H 0.78905 0.28589 0.65490
 N91 N 0.77427 0.27194 0.72637
 C92 C 0.70752 0.26014 0.79146
 H93 H 0.70629 0.23632 0.79215
 C94 C 0.68931 0.27705 0.80871
 H95 H 0.67405 0.26628 0.82284
 C96 C 0.72866 0.30338 0.77196
 H97 H 0.74370 0.31359 0.75730
 C98 C 0.71084 0.32111 0.78883
 H99 H 0.71242 0.34490 0.78734
 Zn100 Zn 0.75056 0.24891 0.75086
 N101 N 0.72694 0.27346 0.77384
 C102 C 0.77227 0.22751 0.80545
 N103 N 0.77403 0.22577 0.77549
 C104 C 0.79338 0.20815 0.76216
 C105 C 0.81151 0.19076 0.77909
 C106 C 0.78999 0.21050 0.82324
 C107 C 0.70774 0.23798 0.71002
 C108 C 0.68959 0.22120 0.69261
 C109 C 0.71082 0.17699 0.71249
 C110 C 0.72860 0.19458 0.72953
 N111 N 0.72699 0.22452 0.72773
 H112 H 0.75727 0.24216 0.81566
 H113 H 0.79462 0.20758 0.73831
 H114 H 0.82669 0.17668 0.76817
 H115 H 0.78829 0.21199 0.84708
 H116 H 0.70661 0.26181 0.70939
 H117 H 0.67446 0.23209 0.67842
 H118 H 0.71231 0.15318 0.71392
 H119 H 0.74351 0.18426 0.74424
 C120 C 0.69108 0.30781 0.80744
 C121 C 0.81019 0.30578 0.69216
 C122 C 0.69123 0.19043 0.69380
 C123 C 0.80974 0.19187 0.80994
 C124 C 0.29247 0.79113 0.73904
 H125 H 0.29358 0.79172 0.76290
 C126 C 0.31069 0.80848 0.72217
 H127 H 0.32584 0.82259 0.73302
 C128 C 0.27160 0.77177 0.69565
 H129 H 0.25666 0.75712 0.68537
 C130 C 0.28944 0.78875 0.67796
 H131 H 0.28798 0.78734 0.65412
 N132 N 0.27318 0.77352 0.72562
 C133 C 0.20659 0.76142 0.79084
 H134 H 0.20547 0.73760 0.79152
 C135 C 0.18835 0.77825 0.80814
 H136 H 0.17317 0.76740 0.82230
 C137 C 0.22752 0.80476 0.77131
 H138 H 0.24249 0.81504 0.75662
 C139 C 0.20966 0.82241 0.78823
 H140 H 0.21114 0.84621 0.78675
 Zn141 Zn 0.24959 0.75040 0.75015
 N142 N 0.22592 0.77484 0.77318
 C143 C 0.27149 0.72904 0.80470
 N144 N 0.27320 0.72736 0.77473
 C145 C 0.29262 0.70986 0.76133
 C146 C 0.31084 0.69254 0.77821
 C147 C 0.28933 0.71209 0.82240
 C148 C 0.20677 0.73922 0.70937
 C149 C 0.18866 0.72232 0.69202
 C150 C 0.21010 0.67825 0.71197
 C151 C 0.22782 0.69596 0.72894
 N152 N 0.22609 0.72588 0.72707
 H153 H 0.25645 0.74360 0.81496
 H154 H 0.29382 0.70932 0.73747
 H155 H 0.32610 0.67851 0.76738
 H156 H 0.28777 0.71342 0.84624
 H157 H 0.20554 0.76304 0.70868
 H158 H 0.17348 0.73311 0.67782
 H159 H 0.21169 0.65445 0.71345
 H160 H 0.24279 0.68574 0.74366
 C161 C 0.18999 0.80901 0.80688
 C162 C 0.30908 0.80733 0.69136
 C163 C 0.19043 0.69156 0.69327
 C164 C 0.30910 0.69361 0.80902
 C165 C -0.00090 0.00023 -0.00011
 C166 C 0.00013 0.50001 0.50032
 C167 C 0.50049 0.00032 0.49989
 C168 C 0.50051 0.50002 -0.00019
 C169 C 0.17154 -0.17320 -0.17536
 C170 C 0.15618 -0.15822 -0.16044
 C171 C 0.13796 -0.14027 -0.14258
 C172 C 0.13868 -0.10953 -0.14528
 C173 C 0.12118 -0.09203 -0.12777
 C174 C 0.10268 -0.10508 -0.10729
 C175 C 0.10206 -0.13602 -0.10482
 C176 C 0.11960 -0.15347 -0.12234
 C177 C 0.08424 -0.08649 -0.08851
 C178 C 0.05628 -0.09488 -0.08285
 C179 C 0.03898 -0.07738 -0.06510
 C180 C 0.04938 -0.05131 -0.05277
 C181 C 0.07714 -0.04277 -0.05826
 C182 C 0.09447 -0.06021 -0.07601
 C183 C 0.03163 -0.03335 -0.03441
 C184 C 0.01687 -0.01823 -0.01896
 H185 H 0.15276 -0.09908 -0.16093
 H186 H 0.12188 -0.06831 -0.13047
 H187 H 0.08832 -0.14670 -0.08900
 H188 H 0.11894 -0.17725 -0.12001
 H189 H 0.04768 -0.11478 -0.09245
 H190 H 0.01749 -0.08416 -0.06104
 H191 H 0.08543 -0.02268 -0.04873
 H192 H 0.11599 -0.05336 -0.07962
 C193 C 0.17157 0.32641 0.32417
 C194 C 0.15628 0.34140 0.33916
 C195 C 0.13815 0.35936 0.35711
 C196 C 0.12208 0.34645 0.37957
 C197 C 0.10464 0.36393 0.39720
 C198 C 0.10308 0.39459 0.39258
 C199 C 0.11928 0.40734 0.36988
 C200 C 0.13668 0.38981 0.35228
 C201 C 0.08476 0.41322 0.41145
 C202 C 0.09406 0.44096 0.42131
 C203 C 0.07686 0.45844 0.43918
 C204 C 0.05016 0.44846 0.44741
 C205 C 0.04069 0.42092 0.43770
 C206 C 0.05786 0.40340 0.41985
 C207 C 0.03254 0.46644 0.46587
 C208 C 0.01786 0.48157 0.48140
 H209 H 0.12313 0.32290 0.38356
 H210 H 0.09272 0.35352 0.41472
 H211 H 0.11826 0.43080 0.36553
 H212 H 0.14899 0.40002 0.33490
 H213 H 0.11478 0.44897 0.41557
 H214 H 0.08442 0.47968 0.44666
 H215 H 0.02002 0.41302 0.44389
 H216 H 0.04997 0.38232 0.41232
 C217 C 0.67214 -0.17329 0.32397
 C218 C 0.65680 -0.15835 0.33894
 C219 C 0.63860 -0.14045 0.35688
 C220 C 0.62514 -0.15269 0.38151
 C221 C 0.60766 -0.13524 0.39911
 C222 C 0.60345 -0.10526 0.39231
 C223 C 0.61704 -0.09319 0.36745
 C224 C 0.63449 -0.11068 0.34987
 C225 C 0.58510 -0.08663 0.41115
 C226 C 0.59290 -0.05752 0.41807
 C227 C 0.57570 -0.04003 0.43592
 C228 C 0.55049 -0.05136 0.44706
 C229 C 0.54251 -0.08026 0.44029
 C230 C 0.55969 -0.09781 0.42246
 C231 C 0.53288 -0.03335 0.46551
 C232 C 0.51820 -0.01818 0.48102
 H233 H 0.62825 -0.17569 0.38719
 H234 H 0.59780 -0.14509 0.41830
 H235 H 0.61393 -0.07029 0.36141
 H236 H 0.64476 -0.10100 0.33082
 H237 H 0.61251 -0.04841 0.41004
 H238 H 0.58212 -0.01771 0.44111
 H239 H 0.52299 -0.08923 0.44876
 H240 H 0.55293 -0.11999 0.41723
 C241 C 0.67266 0.32570 -0.17486
 C242 C 0.65733 0.34076 -0.15999
 C243 C 0.63915 0.35882 -0.14220
 C244 C 0.62072 0.34573 -0.12196
 C245 C 0.60321 0.36329 -0.10450
 C246 C 0.60394 0.39423 -0.10705
 C247 C 0.62251 0.40716 -0.12753
 C248 C 0.63998 0.38955 -0.14497
 C249 C 0.58553 0.41293 -0.08835
 C250 C 0.59583 0.43919 -0.07589
 C251 C 0.57853 0.45673 -0.05820
 C252 C 0.55074 0.44830 -0.05274
 C253 C 0.54027 0.42225 -0.06503
 C254 C 0.55754 0.40465 -0.08272
 C255 C 0.53302 0.46635 -0.03443
 C256 C 0.51828 0.48152 -0.01901
 H257 H 0.61998 0.32196 -0.11957
 H258 H 0.58942 0.35270 -0.08869
 H259 H 0.62330 0.43087 -0.13029
 H260 H 0.65412 0.39991 -0.16063
 H261 H 0.61738 0.44596 -0.07948
 H262 H 0.58687 0.47682 -0.04870
 H263 H 0.51876 0.41555 -0.06099
 H264 H 0.54889 0.38476 -0.09229
 C265 C -0.17359 0.17567 -0.17379
 C266 C -0.15827 0.16069 -0.15875
 C267 C -0.14008 0.14276 -0.14075
 C268 C -0.14710 0.13698 -0.11128
 C269 C -0.12953 0.11946 -0.09380
 C270 C -0.10468 0.10745 -0.10560
 C271 C -0.09780 0.11343 -0.13525
 C272 C -0.11540 0.13098 -0.15269
 C273 C -0.08608 0.08870 -0.08707
 C274 C -0.07347 0.06324 -0.09888
 C275 C -0.05614 0.04548 -0.08136
 C276 C -0.05115 0.05293 -0.05185
 C277 C -0.06351 0.07825 -0.03992
 C278 C -0.08087 0.09602 -0.05738
 C279 C -0.03347 0.03453 -0.03378
 C280 C -0.01873 0.01907 -0.01860
 H281 H -0.16620 0.14592 -0.10185
 H282 H -0.13559 0.11494 -0.07118
 H283 H -0.07865 0.10483 -0.14486
 H284 H -0.10974 0.13538 -0.17546
 H285 H -0.07736 0.05680 -0.12153
 H286 H -0.04673 0.02588 -0.09079
 H287 H -0.05973 0.08425 -0.01711
 H288 H -0.08996 0.11567 -0.04777
 C289 C -0.17227 0.67557 0.32647
 C290 C -0.15705 0.66053 0.34154
 C291 C -0.13900 0.64251 0.35960
 C292 C -0.15034 0.62589 0.38280
 C293 C -0.13286 0.60833 0.40036
 C294 C -0.10377 0.60715 0.39490
 C295 C -0.09258 0.62394 0.37151
 C296 C -0.11010 0.64151 0.35399
 C297 C -0.08522 0.58844 0.41351
 C298 C -0.06333 0.57198 0.40068
 C299 C -0.04599 0.55423 0.41821
 C300 C -0.05027 0.55271 0.44876
 C301 C -0.07193 0.56904 0.46174
 C302 C -0.08931 0.58678 0.44427
 C303 C -0.03254 0.53431 0.46676
 C304 C -0.01775 0.51884 0.48189
 H305 H -0.17269 0.62644 0.38728
 H306 H -0.14217 0.59536 0.41793
 H307 H -0.07025 0.62379 0.36699
 H308 H -0.10110 0.65434 0.33613
 H309 H -0.05987 0.57249 0.37705
 H310 H -0.02933 0.54161 0.40792
 H311 H -0.07538 0.56808 0.48539
 H312 H -0.10573 0.59948 0.45485
 C313 C 0.32733 0.17540 0.32642
 C314 C 0.34276 0.16052 0.34142
 C315 C 0.36109 0.14270 0.35936
 C316 C 0.35650 0.14047 0.38982
 C317 C 0.37418 0.12302 0.40726
 C318 C 0.39670 0.10753 0.39443
 C319 C 0.40116 0.10997 0.36378
 C320 C 0.38346 0.12745 0.34639
 C321 C 0.41536 0.08881 0.41291
 C322 C 0.42460 0.06119 0.40262
 C323 C 0.44196 0.04346 0.42013
 C324 C 0.45034 0.05309 0.44811
 C325 C 0.44135 0.08055 0.45852
 C326 C 0.42397 0.09831 0.44106
 C327 C 0.46800 0.03470 0.46621
 C328 C 0.48272 0.01922 0.48140
 H329 H 0.33918 0.15212 0.40007
 H330 H 0.36997 0.12129 0.43071
 H331 H 0.41852 0.09863 0.35332
 H332 H 0.38724 0.12909 0.32284
 H333 H 0.41804 0.05309 0.38123
 H334 H 0.44874 0.02219 0.41190
 H335 H 0.44778 0.08824 0.48012
 H336 H 0.41751 0.11960 0.44944
 C337 C 0.32755 0.67582 -0.17315
 C338 C 0.34294 0.66086 -0.15819
 C339 C 0.36123 0.64293 -0.14032
 C340 C 0.38365 0.62778 -0.15332
 C341 C 0.40130 0.61018 -0.13600
 C342 C 0.39676 0.60753 -0.10539
 C343 C 0.37419 0.62291 -0.09252
 C344 C 0.35655 0.64048 -0.10989
 C345 C 0.41539 0.58871 -0.08697
 C346 C 0.42391 0.59804 -0.05874
 C347 C 0.44128 0.58020 -0.04135
 C348 C 0.45034 0.55282 -0.05191
 C349 C 0.44204 0.54336 -0.07997
 C350 C 0.42469 0.56117 -0.09741
 C351 C 0.46800 0.53437 -0.03387
 C352 C 0.48273 0.51888 -0.01870
 H353 H 0.38749 0.62958 -0.17685
 H354 H 0.41870 0.59893 -0.14649
 H355 H 0.36992 0.62102 -0.06910
 H356 H 0.33920 0.65204 -0.09961
 H357 H 0.41741 0.61927 -0.05024
 H358 H 0.44764 0.58777 -0.01968
 H359 H 0.44887 0.52216 -0.08831
 H360 H 0.41820 0.55319 -0.11887
 C361 C -0.17290 -0.17574 0.17383
 C362 C -0.15756 -0.16072 0.15886
 C363 C -0.13935 -0.14273 0.14094
 C364 C -0.12120 -0.12245 0.15424
 C365 C -0.10367 -0.10480 0.13683
 C366 C -0.10405 -0.10723 0.10585
 C367 C -0.12234 -0.12774 0.09271
 C368 C -0.13987 -0.14535 0.11016
 C369 C -0.08558 -0.08835 0.08731
 C370 C -0.07196 -0.10004 0.06234
 C371 C -0.05472 -0.08220 0.04480
 C372 C -0.05087 -0.05247 0.05196
 C373 C -0.06427 -0.04064 0.07676
 C374 C -0.08150 -0.05844 0.09435
 C375 C -0.03330 -0.03406 0.03377
 C376 C -0.01863 -0.01860 0.01849
 H377 H -0.12059 -0.12029 0.17806
 H378 H -0.08958 -0.08950 0.14762
 H379 H -0.12340 -0.12986 0.06892
 H380 H -0.15391 -0.16091 0.09964
 H381 H -0.07438 -0.12306 0.05656
 H382 H -0.04438 -0.09159 0.02568
 H383 H -0.06150 -0.01762 0.08244
 H384 H -0.09198 -0.04870 0.11318
 C385 C -0.17141 0.32366 0.67436
 C386 C -0.15609 0.33870 0.65941
 C387 C -0.13790 0.35673 0.64151
 C388 C -0.13662 0.35238 0.61095
 C389 C -0.11914 0.37004 0.59349
 C390 C -0.10270 0.39234 0.60641
 C391 C -0.10411 0.39650 0.63717
 C392 C -0.12159 0.37880 0.65458
 C393 C -0.08430 0.41127 0.58785
 C394 C -0.08221 0.44173 0.59333
 C395 C -0.06504 0.45957 0.57573
 C396 C -0.04971 0.44724 0.55245
 C397 C -0.05158 0.41697 0.54685
 C398 C -0.06876 0.39908 0.56441
 C399 C -0.03218 0.46566 0.53424
 C400 C -0.01756 0.48115 0.51895
 H401 H -0.14924 0.33542 0.60059
 H402 H -0.11881 0.36654 0.56985
 H403 H -0.09145 0.41322 0.64781
 H404 H -0.12237 0.38231 0.67823
 H405 H -0.09419 0.45184 0.61095
 H406 H -0.06381 0.48300 0.58020
 H407 H -0.03974 0.40718 0.52892
 H408 H -0.06963 0.37567 0.55986
 C409 C 0.32753 -0.17488 0.67354
 C410 C 0.34293 -0.15992 0.65858
 C411 C 0.36124 -0.14200 0.64070
 C412 C 0.36157 -0.14545 0.60999
 C413 C 0.37920 -0.12792 0.59257
 C414 C 0.39674 -0.10667 0.60566
 C415 C 0.39628 -0.10342 0.63657
 C416 C 0.37865 -0.12099 0.65395
 C417 C 0.41533 -0.08789 0.58715
 C418 C 0.41864 -0.05772 0.59350
 C419 C 0.43599 -0.04001 0.57595
 C420 C 0.45026 -0.05219 0.55187
 C421 C 0.44717 -0.08217 0.54540
 C422 C 0.42982 -0.09992 0.56290
 C423 C 0.46794 -0.03388 0.53371
 C424 C 0.48269 -0.01847 0.51846
 H425 H 0.34811 -0.16158 0.59950
 H426 H 0.37880 -0.13068 0.56883
 H427 H 0.40979 -0.08754 0.64733
 H428 H 0.37860 -0.11820 0.67771
 H429 H 0.40749 -0.04772 0.61177
 H430 H 0.43816 -0.01679 0.58109
 H431 H 0.45819 -0.09183 0.52683
 H432 H 0.42799 -0.12313 0.55767
 C433 C 0.32752 0.32449 0.17308
 C434 C 0.34295 0.33945 0.15816
 C435 C 0.36128 0.35737 0.14031
 C436 C 0.38013 0.37685 0.15372
 C437 C 0.39779 0.39444 0.13639
 C438 C 0.39683 0.39275 0.10537
 C439 C 0.37784 0.37303 0.09211
 C440 C 0.36019 0.35548 0.10949
 C441 C 0.41543 0.41157 0.08692
 C442 C 0.42834 0.40013 0.06143
 C443 C 0.44569 0.41794 0.04397
 C444 C 0.45035 0.44738 0.05173
 C445 C 0.43766 0.45896 0.07707
 C446 C 0.42033 0.44120 0.09457
 C447 C 0.46800 0.46576 0.03362
 C448 C 0.48273 0.48121 0.01838
 H449 H 0.38119 0.37844 0.17757
 H450 H 0.41242 0.40912 0.14726
 H451 H 0.37633 0.37150 0.06831
 H452 H 0.34560 0.34053 0.09888
 H453 H 0.42528 0.37733 0.05517
 H454 H 0.45547 0.40874 0.02444
 H455 H 0.44107 0.48176 0.08322
 H456 H 0.41041 0.45076 0.11383
 C457 C 0.17173 0.17340 0.17487
 C458 C 0.15643 0.15842 0.15992
 C459 C 0.13827 0.14047 0.14202
 C460 C 0.14262 0.11000 0.14041
 C461 C 0.12514 0.09254 0.12287
 C462 C 0.10302 0.10536 0.10670
 C463 C 0.09878 0.13602 0.10853
 C464 C 0.11631 0.15344 0.12607
 C465 C 0.08454 0.08684 0.08792
 C466 C 0.05540 0.09201 0.08686
 C467 C 0.03805 0.07456 0.06916
 C468 C 0.04958 0.05176 0.05226
 C469 C 0.07853 0.04645 0.05314
 C470 C 0.09591 0.06385 0.07084
 C471 C 0.03176 0.03381 0.03401
 C472 C 0.01694 0.01869 0.01864
 H473 H 0.15952 0.09972 0.15273
 H474 H 0.12871 0.06896 0.12224
 H475 H 0.08217 0.14660 0.09605
 H476 H 0.11281 0.17703 0.12708
 H477 H 0.04598 0.10930 0.10003
 H478 H 0.01566 0.07881 0.06869
 H479 H 0.08768 0.02890 0.04007
 H480 H 0.11829 0.05957 0.07086
 C481 C 0.17213 0.67370 0.67546
 C482 C 0.15690 0.65866 0.66049
 C483 C 0.13883 0.64064 0.64256
 C484 C 0.11627 0.65337 0.62736
 C485 C 0.09882 0.63588 0.60980
 C486 C 0.10375 0.60539 0.60719
 C487 C 0.12646 0.59281 0.62262
 C488 C 0.14386 0.61033 0.64018
 C489 C 0.08536 0.58681 0.58839
 C490 C 0.09692 0.56450 0.57056
 C491 C 0.07961 0.54704 0.55284
 C492 C 0.05054 0.55161 0.55269
 C493 C 0.03882 0.57372 0.57033
 C494 C 0.05609 0.59123 0.58806
 C495 C 0.03279 0.53361 0.53442
 C496 C 0.01799 0.51846 0.51905
 H497 H 0.11224 0.67683 0.62898
 H498 H 0.08174 0.64628 0.59791
 H499 H 0.13058 0.56935 0.62138
 H500 H 0.16123 0.60024 0.65192
 H501 H 0.11939 0.56081 0.57002
 H502 H 0.08891 0.53003 0.53919
 H503 H 0.01632 0.57739 0.57043
 H504 H 0.04652 0.60797 0.60180
 C505 C 0.67288 0.17270 0.67591
 C506 C 0.65759 0.15780 0.66086
 C507 C 0.63945 0.13995 0.64284
 C508 C 0.61916 0.15326 0.62485
 C509 C 0.60167 0.13593 0.60719
 C510 C 0.60427 0.10501 0.60727
 C511 C 0.62471 0.09184 0.62549
 C512 C 0.64216 0.10922 0.64315
 C513 C 0.58584 0.08657 0.58836
 C514 C 0.59680 0.06201 0.57330
 C515 C 0.57947 0.04469 0.55547
 C516 C 0.55097 0.05164 0.55246
 C517 C 0.53985 0.07601 0.56735
 C518 C 0.55715 0.09339 0.58517
 C519 C 0.53318 0.03376 0.53410
 C520 C 0.51837 0.01870 0.51867
 H521 H 0.61695 0.17704 0.62438
 H522 H 0.58640 0.14674 0.59313
 H523 H 0.62698 0.06810 0.62634
 H524 H 0.65775 0.09868 0.65705
 H525 H 0.61887 0.05643 0.57498
 H526 H 0.58831 0.02592 0.54397
 H527 H 0.51779 0.08154 0.56523
 H528 H 0.54801 0.11192 0.59677
 C529 C 0.67270 0.67367 0.17479
 C530 C 0.65743 0.65864 0.15984
 C531 C 0.63931 0.64063 0.14196
 C532 C 0.64302 0.61002 0.14133
 C533 C 0.62558 0.59249 0.12381
 C534 C 0.60416 0.60537 0.10667
 C535 C 0.60056 0.63617 0.10753
 C536 C 0.61804 0.65366 0.12506
 C537 C 0.58574 0.58678 0.08791
 C538 C 0.55676 0.59262 0.08590
 C539 C 0.53947 0.57511 0.06819
 C540 C 0.55089 0.55157 0.05225
 C541 C 0.57968 0.54559 0.05409
 C542 C 0.59700 0.56305 0.07180
 C543 C 0.53313 0.53359 0.03397
 C544 C 0.51834 0.51846 0.01859
 H545 H 0.65938 0.59969 0.15439
 H546 H 0.62864 0.56883 0.12393
 H547 H 0.58450 0.64678 0.09431
 H548 H 0.61505 0.67735 0.12532
 H549 H 0.54740 0.61049 0.09832
 H550 H 0.51719 0.57989 0.06698
 H551 H 0.58875 0.52747 0.04176
 H552 H 0.61927 0.55824 0.07256
   
