data_POSCAR
  _audit_creation_date              2014-09-24
  _audit_creation_method            'ToBaCCo'
  _symmetry_space_group_name_H-M    'P1'
  _symmetry_Int_Tables_number       1
  _symmetry_cell_setting            triclinic
  loop_
  _symmetry_equiv_pos_as_xyz
 x,y,z
_cell_length_a 34.4657
_cell_length_b 34.6325
_cell_length_c 33.1436
_cell_angle_alpha 90.096200
_cell_angle_beta 90.156600
_cell_angle_gamma 90.611900
loop_
  _atom_site_label
  _atom_site_type_symbol
  _atom_site_fract_x
  _atom_site_fract_y
  _atom_site_fract_z
C1 C 0.34660 0.34299 1.40191
 C2 C 0.31516 0.36048 1.42101
 C3 C 0.29341 0.38956 1.40179
 C4 C 0.30511 0.40143 1.36266
 C5 C 0.33725 0.38457 1.34333
 C6 C 0.35744 0.35462 1.36288
 C7 C 0.36634 0.31288 1.42108
 C8 C 0.39623 0.29277 1.40133
 C9 C 0.40659 0.30453 1.36202
 C10 C 0.38802 0.33569 1.34315
 C11 C 0.39932 0.34778 1.30459
 C12 C 0.38017 0.37815 1.28479
 C13 C 0.34915 0.39653 1.30450
 H14 H 0.30669 0.34914 1.45003
 H15 H 0.28932 0.42387 1.34710
 H16 H 0.35627 0.30371 1.45046
 H17 H 0.42960 0.28980 1.34614
 H18 H 0.42360 0.33375 1.29023
 H19 H 0.33393 0.41959 1.28934
 C20 C 1.16387 0.66644 0.90657
 C21 C 1.19584 0.64907 0.92484
 C22 C 1.21557 0.61850 0.90597
 C23 C 1.20153 0.60519 0.86813
 C24 C 1.16870 0.62177 0.84992
 C25 C 1.15005 0.65277 0.86924
 C26 C 1.14655 0.69836 0.92482
 C27 C 1.11592 0.71821 0.90589
 C28 C 1.10083 0.70274 0.86954
 C29 C 1.11791 0.67055 0.85103
 C30 C 1.10410 0.65676 0.81387
 C31 C 1.12270 0.62624 0.79371
 C32 C 1.15476 0.60857 0.81228
 H33 H 1.20645 0.66166 0.95263
 H34 H 1.21597 0.58175 0.85274
 H35 H 1.15737 0.70707 0.95407
 H36 H 1.07684 0.71668 0.85441
 H37 H 1.07875 0.67003 0.80070
 H38 H 1.16933 0.58513 0.79705
 C39 C 0.66987 -0.19484 0.13011
 C40 C 0.70569 -0.18349 0.11301
 C41 C 0.73005 -0.15691 0.13330
 C42 C 0.71825 -0.14146 0.17034
 C43 C 0.68275 -0.15196 0.18722
 C44 C 0.65817 -0.17842 0.16700
 C45 C 0.64579 -0.22256 0.11133
 C46 C 0.60976 -0.23394 0.12851
 C47 C 0.59800 -0.21560 0.16455
 C48 C 0.62192 -0.18833 0.18383
 C49 C 0.61036 -0.17115 0.22021
 C50 C 0.63522 -0.14526 0.24040
 C51 C 0.67139 -0.13592 0.22395
 H52 H 0.71480 -0.19552 0.08440
 H53 H 0.73640 -0.12027 0.18571
 H54 H 0.65552 -0.23545 0.08335
 H55 H 0.57126 -0.22344 0.17943
 H56 H 0.58229 -0.17818 0.23314
 H57 H 0.69022 -0.11530 0.23929
 C58 C -0.16016 1.16844 -0.39723
 C59 C -0.19208 1.14815 -0.41344
 C60 C -0.20357 1.11194 -0.39772
 C61 C -0.18271 1.09678 -0.36478
 C62 C -0.15201 1.11760 -0.34719
 C63 C -0.14030 1.15325 -0.36371
 C64 C -0.14823 1.20403 -0.41350
 C65 C -0.11689 1.22483 -0.39636
 C66 C -0.09742 1.20936 -0.36288
 C67 C -0.10919 1.17406 -0.34615
 C68 C -0.09109 1.15989 -0.31135
 C69 C -0.10435 1.12553 -0.29310
 C70 C -0.13402 1.10401 -0.31214
 H71 H -0.20763 1.16042 -0.43878
 H72 H -0.19188 1.07008 -0.35060
 H73 H -0.16314 1.21515 -0.43975
 H74 H -0.07363 1.22535 -0.34907
 H75 H -0.06709 1.17610 -0.29844
 H76 H -0.14430 1.07724 -0.29882
 C77 C 0.67179 0.67124 0.60868
 C78 C 0.70549 0.65385 0.59335
 C79 C 0.71729 0.61752 0.60739
 C80 C 0.69565 0.59905 0.63769
 C81 C 0.66249 0.61634 0.65377
 C82 C 0.65013 0.65235 0.63889
 C83 C 0.65964 0.70723 0.59425
 C84 C 0.62600 0.72539 0.60958
 C85 C 0.60430 0.70548 0.63941
 C86 C 0.61633 0.66949 0.65446
 C87 C 0.59561 0.65069 0.68547
 C88 C 0.60864 0.61532 0.70129
 C89 C 0.64189 0.59834 0.68495
 H90 H 0.72231 0.66829 0.57014
 H91 H 0.70513 0.57147 0.64937
 H92 H 0.67633 0.71997 0.57010
 H93 H 0.57843 0.71835 0.65191
 H94 H 0.57023 0.66422 0.69824
 H95 H 0.65186 0.57096 0.69672
 C96 C 0.82766 0.33306 0.11522
 C97 C 0.79386 0.35082 0.10102
 C98 C 0.78118 0.38606 0.11747
 C99 C 0.80278 0.40270 0.14947
 C100 C 0.83566 0.38433 0.16506
 C101 C 0.84828 0.34942 0.14785
 C102 C 0.84097 0.29911 0.09717
 C103 C 0.87413 0.28009 0.11198
 C104 C 0.89330 0.29567 0.14618
 C105 C 0.88122 0.33067 0.16354
 C106 C 0.90147 0.34733 0.19628
 C107 C 0.88883 0.38214 0.21369
 C108 C 0.85584 0.40023 0.19797
 H109 H 0.77808 0.33761 0.07614
 H110 H 0.79316 0.42890 0.16399
 H111 H 0.82421 0.28681 0.07255
 H112 H 0.91866 0.28147 0.15834
 H113 H 0.92659 0.33291 0.20865
 H114 H 0.84604 0.42704 0.21127
 C115 C 0.30130 0.18712 0.86411
 C116 C 0.26788 0.17551 0.88497
 C117 C 0.25012 0.13932 0.87720
 C118 C 0.26720 0.11468 0.84838
 C119 C 0.29979 0.12657 0.82619
 C120 C 0.31676 0.16303 0.83397
 C121 C 0.32001 0.22219 0.87346
 C122 C 0.35311 0.23398 0.85206
 C123 C 0.36732 0.21086 0.82083
 C124 C 0.34964 0.17522 0.81206
 C125 C 0.36490 0.15129 0.78223
 C126 C 0.34826 0.11484 0.77397
 C127 C 0.31573 0.10255 0.79638
 H128 H 0.25702 0.19423 0.90844
 H129 H 0.25431 0.08663 0.84194
 H130 H 0.30904 0.24030 0.89751
 H131 H 0.39314 0.21990 0.80461
 H132 H 0.38993 0.16129 0.76531
 H133 H 0.30300 0.07427 0.79117
 C134 C 0.17072 0.83133 0.38315
 C135 C 0.20105 0.84614 0.40719
 C136 C 0.22008 0.88091 0.39673
 C137 C 0.20773 0.90096 0.36207
 C138 C 0.17779 0.88638 0.33767
 C139 C 0.15938 0.85126 0.34811
 C140 C 0.15205 0.79647 0.39318
 C141 C 0.12314 0.78025 0.36781
 C142 C 0.11215 0.80063 0.33294
 C143 C 0.12965 0.83603 0.32337
 C144 C 0.11767 0.85649 0.28932
 C145 C 0.13574 0.89146 0.27890
 C146 C 0.16612 0.90619 0.30281
 H147 H 0.21044 0.82971 0.43308
 H148 H 0.22178 0.92790 0.35362
 H149 H 0.16111 0.78134 0.42017
 H150 H 0.08874 0.79017 0.31389
 H151 H 0.09447 0.84500 0.27048
 H152 H 0.18002 0.93330 0.29468
 Zn153 Zn 0.03228 0.97451 0.00963
 Zn154 Zn -0.04386 0.96618 -0.03262
 Zn155 Zn -0.03936 1.00052 0.05023
 Zn156 Zn -0.00812 1.04467 -0.01956
 O157 O -0.01487 0.99651 0.00186
 O158 O 0.03579 0.92855 -0.01401
 O159 O -0.08808 0.94898 -0.01037
 O160 O -0.01075 0.98361 0.09114
 O161 O -0.01931 0.92309 -0.04799
 O162 O 0.04398 0.96683 0.06159
 O163 O -0.08306 0.97229 0.05179
 O164 O -0.02751 1.08234 0.01157
 O165 O -0.05667 0.99083 -0.07797
 O166 O -0.05101 1.04936 0.06345
 O167 O -0.03125 1.04902 -0.06746
 O168 O 0.04196 1.05631 -0.02953
 O169 O 0.07088 1.00232 -0.01113
 C170 C 0.01343 0.90990 -0.03759
 C171 C -0.10067 0.95200 0.02541
 C172 C 0.02348 0.97078 0.09299
 C173 C -0.04456 1.08112 0.04546
 C174 C -0.04986 1.02518 -0.08945
 C175 C 0.07210 1.03571 -0.02667
 Zn176 Zn 0.48488 0.01413 0.45350
 Zn177 Zn 0.47136 -0.02412 0.53375
 Zn178 Zn 0.55136 -0.01812 0.49855
 Zn179 Zn 0.51222 0.05318 0.52639
 O180 O 0.50485 0.00603 0.50334
 O181 O 0.43832 -0.00639 0.44881
 O182 O 0.49348 -0.06903 0.55043
 O183 O 0.56141 -0.03251 0.44780
 O184 O 0.42705 -0.03667 0.50642
 O185 O 0.51168 -0.00811 0.41464
 O186 O 0.55312 -0.06194 0.52658
 O187 O 0.56223 0.06473 0.53402
 O188 O 0.45657 0.00059 0.57916
 O189 O 0.59165 0.01125 0.51476
 O190 O 0.48958 0.05581 0.57424
 O191 O 0.49359 0.09278 0.49741
 O192 O 0.47934 0.06372 0.43989
 C193 C 0.41661 -0.02694 0.47102
 C194 C 0.52798 -0.08127 0.54611
 C195 C 0.54249 -0.02762 0.41539
 C196 C 0.59286 0.04557 0.52819
 C197 C 0.46680 0.03335 0.59326
 C198 C 0.48203 0.09410 0.46110
 Zn199 Zn 0.95837 0.48658 0.49822
 Zn200 Zn 1.04046 0.47592 0.52856
 Zn201 Zn 1.02490 0.51660 0.45008
 Zn202 Zn 1.00354 0.55331 0.52831
 O203 O 1.00695 0.50787 0.50129
 O204 O 0.95624 0.44086 0.52258
 O205 O 1.08305 0.46411 0.49887
 O206 O 0.99299 0.49824 0.41119
 O207 O 1.01702 0.43106 0.54212
 O208 O 0.94340 0.47687 0.44743
 O209 O 1.07010 0.49367 0.44129
 O210 O 1.02380 0.59209 0.50076
 O211 O 1.05810 0.49658 0.57571
 O212 O 1.03506 0.56684 0.44051
 O213 O 1.02946 0.55342 0.57472
 O214 O 0.95490 0.56704 0.54006
 O215 O 0.92091 0.51615 0.51976
 C216 C 0.98187 0.41984 0.53880
 C217 C 1.09223 0.47319 0.46289
 C218 C 0.95995 0.48186 0.41366
 C219 C 1.03584 0.59521 0.46487
 C220 C 1.05127 0.52916 0.59184
 C221 C 0.92264 0.54957 0.53552
 Zn222 Zn 0.50218 0.44413 1.01841
 Zn223 Zn 0.47143 0.52496 1.02116
 Zn224 Zn 0.54983 0.50825 0.98551
 Zn225 Zn 0.47974 0.48288 0.94168
 O226 O 0.50058 0.49020 0.99189
 O227 O 0.47634 0.44517 1.06513
 O228 O 0.49895 0.56863 1.03365
 O229 O 0.58569 0.47822 1.00789
 O230 O 0.45408 0.50484 1.06863
 O231 O 0.55059 0.42895 1.03043
 O232 O 0.55616 0.55409 1.00776
 O233 O 0.51001 0.49956 0.90100
 O234 O 0.42831 0.53955 0.99360
 O235 O 0.56354 0.51565 0.93403
 O236 O 0.43593 0.50821 0.93588
 O237 O 0.46642 0.43360 0.93186
 O238 O 0.48035 0.40588 0.99018
 C239 C 0.45755 0.47114 1.08348
 C240 C 0.53427 0.57723 1.02629
 C241 C 0.58310 0.44580 1.02538
 C242 C 0.54446 0.51277 0.90138
 C243 C 0.41652 0.53035 0.95836
 C244 C 0.46636 0.40430 0.95479
 C245 C 1.19900 0.43680 0.41272
 C246 C 1.19056 0.43039 0.45354
 N247 N 1.21702 0.41265 0.47715
 C248 C 1.25116 0.40007 0.46177
 C249 C 1.25959 0.40498 0.42017
 N250 N 1.23306 0.42411 0.39712
 N251 N 1.17265 0.45491 0.38912
 C252 C 1.13820 0.46681 0.40449
 C253 C 1.12940 0.46016 0.44544
 N254 N 1.15609 0.44211 0.46899
 H255 H 1.27142 0.38735 0.48258
 H256 H 1.11785 0.48118 0.38480
 C257 C 0.30889 0.56942 0.91329
 C258 C 0.31989 0.57690 0.95334
 N259 N 0.29541 0.59626 0.97780
 C260 C 0.26082 0.60933 0.96391
 C261 C 0.24987 0.60307 0.92308
 N262 N 0.27441 0.58246 0.89928
 N263 N 0.33317 0.54983 0.88876
 C264 C 0.36801 0.53735 0.90250
 C265 C 0.37930 0.54484 0.94271
 N266 N 0.35474 0.56449 0.96723
 H267 H 0.24214 0.62346 0.98527
 H268 H 0.38665 0.52170 0.88212
 C269 C -0.19871 0.88741 0.06285
 C270 C -0.16771 0.89542 0.08926
 N271 N -0.16896 0.88240 0.12772
 C272 C -0.20044 0.86277 0.14154
 C273 C -0.23273 0.85669 0.11610
 N274 N -0.23078 0.86859 0.07693
 N275 N -0.19678 0.90003 0.02407
 C276 C -0.16542 0.92059 0.01073
 C277 C -0.13514 0.92982 0.03771
 N278 N -0.13705 0.91667 0.07625
 H279 H -0.20083 0.85323 0.17262
 H280 H -0.16449 0.93029 -0.02029
 C281 C 0.70041 0.09766 0.55761
 C282 C 0.69457 0.05780 0.56241
 N283 N 0.72310 0.03615 0.57873
 C284 C 0.75699 0.05261 0.59134
 C285 C 0.76305 0.09287 0.58711
 N286 N 0.73449 0.11404 0.56948
 N287 N 0.67128 0.11965 0.54290
 C288 C 0.63638 0.10355 0.53303
 C289 C 0.63053 0.06356 0.53756
 N290 N 0.65999 0.04156 0.55186
 H291 H 0.77911 0.03404 0.60355
 H292 H 0.61350 0.12174 0.52160
 C293 C 0.44486 0.19964 0.41075
 C294 C 0.44410 0.19364 0.45256
 N295 N 0.42911 0.22112 0.47693
 C296 C 0.41399 0.25405 0.46147
 C297 C 0.41394 0.26024 0.41925
 N298 N 0.43027 0.23277 0.39523
 N299 N 0.45861 0.17153 0.38621
 C300 C 0.47130 0.13750 0.40160
 C301 C 0.47059 0.13137 0.44355
 N302 N 0.45724 0.15989 0.46804
 H303 H 0.40316 0.27534 0.48234
 H304 H 0.48173 0.11543 0.38130
 C305 C 0.94602 0.30966 0.57975
 C306 C 0.91992 0.33453 0.56077
 N307 N 0.88243 0.32326 0.55553
 C308 C 0.86975 0.28809 0.56840
 C309 C 0.89580 0.26286 0.58750
 N310 N 0.93340 0.27460 0.59270
 N311 N 0.98350 0.32109 0.58520
 C312 C 0.99607 0.35640 0.57248
 C313 C 0.96990 0.38147 0.55350
 N314 N 0.93239 0.36972 0.54816
 H315 H 0.83944 0.28054 0.56461
 H316 H 1.02609 0.36474 0.57716
 C317 C 0.05340 0.80238 -0.08026
 C318 C 0.07331 0.82291 -0.05012
 N319 N 0.10645 0.80859 -0.03453
 C320 C 0.12083 0.77448 -0.04753
 C321 C 0.10122 0.75321 -0.07815
 N322 N 0.06785 0.76834 -0.09367
 N323 N 0.02015 0.81702 -0.09587
 C324 C 0.00609 0.85143 -0.08265
 C325 C 0.02643 0.87225 -0.05269
 N326 N 0.05957 0.85722 -0.03722
 H327 H 0.14814 0.76570 -0.03482
 H328 H -0.02039 0.86251 -0.09565
 C329 C 0.58682 0.68125 1.06662
 C330 C 0.54969 0.67069 1.08009
 N331 N 0.53173 0.69325 1.10760
 C332 C 0.54953 0.72528 1.12311
 C333 C 0.58778 0.73537 1.11092
 N334 N 0.60470 0.71298 1.08217
 N335 N 0.60517 0.65882 1.03933
 C336 C 0.58829 0.62588 1.02529
 C337 C 0.55132 0.61451 1.03933
 N338 N 0.53265 0.63757 1.06623
 H339 H 0.53330 0.74233 1.14427
 H340 H 0.60393 0.60850 1.00371
 C341 C 0.40735 0.43945 1.19587
 C342 C 0.42234 0.41174 1.16942
 N343 N 0.42136 0.37395 1.17988
 C344 C 0.40680 0.36248 1.21601
 C345 C 0.39290 0.39009 1.24359
 N346 N 0.39307 0.42811 1.23241
 N347 N 0.40818 0.47729 1.18483
 C348 C 0.42354 0.48861 1.14873
 C349 C 0.43929 0.46085 1.12253
 N350 N 0.43801 0.42303 1.13375
 H351 H 0.40622 0.33200 1.22307
 H352 H 0.42394 0.51892 1.14087
 C353 C 0.57716 -0.08695 0.31075
 C354 C 0.60109 -0.08581 0.34511
 N355 N 0.63533 -0.10477 0.34495
 C356 C 0.64681 -0.12471 0.31181
 C357 C 0.62275 -0.12607 0.27752
 N358 N 0.58839 -0.10718 0.27788
 N359 N 0.54328 -0.06743 0.31060
 C360 C 0.53202 -0.04702 0.34345
 C361 C 0.55555 -0.04639 0.37823
 N362 N 0.58963 -0.06587 0.37813
 H363 H 0.67439 -0.13937 0.31217
 H364 H 0.50457 -0.03213 0.34265
 C365 C -0.08451 1.06214 -0.20515
 C366 C -0.06633 1.08765 -0.17806
 N367 N -0.05986 1.12485 -0.18902
 C368 C -0.07082 1.13784 -0.22595
 C369 C -0.08908 1.11234 -0.25351
 N370 N -0.09539 1.07502 -0.24200
 N371 N -0.09160 1.02506 -0.19393
 C372 C -0.08123 1.01231 -0.15669
 C373 C -0.06286 1.03784 -0.12947
 N374 N -0.05586 1.07497 -0.14100
 H375 H -0.06628 1.16802 -0.23278
 H376 H -0.08705 0.98255 -0.14860
 C377 C 1.09899 0.56367 0.70452
 C378 C 1.08069 0.59002 0.67888
 N379 N 1.07770 0.62747 0.69015
 C380 C 1.09157 0.63986 0.72632
 C381 C 1.10892 0.61350 0.75308
 N382 N 1.11263 0.57591 0.74107
 N383 N 1.10231 0.52624 0.69256
 C384 C 1.08790 0.51401 0.65625
 C385 C 1.06889 0.54037 0.63088
 N386 N 1.06602 0.57778 0.64306
 H387 H 1.08930 0.67016 0.73374
 H388 H 1.09075 0.48404 0.64759
 C389 C 0.81926 0.60383 0.57366
 C390 C 0.81954 0.56423 0.56450
 N391 N 0.78648 0.54300 0.56874
 C392 C 0.75319 0.55948 0.58201
 C393 C 0.75271 0.59916 0.59129
 N394 N 0.78591 0.62042 0.58657
 N395 N 0.85253 0.62488 0.57027
 C396 C 0.88612 0.60816 0.55822
 C397 C 0.88657 0.56850 0.54878
 N398 N 0.85301 0.54755 0.55207
 H399 H 0.72729 0.54181 0.58514
 H400 H 0.91216 0.62574 0.55582
 C401 C 0.68616 0.39600 1.06920
 C402 C 0.67991 0.43578 1.07249
 N403 N 0.70698 0.45853 1.09075
 C404 C 0.74007 0.44337 1.10616
 C405 C 0.74710 0.40336 1.10241
 N406 N 0.71967 0.38094 1.08353
 N407 N 0.65833 0.37298 1.05237
 C408 C 0.62451 0.38807 1.03854
 C409 C 0.61867 0.42810 1.04079
 N410 N 0.64668 0.45100 1.05770
 H411 H 0.76114 0.46291 1.11950
 H412 H 0.60274 0.36918 1.02525
 C413 C 0.17566 1.07543 -0.08064
 C414 C 0.14944 1.10172 -0.06407
 N415 N 0.15730 1.14009 -0.06628
 C416 C 0.19019 1.15348 -0.08434
 C417 C 0.21631 1.12721 -0.10214
 N418 N 0.20783 1.08874 -0.09968
 N419 N 0.16854 1.03699 -0.07754
 C420 C 0.13607 1.02358 -0.05891
 C421 C 0.10897 1.04983 -0.04349
 N422 N 0.11634 1.08843 -0.04647
 H423 H 0.19448 1.18435 -0.08631
 H424 H 0.13087 0.99274 -0.05731
 C425 C 0.31146 -0.06527 0.41807
 C426 C 0.32138 -0.07743 0.45705
 N427 N 0.29731 -0.10231 0.47675
 C428 C 0.26411 -0.11591 0.45899
 C429 C 0.25460 -0.10435 0.41935
 N430 N 0.27876 -0.07900 0.40039
 N431 N 0.33491 -0.04039 0.39804
 C432 C 0.36828 -0.02724 0.41502
 C433 C 0.37906 -0.03974 0.45389
 N434 N 0.35509 -0.06453 0.47421
 H435 H 0.24553 -0.13522 0.47593
 H436 H 0.38640 -0.00751 0.39794
 C437 C 0.56465 -0.18963 0.59158
 C438 C 0.58917 -0.16624 0.56833
 N439 N 0.62539 -0.17835 0.55959
 C440 C 0.63836 -0.21310 0.57253
 C441 C 0.61389 -0.23763 0.59567
 N442 N 0.57754 -0.22450 0.60480
 N443 N 0.52825 -0.17720 0.60017
 C444 C 0.51535 -0.14245 0.58638
 C445 C 0.54004 -0.11893 0.56293
 N446 N 0.57644 -0.13169 0.55471
 H447 H 0.66795 -0.22020 0.56554
 H448 H 0.48621 -0.13340 0.59354
 C449 C 1.08814 0.70014 0.42943
 C450 C 1.07013 0.67609 0.40072
 N451 N 1.06984 0.68683 0.36142
 C452 C 1.08650 0.72067 0.34949
 C453 C 1.10518 0.74488 0.37820
 N454 N 1.10556 0.73336 0.41747
 N455 N 1.08762 0.69015 0.46891
 C456 C 1.06998 0.65697 0.48104
 C457 C 1.05271 0.63226 0.45226
 N458 N 1.05330 0.64238 0.41261
 H459 H 1.08639 0.72739 0.31767
 H460 H 1.07030 0.64952 0.51275
 C461 C -0.08018 1.18573 0.09907
 C462 C -0.08704 1.17829 0.05803
 N463 N -0.10632 1.20452 0.03555
 C464 C -0.11951 1.23776 0.05219
 C465 C -0.11245 1.24589 0.09345
 N466 N -0.09233 1.21948 0.11556
 N467 N -0.06238 1.15862 0.12196
 C468 C -0.05110 1.12445 0.10560
 C469 C -0.05708 1.11739 0.06425
 N470 N -0.07482 1.14468 0.04142
 H471 H -0.13389 1.25813 0.03269
 H472 H -0.03702 1.10327 0.12447
 C473 C 0.40650 0.30392 0.91635
 C474 C 0.41661 0.33290 0.88861
 N475 N 0.40588 0.32904 0.84934
 C476 C 0.38542 0.29748 0.83659
 C477 C 0.37462 0.26887 0.86453
 N478 N 0.38552 0.27284 0.90380
 N479 N 0.41784 0.30728 0.95541
 C480 C 0.43852 0.33859 0.96820
 C481 C 0.44780 0.36826 0.94080
 N482 N 0.43662 0.36457 0.90151
 H483 H 0.37727 0.29491 0.80513
 H484 H 0.44664 0.34074 0.99970
 C485 C 0.59573 0.56081 0.79696
 C486 C 0.55530 0.56033 0.80160
 N487 N 0.53277 0.57795 0.77355
 C488 C 0.54886 0.59612 0.74110
 C489 C 0.58942 0.59649 0.73624
 N490 N 0.61171 0.57853 0.76444
 N491 N 0.61846 0.54432 0.82550
 C492 C 0.60262 0.52765 0.85881
 C493 C 0.56211 0.52703 0.86370
 N494 N 0.53937 0.54331 0.83471
 H495 H 0.53015 0.60961 0.71909
 H496 H 0.62148 0.51529 0.88142
 C497 C 0.42021 0.07996 0.69974
 C498 C 0.39897 0.05244 0.67753
 N499 N 0.36186 0.04402 0.68842
 C500 C 0.34485 0.06229 0.72014
 C501 C 0.36588 0.09066 0.74191
 N502 N 0.40325 0.09820 0.73105
 N503 N 0.45675 0.08965 0.68841
 C504 C 0.47289 0.07363 0.65518
 C505 C 0.45150 0.04674 0.63209
 N506 N 0.41505 0.03634 0.64413
 H507 H 0.31487 0.05572 0.72700
 H508 H 0.50190 0.08243 0.64640
 C509 C 0.06816 0.93202 0.20400
 C510 C 0.09331 0.94263 0.17259
 N511 N 0.13223 0.93888 0.17763
 C512 C 0.14706 0.92435 0.21249
 C513 C 0.12172 0.91220 0.24320
 N514 N 0.08286 0.91661 0.23819
 N515 N 0.02934 0.93611 0.19936
 C516 C 0.01435 0.94988 0.16438
 C517 C 0.03927 0.95913 0.13222
 N518 N 0.07831 0.95547 0.13722
 H519 H 0.17809 0.92081 0.21552
 H520 H -0.01680 0.95238 0.16132
 C521 C 0.90473 0.43333 0.31115
 C522 C 0.94535 0.43504 0.31374
 N523 N 0.96692 0.41886 0.28404
 C524 C 0.94972 0.40107 0.25184
 C525 C 0.90898 0.39972 0.24890
 N526 N 0.88759 0.41613 0.27878
 N527 N 0.88304 0.44836 0.34134
 C528 C 0.90012 0.46484 0.37424
 C529 C 0.94080 0.46692 0.37692
 N530 N 0.96249 0.45201 0.34637
 H531 H 0.96764 0.38882 0.22843
 H532 H 0.88211 0.47614 0.39813
   
