data_POSCAR
  _audit_creation_date              2014-09-24
  _audit_creation_method            'ToBaCCo'
  _symmetry_space_group_name_H-M    'P1'
  _symmetry_Int_Tables_number       1
  _symmetry_cell_setting            triclinic
  loop_
  _symmetry_equiv_pos_as_xyz
 x,y,z
_cell_length_a 48.3023
_cell_length_b 48.4289
_cell_length_c 48.3149
_cell_angle_alpha 89.998500
_cell_angle_beta 90.004400
_cell_angle_gamma 89.999400
loop_
  _atom_site_label
  _atom_site_type_symbol
  _atom_site_fract_x
  _atom_site_fract_y
  _atom_site_fract_z
C1 C 0.25115 1.08732 -0.01488
 C2 C 0.25278 1.08743 0.01343
 C3 C 0.25340 1.06000 0.02179
 N4 N 0.25229 1.04328 -0.00058
 C5 C 0.25094 1.05986 -0.02304
 C6 C 0.25404 1.05109 0.04971
 C7 C 0.25332 1.02305 0.05825
 C8 C 0.24951 1.01454 0.08544
 C9 C 0.24941 0.98621 0.08532
 C10 C 0.25320 0.97794 0.05808
 N11 N 0.25602 1.00053 0.04179
 C12 C 0.25389 0.94999 0.04939
 C13 C 0.25386 0.94097 0.02155
 C14 C 0.25365 0.91351 0.01339
 C15 C 0.25257 0.91341 -0.01495
 C16 C 0.25220 0.94084 -0.02331
 N17 N 0.25300 0.95755 -0.00092
 C18 C 0.25190 0.94977 -0.05123
 C19 C 0.25229 0.97783 -0.05975
 C20 C 0.25588 0.98641 -0.08695
 C21 C 0.25543 1.01474 -0.08683
 C22 C 0.25161 1.02293 -0.05958
 N23 N 0.24927 1.00030 -0.04328
 C24 C 0.25044 1.05085 -0.05087
 H25 H 0.25042 1.10546 -0.02796
 H26 H 0.25325 1.10566 0.02639
 H27 H 0.24383 1.00023 -0.02256
 H28 H 0.24668 1.02741 0.10354
 H29 H 0.24652 0.97320 0.10330
 H30 H 0.25405 0.89537 0.02648
 H31 H 0.25222 0.89519 -0.02791
 H32 H 0.25800 1.02781 -0.10482
 H33 H 0.26151 1.00054 0.02108
 H34 H 0.25884 0.97359 -0.10506
 C35 C 0.75194 0.48591 0.58793
 C36 C 0.75361 0.51416 0.58777
 C37 C 0.75418 0.52224 0.56022
 N38 N 0.75301 0.49980 0.54366
 C39 C 0.75164 0.47754 0.56047
 C40 C 0.75477 0.54998 0.55109
 C41 C 0.75398 0.55853 0.52304
 C42 C 0.75021 0.58567 0.51461
 C43 C 0.75001 0.58562 0.48620
 C44 C 0.75370 0.55845 0.47785
 N45 N 0.75657 0.54215 0.50047
 C46 C 0.75420 0.54980 0.44982
 C47 C 0.75402 0.52197 0.44097
 C48 C 0.75373 0.51360 0.41352
 C49 C 0.75265 0.48531 0.41368
 C50 C 0.75235 0.47724 0.44123
 N51 N 0.75318 0.49969 0.45778
 C52 C 0.75218 0.44950 0.45038
 C53 C 0.75263 0.44098 0.47845
 C54 C 0.75626 0.41384 0.48695
 C55 C 0.75587 0.41389 0.51536
 C56 C 0.75204 0.44105 0.52364
 N57 N 0.74961 0.45736 0.50097
 C58 C 0.75103 0.44972 0.55164
 H59 H 0.75122 0.47301 0.60621
 H60 H 0.75412 0.52726 0.60592
 H61 H 0.74412 0.47802 0.50082
 H62 H 0.74746 0.60369 0.52758
 H63 H 0.74711 0.60358 0.47320
 H64 H 0.75412 0.52651 0.39523
 H65 H 0.75228 0.47221 0.39554
 H66 H 0.75852 0.39592 0.52842
 H67 H 0.76202 0.52148 0.50055
 H68 H 0.75923 0.39581 0.47405
 C69 C 0.74696 0.91290 0.98613
 C70 C 0.74800 0.91266 1.01447
 C71 C 0.74825 0.94005 1.02297
 N72 N 0.74743 0.95687 1.00066
 C73 C 0.74667 0.94040 0.97811
 C74 C 0.74846 0.94884 1.05093
 C75 C 0.74796 0.97686 1.05960
 C76 C 0.74429 0.98529 1.08683
 C77 C 0.74465 1.01362 1.08685
 C78 C 0.74849 1.02196 1.05965
 N79 N 0.75093 0.99941 1.04324
 C80 C 0.74957 1.04993 1.05108
 C81 C 0.74909 1.05907 1.02329
 C82 C 0.74879 1.08657 1.01527
 C83 C 0.74720 1.08681 0.98695
 C84 C 0.74669 1.05943 0.97846
 N85 N 0.74783 1.04260 1.00075
 C86 C 0.74612 1.05065 0.95050
 C87 C 0.74695 1.02265 0.94181
 C88 C 0.75081 1.01429 0.91458
 C89 C 0.75102 0.98596 0.91457
 C90 C 0.74724 0.97754 0.94176
 N91 N 0.74432 1.00005 0.95816
 C92 C 0.74665 0.94955 0.95031
 H93 H 0.74665 0.89482 0.97296
 H94 H 0.74839 0.89437 1.02735
 H95 H 0.73882 0.99994 0.97886
 H96 H 0.74134 0.97236 1.10487
 H97 H 0.74199 1.02659 1.10490
 H98 H 0.74944 1.10464 1.02843
 H99 H 0.74669 1.10510 0.97409
 H100 H 0.75397 0.97305 0.89652
 H101 H 0.75641 0.99947 1.02253
 H102 H 0.75361 1.02727 0.89655
 C103 C 0.24673 0.51462 0.58638
 C104 C 0.24510 0.48636 0.58633
 C105 C 0.24478 0.47817 0.55882
 N106 N 0.24606 0.50054 0.54217
 C107 C 0.24725 0.52287 0.55890
 C108 C 0.24431 0.45039 0.54980
 C109 C 0.24538 0.44171 0.52180
 C110 C 0.24926 0.41454 0.51353
 C111 C 0.24974 0.41447 0.48512
 C112 C 0.24611 0.44160 0.47661
 N113 N 0.24300 0.45800 0.49913
 C114 C 0.24588 0.45013 0.44854
 C115 C 0.24611 0.47791 0.43957
 C116 C 0.24667 0.48617 0.41208
 C117 C 0.24770 0.51446 0.41213
 C118 C 0.24770 0.52266 0.43965
 N119 N 0.24674 0.50027 0.45629
 C120 C 0.24771 0.55043 0.44868
 C121 C 0.24697 0.55907 0.47670
 C122 C 0.24319 0.58624 0.48505
 C123 C 0.24332 0.58632 0.51346
 C124 C 0.24713 0.55919 0.52190
 N125 N 0.24981 0.54279 0.49932
 C126 C 0.24791 0.55066 0.54994
 H127 H 0.24728 0.52760 0.60462
 H128 H 0.24445 0.47334 0.60453
 H129 H 0.25535 0.52215 0.49932
 H130 H 0.25190 0.39658 0.52660
 H131 H 0.25279 0.39645 0.47223
 H132 H 0.24650 0.47318 0.39385
 H133 H 0.24823 0.52749 0.39394
 H134 H 0.24050 0.60433 0.52642
 H135 H 0.23754 0.47866 0.49907
 H136 H 0.24030 0.60420 0.47204
 C137 C 1.08563 0.23923 -0.01490
 C138 C 1.08589 0.23945 0.01349
 C139 C 1.05923 0.24602 0.02191
 N140 N 1.04282 0.25001 -0.00041
 C141 C 1.05881 0.24570 -0.02295
 C142 C 1.05090 0.24997 0.04968
 C143 C 1.02307 0.25407 0.05788
 C144 C 1.01476 0.26263 0.08402
 C145 C 0.98630 0.26228 0.08420
 C146 C 0.97793 0.25357 0.05816
 N147 N 1.00045 0.24845 0.04232
 C148 C 0.95014 0.24897 0.05031
 C149 C 0.94135 0.24543 0.02268
 C150 C 0.91454 0.23903 0.01470
 C151 C 0.91423 0.23938 -0.01370
 C152 C 0.94089 0.24596 -0.02214
 N153 N 0.95733 0.24984 0.00016
 C154 C 0.94918 0.25009 -0.04988
 C155 C 0.97700 0.25435 -0.05807
 C156 C 0.98523 0.26321 -0.08414
 C157 C 1.01368 0.26299 -0.08436
 C158 C 1.02217 0.25404 -0.05840
 N159 N 0.99967 0.24868 -0.04260
 C160 C 1.05003 0.24940 -0.05061
 H161 H 1.10325 0.23514 -0.02812
 H162 H 1.10375 0.23554 0.02645
 H163 H 0.99979 0.23866 -0.02361
 H164 H 1.02786 0.26824 0.10131
 H165 H 0.97327 0.26760 0.10162
 H166 H 0.89694 0.23490 0.02794
 H167 H 0.89634 0.23555 -0.02664
 H168 H 1.02665 0.26853 -0.10176
 H169 H 1.00039 0.23861 0.02325
 H170 H 0.97208 0.26893 -0.10135
 C171 C 0.48617 0.73992 0.58561
 C172 C 0.51459 0.74014 0.58563
 C173 C 0.52278 0.74613 0.55879
 N174 N 0.50035 0.74981 0.54249
 C175 C 0.47794 0.74582 0.55876
 C176 C 0.55048 0.74980 0.55020
 C177 C 0.55866 0.75357 0.52236
 C178 C 0.58490 0.76174 0.51401
 C179 C 0.58501 0.76138 0.48555
 C180 C 0.55882 0.75304 0.47723
 N181 N 0.54299 0.74812 0.49980
 C182 C 0.55077 0.74877 0.44942
 C183 C 0.52303 0.74555 0.44081
 C184 C 0.51476 0.73965 0.41397
 C185 C 0.48635 0.74004 0.41394
 C186 C 0.47819 0.74614 0.44078
 N187 N 0.50065 0.74971 0.45707
 C188 C 0.45052 0.75000 0.44936
 C189 C 0.44236 0.75389 0.47719
 C190 C 0.41617 0.76224 0.48552
 C191 C 0.41606 0.76194 0.51398
 C192 C 0.44219 0.75346 0.52232
 N193 N 0.45800 0.74839 0.49976
 C194 C 0.45022 0.74920 0.55014
 H195 H 0.47308 0.73618 0.60340
 H196 H 0.52770 0.73656 0.60344
 H197 H 0.47716 0.73872 0.49974
 H198 H 0.60228 0.76716 0.52707
 H199 H 0.60247 0.76651 0.47248
 H200 H 0.52783 0.73578 0.39618
 H201 H 0.47321 0.73651 0.39614
 H202 H 0.39863 0.76721 0.52704
 H203 H 0.52377 0.73857 0.49984
 H204 H 0.39882 0.76773 0.47245
 C205 C -0.01456 0.73889 -0.08643
 C206 C 0.01383 0.73869 -0.08656
 C207 C 0.02223 0.74503 -0.05984
 N208 N -0.00011 0.74925 -0.04351
 C209 C -0.02265 0.74533 -0.05963
 C210 C 0.05003 0.74867 -0.05140
 C211 C 0.05810 0.75317 -0.02360
 C212 C 0.08417 0.76199 -0.01530
 C213 C 0.08416 0.76222 0.01315
 C214 C 0.05812 0.75351 0.02154
 N215 N 0.04244 0.74788 -0.00098
 C216 C 0.05017 0.74933 0.04938
 C217 C 0.02258 0.74519 0.05806
 C218 C 0.01464 0.73868 0.08485
 C219 C -0.01377 0.73824 0.08502
 C220 C -0.02227 0.74455 0.05831
 N221 N 0.00001 0.74896 0.04197
 C222 C -0.05008 0.74803 0.04992
 C223 C -0.05820 0.75267 0.02214
 C224 C -0.08429 0.76149 0.01395
 C225 C -0.08433 0.76192 -0.01449
 C226 C -0.05826 0.75331 -0.02302
 N227 N -0.04255 0.74759 -0.00055
 C228 C -0.05032 0.74927 -0.05095
 H229 H -0.02776 0.73506 -0.10413
 H230 H 0.02682 0.73469 -0.10437
 H231 H -0.02348 0.73772 -0.00072
 H232 H 0.10150 0.76747 -0.02840
 H233 H 0.10149 0.76788 0.02617
 H234 H 0.02791 0.73493 0.10251
 H235 H -0.02669 0.73413 0.10285
 H236 H -0.10171 0.76762 -0.02743
 H237 H 0.02340 0.73797 -0.00089
 H238 H -0.10161 0.76683 0.02712
 C239 C 0.58656 0.24995 0.51533
 C240 C 0.58676 0.24828 0.48700
 C241 C 0.55931 0.24799 0.47855
 N242 N 0.54246 0.24932 0.50082
 C243 C 0.55899 0.25051 0.52335
 C244 C 0.55053 0.24748 0.45064
 C245 C 0.52259 0.24857 0.44175
 C246 C 0.51451 0.25249 0.41447
 C247 C 0.48610 0.25295 0.41420
 C248 C 0.47740 0.24926 0.44133
 N249 N 0.49981 0.24615 0.45792
 C250 C 0.44927 0.24893 0.44967
 C251 C 0.44005 0.24908 0.47744
 C252 C 0.41248 0.24948 0.48546
 C253 C 0.41228 0.25048 0.51382
 C254 C 0.43973 0.25063 0.52227
 N255 N 0.45657 0.24978 0.49998
 C256 C 0.44852 0.25068 0.55018
 C257 C 0.47648 0.25008 0.55905
 C258 C 0.48465 0.24636 0.58635
 C259 C 0.51307 0.24657 0.58662
 C260 C 0.52168 0.25036 0.55949
 N261 N 0.49922 0.25296 0.54289
 C262 C 0.54979 0.25116 0.55112
 H263 H 0.60468 0.25048 0.52850
 H264 H 0.60508 0.24759 0.47412
 H265 H 0.49938 0.25845 0.52219
 H266 H 0.52771 0.25517 0.39656
 H267 H 0.47332 0.25601 0.39605
 H268 H 0.39436 0.24922 0.47229
 H269 H 0.39396 0.25090 0.52672
 H270 H 0.52591 0.24381 0.60477
 H271 H 0.49958 0.24062 0.47861
 H272 H 0.47152 0.24346 0.60426
 C273 C 1.08891 -0.01410 0.25078
 C274 C 1.08883 0.01414 0.25228
 C275 C 1.06128 0.02231 0.25287
 N276 N 1.04466 -0.00013 0.25188
 C277 C 1.06141 -0.02245 0.25062
 C278 C 1.05219 0.05013 0.25337
 C279 C 1.02406 0.05862 0.25259
 C280 C 1.01550 0.08574 0.24873
 C281 C 0.98710 0.08560 0.24865
 C282 C 0.97884 0.05842 0.25247
 N283 N 1.00152 0.04219 0.25531
 C284 C 0.95082 0.04974 0.25314
 C285 C 0.94192 0.02193 0.25308
 C286 C 0.91444 0.01363 0.25284
 C287 C 0.91453 -0.01466 0.25182
 C288 C 0.94207 -0.02279 0.25151
 N289 N 0.95869 -0.00037 0.25228
 C290 C 0.95115 -0.05054 0.25139
 C291 C 0.97922 -0.05904 0.25192
 C292 C 0.98768 -0.08616 0.25570
 C293 C 1.01608 -0.08614 0.25535
 C294 C 1.02444 -0.05898 0.25137
 N295 N 1.00178 -0.04267 0.24886
 C296 C 1.05250 -0.05032 0.25022
 H297 H 1.10718 -0.02702 0.25009
 H298 H 1.10702 0.02719 0.25267
 H299 H 1.00169 -0.02204 0.24327
 H300 H 1.02839 0.10380 0.24588
 H301 H 0.97403 0.10352 0.24573
 H302 H 0.89618 0.02657 0.25321
 H303 H 0.89635 -0.02772 0.25149
 H304 H 1.02911 -0.10412 0.25808
 H305 H 1.00162 0.02154 0.26082
 H306 H 0.97475 -0.10416 0.25874
 C307 C 0.48520 0.58731 0.75191
 C308 C 0.51354 0.58723 0.75356
 C309 C 0.52170 0.55977 0.75413
 N310 N 0.49924 0.54318 0.75298
 C311 C 0.47688 0.55989 0.75163
 C312 C 0.54953 0.55072 0.75474
 C313 C 0.55808 0.52273 0.75400
 C314 C 0.58528 0.51430 0.75024
 C315 C 0.58520 0.48596 0.75008
 C316 C 0.55796 0.47764 0.75377
 N317 N 0.54163 0.50022 0.75661
 C318 C 0.54927 0.44968 0.75432
 C319 C 0.52139 0.44078 0.75413
 C320 C 0.51305 0.41337 0.75385
 C321 C 0.48469 0.41346 0.75271
 C322 C 0.47653 0.44092 0.75238
 N323 N 0.49901 0.45750 0.75325
 C324 C 0.44870 0.44999 0.75213
 C325 C 0.44017 0.47799 0.75258
 C326 C 0.41297 0.48648 0.75619
 C327 C 0.41304 0.51483 0.75584
 C328 C 0.44030 0.52308 0.75206
 N329 N 0.45663 0.50046 0.74962
 C330 C 0.44900 0.55101 0.75106
 H331 H 0.47223 0.60551 0.75119
 H332 H 0.52663 0.60536 0.75406
 H333 H 0.47734 0.50035 0.74417
 H334 H 0.60336 0.52722 0.74748
 H335 H 0.60321 0.47297 0.74720
 H336 H 0.52604 0.39516 0.75425
 H337 H 0.47160 0.39533 0.75232
 H338 H 0.39504 0.52786 0.75848
 H339 H 0.52091 0.50027 0.76205
 H340 H 0.39488 0.47361 0.75912
 C341 C 0.91304 0.98599 0.74795
 C342 C 0.91299 1.01427 0.74889
 C343 C 0.94048 1.02255 0.74885
 N344 N 0.95722 1.00022 0.74797
 C345 C 0.94056 0.97782 0.74743
 C346 C 0.94942 1.05034 0.74879
 C347 C 0.97744 1.05899 0.74794
 C348 C 0.98571 1.08615 0.74398
 C349 C 1.01411 1.08627 0.74407
 C350 C 1.02266 1.05917 0.74806
 N351 N 1.00011 1.04275 0.75083
 C352 C 1.05077 1.05067 0.74898
 C353 C 1.05983 1.02285 0.74854
 C354 C 1.08737 1.01465 0.74814
 C355 C 1.08743 0.98640 0.74668
 C356 C 1.05992 0.97808 0.74635
 N357 N 1.04319 1.00043 0.74746
 C358 C 1.05097 0.95022 0.74598
 C359 C 1.02291 0.94157 0.74707
 C360 C 1.01453 0.91441 0.75105
 C361 C 0.98613 0.91440 0.75146
 C362 C 0.97768 0.94153 0.74771
 N363 N 1.00024 0.95788 0.74459
 C364 C 0.94961 0.95007 0.74734
 H365 H 0.89484 0.97294 0.74783
 H366 H 0.89475 1.02724 0.74938
 H367 H 1.00017 0.97853 0.73906
 H368 H 0.97265 1.10407 0.74101
 H369 H 1.02701 1.10432 0.74115
 H370 H 1.10558 1.02767 0.74865
 H371 H 1.10568 0.97345 0.74614
 H372 H 0.97320 0.89642 0.75455
 H373 H 1.00019 1.02215 0.75650
 H374 H 1.02754 0.89642 0.75378
 C375 C 0.51509 0.58661 0.24799
 C376 C 0.48676 0.58672 0.24637
 C377 C 0.47840 0.55932 0.24594
 N378 N 0.50075 0.54258 0.24716
 C379 C 0.52323 0.55914 0.24840
 C380 C 0.45051 0.55046 0.24542
 C381 C 0.44176 0.52254 0.24631
 C382 C 0.41451 0.51432 0.25016
 C383 C 0.41439 0.48598 0.25044
 C384 C 0.44156 0.47745 0.24672
 N385 N 0.45804 0.49990 0.24374
 C386 C 0.45005 0.44944 0.24624
 C387 C 0.47787 0.44035 0.24641
 C388 C 0.48600 0.41288 0.24675
 C389 C 0.51437 0.41276 0.24785
 C390 C 0.52272 0.44017 0.24811
 N391 N 0.50036 0.45690 0.24723
 C392 C 0.55062 0.44903 0.24832
 C393 C 0.55935 0.47698 0.24778
 C394 C 0.58662 0.48526 0.24416
 C395 C 0.58675 0.51361 0.24440
 C396 C 0.55955 0.52207 0.24814
 N397 N 0.54306 0.49957 0.25065
 C398 C 0.55105 0.55006 0.24901
 H399 H 0.52819 0.60473 0.24860
 H400 H 0.47380 0.60495 0.24578
 H401 H 0.52234 0.49963 0.25608
 H402 H 0.39653 0.52738 0.25292
 H403 H 0.39629 0.47314 0.25342
 H404 H 0.47289 0.39476 0.24640
 H405 H 0.52733 0.39454 0.24827
 H406 H 0.60485 0.52651 0.24172
 H407 H 0.47875 0.49979 0.23824
 H408 H 0.60461 0.47225 0.24128
 O409 O 0.25097 0.17831 0.21040
 O410 O 0.28113 0.17056 0.24881
 O411 O 0.17832 0.21143 0.25038
 O412 O 0.16808 0.24735 0.27732
 O413 O 0.21170 0.25024 0.17688
 O414 O 0.25008 0.28053 0.16907
 O415 O 0.25028 0.28825 0.32042
 O416 O 0.21819 0.25109 0.32741
 O417 O 0.32150 0.25119 0.28707
 O418 O 0.33032 0.22005 0.24805
 O419 O 0.28778 0.32154 0.24947
 O420 O 0.24821 0.32981 0.21823
 O421 O 0.25041 0.32137 0.28701
 O422 O 0.21876 0.32943 0.24742
 O423 O 0.32127 0.28850 0.24951
 O424 O 0.32971 0.24873 0.21801
 O425 O 0.28826 0.25190 0.32044
 O426 O 0.25500 0.22033 0.32923
 O427 O 0.25085 0.21149 0.17698
 O428 O 0.28103 0.25014 0.16926
 O429 O 0.17838 0.24975 0.21023
 O430 O 0.17183 0.28185 0.24909
 O431 O 0.21170 0.17826 0.24900
 O432 O 0.25191 0.17002 0.27926
 Zr433 Zr 0.24923 0.20044 0.24791
 O434 O 0.27488 0.22438 0.27371
 Zr435 Zr 0.20044 0.24873 0.24787
 O436 O 0.22401 0.27467 0.27381
 Zr437 Zr 0.24912 0.24887 0.19918
 O438 O 0.27475 0.27491 0.22289
 Zr439 Zr 0.25087 0.25091 0.29824
 O440 O 0.22472 0.22443 0.27494
 Zr441 Zr 0.29935 0.25095 0.24955
 O442 O 0.27597 0.22464 0.22345
 Zr443 Zr 0.25039 0.29923 0.24948
 O444 O 0.22448 0.27547 0.22328
 O445 O 0.22345 0.22316 0.22212
 O446 O 0.27660 0.27690 0.27542
 C447 C 0.25164 0.18624 0.18504
 C448 C 0.18639 0.18618 0.25043
 C449 C 0.18637 0.25059 0.18490
 C450 C 0.25025 0.31349 0.31237
 C451 C 0.31357 0.25166 0.31240
 C452 C 0.31315 0.31371 0.24946
 H453 H 0.28614 0.21197 0.28542
 H454 H 0.28609 0.28634 0.21030
 H455 H 0.21166 0.21126 0.21035
 H456 H 0.21148 0.28587 0.28545
 H457 H 0.20586 0.23546 0.32264
 H458 H 0.17490 0.25664 0.29422
 H459 H 0.32607 0.26382 0.20471
 H460 H 0.29565 0.23737 0.17578
 H461 H 0.24384 0.20438 0.32312
 H462 H 0.23572 0.17240 0.29158
 H463 H 0.26287 0.32582 0.20451
 H464 H 0.23735 0.29515 0.17564
 H465 H 0.29584 0.17730 0.23625
 H466 H 0.32586 0.20610 0.26232
 H467 H 0.17732 0.29497 0.23437
 H468 H 0.20541 0.32559 0.26245
 O469 O 0.75039 0.82110 0.21114
 O470 O 0.72043 0.82900 0.24965
 O471 O 0.82307 0.78769 0.25078
 O472 O 0.83327 0.75176 0.27773
 O473 O 0.78921 0.74900 0.17746
 O474 O 0.75067 0.71887 0.16983
 O475 O 0.75105 0.71122 0.32121
 O476 O 0.78331 0.74823 0.32807
 O477 O 0.67985 0.74848 0.28812
 O478 O 0.67099 0.77967 0.24912
 O479 O 0.71317 0.67802 0.25043
 O480 O 0.75254 0.66957 0.21906
 O481 O 0.75066 0.67808 0.28781
 O482 O 0.78218 0.66991 0.24808
 O483 O 0.67980 0.71118 0.25058
 O484 O 0.67138 0.75098 0.21908
 O485 O 0.71322 0.74768 0.32137
 O486 O 0.74665 0.77920 0.32995
 O487 O 0.75024 0.78792 0.17773
 O488 O 0.71983 0.74939 0.17016
 O489 O 0.82267 0.74935 0.21068
 O490 O 0.82923 0.71724 0.24956
 O491 O 0.78981 0.82099 0.24955
 O492 O 0.74975 0.82939 0.28002
 Zr493 Zr 0.75218 0.79897 0.24864
 O494 O 0.72653 0.77515 0.27455
 Zr495 Zr 0.80077 0.75048 0.24841
 O496 O 0.77720 0.72467 0.27449
 Zr497 Zr 0.75189 0.75053 0.19993
 O498 O 0.72626 0.72460 0.22376
 Zr499 Zr 0.75052 0.74855 0.29901
 O500 O 0.77671 0.77490 0.27558
 Zr501 Zr 0.70185 0.74866 0.25050
 O502 O 0.72524 0.77487 0.22430
 Zr503 Zr 0.75064 0.70020 0.25026
 O504 O 0.77653 0.72384 0.22393
 O505 O 0.77776 0.77614 0.22275
 O506 O 0.72462 0.72264 0.27630
 C507 C 0.74960 0.81318 0.18579
 C508 C 0.81511 0.81297 0.25085
 C509 C 0.81458 0.74854 0.18537
 C510 C 0.75093 0.68598 0.31317
 C511 C 0.68787 0.74797 0.31343
 C512 C 0.68783 0.68594 0.25053
 H513 H 0.71535 0.78761 0.28630
 H514 H 0.71482 0.71321 0.21123
 H515 H 0.78955 0.78798 0.21093
 H516 H 0.78974 0.71343 0.28609
 H517 H 0.79571 0.76379 0.32324
 H518 H 0.82648 0.74254 0.29467
 H519 H 0.67491 0.73586 0.20578
 H520 H 0.70531 0.76224 0.17672
 H521 H 0.75795 0.79505 0.32384
 H522 H 0.76603 0.82699 0.29222
 H523 H 0.73790 0.67364 0.20535
 H524 H 0.76336 0.70420 0.17636
 H525 H 0.70560 0.82229 0.23720
 H526 H 0.67556 0.79360 0.26338
 H527 H 0.82366 0.70415 0.23484
 H528 H 0.79555 0.67365 0.26313
 O529 O 0.74857 0.17840 0.79028
 O530 O 0.71838 0.17054 0.75194
 O531 O 0.82103 0.21179 0.75017
 O532 O 0.83104 0.24771 0.72312
 O533 O 0.78771 0.25046 0.82370
 O534 O 0.74924 0.28062 0.83162
 O535 O 0.74862 0.28833 0.68027
 O536 O 0.78080 0.25126 0.67319
 O537 O 0.67760 0.25111 0.71380
 O538 O 0.66899 0.21987 0.75283
 O539 O 0.71118 0.32150 0.75131
 O540 O 0.75079 0.32992 0.78244
 O541 O 0.74843 0.32146 0.71367
 O542 O 0.78019 0.32962 0.75319
 O543 O 0.67780 0.28835 0.75138
 O544 O 0.66958 0.24854 0.78289
 O545 O 0.71076 0.25193 0.68035
 O546 O 0.74407 0.22039 0.67149
 O547 O 0.74868 0.21157 0.82371
 O548 O 0.71840 0.25012 0.83151
 O549 O 0.82093 0.25011 0.79025
 O550 O 0.82726 0.28222 0.75137
 O551 O 0.78777 0.17850 0.75164
 O552 O 0.74753 0.17013 0.72141
 Zr553 Zr 0.75016 0.20054 0.75278
 O554 O 0.72435 0.22439 0.72705
 Zr555 Zr 0.79877 0.24901 0.75268
 O556 O 0.77504 0.27486 0.72680
 Zr557 Zr 0.75023 0.24897 0.80151
 O558 O 0.72444 0.27492 0.77786
 Zr559 Zr 0.74820 0.25099 0.70245
 O560 O 0.77452 0.22461 0.72568
 Zr561 Zr 0.69985 0.25087 0.75127
 O562 O 0.72340 0.22464 0.77731
 Zr563 Zr 0.74865 0.29933 0.75121
 O564 O 0.77471 0.27565 0.77734
 O565 O 0.77593 0.22335 0.77850
 O566 O 0.72245 0.27690 0.72534
 C567 C 0.74795 0.18632 0.81564
 C568 C 0.81306 0.18651 0.75016
 C569 C 0.81302 0.25091 0.81560
 C570 C 0.74855 0.31357 0.68832
 C571 C 0.68547 0.25165 0.68845
 C572 C 0.68584 0.31359 0.75139
 H573 H 0.71309 0.21194 0.71536
 H574 H 0.71309 0.28630 0.79048
 H575 H 0.78778 0.21150 0.79025
 H576 H 0.78751 0.28610 0.71513
 H577 H 0.79318 0.23566 0.67792
 H578 H 0.82415 0.25700 0.70625
 H579 H 0.67321 0.26364 0.79618
 H580 H 0.70380 0.23731 0.82504
 H581 H 0.75529 0.20448 0.67756
 H582 H 0.76372 0.17255 0.70909
 H583 H 0.73620 0.32587 0.79622
 H584 H 0.76190 0.29528 0.82501
 H585 H 0.70364 0.17725 0.76448
 H586 H 0.67343 0.20598 0.73850
 H587 H 0.82177 0.29533 0.76610
 H588 H 0.79348 0.32585 0.73808
 O589 O 0.25023 0.82259 0.78801
 O590 O 0.28038 0.83040 0.74961
 O591 O 0.17763 0.78936 0.74808
 O592 O 0.16746 0.75345 0.72108
 O593 O 0.21110 0.75056 0.82154
 O594 O 0.24956 0.72037 0.82933
 O595 O 0.24975 0.71267 0.67797
 O596 O 0.21758 0.74976 0.67097
 O597 O 0.32089 0.74978 0.71132
 O598 O 0.32965 0.78099 0.75034
 O599 O 0.28727 0.67943 0.74892
 O600 O 0.24771 0.67111 0.78017
 O601 O 0.24994 0.67955 0.71139
 O602 O 0.21827 0.67143 0.75095
 O603 O 0.32072 0.71252 0.74888
 O604 O 0.32911 0.75229 0.78037
 O605 O 0.28765 0.74904 0.67794
 O606 O 0.25433 0.78063 0.66920
 O607 O 0.25015 0.78941 0.82143
 O608 O 0.28043 0.75084 0.82914
 O609 O 0.17777 0.75099 0.78819
 O610 O 0.17127 0.71893 0.74929
 O611 O 0.21097 0.82258 0.74943
 O612 O 0.25116 0.83088 0.71914
 Zr613 Zr 0.24853 0.80046 0.75050
 O614 O 0.27422 0.77657 0.72469
 Zr615 Zr 0.19982 0.75209 0.75054
 O616 O 0.22344 0.72621 0.72458
 Zr617 Zr 0.24851 0.75203 0.79922
 O618 O 0.27418 0.72604 0.77550
 Zr619 Zr 0.25026 0.75001 0.70015
 O620 O 0.22405 0.77644 0.72347
 Zr621 Zr 0.29875 0.75004 0.74885
 O622 O 0.27532 0.77631 0.77495
 Zr623 Zr 0.24985 0.70168 0.74892
 O624 O 0.22390 0.72539 0.77513
 O625 O 0.22279 0.77769 0.77629
 O626 O 0.27602 0.72406 0.72298
 C627 C 0.25089 0.81466 0.81337
 C628 C 0.18566 0.81462 0.74802
 C629 C 0.18576 0.75014 0.81353
 C630 C 0.24979 0.68743 0.68603
 C631 C 0.31296 0.74927 0.68597
 C632 C 0.31263 0.68729 0.74891
 H633 H 0.28547 0.78900 0.71298
 H634 H 0.28554 0.71463 0.78809
 H635 H 0.21098 0.78956 0.78807
 H636 H 0.21092 0.71499 0.71294
 H637 H 0.20522 0.76536 0.67574
 H638 H 0.17428 0.74417 0.70419
 H639 H 0.32548 0.73721 0.79369
 H640 H 0.29502 0.76364 0.82262
 H641 H 0.24307 0.79652 0.67527
 H642 H 0.23496 0.82848 0.70684
 H643 H 0.26240 0.67509 0.79387
 H644 H 0.23686 0.70572 0.82276
 H645 H 0.29512 0.82366 0.76214
 H646 H 0.32520 0.79490 0.73603
 H647 H 0.17679 0.70580 0.76400
 H648 H 0.20493 0.67524 0.73589
 O649 O 0.24696 0.32228 0.71132
 O650 O 0.21690 0.33017 0.74972
 O651 O 0.31966 0.28925 0.75129
 O652 O 0.32980 0.25339 0.77843
 O653 O 0.28631 0.25037 0.67791
 O654 O 0.24794 0.22006 0.67007
 O655 O 0.24757 0.21249 0.82129
 O656 O 0.27967 0.24962 0.82838
 O657 O 0.17642 0.24947 0.78789
 O658 O 0.16759 0.28061 0.74889
 O659 O 0.21019 0.17916 0.75039
 O660 O 0.24987 0.17098 0.71906
 O661 O 0.24745 0.17936 0.78787
 O662 O 0.27911 0.17118 0.74847
 O663 O 0.17667 0.21218 0.75041
 O664 O 0.16831 0.25199 0.71879
 O665 O 0.20964 0.24879 0.82130
 O666 O 0.24286 0.28040 0.83012
 O667 O 0.24714 0.28907 0.67794
 O668 O 0.21705 0.25047 0.67014
 O669 O 0.31960 0.25087 0.71130
 O670 O 0.32615 0.21886 0.75019
 O671 O 0.28628 0.32242 0.74986
 O672 O 0.24608 0.33064 0.78021
 Zr673 Zr 0.24875 0.30023 0.74884
 O674 O 0.22304 0.27632 0.77459
 Zr675 Zr 0.29752 0.25195 0.74889
 O676 O 0.27391 0.22602 0.77478
 Zr677 Zr 0.24888 0.25174 0.70015
 O678 O 0.22319 0.22574 0.72379
 Zr679 Zr 0.24703 0.24982 0.79915
 O680 O 0.27324 0.27628 0.77591
 Zr681 Zr 0.19859 0.24974 0.75040
 O682 O 0.22202 0.27603 0.72436
 Zr683 Zr 0.24756 0.20147 0.75039
 O684 O 0.27354 0.22520 0.72426
 O685 O 0.27453 0.27748 0.72309
 O686 O 0.22135 0.22382 0.77630
 C687 C 0.24631 0.31430 0.68599
 C688 C 0.31160 0.31450 0.75128
 C689 C 0.31162 0.25001 0.68597
 C690 C 0.24757 0.18726 0.81321
 C691 C 0.18434 0.24899 0.81323
 C692 C 0.18481 0.18697 0.75040
 H693 H 0.21176 0.28874 0.78629
 H694 H 0.21186 0.21432 0.71119
 H695 H 0.28632 0.28937 0.71131
 H696 H 0.28643 0.21483 0.78644
 H697 H 0.29199 0.26527 0.82365
 H698 H 0.32299 0.24403 0.79529
 H699 H 0.17184 0.23677 0.70561
 H700 H 0.20236 0.26315 0.67667
 H701 H 0.25401 0.29635 0.82403
 H702 H 0.26233 0.32830 0.79247
 H703 H 0.23502 0.17478 0.70548
 H704 H 0.26071 0.20547 0.67663
 H705 H 0.20212 0.32339 0.73725
 H706 H 0.17204 0.29456 0.76315
 H707 H 0.32066 0.20568 0.73552
 H708 H 0.29253 0.17512 0.76342
 O709 O 0.75121 0.67832 0.71237
 O710 O 0.78112 0.67040 0.75090
 O711 O 0.67848 0.71163 0.75208
 O712 O 0.66831 0.74761 0.77903
 O713 O 0.71220 0.75027 0.67868
 O714 O 0.75068 0.78050 0.67097
 O715 O 0.75053 0.78828 0.82218
 O716 O 0.71832 0.75125 0.82921
 O717 O 0.82171 0.75102 0.78911
 O718 O 0.83055 0.71976 0.75018
 O719 O 0.78832 0.82137 0.75131
 O720 O 0.74875 0.82963 0.71988
 O721 O 0.75088 0.82135 0.78871
 O722 O 0.71943 0.82959 0.74919
 O723 O 0.82172 0.78823 0.75150
 O724 O 0.83008 0.74835 0.72007
 O725 O 0.78838 0.75185 0.82240
 O726 O 0.75502 0.72036 0.83113
 O727 O 0.75127 0.71149 0.67894
 O728 O 0.78148 0.74998 0.67119
 O729 O 0.67878 0.74992 0.71194
 O730 O 0.67221 0.78205 0.75076
 O731 O 0.71176 0.67836 0.75081
 O732 O 0.75184 0.67005 0.78126
 Zr733 Zr 0.74936 0.70043 0.74985
 O734 O 0.77505 0.72429 0.77567
 Zr735 Zr 0.70073 0.74886 0.74963
 O736 O 0.72434 0.77474 0.77558
 Zr737 Zr 0.74954 0.74884 0.70108
 O738 O 0.77524 0.77478 0.72479
 Zr739 Zr 0.75106 0.75091 0.80010
 O740 O 0.72485 0.72450 0.77679
 Zr741 Zr 0.79967 0.75075 0.75154
 O742 O 0.77624 0.72451 0.72543
 Zr743 Zr 0.75086 0.79919 0.75126
 O744 O 0.72489 0.77551 0.72506
 O745 O 0.72373 0.72321 0.72397
 O746 O 0.77692 0.77680 0.77731
 C747 C 0.75200 0.68626 0.68704
 C748 C 0.68647 0.68636 0.75217
 C749 C 0.68685 0.75071 0.68663
 C750 C 0.75063 0.81349 0.81406
 C751 C 0.81371 0.75155 0.81443
 C752 C 0.81366 0.81346 0.75138
 H753 H 0.78624 0.71185 0.78743
 H754 H 0.78664 0.78615 0.71221
 H755 H 0.71195 0.71134 0.71217
 H756 H 0.71181 0.78600 0.78717
 H757 H 0.70595 0.73565 0.82445
 H758 H 0.67513 0.75691 0.79592
 H759 H 0.82659 0.76349 0.70678
 H760 H 0.79611 0.73726 0.67778
 H761 H 0.74382 0.70444 0.82503
 H762 H 0.73559 0.67247 0.79349
 H763 H 0.76360 0.82574 0.70633
 H764 H 0.73790 0.79511 0.67745
 H765 H 0.79596 0.67712 0.73847
 H766 H 0.82604 0.70588 0.76450
 H767 H 0.67779 0.79517 0.73606
 H768 H 0.70590 0.82567 0.76405
 O769 O 0.24953 0.67885 0.28746
 O770 O 0.21954 0.67094 0.24901
 O771 O 0.32225 0.71200 0.24769
 O772 O 0.33247 0.74793 0.22070
 O773 O 0.28862 0.75080 0.32106
 O774 O 0.25017 0.78107 0.32875
 O775 O 0.25028 0.78866 0.17752
 O776 O 0.28245 0.75161 0.17053
 O777 O 0.17908 0.75155 0.21065
 O778 O 0.17020 0.72039 0.24967
 O779 O 0.21261 0.82193 0.24831
 O780 O 0.25217 0.83017 0.27975
 O781 O 0.25003 0.82178 0.21094
 O782 O 0.28152 0.83001 0.25046
 O783 O 0.17915 0.78885 0.24817
 O784 O 0.17071 0.74906 0.27970
 O785 O 0.21240 0.75229 0.17736
 O786 O 0.24572 0.72073 0.16868
 O787 O 0.24953 0.71205 0.32086
 O788 O 0.21933 0.75059 0.32857
 O789 O 0.32202 0.75034 0.28778
 O790 O 0.32863 0.78242 0.24893
 O791 O 0.28891 0.67879 0.24900
 O792 O 0.24877 0.67051 0.21859
 Zr793 Zr 0.25135 0.70092 0.24996
 O794 O 0.22569 0.72479 0.22413
 Zr795 Zr 0.30006 0.74927 0.25011
 O796 O 0.27649 0.77515 0.22413
 Zr797 Zr 0.25127 0.74938 0.29867
 O798 O 0.22561 0.77535 0.27494
 Zr799 Zr 0.24972 0.75133 0.19965
 O800 O 0.27590 0.72491 0.22299
 Zr801 Zr 0.20113 0.75133 0.24823
 O802 O 0.22451 0.72508 0.27436
 Zr803 Zr 0.25002 0.79967 0.24843
 O804 O 0.27595 0.77598 0.27465
 O805 O 0.27703 0.72369 0.27581
 O806 O 0.22392 0.77729 0.22242
 C807 C 0.24880 0.68681 0.31279
 C808 C 0.31422 0.68674 0.24764
 C809 C 0.31397 0.75118 0.31309
 C810 C 0.25024 0.81389 0.18560
 C811 C 0.18707 0.75203 0.18534
 C812 C 0.18725 0.81407 0.24823
 H813 H 0.21447 0.71236 0.21239
 H814 H 0.21423 0.78676 0.28750
 H815 H 0.28881 0.71181 0.28761
 H816 H 0.28903 0.78637 0.21252
 H817 H 0.29481 0.73601 0.17531
 H818 H 0.32568 0.75723 0.20380
 H819 H 0.17424 0.76421 0.29296
 H820 H 0.20469 0.73788 0.32199
 H821 H 0.25697 0.70484 0.17477
 H822 H 0.26503 0.67287 0.20635
 H823 H 0.23732 0.82632 0.29331
 H824 H 0.26295 0.79567 0.32224
 H825 H 0.20474 0.67770 0.26145
 H826 H 0.17469 0.70646 0.23539
 H827 H 0.32309 0.79555 0.26362
 H828 H 0.29501 0.82608 0.23557
 O829 O 0.75152 0.32093 0.28935
 O830 O 0.78163 0.32894 0.25098
 O831 O 0.67906 0.28755 0.24935
 O832 O 0.66912 0.25164 0.22217
 O833 O 0.71255 0.24878 0.32274
 O834 O 0.75110 0.21870 0.33062
 O835 O 0.75157 0.21113 0.17939
 O836 O 0.71930 0.24810 0.17227
 O837 O 0.82252 0.24845 0.21283
 O838 O 0.83115 0.27967 0.25183
 O839 O 0.78910 0.17800 0.25033
 O840 O 0.74940 0.16964 0.28164
 O841 O 0.75185 0.17800 0.21280
 O842 O 0.72023 0.16963 0.25216
 O843 O 0.82244 0.21120 0.25035
 O844 O 0.83058 0.25105 0.28193
 O845 O 0.78932 0.24760 0.17941
 O846 O 0.75595 0.27906 0.17056
 O847 O 0.75147 0.28772 0.32273
 O848 O 0.78181 0.24930 0.33055
 O849 O 0.67928 0.24912 0.28933
 O850 O 0.67290 0.21712 0.25043
 O851 O 0.71229 0.32087 0.25077
 O852 O 0.75247 0.32929 0.22047
 Zr853 Zr 0.74992 0.29886 0.25183
 O854 O 0.77575 0.27508 0.22610
 Zr855 Zr 0.70138 0.25035 0.25175
 O856 O 0.72514 0.22453 0.22589
 Zr857 Zr 0.74999 0.25038 0.30053
 O858 O 0.77583 0.22451 0.27690
 Zr859 Zr 0.75191 0.24846 0.20153
 O860 O 0.72556 0.27480 0.22475
 Zr861 Zr 0.80032 0.24864 0.25031
 O862 O 0.77674 0.27480 0.27634
 Zr863 Zr 0.75160 0.20011 0.25029
 O864 O 0.72549 0.22371 0.27639
 O865 O 0.72422 0.27599 0.27756
 O866 O 0.77772 0.22259 0.22440
 C867 C 0.75217 0.31295 0.31467
 C868 C 0.68700 0.31284 0.24934
 C869 C 0.68725 0.24828 0.31466
 C870 C 0.75171 0.18590 0.18746
 C871 C 0.81461 0.24792 0.18749
 C872 C 0.81443 0.18595 0.25037
 H873 H 0.78697 0.28756 0.21440
 H874 H 0.78720 0.21315 0.28952
 H875 H 0.71235 0.28781 0.28933
 H876 H 0.71269 0.21327 0.21422
 H877 H 0.70689 0.26368 0.17699
 H878 H 0.67598 0.24228 0.20533
 H879 H 0.82708 0.23585 0.29515
 H880 H 0.79641 0.26209 0.32405
 H881 H 0.74471 0.29495 0.17663
 H882 H 0.73626 0.32687 0.20818
 H883 H 0.76426 0.17347 0.29519
 H884 H 0.73843 0.20404 0.32404
 H885 H 0.79641 0.32225 0.26350
 H886 H 0.82665 0.29359 0.23754
 H887 H 0.67848 0.20395 0.26507
 H888 H 0.70677 0.17353 0.23723
 C889 C 0.25407 0.07103 0.06994
 C890 C 0.25405 0.08860 0.08765
 C891 C 0.25392 0.10923 0.10831
 C892 C 0.25370 0.12688 0.12592
 C893 C 0.25324 0.14757 0.14652
 C894 C 0.25265 0.16524 0.16411
 C895 C 0.75479 0.57133 0.57211
 C896 C 0.75475 0.58900 0.58966
 C897 C 0.75458 0.60961 0.61025
 C898 C 0.75429 0.62719 0.62787
 C899 C 0.75376 0.64775 0.64851
 C900 C 0.75309 0.66532 0.66613
 C901 C 0.74815 0.92881 0.07107
 C902 C 0.74795 0.91115 0.08870
 C903 C 0.74784 0.89041 0.10926
 C904 C 0.74789 0.87268 0.12679
 C905 C 0.74818 0.85191 0.14732
 C906 C 0.74866 0.83420 0.16486
 C907 C 0.24412 0.42912 0.57091
 C908 C 0.24404 0.41149 0.58850
 C909 C 0.24407 0.39090 0.60913
 C910 C 0.24424 0.37334 0.62676
 C911 C 0.24467 0.35278 0.64742
 C912 C 0.24527 0.33521 0.66505
 C913 C 0.74603 0.07070 0.93036
 C914 C 0.74599 0.08836 0.91274
 C915 C 0.74604 0.10909 0.89218
 C916 C 0.74619 0.12682 0.87465
 C917 C 0.74654 0.14759 0.85411
 C918 C 0.74705 0.16530 0.83657
 C919 C 0.24737 0.57172 0.42759
 C920 C 0.24714 0.58938 0.41004
 C921 C 0.24700 0.61003 0.38948
 C922 C 0.24704 0.62765 0.37190
 C923 C 0.24732 0.64827 0.35130
 C924 C 0.24782 0.66588 0.33371
 C925 C 0.25223 0.92984 0.92853
 C926 C 0.25245 0.91228 0.91081
 C927 C 0.25258 0.89166 0.89013
 C928 C 0.25253 0.87402 0.87252
 C929 C 0.25227 0.85333 0.85190
 C930 C 0.25180 0.83567 0.83431
 C931 C 0.75269 0.42813 0.42938
 C932 C 0.75305 0.41042 0.41188
 C933 C 0.75336 0.38974 0.39136
 C934 C 0.75346 0.37211 0.37379
 C935 C 0.75334 0.35149 0.35320
 C936 C 0.75298 0.33388 0.33560
 C937 C 0.07100 0.25046 0.06975
 C938 C 0.08866 0.25086 0.08739
 C939 C 0.10934 0.25123 0.10803
 C940 C 0.12700 0.25141 0.12565
 C941 C 0.14769 0.25142 0.14630
 C942 C 0.16536 0.25120 0.16392
 C943 C 0.57177 0.75043 0.57133
 C944 C 0.58945 0.75089 0.58893
 C945 C 0.61010 0.75132 0.60958
 C946 C 0.62771 0.75154 0.62723
 C947 C 0.64832 0.75157 0.64793
 C948 C 0.66592 0.75134 0.66561
 C949 C 0.07023 0.74865 0.92861
 C950 C 0.08797 0.74863 0.91102
 C951 C 0.10870 0.74865 0.89041
 C952 C 0.12638 0.74875 0.87280
 C953 C 0.14708 0.74900 0.85215
 C954 C 0.16474 0.74940 0.83451
 C955 C 0.57180 0.24719 0.42947
 C956 C 0.58948 0.24699 0.41188
 C957 C 0.61018 0.24685 0.39130
 C958 C 0.62786 0.24686 0.37373
 C959 C 0.64856 0.24707 0.35315
 C960 C 0.66623 0.24747 0.33557
 C961 C 0.92974 0.74780 0.06992
 C962 C 0.91203 0.74760 0.08754
 C963 C 0.89136 0.74742 0.10820
 C964 C 0.87373 0.74738 0.12587
 C965 C 0.85310 0.74751 0.14659
 C966 C 0.83551 0.74783 0.16430
 C967 C 0.42725 0.25016 0.57135
 C968 C 0.40954 0.24976 0.58891
 C969 C 0.38881 0.24937 0.60944
 C970 C 0.37109 0.24917 0.62697
 C971 C 0.35034 0.24916 0.64751
 C972 C 0.33264 0.24938 0.66506
 C973 C 0.92905 0.25067 0.93008
 C974 C 0.91131 0.25113 0.91252
 C975 C 0.89050 0.25155 0.89201
 C976 C 0.87271 0.25177 0.87452
 C977 C 0.85188 0.25179 0.85402
 C978 C 0.83411 0.25156 0.83650
 C979 C 0.42921 0.75069 0.42824
 C980 C 0.41152 0.75120 0.41065
 C981 C 0.39084 0.75168 0.39004
 C982 C 0.37319 0.75193 0.37242
 C983 C 0.35254 0.75199 0.35176
 C984 C 0.33492 0.75179 0.33411
 C985 C 0.07208 0.07038 0.25333
 C986 C 0.08955 0.08817 0.25324
 C987 C 0.10999 0.10898 0.25304
 C988 C 0.12747 0.12673 0.25273
 C989 C 0.14796 0.14749 0.25219
 C990 C 0.16549 0.16518 0.25152
 C991 C 0.57095 0.57172 0.75474
 C992 C 0.58871 0.58921 0.75469
 C993 C 0.60946 0.60973 0.75453
 C994 C 0.62714 0.62728 0.75427
 C995 C 0.64783 0.64785 0.75379
 C996 C 0.66548 0.66543 0.75318
 C997 C 0.92826 0.07160 0.74847
 C998 C 0.91065 0.08924 0.74828
 C999 C 0.89001 0.10985 0.74820
 C1000 C 0.87237 0.12744 0.74829
 C1001 C 0.85170 0.14803 0.74862
 C1002 C 0.83405 0.16561 0.74916
 C1003 C 0.42923 0.57162 0.24535
 C1004 C 0.41158 0.58922 0.24535
 C1005 C 0.39096 0.60985 0.24544
 C1006 C 0.37336 0.62748 0.24565
 C1007 C 0.35275 0.64814 0.24608
 C1008 C 0.33516 0.66577 0.24665
 C1009 C 0.07097 0.93007 0.74585
 C1010 C 0.08853 0.91236 0.74578
 C1011 C 0.10906 0.89164 0.74582
 C1012 C 0.12660 0.87395 0.74600
 C1013 C 0.14716 0.85325 0.74642
 C1014 C 0.16473 0.83559 0.74700
 C1015 C 0.57190 0.42789 0.24797
 C1016 C 0.58954 0.41028 0.24775
 C1017 C 0.61016 0.38964 0.24761
 C1018 C 0.62776 0.37200 0.24765
 C1019 C 0.64838 0.35135 0.24792
 C1020 C 0.66600 0.33374 0.24841
 C1021 C 0.93010 0.92810 0.25184
 C1022 C 0.91257 0.91038 0.25214
 C1023 C 0.89200 0.88970 0.25235
 C1024 C 0.87440 0.87207 0.25237
 C1025 C 0.85376 0.85145 0.25215
 C1026 C 0.83611 0.83387 0.25172
 C1027 C 0.42726 0.42900 0.75252
 C1028 C 0.40946 0.41155 0.75277
 C1029 C 0.38866 0.39109 0.75293
 C1030 C 0.37093 0.37359 0.75291
 C1031 C 0.35020 0.35305 0.75266
 C1032 C 0.33255 0.33547 0.75220
 C1033 C 0.06977 0.24927 0.92899
 C1034 C 0.08717 0.24911 0.91110
 C1035 C 0.10760 0.24891 0.89026
 C1036 C 0.12511 0.24879 0.87251
 C1037 C 0.14569 0.24872 0.85179
 C1038 C 0.16331 0.24877 0.83415
 C1039 C 0.57221 0.74857 0.42839
 C1040 C 0.59000 0.74837 0.41087
 C1041 C 0.61079 0.74813 0.39031
 C1042 C 0.62851 0.74796 0.37273
 C1043 C 0.64922 0.74783 0.35210
 C1044 C 0.66689 0.74783 0.33446
 C1045 C 0.92940 0.74989 0.92918
 C1046 C 0.91161 0.75041 0.91168
 C1047 C 0.89082 0.75094 0.89116
 C1048 C 0.87310 0.75131 0.87361
 C1049 C 0.85237 0.75159 0.85302
 C1050 C 0.83470 0.75167 0.83541
 C1051 C 0.42834 0.24965 0.42812
 C1052 C 0.41089 0.25023 0.41028
 C1053 C 0.39040 0.25084 0.38946
 C1054 C 0.37286 0.25128 0.37173
 C1055 C 0.35225 0.25162 0.35101
 C1056 C 0.33461 0.25175 0.33336
 C1057 C 0.07158 0.75007 0.07041
 C1058 C 0.08933 0.75065 0.08793
 C1059 C 0.11007 0.75126 0.10849
 C1060 C 0.12775 0.75168 0.12609
 C1061 C 0.14844 0.75201 0.14672
 C1062 C 0.16608 0.75213 0.16435
 C1063 C 0.57073 0.25135 0.57267
 C1064 C 0.58816 0.25153 0.59054
 C1065 C 0.60863 0.25173 0.61139
 C1066 C 0.62615 0.25185 0.62915
 C1067 C 0.64675 0.25190 0.64989
 C1068 C 0.66439 0.25185 0.66753
 C1069 C 0.92927 0.24872 0.07185
 C1070 C 0.91186 0.24847 0.08971
 C1071 C 0.89141 0.24818 0.11053
 C1072 C 0.87388 0.24797 0.12826
 C1073 C 0.85329 0.24782 0.14896
 C1074 C 0.83565 0.24779 0.16659
 C1075 C 0.42878 0.74916 0.57117
 C1076 C 0.41099 0.74909 0.58869
 C1077 C 0.39020 0.74900 0.60924
 C1078 C 0.37247 0.74894 0.62681
 C1079 C 0.35172 0.74895 0.64742
 C1080 C 0.33402 0.74903 0.66502
 C1081 C 0.24996 0.07192 0.92781
 C1082 C 0.24951 0.08951 0.91018
 C1083 C 0.24899 0.11016 0.88962
 C1084 C 0.24857 0.12785 0.87210
 C1085 C 0.24813 0.14857 0.85161
 C1086 C 0.24782 0.16626 0.83409
 C1087 C 0.75363 0.57105 0.42861
 C1088 C 0.75313 0.58866 0.41094
 C1089 C 0.75255 0.60924 0.39023
 C1090 C 0.75208 0.62680 0.37253
 C1091 C 0.75159 0.64738 0.35181
 C1092 C 0.75124 0.66498 0.33414
 C1093 C 0.74994 0.07090 0.07251
 C1094 C 0.75029 0.08840 0.09023
 C1095 C 0.75070 0.10897 0.11088
 C1096 C 0.75103 0.12658 0.12846
 C1097 C 0.75136 0.14724 0.14902
 C1098 C 0.75157 0.16490 0.16657
 C1099 C 0.24813 0.57201 0.57106
 C1100 C 0.24839 0.58971 0.58863
 C1101 C 0.24872 0.61041 0.60923
 C1102 C 0.24901 0.62807 0.62684
 C1103 C 0.24934 0.64875 0.64747
 C1104 C 0.24958 0.66640 0.66508
 C1105 C 0.74733 0.92858 0.92889
 C1106 C 0.74793 0.91107 0.91118
 C1107 C 0.74866 0.89050 0.89055
 C1108 C 0.74924 0.87288 0.87298
 C1109 C 0.74985 0.85220 0.85245
 C1110 C 0.75027 0.83452 0.83492
 C1111 C 0.24669 0.42878 0.42743
 C1112 C 0.24737 0.41110 0.40985
 C1113 C 0.24815 0.39043 0.38922
 C1114 C 0.24878 0.37280 0.37160
 C1115 C 0.24942 0.35215 0.35095
 C1116 C 0.24987 0.33451 0.33332
 C1117 C 0.25330 0.92892 0.07072
 C1118 C 0.25276 0.91138 0.08838
 C1119 C 0.25211 0.89079 0.10900
 C1120 C 0.25157 0.87318 0.12659
 C1121 C 0.25100 0.85253 0.14715
 C1122 C 0.25059 0.83488 0.16471
 C1123 C 0.75062 0.42847 0.57285
 C1124 C 0.75024 0.41087 0.59052
 C1125 C 0.74978 0.39030 0.61125
 C1126 C 0.74940 0.37274 0.62895
 C1127 C 0.74901 0.35217 0.64968
 C1128 C 0.74875 0.33457 0.66735
 C1129 C 0.07067 0.07092 0.74918
 C1130 C 0.08813 0.08872 0.74940
 C1131 C 0.10856 0.10956 0.74968
 C1132 C 0.12601 0.12734 0.74992
 C1133 C 0.14647 0.14815 0.75015
 C1134 C 0.16396 0.16589 0.75030
 C1135 C 0.57250 0.57105 0.24928
 C1136 C 0.59026 0.58855 0.24955
 C1137 C 0.61098 0.60909 0.24986
 C1138 C 0.62863 0.62668 0.25011
 C1139 C 0.64927 0.64731 0.25034
 C1140 C 0.66688 0.66495 0.25048
 C1141 C 0.07252 0.92954 0.24985
 C1142 C 0.09009 0.91185 0.24949
 C1143 C 0.11065 0.89116 0.24909
 C1144 C 0.12821 0.87348 0.24878
 C1145 C 0.14878 0.85278 0.24849
 C1146 C 0.16635 0.83510 0.24832
 C1147 C 0.57059 0.42856 0.75379
 C1148 C 0.58828 0.41100 0.75333
 C1149 C 0.60896 0.39042 0.75278
 C1150 C 0.62661 0.37283 0.75235
 C1151 C 0.64726 0.35220 0.75191
 C1152 C 0.66488 0.33458 0.75162
 C1153 C 0.92963 0.07098 0.25261
 C1154 C 0.91201 0.08860 0.25216
 C1155 C 0.89136 0.10921 0.25164
 C1156 C 0.87372 0.12680 0.25123
 C1157 C 0.85306 0.14741 0.25082
 C1158 C 0.83542 0.16500 0.25055
 C1159 C 0.42768 0.57213 0.75069
 C1160 C 0.41001 0.58971 0.75034
 C1161 C 0.38935 0.61032 0.74992
 C1162 C 0.37174 0.62794 0.74960
 C1163 C 0.35113 0.64860 0.74927
 C1164 C 0.33354 0.66626 0.74906
 C1165 C 0.92854 0.92872 0.74816
 C1166 C 0.91099 0.91103 0.74884
 C1167 C 0.89042 0.89035 0.74961
 C1168 C 0.87283 0.87272 0.75020
 C1169 C 0.85222 0.85208 0.75078
 C1170 C 0.83461 0.83445 0.75114
 C1171 C 0.42859 0.42847 0.24686
 C1172 C 0.41080 0.41101 0.24739
 C1173 C 0.39003 0.39052 0.24800
 C1174 C 0.37233 0.37298 0.24848
 C1175 C 0.35166 0.35239 0.24895
 C1176 C 0.33405 0.33475 0.24925
   
