data_POSCAR
  _audit_creation_date              2014-09-24
  _audit_creation_method            'ToBaCCo'
  _symmetry_space_group_name_H-M    'P1'
  _symmetry_Int_Tables_number       1
  _symmetry_cell_setting            triclinic
  loop_
  _symmetry_equiv_pos_as_xyz
 x,y,z
_cell_length_a 22.8012
_cell_length_b 19.6971
_cell_length_c 16.3002
_cell_angle_alpha 89.915100
_cell_angle_beta 90.130700
_cell_angle_gamma 90.003000
loop_
  _atom_site_label
  _atom_site_type_symbol
  _atom_site_fract_x
  _atom_site_fract_y
  _atom_site_fract_z
Si1 Si 1.25438 0.25294 0.25278
 Si2 Si 0.74188 -0.25367 0.25258
 Si3 Si 0.74429 0.25416 -0.25632
 Si4 Si 1.25601 -0.25244 -0.25112
 Si5 Si 0.25487 0.25250 0.74663
 Si6 Si 0.74255 0.74557 0.74548
 Si7 Si 0.74454 0.25307 0.25509
 Si8 Si 0.25553 0.74599 0.24897
 O9 O 1.08015 0.12008 0.14890
 O10 O 1.14696 0.05815 0.07455
 C11 C 1.13333 0.10432 0.12877
 O12 O 0.91751 -0.12799 0.14110
 O13 O 0.85087 -0.06384 0.06839
 C14 C 0.86433 -0.11184 0.12050
 O15 O 1.08003 -0.12564 0.14712
 O16 O 1.14690 -0.06326 0.07311
 C17 C 1.13340 -0.11017 0.12682
 O18 O 0.91875 0.12554 0.14162
 O19 O 0.85148 0.06180 0.06988
 C20 C 0.86541 0.10973 0.12179
 Zr21 Zr 0.99922 0.08196 0.10548
 O22 O 0.99347 0.06956 0.23442
 O23 O 1.00132 0.18852 0.12042
 Zr24 Zr 0.99893 -0.08711 0.10316
 O25 O 0.99321 -0.08189 0.23272
 O26 O 1.00399 -0.19438 0.10690
 O27 O 1.05290 -0.00282 0.12031
 O28 O 0.94662 -0.00245 0.11874
 O29 O 0.91832 0.12580 -0.14161
 O30 O 0.85131 0.06275 -0.06874
 C31 C 0.86506 0.11046 -0.12120
 O32 O 1.07986 -0.12167 -0.14874
 O33 O 1.14681 -0.06089 -0.07274
 C34 C 1.13311 -0.10629 -0.12782
 O35 O 0.91768 -0.12629 -0.14285
 O36 O 0.85098 -0.06320 -0.06969
 C37 C 0.86446 -0.11070 -0.12231
 O38 O 1.07985 0.12157 -0.14670
 O39 O 1.14676 0.05956 -0.07184
 C40 C 1.13308 0.10578 -0.12634
 Zr41 Zr 0.99909 0.08447 -0.10188
 O42 O 0.99310 0.08053 -0.23153
 O43 O 1.00418 0.19182 -0.10290
 Zr44 Zr 0.99878 -0.08491 -0.10416
 O45 O 0.99244 -0.07648 -0.23351
 O46 O 1.00419 -0.19195 -0.11202
 Zr47 Zr 1.08866 -0.00156 0.00075
 Zr48 Zr 0.90973 -0.00099 0.00024
 O49 O 0.94669 0.00002 -0.11788
 O50 O 1.05255 -0.00022 -0.11880
 O51 O 0.94695 0.09713 0.00179
 O52 O 1.04981 -0.09873 -0.00061
 O53 O 1.05025 0.09576 0.00196
 O54 O 0.94644 -0.09945 -0.00080
 H55 H 0.91941 -0.00256 0.16606
 H56 H 1.07482 -0.13984 -0.00117
 H57 H 0.91968 0.00041 -0.16558
 H58 H 1.07565 0.13653 0.00202
 H59 H 0.97503 -0.21223 0.06719
 H60 H 0.97793 -0.21089 -0.06960
 H61 H 1.03023 -0.05874 -0.25419
 H62 H 1.02932 0.05905 -0.25243
 H63 H 0.97400 0.20914 -0.06473
 H64 H 1.00786 0.20837 0.06554
 H65 H 1.03277 0.05683 0.25522
 H66 H 1.03061 -0.06311 0.25362
 O67 O 1.08192 0.62345 0.64453
 O68 O 1.14835 0.56295 0.56789
 C69 C 1.13460 0.60876 0.62182
 O70 O 0.92133 0.37243 0.63407
 O71 O 0.85433 0.43829 0.56470
 C72 C 0.86847 0.38850 0.61341
 O73 O 1.08183 0.37872 0.64188
 O74 O 1.14829 0.44055 0.56641
 C75 C 1.13451 0.39374 0.61950
 O76 O 0.92112 0.63112 0.63431
 O77 O 0.85417 0.56444 0.56620
 C78 C 0.86819 0.61433 0.61454
 Zr79 Zr 1.00107 0.58504 0.60384
 O80 O 0.99465 0.57088 0.73239
 O81 O 1.00443 0.69087 0.62436
 Zr82 Zr 1.00123 0.41699 0.60058
 O83 O 0.99505 0.42401 0.72998
 O84 O 1.00629 0.30995 0.60878
 O85 O 1.05516 0.50096 0.61817
 O86 O 0.94842 0.50080 0.61713
 O87 O 0.91998 0.63242 0.36360
 O88 O 0.85367 0.56563 0.43265
 C89 C 0.86731 0.61579 0.38448
 O90 O 1.08130 0.38181 0.35135
 O91 O 1.14801 0.44215 0.42813
 C92 C 1.13403 0.39619 0.37432
 O93 O 0.92108 0.37325 0.36243
 O94 O 0.85411 0.43929 0.43091
 C95 C 0.86820 0.38938 0.38267
 O96 O 1.08090 0.62733 0.35373
 O97 O 1.14760 0.56375 0.42675
 C98 C 1.13382 0.61144 0.37471
 Zr99 Zr 1.00055 0.58809 0.39541
 O100 O 0.99361 0.58058 0.26610
 O101 O 1.00514 0.69509 0.38630
 Zr102 Zr 1.00073 0.42018 0.39229
 O103 O 0.99352 0.43467 0.26383
 O104 O 1.00447 0.31442 0.37133
 Zr105 Zr 1.08968 0.50277 0.49801
 Zr106 Zr 0.91235 0.50225 0.49833
 O107 O 0.94771 0.50410 0.37925
 O108 O 1.05461 0.50437 0.37790
 O109 O 0.94951 0.60034 0.49994
 O110 O 1.05107 0.40550 0.49621
 O111 O 1.05098 0.59991 0.49969
 O112 O 0.94976 0.40442 0.49638
 H113 H 0.92059 0.50032 0.66378
 H114 H 1.07508 0.36362 0.49589
 H115 H 0.91953 0.50440 0.33284
 H116 H 1.07524 0.64160 0.49981
 H117 H 0.98548 0.29146 0.56044
 H118 H 1.00518 0.29248 0.42586
 H119 H 1.03343 0.44286 0.24219
 H120 H 1.03227 0.56622 0.24477
 H121 H 0.98536 0.71371 0.43528
 H122 H 1.00504 0.71264 0.56974
 H123 H 1.03463 0.56235 0.75380
 H124 H 1.03355 0.43934 0.75113
 O125 O 0.60372 -0.09348 0.64457
 O126 O 0.55374 -0.17237 0.56709
 C127 C 0.59376 -0.15451 0.62084
 O128 O 0.38717 0.08854 0.63596
 O129 O 0.44191 0.16892 0.56789
 C130 C 0.39904 0.15019 0.61630
 O131 O 0.39443 -0.09249 0.64670
 O132 O 0.44220 -0.17208 0.56798
 C133 C 0.40341 -0.15370 0.62268
 O134 O 0.61184 0.08815 0.63339
 O135 O 0.55717 0.16876 0.56539
 C136 C 0.60038 0.14979 0.61329
 Zr137 Zr 0.57154 -0.00229 0.59977
 O138 O 0.56719 -0.00554 0.72971
 O139 O 0.66444 -0.00528 0.59635
 Zr140 Zr 0.42859 -0.00123 0.60422
 O141 O 0.44330 0.00570 0.73240
 O142 O 0.33731 -0.00480 0.62640
 O143 O 0.49978 -0.06528 0.61714
 O144 O 0.50056 0.06062 0.61724
 O145 O 0.60847 0.08846 0.35824
 O146 O 0.55652 0.16852 0.43090
 C147 C 0.59841 0.14981 0.38082
 O148 O 0.38910 -0.08972 0.35235
 O149 O 0.43932 -0.17038 0.42699
 C150 C 0.39865 -0.15135 0.37456
 O151 O 0.38645 0.09089 0.36255
 O152 O 0.44100 0.17002 0.43310
 C153 C 0.39811 0.15203 0.38426
 O154 O 0.60103 -0.09215 0.34781
 O155 O 0.55241 -0.17176 0.42589
 C156 C 0.59165 -0.15340 0.37158
 Zr157 Zr 0.56816 -0.00133 0.39284
 O158 O 0.55847 0.00683 0.26383
 O159 O 0.66056 -0.00632 0.38312
 Zr160 Zr 0.42507 -0.00014 0.39648
 O161 O 0.43528 0.00315 0.26772
 O162 O 0.33250 -0.00338 0.38742
 Zr163 Zr 0.49733 -0.10602 0.49737
 Zr164 Zr 0.49868 0.10316 0.49896
 O165 O 0.49677 0.06164 0.38025
 O166 O 0.49591 -0.06414 0.37807
 O167 O 0.58212 0.05782 0.49640
 O168 O 0.41457 -0.05866 0.50023
 O169 O 0.58081 -0.06053 0.49583
 O170 O 0.41467 0.05873 0.50094
 H171 H 0.50113 0.09286 0.66385
 H172 H 0.37765 -0.08510 0.50065
 H173 H 0.49650 0.09378 0.33337
 H174 H 0.61724 -0.08789 0.49531
 H175 H 0.31782 -0.00617 0.57225
 H176 H 0.31679 0.01698 0.43823
 H177 H 0.39518 0.00582 0.24440
 H178 H 0.54266 -0.03678 0.24326
 H179 H 0.67660 0.00544 0.43775
 H180 H 0.67874 -0.00649 0.65392
 H181 H 0.56587 0.04142 0.75108
 H182 H 0.45375 -0.04013 0.75276
 O183 O 0.58128 0.61976 0.14451
 O184 O 0.64650 0.55718 0.06865
 C185 C 0.63362 0.60371 0.12129
 O186 O 0.41867 0.36827 0.13172
 O187 O 0.35219 0.43748 0.06661
 C188 C 0.36594 0.38621 0.11236
 O189 O 0.58048 0.37637 0.14366
 O190 O 0.64614 0.43900 0.06840
 C191 C 0.63295 0.39226 0.12090
 O192 O 0.41926 0.62942 0.13381
 O193 O 0.35243 0.56183 0.06721
 C194 C 0.36633 0.61250 0.11391
 Zr195 Zr 0.49950 0.58273 0.10524
 O196 O 0.49284 0.57109 0.23409
 O197 O 0.50457 0.68870 0.12386
 Zr198 Zr 0.49905 0.41466 0.10453
 O199 O 0.49232 0.42574 0.23341
 O200 O 0.50310 0.30863 0.12350
 O201 O 0.55314 0.49840 0.12061
 O202 O 0.44655 0.49883 0.12009
 O203 O 0.41821 0.62949 -0.13118
 O204 O 0.35194 0.56156 -0.06412
 C205 C 0.36557 0.61224 -0.11072
 O206 O 0.57935 0.37762 -0.14494
 O207 O 0.64558 0.43935 -0.06933
 C208 C 0.63202 0.39316 -0.12235
 O209 O 0.41764 0.37063 -0.13337
 O210 O 0.35170 0.43790 -0.06492
 C211 C 0.36511 0.38774 -0.11249
 O212 O 0.58018 0.62106 -0.14341
 O213 O 0.64598 0.55784 -0.06869
 C214 C 0.63273 0.60477 -0.12097
 Zr215 Zr 0.49881 0.58353 -0.10335
 O216 O 0.49116 0.57330 -0.23228
 O217 O 0.50380 0.68977 -0.12019
 Zr218 Zr 0.49832 0.41536 -0.10400
 O219 O 0.49084 0.42609 -0.23293
 O220 O 0.50277 0.30900 -0.11981
 Zr221 Zr 0.58717 0.49862 0.00007
 Zr222 Zr 0.41080 0.49946 0.00102
 O223 O 0.44582 0.49974 -0.11830
 O224 O 0.55223 0.49930 -0.12003
 O225 O 0.44829 0.59740 0.00120
 O226 O 0.54861 0.40135 -0.00002
 O227 O 0.54914 0.59627 0.00076
 O228 O 0.44771 0.40122 0.00039
 H229 H 0.41838 0.49879 0.16635
 H230 H 0.57259 0.35942 -0.00045
 H231 H 0.41752 0.50006 -0.16458
 H232 H 0.57328 0.63809 0.00071
 H233 H 0.49883 0.28745 0.06891
 H234 H 0.48920 0.28843 -0.06787
 H235 H 0.53004 0.43833 -0.25434
 H236 H 0.53058 0.56250 -0.25396
 H237 H 0.49313 0.71053 -0.06713
 H238 H 0.49684 0.71008 0.07004
 H239 H 0.53251 0.56056 0.25534
 H240 H 0.53213 0.43522 0.25487
 C241 C 1.21129 0.18546 0.20146
 C242 C 1.17865 0.14537 0.16745
 C243 C 1.21131 0.69015 0.68990
 C244 C 1.17898 0.65079 0.65654
 C245 C 0.68324 0.22228 0.68232
 C246 C 0.64251 0.19596 0.64715
 C247 C 0.70977 0.68512 0.18646
 C248 C 0.67878 0.64491 0.15326
 C249 C 0.78502 -0.18963 0.19546
 C250 C 0.81845 -0.15172 0.15949
 C251 C 0.79093 0.30833 0.68258
 C252 C 0.82394 0.34637 0.64806
 C253 C 0.31890 -0.22401 0.68961
 C254 C 0.36073 -0.19916 0.65588
 C255 C 0.28954 0.30682 0.18060
 C256 C 0.32110 0.34473 0.14464
 C257 C 0.78699 0.18968 -0.19796
 C258 C 0.81965 0.15110 -0.16107
 C259 C 0.78852 0.69455 0.31615
 C260 C 0.82223 0.65741 0.35066
 C261 C 0.31552 0.22435 0.31568
 C262 C 0.35635 0.19868 0.35109
 C263 C 0.28946 0.69225 -0.17878
 C264 C 0.32069 0.65388 -0.14282
 C265 C 1.21204 -0.18583 -0.20030
 C266 C 1.17868 -0.14658 -0.16659
 C267 C 1.20971 0.31232 0.30879
 C268 C 1.17794 0.35301 0.34073
 C269 C 0.67762 -0.22377 0.30809
 C270 C 0.63498 -0.19878 0.33974
 C271 C 0.70861 0.31324 -0.19027
 C272 C 0.67695 0.35230 -0.15611
 C273 C 1.21125 0.18595 -0.20057
 C274 C 1.17847 0.14643 -0.16572
 C275 C 1.21176 0.69220 0.30541
 C276 C 1.17872 0.65337 0.33929
 C277 C 0.68272 0.22174 0.31492
 C278 C 0.64131 0.19573 0.34863
 C279 C 0.70918 0.68534 -0.18774
 C280 C 0.67786 0.64575 -0.15387
 C281 C 0.78546 -0.18948 -0.19757
 C282 C 0.81866 -0.15105 -0.16157
 C283 C 0.79085 0.30779 0.31575
 C284 C 0.82376 0.34651 0.34928
 C285 C 0.31377 -0.22286 0.30656
 C286 C 0.35535 -0.19690 0.34088
 C287 C 0.28918 0.30795 -0.18167
 C288 C 0.32023 0.34636 -0.14536
 C289 C 1.21293 -0.19158 0.19888
 C290 C 1.17932 -0.15180 0.16508
 C291 C 1.21045 0.31083 0.68761
 C292 C 1.17869 0.35097 0.65408
 C293 C 0.67898 -0.22510 0.68699
 C294 C 0.63671 -0.20029 0.65363
 C295 C 0.70960 0.31200 0.18811
 C296 C 0.67804 0.35124 0.15396
 C297 C 0.78735 0.18871 0.19770
 C298 C 0.82009 0.15028 0.16125
 C299 C 0.78968 0.69303 0.68353
 C300 C 0.82333 0.65586 0.64909
 C301 C 0.31648 0.22249 0.68545
 C302 C 0.35724 0.19651 0.65027
 C303 C 0.28984 0.69303 0.18231
 C304 C 0.32142 0.65457 0.14657
   
