data_POSCAR
  _audit_creation_date              2014-09-24
  _audit_creation_method            'ToBaCCo'
  _symmetry_space_group_name_H-M    'P1'
  _symmetry_Int_Tables_number       1
  _symmetry_cell_setting            triclinic
  loop_
  _symmetry_equiv_pos_as_xyz
 x,y,z
_cell_length_a 33.7322
_cell_length_b 38.3950
_cell_length_c 30.2606
_cell_angle_alpha 91.151300
_cell_angle_beta 88.919000
_cell_angle_gamma 87.969900
loop_
  _atom_site_label
  _atom_site_type_symbol
  _atom_site_fract_x
  _atom_site_fract_y
  _atom_site_fract_z
O1 O 0.36886 0.39134 0.06005
 O2 O 0.38066 0.33095 -0.03432
 O3 O 0.34251 0.39167 -0.02160
 O4 O 0.39449 0.32655 0.05052
 O5 O 0.33599 0.30631 0.06845
 O6 O 0.28673 0.36615 -0.00524
 O7 O 0.32487 0.30615 -0.01564
 O8 O 0.31007 0.37103 0.07647
 Cu9 Cu 0.37719 0.36243 0.01201
 Cu10 Cu 0.30880 0.33543 0.03253
 C11 C 0.33788 0.39178 0.08428
 C12 C 0.35578 0.30751 -0.04035
 C13 C 0.30509 0.38911 -0.02595
 C14 C 0.37333 0.30511 0.07142
 O15 O 0.61517 0.59503 0.02257
 O16 O 0.59794 0.66511 -0.05510
 O17 O 0.61406 0.59907 -0.06328
 O18 O 0.60427 0.66289 0.02966
 O19 O 0.66865 0.67131 0.02451
 O20 O 0.67870 0.60627 -0.06617
 O21 O 0.66225 0.67402 -0.05985
 O22 O 0.67970 0.60286 0.01967
 Cu23 Cu 0.60153 0.62952 -0.01594
 Cu24 Cu 0.67886 0.63925 -0.02084
 C25 C 0.65006 0.58658 0.03408
 C26 C 0.62667 0.68196 -0.07007
 C27 C 0.64817 0.59160 -0.08028
 C28 C 0.63476 0.67891 0.04165
 O29 O 0.61264 0.30181 1.02725
 O30 O 0.65292 0.35402 0.93690
 O31 O 0.60163 0.30384 0.94347
 O32 O 0.66377 0.35068 1.02256
 O33 O 0.71347 0.31282 1.00880
 O34 O 0.64996 0.26370 0.93510
 O35 O 0.69926 0.31293 0.92307
 O36 O 0.66273 0.26361 1.01677
 Cu37 Cu 0.62811 0.33197 0.98346
 Cu38 Cu 0.68679 0.28474 0.96972
 C39 C 0.63058 0.27334 1.03653
 C40 C 0.68233 0.34185 0.91401
 C41 C 0.61480 0.27464 0.92780
 C42 C 0.69903 0.33964 1.02933
 O43 O 0.34957 0.63162 0.99427
 O44 O 0.40685 0.68817 1.06994
 O45 O 0.35871 0.63460 1.07791
 O46 O 0.40071 0.68165 0.98448
 O47 O 0.34693 0.71625 0.98520
 O48 O 0.31455 0.67775 1.08969
 O49 O 0.35830 0.72821 1.06785
 O50 O 0.29803 0.66775 1.00698
 Cu51 Cu 0.38441 0.65526 1.03136
 Cu52 Cu 0.32430 0.70118 1.03764
 C53 C 0.31291 0.63967 0.99004
 C54 C 0.39253 0.71853 1.08011
 C55 C 0.32959 0.64825 1.09987
 C56 C 0.38037 0.70650 0.96833
 O57 O 0.03764 0.33674 0.38499
 O58 O -0.04476 0.39904 0.36331
 O59 O -0.03488 0.33795 0.40414
 O60 O 0.03599 0.39747 0.35741
 O61 O 0.02528 0.37861 0.28932
 O62 O -0.03873 0.31264 0.33821
 O63 O -0.05310 0.37420 0.29802
 O64 O 0.03464 0.31653 0.31615
 Cu65 Cu -0.00245 0.37145 0.38329
 Cu66 Cu -0.00985 0.34368 0.30357
 C67 C 0.05070 0.31658 0.35372
 C68 C -0.06326 0.39706 0.32718
 C69 C -0.04622 0.31319 0.37979
 C70 C 0.04409 0.39736 0.31632
 O71 O 0.01970 0.66689 0.60323
 O72 O -0.04333 0.61436 0.67620
 O73 O -0.05624 0.65331 0.61086
 O74 O 0.03259 0.62556 0.67149
 O75 O 0.02075 0.66922 0.71901
 O76 O -0.06160 0.70220 0.65057
 O77 O -0.05620 0.66120 0.71838
 O78 O 0.01259 0.71073 0.65139
 Cu79 Cu -0.01024 0.63555 0.63573
 Cu80 Cu -0.02173 0.69019 0.68984
 C81 C 0.02613 0.69817 0.61484
 C82 C -0.06166 0.62942 0.70874
 C83 C -0.07347 0.68270 0.61950
 C84 C 0.04086 0.64197 0.70673
 O85 O 0.94383 0.68195 0.33841
 O86 O 1.01036 0.62096 0.27520
 O87 O 1.02029 0.67272 0.33138
 O88 O 0.93473 0.62665 0.28886
 O89 O 0.93225 0.66104 0.23112
 O90 O 1.01658 0.70786 0.27472
 O91 O 1.00461 0.65446 0.21689
 O92 O 0.93689 0.71423 0.27914
 Cu93 Cu 0.97781 0.64716 0.31440
 Cu94 Cu 0.97398 0.68870 0.24570
 C95 C 0.92847 0.70808 0.31915
 C96 C 1.01756 0.62682 0.23472
 C97 C 1.03250 0.69870 0.31064
 C98 C 0.91951 0.63547 0.25252
 O99 O 1.06538 0.40220 0.64317
 O100 O 0.99080 0.33631 0.62842
 O101 O 0.99224 0.39478 0.67377
 O102 O 1.06436 0.33853 0.60812
 O103 O 1.09010 0.32063 0.67057
 O104 O 1.01441 0.37045 0.73450
 O105 O 1.01182 0.31049 0.68865
 O106 O 1.08358 0.38069 0.70713
 Cu107 Cu 1.02649 0.37080 0.63230
 Cu108 Cu 1.05105 0.34201 0.70558
 C109 C 1.08664 0.40335 0.67728
 C110 C 0.98898 0.31178 0.65554
 C111 C 0.99102 0.39167 0.71566
 C112 C 1.08988 0.32020 0.62869
 O113 O 0.32498 -0.05276 0.38864
 O114 O 0.37846 0.02824 0.37381
 O115 O 0.30687 0.01329 0.38726
 O116 O 0.39948 -0.03863 0.37572
 O117 O 0.39130 -0.04497 0.30386
 O118 O 0.29867 0.01068 0.31496
 O119 O 0.37323 0.02250 0.30136
 O120 O 0.31500 -0.05599 0.31676
 Cu121 Cu 0.35373 -0.01244 0.38851
 Cu122 Cu 0.34407 -0.01766 0.30188
 C123 C 0.30966 -0.06741 0.35543
 C124 C 0.38395 0.03961 0.33515
 C125 C 0.28749 0.02163 0.35335
 C126 C 0.41117 -0.05105 0.33835
 O127 O 0.61548 0.03477 0.66603
 O128 O 0.70111 -0.02364 0.63091
 O129 O 0.62728 -0.03117 0.64917
 O130 O 0.68830 0.04433 0.63405
 O131 O 0.70782 0.04218 0.70319
 O132 O 0.64539 -0.03518 0.71876
 O133 O 0.72049 -0.02605 0.70012
 O134 O 0.63656 0.03087 0.73445
 Cu135 Cu 0.65655 0.00684 0.63817
 Cu136 Cu 0.67967 0.00277 0.72085
 C137 C 0.61092 0.04137 0.70730
 C138 C 0.72467 -0.03538 0.65995
 C139 C 0.62569 -0.04612 0.68602
 C140 C 0.70863 0.05614 0.66529
 O141 O 0.27723 1.01611 0.60466
 O142 O 0.34864 0.95711 0.65928
 O143 O 0.28982 0.94903 0.60522
 O144 O 0.33563 1.02454 0.65877
 O145 O 0.29430 1.02022 0.71575
 O146 O 0.24668 0.94741 0.66099
 O147 O 0.30507 0.95194 0.71406
 O148 O 0.23577 1.01337 0.66185
 Cu149 Cu 0.31722 0.98711 0.62636
 Cu150 Cu 0.26661 0.98306 0.69433
 C151 C 0.24426 1.02439 0.62372
 C152 C 0.33822 0.94374 0.69548
 C153 C 0.25976 0.93603 0.62368
 C154 C 0.32257 1.03515 0.69646
 O155 O 0.67555 0.96923 0.34936
 O156 O 0.70431 1.04753 0.41007
 O157 O 0.65035 1.03512 0.34652
 O158 O 0.72986 0.98547 0.40271
 O159 O 0.77232 1.00477 0.35328
 O160 O 0.69074 1.04025 0.28879
 O161 O 0.73119 1.06668 0.34864
 O162 O 0.71903 0.98007 0.29629
 Cu163 Cu 0.68497 1.00875 0.38224
 Cu164 Cu 0.73402 1.02381 0.31744
 C165 C 0.69250 0.96108 0.31269
 C166 C 0.72072 1.07140 0.38901
 C167 C 0.65678 1.04450 0.30693
 C168 C 0.76513 0.98801 0.38798
 C169 C 0.81492 0.89592 0.56484
 C170 C 0.81748 0.92082 0.53194
 C171 C 0.83211 0.91226 0.48977
 C172 C 0.84428 0.87758 0.47926
 C173 C 0.84130 0.85163 0.51182
 C174 C 0.82733 0.86079 0.55524
 C175 C 0.82445 0.83432 0.58659
 C176 C 0.83552 0.79972 0.57571
 C177 C 0.84808 0.79004 0.53253
 C178 C 0.85030 0.81619 0.50012
 C179 C 0.85788 0.86797 0.43649
 C180 C 0.86665 0.83345 0.42518
 C181 C 0.86105 0.80696 0.45573
 C182 C 0.86675 0.77151 0.44335
 C183 C 0.86595 0.74629 0.47573
 C184 C 0.85737 0.75486 0.52022
 H185 H 0.81317 0.83986 0.61971
 H186 H 0.83274 0.78035 0.60099
 H187 H 0.86148 0.88690 0.41093
 H188 H 0.87810 0.82800 0.39211
 H189 H 0.80687 0.94744 0.53891
 H190 H 0.87280 0.71938 0.46598
 C191 C 0.19451 0.09934 0.43251
 C192 C 0.19711 0.08231 0.47287
 C193 C 0.18625 0.09897 0.51279
 C194 C 0.17432 0.13458 0.51329
 C195 C 0.17106 0.15246 0.47286
 C196 C 0.17993 0.13453 0.43208
 C197 C 0.17477 0.15268 0.39266
 C198 C 0.16009 0.18709 0.39314
 C199 C 0.15363 0.20606 0.43307
 C200 C 0.15986 0.18859 0.47340
 C201 C 0.16648 0.15297 0.55322
 C202 C 0.15577 0.18811 0.55370
 C203 C 0.15387 0.20690 0.51441
 C204 C 0.14470 0.24321 0.51491
 C205 C 0.13666 0.25952 0.47520
 C206 C 0.13997 0.24155 0.43447
 H207 H 0.18131 0.14053 0.36083
 H208 H 0.15460 0.19842 0.36152
 H209 H 0.16901 0.14069 0.58488
 H210 H 0.14820 0.19997 0.58550
 H211 H 0.20797 0.05536 0.47329
 H212 H 0.12733 0.28688 0.47601
 C213 C 0.23691 0.84549 0.43432
 C214 C 0.24197 0.86075 0.47637
 C215 C 0.22391 0.84781 0.51435
 C216 C 0.20197 0.81721 0.51089
 C217 C 0.19438 0.80271 0.46869
 C218 C 0.21357 0.81544 0.43052
 C219 C 0.20910 0.79712 0.39029
 C220 C 0.18053 0.77187 0.38614
 C221 C 0.15596 0.76366 0.42227
 C222 C 0.16594 0.77645 0.46456
 C223 C 0.18721 0.80062 0.54844
 C224 C 0.15938 0.77502 0.54440
 C225 C 0.14588 0.76479 0.50261
 C226 C 0.11251 0.74381 0.49816
 C227 C 0.10141 0.73275 0.45591
 C228 C 0.12198 0.74311 0.41767
 H229 H 0.22748 0.80204 0.36164
 H230 H 0.17782 0.75892 0.35433
 H231 H 0.19646 0.80775 0.58133
 H232 H 0.14777 0.76392 0.57438
 H233 H 0.25787 0.88472 0.47924
 H234 H 0.07429 0.71866 0.45264
 C235 C 0.77640 0.14218 0.57846
 C236 C 0.75555 0.13550 0.53961
 C237 C 0.76482 0.15097 0.49947
 C238 C 0.79620 0.17467 0.49780
 C239 C 0.81774 0.18221 0.53663
 C240 C 0.80888 0.16499 0.57666
 C241 C 0.83466 0.16927 0.61222
 C242 C 0.86524 0.19282 0.61050
 C243 C 0.87170 0.21316 0.57308
 C244 C 0.84971 0.20570 0.53470
 C245 C 0.80791 0.19009 0.45812
 C246 C 0.83745 0.21403 0.45686
 C247 C 0.86018 0.22101 0.49400
 C248 C 0.89329 0.24260 0.49121
 C249 C 0.91174 0.25263 0.53025
 C250 C 0.90088 0.23922 0.57163
 H251 H 0.83273 0.15348 0.64120
 H252 H 0.88506 0.19337 0.63806
 H253 H 0.79551 0.18384 0.42672
 H254 H 0.84208 0.22687 0.42589
 H255 H 0.73139 0.11759 0.54040
 H256 H 0.93546 0.27088 0.52808
 C257 C 0.54201 0.76746 0.86104
 C258 C 0.50731 0.75462 0.88046
 C259 C 0.47003 0.77062 0.87439
 C260 C 0.46753 0.80205 0.85108
 C261 C 0.50110 0.81329 0.82721
 C262 C 0.53855 0.79580 0.83157
 C263 C 0.57056 0.80645 0.80510
 C264 C 0.56621 0.83442 0.77654
 C265 C 0.52931 0.85205 0.77213
 C266 C 0.49659 0.84137 0.79769
 C267 C 0.43250 0.82292 0.85146
 C268 C 0.42823 0.85042 0.82278
 C269 C 0.45875 0.85778 0.79260
 C270 C 0.45242 0.88108 0.75763
 C271 C 0.48524 0.89265 0.73388
 C272 C 0.52366 0.87914 0.74159
 H273 H 0.59890 0.79250 0.80459
 H274 H 0.59175 0.84138 0.75684
 H275 H 0.40796 0.81811 0.87376
 H276 H 0.40057 0.86559 0.82408
 H277 H 0.50916 0.73156 0.90052
 H278 H 0.48073 0.91116 0.70768
 C279 C 0.54307 0.11726 0.26545
 C280 C 0.50829 0.10688 0.28594
 C281 C 0.47257 0.12608 0.28166
 C282 C 0.47118 0.15586 0.25460
 C283 C 0.50654 0.16643 0.23365
 C284 C 0.54290 0.14841 0.24163
 C285 C 0.57827 0.16192 0.22537
 C286 C 0.57738 0.18957 0.19666
 C287 C 0.54110 0.20350 0.18160
 C288 C 0.50549 0.19382 0.20278
 C289 C 0.43572 0.17488 0.24694
 C290 C 0.43473 0.20195 0.21662
 C291 C 0.46883 0.21018 0.19170
 C292 C 0.46773 0.23408 0.15618
 C293 C 0.50330 0.24236 0.13463
 C294 C 0.53963 0.22652 0.14578
 H295 H 0.60693 0.15097 0.23444
 H296 H 0.60548 0.19929 0.18550
 H297 H 0.40835 0.16857 0.26369
 H298 H 0.40686 0.21623 0.21294
 H299 H 0.50874 0.08287 0.30428
 H300 H 0.50228 0.25909 0.10618
 C301 C 0.49023 0.11601 0.72886
 C302 C 0.45262 0.10381 0.71962
 C303 C 0.41791 0.12288 0.73282
 C304 C 0.42103 0.15597 0.75399
 C305 C 0.45886 0.16790 0.76469
 C306 C 0.49341 0.14899 0.74962
 C307 C 0.53066 0.16237 0.75849
 C308 C 0.53386 0.19118 0.78649
 C309 C 0.50010 0.20642 0.80823
 C310 C 0.46218 0.19671 0.79443
 C311 C 0.38753 0.17717 0.76598
 C312 C 0.39079 0.20575 0.79474
 C313 C 0.42758 0.21378 0.81281
 C314 C 0.43099 0.23799 0.84863
 C315 C 0.46902 0.24632 0.86302
 C316 C 0.50341 0.23010 0.84429
 H317 H 0.55763 0.14988 0.74490
 H318 H 0.56326 0.20043 0.79239
 H319 H 0.35841 0.17134 0.75405
 H320 H 0.36410 0.22102 0.80323
 H321 H 0.45040 0.07730 0.70705
 H322 H 0.47182 0.26324 0.89184
 C323 C 0.50088 0.77313 0.15784
 C324 C 0.53318 0.75530 0.13708
 C325 C 0.57246 0.76298 0.14658
 C326 C 0.57969 0.78905 0.17928
 C327 C 0.54716 0.80770 0.20029
 C328 C 0.50776 0.79849 0.19132
 C329 C 0.47651 0.81427 0.21692
 C330 C 0.48327 0.84110 0.24720
 C331 C 0.52164 0.85303 0.25340
 C332 C 0.55404 0.83564 0.23051
 C333 C 0.61819 0.79625 0.19308
 C334 C 0.62499 0.82455 0.22108
 C335 C 0.59340 0.84586 0.23811
 C336 C 0.59987 0.87597 0.26449
 C337 C 0.56764 0.89210 0.28765
 C338 C 0.52891 0.88073 0.28336
 H339 H 0.44647 0.80562 0.21449
 H340 H 0.45804 0.85241 0.26562
 H341 H 0.64355 0.77981 0.18321
 H342 H 0.65523 0.82879 0.23049
 H343 H 0.52755 0.73648 0.11093
 H344 H 0.57250 0.91450 0.30903
 C345 C 0.86156 0.53331 0.76214
 C346 C 0.89004 0.50629 0.75462
 C347 C 0.88219 0.47192 0.76472
 C348 C 0.84410 0.46359 0.78064
 C349 C 0.81424 0.49026 0.78677
 C350 C 0.82281 0.52531 0.77733
 C351 C 0.79222 0.55104 0.78266
 C352 C 0.75508 0.54303 0.79996
 C353 C 0.74657 0.50874 0.81128
 C354 C 0.77600 0.48189 0.80327
 C355 C 0.83532 0.42919 0.79099
 C356 C 0.79820 0.42109 0.80749
 C357 C 0.76764 0.44678 0.81282
 C358 C 0.72940 0.43864 0.82896
 C359 C 0.70122 0.46551 0.83764
 C360 C 0.70925 0.50039 0.82970
 H361 H 0.79639 0.57763 0.77304
 H362 H 0.73282 0.56393 0.80366
 H363 H 0.85716 0.40803 0.78657
 H364 H 0.79435 0.39442 0.81669
 H365 H 0.91985 0.51241 0.74397
 H366 H 0.67274 0.45914 0.85200
 C367 C 0.28472 0.48915 0.17286
 C368 C 0.29774 0.52313 0.16665
 C369 C 0.27107 0.55190 0.16856
 C370 C 0.22995 0.54613 0.17280
 C371 C 0.21719 0.51274 0.18435
 C372 C 0.24486 0.48429 0.18578
 C373 C 0.23195 0.45194 0.20035
 C374 C 0.19276 0.44819 0.21472
 C375 C 0.16468 0.47603 0.21228
 C376 C 0.17657 0.50777 0.19415
 C377 C 0.20114 0.57243 0.16458
 C378 C 0.16111 0.56702 0.17167
 C379 C 0.14818 0.53504 0.18734
 C380 C 0.10781 0.52990 0.19747
 C381 C 0.09684 0.49955 0.21852
 C382 C 0.12506 0.47323 0.22779
 H383 H 0.25244 0.42972 0.20254
 H384 H 0.18436 0.42310 0.22681
 H385 H 0.20893 0.59728 0.15145
 H386 H 0.14068 0.58866 0.16580
 H387 H 0.32868 0.52722 0.15875
 H388 H 0.06642 0.49738 0.23010
 C389 C 0.84598 0.47822 0.25318
 C390 C 0.85477 0.51366 0.25424
 C391 C 0.83492 0.53770 0.22755
 C392 C 0.80233 0.52666 0.20298
 C393 C 0.79629 0.49059 0.19730
 C394 C 0.81875 0.46602 0.22184
 C395 C 0.81224 0.43037 0.21527
 C396 C 0.78592 0.41911 0.18324
 C397 C 0.76413 0.44316 0.15781
 C398 C 0.76742 0.47924 0.16727
 C399 C 0.77508 0.55067 0.18492
 C400 C 0.74511 0.53960 0.15778
 C401 C 0.74181 0.50410 0.14699
 C402 C 0.71253 0.49261 0.11800
 C403 C 0.71145 0.45724 0.10665
 C404 C 0.73805 0.43251 0.12422
 H405 H 0.82800 0.41089 0.23422
 H406 H 0.78173 0.39142 0.17983
 H407 H 0.77603 0.57826 0.19262
 H408 H 0.72488 0.55927 0.14512
 H409 H 0.87806 0.52240 0.27560
 H410 H 0.69035 0.44919 0.08218
 C411 C 0.25967 0.54836 0.89403
 C412 C 0.27304 0.51484 0.90570
 C413 C 0.26108 0.48515 0.88234
 C414 C 0.23761 0.48933 0.84406
 C415 C 0.22316 0.52297 0.83267
 C416 C 0.23513 0.55257 0.85683
 C417 C 0.22184 0.58581 0.84344
 C418 C 0.19362 0.58960 0.81078
 C419 C 0.17770 0.56035 0.79003
 C420 C 0.19497 0.52690 0.79852
 C421 C 0.22739 0.46062 0.81743
 C422 C 0.20116 0.46459 0.78258
 C423 C 0.18363 0.49736 0.77353
 C424 C 0.15565 0.50172 0.73967
 C425 C 0.13673 0.53438 0.73416
 C426 C 0.14582 0.56349 0.76017
 H427 H 0.23287 0.60928 0.85848
 H428 H 0.18496 0.61577 0.80147
 H429 H 0.23969 0.43475 0.82338
 H430 H 0.19406 0.44162 0.76341
 H431 H 0.28903 0.51163 0.93620
 H432 H 0.11351 0.53676 0.70997
 C433 C 0.33450 0.41747 0.12088
 C434 C 0.36685 0.43102 0.14147
 C435 C 0.35208 0.45825 0.16697
 C436 C 0.31178 0.45940 0.15992
 O437 O 0.30102 0.43457 0.13203
 H438 H 0.39777 0.42313 0.13654
 H439 H 0.36890 0.47640 0.18623
 C440 C 0.65564 0.55681 0.06344
 C441 C 0.62478 0.53755 0.07909
 C442 C 0.64216 0.51120 0.10196
 C443 C 0.68230 0.51644 0.09890
 O444 O 0.69072 0.54403 0.07530
 H445 H 0.59338 0.54183 0.07362
 H446 H 0.62747 0.49042 0.11865
 C447 C 0.69741 0.36152 0.87675
 C448 C 0.71142 0.34657 0.83747
 C449 C 0.72406 0.37365 0.81308
 C450 C 0.71810 0.40288 0.84006
 O451 O 0.70097 0.39565 0.87831
 H452 H 0.71217 0.31926 0.82783
 H453 H 0.73683 0.37221 0.77998
 C454 C 0.28605 0.61636 0.96691
 C455 C 0.24535 0.62031 0.97124
 C456 C 0.23063 0.59478 0.94548
 C457 C 0.26332 0.57728 0.92666
 O458 O 0.29731 0.58989 0.94013
 H459 H 0.22841 0.63960 0.99099
 H460 H 0.19968 0.58977 0.94023
 C461 C 0.08448 0.29288 0.36190
 C462 C 0.11463 0.28399 0.33200
 C463 C 0.14072 0.26343 0.35482
 C464 C 0.12356 0.26040 0.39636
 O465 O 0.09000 0.27902 0.40080
 H466 H 0.11800 0.29273 0.29840
 H467 H 0.16927 0.25303 0.34293
 C468 C 0.04789 0.72144 0.58571
 C469 C 0.04609 0.75714 0.59193
 C470 C 0.06903 0.76979 0.55920
 C471 C 0.08386 0.74094 0.53561
 O472 O 0.07051 0.71133 0.55106
 H473 H 0.02972 0.77218 0.61730
 H474 H 0.07494 0.79688 0.55350
 C475 C 0.90113 0.73165 0.34400
 C476 C 0.87229 0.75281 0.32566
 C477 C 0.85444 0.77041 0.36064
 C478 C 0.87475 0.75934 0.39733
 O479 O 0.90244 0.73522 0.38734
 H480 H 0.86493 0.75480 0.29113
 H481 H 0.82981 0.78920 0.35955
 C482 C 0.95978 0.28501 0.64756
 C483 C 0.93175 0.27529 0.67801
 C484 C 0.90568 0.25615 0.65443
 C485 C 0.92056 0.25437 0.61136
 O486 O 0.95288 0.27282 0.60736
 H487 H 0.92870 0.28376 0.71227
 H488 H 0.87775 0.24711 0.66699
 C489 C 0.40223 0.07335 0.32950
 C490 C 0.39656 0.10161 0.35805
 C491 C 0.41960 0.12689 0.34122
 C492 C 0.43762 0.11200 0.30385
 O493 O 0.42724 0.07947 0.29677
 H494 H 0.37844 0.10326 0.38797
 H495 H 0.42474 0.15223 0.35591
 C496 C 0.57495 0.05945 0.72581
 C497 C 0.56414 0.05662 0.76976
 C498 C 0.53020 0.07616 0.77522
 C499 C 0.52265 0.08970 0.73434
 O500 O 0.54972 0.07966 0.70382
 H501 H 0.57942 0.04204 0.79495
 H502 H 0.51339 0.08098 0.80569
 C503 C 0.36339 0.91670 0.71502
 C504 C 0.34966 0.88448 0.72500
 C505 C 0.38139 0.86664 0.74125
 C506 C 0.41191 0.88981 0.74168
 O507 O 0.40128 0.92008 0.72435
 H508 H 0.32026 0.87492 0.71985
 H509 H 0.38218 0.83976 0.75138
 C510 C 0.67872 0.93067 0.28793
 C511 C 0.69174 0.92040 0.24611
 C512 C 0.66543 0.89643 0.23226
 C513 C 0.63855 0.89342 0.26699
 O514 O 0.64662 0.91450 0.30050
 H515 H 0.71556 0.93108 0.22677
 H516 H 0.66423 0.88487 0.19944
 C517 C 0.36426 0.28083 0.92491
 C518 C 0.34316 0.25110 0.91928
 C519 C 0.36435 0.23140 0.88849
 C520 C 0.39645 0.25093 0.87663
 O521 O 0.39667 0.28070 0.89951
 H522 H 0.31696 0.24370 0.93748
 H523 H 0.35831 0.20499 0.87825
 C524 C 0.61716 0.71207 0.90259
 C525 C 0.64031 0.74063 0.89790
 C526 C 0.61604 0.76545 0.87947
 C527 C 0.58017 0.74978 0.87315
 O528 O 0.58099 0.71761 0.88786
 H529 H 0.66985 0.74406 0.91022
 H530 H 0.62287 0.79247 0.87487
 C531 C 0.41542 0.74384 0.10517
 C532 C 0.40344 0.77839 0.11044
 C533 C 0.43333 0.79381 0.13185
 C534 C 0.46109 0.76740 0.13940
 O535 O 0.45063 0.73706 0.12222
 H536 H 0.37679 0.79115 0.09828
 H537 H 0.43536 0.82137 0.13926
 C538 C 0.61310 0.25013 0.06865
 C539 C 0.62453 0.21548 0.07150
 C540 C 0.59860 0.20209 0.10080
 C541 C 0.57393 0.22981 0.11491
 O542 O 0.58203 0.25892 0.09439
 H543 H 0.64774 0.20134 0.05273
 H544 H 0.59717 0.17503 0.10987
 C545 C 0.21536 0.04661 0.60100
 C546 C 0.17692 0.05371 0.61573
 C547 C 0.16035 0.07428 0.58435
 C548 C 0.19022 0.07856 0.55335
 O549 O 0.22339 0.06131 0.56298
 H550 H 0.16261 0.04459 0.64542
 H551 H 0.13022 0.08494 0.58400
 C552 C 0.72715 0.10283 0.41055
 C553 C 0.72244 0.13504 0.39185
 C554 C 0.73100 0.15827 0.42469
 C555 C 0.74380 0.13833 0.45961
 O556 O 0.73931 0.10469 0.45177
 H557 H 0.71243 0.14089 0.35895
 H558 H 0.72965 0.18640 0.42259
 C559 C 0.75698 0.93977 0.64678
 C560 C 0.78462 0.92539 0.67481
 C561 C 0.80967 0.90509 0.64828
 C562 C 0.79491 0.90828 0.60629
 O563 O 0.76326 0.92955 0.60540
 H564 H 0.78692 0.93002 0.71005
 H565 H 0.83643 0.89113 0.65801
 C566 C 0.28415 0.90290 0.36237
 C567 C 0.25567 0.89260 0.33338
 C568 C 0.23454 0.86859 0.35550
 C569 C 0.25256 0.86502 0.39599
 O570 O 0.28220 0.88651 0.40027
 H571 H 0.24916 0.90330 0.30140
 H572 H 0.20747 0.85730 0.34439
 C573 C 0.11457 0.43173 0.68174
 C574 C 0.12959 0.44904 0.64599
 C575 C 0.14944 0.47608 0.66348
 C576 C 0.14514 0.47338 0.70865
 O577 O 0.12384 0.44647 0.72001
 H578 H 0.12511 0.44341 0.61129
 H579 H 0.16357 0.49652 0.64554
 C580 C 0.04037 0.60074 0.20817
 C581 C 0.04307 0.60007 0.16262
 C582 C 0.06722 0.57182 0.15199
 C583 C 0.07745 0.55775 0.19196
 O584 O 0.06095 0.57500 0.22605
 H585 H 0.02943 0.61820 0.14005
 H586 H 0.07755 0.56330 0.11933
 C587 C 0.90365 0.42211 0.31937
 C588 C 0.88508 0.44192 0.35268
 C589 C 0.85944 0.46398 0.33200
 C590 C 0.86408 0.45609 0.28751
 O591 O 0.89105 0.43063 0.27955
 H592 H 0.89058 0.44112 0.38777
 H593 H 0.84072 0.48449 0.34727
 C594 C 0.91016 0.60992 0.73535
 C595 C 0.89074 0.62284 0.77300
 C596 C 0.86854 0.59624 0.78757
 C597 C 0.87538 0.56928 0.75714
 O598 O 0.90121 0.57743 0.72585
 H599 H 0.89334 0.64825 0.78860
 H600 H 0.85081 0.59607 0.81774
 C601 C 0.65245 0.56614 0.88636
 C602 C 0.62138 0.54934 0.86725
 C603 C 0.63873 0.52399 0.84048
 C604 C 0.67910 0.52716 0.84514
 O605 O 0.68748 0.55289 0.87281
 H606 H 0.58992 0.55404 0.87351
 H607 H 0.62378 0.50428 0.82167
 C608 C 0.28270 0.41094 0.94665
 C609 C 0.24304 0.40574 0.93905
 C610 C 0.23097 0.43176 0.91246
 C611 C 0.26394 0.45120 0.90508
 O612 O 0.29558 0.43893 0.92636
 H613 H 0.22475 0.38556 0.95205
 H614 H 0.20110 0.43686 0.90118
 C615 C 0.31220 0.62964 0.13344
 C616 C 0.28756 0.64418 0.16623
 C617 C 0.27201 0.61660 0.18718
 C618 C 0.28664 0.58734 0.16404
 O619 O 0.31225 0.59517 0.13249
 H620 H 0.28084 0.67155 0.17313
 H621 H 0.25017 0.61775 0.21388
 C622 C 0.72204 0.35766 0.05918
 C623 C 0.76145 0.35010 0.06743
 C624 C 0.77275 0.37618 0.09531
 C625 C 0.73909 0.39725 0.10297
 O626 O 0.70851 0.38601 0.08065
 H627 H 0.78024 0.32930 0.05292
 H628 H 0.80263 0.38050 0.10598
 C629 C 0.89527 0.69384 0.59336
 C630 C 0.87324 0.67161 0.56824
 C631 C 0.85093 0.69262 0.54219
 C632 C 0.86183 0.72622 0.55212
 O633 O 0.88815 0.72703 0.58408
 H634 H 0.87478 0.64339 0.56744
 H635 H 0.83224 0.68422 0.51559
 C636 C 0.93496 0.28551 0.39942
 C637 C 0.92955 0.25386 0.37855
 C638 C 0.91464 0.23320 0.41042
 C639 C 0.91010 0.25415 0.44806
 O640 O 0.92368 0.28568 0.44172
 H641 H 0.93744 0.24620 0.34481
 H642 H 0.90794 0.20596 0.40664
 C643 C 0.11721 0.29860 0.60538
 C644 C 0.15084 0.28368 0.62346
 C645 C 0.16734 0.26259 0.59091
 C646 C 0.14153 0.26485 0.55611
 O647 O 0.11181 0.28769 0.56426
 H648 H 0.16192 0.28766 0.65646
 H649 H 0.19415 0.24642 0.59292
 C650 C 0.06260 0.71817 0.32840
 C651 C 0.07591 0.74845 0.31056
 C652 C 0.10127 0.76128 0.34075
 C653 C 0.10265 0.73737 0.37439
 O654 O 0.07859 0.71143 0.36708
 H655 H 0.06639 0.76083 0.28053
 H656 H 0.11496 0.78630 0.33946
 C657 C 0.59998 0.92396 0.68998
 C658 C 0.58964 0.90358 0.65422
 C659 C 0.56120 0.88251 0.66976
 C660 C 0.55629 0.89162 0.71379
 O661 O 0.57965 0.91686 0.72633
 H662 H 0.60038 0.90504 0.62040
 H663 H 0.54458 0.86394 0.65093
 C664 C 0.44825 0.92730 0.33616
 C665 C 0.46994 0.91954 0.37311
 C666 C 0.50217 0.90041 0.35798
 C667 C 0.49789 0.89755 0.31287
 O668 O 0.46512 0.91396 0.29927
 H669 H 0.46328 0.92739 0.40707
 H670 H 0.52638 0.89012 0.37737
 C671 C 0.62539 0.06074 0.28097
 C672 C 0.62676 0.06091 0.23541
 C673 C 0.59524 0.08132 0.22375
 C674 C 0.57737 0.09249 0.26312
 O675 O 0.59516 0.07963 0.29812
 H676 H 0.64874 0.04824 0.21342
 H677 H 0.58680 0.08815 0.19061
 C678 C 0.34058 0.06486 0.71842
 C679 C 0.32790 0.07867 0.75880
 C680 C 0.35406 0.10366 0.76866
 C681 C 0.38044 0.10380 0.73310
 O682 O 0.37256 0.07976 0.70286
 H683 H 0.30352 0.07046 0.77941
 H684 H 0.35507 0.11852 0.79936
 C685 C 0.63048 0.70819 0.07361
 C686 C 0.65584 0.73549 0.07474
 C687 C 0.63819 0.75971 0.10285
 C688 C 0.60394 0.74492 0.11837
 O689 O 0.59883 0.71393 0.09953
 H690 H 0.68243 0.73848 0.05480
 H691 H 0.64805 0.78586 0.10878
 C692 C 0.39108 0.27715 0.09808
 C693 C 0.37175 0.24691 0.10654
 C694 C 0.39748 0.22698 0.12995
 C695 C 0.43035 0.24692 0.13570
 O696 O 0.42693 0.27717 0.11516
 H697 H 0.34285 0.23966 0.09528
 H698 H 0.39328 0.20043 0.13985
 C699 C 0.58888 0.25168 0.90323
 C700 C 0.59611 0.21620 0.90002
 C701 C 0.56477 0.20362 0.87833
 C702 C 0.54114 0.23246 0.86846
 O703 O 0.55513 0.26178 0.88480
 H704 H 0.62071 0.20118 0.91335
 H705 H 0.55958 0.17651 0.87075
 C706 C 0.39601 0.72474 0.93022
 C707 C 0.37378 0.73403 0.89443
 C708 C 0.39889 0.75150 0.86784
 C709 C 0.43420 0.75276 0.89029
 O710 O 0.43276 0.73564 0.92776
 H711 H 0.34311 0.72844 0.88839
 H712 H 0.39210 0.76235 0.83601
 C713 C 0.79765 0.97106 0.41155
 C714 C 0.83754 0.97446 0.40229
 C715 C 0.85668 0.95340 0.43150
 C716 C 0.82681 0.93872 0.45579
 O717 O 0.79114 0.94964 0.44411
 H718 H 0.85092 0.99010 0.37708
 H719 H 0.88834 0.94863 0.43417
 C720 C 0.23857 0.90826 0.60138
 C721 C 0.20071 0.89950 0.61340
 C722 C 0.19033 0.87533 0.58285
 C723 C 0.22316 0.87011 0.55511
 O724 O 0.25221 0.89088 0.56574
 H725 H 0.18219 0.91069 0.64001
 H726 H 0.16155 0.86397 0.58019
 C727 C 0.25258 0.04516 0.36014
 C728 C 0.22279 0.05192 0.33060
 C729 C 0.19628 0.07415 0.35293
 C730 C 0.21262 0.07985 0.39392
 O731 O 0.24630 0.06183 0.39824
 H732 H 0.22003 0.04103 0.29759
 H733 H 0.16788 0.08374 0.34130
 C734 C 0.73324 0.08623 0.65610
 C735 C 0.74376 0.11131 0.68641
 C736 C 0.76214 0.13601 0.66207
 C737 C 0.76270 0.12359 0.61875
 O738 O 0.74438 0.09373 0.61537
 H739 H 0.73675 0.11249 0.72146
 H740 H 0.77188 0.16087 0.67438
 C741 C 0.88828 0.61474 0.23361
 C742 C 0.87420 0.61917 0.19164
 C743 C 0.85100 0.59157 0.18417
 C744 C 0.85165 0.57272 0.22270
 O745 O 0.87501 0.58654 0.25244
 H746 H 0.88213 0.63882 0.16822
 H747 H 0.83744 0.58492 0.15316
 C748 C 0.96253 0.41246 0.74359
 C749 C 0.96064 0.40991 0.78902
 C750 C 0.93041 0.43205 0.80267
 C751 C 0.91591 0.44636 0.76460
 O752 O 0.93550 0.43486 0.72851
 H753 H 0.97903 0.39359 0.80971
 H754 H 0.91984 0.43706 0.83626
 C755 C 0.07322 0.62845 0.73436
 C756 C 0.07942 0.63956 0.77712
 C757 C 0.10843 0.61759 0.79241
 C758 C 0.11885 0.59511 0.75743
 O759 O 0.09676 0.60140 0.72244
 H760 H 0.06304 0.65986 0.79578
 H761 H 0.11877 0.61686 0.82601
 C762 C 0.07734 0.41757 0.30053
 C763 C 0.11093 0.42245 0.32475
 C764 C 0.13466 0.44175 0.29883
 C765 C 0.11373 0.44730 0.26070
 O766 O 0.07869 0.43275 0.26172
 H767 H 0.11714 0.41322 0.35755
 H768 H 0.16290 0.45220 0.30760
   
