data_POSCAR
  _audit_creation_date              2014-09-24
  _audit_creation_method            'ToBaCCo'
  _symmetry_space_group_name_H-M    'P1'
  _symmetry_Int_Tables_number       1
  _symmetry_cell_setting            triclinic
  loop_
  _symmetry_equiv_pos_as_xyz
 x,y,z
_cell_length_a 38.0937
_cell_length_b 41.9918
_cell_length_c 26.6216
_cell_angle_alpha 90.026900
_cell_angle_beta 89.821400
_cell_angle_gamma 90.092000
loop_
  _atom_site_label
  _atom_site_type_symbol
  _atom_site_fract_x
  _atom_site_fract_y
  _atom_site_fract_z
C1 C 0.20158 0.23374 0.10758
 C2 C 0.20030 0.26637 0.10889
 C3 C 0.20912 0.27528 0.15730
 N4 N 0.21592 0.24925 0.18557
 C5 C 0.21070 0.22372 0.15550
 C6 C 0.20827 0.30665 0.17641
 C7 C 0.22806 0.31495 0.21933
 C8 C 0.22376 0.34209 0.24854
 C9 C 0.25097 0.34255 0.28248
 C10 C 0.27070 0.31545 0.27352
 N11 N 0.25646 0.29867 0.23540
 C12 C 0.30245 0.30772 0.29746
 C13 C 0.31596 0.27652 0.29694
 C14 C 0.35010 0.26833 0.30882
 C15 C 0.35165 0.23575 0.30724
 C16 C 0.31817 0.22507 0.29526
 N17 N 0.29649 0.25013 0.28825
 C18 C 0.30706 0.19287 0.29384
 C19 C 0.27558 0.18432 0.26896
 C20 C 0.25494 0.15811 0.28049
 C21 C 0.22750 0.15802 0.24714
 C22 C 0.23226 0.18396 0.21540
 N23 N 0.26125 0.20031 0.22991
 C24 C 0.21130 0.19181 0.17301
 H25 H 0.19677 0.21924 0.07472
 H26 H 0.19406 0.28174 0.07756
 H27 H 0.27243 0.21974 0.21135
 H28 H 0.20333 0.35986 0.24595
 H29 H 0.25571 0.36074 0.31046
 H30 H 0.37174 0.28418 0.31723
 H31 H 0.37500 0.22173 0.31362
 H32 H 0.20604 0.14116 0.24782
 H33 H 0.26788 0.27913 0.21755
 H34 H 0.25854 0.14132 0.31086
 C35 C 0.84922 0.23417 0.18539
 C36 C 0.84867 0.26683 0.18469
 C37 C 0.81568 0.27587 0.20147
 N38 N 0.79612 0.24992 0.21257
 C39 C 0.81654 0.22442 0.20254
 C40 C 0.80294 0.30737 0.20295
 C41 C 0.77170 0.31541 0.22850
 C42 C 0.75234 0.34284 0.22069
 C43 C 0.72529 0.34240 0.25510
 C44 C 0.72927 0.31491 0.28350
 N45 N 0.75738 0.29844 0.26652
 C46 C 0.70935 0.30642 0.32641
 C47 C 0.70972 0.27489 0.34484
 C48 C 0.70109 0.26584 0.39332
 C49 C 0.70163 0.23320 0.39405
 C50 C 0.71009 0.22331 0.34571
 N51 N 0.71563 0.24894 0.31592
 C52 C 0.71026 0.19140 0.32798
 C53 C 0.73090 0.18339 0.28508
 C54 C 0.72685 0.15671 0.25456
 C55 C 0.75411 0.15692 0.22059
 C56 C 0.77353 0.18408 0.23013
 N57 N 0.75915 0.20025 0.26903
 C58 C 0.80469 0.19265 0.20475
 H59 H 0.87114 0.21936 0.17431
 H60 H 0.87010 0.28211 0.17304
 H61 H 0.77014 0.22002 0.28681
 H62 H 0.75711 0.36119 0.19295
 H63 H 0.70511 0.36036 0.25842
 H64 H 0.69550 0.28113 0.42507
 H65 H 0.69688 0.21860 0.42684
 H66 H 0.75870 0.13938 0.19150
 H67 H 0.76846 0.27855 0.28367
 H68 H 0.70619 0.13906 0.25529
 C69 C 0.83999 0.73555 0.83423
 C70 C 0.83892 0.76810 0.83499
 C71 C 0.80476 0.77663 0.82379
 N72 N 0.78475 0.75036 0.81655
 C73 C 0.80624 0.72508 0.82340
 C74 C 0.79242 0.80829 0.82215
 C75 C 0.76070 0.81694 0.79850
 C76 C 0.74470 0.84642 0.80281
 C77 C 0.71685 0.84640 0.77015
 C78 C 0.71621 0.81670 0.74719
 N79 N 0.74318 0.79896 0.76466
 C80 C 0.69290 0.80757 0.70837
 C81 C 0.68843 0.77563 0.69255
 C82 C 0.66644 0.76585 0.65408
 C83 C 0.66713 0.73323 0.65373
 C84 C 0.68952 0.72399 0.69200
 N85 N 0.70219 0.74994 0.71596
 C86 C 0.69498 0.69219 0.70756
 C87 C 0.71866 0.68361 0.74614
 C88 C 0.71857 0.65457 0.77093
 C89 C 0.74653 0.65484 0.80324
 C90 C 0.76379 0.68368 0.79654
 N91 N 0.74635 0.70124 0.76197
 C92 C 0.79551 0.69272 0.82077
 H93 H 0.86337 0.72140 0.83968
 H94 H 0.86104 0.78371 0.84178
 H95 H 0.75512 0.72245 0.74607
 H96 H 0.75261 0.86619 0.82629
 H97 H 0.69960 0.86638 0.76375
 H98 H 0.65051 0.78047 0.62973
 H99 H 0.65182 0.71821 0.62908
 H100 H 0.75302 0.63584 0.82899
 H101 H 0.75186 0.77744 0.74995
 H102 H 0.70035 0.63502 0.76667
 C103 C 0.18876 0.76598 0.86070
 C104 C 0.18885 0.73335 0.86065
 C105 C 0.19477 0.72387 0.81144
 N106 N 0.19900 0.74972 0.78161
 C107 C 0.19463 0.77552 0.81151
 C108 C 0.19465 0.69205 0.79342
 C109 C 0.21495 0.68431 0.75020
 C110 C 0.21109 0.65767 0.71957
 C111 C 0.23889 0.65769 0.68646
 C112 C 0.25842 0.68469 0.69673
 N113 N 0.24349 0.70102 0.73498
 C114 C 0.29050 0.69274 0.67345
 C115 C 0.30278 0.72439 0.67217
 C116 C 0.33622 0.73394 0.65801
 C117 C 0.33605 0.76663 0.65789
 C118 C 0.30251 0.77583 0.67200
 N119 N 0.28228 0.75000 0.68092
 C120 C 0.28990 0.80733 0.67310
 C121 C 0.25781 0.81512 0.69651
 C122 C 0.23805 0.84193 0.68629
 C123 C 0.21036 0.84176 0.71957
 C124 C 0.21451 0.81520 0.75023
 N125 N 0.24311 0.79872 0.73488
 C126 C 0.19437 0.80735 0.79357
 H127 H 0.18582 0.78083 0.89365
 H128 H 0.18599 0.71846 0.89356
 H129 H 0.25428 0.77932 0.75334
 H130 H 0.19041 0.64004 0.72007
 H131 H 0.24397 0.64000 0.65777
 H132 H 0.35845 0.71902 0.64876
 H133 H 0.35811 0.78178 0.64853
 H134 H 0.18955 0.85921 0.72020
 H135 H 0.25447 0.72054 0.75345
 H136 H 0.24293 0.85963 0.65755
 O137 O 0.96545 -0.01156 -0.06039
 O138 O 1.03458 0.04164 -0.01297
 O139 O 1.03379 -0.01143 -0.06434
 O140 O 0.96672 0.04098 -0.00803
 O141 O 0.96983 0.01368 0.06274
 O142 O 1.03444 -0.04021 0.00512
 O143 O 1.03831 0.01288 0.05628
 O144 O 0.96679 -0.03882 0.01056
 Cu145 Cu 0.99995 0.01768 -0.04352
 Cu146 Cu 1.00262 -0.01583 0.04084
 C147 C 0.95437 -0.03425 -0.03307
 C148 C 1.04818 0.03637 0.02967
 C149 C 1.04497 -0.03513 -0.03944
 C150 C 0.95718 0.03642 0.03717
 O151 O 0.53215 0.45745 0.51724
 O152 O 0.46203 0.51108 0.56080
 O153 O 0.46448 0.45842 0.50967
 O154 O 0.52983 0.51076 0.56917
 O155 O 0.53487 0.53816 0.49867
 O156 O 0.46908 0.48599 0.43927
 O157 O 0.46688 0.53891 0.49069
 O158 O 0.53743 0.48552 0.44743
 Cu159 Cu 0.49680 0.48165 0.54632
 Cu160 Cu 0.50253 0.51489 0.46191
 C161 C 0.54650 0.46220 0.47478
 C162 C 0.45261 0.53418 0.53323
 C163 C 0.45569 0.46326 0.46436
 C164 C 0.54321 0.53355 0.54422
 O165 O -0.03341 0.53939 0.00951
 O166 O 0.03679 0.48662 0.05533
 O167 O 0.03408 0.53967 0.00431
 O168 O -0.03175 0.48667 0.06151
 O169 O -0.03525 0.45941 -0.00931
 O170 O 0.03284 0.51102 -0.06530
 O171 O 0.03250 0.45782 -0.01387
 O172 O -0.03560 0.51199 -0.06129
 Cu173 Cu 0.00172 0.51576 0.03986
 Cu174 Cu -0.00159 0.48230 -0.04457
 C175 C -0.04602 0.53495 -0.03404
 C176 C 0.04615 0.46294 0.02880
 C177 C 0.04446 0.53454 -0.04029
 C178 C -0.04476 0.46407 0.03585
 O179 O 0.52884 0.98833 0.56745
 O180 O 0.46523 1.04177 0.50712
 O181 O 0.46109 0.98913 0.55850
 O182 O 0.53279 1.04139 0.51555
 O183 O 0.53714 1.01355 0.44536
 O184 O 0.46585 0.96086 0.48878
 O185 O 0.46877 1.01360 0.43716
 O186 O 0.53384 0.96098 0.49687
 Cu187 Cu 0.49665 1.01793 0.54423
 Cu188 Cu 0.50183 0.98448 0.45994
 C189 C 0.54200 0.96545 0.54255
 C190 C 0.45618 1.03682 0.46193
 C191 C 0.45147 0.96595 0.53113
 C192 C 0.54690 1.03658 0.47294
 C193 C 1.14651 0.12406 0.10737
 N194 N 1.17326 0.11502 0.13764
 N195 N 1.19447 0.13672 0.15800
 C196 C 1.18965 0.16840 0.14968
 N197 N 1.16278 0.17711 0.11911
 N198 N 1.14181 0.15550 0.09821
 C199 C 1.12228 0.10053 0.08592
 N200 N 1.10155 0.10852 0.04655
 N201 N 1.07848 0.08777 0.02811
 C202 C 1.07498 0.05838 0.04872
 N203 N 1.09571 0.05033 0.08812
 N204 N 1.11910 0.07099 0.10623
 C205 C 0.63357 0.62170 0.63864
 N206 N 0.65761 0.63845 0.61169
 N207 N 0.67741 0.66053 0.63379
 C208 C 0.67371 0.66684 0.68355
 N209 N 0.64950 0.65022 0.71042
 N210 N 0.62992 0.62793 0.68842
 C211 C 0.61116 0.59790 0.61406
 N212 N 0.59189 0.57707 0.64177
 N213 N 0.57078 0.55610 0.61945
 C214 C 0.56797 0.55537 0.56864
 N215 N 0.58727 0.57617 0.54093
 N216 N 0.60862 0.59695 0.56322
 C217 C -0.13848 0.37765 0.12829
 N218 N -0.14986 0.38242 0.17609
 N219 N -0.16905 0.36035 0.19948
 C220 C -0.17741 0.33265 0.17600
 N221 N -0.16635 0.32807 0.12799
 N222 N -0.14725 0.35016 0.10458
 C223 C -0.11565 0.40109 0.10343
 N224 N -0.10469 0.39638 0.05542
 N225 N -0.08259 0.41677 0.03361
 C226 C -0.07055 0.44258 0.05904
 N227 N -0.08167 0.44741 0.10695
 N228 N -0.10385 0.42705 0.12873
 C229 C 0.35175 0.87864 0.60673
 N230 N 0.33680 0.88327 0.65250
 N231 N 0.31656 0.86086 0.67308
 C232 C 0.31064 0.83295 0.64873
 N233 N 0.32519 0.82854 0.60261
 N234 N 0.34539 0.85096 0.58201
 C235 C 0.37597 0.90237 0.58561
 N236 N 0.39145 0.89745 0.54026
 N237 N 0.41501 0.91806 0.52241
 C238 C 0.42399 0.94428 0.54933
 N239 N 0.40831 0.94933 0.59448
 N240 N 0.38471 0.92876 0.61229
 C241 C -0.14161 0.62387 -0.11424
 N242 N -0.14368 0.65349 -0.09416
 N243 N -0.16402 0.67556 -0.11499
 C244 C -0.18328 0.66899 -0.15668
 N245 N -0.18134 0.63912 -0.17634
 N246 N -0.16083 0.61706 -0.15571
 C247 C -0.11808 0.60000 -0.09232
 N248 N -0.11122 0.57235 -0.11689
 N249 N -0.08862 0.55137 -0.09798
 C250 C -0.07229 0.55719 -0.05364
 N251 N -0.07942 0.58469 -0.02885
 N252 N -0.10184 0.60574 -0.04790
 C253 C 0.36551 1.12443 0.36764
 N254 N 0.34569 1.11645 0.32727
 N255 N 0.32646 1.13838 0.30388
 C256 C 0.32664 1.16927 0.31945
 N257 N 0.34636 1.17695 0.36019
 N258 N 0.36529 1.15503 0.38385
 C259 C 0.38772 1.10082 0.39282
 N260 N 0.40233 1.10767 0.43798
 N261 N 0.42365 1.08698 0.46026
 C262 C 0.43142 1.05878 0.43800
 N263 N 0.41679 1.05184 0.39283
 N264 N 0.39519 1.07246 0.37071
 C265 C 1.13433 -0.12449 -0.13301
 N266 N 1.12948 -0.15591 -0.12371
 N267 N 1.14876 -0.17769 -0.14741
 C268 C 1.17403 -0.16914 -0.18104
 N269 N 1.17891 -0.13750 -0.18970
 N270 N 1.15937 -0.11564 -0.16653
 C271 C 1.11232 -0.10066 -0.10779
 N272 N 1.10879 -0.07089 -0.12701
 N273 N 1.08758 -0.04979 -0.10505
 C274 C 1.06953 -0.05762 -0.06273
 N275 N 1.07340 -0.08727 -0.04326
 N276 N 1.09426 -0.10845 -0.06553
 C277 C 0.64395 0.37405 0.39646
 N278 N 0.63565 0.34264 0.39729
 N279 N 0.65644 0.32135 0.37519
 C280 C 0.68662 0.33049 0.35191
 N281 N 0.69510 0.36195 0.35183
 N282 N 0.67404 0.38336 0.37328
 C283 C 0.62003 0.39751 0.41874
 N284 N 0.61958 0.42803 0.40193
 N285 N 0.59640 0.44881 0.42018
 C286 C 0.57322 0.43992 0.45643
 N287 N 0.57402 0.40953 0.47372
 N288 N 0.59684 0.38864 0.45496
 C289 C 0.85631 -0.12149 -0.11281
 N290 N 0.84381 -0.11780 -0.16016
 N291 N 0.82310 -0.13986 -0.18058
 C292 C 0.81417 -0.16644 -0.15441
 N293 N 0.82653 -0.17002 -0.10695
 N294 N 0.84721 -0.14795 -0.08653
 C295 C 0.88044 -0.09793 -0.09113
 N296 N 0.89347 -0.10199 -0.04415
 N297 N 0.91657 -0.08138 -0.02529
 C298 C 0.92748 -0.05596 -0.05273
 N299 N 0.91427 -0.05178 -0.09957
 N300 N 0.89115 -0.07238 -0.11841
 C301 C 0.36180 0.37752 0.37146
 N302 N 0.35394 0.34956 0.39448
 N303 N 0.33456 0.32766 0.37130
 C304 C 0.32220 0.33292 0.32426
 N305 N 0.32966 0.36107 0.30144
 N306 N 0.34918 0.38295 0.32459
 C307 C 0.38487 0.40074 0.39616
 N308 N 0.39660 0.42689 0.37118
 N309 N 0.41889 0.44707 0.39303
 C310 C 0.43015 0.44185 0.44067
 N311 N 0.41819 0.41585 0.46572
 N312 N 0.39602 0.39564 0.44384
 C313 C 0.13445 0.62368 -0.13359
 N314 N 0.12961 0.65509 -0.12422
 N315 N 0.14893 0.67692 -0.14779
 C316 C 0.17426 0.66845 -0.18136
 N317 N 0.17912 0.63682 -0.19010
 N318 N 0.15952 0.61490 -0.16706
 C319 C 0.11238 0.59983 -0.10843
 N320 N 0.10852 0.57012 -0.12787
 N321 N 0.08716 0.54907 -0.10597
 C322 C 0.06930 0.55688 -0.06350
 N323 N 0.07351 0.58645 -0.04381
 N324 N 0.09451 0.60759 -0.06601
 C325 C 0.64601 1.12401 0.39607
 N326 N 0.67272 1.11481 0.36561
 N327 N 0.69377 1.13639 0.34448
 C328 C 0.68880 1.16811 0.35215
 N329 N 0.66198 1.17701 0.38296
 N330 N 0.64117 1.15551 0.40463
 C331 C 0.62177 1.10055 0.41783
 N332 N 0.60076 1.10861 0.45708
 N333 N 0.57750 1.08790 0.47541
 C334 C 0.57413 1.05850 0.45476
 N335 N 0.59517 1.05039 0.41555
 N336 N 0.61873 1.07099 0.39759
 C337 C 0.14246 0.37453 0.10846
 N338 N 0.13439 0.34308 0.10685
 N339 N 0.15529 0.32169 0.12832
 C340 C 0.18536 0.33079 0.15166
 N341 N 0.19359 0.36230 0.15253
 N342 N 0.17242 0.38379 0.13173
 C343 C 0.11860 0.39803 0.08638
 N344 N 0.11799 0.42852 0.10336
 N345 N 0.09507 0.44938 0.08482
 C346 C 0.07235 0.44057 0.04814
 N347 N 0.07329 0.41019 0.03077
 N348 N 0.09583 0.38924 0.04979
 C349 C 0.63131 0.87721 0.63813
 N350 N 0.65516 0.86015 0.61140
 N351 N 0.67497 0.83830 0.63388
 C352 C 0.67144 0.83251 0.68382
 N353 N 0.64744 0.84946 0.71049
 N354 N 0.62787 0.87152 0.68810
 C355 C 0.60904 0.90089 0.61320
 N356 N 0.58999 0.92199 0.64063
 N357 N 0.56913 0.94297 0.61804
 C358 C 0.56635 0.94344 0.56721
 N359 N 0.58541 0.92235 0.53977
 N360 N 0.60651 0.90156 0.56235
 C361 C 0.86401 0.12298 0.13003
 N362 N 0.85243 0.11801 0.17768
 N363 N 0.83309 0.13991 0.20111
 C364 C 0.82477 0.16765 0.17783
 N365 N 0.83602 0.17242 0.12995
 N366 N 0.85527 0.15050 0.10650
 C367 C 0.88686 0.09964 0.10509
 N368 N 0.89797 0.10446 0.05718
 N369 N 0.91995 0.08405 0.03525
 C370 C 0.93170 0.05811 0.06049
 N371 N 0.92044 0.05318 0.10831
 N372 N 0.89840 0.07355 0.13019
 C373 C 0.35312 0.62176 0.60808
 N374 N 0.33803 0.61717 0.65377
 N375 N 0.31758 0.63947 0.67403
 C376 C 0.31156 0.66725 0.64944
 N377 N 0.32626 0.67162 0.60340
 N378 N 0.34668 0.64930 0.58311
 C379 C 0.37746 0.59808 0.58725
 N380 N 0.38612 0.57180 0.61415
 N381 N 0.40967 0.55118 0.59654
 C382 C 0.42539 0.55606 0.55136
 N383 N 0.41652 0.58219 0.52424
 N384 N 0.39300 0.60285 0.54190
   
