data_POSCAR
  _audit_creation_date              2014-09-24
  _audit_creation_method            'ToBaCCo'
  _symmetry_space_group_name_H-M    'P1'
  _symmetry_Int_Tables_number       1
  _symmetry_cell_setting            triclinic
  loop_
  _symmetry_equiv_pos_as_xyz
 x,y,z
_cell_length_a 24.0005
_cell_length_b 23.9998
_cell_length_c 23.9835
_cell_angle_alpha 89.946700
_cell_angle_beta 90.157300
_cell_angle_gamma 89.999900
loop_
  _atom_site_label
  _atom_site_type_symbol
  _atom_site_fract_x
  _atom_site_fract_y
  _atom_site_fract_z
O1 O -0.14379 0.07519 0.00145
 O2 O 0.14268 0.07529 -0.00226
 O3 O -0.00247 0.14307 0.07491
 O4 O 0.00124 0.14329 -0.07602
 O5 O 0.00116 0.07554 -0.14388
 O6 O -0.00239 0.07511 0.14288
 O7 O 0.07482 0.14320 -0.00238
 O8 O -0.07586 0.14308 0.00152
 Zr9 Zr -0.00054 0.09785 -0.00053
 O10 O 0.04996 0.05057 -0.05105
 O11 O -0.05098 0.05032 0.04999
 C12 C -0.12743 0.12676 0.00254
 C13 C 0.12640 0.12690 -0.00327
 C14 C -0.00342 0.12671 0.12654
 C15 C 0.00212 0.12726 -0.12778
 H16 H 0.07363 0.07395 0.07380
 O17 O 0.04980 0.05019 0.04999
 H18 H -0.07483 0.07409 -0.07475
 O19 O -0.05102 0.05028 -0.05090
 O20 O 0.14256 -0.07538 0.00179
 O21 O -0.14392 -0.07560 -0.00250
 O22 O 0.07497 -0.00233 0.14295
 O23 O 0.07466 0.00192 -0.14375
 O24 O -0.07612 -0.00198 -0.14383
 O25 O -0.07570 0.00187 0.14280
 O26 O 0.00136 -0.14351 0.07530
 O27 O -0.00284 -0.14323 -0.07564
 O28 O 0.00150 -0.07570 0.14310
 O29 O -0.00284 -0.07528 -0.14364
 O30 O 0.14271 -0.00218 0.07504
 O31 O -0.14371 0.00189 0.07479
 O32 O -0.14385 -0.00217 -0.07607
 O33 O 0.14259 0.00183 -0.07566
 O34 O 0.07470 -0.14334 0.00187
 O35 O -0.07613 -0.14344 -0.00228
 Zr36 Zr 0.09730 -0.00006 -0.00035
 Zr37 Zr -0.09852 -0.00018 -0.00056
 Zr38 Zr -0.00045 -0.00025 0.09759
 Zr39 Zr -0.00069 0.00006 -0.09844
 Zr40 Zr -0.00069 -0.09809 -0.00024
 O41 O -0.05116 -0.05061 -0.05103
 O42 O 0.05001 -0.05070 0.05025
 C43 C 0.12627 -0.12696 0.00288
 C44 C -0.12785 -0.12734 -0.00332
 C45 C 0.12650 -0.00330 0.12663
 C46 C 0.12628 0.00281 -0.12733
 C47 C -0.12778 -0.00308 -0.12776
 C48 C -0.12730 0.00291 0.12642
 C49 C 0.00238 -0.12744 0.12706
 C50 C -0.00388 -0.12685 -0.12725
 H51 H -0.07470 -0.07434 0.07379
 O52 O -0.05095 -0.05055 0.05000
 H53 H 0.07333 -0.07417 -0.07440
 O54 O 0.04957 -0.05040 -0.05065
 O55 O 0.35671 0.57586 0.00219
 O56 O 0.64361 0.57603 -0.00142
 O57 O 0.49831 0.64380 0.07605
 O58 O 0.50215 0.64368 -0.07495
 O59 O 0.50200 0.57574 -0.14281
 O60 O 0.49836 0.57591 0.14387
 O61 O 0.57555 0.64408 -0.00143
 O62 O 0.42479 0.64392 0.00238
 Zr63 Zr 0.50016 0.59857 0.00053
 O64 O 0.55050 0.55106 -0.05003
 O65 O 0.44959 0.55106 0.05090
 C66 C 0.37344 0.62720 0.00327
 C67 C 0.62695 0.62744 -0.00243
 C68 C 0.49741 0.62765 0.12779
 C69 C 0.50314 0.62727 -0.12650
 H70 H 0.57440 0.57469 0.07478
 O71 O 0.55060 0.55093 0.05093
 H72 H 0.42591 0.57468 -0.07385
 O73 O 0.44970 0.55091 -0.04996
 O74 O 0.64344 0.42522 0.00267
 O75 O 0.35658 0.42517 -0.00175
 O76 O 0.57568 0.49848 0.14390
 O77 O 0.57513 0.50250 -0.14288
 O78 O 0.42440 0.49869 -0.14312
 O79 O 0.42494 0.50255 0.14369
 O80 O 0.50214 0.35736 0.07585
 O81 O 0.49803 0.35725 -0.07499
 O82 O 0.50232 0.42520 0.14379
 O83 O 0.49787 0.42515 -0.14296
 O84 O 0.64343 0.49854 0.07616
 O85 O 0.35692 0.50248 0.07567
 O86 O 0.35664 0.49873 -0.07540
 O87 O 0.64320 0.50259 -0.07492
 O88 O 0.57532 0.35719 0.00257
 O89 O 0.42464 0.35712 -0.00160
 Zr90 Zr 0.59814 0.50061 0.00057
 Zr91 Zr 0.40202 0.50053 0.00023
 Zr92 Zr 0.50024 0.50057 0.09843
 Zr93 Zr 0.49986 0.50048 -0.09754
 Zr94 Zr 0.50000 0.40256 0.00042
 O95 O 0.44932 0.44993 -0.05026
 O96 O 0.55066 0.45004 0.05102
 C97 C 0.62668 0.37388 0.00364
 C98 C 0.37326 0.37379 -0.00268
 C99 C 0.62737 0.49752 0.12787
 C100 C 0.62676 0.50353 -0.12656
 C101 C 0.37268 0.49781 -0.12713
 C102 C 0.37332 0.50349 0.12731
 C103 C 0.50326 0.37364 0.12744
 C104 C 0.49699 0.37355 -0.12664
 H105 H 0.42606 0.42645 0.07452
 O106 O 0.44979 0.45023 0.05072
 H107 H 0.57406 0.42647 -0.07362
 O108 O 0.55035 0.45024 -0.04982
 O109 O -0.14347 0.57567 0.50170
 O110 O 0.14304 0.57539 0.49822
 O111 O -0.00222 0.64345 0.57513
 O112 O 0.00165 0.64371 0.42433
 O113 O 0.00158 0.57573 0.35623
 O114 O -0.00208 0.57543 0.64338
 O115 O 0.07519 0.64333 0.49794
 O116 O -0.07567 0.64347 0.50166
 Zr117 Zr -0.00023 0.59813 0.49981
 O118 O 0.05031 0.55063 0.44945
 O119 O -0.05056 0.55060 0.55048
 C120 C -0.12738 0.62739 0.50260
 C121 C 0.12675 0.62696 0.49709
 C122 C -0.00319 0.62674 0.62652
 C123 C 0.00256 0.62714 0.37287
 H124 H 0.07398 0.57419 0.57420
 O125 O 0.05014 0.55039 0.55042
 H126 H -0.07445 0.57435 0.42559
 O127 O -0.05062 0.55052 0.44939
 O128 O 0.14314 0.42465 0.50225
 O129 O -0.14339 0.42480 0.49782
 O130 O 0.07557 0.49818 0.64380
 O131 O 0.07517 0.50221 0.35664
 O132 O -0.07585 0.49818 0.35634
 O133 O -0.07543 0.50200 0.64346
 O134 O 0.00179 0.35651 0.57556
 O135 O -0.00223 0.35674 0.42474
 O136 O 0.00189 0.42444 0.64371
 O137 O -0.00232 0.42476 0.35651
 O138 O 0.14346 0.49821 0.57574
 O139 O -0.14351 0.50218 0.57518
 O140 O -0.14374 0.49819 0.42442
 O141 O 0.14321 0.50208 0.42497
 O142 O 0.07526 0.35678 0.50215
 O143 O -0.07548 0.35692 0.49797
 Zr144 Zr 0.09783 0.50005 0.50025
 Zr145 Zr -0.09817 0.50021 0.49985
 Zr146 Zr -0.00000 0.49998 0.59828
 Zr147 Zr -0.00029 0.50022 0.40174
 Zr148 Zr -0.00012 0.40211 0.50013
 O149 O -0.05069 0.44968 0.44941
 O150 O 0.05051 0.44946 0.55084
 C151 C 0.12685 0.37306 0.50316
 C152 C -0.12704 0.37323 0.49688
 C153 C 0.12694 0.49729 0.62717
 C154 C 0.12654 0.50315 0.37352
 C155 C -0.12719 0.49719 0.37302
 C156 C -0.12681 0.50310 0.62663
 C157 C 0.00277 0.37305 0.62702
 C158 C -0.00330 0.37340 0.37331
 H159 H -0.07420 0.42599 0.57410
 O160 O -0.05043 0.44979 0.55037
 H161 H 0.07386 0.42604 0.42603
 O162 O 0.05007 0.44984 0.44973
 O163 O 0.35701 0.07481 0.50177
 O164 O 0.64385 0.07483 0.49814
 O165 O 0.49858 0.14294 0.57538
 O166 O 0.50234 0.14287 0.42466
 O167 O 0.50230 0.07489 0.35654
 O168 O 0.49867 0.07490 0.64354
 O169 O 0.57574 0.14284 0.49804
 O170 O 0.42503 0.14288 0.50183
 Zr171 Zr 0.50042 0.09751 0.50002
 O172 O 0.55089 0.04995 0.44955
 O173 O 0.44993 0.05003 0.55056
 C174 C 0.37367 0.12618 0.50276
 C175 C 0.62708 0.12616 0.49707
 C176 C 0.49765 0.12628 0.62681
 C177 C 0.50332 0.12621 0.37330
 H178 H 0.57469 0.07357 0.57425
 O179 O 0.55090 0.04978 0.55042
 H180 H 0.42625 0.07357 0.42573
 O181 O 0.45008 0.04977 0.44955
 O182 O 0.64408 -0.07600 0.50212
 O183 O 0.35717 -0.07590 0.49790
 O184 O 0.57601 -0.00249 0.64364
 O185 O 0.57564 0.00159 0.35657
 O186 O 0.42494 -0.00257 0.35644
 O187 O 0.42521 0.00133 0.64348
 O188 O 0.50279 -0.14387 0.57534
 O189 O 0.49856 -0.14405 0.42448
 O190 O 0.50275 -0.07583 0.64342
 O191 O 0.49841 -0.07596 0.35637
 O192 O 0.64400 -0.00260 0.57565
 O193 O 0.35710 0.00129 0.57527
 O194 O 0.35701 -0.00256 0.42449
 O195 O 0.64381 0.00158 0.42474
 O196 O 0.57606 -0.14407 0.50197
 O197 O 0.42524 -0.14395 0.49790
 Zr198 Zr 0.59861 -0.00059 0.50013
 Zr199 Zr 0.40244 -0.00055 0.49992
 Zr200 Zr 0.50059 -0.00049 0.59815
 Zr201 Zr 0.50037 -0.00056 0.40185
 Zr202 Zr 0.50063 -0.09864 0.49992
 O203 O 0.44992 -0.05108 0.44938
 O204 O 0.55109 -0.05106 0.55063
 C205 C 0.62746 -0.12740 0.50302
 C206 C 0.37389 -0.12723 0.49689
 C207 C 0.62734 -0.00355 0.62702
 C208 C 0.62700 0.00264 0.37334
 C209 C 0.37363 -0.00358 0.37314
 C210 C 0.37381 0.00226 0.62671
 C211 C 0.50383 -0.12712 0.62667
 C212 C 0.49750 -0.12737 0.37304
 H213 H 0.42657 -0.07469 0.57405
 O214 O 0.45033 -0.05091 0.55027
 H215 H 0.57462 -0.07465 0.42586
 O216 O 0.55087 -0.05089 0.44963
 C217 C 0.25313 0.25362 -0.00561
 C218 C 0.26812 0.19728 -0.00536
 C219 C 0.22698 0.15603 -0.00494
 C220 C 0.17012 0.17060 -0.00469
 C221 C 0.15555 0.22746 -0.00532
 C222 C 0.19679 0.26860 -0.00575
 C223 C 0.29553 0.29603 -0.00502
 C224 C 0.33103 0.33155 -0.00414
 H225 H 0.31162 0.18522 -0.00525
 H226 H 0.23980 0.11277 -0.00454
 H227 H 0.11229 0.24029 -0.00523
 H228 H 0.18473 0.31211 -0.00593
 C229 C 0.25364 -0.24686 0.49426
 C230 C 0.26851 -0.30320 0.49441
 C231 C 0.22728 -0.34427 0.49502
 C232 C 0.17049 -0.32949 0.49555
 C233 C 0.15604 -0.27261 0.49505
 C234 C 0.19739 -0.23164 0.49444
 C235 C 0.29612 -0.20470 0.49470
 C236 C 0.33170 -0.16935 0.49549
 H237 H 0.31198 -0.31538 0.49431
 H238 H 0.23999 -0.38756 0.49533
 H239 H 0.11283 -0.25966 0.49539
 H240 H 0.18549 -0.18808 0.49436
 C241 C 0.74726 0.74780 -0.00546
 C242 C 0.73235 0.80414 -0.00559
 C243 C 0.77348 0.84544 -0.00523
 C244 C 0.83057 0.83110 -0.00465
 C245 C 0.84490 0.77400 -0.00496
 C246 C 0.80359 0.73288 -0.00532
 C247 C 0.70479 0.70532 -0.00481
 C248 C 0.66924 0.66976 -0.00390
 H249 H 0.68884 0.81619 -0.00572
 H250 H 0.76027 0.88860 -0.00514
 H251 H 0.88806 0.76078 -0.00464
 H252 H 0.81565 0.68937 -0.00523
 C253 C 0.74670 0.24641 0.49420
 C254 C 0.73150 0.30267 0.49437
 C255 C 0.77251 0.34400 0.49490
 C256 C 0.82937 0.32951 0.49533
 C257 C 0.84413 0.27271 0.49479
 C258 C 0.80302 0.23151 0.49425
 C259 C 0.70451 0.20395 0.49475
 C260 C 0.66916 0.16838 0.49561
 H261 H 0.68796 0.31460 0.49436
 H262 H 0.75958 0.38722 0.49525
 H263 H 0.88741 0.25998 0.49504
 H264 H 0.81518 0.18802 0.49415
 C265 C 0.74633 0.25359 0.00604
 C266 C 0.80266 0.26848 0.00599
 C267 C 0.84376 0.22728 0.00515
 C268 C 0.82900 0.17048 0.00429
 C269 C 0.77213 0.15600 0.00472
 C270 C 0.73114 0.19733 0.00556
 C271 C 0.70413 0.29606 0.00575
 C272 C 0.66877 0.33165 0.00503
 H273 H 0.81482 0.31196 0.00633
 H274 H 0.88705 0.24001 0.00494
 H275 H 0.75921 0.11277 0.00416
 H276 H 0.68759 0.18540 0.00556
 C277 C 0.74779 -0.24773 0.50529
 C278 C 0.80411 -0.23281 0.50510
 C279 C 0.84541 -0.27394 0.50449
 C280 C 0.83106 -0.33103 0.50398
 C281 C 0.77397 -0.34537 0.50453
 C282 C 0.73285 -0.30405 0.50514
 C283 C 0.70533 -0.20525 0.50497
 C284 C 0.66977 -0.16970 0.50430
 H285 H 0.81617 -0.18931 0.50520
 H286 H 0.88856 -0.26073 0.50418
 H287 H 0.76074 -0.38851 0.50426
 H288 H 0.68934 -0.31610 0.50528
 C289 C 0.25354 0.24631 0.50548
 C290 C 0.26855 0.30264 0.50546
 C291 C 0.22742 0.34389 0.50503
 C292 C 0.17056 0.32934 0.50457
 C293 C 0.15598 0.27248 0.50494
 C294 C 0.19721 0.23133 0.50536
 C295 C 0.29593 0.20391 0.50493
 C296 C 0.33143 0.16840 0.50412
 H297 H 0.31206 0.31469 0.50552
 H298 H 0.24026 0.38715 0.50481
 H299 H 0.11272 0.25966 0.50464
 H300 H 0.18515 0.18783 0.50536
 C301 C 0.25318 0.74685 0.00594
 C302 C 0.26804 0.80319 0.00591
 C303 C 0.22681 0.84427 0.00526
 C304 C 0.17001 0.82948 0.00456
 C305 C 0.15557 0.77261 0.00499
 C306 C 0.19692 0.73163 0.00565
 C307 C 0.29566 0.70467 0.00549
 C308 C 0.33124 0.66932 0.00468
 H309 H 0.31151 0.81537 0.00612
 H310 H 0.23951 0.88756 0.00503
 H311 H 0.11235 0.75966 0.00455
 H312 H 0.18502 0.68808 0.00565
 C313 C -0.00612 0.25329 0.25325
 C314 C -0.00605 0.26833 0.19689
 C315 C -0.00551 0.22723 0.15563
 C316 C -0.00495 0.17037 0.17025
 C317 C -0.00540 0.15575 0.22714
 C318 C -0.00595 0.19696 0.26829
 C319 C -0.00560 0.29565 0.29565
 C320 C -0.00476 0.33116 0.33114
 H321 H -0.00616 0.31185 0.18481
 H322 H -0.00526 0.24009 0.11235
 H323 H -0.00508 0.11248 0.23999
 H324 H -0.00599 0.18487 0.31183
 C325 C 0.49479 0.24667 0.74675
 C326 C 0.49428 0.30300 0.73165
 C327 C 0.49466 0.34431 0.77273
 C328 C 0.49560 0.32980 0.82966
 C329 C 0.49575 0.27295 0.84434
 C330 C 0.49537 0.23176 0.80315
 C331 C 0.49539 0.20418 0.70443
 C332 C 0.49625 0.16857 0.66900
 H333 H 0.49383 0.31501 0.68809
 H334 H 0.49445 0.38756 0.75982
 H335 H 0.49643 0.26016 0.88764
 H336 H 0.49578 0.18827 0.81532
 C337 C -0.00650 0.74670 0.74628
 C338 C -0.00648 0.80298 0.73115
 C339 C -0.00601 0.84419 0.77224
 C340 C -0.00548 0.82954 0.82912
 C341 C -0.00594 0.77271 0.84381
 C342 C -0.00642 0.73163 0.80261
 C343 C -0.00580 0.70439 0.70400
 C344 C -0.00479 0.66891 0.66859
 H345 H -0.00654 0.81502 0.68760
 H346 H -0.00576 0.88745 0.75938
 H347 H -0.00564 0.75988 0.88711
 H348 H -0.00642 0.68811 0.81469
 C349 C 0.49494 -0.24765 0.25273
 C350 C 0.49509 -0.23267 0.19637
 C351 C 0.49561 -0.27374 0.15505
 C352 C 0.49607 -0.33085 0.16940
 C353 C 0.49553 -0.34526 0.22652
 C354 C 0.49501 -0.30399 0.26767
 C355 C 0.49539 -0.20521 0.29520
 C356 C 0.49615 -0.16965 0.33074
 H357 H 0.49505 -0.18915 0.18431
 H358 H 0.49591 -0.26048 0.11187
 H359 H 0.49574 -0.38843 0.23974
 H360 H 0.49489 -0.31608 0.31121
 C361 C 0.00495 0.74763 0.25226
 C362 C 0.00474 0.73273 0.19588
 C363 C 0.00420 0.77386 0.15448
 C364 C 0.00378 0.83096 0.16874
 C365 C 0.00439 0.84530 0.22587
 C366 C 0.00493 0.80399 0.26709
 C367 C 0.00455 0.70512 0.29486
 C368 C 0.00383 0.66953 0.33049
 H369 H 0.00476 0.68922 0.18386
 H370 H 0.00387 0.76063 0.11131
 H371 H 0.00420 0.88846 0.23904
 H372 H 0.00510 0.81606 0.31061
 C373 C 0.50657 -0.24668 0.74673
 C374 C 0.50696 -0.30296 0.73179
 C375 C 0.50617 -0.34404 0.77301
 C376 C 0.50490 -0.32924 0.82979
 C377 C 0.50492 -0.27240 0.84430
 C378 C 0.50571 -0.23143 0.80296
 C379 C 0.50616 -0.20454 0.70432
 C380 C 0.50533 -0.16918 0.66880
 H381 H 0.50760 -0.31508 0.68828
 H382 H 0.50630 -0.38733 0.76031
 H383 H 0.50402 -0.25948 0.88753
 H384 H 0.50536 -0.18788 0.81484
 C385 C 0.50611 0.24667 0.25371
 C386 C 0.50548 0.23184 0.19735
 C387 C 0.50490 0.27311 0.15625
 C388 C 0.50487 0.32989 0.17104
 C389 C 0.50590 0.34430 0.22795
 C390 C 0.50648 0.30291 0.26895
 C391 C 0.50560 0.20413 0.29588
 C392 C 0.50475 0.16847 0.33120
 H393 H 0.50517 0.18838 0.18516
 H394 H 0.50418 0.26043 0.11294
 H395 H 0.50599 0.38752 0.24089
 H396 H 0.50695 0.31477 0.31253
 C397 C 0.00490 0.25237 0.74734
 C398 C 0.00465 0.19606 0.73237
 C399 C 0.00401 0.15466 0.77349
 C400 C 0.00353 0.16890 0.83063
 C401 C 0.00415 0.22597 0.84503
 C402 C 0.00479 0.26717 0.80373
 C403 C 0.00462 0.29496 0.70487
 C404 C 0.00399 0.33062 0.66933
 H405 H 0.00473 0.18408 0.68882
 H406 H 0.00367 0.11153 0.76023
 H407 H 0.00392 0.23911 0.88822
 H408 H 0.00498 0.31066 0.81584
 C409 C 0.25337 -0.00636 0.25317
 C410 C 0.26825 -0.00615 0.19684
 C411 C 0.22703 -0.00550 0.15562
 C412 C 0.17024 -0.00498 0.17028
 C413 C 0.15579 -0.00559 0.22715
 C414 C 0.19713 -0.00624 0.26826
 C415 C 0.29583 -0.00587 0.29548
 C416 C 0.33140 -0.00503 0.33095
 H417 H 0.31173 -0.00622 0.18477
 H418 H 0.23972 -0.00514 0.11233
 H419 H 0.11257 -0.00529 0.24000
 H420 H 0.18523 -0.00638 0.31181
 C421 C 0.24764 0.49518 0.74767
 C422 C 0.23280 0.49545 0.80402
 C423 C 0.27398 0.49605 0.84542
 C424 C 0.33106 0.49646 0.83117
 C425 C 0.34533 0.49584 0.77406
 C426 C 0.30396 0.49524 0.73284
 C427 C 0.20506 0.49548 0.70511
 C428 C 0.16939 0.49610 0.66953
 H429 H 0.18931 0.49541 0.81603
 H430 H 0.26081 0.49641 0.88858
 H431 H 0.38847 0.49603 0.76091
 H432 H 0.31596 0.49504 0.68932
 C433 C 0.74749 -0.00612 0.74735
 C434 C 0.73254 -0.00606 0.80363
 C435 C 0.77366 -0.00537 0.84499
 C436 C 0.83069 -0.00464 0.83066
 C437 C 0.84505 -0.00513 0.77359
 C438 C 0.80374 -0.00583 0.73242
 C439 C 0.70509 -0.00571 0.70489
 C440 C 0.66957 -0.00494 0.66931
 H441 H 0.68904 -0.00629 0.81560
 H442 H 0.76048 -0.00516 0.88816
 H443 H 0.88819 -0.00473 0.76043
 H444 H 0.81572 -0.00587 0.68889
 C445 C -0.24772 0.49463 0.25282
 C446 C -0.23285 0.49489 0.19651
 C447 C -0.27401 0.49553 0.15517
 C448 C -0.33106 0.49600 0.16949
 C449 C -0.34535 0.49533 0.22659
 C450 C -0.30399 0.49469 0.26776
 C451 C -0.20520 0.49504 0.29527
 C452 C -0.16956 0.49581 0.33078
 H453 H -0.18936 0.49485 0.18450
 H454 H -0.26086 0.49591 0.11200
 H455 H -0.38849 0.49555 0.23976
 H456 H -0.31595 0.49450 0.31129
 C457 C 0.25333 0.00503 0.74642
 C458 C 0.19702 0.00489 0.73114
 C459 C 0.15565 0.00450 0.77210
 C460 C 0.17007 0.00419 0.82908
 C461 C 0.22691 0.00468 0.84394
 C462 C 0.26815 0.00507 0.80288
 C463 C 0.29590 0.00446 0.70422
 C464 C 0.33153 0.00363 0.66887
 H465 H 0.18506 0.00485 0.68755
 H466 H 0.11242 0.00420 0.75906
 H467 H 0.23964 0.00453 0.88729
 H468 H 0.31163 0.00517 0.81519
 C469 C 0.24675 0.50601 0.25380
 C470 C 0.30308 0.50649 0.26895
 C471 C 0.34430 0.50600 0.22788
 C472 C 0.32968 0.50497 0.17096
 C473 C 0.27282 0.50486 0.15626
 C474 C 0.23172 0.50535 0.19742
 C475 C 0.20436 0.50546 0.29609
 C476 C 0.16880 0.50460 0.33145
 H477 H 0.31515 0.50699 0.31251
 H478 H 0.38757 0.50619 0.24080
 H479 H 0.25995 0.50412 0.11295
 H480 H 0.18820 0.50495 0.18526
 C481 C 0.74657 0.00568 0.25316
 C482 C 0.80293 0.00572 0.26815
 C483 C 0.84399 0.00517 0.22698
 C484 C 0.82917 0.00451 0.17011
 C485 C 0.77229 0.00488 0.15553
 C486 C 0.73133 0.00543 0.19683
 C487 C 0.70441 0.00510 0.29560
 C488 C 0.66907 0.00418 0.33115
 H489 H 0.81514 0.00589 0.31168
 H490 H 0.88729 0.00499 0.23978
 H491 H 0.75931 0.00447 0.11226
 H492 H 0.68777 0.00538 0.18482
 C493 C -0.24685 0.50598 0.74663
 C494 C -0.30322 0.50647 0.73163
 C495 C -0.34437 0.50600 0.77279
 C496 C -0.32965 0.50499 0.82969
 C497 C -0.27275 0.50488 0.84427
 C498 C -0.23172 0.50533 0.80300
 C499 C -0.20453 0.50541 0.70423
 C500 C -0.16904 0.50454 0.66877
 H501 H -0.31539 0.50695 0.68809
 H502 H -0.38766 0.50620 0.75996
 H503 H -0.25980 0.50415 0.88755
 H504 H -0.18819 0.50493 0.81508
   
