data_POSCAR
  _audit_creation_date              2014-09-24
  _audit_creation_method            'ToBaCCo'
  _symmetry_space_group_name_H-M    'P1'
  _symmetry_Int_Tables_number       1
  _symmetry_cell_setting            triclinic
  loop_
  _symmetry_equiv_pos_as_xyz
 x,y,z
_cell_length_a 34.9190
_cell_length_b 32.8754
_cell_length_c 35.2091
_cell_angle_alpha 87.325400
_cell_angle_beta 87.378000
_cell_angle_gamma 90.267400
loop_
  _atom_site_label
  _atom_site_type_symbol
  _atom_site_fract_x
  _atom_site_fract_y
  _atom_site_fract_z
C1 C 0.30503 0.28006 0.22409
 H2 H 0.30862 0.28216 0.25430
 C3 C 0.32903 0.30241 0.19788
 H4 H 0.35126 0.32165 0.20805
 C5 C 0.27232 0.25154 0.17402
 H6 H 0.25038 0.23145 0.16478
 C7 C 0.29595 0.27290 0.14690
 H8 H 0.29169 0.26942 0.11695
 N9 N 0.27718 0.25547 0.21180
 C10 C 0.19298 0.23989 0.30693
 H11 H 0.19058 0.20703 0.30851
 C12 C 0.17191 0.26273 0.33282
 H13 H 0.15325 0.24744 0.35445
 C14 C 0.22024 0.29991 0.27673
 H15 H 0.23891 0.31424 0.25468
 C16 C 0.19896 0.32400 0.30152
 H17 H 0.20170 0.35685 0.29878
 Zn18 Zn 0.24589 0.22446 0.24779
 N19 N 0.21742 0.25860 0.28033
 C20 C 0.27768 0.19303 0.31544
 N21 N 0.27789 0.18970 0.27706
 C22 C 0.30158 0.16297 0.25941
 C23 C 0.32522 0.13729 0.28069
 C24 C 0.30064 0.16799 0.33771
 C25 C 0.17951 0.21673 0.20899
 C26 C 0.15116 0.19817 0.18909
 C27 C 0.18571 0.13480 0.19489
 C28 C 0.21303 0.15438 0.21553
 N29 N 0.20963 0.19477 0.22180
 H30 H 0.25998 0.21535 0.32909
 H31 H 0.30226 0.16175 0.22873
 H32 H 0.34405 0.11640 0.26615
 H33 H 0.29921 0.17072 0.36827
 H34 H 0.17759 0.24882 0.21423
 H35 H 0.12730 0.21597 0.17906
 H36 H 0.18872 0.10273 0.18969
 H37 H 0.23693 0.13735 0.22616
 C38 C 0.17500 0.30525 0.33031
 C39 C 0.32474 0.29871 0.15873
 C40 C 0.15435 0.15686 0.18163
 C41 C 0.32486 0.13960 0.32046
 C42 C 0.79778 0.78314 0.21754
 H43 H 0.81122 0.76941 0.24189
 C44 C 0.82089 0.80018 0.18750
 H45 H 0.85153 0.79695 0.18932
 C46 C 0.74187 0.80243 0.18622
 H47 H 0.71111 0.80466 0.18626
 C48 C 0.76380 0.82007 0.15561
 H49 H 0.74868 0.83583 0.13327
 N50 N 0.75895 0.78393 0.21629
 C51 C 0.66854 0.78719 0.30559
 H52 H 0.66363 0.75501 0.31184
 C53 C 0.64655 0.81582 0.32475
 H54 H 0.62438 0.80550 0.34554
 C55 C 0.70380 0.83977 0.27117
 H56 H 0.72672 0.84895 0.25088
 C57 C 0.68223 0.86942 0.28937
 H58 H 0.68869 0.90131 0.28286
 Zn59 Zn 0.72777 0.75945 0.25721
 N60 N 0.69681 0.79957 0.27974
 C61 C 0.75710 0.74771 0.33091
 N62 N 0.75963 0.73551 0.29445
 C63 C 0.78496 0.70635 0.28382
 C64 C 0.80896 0.68827 0.31022
 C65 C 0.78012 0.72985 0.35842
 C66 C 0.66881 0.73088 0.21316
 C67 C 0.64691 0.70210 0.19577
 C68 C 0.67745 0.64904 0.23296
 C69 C 0.69920 0.67886 0.24927
 N70 N 0.69545 0.71889 0.23830
 H71 H 0.73721 0.77122 0.33883
 H72 H 0.78650 0.69717 0.25468
 H73 H 0.82869 0.66483 0.30138
 H74 H 0.77758 0.73955 0.38740
 H75 H 0.66445 0.76281 0.20648
 H76 H 0.62641 0.71215 0.17520
 H77 H 0.68153 0.61725 0.24116
 H78 H 0.71934 0.66974 0.27033
 C79 C 0.65352 0.85753 0.31690
 C80 C 0.80423 0.81927 0.15554
 C81 C 0.65165 0.66058 0.20514
 C82 C 0.80646 0.69983 0.34807
 C83 C 0.82178 0.32422 0.73473
 H84 H 0.81925 0.32775 0.76514
 C85 C 0.84922 0.34662 0.71265
 H86 H 0.86691 0.36820 0.72631
 C87 C 0.80132 0.29162 0.68049
 H88 H 0.78318 0.26938 0.66836
 C89 C 0.82893 0.31305 0.65730
 H90 H 0.83163 0.30702 0.62734
 N91 N 0.79838 0.29755 0.71848
 C92 C 0.70680 0.28382 0.80720
 H93 H 0.70699 0.25137 0.81389
 C94 C 0.68015 0.30853 0.82590
 H95 H 0.65995 0.29480 0.84701
 C96 C 0.73155 0.34075 0.77013
 H97 H 0.75084 0.35325 0.74771
 C98 C 0.70554 0.36648 0.78807
 H99 H 0.70612 0.39865 0.77994
 Zn100 Zn 0.76605 0.26587 0.75294
 N101 N 0.73203 0.30027 0.78008
 C102 C 0.79702 0.23481 0.82347
 N103 N 0.79985 0.23719 0.78484
 C104 C 0.82939 0.21970 0.76547
 C105 C 0.85795 0.19920 0.78469
 C106 C 0.82455 0.21350 0.84410
 C107 C 0.71061 0.24238 0.70241
 C108 C 0.68641 0.21538 0.68528
 C109 C 0.71545 0.15965 0.72042
 C110 C 0.73917 0.18765 0.73672
 N111 N 0.73632 0.22817 0.72759
 H112 H 0.77369 0.24966 0.83840
 H113 H 0.83076 0.22174 0.73468
 H114 H 0.87971 0.18457 0.76739
 H115 H 0.82166 0.21365 0.87478
 H116 H 0.70851 0.27480 0.69613
 H117 H 0.66562 0.22731 0.66584
 H118 H 0.71817 0.12754 0.72805
 H119 H 0.75934 0.17697 0.75724
 C120 C 0.67921 0.35050 0.81626
 C121 C 0.85358 0.34082 0.67342
 C122 C 0.68844 0.17341 0.69450
 C123 C 0.85634 0.19540 0.82494
 C124 C 0.30238 0.78580 0.72786
 H125 H 0.30602 0.78444 0.75824
 C126 C 0.32706 0.80996 0.70374
 H127 H 0.34984 0.82696 0.71574
 C128 C 0.26913 0.76402 0.67517
 H129 H 0.24683 0.74575 0.66405
 C130 C 0.29327 0.78748 0.65008
 H131 H 0.28890 0.78741 0.61983
 N132 N 0.27407 0.76351 0.71329
 C133 C 0.19032 0.73976 0.80789
 H134 H 0.18810 0.70695 0.80742
 C135 C 0.16967 0.76053 0.83570
 H136 H 0.15158 0.74374 0.85684
 C137 C 0.21694 0.80175 0.78118
 H138 H 0.23526 0.81769 0.75979
 C139 C 0.19615 0.82381 0.80804
 H140 H 0.19885 0.85667 0.80757
 Zn141 Zn 0.24267 0.72928 0.74670
 N142 N 0.21421 0.76040 0.78203
 C143 C 0.27615 0.69300 0.81165
 N144 N 0.27513 0.69223 0.77310
 C145 C 0.29805 0.66656 0.75318
 C146 C 0.32207 0.63925 0.77222
 C147 C 0.29980 0.66649 0.83171
 C148 C 0.17743 0.72470 0.70476
 C149 C 0.14955 0.70735 0.68328
 C150 C 0.18194 0.64282 0.69000
 C151 C 0.20880 0.66121 0.71207
 N152 N 0.20645 0.70166 0.71847
 H153 H 0.25900 0.71447 0.82708
 H154 H 0.29771 0.66735 0.72245
 H155 H 0.34015 0.61908 0.75596
 H156 H 0.29965 0.66732 0.86243
 H157 H 0.17613 0.75674 0.71040
 H158 H 0.12682 0.72617 0.67226
 H159 H 0.18434 0.61073 0.68467
 H160 H 0.23155 0.64315 0.72373
 C161 C 0.17275 0.80296 0.83595
 C162 C 0.32288 0.81064 0.66423
 C163 C 0.15192 0.66604 0.67536
 C164 C 0.32314 0.63907 0.81206
 C165 C 0.00173 -0.00616 -0.00512
 C166 C 0.01013 0.51821 0.46883
 C167 C 0.50724 0.02148 0.52172
 C168 C 0.50470 0.50627 0.00707
 C169 C 0.12077 -0.15061 -0.14229
 C170 C 0.10190 -0.12898 -0.11357
 C171 C 0.11564 -0.13099 -0.07632
 C172 C 0.14730 -0.15547 -0.06821
 C173 C 0.16547 -0.17740 -0.09681
 C174 C 0.15260 -0.17473 -0.13396
 C175 C 0.09772 -0.10830 -0.04789
 C176 C 0.06611 -0.08380 -0.05613
 C177 C 0.05160 -0.08286 -0.09293
 C178 C 0.06963 -0.10533 -0.12149
 C179 C 0.01915 -0.05956 -0.10049
 C180 C 0.00228 -0.03587 -0.07245
 C181 C 0.01847 -0.03337 -0.03654
 C182 C 0.04910 -0.05979 -0.02820
 H183 H 0.11074 -0.14889 -0.17101
 H184 H 0.15807 -0.15754 -0.03981
 H185 H 0.18999 -0.19604 -0.09014
 H186 H 0.10862 -0.10938 -0.01950
 H187 H 0.05873 -0.10421 -0.14988
 H188 H 0.00672 -0.05968 -0.12812
 H189 H -0.02360 -0.01979 -0.07927
 H190 H 0.06050 -0.06058 -0.00006
 C191 C 0.12871 0.36041 0.34551
 C192 C 0.10859 0.38396 0.37189
 C193 C 0.11431 0.37745 0.41124
 C194 C 0.13916 0.34670 0.42356
 C195 C 0.15847 0.32286 0.39714
 C196 C 0.15371 0.32986 0.35803
 C197 C 0.09526 0.40189 0.43758
 C198 C 0.07030 0.43249 0.42510
 C199 C 0.06356 0.43799 0.38597
 C200 C 0.08287 0.41386 0.35956
 C201 C 0.03739 0.46741 0.37393
 C202 C 0.01932 0.49244 0.40012
 C203 C 0.02832 0.49005 0.43892
 C204 C 0.05228 0.45796 0.45118
 H205 H 0.12471 0.36549 0.31529
 H206 H 0.14372 0.34113 0.45359
 H207 H 0.17770 0.29935 0.40715
 H208 H 0.10010 0.39731 0.46769
 H209 H 0.07801 0.41845 0.32945
 H210 H 0.03071 0.47098 0.34421
 H211 H -0.00192 0.51331 0.38955
 H212 H 0.05773 0.45369 0.48116
 C213 C 0.62588 -0.11643 0.37784
 C214 C 0.60553 -0.08723 0.39826
 C215 C 0.59054 -0.05273 0.37872
 C216 C 0.59664 -0.04781 0.33912
 C217 C 0.61720 -0.07691 0.31903
 C218 C 0.63176 -0.11156 0.33814
 C219 C 0.56956 -0.02389 0.39904
 C220 C 0.56321 -0.02926 0.43863
 C221 C 0.57887 -0.06334 0.45815
 C222 C 0.59995 -0.09209 0.43790
 C223 C 0.57333 -0.06807 0.49770
 C224 C 0.55107 -0.04031 0.51758
 C225 C 0.53255 -0.00781 0.49838
 C226 C 0.54110 -0.00126 0.45892
 H227 H 0.63757 -0.14274 0.39289
 H228 H 0.58541 -0.02154 0.32367
 H229 H 0.62129 -0.07264 0.28843
 H230 H 0.55776 0.00240 0.38401
 H231 H 0.61175 -0.11836 0.45293
 H232 H 0.58598 -0.09343 0.51329
 H233 H 0.54744 -0.04479 0.54820
 H234 H 0.53062 0.02548 0.44373
 C235 C 0.64166 0.37278 -0.12572
 C236 C 0.61591 0.39938 -0.10786
 C237 C 0.59901 0.43126 -0.12950
 C238 C 0.60774 0.43564 -0.16871
 C239 C 0.63334 0.40908 -0.18626
 C240 C 0.65084 0.37760 -0.16500
 C241 C 0.57383 0.45833 -0.11161
 C242 C 0.56515 0.45386 -0.07231
 C243 C 0.58189 0.42183 -0.05078
 C244 C 0.60714 0.39483 -0.06862
 C245 C 0.57365 0.41772 -0.01157
 C246 C 0.54875 0.44472 0.00614
 C247 C 0.53042 0.47611 -0.01484
 C248 C 0.54026 0.48116 -0.05419
 H249 H 0.65519 0.34894 -0.10888
 H250 H 0.59487 0.45971 -0.18581
 H251 H 0.63929 0.41307 -0.21666
 H252 H 0.56103 0.48287 -0.12825
 H253 H 0.62012 0.37044 -0.05194
 H254 H 0.58670 0.39376 0.00553
 H255 H 0.54357 0.44105 0.03668
 H256 H 0.52957 0.50675 -0.07086
 C257 C -0.12336 0.15654 -0.11893
 C258 C -0.09588 0.13204 -0.10111
 C259 C -0.05956 0.12662 -0.11938
 C260 C -0.05113 0.14598 -0.15490
 C261 C -0.07880 0.16921 -0.17303
 C262 C -0.11594 0.17456 -0.15596
 C263 C -0.03255 0.10104 -0.10240
 C264 C -0.04200 0.07937 -0.06802
 C265 C -0.07827 0.08473 -0.04962
 C266 C -0.10476 0.11154 -0.06590
 C267 C -0.08762 0.06274 -0.01546
 C268 C -0.06218 0.03408 -0.00076
 C269 C -0.02691 0.02597 -0.02026
 C270 C -0.01616 0.05139 -0.05246
 H271 H -0.15142 0.15836 -0.10480
 H272 H -0.02317 0.14268 -0.16906
 H273 H -0.06993 0.18421 -0.19999
 H274 H -0.00475 0.09681 -0.11667
 H275 H -0.13267 0.11545 -0.05176
 H276 H -0.11484 0.06735 -0.00028
 H277 H -0.07038 0.01866 0.02618
 H278 H 0.01188 0.04792 -0.06642
 C279 C -0.13026 0.67439 0.36930
 C280 C -0.10843 0.65100 0.39458
 C281 C -0.12649 0.63213 0.42766
 C282 C -0.16558 0.63870 0.43588
 C283 C -0.18704 0.66218 0.41064
 C284 C -0.16979 0.67927 0.37676
 C285 C -0.10559 0.60577 0.45118
 C286 C -0.06709 0.59744 0.44160
 C287 C -0.04846 0.61808 0.40984
 C288 C -0.06917 0.64498 0.38660
 C289 C -0.00963 0.61060 0.40135
 C290 C 0.00951 0.58028 0.42198
 C291 C -0.01017 0.55550 0.45041
 C292 C -0.04751 0.56737 0.46234
 H293 H -0.11677 0.68800 0.34337
 H294 H -0.17979 0.62470 0.46124
 H295 H -0.21750 0.66562 0.41681
 H296 H -0.11975 0.59033 0.47590
 H297 H -0.05513 0.65998 0.36159
 H298 H 0.00560 0.62721 0.37796
 H299 H 0.03922 0.57431 0.41409
 H300 H -0.06214 0.55245 0.48696
 C301 C 0.36768 0.12921 0.37524
 C302 C 0.39013 0.10443 0.39870
 C303 C 0.39534 0.06299 0.39090
 C304 C 0.37795 0.04716 0.35956
 C305 C 0.35543 0.07208 0.33636
 C306 C 0.34988 0.11327 0.34408
 C307 C 0.41793 0.03824 0.41444
 C308 C 0.43572 0.05464 0.44536
 C309 C 0.43027 0.09605 0.45306
 C310 C 0.40742 0.12062 0.42985
 C311 C 0.44765 0.11230 0.48401
 C312 C 0.47171 0.08837 0.50615
 C313 C 0.48000 0.04773 0.49736
 C314 C 0.45937 0.03050 0.46834
 H315 H 0.36429 0.16110 0.38113
 H316 H 0.38158 0.01546 0.35312
 H317 H 0.34175 0.05892 0.31278
 H318 H 0.42207 0.00646 0.40842
 H319 H 0.40330 0.15240 0.43588
 H320 H 0.44284 0.14367 0.49101
 H321 H 0.48392 0.10204 0.53024
 H322 H 0.46272 -0.00147 0.46287
 C323 C 0.36924 0.62560 -0.13655
 C324 C 0.39208 0.59931 -0.11490
 C325 C 0.39481 0.55779 -0.12339
 C326 C 0.37495 0.54354 -0.15397
 C327 C 0.35222 0.57005 -0.17549
 C328 C 0.34880 0.61119 -0.16669
 C329 C 0.41716 0.53135 -0.10108
 C330 C 0.43703 0.54612 -0.07064
 C331 C 0.43439 0.58777 -0.06267
 C332 C 0.41195 0.61401 -0.08470
 C333 C 0.45371 0.60256 -0.03229
 C334 C 0.47621 0.57673 -0.01035
 C335 C 0.48114 0.53533 -0.01872
 C336 C 0.45945 0.52005 -0.04799
 H337 H 0.36739 0.65743 -0.12992
 H338 H 0.37672 0.51186 -0.16102
 H339 H 0.33658 0.55816 -0.19845
 H340 H 0.41915 0.49945 -0.10743
 H341 H 0.40982 0.64589 -0.07823
 H342 H 0.45114 0.63419 -0.02518
 H343 H 0.48910 0.58952 0.01378
 H344 H 0.46043 0.48787 -0.05336
 C345 C -0.13518 -0.14825 0.13064
 C346 C -0.11333 -0.12774 0.10126
 C347 C -0.12879 -0.12074 0.06522
 C348 C -0.16553 -0.13533 0.05892
 C349 C -0.18726 -0.15561 0.08832
 C350 C -0.17286 -0.16200 0.12503
 C351 C -0.10767 -0.09841 0.03640
 C352 C -0.07163 -0.08218 0.04358
 C353 C -0.05585 -0.09000 0.07940
 C354 C -0.07659 -0.11304 0.10787
 C355 C -0.01980 -0.07407 0.08639
 C356 C -0.00062 -0.04836 0.05916
 C357 C -0.01749 -0.03702 0.02450
 C358 C -0.05175 -0.05699 0.01603
 H359 H -0.12316 -0.15098 0.15841
 H360 H -0.17767 -0.13075 0.03127
 H361 H -0.21507 -0.16707 0.08153
 H362 H -0.11982 -0.09252 0.00888
 H363 H -0.06456 -0.11857 0.13550
 H364 H -0.00668 -0.08092 0.11323
 H365 H 0.02741 -0.03730 0.06570
 H366 H -0.06398 -0.05097 -0.01141
 C367 C -0.12217 0.37693 0.61222
 C368 C -0.09395 0.39971 0.59080
 C369 C -0.05912 0.40943 0.60734
 C370 C -0.05257 0.39509 0.64452
 C371 C -0.08056 0.37209 0.66548
 C372 C -0.11596 0.36334 0.64993
 C373 C -0.03154 0.43364 0.58664
 C374 C -0.03828 0.44821 0.54948
 C375 C -0.07248 0.43726 0.53247
 C376 C -0.10019 0.41327 0.55325
 C377 C -0.07832 0.45036 0.49484
 C378 C -0.05128 0.47536 0.47475
 C379 C -0.01843 0.48958 0.49220
 C380 C -0.01138 0.47373 0.52921
 H381 H -0.14930 0.37075 0.59981
 H382 H -0.02584 0.40180 0.65748
 H383 H -0.07436 0.36110 0.69398
 H384 H -0.00509 0.44157 0.59961
 H385 H -0.12665 0.40539 0.54029
 H386 H -0.10387 0.44138 0.48092
 H387 H -0.05654 0.48472 0.44556
 H388 H 0.01506 0.48074 0.54244
 C389 C 0.36188 -0.12635 0.64517
 C390 C 0.38768 -0.10469 0.61973
 C391 C 0.40212 -0.12326 0.58663
 C392 C 0.39044 -0.16285 0.57935
 C393 C 0.36467 -0.18400 0.60457
 C394 C 0.35012 -0.16612 0.63768
 C395 C 0.42805 -0.10208 0.56129
 C396 C 0.43985 -0.06247 0.56850
 C397 C 0.42514 -0.04354 0.60118
 C398 C 0.39918 -0.06478 0.62670
 C399 C 0.43625 -0.00345 0.60738
 C400 C 0.46240 0.01724 0.58199
 C401 C 0.47952 -0.00214 0.55058
 C402 C 0.46607 -0.04154 0.54326
 H403 H 0.35059 -0.11215 0.67045
 H404 H 0.40130 -0.17752 0.55415
 H405 H 0.35650 -0.21475 0.59843
 H406 H 0.43919 -0.11651 0.53602
 H407 H 0.38793 -0.05028 0.65188
 H408 H 0.42448 0.01206 0.63173
 H409 H 0.46949 0.04855 0.58707
 H410 H 0.47564 -0.05610 0.51759
 C411 C 0.35915 0.36229 0.13373
 C412 C 0.38402 0.38305 0.10686
 C413 C 0.40100 0.36190 0.07640
 C414 C 0.39231 0.32062 0.07293
 C415 C 0.36730 0.30031 0.09956
 C416 C 0.35071 0.32081 0.13029
 C417 C 0.42665 0.38220 0.05009
 C418 C 0.43571 0.42338 0.05392
 C419 C 0.41801 0.44479 0.08374
 C420 C 0.39227 0.42454 0.11005
 C421 C 0.42636 0.48616 0.08672
 C422 C 0.45331 0.50565 0.06151
 C423 C 0.47379 0.48402 0.03348
 C424 C 0.46262 0.44326 0.02859
 H425 H 0.34610 0.37842 0.15712
 H426 H 0.40503 0.30396 0.04974
 H427 H 0.36140 0.26828 0.09652
 H428 H 0.43999 0.36579 0.02701
 H429 H 0.37896 0.44094 0.13315
 H430 H 0.41232 0.50341 0.10878
 H431 H 0.45915 0.53765 0.06469
 H432 H 0.47484 0.42659 0.00524
 C433 C 0.13505 0.11877 0.12584
 C434 C 0.10688 0.10057 0.10494
 C435 C 0.06826 0.09983 0.11905
 C436 C 0.05833 0.11824 0.15321
 C437 C 0.08643 0.13700 0.17340
 C438 C 0.12491 0.13700 0.16009
 C439 C 0.04024 0.08049 0.09894
 C440 C 0.05028 0.06202 0.06484
 C441 C 0.08854 0.06393 0.05004
 C442 C 0.11668 0.08314 0.07021
 C443 C 0.09798 0.04644 0.01536
 C444 C 0.07028 0.02530 -0.00345
 C445 C 0.03271 0.01982 0.01272
 C446 C 0.02270 0.04087 0.04577
 H447 H 0.16474 0.11929 0.11534
 H448 H 0.02887 0.11813 0.16430
 H449 H 0.07827 0.15112 0.19974
 H450 H 0.01075 0.07935 0.11008
 H451 H 0.14617 0.08418 0.05909
 H452 H 0.12689 0.04885 0.00288
 H453 H 0.07872 0.01320 -0.03057
 H454 H -0.00648 0.03906 0.05765
 C455 C 0.13587 0.62645 0.61928
 C456 C 0.10909 0.60982 0.59572
 C457 C 0.06941 0.61346 0.60487
 C458 C 0.05725 0.63436 0.63705
 C459 C 0.08413 0.65157 0.65990
 C460 C 0.12355 0.64751 0.65135
 C461 C 0.04261 0.59633 0.58162
 C462 C 0.05497 0.57612 0.54905
 C463 C 0.09456 0.57346 0.53947
 C464 C 0.12138 0.59004 0.56296
 C465 C 0.10672 0.55470 0.50622
 C466 C 0.08008 0.53763 0.48316
 C467 C 0.04046 0.53727 0.49354
 C468 C 0.02834 0.55854 0.52590
 H469 H 0.16630 0.62376 0.61232
 H470 H 0.02699 0.63760 0.64442
 H471 H 0.07417 0.66773 0.68454
 H472 H 0.01219 0.59878 0.58883
 H473 H 0.15179 0.58771 0.55565
 H474 H 0.13692 0.55355 0.49779
 H475 H 0.09095 0.52518 0.45698
 H476 H -0.00202 0.56072 0.53335
 C477 C 0.65348 0.14829 0.63930
 C478 C 0.62789 0.12122 0.62377
 C479 C 0.61039 0.08959 0.64713
 C480 C 0.61914 0.08535 0.68557
 C481 C 0.64468 0.11239 0.70080
 C482 C 0.66196 0.14423 0.67793
 C483 C 0.58422 0.06297 0.63178
 C484 C 0.57510 0.06781 0.59340
 C485 C 0.59313 0.09908 0.57003
 C486 C 0.61942 0.12548 0.58528
 C487 C 0.58470 0.10342 0.53165
 C488 C 0.55765 0.07806 0.51679
 C489 C 0.53727 0.04832 0.54004
 C490 C 0.54803 0.04209 0.57809
 H491 H 0.66700 0.17238 0.62126
 H492 H 0.60600 0.06134 0.70394
 H493 H 0.65039 0.10884 0.73074
 H494 H 0.57061 0.03890 0.64979
 H495 H 0.63303 0.14957 0.56726
 H496 H 0.59888 0.12662 0.51310
 H497 H 0.55196 0.08225 0.48690
 H498 H 0.53560 0.01733 0.59594
 C499 C 0.62960 0.63221 0.14533
 C500 C 0.60855 0.60394 0.12603
 C501 C 0.58761 0.57273 0.14688
 C502 C 0.58909 0.56970 0.18668
 C503 C 0.61044 0.59784 0.20568
 C504 C 0.63033 0.62964 0.18521
 C505 C 0.56509 0.54559 0.12766
 C506 C 0.56300 0.54958 0.08791
 C507 C 0.58505 0.57990 0.06711
 C508 C 0.60775 0.60680 0.08624
 C509 C 0.58372 0.58314 0.02745
 C510 C 0.55901 0.55829 0.00873
 C511 C 0.53401 0.53038 0.02918
 C512 C 0.53849 0.52436 0.06877
 H513 H 0.64544 0.65632 0.12936
 H514 H 0.57338 0.54588 0.20313
 H515 H 0.61072 0.59537 0.23645
 H516 H 0.54849 0.52209 0.14369
 H517 H 0.62421 0.63044 0.07023
 H518 H 0.60120 0.60549 0.01093
 H519 H 0.55812 0.56206 -0.02194
 H520 H 0.52270 0.50057 0.08505
   
