data_POSCAR
  _audit_creation_date              2014-09-24
  _audit_creation_method            'ToBaCCo'
  _symmetry_space_group_name_H-M    'P1'
  _symmetry_Int_Tables_number       1
  _symmetry_cell_setting            triclinic
  loop_
  _symmetry_equiv_pos_as_xyz
 x,y,z
_cell_length_a 14.1260
_cell_length_b 14.4219
_cell_length_c 14.4298
_cell_angle_alpha 92.019300
_cell_angle_beta 90.122800
_cell_angle_gamma 89.126500
loop_
  _atom_site_label
  _atom_site_type_symbol
  _atom_site_fract_x
  _atom_site_fract_y
  _atom_site_fract_z
C1 C -0.02850 0.41839 0.17380
 C2 C 0.05628 0.39253 0.23106
 C3 C 0.08730 0.45984 0.29135
 C4 C 0.01950 0.54387 0.29900
 C5 C -0.10298 0.43845 0.24846
 C6 C -0.08069 0.50446 0.31259
 C7 C -0.00645 0.51457 0.13386
 C8 C 0.01770 0.58095 0.19963
 H9 H 0.09349 0.32747 0.21992
 H10 H 0.04088 0.59133 0.35676
 H11 H -0.17303 0.41072 0.24540
 H12 H -0.01425 0.53017 0.06211
 C13 C -0.03622 0.40580 0.80400
 C14 C -0.09158 0.42295 0.72237
 C15 C -0.06181 0.49228 0.66416
 C16 C 0.02741 0.53419 0.69938
 C17 C 0.06136 0.39801 0.78179
 C18 C 0.09529 0.45691 0.71586
 C19 C -0.03796 0.49908 0.85227
 C20 C 0.00397 0.57161 0.79384
 H21 H -0.16371 0.39803 0.72067
 H22 H 0.05525 0.58546 0.65101
 H23 H 0.10921 0.36004 0.82667
 H24 H -0.06179 0.51127 0.92229
 C25 C 0.18741 -0.00668 0.40959
 C26 C 0.27691 0.04780 0.39501
 C27 C 0.33649 0.05079 0.46874
 C28 C 0.31464 -0.02855 0.53625
 C29 C 0.22546 -0.10457 0.40918
 C30 C 0.29087 -0.11830 0.47737
 C31 C 0.15110 0.01138 0.51192
 C32 C 0.21835 -0.00176 0.57859
 H33 H 0.27744 0.10162 0.34400
 H34 H 0.37253 -0.04038 0.58666
 H35 H 0.19128 -0.16092 0.37108
 H36 H 0.07791 0.02620 0.52970
 C37 C 0.78841 -0.05488 0.38800
 C38 C 0.70716 -0.10920 0.40966
 C39 C 0.66842 -0.09340 0.49752
 C40 C 0.71557 -0.02021 0.54982
 C41 C 0.76555 0.04664 0.40790
 C42 C 0.72186 0.06713 0.48879
 C43 C 0.86052 -0.07505 0.46678
 C44 C 0.82128 -0.05632 0.55412
 H45 H 0.68776 -0.16897 0.36675
 H46 H 0.68252 -0.00424 0.61846
 H47 H 0.77412 0.09856 0.35570
 H48 H 0.93605 -0.08196 0.45536
 C49 C 0.39215 0.23667 1.00075
 C50 C 0.42064 0.30941 1.06730
 C51 C 0.51600 0.33224 1.06698
 C52 C 0.56775 0.28640 0.98820
 C53 C 0.41145 0.27774 0.91279
 C54 C 0.51006 0.30285 0.90371
 C55 C 0.46218 0.15977 1.00542
 C56 C 0.56007 0.18664 0.99686
 H57 H 0.37168 0.35167 1.10846
 H58 H 0.64193 0.31035 0.98354
 H59 H 0.36196 0.27564 0.85531
 H60 H 0.44237 0.08907 0.99047
 C61 C 0.43585 0.82673 1.00638
 C62 C 0.43749 0.76010 0.92270
 C63 C 0.49822 0.68710 0.93267
 C64 C 0.54880 0.68515 1.02824
 C65 C 0.41258 0.76891 1.08771
 C66 C 0.46995 0.69573 1.10291
 C67 C 0.53454 0.85260 1.02150
 C68 C 0.59807 0.77385 1.02972
 H69 H 0.39347 0.76871 0.86186
 H70 H 0.59279 0.62189 1.03701
 H71 H 0.35827 0.79207 1.13668
 H72 H 0.55835 0.92303 1.01951
 B73 B 0.96344 1.09121 0.04096
 B74 B 1.03477 1.01314 0.09335
 B75 B 0.92020 0.98703 0.07308
 B76 B 0.88612 1.03090 -0.02965
 B77 B 0.98567 1.08404 -0.07257
 B78 B 1.07620 1.07156 0.00108
 B79 B 1.02531 0.89472 -0.06344
 B80 B 0.95090 0.97517 -0.11492
 B81 B 1.06916 0.99923 -0.09623
 B82 B 1.10258 0.95650 0.00884
 B83 B 1.00710 0.90317 0.05464
 B84 B 0.91318 0.91377 -0.02072
 B85 B 0.59937 0.51590 0.45208
 B86 B 0.49082 0.55952 0.42387
 B87 B 0.51848 0.44640 0.40119
 B88 B 0.58348 0.40198 0.49001
 B89 B 0.60331 0.49876 0.56644
 B90 B 0.54072 0.59293 0.52755
 B91 B 0.41195 0.46115 0.56413
 B92 B 0.52209 0.41586 0.59008
 B93 B 0.49485 0.52970 0.61419
 B94 B 0.42465 0.56827 0.52406
 B95 B 0.40984 0.47836 0.44673
 B96 B 0.46355 0.38392 0.48908
 C97 C 0.94380 1.33959 0.10633
 C98 C 0.85069 1.31972 0.09403
 C99 C 0.84667 1.22575 0.09560
 C100 C 0.93676 1.19369 0.08262
 O101 O 0.99687 1.26337 0.09255
 H102 H 0.79392 1.36997 0.09980
 H103 H 0.78769 1.18529 0.11628
 C104 C 1.02907 0.68196 0.18369
 C105 C 1.02923 0.74381 0.25730
 C106 C 1.02308 0.82702 0.22098
 C107 C 1.02143 0.81595 0.12549
 O108 O 1.02688 0.72498 0.10271
 H109 H 1.02570 0.73265 0.33069
 H110 H 1.01394 0.88580 0.26579
 C111 C 0.94271 1.30898 -0.17687
 C112 C 0.95702 1.24681 -0.25337
 C113 C 1.00055 1.17287 -0.22183
 C114 C 0.98493 1.17771 -0.12898
 O115 O 0.95911 1.26391 -0.09922
 H116 H 0.95666 1.26157 -0.32656
 H117 H 1.02328 1.11610 -0.26601
 C118 C 1.04041 0.65959 -0.17625
 C119 C 1.12353 0.69483 -0.21012
 C120 C 1.13207 0.78149 -0.17063
 C121 C 1.05239 0.79657 -0.11683
 O122 O 0.99722 0.72188 -0.12045
 H123 H 1.17379 0.66068 -0.25699
 H124 H 1.18995 0.82768 -0.18152
 C125 C 1.11795 1.01713 0.33491
 C126 C 1.04589 1.08159 0.34678
 C127 C 1.00926 1.09250 0.26107
 C128 C 1.06157 1.03431 0.20107
 O129 O 1.12947 0.99053 0.24669
 H130 H 1.02312 1.11778 0.40995
 H131 H 0.94787 1.13480 0.24637
 C132 C 1.20369 1.00468 -0.31841
 C133 C 1.27705 1.02261 -0.25819
 C134 C 1.23947 1.02072 -0.17214
 C135 C 1.14397 1.00395 -0.18279
 O136 O 1.12285 0.99118 -0.27306
 H137 H 1.35022 1.03586 -0.27438
 H138 H 1.28004 1.02909 -0.10964
 C139 C 0.79888 0.93781 0.28448
 C140 C 0.71957 0.94997 0.22883
 C141 C 0.75147 0.97786 0.14752
 C142 C 0.84834 0.97670 0.15536
 O143 O 0.87617 0.95693 0.23992
 H144 H 0.64571 0.94861 0.24865
 H145 H 0.70639 0.99547 0.09102
 C146 C 0.87486 0.97576 -0.36281
 C147 C 0.84792 1.06215 -0.33108
 C148 C 0.85003 1.05838 -0.24000
 C149 C 0.90059 0.97919 -0.21793
 O150 O 0.91007 0.92401 -0.29427
 H151 H 0.81608 1.11841 -0.36826
 H152 H 0.82775 1.11724 -0.19719
 C153 C 1.29569 1.20878 0.02177
 C154 C 1.26176 1.21444 0.11122
 C155 C 1.17291 1.18556 0.10763
 C156 C 1.15834 1.14930 0.01942
 O157 O 1.23327 1.16608 -0.03453
 H158 H 1.29936 1.23266 0.17447
 H159 H 1.12974 1.18249 0.16784
 C160 C 0.63429 1.12489 -0.03476
 C161 C 0.62109 1.04651 -0.08972
 C162 C 0.70912 1.00753 -0.10182
 C163 C 0.77257 1.06151 -0.05049
 O164 O 0.72600 1.13617 -0.01561
 H165 H 0.55548 1.02119 -0.11925
 H166 H 0.72444 0.94492 -0.14284
 C167 C 1.35910 0.89989 0.00662
 C168 C 1.35822 0.96521 0.07794
 C169 C 1.26651 0.98520 0.09390
 C170 C 1.21388 0.93496 0.02931
 O171 O 1.27109 0.88073 -0.02271
 H172 H 1.41689 0.98636 0.12184
 H173 H 1.24415 1.03344 0.14715
 C174 C 0.69637 0.77955 0.01658
 C175 C 0.75858 0.70587 0.01912
 C176 C 0.84397 0.74138 -0.00010
 C177 C 0.83075 0.83517 -0.01518
 O178 O 0.73975 0.85699 -0.00369
 H179 H 0.74584 0.63464 0.03567
 H180 H 0.90662 0.69998 0.00266
 C181 C 0.83869 0.54928 0.36178
 C182 C 0.80009 0.63171 0.33335
 C183 C 0.70743 0.63030 0.35937
 C184 C 0.69543 0.54844 0.40402
 O185 O 0.77504 0.49872 0.40402
 H186 H 0.83206 0.68123 0.28878
 H187 H 0.65400 0.68107 0.34305
 C188 C 0.18999 0.46076 0.31147
 C189 C 0.25042 0.40958 0.25549
 C190 C 0.32983 0.40115 0.30359
 C191 C 0.32136 0.46141 0.37891
 O192 O 0.23318 0.49551 0.38668
 H193 H 0.23475 0.37574 0.18998
 H194 H 0.38222 0.34743 0.29079
 C195 C 0.85707 0.53581 0.62649
 C196 C 0.82068 0.61653 0.66691
 C197 C 0.72459 0.60890 0.66086
 C198 C 0.70592 0.52669 0.61208
 O199 O 0.78708 0.48334 0.59064
 H200 H 0.85792 0.66810 0.70859
 H201 H 0.67502 0.65832 0.69103
 C202 C 0.18565 0.43249 0.68069
 C203 C 0.22629 0.34568 0.69487
 C204 C 0.31315 0.34779 0.66015
 C205 C 0.32017 0.43274 0.61977
 O206 O 0.24320 0.48535 0.63482
 H207 H 0.19637 0.28517 0.72528
 H208 H 0.36217 0.28972 0.65840
 C209 C 0.45181 0.64569 0.19014
 C210 C 0.36123 0.64843 0.22526
 C211 C 0.37040 0.64214 0.31678
 C212 C 0.46382 0.61893 0.33351
 O213 O 0.51494 0.62406 0.25545
 H214 H 0.29558 0.66363 0.18951
 H215 H 0.31101 0.64451 0.36280
 C216 C 0.49966 0.61204 0.86293
 C217 C 0.43606 0.54416 0.87267
 C218 C 0.42098 0.51133 0.78625
 C219 C 0.48072 0.55648 0.72619
 O220 O 0.52797 0.62041 0.77535
 H221 H 0.39661 0.52784 0.93417
 H222 H 0.37126 0.45818 0.77577
 C223 C 0.55291 0.37276 0.14994
 C224 C 0.63860 0.34799 0.18387
 C225 C 0.64169 0.38172 0.27242
 C226 C 0.55264 0.41818 0.29289
 O227 O 0.50008 0.41619 0.21577
 H228 H 0.68236 0.29324 0.15566
 H229 H 0.69756 0.36629 0.32059
 C230 C 0.54760 0.31714 0.81589
 C231 C 0.64171 0.31132 0.79161
 C232 C 0.64316 0.33304 0.70052
 C233 C 0.55060 0.35275 0.67560
 O234 O 0.49317 0.33992 0.74558
 H235 H 0.70215 0.29422 0.83427
 H236 H 0.70552 0.33980 0.65876
 C237 C 0.61869 0.83463 0.53628
 C238 C 0.56959 0.84016 0.61816
 C239 C 0.53322 0.75405 0.62629
 C240 C 0.56630 0.69998 0.55098
 O241 O 0.61637 0.75053 0.49579
 H242 H 0.55649 0.90049 0.66329
 H243 H 0.48116 0.73677 0.67688
 C244 C 0.65852 0.15033 0.48598
 C245 C 0.59917 0.15103 0.41143
 C246 C 0.58349 0.24001 0.39468
 C247 C 0.62595 0.29418 0.46531
 O248 O 0.67634 0.23713 0.51929
 H249 H 0.57612 0.09235 0.36858
 H250 H 0.53173 0.25897 0.34360
 C251 C 0.29689 0.78863 0.51524
 C252 C 0.21840 0.73581 0.52874
 C253 C 0.25204 0.64821 0.53717
 C254 C 0.34985 0.65328 0.53396
 O255 O 0.37580 0.73918 0.51721
 H256 H 0.14490 0.75665 0.52115
 H257 H 0.20732 0.58912 0.53033
 C258 C 0.34981 0.14977 0.50095
 C259 C 0.27088 0.20663 0.50022
 C260 C 0.30135 0.28921 0.47650
 C261 C 0.39993 0.28668 0.48023
 O262 O 0.42881 0.19888 0.49273
 H263 H 0.19720 0.18765 0.50231
 H264 H 0.25248 0.34669 0.47349
   
