data_POSCAR
  _audit_creation_date              2014-09-24
  _audit_creation_method            'ToBaCCo'
  _symmetry_space_group_name_H-M    'P1'
  _symmetry_Int_Tables_number       1
  _symmetry_cell_setting            triclinic
  loop_
  _symmetry_equiv_pos_as_xyz
 x,y,z
_cell_length_a 53.6750
_cell_length_b 54.1901
_cell_length_c 53.4438
_cell_angle_alpha 90.491500
_cell_angle_beta 89.635900
_cell_angle_gamma 89.582600
loop_
  _atom_site_label
  _atom_site_type_symbol
  _atom_site_fract_x
  _atom_site_fract_y
  _atom_site_fract_z
N1 N 0.62290 0.62368 0.62818
 N2 N 0.87615 0.37467 0.12696
 N3 N 0.37753 0.12678 -0.12622
 N4 N 0.12293 0.87423 0.37354
 N5 N 0.09567 0.16359 0.11632
 N6 N 0.08461 0.15223 0.13492
 C7 C 0.06391 0.16497 0.14155
 C8 C 0.06199 0.18548 0.12638
 C9 C 0.08251 0.18396 0.11059
 H10 H 0.05142 0.16000 0.15660
 H11 H 0.08739 0.19662 0.09586
 Cu12 Cu 0.09906 0.12241 0.14894
 Cu13 Cu 0.12616 0.15104 0.10063
 Cu14 Cu 0.15159 0.09746 0.12520
 N15 N 0.11351 0.09259 0.16296
 N16 N 0.13419 0.08306 0.15362
 C17 C 0.14062 0.06307 0.16692
 C18 C 0.12307 0.05982 0.18569
 C19 C 0.10610 0.07892 0.18254
 H20 H 0.15691 0.05178 0.16316
 H21 H 0.08987 0.08288 0.19399
 N22 N 0.16634 0.11486 0.09651
 N23 N 0.15682 0.13537 0.08733
 C24 C 0.17102 0.14266 0.06792
 C25 C 0.19039 0.12592 0.06463
 C26 C 0.18680 0.10855 0.08313
 H27 H 0.16727 0.15874 0.05670
 H28 H 0.19831 0.09254 0.08668
 H29 H 0.12090 0.11438 0.10957
 H30 H 0.13970 0.13320 0.13182
 N31 N 0.40335 0.83510 0.61362
 N32 N 0.41302 0.84526 0.63371
 C33 C 0.43302 0.83192 0.64072
 C34 C 0.43611 0.81236 0.62409
 C35 C 0.41690 0.81504 0.60711
 H36 H 0.44461 0.83623 0.65660
 H37 H 0.41283 0.80311 0.59137
 Cu38 Cu 0.39856 0.87499 0.64866
 Cu39 Cu 0.37375 0.84842 0.59756
 Cu40 Cu 0.34746 0.90121 0.62406
 N41 N 0.38371 0.90471 0.66322
 N42 N 0.36360 0.91473 0.65362
 C43 C 0.35713 0.93481 0.66722
 C44 C 0.37413 0.93765 0.68640
 C45 C 0.39077 0.91817 0.68323
 H46 H 0.34137 0.94663 0.66321
 H47 H 0.40666 0.91398 0.69478
 N48 N 0.33384 0.88482 0.59412
 N49 N 0.34377 0.86467 0.58410
 C50 C 0.33018 0.85789 0.56412
 C51 C 0.31078 0.87460 0.56133
 C52 C 0.31374 0.89142 0.58071
 H53 H 0.33426 0.84207 0.55231
 H54 H 0.30193 0.90716 0.58493
 H55 H 0.37899 0.88459 0.60879
 H56 H 0.35890 0.86509 0.62918
 N57 N 0.90184 0.66743 0.38418
 N58 N 0.90912 0.65954 0.36198
 C59 C 0.92881 0.67287 0.35443
 C60 C 0.93421 0.69008 0.37293
 C61 C 0.91663 0.68603 0.39152
 H62 H 0.93865 0.66995 0.33692
 H63 H 0.91456 0.69595 0.40905
 Cu64 Cu 0.89238 0.63257 0.34496
 Cu65 Cu 0.87385 0.65299 0.40195
 Cu66 Cu 0.84979 0.59945 0.37662
 N67 N 0.88163 0.60034 0.33324
 N68 N 0.86538 0.58729 0.34589
 C69 C 0.86150 0.56583 0.33374
 C70 C 0.87604 0.56540 0.31223
 C71 C 0.88857 0.58767 0.31253
 H72 H 0.84868 0.55180 0.33986
 H73 H 0.90195 0.59407 0.29889
 N74 N 0.83652 0.61487 0.40748
 N75 N 0.84553 0.63547 0.41699
 C76 C 0.83220 0.64179 0.43751
 C77 C 0.81387 0.62429 0.44117
 C78 C 0.81724 0.60748 0.42175
 H79 H 0.83562 0.65793 0.44896
 H80 H 0.80613 0.59135 0.41794
 H81 H 0.88154 0.61854 0.38661
 H82 H 0.85577 0.63681 0.37193
 N83 N 0.59982 0.33258 -0.11663
 N84 N 0.58944 0.34316 -0.13602
 C85 C 0.56964 0.32977 -0.14320
 C86 C 0.56742 0.30975 -0.12737
 C87 C 0.58697 0.31219 -0.11076
 H88 H 0.55738 0.33455 -0.15839
 H89 H 0.59148 0.30012 -0.09541
 Cu90 Cu 0.60235 0.37385 -0.14944
 Cu91 Cu 0.62855 0.34647 -0.09971
 Cu92 Cu 0.65034 0.40241 -0.12149
 N93 N 0.61494 0.40522 -0.16150
 N94 N 0.63368 0.41625 -0.15046
 C95 C 0.63911 0.43707 -0.16283
 C96 C 0.62287 0.43932 -0.18274
 C97 C 0.60773 0.41876 -0.18123
 H98 H 0.65388 0.44956 -0.15774
 H99 H 0.59298 0.41374 -0.19392
 N100 N 0.66486 0.38539 -0.09254
 N101 N 0.65727 0.36356 -0.08496
 C102 C 0.67155 0.35628 -0.06571
 C103 C 0.68873 0.37452 -0.06075
 C104 C 0.68392 0.39273 -0.07806
 H105 H 0.66936 0.33919 -0.05567
 H106 H 0.69393 0.40983 -0.08019
 H107 H 0.62012 0.38265 -0.10848
 H108 H 0.64247 0.36601 -0.12973
 C109 C -0.06877 0.31770 0.12883
 C110 C -0.06183 0.34267 0.12823
 C111 C -0.07993 0.36129 0.12784
 C112 C -0.10530 0.35534 0.12774
 C113 C -0.11236 0.33049 0.12848
 C114 C -0.09426 0.31181 0.12912
 C115 C -0.04948 0.29800 0.12889
 N116 N -0.05552 0.27425 0.13400
 N117 N -0.03812 0.25658 0.13388
 C118 C -0.01397 0.26190 0.12853
 N119 N -0.00796 0.28564 0.12342
 N120 N -0.02532 0.30331 0.12364
 C121 C 0.00541 0.24228 0.12810
 C122 C 0.02902 0.24683 0.11767
 C123 C 0.04729 0.22836 0.11702
 C124 C 0.04250 0.20498 0.12704
 C125 C 0.01896 0.20043 0.13762
 C126 C 0.00055 0.21884 0.13801
 H127 H -0.04239 0.34787 0.12812
 H128 H -0.07421 0.38040 0.12729
 H129 H -0.13189 0.32564 0.12862
 H130 H -0.10023 0.29278 0.12956
 H131 H 0.03338 0.26466 0.10982
 H132 H 0.06529 0.23255 0.10894
 H133 H 0.01461 0.18255 0.14531
 H134 H -0.01743 0.21474 0.14622
 C135 C 0.56662 0.67974 0.62699
 C136 C 0.57437 0.66788 0.60472
 C137 C 0.59277 0.64950 0.60513
 C138 C 0.60374 0.64252 0.62780
 C139 C 0.59595 0.65424 0.65006
 C140 C 0.57763 0.67268 0.64967
 C141 C 0.54726 0.69940 0.62656
 N142 N 0.54118 0.71228 0.64768
 N143 N 0.52384 0.72998 0.64729
 C144 C 0.51179 0.73555 0.62577
 N145 N 0.51785 0.72266 0.60465
 N146 N 0.53522 0.70499 0.60503
 C147 C 0.49247 0.75525 0.62533
 C148 C 0.47859 0.75958 0.60356
 C149 C 0.46032 0.77808 0.60316
 C150 C 0.45555 0.79277 0.62448
 C151 C 0.46949 0.78851 0.64622
 C152 C 0.48768 0.76992 0.64666
 H153 H 0.56630 0.67283 0.58692
 H154 H 0.59839 0.64060 0.58776
 H155 H 0.60428 0.64926 0.66773
 H156 H 0.57211 0.68139 0.66717
 H157 H 0.48178 0.74865 0.58678
 H158 H 0.45014 0.78099 0.58602
 H159 H 0.46621 0.79930 0.66305
 H160 H 0.49799 0.76710 0.66376
 C161 C 1.06727 0.81835 0.37319
 C162 C 1.07465 0.82956 0.39577
 C163 C 1.09287 0.84784 0.39586
 C164 C 1.10409 0.85534 0.37341
 C165 C 1.09676 0.84419 0.35084
 C166 C 1.07856 0.82588 0.35072
 C167 C 1.04785 0.79902 0.37311
 N168 N 1.04112 0.78762 0.35148
 N169 N 1.02357 0.77035 0.35143
 C170 C 1.01199 0.76376 0.37301
 N171 N 1.01876 0.77514 0.39464
 N172 N 1.03631 0.79238 0.39469
 C173 C 0.99228 0.74471 0.37298
 C174 C 0.97964 0.73876 0.39521
 C175 C 0.96089 0.72102 0.39518
 C176 C 0.95431 0.70874 0.37294
 C177 C 0.96705 0.71458 0.35072
 C178 C 0.98578 0.73238 0.35073
 H179 H 1.06635 0.82427 0.41342
 H180 H 1.09811 0.85630 0.41346
 H181 H 1.10531 0.84955 0.33333
 H182 H 1.07336 0.81765 0.33300
 H183 H 0.98416 0.74785 0.41270
 H184 H 0.95171 0.71687 0.41271
 H185 H 0.96240 0.70565 0.33320
 H186 H 0.99511 0.73650 0.33326
 C187 C 0.43427 0.18158 -0.12692
 C188 C 0.42221 0.17466 -0.14917
 C189 C 0.40364 0.15671 -0.14893
 C190 C 0.39665 0.14538 -0.12645
 C191 C 0.40859 0.15232 -0.10421
 C192 C 0.42723 0.17018 -0.10443
 C193 C 0.45410 0.20050 -0.12714
 N194 N 0.46725 0.20564 -0.10612
 N195 N 0.48508 0.22259 -0.10630
 C196 C 0.49054 0.23518 -0.12748
 N197 N 0.47738 0.23007 -0.14851
 N198 N 0.45957 0.21307 -0.14835
 C199 C 0.51035 0.25412 -0.12760
 C200 C 0.51446 0.26877 -0.14880
 C201 C 0.53298 0.28679 -0.14875
 C202 C 0.54792 0.29049 -0.12756
 C203 C 0.54391 0.27573 -0.10644
 C204 C 0.52533 0.25782 -0.10643
 H205 H 0.42715 0.18304 -0.16682
 H206 H 0.39456 0.15174 -0.16627
 H207 H 0.40362 0.14369 -0.08670
 H208 H 0.43609 0.17506 -0.08695
 H209 H 0.50330 0.26641 -0.16544
 H210 H 0.53568 0.29765 -0.16543
 H211 H 0.55488 0.27818 -0.08970
 H212 H 0.52271 0.24688 -0.08978
 C213 C 0.12273 -0.06999 0.31762
 C214 C 0.14514 -0.08149 0.32477
 C215 C 0.14518 -0.09970 0.34311
 C216 C 0.12285 -0.10688 0.35464
 C217 C 0.10046 -0.09545 0.34756
 C218 C 0.10039 -0.07717 0.32927
 C219 C 0.12270 -0.05069 0.29811
 N220 N 0.10140 -0.03839 0.29225
 N221 N 0.10139 -0.02110 0.27468
 C222 C 0.12267 -0.01539 0.26218
 N223 N 0.14396 -0.02768 0.26804
 N224 N 0.14398 -0.04494 0.28563
 C225 C 0.12269 0.00382 0.24257
 C226 C 0.14436 0.00843 0.22852
 C227 C 0.14443 0.02651 0.21004
 C228 C 0.12287 0.04050 0.20521
 C229 C 0.10120 0.03591 0.21925
 C230 C 0.10109 0.01774 0.23768
 H231 H 0.16269 -0.07643 0.31622
 H232 H 0.16264 -0.10838 0.34819
 H233 H 0.08305 -0.10059 0.35635
 H234 H 0.08280 -0.06871 0.32425
 H235 H 0.16134 -0.00193 0.23176
 H236 H 0.16154 0.02966 0.19979
 H237 H 0.08419 0.04616 0.21592
 H238 H 0.08405 0.01467 0.24812
 C239 C 0.62233 0.56894 -0.31485
 C240 C 0.60019 0.57566 -0.32706
 C241 C 0.60038 0.59363 -0.34568
 C242 C 0.62270 0.60516 -0.35256
 C243 C 0.64483 0.59846 -0.34043
 C244 C 0.64465 0.58059 -0.32175
 C245 C 0.62220 0.54990 -0.29507
 N246 N 0.64305 0.54505 -0.28167
 N247 N 0.64298 0.52794 -0.26393
 C248 C 0.62207 0.51488 -0.25886
 N249 N 0.60121 0.51971 -0.27228
 N250 N 0.60126 0.53687 -0.28998
 C251 C 0.62210 0.49573 -0.23920
 C252 C 0.60133 0.48045 -0.23565
 C253 C 0.60154 0.46220 -0.21731
 C254 C 0.62247 0.45889 -0.20198
 C255 C 0.64314 0.47429 -0.20540
 C256 C 0.64299 0.49243 -0.22382
 H257 H 0.58266 0.56710 -0.32222
 H258 H 0.58312 0.59842 -0.35490
 H259 H 0.66222 0.60726 -0.34532
 H260 H 0.66205 0.57588 -0.31276
 H261 H 0.58491 0.48248 -0.24714
 H262 H 0.58520 0.45084 -0.21506
 H263 H 0.65967 0.47216 -0.19412
 H264 H 0.65932 0.50385 -0.22601
 C265 C 0.37658 1.07056 0.81735
 C266 C 0.35438 1.08245 0.82499
 C267 C 0.35471 1.10087 0.84344
 C268 C 0.37722 1.10788 0.85458
 C269 C 0.39942 1.09612 0.84692
 C270 C 0.39911 1.07764 0.82854
 C271 C 0.37624 1.05087 0.79791
 N272 N 0.39730 1.03803 0.79189
 N273 N 0.39698 1.02028 0.77450
 C274 C 0.37559 1.01462 0.76235
 N275 N 0.35454 1.02748 0.76835
 N276 N 0.35485 1.04520 0.78577
 C277 C 0.37522 0.99487 0.74298
 C278 C 0.35356 0.99039 0.72906
 C279 C 0.35322 0.97187 0.71072
 C280 C 0.37450 0.95727 0.70591
 C281 C 0.39614 0.96167 0.71990
 C282 C 0.39652 0.98028 0.73816
 H283 H 0.33670 1.07748 0.81679
 H284 H 0.33740 1.10979 0.84898
 H285 H 0.41696 1.10111 0.85541
 H286 H 0.41655 1.06890 0.82313
 H287 H 0.33681 1.00124 0.73228
 H288 H 0.33616 0.96888 0.70050
 H289 H 0.41293 0.95095 0.71658
 H290 H 0.41353 0.98320 0.74851
 C291 C 0.87923 0.43196 0.18200
 C292 C 0.87818 0.43773 0.15640
 C293 C 0.87715 0.41895 0.13832
 C294 C 0.87727 0.39411 0.14549
 C295 C 0.87873 0.38830 0.17096
 C296 C 0.87957 0.40701 0.18905
 C297 C 0.87965 0.45177 0.20130
 N298 N 0.87655 0.44634 0.22588
 N299 N 0.87651 0.46410 0.24325
 C300 C 0.87965 0.48807 0.23681
 N301 N 0.88288 0.49351 0.21223
 N302 N 0.88283 0.47574 0.19484
 C303 C 0.87920 0.50783 0.25617
 C304 C 0.88632 0.53203 0.25030
 C305 C 0.88560 0.55067 0.26856
 C306 C 0.87747 0.54558 0.29301
 C307 C 0.87040 0.52139 0.29889
 C308 C 0.87137 0.50272 0.28072
 H309 H 0.87791 0.45673 0.15032
 H310 H 0.87631 0.42373 0.11872
 H311 H 0.87890 0.36921 0.17679
 H312 H 0.88050 0.40190 0.20856
 H313 H 0.89248 0.53660 0.23159
 H314 H 0.89098 0.56915 0.26338
 H315 H 0.86429 0.51678 0.31760
 H316 H 0.86573 0.48430 0.28590
 C317 C 0.32227 0.12694 -0.06841
 C318 C 0.32938 0.14909 -0.07989
 C319 C 0.34754 0.14904 -0.09875
 C320 C 0.35889 0.12685 -0.10661
 C321 C 0.35185 0.10473 -0.09518
 C322 C 0.33376 0.10476 -0.07627
 C323 C 0.30295 0.12693 -0.04845
 N324 N 0.29715 0.10580 -0.03630
 N325 N 0.27973 0.10575 -0.01844
 C326 C 0.26733 0.12681 -0.01196
 N327 N 0.27313 0.14795 -0.02411
 N328 N 0.29057 0.14801 -0.04195
 C329 C 0.24781 0.12668 0.00780
 C330 C 0.23373 0.14805 0.01324
 C331 C 0.21516 0.14782 0.03169
 C332 C 0.21028 0.12624 0.04523
 C333 C 0.22446 0.10491 0.03989
 C334 C 0.24296 0.10511 0.02137
 H335 H 0.32093 0.16651 -0.07432
 H336 H 0.35260 0.16629 -0.10742
 H337 H 0.36051 0.08743 -0.10081
 H338 H 0.32876 0.08736 -0.06786
 H339 H 0.23697 0.16500 0.00318
 H340 H 0.20479 0.16466 0.03543
 H341 H 0.22111 0.08789 0.04974
 H342 H 0.25342 0.08829 0.01768
 C343 C 0.68080 0.62345 0.57304
 C344 C 0.66931 0.60131 0.58012
 C345 C 0.65038 0.60140 0.59820
 C346 C 0.64248 0.62360 0.60953
 C347 C 0.65393 0.64572 0.60251
 C348 C 0.67290 0.64566 0.58449
 C349 C 0.70084 0.62342 0.55378
 N350 N 0.71302 0.64453 0.54804
 N351 N 0.73092 0.64455 0.53067
 C352 C 0.73740 0.62347 0.51825
 N353 N 0.72523 0.60234 0.52401
 N354 N 0.70736 0.60232 0.54141
 C355 C 0.75717 0.62357 0.49873
 C356 C 0.76260 0.60217 0.48460
 C357 C 0.78101 0.60239 0.46598
 C358 C 0.79451 0.62397 0.46111
 C359 C 0.78919 0.64531 0.47535
 C360 C 0.77071 0.64513 0.49389
 H361 H 0.67491 0.58388 0.57170
 H362 H 0.64171 0.58415 0.60324
 H363 H 0.64827 0.66303 0.61116
 H364 H 0.68132 0.66305 0.57951
 H365 H 0.75257 0.58522 0.48783
 H366 H 0.78473 0.58555 0.45557
 H367 H 0.79902 0.66234 0.47201
 H368 H 0.76703 0.66195 0.50439
 C369 C 0.81960 0.37441 0.07087
 C370 C 0.81562 0.38674 0.09377
 C371 C 0.83397 0.38660 0.11220
 C372 C 0.85698 0.37458 0.10796
 C373 C 0.86094 0.36243 0.08486
 C374 C 0.84237 0.36213 0.06666
 C375 C 0.80013 0.37441 0.05144
 N376 N 0.79913 0.35598 0.03410
 N377 N 0.78157 0.35596 0.01660
 C378 C 0.76444 0.37449 0.01558
 N379 N 0.76550 0.39298 0.03286
 N380 N 0.78292 0.39288 0.05050
 C381 C 0.74505 0.37452 -0.00393
 C382 C 0.73403 0.39677 -0.01162
 C383 C 0.71591 0.39680 -0.03030
 C384 C 0.70808 0.37453 -0.04121
 C385 C 0.71887 0.35226 -0.03333
 C386 C 0.73739 0.35228 -0.01507
 H387 H 0.79813 0.39617 0.09761
 H388 H 0.83007 0.39581 0.12986
 H389 H 0.87849 0.35327 0.08076
 H390 H 0.84602 0.35263 0.04909
 H391 H 0.73964 0.41419 -0.00342
 H392 H 0.70775 0.41420 -0.03592
 H393 H 0.71328 0.33486 -0.04157
 H394 H 0.74552 0.33485 -0.00944
 C395 C 0.17900 0.87427 0.42984
 C396 C 0.17210 0.85215 0.41786
 C397 C 0.15372 0.85215 0.39946
 C398 C 0.14190 0.87424 0.39259
 C399 C 0.14876 0.89635 0.40447
 C400 C 0.16708 0.89637 0.42293
 C401 C 0.19850 0.87430 0.44938
 N402 N 0.20404 0.89531 0.46215
 N403 N 0.22156 0.89535 0.47968
 C404 C 0.23433 0.87437 0.48519
 N405 N 0.22879 0.85336 0.47242
 N406 N 0.21125 0.85332 0.45490
 C407 C 0.25387 0.87442 0.50469
 C408 C 0.26827 0.85315 0.50912
 C409 C 0.28672 0.85321 0.52746
 C410 C 0.29118 0.87452 0.54188
 C411 C 0.27674 0.89577 0.53749
 C412 C 0.25835 0.89574 0.51909
 H413 H 0.18087 0.83480 0.42270
 H414 H 0.14882 0.83492 0.39041
 H415 H 0.13975 0.91356 0.39957
 H416 H 0.17190 0.91373 0.43175
 H417 H 0.26534 0.83639 0.49839
 H418 H 0.29729 0.83643 0.53044
 H419 H 0.27977 0.91259 0.54805
 H420 H 0.24765 0.91248 0.51618
   
