data_POSCAR
  _audit_creation_date              2014-09-24
  _audit_creation_method            'ToBaCCo'
  _symmetry_space_group_name_H-M    'P1'
  _symmetry_Int_Tables_number       1
  _symmetry_cell_setting            triclinic
  loop_
  _symmetry_equiv_pos_as_xyz
 x,y,z
_cell_length_a 51.6717
_cell_length_b 51.4651
_cell_length_c 51.4353
_cell_angle_alpha 89.776000
_cell_angle_beta 89.923500
_cell_angle_gamma 90.748200
loop_
  _atom_site_label
  _atom_site_type_symbol
  _atom_site_fract_x
  _atom_site_fract_y
  _atom_site_fract_z
C1 C 0.19100 0.23042 0.21805
 C2 C 0.20449 0.23724 0.19529
 C3 C 0.22567 0.22300 0.18762
 C4 C 0.23374 0.20181 0.20267
 C5 C 0.22046 0.19514 0.22514
 C6 C 0.19893 0.20952 0.23286
 C7 C 0.16947 0.24043 0.22995
 N8 N 0.16411 0.22617 0.25160
 C9 C 0.18209 0.20715 0.25352
 C10 C 0.23237 0.17377 0.23561
 N11 N 0.25257 0.16729 0.22014
 C12 C 0.25351 0.18436 0.19985
 C13 C 0.23458 0.23368 0.16467
 N14 N 0.21946 0.25410 0.15829
 C15 C 0.20090 0.25637 0.17693
 H16 H 0.15833 0.25683 0.22324
 H17 H 0.18293 0.19243 0.26852
 H18 H 0.22672 0.16357 0.25322
 H19 H 0.26729 0.18421 0.18402
 H20 H 0.25086 0.22703 0.15333
 H21 H 0.18559 0.27049 0.17709
 C22 C 0.68470 0.72112 0.71960
 C23 C 0.69956 0.72998 0.69843
 C24 C 0.72187 0.71714 0.69155
 C25 C 0.72962 0.69524 0.70570
 C26 C 0.71494 0.68646 0.72653
 C27 C 0.69234 0.69954 0.73356
 C28 C 0.66231 0.72995 0.73084
 N29 N 0.65615 0.71419 0.75132
 C30 C 0.67447 0.69560 0.75309
 C31 C 0.72706 0.66500 0.73660
 N32 N 0.74874 0.66053 0.72231
 C33 C 0.75045 0.67901 0.70347
 C34 C 0.73229 0.72996 0.67040
 N35 N 0.71690 0.75024 0.66423
 C36 C 0.69677 0.75040 0.68133
 H37 H 0.65168 0.74681 0.72460
 H38 H 0.67480 0.68037 0.76766
 H39 H 0.72059 0.65385 0.75330
 H40 H 0.76578 0.68049 0.68915
 H41 H 0.74981 0.72487 0.66014
 H42 H 0.68112 0.76414 0.68151
 C43 C 0.31635 0.77624 0.71549
 C44 C 0.30254 0.76965 0.69295
 C45 C 0.28140 0.78409 0.68555
 C46 C 0.27376 0.80534 0.70058
 C47 C 0.28734 0.81184 0.72281
 C48 C 0.30881 0.79719 0.73031
 C49 C 0.33765 0.76567 0.72733
 N50 N 0.34326 0.77977 0.74900
 C51 C 0.32567 0.79903 0.75092
 C52 C 0.27564 0.83318 0.73347
 N53 N 0.25522 0.83985 0.71816
 C54 C 0.25402 0.82284 0.69805
 C55 C 0.27174 0.77326 0.66309
 N56 N 0.28657 0.75257 0.65666
 C57 C 0.30541 0.75027 0.67486
 H58 H 0.34806 0.74894 0.72050
 H59 H 0.32521 0.81337 0.76626
 H60 H 0.28179 0.84287 0.75107
 H61 H 0.23977 0.82318 0.68262
 H62 H 0.25505 0.78003 0.65251
 H63 H 0.32012 0.73547 0.67494
 C64 C 0.81677 0.27295 0.21676
 C65 C 0.80128 0.26471 0.19590
 C66 C 0.77916 0.27818 0.18960
 C67 C 0.77223 0.30010 0.20403
 C68 C 0.78755 0.30826 0.22452
 C69 C 0.80995 0.29456 0.23094
 C70 C 0.83923 0.26352 0.22740
 N71 N 0.84621 0.27898 0.24777
 C72 C 0.82835 0.29799 0.24995
 C73 C 0.77624 0.32991 0.23497
 N74 N 0.75439 0.33512 0.22125
 C75 C 0.75179 0.31691 0.20238
 C76 C 0.76808 0.26596 0.16855
 N77 N 0.78291 0.24545 0.16186
 C78 C 0.80331 0.24453 0.17855
 H79 H 0.84938 0.24659 0.22066
 H80 H 0.82866 0.31320 0.26445
 H81 H 0.78339 0.34070 0.25152
 H82 H 0.73613 0.31601 0.18844
 H83 H 0.75055 0.27166 0.15866
 H84 H 0.81868 0.23049 0.17822
 C85 C 0.80922 0.72654 0.28487
 C86 C 0.79522 0.73279 0.30733
 C87 C 0.77538 0.71657 0.31585
 C88 C 0.76921 0.69392 0.30197
 C89 C 0.78301 0.68779 0.27984
 C90 C 0.80314 0.70420 0.27125
 C91 C 0.82960 0.73852 0.27216
 N92 N 0.83607 0.72401 0.25116
 C93 C 0.81986 0.70291 0.25049
 C94 C 0.77279 0.66496 0.27027
 N95 N 0.75307 0.65703 0.28611
 C96 C 0.75077 0.67467 0.30550
 C97 C 0.76519 0.72744 0.33794
 N98 N 0.77841 0.74989 0.34305
 C99 C 0.79672 0.75331 0.32435
 H100 H 0.83915 0.75647 0.27787
 H101 H 0.82006 0.68747 0.23632
 H102 H 0.77922 0.65523 0.25288
 H103 H 0.73659 0.67362 0.32100
 H104 H 0.74910 0.71962 0.34908
 H105 H 0.81015 0.76960 0.32325
 C106 C 0.31609 0.21705 -0.21689
 C107 C 0.30030 0.22530 -0.19643
 C108 C 0.27783 0.21171 -0.19046
 C109 C 0.27082 0.18967 -0.20489
 C110 C 0.28637 0.18151 -0.22509
 C111 C 0.30921 0.19533 -0.23115
 C112 C 0.33885 0.22674 -0.22710
 N113 N 0.34605 0.21141 -0.24734
 C114 C 0.32796 0.19217 -0.24987
 C115 C 0.27474 0.15975 -0.23560
 N116 N 0.25251 0.15448 -0.22230
 C117 C 0.25002 0.17280 -0.20341
 C118 C 0.26639 0.22414 -0.16989
 N119 N 0.28132 0.24496 -0.16325
 C120 C 0.30220 0.24578 -0.17941
 H121 H 0.34897 0.24388 -0.22019
 H122 H 0.32834 0.17701 -0.26442
 H123 H 0.28194 0.14854 -0.25178
 H124 H 0.23447 0.17405 -0.18942
 H125 H 0.24844 0.21850 -0.16042
 H126 H 0.31777 0.26000 -0.17897
 C127 C 0.68975 0.27963 -0.21709
 C128 C 0.70366 0.27264 -0.19480
 C129 C 0.72414 0.28801 -0.18647
 C130 C 0.73110 0.31052 -0.20041
 C131 C 0.71740 0.31740 -0.22239
 C132 C 0.69654 0.30186 -0.23078
 C133 C 0.66892 0.26845 -0.22960
 N134 N 0.66280 0.28332 -0.25054
 C135 C 0.67972 0.30387 -0.25139
 C136 C 0.72852 0.33989 -0.23206
 N137 N 0.74872 0.34686 -0.21642
 C138 C 0.75032 0.32894 -0.19703
 C139 C 0.73410 0.27651 -0.16452
 N140 N 0.72008 0.25452 -0.15932
 C141 C 0.70152 0.25200 -0.17782
 H142 H 0.65884 0.25077 -0.22380
 H143 H 0.67999 0.31935 -0.26566
 H144 H 0.72223 0.35003 -0.24933
 H145 H 0.76459 0.32920 -0.18161
 H146 H 0.75058 0.28356 -0.15356
 H147 H 0.68750 0.23622 -0.17883
 C148 C 0.18661 0.78118 0.28427
 C149 C 0.20149 0.77362 0.30574
 C150 C 0.22249 0.78867 0.31340
 C151 C 0.22897 0.81143 0.29962
 C152 C 0.21434 0.81881 0.27843
 C153 C 0.19302 0.80360 0.27072
 C154 C 0.16503 0.77054 0.27255
 N155 N 0.15823 0.78590 0.25222
 C156 C 0.17529 0.80625 0.25101
 C157 C 0.22505 0.84145 0.26873
 N158 N 0.24595 0.84808 0.28356
 C159 C 0.24839 0.82976 0.30249
 C160 C 0.23309 0.77684 0.33485
 N161 N 0.21918 0.75494 0.34033
 C162 C 0.19971 0.75286 0.32263
 H163 H 0.15492 0.75290 0.27840
 H164 H 0.17491 0.82206 0.23712
 H165 H 0.21797 0.85194 0.25200
 H166 H 0.26333 0.82971 0.31724
 H167 H 0.24973 0.78367 0.34576
 H168 H 0.18501 0.73773 0.32214
 C169 C 0.47441 0.43723 0.46874
 C170 C 0.48192 0.45123 0.44651
 C171 C 0.46747 0.47205 0.43815
 C172 C 0.44524 0.47916 0.45197
 C173 C 0.43781 0.46533 0.47392
 C174 C 0.45252 0.44418 0.48237
 C175 C 0.48486 0.41619 0.48124
 N176 N 0.46988 0.41010 0.50212
 C177 C 0.44998 0.42717 0.50299
 C178 C 0.41572 0.47660 0.48339
 N179 N 0.40954 0.49694 0.46767
 C180 C 0.42753 0.49859 0.44845
 C181 C 0.47933 0.48185 0.41615
 N182 N 0.50059 0.46752 0.41099
 C183 C 0.50228 0.44867 0.42952
 H184 H 0.50214 0.40597 0.47555
 H185 H 0.43475 0.42743 0.51742
 H186 H 0.40525 0.47038 0.50057
 H187 H 0.42773 0.51300 0.43305
 H188 H 0.47294 0.49824 0.40467
 H189 H 0.51700 0.43398 0.43072
 C190 C -0.03083 -0.06220 0.96197
 C191 C -0.02363 -0.04854 0.93941
 C192 C -0.03725 -0.02686 0.93182
 C193 C -0.05833 -0.01854 0.94673
 C194 C -0.06540 -0.03203 0.96899
 C195 C -0.05156 -0.05402 0.97666
 C196 C -0.02099 -0.08386 0.97397
 N197 N -0.03533 -0.08909 0.99568
 C198 C -0.05404 -0.07086 0.99738
 C199 C -0.08632 -0.01964 0.97955
 N200 N -0.09225 0.00106 0.96431
 C201 C -0.07514 0.00185 0.94409
 C202 C -0.02585 -0.01750 0.90939
 N203 N -0.00564 -0.03306 0.90323
 C204 C -0.00423 -0.05206 0.92152
 H205 H -0.00456 -0.09469 0.96712
 H206 H -0.06844 -0.06989 1.01266
 H207 H -0.09656 -0.02530 0.99712
 H208 H -0.07467 0.01598 0.92849
 H209 H -0.03193 -0.00058 0.89860
 H210 H 0.01002 -0.06730 0.92180
 C211 C 1.02292 0.56868 0.97341
 C212 C 1.01643 0.55382 0.95148
 C213 C 1.03149 0.53289 0.94453
 C214 C 1.05321 0.52646 0.95950
 C215 C 1.05957 0.54119 0.98101
 C216 C 1.04436 0.56236 0.98801
 C217 C 1.01200 0.59011 0.98482
 N218 N 1.02627 0.59688 1.00600
 C219 C 1.04618 0.57988 1.00800
 C220 C 1.08144 0.53081 0.99177
 N221 N 1.08859 0.51000 0.97745
 C222 C 1.07137 0.50716 0.95756
 C223 C 1.02071 0.52218 0.92252
 N224 N 0.99948 0.53614 0.91592
 C225 C 0.99671 0.55541 0.93361
 H226 H 0.99489 0.60008 0.97817
 H227 H 1.06116 0.57999 1.02265
 H228 H 1.09145 0.53786 1.00890
 H229 H 1.07185 0.49242 0.94265
 H230 H 1.02777 0.50531 0.91240
 H231 H 0.98144 0.56962 0.93341
 C232 C 0.52789 0.06353 0.46566
 C233 C 0.52084 0.04987 0.44317
 C234 C 0.53440 0.02807 0.43594
 C235 C 0.55524 0.01962 0.45111
 C236 C 0.56218 0.03310 0.47328
 C237 C 0.54842 0.05522 0.48060
 C238 C 0.51820 0.08534 0.47737
 N239 N 0.53231 0.09049 0.49903
 C240 C 0.55091 0.07211 0.50115
 C241 C 0.58294 0.02059 0.48409
 N242 N 0.58886 -0.00017 0.46908
 C243 C 0.57192 -0.00088 0.44877
 C244 C 0.52325 0.01872 0.41349
 N245 N 0.50324 0.03440 0.40692
 C246 C 0.50168 0.05344 0.42501
 H247 H 0.50202 0.09670 0.47063
 H248 H 0.56528 0.07089 0.51634
 H249 H 0.59307 0.02623 0.50165
 H250 H 0.57151 -0.01501 0.43328
 H251 H 0.52934 0.00168 0.40302
 H252 H 0.48752 0.06877 0.42497
 C253 C -0.02772 0.06330 0.53583
 C254 C -0.01994 0.04772 0.55677
 C255 C -0.03424 0.02581 0.56348
 C256 C -0.05655 0.01918 0.54936
 C257 C -0.06429 0.03458 0.52878
 C258 C -0.04974 0.05678 0.52194
 C259 C -0.01742 0.08555 0.52484
 N260 N -0.03272 0.09272 0.50457
 C261 C -0.05248 0.07520 0.50272
 C262 C -0.08646 0.02348 0.51868
 N263 N -0.09234 0.00171 0.53270
 C264 C -0.07408 -0.00108 0.55140
 C265 C -0.02226 0.01453 0.58448
 N266 N -0.00104 0.02915 0.59073
 C267 C 0.00050 0.04942 0.57382
 H268 H 0.00001 0.09547 0.53119
 H269 H -0.06772 0.07579 0.48831
 H270 H -0.09711 0.03067 0.50212
 H271 H -0.07361 -0.01676 0.56549
 H272 H -0.02875 -0.00299 0.59431
 H273 H 0.01540 0.06441 0.57401
 C274 C 0.47360 0.55515 0.03700
 C275 C 0.48178 0.54131 0.05897
 C276 C 0.46775 0.51988 0.06745
 C277 C 0.44541 0.51196 0.05413
 C278 C 0.43722 0.52560 0.03250
 C279 C 0.45147 0.54742 0.02384
 C280 C 0.48350 0.57666 0.02436
 N281 N 0.46802 0.58232 0.00384
 C282 C 0.44829 0.56445 0.00339
 C283 C 0.41507 0.51331 0.02359
 N284 N 0.40979 0.49261 0.03940
 C285 C 0.42828 0.49171 0.05804
 C286 C 0.48004 0.51022 0.08903
 N287 N 0.50123 0.52537 0.09396
 C288 C 0.50247 0.54435 0.07558
 H289 H 0.50079 0.58747 0.02975
 H290 H 0.43267 0.56362 -0.01056
 H291 H 0.40395 0.51899 0.00676
 H292 H 0.42920 0.47723 0.07333
 H293 H 0.47394 0.49325 0.09999
 H294 H 0.51735 0.55932 0.07443
 C295 C 0.52554 -0.06474 0.03377
 C296 C 0.51829 -0.04960 0.05513
 C297 C 0.53250 -0.02758 0.06143
 C298 C 0.55418 -0.02040 0.04651
 C299 C 0.56142 -0.03537 0.02552
 C300 C 0.54694 -0.05767 0.01906
 C301 C 0.51530 -0.08707 0.02306
 N302 N 0.52987 -0.09372 0.00219
 C303 C 0.54936 -0.07582 -0.00035
 C304 C 0.58312 -0.02381 0.01474
 N305 N 0.58918 -0.00218 0.02874
 C306 C 0.57150 0.00005 0.04811
 C307 C 0.52113 -0.01674 0.08294
 N308 N 0.50034 -0.03173 0.08992
 C309 C 0.49847 -0.05180 0.07295
 H310 H 0.49840 -0.09773 0.02990
 H311 H 0.56436 -0.07582 -0.01503
 H312 H 0.59335 -0.03060 -0.00223
 H313 H 0.57132 0.01546 0.06238
 H314 H 0.52765 0.00081 0.09253
 H315 H 0.48375 -0.06696 0.07359
 C316 C 1.02626 0.44116 0.53347
 C317 C 1.01962 0.45564 0.55550
 C318 C 1.03512 0.47634 0.56319
 C319 C 1.05744 0.48290 0.54891
 C320 C 1.06395 0.46864 0.52722
 C321 C 1.04827 0.44765 0.51945
 C322 C 1.01506 0.41990 0.52158
 N323 N 1.02967 0.41338 0.50069
 C324 C 1.05011 0.43029 0.49930
 C325 C 1.08640 0.47928 0.51719
 N326 N 1.09376 0.49978 0.53231
 C327 C 1.07607 0.50204 0.55174
 C328 C 1.02405 0.48678 0.58508
 N329 N 1.00219 0.47287 0.59088
 C330 C 0.99934 0.45388 0.57282
 H331 H 0.99759 0.40977 0.52773
 H332 H 1.06551 0.42996 0.48507
 H333 H 1.09628 0.47241 0.50005
 H334 H 1.07670 0.51663 0.56686
 H335 H 1.03136 0.50345 0.59563
 H336 H 0.98361 0.43978 0.57237
 C337 C 0.41420 0.01684 0.21320
 H338 H 0.41593 0.03433 0.22471
 C339 C 0.43073 0.01310 0.19208
 H340 H 0.44469 0.02820 0.18730
 C341 C 0.39318 -0.02355 0.20537
 H342 H 0.37876 -0.03796 0.21078
 C343 C 0.40927 -0.02807 0.18407
 H344 H 0.40692 -0.04589 0.17314
 N345 N 0.39575 -0.00126 0.21930
 C346 C 0.33587 0.04061 0.26113
 H347 H 0.33455 0.02909 0.27874
 C348 C 0.31935 0.06156 0.25746
 H349 H 0.30540 0.06619 0.27243
 C350 C 0.35525 0.04813 0.21998
 H351 H 0.36880 0.04245 0.20512
 C352 C 0.33913 0.06926 0.21552
 H353 H 0.34053 0.07932 0.19707
 Zn354 Zn 0.37458 0.00516 0.24860
 N355 N 0.35357 0.03449 0.24264
 C356 C 0.39570 0.03287 0.29167
 N357 N 0.39686 0.01079 0.27730
 C358 C 0.41453 -0.00784 0.28260
 C359 C 0.43163 -0.00493 0.30341
 C360 C 0.41241 0.03656 0.31270
 C361 C 0.33371 -0.02903 0.23708
 C362 C 0.31648 -0.04985 0.24079
 C363 C 0.33729 -0.05884 0.28182
 C364 C 0.35407 -0.03780 0.27735
 N365 N 0.35218 -0.02357 0.25511
 H366 H 0.38188 0.04769 0.28689
 H367 H 0.41513 -0.02513 0.27074
 H368 H 0.44487 -0.02048 0.30759
 H369 H 0.41113 0.05417 0.32406
 H370 H 0.33254 -0.01728 0.21964
 H371 H 0.30255 -0.05418 0.22571
 H372 H 0.33915 -0.07008 0.29956
 H373 H 0.36852 -0.03289 0.29172
 C374 C 0.32102 0.07639 0.23457
 C375 C 0.42849 -0.00977 0.17730
 C376 C 0.31808 -0.06501 0.26354
 C377 C 0.43078 0.01763 0.31873
 C378 C 0.08777 -0.01889 0.71233
 H379 H 0.08610 -0.03603 0.72450
 C380 C 0.07115 -0.01577 0.69121
 H381 H 0.05720 -0.03102 0.68705
 C382 C 0.10859 0.02137 0.70302
 H383 H 0.12292 0.03601 0.70791
 C384 C 0.09241 0.02526 0.68168
 H385 H 0.09460 0.04283 0.67016
 N386 N 0.10610 -0.00052 0.71776
 C387 C 0.16564 -0.04028 0.76221
 H388 H 0.16642 -0.02815 0.77933
 C389 C 0.18248 -0.06114 0.75980
 H390 H 0.19570 -0.06513 0.77555
 C391 C 0.14682 -0.04982 0.72131
 H392 H 0.13318 -0.04515 0.70617
 C393 C 0.16324 -0.07091 0.71813
 H394 H 0.16190 -0.08244 0.70060
 Zn395 Zn 0.12684 -0.00582 0.74756
 N396 N 0.14818 -0.03511 0.74319
 C397 C 0.10499 -0.03235 0.79126
 N398 N 0.10405 -0.01072 0.77604
 C399 C 0.08617 0.00796 0.78027
 C400 C 0.06859 0.00557 0.80080
 C401 C 0.08780 -0.03551 0.81205
 C402 C 0.16759 0.02870 0.73550
 C403 C 0.18474 0.04955 0.73923
 C404 C 0.16359 0.05836 0.78011
 C405 C 0.14687 0.03734 0.77560
 N406 N 0.14890 0.02322 0.75342
 H407 H 0.11900 -0.04722 0.78733
 H408 H 0.08578 0.02490 0.76775
 H409 H 0.05517 0.02115 0.80410
 H410 H 0.08890 -0.05278 0.82409
 H411 H 0.16915 0.01679 0.71830
 H412 H 0.19944 0.05372 0.72472
 H413 H 0.16186 0.06880 0.79821
 H414 H 0.13254 0.03214 0.79007
 C415 C 0.18155 -0.07666 0.73735
 C416 C 0.07319 0.00675 0.67570
 C417 C 0.18266 0.06491 0.76158
 C418 C 0.06919 -0.01653 0.81696
 C419 C 0.59072 0.48165 0.21645
 H420 H 0.58976 0.46399 0.22792
 C421 C 0.57393 0.48496 0.19551
 H422 H 0.56058 0.46934 0.19077
 C423 C 0.61003 0.52297 0.20866
 H424 H 0.62385 0.53790 0.21406
 C425 C 0.59360 0.52709 0.18754
 H426 H 0.59510 0.54514 0.17670
 N427 N 0.60840 0.50044 0.22252
 C428 C 0.66816 0.45915 0.26525
 H429 H 0.66846 0.46998 0.28324
 C430 C 0.68496 0.43838 0.26183
 H431 H 0.69761 0.43322 0.27768
 C432 C 0.65057 0.45275 0.22323
 H433 H 0.63744 0.45862 0.20806
 C434 C 0.66708 0.43195 0.21894
 H435 H 0.66625 0.42183 0.20052
 Zn436 Zn 0.62948 0.49452 0.25192
 N437 N 0.65123 0.46574 0.24620
 C438 C 0.60786 0.46592 0.29449
 N439 N 0.60693 0.48829 0.28036
 C440 C 0.58889 0.50661 0.28536
 C441 C 0.57131 0.50317 0.30575
 C442 C 0.59068 0.46170 0.31511
 C443 C 0.66929 0.53000 0.24032
 C444 C 0.68579 0.55137 0.24397
 C445 C 0.66477 0.55925 0.28513
 C446 C 0.64871 0.53769 0.28071
 N447 N 0.65103 0.52376 0.25843
 H448 H 0.62170 0.45116 0.28964
 H449 H 0.58821 0.52396 0.27345
 H450 H 0.55717 0.51804 0.30955
 H451 H 0.59154 0.44353 0.32567
 H452 H 0.67080 0.51848 0.22285
 H453 H 0.69953 0.55632 0.22882
 H454 H 0.66255 0.57026 0.30288
 H455 H 0.63446 0.53216 0.29513
 C456 C 0.68469 0.42457 0.23825
 C457 C 0.57506 0.50812 0.18091
 C458 C 0.68369 0.56626 0.26675
 C459 C 0.57228 0.48068 0.32117
 C460 C 0.91676 0.51726 0.71627
 H461 H 0.91728 0.53532 0.72697
 C462 C 0.93350 0.51373 0.69526
 H463 H 0.94634 0.52957 0.68979
 C464 C 0.89864 0.47519 0.71043
 H465 H 0.88532 0.46004 0.71660
 C466 C 0.91508 0.47079 0.68938
 H467 H 0.91401 0.45231 0.67939
 N468 N 0.89960 0.49823 0.72326
 C469 C 0.83891 0.53886 0.76524
 H470 H 0.83868 0.52773 0.78313
 C471 C 0.82168 0.55927 0.76189
 H472 H 0.80880 0.56391 0.77773
 C473 C 0.85674 0.54632 0.72338
 H474 H 0.87013 0.54097 0.70825
 C475 C 0.83979 0.56684 0.71917
 H476 H 0.84053 0.57729 0.70086
 Zn477 Zn 0.87791 0.50422 0.75232
 N478 N 0.85612 0.53292 0.74622
 C479 C 0.89887 0.53355 0.79425
 N480 N 0.89964 0.51056 0.78134
 C481 C 0.91658 0.49178 0.78830
 C482 C 0.93314 0.49543 0.80946
 C483 C 0.91516 0.53807 0.81544
 C484 C 0.83837 0.46924 0.73954
 C485 C 0.82116 0.44834 0.74267
 C486 C 0.84001 0.44002 0.78479
 C487 C 0.85685 0.46114 0.78086
 N488 N 0.85591 0.47510 0.75838
 H489 H 0.88578 0.54853 0.78808
 H490 H 0.91701 0.47379 0.77751
 H491 H 0.94573 0.47973 0.81490
 H492 H 0.91418 0.55647 0.82553
 H493 H 0.83794 0.48079 0.72192
 H494 H 0.80800 0.44374 0.72697
 H495 H 0.84106 0.42903 0.80275
 H496 H 0.87049 0.46640 0.79588
 C497 C 0.82179 0.57344 0.73843
 C498 C 0.93293 0.49008 0.68159
 C499 C 0.82173 0.43349 0.76568
 C500 C 0.93266 0.51897 0.82331
 C501 C 0.20426 0.41036 0.00093
 H502 H 0.21472 0.41283 0.01898
 C503 C 0.18238 0.42517 -0.00403
 H504 H 0.17604 0.43848 0.01079
 C505 C 0.19998 0.38926 -0.03971
 H506 H 0.20713 0.37554 -0.05375
 C507 C 0.17807 0.40378 -0.04555
 H508 H 0.16838 0.40088 -0.06400
 N509 N 0.21250 0.39270 -0.01671
 C510 C 0.25854 0.33942 0.02987
 H511 H 0.27654 0.34001 0.01910
 C512 C 0.25619 0.32369 0.05195
 H513 H 0.27255 0.31230 0.05817
 C514 C 0.21523 0.35319 0.03448
 H515 H 0.19909 0.36419 0.02725
 C516 C 0.21199 0.33765 0.05661
 H517 H 0.19319 0.33696 0.06585
 Zn518 Zn 0.24300 0.37445 -0.00865
 N519 N 0.23835 0.35408 0.02183
 C520 C 0.28269 0.40157 0.01887
 N521 N 0.26966 0.39961 -0.00400
 C522 C 0.27466 0.41627 -0.02402
 C523 C 0.29413 0.43521 -0.02185
 C524 C 0.30230 0.42024 0.02190
 C525 C 0.23461 0.33175 -0.04106
 C526 C 0.23992 0.31399 -0.06074
 C527 C 0.28031 0.33674 -0.06894
 C528 C 0.27424 0.35404 -0.04907
 N529 N 0.25152 0.35150 -0.03588
 H530 H 0.27780 0.38884 0.03492
 H531 H 0.26359 0.41467 -0.04180
 H532 H 0.29807 0.44810 -0.03812
 H533 H 0.31200 0.42158 0.04046
 H534 H 0.21692 0.32987 -0.02989
 H535 H 0.22615 0.29846 -0.06474
 H536 H 0.29874 0.33895 -0.07873
 H537 H 0.28788 0.36928 -0.04405
 C538 C 0.23281 0.32287 0.06585
 C539 C 0.16912 0.42221 -0.02776
 C540 C 0.26282 0.31656 -0.07523
 C541 C 0.30856 0.43711 0.00114
 C542 C 0.71420 0.08586 -0.01515
 H543 H 0.72473 0.08614 -0.03335
 C544 C 0.69330 0.06870 -0.01173
 H545 H 0.68774 0.05638 -0.02779
 C546 C 0.70872 0.10237 0.02739
 H547 H 0.71499 0.11526 0.04273
 C548 C 0.68779 0.08546 0.03170
 H549 H 0.67798 0.08572 0.05032
 N550 N 0.72133 0.10240 0.00418
 C551 C 0.76283 0.16512 -0.03603
 H552 H 0.78088 0.16512 -0.02539
 C553 C 0.75924 0.18285 -0.05629
 H554 H 0.77504 0.19591 -0.06126
 C555 C 0.72086 0.14727 -0.04250
 H556 H 0.70580 0.13363 -0.03686
 C557 C 0.71640 0.16472 -0.06281
 H558 H 0.69796 0.16412 -0.07279
 Zn559 Zn 0.75035 0.12448 -0.00183
 N560 N 0.74391 0.14759 -0.02976
 C561 C 0.79173 0.10501 -0.03247
 N562 N 0.77873 0.10288 -0.00953
 C563 C 0.78482 0.08429 0.00820
 C564 C 0.80513 0.06733 0.00348
 C565 C 0.81225 0.08849 -0.03796
 C566 C 0.73931 0.16273 0.03475
 C567 C 0.74355 0.17910 0.05594
 C568 C 0.78515 0.15918 0.06232
 C569 C 0.78013 0.14323 0.04094
 N570 N 0.75738 0.14507 0.02783
 H571 H 0.78603 0.11924 -0.04675
 H572 H 0.77379 0.08265 0.02605
 H573 H 0.80977 0.05269 0.01787
 H574 H 0.82186 0.09029 -0.05658
 H575 H 0.72160 0.16414 0.02367
 H576 H 0.72893 0.19304 0.06118
 H577 H 0.80365 0.15768 0.07196
 H578 H 0.79462 0.12968 0.03465
 C579 C 0.73563 0.18291 -0.06991
 C580 C 0.67988 0.06820 0.01211
 C581 C 0.76657 0.17730 0.07021
 C582 C 0.81937 0.06948 -0.01968
 C583 C 0.21758 0.58585 0.48578
 H584 H 0.22902 0.58472 0.46820
 C585 C 0.19637 0.56912 0.48937
 H586 H 0.19146 0.55561 0.47406
 C587 C 0.20997 0.60565 0.52654
 H588 H 0.21550 0.61967 0.54114
 C589 C 0.18858 0.58934 0.53091
 H590 H 0.17768 0.59114 0.54880
 N591 N 0.22382 0.60381 0.50413
 C592 C 0.26598 0.66463 0.46175
 H593 H 0.28382 0.66545 0.47273
 C594 C 0.26231 0.68159 0.44086
 H595 H 0.27753 0.69536 0.43574
 C596 C 0.22426 0.64609 0.45557
 H597 H 0.20920 0.63270 0.46177
 C598 C 0.21973 0.66275 0.43462
 H599 H 0.20103 0.66187 0.42526
 Zn600 Zn 0.25309 0.62544 0.49771
 N601 N 0.24721 0.64709 0.46847
 C602 C 0.29566 0.60472 0.46955
 N603 N 0.28160 0.60339 0.49190
 C604 C 0.28700 0.58560 0.51066
 C605 C 0.30757 0.56855 0.50761
 C606 C 0.31643 0.58807 0.46569
 C607 C 0.24136 0.66552 0.53211
 C608 C 0.24489 0.68244 0.55300
 C609 C 0.28595 0.66226 0.56165
 C610 C 0.28165 0.64575 0.54057
 N611 N 0.25948 0.64746 0.52647
 H612 H 0.29077 0.61859 0.45460
 H613 H 0.27538 0.58483 0.52817
 H614 H 0.31183 0.55520 0.52325
 H615 H 0.32752 0.58947 0.44784
 H616 H 0.22399 0.66657 0.52046
 H617 H 0.22973 0.69600 0.55746
 H618 H 0.30363 0.66053 0.57279
 H619 H 0.29609 0.63166 0.53550
 C620 C 0.23907 0.68067 0.42680
 C621 C 0.18163 0.57065 0.51233
 C622 C 0.26756 0.68100 0.56804
 C623 C 0.32254 0.56956 0.48474
 C624 C 0.71118 0.91528 0.51344
 H625 H 0.72207 0.91648 0.53136
 C626 C 0.69076 0.93222 0.50899
 H627 H 0.68590 0.94639 0.52366
 C628 C 0.70475 0.89575 0.47228
 H629 H 0.71071 0.88202 0.45770
 C630 C 0.68416 0.91227 0.46705
 H631 H 0.67474 0.91097 0.44833
 N632 N 0.71757 0.89729 0.49532
 C633 C 0.75773 0.83662 0.53809
 H634 H 0.77539 0.83573 0.52681
 C635 C 0.75380 0.81958 0.55894
 H636 H 0.76860 0.80564 0.56372
 C637 C 0.71676 0.85552 0.54512
 H638 H 0.70211 0.86911 0.53927
 C639 C 0.71205 0.83888 0.56618
 H640 H 0.69361 0.83991 0.57605
 Zn641 Zn 0.74618 0.87579 0.50251
 N642 N 0.73945 0.85429 0.53175
 C643 C 0.78777 0.89739 0.53188
 N644 N 0.77498 0.89796 0.50881
 C645 C 0.78186 0.91511 0.48977
 C646 C 0.80272 0.93224 0.49330
 C647 C 0.80868 0.91426 0.53630
 C648 C 0.73413 0.83599 0.46751
 C649 C 0.73795 0.81883 0.44694
 C650 C 0.78064 0.83756 0.44076
 C651 C 0.77594 0.85443 0.46138
 N652 N 0.75286 0.85354 0.47411
 H653 H 0.78170 0.88401 0.54700
 H654 H 0.77120 0.91527 0.47168
 H655 H 0.80812 0.94502 0.47743
 H656 H 0.81868 0.91350 0.55478
 H657 H 0.71605 0.83553 0.47815
 H658 H 0.72232 0.80573 0.44173
 H659 H 0.79911 0.83860 0.43080
 H660 H 0.79085 0.86806 0.46727
 C661 C 0.73087 0.82072 0.57347
 C662 C 0.67675 0.93067 0.48570
 C663 C 0.76162 0.81936 0.43334
 C664 C 0.81635 0.93210 0.51698
 C665 C 0.01437 0.21684 0.41654
 H666 H 0.03156 0.22899 0.41791
 C667 C 0.01094 0.19585 0.43355
 H668 H 0.02599 0.19181 0.44752
 C669 C -0.02560 0.20728 0.39596
 H670 H -0.03998 0.21196 0.38153
 C671 C -0.02978 0.18607 0.41251
 H672 H -0.04730 0.17447 0.41048
 N673 N -0.00367 0.22201 0.39808
 C674 C 0.03707 0.26407 0.33630
 H675 H 0.02512 0.28111 0.33471
 C676 C 0.05803 0.26097 0.31949
 H677 H 0.06221 0.27579 0.30502
 C678 C 0.04573 0.22379 0.35674
 H679 H 0.04051 0.20904 0.37085
 C680 C 0.06690 0.21992 0.34036
 H681 H 0.07746 0.20200 0.34210
 Zn682 Zn 0.00223 0.25109 0.37609
 N683 N 0.03151 0.24576 0.35466
 C684 C 0.02970 0.29484 0.39607
 N685 N 0.00752 0.28040 0.39770
 C686 C -0.01094 0.28578 0.41569
 C687 C -0.00776 0.30681 0.43253
 C688 C 0.03366 0.31606 0.41248
 C689 C -0.03129 0.23757 0.33562
 C690 C -0.05201 0.24010 0.31845
 C691 C -0.06222 0.28096 0.33877
 C692 C -0.04126 0.27767 0.35551
 N693 N -0.02645 0.25608 0.35383
 H694 H 0.04455 0.28976 0.38228
 H695 H -0.02815 0.27364 0.41696
 H696 H -0.02269 0.31087 0.44669
 H697 H 0.05175 0.32679 0.41110
 H698 H -0.01910 0.22067 0.33463
 H699 H -0.05581 0.22466 0.30473
 H700 H -0.07393 0.29818 0.34046
 H701 H -0.03685 0.29241 0.36976
 C702 C 0.07346 0.23884 0.32156
 C703 C -0.01152 0.18021 0.43173
 C704 C -0.06775 0.26216 0.31982
 C705 C 0.01459 0.32248 0.43085
 C706 C -0.01529 0.72313 0.08797
 H707 H -0.03265 0.73456 0.08645
 C708 C -0.01147 0.70233 0.07110
 H709 H -0.02605 0.69772 0.05666
 C710 C 0.02502 0.71559 0.10834
 H711 H 0.03949 0.72118 0.12244
 C712 C 0.02963 0.69463 0.09190
 H713 H 0.04782 0.68462 0.09358
 N714 N 0.00267 0.72910 0.10637
 C715 C -0.03924 0.76946 0.16745
 H716 H -0.02789 0.78721 0.16884
 C717 C -0.06019 0.76521 0.18418
 H718 H -0.06500 0.77986 0.19839
 C719 C -0.04632 0.72849 0.14766
 H720 H -0.04046 0.71392 0.13389
 C721 C -0.06742 0.72346 0.16396
 H722 H -0.07728 0.70486 0.16249
 Zn723 Zn -0.00369 0.75792 0.12811
 N724 N -0.03291 0.75133 0.14945
 C725 C -0.03142 0.80074 0.10733
 N726 N -0.00927 0.78681 0.10610
 C727 C 0.00937 0.79244 0.08820
 C728 C 0.00628 0.81298 0.07073
 C729 C -0.03530 0.82149 0.09026
 C730 C 0.03042 0.74591 0.16851
 C731 C 0.05117 0.74956 0.18553
 C732 C 0.05976 0.79124 0.16531
 C733 C 0.03881 0.78680 0.14872
 N734 N 0.02489 0.76424 0.15032
 H735 H -0.04622 0.79568 0.12136
 H736 H 0.02673 0.78093 0.08756
 H737 H 0.02175 0.81739 0.05719
 H738 H -0.05304 0.83241 0.09147
 H739 H 0.01870 0.72837 0.16971
 H740 H 0.05543 0.73467 0.19978
 H741 H 0.07015 0.80956 0.16390
 H742 H 0.03359 0.80154 0.13475
 C743 C -0.07478 0.74212 0.18237
 C744 C 0.01102 0.68752 0.07318
 C745 C 0.06641 0.77226 0.18381
 C746 C -0.01648 0.82766 0.07147
 C747 C 0.49124 0.21476 0.58623
 H748 H 0.47364 0.22589 0.58533
 C749 C 0.49503 0.19432 0.56895
 H750 H 0.48017 0.18970 0.55480
 C751 C 0.53218 0.20767 0.60548
 H752 H 0.54687 0.21331 0.61935
 C753 C 0.53677 0.18704 0.58859
 H754 H 0.55515 0.17730 0.58968
 N755 N 0.50956 0.22082 0.60424
 C756 C 0.46880 0.25962 0.66698
 H757 H 0.48009 0.27743 0.66818
 C758 C 0.44808 0.25534 0.68396
 H759 H 0.44337 0.27036 0.69776
 C760 C 0.46103 0.21904 0.64665
 H761 H 0.46627 0.20482 0.63226
 C762 C 0.44011 0.21398 0.66320
 H763 H 0.42928 0.19593 0.66126
 Zn764 Zn 0.50304 0.24927 0.62640
 N765 N 0.47469 0.24171 0.64861
 C766 C 0.47286 0.29098 0.60709
 N767 N 0.49563 0.27819 0.60492
 C768 C 0.51331 0.28489 0.58640
 C769 C 0.50866 0.30559 0.56950
 C770 C 0.46745 0.31185 0.59063
 C771 C 0.53865 0.23829 0.66575
 C772 C 0.55945 0.24277 0.68251
 C773 C 0.56613 0.28475 0.66227
 C774 C 0.54516 0.27949 0.64593
 N775 N 0.53209 0.25644 0.64773
 H776 H 0.45866 0.28483 0.62133
 H777 H 0.53103 0.27405 0.58475
 H778 H 0.52299 0.31069 0.55489
 H779 H 0.44895 0.32126 0.59246
 H780 H 0.52760 0.22033 0.66712
 H781 H 0.56442 0.22808 0.69673
 H782 H 0.57575 0.30348 0.66077
 H783 H 0.53915 0.29403 0.63209
 C784 C 0.43348 0.23215 0.68226
 C785 C 0.51786 0.17994 0.57018
 C786 C 0.57369 0.26609 0.68073
 C787 C 0.48564 0.31956 0.57164
 C788 C 0.50911 0.70799 0.91936
 H789 H 0.52677 0.71945 0.92062
 C790 C 0.50497 0.68712 0.93635
 H791 H 0.51962 0.68251 0.95063
 C792 C 0.46834 0.70050 0.89958
 H793 H 0.45381 0.70615 0.88566
 C794 C 0.46342 0.67942 0.91614
 H795 H 0.44498 0.66936 0.91472
 N796 N 0.49103 0.71410 0.90124
 C797 C 0.53236 0.75582 0.83962
 H798 H 0.52095 0.77328 0.83871
 C799 C 0.55310 0.75266 0.82256
 H800 H 0.55771 0.76818 0.80905
 C801 C 0.54033 0.71496 0.85919
 H802 H 0.53514 0.70019 0.87330
 C803 C 0.56127 0.71100 0.84252
 H804 H 0.57217 0.69323 0.84410
 Zn805 Zn 0.49776 0.74325 0.87955
 N806 N 0.52652 0.73723 0.85761
 C807 C 0.52734 0.78549 0.89982
 N808 N 0.50450 0.77213 0.90140
 C809 C 0.48630 0.77841 0.91935
 C810 C 0.49038 0.79938 0.93607
 C811 C 0.53223 0.80660 0.91615
 C812 C 0.46306 0.73143 0.83957
 C813 C 0.44252 0.73518 0.82241
 C814 C 0.43486 0.77669 0.84259
 C815 C 0.45558 0.77215 0.85934
 N816 N 0.46907 0.74970 0.85769
 H817 H 0.54197 0.77967 0.88610
 H818 H 0.46853 0.76711 0.92059
 H819 H 0.47559 0.80423 0.95011
 H820 H 0.55077 0.81648 0.91475
 H821 H 0.47423 0.71383 0.83857
 H822 H 0.43781 0.71996 0.80872
 H823 H 0.42429 0.79465 0.84419
 H824 H 0.46093 0.78669 0.87349
 C825 C 0.56779 0.72986 0.82377
 C826 C 0.48204 0.67233 0.93471
 C827 C 0.42823 0.75823 0.82366
 C828 C 0.51341 0.81404 0.93436
 C829 C 0.14249 0.23094 0.26852
 C830 C 0.13791 0.21690 0.29016
 C831 C 0.11585 0.22074 0.30813
 C832 C 0.09537 0.23578 0.30319
 H833 H 0.15114 0.20180 0.29570
 H834 H 0.11686 0.21021 0.32631
 H835 H 0.12988 0.24670 0.26333
 H836 H 0.09442 0.24679 0.28531
 C837 C 0.63469 0.71631 0.76904
 C838 C 0.61575 0.73362 0.76562
 C839 C 0.59335 0.73703 0.78326
 C840 C 0.59035 0.72540 0.80652
 H841 H 0.61606 0.74611 0.74871
 H842 H 0.57869 0.75010 0.77626
 H843 H 0.63409 0.70306 0.78536
 H844 H 0.60448 0.71170 0.81337
 C845 C 0.36384 0.77587 0.76739
 C846 C 0.38160 0.75727 0.76453
 C847 C 0.40331 0.75248 0.78266
 C848 C 0.40610 0.76350 0.80614
 H849 H 0.38093 0.74485 0.74768
 H850 H 0.41765 0.73901 0.77581
 H851 H 0.36484 0.78893 0.78375
 H852 H 0.39221 0.77744 0.81292
 C853 C -0.13306 0.27671 0.26398
 C854 C -0.11543 0.25784 0.26173
 C855 C -0.09288 0.25471 0.27918
 C856 C -0.09042 0.26591 0.30261
 H857 H -0.11673 0.24403 0.24603
 H858 H -0.07788 0.24209 0.27211
 H859 H -0.13082 0.29109 0.27911
 H860 H -0.10527 0.27865 0.30972
 C861 C -0.14414 0.73025 0.23459
 C862 C -0.13818 0.71581 0.21372
 C863 C -0.11653 0.72150 0.19562
 C864 C -0.09663 0.73774 0.20066
 H865 H -0.14983 0.69898 0.20879
 H866 H -0.11711 0.71105 0.17743
 H867 H -0.13307 0.74776 0.23853
 H868 H -0.09605 0.74850 0.21864
 C869 C 0.36711 0.21418 0.73681
 C870 C 0.38496 0.23321 0.73979
 C871 C 0.40775 0.23738 0.72272
 C872 C 0.41079 0.22666 0.69918
 H873 H 0.38360 0.24660 0.75582
 H874 H 0.42240 0.25057 0.73015
 H875 H 0.36940 0.20018 0.72138
 H876 H 0.39643 0.21316 0.69176
 C877 C 0.64278 0.27771 0.73306
 C878 C 0.63685 0.29254 0.71235
 C879 C 0.61509 0.28724 0.69431
 C880 C 0.59540 0.27060 0.69909
 H881 H 0.64862 0.30936 0.70752
 H882 H 0.61553 0.29816 0.67631
 H883 H 0.63146 0.26033 0.73704
 H884 H 0.59495 0.25940 0.71689
 C885 C 0.13626 0.78086 0.23572
 C886 C 0.13112 0.79540 0.21465
 C887 C 0.10889 0.79122 0.19696
 C888 C 0.08837 0.77573 0.20207
 H889 H 0.14415 0.81109 0.20924
 H890 H 0.10978 0.80189 0.17883
 H891 H 0.12400 0.76437 0.24058
 H892 H 0.08752 0.76463 0.21993
 C893 C 0.26921 0.14564 0.22520
 C894 C 0.28978 0.14026 0.21028
 C895 C 0.30752 0.11826 0.21462
 C896 C 0.30292 0.09827 0.23093
 H897 H 0.29467 0.15284 0.19410
 H898 H 0.32520 0.11889 0.20336
 H899 H 0.26481 0.13378 0.24205
 H900 H 0.28550 0.09772 0.24255
 C901 C 0.76749 0.64040 0.72593
 C902 C 0.76330 0.62004 0.74186
 C903 C 0.78171 0.59866 0.74644
 C904 C 0.80400 0.59534 0.73344
 H905 H 0.74531 0.61856 0.75252
 H906 H 0.77572 0.58461 0.76097
 H907 H 0.78528 0.64206 0.71498
 H908 H 0.80929 0.60839 0.71776
 C909 C 0.76528 0.36760 0.78111
 C910 C 0.76349 0.38528 0.76188
 C911 C 0.78123 0.40786 0.75834
 C912 C 0.80427 0.41079 0.77014
 H913 H 0.74795 0.38396 0.74792
 H914 H 0.77471 0.42254 0.74486
 H915 H 0.78030 0.36978 0.79558
 H916 H 0.81080 0.39640 0.78390
 C917 C 0.26239 -0.13114 0.28070
 C918 C 0.25965 -0.11308 0.26194
 C919 C 0.27722 -0.09045 0.25788
 C920 C 0.30081 -0.08774 0.26854
 H921 H 0.24343 -0.11412 0.24876
 H922 H 0.27007 -0.07555 0.24499
 H923 H 0.27811 -0.12925 0.29444
 H924 H 0.30798 -0.10236 0.28172
 C925 C 0.23833 -0.14025 0.72134
 C926 C 0.23979 -0.12333 0.74117
 C927 C 0.22198 -0.10133 0.74497
 C928 C 0.19881 -0.09911 0.73341
 H929 H 0.25524 -0.12463 0.75521
 H930 H 0.22864 -0.08645 0.75824
 H931 H 0.22341 -0.13798 0.70682
 H932 H 0.19212 -0.11387 0.72003
 C933 C 0.73630 0.35572 0.22543
 C934 C 0.74132 0.37568 0.24148
 C935 C 0.72358 0.39750 0.24655
 C936 C 0.70188 0.40226 0.23307
 H937 H 0.75943 0.37642 0.25193
 H938 H 0.72968 0.41067 0.26172
 H939 H 0.71825 0.35471 0.21490
 H940 H 0.69670 0.39010 0.21677
 C941 C 0.73651 0.63451 0.28337
 C942 C 0.74012 0.61666 0.26478
 C943 C 0.72350 0.59336 0.26079
 C944 C 0.70009 0.58958 0.27164
 H945 H 0.75645 0.61853 0.25177
 H946 H 0.73121 0.57890 0.24782
 H947 H 0.72094 0.63212 0.29725
 H948 H 0.69242 0.60375 0.28493
 C949 C 0.23636 0.13403 0.77227
 C950 C 0.21423 0.12933 0.78540
 C951 C 0.19617 0.10732 0.78047
 C952 C 0.20125 0.08678 0.76536
 H953 H 0.20818 0.14236 0.80057
 H954 H 0.17773 0.10840 0.79033
 H955 H 0.24175 0.12136 0.75651
 H956 H 0.21935 0.08575 0.75492
 C957 C 0.22288 0.26955 0.13512
 C958 C 0.21014 0.29179 0.13113
 C959 C 0.21259 0.30837 0.10761
 C960 C 0.23078 0.30578 0.08914
 H961 H 0.19666 0.29847 0.14563
 H962 H 0.19896 0.32406 0.10632
 H963 H 0.23635 0.26260 0.12073
 H964 H 0.24558 0.29131 0.09134
 C965 C 0.72192 0.76772 0.64284
 C966 C 0.70637 0.78761 0.63698
 C967 C 0.71068 0.80601 0.61512
 C968 C 0.72701 0.80204 0.59522
 H969 H 0.68972 0.79141 0.64902
 H970 H 0.69938 0.82352 0.61569
 H971 H 0.73918 0.76447 0.63150
 H972 H 0.73850 0.78467 0.59467
 C973 C 0.77418 0.76789 0.36390
 C974 C 0.75896 0.76212 0.38436
 C975 C 0.75374 0.77990 0.40629
 C976 C 0.76710 0.80192 0.41112
 H977 H 0.74920 0.74345 0.38532
 H978 H 0.73862 0.77356 0.41946
 H979 H 0.78390 0.78656 0.36264
 H980 H 0.78348 0.80722 0.39905
 C981 C 0.27522 0.26239 -0.14238
 C982 C 0.28948 0.28375 -0.13725
 C983 C 0.28387 0.30238 -0.11620
 C984 C 0.26806 0.29743 -0.09600
 H985 H 0.30581 0.28874 -0.14948
 H986 H 0.29372 0.32099 -0.11769
 H987 H 0.25807 0.25804 -0.13104
 H988 H 0.25801 0.27894 -0.09453
 C989 C 0.72384 0.23609 -0.13861
 C990 C 0.73933 0.24108 -0.11824
 C991 C 0.74413 0.22283 -0.09648
 C992 C 0.73044 0.20091 -0.09189
 H993 H 0.74961 0.25946 -0.11723
 H994 H 0.75934 0.22866 -0.08326
 H995 H 0.71351 0.21776 -0.13991
 H996 H 0.71404 0.19607 -0.10402
 C997 C 0.22450 0.73796 0.36191
 C998 C 0.21330 0.71438 0.36440
 C999 C 0.21760 0.69612 0.38628
 C1000 C 0.23547 0.69929 0.40500
 H1001 H 0.19980 0.70772 0.34977
 H1002 H 0.20550 0.67884 0.38617
 H1003 H 0.23817 0.74483 0.37626
 H1004 H 0.24874 0.71567 0.40423
 C1005 C 0.28358 0.73524 0.63493
 C1006 C 0.26534 0.73845 0.61666
 C1007 C 0.26127 0.72118 0.59400
 C1008 C 0.27237 0.69794 0.59085
 H1009 H 0.25265 0.75491 0.61769
 H1010 H 0.24815 0.72836 0.57937
 H1011 H 0.29699 0.71938 0.63354
 H1012 H 0.28590 0.69083 0.60512
 C1013 C 0.77722 0.22855 0.14032
 C1014 C 0.79215 0.20834 0.13403
 C1015 C 0.78727 0.19057 0.11191
 C1016 C 0.77081 0.19530 0.09231
 H1017 H 0.80876 0.20383 0.14585
 H1018 H 0.79830 0.17287 0.11201
 H1019 H 0.75999 0.23253 0.12920
 H1020 H 0.75953 0.21283 0.09225
 C1021 C 0.47525 0.38892 0.51955
 C1022 C 0.45970 0.38238 0.53952
 C1023 C 0.46458 0.36064 0.55777
 C1024 C 0.48102 0.34118 0.55314
 H1025 H 0.44272 0.39372 0.54348
 H1026 H 0.45363 0.36091 0.57569
 H1027 H 0.49280 0.37825 0.51615
 H1028 H 0.49202 0.34089 0.53527
 C1029 C -0.03237 0.89131 0.01332
 C1030 C -0.01387 0.87327 0.01129
 C1031 C -0.00996 0.85166 0.02991
 C1032 C -0.02105 0.84971 0.05348
 H1033 H -0.00085 0.87348 -0.00514
 H1034 H 0.00302 0.83670 0.02343
 H1035 H -0.04585 0.89036 0.02940
 H1036 H -0.03444 0.86427 0.05998
 C1037 C 0.02083 0.61740 0.02173
 C1038 C 0.03490 0.62327 0.04297
 C1039 C 0.02999 0.64533 0.06058
 C1040 C 0.01479 0.66556 0.05504
 H1041 H 0.05078 0.61113 0.04873
 H1042 H 0.04003 0.64465 0.07899
 H1043 H 0.00425 0.62905 0.01688
 H1044 H 0.00432 0.66621 0.03688
 C1045 C 0.52751 0.11207 0.51601
 C1046 C 0.54162 0.11671 0.53745
 C1047 C 0.53752 0.13854 0.55564
 C1048 C 0.52151 0.15847 0.55142
 H1049 H 0.55700 0.10369 0.54266
 H1050 H 0.54852 0.13773 0.57348
 H1051 H 0.51165 0.12458 0.51100
 H1052 H 0.50997 0.15917 0.53395
 C1053 C -0.02932 0.11452 0.48723
 C1054 C -0.00992 0.13194 0.48980
 C1055 C -0.00558 0.15460 0.47242
 C1056 C -0.01633 0.15737 0.44883
 H1057 H 0.00339 0.13031 0.50587
 H1058 H 0.00750 0.16942 0.47971
 H1059 H -0.04340 0.11677 0.47190
 H1060 H -0.02955 0.14269 0.44155
 C1061 C 0.47258 0.60272 0.98737
 C1062 C 0.45725 0.60836 0.96705
 C1063 C 0.46174 0.63039 0.94884
 C1064 C 0.47794 0.65053 0.95329
 H1065 H 0.44074 0.59610 0.96263
 H1066 H 0.45073 0.62969 0.93100
 H1067 H 0.48962 0.61458 0.99094
 H1068 H 0.48916 0.65127 0.97098
 C1069 C 0.52470 0.88383 0.98632
 C1070 C 0.53822 0.87874 0.96465
 C1071 C 0.53371 0.85615 0.94737
 C1072 C 0.51734 0.83623 0.95235
 H1073 H 0.55341 0.89201 0.95848
 H1074 H 0.54468 0.85643 0.92946
 H1075 H 0.50894 0.87114 0.99224
 H1076 H 0.50571 0.83612 0.96980
 C1077 C 0.02410 0.39164 0.48398
 C1078 C 0.03739 0.38740 0.46197
 C1079 C 0.03304 0.36526 0.44412
 C1080 C 0.01777 0.34452 0.44914
 H1081 H 0.05231 0.40105 0.45600
 H1082 H 0.04345 0.36641 0.42590
 H1083 H 0.00834 0.37878 0.48955
 H1084 H 0.00672 0.34346 0.46696
 C1085 C 0.38824 0.51452 0.47017
 C1086 C 0.37003 0.51179 0.48868
 C1087 C 0.34777 0.52931 0.49227
 C1088 C 0.34498 0.55239 0.48036
 H1089 H 0.37078 0.49554 0.50198
 H1090 H 0.33312 0.52246 0.50576
 H1091 H 0.38709 0.53014 0.45616
 H1092 H 0.35926 0.55915 0.46646
 C1093 C 0.88780 0.01738 -0.03057
 C1094 C 0.88203 0.03789 -0.04569
 C1095 C 0.86050 0.05595 -0.04062
 C1096 C 0.84066 0.05101 -0.02436
 H1097 H 0.89384 0.04263 -0.06242
 H1098 H 0.86129 0.07408 -0.05129
 H1099 H 0.87646 0.01354 -0.01327
 H1100 H 0.83982 0.03300 -0.01352
 C1101 C 0.61006 0.01610 0.02445
 C1102 C 0.62975 0.01133 0.00816
 C1103 C 0.65182 0.02936 0.00311
 C1104 C 0.65742 0.05058 0.01729
 H1105 H 0.62998 -0.00669 -0.00252
 H1106 H 0.66444 0.02385 -0.01263
 H1107 H 0.60953 0.03411 0.03514
 H1108 H 0.64584 0.05502 0.03415
 C1109 C 0.11471 0.51595 0.52936
 C1110 C 0.13220 0.51329 0.51017
 C1111 C 0.15508 0.53047 0.50611
 C1112 C 0.15861 0.55380 0.51726
 H1113 H 0.13051 0.49737 0.49665
 H1114 H 0.16948 0.52323 0.49281
 H1115 H 0.11725 0.53133 0.54342
 H1116 H 0.14449 0.56104 0.53085
 C1117 C 0.10968 0.49542 -0.01687
 C1118 C 0.11641 0.47427 -0.03027
 C1119 C 0.13956 0.45967 -0.02266
 C1120 C 0.14594 0.43758 -0.03457
 H1121 H 0.10500 0.46743 -0.04653
 H1122 H 0.15158 0.46754 -0.00733
 H1123 H 0.12155 0.50114 -0.00041
 H1124 H 0.13399 0.43076 -0.05053
 C1125 C 0.60868 0.98339 0.47443
 C1126 C 0.61438 0.96281 0.45953
 C1127 C 0.63582 0.94464 0.46467
 C1128 C 0.65543 0.94919 0.48123
 H1129 H 0.60263 0.95814 0.44281
 H1130 H 0.63519 0.92674 0.45375
 H1131 H 0.61998 0.98722 0.49169
 H1132 H 0.65608 0.96690 0.49243
 C1133 C 0.88647 0.98372 0.52886
 C1134 C 0.86638 0.98905 0.51329
 C1135 C 0.84411 0.97129 0.50847
 C1136 C 0.83888 0.94954 0.52215
 H1137 H 0.86598 1.00737 0.50298
 H1138 H 0.83108 0.97737 0.49328
 H1139 H 0.88716 0.96546 0.53924
 H1140 H 0.85087 0.94447 0.53854
 C1141 C 0.38901 0.47388 0.03756
 C1142 C 0.36973 0.47572 0.02035
 C1143 C 0.34911 0.45567 0.01969
 C1144 C 0.32945 0.45710 0.00287
 H1145 H 0.36895 0.49189 0.00690
 H1146 H 0.35054 0.43930 0.03285
 H1147 H 0.38898 0.45759 0.05102
 H1148 H 0.32915 0.47309 -0.01092
 C1149 C 0.51759 0.47216 0.38922
 C1150 C 0.53920 0.45843 0.38539
 C1151 C 0.55750 0.46223 0.36347
 C1152 C 0.55333 0.47743 0.34266
 H1153 H 0.54454 0.44364 0.39925
 H1154 H 0.57539 0.45168 0.36499
 H1155 H 0.51255 0.48759 0.37595
 H1156 H 0.53583 0.48858 0.34124
 C1157 C 0.01201 -0.03075 0.88166
 C1158 C 0.01063 -0.01161 0.86393
 C1159 C 0.02849 -0.00846 0.84155
 C1160 C 0.05150 -0.02017 0.83946
 H1161 H -0.00470 0.00241 0.86513
 H1162 H 0.02211 0.00454 0.82638
 H1163 H 0.02665 -0.04544 0.87991
 H1164 H 0.05787 -0.03328 0.85453
 C1165 C 0.01715 0.02499 0.61146
 C1166 C 0.01459 0.00543 0.62865
 C1167 C 0.03237 0.00074 0.65068
 C1168 C 0.05607 0.01149 0.65309
 H1169 H -0.00189 -0.00763 0.62748
 H1170 H 0.02514 -0.01241 0.66551
 H1171 H 0.03298 0.03879 0.61323
 H1172 H 0.06330 0.02485 0.63845
 C1173 C 0.51983 0.52242 0.11453
 C1174 C 0.51619 0.50557 0.13424
 C1175 C 0.53435 0.50146 0.15607
 C1176 C 0.55769 0.51296 0.15853
 H1177 H 0.49863 0.49399 0.13507
 H1178 H 0.52751 0.48821 0.17100
 H1179 H 0.53690 0.53474 0.11388
 H1180 H 0.56432 0.52706 0.14433
 C1181 C 0.48272 -0.02789 0.11123
 C1182 C 0.48610 -0.00892 0.12881
 C1183 C 0.46883 -0.00420 0.15126
 C1184 C 0.44523 -0.01498 0.15449
 H1185 H 0.50286 0.00378 0.12748
 H1186 H 0.47637 0.00909 0.16569
 H1187 H 0.46663 -0.04139 0.11307
 H1188 H 0.43774 -0.02862 0.14038
 C1189 C 0.98426 0.47698 0.61187
 C1190 C 0.98943 0.49327 0.63159
 C1191 C 0.97184 0.49834 0.65375
 C1192 C 0.95001 0.48482 0.65900
 H1193 H 1.00756 0.50395 0.63184
 H1194 H 0.97813 0.51361 0.66673
 H1195 H 0.96621 0.46620 0.61136
 H1196 H 0.94460 0.46845 0.64700
 C1197 C 0.98209 0.53186 0.89449
 C1198 C 0.98757 0.51570 0.87485
 C1199 C 0.97051 0.51056 0.85224
 C1200 C 0.94940 0.52430 0.84622
 H1201 H 1.00553 0.50518 0.87508
 H1202 H 0.97664 0.49505 0.83965
 H1203 H 0.96418 0.54246 0.89456
 H1204 H 0.94431 0.54089 0.85788
 C1205 C 0.48588 0.03202 0.38518
 C1206 C 0.48823 0.01347 0.36708
 C1207 C 0.47083 0.01007 0.34443
 C1208 C 0.44793 0.02179 0.34150
 H1209 H 0.50407 0.00002 0.36822
 H1210 H 0.47757 -0.00313 0.32967
 H1211 H 0.47071 0.04619 0.38360
 H1212 H 0.44126 0.03531 0.35597
   
