data_POSCAR
  _audit_creation_date              2014-09-24
  _audit_creation_method            'ToBaCCo'
  _symmetry_space_group_name_H-M    'P1'
  _symmetry_Int_Tables_number       1
  _symmetry_cell_setting            triclinic
  loop_
  _symmetry_equiv_pos_as_xyz
 x,y,z
_cell_length_a 21.8881
_cell_length_b 21.2333
_cell_length_c 24.1457
_cell_angle_alpha 91.944000
_cell_angle_beta 89.862400
_cell_angle_gamma 86.703000
loop_
  _atom_site_label
  _atom_site_type_symbol
  _atom_site_fract_x
  _atom_site_fract_y
  _atom_site_fract_z
C1 C 1.21015 0.20880 0.22415
 C2 C 1.23859 0.25407 0.18395
 C3 C 1.27934 0.29230 0.20832
 C4 C 1.28646 0.28262 0.27110
 C5 C 1.26534 0.17397 0.25061
 C6 C 1.30465 0.21236 0.27606
 C7 C 1.18155 0.25149 0.27115
 C8 C 1.22181 0.28975 0.29642
 H9 H 1.23238 0.25145 0.13957
 H10 H 1.31842 0.31418 0.29139
 H11 H 1.27075 0.12303 0.25199
 H12 H 1.13526 0.24748 0.28597
 C13 C 0.72869 -0.31011 0.20246
 C14 C 0.76138 -0.27042 0.16024
 C15 C 0.80218 -0.23190 0.18427
 C16 C 0.80737 -0.23750 0.24714
 C17 C 0.78009 -0.34567 0.23352
 C18 C 0.82102 -0.30752 0.25741
 C19 C 0.70081 -0.26135 0.24548
 C20 C 0.74232 -0.22416 0.26986
 H21 H 0.74805 -0.26695 0.11727
 H22 H 0.84165 -0.20654 0.26499
 H23 H 0.77978 -0.39562 0.24120
 H24 H 0.65329 -0.25991 0.25821
 C25 C 0.73151 0.17471 -0.30292
 C26 C 0.76947 0.21690 -0.33167
 C27 C 0.78651 0.26987 -0.29810
 C28 C 0.76335 0.26883 -0.24063
 C29 C 0.76721 0.15530 -0.25519
 C30 C 0.78578 0.20685 -0.22063
 C31 C 0.68001 0.21413 -0.28073
 C32 C 0.69659 0.26576 -0.24538
 H33 H 0.78444 0.20836 -0.37409
 H34 H 0.77638 0.30914 -0.21407
 H35 H 0.78264 0.10664 -0.24919
 H36 H 0.63320 0.20224 -0.28785
 C37 C 1.22587 -0.30299 -0.29229
 C38 C 1.27006 -0.27239 -0.33110
 C39 C 1.30466 -0.22944 -0.30522
 C40 C 1.29204 -0.22108 -0.24262
 C41 C 1.26595 -0.33099 -0.24624
 C42 C 1.30029 -0.28792 -0.21967
 C43 C 1.18850 -0.24791 -0.26379
 C44 C 1.22300 -0.20548 -0.23769
 H45 H 1.27488 -0.28443 -0.37480
 H46 H 1.31915 -0.18501 -0.22147
 H47 H 1.26522 -0.37975 -0.23464
 H48 H 1.13890 -0.24401 -0.26275
 C49 C 0.21392 0.21072 0.78945
 C50 C 0.25720 0.25063 0.81668
 C51 C 0.28336 0.29431 0.78149
 C52 C 0.26125 0.28972 0.72461
 C53 C 0.16580 0.25551 0.76280
 C54 C 0.19082 0.29685 0.72879
 C55 C 0.24915 0.17866 0.74060
 C56 C 0.27466 0.21973 0.70661
 H57 H 0.26590 0.24987 0.86083
 H58 H 0.28109 0.32336 0.69640
 H59 H 0.11713 0.25585 0.77088
 H60 H 0.25329 0.12792 0.73386
 C61 C 0.68120 0.74043 0.80612
 C62 C 0.72824 0.77805 0.83102
 C63 C 0.77369 0.79600 0.79300
 C64 C 0.76287 0.77248 0.73608
 C65 C 0.65524 0.77765 0.76118
 C66 C 0.70031 0.79610 0.72244
 C67 C 0.71494 0.68700 0.77873
 C68 C 0.75843 0.70394 0.73877
 H69 H 0.73088 0.78803 0.87521
 H70 H 0.79791 0.78508 0.70608
 H71 H 0.60682 0.79051 0.75754
 H72 H 0.70976 0.63836 0.78796
 C73 C 0.68254 0.21037 0.27932
 C74 C 0.72153 0.25201 0.31753
 C75 C 0.76735 0.27944 0.29031
 C76 C 0.76877 0.26412 0.22766
 C77 C 0.65905 0.25438 0.23373
 C78 C 0.70434 0.28246 0.20648
 C79 C 0.72920 0.16394 0.24981
 C80 C 0.77362 0.19228 0.22278
 H81 H 0.71652 0.25559 0.36211
 H82 H 0.80594 0.28568 0.20510
 H83 H 0.61110 0.26123 0.22333
 H84 H 0.72820 0.11308 0.25167
 C85 C 0.17346 0.70514 0.29320
 C86 C 0.21908 0.74493 0.32623
 C87 C 0.26443 0.76675 0.29385
 C88 C 0.25860 0.74795 0.23195
 C89 C 0.14892 0.74825 0.24775
 C90 C 0.19309 0.77081 0.21566
 C91 C 0.21386 0.65391 0.26287
 C92 C 0.25850 0.67583 0.23105
 H93 H 0.21818 0.75123 0.37088
 H94 H 0.29484 0.76532 0.20533
 H95 H 0.10070 0.76107 0.24262
 H96 H 0.20744 0.60408 0.26699
 O97 O 1.10581 0.01908 0.07393
 O98 O 0.89764 -0.02721 0.05468
 O99 O 0.97270 0.10366 0.07364
 O100 O 1.04383 -0.11485 0.05055
 O101 O 0.88908 0.08280 0.03618
 O102 O 1.12360 -0.08072 0.01935
 O103 O 0.93851 -0.11504 0.02144
 O104 O 1.07349 0.11274 0.05502
 C105 C 1.09746 0.07547 0.08858
 C106 C 0.90633 -0.08498 0.05790
 C107 C 0.91740 0.09990 0.07824
 C108 C 1.09913 -0.10848 0.05645
 O109 O 1.11601 -0.01996 -0.07247
 O110 O 0.90564 0.05307 -0.07402
 O111 O 1.04707 0.11627 -0.05907
 O112 O 0.97508 -0.09472 -0.08614
 O113 O 0.89050 -0.05766 -0.05270
 O114 O 1.12508 0.07701 -0.02086
 O115 O 1.07834 -0.11036 -0.06329
 O116 O 0.94195 0.13265 -0.03238
 Co117 Co 1.10707 -0.00048 -0.00008
 Co118 Co 0.90692 0.01221 -0.00898
 Co119 Co 1.00886 0.10579 0.00734
 Co120 Co 1.00910 -0.09821 -0.01772
 O121 O 1.00764 0.00460 -0.00515
 C122 C 1.10957 -0.07413 -0.09082
 C123 C 0.91356 0.11041 -0.07247
 C124 C 1.10292 0.10490 -0.06053
 C125 C 0.91939 -0.08606 -0.09144
 O126 O 1.10606 0.57138 0.53165
 O127 O 0.86342 0.46119 0.56188
 O128 O 0.92661 0.59678 0.58612
 O129 O 1.03799 0.38757 0.56240
 O130 O 0.85079 0.57502 0.53741
 O131 O 1.07423 0.47700 0.57799
 O132 O 0.92711 0.37894 0.54054
 O133 O 1.02895 0.58966 0.58146
 C134 C 1.08398 0.59584 0.57517
 C135 C 0.88531 0.40659 0.57126
 C136 C 0.87109 0.59347 0.58237
 C137 C 1.06815 0.42288 0.59273
 O138 O 1.13719 0.45599 0.49076
 O139 O 0.87421 0.54552 0.43471
 O140 O 1.02851 0.61792 0.46972
 O141 O 0.95706 0.39573 0.43118
 O142 O 0.86758 0.42911 0.45805
 O143 O 1.06841 0.52825 0.43668
 O144 O 1.06230 0.40566 0.45192
 O145 O 0.91821 0.62527 0.47500
 Co146 Co 1.06718 0.50048 0.50720
 Co147 Co 0.87428 0.50282 0.49900
 Co148 Co 0.97574 0.59991 0.52638
 Co149 Co 0.99426 0.40193 0.49814
 O150 O 0.97439 0.50336 0.50897
 C151 C 1.11965 0.41017 0.45867
 C152 C 0.89430 0.59973 0.43285
 C153 C 1.05560 0.58590 0.43101
 C154 C 0.90117 0.39870 0.42377
 O155 O 0.63005 0.05827 0.50878
 O156 O 0.39024 -0.05517 0.54740
 O157 O 0.45463 0.07598 0.57372
 O158 O 0.56463 -0.12921 0.53465
 O159 O 0.37502 0.06218 0.52810
 O160 O 0.60392 -0.04137 0.55013
 O161 O 0.45275 -0.13586 0.51804
 O162 O 0.55816 0.06881 0.56513
 C163 C 0.61269 0.07629 0.55603
 C164 C 0.41270 -0.11094 0.55195
 C165 C 0.39944 0.08681 0.56873
 C166 C 0.59910 -0.09630 0.56289
 O167 O 0.65878 -0.05244 0.45976
 O168 O 0.39244 0.03916 0.42439
 O169 O 0.55035 0.10801 0.45523
 O170 O 0.47383 -0.11331 0.40887
 O171 O 0.38687 -0.07938 0.44244
 O172 O 0.58422 0.02108 0.41344
 O173 O 0.58257 -0.10455 0.42439
 O174 O 0.44203 0.11478 0.46559
 Co175 Co 0.58983 -0.01148 0.48212
 Co176 Co 0.39692 -0.00852 0.48621
 Co177 Co 0.50138 0.08462 0.51321
 Co178 Co 0.51679 -0.11066 0.47354
 O179 O 0.49772 -0.00987 0.49023
 C180 C 0.64020 -0.09824 0.42838
 C181 C 0.41185 0.09396 0.42500
 C182 C 0.57166 0.07917 0.41213
 C183 C 0.41714 -0.11131 0.40663
 O184 O 0.61150 0.55040 0.03837
 O185 O 0.37769 0.41637 0.02001
 O186 O 0.41940 0.60631 0.05603
 O187 O 0.56279 0.37426 0.03712
 O188 O 0.39654 0.51371 0.06907
 O189 O 0.62894 0.44131 0.01661
 O190 O 0.45968 0.38831 0.05648
 O191 O 0.52727 0.57997 0.08345
 C192 C 0.58430 0.57050 0.08268
 C193 C 0.40416 0.39047 0.05929
 C194 C 0.39634 0.56840 0.08650
 C195 C 0.61399 0.39542 0.04304
 O196 O 0.60038 0.45234 -0.08891
 O197 O 0.37671 0.57437 -0.03035
 O198 O 0.55928 0.62872 -0.00932
 O199 O 0.43386 0.38105 -0.05865
 O200 O 0.39439 0.47367 -0.07649
 O201 O 0.57755 0.56437 -0.07472
 O202 O 0.54356 0.37451 -0.07165
 O203 O 0.46106 0.61213 -0.04829
 Co204 Co 0.59428 0.50217 -0.02550
 Co205 Co 0.39807 0.49503 -0.00414
 Co206 Co 0.49168 0.59293 0.01734
 Co207 Co 0.49893 0.39006 -0.00902
 O208 O 0.49744 0.49305 -0.00606
 C209 C 0.58175 0.39924 -0.10129
 C210 C 0.40689 0.60971 -0.05863
 C211 C 0.57728 0.61954 -0.05736
 C212 C 0.40466 0.41749 -0.09104
 N213 N 1.12624 0.07163 0.18827
 N214 N 1.15296 0.10896 0.22457
 C215 C 1.16750 0.16215 0.19949
 C216 C 1.14706 0.15926 0.14545
 C217 C 1.12225 0.10106 0.13997
 H218 H 1.15253 0.19263 0.11320
 H219 H 1.11190 0.02677 0.19641
 H220 H 1.16365 0.09675 0.26510
 N221 N 1.10016 0.60382 0.67533
 N222 N 1.13964 0.62683 0.71040
 C223 C 1.18433 0.65169 0.68135
 C224 C 1.17412 0.64187 0.62494
 C225 C 1.12000 0.61204 0.62341
 H226 H 1.19835 0.65922 0.59005
 H227 H 1.05959 0.58413 0.68697
 H228 H 1.13348 0.62968 0.75335
 N229 N 0.64321 0.05112 0.64775
 N230 N 0.68072 0.07675 0.68777
 C231 C 0.71071 0.12289 0.66431
 C232 C 0.69536 0.12489 0.60807
 C233 C 0.65253 0.08026 0.60011
 H234 H 0.70492 0.16135 0.57954
 H235 H 0.60975 0.01937 0.65566
 H236 H 0.67664 0.06922 0.73012
 N237 N 0.60345 0.58768 0.18303
 N238 N 0.64153 0.61931 0.21410
 C239 C 0.68187 0.64596 0.18098
 C240 C 0.67021 0.62860 0.12642
 C241 C 0.62001 0.59204 0.12977
 H242 H 0.69249 0.64319 0.08932
 H243 H 0.56617 0.56476 0.19810
 H244 H 0.63863 0.62411 0.25723
 N245 N 0.85720 -0.08298 0.14978
 N246 N 0.82941 -0.12089 0.18233
 C247 C 0.82856 -0.17837 0.15719
 C248 C 0.85796 -0.17732 0.10597
 C249 C 0.87565 -0.11546 0.10329
 H250 H 0.86534 -0.21555 0.07549
 H251 H 0.86339 -0.03545 0.15950
 H252 H 0.81076 -0.10707 0.22103
 N253 N 0.85494 0.41017 0.67012
 N254 N 0.82873 0.37390 0.70547
 C255 C 0.81967 0.31785 0.67972
 C256 C 0.84301 0.31838 0.62586
 C257 C 0.86422 0.37781 0.62161
 H258 H 0.84157 0.28270 0.59295
 H259 H 0.86491 0.45701 0.67879
 H260 H 0.81499 0.38922 0.74533
 N261 N 0.42729 -0.13836 0.64981
 N262 N 0.39815 -0.16806 0.68816
 C263 C 0.34933 -0.19391 0.66471
 C264 C 0.34726 -0.17997 0.60890
 C265 C 0.39759 -0.14483 0.60138
 H266 H 0.31276 -0.19136 0.57873
 H267 H 0.46600 -0.11276 0.65710
 H268 H 0.41162 -0.17015 0.72954
 N269 N 0.40574 0.37582 0.15958
 N270 N 0.37374 0.35113 0.19872
 C271 C 0.32179 0.33028 0.17671
 C272 C 0.32067 0.34361 0.12016
 C273 C 0.37532 0.37243 0.11133
 H274 H 0.28727 0.33071 0.08948
 H275 H 0.44890 0.39343 0.16578
 H276 H 0.38968 0.34629 0.23908
 N277 N 0.88598 0.21725 -0.10691
 N278 N 0.85086 0.24338 -0.14525
 C279 C 0.82528 0.19723 -0.17543
 C280 C 0.84543 0.13901 -0.15484
 C281 C 0.88363 0.15401 -0.11151
 H282 H 0.83325 0.09225 -0.16818
 H283 H 0.91050 0.24267 -0.07754
 H284 H 0.84547 0.29200 -0.15015
 N285 N 0.92266 0.68487 0.37208
 N286 N 0.90587 0.70741 0.32389
 C287 C 0.86162 0.67230 0.30261
 C288 C 0.85070 0.62446 0.33837
 C289 C 0.88957 0.63501 0.38214
 H290 H 0.81571 0.59051 0.33560
 H291 H 0.95543 0.70423 0.39792
 H292 H 0.92321 0.74750 0.30726
 N293 N 0.42512 0.19157 0.37418
 N294 N 0.39764 0.22280 0.33407
 C295 C 0.35239 0.18847 0.31385
 C296 C 0.35154 0.13250 0.34185
 C297 C 0.39772 0.13698 0.38021
 H298 H 0.31865 0.09643 0.33841
 H299 H 0.46080 0.20847 0.39807
 H300 H 0.40880 0.26760 0.32233
 N301 N 0.40740 0.70891 -0.10806
 N302 N 0.38112 0.73523 -0.15119
 C303 C 0.33771 0.69791 -0.17044
 C304 C 0.33580 0.64543 -0.13732
 C305 C 0.38101 0.65457 -0.09830
 H306 H 0.30793 0.60519 -0.14244
 H307 H 0.44435 0.72709 -0.08676
 H308 H 0.39480 0.77686 -0.16794
 N309 N 1.18575 -0.05992 -0.16471
 N310 N 1.21691 -0.09461 -0.20257
 C311 C 1.19621 -0.15287 -0.20345
 C312 C 1.14999 -0.15589 -0.16427
 C313 C 1.14535 -0.09579 -0.14012
 H314 H 1.12608 -0.19676 -0.15281
 H315 H 1.19364 -0.01299 -0.15492
 H316 H 1.25216 -0.07867 -0.22673
 N317 N 1.22502 0.37942 0.42571
 N318 N 1.25177 0.34907 0.38275
 C319 C 1.20840 0.32638 0.34904
 C320 C 1.15127 0.34248 0.37247
 C321 C 1.16409 0.37642 0.42087
 H322 H 1.10675 0.33289 0.35586
 H323 H 1.24837 0.40233 0.45747
 H324 H 1.29913 0.34400 0.37754
 N325 N 0.74474 -0.12310 0.39200
 N326 N 0.77160 -0.15461 0.34980
 C327 C 0.72859 -0.18254 0.31924
 C328 C 0.67160 -0.16832 0.34368
 C329 C 0.68419 -0.13045 0.38959
 H330 H 0.62733 -0.18264 0.32991
 H331 H 0.76782 -0.09680 0.42179
 H332 H 0.81877 -0.15689 0.34315
 N333 N 0.56062 0.33709 -0.18647
 N334 N 0.59077 0.30120 -0.22419
 C335 C 0.65167 0.30466 -0.21607
 C336 C 0.66004 0.34699 -0.17136
 C337 C 0.60075 0.36559 -0.15354
 H338 H 0.70246 0.35795 -0.15129
 H339 H 0.51300 0.34026 -0.18231
 H340 H 0.56882 0.27409 -0.25404
 N341 N 1.20194 0.09564 -0.10776
 N342 N 1.23040 0.12141 -0.14836
 C343 C 1.19153 0.16412 -0.17152
 C344 C 1.13489 0.16482 -0.14508
 C345 C 1.14406 0.12059 -0.10480
 H346 H 1.09488 0.19618 -0.15088
 H347 H 1.22282 0.06284 -0.08151
 H348 H 1.27678 0.11252 -0.15774
 N349 N 1.05087 0.60888 0.33133
 N350 N 1.07964 0.64323 0.29619
 C351 C 1.12303 0.67464 0.32347
 C352 C 1.12137 0.65958 0.37897
 C353 C 1.07517 0.61759 0.38176
 H354 H 1.15198 0.67331 0.41176
 H355 H 1.01604 0.57918 0.32059
 H356 H 1.07184 0.64241 0.25351
 N357 N 0.57101 0.09830 0.31123
 N358 N 0.59841 0.13479 0.27681
 C359 C 0.63320 0.17443 0.30608
 C360 C 0.62626 0.16329 0.36212
 C361 C 0.58696 0.11439 0.36327
 H362 H 0.65087 0.18292 0.39680
 H363 H 0.54375 0.06154 0.29901
 H364 H 0.59659 0.12961 0.23368
 N365 N 0.58665 0.73028 -0.07337
 N366 N 0.61319 0.76491 -0.11413
 C367 C 0.63677 0.72375 -0.15357
 C368 C 0.62177 0.66288 -0.14040
 C369 C 0.59307 0.66898 -0.08954
 H370 H 0.63391 0.61844 -0.16187
 H371 H 0.56824 0.74924 -0.03606
 H372 H 0.61911 0.81335 -0.11081
 N373 N 0.91317 -0.12950 -0.18883
 N374 N 0.87421 -0.16053 -0.21979
 C375 C 0.82344 -0.16876 -0.18955
 C376 C 0.83044 -0.13992 -0.13733
 C377 C 0.88782 -0.11587 -0.13864
 H378 H 0.79940 -0.13820 -0.10232
 H379 H 0.95685 -0.11878 -0.20173
 H380 H 0.88400 -0.17771 -0.26003
 N381 N 0.90939 0.34347 0.33169
 N382 N 0.87446 0.31290 0.29675
 C383 C 0.81746 0.31251 0.31807
 C384 C 0.81614 0.34505 0.36920
 C385 C 0.87563 0.36402 0.37602
 H386 H 0.77792 0.35292 0.39759
 H387 H 0.95583 0.34972 0.32522
 H388 H 0.89042 0.29123 0.25963
 N389 N 0.41422 -0.17620 0.31882
 N390 N 0.37437 -0.20780 0.28963
 C391 C 0.31940 -0.20230 0.31536
 C392 C 0.32479 -0.16488 0.36345
 C393 C 0.38586 -0.14909 0.36379
 H394 H 0.28966 -0.15146 0.39390
 H395 H 0.46025 -0.17370 0.30807
 H396 H 0.38552 -0.23399 0.25327
 N397 N 0.36199 0.43181 -0.18240
 N398 N 0.32967 0.39564 -0.22033
 C399 C 0.32363 0.33878 -0.19836
 C400 C 0.35571 0.33596 -0.14849
 C401 C 0.37810 0.39517 -0.13972
 H402 H 0.35795 0.29785 -0.11978
 H403 H 0.36977 0.47956 -0.18626
 H404 H 0.30842 0.41333 -0.25565
 N405 N 1.19648 -0.11849 0.10734
 N406 N 1.22159 -0.14983 0.14842
 C407 C 1.17962 -0.18585 0.17006
 C408 C 1.12453 -0.17633 0.14146
 C409 C 1.13775 -0.13345 0.10158
 H410 H 1.08205 -0.19894 0.14739
 H411 H 1.21982 -0.08763 0.08330
 H412 H 1.26679 -0.14593 0.16113
 N413 N 1.13366 0.44153 0.67393
 N414 N 1.16688 0.40847 0.70921
 C415 C 1.15477 0.34754 0.70226
 C416 C 1.11133 0.34121 0.66073
 C417 C 1.09951 0.40249 0.64353
 H418 H 1.09565 0.29798 0.64212
 H419 H 1.13812 0.48936 0.66809
 H420 H 1.19919 0.42721 0.73586
 N421 N 0.69987 -0.10785 0.60669
 N422 N 0.72746 -0.13673 0.64794
 C423 C 0.68607 -0.16853 0.67550
 C424 C 0.62910 -0.15976 0.64968
 C425 C 0.64055 -0.12130 0.60581
 H426 H 0.58611 -0.17890 0.66064
 H427 H 0.72175 -0.07952 0.57915
 H428 H 0.77348 -0.13219 0.65760
 N429 N 0.71239 0.38913 0.09441
 N430 N 0.73545 0.36085 0.13821
 C431 C 0.69395 0.32267 0.15805
 C432 C 0.64213 0.32678 0.12500
 C433 C 0.65593 0.36931 0.08504
 H434 H 0.60004 0.30310 0.12971
 H435 H 0.73465 0.42249 0.07219
 H436 H 0.77843 0.36917 0.15459
 N437 N 0.91967 0.12971 0.17787
 N438 N 0.88152 0.15316 0.21661
 C439 C 0.82497 0.15755 0.19512
 C440 C 0.82669 0.13627 0.14023
 C441 C 0.88792 0.11933 0.13099
 H442 H 0.78981 0.13762 0.11045
 H443 H 0.96696 0.12315 0.18306
 H444 H 0.89452 0.16828 0.25625
 N445 N 0.78875 0.57297 0.64767
 N446 N 0.76058 0.60133 0.69071
 C447 C 0.78303 0.65891 0.69960
 C448 C 0.82867 0.66664 0.66071
 C449 C 0.83050 0.61093 0.62893
 H450 H 0.85601 0.70689 0.65544
 H451 H 0.77929 0.52833 0.63153
 H452 H 0.72457 0.58190 0.71133
 N453 N 0.35871 0.19757 0.57934
 N454 N 0.32575 0.23312 0.61554
 C455 C 0.31293 0.19774 0.65885
 C456 C 0.33943 0.13718 0.65006
 C457 C 0.36790 0.13940 0.59938
 H458 H 0.33751 0.09688 0.67613
 H459 H 0.37377 0.21273 0.54120
 H460 H 0.31110 0.28006 0.60959
 N461 N 0.35291 0.54471 0.17722
 N462 N 0.31622 0.57249 0.21509
 C463 C 0.30371 0.63285 0.20137
 C464 C 0.33506 0.64442 0.15298
 C465 C 0.36496 0.58669 0.13876
 H466 H 0.33229 0.68676 0.12917
 H467 H 0.36777 0.49715 0.17699
 H468 H 0.29930 0.54959 0.24899
   
