data_POSCAR
  _audit_creation_date              2014-09-24
  _audit_creation_method            'ToBaCCo'
  _symmetry_space_group_name_H-M    'P1'
  _symmetry_Int_Tables_number       1
  _symmetry_cell_setting            triclinic
  loop_
  _symmetry_equiv_pos_as_xyz
 x,y,z
_cell_length_a 35.7983
_cell_length_b 33.3089
_cell_length_c 13.1036
_cell_angle_alpha 89.869500
_cell_angle_beta 89.333000
_cell_angle_gamma 120.216500
loop_
  _atom_site_label
  _atom_site_type_symbol
  _atom_site_fract_x
  _atom_site_fract_y
  _atom_site_fract_z
C1 C 0.15651 0.47066 0.48417
 C2 C 0.17944 0.48275 0.39150
 C3 C 0.22428 0.51298 0.38943
 C4 C 0.24693 0.53309 0.47987
 C5 C 0.22226 0.52322 0.57156
 C6 C 0.17806 0.49023 0.57472
 C7 C 0.29578 0.55930 0.48168
 C8 C 0.31684 0.56304 0.57494
 C9 C 0.36154 0.58350 0.57941
 C10 C 0.38655 0.60345 0.49128
 C11 C 0.36726 0.59561 0.39658
 C12 C 0.32193 0.57486 0.39110
 H13 H 0.12254 0.44421 0.48637
 H14 H 0.24100 0.51819 0.31723
 H15 H 0.23721 0.53863 0.64310
 H16 H 0.29900 0.54577 0.64364
 H17 H 0.42129 0.61817 0.49352
 H18 H 0.30794 0.56988 0.31648
 C19 C 0.61130 -0.28017 0.45620
 C20 C 0.60166 -0.26294 0.36944
 C21 C 0.57193 -0.24749 0.37517
 C22 C 0.55036 -0.25024 0.46782
 C23 C 0.55966 -0.26906 0.55446
 C24 C 0.59076 -0.28281 0.54905
 C25 C 0.52036 -0.23123 0.47585
 C26 C 0.51614 -0.21309 0.56982
 C27 C 0.49068 -0.19250 0.57854
 C28 C 0.46690 -0.19242 0.49467
 C29 C 0.47360 -0.20561 0.39896
 C30 C 0.49949 -0.22614 0.38917
 H31 H 0.63489 -0.29145 0.45143
 H32 H 0.56632 -0.23312 0.30691
 H33 H 0.54359 -0.27234 0.62705
 H34 H 0.53554 -0.21091 0.63451
 H35 H 0.44787 -0.17546 0.49996
 H36 H 0.50366 -0.23694 0.31428
 C37 C 1.29508 0.88147 0.46504
 C38 C 1.27501 0.85179 0.38299
 C39 C 1.24494 0.80495 0.40087
 C40 C 1.23210 0.78716 0.50101
 C41 C 1.25094 0.81864 0.58301
 C42 C 1.28369 0.86478 0.56600
 C43 C 1.20109 0.73598 0.51940
 C44 C 1.19734 0.71589 0.61701
 C45 C 1.16884 0.66866 0.63472
 C46 C 1.14566 0.63992 0.55516
 C47 C 1.14852 0.65810 0.45812
 C48 C 1.17514 0.70610 0.44014
 H49 H 1.31961 0.91732 0.45028
 H50 H 1.23240 0.78295 0.33499
 H51 H 1.24209 0.80786 0.66143
 H52 H 1.21581 0.73610 0.68107
 H53 H 1.12362 0.60323 0.56966
 H54 H 1.17490 0.71917 0.36496
 C55 C 0.87330 0.53998 0.50897
 C56 C 0.85103 0.53322 0.41744
 C57 C 0.81022 0.52939 0.42031
 C58 C 0.79145 0.53207 0.51414
 C59 C 0.81552 0.54043 0.60469
 C60 C 0.85524 0.54198 0.60315
 C61 C 0.74545 0.52145 0.51932
 C62 C 0.72025 0.50199 0.60892
 C63 C 0.67730 0.49161 0.61489
 C64 C 0.65807 0.49848 0.52972
 C65 C 0.68198 0.51654 0.43820
 C66 C 0.72564 0.52883 0.43433
 H67 H 0.90427 0.54155 0.50763
 H68 H 0.79226 0.52108 0.35022
 H69 H 0.80265 0.54297 0.67786
 H70 H 0.73340 0.49406 0.67478
 H71 H 0.62462 0.48991 0.53516
 H72 H 0.74385 0.54433 0.36467
 C73 C 0.41469 0.33922 0.50560
 C74 C 0.43094 0.33042 0.41598
 C75 C 0.44358 0.29668 0.41646
 C76 C 0.43803 0.27014 0.50554
 C77 C 0.42074 0.27918 0.59396
 C78 C 0.41090 0.31468 0.59499
 C79 C 0.45185 0.23468 0.51006
 C80 C 0.46787 0.22771 0.60191
 C81 C 0.47641 0.19150 0.61355
 C82 C 0.47147 0.16297 0.53020
 C83 C 0.45747 0.17065 0.43507
 C84 C 0.44734 0.20619 0.42627
 H85 H 0.40772 0.36735 0.50719
 H86 H 0.45863 0.29214 0.34872
 H87 H 0.41565 0.25939 0.66359
 H88 H 0.47306 0.25002 0.66663
 H89 H 0.47806 0.13482 0.53978
 H90 H 0.43497 0.21069 0.35476
 C91 C 0.66756 0.07131 0.50390
 C92 C 0.68530 0.09624 0.41303
 C93 C 0.72481 0.13859 0.41553
 C94 C 0.74593 0.15617 0.50979
 C95 C 0.72634 0.12969 0.59963
 C96 C 0.68585 0.08962 0.59686
 C97 C 0.78519 0.20376 0.51838
 C98 C 0.79428 0.22722 0.61302
 C99 C 0.83166 0.26988 0.62594
 C100 C 0.85891 0.29193 0.54370
 C101 C 0.84990 0.27147 0.44804
 C102 C 0.81369 0.22685 0.43458
 H103 H 0.63607 0.03999 0.50391
 H104 H 0.73697 0.15876 0.34582
 H105 H 0.74073 0.14072 0.67359
 H106 H 0.77279 0.21315 0.67836
 H107 H 0.88763 0.32565 0.55388
 H108 H 0.80800 0.21098 0.36024
 N109 N 0.95156 0.50503 0.12272
 N110 N 0.92533 0.51890 0.16073
 N111 N 1.04557 0.53077 0.18274
 N112 N 1.07360 0.55401 0.25438
 N113 N 1.04227 0.55927 0.11897
 N114 N 1.06853 0.60300 0.14518
 N115 N 0.95508 0.47708 0.18839
 N116 N 0.93091 0.47050 0.27001
 C117 C 0.91181 0.49558 0.25131
 C118 C 1.08817 0.59885 0.22887
 N119 N 1.05102 0.41985 0.10094
 N120 N 1.08413 0.41316 0.10907
 N121 N 0.96037 0.39473 0.17920
 N122 N 0.93090 0.37099 0.24931
 N123 N 0.96026 0.36729 0.10749
 N124 N 0.93050 0.32344 0.12753
 N125 N 1.05122 0.44716 0.17324
 N126 N 1.08454 0.45965 0.23383
 Mn127 Mn 1.00332 0.46254 0.18136
 C128 C 1.10455 0.43808 0.19192
 C129 C 0.91230 0.32685 0.21599
 N130 N 1.04360 0.56226 -0.09850
 N131 N 1.07987 0.60239 -0.09119
 N132 N 0.95555 0.48241 -0.17419
 N133 N 0.93136 0.47731 -0.25292
 N134 N 0.95274 0.50956 -0.10539
 N135 N 0.92716 0.52494 -0.13914
 N136 N 1.04661 0.53693 -0.17178
 N137 N 1.08491 0.56000 -0.21771
 Mn138 Mn 0.99701 0.53425 0.00907
 C139 C 1.10472 0.60073 -0.16685
 C140 C 0.91334 0.50297 -0.23015
 N141 N 0.95949 0.37096 -0.11072
 N142 N 0.92230 0.33154 -0.10613
 N143 N 1.05045 0.45219 -0.18314
 N144 N 1.08384 0.46744 -0.24701
 N145 N 1.05079 0.42312 -0.11604
 N146 N 1.08481 0.41826 -0.13082
 N147 N 0.95890 0.39883 -0.18117
 N148 N 0.92119 0.37846 -0.22757
 Mn149 Mn 1.00527 0.39482 -0.00503
 Mn150 Mn 1.00310 0.46777 -0.17862
 Cl151 Cl 1.00198 0.46489 0.00186
 C152 C 0.89938 0.33636 -0.18087
 C153 C 1.10478 0.44583 -0.21276
 N154 N 0.43527 0.45761 0.11439
 N155 N 0.41147 0.41314 0.14066
 N156 N 0.46530 0.56333 0.13414
 N157 N 0.45191 0.58390 0.19891
 N158 N 0.43545 0.54031 0.06601
 N159 N 0.40105 0.54447 0.08393
 N160 N 0.46482 0.48038 0.18320
 N161 N 0.46291 0.45232 0.25643
 C162 C 0.42956 0.41086 0.22929
 C163 C 0.41231 0.57297 0.16518
 N164 N 0.59080 0.62223 0.07519
 N165 N 0.62131 0.66632 0.08206
 N166 N 0.55621 0.52930 0.19132
 N167 N 0.56300 0.51626 0.28075
 N168 N 0.58837 0.53923 0.12750
 N169 N 0.61860 0.53418 0.17338
 N170 N 0.55885 0.61236 0.13958
 N171 N 0.56684 0.64919 0.19297
 Mn172 Mn 0.51122 0.54656 0.16223
 C173 C 0.60545 0.68254 0.15484
 C174 C 0.60144 0.51880 0.26809
 N175 N 0.44110 0.52438 -0.14851
 N176 N 0.41544 0.53922 -0.18227
 N177 N 0.46951 0.45101 -0.16982
 N178 N 0.45825 0.41518 -0.23090
 N179 N 0.43890 0.44089 -0.10084
 N180 N 0.40654 0.39811 -0.11235
 N181 N 0.47309 0.53529 -0.21366
 N182 N 0.47046 0.55802 -0.29275
 Mn183 Mn 0.43727 0.49050 -0.01741
 C184 C 0.43485 0.56054 -0.27157
 C185 C 0.41930 0.38240 -0.19229
 N186 N 0.59185 0.52071 -0.08917
 N187 N 0.62238 0.50955 -0.09436
 N188 N 0.56570 0.58457 -0.20793
 N189 N 0.56961 0.61537 -0.27772
 N190 N 0.59476 0.60480 -0.13671
 N191 N 0.61916 0.64965 -0.15580
 N192 N 0.56395 0.50077 -0.16308
 N193 N 0.57520 0.47615 -0.22145
 Mn194 Mn 0.59185 0.57166 -0.00597
 Mn195 Mn 0.51808 0.51773 -0.18969
 Cl196 Cl 0.51462 0.53146 -0.01268
 C197 C 0.61109 0.48136 -0.17610
 C198 C 0.60350 0.65553 -0.24411
 N199 N 0.38395 -0.04608 0.06484
 N200 N 0.34172 -0.06430 0.07517
 N201 N 0.45931 0.02517 0.19767
 N202 N 0.46835 0.04657 0.28586
 N203 N 0.44434 0.04383 0.13313
 N204 N 0.44279 0.07893 0.17708
 N205 N 0.39836 -0.06367 0.13371
 N206 N 0.36630 -0.09359 0.19350
 C207 C 0.33125 -0.09429 0.15415
 C208 C 0.45829 0.07998 0.27215
 N209 N 0.55415 0.00304 0.13066
 N210 N 0.59370 0.02724 0.16717
 N211 N 0.46478 -0.08956 0.13231
 N212 N 0.45193 -0.12550 0.19455
 N213 N 0.49400 -0.08749 0.06725
 N214 N 0.50159 -0.12189 0.08498
 N215 N 0.52537 0.00074 0.19699
 N216 N 0.54431 0.02304 0.28081
 Mn217 Mn 0.46188 -0.03201 0.16530
 C218 C 0.58665 0.03965 0.26052
 C219 C 0.47422 -0.14615 0.16269
 N220 N 0.46586 0.07495 -0.08003
 N221 N 0.46129 0.11176 -0.08995
 N222 N 0.43625 -0.01150 -0.21269
 N223 N 0.41971 -0.03105 -0.30033
 N224 N 0.40603 -0.01613 -0.14779
 N225 N 0.36731 -0.04051 -0.18999
 N226 N 0.49466 0.07707 -0.14661
 N227 N 0.50948 0.11461 -0.20501
 Mn228 Mn 0.42462 0.01427 -0.00750
 C229 C 0.48891 0.13605 -0.16733
 C230 C 0.37705 -0.04903 -0.28555
 N231 N 0.51473 -0.05634 -0.14243
 N232 N 0.51148 -0.09487 -0.17942
 N233 N 0.56149 0.05227 -0.14118
 N234 N 0.59330 0.08252 -0.20021
 N235 N 0.57592 0.03293 -0.07714
 N236 N 0.61780 0.04961 -0.09219
 N237 N 0.50105 -0.03712 -0.20860
 N238 N 0.48777 -0.06195 -0.29207
 Mn239 Mn 0.53485 -0.02713 -0.00551
 Mn240 Mn 0.49863 0.02039 -0.17718
 Cl241 Cl 0.47977 -0.00610 -0.00610
 C242 C 0.49437 -0.09755 -0.27249
 C243 C 0.62845 0.08172 -0.16683
 N244 N 1.16011 0.46137 0.30824
 N245 N 1.14283 0.44059 0.22958
 N246 N 0.61702 0.73404 0.28100
 N247 N 0.62942 0.72754 0.19815
 N248 N 0.28317 -0.13217 0.28918
 N249 N 0.28928 -0.11733 0.20073
 N250 N 0.86788 0.52480 0.32457
 N251 N 0.89023 0.50498 0.33209
 N252 N 0.44216 0.36218 0.33239
 N253 N 0.41453 0.37046 0.29193
 N254 N 0.65917 0.08139 0.32339
 N255 N 0.61834 0.06089 0.33719
 N256 N 0.48635 0.18358 -0.29531
 N257 N 0.49446 0.17878 -0.20629
 N258 N 0.65574 0.47655 -0.29871
 N259 N 0.63684 0.46320 -0.21562
 N260 N 0.84306 0.28749 -0.28329
 N261 N 0.85510 0.30329 -0.19763
 N262 N 0.49646 -0.16312 -0.33638
 N263 N 0.48702 -0.13136 -0.34710
 N264 N 0.37974 0.57294 -0.33509
 N265 N 0.41650 0.57629 -0.34557
 N266 N 1.15943 0.65233 -0.27237
 N267 N 1.14810 0.63680 -0.18541
 N268 N 0.87386 0.53759 -0.30360
 N269 N 0.89109 0.51232 -0.30773
 N270 N 0.40100 0.32688 -0.31878
 N271 N 0.39178 0.33818 -0.23716
 N272 N 0.65703 0.07432 -0.31731
 N273 N 0.66469 0.09561 -0.23298
 N274 N 1.15964 0.47136 -0.33751
 N275 N 1.14425 0.45193 -0.25488
 N276 N 0.60420 0.70699 -0.36772
 N277 N 0.61913 0.70030 -0.28952
 N278 N 0.30847 -0.10790 -0.34878
 N279 N 0.34729 -0.07555 -0.36371
 N280 N 0.46182 -0.18706 0.31473
 N281 N 0.48176 -0.17542 0.22922
 N282 N 0.39439 0.59856 0.31224
 N283 N 0.38119 0.57583 0.22990
 N284 N 1.12283 0.62596 0.38144
 N285 N 1.11555 0.63647 0.29354
 N286 N 0.45233 0.14209 0.34784
 N287 N 0.46237 0.11058 0.35325
 N288 N 0.66255 0.52324 0.34930
 N289 N 0.62297 0.51208 0.35153
 N290 N 0.87795 0.29988 0.36794
 N291 N 0.88130 0.28878 0.27709
   
