data_POSCAR
  _audit_creation_date              2014-09-24
  _audit_creation_method            'ToBaCCo'
  _symmetry_space_group_name_H-M    'P1'
  _symmetry_Int_Tables_number       1
  _symmetry_cell_setting            triclinic
  loop_
  _symmetry_equiv_pos_as_xyz
 x,y,z
_cell_length_a 27.4589
_cell_length_b 17.0861
_cell_length_c 16.8281
_cell_angle_alpha 89.782800
_cell_angle_beta 90.130200
_cell_angle_gamma 89.871600
loop_
  _atom_site_label
  _atom_site_type_symbol
  _atom_site_fract_x
  _atom_site_fract_y
  _atom_site_fract_z
O1 O 0.06895 0.13428 0.14660
 O2 O 0.12240 0.06472 0.06918
 C3 C 0.11263 0.11463 0.12481
 O4 O -0.06739 -0.14695 0.13614
 O5 O -0.12099 -0.06964 0.06588
 C6 C -0.11114 -0.12547 0.11581
 O7 O 0.06951 -0.13966 0.14477
 O8 O 0.12277 -0.06734 0.06967
 C9 C 0.11335 -0.11905 0.12424
 O10 O -0.06772 0.14190 0.13851
 O11 O -0.12116 0.06684 0.06656
 C12 C -0.11144 0.12139 0.11757
 Zr13 Zr 0.00073 0.09653 0.10227
 O14 O -0.00126 0.08487 0.22728
 O15 O 0.00512 0.21994 0.10892
 Zr16 Zr 0.00095 -0.10015 0.10185
 O17 O -0.00053 -0.08656 0.22657
 O18 O 0.00262 -0.22332 0.11383
 O19 O 0.04464 -0.00202 0.11715
 O20 O -0.04203 -0.00191 0.11618
 O21 O -0.06794 0.14302 -0.13620
 O22 O -0.12127 0.06729 -0.06462
 C23 C -0.11159 0.12225 -0.11543
 O24 O 0.06899 -0.13649 -0.14457
 O25 O 0.12256 -0.06618 -0.06810
 C26 C 0.11270 -0.11623 -0.12351
 O27 O -0.06784 -0.14318 -0.13753
 O28 O -0.12121 -0.06849 -0.06518
 C29 C -0.11152 -0.12265 -0.11657
 O30 O 0.06895 0.13572 -0.14380
 O31 O 0.12252 0.06386 -0.06797
 C32 C 0.11269 0.11493 -0.12293
 Zr33 Zr 0.00061 0.09843 -0.09916
 O34 O -0.00509 0.09881 -0.22465
 O35 O 0.00606 0.22202 -0.09867
 Zr36 Zr 0.00065 -0.09941 -0.09985
 O37 O -0.00489 -0.09785 -0.22536
 O38 O 0.00558 -0.22308 -0.10030
 Zr39 Zr 0.07317 -0.00149 0.00100
 Zr40 Zr -0.07153 -0.00108 0.00086
 O41 O -0.04168 -0.00029 -0.11414
 O42 O 0.04405 -0.00052 -0.11505
 O43 O -0.04256 0.11305 0.00149
 O44 O 0.04298 -0.11450 0.00091
 O45 O 0.04282 0.11174 0.00161
 O46 O -0.04226 -0.11529 0.00086
 H47 H -0.06456 -0.00228 0.16211
 H48 H 0.06508 -0.16040 0.00059
 H49 H -0.06391 0.00009 -0.16061
 H50 H 0.06462 0.15787 0.00164
 H51 H 0.00778 -0.24474 0.06009
 H52 H -0.02148 -0.24339 -0.06744
 H53 H 0.02256 -0.06640 -0.24594
 H54 H 0.02232 0.06744 -0.24554
 H55 H -0.02138 0.24247 -0.06687
 H56 H -0.01718 0.24132 0.06802
 H57 H -0.00186 0.13886 0.24852
 H58 H -0.00183 -0.14021 0.24897
 O59 O 0.56855 0.63739 0.64314
 O60 O 0.62203 0.56602 0.56740
 C61 C 0.61229 0.61688 0.62220
 O62 O 0.43187 0.35736 0.63752
 O63 O 0.37823 0.43246 0.56499
 C64 C 0.38809 0.37785 0.61636
 O65 O 0.56869 0.36546 0.64581
 O66 O 0.62209 0.43565 0.56854
 C67 C 0.61236 0.38552 0.62433
 O68 O 0.43171 0.64528 0.63469
 O69 O 0.37817 0.56898 0.56420
 C70 C 0.38800 0.62426 0.61431
 Zr71 Zr 0.50013 0.59962 0.59905
 O72 O 0.49817 0.58947 0.72420
 O73 O 0.50454 0.72310 0.60421
 Zr74 Zr 0.50020 0.40286 0.60123
 O75 O 0.49818 0.41500 0.72611
 O76 O 0.50485 0.27950 0.60954
 O77 O 0.54385 0.50126 0.61514
 O78 O 0.45737 0.50136 0.61435
 O79 O 0.43110 0.64293 0.36004
 O80 O 0.37789 0.56831 0.43304
 C81 C 0.38744 0.62249 0.38125
 O82 O 0.56849 0.36307 0.35554
 O83 O 0.62189 0.43373 0.43183
 C84 C 0.61218 0.38315 0.37684
 O85 O 0.43186 0.35684 0.36216
 O86 O 0.37843 0.43384 0.43182
 C87 C 0.38820 0.37842 0.38192
 O88 O 0.56817 0.63597 0.35269
 O89 O 0.62167 0.56607 0.43048
 C90 C 0.61187 0.61591 0.37445
 Zr91 Zr 0.49986 0.59903 0.39773
 O92 O 0.49422 0.59808 0.27225
 O93 O 0.50516 0.72264 0.39693
 Zr94 Zr 0.50015 0.40100 0.39972
 O95 O 0.49466 0.40080 0.27420
 O96 O 0.50563 0.27737 0.40138
 Zr97 Zr 0.57247 0.50047 0.49910
 Zr98 Zr 0.42775 0.50057 0.49916
 O99 O 0.45776 0.49999 0.38418
 O100 O 0.54345 0.49988 0.38303
 O101 O 0.45672 0.61476 0.49820
 O102 O 0.54230 0.38739 0.50071
 O103 O 0.54215 0.61369 0.49830
 O104 O 0.45693 0.38639 0.50049
 H105 H 0.43494 0.50156 0.66041
 H106 H 0.56419 0.34121 0.50140
 H107 H 0.43571 0.49999 0.33750
 H108 H 0.56398 0.65978 0.49809
 H109 H 0.48346 0.25803 0.56768
 H110 H 0.47798 0.25710 0.43284
 H111 H 0.52206 0.43212 0.25324
 H112 H 0.52148 0.56608 0.25180
 H113 H 0.47751 0.74337 0.42804
 H114 H 0.48229 0.74398 0.56298
 H115 H 0.49758 0.64373 0.74476
 H116 H 0.49770 0.36108 0.74795
 C117 C 0.22985 0.22403 0.23710
 N118 N 0.18336 0.24257 0.25697
 N119 N 0.14598 0.20735 0.22152
 C120 C 0.15376 0.15237 0.16489
 N121 N 0.20025 0.13372 0.14514
 N122 N 0.23763 0.16889 0.18064
 C123 C 0.27100 0.26359 0.27532
 N124 N 0.31750 0.24448 0.25603
 N125 N 0.35487 0.28096 0.29015
 C126 C 0.34708 0.33794 0.34468
 N127 N 0.30058 0.35700 0.36403
 N128 N 0.26321 0.32046 0.32997
 C129 C 0.77109 0.76030 0.22155
 N130 N 0.81749 0.74058 0.24141
 N131 N 0.85509 0.77655 0.20734
 C132 C 0.84762 0.83358 0.15224
 N133 N 0.80122 0.85312 0.13224
 N134 N 0.76363 0.81712 0.16625
 C135 C 0.72967 0.72182 0.26021
 N136 N 0.68327 0.74139 0.24018
 N137 N 0.64567 0.70738 0.27625
 C138 C 0.65313 0.65266 0.33372
 N139 N 0.69953 0.63300 0.35360
 N140 N 0.73712 0.66694 0.31749
 C141 C 0.77100 0.23773 0.77751
 N142 N 0.81746 0.25647 0.75779
 N143 N 0.85490 0.21989 0.79216
 C144 C 0.84723 0.16320 0.84743
 N145 N 0.80077 0.14457 0.86727
 N146 N 0.76333 0.18118 0.83294
 C147 C 0.72978 0.27713 0.73873
 N148 N 0.68332 0.25846 0.75851
 N149 N 0.64587 0.29336 0.72238
 C150 C 0.65355 0.34814 0.66516
 N151 N 0.70001 0.36694 0.64553
 N152 N 0.73745 0.33208 0.68169
 C153 C 0.22976 0.77729 0.76095
 N154 N 0.23761 0.83199 0.81782
 N155 N 0.20028 0.86617 0.85442
 C156 C 0.15376 0.84689 0.83543
 N157 N 0.14591 0.79235 0.77840
 N158 N 0.18325 0.75813 0.74185
 C159 C 0.27088 0.73860 0.72171
 N160 N 0.26304 0.68217 0.66660
 N161 N 0.30039 0.64604 0.63202
 C162 C 0.34691 0.66509 0.65126
 N163 N 0.35474 0.72172 0.70616
 N164 N 0.31739 0.75781 0.74078
 C165 C 0.22984 0.22347 0.76287
 N166 N 0.18327 0.24253 0.74342
 N167 N 0.14595 0.20767 0.77949
 C168 C 0.15382 0.15246 0.83637
 N169 N 0.20040 0.13328 0.85570
 N170 N 0.23771 0.16812 0.81960
 C171 C 0.27099 0.26280 0.72393
 N172 N 0.31756 0.24397 0.74360
 N173 N 0.35487 0.28036 0.70908
 C174 C 0.34698 0.33696 0.65364
 N175 N 0.30040 0.35568 0.63385
 N176 N 0.26311 0.31927 0.66835
 C177 C 0.77100 0.76400 0.77505
 N178 N 0.76330 0.82003 0.83066
 N179 N 0.80071 0.85594 0.86537
 C180 C 0.84723 0.83713 0.84578
 N181 N 0.85493 0.78098 0.79029
 N182 N 0.81752 0.74510 0.75556
 C183 C 0.72973 0.72506 0.73602
 N184 N 0.73745 0.67004 0.67939
 N185 N 0.70004 0.63539 0.64336
 C186 C 0.65352 0.65445 0.66264
 N187 N 0.64580 0.70935 0.71940
 N188 N 0.68321 0.74403 0.75540
 C189 C 0.22781 0.77517 0.23409
 N190 N 0.18139 0.75616 0.25384
 N191 N 0.14378 0.79103 0.21800
 C192 C 0.15110 0.84628 0.16091
 N193 N 0.19766 0.86529 0.14141
 N194 N 0.23524 0.83044 0.17727
 C195 C 0.26933 0.73609 0.27298
 N196 N 0.31575 0.75507 0.25308
 N197 N 0.35338 0.71912 0.28772
 C198 C 0.34600 0.66282 0.34355
 N199 N 0.29958 0.64394 0.36353
 N200 N 0.26195 0.67990 0.32891
 C201 C 0.77103 0.23557 0.22489
 N202 N 0.76336 0.17944 0.16938
 N203 N 0.80081 0.14332 0.13496
 C204 C 0.84731 0.16203 0.15474
 N205 N 0.85498 0.21830 0.21011
 N206 N 0.81753 0.25439 0.24456
 C207 C 0.72972 0.27463 0.26367
 N208 N 0.73739 0.32956 0.32041
 N209 N 0.69995 0.36429 0.35625
 C210 C 0.65344 0.34541 0.33666
 N211 N 0.64577 0.29061 0.27979
 N212 N 0.68322 0.25584 0.24398
   
