data_POSCAR
  _audit_creation_date              2014-09-24
  _audit_creation_method            'ToBaCCo'
  _symmetry_space_group_name_H-M    'P1'
  _symmetry_Int_Tables_number       1
  _symmetry_cell_setting            triclinic
  loop_
  _symmetry_equiv_pos_as_xyz
 x,y,z
_cell_length_a 45.9839
_cell_length_b 45.0527
_cell_length_c 45.8082
_cell_angle_alpha 93.429800
_cell_angle_beta 90.110800
_cell_angle_gamma 92.940000
loop_
  _atom_site_label
  _atom_site_type_symbol
  _atom_site_fract_x
  _atom_site_fract_y
  _atom_site_fract_z
C1 C 0.61316 0.64269 0.63613
 N2 N 0.61392 0.62141 0.65588
 C3 C 0.63645 0.60302 0.65634
 N4 N 0.65832 0.60624 0.63665
 C5 C 0.65776 0.62733 0.61670
 N6 N 0.63514 0.64555 0.61656
 C7 C 0.88526 0.34265 0.11925
 N8 N 0.86354 0.34118 0.09894
 C9 C 0.84039 0.35857 0.10232
 N10 N 0.83894 0.37771 0.12624
 C11 C 0.86044 0.37947 0.14674
 N12 N 0.88347 0.36189 0.14316
 C13 C 0.37320 0.13853 -0.14723
 N14 N 0.37112 0.11651 -0.16885
 C15 C 0.35137 0.09319 -0.16705
 N16 N 0.33370 0.09194 -0.14337
 C17 C 0.33562 0.11383 -0.12163
 N18 N 0.35536 0.13706 -0.12371
 C19 C 0.09932 0.86735 0.36043
 N20 N 0.12158 0.86923 0.38015
 C21 C 0.14216 0.89200 0.38019
 N22 N 0.14034 0.91313 0.36038
 C23 C 0.11812 0.91176 0.34064
 N24 N 0.09784 0.88875 0.34086
 N25 N 0.09834 0.19321 0.12521
 N26 N 0.09142 0.18227 0.15038
 C27 C 0.07028 0.19815 0.16297
 C28 C 0.06326 0.21977 0.14434
 C29 C 0.08138 0.21592 0.12053
 H30 H 0.05986 0.19350 0.18347
 H31 H 0.08208 0.22860 0.10120
 Cu32 Cu 0.10832 0.14634 0.16261
 Cu33 Cu 0.12829 0.17661 0.10022
 Cu34 Cu 0.17190 0.12697 0.13261
 N35 N 0.13208 0.11753 0.17973
 N36 N 0.15775 0.11138 0.16905
 C37 C 0.16969 0.09131 0.18546
 C38 C 0.15019 0.08424 0.20723
 C39 C 0.12654 0.10120 0.20291
 H40 H 0.19032 0.08149 0.18108
 H41 H 0.10680 0.10154 0.21569
 N42 N 0.18187 0.14501 0.09548
 N43 N 0.16547 0.16426 0.08352
 C44 C 0.17802 0.17274 0.05862
 C45 C 0.20316 0.15760 0.05439
 C46 C 0.20491 0.14011 0.07804
 H47 H 0.16919 0.18822 0.04422
 H48 H 0.22179 0.12502 0.08217
 H49 H 0.13204 0.13419 0.11565
 H50 H 0.15037 0.16645 0.13696
 N51 N 0.41745 0.81177 0.57782
 N52 N 0.42984 0.82514 0.60129
 C53 C 0.45329 0.81032 0.60842
 C54 C 0.45596 0.78672 0.58807
 C55 C 0.43293 0.78835 0.56888
 H56 H 0.46769 0.81644 0.62672
 H57 H 0.42756 0.77327 0.55017
 Cu58 Cu 0.41474 0.86113 0.61974
 Cu59 Cu 0.38150 0.82500 0.56148
 Cu60 Cu 0.35271 0.88772 0.59559
 N61 N 0.39846 0.89639 0.63847
 N62 N 0.37362 0.90602 0.62961
 C63 C 0.36681 0.92989 0.64686
 C64 C 0.38878 0.93577 0.66735
 C65 C 0.40856 0.91415 0.66136
 H66 H 0.34764 0.94245 0.64433
 H67 H 0.42855 0.91139 0.67312
 N68 N 0.33478 0.86615 0.56086
 N69 N 0.34530 0.84184 0.54831
 C70 C 0.32775 0.83188 0.52585
 C71 C 0.30541 0.85107 0.52394
 C72 C 0.31059 0.87257 0.54639
 H73 H 0.33116 0.81238 0.51159
 H74 H 0.29738 0.89123 0.55199
 H75 H 0.38817 0.86938 0.57505
 H76 H 0.36681 0.84529 0.59994
 N77 N 0.92958 0.65522 0.41352
 N78 N 0.93736 0.64810 0.38650
 C79 C 0.95933 0.66691 0.37887
 C80 C 0.96593 0.68658 0.40253
 C81 C 0.94674 0.67850 0.42422
 H82 H 0.96995 0.66620 0.35782
 H83 H 0.94485 0.68934 0.44579
 Cu84 Cu 0.91869 0.61465 0.36383
 Cu85 Cu 0.89632 0.63517 0.43167
 Cu86 Cu 0.86789 0.57060 0.39521
 N87 N 0.90684 0.57546 0.34665
 N88 N 0.88624 0.55877 0.35835
 C89 C 0.88127 0.53373 0.34116
 C90 C 0.90009 0.53462 0.31767
 C91 C 0.91610 0.56136 0.32191
 H92 H 0.86540 0.51601 0.34554
 H93 H 0.93274 0.57019 0.30769
 N94 N 0.85243 0.58648 0.43273
 N95 N 0.86262 0.61163 0.44617
 C96 C 0.84635 0.61752 0.47005
 C97 C 0.82528 0.59473 0.47193
 C98 C 0.82983 0.57539 0.44802
 H99 H 0.84959 0.63687 0.48505
 H100 H 0.81697 0.55522 0.44181
 H101 H 0.90493 0.59488 0.41025
 H102 H 0.87544 0.61631 0.39447
 N103 N 0.56400 0.34120 -0.09602
 N104 N 0.55161 0.35072 -0.11936
 C105 C 0.52765 0.33316 -0.12614
 C106 C 0.52473 0.31182 -0.10569
 C107 C 0.54813 0.31765 -0.08687
 H108 H 0.51313 0.33587 -0.14427
 H109 H 0.55348 0.30528 -0.06824
 Cu110 Cu 0.56784 0.38553 -0.13802
 Cu111 Cu 0.60025 0.35930 -0.07971
 Cu112 Cu 0.62967 0.42122 -0.11263
 N113 N 0.58396 0.42105 -0.15555
 N114 N 0.60888 0.43398 -0.14636
 C115 C 0.61592 0.45686 -0.16301
 C116 C 0.59401 0.45868 -0.18338
 C117 C 0.57397 0.43576 -0.17799
 H118 H 0.63523 0.47150 -0.16018
 H119 H 0.55395 0.42999 -0.18990
 N120 N 0.64741 0.40490 -0.07825
 N121 N 0.63675 0.38069 -0.06638
 C122 C 0.65416 0.37457 -0.04408
 C123 C 0.67652 0.39622 -0.04151
 C124 C 0.67155 0.41517 -0.06340
 H125 H 0.65057 0.35611 -0.03026
 H126 H 0.68482 0.43474 -0.06831
 H127 H 0.59380 0.40159 -0.09293
 H128 H 0.61555 0.37696 -0.11771
 C129 C -0.07073 0.32205 0.13848
 C130 C -0.04744 0.30318 0.13501
 C131 C -0.04337 0.28736 0.10786
 C132 C -0.06311 0.28994 0.08497
 C133 C -0.08682 0.30788 0.08889
 C134 C -0.09088 0.32441 0.11556
 C135 C -0.01988 0.26887 0.10413
 C136 C -0.00103 0.26508 0.12755
 C137 C -0.00568 0.28004 0.15505
 C138 C -0.02852 0.29944 0.15845
 C139 C 0.01236 0.27495 0.17879
 C140 C 0.03465 0.25509 0.17536
 C141 C 0.03982 0.24076 0.14796
 C142 C 0.02206 0.24602 0.12406
 H143 H -0.07351 0.33419 0.15936
 H144 H -0.06041 0.27781 0.06408
 H145 H -0.10170 0.30908 0.07069
 H146 H -0.01661 0.25699 0.08318
 H147 H -0.03189 0.31115 0.17945
 H148 H 0.00899 0.28604 0.20007
 H149 H 0.04816 0.25121 0.19401
 H150 H 0.02569 0.23457 0.10299
 C151 C 0.57916 0.67417 0.61046
 C152 C 0.55645 0.69388 0.61094
 C153 C 0.54415 0.70339 0.63798
 C154 C 0.55404 0.69221 0.66392
 C155 C 0.57608 0.67198 0.66315
 C156 C 0.58907 0.66312 0.63653
 C157 C 0.52215 0.72385 0.63868
 C158 C 0.51173 0.73436 0.61263
 C159 C 0.52320 0.72397 0.58549
 C160 C 0.54575 0.70410 0.58484
 C161 C 0.51183 0.73361 0.55944
 C162 C 0.48950 0.75356 0.56028
 C163 C 0.47867 0.76471 0.58716
 C164 C 0.48987 0.75500 0.61328
 H165 H 0.58886 0.66710 0.58980
 H166 H 0.54471 0.69908 0.68480
 H167 H 0.58345 0.66376 0.68349
 H168 H 0.51304 0.73146 0.65947
 H169 H 0.55484 0.69647 0.56405
 H170 H 0.52019 0.72573 0.53844
 H171 H 0.48114 0.76085 0.53993
 H172 H 0.48126 0.76319 0.63408
 C173 C 1.07643 0.82392 0.38289
 C174 C 1.05506 0.80044 0.38246
 C175 C 1.03591 0.79566 0.35827
 C176 C 1.03765 0.81505 0.33551
 C177 C 1.05820 0.83897 0.33657
 C178 C 1.07817 0.84357 0.36001
 C179 C 1.01513 0.77175 0.35727
 C180 C 1.01252 0.75312 0.38065
 C181 C 1.03077 0.75862 0.40548
 C182 C 1.05228 0.78193 0.40601
 C183 C 1.02701 0.74082 0.42944
 C184 C 1.00546 0.71771 0.42873
 C185 C 0.98798 0.71153 0.40375
 C186 C 0.99165 0.72926 0.37975
 H187 H 1.09120 0.82719 0.40141
 H188 H 1.02296 0.81185 0.31693
 H189 H 1.05875 0.85348 0.31853
 H190 H 1.00076 0.76786 0.33847
 H191 H 1.06658 0.78587 0.42486
 H192 H 1.04060 0.74486 0.44876
 H193 H 1.00286 0.70421 0.44743
 H194 H 0.97784 0.72482 0.36061
 C195 C 0.40551 0.17936 -0.12348
 C196 C 0.42635 0.20306 -0.12501
 C197 C 0.43615 0.21187 -0.15259
 C198 C 0.42533 0.19638 -0.17812
 C199 C 0.40507 0.17235 -0.17637
 C200 C 0.39483 0.16376 -0.14909
 C201 C 0.45676 0.23578 -0.15417
 C202 C 0.46827 0.25049 -0.12850
 C203 C 0.45897 0.24117 -0.10093
 C204 C 0.43780 0.21780 -0.09937
 C205 C 0.47126 0.25517 -0.07533
 C206 C 0.49273 0.27805 -0.07699
 C207 C 0.50182 0.28778 -0.10421
 C208 C 0.48932 0.27408 -0.12993
 H209 H 0.39803 0.17267 -0.10230
 H210 H 0.43268 0.20272 -0.19944
 H211 H 0.39710 0.16071 -0.19641
 H212 H 0.46413 0.24267 -0.17533
 H213 H 0.43054 0.21082 -0.07820
 H214 H 0.46447 0.24823 -0.05404
 H215 H 0.50199 0.28843 -0.05691
 H216 H 0.49654 0.28122 -0.15103
 C217 C 0.13895 -0.04478 0.31665
 C218 C 0.13673 -0.02303 0.29612
 C219 C 0.11070 -0.02174 0.27988
 C220 C 0.08778 -0.04281 0.28361
 C221 C 0.09051 -0.06501 0.30326
 C222 C 0.11592 -0.06616 0.32036
 C223 C 0.10805 0.00039 0.25993
 C224 C 0.13149 0.02062 0.25519
 C225 C 0.15799 0.01863 0.27051
 C226 C 0.16027 -0.00284 0.29127
 C227 C 0.18184 0.03798 0.26453
 C228 C 0.17944 0.05908 0.24357
 C229 C 0.15294 0.06173 0.22898
 C230 C 0.12899 0.04254 0.23498
 H231 H 0.15891 -0.04538 0.32918
 H232 H 0.06778 -0.04228 0.27115
 H233 H 0.07228 -0.08093 0.30540
 H234 H 0.08790 0.00158 0.24779
 H235 H 0.18046 -0.00411 0.30331
 H236 H 0.20240 0.03663 0.27585
 H237 H 0.19813 0.07372 0.23913
 H238 H 0.10863 0.04421 0.22335
 C239 C 0.61286 0.57457 -0.30547
 C240 C 0.61374 0.55281 -0.28482
 C241 C 0.63977 0.53822 -0.28060
 C242 C 0.66408 0.54473 -0.29790
 C243 C 0.66275 0.56564 -0.31910
 C244 C 0.63732 0.58123 -0.32292
 C245 C 0.64107 0.51722 -0.25929
 C246 C 0.61635 0.50988 -0.24281
 C247 C 0.58990 0.52347 -0.24794
 C248 C 0.58890 0.54521 -0.26856
 C249 C 0.56487 0.51495 -0.23241
 C250 C 0.56608 0.49333 -0.21185
 C251 C 0.59248 0.48055 -0.20593
 C252 C 0.61757 0.48893 -0.22144
 H253 H 0.59285 0.58584 -0.30824
 H254 H 0.68412 0.53354 -0.29514
 H255 H 0.68202 0.57001 -0.33204
 H256 H 0.66121 0.50640 -0.25575
 H257 H 0.56874 0.55598 -0.27215
 H258 H 0.54437 0.52493 -0.23623
 H259 H 0.54654 0.48709 -0.20004
 H260 H 0.63789 0.47874 -0.21720
 C261 C 0.37400 1.06141 0.79352
 C262 C 0.37205 1.03846 0.77137
 C263 C 0.34472 1.02393 0.76433
 C264 C 0.31997 1.03206 0.78011
 C265 C 0.32225 1.05435 0.80267
 C266 C 0.34917 1.06937 0.80937
 C267 C 0.34260 1.00137 0.74184
 C268 C 0.36760 0.99256 0.72685
 C269 C 0.39507 1.00644 0.73454
 C270 C 0.39707 1.02958 0.75645
 C271 C 0.42016 0.99674 0.72033
 C272 C 0.41808 0.97349 0.69872
 C273 C 0.39085 0.96004 0.69048
 C274 C 0.36564 0.96978 0.70453
 H275 H 0.39492 1.07265 0.79884
 H276 H 0.29888 1.02105 0.77514
 H277 H 0.30284 1.06020 0.81460
 H278 H 0.32158 0.99045 0.73625
 H279 H 0.41810 1.04042 0.76211
 H280 H 0.44140 1.00699 0.72605
 H281 H 0.43775 0.96635 0.68805
 H282 H 0.34460 0.95918 0.69854
 C283 C 0.88422 0.41398 0.18547
 C284 C 0.88258 0.43446 0.20967
 C285 C 0.85513 0.44058 0.22187
 C286 C 0.82979 0.42667 0.20922
 C287 C 0.83157 0.40700 0.18462
 C288 C 0.85874 0.40033 0.17269
 C289 C 0.85341 0.46075 0.24627
 C290 C 0.87870 0.47560 0.25808
 C291 C 0.90607 0.47014 0.24535
 C292 C 0.90789 0.44927 0.22152
 C293 C 0.93114 0.48597 0.25647
 C294 C 0.92912 0.50711 0.27987
 C295 C 0.90213 0.51225 0.29298
 C296 C 0.87701 0.49625 0.28212
 H297 H 0.90524 0.40921 0.17612
 H298 H 0.80857 0.43122 0.21818
 H299 H 0.81168 0.39665 0.17513
 H300 H 0.83238 0.46524 0.25576
 H301 H 0.92891 0.44491 0.21193
 H302 H 0.95227 0.48220 0.24690
 H303 H 0.94874 0.51919 0.28800
 H304 H 0.85604 0.50046 0.29188
 C305 C 0.30733 0.13861 -0.08146
 C306 C 0.28917 0.13734 -0.05694
 C307 C 0.28091 0.10944 -0.04602
 C308 C 0.29026 0.08327 -0.06036
 C309 C 0.30766 0.08471 -0.08526
 C310 C 0.31657 0.11234 -0.09581
 C311 C 0.26324 0.10814 -0.02115
 C312 C 0.25294 0.13431 -0.00762
 C313 C 0.26040 0.16211 -0.01916
 C314 C 0.27885 0.16349 -0.04344
 C315 C 0.24896 0.18806 -0.00643
 C316 C 0.23015 0.18648 0.01739
 C317 C 0.22317 0.15910 0.02938
 C318 C 0.23483 0.13308 0.01696
 H319 H 0.31383 0.16000 -0.08973
 H320 H 0.28399 0.06170 -0.05242
 H321 H 0.31463 0.06421 -0.09598
 H322 H 0.25716 0.08677 -0.01260
 H323 H 0.28481 0.18486 -0.05208
 H324 H 0.25429 0.20952 -0.01510
 H325 H 0.22133 0.20675 0.02674
 H326 H 0.22909 0.11183 0.02591
 C327 C 0.69734 0.60564 0.58621
 C328 C 0.72007 0.60845 0.56600
 C329 C 0.72791 0.63667 0.55558
 C330 C 0.71235 0.66142 0.56498
 C331 C 0.68925 0.65828 0.58453
 C332 C 0.68174 0.63048 0.59551
 C333 C 0.75096 0.63963 0.53577
 C334 C 0.76573 0.61458 0.52559
 C335 C 0.75729 0.58621 0.53536
 C336 C 0.73482 0.58340 0.55582
 C337 C 0.77125 0.56104 0.52421
 C338 C 0.79325 0.56388 0.50343
 C339 C 0.80217 0.59198 0.49404
 C340 C 0.78850 0.61732 0.50539
 H341 H 0.69144 0.58403 0.59430
 H342 H 0.71794 0.68318 0.55710
 H343 H 0.67756 0.67773 0.59147
 H344 H 0.75714 0.66132 0.52798
 H345 H 0.72855 0.56168 0.56350
 H346 H 0.76495 0.53913 0.53132
 H347 H 0.80360 0.54411 0.49495
 H348 H 0.79502 0.63902 0.49785
 C349 C 0.80274 0.38190 0.07312
 C350 C 0.78049 0.37985 0.05197
 C351 C 0.77153 0.35172 0.03862
 C352 C 0.78562 0.32631 0.04596
 C353 C 0.80834 0.32869 0.06637
 C354 C 0.81683 0.35638 0.08032
 C355 C 0.74880 0.34947 0.01804
 C356 C 0.73549 0.37509 0.00994
 C357 C 0.74519 0.40335 0.02244
 C358 C 0.76732 0.40551 0.04370
 C359 C 0.73268 0.42900 0.01331
 C360 C 0.71068 0.42669 -0.00792
 C361 C 0.70036 0.39867 -0.01979
 C362 C 0.71280 0.37292 -0.01072
 H363 H 0.80951 0.40339 0.08356
 H364 H 0.77918 0.30462 0.03581
 H365 H 0.81895 0.30877 0.07169
 H366 H 0.74168 0.32784 0.00811
 H367 H 0.77449 0.42714 0.05358
 H368 H 0.73997 0.45085 0.02249
 H369 H 0.70128 0.44677 -0.01463
 H370 H 0.70518 0.35127 -0.02017
 C371 C 0.17674 0.86778 0.41243
 C372 C 0.19998 0.86946 0.43250
 C373 C 0.21238 0.89761 0.44256
 C374 C 0.20184 0.92352 0.43182
 C375 C 0.17922 0.92161 0.41129
 C376 C 0.16632 0.89381 0.40162
 C377 C 0.23523 0.89941 0.46303
 C378 C 0.24634 0.87341 0.47302
 C379 C 0.23454 0.84524 0.46229
 C380 C 0.21119 0.84344 0.44239
 C381 C 0.24642 0.81931 0.47155
 C382 C 0.26975 0.82125 0.49130
 C383 C 0.28117 0.84911 0.50257
 C384 C 0.26931 0.87513 0.49338
 H385 H 0.16714 0.84622 0.40479
 H386 H 0.21120 0.94525 0.43917
 H387 H 0.17150 0.94194 0.40329
 H388 H 0.24452 0.92102 0.47097
 H389 H 0.20195 0.82183 0.43439
 H390 H 0.23775 0.79754 0.46346
 H391 H 0.27851 0.80092 0.49819
 H392 H 0.27830 0.89672 0.50166
   
