data_POSCAR
  _audit_creation_date              2014-09-24
  _audit_creation_method            'ToBaCCo'
  _symmetry_space_group_name_H-M    'P1'
  _symmetry_Int_Tables_number       1
  _symmetry_cell_setting            triclinic
  loop_
  _symmetry_equiv_pos_as_xyz
 x,y,z
_cell_length_a 36.1204
_cell_length_b 36.2204
_cell_length_c 36.1910
_cell_angle_alpha 104.203500
_cell_angle_beta 75.396000
_cell_angle_gamma 75.863300
loop_
  _atom_site_label
  _atom_site_type_symbol
  _atom_site_fract_x
  _atom_site_fract_y
  _atom_site_fract_z
C1 C 0.50863 0.48130 0.00263
 C2 C 0.48007 0.50969 -0.00306
 C3 C 0.44034 0.50525 -0.00364
 C4 C 0.48680 0.54720 -0.00847
 C5 C 0.54635 0.48798 0.00761
 C6 C 0.50417 0.44177 0.00357
 C7 C 0.42674 0.51027 -0.03574
 C8 C 0.38853 0.50845 -0.03570
 C9 C 0.36328 0.50181 -0.00339
 C10 C 0.37671 0.49664 0.02873
 C11 C 0.41498 0.49849 0.02867
 C12 C 0.52055 0.54567 -0.03918
 C13 C 0.52615 0.58128 -0.04411
 C14 C 0.49793 0.61866 -0.01863
 C15 C 0.46408 0.62030 0.01170
 C16 C 0.45846 0.58479 0.01667
 C17 C 0.54491 0.52158 0.03802
 C18 C 0.58072 0.52707 0.04261
 C19 C 0.61824 0.49888 0.01711
 C20 C 0.61980 0.46520 -0.01295
 C21 C 0.58409 0.45970 -0.01759
 C22 C 0.50926 0.42825 0.03575
 C23 C 0.50748 0.39021 0.03598
 C24 C 0.50082 0.36512 0.00394
 C25 C 0.49558 0.37840 -0.02821
 C26 C 0.49738 0.41649 -0.02849
 H27 H 0.44570 0.51580 -0.06078
 H28 H 0.37864 0.51266 -0.06073
 H29 H 0.35750 0.49173 0.05411
 H30 H 0.42452 0.49538 0.05414
 H31 H 0.54235 0.51696 -0.05939
 H32 H 0.55235 0.57966 -0.06782
 H33 H 0.43214 0.58660 0.04034
 H34 H 0.51610 0.54334 0.05827
 H35 H 0.57915 0.55314 0.06612
 H36 H 0.64865 0.44314 -0.03278
 H37 H 0.58584 0.43349 -0.04104
 H38 H 0.51483 0.44714 0.06059
 H39 H 0.51174 0.38020 0.06093
 H40 H 0.49069 0.35912 -0.05330
 H41 H 0.49423 0.42595 -0.05401
 H42 H 0.44199 0.64905 0.03150
 C43 C 0.00000 0.52172 0.52470
 C44 C -0.00550 0.49315 0.49620
 C45 C -0.00684 0.45389 0.50100
 C46 C -0.01022 0.49934 0.45836
 C47 C 0.00456 0.55959 0.51837
 C48 C 0.00129 0.51691 0.56400
 C49 C 0.02535 0.42826 0.50730
 C50 C 0.02439 0.39057 0.50983
 C51 C -0.00858 0.37808 0.50582
 C52 C -0.04070 0.40350 0.49957
 C53 C -0.03979 0.44114 0.49705
 C54 C 0.01530 0.47075 0.42096
 C55 C 0.01054 0.47530 0.38508
 C56 C -0.01995 0.50833 0.38614
 C57 C -0.04567 0.53693 0.42332
 C58 C -0.04094 0.53240 0.45933
 C59 C -0.02107 0.59682 0.54703
 C60 C -0.01701 0.63274 0.54183
 C61 C 0.01289 0.63188 0.50807
 C62 C 0.03886 0.59486 0.47953
 C63 C 0.03484 0.55884 0.48472
 C64 C -0.03078 0.51001 0.58960
 C65 C -0.02957 0.50665 0.62698
 C66 C 0.00351 0.51046 0.63924
 C67 C 0.03541 0.51755 0.61396
 C68 C 0.03425 0.52089 0.57660
 H69 H 0.05141 0.43720 0.50961
 H70 H 0.04955 0.37099 0.51439
 H71 H -0.06626 0.39406 0.49625
 H72 H -0.06475 0.46034 0.49191
 H73 H 0.03897 0.44494 0.41961
 H74 H 0.03053 0.45295 0.35649
 H75 H -0.06143 0.55435 0.48791
 H76 H -0.04442 0.59803 0.57327
 H77 H -0.03718 0.66120 0.56415
 H78 H 0.06223 0.59385 0.45341
 H79 H 0.05541 0.53041 0.46268
 H80 H -0.05686 0.50767 0.58080
 H81 H -0.05456 0.50147 0.64646
 H82 H 0.06105 0.52075 0.62325
 H83 H 0.05911 0.52649 0.55742
 H84 H -0.06949 0.56250 0.42447
 C85 C 0.52257 -0.00067 0.47548
 C86 C 0.49373 -0.00561 0.50456
 C87 C 0.49963 -0.00942 0.54281
 C88 C 0.45436 -0.00713 0.50000
 C89 C 0.51798 -0.00016 0.43590
 C90 C 0.56048 0.00423 0.48155
 C91 C 0.53275 -0.03961 0.54254
 C92 C 0.53693 -0.04359 0.57892
 C93 C 0.50788 -0.01763 0.61585
 C94 C 0.47479 0.01239 0.61621
 C95 C 0.47063 0.01638 0.57993
 C96 C 0.44143 -0.03973 0.50482
 C97 C 0.40372 -0.04082 0.50240
 C98 C 0.37843 -0.00923 0.49538
 C99 C 0.39108 0.02340 0.49054
 C100 C 0.42883 0.02455 0.49298
 C101 C 0.52229 0.03219 0.42229
 C102 C 0.51914 0.03265 0.38471
 C103 C 0.51190 0.00068 0.36016
 C104 C 0.50777 -0.03180 0.37341
 C105 C 0.51095 -0.03232 0.41103
 C106 C 0.55947 0.03497 0.51461
 C107 C 0.59552 0.03928 0.51963
 C108 C 0.63286 0.01313 0.49144
 C109 C 0.63396 -0.01722 0.45822
 C110 C 0.59799 -0.02155 0.45323
 H111 H 0.55503 -0.06030 0.51421
 H112 H 0.56259 -0.06709 0.57817
 H113 H 0.45202 0.03263 0.64451
 H114 H 0.44476 0.03965 0.58076
 H115 H 0.46056 -0.06428 0.51054
 H116 H 0.39414 -0.06612 0.50636
 H117 H 0.43791 0.05033 0.48999
 H118 H 0.52800 0.05712 0.44088
 H119 H 0.52257 0.05784 0.37469
 H120 H 0.50246 -0.05685 0.35454
 H121 H 0.50836 -0.05794 0.42058
 H122 H 0.53082 0.05564 0.53636
 H123 H 0.59421 0.06303 0.54536
 H124 H 0.66261 -0.03759 0.43611
 H125 H 0.59937 -0.04524 0.42743
 H126 H 0.37159 0.04814 0.48538
 O127 O 0.47745 -0.00900 -0.05633
 O128 O 0.47529 0.00364 0.04850
 O129 O 0.47466 0.04988 0.00324
 O130 O 0.47697 -0.05480 -0.01087
 O131 O 0.54370 -0.07528 -0.03150
 O132 O 0.54139 0.02971 -0.01774
 O133 O 0.54201 -0.01649 0.02762
 O134 O 0.54418 -0.02947 -0.07710
 Cu135 Cu 0.46943 -0.00052 -0.00176
 Cu136 Cu 0.54950 -0.02488 -0.02673
 C137 C 0.51120 -0.02115 -0.08464
 C138 C 0.50835 -0.00464 0.05595
 C139 C 0.50758 0.05773 -0.00526
 C140 C 0.51063 -0.08294 -0.02328
 O141 O -0.07461 0.54374 1.03031
 O142 O 0.03060 0.54143 1.01782
 O143 O -0.01457 0.54168 0.97159
 O144 O -0.02984 0.54451 1.07677
 O145 O -0.00940 0.47809 1.05668
 O146 O 0.00559 0.47526 0.95139
 O147 O 0.05080 0.47502 0.99755
 O148 O -0.05414 0.47733 1.01035
 Cu149 Cu -0.02411 0.54950 1.02610
 Cu150 Cu 0.00027 0.46978 1.00196
 C151 C -0.08232 0.51083 1.02221
 C152 C 0.05867 0.50779 1.00588
 C153 C -0.00232 0.50806 0.94353
 C154 C -0.02196 0.51179 1.08472
 O155 O 0.01925 -0.05953 0.46565
 O156 O 0.00637 0.04528 0.46825
 O157 O 0.06523 -0.01404 0.46551
 O158 O -0.03970 -0.00010 0.46780
 O159 O -0.06058 0.01993 0.53441
 O160 O 0.04452 0.00631 0.53214
 O161 O -0.01457 0.06541 0.53487
 O162 O -0.00136 -0.03924 0.53226
 Cu163 Cu 0.01481 -0.00916 0.46012
 Cu164 Cu -0.01013 0.01507 0.54010
 C165 C 0.01102 -0.06730 0.49859
 C166 C -0.00588 0.07323 0.50202
 C167 C 0.07282 -0.00579 0.49843
 C168 C -0.06810 0.01209 0.50142
 C169 C -0.19482 0.54801 1.03830
 C170 C -0.20300 0.51164 1.02892
 C171 C -0.17206 0.47520 1.01856
 C172 C -0.13297 0.47500 1.01703
 C173 C -0.34471 0.50405 1.02171
 C174 C -0.15570 0.54791 1.03682
 C175 C -0.24270 0.51132 1.02854
 C176 C -0.27541 0.51003 1.02727
 C177 C -0.31309 0.50735 1.02473
 C178 C -0.12424 0.51134 1.02583
 H179 H -0.21854 0.57640 1.04628
 H180 H -0.17803 0.44686 1.01117
 H181 H -0.10949 0.44634 1.00848
 H182 H -0.14997 0.57638 1.04373
 C183 C 0.14935 0.54149 1.01106
 C184 C 0.18004 0.50448 0.99906
 C185 C 0.17126 0.46858 0.98832
 C186 C 0.13190 0.46964 0.98996
 C187 C 0.32699 0.50153 0.99718
 C188 C 0.10995 0.54263 1.01272
 C189 C 0.22037 0.50334 0.99834
 C190 C 0.25406 0.50248 0.99794
 C191 C 0.29343 0.50175 0.99756
 C192 C 0.10072 0.50670 1.00242
 H193 H 0.15580 0.56947 1.01944
 H194 H 0.19477 0.43976 0.97898
 H195 H 0.12584 0.44143 0.98186
 H196 H 0.08667 0.57164 1.02248
 C197 C 0.02971 -0.17984 0.46061
 C198 C 0.02020 -0.18820 0.49696
 C199 C 0.00871 -0.15729 0.53369
 C200 C 0.00626 -0.11807 0.53418
 C201 C 0.01674 -0.33085 0.50317
 C202 C 0.02731 -0.14059 0.46101
 C203 C 0.02091 -0.22811 0.49692
 C204 C 0.02055 -0.26105 0.49787
 C205 C 0.01901 -0.29900 0.50016
 C206 C 0.01526 -0.10920 0.49785
 H207 H 0.03856 -0.20355 0.43200
 H208 H 0.00120 -0.16342 0.56201
 H209 H -0.00310 -0.09464 0.56304
 H210 H 0.03442 -0.13476 0.43253
 C211 C -0.02257 0.18517 0.54127
 C212 C -0.01126 0.19374 0.50522
 C213 C 0.00057 0.16322 0.46813
 C214 C 0.00163 0.12412 0.46704
 C215 C -0.00907 0.33875 0.50685
 C216 C -0.02155 0.14610 0.54027
 C217 C -0.01102 0.23363 0.50623
 C218 C -0.01050 0.26690 0.50683
 C219 C -0.00970 0.30571 0.50711
 C220 C -0.00913 0.11505 0.50312
 H221 H -0.03179 0.20859 0.57014
 H222 H 0.00939 0.16955 0.44005
 H223 H 0.01137 0.10091 0.43796
 H224 H -0.02998 0.14013 0.56858
 C225 C 0.47667 -0.01656 -0.17455
 C226 C 0.51367 -0.02807 -0.20551
 C227 C 0.54991 -0.03854 -0.19723
 C228 C 0.54917 -0.03698 -0.15804
 C229 C 0.51119 -0.02165 -0.34854
 C230 C 0.47584 -0.01498 -0.13534
 C231 C 0.51426 -0.02780 -0.24537
 C232 C 0.51413 -0.02670 -0.27836
 C233 C 0.51307 -0.02444 -0.31649
 C234 C 0.51209 -0.02485 -0.12656
 H235 H 0.44842 -0.00833 -0.18060
 H236 H 0.57872 -0.04741 -0.22095
 H237 H 0.57761 -0.04475 -0.15231
 H238 H 0.44680 -0.00550 -0.11183
 C239 C 0.54377 -0.00954 0.14530
 C240 C 0.50700 0.00153 0.17642
 C241 C 0.47055 0.01167 0.16843
 C242 C 0.47089 0.01031 0.12937
 C243 C 0.50964 0.00091 0.32104
 C244 C 0.54420 -0.01094 0.10624
 C245 C 0.50684 0.00180 0.21633
 C246 C 0.50722 0.00166 0.24952
 C247 C 0.50826 0.00126 0.28818
 C248 C 0.50776 -0.00128 0.09775
 H249 H 0.57217 -0.01745 0.15113
 H250 H 0.44190 0.02029 0.19230
 H251 H 0.44232 0.01787 0.12385
 H252 H 0.57309 -0.02001 0.08262
 C253 C 0.54790 -0.19525 -0.04042
 C254 C 0.51133 -0.20337 -0.03093
 C255 C 0.47475 -0.17246 -0.02027
 C256 C 0.47459 -0.13345 -0.01848
 C257 C 0.50327 -0.34451 -0.02350
 C258 C 0.54783 -0.15621 -0.03869
 C259 C 0.51094 -0.24295 -0.03063
 C260 C 0.50956 -0.27554 -0.02934
 C261 C 0.50672 -0.31305 -0.02668
 C262 C 0.51111 -0.12478 -0.02733
 H263 H 0.57640 -0.21895 -0.04862
 H264 H 0.44626 -0.17839 -0.01279
 H265 H 0.44581 -0.10999 -0.00965
 H266 H 0.57645 -0.15052 -0.04564
 C267 C 0.46807 0.17011 0.01345
 C268 C 0.50411 0.17886 0.00227
 C269 C 0.54132 0.14825 -0.01025
 C270 C 0.54253 0.10893 -0.01208
 C271 C 0.50062 0.32533 0.00362
 C272 C 0.46919 0.13083 0.01165
 C273 C 0.50288 0.21908 0.00296
 C274 C 0.50190 0.25267 0.00327
 C275 C 0.50100 0.29191 0.00346
 C276 C 0.50645 0.09971 -0.00141
 H277 H 0.43910 0.19356 0.02319
 H278 H 0.56941 0.15470 -0.01898
 H279 H 0.57169 0.08569 -0.02230
 H280 H 0.44087 0.12477 0.02004
 C281 C -0.18118 0.03061 0.53904
 C282 C -0.18926 0.02148 0.50263
 C283 C -0.15801 0.01041 0.46598
 C284 C -0.11871 0.00795 0.46563
 C285 C -0.33184 0.01704 0.49598
 C286 C -0.14186 0.02820 0.53879
 C287 C -0.22918 0.02202 0.50251
 C288 C -0.26212 0.02144 0.50145
 C289 C -0.30003 0.01960 0.49904
 C290 C -0.11011 0.01652 0.50202
 H291 H -0.20515 0.03912 0.56758
 H292 H -0.16392 0.00320 0.43761
 H293 H -0.09500 -0.00111 0.43682
 H294 H -0.13623 0.03496 0.56731
 C295 C 0.16283 -0.00037 0.53264
 C296 C 0.19374 -0.01202 0.49561
 C297 C 0.18543 -0.02291 0.45949
 C298 C 0.14622 -0.02162 0.46037
 C299 C 0.33906 -0.00992 0.49433
 C300 C 0.12359 0.00094 0.53360
 C301 C 0.23374 -0.01191 0.49473
 C302 C 0.26709 -0.01144 0.49423
 C303 C 0.30597 -0.01063 0.49403
 C304 C 0.11478 -0.00936 0.49746
 H305 H 0.16897 0.00812 0.56077
 H306 H 0.20915 -0.03196 0.43067
 H307 H 0.14044 -0.02971 0.43201
 H308 H 0.10008 0.01054 0.56264
 C309 C -0.01961 0.47796 1.17546
 C310 C -0.03125 0.51488 1.20612
 C311 C -0.04122 0.55086 1.19741
 C312 C -0.03897 0.54993 1.15804
 C313 C -0.02482 0.51223 1.34891
 C314 C -0.01732 0.47694 1.13608
 C315 C -0.03131 0.51561 1.24605
 C316 C -0.03029 0.51548 1.27903
 C317 C -0.02789 0.51430 1.31704
 C318 C -0.02660 0.51292 1.12684
 H319 H -0.01173 0.44992 1.18188
 H320 H -0.05016 0.57960 1.22091
 H321 H -0.04630 0.57816 1.15193
 H322 H -0.00770 0.44797 1.11279
 C323 C -0.00556 0.54267 0.85337
 C324 C 0.00560 0.50595 0.82259
 C325 C 0.01545 0.46979 0.83103
 C326 C 0.01361 0.47036 0.87024
 C327 C 0.00436 0.50816 0.67816
 C328 C -0.00743 0.54334 0.89257
 C329 C 0.00597 0.50557 0.78265
 C330 C 0.00575 0.50583 0.74948
 C331 C 0.00508 0.50678 0.71091
 C332 C 0.00183 0.50719 0.90154
 H333 H -0.01325 0.57084 0.84716
 H334 H 0.02410 0.44118 0.80742
 H335 H 0.02088 0.44202 0.87615
 H336 H -0.01662 0.57219 0.91594
   
