data_POSCAR
  _audit_creation_date              2014-09-24
  _audit_creation_method            'ToBaCCo'
  _symmetry_space_group_name_H-M    'P1'
  _symmetry_Int_Tables_number       1
  _symmetry_cell_setting            triclinic
  loop_
  _symmetry_equiv_pos_as_xyz
 x,y,z
_cell_length_a 51.7752
_cell_length_b 51.7984
_cell_length_c 52.1457
_cell_angle_alpha 89.947100
_cell_angle_beta 89.929400
_cell_angle_gamma 89.943900
loop_
  _atom_site_label
  _atom_site_type_symbol
  _atom_site_fract_x
  _atom_site_fract_y
  _atom_site_fract_z
N1 N 0.29164 0.23755 0.22057
 N2 N 0.28199 0.25853 0.21004
 C3 C 0.29584 0.26441 0.18892
 C4 C 0.31507 0.24619 0.18631
 C5 C 0.31195 0.22940 0.20657
 H6 H 0.29203 0.28045 0.17619
 H7 H 0.32334 0.21236 0.21059
 Cu8 Cu 0.25181 0.27573 0.22435
 Cu9 Cu 0.27672 0.22198 0.25116
 Cu10 Cu 0.22199 0.25101 0.27633
 N11 N 0.22051 0.29115 0.23831
 N12 N 0.20897 0.28141 0.25862
 C13 C 0.18760 0.29531 0.26378
 C14 C 0.18578 0.31469 0.24576
 C15 C 0.20682 0.31159 0.22983
 H16 H 0.17416 0.29138 0.27919
 H17 H 0.21149 0.32308 0.21314
 N18 N 0.23803 0.22013 0.29160
 N19 N 0.25890 0.20907 0.28201
 C20 C 0.26484 0.18821 0.29631
 C21 C 0.24687 0.18623 0.31571
 C22 C 0.23013 0.20661 0.31227
 H23 H 0.28080 0.17522 0.29275
 H24 H 0.21331 0.21100 0.32377
 H25 H 0.23953 0.23497 0.24437
 H26 H 0.26022 0.25523 0.26569
 N27 N 0.70862 -0.23707 0.21950
 N28 N 0.71817 -0.25815 0.20906
 C29 C 0.70420 -0.26417 0.18811
 C30 C 0.68504 -0.24588 0.18547
 C31 C 0.68826 -0.22894 0.20558
 H32 H 0.70788 -0.28033 0.17549
 H33 H 0.67687 -0.21189 0.20961
 Cu34 Cu 0.74859 -0.27511 0.22317
 Cu35 Cu 0.72363 -0.22148 0.25001
 Cu36 Cu 0.77841 -0.25055 0.27501
 N37 N 0.77985 -0.29069 0.23703
 N38 N 0.79146 -0.28091 0.25724
 C39 C 0.81284 -0.29480 0.26236
 C40 C 0.81457 -0.31421 0.24440
 C41 C 0.79349 -0.31118 0.22856
 H42 H 0.82624 -0.29091 0.27778
 H43 H 0.78873 -0.32275 0.21197
 N44 N 0.76236 -0.21973 0.29036
 N45 N 0.74150 -0.20862 0.28080
 C46 C 0.73549 -0.18789 0.29523
 C47 C 0.75337 -0.18605 0.31466
 C48 C 0.77015 -0.20637 0.31112
 H49 H 0.71948 -0.17493 0.29178
 H50 H 0.78690 -0.21088 0.32266
 H51 H 0.76067 -0.23460 0.24331
 H52 H 0.73995 -0.25499 0.26462
 N53 N 0.71012 0.23625 0.78061
 N54 N 0.72058 0.25626 0.79213
 C55 C 0.70665 0.26196 0.81323
 C56 C 0.68655 0.24461 0.81484
 C57 C 0.68923 0.22853 0.79398
 H58 H 0.71082 0.27743 0.82650
 H59 H 0.67702 0.21236 0.78902
 Cu60 Cu 0.75142 0.27289 0.77854
 Cu61 Cu 0.72460 0.22147 0.74946
 Cu62 Cu 0.77862 0.25139 0.72385
 N63 N 0.78123 0.28996 0.76334
 N64 N 0.79170 0.28152 0.74191
 C65 C 0.81205 0.29652 0.73583
 C66 C 0.81427 0.31526 0.75442
 C67 C 0.79458 0.31067 0.77163
 H68 H 0.82446 0.29380 0.71934
 H69 H 0.79049 0.32141 0.78895
 N70 N 0.76261 0.22067 0.70833
 N71 N 0.74198 0.20929 0.71809
 C72 C 0.73609 0.18856 0.70366
 C73 C 0.75381 0.18696 0.68401
 C74 C 0.77038 0.20745 0.68744
 H75 H 0.72039 0.17531 0.70737
 H76 H 0.78707 0.21205 0.67583
 H77 H 0.76223 0.23343 0.75530
 H78 H 0.74094 0.25548 0.73639
 N79 N 0.29116 -0.23755 0.78137
 N80 N 0.28124 -0.25823 0.79225
 C81 C 0.29532 -0.26431 0.81313
 C82 C 0.31497 -0.24651 0.81526
 C83 C 0.31186 -0.22978 0.79493
 H84 H 0.29148 -0.28024 0.82599
 H85 H 0.32359 -0.21308 0.79053
 Cu86 Cu 0.25058 -0.27473 0.77830
 Cu87 Cu 0.27618 -0.22193 0.75079
 Cu88 Cu 0.22178 -0.25145 0.72541
 N89 N 0.22023 -0.29133 0.76381
 N90 N 0.20909 -0.28209 0.74306
 C91 C 0.18835 -0.29666 0.73734
 C92 C 0.18658 -0.31594 0.75546
 C93 C 0.20694 -0.31213 0.77203
 H94 H 0.17536 -0.29325 0.72146
 H95 H 0.21146 -0.32341 0.78891
 N96 N 0.23753 -0.22030 0.71031
 N97 N 0.25825 -0.20906 0.71998
 C98 C 0.26401 -0.18811 0.70574
 C99 C 0.24610 -0.18623 0.68632
 C100 C 0.22958 -0.20678 0.68967
 H101 H 0.27983 -0.17501 0.70934
 H102 H 0.21288 -0.21130 0.67809
 H103 H 0.23879 -0.23445 0.75701
 H104 H 0.25983 -0.25536 0.73666
 N105 N 0.70963 -0.23727 0.78030
 N106 N 0.71997 -0.25772 0.79122
 C107 C 0.70617 -0.26384 0.81229
 C108 C 0.68627 -0.24632 0.81449
 C109 C 0.68891 -0.22969 0.79402
 H110 H 0.71043 -0.27958 0.82526
 H111 H 0.67692 -0.21316 0.78965
 Cu112 Cu 0.75086 -0.27377 0.77720
 Cu113 Cu 0.72422 -0.22155 0.74959
 Cu114 Cu 0.77907 -0.25029 0.72404
 N115 N 0.78142 -0.28995 0.76261
 N116 N 0.79234 -0.28064 0.74175
 C117 C 0.81337 -0.29483 0.73606
 C118 C 0.81558 -0.31394 0.75431
 C119 C 0.79518 -0.31041 0.77093
 H120 H 0.82632 -0.29124 0.72015
 H121 H 0.79099 -0.32159 0.78796
 N122 N 0.76272 -0.21947 0.70892
 N123 N 0.74182 -0.20854 0.71865
 C124 C 0.73572 -0.18766 0.70445
 C125 C 0.75360 -0.18552 0.68500
 C126 C 0.77045 -0.20582 0.68828
 H127 H 0.71973 -0.17474 0.70814
 H128 H 0.78727 -0.21005 0.67669
 H129 H 0.74117 -0.25481 0.73551
 H130 H 0.76188 -0.23345 0.75564
 N131 N 0.29123 0.23729 0.77965
 N132 N 0.28108 0.25781 0.79061
 C133 C 0.29497 0.26379 0.81161
 C134 C 0.31475 0.24610 0.81371
 C135 C 0.31191 0.22953 0.79327
 H136 H 0.29086 0.27952 0.82461
 H137 H 0.32373 0.21288 0.78888
 Cu138 Cu 0.25026 0.27415 0.77676
 Cu139 Cu 0.27643 0.22169 0.74907
 Cu140 Cu 0.22149 0.25057 0.72401
 N141 N 0.21944 0.29016 0.76256
 N142 N 0.20833 0.28084 0.74187
 C143 C 0.18718 0.29496 0.73647
 C144 C 0.18507 0.31404 0.75473
 C145 C 0.20569 0.31055 0.77105
 H146 H 0.17408 0.29136 0.72074
 H147 H 0.21004 0.32176 0.78798
 N148 N 0.23773 0.21981 0.70870
 N149 N 0.25865 0.20881 0.71826
 C150 C 0.26459 0.18793 0.70403
 C151 C 0.24659 0.18586 0.68474
 C152 C 0.22982 0.20621 0.68815
 H153 H 0.28053 0.17492 0.70763
 H154 H 0.21291 0.21047 0.67675
 H155 H 0.25954 0.25498 0.73508
 H156 H 0.23891 0.23378 0.75558
 N157 N 0.29133 -0.23635 0.21951
 N158 N 0.28138 -0.25700 0.20867
 C159 C 0.29541 -0.26304 0.18773
 C160 C 0.31505 -0.24524 0.18553
 C161 C 0.31201 -0.22855 0.20586
 H162 H 0.29153 -0.27894 0.17488
 H163 H 0.32375 -0.21187 0.21022
 Cu164 Cu 0.25072 -0.27350 0.22267
 Cu165 Cu 0.27645 -0.22084 0.25018
 Cu166 Cu 0.22215 -0.25044 0.27582
 N167 N 0.22047 -0.29015 0.23737
 N168 N 0.20940 -0.28098 0.25819
 C169 C 0.18864 -0.29552 0.26394
 C170 C 0.18675 -0.31471 0.24578
 C171 C 0.20710 -0.31086 0.22916
 H172 H 0.17566 -0.29214 0.27986
 H173 H 0.21152 -0.32206 0.21222
 N174 N 0.23794 -0.21937 0.29087
 N175 N 0.25862 -0.20810 0.28110
 C176 C 0.26441 -0.18718 0.29532
 C177 C 0.24655 -0.18538 0.31482
 C178 C 0.23003 -0.20592 0.31155
 H179 H 0.28020 -0.17404 0.29164
 H180 H 0.21335 -0.21047 0.32319
 H181 H 0.26014 -0.25438 0.26430
 H182 H 0.23903 -0.23334 0.24415
 N183 N 0.70792 0.23686 0.21932
 N184 N 0.71774 0.25761 0.20849
 C185 C 0.70380 0.26349 0.18747
 C186 C 0.68436 0.24549 0.18521
 C187 C 0.68743 0.22885 0.20560
 H188 H 0.70764 0.27939 0.17457
 H189 H 0.67587 0.21201 0.20990
 Cu190 Cu 0.74816 0.27441 0.22258
 Cu191 Cu 0.72286 0.22135 0.24991
 Cu192 Cu 0.77715 0.25095 0.27534
 N193 N 0.77860 0.29087 0.23702
 N194 N 0.78982 0.28158 0.25770
 C195 C 0.81064 0.29605 0.26330
 C196 C 0.81244 0.31534 0.24520
 C197 C 0.79196 0.31161 0.22876
 H198 H 0.82372 0.29258 0.27910
 H199 H 0.78744 0.32291 0.21190
 N200 N 0.76142 0.21981 0.29044
 N201 N 0.74072 0.20856 0.28076
 C202 C 0.73501 0.18756 0.29493
 C203 C 0.75294 0.18567 0.31431
 C204 C 0.76943 0.20625 0.31102
 H205 H 0.71925 0.17440 0.29128
 H206 H 0.78616 0.21073 0.32257
 H207 H 0.73910 0.25481 0.26416
 H208 H 0.76018 0.23409 0.24365
 C209 C 0.23657 0.02348 0.44635
 C210 C 0.23654 0.00008 0.43307
 C211 C 0.23643 -0.02348 0.44610
 C212 C 0.23623 -0.02392 0.47319
 C213 C 0.23622 -0.00029 0.48692
 C214 C 0.23639 0.02354 0.47346
 C215 C 0.23647 0.04674 0.48744
 C216 C 0.23647 0.04656 0.51415
 C217 C 0.23639 0.02316 0.52787
 C218 C 0.23623 -0.00048 0.51414
 C219 C 0.23616 -0.04732 0.48691
 C220 C 0.23618 -0.04750 0.51363
 C221 C 0.23627 -0.02431 0.52761
 C222 C 0.23649 -0.02423 0.55472
 C223 C 0.23659 -0.00083 0.56799
 C224 C 0.23657 0.02273 0.55496
 H225 H 0.23658 0.06527 0.47782
 H226 H 0.23658 0.06496 0.52397
 H227 H 0.23612 -0.06572 0.47708
 H228 H 0.23617 -0.06603 0.52326
 H229 H 0.23681 0.00022 0.41225
 H230 H 0.23685 -0.00095 0.58881
 C231 C 0.76247 -0.02385 0.44558
 C232 C 0.76263 -0.00049 0.43220
 C233 C 0.76280 0.02310 0.44513
 C234 C 0.76291 0.02360 0.47222
 C235 C 0.76282 -0.00000 0.48604
 C236 C 0.76259 -0.02386 0.47268
 C237 C 0.76241 -0.04703 0.48675
 C238 C 0.76238 -0.04679 0.51346
 C239 C 0.76251 -0.02337 0.52708
 C240 C 0.76276 0.00024 0.51327
 C241 C 0.76300 0.04703 0.48585
 C242 C 0.76292 0.04727 0.51256
 C243 C 0.76278 0.02410 0.52663
 C244 C 0.76255 0.02408 0.55374
 C245 C 0.76235 0.00071 0.56711
 C246 C 0.76229 -0.02287 0.55417
 H247 H 0.76225 -0.06558 0.47721
 H248 H 0.76222 -0.06516 0.52336
 H249 H 0.76309 0.06540 0.47594
 H250 H 0.76294 0.06582 0.52211
 H251 H 0.76242 -0.00068 0.41138
 H252 H 0.76209 0.00089 0.58793
 C253 C 0.44479 0.23695 -0.02367
 C254 C 0.43156 0.23691 -0.00032
 C255 C 0.44484 0.23671 0.02297
 C256 C 0.47213 0.23645 0.02315
 C257 C 0.48580 0.23647 -0.00046
 C258 C 0.47208 0.23674 -0.02400
 C259 C 0.48599 0.23687 -0.04718
 C260 C 0.51289 0.23675 -0.04726
 C261 C 0.52688 0.23649 -0.02416
 C262 C 0.51322 0.23634 -0.00055
 C263 C 0.48612 0.23626 0.04625
 C264 C 0.51302 0.23614 0.04617
 C265 C 0.52694 0.23621 0.02299
 C266 C 0.55423 0.23623 0.02266
 C267 C 0.56745 0.23631 -0.00069
 C268 C 0.55417 0.23647 -0.02399
 H269 H 0.47617 0.23709 -0.06550
 H270 H 0.52266 0.23689 -0.06563
 H271 H 0.47635 0.23622 0.06462
 H272 H 0.52284 0.23601 0.06449
 H273 H 0.41059 0.23717 -0.00027
 H274 H 0.58842 0.23641 -0.00074
 C275 C 0.44650 0.76278 -0.02322
 C276 C 0.43313 0.76288 0.00006
 C277 C 0.44627 0.76305 0.02343
 C278 C 0.47356 0.76321 0.02379
 C279 C 0.48737 0.76316 0.00027
 C280 C 0.47380 0.76295 -0.02336
 C281 C 0.48787 0.76278 -0.04644
 C282 C 0.51477 0.76276 -0.04633
 C283 C 0.52860 0.76287 -0.02314
 C284 C 0.51480 0.76311 0.00038
 C285 C 0.48740 0.76329 0.04698
 C286 C 0.51430 0.76324 0.04709
 C287 C 0.52838 0.76312 0.02402
 C288 C 0.55568 0.76291 0.02388
 C289 C 0.56904 0.76270 0.00059
 C290 C 0.55589 0.76263 -0.02278
 H291 H 0.47816 0.76264 -0.06482
 H292 H 0.52466 0.76262 -0.06464
 H293 H 0.47751 0.76336 0.06529
 H294 H 0.52400 0.76326 0.06547
 H295 H 0.41216 0.76262 -0.00002
 H296 H 0.59001 0.76242 0.00064
 C297 C 0.02235 0.44552 0.23411
 C298 C -0.00130 0.43259 0.23416
 C299 C -0.02462 0.44614 0.23421
 C300 C -0.02456 0.47342 0.23406
 C301 C -0.00066 0.48680 0.23401
 C302 C 0.02293 0.47280 0.23406
 C303 C 0.04640 0.48643 0.23416
 C304 C 0.04672 0.51332 0.23430
 C305 C 0.02358 0.52757 0.23428
 C306 C -0.00033 0.51420 0.23406
 C307 C -0.04770 0.48767 0.23406
 C308 C -0.04739 0.51457 0.23400
 C309 C -0.02392 0.52821 0.23404
 C310 C -0.02333 0.55549 0.23415
 C311 C 0.00032 0.56840 0.23440
 C312 C 0.02364 0.55484 0.23454
 H313 H 0.06475 0.47639 0.23417
 H314 H 0.06531 0.52287 0.23442
 H315 H -0.06629 0.47811 0.23411
 H316 H -0.06574 0.52461 0.23399
 H317 H -0.00155 0.41163 0.23434
 H318 H 0.00059 0.58936 0.23464
 C319 C 0.02207 0.44533 0.76516
 C320 C -0.00168 0.43258 0.76491
 C321 C -0.02490 0.44632 0.76480
 C322 C -0.02459 0.47360 0.76506
 C323 C -0.00057 0.48677 0.76530
 C324 C 0.02289 0.47258 0.76532
 C325 C 0.04649 0.48601 0.76542
 C326 C 0.04705 0.51290 0.76543
 C327 C 0.02405 0.52734 0.76538
 C328 C 0.00001 0.51417 0.76536
 C329 C -0.04760 0.48804 0.76501
 C330 C -0.04704 0.51493 0.76511
 C331 C -0.02344 0.52836 0.76524
 C332 C -0.02260 0.55563 0.76516
 C333 C 0.00115 0.56836 0.76519
 C334 C 0.02436 0.55462 0.76525
 H335 H 0.06475 0.47582 0.76545
 H336 H 0.06572 0.52229 0.76546
 H337 H -0.06627 0.47864 0.76488
 H338 H -0.06530 0.52513 0.76505
 H339 H -0.00209 0.41163 0.76465
 H340 H 0.00159 0.58932 0.76500
 C341 C 0.36712 0.24122 0.12777
 N342 N 0.36793 0.21981 0.11283
 N343 N 0.38406 0.21854 0.09293
 C344 C 0.39989 0.23863 0.08738
 N345 N 0.39911 0.26003 0.10233
 N346 N 0.38298 0.26130 0.12224
 C347 C 0.34911 0.24292 0.14864
 C348 C 0.33370 0.24440 0.16594
 C349 C 0.41636 0.23774 0.06524
 C350 C 0.42966 0.23716 0.04625
 C351 C 0.63372 0.75820 0.12828
 N352 N 0.62456 0.73624 0.11748
 N353 N 0.60831 0.73738 0.09771
 C354 C 0.60068 0.76052 0.08815
 N355 N 0.60984 0.78249 0.09894
 N356 N 0.62610 0.78135 0.11872
 C357 C 0.65185 0.75692 0.14907
 C358 C 0.66733 0.75567 0.16629
 C359 C 0.58412 0.76166 0.06612
 C360 C 0.57080 0.76237 0.04717
 C361 C 0.63276 0.24061 -0.12811
 N362 N 0.62776 0.21781 -0.11629
 N363 N 0.61128 0.21675 -0.09666
 C364 C 0.59927 0.23845 -0.08828
 N365 N 0.60422 0.26123 -0.10014
 N366 N 0.62070 0.26229 -0.11977
 C367 C 0.65136 0.24194 -0.14851
 C368 C 0.66729 0.24314 -0.16535
 C369 C 0.58268 0.23757 -0.06623
 C370 C 0.56935 0.23698 -0.04726
 C371 C 0.36829 0.75732 -0.12739
 N372 N 0.37674 0.73541 -0.11587
 N373 N 0.39311 0.73661 -0.09621
 C374 C 0.40156 0.75977 -0.08749
 N375 N 0.39316 0.78169 -0.09904
 N376 N 0.37679 0.78048 -0.11871
 C377 C 0.34985 0.75604 -0.14789
 C378 C 0.33407 0.75490 -0.16482
 C379 C 0.41810 0.76107 -0.06546
 C380 C 0.43139 0.76197 -0.04650
 C381 C 0.12683 0.36647 0.23904
 N382 N 0.10503 0.35951 0.22644
 N383 N 0.08508 0.37571 0.22492
 C384 C 0.08633 0.39938 0.23593
 N385 N 0.10814 0.40638 0.24851
 N386 N 0.12810 0.39016 0.25003
 C387 C 0.14794 0.34864 0.24130
 C388 C 0.16536 0.33332 0.24330
 C389 C 0.06442 0.41634 0.23507
 C390 C 0.04555 0.42999 0.23453
 C391 C 0.13013 0.63163 0.76054
 N392 N 0.11742 0.62796 0.78300
 N393 N 0.09750 0.61172 0.78427
 C394 C 0.08973 0.59864 0.76313
 N395 N 0.10248 0.60227 0.74068
 N396 N 0.12239 0.61851 0.73941
 C397 C 0.15077 0.65004 0.75887
 C398 C 0.16775 0.66587 0.75733
 C399 C 0.06734 0.58236 0.76413
 C400 C 0.04806 0.56934 0.76475
 C401 C -0.12775 0.63474 0.23798
 N402 N -0.10574 0.64171 0.22570
 N403 N -0.08581 0.62547 0.22437
 C404 C -0.08729 0.60173 0.23526
 N405 N -0.10933 0.59471 0.24750
 N406 N -0.12927 0.61097 0.24884
 C407 C -0.14881 0.65266 0.24014
 C408 C -0.16616 0.66809 0.24208
 C409 C -0.06538 0.58474 0.23467
 C410 C -0.04653 0.57105 0.23434
 C411 C -0.12994 0.36842 0.75912
 N412 N -0.12067 0.37987 0.73760
 N413 N -0.10097 0.39635 0.73895
 C414 C -0.08996 0.40193 0.76187
 N415 N -0.09927 0.39053 0.78341
 N416 N -0.11897 0.37404 0.78205
 C417 C -0.15032 0.34974 0.75750
 C418 C -0.16711 0.33367 0.75608
 C419 C -0.06774 0.41842 0.76312
 C420 C -0.04856 0.43156 0.76399
 C421 C 0.24203 0.12858 0.36879
 N422 N 0.21929 0.11622 0.37275
 N423 N 0.21791 0.09639 0.38901
 C424 C 0.23923 0.08835 0.40183
 N425 N 0.26196 0.10075 0.39792
 N426 N 0.26334 0.12058 0.38166
 C427 C 0.24373 0.14920 0.35046
 C428 C 0.24518 0.16623 0.33475
 C429 C 0.23807 0.06611 0.41822
 C430 C 0.23728 0.04697 0.43138
 C431 C 0.75817 0.12939 0.63089
 N432 N 0.73635 0.12016 0.61985
 N433 N 0.73748 0.10027 0.60369
 C434 C 0.76046 0.08903 0.59805
 N435 N 0.78229 0.09829 0.60905
 N436 N 0.78117 0.11818 0.62522
 C437 C 0.75679 0.15006 0.64917
 C438 C 0.75549 0.16707 0.66489
 C439 C 0.76146 0.06675 0.58174
 C440 C 0.76208 0.04760 0.56863
 C441 C 0.24145 -0.12880 0.63299
 N442 N 0.26291 -0.12075 0.62037
 N443 N 0.26164 -0.10106 0.60394
 C444 C 0.23887 -0.08886 0.59959
 N445 N 0.21740 -0.09694 0.61218
 N446 N 0.21867 -0.11663 0.62861
 C447 C 0.24302 -0.14933 0.65144
 C448 C 0.24440 -0.16629 0.66723
 C449 C 0.23780 -0.06675 0.58302
 C450 C 0.23709 -0.04770 0.56973
 C451 C 0.75744 -0.12893 0.36823
 N452 N 0.78057 -0.11857 0.37476
 N453 N 0.78175 -0.09879 0.39105
 C454 C 0.75984 -0.08879 0.40132
 N455 N 0.73673 -0.09920 0.39485
 N456 N 0.73555 -0.11898 0.37857
 C457 C 0.75607 -0.14942 0.34978
 C458 C 0.75485 -0.16629 0.33391
 C459 C 0.76097 -0.06653 0.41763
 C460 C 0.76175 -0.04737 0.43071
 C461 C 0.63387 0.75738 -0.12728
 N462 N 0.62564 0.73544 -0.11567
 N463 N 0.60947 0.73660 -0.09580
 C464 C 0.60102 0.75973 -0.08697
 N465 N 0.60922 0.78168 -0.09859
 N466 N 0.62540 0.78052 -0.11846
 C467 C 0.65197 0.75615 -0.14808
 C468 C 0.66748 0.75505 -0.16530
 C469 C 0.58453 0.76097 -0.06489
 C470 C 0.57119 0.76184 -0.04595
 C471 C 0.36713 0.24144 -0.12822
 N472 N 0.36834 0.21986 -0.11353
 N473 N 0.38448 0.21865 -0.09368
 C474 C 0.39991 0.23897 -0.08794
 N475 N 0.39874 0.26054 -0.10266
 N476 N 0.38260 0.26175 -0.12252
 C477 C 0.34905 0.24308 -0.14897
 C478 C 0.33354 0.24447 -0.16613
 C479 C 0.41633 0.23811 -0.06583
 C480 C 0.42959 0.23751 -0.04687
 C481 C 0.36795 0.75840 0.12771
 N482 N 0.37508 0.73653 0.11530
 N483 N 0.39136 0.73761 0.09552
 C484 C 0.40102 0.76059 0.08756
 N485 N 0.39392 0.78247 0.09999
 N486 N 0.37764 0.78139 0.11978
 C487 C 0.34969 0.75728 0.14839
 C488 C 0.33403 0.75619 0.16548
 C489 C 0.41758 0.76178 0.06553
 C490 C 0.43096 0.76250 0.04661
 C491 C 0.63195 0.24060 0.12718
 N492 N 0.63003 0.21863 0.11318
 N493 N 0.61386 0.21738 0.09336
 C494 C 0.59911 0.23805 0.08696
 N495 N 0.60098 0.25999 0.10099
 N496 N 0.61715 0.26124 0.12082
 C497 C 0.65007 0.24226 0.14790
 C498 C 0.66558 0.24373 0.16504
 C499 C 0.58270 0.23714 0.06484
 C500 C 0.56943 0.23660 0.04587
 C501 C -0.12651 0.63533 0.76028
 N502 N -0.10352 0.64332 0.76980
 N503 N -0.08363 0.62706 0.77125
 C504 C -0.08613 0.60229 0.76324
 N505 N -0.10914 0.59426 0.75374
 N506 N -0.12904 0.61054 0.75229
 C507 C -0.14765 0.65311 0.75820
 C508 C -0.16508 0.66843 0.75639
 C509 C -0.06440 0.58514 0.76411
 C510 C -0.04565 0.57134 0.76467
 C511 C -0.12989 0.36854 0.23967
 N512 N -0.11687 0.37167 0.21730
 N513 N -0.09702 0.38796 0.21587
 C514 C -0.08960 0.40164 0.23676
 N515 N -0.10265 0.39855 0.25912
 N516 N -0.12251 0.38226 0.26055
 C517 C -0.15055 0.35020 0.24149
 C518 C -0.16760 0.33445 0.24314
 C519 C -0.06734 0.41806 0.23561
 C520 C -0.04817 0.43123 0.23485
 C521 C 0.12626 0.36596 0.76101
 N522 N 0.10457 0.35929 0.77401
 N523 N 0.08465 0.37553 0.77537
 C524 C 0.08582 0.39894 0.76378
 N525 N 0.10752 0.40565 0.75080
 N526 N 0.12745 0.38940 0.74944
 C527 C 0.14732 0.34809 0.75891
 C528 C 0.16470 0.33272 0.75705
 C529 C 0.06394 0.41592 0.76446
 C530 C 0.04514 0.42964 0.76487
 C531 C 0.12905 0.63216 0.24053
 N532 N 0.11986 0.62047 0.26196
 N533 N 0.09996 0.60424 0.26052
 C534 C 0.08867 0.59919 0.23762
 N535 N 0.09788 0.61086 0.21619
 N536 N 0.11778 0.62709 0.21762
 C537 C 0.14973 0.65046 0.24225
 C538 C 0.16679 0.66619 0.24381
 C539 C 0.06638 0.58285 0.23630
 C540 C 0.04720 0.56973 0.23539
 C541 C 0.75755 -0.12766 0.63214
 N542 N 0.78062 -0.11709 0.62572
 N543 N 0.78173 -0.09722 0.60950
 C544 C 0.75980 -0.08735 0.59920
 N545 N 0.73673 -0.09796 0.60558
 N546 N 0.73562 -0.11783 0.62180
 C547 C 0.75625 -0.14836 0.65040
 C548 C 0.75506 -0.16545 0.66604
 C549 C 0.76087 -0.06517 0.58276
 C550 C 0.76161 -0.04614 0.56945
 C551 C 0.24171 -0.12795 0.36795
 N552 N 0.26320 -0.11954 0.38021
 N553 N 0.26185 -0.09980 0.39652
 C554 C 0.23897 -0.08788 0.40109
 N555 N 0.21747 -0.09632 0.38888
 N556 N 0.21881 -0.11607 0.37256
 C557 C 0.24336 -0.14849 0.34960
 C558 C 0.24481 -0.16546 0.33386
 C559 C 0.23780 -0.06577 0.41758
 C560 C 0.23704 -0.04677 0.43088
 C561 C 0.75781 0.12780 0.36707
 N562 N 0.73623 0.11909 0.37901
 N563 N 0.73754 0.09924 0.39524
 C564 C 0.76047 0.08753 0.40003
 N565 N 0.78207 0.09627 0.38812
 N566 N 0.78076 0.11612 0.37189
 C567 C 0.75622 0.14850 0.34885
 C568 C 0.75476 0.16560 0.33324
 C569 C 0.76162 0.06537 0.41650
 C570 C 0.76231 0.04636 0.42983
 C571 C 0.24164 0.12776 0.63236
 N572 N 0.21924 0.11454 0.62950
 N573 N 0.21792 0.09461 0.61342
 C574 C 0.23896 0.08731 0.59971
 N575 N 0.26135 0.10056 0.60253
 N576 N 0.26267 0.12050 0.61861
 C577 C 0.24334 0.14855 0.65043
 C578 C 0.24482 0.16572 0.66593
 C579 C 0.23789 0.06508 0.58337
 C580 C 0.23718 0.04603 0.57014
   
