data_POSCAR
  _audit_creation_date              2014-09-24
  _audit_creation_method            'ToBaCCo'
  _symmetry_space_group_name_H-M    'P1'
  _symmetry_Int_Tables_number       1
  _symmetry_cell_setting            triclinic
  loop_
  _symmetry_equiv_pos_as_xyz
 x,y,z
_cell_length_a 42.2530
_cell_length_b 42.1636
_cell_length_c 18.3762
_cell_angle_alpha 89.913800
_cell_angle_beta 90.085900
_cell_angle_gamma 120.009100
loop_
  _atom_site_label
  _atom_site_type_symbol
  _atom_site_fract_x
  _atom_site_fract_y
  _atom_site_fract_z
C1 C 0.48360 0.96722 0.53967
 C2 C 0.48375 0.96728 0.46298
 C3 C 0.50039 1.00064 0.42528
 C4 C 0.51701 1.03404 0.46293
 C5 C 0.51705 1.03400 0.53979
 C6 C 0.50029 1.00057 0.57744
 H7 H 0.50024 1.00051 0.63657
 H8 H 0.50037 1.00055 0.36619
 C9 C 0.03270 0.51630 0.53625
 C10 C 0.03266 0.51636 0.45965
 C11 C -0.00062 0.49965 0.42189
 C12 C -0.03392 0.48295 0.45962
 C13 C -0.03386 0.48310 0.53635
 C14 C -0.00054 0.49973 0.57401
 H15 H -0.00048 0.49978 0.63306
 H16 H -0.00053 0.49967 0.36280
 C17 C 0.48341 0.51673 0.54123
 C18 C 0.48333 0.51660 0.46451
 C19 C 0.50002 0.49997 0.42700
 C20 C 0.51671 0.48334 0.46482
 C21 C 0.51661 0.48324 0.54154
 C22 C 0.50000 0.49999 0.57914
 H23 H 0.50000 0.50000 0.63826
 H24 H 0.50003 0.49996 0.36794
 O25 O 0.38730 0.66853 -0.08466
 O26 O 0.38887 0.73048 -0.06256
 C27 C 0.36613 0.73589 -0.09784
 O28 O 0.33215 0.71909 -0.08512
 O29 O 0.27030 0.65868 -0.06306
 C30 C 0.26495 0.63049 -0.09815
 O31 O 0.28170 0.61324 -0.08513
 O32 O 0.34195 0.61166 -0.06243
 C33 C 0.37011 0.63449 -0.09749
 O34 O 0.38868 0.65848 0.06005
 O35 O 0.38725 0.71893 0.08212
 C36 C 0.37008 0.73576 0.09490
 O37 O 0.34201 0.73048 0.05957
 O38 O 0.28165 0.66858 0.08165
 C39 C 0.26481 0.63454 0.09451
 O40 O 0.27013 0.61170 0.05944
 O41 O 0.33188 0.61314 0.08216
 C42 C 0.36583 0.63033 0.09522
 Cr43 Cr 0.38596 0.69307 -0.00128
 Cr44 Cr 0.30756 0.69317 -0.00174
 Cr45 Cr 0.30745 0.61450 -0.00149
 O46 O 0.33366 0.66692 -0.00151
 O47 O 0.61273 0.33149 -0.08252
 O48 O 0.61120 0.26954 -0.06024
 C49 C 0.63394 0.26418 -0.09543
 O50 O 0.66792 0.28096 -0.08258
 O51 O 0.72975 0.34138 -0.06053
 C52 C 0.73505 0.36955 -0.09574
 O53 O 0.71831 0.38679 -0.08281
 O54 O 0.65807 0.38835 -0.06031
 C55 C 0.62991 0.36553 -0.09541
 O56 O 0.61140 0.34146 0.06216
 O57 O 0.61286 0.28100 0.08443
 C58 C 0.63004 0.26419 0.09734
 O59 O 0.65812 0.26951 0.06213
 O60 O 0.71847 0.33141 0.08419
 C61 C 0.73530 0.36546 0.09698
 O62 O 0.72996 0.38830 0.06180
 O63 O 0.66820 0.38682 0.08430
 C64 C 0.63425 0.36961 0.09730
 Cr65 Cr 0.61411 0.30691 0.00095
 Cr66 Cr 0.69253 0.30685 0.00080
 Cr67 Cr 0.69260 0.38550 0.00075
 O68 O 0.66641 0.33308 0.00083
 C69 C 0.43688 0.87539 -0.34091
 N70 N 0.45661 0.85980 -0.31873
 N71 N 0.44195 0.83106 -0.27397
 C72 C 0.40711 0.81704 -0.25006
 N73 N 0.38735 0.83257 -0.27241
 N74 N 0.40202 0.86131 -0.31716
 C75 C 0.45336 0.90765 -0.38554
 C76 C 0.46745 0.93532 -0.42137
 C77 C 0.39212 0.78756 -0.19839
 C78 C 0.37998 0.76354 -0.15334
 C79 C 0.12600 0.56207 -0.34178
 N80 N 0.13991 0.54113 -0.31759
 N81 N 0.16854 0.55513 -0.27272
 C82 C 0.18414 0.59050 -0.25071
 N83 N 0.17029 0.61146 -0.27506
 N84 N 0.14165 0.59746 -0.31993
 C85 C 0.09387 0.54638 -0.38657
 C86 C 0.06630 0.53287 -0.42254
 C87 C 0.21351 0.60491 -0.19891
 C88 C 0.23743 0.61673 -0.15376
 C89 C 0.43858 0.56360 -0.33979
 N90 N 0.45948 0.59846 -0.31568
 N91 N 0.44548 0.61318 -0.27109
 C92 C 0.41015 0.59347 -0.24927
 N93 N 0.38922 0.55864 -0.27354
 N94 N 0.40322 0.54392 -0.31814
 C95 C 0.45425 0.54706 -0.38426
 C96 C 0.46776 0.53292 -0.41996
 C97 C 0.39573 0.60850 -0.19776
 C98 C 0.38389 0.62066 -0.15284
 C99 C 0.56349 0.12539 -0.33967
 N100 N 0.59839 0.13954 -0.31596
 N101 N 0.61297 0.16812 -0.27088
 C102 C 0.59308 0.18340 -0.24815
 N103 N 0.55820 0.16930 -0.27202
 N104 N 0.54363 0.14073 -0.31710
 C105 C 0.54712 0.09331 -0.38470
 C106 C 0.53312 0.06577 -0.42086
 C107 C 0.60800 0.21272 -0.19622
 C108 C 0.62011 0.23663 -0.15102
 C109 C 0.87328 0.43762 -0.34057
 N110 N 0.85756 0.40221 -0.31867
 N111 N 0.82910 0.38831 -0.27348
 C112 C 0.81548 0.40939 -0.24883
 N113 N 0.83113 0.44477 -0.27088
 N114 N 0.85960 0.45868 -0.31607
 C115 C 0.90523 0.45320 -0.38574
 C116 C 0.93265 0.46662 -0.42204
 C117 C 0.78627 0.39505 -0.19678
 C118 C 0.76247 0.38327 -0.15147
 C119 C 0.56142 0.43641 -0.33867
 N120 N 0.59678 0.45609 -0.31692
 N121 N 0.61077 0.44138 -0.27209
 C122 C 0.58984 0.40656 -0.24769
 N123 N 0.55451 0.38685 -0.26960
 N124 N 0.54051 0.40155 -0.31442
 C125 C 0.54575 0.45294 -0.38341
 C126 C 0.53225 0.46706 -0.41936
 C127 C 0.60426 0.39153 -0.19597
 C128 C 0.61611 0.37937 -0.15091
 C129 C 0.87449 0.43617 0.34011
 N130 N 0.86060 0.40132 0.31590
 N131 N 0.83193 0.38665 0.27111
 C132 C 0.81628 0.40638 0.24919
 N133 N 0.83011 0.44119 0.27355
 N134 N 0.85878 0.45586 0.31834
 C135 C 0.90666 0.45267 0.38478
 C136 C 0.93427 0.46678 0.42064
 C137 C 0.78687 0.39138 0.19750
 C138 C 0.76290 0.37926 0.15245
 C139 C 0.56189 0.12547 0.34223
 N140 N 0.59705 0.14077 0.31957
 N141 N 0.61102 0.16933 0.27436
 C142 C 0.59024 0.18346 0.25045
 N143 N 0.55511 0.16823 0.27327
 N144 N 0.54114 0.13966 0.31848
 C145 C 0.54621 0.09339 0.38735
 C146 C 0.53269 0.06584 0.42356
 C147 C 0.60459 0.21277 0.19838
 C148 C 0.61636 0.23666 0.15306
 C149 C 0.56412 0.43776 0.34205
 N150 N 0.54444 0.40236 0.32020
 N151 N 0.55900 0.38844 0.27502
 C152 C 0.59367 0.40949 0.25035
 N153 N 0.61338 0.44485 0.27236
 N154 N 0.59882 0.45878 0.31753
 C155 C 0.54773 0.45336 0.38715
 C156 C 0.53372 0.46681 0.42336
 C157 C 0.60854 0.39514 0.19831
 C158 C 0.62056 0.38335 0.15301
 C159 C 0.12586 0.56391 0.33768
 N160 N 0.14144 0.54414 0.31585
 N161 N 0.17005 0.55879 0.27102
 C162 C 0.18395 0.59363 0.24668
 N163 N 0.16842 0.61343 0.26866
 N164 N 0.13981 0.59879 0.31349
 C165 C 0.09376 0.54745 0.38246
 C166 C 0.06623 0.53340 0.41844
 C167 C 0.21331 0.60861 0.19498
 C168 C 0.23725 0.62073 0.14995
 C169 C 0.43816 0.87423 0.33985
 N170 N 0.45902 0.86028 0.31578
 N171 N 0.44510 0.83177 0.27053
 C172 C 0.40988 0.81636 0.24799
 N173 N 0.38899 0.83025 0.27222
 N174 N 0.40292 0.85876 0.31746
 C175 C 0.45377 0.90624 0.38506
 C176 C 0.46723 0.93371 0.42138
 C177 C 0.39554 0.78710 0.19591
 C178 C 0.38378 0.76325 0.15060
 C179 C 0.43595 0.56216 0.34091
 N180 N 0.40127 0.54112 0.31621
 N181 N 0.38672 0.55504 0.27081
 C182 C 0.40641 0.59042 0.24875
 N183 N 0.44106 0.61148 0.27362
 N184 N 0.45561 0.59756 0.31901
 C185 C 0.45233 0.54656 0.38629
 C186 C 0.46633 0.53312 0.42275
 C187 C 0.39155 0.60477 0.19651
 C188 C 0.37953 0.61657 0.15107
   
