data_POSCAR
  _audit_creation_date              2014-09-24
  _audit_creation_method            'ToBaCCo'
  _symmetry_space_group_name_H-M    'P1'
  _symmetry_Int_Tables_number       1
  _symmetry_cell_setting            triclinic
  loop_
  _symmetry_equiv_pos_as_xyz
 x,y,z
_cell_length_a 24.1699
_cell_length_b 24.1754
_cell_length_c 24.1493
_cell_angle_alpha 90.088400
_cell_angle_beta 90.126000
_cell_angle_gamma 90.028600
loop_
  _atom_site_label
  _atom_site_type_symbol
  _atom_site_fract_x
  _atom_site_fract_y
  _atom_site_fract_z
C1 C 0.38606 1.01160 -0.54785
 C2 C 0.36023 1.01256 -0.49582
 C3 C 0.39013 1.01170 -0.44634
 C4 C 0.44859 1.01202 -0.44796
 C5 C 0.47631 1.01064 -0.49975
 C6 C 0.44511 1.01046 -0.54987
 C7 C 0.47411 1.01210 -0.60024
 C8 C 0.53130 1.00815 -0.60191
 C9 C 0.56332 1.00886 -0.55324
 C10 C 0.53544 1.00983 -0.50135
 C11 C 0.48005 1.01399 -0.39915
 C12 C 0.53736 1.01541 -0.40079
 C13 C 0.56634 1.01015 -0.45102
 C14 C 0.62523 1.00842 -0.45269
 C15 C 0.65136 1.00618 -0.50445
 C16 C 0.62215 1.00632 -0.55469
 H17 H 0.45341 1.01675 -0.63955
 H18 H 0.54957 1.00451 -0.64243
 H19 H 0.46088 1.01544 -0.35882
 H20 H 0.55826 1.02138 -0.36173
 H21 H 0.31541 1.01143 -0.49340
 H22 H 0.69619 1.00411 -0.50574
 C23 C -0.54399 1.38045 0.00722
 C24 C -0.49369 1.35236 0.00185
 C25 C -0.44379 1.38059 -0.00546
 C26 C -0.44387 1.43898 -0.00918
 C27 C -0.49412 1.46838 -0.00197
 C28 C -0.54419 1.43906 0.00731
 C29 C -0.59270 1.46911 0.01813
 C30 C -0.59299 1.52652 0.01625
 C31 C -0.54470 1.55637 0.00372
 C32 C -0.49423 1.52726 -0.00332
 C33 C -0.39515 1.46873 -0.01959
 C34 C -0.39560 1.52612 -0.02278
 C35 C -0.44397 1.55672 -0.01189
 C36 C -0.44433 1.61572 -0.01247
 C37 C -0.49558 1.64304 -0.00863
 C38 C -0.54531 1.61463 -0.00061
 H39 H -0.63096 1.44861 0.02893
 H40 H -0.63154 1.54722 0.02543
 H41 H -0.35609 1.44803 -0.02625
 H42 H -0.35743 1.54595 -0.03481
 H43 H -0.49328 1.30749 0.00284
 H44 H -0.49701 1.68786 -0.00918
 C45 C -0.01587 0.54688 0.61906
 C46 C -0.01769 0.49534 0.64572
 C47 C -0.01962 0.44482 0.61698
 C48 C -0.02022 0.44596 0.55809
 C49 C -0.01666 0.49740 0.52975
 C50 C -0.01627 0.54796 0.56014
 C51 C -0.02197 0.59784 0.53067
 C52 C -0.02195 0.59882 0.47325
 C53 C -0.01770 0.54985 0.44235
 C54 C -0.01702 0.49842 0.47061
 C55 C -0.03039 0.39794 0.52672
 C56 C -0.03020 0.39898 0.46926
 C57 C -0.01995 0.44813 0.43999
 C58 C -0.01856 0.44932 0.38093
 C59 C -0.01746 0.50108 0.35449
 C60 C -0.01777 0.55085 0.38386
 H61 H -0.02864 0.63687 0.55138
 H62 H -0.02703 0.63857 0.45343
 H63 H -0.04090 0.35908 0.54608
 H64 H -0.04065 0.36089 0.44825
 H65 H -0.01374 0.49442 0.69047
 H66 H -0.01456 0.50315 0.30972
 O67 O -0.13456 1.00038 -0.08012
 O68 O 0.15044 0.99588 -0.06987
 O69 O 0.00852 1.07082 -0.14432
 O70 O 0.01021 0.92039 -0.14165
 O71 O 0.00599 0.85481 -0.07236
 O72 O 0.00444 1.13851 -0.07699
 O73 O 0.08495 0.99243 -0.13958
 O74 O -0.06448 1.00005 -0.14501
 Zr75 Zr 0.00873 0.99651 -0.09769
 O76 O 0.05674 0.94661 -0.04787
 O77 O -0.04277 1.04763 -0.05283
 C78 C -0.11613 1.00164 -0.13060
 C79 C 0.13547 0.99304 -0.12146
 C80 C 0.00459 1.12195 -0.12805
 C81 C 0.00791 0.86969 -0.12388
 H82 H 0.08169 1.07046 -0.07237
 O83 O 0.05735 1.04710 -0.04927
 H84 H -0.06668 0.92477 -0.07537
 O85 O -0.04339 0.94813 -0.05110
 O86 O 0.14560 0.99926 0.07960
 O87 O -0.13957 0.99833 0.07018
 O88 O 0.08098 1.14016 0.00167
 O89 O 0.07886 0.85507 0.00216
 O90 O -0.07130 0.85625 0.00084
 O91 O -0.06852 1.14100 -0.00682
 O92 O 0.00222 1.07602 0.14133
 O93 O -0.00036 0.92614 0.14394
 O94 O 0.00364 1.14166 0.07203
 O95 O -0.00236 0.85787 0.07693
 O96 O 0.14747 1.07193 0.00797
 O97 O -0.13644 1.07378 -0.00650
 O98 O -0.13751 0.92480 -0.00381
 O99 O 0.14654 0.92249 0.00497
 O100 O 0.07574 1.00373 0.14441
 O101 O -0.07357 0.99733 0.13949
 Zr102 Zr 0.10247 0.99751 0.00332
 Zr103 Zr -0.09203 0.99895 -0.00343
 Zr104 Zr 0.00590 1.09527 -0.00167
 Zr105 Zr 0.00419 0.90096 0.00141
 Zr106 Zr 0.00240 1.00001 0.09730
 O107 O -0.04695 0.94940 0.04921
 O108 O 0.05427 1.04904 0.05109
 C109 C 0.12739 1.00292 0.13000
 C110 C -0.12423 0.99663 0.12174
 C111 C 0.13170 1.12316 0.00668
 C112 C 0.13005 0.87144 0.00398
 C113 C -0.12215 0.87345 -0.00215
 C114 C -0.11965 1.12466 -0.00763
 C115 C 0.00206 1.12675 0.12356
 C116 C -0.00359 0.87499 0.12785
 H117 H -0.07030 1.07291 0.07000
 O118 O -0.04586 1.04914 0.04743
 H119 H 0.07563 0.92528 0.07731
 O120 O 0.05312 0.94869 0.05241
 C121 C 0.27931 1.00969 0.31295
 C122 C 0.26876 1.04586 0.35713
 C123 C 0.30484 1.04659 0.40251
 C124 C 0.35130 1.01111 0.40466
 C125 C 0.35971 0.97343 0.36060
 C126 C 0.32467 0.97352 0.31414
 C127 C 0.24153 1.00906 0.26494
 C128 C 0.25231 0.97338 0.22028
 C129 C 0.21593 0.97286 0.17483
 C130 C 0.16823 1.00622 0.17516
 C131 C 0.15808 1.04155 0.22028
 C132 C 0.19490 1.04365 0.26501
 C133 C 0.33388 0.93801 0.26893
 C134 C 0.29860 0.93830 0.22258
 C135 C 0.22220 1.08058 0.35521
 C136 C 0.18567 1.07922 0.31005
 H137 H 0.36882 0.90995 0.26923
 H138 H 0.30731 0.91042 0.18857
 H139 H 0.21365 1.10867 0.38913
 H140 H 0.14990 1.10618 0.31041
 H141 H 0.29731 1.07577 0.43581
 H142 H 0.39278 0.94324 0.36290
 H143 H 0.22357 0.94532 0.14028
 H144 H 0.12154 1.06743 0.22039
 C145 C -0.27776 0.99681 0.30217
 C146 C -0.26949 0.95961 0.34591
 C147 C -0.30383 0.96248 0.39234
 C148 C -0.34635 1.00241 0.39596
 C149 C -0.35325 1.04020 0.35183
 C150 C -0.31958 1.03701 0.30452
 C151 C -0.24077 0.99462 0.25372
 C152 C -0.24846 1.03216 0.20998
 C153 C -0.21189 1.03092 0.16479
 C154 C -0.16716 0.99369 0.16458
 C155 C -0.16047 0.95603 0.20835
 C156 C -0.19737 0.95601 0.25286
 C157 C -0.32619 1.07375 0.25988
 C158 C -0.29146 1.07116 0.21329
 C159 C -0.22651 0.92065 0.34283
 C160 C -0.19087 0.91905 0.29716
 H161 H -0.35835 1.10494 0.26106
 H162 H -0.29779 1.10048 0.17999
 H163 H -0.21985 0.89168 0.37638
 H164 H -0.15764 0.88897 0.29677
 H165 H -0.29775 0.93311 0.42573
 H166 H -0.38352 1.07312 0.35503
 H167 H -0.21656 1.06035 0.13129
 H168 H -0.12599 0.92731 0.20799
 C169 C -0.26833 1.00810 -0.31327
 C170 C -0.25683 1.04271 -0.35834
 C171 C -0.29289 1.04305 -0.40373
 C172 C -0.34034 1.00880 -0.40496
 C173 C -0.35008 0.97302 -0.35974
 C174 C -0.31485 0.97333 -0.31341
 C175 C -0.23036 1.00764 -0.26540
 C176 C -0.24196 0.97334 -0.21996
 C177 C -0.20538 0.97284 -0.17471
 C178 C -0.15682 1.00494 -0.17584
 C179 C -0.14581 1.03899 -0.22167
 C180 C -0.18274 1.04095 -0.26636
 C181 C -0.32491 0.93929 -0.26737
 C182 C -0.28931 0.93959 -0.22127
 C183 C -0.20930 1.07619 -0.35734
 C184 C -0.17270 1.07511 -0.31222
 H185 H -0.36070 0.91229 -0.26688
 H186 H -0.29863 0.91276 -0.18665
 H187 H -0.20004 1.10309 -0.39195
 H188 H -0.13620 1.10113 -0.31329
 H189 H -0.28449 1.07092 -0.43786
 H190 H -0.38428 0.94401 -0.36111
 H191 H -0.21361 0.94626 -0.13960
 H192 H -0.10856 1.06403 -0.22236
 C193 C 0.29005 0.99880 -0.30070
 C194 C 0.28831 0.95688 -0.34097
 C195 C 0.32275 0.96078 -0.38733
 C196 C 0.35783 1.00672 -0.39428
 C197 C 0.35857 1.04888 -0.35397
 C198 C 0.32532 1.04465 -0.30651
 C199 C 0.25300 0.99540 -0.25238
 C200 C 0.25455 1.03733 -0.21203
 C201 C 0.21792 1.03471 -0.16703
 C202 C 0.17895 0.99164 -0.16372
 C203 C 0.17811 0.94984 -0.20418
 C204 C 0.21550 0.95116 -0.24838
 C205 C 0.32591 1.08563 -0.26516
 C206 C 0.29141 1.08184 -0.21853
 C207 C 0.25132 0.91248 -0.33469
 C208 C 0.21524 0.90987 -0.28935
 H209 H 0.35307 1.12108 -0.26900
 H210 H 0.29291 1.11452 -0.18781
 H211 H 0.24961 0.87996 -0.36557
 H212 H 0.18662 0.87547 -0.28655
 H213 H 0.32160 0.92870 -0.41876
 H214 H 0.38464 1.08488 -0.35990
 H215 H 0.21778 1.06735 -0.13618
 H216 H 0.14787 0.91683 -0.20147
 C217 C 0.31209 1.27715 0.01367
 C218 C 0.31421 1.32035 -0.02507
 C219 C 0.36107 1.35454 -0.02662
 C220 C 0.40477 1.34670 0.01128
 C221 C 0.40150 1.30371 0.05039
 C222 C 0.35552 1.26843 0.05140
 C223 C 0.26421 1.23937 0.01371
 C224 C 0.26353 1.19448 0.05055
 C225 C 0.21933 1.15709 0.04853
 C226 C 0.17562 1.16500 0.01082
 C227 C 0.17587 1.21108 -0.02465
 C228 C 0.22071 1.24800 -0.02403
 C229 C 0.35262 1.22391 0.08860
 C230 C 0.30753 1.18734 0.08796
 C231 C 0.26985 1.32784 -0.06203
 C232 C 0.22371 1.29251 -0.06126
 H233 H 0.38589 1.21676 0.11786
 H234 H 0.30728 1.15299 0.11673
 H235 H 0.27092 1.36115 -0.09197
 H236 H 0.19053 1.29955 -0.09065
 H237 H 0.36403 1.38678 -0.05764
 H238 H 0.43529 1.29725 0.07927
 H239 H 0.21891 1.12167 0.07605
 H240 H 0.14241 1.21678 -0.05408
 C241 C 0.31036 0.71721 0.00758
 C242 C 0.31177 0.67356 -0.03083
 C243 C 0.35874 0.63944 -0.03303
 C244 C 0.40325 0.64807 0.00380
 C245 C 0.40059 0.69143 0.04263
 C246 C 0.35455 0.72649 0.04433
 C247 C 0.26240 0.75488 0.00836
 C248 C 0.26248 0.80008 0.04490
 C249 C 0.21828 0.83735 0.04360
 C250 C 0.17376 0.82923 0.00691
 C251 C 0.17318 0.78282 -0.02832
 C252 C 0.21810 0.74585 -0.02840
 C253 C 0.35237 0.77136 0.08126
 C254 C 0.30722 0.80775 0.08130
 C255 C 0.26661 0.66561 -0.06677
 C256 C 0.22042 0.70092 -0.06534
 H257 H 0.38623 0.77892 0.10975
 H258 H 0.30753 0.84240 0.10977
 H259 H 0.26708 0.63197 -0.09646
 H260 H 0.18665 0.69351 -0.09399
 H261 H 0.36113 0.60669 -0.06364
 H262 H 0.43495 0.69837 0.07075
 H263 H 0.21852 0.87295 0.07091
 H264 H 0.13908 0.77689 -0.05697
 C265 C -0.30323 0.71968 -0.01380
 C266 C -0.34959 0.73334 -0.04602
 C267 C -0.39519 0.69769 -0.04678
 C268 C -0.39569 0.64875 -0.01477
 C269 C -0.34869 0.63639 0.01809
 C270 C -0.30209 0.67115 0.01791
 C271 C -0.25552 0.75771 -0.01219
 C272 C -0.20883 0.74416 0.01984
 C273 C -0.16390 0.78114 0.02178
 C274 C -0.16679 0.83202 -0.00639
 C275 C -0.21384 0.84458 -0.03842
 C276 C -0.25803 0.80745 -0.04192
 C277 C -0.25471 0.65890 0.04952
 C278 C -0.20869 0.69452 0.05006
 C279 C -0.34989 0.78288 -0.07632
 C280 C -0.30499 0.81952 -0.07399
 H281 H -0.25318 0.62146 0.07408
 H282 H -0.17304 0.68346 0.07493
 H283 H -0.38547 0.79384 -0.10136
 H284 H -0.30721 0.85776 -0.09722
 H285 H -0.43026 0.70794 -0.07289
 H286 H -0.34904 0.60090 0.04545
 H287 H -0.12772 0.77124 0.04636
 H288 H -0.21601 0.88339 -0.06070
 C289 C -0.29939 1.27855 -0.00526
 C290 C -0.31337 1.30747 -0.05377
 C291 C -0.36038 1.34160 -0.05383
 C292 C -0.39244 1.34725 -0.00558
 C293 C -0.37764 1.31829 0.04265
 C294 C -0.33126 1.28369 0.04304
 C295 C -0.25129 1.24111 -0.00540
 C296 C -0.23865 1.21079 0.04259
 C297 C -0.19433 1.17360 0.04160
 C298 C -0.16278 1.16702 -0.00667
 C299 C -0.17508 1.19811 -0.05421
 C300 C -0.21974 1.23523 -0.05390
 C301 C -0.31667 1.25344 0.09049
 C302 C -0.27118 1.21746 0.09022
 C303 C -0.28049 1.30099 -0.10128
 C304 C -0.23438 1.26559 -0.10131
 H305 H -0.34099 1.25713 0.12795
 H306 H -0.26168 1.19435 0.12746
 H307 H -0.29070 1.32317 -0.13888
 H308 H -0.21037 1.26146 -0.13893
 H309 H -0.37243 1.36333 -0.09120
 H310 H -0.40283 1.32231 0.07955
 H311 H -0.18463 1.14922 0.07802
 H312 H -0.15128 1.19193 -0.09166
 C313 C -0.01341 1.30897 0.27575
 C314 C 0.01760 1.30866 0.32492
 C315 C 0.01601 1.35513 0.35992
 C316 C -0.01778 1.40118 0.34700
 C317 C -0.04874 1.40000 0.29722
 C318 C -0.04643 1.35447 0.26150
 C319 C -0.01057 1.26113 0.23789
 C320 C -0.04008 1.26258 0.18779
 C321 C -0.03574 1.21806 0.15104
 C322 C -0.00300 1.17183 0.16437
 C323 C 0.02504 1.17005 0.21549
 C324 C 0.02214 1.21523 0.25211
 C325 C -0.07629 1.35383 0.21153
 C326 C -0.07294 1.30875 0.17513
 C327 C 0.05003 1.26210 0.33774
 C328 C 0.05192 1.21602 0.30217
 H329 H -0.10198 1.38875 0.20017
 H330 H -0.09611 1.31013 0.13669
 H331 H 0.07410 1.26121 0.37562
 H332 H 0.07738 1.18102 0.31369
 H333 H 0.04239 1.35603 0.39626
 H334 H -0.07564 1.43427 0.28655
 H335 H -0.05807 1.21920 0.11203
 H336 H 0.05017 1.13450 0.22587
 C337 C -0.01580 1.30203 -0.28168
 C338 C 0.01613 1.30291 -0.33011
 C339 C 0.01440 1.34987 -0.36439
 C340 C -0.01998 1.39541 -0.35112
 C341 C -0.05220 1.39279 -0.30239
 C342 C -0.04999 1.34672 -0.26756
 C343 C -0.01218 1.25413 -0.24408
 C344 C -0.04224 1.25482 -0.19445
 C345 C -0.03649 1.21088 -0.15746
 C346 C -0.00199 1.16574 -0.16998
 C347 C 0.02658 1.16447 -0.22072
 C348 C 0.02233 1.20933 -0.25766
 C349 C -0.08071 1.34501 -0.21830
 C350 C -0.07669 1.29991 -0.18218
 C351 C 0.04998 1.25724 -0.34258
 C352 C 0.05276 1.21112 -0.30718
 H353 H -0.10739 1.37924 -0.20711
 H354 H -0.10035 1.30056 -0.14411
 H355 H 0.07477 1.25724 -0.37991
 H356 H 0.07961 1.17700 -0.31825
 H357 H 0.04148 1.35180 -0.40005
 H358 H -0.07950 1.42672 -0.29161
 H359 H -0.05861 1.21197 -0.11850
 H360 H 0.05347 1.12990 -0.23031
 C361 C -0.00734 0.68705 -0.27569
 C362 C -0.04368 0.64356 -0.26332
 C363 C -0.04674 0.59807 -0.29899
 C364 C -0.01351 0.59499 -0.34702
 C365 C 0.02373 0.63886 -0.35799
 C366 C 0.02631 0.68530 -0.32292
 C367 C -0.00396 0.73496 -0.23792
 C368 C 0.03210 0.77890 -0.25019
 C369 C 0.03519 0.82429 -0.21370
 C370 C 0.00371 0.82455 -0.16471
 C371 C -0.03215 0.78016 -0.15331
 C372 C -0.03650 0.73554 -0.18987
 C373 C 0.06217 0.72985 -0.33375
 C374 C 0.06476 0.77598 -0.29822
 C375 C -0.07621 0.64617 -0.21527
 C376 C -0.07250 0.69131 -0.17901
 H377 H 0.08838 0.72911 -0.37008
 H378 H 0.09292 0.80939 -0.30818
 H379 H -0.10443 0.61280 -0.20536
 H380 H -0.09793 0.69152 -0.14210
 H381 H -0.07597 0.56531 -0.28979
 H382 H 0.05175 0.63625 -0.39288
 H383 H 0.06293 0.85839 -0.22246
 H384 H -0.05699 0.78059 -0.11594
 C385 C -0.01728 0.69617 0.28255
 C386 C -0.05966 0.65686 0.27636
 C387 C -0.06038 0.61053 0.31105
 C388 C -0.01866 0.60281 0.35103
 C389 C 0.02374 0.64245 0.35660
 C390 C 0.02425 0.68965 0.32280
 C391 C -0.01548 0.74419 0.24505
 C392 C 0.02707 0.78346 0.25086
 C393 C 0.02951 0.82815 0.21382
 C394 C -0.00919 0.83222 0.17047
 C395 C -0.05183 0.79301 0.16560
 C396 C -0.05548 0.74907 0.20306
 C397 C 0.06589 0.73000 0.32769
 C398 C 0.06710 0.77627 0.29254
 C399 C -0.09981 0.66404 0.23485
 C400 C -0.09761 0.70929 0.19864
 H401 H 0.09804 0.72558 0.35870
 H402 H 0.10016 0.80617 0.29743
 H403 H -0.13271 0.63399 0.22976
 H404 H -0.12887 0.71291 0.16663
 H405 H -0.09276 0.57978 0.30641
 H406 H 0.05648 0.63603 0.38668
 H407 H 0.06261 0.85827 0.21712
 H408 H -0.08180 0.79666 0.13237
   
