data_POSCAR
  _audit_creation_date              2014-09-24
  _audit_creation_method            'ToBaCCo'
  _symmetry_space_group_name_H-M    'P1'
  _symmetry_Int_Tables_number       1
  _symmetry_cell_setting            triclinic
  loop_
  _symmetry_equiv_pos_as_xyz
 x,y,z
_cell_length_a 20.1090
_cell_length_b 20.0532
_cell_length_c 20.0486
_cell_angle_alpha 89.948700
_cell_angle_beta 90.202000
_cell_angle_gamma 89.976100
loop_
  _atom_site_label
  _atom_site_type_symbol
  _atom_site_fract_x
  _atom_site_fract_y
  _atom_site_fract_z
O1 O 0.59497 0.16803 0.01390
 O2 O 0.66959 0.08179 0.00702
 C3 C 0.65512 0.14444 0.01368
 O4 O 0.41133 -0.01276 0.16951
 O5 O 0.33636 -0.00548 0.08335
 C6 C 0.35106 -0.01173 0.14615
 O7 O 0.59698 -0.00107 0.16880
 O8 O 0.67097 -0.00166 0.08219
 C9 C 0.65731 -0.00104 0.14552
 O10 O 0.40963 0.16780 -0.00252
 O11 O 0.33561 0.08092 0.00091
 C12 C 0.34966 0.14389 -0.00356
 Zr13 Zr 0.50224 0.11893 0.00606
 O14 O 0.49241 0.18873 0.08465
 O15 O 0.51052 0.19822 -0.06307
 Zr16 Zr 0.50346 -0.00294 0.12049
 O17 O 0.49530 0.07180 0.19462
 O18 O 0.51177 -0.07652 0.19574
 O19 O 0.56275 0.06697 0.07261
 O20 O 0.44408 0.06620 0.07228
 O21 O 0.40884 0.00563 -0.16523
 O22 O 0.33492 0.00189 -0.07839
 C23 C 0.34890 0.00286 -0.14150
 O24 O 0.59529 -0.16673 -0.00961
 O25 O 0.67008 -0.08080 -0.00213
 C26 C 0.65543 -0.14357 -0.00858
 O27 O 0.41037 -0.16721 -0.00136
 O28 O 0.33568 -0.08080 -0.00049
 C29 C 0.35016 -0.14381 -0.00158
 O30 O 0.59419 0.00314 -0.16626
 O31 O 0.66957 0.00316 -0.08019
 C32 C 0.65451 0.00389 -0.14326
 Zr33 Zr 0.50221 0.00426 -0.11654
 O34 O 0.49623 -0.06641 -0.19475
 O35 O 0.50736 0.08298 -0.18687
 Zr36 Zr 0.50323 -0.11796 -0.00118
 O37 O 0.49635 -0.19367 -0.07431
 O38 O 0.51117 -0.19174 0.07418
 Zr39 Zr 0.60303 0.00071 0.00147
 Zr40 Zr 0.40283 -0.00006 0.00216
 O41 O 0.44522 -0.06572 -0.06784
 O42 O 0.56225 -0.06590 -0.06898
 O43 O 0.44267 0.07084 -0.06447
 O44 O 0.56165 -0.06931 0.06783
 O45 O 0.56029 0.07105 -0.06384
 O46 O 0.44380 -0.07056 0.06883
 H47 H 0.41322 0.09265 0.10019
 H48 H 0.59167 -0.09814 0.09453
 H49 H 0.41653 -0.09356 -0.09687
 H50 H 0.58989 0.10032 -0.09029
 H51 H 0.48234 -0.11382 0.18274
 H52 H 0.46924 -0.19163 0.09986
 H53 H 0.52597 -0.18075 -0.11138
 H54 H 0.53288 -0.09872 -0.18835
 H55 H 0.46581 0.10920 -0.18348
 H56 H 0.48196 0.18694 -0.10166
 H57 H 0.53106 0.18306 0.11477
 H58 H 0.53598 0.09944 0.19279
 O59 O -0.00392 0.40304 -0.16558
 O60 O -0.00183 0.32997 -0.07760
 C61 C -0.00289 0.34320 -0.14099
 O62 O 0.16912 0.59225 -0.00785
 O63 O 0.08280 0.66692 -0.00591
 C64 C 0.14573 0.65251 -0.00729
 O65 O 0.16881 0.40661 -0.01371
 O66 O 0.08329 0.33198 -0.00174
 C67 C 0.14561 0.34634 -0.01025
 O68 O -0.01485 0.58890 -0.16899
 O69 O -0.00316 0.66551 -0.08518
 C70 C -0.01199 0.65000 -0.14757
 Zr71 Zr -0.00473 0.49692 -0.11864
 O72 O 0.06640 0.50376 -0.19602
 O73 O -0.08147 0.48707 -0.19054
 Zr74 Zr 0.12002 0.49953 -0.00717
 O75 O 0.19020 0.50593 -0.08540
 O76 O 0.19824 0.49329 0.06359
 O77 O 0.06658 0.43812 -0.07154
 O78 O 0.06563 0.55650 -0.07345
 O79 O -0.16499 0.59183 -0.00314
 O80 O -0.07911 0.66688 -0.00500
 C81 C -0.14183 0.65213 -0.00720
 O82 O 0.00978 0.40974 0.16936
 O83 O 0.00603 0.33356 0.08409
 C84 C 0.00895 0.34900 0.14684
 O85 O 0.01672 0.59606 0.16576
 O86 O 0.00630 0.66823 0.07714
 C87 C 0.01295 0.65541 0.14028
 O88 O -0.16418 0.40649 0.01637
 O89 O -0.07816 0.33184 0.00825
 C90 C -0.14063 0.34627 0.01580
 Zr91 Zr -0.11582 0.49933 0.00701
 O92 O -0.18237 0.51051 0.08793
 O93 O -0.19783 0.48898 -0.05852
 Zr94 Zr 0.00887 0.50218 0.11832
 O95 O -0.06319 0.51091 0.19463
 O96 O 0.08608 0.49699 0.19016
 Zr97 Zr 0.00246 0.39919 0.00190
 Zr98 Zr 0.00177 0.59979 -0.00267
 O99 O -0.06195 0.55974 0.07017
 O100 O -0.06186 0.44082 0.07376
 O101 O -0.07041 0.55708 -0.06625
 O102 O 0.07400 0.44296 0.06510
 O103 O -0.06952 0.43994 -0.06288
 O104 O 0.07423 0.56079 0.06301
 H105 H 0.09140 0.58601 -0.10343
 H106 H 0.10378 0.41380 0.09170
 H107 H -0.08839 0.59096 0.09774
 H108 H -0.09910 0.40972 -0.08841
 H109 H 0.19421 0.53198 0.09386
 H110 H 0.11936 0.53126 0.17834
 H111 H -0.09124 0.47042 0.19334
 H112 H -0.17735 0.47101 0.11710
 H113 H -0.18825 0.51629 -0.09839
 H114 H -0.11449 0.52257 -0.18196
 H115 H 0.09572 0.46426 -0.19276
 H116 H 0.18042 0.46953 -0.11718
 O117 O -0.16640 -0.00256 0.59072
 O118 O -0.08090 -0.00436 0.66675
 C119 C -0.14362 -0.00245 0.65137
 O120 O 0.00687 -0.17042 0.40422
 O121 O 0.00134 -0.08182 0.33161
 C122 C 0.00591 -0.14490 0.34466
 O123 O -0.00939 -0.17292 0.59080
 O124 O -0.00286 -0.08767 0.66675
 C125 C -0.00904 -0.15028 0.65148
 O126 O -0.16405 0.00470 0.40509
 O127 O -0.07726 0.00228 0.33122
 C128 C -0.14034 0.00422 0.34500
 Zr129 Zr -0.11621 -0.00130 0.49847
 O130 O -0.19074 -0.07546 0.48994
 O131 O -0.19009 0.07370 0.50434
 Zr132 Zr -0.00130 -0.12284 0.49842
 O133 O -0.07805 -0.19425 0.48712
 O134 O 0.06948 -0.20054 0.50744
 O135 O -0.06910 -0.07192 0.55825
 O136 O -0.06693 -0.06966 0.43984
 O137 O 0.00501 0.16537 0.40992
 O138 O 0.00578 0.07992 0.33393
 C139 C 0.00651 0.14285 0.34933
 O140 O 0.16796 -0.00720 0.59567
 O141 O 0.08090 -0.00829 0.66927
 C142 C 0.14400 -0.00845 0.65562
 O143 O 0.16985 -0.01454 0.40994
 O144 O 0.08461 -0.00678 0.33411
 C145 C 0.14709 -0.01294 0.34931
 O146 O 0.00722 0.16190 0.59550
 O147 O 0.00200 0.07457 0.66925
 C148 C 0.00446 0.13781 0.65552
 Zr149 Zr 0.00544 0.11433 0.50183
 O150 O 0.08332 0.18530 0.49780
 O151 O -0.06579 0.19185 0.50783
 Zr152 Zr 0.12003 -0.00716 0.50212
 O153 O 0.19438 0.06742 0.49642
 O154 O 0.19439 -0.08153 0.50999
 Zr155 Zr 0.00064 -0.00550 0.60065
 Zr156 Zr 0.00294 -0.00247 0.39996
 O157 O 0.07245 0.06275 0.44374
 O158 O 0.07155 0.06187 0.56247
 O159 O -0.06408 0.06732 0.44040
 O160 O 0.06704 -0.07488 0.55847
 O161 O -0.06469 0.06483 0.55791
 O162 O 0.06912 -0.07358 0.44073
 H163 H -0.09469 -0.09656 0.40904
 H164 H 0.09354 -0.10426 0.58814
 H165 H 0.10169 0.08963 0.41451
 H166 H -0.09247 0.09350 0.58683
 H167 H 0.10387 -0.19305 0.47312
 H168 H 0.18474 -0.11571 0.47581
 H169 H 0.19048 0.09573 0.53659
 H170 H 0.11145 0.17903 0.53790
 H171 H -0.09817 0.18510 0.47121
 H172 H -0.18044 0.10702 0.46930
 H173 H -0.18788 -0.10426 0.52993
 H174 H -0.10982 -0.18759 0.52406
 C175 C -0.22360 0.17638 0.01021
 C176 C -0.29012 0.19249 0.02339
 C177 C -0.30350 0.25713 0.04741
 C178 C -0.25365 0.30602 0.04837
 C179 C -0.18904 0.29171 0.02517
 C180 C -0.17418 0.22493 0.01096
 C181 C -0.13931 0.19464 -0.04717
 C182 C -0.19338 0.14152 -0.04803
 H183 H -0.35330 0.27116 0.06228
 H184 H -0.26695 0.35600 0.06383
 H185 H -0.08966 0.17462 -0.03310
 H186 H -0.13994 0.22743 -0.09194
 H187 H -0.17468 0.09110 -0.03455
 H188 H -0.22546 0.14340 -0.09331
 C189 C 0.31114 0.73968 -0.01582
 C190 C 0.29575 0.80700 -0.00675
 C191 C 0.22772 0.82493 -0.00689
 C192 C 0.17774 0.77521 -0.00852
 C193 C 0.19512 0.70694 -0.01038
 C194 C 0.26248 0.69128 -0.01754
 C195 C 0.30497 0.64230 0.01926
 C196 C 0.35855 0.69562 0.02109
 H197 H 0.21315 0.87678 -0.00317
 H198 H 0.12608 0.79010 -0.00567
 H199 H 0.31844 0.59873 -0.01216
 H200 H 0.28500 0.62980 0.06940
 H201 H 0.40285 0.68279 -0.00934
 H202 H 0.36962 0.71400 0.07226
 C203 C 0.22834 0.17637 0.00021
 C204 C 0.29491 0.19201 -0.01330
 C205 C 0.30849 0.25614 -0.03862
 C206 C 0.25881 0.30516 -0.04081
 C207 C 0.19412 0.29154 -0.01757
 C208 C 0.17904 0.22513 -0.00171
 C209 C 0.14421 0.19645 0.05734
 C210 C 0.19805 0.14306 0.05937
 H211 H 0.35831 0.26965 -0.05388
 H212 H 0.27229 0.35472 -0.05747
 H213 H 0.09432 0.17646 0.04414
 H214 H 0.14517 0.23030 0.10125
 H215 H 0.17907 0.09245 0.04716
 H216 H 0.23024 0.14576 0.10450
 C217 C -0.22312 0.82302 -0.01442
 C218 C -0.29086 0.80675 -0.01663
 C219 C -0.30718 0.73948 -0.02932
 C220 C -0.25809 0.68996 -0.02921
 C221 C -0.19089 0.70611 -0.01725
 C222 C -0.17410 0.77409 -0.01647
 C223 C -0.12908 0.81295 0.02815
 C224 C -0.18395 0.86511 0.03281
 H225 H -0.35840 0.72405 -0.03572
 H226 H -0.27366 0.63861 -0.03511
 H227 H -0.08438 0.83114 0.00121
 H228 H -0.11823 0.78731 0.07575
 H229 H -0.16962 0.91393 0.01118
 H230 H -0.20705 0.86773 0.08306
 C231 C -0.04186 -0.24849 0.19577
 C232 C 0.01462 -0.28818 0.18649
 C233 C 0.07143 -0.27512 0.22546
 C234 C 0.06951 -0.22647 0.27596
 C235 C 0.01079 -0.19032 0.28790
 C236 C -0.04337 -0.19957 0.24504
 C237 C -0.11329 -0.21570 0.26370
 C238 C -0.11122 -0.27042 0.21161
 H239 H 0.11615 -0.30446 0.21877
 H240 H 0.11281 -0.21895 0.30735
 H241 H -0.14804 -0.17450 0.25070
 H242 H -0.11780 -0.23484 0.31557
 H243 H -0.14715 -0.26227 0.17036
 H244 H -0.11282 -0.32139 0.23350
 C245 C -0.00863 0.30333 0.74221
 C246 C -0.00480 0.28808 0.81013
 C247 C -0.00526 0.21986 0.82811
 C248 C -0.00343 0.16966 0.77837
 C249 C 0.00004 0.18709 0.71010
 C250 C -0.00620 0.25459 0.69394
 C251 C 0.03384 0.29714 0.64795
 C252 C 0.03125 0.35089 0.70116
 H253 H -0.00474 0.20537 0.88011
 H254 H -0.00250 0.11781 0.79337
 H255 H 0.00581 0.31053 0.60196
 H256 H 0.08472 0.27714 0.63955
 H257 H 0.00180 0.39528 0.68579
 H258 H 0.08066 0.36203 0.72361
 C259 C 0.00430 0.22748 0.17957
 C260 C 0.01442 0.29464 0.19635
 C261 C 0.03239 0.30897 0.26279
 C262 C 0.03171 0.25898 0.31170
 C263 C 0.01306 0.19305 0.29574
 C264 C 0.00377 0.17775 0.22815
 C265 C -0.05156 0.14120 0.19446
 C266 C -0.05105 0.19558 0.14147
 H267 H 0.04447 0.35939 0.27786
 H268 H 0.04338 0.27287 0.36260
 H269 H -0.09788 0.14033 0.22461
 H270 H -0.03528 0.09187 0.17524
 H271 H -0.09702 0.22643 0.14100
 H272 H -0.03466 0.17748 0.09179
 C273 C -0.01162 -0.23279 0.82266
 C274 C -0.01903 -0.30078 0.80672
 C275 C -0.03471 -0.31582 0.73940
 C276 C -0.03426 -0.26626 0.69002
 C277 C -0.01755 -0.19984 0.70559
 C278 C -0.01063 -0.18373 0.77330
 C279 C 0.04203 -0.14465 0.80829
 C280 C 0.04113 -0.19806 0.86223
 H281 H -0.04490 -0.36648 0.72362
 H282 H -0.04393 -0.28104 0.63896
 H283 H 0.02352 -0.09552 0.82587
 H284 H 0.08948 -0.14287 0.77999
 H285 H 0.02209 -0.17959 0.91081
 H286 H 0.08809 -0.22723 0.86523
 C287 C 0.22719 0.00326 0.82599
 C288 C 0.29445 -0.00502 0.80956
 C289 C 0.30918 -0.02665 0.74443
 C290 C 0.25937 -0.03072 0.69571
 C291 C 0.19313 -0.01307 0.71038
 C292 C 0.17755 -0.00051 0.77736
 C293 C 0.13905 0.05521 0.80785
 C294 C 0.19328 0.05946 0.86085
 H295 H 0.35974 -0.03830 0.73010
 H296 H 0.27368 -0.04485 0.64565
 H297 H 0.09056 0.03798 0.82794
 H298 H 0.13645 0.09995 0.77512
 H299 H 0.17584 0.04497 0.91138
 H300 H 0.22228 0.10664 0.85885
 C301 C -0.30666 -0.00343 0.25894
 C302 C -0.29246 -0.00219 0.19052
 C303 C -0.22417 -0.00471 0.17263
 C304 C -0.17358 -0.00306 0.22217
 C305 C -0.19010 0.00194 0.29044
 C306 C -0.25743 -0.00163 0.30687
 C307 C -0.29797 0.04073 0.35252
 C308 C -0.35226 0.03894 0.29974
 H309 H -0.20950 -0.00624 0.12072
 H310 H -0.12200 -0.00399 0.20694
 H311 H -0.27626 0.09119 0.35997
 H312 H -0.31165 0.01390 0.39903
 H313 H -0.36200 0.08840 0.27655
 H314 H -0.39729 0.01123 0.31592
 C315 C 0.31167 -0.03153 0.26208
 C316 C 0.29670 -0.01919 0.19502
 C317 C 0.22874 -0.01530 0.17714
 C318 C 0.17888 -0.01549 0.22682
 C319 C 0.19626 -0.01965 0.29509
 C320 C 0.26305 -0.03178 0.31052
 C321 C 0.30786 0.00010 0.36080
 C322 C 0.36135 0.00038 0.30750
 H323 H 0.21426 -0.00883 0.12547
 H324 H 0.12745 -0.00911 0.21196
 H325 H 0.31935 -0.03387 0.40315
 H326 H 0.29114 0.05094 0.37522
 H327 H 0.40367 -0.03341 0.31916
 H328 H 0.37558 0.05140 0.29109
 C329 C -0.22432 0.00277 0.82252
 C330 C -0.29199 0.00876 0.80654
 C331 C -0.30838 0.02164 0.73925
 C332 C -0.25978 0.01945 0.68946
 C333 C -0.19308 0.00439 0.70523
 C334 C -0.17596 0.00064 0.77296
 C335 C -0.13613 -0.05042 0.80962
 C336 C -0.18887 -0.04797 0.86377
 H337 H -0.35936 0.03071 0.72422
 H338 H -0.27531 0.02713 0.63825
 H339 H -0.08722 -0.03056 0.82621
 H340 H -0.13414 -0.09901 0.78302
 H341 H -0.17017 -0.02632 0.91117
 H342 H -0.21744 -0.09515 0.86871
   
