data_POSCAR
  _audit_creation_date              2014-09-24
  _audit_creation_method            'ToBaCCo'
  _symmetry_space_group_name_H-M    'P1'
  _symmetry_Int_Tables_number       1
  _symmetry_cell_setting            triclinic
  loop_
  _symmetry_equiv_pos_as_xyz
 x,y,z
_cell_length_a 40.7120
_cell_length_b 41.0641
_cell_length_c 38.8224
_cell_angle_alpha 89.095500
_cell_angle_beta 90.120900
_cell_angle_gamma 90.230700
loop_
  _atom_site_label
  _atom_site_type_symbol
  _atom_site_fract_x
  _atom_site_fract_y
  _atom_site_fract_z
C1 C 0.19909 0.19527 0.24758
 C2 C 0.18718 0.22585 0.23601
 C3 C 0.20245 0.24293 0.20861
 C4 C 0.23024 0.22938 0.19284
 C5 C 0.24188 0.19843 0.20269
 C6 C 0.22716 0.18281 0.23123
 H7 H 0.16466 0.23550 0.24635
 H8 H 0.24130 0.24221 0.17126
 H9 H 0.23883 0.16120 0.24162
 C10 C -0.19760 0.81789 0.20373
 C11 C -0.22937 0.82361 0.19021
 C12 C -0.24041 0.80808 0.16024
 C13 C -0.21971 0.78567 0.14420
 C14 C -0.18804 0.77956 0.15688
 C15 C -0.17720 0.79573 0.18643
 H16 H -0.24481 0.84202 0.20139
 H17 H -0.22799 0.77338 0.12126
 H18 H -0.15324 0.78961 0.19670
 C19 C -0.19162 0.18628 -0.21039
 C20 C -0.22360 0.17990 -0.19783
 C21 C -0.23559 0.19502 -0.16818
 C22 C -0.21539 0.21719 -0.15089
 C23 C -0.18381 0.22445 -0.16310
 C24 C -0.17202 0.20901 -0.19259
 H25 H -0.23865 0.16135 -0.20959
 H26 H -0.22440 0.22940 -0.12827
 H27 H -0.14778 0.21554 -0.20188
 C28 C 0.21572 0.78722 -0.26486
 C29 C 0.20231 0.75667 -0.25468
 C30 C 0.21681 0.73756 -0.22839
 C31 C 0.24567 0.74886 -0.21265
 C32 C 0.25891 0.77945 -0.22120
 C33 C 0.24419 0.79813 -0.24754
 H34 H 0.18051 0.74743 -0.26709
 H35 H 0.25761 0.73409 -0.19301
 H36 H 0.25358 0.82245 -0.25231
 C37 C 0.16817 1.19785 0.76086
 C38 C 0.19471 1.18067 0.77566
 C39 C 0.21566 1.19530 0.79969
 C40 C 0.21126 1.22818 0.80767
 C41 C 0.18503 1.24601 0.79330
 C42 C 0.16341 1.23044 0.77045
 H43 H 0.19824 1.15517 0.77008
 H44 H 0.22774 1.23954 0.82586
 H45 H 0.14312 1.24413 0.75962
 C46 C 0.80226 0.79838 0.77091
 C47 C 0.77826 0.81761 0.78691
 C48 C 0.77025 0.81294 0.82164
 C49 C 0.78630 0.78896 0.84121
 C50 C 0.81040 0.76911 0.82635
 C51 C 0.81762 0.77375 0.79098
 H52 H 0.76656 0.83756 0.77317
 H53 H 0.77935 0.78562 0.86796
 H54 H 0.83594 0.75860 0.77926
 C55 C 0.19216 0.80538 1.25499
 C56 C 0.18176 0.77436 1.24406
 C57 C 0.20010 0.75644 1.22041
 C58 C 0.22928 0.76996 1.20722
 C59 C 0.23962 0.80137 1.21626
 C60 C 0.22141 0.81850 1.24082
 H61 H 0.15949 0.76366 1.25434
 H62 H 0.24390 0.75606 1.18946
 H63 H 0.22875 0.84314 1.24677
 C64 C 0.80659 1.20785 1.23789
 C65 C 0.78197 1.18767 1.22396
 C66 C 0.77059 1.19240 1.19021
 C67 C 0.78384 1.21746 1.16966
 C68 C 0.80822 1.23839 1.18261
 C69 C 0.81876 1.23365 1.21702
 H70 H 0.77244 1.16700 1.23844
 H71 H 0.77458 1.22074 1.14367
 H72 H 0.83734 1.24961 1.22729
 O73 O 0.51976 0.97039 0.93677
 O74 O 0.45535 0.98958 1.06902
 O75 O 0.53815 0.96146 1.01560
 O76 O 0.43678 0.95284 0.97068
 O77 O 0.51420 0.97343 1.06281
 O78 O 0.46026 0.97457 0.92627
 O79 O 0.44501 0.95644 1.03035
 O80 O 0.55797 0.99341 0.96516
 C81 C 0.54943 0.97258 0.94394
 C82 C 0.44386 0.96284 1.06100
 C83 C 0.53136 0.95397 1.04585
 C84 C 0.44260 0.95279 0.93936
 O85 O 0.46073 1.03686 0.93192
 O86 O 0.52770 1.03750 1.04981
 O87 O 0.53533 1.04688 0.99023
 O88 O 0.42498 1.02160 1.02743
 O89 O 0.46853 1.04782 1.04490
 O90 O 0.52279 1.03654 0.93771
 O91 O 0.42091 1.01601 0.96431
 O92 O 0.57042 1.01266 1.02873
 Co93 Co 0.49103 1.00437 0.93898
 Co94 Co 0.49123 1.01054 1.05056
 Co95 Co 0.53452 1.00379 1.00332
 Co96 Co 0.43633 0.98796 0.99857
 O97 O 0.48627 1.00056 0.99491
 C98 C 0.43100 1.03594 0.94116
 C99 C 0.55826 1.03135 1.05249
 C100 C 0.53591 1.05504 0.95929
 C101 C 0.43816 1.04693 1.03976
 O102 O 0.03544 0.48076 0.07602
 O103 O 0.03603 0.53176 -0.07228
 O104 O 0.06906 0.45863 -0.02579
 O105 O 0.06989 0.54664 0.02872
 O106 O 0.03788 0.47270 -0.06874
 O107 O 0.03465 0.54104 0.06887
 O108 O 0.06997 0.53877 -0.03181
 O109 O 0.06320 0.45213 0.03898
 C110 C 0.05827 0.46120 0.06907
 C111 C 0.06447 0.53904 -0.06303
 C112 C 0.06503 0.46216 -0.05741
 C113 C 0.06320 0.54848 0.05962
 O114 O -0.02626 0.53761 0.04269
 O115 O -0.02553 0.47281 -0.04429
 O116 O 0.00071 0.43712 0.03108
 O117 O 0.00966 0.56879 -0.03652
 O118 O -0.02499 0.53055 -0.04405
 O119 O -0.02571 0.47667 0.05659
 O120 O 0.00901 0.57355 0.02509
 O121 O 0.00849 0.43562 -0.03212
 Co122 Co 0.00595 0.50887 0.05507
 Co123 Co 0.00727 0.50207 -0.05248
 Co124 Co 0.03410 0.45159 0.00257
 Co125 Co 0.03810 0.55255 -0.00349
 O126 O 0.02110 0.50350 0.00093
 C127 C -0.01948 0.56649 0.03550
 C128 C -0.01951 0.44348 -0.04197
 C129 C -0.02278 0.44719 0.04936
 C130 C -0.01894 0.56003 -0.04397
 O131 O 1.05011 0.01247 0.46765
 O132 O 0.91702 0.02407 0.53638
 O133 O 0.95622 0.05303 0.45994
 O134 O 1.00583 0.01207 0.56891
 O135 O 0.91144 0.02829 0.47206
 O136 O 1.02872 0.03273 0.52417
 O137 O 0.94787 -0.00329 0.57259
 O138 O 1.01186 0.04538 0.46359
 C139 C 1.04073 0.03926 0.45660
 C140 C 0.92739 0.01913 0.56638
 C141 C 0.92594 0.05316 0.46136
 C142 C 1.02252 0.03444 0.55527
 O143 O 1.06156 -0.01984 0.52529
 O144 O 0.91630 -0.03400 0.46673
 O145 O 1.00592 -0.01635 0.43433
 O146 O 0.96256 -0.06056 0.54197
 O147 O 0.91548 -0.03937 0.53203
 O148 O 1.02529 -0.04330 0.47865
 O149 O 1.01882 -0.04739 0.54076
 O150 O 0.94677 -0.00595 0.43018
 Co151 Co 1.02508 -0.00562 0.50257
 Co152 Co 0.92085 -0.00505 0.50182
 Co153 Co 0.98009 0.01723 0.45105
 Co154 Co 0.98316 -0.02279 0.55145
 O155 O 0.97504 -0.00286 0.50045
 C156 C 1.04905 -0.04188 0.54566
 C157 C 0.92581 -0.02818 0.43645
 C158 C 1.02017 -0.04136 0.44685
 C159 C 0.93229 -0.06305 0.54218
 C160 C 1.18630 0.14217 0.27530
 C161 C 1.17101 0.12349 0.30088
 C162 C 1.15120 0.13805 0.32535
 C163 C 1.14682 0.17196 0.32415
 C164 C 1.16247 0.19098 0.29867
 C165 C 1.18284 0.17650 0.27373
 N166 N 1.13531 0.11747 0.35034
 N167 N 1.11371 0.12769 0.37112
 C168 C 1.09766 0.10597 0.39500
 C169 C 1.06940 0.11650 0.41179
 C170 C 1.05136 0.09493 0.43258
 C171 C 1.06169 0.06253 0.43737
 C172 C 1.09087 0.05233 0.42179
 C173 C 1.10865 0.07383 0.40053
 H174 H 1.19965 0.12899 0.25598
 H175 H 1.17404 0.09729 0.30117
 H176 H 1.13155 0.18375 0.34299
 H177 H 1.15929 0.21708 0.29955
 H178 H 1.06070 0.14116 0.40779
 H179 H 1.02896 0.10342 0.44441
 H180 H 1.09927 0.02748 0.42504
 H181 H 1.13058 0.06517 0.38795
 C182 C 0.79177 -0.15509 0.25909
 C183 C 0.80312 -0.13861 0.28810
 C184 C 0.83648 -0.13136 0.29192
 C185 C 0.85864 -0.14147 0.26666
 C186 C 0.84754 -0.15851 0.23799
 C187 C 0.81378 -0.16548 0.23337
 N188 N 0.84730 -0.11355 0.32138
 N189 N 0.87559 -0.10026 0.32230
 C190 C 0.88735 -0.08257 0.35138
 C191 C 0.91505 -0.06268 0.34723
 C192 C 0.92721 -0.04478 0.37478
 C193 C 0.91235 -0.04709 0.40740
 C194 C 0.88469 -0.06740 0.41168
 C195 C 0.87209 -0.08481 0.38379
 H196 H 0.76581 -0.16064 0.25769
 H197 H 0.78578 -0.13119 0.30755
 H198 H 0.88461 -0.13613 0.26900
 H199 H 0.86554 -0.16475 0.21875
 H200 H 0.92703 -0.06077 0.32240
 H201 H 0.94839 -0.02922 0.37051
 H202 H 0.87264 -0.06961 0.43645
 H203 H 0.85072 -0.10021 0.38761
 C204 C 0.79906 0.15850 0.73449
 C205 C 0.81075 0.14062 0.70678
 C206 C 0.84395 0.13258 0.70456
 C207 C 0.86579 0.14378 0.72980
 C208 C 0.85434 0.16236 0.75720
 C209 C 0.82055 0.16950 0.76054
 N210 N 0.85468 0.11279 0.67668
 N211 N 0.88236 0.09849 0.67697
 C212 C 0.89299 0.07874 0.64900
 C213 C 0.92033 0.05859 0.65369
 C214 C 0.93110 0.03873 0.62709
 C215 C 0.91507 0.03920 0.59495
 C216 C 0.88775 0.05966 0.59021
 C217 C 0.87664 0.07907 0.61707
 H218 H 0.77318 0.16440 0.73473
 H219 H 0.79372 0.13252 0.68720
 H220 H 0.89168 0.13798 0.72849
 H221 H 0.87193 0.16942 0.77665
 H222 H 0.93315 0.05809 0.67816
 H223 H 0.95223 0.02328 0.63155
 H224 H 0.87489 0.06059 0.56576
 H225 H 0.85551 0.09455 0.61277
 C226 C 1.21816 -0.16889 0.69068
 C227 C 1.20258 -0.14806 0.66697
 C228 C 1.16878 -0.15034 0.66138
 C229 C 1.15068 -0.17422 0.67942
 C230 C 1.16608 -0.19508 0.70313
 C231 C 1.20019 -0.19268 0.70969
 N232 N 1.15319 -0.12783 0.63797
 N233 N 1.12244 -0.12930 0.63226
 C234 C 1.10537 -0.10717 0.60977
 C235 C 1.07168 -0.11184 0.60514
 C236 C 1.05367 -0.09064 0.58416
 C237 C 1.06904 -0.06414 0.56733
 C238 C 1.10300 -0.05944 0.57176
 C239 C 1.12113 -0.08087 0.59289
 H240 H 1.24453 -0.16665 0.69319
 H241 H 1.21694 -0.12999 0.65296
 H242 H 1.12440 -0.17641 0.67576
 H243 H 1.15049 -0.21174 0.71748
 H244 H 1.05930 -0.13199 0.61802
 H245 H 1.02758 -0.09505 0.58119
 H246 H 1.11542 -0.03920 0.55911
 H247 H 1.14722 -0.07679 0.59620
 C248 C 0.26500 1.14762 1.18100
 C249 C 0.28671 1.13102 1.16004
 C250 C 0.31037 1.14785 1.14090
 C251 C 0.31226 1.18189 1.14283
 C252 C 0.29000 1.19885 1.16340
 C253 C 0.26589 1.18197 1.18300
 N254 N 0.33145 1.12935 1.11938
 N255 N 0.35756 1.14043 1.10550
 C256 C 0.37701 1.11958 1.08453
 C257 C 0.41079 1.12528 1.08121
 C258 C 0.43082 1.10233 1.06527
 C259 C 0.41710 1.07365 1.05190
 C260 C 0.38288 1.06928 1.05308
 C261 C 0.36307 1.09187 1.06944
 H262 H 0.24631 1.13326 1.19403
 H263 H 0.28491 1.10476 1.15843
 H264 H 0.33055 1.19534 1.12817
 H265 H 0.29245 1.22505 1.16452
 H266 H 0.42182 1.14661 1.09260
 H267 H 0.45710 1.10645 1.06452
 H268 H 0.37148 1.04761 1.04280
 H269 H 0.33693 1.08720 1.07122
 C270 C 0.28555 0.78940 0.83598
 C271 C 0.30875 0.80516 0.85640
 C272 C 0.33258 0.82537 0.84134
 C273 C 0.33379 0.82876 0.80528
 C274 C 0.31061 0.81288 0.78474
 C275 C 0.28586 0.79346 0.79992
 N276 N 0.35359 0.84378 0.86341
 N277 N 0.37483 0.86397 0.85189
 C278 C 0.39408 0.88369 0.87448
 C279 C 0.41598 0.90651 0.86029
 C280 C 0.43266 0.92833 0.88146
 C281 C 0.42761 0.92765 0.91731
 C282 C 0.40651 0.90389 0.93161
 C283 C 0.38987 0.88211 0.91041
 H284 H 0.26652 0.77512 0.84859
 H285 H 0.30746 0.80253 0.88416
 H286 H 0.35206 0.84425 0.79305
 H287 H 0.31171 0.81621 0.75704
 H288 H 0.41941 0.90801 0.83266
 H289 H 0.44881 0.94629 0.86965
 H290 H 0.40214 0.90267 0.95911
 H291 H 0.37308 0.86466 0.92204
 C292 C 0.72470 0.82018 1.10820
 C293 C 0.69547 0.83084 1.09303
 C294 C 0.66854 0.83899 1.11337
 C295 C 0.67074 0.83527 1.14935
 C296 C 0.69996 0.82428 1.16463
 C297 C 0.72751 0.81711 1.14424
 N298 N 0.64056 0.85339 1.09683
 N299 N 0.61601 0.86434 1.11321
 C300 C 0.58997 0.88116 1.09556
 C301 C 0.56692 0.89846 1.11470
 C302 C 0.54551 0.92037 1.09825
 C303 C 0.54689 0.92516 1.06233
 C304 C 0.56796 0.90553 1.04298
 C305 C 0.58937 0.88381 1.05942
 H306 H 0.74548 0.81555 1.09166
 H307 H 0.69417 0.83393 1.06530
 H308 H 0.65019 0.84145 1.16561
 H309 H 0.70111 0.82176 1.19241
 H310 H 0.56702 0.89658 1.14255
 H311 H 0.52952 0.93512 1.11384
 H312 H 0.56951 0.90850 1.01525
 H313 H 0.60666 0.87046 1.04396
 C314 C 0.70488 1.18108 0.82258
 C315 C 0.67450 1.17020 0.83501
 C316 C 0.66975 1.16477 0.87030
 C317 C 0.69556 1.17132 0.89331
 C318 C 0.72603 1.18205 0.88091
 C319 C 0.73124 1.18648 0.84532
 N320 N 0.63969 1.14993 0.88171
 N321 N 0.63333 1.14500 0.91346
 C322 C 0.60477 1.12730 0.92464
 C323 C 0.60015 1.12161 0.95992
 C324 C 0.57596 1.09982 0.97150
 C325 C 0.55605 1.08323 0.94779
 C326 C 0.55921 1.09075 0.91249
 C327 C 0.58338 1.11259 0.90098
 H328 H 0.70790 1.18478 0.79509
 H329 H 0.65483 1.16520 0.81701
 H330 H 0.69258 1.16706 0.92072
 H331 H 0.74588 1.18563 0.89909
 H332 H 0.61648 1.13277 0.97841
 H333 H 0.57418 1.09456 0.99886
 H334 H 0.54421 1.07842 0.89362
 H335 H 0.58639 1.11666 0.87355
 C336 C 0.18735 0.27849 0.15795
 C337 C 0.17374 0.30663 0.14359
 C338 C 0.15924 0.32990 0.16443
 C339 C 0.15867 0.32490 0.20031
 C340 C 0.17291 0.29678 0.21494
 C341 C 0.18754 0.27324 0.19386
 N342 N 0.14508 0.35783 0.14778
 N343 N 0.12663 0.37845 0.16232
 C344 C 0.11310 0.40482 0.14219
 C345 C 0.08408 0.42005 0.15268
 C346 C 0.06713 0.44098 0.12990
 C347 C 0.07924 0.44687 0.09646
 C348 C 0.10989 0.43400 0.08742
 C349 C 0.12662 0.41322 0.10997
 H350 H 0.19724 0.26057 0.14069
 H351 H 0.17396 0.31011 0.11587
 H352 H 0.14754 0.34268 0.21688
 H353 H 0.17273 0.29359 0.24267
 H354 H 0.07343 0.41397 0.17750
 H355 H 0.04351 0.45054 0.13747
 H356 H 0.12007 0.43848 0.06201
 H357 H 0.14934 0.40237 0.10146
 C358 C -0.15448 0.24341 -0.11043
 C359 C -0.13545 0.26648 -0.09320
 C360 C -0.12580 0.29538 -0.10999
 C361 C -0.13472 0.30063 -0.14465
 C362 C -0.15305 0.27720 -0.16215
 C363 C -0.16329 0.24857 -0.14506
 N364 N -0.10657 0.31875 -0.09163
 N365 N -0.10487 0.34844 -0.10142
 C366 C -0.08467 0.37183 -0.08425
 C367 C -0.08956 0.40498 -0.09125
 C368 C -0.06917 0.42840 -0.07642
 C369 C -0.04298 0.41892 -0.05489
 C370 C -0.03831 0.38562 -0.04758
 C371 C -0.05918 0.36224 -0.06186
 H372 H -0.16214 0.22141 -0.09688
 H373 H -0.12860 0.26208 -0.06657
 H374 H -0.12724 0.32265 -0.15824
 H375 H -0.15972 0.28161 -0.18884
 H376 H -0.10905 0.41266 -0.10854
 H377 H -0.07325 0.45386 -0.08270
 H378 H -0.01823 0.37762 -0.03122
 H379 H -0.05481 0.33672 -0.05625
 C380 C 0.18281 0.68649 -0.23730
 C381 C 0.16584 0.65931 -0.22400
 C382 C 0.16681 0.65190 -0.18869
 C383 C 0.18503 0.67202 -0.16677
 C384 C 0.20138 0.69942 -0.17982
 C385 C 0.20053 0.70717 -0.21527
 N386 N 0.14761 0.62536 -0.17498
 N387 N 0.15287 0.61441 -0.14462
 C388 C 0.13267 0.59040 -0.12784
 C389 C 0.14219 0.57915 -0.09517
 C390 C 0.12074 0.56042 -0.07502
 C391 C 0.08914 0.55274 -0.08718
 C392 C 0.08040 0.56212 -0.12097
 C393 C 0.10203 0.58092 -0.14121
 H394 H 0.18192 0.69133 -0.26477
 H395 H 0.15179 0.64409 -0.24121
 H396 H 0.18572 0.66723 -0.13927
 H397 H 0.21382 0.71510 -0.16179
 H398 H 0.16571 0.58633 -0.08459
 H399 H 0.12828 0.55340 -0.04919
 H400 H 0.05621 0.55655 -0.13099
 H401 H 0.09414 0.58945 -0.16641
 C402 C -0.13276 0.76451 0.13352
 C403 C -0.11200 0.74293 0.11666
 C404 C -0.12396 0.71306 0.10504
 C405 C -0.15723 0.70508 0.11017
 C406 C -0.17807 0.72671 0.12689
 C407 C -0.16602 0.75660 0.13892
 N408 N -0.10167 0.69092 0.08918
 N409 N -0.11058 0.66264 0.07984
 C410 C -0.08814 0.63991 0.06523
 C411 C -0.09862 0.60783 0.06044
 C412 C -0.07654 0.58414 0.04962
 C413 C -0.04355 0.59229 0.04304
 C414 C -0.03344 0.62490 0.04612
 C415 C -0.05551 0.64852 0.05734
 H416 H -0.12288 0.78754 0.14209
 H417 H -0.08642 0.74936 0.11289
 H418 H -0.16707 0.68207 0.10153
 H419 H -0.20349 0.71983 0.13094
 H420 H -0.12372 0.60092 0.06628
 H421 H -0.08511 0.55928 0.04719
 H422 H -0.00820 0.63190 0.04112
 H423 H -0.04689 0.67325 0.06060
 C424 C 1.11278 0.19057 0.73619
 C425 C 1.09140 0.17466 0.71371
 C426 C 1.10330 0.15133 0.69118
 C427 C 1.13678 0.14342 0.69183
 C428 C 1.15802 0.15844 0.71499
 C429 C 1.14650 0.18250 0.73751
 N430 N 1.08109 0.13504 0.66858
 N431 N 1.09111 0.12362 0.64023
 C432 C 1.07058 0.10483 0.61813
 C433 C 1.08055 0.10029 0.58414
 C434 C 1.06349 0.07888 0.56299
 C435 C 1.03658 0.06097 0.57589
 C436 C 1.02585 0.06639 0.60969
 C437 C 1.04257 0.08843 0.63062
 H438 H 1.10236 0.20801 0.75364
 H439 H 1.06552 0.18065 0.71373
 H440 H 1.14642 0.12522 0.67473
 H441 H 1.18374 0.15195 0.71416
 H442 H 1.10220 0.11270 0.57433
 H443 H 1.07245 0.07508 0.53711
 H444 H 1.00526 0.05284 0.62027
 H445 H 1.03463 0.09142 0.65698
 C446 C 0.79022 -0.17956 0.71266
 C447 C 0.80105 -0.16891 0.68027
 C448 C 0.83364 -0.17331 0.67044
 C449 C 0.85500 -0.19035 0.69258
 C450 C 0.84431 -0.20110 0.72502
 C451 C 0.81196 -0.19482 0.73632
 N452 N 0.84533 -0.15694 0.64000
 N453 N 0.87513 -0.15861 0.63043
 C454 C 0.88773 -0.13900 0.60262
 C455 C 0.92141 -0.13985 0.59572
 C456 C 0.93575 -0.11643 0.57395
 C457 C 0.91647 -0.09172 0.55876
 C458 C 0.88226 -0.09251 0.56354
 C459 C 0.86798 -0.11593 0.58537
 H460 H 0.76467 -0.17569 0.71888
 H461 H 0.78424 -0.15606 0.66326
 H462 H 0.88045 -0.19390 0.68561
 H463 H 0.86253 -0.21190 0.74189
 H464 H 0.93688 -0.15748 0.60889
 H465 H 0.96216 -0.11656 0.57066
 H466 H 0.86675 -0.07391 0.55207
 H467 H 0.84184 -0.11483 0.59021
 C468 C 1.18831 -0.15515 0.30207
 C469 C 1.16970 -0.13864 0.32645
 C470 C 1.13561 -0.14256 0.32778
 C471 C 1.12017 -0.16352 0.30460
 C472 C 1.13872 -0.18067 0.28074
 C473 C 1.17324 -0.17689 0.27896
 N474 N 1.11726 -0.12514 0.35292
 N475 N 1.08628 -0.12148 0.35064
 C476 C 1.06823 -0.10423 0.37613
 C477 C 1.03837 -0.08962 0.36701
 C478 C 1.02188 -0.07000 0.39045
 C479 C 1.03452 -0.06566 0.42375
 C480 C 1.06348 -0.08193 0.43349
 C481 C 1.08042 -0.10075 0.40974
 H482 H 1.21470 -0.15189 0.30259
 H483 H 1.18191 -0.12261 0.34434
 H484 H 1.09378 -0.16681 0.30505
 H485 H 1.12552 -0.19585 0.26283
 H486 H 1.02865 -0.09226 0.34122
 H487 H 0.99971 -0.05764 0.38232
 H488 H 1.07392 -0.07877 0.45891
 H489 H 1.10328 -0.11216 0.41743
 C490 C 0.85320 0.20900 0.27877
 C491 C 0.86776 0.19850 0.30956
 C492 C 0.84998 0.17987 0.33343
 C493 C 0.81666 0.17342 0.32724
 C494 C 0.80192 0.18390 0.29652
 C495 C 0.82019 0.20093 0.27099
 N496 N 0.86726 0.16457 0.36137
 N497 N 0.85318 0.14514 0.38253
 C498 C 0.87136 0.12679 0.40766
 C499 C 0.85493 0.10295 0.42721
 C500 C 0.87265 0.08009 0.44663
 C501 C 0.90719 0.08084 0.44677
 C502 C 0.92352 0.10639 0.42930
 C503 C 0.90576 0.12914 0.40981
 H504 H 0.86903 0.22108 0.26024
 H505 H 0.89359 0.20335 0.31394
 H506 H 0.80225 0.15933 0.34558
 H507 H 0.77611 0.17853 0.29306
 H508 H 0.82844 0.10087 0.42572
 H509 H 0.85938 0.06082 0.46002
 H510 H 0.95010 0.10772 0.42907
 H511 H 0.91903 0.14745 0.39500
 C512 C 0.16548 0.30300 -0.22008
 C513 C 0.15533 0.33365 -0.20920
 C514 C 0.15888 0.34239 -0.17475
 C515 C 0.17381 0.32049 -0.15140
 C516 C 0.18341 0.28964 -0.16206
 C517 C 0.17867 0.28019 -0.19638
 N518 N 0.14388 0.37169 -0.16307
 N519 N 0.15014 0.38278 -0.13336
 C520 C 0.13233 0.40913 -0.11875
 C521 C 0.14166 0.41977 -0.08616
 C522 C 0.12083 0.43955 -0.06728
 C523 C 0.09011 0.44887 -0.08071
 C524 C 0.08209 0.44071 -0.11474
 C525 C 0.10306 0.42084 -0.13366
 H526 H 0.16222 0.29688 -0.24689
 H527 H 0.14384 0.35027 -0.22745
 H528 H 0.17648 0.32653 -0.12449
 H529 H 0.19298 0.27269 -0.14295
 H530 H 0.16414 0.41091 -0.07442
 H531 H 0.12786 0.44577 -0.04126
 H532 H 0.05862 0.44761 -0.12576
 H533 H 0.09534 0.41287 -0.15887
 C534 C -0.17243 0.25774 0.12566
 C535 C -0.15469 0.28020 0.10552
 C536 C -0.14195 0.30844 0.12015
 C537 C -0.14766 0.31437 0.15513
 C538 C -0.16473 0.29176 0.17545
 C539 C -0.17695 0.26265 0.16132
 N540 N -0.12203 0.33012 0.09976
 N541 N -0.11473 0.35830 0.11059
 C542 C -0.09324 0.38029 0.09270
 C543 C -0.09142 0.41234 0.10394
 C544 C -0.06905 0.43413 0.08919
 C545 C -0.04756 0.42405 0.06314
 C546 C -0.04962 0.39183 0.05153
 C547 C -0.07251 0.37009 0.06607
 H548 H -0.18059 0.23558 0.11353
 H549 H -0.15036 0.27530 0.07859
 H550 H -0.13827 0.33618 0.16704
 H551 H -0.16881 0.29763 0.20217
 H552 H -0.10714 0.42034 0.12460
 H553 H -0.06806 0.45871 0.09887
 H554 H -0.03335 0.38339 0.03158
 H555 H -0.07336 0.34522 0.05725
 C556 C -0.16527 0.75144 -0.11826
 C557 C -0.14627 0.72949 -0.09893
 C558 C -0.13472 0.70097 -0.11372
 C559 C -0.14228 0.69457 -0.14824
 C560 C -0.16049 0.71680 -0.16791
 C561 C -0.17225 0.74582 -0.15338
 N562 N -0.11446 0.67931 -0.09383
 N563 N -0.11080 0.64983 -0.10254
 C564 C -0.08920 0.62786 -0.08485
 C565 C -0.09244 0.59457 -0.09093
 C566 C -0.07024 0.57247 -0.07650
 C567 C -0.04383 0.58346 -0.05636
 C568 C -0.04084 0.61688 -0.04974
 C569 C -0.06360 0.63897 -0.06364
 H570 H -0.17279 0.77367 -0.10598
 H571 H -0.14038 0.73482 -0.07239
 H572 H -0.13359 0.67260 -0.16024
 H573 H -0.16612 0.71054 -0.19424
 H574 H -0.11199 0.58579 -0.10736
 H575 H -0.07311 0.54687 -0.08214
 H576 H -0.02075 0.62591 -0.03419
 H577 H -0.06056 0.66470 -0.05882
 C578 C 0.17013 0.70304 0.22972
 C579 C 0.15557 0.67481 0.21675
 C580 C 0.15874 0.66723 0.18193
 C581 C 0.17719 0.68796 0.16022
 C582 C 0.19124 0.71642 0.17295
 C583 C 0.18757 0.72460 0.20779
 N584 N 0.14108 0.63997 0.16842
 N585 N 0.14718 0.62943 0.13848
 C586 C 0.12814 0.60456 0.12236
 C587 C 0.13841 0.59342 0.09035
 C588 C 0.11806 0.57337 0.07093
 C589 C 0.08678 0.56430 0.08315
 C590 C 0.07728 0.57382 0.11630
 C591 C 0.09784 0.59387 0.13582
 H592 H 0.16733 0.70814 0.25681
 H593 H 0.14141 0.65906 0.23377
 H594 H 0.17968 0.68288 0.13307
 H595 H 0.20386 0.73262 0.15509
 H596 H 0.16167 0.60153 0.07972
 H597 H 0.12620 0.56630 0.04559
 H598 H 0.05335 0.56718 0.12637
 H599 H 0.08937 0.60230 0.16053
 C600 C 0.23138 1.14508 0.83282
 C601 C 0.25430 1.12612 0.85074
 C602 C 0.28676 1.13680 0.85422
 C603 C 0.29609 1.16710 0.83983
 C604 C 0.27300 1.18635 0.82218
 C605 C 0.24048 1.17535 0.81829
 N606 N 0.30955 1.11628 0.87235
 N607 N 0.34022 1.12225 0.87350
 C608 C 0.36250 1.10114 0.89167
 C609 C 0.39632 1.10589 0.88766
 C610 C 0.41864 1.08486 0.90389
 C611 C 0.40743 1.05885 0.92484
 C612 C 0.37343 1.05460 0.92947
 C613 C 0.35115 1.07543 0.91290
 H614 H 0.20636 1.13628 0.83069
 H615 H 0.24681 1.10290 0.86183
 H616 H 0.32107 1.17590 0.84231
 H617 H 0.28059 1.20958 0.81119
 H618 H 0.40539 1.12565 0.87144
 H619 H 0.44467 1.08891 0.89995
 H620 H 0.36401 1.03484 0.94545
 H621 H 0.32510 1.07134 0.91658
 C622 C 0.27219 0.81187 1.16235
 C623 C 0.29743 0.82751 1.14425
 C624 C 0.31855 0.84914 1.16082
 C625 C 0.31457 0.85455 1.19623
 C626 C 0.28939 0.83860 1.21457
 C627 C 0.26772 0.81718 1.19777
 N628 N 0.34289 0.86585 1.14054
 N629 N 0.36153 0.88811 1.15216
 C630 C 0.38465 0.90476 1.13015
 C631 C 0.40151 0.93210 1.14231
 C632 C 0.42182 0.95049 1.12025
 C633 C 0.42568 0.94164 1.08564
 C634 C 0.40985 0.91339 1.07396
 C635 C 0.38949 0.89519 1.09592
 H636 H 0.25562 0.79625 1.14826
 H637 H 0.30011 0.82333 1.11693
 H638 H 0.33069 0.87116 1.20960
 H639 H 0.28688 0.84304 1.24185
 H640 H 0.39809 0.93975 1.16862
 H641 H 0.43374 0.97212 1.12996
 H642 H 0.41237 0.90588 1.04748
 H643 H 0.37697 0.87406 1.08586
 C644 C 0.75060 1.13630 1.17745
 C645 C 0.72724 1.11517 1.16368
 C646 C 0.69842 1.12743 1.14884
 C647 C 0.69325 1.16126 1.14752
 C648 C 0.71688 1.18247 1.16077
 C649 C 0.74566 1.17012 1.17596
 N650 N 0.67536 1.10515 1.13428
 N651 N 0.64644 1.11370 1.12573
 C652 C 0.62409 1.09164 1.10965
 C653 C 0.59128 1.10083 1.10520
 C654 C 0.56937 1.08060 1.08774
 C655 C 0.58025 1.05112 1.07397
 C656 C 0.61301 1.04164 1.07903
 C657 C 0.63475 1.06164 1.09689
 H658 H 0.77278 1.12632 1.18880
 H659 H 0.73156 1.08916 1.16460
 H660 H 0.67125 1.17128 1.13587
 H661 H 0.71261 1.20848 1.15947
 H662 H 0.58281 1.12391 1.11486
 H663 H 0.54425 1.08853 1.08404
 H664 H 0.62193 1.01898 1.06872
 H665 H 0.66004 1.05406 1.09993
 C666 C 0.75022 0.86800 0.83735
 C667 C 0.72662 0.88822 0.85174
 C668 C 0.69788 0.87496 0.86591
 C669 C 0.69328 0.84101 0.86641
 C670 C 0.71722 0.82068 0.85265
 C671 C 0.74565 0.83411 0.83769
 N672 N 0.67389 0.89649 0.87966
 N673 N 0.64452 0.88745 0.88577
 C674 C 0.62100 0.90918 0.90010
 C675 C 0.58765 0.90085 0.89928
 C676 C 0.56417 0.92175 0.91294
 C677 C 0.57390 0.95103 0.92826
 C678 C 0.60742 0.95921 0.92933
 C679 C 0.63077 0.93859 0.91513
 H680 H 0.77211 0.87873 0.82604
 H681 H 0.73045 0.91434 0.85138
 H682 H 0.67133 0.83026 0.87753
 H683 H 0.71333 0.79457 0.85305
 H684 H 0.57986 0.87821 0.88783
 H685 H 0.53849 0.91479 0.91202
 H686 H 0.61557 0.98162 0.94101
 H687 H 0.65645 0.94545 0.91625
   
