data_POSCAR
  _audit_creation_date              2014-09-24
  _audit_creation_method            'ToBaCCo'
  _symmetry_space_group_name_H-M    'P1'
  _symmetry_Int_Tables_number       1
  _symmetry_cell_setting            triclinic
  loop_
  _symmetry_equiv_pos_as_xyz
 x,y,z
_cell_length_a 11.7546
_cell_length_b 11.7274
_cell_length_c 10.8909
_cell_angle_alpha 90.000000
_cell_angle_beta 90.000000
_cell_angle_gamma 90.000000
loop_
  _atom_site_label
  _atom_site_type_symbol
  _atom_site_fract_x
  _atom_site_fract_y
  _atom_site_fract_z
C1 C 1.24991 0.24993 0.25038
 C2 C 0.74991 -0.25007 0.25038
 C3 C 0.74991 0.24993 -0.24962
 C4 C 1.24991 -0.25007 -0.24962
 C5 C 0.24991 0.24993 0.75038
 C6 C 0.74991 0.74993 0.75038
 C7 C 0.74991 0.24993 0.25038
 C8 C 0.24991 0.74993 0.25038
 O9 O 1.22189 0.12450 0.08369
 O10 O 0.77820 -0.12635 0.08189
 O11 O 0.87429 0.22176 0.08242
 O12 O 1.12550 -0.22493 0.08566
 O13 O 0.80784 0.06813 0.15301
 O14 O 1.19370 -0.07156 0.15473
 O15 O 0.93107 -0.19236 0.15364
 O16 O 1.06880 0.19394 0.15216
 C17 C 1.17394 0.17941 0.16453
 C18 C 0.82572 -0.17939 0.16450
 C19 C 0.82066 0.17382 0.16439
 C20 C 1.18096 -0.17762 0.16745
 O21 O 1.22140 -0.12779 -0.07966
 O22 O 0.77834 0.12580 -0.08112
 O23 O 1.12581 0.22123 -0.08158
 O24 O 0.87441 -0.22244 -0.08134
 O25 O 0.80844 -0.06859 -0.15210
 O26 O 1.19498 0.06790 -0.15031
 O27 O 1.06876 -0.19459 -0.15057
 O28 O 0.93134 0.19201 -0.15230
 Co29 Co 1.18482 -0.00163 0.00204
 Co30 Co 0.81681 -0.00033 0.00053
 Co31 Co 1.00001 0.18383 0.00019
 Co32 Co 1.00002 -0.18483 0.00179
 O33 O 1.00053 -0.00070 0.00121
 C34 C 1.17382 -0.18004 -0.16282
 C35 C 0.82592 0.17915 -0.16351
 C36 C 1.17997 0.17333 -0.16309
 C37 C 0.82092 -0.17427 -0.16345
 O38 O 1.22140 0.62765 0.58041
 O39 O 0.77834 0.37406 0.58187
 O40 O 0.87441 0.72230 0.58209
 O41 O 1.12581 0.27863 0.58233
 O42 O 0.80844 0.56845 0.65285
 O43 O 1.19498 0.43197 0.65106
 O44 O 0.93134 0.30786 0.65305
 O45 O 1.06876 0.69445 0.65132
 C46 C 1.17382 0.67990 0.66357
 C47 C 0.82592 0.32071 0.66427
 C48 C 0.82092 0.67413 0.66420
 C49 C 1.17997 0.32653 0.66384
 O50 O 1.22189 0.37536 0.41706
 O51 O 0.77820 0.62621 0.41886
 O52 O 1.12550 0.72479 0.41510
 O53 O 0.87429 0.27810 0.41833
 O54 O 0.80784 0.43173 0.34774
 O55 O 1.19370 0.57142 0.34602
 O56 O 1.06880 0.30593 0.34859
 O57 O 0.93107 0.69222 0.34711
 Co58 Co 1.18482 0.50149 0.49871
 Co59 Co 0.81681 0.50019 0.50022
 Co60 Co 1.00002 0.68469 0.49896
 Co61 Co 1.00001 0.31603 0.50056
 O62 O 1.00053 0.50057 0.49955
 C63 C 1.17394 0.32045 0.33622
 C64 C 0.82572 0.67925 0.33625
 C65 C 1.18096 0.67748 0.33331
 C66 C 0.82066 0.32604 0.33636
 O67 O 0.72148 0.12580 0.58187
 O68 O 0.27843 -0.12779 0.58041
 O69 O 0.37401 0.22123 0.58233
 O70 O 0.62542 -0.22244 0.58209
 O71 O 0.30485 0.06790 0.65106
 O72 O 0.69138 -0.06859 0.65285
 O73 O 0.43106 -0.19459 0.65132
 O74 O 0.56849 0.19201 0.65305
 C75 C 0.67391 0.17915 0.66427
 C76 C 0.32600 -0.18004 0.66357
 C77 C 0.31985 0.17333 0.66384
 C78 C 0.67890 -0.17427 0.66420
 O79 O 0.72163 -0.12635 0.41886
 O80 O 0.27794 0.12450 0.41706
 O81 O 0.62554 0.22176 0.41833
 O82 O 0.37432 -0.22493 0.41510
 O83 O 0.30612 -0.07156 0.34602
 O84 O 0.69198 0.06813 0.34774
 O85 O 0.56876 -0.19236 0.34711
 O86 O 0.43102 0.19394 0.34859
 Co87 Co 0.68302 -0.00033 0.50022
 Co88 Co 0.31500 -0.00163 0.49871
 Co89 Co 0.49981 0.18383 0.50056
 Co90 Co 0.49981 -0.18483 0.49896
 O91 O 0.49929 -0.00070 0.49955
 C92 C 0.67411 -0.17939 0.33625
 C93 C 0.32588 0.17941 0.33622
 C94 C 0.67917 0.17382 0.33636
 C95 C 0.31887 -0.17762 0.33331
 O96 O 0.72163 0.62621 0.08189
 O97 O 0.27794 0.37536 0.08369
 O98 O 0.37432 0.72479 0.08566
 O99 O 0.62554 0.27810 0.08242
 O100 O 0.30612 0.57142 0.15473
 O101 O 0.69198 0.43173 0.15301
 O102 O 0.43102 0.30593 0.15216
 O103 O 0.56876 0.69222 0.15364
 C104 C 0.67411 0.67925 0.16450
 C105 C 0.32588 0.32045 0.16453
 C106 C 0.31887 0.67748 0.16745
 C107 C 0.67917 0.32604 0.16439
 O108 O 0.72148 0.37406 -0.08112
 O109 O 0.27843 0.62765 -0.07966
 O110 O 0.62542 0.72230 -0.08134
 O111 O 0.37401 0.27863 -0.08158
 O112 O 0.30485 0.43197 -0.15031
 O113 O 0.69138 0.56845 -0.15210
 O114 O 0.56849 0.30786 -0.15230
 O115 O 0.43106 0.69445 -0.15057
 Co116 Co 0.68302 0.50019 0.00053
 Co117 Co 0.31500 0.50149 0.00204
 Co118 Co 0.49981 0.68469 0.00179
 Co119 Co 0.49981 0.31603 0.00019
 O120 O 0.49929 0.50057 0.00121
 C121 C 0.67391 0.32071 -0.16351
 C122 C 0.32600 0.67990 -0.16282
 C123 C 0.67890 0.67413 -0.16345
 C124 C 0.31985 0.32653 -0.16309
   
