data_POSCAR
  _audit_creation_date              2014-09-24
  _audit_creation_method            'ToBaCCo'
  _symmetry_space_group_name_H-M    'P1'
  _symmetry_Int_Tables_number       1
  _symmetry_cell_setting            triclinic
  loop_
  _symmetry_equiv_pos_as_xyz
 x,y,z
_cell_length_a 44.6663
_cell_length_b 44.5874
_cell_length_c 44.5878
_cell_angle_alpha 90.011600
_cell_angle_beta 89.957200
_cell_angle_gamma 89.976500
loop_
  _atom_site_label
  _atom_site_type_symbol
  _atom_site_fract_x
  _atom_site_fract_y
  _atom_site_fract_z
C1 C 0.19116 1.23053 0.19089
 C2 C 0.17796 1.21806 0.21676
 C3 C 0.18992 1.19223 0.23051
 C4 C 0.21584 1.17915 0.21811
 C5 C 0.22946 1.19118 0.19238
 C6 C 0.21706 1.21690 0.17907
 H7 H 0.15798 1.22827 0.22601
 H8 H 0.22531 1.15923 0.22824
 H9 H 0.22747 1.22605 0.15914
 C10 C 0.81103 0.76750 0.19092
 C11 C 0.82334 0.78082 0.21679
 C12 C 0.81032 0.80644 0.22977
 C13 C 0.78437 0.81863 0.21679
 C14 C 0.77157 0.80576 0.19105
 C15 C 0.78495 0.78015 0.17842
 H16 H 0.84344 0.77154 0.22668
 H17 H 0.77433 0.83847 0.22653
 H18 H 0.77520 0.77035 0.15847
 C19 C 0.80813 1.22997 -0.18950
 C20 C 0.82033 1.21683 -0.21555
 C21 C 0.80750 1.19103 -0.22853
 C22 C 0.78172 1.17866 -0.21516
 C23 C 0.76909 1.19135 -0.18924
 C24 C 0.78233 1.21703 -0.17673
 H25 H 0.84022 1.22650 -0.22554
 H26 H 0.77159 1.15876 -0.22469
 H27 H 0.77268 1.22669 -0.15664
 C28 C 0.19098 0.77169 -0.19428
 C29 C 0.21671 0.78449 -0.18146
 C30 C 0.22970 0.81046 -0.19366
 C31 C 0.21674 0.82352 -0.21925
 C32 C 0.19088 0.81122 -0.23253
 C33 C 0.17837 0.78511 -0.21986
 H34 H 0.22644 0.77442 -0.16164
 H35 H 0.22664 0.84364 -0.22854
 H36 H 0.15843 0.77536 -0.22963
 C37 C 0.54562 1.03959 -0.00594
 H38 H 0.54622 1.03898 0.01831
 C39 C 0.56607 1.05728 -0.02165
 H40 H 0.58226 1.07036 -0.00920
 C41 C 0.52413 1.02251 -0.05141
 H42 H 0.50817 1.00846 -0.06293
 C43 C 0.54420 1.03987 -0.06804
 H44 H 0.54316 1.03915 -0.09228
 N45 N 0.52512 1.02278 -0.02092
 C46 C 0.45435 1.00632 0.04441
 H47 H 0.45374 0.98206 0.04392
 C48 C 0.43394 1.02211 0.06211
 H49 H 0.41778 1.00973 0.07531
 C50 C 0.47575 1.05170 0.02699
 H51 H 0.49164 1.06316 0.01279
 C52 C 0.45573 1.06841 0.04435
 H53 H 0.45674 1.09266 0.04348
 Zn54 Zn 0.49982 0.99791 0.00233
 N55 N 0.47477 1.02122 0.02741
 C56 C 0.52431 0.97313 0.05587
 N57 N 0.52502 0.97278 0.02537
 C58 C 0.54528 0.95578 0.01022
 C59 C 0.56579 0.93802 0.02576
 C60 C 0.54445 0.95570 0.07233
 C61 C 0.45406 0.99012 -0.03941
 C62 C 0.43352 0.97465 -0.05718
 C63 C 0.45494 0.92802 -0.03985
 C64 C 0.47512 0.94441 -0.02241
 N65 N 0.47440 0.97491 -0.02261
 H66 H 0.50853 0.98732 0.06753
 H67 H 0.54567 0.95633 -0.01403
 H68 H 0.58181 0.92483 0.01317
 H69 H 0.54366 0.95651 0.09659
 H70 H 0.45366 1.01438 -0.03874
 H71 H 0.41746 0.98730 -0.07025
 H72 H 0.45578 0.90376 -0.03921
 H73 H 0.49097 0.93270 -0.00837
 C74 C 0.43432 1.05362 0.06210
 C75 C 0.56565 1.05748 -0.05316
 C76 C 0.43367 0.94314 -0.05747
 C77 C 0.56569 0.93795 0.05727
 C78 C -0.00613 0.54545 1.03950
 H79 H 0.01808 0.54609 1.03892
 C80 C -0.02188 0.56591 1.05719
 H81 H -0.00949 0.58215 1.07029
 C82 C -0.05146 0.52385 1.02236
 H83 H -0.06292 0.50784 1.00829
 C84 C -0.06812 0.54393 1.03971
 H85 H -0.09232 0.54285 1.03898
 N86 N -0.02102 0.52488 1.02267
 C87 C 0.04430 0.45406 1.00631
 H88 H 0.04387 0.45343 0.98205
 C89 C 0.06194 0.43366 1.02214
 H90 H 0.07516 0.41747 1.00978
 C91 C 0.02676 0.47551 1.05166
 H92 H 0.01254 0.49142 1.06310
 C93 C 0.04406 0.45549 1.06840
 H94 H 0.04313 0.45653 1.09265
 Zn95 Zn 0.00227 0.49956 0.99782
 N96 N 0.02726 0.47450 1.02117
 C97 C 0.05576 0.52413 0.97313
 N98 N 0.02532 0.52482 0.97274
 C99 C 0.01022 0.54509 0.95572
 C100 C 0.02576 0.56564 0.93798
 C101 C 0.07222 0.54432 0.95573
 C102 C -0.03934 0.45366 0.98995
 C103 C -0.05702 0.43306 0.97444
 C104 C -0.03961 0.45454 0.92785
 C105 C -0.02226 0.47477 0.94428
 N106 N -0.02254 0.47406 0.97478
 H107 H 0.06737 0.50835 0.98734
 H108 H -0.01399 0.54547 0.95624
 H109 H 0.01322 0.58167 0.92477
 H110 H 0.09643 0.54354 0.95656
 H111 H -0.03873 0.45327 1.01421
 H112 H -0.07009 0.41696 0.98706
 H113 H -0.03890 0.45537 0.90359
 H114 H -0.00822 0.49066 0.93260
 C115 C 0.06185 0.43406 1.05365
 C116 C -0.05333 0.56544 1.05736
 C117 C -0.05722 0.43321 0.94293
 C118 C 0.05722 0.56557 0.93795
 C119 C 1.03961 -0.00570 0.54572
 H120 H 1.03902 0.01855 0.54636
 C121 C 1.05730 -0.02145 0.56614
 H122 H 1.07039 -0.00902 0.58235
 C123 C 1.02249 -0.05113 0.52416
 H124 H 1.00843 -0.06263 0.50818
 C125 C 1.03985 -0.06780 0.54420
 H126 H 1.03912 -0.09204 0.54311
 N127 N 1.02279 -0.02064 0.52519
 C128 C 1.00628 0.04473 0.45441
 H129 H 0.98207 0.04426 0.45384
 C130 C 1.02203 0.06243 0.43397
 H131 H 1.00965 0.07564 0.41782
 C132 C 1.05161 0.02725 0.47575
 H133 H 1.06307 0.01303 0.49163
 C134 C 1.06827 0.04460 0.45569
 H135 H 1.09247 0.04371 0.45667
 Zn136 Zn 0.99793 0.00265 0.49993
 N137 N 1.02117 0.02770 0.47482
 C138 C 0.97328 0.05622 0.52457
 N139 N 0.97291 0.02572 0.52525
 C140 C 0.95596 0.01059 0.54556
 C141 C 0.93828 0.02616 0.56616
 C142 C 0.95594 0.07270 0.54481
 C143 C 0.99006 -0.03906 0.45405
 C144 C 0.97457 -0.05683 0.43350
 C145 C 0.92806 -0.03946 0.45509
 C146 C 0.94447 -0.02203 0.47528
 N147 N 0.97492 -0.02225 0.47448
 H148 H 0.98743 0.06785 0.50875
 H149 H 0.95649 -0.01366 0.54593
 H150 H 0.92513 0.01358 0.58223
 H151 H 0.95676 0.09696 0.54403
 H152 H 1.01427 -0.03841 0.45360
 H153 H 0.98716 -0.06991 0.41737
 H154 H 0.90385 -0.03881 0.45599
 H155 H 0.93282 -0.00798 0.49119
 C156 C 1.05348 0.06239 0.43430
 C157 C 1.05748 -0.05296 0.56566
 C158 C 0.94312 -0.05710 0.43373
 C159 C 0.93824 0.05767 0.56610
 N160 N 0.17776 0.29043 1.13724
 C161 C 0.15232 0.30288 1.14817
 N162 N 0.14005 0.29158 1.17356
 N163 N 0.15277 0.26845 1.18753
 C164 C 0.17823 0.25565 1.17664
 N165 N 0.19047 0.26730 1.15122
 C166 C 0.13789 0.32692 1.13240
 C167 C 0.12541 0.34668 1.11885
 C168 C 0.11011 0.36967 1.10235
 N169 N 0.09358 0.39066 1.11683
 N170 N 0.07852 0.41132 1.10139
 C171 C 0.07941 0.41173 1.07091
 N172 N 0.09614 0.39067 1.05655
 N173 N 0.11120 0.37001 1.07198
 N174 N -0.17263 0.70714 1.13858
 C175 C -0.14705 0.69569 1.15020
 N176 N -0.13566 0.70780 1.17561
 N177 N -0.14939 0.73075 1.18894
 C178 C -0.17500 0.74256 1.17736
 N179 N -0.18635 0.73010 1.15192
 C180 C -0.13154 0.67186 1.13513
 C181 C -0.11814 0.65228 1.12219
 C182 C -0.10174 0.62950 1.10644
 N183 N -0.07142 0.62925 1.10718
 N184 N -0.05608 0.60873 1.09183
 C185 C -0.07049 0.58770 1.07513
 N186 N -0.10092 0.58801 1.07457
 N187 N -0.11628 0.60855 1.08993
 N188 N -0.13917 0.29024 0.82551
 C189 C -0.15055 0.30216 0.85104
 N190 N -0.17590 0.29039 0.86283
 N191 N -0.18942 0.26731 0.84954
 C192 C -0.17809 0.25504 0.82399
 N193 N -0.15270 0.26717 0.81223
 C194 C -0.13528 0.32613 0.86610
 C195 C -0.12222 0.34582 0.87920
 C196 C -0.10639 0.36872 0.89530
 N197 N -0.08986 0.38945 0.88045
 N198 N -0.07447 0.41012 0.89555
 C199 C -0.07500 0.41079 0.92604
 N200 N -0.09171 0.38998 0.94075
 N201 N -0.10710 0.36932 0.92567
 N202 N 0.17478 0.70926 0.85801
 C203 C 0.14940 0.69756 0.84619
 N204 N 0.13788 0.70977 0.82088
 N205 N 0.15129 0.73305 0.80784
 C206 C 0.17669 0.74502 0.81962
 N207 N 0.18818 0.73254 0.84495
 C208 C 0.13421 0.67336 0.86099
 C209 C 0.12105 0.65349 0.87372
 C210 C 0.10493 0.63038 0.88924
 N211 N 0.07462 0.62964 0.88825
 N212 N 0.05952 0.60885 0.90346
 C213 C 0.07414 0.58805 0.92025
 N214 N 0.10457 0.58885 0.92105
 N215 N 0.11969 0.60965 0.90583
 N216 N 1.17293 0.14110 0.29168
 C217 C 1.14748 0.15322 0.30294
 N218 N 1.13638 0.17857 0.29041
 N219 N 1.15027 0.19134 0.26726
 C220 C 1.17576 0.17925 0.25565
 N221 N 1.18681 0.15388 0.26853
 C222 C 1.13182 0.13872 0.32701
 C223 C 1.11834 0.12618 0.34679
 C224 C 1.10193 0.11082 0.36981
 N225 N 1.07162 0.11186 0.37024
 N226 N 1.05627 0.09674 0.39093
 C227 C 1.07065 0.08001 0.41194
 N228 N 1.10108 0.07917 0.41145
 N229 N 1.11645 0.09428 0.39075
 N230 N 1.17563 -0.13538 0.70783
 C231 C 1.15023 -0.14676 0.69576
 N232 N 1.13860 -0.17237 0.70722
 N233 N 1.15192 -0.18612 0.73015
 C234 C 1.17734 -0.17478 0.74256
 N235 N 1.18893 -0.14914 0.73075
 C236 C 1.13519 -0.13123 0.67195
 C237 C 1.12227 -0.11780 0.65239
 C238 C 1.10654 -0.10139 0.62964
 N239 N 1.09004 -0.11598 0.60871
 N240 N 1.07470 -0.10061 0.58820
 C241 C 1.07525 -0.07012 0.58790
 N242 N 1.09192 -0.05567 0.60890
 N243 N 1.10727 -0.07102 0.62940
 N244 N 0.86321 -0.17656 0.29135
 C245 C 0.85139 -0.15113 0.30307
 N246 N 0.82587 -0.13983 0.29116
 N247 N 0.81262 -0.15351 0.26814
 C248 C 0.82443 -0.17895 0.25616
 N249 N 0.84996 -0.19022 0.26834
 C250 C 0.86641 -0.13572 0.32697
 C251 C 0.87948 -0.12254 0.34660
 C252 C 0.89556 -0.10658 0.36943
 N253 N 0.88074 -0.09003 0.39018
 N254 N 0.89581 -0.07453 0.41078
 C255 C 0.92625 -0.07499 0.41137
 N256 N 0.94094 -0.09172 0.39054
 N257 N 0.92588 -0.10722 0.36995
 N258 N 0.82169 0.13860 0.71066
 C259 C 0.84702 0.15002 0.69846
 N260 N 0.85897 0.17533 0.71024
 N261 N 0.84602 0.18876 0.73359
 C262 C 0.82066 0.17738 0.74613
 N263 N 0.80875 0.15204 0.73400
 C264 C 0.86170 0.13479 0.67421
 C265 C 0.87434 0.12161 0.65427
 C266 C 0.88976 0.10546 0.63109
 N267 N 0.90628 0.12025 0.61031
 N268 N 0.92141 0.10510 0.58946
 C269 C 0.92062 0.07462 0.58865
 N270 N 0.90391 0.05997 0.60950
 N271 N 0.88878 0.07510 0.63035
 N272 N 0.29064 1.13690 0.17824
 C273 C 0.30313 1.14793 0.15283
 N274 N 0.29185 1.17336 0.14061
 N275 N 0.26873 1.18728 0.15337
 C276 C 0.25597 1.17629 0.17880
 N277 N 0.26751 1.15084 0.19099
 C278 C 0.32717 1.13221 0.13836
 C279 C 0.34693 1.11869 0.12584
 C280 C 0.36992 1.10222 0.11050
 N281 N 0.39088 1.11674 0.09399
 N282 N 0.41155 1.10133 0.07889
 C283 C 0.41199 1.07085 0.07971
 N284 N 0.39096 1.05646 0.09642
 N285 N 0.37030 1.07186 0.11152
 N286 N 0.70799 1.17559 -0.13533
 C287 C 0.69594 1.15014 -0.14673
 N288 N 0.70747 1.13843 -0.17229
 N289 N 0.73043 1.15172 -0.18599
 C290 C 0.74275 1.17719 -0.17462
 N291 N 0.73095 1.18887 -0.14903
 C292 C 0.67210 1.13513 -0.13124
 C293 C 0.65251 1.12222 -0.11786
 C294 C 0.62972 1.10651 -0.10149
 N295 N 0.60882 1.09003 -0.11611
 N296 N 0.58828 1.07470 -0.10078
 C297 C 0.58791 1.07524 -0.07029
 N298 N 0.60889 1.09190 -0.05580
 N299 N 0.62942 1.10723 -0.07111
 N300 N 0.29128 0.86336 -0.17676
 C301 C 0.30300 0.85150 -0.15137
 N302 N 0.29107 0.82595 -0.14006
 N303 N 0.26806 0.81271 -0.15370
 C304 C 0.25608 0.82455 -0.17910
 N305 N 0.26828 0.85012 -0.19038
 C306 C 0.32690 0.86651 -0.13600
 C307 C 0.34654 0.87957 -0.12285
 C308 C 0.36937 0.89563 -0.10692
 N309 N 0.39004 0.88074 -0.09039
 N310 N 0.41065 0.89580 -0.07490
 C311 C 0.41131 0.92629 -0.07535
 N312 N 0.39056 0.94104 -0.09206
 N313 N 0.36997 0.92600 -0.10755
 N314 N 0.70969 0.82086 0.13794
 C315 C 0.69751 0.84619 0.14947
 N316 N 0.70922 0.85805 0.17487
 N317 N 0.73248 0.84501 0.18827
 C318 C 0.74492 0.81965 0.17676
 N319 N 0.73295 0.80782 0.15135
 C320 C 0.67334 0.86097 0.13428
 C321 C 0.65349 0.87370 0.12111
 C322 C 0.63041 0.88921 0.10499
 N323 N 0.60969 0.90579 0.11980
 N324 N 0.58892 0.92100 0.10468
 C325 C 0.58814 0.92024 0.07420
 N326 N 0.60893 0.90347 0.05952
 N327 N 0.62969 0.88826 0.07463
   
