data_POSCAR
  _audit_creation_date              2014-09-24
  _audit_creation_method            'ToBaCCo'
  _symmetry_space_group_name_H-M    'P1'
  _symmetry_Int_Tables_number       1
  _symmetry_cell_setting            triclinic
  loop_
  _symmetry_equiv_pos_as_xyz
 x,y,z
_cell_length_a 29.8374
_cell_length_b 29.6088
_cell_length_c 52.3190
_cell_angle_alpha 90.283600
_cell_angle_beta 94.368300
_cell_angle_gamma 90.941900
loop_
  _atom_site_label
  _atom_site_type_symbol
  _atom_site_fract_x
  _atom_site_fract_y
  _atom_site_fract_z
C1 C -0.03571 0.39326 1.01990
 C2 C -0.03319 0.37120 0.99619
 C3 C -0.02911 0.39468 0.97343
 C4 C -0.02852 0.44237 0.97373
 C5 C -0.03202 0.46603 0.99713
 C6 C -0.03747 0.44149 1.02008
 C7 C -0.04901 0.46583 1.04167
 C8 C -0.04989 0.51268 1.04178
 C9 C -0.03861 0.53808 1.02045
 C10 C -0.03205 0.51437 0.99733
 C11 C -0.02781 0.46688 0.95094
 C12 C -0.02809 0.51368 0.95109
 C13 C -0.02768 0.53858 0.97414
 C14 C -0.02724 0.58676 0.97441
 C15 C -0.03465 0.60905 0.99745
 C16 C -0.03827 0.58626 1.02074
 H17 H -0.06051 0.44927 1.05833
 H18 H -0.06226 0.52815 1.05849
 H19 H -0.02883 0.45015 0.93249
 H20 H -0.03118 0.52944 0.93255
 H21 H -0.03189 0.33464 0.99535
 H22 H -0.03362 0.64565 0.99772
 C23 C 0.59939 0.04041 0.47516
 C24 C 0.62746 0.04265 0.49774
 C25 C 0.61080 0.04046 0.52217
 C26 C 0.56312 0.03990 0.52371
 C27 C 0.53408 0.03767 0.50077
 C28 C 0.55233 0.03809 0.47649
 C29 C 0.52301 0.03844 0.45416
 C30 C 0.47670 0.03684 0.45546
 C31 C 0.45762 0.03491 0.47915
 C32 C 0.48651 0.03628 0.50205
 C33 C 0.54328 0.04496 0.54715
 C34 C 0.49692 0.04314 0.54840
 C35 C 0.46788 0.03750 0.52621
 C36 C 0.42060 0.03575 0.52738
 C37 C 0.39282 0.03464 0.50462
 C38 C 0.41041 0.03381 0.48062
 H39 H 0.53542 0.04117 0.43534
 H40 H 0.45614 0.03834 0.43758
 H41 H 0.56277 0.05268 0.56486
 H42 H 0.48413 0.04793 0.56699
 H43 H 0.66343 0.04299 0.49593
 H44 H 0.35663 0.03294 0.50560
 C45 C 0.06639 -0.00584 0.26539
 H46 H 0.06994 -0.00784 0.24499
 C47 C 0.10464 -0.00284 0.28256
 H48 H 0.13756 -0.00281 0.27517
 C49 C 0.01904 -0.00257 0.29966
 H50 H -0.01426 -0.00155 0.30634
 C51 C 0.05622 0.00048 0.31745
 H52 H 0.05073 0.00325 0.33761
 N53 N 0.02463 -0.00624 0.27419
 C54 C -0.06685 -0.07266 0.21613
 H55 H -0.09392 -0.04873 0.21550
 C56 C -0.07025 -0.11076 0.20027
 H57 H -0.10023 -0.11579 0.18751
 C58 C 0.00539 -0.09416 0.23328
 H59 H 0.03477 -0.08761 0.24619
 C60 C 0.00348 -0.13270 0.21765
 H61 H 0.03173 -0.15527 0.21865
 Zn62 Zn -0.02656 -0.00934 0.25037
 N63 N -0.02904 -0.06450 0.23175
 C64 C -0.02187 0.03112 0.20184
 N65 N -0.02273 0.03965 0.22736
 C66 C -0.01980 0.08267 0.23668
 C67 C -0.01779 0.11927 0.21997
 C68 C -0.01969 0.06655 0.18452
 C69 C -0.08851 -0.04152 0.28355
 C70 C -0.12505 -0.04025 0.29866
 C71 C -0.14425 0.03242 0.28053
 C72 C -0.10732 0.02970 0.26573
 N73 N -0.07961 -0.00631 0.26804
 H74 H -0.02284 -0.00321 0.19477
 H75 H -0.01957 0.08854 0.25712
 H76 H -0.01620 0.15327 0.22774
 H77 H -0.01958 0.05873 0.16429
 H78 H -0.06628 -0.07007 0.28473
 H79 H -0.13062 -0.06810 0.31143
 H80 H -0.16515 0.06197 0.27891
 H81 H -0.10048 0.05681 0.25280
 C82 C -0.03440 -0.14096 0.20050
 C83 C 0.09979 0.00025 0.30902
 C84 C -0.15298 -0.00245 0.29767
 C85 C -0.01810 0.11141 0.19345
 C86 C 0.03787 0.07765 0.76419
 H87 H 0.03828 0.08261 0.74373
 C88 C 0.03340 0.11473 0.78041
 H89 H 0.03068 0.14819 0.77225
 C90 C 0.03967 0.02775 0.79948
 H91 H 0.04103 -0.00617 0.80689
 C92 C 0.03535 0.06373 0.81635
 H93 H 0.03404 0.05676 0.83657
 N94 N 0.04125 0.03522 0.77394
 C95 C 0.10682 -0.04728 0.71871
 H96 H 0.08398 -0.07611 0.71744
 C97 C 0.14377 -0.04602 0.70389
 H98 H 0.14906 -0.07419 0.69126
 C99 C 0.12663 0.02478 0.73637
 H100 H 0.11986 0.05231 0.74905
 C101 C 0.16399 0.02750 0.72185
 H102 H 0.18539 0.05742 0.72347
 Zn103 Zn 0.04450 -0.01430 0.75105
 N104 N 0.09827 -0.01169 0.73401
 C105 C 0.00003 -0.00905 0.70129
 N106 N -0.00589 -0.01114 0.72677
 C107 C -0.04762 -0.00894 0.73549
 C108 C -0.08557 -0.00547 0.71827
 C109 C -0.03690 -0.00562 0.68343
 C110 C 0.07894 -0.07784 0.78651
 C111 C 0.07811 -0.11553 0.80242
 C112 C 0.00557 -0.13658 0.78175
 C113 C 0.00777 -0.09844 0.76627
 N114 N 0.04346 -0.06926 0.76945
 H115 H 0.03340 -0.00961 0.69468
 H116 H -0.05135 -0.00982 0.75589
 H117 H -0.11846 -0.00390 0.72562
 H118 H -0.03123 -0.00406 0.66326
 H119 H 0.10721 -0.05439 0.78839
 H120 H 0.10605 -0.12079 0.81648
 H121 H -0.02383 -0.15857 0.77943
 H122 H -0.01960 -0.09172 0.75219
 C123 C 0.17243 -0.00781 0.70491
 C124 C 0.03203 0.10797 0.80691
 C125 C 0.04055 -0.14495 0.80058
 C126 C -0.08047 -0.00382 0.69181
 N127 N -0.05089 -0.31666 0.06242
 C128 C -0.03707 -0.33308 0.08574
 N129 N -0.02373 -0.37653 0.08765
 N130 N -0.02451 -0.40277 0.06683
 C131 C -0.03903 -0.38688 0.04332
 N132 N -0.05164 -0.34293 0.04168
 C133 C -0.03621 -0.30425 0.10791
 C134 C -0.03608 -0.27842 0.12581
 C135 C -0.03661 -0.24582 0.14617
 N136 N 0.00016 -0.23863 0.16263
 N137 N 0.00054 -0.20601 0.18032
 C138 C -0.03578 -0.17934 0.18212
 N139 N -0.07263 -0.18702 0.16566
 N140 N -0.07303 -0.21960 0.14801
 N141 N -0.01718 0.35539 0.08625
 C142 C -0.02789 0.31084 0.08375
 N143 N -0.04154 0.29407 0.06031
 N144 N -0.04457 0.32094 0.03998
 C145 C -0.03447 0.36587 0.04217
 N146 N -0.02027 0.38229 0.06582
 C147 C -0.02397 0.28095 0.10528
 C148 C -0.02129 0.25335 0.12217
 C149 C -0.01889 0.21782 0.14074
 N150 N -0.01699 0.17438 0.13274
 N151 N -0.01627 0.14079 0.14956
 C152 C -0.01747 0.14928 0.17503
 N153 N -0.01919 0.19300 0.18300
 N154 N -0.01994 0.22670 0.16615
 N155 N 0.38915 -0.00076 0.59120
 C156 C 0.35239 0.02450 0.59421
 N157 N 0.33889 0.05424 0.57570
 N158 N 0.36140 0.05862 0.55481
 C159 C 0.39838 0.03359 0.55173
 N160 N 0.41171 0.00364 0.57028
 C161 C 0.32611 0.01788 0.61578
 C162 C 0.30231 0.01234 0.63316
 C163 C 0.27204 0.00583 0.65292
 N164 N 0.26533 0.03947 0.66980
 N165 N 0.23450 0.03469 0.68678
 C166 C 0.20915 -0.00382 0.68743
 N167 N 0.21636 -0.03754 0.67058
 N168 N 0.24718 -0.03279 0.65362
 N169 N -0.33660 0.01185 0.58529
 C170 C -0.29352 0.02547 0.58303
 N171 N -0.28249 0.04431 0.56081
 N172 N -0.31358 0.04961 0.54149
 C173 C -0.35716 0.03667 0.54357
 N174 N -0.36770 0.01721 0.56589
 C175 C -0.25939 0.01910 0.60347
 C176 C -0.22924 0.01419 0.61985
 C177 C -0.19174 0.00882 0.63838
 N178 N -0.14970 0.00576 0.63049
 N179 N -0.11449 0.00156 0.64748
 C180 C -0.11996 0.00031 0.67301
 N181 N -0.16227 0.00333 0.68083
 N182 N -0.19754 0.00754 0.66382
 N183 N -0.02143 -0.31576 0.93253
 C184 C 0.00256 -0.33175 0.91360
 N185 N 0.01697 -0.37488 0.91480
 N186 N 0.00723 -0.40130 0.93426
 C187 C -0.01769 -0.38595 0.95313
 N188 N -0.03111 -0.34222 0.95192
 C189 C 0.01223 -0.30314 0.89259
 C190 C 0.01931 -0.27797 0.87525
 C191 C 0.02648 -0.24662 0.85508
 N192 N -0.00570 -0.24097 0.83570
 N193 N -0.00067 -0.20946 0.81801
 C194 C 0.03666 -0.18237 0.81906
 N195 N 0.06899 -0.18850 0.83843
 N196 N 0.06397 -0.22001 0.85613
 N197 N 0.01756 0.34768 0.91567
 C198 C -0.01032 0.31171 0.91021
 N199 N -0.04503 0.30393 0.92495
 N200 N -0.05169 0.33120 0.94456
 C201 C -0.02401 0.36737 0.95006
 N202 N 0.01088 0.37502 0.93530
 C203 C -0.00141 0.28000 0.89049
 C204 C 0.00568 0.25152 0.87482
 C205 C 0.01359 0.21557 0.85733
 N206 N 0.01945 0.17307 0.86628
 N207 N 0.02564 0.13910 0.85024
 C208 C 0.02618 0.14629 0.82464
 N209 N 0.02043 0.18907 0.81575
 N210 N 0.01420 0.22313 0.83182
 N211 N -0.32166 0.06276 0.42560
 C212 C -0.33250 0.02927 0.40837
 N213 N -0.36664 0.00014 0.41262
 N214 N -0.38926 0.00442 0.43349
 C215 C -0.37865 0.03811 0.45074
 N216 N -0.34425 0.06703 0.44645
 C217 C -0.30592 0.02293 0.38695
 C218 C -0.28204 0.01753 0.36966
 C219 C -0.25180 0.01111 0.34995
 N220 N -0.24470 0.04438 0.33295
 N221 N -0.21407 0.03963 0.31591
 C222 C -0.18936 0.00151 0.31531
 N223 N -0.19695 -0.03184 0.33229
 N224 N -0.22756 -0.02712 0.34931
 N225 N 0.35023 -0.00452 0.41975
 C226 C 0.31467 0.02353 0.41792
 N227 N 0.31099 0.05525 0.43637
 N228 N 0.34197 0.05897 0.45600
 C229 C 0.37788 0.03126 0.45782
 N230 N 0.38127 -0.00080 0.43940
 C231 C 0.27994 0.01843 0.39753
 C232 C 0.24948 0.01455 0.38113
 C233 C 0.21170 0.01038 0.36254
 N234 N 0.16947 0.00963 0.37036
 N235 N 0.13407 0.00631 0.35333
 C236 C 0.13952 0.00364 0.32782
 N237 N 0.18201 0.00434 0.32006
 N238 N 0.21749 0.00768 0.33712
   
