data_POSCAR
  _audit_creation_date              2014-09-24
  _audit_creation_method            'ToBaCCo'
  _symmetry_space_group_name_H-M    'P1'
  _symmetry_Int_Tables_number       1
  _symmetry_cell_setting            triclinic
  loop_
  _symmetry_equiv_pos_as_xyz
 x,y,z
_cell_length_a 38.3188
_cell_length_b 38.3188
_cell_length_c 38.3187
_cell_angle_alpha 99.035900
_cell_angle_beta 80.963800
_cell_angle_gamma 99.029200
loop_
  _atom_site_label
  _atom_site_type_symbol
  _atom_site_fract_x
  _atom_site_fract_y
  _atom_site_fract_z
O1 O 0.54115 0.51021 0.03266
 O2 O 0.44540 0.50214 0.02534
 O3 O 0.48835 0.45813 0.03283
 O4 O 0.49784 0.55384 0.02519
 O5 O 0.51000 0.54171 -0.03338
 O6 O 0.50065 0.44601 -0.02573
 O7 O 0.45726 0.48956 -0.03318
 O8 O 0.55303 0.49779 -0.02591
 Cu9 Cu 0.49202 0.50727 0.03489
 Cu10 Cu 0.50640 0.49258 -0.03544
 C11 C 0.56336 0.50523 0.00463
 C12 C 0.43500 0.49464 -0.00519
 C13 C 0.49307 0.43581 0.00485
 C14 C 0.50536 0.56403 -0.00540
 O15 O -0.03289 0.54242 0.51043
 O16 O -0.02562 0.44666 0.50219
 O17 O -0.02543 0.49904 0.55397
 O18 O -0.03307 0.48968 0.45827
 O19 O 0.02549 0.50183 0.44614
 O20 O 0.03313 0.51133 0.54184
 O21 O 0.03295 0.45852 0.48977
 O22 O 0.02563 0.55428 0.49784
 Cu23 Cu -0.03514 0.49329 0.50740
 Cu24 Cu 0.03519 0.50765 0.49271
 C25 C -0.00489 0.56468 0.50536
 C26 C 0.00492 0.43632 0.49476
 C27 C 0.00516 0.50661 0.56416
 C28 C -0.00509 0.49432 0.43595
 O29 O 0.50236 0.02533 0.55428
 O30 O 0.51043 0.03264 0.45853
 O31 O 0.45836 0.03280 0.51133
 O32 O 0.55407 0.02517 0.50185
 O33 O 0.54194 -0.03340 0.48968
 O34 O 0.44625 -0.02575 0.49904
 O35 O 0.49802 -0.02592 0.44665
 O36 O 0.48979 -0.03319 0.54242
 Cu37 Cu 0.50749 0.03487 0.50766
 Cu38 Cu 0.49281 -0.03546 0.49329
 C39 C 0.49484 -0.00520 0.56469
 C40 C 0.50545 0.00461 0.43633
 C41 C 0.43604 0.00483 0.50662
 C42 C 0.56426 -0.00542 0.49433
 C43 C 0.49427 -0.03689 -0.07746
 C44 C 0.50041 -0.07038 -0.07142
 C45 C 0.50615 -0.07665 -0.03787
 C46 C 0.50751 -0.04795 -0.00960
 C47 C 0.49968 -0.01426 -0.01468
 C48 C 0.49219 -0.00894 -0.04846
 C49 C 0.48171 0.02377 -0.05187
 C50 C 0.48134 0.05154 -0.02376
 C51 C 0.49144 0.04788 0.00906
 C52 C 0.49929 0.01419 0.01413
 C53 C 0.51757 -0.05162 0.02323
 C54 C 0.51720 -0.02385 0.05134
 C55 C 0.50677 0.00887 0.04790
 C56 C 0.50476 0.03683 0.07688
 C57 C 0.49863 0.07033 0.07086
 C58 C 0.49284 0.07659 0.03732
 H59 H 0.47275 0.02811 -0.07601
 H60 H 0.47213 0.07561 -0.02794
 H61 H 0.52674 -0.07571 0.02743
 H62 H 0.52608 -0.02822 0.07551
 H63 H 0.50067 -0.09209 -0.09329
 H64 H 0.49842 0.09204 0.09274
 C65 C 0.03769 0.50665 0.92335
 C66 C 0.07123 0.50090 0.92960
 C67 C 0.07727 0.49473 0.96309
 C68 C 0.04827 0.49266 0.99104
 C69 C 0.01449 0.50015 0.98572
 C70 C 0.00941 0.50800 0.95204
 C71 C -0.02343 0.51805 0.94837
 C72 C -0.05155 0.51765 0.97613
 C73 C -0.04810 0.50722 1.00885
 C74 C -0.01432 0.49975 1.01418
 C75 C 0.05168 0.48216 1.02374
 C76 C 0.02357 0.48181 1.05152
 C77 C -0.00924 0.49191 1.04786
 C78 C -0.03751 0.49331 1.07657
 C79 C -0.07105 0.49908 1.07031
 C80 C -0.07708 0.50519 1.03681
 H81 H -0.02763 0.52723 0.92429
 H82 H -0.07572 0.52652 0.97177
 H83 H 0.07582 0.47320 1.02809
 H84 H 0.02775 0.47260 1.07559
 H85 H 0.09311 0.50116 0.90789
 H86 H -0.09293 0.49887 1.09202
 C87 C -0.03671 -0.07753 0.50570
 C88 C -0.07020 -0.07149 0.49954
 C89 C -0.07646 -0.03794 0.49380
 C90 C -0.04777 -0.00968 0.49244
 C91 C -0.01408 -0.01475 0.50029
 C92 C -0.00876 -0.04853 0.50777
 C93 C 0.02394 -0.05194 0.51827
 C94 C 0.05171 -0.02383 0.51863
 C95 C 0.04805 0.00898 0.50852
 C96 C 0.01437 0.01405 0.50068
 C97 C -0.05144 0.02316 0.48239
 C98 C -0.02368 0.05127 0.48277
 C99 C 0.00904 0.04783 0.49319
 C100 C 0.03701 0.07681 0.49520
 C101 C 0.07050 0.07077 0.50133
 C102 C 0.07676 0.03724 0.50713
 H103 H 0.02828 -0.07608 0.52723
 H104 H 0.07578 -0.02801 0.52784
 H105 H -0.07552 0.02736 0.47321
 H106 H -0.02804 0.07545 0.47389
 H107 H -0.09191 -0.09336 0.49928
 H108 H 0.09221 0.09265 0.50154
 C109 C -0.32841 0.51036 1.01305
 N110 N -0.34058 0.49976 0.98113
 N111 N -0.37501 0.49849 0.97840
 C112 C -0.39856 0.50763 1.00753
 N113 N -0.38639 0.51828 1.03947
 N114 N -0.35193 0.51970 1.04216
 C115 C -0.29056 0.51104 1.01613
 N116 N -0.27770 0.52436 1.04730
 N117 N -0.24349 0.52439 1.05021
 C118 C -0.22094 0.51095 1.02212
 N119 N -0.23380 0.49766 0.99096
 N120 N -0.26796 0.49777 0.98800
 C121 C -0.18341 0.51024 1.02555
 N122 N -0.16199 0.49304 0.99896
 N123 N -0.12814 0.49181 1.00231
 C124 C -0.11422 0.50814 1.03216
 N125 N -0.13582 0.52505 1.05888
 N126 N -0.16973 0.52614 1.05561
 C127 C 0.32867 0.48947 0.98653
 N128 N 0.34053 0.49822 1.01876
 N129 N 0.37497 0.49953 1.02148
 C130 C 0.39889 0.49234 0.99203
 N131 N 0.38698 0.48352 0.95980
 N132 N 0.35250 0.48203 0.95711
 C133 C 0.29082 0.48879 0.98349
 N134 N 0.27819 0.47659 0.95200
 N135 N 0.24397 0.47655 0.94913
 C136 C 0.22117 0.48888 0.97758
 N137 N 0.23380 0.50106 1.00907
 N138 N 0.26797 0.50093 1.01199
 C139 C 0.18364 0.48961 0.97422
 N140 N 0.16212 0.50639 1.00103
 N141 N 0.12826 0.50766 0.99772
 C142 C 0.11443 0.49174 0.96770
 N143 N 0.13614 0.47525 0.94076
 N144 N 0.17006 0.47415 0.94397
 C145 C -0.01319 -0.32898 0.51063
 N146 N 0.01904 -0.34084 0.50186
 N147 N 0.02176 -0.37528 0.50051
 C148 C -0.00768 -0.39921 0.50768
 N149 N -0.03992 -0.38729 0.51652
 N150 N -0.04260 -0.35281 0.51805
 C151 C -0.01624 -0.29112 0.51137
 N152 N -0.04773 -0.27850 0.52358
 N153 N -0.05061 -0.24427 0.52368
 C154 C -0.02216 -0.22146 0.51137
 N155 N 0.00933 -0.23408 0.49916
 N156 N 0.01226 -0.26826 0.49925
 C157 C -0.02554 -0.18391 0.51070
 N158 N 0.00127 -0.16237 0.49394
 N159 N -0.00205 -0.12851 0.49272
 C160 C -0.03208 -0.11470 0.50865
 N161 N -0.05902 -0.13643 0.52511
 N162 N -0.05579 -0.17035 0.52617
 C163 C 0.01332 0.32809 0.48970
 N164 N 0.04243 0.35159 0.48036
 N165 N 0.03975 0.38606 0.48175
 C166 C 0.00782 0.39824 0.49237
 N167 N -0.02132 0.37471 0.50153
 N168 N -0.01861 0.34028 0.50029
 C169 C 0.01639 0.29025 0.48908
 N170 N -0.01175 0.26767 0.50237
 N171 N -0.00879 0.23352 0.50252
 C172 C 0.02236 0.22063 0.48925
 N173 N 0.05046 0.24316 0.47579
 N174 N 0.04755 0.27737 0.47578
 C175 C 0.02577 0.18311 0.49001
 N176 N 0.05583 0.16941 0.47413
 N177 N 0.05909 0.13551 0.47527
 C178 C 0.03236 0.11394 0.49221
 N179 N 0.00253 0.12788 0.50853
 N180 N -0.00081 0.16173 0.50725
 C181 C 0.48952 -0.01346 -0.32896
 N182 N 0.49829 0.01877 -0.34083
 N183 N 0.49966 0.02148 -0.37527
 C184 C 0.49251 -0.00797 -0.39920
 N185 N 0.48366 -0.04021 -0.38728
 N186 N 0.48211 -0.04288 -0.35280
 C187 C 0.48874 -0.01649 -0.29109
 N188 N 0.47652 -0.04797 -0.27846
 N189 N 0.47639 -0.05084 -0.24423
 C190 C 0.48867 -0.02238 -0.22141
 N191 N 0.50089 0.00910 -0.23404
 N192 N 0.50084 0.01202 -0.26823
 C193 C 0.48932 -0.02574 -0.18386
 N194 N 0.50606 0.00108 -0.16231
 N195 N 0.50726 -0.00224 -0.12844
 C196 C 0.49133 -0.03227 -0.11463
 N197 N 0.47488 -0.05920 -0.13637
 N198 N 0.47384 -0.05599 -0.17030
 C199 C 0.51044 0.01305 0.32811
 N200 N 0.51980 0.04215 0.35162
 N201 N 0.51844 0.03946 0.38608
 C202 C 0.50782 0.00752 0.39825
 N203 N 0.49865 -0.02161 0.37471
 N204 N 0.49986 -0.01888 0.34029
 C205 C 0.51103 0.01614 0.29028
 N206 N 0.49772 -0.01198 0.26770
 N207 N 0.49753 -0.00901 0.23356
 C208 C 0.51079 0.02215 0.22069
 N209 N 0.52427 0.05023 0.24322
 N210 N 0.52432 0.04731 0.27741
 C211 C 0.51000 0.02558 0.18317
 N212 N 0.52588 0.05564 0.16947
 N213 N 0.52471 0.05890 0.13558
 C214 C 0.50776 0.03219 0.11402
 N215 N 0.49145 0.00235 0.12796
 N216 N 0.49274 -0.00100 0.16179
 C217 C 0.51146 -0.32777 -0.01412
 N218 N 0.52065 -0.35140 -0.04317
 N219 N 0.51896 -0.38587 -0.04039
 C220 C 0.50818 -0.39791 -0.00841
 N221 N 0.49921 -0.37424 0.02067
 N222 N 0.50075 -0.33981 0.01785
 C223 C 0.51225 -0.28996 -0.01729
 N224 N 0.49884 -0.26737 0.01075
 N225 N 0.49872 -0.23323 0.00772
 C226 C 0.51217 -0.22041 -0.02342
 N227 N 0.52577 -0.24295 -0.05142
 N228 N 0.52574 -0.27714 -0.04843
 C229 C 0.51137 -0.18294 -0.02687
 N230 N 0.52760 -0.16910 -0.05675
 N231 N 0.52643 -0.13519 -0.05996
 C232 C 0.50911 -0.11380 -0.03337
 N233 N 0.49243 -0.12790 -0.00375
 N234 N 0.49373 -0.16173 -0.00045
 C235 C 0.48709 0.32763 0.01358
 N236 N 0.49780 0.33968 -0.01839
 N237 N 0.49929 0.37410 -0.02121
 C238 C 0.49027 0.39775 0.00786
 N239 N 0.47949 0.38571 0.03984
 N240 N 0.47785 0.35124 0.04263
 C241 C 0.48636 0.28983 0.01675
 N242 N 0.47291 0.27700 0.04790
 N243 N 0.47295 0.24282 0.05089
 C244 C 0.48659 0.22030 0.02289
 N245 N 0.49999 0.23314 -0.00826
 N246 N 0.49981 0.26726 -0.01129
 C247 C 0.48745 0.18285 0.02634
 N248 N 0.50509 0.16166 -0.00010
 N249 N 0.50645 0.12783 0.00320
 C250 C 0.48982 0.11373 0.03284
 N251 N 0.47251 0.13511 0.05944
 N252 N 0.47128 0.16900 0.05623
 C253 C -0.32754 -0.01415 0.48829
 N254 N -0.33959 0.01782 0.49900
 N255 N -0.37402 0.02064 0.50051
 C256 C -0.39768 -0.00843 0.49152
 N257 N -0.38564 -0.04041 0.48076
 N258 N -0.35116 -0.04320 0.47909
 C259 C -0.28974 -0.01733 0.48753
 N260 N -0.27691 -0.04848 0.47406
 N261 N -0.24273 -0.05147 0.47405
 C262 C -0.22020 -0.02348 0.48768
 N263 N -0.23304 0.00766 0.50112
 N264 N -0.26716 0.01071 0.50097
 C265 C -0.18274 -0.02693 0.48851
 N266 N -0.16155 -0.00052 0.50617
 N267 N -0.12772 -0.00383 0.50750
 C268 C -0.11361 -0.03344 0.49082
 N269 N -0.13499 -0.06002 0.47348
 N270 N -0.16889 -0.05681 0.47229
 C271 C 0.32784 0.01353 0.51268
 N272 N 0.35145 0.04258 0.52191
 N273 N 0.38593 0.03980 0.52024
 C274 C 0.39798 0.00783 0.50944
 N275 N 0.37433 -0.02125 0.50044
 N276 N 0.33990 -0.01843 0.50196
 C277 C 0.29004 0.01669 0.51345
 N278 N 0.26746 -0.01135 0.50002
 N279 N 0.23333 -0.00833 0.49988
 C280 C 0.22049 0.02281 0.51329
 N281 N 0.24302 0.05082 0.52691
 N282 N 0.27720 0.04784 0.52691
 C283 C 0.18303 0.02626 0.51246
 N284 N 0.16919 0.05615 0.52863
 N285 N 0.13529 0.05936 0.52743
 C286 C 0.11390 0.03275 0.51013
 N287 N 0.12800 0.00312 0.49350
 N288 N 0.16183 -0.00018 0.49484
 C289 C -0.01379 0.48816 1.32773
 N290 N -0.04286 0.47901 1.35136
 N291 N -0.04008 0.48072 1.38584
 C292 C -0.00810 0.49148 1.39788
 N293 N 0.02099 0.50041 1.37421
 N294 N 0.01818 0.49886 1.33978
 C295 C -0.01695 0.48733 1.28992
 N296 N 0.01111 0.50069 1.26731
 N297 N 0.00808 0.50078 1.23317
 C298 C -0.02306 0.48736 1.22035
 N299 N -0.05108 0.47381 1.24290
 N300 N -0.04811 0.47388 1.27710
 C301 C -0.02651 0.48813 1.18287
 N302 N -0.05641 0.47195 1.16905
 N303 N -0.05962 0.47310 1.13514
 C304 C -0.03300 0.49035 1.11372
 N305 N -0.00336 0.50699 1.12780
 N306 N -0.00006 0.50570 1.16164
 C307 C 0.01389 0.51255 0.67234
 N308 N 0.04293 0.52182 0.64873
 N309 N 0.04014 0.52020 0.61427
 C310 C 0.00817 0.50941 0.60222
 N311 N -0.02090 0.50035 0.62587
 N312 N -0.01807 0.50182 0.66029
 C313 C 0.01707 0.51325 0.71013
 N314 N -0.01095 0.49975 0.73269
 N315 N -0.00790 0.49954 0.76680
 C316 C 0.02323 0.51298 0.77965
 N317 N 0.05121 0.52668 0.75715
 N318 N 0.04821 0.52673 0.72297
 C319 C 0.02669 0.51208 0.81710
 N320 N 0.05655 0.52831 0.83097
 N321 N 0.05977 0.52707 0.86486
 C322 C 0.03320 0.50968 0.88621
 N323 N 0.00360 0.49299 0.87208
 N324 N 0.00029 0.49437 0.83826
   
