data_POSCAR
  _audit_creation_date              2014-09-24
  _audit_creation_method            'ToBaCCo'
  _symmetry_space_group_name_H-M    'P1'
  _symmetry_Int_Tables_number       1
  _symmetry_cell_setting            triclinic
  loop_
  _symmetry_equiv_pos_as_xyz
 x,y,z
_cell_length_a 38.6279
_cell_length_b 38.7872
_cell_length_c 38.9246
_cell_angle_alpha 90.075800
_cell_angle_beta 90.012900
_cell_angle_gamma 89.998900
loop_
  _atom_site_label
  _atom_site_type_symbol
  _atom_site_fract_x
  _atom_site_fract_y
  _atom_site_fract_z
C1 C 0.27584 0.24903 0.22450
 C2 C 0.25009 0.27462 0.22485
 C3 C 0.22443 0.27503 0.25043
 C4 C 0.22474 0.24938 0.27589
 C5 C 0.25026 0.22355 0.27599
 C6 C 0.27570 0.22360 0.25018
 H7 H 0.25003 0.29431 0.20514
 H8 H 0.20504 0.24952 0.29569
 H9 H 0.29545 0.20378 0.25009
 C10 C 0.72396 -0.24993 0.22365
 C11 C 0.74961 -0.27579 0.22432
 C12 C 0.77516 -0.27653 0.25018
 C13 C 0.77458 -0.25082 0.27577
 C14 C 0.74940 -0.22472 0.27557
 C15 C 0.72432 -0.22444 0.24946
 H16 H 0.74970 -0.29548 0.20455
 H17 H 0.79384 -0.25095 0.29601
 H18 H 0.70498 -0.20421 0.24940
 C19 C 0.72511 0.25001 0.77526
 C20 C 0.75085 0.27561 0.77500
 C21 C 0.77630 0.27651 0.74905
 C22 C 0.77553 0.25097 0.72324
 C23 C 0.75014 0.22502 0.72326
 C24 C 0.72502 0.22481 0.74933
 H25 H 0.75092 0.29490 0.79513
 H26 H 0.79477 0.25113 0.70300
 H27 H 0.70532 0.20495 0.74945
 C28 C 0.27493 -0.24914 0.77638
 C29 C 0.27506 -0.22407 0.75039
 C30 C 0.24989 -0.22431 0.72436
 C31 C 0.22439 -0.25016 0.72445
 C32 C 0.22357 -0.27556 0.75031
 C33 C 0.24907 -0.27464 0.77622
 H34 H 0.29486 -0.20429 0.75041
 H35 H 0.20512 -0.25034 0.70424
 H36 H 0.24896 -0.29385 0.79639
 C37 C 0.72503 -0.24904 0.77611
 C38 C 0.75083 -0.27457 0.77590
 C39 C 0.77626 -0.27549 0.74996
 C40 C 0.77545 -0.25007 0.72413
 C41 C 0.75000 -0.22420 0.72412
 C42 C 0.72487 -0.22393 0.75017
 H43 H 0.75093 -0.29379 0.79605
 H44 H 0.79468 -0.25027 0.70389
 H45 H 0.70512 -0.20412 0.75025
 C46 C 0.27567 0.24947 0.77524
 C47 C 0.27549 0.22401 0.74954
 C48 C 0.25002 0.22393 0.72376
 C49 C 0.22452 0.24975 0.72390
 C50 C 0.22427 0.27543 0.74938
 C51 C 0.24995 0.27507 0.77494
 H52 H 0.29523 0.20418 0.74960
 H53 H 0.20480 0.24985 0.70411
 H54 H 0.24992 0.29479 0.79467
 C55 C 0.27701 -0.24962 0.22348
 C56 C 0.25141 -0.27552 0.22419
 C57 C 0.22564 -0.27573 0.24965
 C58 C 0.22566 -0.24984 0.27487
 C59 C 0.25093 -0.22384 0.27482
 C60 C 0.27636 -0.22384 0.24903
 H61 H 0.25139 -0.29564 0.20487
 H62 H 0.20592 -0.24992 0.29463
 H63 H 0.29572 -0.20364 0.24901
 C64 C 0.72391 0.24914 0.22498
 C65 C 0.74961 0.27476 0.22538
 C66 C 0.77524 0.27515 0.25097
 C67 C 0.77497 0.24949 0.27640
 C68 C 0.74948 0.22365 0.27644
 C69 C 0.72406 0.22369 0.25062
 H70 H 0.74966 0.29446 0.20568
 H71 H 0.79466 0.24963 0.29622
 H72 H 0.70433 0.20384 0.25048
 O73 O 0.22199 0.03307 0.46660
 O74 O 0.22203 -0.03434 0.53320
 O75 O 0.22189 0.03297 0.53332
 O76 O 0.22204 -0.03420 0.46643
 O77 O 0.27924 -0.03398 0.46634
 O78 O 0.27909 0.03289 0.53355
 O79 O 0.27922 -0.03410 0.53344
 O80 O 0.27919 0.03297 0.46649
 Cu81 Cu 0.21624 -0.00064 0.49989
 Cu82 Cu 0.28493 -0.00056 0.49997
 C83 C 0.25059 0.04444 0.45518
 C84 C 0.25063 -0.04565 0.54468
 C85 C 0.25046 0.04435 0.54482
 C86 C 0.25066 -0.04545 0.45495
 O87 O 0.72071 0.03315 0.53357
 O88 O 0.72058 -0.03402 0.46653
 O89 O 0.72062 -0.03387 0.53362
 O90 O 0.72063 0.03295 0.46652
 O91 O 0.77783 0.03304 0.46664
 O92 O 0.77782 -0.03407 0.53342
 O93 O 0.77778 -0.03424 0.46667
 O94 O 0.77791 0.03326 0.53335
 Cu95 Cu 0.71489 -0.00045 0.50008
 Cu96 Cu 0.78358 -0.00051 0.50003
 C97 C 0.74934 0.04468 0.54480
 C98 C 0.74916 -0.04556 0.45521
 C99 C 0.74923 -0.04536 0.54489
 C100 C 0.74924 0.04438 0.45521
 O101 O 0.46657 0.22006 0.03309
 O102 O 0.53397 0.22019 -0.03390
 O103 O 0.53380 0.22008 0.03318
 O104 O 0.46669 0.22019 -0.03400
 O105 O 0.46654 0.27716 -0.03366
 O106 O 0.53393 0.27704 0.03319
 O107 O 0.53411 0.27715 -0.03354
 O108 O 0.46640 0.27702 0.03308
 Cu109 Cu 0.50026 0.21440 -0.00044
 Cu110 Cu 0.50024 0.28282 -0.00023
 C111 C 0.45502 0.24853 0.04447
 C112 C 0.54553 0.24870 -0.04508
 C113 C 0.54527 0.24855 0.04460
 C114 C 0.45518 0.24870 -0.04522
 O115 O 0.53428 0.72291 0.03348
 O116 O 0.46650 0.72317 -0.03311
 O117 O 0.53405 0.72320 -0.03320
 O118 O 0.46659 0.72286 0.03357
 O119 O 0.46683 0.77982 0.03419
 O120 O 0.53392 0.78016 -0.03299
 O121 O 0.46659 0.78013 -0.03293
 O122 O 0.53396 0.77987 0.03413
 Cu123 Cu 0.50036 0.71731 0.00017
 Cu124 Cu 0.50032 0.78572 0.00061
 C125 C 0.54561 0.75134 0.04517
 C126 C 0.45505 0.75169 -0.04438
 C127 C 0.54544 0.75173 -0.04447
 C128 C 0.45528 0.75127 0.04528
 O129 O 0.03347 0.46682 0.22247
 O130 O -0.03433 0.53362 0.22244
 O131 O 0.03335 0.53380 0.22225
 O132 O -0.03404 0.46671 0.22266
 O133 O -0.03388 0.46698 0.27942
 O134 O 0.03354 0.53406 0.27902
 O135 O -0.03371 0.53434 0.27920
 O136 O 0.03336 0.46678 0.27924
 Cu137 Cu -0.00039 0.50024 0.21675
 Cu138 Cu -0.00017 0.50058 0.28493
 C139 C 0.04486 0.45536 0.25086
 C140 C -0.04551 0.54537 0.25081
 C141 C 0.04494 0.54530 0.25057
 C142 C -0.04540 0.45542 0.25110
 O143 O 0.03332 0.53454 0.72111
 O144 O -0.03374 0.46696 0.72069
 O145 O -0.03384 0.53439 0.72094
 O146 O 0.03349 0.46719 0.72084
 O147 O 0.03331 0.46702 0.77761
 O148 O -0.03408 0.53412 0.77771
 O149 O -0.03427 0.46723 0.77745
 O150 O 0.03359 0.53398 0.77787
 Cu151 Cu -0.00019 0.50078 0.71519
 Cu152 Cu -0.00037 0.50058 0.78336
 C153 C 0.04492 0.54568 0.74957
 C154 C -0.04546 0.45567 0.74900
 C155 C -0.04541 0.54567 0.74935
 C156 C 0.04484 0.45568 0.74921
 C157 C 0.35213 0.24866 0.14763
 N158 N 0.34610 0.22002 0.16672
 N159 N 0.32197 0.22017 0.19117
 C160 C 0.30278 0.24888 0.19738
 N161 N 0.30883 0.27748 0.17816
 N162 N 0.33309 0.27741 0.15384
 C163 C 0.37883 0.24858 0.12076
 N164 N 0.38804 0.27833 0.10485
 N165 N 0.41236 0.27831 0.08058
 C166 C 0.42821 0.24851 0.07119
 N167 N 0.41893 0.21875 0.08702
 N168 N 0.39474 0.21879 0.11143
 C169 C 0.64893 0.75082 0.14793
 N170 N 0.65135 0.77718 0.17075
 N171 N 0.67547 0.77688 0.19521
 C172 C 0.69842 0.75038 0.19773
 N173 N 0.69596 0.72413 0.17464
 N174 N 0.67164 0.72425 0.15036
 C175 C 0.62214 0.75098 0.12116
 N176 N 0.61485 0.72188 0.10313
 N177 N 0.59036 0.72196 0.07900
 C178 C 0.57250 0.75122 0.07182
 N179 N 0.57990 0.78036 0.08973
 N180 N 0.60417 0.78021 0.11407
 C181 C 0.64891 0.24921 -0.14777
 N182 N 0.65503 0.22063 -0.16699
 N183 N 0.67918 0.22090 -0.19143
 C184 C 0.69830 0.24967 -0.19748
 N185 N 0.69218 0.27820 -0.17810
 N186 N 0.66790 0.27801 -0.15380
 C187 C 0.62210 0.24903 -0.12100
 N188 N 0.61277 0.27873 -0.10499
 N189 N 0.58832 0.27863 -0.08085
 C190 C 0.57245 0.24879 -0.07170
 N191 N 0.58185 0.21907 -0.08763
 N192 N 0.60617 0.21921 -0.11191
 C193 C 0.35140 0.75155 -0.14687
 N194 N 0.34527 0.78013 -0.16601
 N195 N 0.32103 0.77991 -0.19038
 C196 C 0.30183 0.75117 -0.19643
 N197 N 0.30795 0.72264 -0.17714
 N198 N 0.33232 0.72279 -0.15291
 C199 C 0.37830 0.75165 -0.12018
 N200 N 0.38765 0.72191 -0.10435
 N201 N 0.41217 0.72192 -0.08026
 C202 C 0.42809 0.75172 -0.07098
 N203 N 0.41866 0.78149 -0.08672
 N204 N 0.39428 0.78144 -0.11096
 C205 C 0.14790 0.35195 0.25070
 N206 N 0.16690 0.34570 0.22204
 N207 N 0.19123 0.32136 0.22199
 C208 C 0.19740 0.30217 0.25053
 N209 N 0.17826 0.30842 0.27916
 N210 N 0.15405 0.33289 0.27928
 C211 C 0.12113 0.37885 0.25077
 N212 N 0.10525 0.38822 0.28046
 N213 N 0.08103 0.41269 0.28051
 C214 C 0.07167 0.42853 0.25084
 N215 N 0.08748 0.41909 0.22114
 N216 N 0.11184 0.39477 0.22112
 C217 C 0.14813 0.64891 0.75008
 N218 N 0.15079 0.67142 0.72357
 N219 N 0.17502 0.69586 0.72373
 C220 C 0.19781 0.69866 0.75024
 N221 N 0.19508 0.67590 0.77668
 N222 N 0.17066 0.65164 0.77668
 C223 C 0.12132 0.62205 0.74996
 N224 N 0.11392 0.60416 0.77901
 N225 N 0.08947 0.57992 0.77893
 C226 C 0.07175 0.57248 0.74972
 N227 N 0.07926 0.59026 0.72063
 N228 N 0.10349 0.61471 0.72079
 C229 C -0.14935 0.64796 0.25065
 N230 N -0.17202 0.65040 0.22414
 N231 N -0.19649 0.67461 0.22410
 C232 C -0.19915 0.69760 0.25040
 N233 N -0.17625 0.69506 0.27684
 N234 N -0.15196 0.67067 0.27705
 C235 C -0.12238 0.62126 0.25071
 N236 N -0.10433 0.61419 0.27979
 N237 N -0.07993 0.58990 0.27987
 C238 C -0.07247 0.57204 0.25078
 N239 N -0.09042 0.57921 0.22166
 N240 N -0.11503 0.60328 0.22166
 C241 C -0.14853 0.35230 0.74879
 N242 N -0.17105 0.34956 0.77538
 N243 N -0.19538 0.32522 0.77537
 C244 C -0.19804 0.30238 0.74894
 N245 N -0.17527 0.30519 0.72242
 N246 N -0.15112 0.32972 0.72227
 C247 C -0.12177 0.37921 0.74879
 N248 N -0.11448 0.39708 0.77792
 N249 N -0.09007 0.42135 0.77801
 C250 C -0.07229 0.42887 0.74888
 N251 N -0.07969 0.41112 0.71970
 N252 N -0.10389 0.38663 0.71970
 C253 C 0.25045 0.14725 0.35245
 N254 N 0.27919 0.15323 0.33331
 N255 N 0.27909 0.17737 0.30899
 C256 C 0.25033 0.19661 0.30298
 N257 N 0.22163 0.19062 0.32226
 N258 N 0.22165 0.16635 0.34644
 C259 C 0.25050 0.12055 0.37919
 N260 N 0.22064 0.11135 0.39512
 N261 N 0.22066 0.08704 0.41928
 C262 C 0.25057 0.07119 0.42853
 N263 N 0.28045 0.08045 0.41267
 N264 N 0.28040 0.10462 0.38837
 C265 C 0.74965 0.14843 0.64687
 N266 N 0.77846 0.16761 0.65270
 N267 N 0.77855 0.19202 0.67681
 C268 C 0.74992 0.19810 0.69618
 N269 N 0.72114 0.17880 0.69032
 N270 N 0.72097 0.15452 0.66608
 C271 C 0.74956 0.12148 0.62031
 N272 N 0.71965 0.10543 0.61132
 N273 N 0.71956 0.08102 0.58720
 C274 C 0.74941 0.07162 0.57134
 N275 N 0.77933 0.08759 0.58039
 N276 N 0.77939 0.11215 0.60437
 C277 C 0.25043 -0.14840 0.64749
 N278 N 0.22161 -0.16747 0.65347
 N279 N 0.22150 -0.19164 0.67776
 C280 C 0.25014 -0.19757 0.69716
 N281 N 0.27893 -0.17836 0.69117
 N282 N 0.27912 -0.15432 0.66675
 C283 C 0.25053 -0.12174 0.62071
 N284 N 0.28042 -0.10577 0.61158
 N285 N 0.28048 -0.08162 0.58727
 C286 C 0.25061 -0.07240 0.57134
 N287 N 0.22071 -0.08830 0.58052
 N288 N 0.22068 -0.11260 0.60469
 C289 C 0.74919 -0.14839 0.35223
 N290 N 0.72047 -0.15434 0.33303
 N291 N 0.72057 -0.17848 0.30865
 C292 C 0.74931 -0.19777 0.30263
 N293 N 0.77800 -0.19181 0.32197
 N294 N 0.77798 -0.16753 0.34622
 C295 C 0.74916 -0.12168 0.37903
 N296 N 0.77902 -0.11253 0.39503
 N297 N 0.77903 -0.08822 0.41924
 C298 C 0.74914 -0.07232 0.42850
 N299 N 0.71925 -0.08154 0.41259
 N300 N 0.71928 -0.10571 0.38822
 C301 C 0.64875 0.75165 -0.14708
 N302 N 0.66774 0.72286 -0.15321
 N303 N 0.69205 0.72271 -0.17747
 C304 C 0.69820 0.75128 -0.19669
 N305 N 0.67909 0.78005 -0.19055
 N306 N 0.65490 0.78027 -0.16615
 C307 C 0.62194 0.75174 -0.12037
 N308 N 0.60601 0.78154 -0.11109
 N309 N 0.58170 0.78157 -0.08681
 C310 C 0.57229 0.75178 -0.07110
 N311 N 0.58815 0.72198 -0.08046
 N312 N 0.61260 0.72198 -0.10458
 C313 C 0.35212 0.24907 -0.14812
 N314 N 0.33312 0.27785 -0.15422
 N315 N 0.30879 0.27793 -0.17847
 C316 C 0.30264 0.24932 -0.19771
 N317 N 0.32178 0.22058 -0.19160
 N318 N 0.34598 0.22042 -0.16722
 C319 C 0.37889 0.24896 -0.12135
 N320 N 0.39478 0.21914 -0.11218
 N321 N 0.41903 0.21903 -0.08783
 C322 C 0.42838 0.24877 -0.07192
 N323 N 0.41256 0.27861 -0.08116
 N324 N 0.38817 0.27868 -0.10537
 C325 C 0.35228 0.75074 0.14816
 N326 N 0.32967 0.72411 0.15069
 N327 N 0.30529 0.72408 0.17489
 C328 C 0.30270 0.75050 0.19777
 N329 N 0.32557 0.77704 0.19517
 N330 N 0.34975 0.77724 0.17078
 C331 C 0.37904 0.75088 0.12140
 N332 N 0.39689 0.78014 0.11420
 N333 N 0.42108 0.78030 0.08982
 C334 C 0.42851 0.75113 0.07198
 N335 N 0.41077 0.72183 0.07927
 N336 N 0.38636 0.72174 0.10345
 C337 C 0.64779 0.24874 0.14802
 N338 N 0.66672 0.27753 0.15432
 N339 N 0.69093 0.27761 0.17869
 C340 C 0.69702 0.24898 0.19785
 N341 N 0.67794 0.22023 0.19155
 N342 N 0.65386 0.22007 0.16704
 C343 C 0.62118 0.24865 0.12111
 N344 N 0.60536 0.21884 0.11170
 N345 N 0.58125 0.21878 0.08721
 C346 C 0.57197 0.24855 0.07140
 N347 N 0.58772 0.27837 0.08087
 N348 N 0.61197 0.27840 0.10521
 C349 C -0.14846 0.64889 0.74964
 N350 N -0.15112 0.67139 0.72312
 N351 N -0.17530 0.69587 0.72331
 C352 C -0.19804 0.69870 0.74985
 N353 N -0.19531 0.67595 0.77628
 N354 N -0.17094 0.65166 0.77626
 C355 C -0.12170 0.62204 0.74955
 N356 N -0.11430 0.60423 0.77864
 N357 N -0.08988 0.57998 0.77860
 C358 C -0.07220 0.57245 0.74940
 N359 N -0.07971 0.59015 0.72027
 N360 N -0.10392 0.61461 0.72038
 C361 C -0.14833 0.35207 0.25124
 N362 N -0.16726 0.34573 0.22255
 N363 N -0.19157 0.32139 0.22251
 C364 C -0.19777 0.30228 0.25109
 N365 N -0.17870 0.30862 0.27975
 N366 N -0.15451 0.33310 0.27986
 C367 C -0.12160 0.37896 0.25127
 N368 N -0.10575 0.38844 0.28094
 N369 N -0.08154 0.41291 0.28093
 C370 C -0.07218 0.42863 0.25120
 N371 N -0.08797 0.41908 0.22152
 N372 N -0.11231 0.39475 0.22157
 C373 C 0.14780 0.35233 0.74923
 N374 N 0.15402 0.33334 0.72058
 N375 N 0.17822 0.30887 0.72066
 C376 C 0.19727 0.30256 0.74932
 N377 N 0.19104 0.32168 0.77793
 N378 N 0.16671 0.34602 0.77793
 C379 C 0.12106 0.37921 0.74920
 N380 N 0.11167 0.39504 0.77890
 N381 N 0.08731 0.41935 0.77892
 C382 C 0.07162 0.42887 0.74919
 N383 N 0.08109 0.41313 0.71947
 N384 N 0.10530 0.38867 0.71950
 C385 C 0.14887 0.64767 0.25008
 N386 N 0.15522 0.66671 0.27867
 N387 N 0.17956 0.69103 0.27851
 C388 C 0.19866 0.69712 0.24984
 N389 N 0.19233 0.67792 0.22130
 N390 N 0.16784 0.65373 0.22138
 C391 C 0.12187 0.62105 0.25019
 N392 N 0.10599 0.61192 0.27993
 N393 N 0.08152 0.58772 0.28006
 C394 C 0.07190 0.57192 0.25042
 N395 N 0.08771 0.58111 0.22066
 N396 N 0.11232 0.60518 0.22056
 C397 C 0.74945 -0.14815 0.64749
 N398 N 0.72076 -0.15414 0.66668
 N399 N 0.72094 -0.17824 0.69103
 C400 C 0.74975 -0.19743 0.69701
 N401 N 0.77840 -0.19143 0.67767
 N402 N 0.77829 -0.16721 0.65345
 C403 C 0.74936 -0.12146 0.62080
 N404 N 0.77921 -0.11227 0.60484
 N405 N 0.77917 -0.08794 0.58071
 C406 C 0.74926 -0.07206 0.57153
 N407 N 0.71939 -0.08132 0.58741
 N408 N 0.71945 -0.10551 0.61169
 C409 C 0.25075 -0.14756 0.35142
 N410 N 0.22197 -0.16663 0.34522
 N411 N 0.22204 -0.19085 0.32093
 C412 C 0.25082 -0.19681 0.30175
 N413 N 0.27957 -0.17758 0.30795
 N414 N 0.27957 -0.15349 0.33237
 C415 C 0.25074 -0.12102 0.37833
 N416 N 0.28062 -0.10516 0.38770
 N417 N 0.28062 -0.08116 0.41222
 C418 C 0.25071 -0.07202 0.42811
 N419 N 0.22081 -0.08781 0.41868
 N420 N 0.22085 -0.11196 0.39430
 C421 C 0.74935 0.14722 0.35267
 N422 N 0.77816 0.16631 0.34669
 N423 N 0.77816 0.19063 0.32257
 C424 C 0.74943 0.19668 0.30335
 N425 N 0.72066 0.17745 0.30934
 N426 N 0.72058 0.15326 0.33359
 C427 C 0.74931 0.12048 0.37932
 N428 N 0.71941 0.10457 0.38848
 N429 N 0.71936 0.08037 0.41274
 C430 C 0.74926 0.07108 0.42856
 N431 N 0.77917 0.08692 0.41934
 N432 N 0.77918 0.11126 0.39522
 C433 C 0.25019 0.14741 0.64741
 N434 N 0.27896 0.15350 0.66649
 N435 N 0.27887 0.17772 0.69078
 C436 C 0.25008 0.19695 0.69680
 N437 N 0.22136 0.19085 0.67757
 N438 N 0.22137 0.16649 0.65341
 C439 C 0.25026 0.12062 0.62074
 N440 N 0.22040 0.11134 0.60481
 N441 N 0.22045 0.08695 0.58068
 C442 C 0.25039 0.07110 0.57148
 N443 N 0.28026 0.08045 0.58734
 N444 N 0.28018 0.10470 0.61161
   
