data_POSCAR
  _audit_creation_date              2014-09-24
  _audit_creation_method            'ToBaCCo'
  _symmetry_space_group_name_H-M    'P1'
  _symmetry_Int_Tables_number       1
  _symmetry_cell_setting            triclinic
  loop_
  _symmetry_equiv_pos_as_xyz
 x,y,z
_cell_length_a 24.8816
_cell_length_b 25.3765
_cell_length_c 25.0741
_cell_angle_alpha 87.737300
_cell_angle_beta 90.181600
_cell_angle_gamma 91.734500
loop_
  _atom_site_label
  _atom_site_type_symbol
  _atom_site_fract_x
  _atom_site_fract_y
  _atom_site_fract_z
C1 C 0.00158 0.43967 0.20588
 C2 C 0.05223 0.44325 0.24014
 C3 C 0.05490 0.48618 0.27095
 C4 C 0.00588 0.52199 0.26512
 C5 C -0.04512 0.44154 0.24503
 C6 C -0.04338 0.48450 0.27589
 C7 C 0.00061 0.49231 0.17347
 C8 C 0.00292 0.53548 0.20461
 H9 H 0.08476 0.41575 0.23794
 H10 H 0.00779 0.55681 0.29064
 H11 H -0.07893 0.41335 0.24543
 H12 H -0.00168 0.49520 0.13019
 C13 C -0.00034 0.45735 0.79214
 C14 C -0.04135 0.45809 0.75072
 C15 C -0.03763 0.50415 0.71585
 C16 C 0.00697 0.54051 0.72880
 C17 C 0.05070 0.46249 0.76436
 C18 C 0.05483 0.50826 0.72952
 C19 C -0.00573 0.50615 0.82014
 C20 C -0.00167 0.55213 0.78482
 H21 H -0.07600 0.43082 0.75071
 H22 H 0.01039 0.57603 0.70135
 H23 H 0.08308 0.43479 0.76957
 H24 H -0.01172 0.50796 0.86297
 C25 C 0.22262 -0.00663 0.43833
 C26 C 0.26043 0.04161 0.44253
 C27 C 0.29136 0.04085 0.48749
 C28 C 0.28218 -0.00896 0.52421
 C29 C 0.25885 -0.05403 0.44280
 C30 C 0.28978 -0.05576 0.48762
 C31 C 0.18990 -0.00892 0.49030
 C32 C 0.22124 -0.01009 0.53528
 H33 H 0.25966 0.07544 0.41458
 H34 H 0.30787 -0.01001 0.56054
 H35 H 0.25689 -0.08592 0.41506
 H36 H 0.14629 -0.00819 0.49142
 C37 C 0.76801 0.00458 0.43599
 C38 C 0.73255 -0.04160 0.43934
 C39 C 0.69871 -0.04356 0.48519
 C40 C 0.70603 0.00128 0.51927
 C41 C 0.73153 0.05170 0.43802
 C42 C 0.69928 0.05023 0.48183
 C43 C 0.79938 0.00441 0.48888
 C44 C 0.76644 0.00272 0.53254
 H45 H 0.73604 -0.07480 0.41352
 H46 H 0.67910 0.00002 0.55466
 H47 H 0.73545 0.08606 0.41081
 H48 H 0.84299 0.00529 0.49158
 C49 C 0.44636 0.22015 1.01975
 C50 C 0.45209 0.25189 1.06648
 C51 C 0.50063 0.28370 1.06635
 C52 C 0.53438 0.27784 1.01897
 C53 C 0.45031 0.25711 0.97414
 C54 C 0.49882 0.28878 0.97317
 C55 C 0.49467 0.18898 1.01822
 C56 C 0.54343 0.22100 1.01787
 H57 H 0.42429 0.24946 1.09997
 H58 H 0.57185 0.30296 1.01873
 H59 H 0.42243 0.25672 0.94055
 H60 H 0.49421 0.14622 1.01642
 C61 C 0.43671 0.77843 0.99516
 C62 C 0.43742 0.73728 0.95234
 C63 C 0.48086 0.70588 0.95585
 C64 C 0.51913 0.71818 1.00237
 C65 C 0.43923 0.74680 1.04808
 C66 C 0.48246 0.71524 1.05186
 C67 C 0.48768 0.80750 0.99038
 C68 C 0.53288 0.77406 0.99431
 H69 H 0.40989 0.73734 0.91856
 H70 H 0.55417 0.69202 1.00561
 H71 H 0.41131 0.75124 1.08075
 H72 H 0.49140 0.85019 0.98509
 B73 B 0.99037 1.04915 0.02037
 B74 B 0.98925 1.05229 -0.04666
 B75 B 1.04427 1.03178 -0.01404
 B76 B 1.02427 0.99567 0.04025
 B77 B 0.95683 0.99383 0.04107
 B78 B 0.93498 1.02892 -0.01249
 B79 B 0.98889 0.94523 -0.04745
 B80 B 0.99008 0.94200 0.01978
 B81 B 0.93495 0.96260 -0.01295
 B82 B 0.95488 0.99884 -0.06738
 B83 B 1.02259 1.00069 -0.06840
 B84 B 1.04397 0.96570 -0.01452
 B85 B 0.56060 0.50024 0.47648
 B86 B 0.56116 0.49917 0.54352
 B87 B 0.53985 0.55243 0.50901
 B88 B 0.50564 0.53194 0.45555
 B89 B 0.50572 0.46561 0.45674
 B90 B 0.54007 0.44557 0.51142
 B91 B 0.45169 0.49563 0.54440
 B92 B 0.45087 0.49680 0.47714
 B93 B 0.47227 0.44298 0.51192
 B94 B 0.50679 0.46381 0.56556
 B95 B 0.50665 0.53000 0.56383
 B96 B 0.47230 0.55055 0.50952
 C97 C 0.99503 1.19430 0.09338
 C98 C 0.95871 1.20675 0.13390
 C99 C 0.95858 1.25881 0.15282
 C100 C 0.99524 1.29791 0.13148
 C101 C 1.03200 1.28519 0.09132
 C102 C 1.03209 1.23313 0.07240
 C103 C 1.06997 1.22100 0.03301
 C104 C 1.10678 1.25922 0.01307
 C105 C 1.10617 1.31031 0.03099
 C106 C 1.06928 1.32340 0.06967
 C107 C 0.92148 1.27046 0.19308
 C108 C 0.88600 1.23169 0.21438
 C109 C 0.88658 1.18069 0.19624
 C110 C 0.92225 1.16814 0.15628
 C111 C 0.99734 1.35000 0.15356
 C112 C 0.99921 1.39176 0.17496
 C113 C 0.99305 1.14230 0.07160
 C114 C 0.99155 1.10024 0.05114
 H115 H 1.07194 1.18186 0.01762
 H116 H 1.13607 1.24910 -0.01630
 H117 H 1.13465 1.33992 0.01507
 H118 H 1.07043 1.36363 0.08253
 H119 H 0.91947 1.30956 0.20854
 H120 H 0.85804 1.24124 0.24529
 H121 H 0.85938 1.15070 0.21340
 H122 H 0.92118 1.12789 0.14343
 C123 C 0.99462 0.79152 0.09530
 C124 C 0.96857 0.74916 0.06942
 C125 C 0.97199 0.69673 0.09124
 C126 C 1.00024 0.68697 0.13965
 C127 C 1.02668 0.72937 0.16524
 C128 C 1.02406 0.78171 0.14289
 C129 C 1.05135 0.82323 0.16888
 C130 C 1.08054 0.81336 0.21555
 C131 C 1.08291 0.76233 0.23751
 C132 C 1.05631 0.72068 0.21287
 C133 C 0.94704 0.65497 0.06361
 C134 C 0.91952 0.66467 0.01589
 C135 C 0.91556 0.71594 -0.00501
 C136 C 0.93934 0.75789 0.02149
 C137 C 1.00171 0.63347 0.16315
 C138 C 1.00243 0.58895 0.18229
 C139 C 0.99260 0.84473 0.07173
 C140 C 0.99116 0.88811 0.05039
 H141 H 1.05052 0.86364 0.15341
 H142 H 1.10137 0.84547 0.23486
 H143 H 1.10558 0.75493 0.27382
 H144 H 1.05948 0.68164 0.23139
 H145 H 0.94887 0.61440 0.07833
 H146 H 0.90107 0.63221 -0.00494
 H147 H 0.89426 0.72322 -0.04211
 H148 H 0.93517 0.79705 0.00355
 C149 C 0.99145 1.20730 -0.10387
 C150 C 1.04125 1.23328 -0.11583
 C151 C 1.04285 1.28816 -0.12881
 C152 C 0.99458 1.31634 -0.12988
 C153 C 0.94515 1.29073 -0.11560
 C154 C 0.94353 1.23583 -0.10265
 C155 C 0.89355 1.21061 -0.08924
 C156 C 0.84652 1.23905 -0.08868
 C157 C 0.84818 1.29294 -0.10113
 C158 C 0.89684 1.31870 -0.11456
 C159 C 1.09300 1.31355 -0.14111
 C160 C 1.14020 1.28532 -0.14061
 C161 C 1.13862 1.23149 -0.12789
 C162 C 1.08983 1.20554 -0.11551
 C163 C 0.99499 1.36948 -0.15251
 C164 C 0.99641 1.41170 -0.17591
 C165 C 0.99000 1.15180 -0.08980
 C166 C 0.98931 1.10656 -0.07445
 H167 H 0.89025 1.16876 -0.07928
 H168 H 0.80859 1.21919 -0.07859
 H169 H 0.81157 1.31489 -0.10048
 H170 H 0.89627 1.36070 -0.12382
 H171 H 1.09628 1.35544 -0.15087
 H172 H 1.17822 1.30535 -0.15004
 H173 H 1.17540 1.20978 -0.12744
 H174 H 1.09068 1.16369 -0.10555
 C175 C 0.98866 0.79993 -0.11888
 C176 C 0.95659 0.78746 -0.16353
 C177 C 0.95802 0.73625 -0.18425
 C178 C 0.99105 0.69781 -0.15963
 C179 C 1.02190 0.70993 -0.11391
 C180 C 1.02074 0.76122 -0.09351
 C181 C 1.05138 0.77237 -0.04737
 C182 C 1.08218 0.73386 -0.02206
 C183 C 1.08347 0.68367 -0.04213
 C184 C 1.05385 0.67163 -0.08756
 C185 C 0.92578 0.72464 -0.22914
 C186 C 0.89284 0.76256 -0.25266
 C187 C 0.89115 0.81255 -0.23205
 C188 C 0.92250 0.82502 -0.18790
 C189 C 0.99304 0.64562 -0.18078
 C190 C 0.99533 0.60190 -0.19739
 C191 C 0.98796 0.85206 -0.09790
 C192 C 0.98810 0.89423 -0.07788
 H193 H 1.05154 0.81075 -0.03004
 H194 H 1.10511 0.74304 0.01332
 H195 H 1.10748 0.65384 -0.02235
 H196 H 1.05604 0.63196 -0.10154
 H197 H 0.92552 0.68619 -0.24637
 H198 H 0.86834 0.75301 -0.28691
 H199 H 0.86536 0.84182 -0.25027
 H200 H 0.91938 0.86415 -0.17279
 C201 C 1.09960 0.99394 0.18934
 C202 C 1.07770 1.02581 0.22843
 C203 C 1.09927 1.02457 0.28100
 C204 C 1.14340 0.99243 0.29376
 C205 C 1.16483 0.96009 0.25468
 C206 C 1.14254 0.96058 0.20244
 C207 C 1.16386 0.92728 0.16432
 C208 C 1.20662 0.89493 0.17717
 C209 C 1.22881 0.89474 0.22812
 C210 C 1.20826 0.92677 0.26661
 C211 C 1.07577 1.05558 0.31983
 C212 C 1.03211 1.08689 0.30709
 C213 C 1.01132 1.08850 0.25556
 C214 C 1.03390 1.05866 0.21641
 C215 C 1.16804 0.99361 0.34634
 C216 C 1.19095 0.99405 0.38882
 C217 C 1.07660 0.99425 0.13624
 C218 C 1.05553 0.99460 0.09304
 H219 H 1.14757 0.92569 0.12434
 H220 H 1.22256 0.86987 0.14744
 H221 H 1.26200 0.86949 0.23795
 H222 H 1.22665 0.92493 0.30578
 H223 H 1.09057 1.05560 0.36046
 H224 H 1.01434 1.11008 0.33738
 H225 H 0.97740 1.11284 0.24593
 H226 H 1.01616 1.06110 0.17695
 C227 C 1.10542 0.99981 -0.21368
 C228 C 1.12327 1.04674 -0.24137
 C229 C 1.14911 1.04410 -0.29169
 C230 C 1.15600 0.99456 -0.31460
 C231 C 1.13848 0.94757 -0.28658
 C232 C 1.11349 0.95020 -0.23583
 C233 C 1.09635 0.90270 -0.20859
 C234 C 1.10294 0.85405 -0.23119
 C235 C 1.12731 0.85146 -0.28079
 C236 C 1.14506 0.89754 -0.30829
 C237 C 1.16724 1.09159 -0.31821
 C238 C 1.15964 1.14026 -0.29592
 C239 C 1.13370 1.14284 -0.24712
 C240 C 1.11562 1.09674 -0.21997
 C241 C 1.17975 0.99218 -0.36748
 C242 C 1.19888 0.99082 -0.41164
 C243 C 1.07772 1.00231 -0.16301
 C244 C 1.05398 1.00285 -0.12125
 H245 H 1.07709 0.90265 -0.16997
 H246 H 1.08861 0.81824 -0.21031
 H247 H 1.13237 0.81355 -0.29814
 H248 H 1.16383 0.89351 -0.34673
 H249 H 1.18749 1.09164 -0.35634
 H250 H 1.17379 1.17619 -0.31674
 H251 H 1.12761 1.18077 -0.23023
 H252 H 1.09579 1.10070 -0.18206
 C253 C 0.88826 0.99944 0.19050
 C254 C 0.84310 1.03055 0.19861
 C255 C 0.82327 1.03551 0.25098
 C256 C 0.84919 1.00962 0.29454
 C257 C 0.89621 0.98107 0.28663
 C258 C 0.91546 0.97530 0.23417
 C259 C 0.96184 0.94544 0.22672
 C260 C 0.98924 0.92329 0.27024
 C261 C 0.97079 0.92964 0.32178
 C262 C 0.92456 0.95786 0.33011
 C263 C 0.77765 1.06643 0.25847
 C264 C 0.75272 1.09203 0.21527
 C265 C 0.77243 1.08741 0.16391
 C266 C 0.81701 1.05692 0.15539
 C267 C 0.82464 1.00864 0.34649
 C268 C 0.80102 1.00686 0.38814
 C269 C 0.90858 0.99464 0.13751
 C270 C 0.92770 0.99250 0.09407
 H271 H 0.97781 0.93949 0.18739
 H272 H 1.02517 0.90144 0.26396
 H273 H 0.99235 0.91255 0.35546
 H274 H 0.91164 0.96181 0.37090
 H275 H 0.76115 1.07159 0.29773
 H276 H 0.71806 1.11574 0.22173
 H277 H 0.75303 1.10743 0.13049
 H278 H 0.83082 1.05441 0.11470
 C279 C 0.87559 0.99927 -0.21395
 C280 C 0.82632 1.02458 -0.22281
 C281 C 0.80207 1.02439 -0.27413
 C282 C 0.82746 0.99899 -0.31610
 C283 C 0.87636 0.97301 -0.30696
 C284 C 0.90081 0.97355 -0.25579
 C285 C 0.95036 0.94828 -0.24783
 C286 C 0.97431 0.92225 -0.28906
 C287 C 0.95009 0.92124 -0.33898
 C288 C 0.90178 0.94641 -0.34813
 C289 C 0.75276 1.04995 -0.28222
 C290 C 0.72819 1.07505 -0.24067
 C291 C 0.75208 1.07544 -0.19047
 C292 C 0.80064 1.05061 -0.18143
 C293 C 0.80439 1.00065 -0.36915
 C294 C 0.78666 1.00174 -0.41382
 C295 C 0.90072 0.99984 -0.16200
 C296 C 0.92314 0.99987 -0.11958
 H297 H 0.97087 0.94793 -0.20969
 H298 H 1.01168 0.90249 -0.28233
 H299 H 0.96887 0.90090 -0.37082
 H300 H 0.88457 0.94458 -0.38772
 H301 H 0.73270 1.05070 -0.32059
 H302 H 0.69045 1.09437 -0.24751
 H303 H 0.73293 1.09512 -0.15838
 H304 H 0.81787 1.05215 -0.14182
 C305 C 1.19482 1.10648 -0.00351
 C306 C 1.22890 1.11368 -0.04835
 C307 C 1.28240 1.13342 -0.04167
 C308 C 1.30151 1.14522 0.00995
 C309 C 1.26754 1.13714 0.05490
 C310 C 1.21383 1.11803 0.04808
 C311 C 1.18038 1.11035 0.09353
 C312 C 1.19971 1.12076 0.14435
 C313 C 1.25236 1.13933 0.15104
 C314 C 1.28602 1.14765 0.10696
 C315 C 1.31567 1.14089 -0.08722
 C316 C 1.29668 1.12880 -0.13779
 C317 C 1.24447 1.10899 -0.14420
 C318 C 1.21075 1.10145 -0.10012
 C319 C 1.35490 1.16872 0.01603
 C320 C 1.39825 1.19092 0.01904
 C321 C 1.14129 1.08405 -0.00974
 C322 C 1.09767 1.06302 -0.01313
 H323 H 1.13911 1.09606 0.09035
 H324 H 1.17372 1.11432 0.17869
 H325 H 1.26722 1.14734 0.19062
 H326 H 1.32669 1.16203 0.11414
 H327 H 1.35670 1.15589 -0.08425
 H328 H 1.32270 1.13469 -0.17217
 H329 H 1.23006 1.09944 -0.18352
 H330 H 1.17037 1.08614 -0.10710
 C331 C 0.78872 1.10617 -0.00360
 C332 C 0.74142 1.08118 -0.02313
 C333 C 0.69096 1.10537 -0.01800
 C334 C 0.68813 1.15488 0.00599
 C335 C 0.73559 1.17996 0.02527
 C336 C 0.78597 1.15545 0.02063
 C337 C 0.83278 1.18129 0.04023
 C338 C 0.83000 1.23020 0.06326
 C339 C 0.78080 1.25407 0.06795
 C340 C 0.73399 1.22940 0.04931
 C341 C 0.64419 1.07909 -0.03713
 C342 C 0.64718 1.03046 -0.06078
 C343 C 0.69655 1.00709 -0.06621
 C344 C 0.74325 1.03203 -0.04779
 C345 C 0.63644 1.17987 0.01063
 C346 C 0.59311 1.19976 0.01417
 C347 C 0.83994 1.08065 -0.00763
 C348 C 0.88202 1.05863 -0.01042
 H349 H 0.87200 1.16429 0.03747
 H350 H 0.86620 1.24981 0.07739
 H351 H 0.77889 1.29200 0.08603
 H352 H 0.69665 1.24955 0.05381
 H353 H 0.60485 1.09573 -0.03393
 H354 H 0.61098 1.01085 -0.07504
 H355 H 0.69870 0.96933 -0.08462
 H356 H 0.78067 1.01216 -0.05276
 C357 C 1.19440 0.90096 -0.01922
 C358 C 1.23492 0.92382 0.01297
 C359 C 1.28697 0.90274 0.01388
 C360 C 1.29780 0.85937 -0.01766
 C361 C 1.25778 0.83787 -0.05141
 C362 C 1.20581 0.85907 -0.05242
 C363 C 1.16618 0.83734 -0.08648
 C364 C 1.17739 0.79483 -0.11770
 C365 C 1.22828 0.77374 -0.11649
 C366 C 1.26826 0.79499 -0.08398
 C367 C 1.32692 0.92534 0.04698
 C368 C 1.31555 0.96773 0.07836
 C369 C 1.26453 0.98853 0.07736
 C370 C 1.22456 0.96720 0.04490
 C371 C 1.34881 0.83443 -0.01305
 C372 C 1.38966 0.81082 -0.00917
 C373 C 1.14085 0.92023 -0.01754
 C374 C 1.09705 0.93807 -0.01597
 H375 H 1.12622 0.85289 -0.08923
 H376 H 1.14641 0.77802 -0.14280
 H377 H 1.23687 0.74080 -0.14092
 H378 H 1.30733 0.77744 -0.08467
 H379 H 1.36725 0.91055 0.04890
 H380 H 1.34647 0.98449 0.10360
 H381 H 1.25581 1.02114 0.10212
 H382 H 1.18551 0.98481 0.04543
 C383 C 0.78719 0.88194 -0.00970
 C384 C 0.77626 0.83750 -0.04067
 C385 C 0.72379 0.81400 -0.04057
 C386 C 0.68283 0.83551 -0.00978
 C387 C 0.69378 0.88034 0.02077
 C388 C 0.74641 0.90326 0.02136
 C389 C 0.75682 0.94768 0.05277
 C390 C 0.71588 0.96957 0.08161
 C391 C 0.66413 0.94755 0.08048
 C392 C 0.65301 0.90329 0.05072
 C393 C 0.71350 0.76954 -0.07181
 C394 C 0.75399 0.74908 -0.10249
 C395 C 0.80537 0.77223 -0.10271
 C396 C 0.81667 0.81591 -0.07214
 C397 C 0.62928 0.81187 -0.00932
 C398 C 0.58423 0.79353 -0.00792
 C399 C 0.83969 0.90736 -0.01127
 C400 C 0.88236 0.93044 -0.01224
 H401 H 0.79640 0.96642 0.05482
 H402 H 0.72423 1.00393 0.10473
 H403 H 0.63242 0.96478 0.10286
 H404 H 0.61211 0.88753 0.05125
 H405 H 0.67412 0.75029 -0.07297
 H406 H 0.74544 0.71511 -0.12626
 H407 H 0.83666 0.75615 -0.12657
 H408 H 0.85729 0.83246 -0.07339
 C409 C 0.71071 0.50304 0.40060
 C410 C 0.75289 0.53544 0.42070
 C411 C 0.80542 0.53396 0.39852
 C412 C 0.81525 0.50093 0.35562
 C413 C 0.77307 0.46800 0.33605
 C414 C 0.72080 0.46891 0.35876
 C415 C 0.67962 0.43516 0.33899
 C416 C 0.68970 0.40165 0.29773
 C417 C 0.74064 0.40083 0.27538
 C418 C 0.78196 0.43351 0.29412
 C419 C 0.84718 0.56543 0.42038
 C420 C 0.83745 0.59742 0.46305
 C421 C 0.78607 0.59925 0.48441
 C422 C 0.74404 0.56897 0.46341
 C423 C 0.86832 0.50008 0.33115
 C424 C 0.91033 0.49571 0.30781
 C425 C 0.65761 0.50307 0.42451
 C426 C 0.61420 0.50226 0.44576
 H427 H 0.63926 0.43437 0.35504
 H428 H 0.65785 0.37626 0.28286
 H429 H 0.74824 0.37468 0.24334
 H430 H 0.82088 0.43120 0.27542
 H431 H 0.88777 0.56529 0.40502
 H432 H 0.86996 0.62095 0.47960
 H433 H 0.77878 0.62409 0.51758
 H434 H 0.70482 0.57157 0.48153
 C435 C 0.30152 0.50049 0.39853
 C436 C 0.25891 0.52736 0.42187
 C437 C 0.20802 0.52955 0.39587
 C438 C 0.19965 0.50421 0.34716
 C439 C 0.24245 0.47773 0.32359
 C440 C 0.29337 0.47569 0.34947
 C441 C 0.33514 0.44824 0.32558
 C442 C 0.32712 0.42399 0.27719
 C443 C 0.27756 0.42636 0.25164
 C444 C 0.23555 0.45274 0.27443
 C445 C 0.16634 0.55719 0.41953
 C446 C 0.17462 0.58211 0.46749
 C447 C 0.22412 0.57967 0.49306
 C448 C 0.26581 0.55226 0.47102
 C449 C 0.14656 0.50266 0.32244
 C450 C 0.10355 0.49781 0.30036
 C451 C 0.35374 0.49855 0.42470
 C452 C 0.39689 0.49713 0.44674
 H453 H 0.37429 0.44503 0.34411
 H454 H 0.35954 0.40324 0.25945
 H455 H 0.27156 0.40752 0.21401
 H456 H 0.19776 0.45340 0.25299
 H457 H 0.12713 0.56017 0.40105
 H458 H 0.14247 0.60349 0.48488
 H459 H 0.23024 0.59960 0.52990
 H460 H 0.30357 0.55141 0.49254
 C461 C 0.71566 0.51501 0.60608
 C462 C 0.72882 0.54939 0.64751
 C463 C 0.78311 0.55556 0.66439
 C464 C 0.82386 0.52795 0.63906
 C465 C 0.81108 0.49659 0.59508
 C466 C 0.75666 0.48923 0.57918
 C467 C 0.74458 0.45589 0.53647
 C468 C 0.78534 0.43195 0.50916
 C469 C 0.83871 0.44004 0.52405
 C470 C 0.85164 0.47163 0.56677
 C471 C 0.79529 0.58914 0.70680
 C472 C 0.75490 0.61613 0.73160
 C473 C 0.70181 0.61042 0.71475
 C474 C 0.68873 0.57760 0.67306
 C475 C 0.87675 0.52502 0.66321
 C476 C 0.91854 0.51777 0.68631
 C477 C 0.66037 0.50770 0.58935
 C478 C 0.61547 0.50253 0.57221
 H479 H 0.70369 0.44848 0.52328
 H480 H 0.77548 0.40733 0.47603
 H481 H 0.87026 0.42161 0.50251
 H482 H 0.89372 0.47682 0.57698
 H483 H 0.83612 0.59525 0.72079
 H484 H 0.76491 0.64182 0.76386
 H485 H 0.67059 0.63163 0.73393
 H486 H 0.64705 0.57489 0.66083
 C487 C 0.30229 0.50498 0.61738
 C488 C 0.28198 0.55593 0.62350
 C489 C 0.22890 0.56142 0.64287
 C490 C 0.19672 0.51594 0.65613
 C491 C 0.21699 0.46495 0.64950
 C492 C 0.26989 0.45951 0.62986
 C493 C 0.28912 0.40827 0.62292
 C494 C 0.25699 0.36359 0.63533
 C495 C 0.20539 0.36880 0.65502
 C496 C 0.18540 0.41874 0.66207
 C497 C 0.20911 0.61262 0.64804
 C498 C 0.24062 0.65725 0.63359
 C499 C 0.29238 0.65191 0.61421
 C500 C 0.31328 0.60195 0.60973
 C501 C 0.14378 0.52049 0.67919
 C502 C 0.10079 0.51833 0.70119
 C503 C 0.35539 0.49942 0.59546
 C504 C 0.39865 0.49599 0.57500
 H505 H 0.32907 0.40219 0.60786
 H506 H 0.27208 0.32472 0.62955
 H507 H 0.18061 0.33396 0.66470
 H508 H 0.14485 0.42056 0.67716
 H509 H 0.16892 0.61861 0.66258
 H510 H 0.22466 0.69617 0.63713
 H511 H 0.31631 0.68664 0.60222
 H512 H 0.35381 0.59979 0.59474
 C513 C 0.50804 0.60766 0.30581
 C514 C 0.54173 0.58710 0.26680
 C515 C 0.53927 0.60714 0.21327
 C516 C 0.50405 0.64823 0.19967
 C517 C 0.47083 0.66920 0.23895
 C518 C 0.47265 0.64856 0.29225
 C519 C 0.43842 0.66921 0.33083
 C520 C 0.40350 0.70943 0.31701
 C521 C 0.40189 0.72994 0.26486
 C522 C 0.43505 0.71023 0.22612
 C523 C 0.57173 0.58490 0.17431
 C524 C 0.60572 0.54384 0.18798
 C525 C 0.60851 0.52447 0.24050
 C526 C 0.57719 0.54584 0.27973
 C527 C 0.50077 0.66878 0.14529
 C528 C 0.49470 0.68833 0.10141
 C529 C 0.50730 0.58435 0.35904
 C530 C 0.50621 0.56298 0.40244
 H531 H 0.43839 0.65468 0.37202
 H532 H 0.37775 0.72496 0.34695
 H533 H 0.37478 0.76128 0.25432
 H534 H 0.43217 0.72748 0.18611
 H535 H 0.57092 0.59875 0.13295
 H536 H 0.63008 0.52701 0.15766
 H537 H 0.63495 0.49261 0.25077
 H538 H 0.58059 0.52927 0.32000
 C539 C 0.50717 0.59717 0.71233
 C540 C 0.47309 0.63891 0.72324
 C541 C 0.47303 0.65964 0.77486
 C542 C 0.50579 0.63720 0.81560
 C543 C 0.53973 0.59531 0.80476
 C544 C 0.54031 0.57501 0.75283
 C545 C 0.57407 0.53260 0.74283
 C546 C 0.60715 0.51173 0.78281
 C547 C 0.60671 0.53179 0.83358
 C548 C 0.57329 0.57303 0.84473
 C549 C 0.43969 0.70257 0.78452
 C550 C 0.40720 0.72398 0.74438
 C551 C 0.40657 0.70293 0.69412
 C552 C 0.43863 0.66052 0.68359
 C553 C 0.50255 0.65689 0.86868
 C554 C 0.49528 0.67690 0.91051
 C555 C 0.50765 0.57671 0.65956
 C556 C 0.50740 0.55824 0.61634
 H557 H 0.57551 0.51539 0.70407
 H558 H 0.63342 0.47997 0.77436
 H559 H 0.63241 0.51532 0.86449
 H560 H 0.57422 0.58744 0.88479
 H561 H 0.43855 0.72035 0.82296
 H562 H 0.38226 0.75698 0.75240
 H563 H 0.38138 0.71981 0.66308
 H564 H 0.43618 0.64497 0.64409
 C565 C 0.51566 0.39759 0.30748
 C566 C 0.54388 0.35087 0.30008
 C567 C 0.54829 0.33077 0.24809
 C568 C 0.52455 0.35758 0.20371
 C569 C 0.49815 0.40547 0.21096
 C570 C 0.49325 0.42523 0.26298
 C571 C 0.46544 0.47242 0.26924
 C572 C 0.44368 0.49972 0.22541
 C573 C 0.44905 0.48078 0.17452
 C574 C 0.47576 0.43413 0.16716
 C575 C 0.57630 0.28373 0.24187
 C576 C 0.59932 0.25731 0.28565
 C577 C 0.59492 0.27690 0.33641
 C578 C 0.56763 0.32318 0.34379
 C579 C 0.52165 0.33301 0.15209
 C580 C 0.51460 0.31096 0.11062
 C581 C 0.51067 0.41806 0.36053
 C582 C 0.50733 0.43696 0.40372
 H583 H 0.46042 0.48888 0.30798
 H584 H 0.42282 0.53591 0.23097
 H585 H 0.43235 0.50232 0.14054
 H586 H 0.47898 0.42099 0.12679
 H587 H 0.58097 0.26713 0.20311
 H588 H 0.62070 0.22141 0.28015
 H589 H 0.61271 0.25609 0.37023
 H590 H 0.56529 0.33690 0.38403
 C591 C 0.51297 0.39249 0.71878
 C592 C 0.56308 0.38113 0.74287
 C593 C 0.56529 0.36373 0.79751
 C594 C 0.51732 0.35731 0.82761
 C595 C 0.46712 0.36846 0.80322
 C596 C 0.46500 0.38606 0.74872
 C597 C 0.41440 0.39679 0.72527
 C598 C 0.36718 0.39020 0.75475
 C599 C 0.36915 0.37294 0.80797
 C600 C 0.41836 0.36220 0.83214
 C601 C 0.61583 0.35298 0.82073
 C602 C 0.66293 0.35906 0.79083
 C603 C 0.66076 0.37581 0.73739
 C604 C 0.61151 0.38679 0.71346
 C605 C 0.51819 0.33574 0.88237
 C606 C 0.51289 0.31525 0.92648
 C607 C 0.51081 0.41352 0.66415
 C608 C 0.50866 0.43344 0.61982
 H609 H 0.41073 0.41013 0.68392
 H610 H 0.32885 0.39850 0.73621
 H611 H 0.33232 0.36787 0.83073
 H612 H 0.41762 0.34909 0.87370
 H613 H 0.61943 0.33991 0.86217
 H614 H 0.70132 0.35073 0.80924
 H615 H 0.69745 0.38052 0.71438
 H616 H 0.61183 0.39981 0.67182
 C617 C 0.60507 0.70490 0.50948
 C618 C 0.57385 0.74347 0.48268
 C619 C 0.58776 0.79771 0.48707
 C620 C 0.63434 0.81280 0.51581
 C621 C 0.66533 0.77425 0.54294
 C622 C 0.65056 0.71999 0.53983
 C623 C 0.68241 0.68193 0.56660
 C624 C 0.72776 0.69722 0.59561
 C625 C 0.74209 0.75037 0.59891
 C626 C 0.71138 0.78864 0.57292
 C627 C 0.55474 0.83583 0.46195
 C628 C 0.50954 0.82065 0.43273
 C629 C 0.49676 0.76749 0.42715
 C630 C 0.52857 0.72914 0.45144
 C631 C 0.65474 0.86665 0.51028
 C632 C 0.67399 0.90998 0.50083
 C633 C 0.58781 0.65019 0.50857
 C634 C 0.56966 0.60590 0.50831
 H635 H 0.67295 0.64010 0.56493
 H636 H 0.75206 0.66769 0.61543
 H637 H 0.77726 0.76201 0.62163
 H638 H 0.72391 0.82954 0.57675
 H639 H 0.56320 0.87767 0.46514
 H640 H 0.48441 0.85028 0.41419
 H641 H 0.46163 0.75594 0.40447
 H642 H 0.51689 0.68829 0.44597
 C643 C 0.60967 0.29935 0.51521
 C644 C 0.65267 0.28777 0.48147
 C645 C 0.66893 0.23495 0.47845
 C646 C 0.64195 0.19432 0.50936
 C647 C 0.59964 0.20620 0.54394
 C648 C 0.58354 0.25911 0.54709
 C649 C 0.54120 0.27044 0.58209
 C650 C 0.51557 0.23041 0.61302
 C651 C 0.53098 0.17848 0.60947
 C652 C 0.57258 0.16627 0.57540
 C653 C 0.71178 0.22401 0.44386
 C654 C 0.73769 0.26421 0.41335
 C655 C 0.72180 0.31599 0.41655
 C656 C 0.67971 0.32791 0.45008
 C657 C 0.65781 0.14050 0.50442
 C658 C 0.67436 0.09758 0.49658
 C659 C 0.58972 0.35192 0.51437
 C660 C 0.57034 0.39448 0.51299
 H661 H 0.52773 0.31023 0.58619
 H662 H 0.48366 0.23972 0.63997
 H663 H 0.51075 0.14751 0.63341
 H664 H 0.58339 0.12535 0.57410
 H665 H 0.72578 0.18442 0.43999
 H666 H 0.77037 0.25511 0.38717
 H667 H 0.74229 0.34709 0.39305
 H668 H 0.66879 0.36882 0.45126
 C669 C 0.40088 0.69811 0.51051
 C670 C 0.42617 0.73762 0.54110
 C671 C 0.40518 0.78919 0.54087
 C672 C 0.35889 0.80095 0.51023
 C673 C 0.33372 0.76133 0.47952
 C674 C 0.35516 0.71005 0.47924
 C675 C 0.33051 0.67180 0.44682
 C676 C 0.28529 0.68347 0.41622
 C677 C 0.26372 0.73328 0.41710
 C678 C 0.28752 0.77193 0.44819
 C679 C 0.43171 0.82815 0.57098
 C680 C 0.47794 0.81668 0.60023
 C681 C 0.49861 0.76640 0.60026
 C682 C 0.47314 0.72719 0.57117
 C683 C 0.33803 0.85405 0.50777
 C684 C 0.31795 0.89664 0.50154
 C685 C 0.42283 0.64572 0.50999
 C686 C 0.44254 0.60294 0.50943
 H687 H 0.34620 0.63268 0.44438
 H688 H 0.26695 0.65372 0.39164
 H689 H 0.22850 0.74215 0.39332
 H690 H 0.26931 0.81012 0.44723
 H691 H 0.41716 0.86786 0.57200
 H692 H 0.49791 0.84702 0.62286
 H693 H 0.53468 0.75773 0.62279
 H694 H 0.49104 0.68884 0.57204
 C695 C 0.40736 0.28876 0.51429
 C696 C 0.41177 0.26066 0.46691
 C697 C 0.39311 0.20717 0.46586
 C698 C 0.36994 0.18200 0.51215
 C699 C 0.36776 0.20946 0.56018
 C700 C 0.38670 0.26293 0.56129
 C701 C 0.38457 0.28938 0.60983
 C702 C 0.36425 0.26379 0.65601
 C703 C 0.34526 0.21174 0.65481
 C704 C 0.34685 0.18470 0.60751
 C705 C 0.39779 0.18008 0.41786
 C706 C 0.42018 0.20505 0.37230
 C707 C 0.43829 0.25732 0.37332
 C708 C 0.43434 0.28498 0.41997
 C709 C 0.34477 0.12959 0.50857
 C710 C 0.32181 0.08775 0.50153
 C711 C 0.42560 0.34370 0.51467
 C712 C 0.44330 0.38847 0.51381
 H713 H 0.39899 0.32984 0.61271
 H714 H 0.36306 0.28455 0.69287
 H715 H 0.32933 0.19213 0.69075
 H716 H 0.33199 0.14414 0.60853
 H717 H 0.38448 0.13930 0.41506
 H718 H 0.42346 0.18370 0.33597
 H719 H 0.45541 0.27655 0.33774
 H720 H 0.44915 0.32554 0.41876
   
