data_POSCAR
  _audit_creation_date              2014-09-24
  _audit_creation_method            'ToBaCCo'
  _symmetry_space_group_name_H-M    'P1'
  _symmetry_Int_Tables_number       1
  _symmetry_cell_setting            triclinic
  loop_
  _symmetry_equiv_pos_as_xyz
 x,y,z
_cell_length_a 29.2751
_cell_length_b 29.2776
_cell_length_c 8.4161
_cell_angle_alpha 90.000000
_cell_angle_beta 90.000000
_cell_angle_gamma 90.000000
loop_
  _atom_site_label
  _atom_site_type_symbol
  _atom_site_fract_x
  _atom_site_fract_y
  _atom_site_fract_z
O1 O 0.28265 0.29370 0.42022
 O2 O 0.19779 0.20429 0.33306
 O3 O 0.28324 0.20536 0.42133
 O4 O 0.19741 0.29367 0.33208
 O5 O 0.21797 0.29323 0.07949
 O6 O 0.30327 0.20438 0.16840
 O7 O 0.21800 0.20482 0.08013
 O8 O 0.30326 0.29381 0.16767
 Cu9 Cu 0.23797 0.24924 0.40172
 Cu10 Cu 0.26293 0.24904 0.09888
 C11 C 0.30749 0.30889 0.30842
 C12 C 0.19332 0.18947 0.19207
 C13 C 0.30798 0.18984 0.30972
 C14 C 0.19308 0.30848 0.19103
 O15 O 0.80259 0.29367 0.33208
 O16 O 0.71676 0.20536 0.42133
 O17 O 0.80221 0.20429 0.33306
 O18 O 0.71735 0.29370 0.42022
 O19 O 0.69674 0.29381 0.16767
 O20 O 0.78200 0.20482 0.08013
 O21 O 0.69673 0.20438 0.16840
 O22 O 0.78203 0.29323 0.07949
 Cu23 Cu 0.76203 0.24924 0.40172
 Cu24 Cu 0.73707 0.24904 0.09888
 C25 C 0.80692 0.30848 0.19103
 C26 C 0.69202 0.18984 0.30973
 C27 C 0.80668 0.18947 0.19207
 C28 C 0.69251 0.30889 0.30842
 O29 O 0.71800 0.79518 0.58013
 O30 O 0.80326 0.70619 0.66767
 O31 O 0.71797 0.70677 0.57949
 O32 O 0.80327 0.79562 0.66840
 O33 O 0.78324 0.79464 0.92133
 O34 O 0.69741 0.70633 0.83208
 O35 O 0.78265 0.70630 0.92021
 O36 O 0.69779 0.79571 0.83306
 Cu37 Cu 0.76293 0.75096 0.59888
 Cu38 Cu 0.73797 0.75076 0.90172
 C39 C 0.69332 0.81053 0.69207
 C40 C 0.80749 0.69111 0.80842
 C41 C 0.69308 0.69152 0.69103
 C42 C 0.80798 0.81016 0.80972
 O43 O 0.21735 0.70630 0.92021
 O44 O 0.30221 0.79571 0.83306
 O45 O 0.21676 0.79464 0.92133
 O46 O 0.30259 0.70633 0.83208
 O47 O 0.28203 0.70677 0.57949
 O48 O 0.19673 0.79562 0.66840
 O49 O 0.28200 0.79518 0.58013
 O50 O 0.19674 0.70619 0.66767
 Cu51 Cu 0.26203 0.75076 0.90172
 Cu52 Cu 0.23707 0.75096 0.59888
 C53 C 0.19251 0.69111 0.80842
 C54 C 0.30668 0.81053 0.69207
 C55 C 0.19202 0.81016 0.80972
 C56 C 0.30692 0.69152 0.69103
 O57 O 1.04478 -0.05414 0.08286
 O58 O 0.95580 0.03109 0.17133
 O59 O 0.95522 -0.05414 0.08286
 O60 O 1.04420 0.03109 0.17133
 O61 O 1.04470 0.05150 -0.08140
 O62 O 0.95586 -0.03381 -0.16996
 O63 O 0.95530 0.05150 -0.08140
 O64 O 1.04414 -0.03381 -0.16996
 Cu65 Cu 1.00000 -0.01386 0.15216
 Cu66 Cu 1.00000 0.01116 -0.15073
 C67 C 1.05954 -0.05854 -0.05824
 C68 C 0.94048 0.05587 0.05962
 C69 C 0.94046 -0.05854 -0.05824
 C70 C 1.05952 0.05587 0.05962
 O71 O 0.54466 0.44766 0.58141
 O72 O 0.45579 0.53298 0.66952
 O73 O 0.45534 0.44766 0.58141
 O74 O 0.54421 0.53298 0.66952
 O75 O 0.54469 0.55339 0.41679
 O76 O 0.45580 0.46805 0.32865
 O77 O 0.45532 0.55339 0.41679
 O78 O 0.54420 0.46805 0.32865
 Cu79 Cu 0.50000 0.48804 0.65054
 Cu80 Cu 0.50000 0.51302 0.34764
 C81 C 0.55946 0.44324 0.44040
 C82 C 0.44050 0.55778 0.55781
 C83 C 0.44054 0.44324 0.44040
 C84 C 0.55950 0.55778 0.55781
 O85 O -0.04466 0.55234 0.08141
 O86 O 0.04421 0.46702 0.16952
 O87 O 0.04466 0.55234 0.08141
 O88 O -0.04421 0.46702 0.16952
 O89 O -0.04468 0.44661 -0.08321
 O90 O 0.04420 0.53195 -0.17135
 O91 O 0.04469 0.44661 -0.08321
 O92 O -0.04420 0.53195 -0.17135
 Cu93 Cu 0.00000 0.51196 0.15054
 Cu94 Cu 0.00000 0.48698 -0.15236
 C95 C -0.05946 0.55676 -0.05961
 C96 C 0.05950 0.44222 0.05781
 C97 C 0.05946 0.55676 -0.05961
 C98 C -0.05950 0.44222 0.05781
 O99 O 0.45522 1.05414 0.58286
 O100 O 0.54420 0.96891 0.67133
 O101 O 0.54478 1.05414 0.58286
 O102 O 0.45580 0.96891 0.67133
 O103 O 0.45530 0.94851 0.41860
 O104 O 0.54414 1.03381 0.33004
 O105 O 0.54470 0.94851 0.41860
 O106 O 0.45586 1.03381 0.33004
 Cu107 Cu 0.50000 1.01386 0.65216
 Cu108 Cu 0.50000 0.98884 0.34927
 C109 C 0.44046 1.05854 0.44176
 C110 C 0.55952 0.94413 0.55962
 C111 C 0.55954 1.05854 0.44176
 C112 C 0.44048 0.94413 0.55962
 N113 N 1.13702 0.13246 0.27776
 C114 C 1.15896 0.15435 0.15777
 N115 N 1.14824 0.14355 0.00539
 N116 N 1.11654 0.11216 -0.02591
 C117 C 1.09466 0.09020 0.09406
 N118 N 1.10555 0.10083 0.24645
 N119 N 0.64810 0.64560 0.50394
 C120 C 0.65871 0.65644 0.65640
 N121 N 0.63672 0.63454 0.77625
 N122 N 0.60533 0.60285 0.74478
 C123 C 0.59457 0.59217 0.59234
 N124 N 0.61648 0.61415 0.47248
 N125 N -0.14810 0.35440 0.00395
 C126 C -0.15871 0.34356 0.15640
 N127 N -0.13672 0.36546 0.27625
 N128 N -0.10533 0.39715 0.24478
 C129 C -0.09457 0.40783 0.09234
 N130 N -0.11648 0.38585 -0.02752
 N131 N 0.35176 0.85645 0.50539
 C132 C 0.34104 0.84565 0.65777
 N133 N 0.36298 0.86754 0.77776
 N134 N 0.39445 0.89917 0.74645
 C135 C 0.40534 0.90980 0.59406
 N136 N 0.38346 0.88784 0.47409
 N137 N -0.14780 0.64478 -0.00510
 C138 C -0.15832 0.65583 -0.15744
 N139 N -0.13640 0.63395 -0.27750
 N140 N -0.10514 0.60211 -0.24633
 C141 C -0.09445 0.59124 -0.09397
 N142 N -0.11631 0.61318 0.02608
 N143 N 0.36537 1.13738 0.22352
 C144 C 0.34075 1.15672 0.34266
 N145 N 0.34898 1.14341 0.49465
 N146 N 0.38083 1.11219 0.52633
 C147 C 0.40529 1.09279 0.40707
 N148 N 0.39688 1.10583 0.25509
 N149 N 1.15102 -0.14341 -0.00535
 C150 C 1.15925 -0.15672 -0.15734
 N151 N 1.13463 -0.13738 -0.27648
 N152 N 1.10312 -0.10583 -0.24491
 C153 C 1.09471 -0.09279 -0.09293
 N154 N 1.11917 -0.11219 0.02633
 N155 N 0.63640 0.36605 0.22250
 C156 C 0.65832 0.34417 0.34257
 N157 N 0.64780 0.35522 0.49490
 N158 N 0.61631 0.38682 0.52608
 C159 C 0.59445 0.40876 0.40603
 N160 N 0.60514 0.39789 0.25367
 N161 N 0.84898 -0.14341 -0.00535
 C162 C 0.84075 -0.15672 -0.15734
 N163 N 0.86537 -0.13738 -0.27648
 N164 N 0.89688 -0.10583 -0.24491
 C165 C 0.90529 -0.09279 -0.09293
 N166 N 0.88083 -0.11219 0.02633
 N167 N 0.35220 0.35522 0.49490
 C168 C 0.34168 0.34417 0.34257
 N169 N 0.36360 0.36605 0.22250
 N170 N 0.39486 0.39789 0.25367
 C171 C 0.40555 0.40876 0.40603
 N172 N 0.38369 0.38682 0.52608
 N173 N 0.13640 0.63395 -0.27750
 C174 C 0.15832 0.65583 -0.15744
 N175 N 0.14780 0.64478 -0.00510
 N176 N 0.11631 0.61318 0.02608
 C177 C 0.09445 0.59124 -0.09397
 N178 N 0.10514 0.60211 -0.24633
 N179 N 0.63463 1.13738 0.22352
 C180 C 0.65925 1.15672 0.34266
 N181 N 0.65102 1.14341 0.49465
 N182 N 0.61917 1.11219 0.52633
 C183 C 0.59471 1.09279 0.40707
 N184 N 0.60312 1.10583 0.25509
 N185 N 0.14810 0.35440 0.00395
 C186 C 0.15871 0.34356 0.15640
 N187 N 0.13672 0.36546 0.27625
 N188 N 0.10533 0.39715 0.24478
 C189 C 0.09457 0.40783 0.09234
 N190 N 0.11648 0.38585 -0.02752
 N191 N 0.64824 0.85645 0.50539
 C192 C 0.65896 0.84565 0.65777
 N193 N 0.63702 0.86754 0.77776
 N194 N 0.60555 0.89917 0.74645
 C195 C 0.59466 0.90980 0.59406
 N196 N 0.61654 0.88784 0.47409
 N197 N 0.86298 0.13246 0.27776
 C198 C 0.84104 0.15435 0.15777
 N199 N 0.85176 0.14355 0.00539
 N200 N 0.88346 0.11216 -0.02591
 C201 C 0.90534 0.09020 0.09406
 N202 N 0.89445 0.10083 0.24645
 N203 N 0.36328 0.63454 0.77625
 C204 C 0.34129 0.65644 0.65640
 N205 N 0.35190 0.64560 0.50394
 N206 N 0.38352 0.61415 0.47248
 C207 C 0.40543 0.59217 0.59234
 N208 N 0.39467 0.60285 0.74478
   
