data_POSCAR
  _audit_creation_date              2014-09-24
  _audit_creation_method            'ToBaCCo'
  _symmetry_space_group_name_H-M    'P1'
  _symmetry_Int_Tables_number       1
  _symmetry_cell_setting            triclinic
  loop_
  _symmetry_equiv_pos_as_xyz
 x,y,z
_cell_length_a 46.8968
_cell_length_b 27.1532
_cell_length_c 19.3378
_cell_angle_alpha 90.429500
_cell_angle_beta 90.017500
_cell_angle_gamma 90.526400
loop_
  _atom_site_label
  _atom_site_type_symbol
  _atom_site_fract_x
  _atom_site_fract_y
  _atom_site_fract_z
C1 C 0.69679 0.28720 0.56984
 C2 C 0.68402 0.30011 0.50690
 C3 C 0.69700 0.29042 0.44323
 C4 C 0.72286 0.26383 0.44128
 C5 C 0.73556 0.24804 0.50382
 C6 C 0.72253 0.25967 0.56820
 C7 C 0.73502 0.24170 0.62897
 C8 C 0.76088 0.21740 0.62751
 C9 C 0.77431 0.20532 0.56470
 C10 C 0.76152 0.22092 0.50200
 C11 C 0.73636 0.25269 0.37838
 C12 C 0.76225 0.22829 0.37677
 C13 C 0.77490 0.21049 0.43758
 C14 C 0.80143 0.18539 0.43613
 C15 C 0.81447 0.17352 0.49912
 C16 C 0.80095 0.18065 0.56305
 H17 H 0.72505 0.24617 0.67893
 H18 H 0.77031 0.20903 0.67694
 H19 H 0.72723 0.26313 0.32935
 H20 H 0.77241 0.22445 0.32692
 H21 H 0.66495 0.32242 0.50733
 H22 H 0.83408 0.15265 0.49799
 C23 C 0.30046 0.68105 0.43125
 C24 C 0.31274 0.66657 0.49372
 C25 C 0.29957 0.67617 0.55739
 C26 C 0.27266 0.69965 0.55837
 C27 C 0.26037 0.71590 0.49567
 C28 C 0.27393 0.70542 0.43181
 C29 C 0.26047 0.71913 0.37006
 C30 C 0.23520 0.74546 0.37113
 C31 C 0.22250 0.75955 0.43400
 C32 C 0.23470 0.74343 0.49690
 C33 C 0.25742 0.70647 0.62017
 C34 C 0.23227 0.73322 0.62138
 C35 C 0.22145 0.75494 0.56100
 C36 C 0.19672 0.78504 0.56227
 C37 C 0.18483 0.79971 0.49894
 C38 C 0.19758 0.78841 0.43546
 H39 H 0.26928 0.70939 0.32014
 H40 H 0.22568 0.75449 0.32193
 H41 H 0.26470 0.69080 0.66826
 H42 H 0.22120 0.73611 0.67027
 H43 H 0.33377 0.65025 0.49291
 H44 H 0.16660 0.82401 0.49878
 C45 C 0.18907 0.22740 -0.43578
 C46 C 0.17583 0.21789 -0.49941
 C47 C 0.18879 0.23061 -0.56262
 C48 C 0.21507 0.25749 -0.56031
 C49 C 0.22970 0.26386 -0.49659
 C50 C 0.21674 0.24842 -0.43416
 C51 C 0.23180 0.25420 -0.37172
 C52 C 0.25895 0.27520 -0.37053
 C53 C 0.27211 0.29128 -0.43173
 C54 C 0.25730 0.28618 -0.49528
 C55 C 0.22614 0.28144 -0.61885
 C56 C 0.25280 0.30434 -0.61726
 C57 C 0.26992 0.30344 -0.55748
 C58 C 0.29842 0.32251 -0.55687
 C59 C 0.31214 0.32839 -0.49248
 C60 C 0.29957 0.31286 -0.43079
 H61 H 0.22287 0.24201 -0.32311
 H62 H 0.26948 0.27901 -0.32093
 H63 H 0.21398 0.28358 -0.66628
 H64 H 0.25968 0.32330 -0.66339
 H65 H 0.15561 0.19831 -0.49893
 H66 H 0.33404 0.34139 -0.49006
 C67 C -0.30894 0.72324 -0.44197
 C68 C -0.32265 0.71677 -0.50621
 C69 C -0.30990 0.73116 -0.56887
 C70 C -0.28364 0.75774 -0.56629
 C71 C -0.26940 0.76481 -0.50231
 C72 C -0.28235 0.74897 -0.43989
 C73 C -0.26915 0.76222 -0.37685
 C74 C -0.24228 0.78420 -0.37534
 C75 C -0.22802 0.79602 -0.43682
 C76 C -0.24207 0.78815 -0.50075
 C77 C -0.27218 0.78060 -0.62533
 C78 C -0.24536 0.80275 -0.62388
 C79 C -0.22886 0.80341 -0.56318
 C80 C -0.20036 0.82216 -0.56222
 C81 C -0.18717 0.83014 -0.49768
 C82 C -0.20039 0.81691 -0.43574
 H83 H -0.27957 0.75631 -0.32772
 H84 H -0.23294 0.79255 -0.32535
 H85 H -0.28400 0.78198 -0.67331
 H86 H -0.23784 0.82003 -0.67078
 H87 H -0.34190 0.69439 -0.50816
 H88 H -0.16518 0.84267 -0.49515
 O89 O -0.03222 0.90681 0.12890
 O90 O -0.06575 0.94416 0.06095
 C91 C -0.05835 0.91520 0.11049
 O92 O 0.03931 1.09161 0.11983
 O93 O 0.07219 1.05006 0.05447
 C94 C 0.06537 1.08258 0.10082
 O95 O -0.04079 1.07448 0.12676
 O96 O -0.06970 1.02473 0.06029
 C97 C -0.06571 1.05721 0.10877
 O98 O 0.04767 0.91368 0.11932
 O99 O 0.07630 0.96522 0.05594
 C100 C 0.07250 0.93095 0.10154
 Zr101 Zr 0.00649 0.93418 0.08635
 O102 O 0.01002 0.93161 0.19534
 O103 O 0.00865 0.85666 0.07816
 Zr104 Zr 0.00032 1.05857 0.08612
 O105 O 0.00362 1.06192 0.19522
 O106 O -0.00662 1.13546 0.08243
 O107 O -0.02169 0.99237 0.10050
 O108 O 0.02803 1.00044 0.09823
 O109 O 0.04678 0.91163 -0.12183
 O110 O 0.07606 0.96421 -0.06053
 C111 C 0.07178 0.92902 -0.10529
 O112 O -0.04192 1.07186 -0.12779
 O113 O -0.07029 1.02330 -0.05947
 C114 C -0.06666 1.05460 -0.10894
 O115 O 0.03762 1.09211 -0.12023
 O116 O 0.07183 1.04925 -0.06122
 C117 C 0.06389 1.08304 -0.10398
 O118 O -0.03311 0.90186 -0.12449
 O119 O -0.06632 0.94354 -0.05989
 C120 C -0.05916 0.91181 -0.10696
 Zr121 Zr 0.00577 0.93275 -0.08786
 O122 O 0.00808 0.93262 -0.19720
 O123 O 0.00727 0.85489 -0.08684
 Zr124 Zr -0.00057 1.05690 -0.08852
 O125 O 0.00262 1.05671 -0.19772
 O126 O -0.00820 1.13360 -0.08922
 Zr127 Zr -0.03908 0.98865 0.00001
 Zr128 Zr 0.04531 1.00255 -0.00221
 O129 O 0.02720 0.99888 -0.10169
 O130 O -0.02264 0.99048 -0.10130
 O131 O 0.03207 0.92824 -0.00128
 O132 O -0.02531 1.06259 -0.00063
 O133 O -0.01826 0.92043 0.00008
 O134 O 0.02480 1.07143 -0.00190
 H135 H 0.04083 1.00267 0.13892
 H136 H -0.03983 1.08887 -0.00067
 H137 H 0.03991 1.00088 -0.14251
 H138 H -0.02990 0.88980 0.00094
 H139 H 0.01026 1.15078 0.06031
 H140 H 0.00604 1.14933 -0.05824
 H141 H -0.01176 1.03302 -0.21565
 H142 H -0.00927 0.94880 -0.21469
 H143 H 0.02181 0.84559 -0.05231
 H144 H 0.00924 0.84431 0.12621
 H145 H -0.00369 0.95559 0.21435
 H146 H -0.01025 1.03793 0.21418
 O147 O 0.46330 0.41999 0.13666
 O148 O 0.43161 0.45631 0.06252
 C149 C 0.43765 0.42913 0.11519
 O150 O 0.54138 0.59665 0.11093
 O151 O 0.57329 0.54793 0.05312
 C152 C 0.56720 0.58379 0.09500
 O153 O 0.46174 0.59046 0.11358
 O154 O 0.43080 0.53890 0.05523
 C155 C 0.43635 0.57475 0.09799
 O156 O 0.54375 0.41896 0.13184
 O157 O 0.57432 0.46332 0.06329
 C158 C 0.56924 0.43252 0.11269
 Zr159 Zr 0.50323 0.44157 0.09430
 O160 O 0.50601 0.44741 0.20329
 O161 O 0.50094 0.36383 0.10100
 Zr162 Zr 0.50181 0.56545 0.07915
 O163 O 0.50420 0.57248 0.18815
 O164 O 0.49822 0.64274 0.06895
 O165 O 0.47697 0.50313 0.09973
 O166 O 0.52715 0.50566 0.09983
 O167 O 0.54444 0.40360 -0.11050
 O168 O 0.57472 0.45561 -0.05141
 C169 C 0.56981 0.41939 -0.09387
 O170 O 0.46222 0.57403 -0.13583
 O171 O 0.43097 0.53192 -0.06578
 C172 C 0.43672 0.56165 -0.11613
 O173 O 0.54220 0.58112 -0.13090
 O174 O 0.57364 0.54017 -0.06167
 C175 C 0.56791 0.57040 -0.11121
 O176 O 0.46469 0.40088 -0.11551
 O177 O 0.43224 0.44922 -0.05838
 C178 C 0.43884 0.41395 -0.10092
 Zr179 Zr 0.50390 0.43008 -0.07948
 O180 O 0.50685 0.42239 -0.18825
 O181 O 0.50231 0.35261 -0.06789
 Zr182 Zr 0.50231 0.55394 -0.09481
 O183 O 0.50543 0.54578 -0.20354
 O184 O 0.49865 0.63122 -0.10461
 Zr185 Zr 0.46007 0.49556 -0.00106
 Zr186 Zr 0.54513 0.50015 0.00045
 O187 O 0.52781 0.49254 -0.09944
 O188 O 0.47762 0.48974 -0.10119
 O189 O 0.52922 0.42761 0.00897
 O190 O 0.47715 0.56730 -0.00920
 O191 O 0.47876 0.42566 0.00803
 O192 O 0.52741 0.57079 -0.00859
 H193 H 0.53977 0.50900 0.14072
 H194 H 0.46411 0.59569 -0.01261
 H195 H 0.54068 0.49065 -0.13997
 H196 H 0.46623 0.39619 0.01141
 H197 H 0.51460 0.65435 0.04107
 H198 H 0.51414 0.64658 -0.07696
 H199 H 0.48896 0.52559 -0.21917
 H200 H 0.49122 0.44168 -0.20871
 H201 H 0.51926 0.34292 -0.04093
 H202 H 0.51810 0.35045 0.07812
 H203 H 0.49120 0.47079 0.21853
 H204 H 0.48794 0.55390 0.20793
 C205 C 0.35232 0.37587 0.32175
 C206 C 0.34895 0.34507 0.26565
 C207 C 0.32926 0.30657 0.26447
 C208 C 0.31236 0.29947 0.32354
 C209 C 0.31456 0.33166 0.38204
 C210 C 0.33526 0.37035 0.38028
 O211 O 0.37319 0.40872 0.31382
 C212 C 0.38320 0.39844 0.25121
 C213 C 0.36892 0.36004 0.21923
 C214 C 0.37584 0.34327 0.15319
 C215 C 0.39842 0.36702 0.11887
 C216 C 0.41378 0.40583 0.15156
 C217 C 0.40609 0.42187 0.21857
 H218 H 0.32759 0.28183 0.22048
 H219 H 0.29849 0.26742 0.32445
 H220 H 0.33796 0.39602 0.42293
 H221 H 0.36426 0.31310 0.12897
 H222 H 0.40427 0.35484 0.06735
 H223 H 0.41751 0.45168 0.24416
 C224 C -0.14508 0.86922 0.31578
 C225 C -0.14719 0.83485 0.26350
 C226 C -0.16685 0.79632 0.26467
 C227 C -0.18492 0.79285 0.32232
 C228 C -0.18360 0.82825 0.37718
 C229 C -0.16305 0.86695 0.37302
 O230 O -0.12444 0.90215 0.30581
 C231 C -0.11324 0.88819 0.24592
 C232 C -0.12643 0.84726 0.21765
 C233 C -0.11804 0.82648 0.15490
 C234 C -0.09521 0.84902 0.11985
 C235 C -0.08127 0.89083 0.14862
 C236 C -0.09035 0.91075 0.21237
 H237 H -0.16772 0.76906 0.22358
 H238 H -0.19898 0.76110 0.32541
 H239 H -0.16113 0.89494 0.41297
 H240 H -0.12877 0.79436 0.13354
 H241 H -0.08839 0.83413 0.07049
 H242 H -0.08013 0.94313 0.23458
 C243 C 0.63694 0.68912 0.29912
 C244 C 0.65478 0.67048 0.24924
 C245 C 0.68425 0.67165 0.25555
 C246 C 0.69584 0.69289 0.31572
 C247 C 0.67804 0.71327 0.36826
 C248 C 0.64797 0.71074 0.35920
 O249 O 0.60953 0.68176 0.28492
 C250 C 0.61012 0.65776 0.22488
 C251 C 0.63730 0.64996 0.20078
 C252 C 0.64290 0.62322 0.14080
 C253 C 0.61954 0.60304 0.10474
 C254 C 0.59125 0.60987 0.12909
 C255 C 0.58657 0.63845 0.18955
 H256 H 0.69785 0.65541 0.21650
 H257 H 0.71873 0.69121 0.32260
 H258 H 0.63347 0.72523 0.39771
 H259 H 0.66450 0.61709 0.12329
 H260 H 0.62359 0.58124 0.05872
 H261 H 0.56537 0.64359 0.21040
 C262 C 0.13499 1.18749 0.30687
 C263 C 0.15268 1.17062 0.25552
 C264 C 0.18219 1.17330 0.26030
 C265 C 0.19399 1.19417 0.32052
 C266 C 0.17637 1.21286 0.37466
 C267 C 0.14623 1.20896 0.36690
 O268 O 0.10756 1.17888 0.29384
 C269 C 0.10800 1.15591 0.23296
 C270 C 0.13510 1.15008 0.20725
 C271 C 0.14065 1.12512 0.14583
 C272 C 0.11737 1.10465 0.10990
 C273 C 0.08912 1.10919 0.13582
 C274 C 0.08445 1.13602 0.19790
 H275 H 0.19569 1.15842 0.22002
 H276 H 0.21695 1.19344 0.32606
 H277 H 0.13175 1.22249 0.40609
 H278 H 0.16221 1.12065 0.12694
 H279 H 0.12150 1.08434 0.06261
 H280 H 0.06332 1.13956 0.21984
 C281 C 0.64284 0.32495 -0.29924
 C282 C 0.66010 0.34690 -0.25031
 C283 C 0.68951 0.35029 -0.25754
 C284 C 0.70167 0.32984 -0.31739
 C285 C 0.68448 0.30566 -0.36834
 C286 C 0.65444 0.30421 -0.35894
 O287 O 0.61529 0.32781 -0.28421
 C288 C 0.61516 0.35221 -0.22450
 C289 C 0.64203 0.36470 -0.20144
 C290 C 0.64674 0.39229 -0.14162
 C291 C 0.62276 0.40841 -0.10476
 C292 C 0.59472 0.39685 -0.12818
 C293 C 0.59102 0.36749 -0.18842
 H294 H 0.70259 0.36904 -0.21927
 H295 H 0.72441 0.33441 -0.32507
 H296 H 0.64044 0.28694 -0.39672
 H297 H 0.66808 0.40205 -0.12482
 H298 H 0.62609 0.43091 -0.05893
 H299 H 0.57002 0.35873 -0.20856
 C300 C 0.14363 0.83073 -0.30993
 C301 C 0.16132 0.85058 -0.26013
 C302 C 0.19086 0.84863 -0.26491
 C303 C 0.20260 0.82548 -0.32347
 C304 C 0.18481 0.80451 -0.37599
 C305 C 0.15477 0.80777 -0.36847
 O306 O 0.11620 0.83749 -0.29681
 C307 C 0.11653 0.86235 -0.23755
 C308 C 0.14357 0.87154 -0.21282
 C309 C 0.14864 0.89870 -0.15263
 C310 C 0.12489 0.91722 -0.11679
 C311 C 0.09677 0.90810 -0.14142
 C312 C 0.09272 0.87990 -0.20258
 H313 H 0.20441 0.86527 -0.22574
 H314 H 0.22557 0.82600 -0.32924
 H315 H 0.14035 0.79254 -0.40698
 H316 H 0.17011 0.90586 -0.13435
 H317 H 0.12843 0.93872 -0.07013
 H318 H 0.07166 0.87276 -0.22355
 C319 C 0.34797 0.61588 -0.31193
 C320 C 0.35165 0.65388 -0.26525
 C321 C 0.33853 0.69924 -0.27246
 C322 C 0.32097 0.70579 -0.33030
 C323 C 0.31629 0.66690 -0.37865
 C324 C 0.33010 0.62127 -0.36909
 O325 O 0.36398 0.57705 -0.29812
 C326 C 0.37802 0.59084 -0.24145
 C327 C 0.37111 0.63748 -0.21905
 C328 C 0.38410 0.66013 -0.16234
 C329 C 0.40523 0.63376 -0.12757
 C330 C 0.41293 0.58602 -0.15024
 C331 C 0.39911 0.56405 -0.20773
 H332 H 0.34237 0.72902 -0.23603
 H333 H 0.31151 0.74152 -0.33837
 H334 H 0.32761 0.59141 -0.40610
 H335 H 0.37851 0.69705 -0.14617
 H336 H 0.41604 0.65075 -0.08385
 H337 H 0.40527 0.52814 -0.22687
 C338 C -0.14359 1.14204 -0.31138
 C339 C -0.15970 1.11407 -0.26691
 C340 C -0.18888 1.10696 -0.27528
 C341 C -0.20202 1.12981 -0.33169
 C342 C -0.18604 1.15996 -0.37787
 C343 C -0.15617 1.16524 -0.36747
 O344 O -0.11605 1.14292 -0.29560
 C345 C -0.11473 1.11482 -0.23989
 C346 C -0.14086 1.09630 -0.22017
 C347 C -0.14428 1.06520 -0.16402
 C348 C -0.11976 1.05248 -0.12691
 C349 C -0.09241 1.07071 -0.14655
 C350 C -0.09005 1.10268 -0.20381
 H351 H -0.20102 1.08383 -0.24048
 H352 H -0.22448 1.12261 -0.34065
 H353 H -0.14309 1.18731 -0.40171
 H354 H -0.16505 1.05088 -0.14966
 H355 H -0.12214 1.02787 -0.08344
 H356 H -0.06961 1.11702 -0.22068
 C357 C 0.63823 0.67346 -0.31557
 C358 C 0.65600 0.64850 -0.27186
 C359 C 0.68528 0.64646 -0.28155
 C360 C 0.69680 0.67157 -0.33830
 C361 C 0.67917 0.69923 -0.38354
 C362 C 0.64922 0.69904 -0.37207
 O363 O 0.61089 0.66926 -0.29851
 C364 C 0.61146 0.64099 -0.24280
 C365 C 0.63856 0.62742 -0.22429
 C366 C 0.64408 0.59709 -0.16842
 C367 C 0.62068 0.57959 -0.13042
 C368 C 0.59234 0.59236 -0.14893
 C369 C 0.58783 0.62401 -0.20578
 H370 H 0.69875 0.62544 -0.24744
 H371 H 0.71943 0.66807 -0.34810
 H372 H 0.63486 0.71897 -0.40539
 H373 H 0.66562 0.58678 -0.15503
 H374 H 0.62472 0.55537 -0.08735
 H375 H 0.56659 0.63429 -0.22179
 C376 C 0.14745 1.15800 -0.29987
 C377 C 0.13954 1.19621 -0.25704
 C378 C 0.14774 1.24483 -0.26862
 C379 C 0.16470 1.25447 -0.32684
 C380 C 0.17297 1.21575 -0.37194
 C381 C 0.16424 1.16681 -0.35815
 O382 O 0.13623 1.11494 -0.28161
 C383 C 0.12080 1.12622 -0.22625
 C384 C 0.12205 1.17552 -0.20916
 C385 C 0.10591 1.19598 -0.15603
 C386 C 0.08743 1.16448 -0.11977
 C387 C 0.08582 1.11370 -0.13660
 C388 C 0.10300 1.09408 -0.18984
 H389 H 0.14091 1.27436 -0.23478
 H390 H 0.17097 1.29210 -0.33779
 H391 H 0.16990 1.13681 -0.39256
 H392 H 0.10683 1.23502 -0.14442
 H393 H 0.07392 1.17965 -0.07965
 H394 H 0.10139 1.05561 -0.20474
 C395 C 0.34445 0.36208 -0.28356
 C396 C 0.35623 0.31909 -0.25998
 C397 C 0.34909 0.27303 -0.28723
 C398 C 0.32925 0.27127 -0.34156
 C399 C 0.31732 0.31514 -0.36761
 C400 C 0.32485 0.36115 -0.33789
 O401 O 0.35541 0.40213 -0.25355
 C402 C 0.37469 0.38410 -0.21055
 C403 C 0.37616 0.33349 -0.21284
 C404 C 0.39672 0.30722 -0.17715
 C405 C 0.41685 0.33425 -0.13847
 C406 C 0.41571 0.38636 -0.13525
 C407 C 0.39395 0.41157 -0.17052
 H408 H 0.35898 0.23982 -0.26859
 H409 H 0.32389 0.23606 -0.36507
 H410 H 0.31651 0.39515 -0.35826
 H411 H 0.39788 0.26751 -0.18107
 H412 H 0.43365 0.31478 -0.11200
 H413 H 0.39313 0.45138 -0.17016
 C414 C -0.15356 0.86520 -0.29181
 C415 C -0.14362 0.82164 -0.26539
 C416 C -0.15292 0.77576 -0.28915
 C417 C -0.17293 0.77474 -0.34309
 C418 C -0.18287 0.81913 -0.37226
 C419 C -0.17326 0.86499 -0.34585
 O420 O -0.14091 0.90470 -0.26453
 C421 C -0.12242 0.88571 -0.22041
 C422 C -0.12305 0.83502 -0.21932
 C423 C -0.10372 0.80748 -0.18145
 C424 C -0.08279 0.83328 -0.14353
 C425 C -0.08205 0.88541 -0.14337
 C426 C -0.10233 0.91204 -0.18154
 H427 H -0.14450 0.74201 -0.26822
 H428 H -0.17988 0.73955 -0.36411
 H429 H -0.18008 0.89926 -0.36859
 H430 H -0.10420 0.76763 -0.18270
 H431 H -0.06707 0.81287 -0.11472
 H432 H -0.10156 0.95188 -0.18355
 C433 C 0.34525 0.62604 0.28835
 C434 C 0.35395 0.66816 0.25494
 C435 C 0.34531 0.71496 0.27509
 C436 C 0.32701 0.71855 0.33217
 C437 C 0.31775 0.67574 0.36756
 C438 C 0.32702 0.62880 0.34529
 O439 O 0.35743 0.58558 0.26372
 C440 C 0.37429 0.60255 0.21394
 C441 C 0.37296 0.65289 0.20665
 C442 C 0.39055 0.67898 0.16183
 C443 C 0.41072 0.65223 0.12390
 C444 C 0.41256 0.60046 0.13078
 C445 C 0.39375 0.57505 0.17536
 H446 H 0.35292 0.74759 0.24884
 H447 H 0.32053 0.75467 0.34997
 H448 H 0.32080 0.59575 0.37264
 H449 H 0.38952 0.71868 0.15812
 H450 H 0.42539 0.67181 0.09043
 H451 H 0.39549 0.53571 0.18297
 C452 C -0.14269 1.14890 0.30945
 C453 C -0.15899 1.12444 0.26097
 C454 C -0.18848 1.12034 0.26594
 C455 C -0.20171 1.14209 0.32354
 C456 C -0.18547 1.16803 0.37460
 C457 C -0.15536 1.17105 0.36677
 O458 O -0.11491 1.14681 0.29672
 C459 C -0.11363 1.12025 0.23895
 C460 C -0.14002 1.10565 0.21497
 C461 C -0.14359 1.07611 0.15662
 C462 C -0.11897 1.06091 0.12163
 C463 C -0.09136 1.07526 0.14537
 C464 C -0.08881 1.10572 0.20486
 H465 H -0.20080 1.09988 0.22789
 H466 H -0.22445 1.13654 0.32992
 H467 H -0.14206 1.18998 0.40448
 H468 H -0.16457 1.06475 0.13903
 H469 H -0.12151 1.03766 0.07627
 H470 H -0.06819 1.11697 0.22491
 C471 C 0.64317 0.33174 0.31030
 C472 C 0.65967 0.36353 0.27197
 C473 C 0.68837 0.37230 0.28579
 C474 C 0.70058 0.34734 0.34154
 C475 C 0.68425 0.31346 0.38105
 C476 C 0.65503 0.30582 0.36521
 O477 O 0.61596 0.33090 0.29100
 C478 C 0.61531 0.36281 0.23927
 C479 C 0.64155 0.38354 0.22545
 C480 C 0.64570 0.41876 0.17471
 C481 C 0.62182 0.43356 0.13686
 C482 C 0.59428 0.41349 0.15060
 C483 C 0.59114 0.37720 0.20247
 H484 H 0.70073 0.39838 0.25586
 H485 H 0.72263 0.35494 0.35481
 H486 H 0.64186 0.28132 0.39580
 H487 H 0.66655 0.43474 0.16511
 H488 H 0.62483 0.46150 0.09780
 H489 H 0.57051 0.36131 0.21472
 C490 C 0.14546 0.83001 0.29938
 C491 C 0.16250 0.86097 0.26098
 C492 C 0.19120 0.86895 0.27587
 C493 C 0.20273 0.84411 0.33271
 C494 C 0.18562 0.81159 0.37259
 C495 C 0.15654 0.80463 0.35559
 O496 O 0.11846 0.82947 0.27900
 C497 C 0.11841 0.86078 0.22665
 C498 C 0.14481 0.88100 0.21329
 C499 C 0.14925 0.91611 0.16227
 C500 C 0.12545 0.93136 0.12406
 C501 C 0.09786 0.91161 0.13768
 C502 C 0.09455 0.87527 0.18935
 H503 H 0.20409 0.89418 0.24579
 H504 H 0.22483 0.85073 0.34651
 H505 H 0.14288 0.78093 0.38618
 H506 H 0.17018 0.93185 0.15303
 H507 H 0.12849 0.95932 0.08504
 H508 H 0.07387 0.85967 0.20181
   
