data_POSCAR
  _audit_creation_date              2014-09-24
  _audit_creation_method            'ToBaCCo'
  _symmetry_space_group_name_H-M    'P1'
  _symmetry_Int_Tables_number       1
  _symmetry_cell_setting            triclinic
  loop_
  _symmetry_equiv_pos_as_xyz
 x,y,z
_cell_length_a 32.8288
_cell_length_b 33.2413
_cell_length_c 33.0280
_cell_angle_alpha 89.973300
_cell_angle_beta 88.437000
_cell_angle_gamma 88.074900
loop_
  _atom_site_label
  _atom_site_type_symbol
  _atom_site_fract_x
  _atom_site_fract_y
  _atom_site_fract_z
C1 C 0.00875 0.45962 0.21683
 C2 C 0.04841 0.46305 0.23962
 C3 C 0.04929 0.49507 0.26520
 C4 C 0.00961 0.52145 0.26572
 C5 C -0.02482 0.46023 0.24967
 C6 C -0.02490 0.49219 0.27514
 C7 C 0.00354 0.50065 0.19548
 C8 C 0.00433 0.53324 0.22079
 H9 H 0.07391 0.44179 0.23540
 H10 H 0.01020 0.54720 0.28701
 H11 H -0.04870 0.43846 0.25063
 H12 H -0.00004 0.50400 0.16331
 C13 C 0.00283 0.45705 0.77058
 C14 C -0.03654 0.46547 0.75283
 C15 C -0.03872 0.50142 0.72897
 C16 C -0.00025 0.52289 0.72830
 C17 C 0.03234 0.45765 0.73711
 C18 C 0.03169 0.49400 0.71398
 C19 C 0.01012 0.49318 0.79433
 C20 C 0.00815 0.53003 0.77121
 H21 H -0.06148 0.44511 0.75610
 H22 H -0.00125 0.55020 0.70939
 H23 H 0.05725 0.43543 0.73459
 H24 H 0.00777 0.49388 0.82697
 C25 C 0.23183 0.00584 0.44615
 C26 C 0.25513 0.04454 0.45045
 C27 C 0.27768 0.04656 0.48430
 C28 C 0.27524 0.00867 0.51125
 C29 C 0.26407 -0.02807 0.44920
 C30 C 0.28669 -0.02714 0.48292
 C31 C 0.20669 0.00294 0.48609
 C32 C 0.22908 0.00493 0.52034
 H33 H 0.25304 0.06881 0.42863
 H34 H 0.29430 0.01010 0.53837
 H35 H 0.26608 -0.05310 0.42812
 H36 H 0.17441 -0.00191 0.48762
 C37 C 0.76113 0.00123 0.46067
 C38 C 0.73610 -0.03378 0.46130
 C39 C 0.71053 -0.03757 0.49679
 C40 C 0.71476 -0.00455 0.52546
 C41 C 0.73140 0.03714 0.46737
 C42 C 0.70709 0.03420 0.50099
 C43 C 0.78485 -0.00109 0.50035
 C44 C 0.76061 -0.00444 0.53446
 H45 H 0.74046 -0.05740 0.43888
 H46 H 0.69409 -0.00565 0.55240
 H47 H 0.73160 0.06396 0.44868
 H48 H 0.81721 0.00309 0.50200
 C49 C 0.44606 0.22986 1.00713
 C50 C 0.45168 0.25119 1.04487
 C51 C 0.48696 0.27548 1.04528
 C52 C 0.50949 0.27474 1.00589
 C53 C 0.44419 0.26191 0.97726
 C54 C 0.47948 0.28613 0.97499
 C55 C 0.48441 0.20772 0.99878
 C56 C 0.52000 0.23190 0.99847
 H57 H 0.42726 0.25610 1.06712
 H58 H 0.53578 0.29455 1.00489
 H59 H 0.41995 0.26455 0.95575
 H60 H 0.48594 0.17514 0.99797
 C61 C 0.46421 0.76499 1.01312
 C62 C 0.46924 0.74146 0.97357
 C63 C 0.50397 0.71826 0.97050
 C64 C 0.53069 0.72026 1.00785
 C65 C 0.46767 0.73321 1.04656
 C66 C 0.50228 0.70965 1.04385
 C67 C 0.50130 0.78742 1.01615
 C68 C 0.53842 0.76322 1.01251
 H69 H 0.44756 0.74402 0.94944
 H70 H 0.55767 0.69958 1.00484
 H71 H 0.44701 0.73239 1.07267
 H72 H 0.50061 0.81868 1.02520
 B73 B 0.99135 1.03935 0.01417
 B74 B 1.02001 0.99827 0.03161
 B75 B 0.96769 0.99789 0.03450
 B76 B 0.94881 1.02089 -0.00840
 B77 B 0.99034 1.03590 -0.03778
 B78 B 1.03403 1.02208 -0.01276
 B79 B 0.99439 0.95190 -0.03259
 B80 B 0.96555 0.99289 -0.04992
 B81 B 1.01798 0.99334 -0.05292
 B82 B 1.03672 0.97039 -0.00988
 B83 B 0.99525 0.95516 0.01941
 B84 B 0.95163 0.96913 -0.00558
 B85 B 0.54678 0.50497 0.47995
 B86 B 0.50231 0.53011 0.46646
 B87 B 0.50594 0.47839 0.46391
 B88 B 0.53392 0.46161 0.50500
 B89 B 0.54747 0.50315 0.53201
 B90 B 0.52758 0.54557 0.50837
 B91 B 0.46243 0.49991 0.53524
 B92 B 0.50683 0.47487 0.54879
 B93 B 0.50316 0.52662 0.55095
 B94 B 0.47523 0.54345 0.51010
 B95 B 0.46147 0.50185 0.48314
 B96 B 0.48158 0.45920 0.50672
 C97 C 0.99466 1.38359 0.13019
 C98 C 1.00156 1.34720 0.15061
 C99 C 1.01197 1.34758 0.19131
 C100 C 1.01498 1.38404 0.21169
 C101 C 1.00784 1.42107 0.19180
 C102 C 0.99768 1.42031 0.15055
 C103 C 0.99731 1.30924 0.13045
 C104 C 0.99402 1.27680 0.11477
 C105 C 0.99076 1.23828 0.09743
 C106 C 0.98878 1.20508 0.08309
 C107 C 0.98770 1.16525 0.06613
 C108 C 0.96934 1.13431 0.08756
 C109 C 0.97061 1.09516 0.07195
 C110 C 0.99030 1.08528 0.03430
 C111 C 1.00876 1.11774 0.01376
 C112 C 1.00739 1.15682 0.02917
 H113 H 0.98641 1.38360 0.09865
 H114 H 1.01727 1.31961 0.20751
 H115 H 1.02228 1.38339 0.24348
 H116 H 0.99113 1.44748 0.13381
 H117 H 0.95472 1.14019 0.11687
 H118 H 0.95803 1.07291 0.09116
 H119 H 1.02671 1.11341 -0.01352
 H120 H 1.02269 1.18032 0.01254
 C121 C 1.01322 0.62457 0.15166
 C122 C 0.99670 0.65556 0.17629
 C123 C 0.98347 0.64682 0.21590
 C124 C 0.98632 0.60726 0.23059
 C125 C 1.00216 0.57567 0.20577
 C126 C 1.01605 0.58509 0.16622
 C127 C 0.99362 0.69612 0.16058
 C128 C 0.99168 0.72960 0.14626
 C129 C 0.99035 0.76832 0.12822
 C130 C 0.99025 0.80086 0.11184
 C131 C 0.99168 0.83908 0.09104
 C132 C 0.95892 0.86683 0.09314
 C133 C 0.96066 0.90321 0.07177
 C134 C 0.99523 0.91372 0.04786
 C135 C 1.02748 0.88448 0.04642
 C136 C 1.02601 0.84819 0.06764
 H137 H 1.02400 0.63092 0.12110
 H138 H 0.97080 0.67055 0.23540
 H139 H 0.97554 0.60158 0.26117
 H140 H 1.02969 0.56214 0.14646
 H141 H 0.93179 0.86033 0.11105
 H142 H 0.93454 0.92291 0.07486
 H143 H 1.05446 0.88858 0.02918
 H144 H 1.05174 0.82694 0.06534
 C145 C 1.02149 1.37390 -0.15243
 C146 C 1.00914 1.34071 -0.17436
 C147 C 0.99544 1.34571 -0.21363
 C148 C 0.99354 1.38382 -0.23093
 C149 C 1.00468 1.41826 -0.20912
 C150 C 1.01970 1.41236 -0.16967
 C151 C 1.00990 1.30121 -0.15701
 C152 C 1.00915 1.26751 -0.14393
 C153 C 1.00676 1.22785 -0.12967
 C154 C 1.00360 1.19400 -0.11755
 C155 C 0.99872 1.15405 -0.10236
 C156 C 0.96273 1.14442 -0.08212
 C157 C 0.95895 1.10665 -0.06440
 C158 C 0.99074 1.07698 -0.06606
 C159 C 1.02610 1.08741 -0.08868
 C160 C 1.03016 1.12518 -0.10647
 H161 H 1.03271 1.37003 -0.12207
 H162 H 0.98621 1.32007 -0.23100
 H163 H 0.98334 1.38647 -0.26178
 H164 H 1.03089 1.43671 -0.15197
 H165 H 0.93778 1.16650 -0.07903
 H166 H 0.93095 1.10217 -0.04910
 H167 H 1.05161 1.06718 -0.09244
 H168 H 1.05828 1.13211 -0.12253
 C169 C 0.99361 0.64095 -0.21050
 C170 C 1.01087 0.64473 -0.17257
 C171 C 1.02802 0.61086 -0.15370
 C172 C 1.02753 0.57320 -0.17245
 C173 C 1.00977 0.56859 -0.21063
 C174 C 0.99306 0.60340 -0.22943
 C175 C 1.01019 0.68329 -0.15278
 C176 C 1.00910 0.71575 -0.13651
 C177 C 1.00734 0.75401 -0.11800
 C178 C 1.00553 0.78699 -0.10282
 C179 C 1.00312 0.82676 -0.08563
 C180 C 0.98280 0.83395 -0.04868
 C181 C 0.97936 0.87295 -0.03293
 C182 C 0.99640 0.90632 -0.05321
 C183 C 1.01614 0.89769 -0.09110
 C184 C 1.01953 0.85877 -0.10691
 H185 H 0.97992 0.66700 -0.22524
 H186 H 1.04174 0.61351 -0.12439
 H187 H 1.04201 0.54803 -0.15709
 H188 H 0.97761 0.60207 -0.25781
 H189 H 0.96893 0.80950 -0.03221
 H190 H 0.96137 0.87643 -0.00550
 H191 H 1.02727 0.92058 -0.11040
 H192 H 1.03447 0.85383 -0.13625
 C193 C 1.21537 1.00253 0.33224
 C194 C 1.17317 0.99948 0.33008
 C195 C 1.14910 0.99935 0.36567
 C196 C 1.16716 1.00182 0.40343
 C197 C 1.20984 1.00428 0.40611
 C198 C 1.23350 1.00500 0.36983
 C199 C 1.15466 0.99690 0.29127
 C200 C 1.13941 0.99512 0.25860
 C201 C 1.12153 0.99382 0.22033
 C202 C 1.10593 0.99368 0.18776
 C203 C 1.08662 0.99500 0.14923
 C204 C 1.08992 0.96244 0.12274
 C205 C 1.07017 0.96414 0.08577
 C206 C 1.04691 0.99846 0.07345
 C207 C 1.04424 1.03051 0.10152
 C208 C 1.06383 1.02909 0.13842
 H209 H 1.23430 1.00291 0.30486
 H210 H 1.11629 0.99733 0.36424
 H211 H 1.14723 1.00180 0.42987
 H212 H 1.26632 1.00718 0.37070
 H213 H 1.10747 0.93554 0.13070
 H214 H 1.07391 0.93813 0.06715
 H215 H 1.02724 1.05723 0.09608
 H216 H 1.06074 1.05465 0.15878
 C217 C 1.15076 1.01520 -0.39274
 C218 C 1.17268 0.99983 -0.36016
 C219 C 1.21355 0.98736 -0.36620
 C220 C 1.23219 0.98962 -0.40477
 C221 C 1.21009 1.00401 -0.43807
 C222 C 1.16925 1.01743 -0.43125
 C223 C 1.15296 0.99680 -0.32074
 C224 C 1.13585 0.99446 -0.28802
 C225 C 1.11546 0.99205 -0.24984
 C226 C 1.09811 0.99042 -0.21719
 C227 C 1.07783 0.98913 -0.17792
 C228 C 1.03962 1.00791 -0.17158
 C229 C 1.02129 1.00898 -0.13285
 C230 C 1.04036 0.99143 -0.09873
 C231 C 1.07890 0.97204 -0.10671
 C232 C 1.09727 0.97098 -0.14539
 H233 H 1.11924 1.02541 -0.38841
 H234 H 1.23096 0.97563 -0.34115
 H235 H 1.26365 0.97940 -0.40834
 H236 H 1.15146 1.03007 -0.45554
 H237 H 1.02430 1.02275 -0.19641
 H238 H 0.99310 1.02611 -0.13002
 H239 H 1.09694 0.95979 -0.08327
 H240 H 1.12730 0.95681 -0.14961
 C241 C 0.78405 1.01495 0.34788
 C242 C 0.82633 1.00925 0.34528
 C243 C 0.84828 1.00080 0.38012
 C244 C 0.82794 0.99822 0.41772
 C245 C 0.78526 1.00447 0.42088
 C246 C 0.76368 1.01236 0.38525
 C247 C 0.84666 1.01058 0.30643
 C248 C 0.86260 1.01113 0.27329
 C249 C 0.88024 1.01093 0.23410
 C250 C 0.89488 1.00989 0.20038
 C251 C 0.91220 1.00750 0.16018
 C252 C 0.94889 0.98632 0.15318
 C253 C 0.96516 0.98255 0.11397
 C254 C 0.94581 1.00024 0.08016
 C255 C 0.90792 1.02070 0.08852
 C256 C 0.89148 1.02438 0.12780
 H257 H 0.76675 1.02099 0.32094
 H258 H 0.88105 0.99569 0.37816
 H259 H 0.84592 0.99050 0.44361
 H260 H 0.73078 1.01633 0.38640
 H261 H 0.96476 0.97205 0.17800
 H262 H 0.99238 0.96402 0.11085
 H263 H 0.88943 1.03271 0.06526
 H264 H 0.86226 1.03999 0.13278
 C265 C 0.76943 1.00827 -0.35184
 C266 C 0.80926 0.99374 -0.34601
 C267 C 0.83279 0.97861 -0.37883
 C268 C 0.81678 0.97862 -0.41755
 C269 C 0.77700 0.99404 -0.42405
 C270 C 0.75331 1.00828 -0.39053
 C271 C 0.82630 0.99482 -0.30649
 C272 C 0.84117 0.99570 -0.27365
 C273 C 0.85938 0.99637 -0.23559
 C274 C 0.87570 0.99632 -0.20344
 C275 C 0.89616 0.99521 -0.16561
 C276 C 0.89363 1.02799 -0.13941
 C277 C 0.91459 1.02667 -0.10318
 C278 C 0.93828 0.99252 -0.09131
 C279 C 0.94038 0.96030 -0.11917
 C280 C 0.91957 0.96134 -0.15538
 H281 H 0.75093 1.01994 -0.32654
 H282 H 0.86359 0.96696 -0.37452
 H283 H 0.83558 0.96631 -0.44227
 H284 H 0.72263 1.02026 -0.39392
 H285 H 0.87574 1.05477 -0.14706
 H286 H 0.91142 1.05281 -0.08479
 H287 H 0.95755 0.93359 -0.11398
 H288 H 0.92213 0.93565 -0.17561
 C289 C 1.36165 1.16811 -0.03302
 C290 C 1.33959 1.15925 0.00243
 C291 C 1.35472 1.16958 0.03997
 C292 C 1.39049 1.19095 0.04210
 C293 C 1.41123 1.20377 0.00639
 C294 C 1.39748 1.18945 -0.03106
 C295 C 1.30046 1.14139 0.00026
 C296 C 1.26710 1.12763 -0.00149
 C297 C 1.22771 1.11236 -0.00363
 C298 C 1.19401 1.09943 -0.00572
 C299 C 1.15405 1.08354 -0.00868
 C300 C 1.12543 1.08837 0.02291
 C301 C 1.08744 1.07096 0.02046
 C302 C 1.07628 1.04826 -0.01356
 C303 C 1.10608 1.04494 -0.04516
 C304 C 1.14406 1.06225 -0.04298
 H305 H 1.35068 1.15936 -0.06227
 H306 H 1.33844 1.16174 0.06770
 H307 H 1.40127 1.19736 0.07195
 H308 H 1.41376 1.19598 -0.05914
 H309 H 1.13264 1.10502 0.04985
 H310 H 1.06738 1.07555 0.04593
 H311 H 1.10141 1.02885 -0.07193
 H312 H 1.16596 1.05828 -0.06793
 C313 C 0.63339 1.21654 0.00812
 C314 C 0.63946 1.17756 -0.00740
 C315 C 0.60642 1.15754 -0.02257
 C316 C 0.56743 1.17582 -0.02146
 C317 C 0.56030 1.21478 -0.00493
 C318 C 0.59435 1.23508 0.00923
 C319 C 0.67923 1.15752 -0.00702
 C320 C 0.71213 1.14005 -0.00662
 C321 C 0.75053 1.11925 -0.00611
 C322 C 0.78339 1.10171 -0.00569
 C323 C 0.82306 1.08148 -0.00524
 C324 C 0.82951 1.04352 -0.02264
 C325 C 0.86851 1.02504 -0.02371
 C326 C 0.90276 1.04365 -0.00743
 C327 C 0.89473 1.08218 0.01007
 C328 C 0.85585 1.10066 0.01115
 H329 H 0.65873 1.23238 0.02011
 H330 H 0.61071 1.12753 -0.03511
 H331 H 0.54320 1.15924 -0.03442
 H332 H 0.59118 1.26442 0.02320
 H333 H 0.80454 1.02839 -0.03621
 H334 H 0.87146 0.99693 -0.03964
 H335 H 0.91830 1.10011 0.02072
 H336 H 0.85163 1.13052 0.02408
 C337 C 1.38452 0.84849 -0.00826
 C338 C 1.34868 0.83009 0.00428
 C339 C 1.35038 0.79174 0.02144
 C340 C 1.38781 0.77147 0.02570
 C341 C 1.42441 0.78965 0.01372
 C342 C 1.42213 0.82828 -0.00399
 C343 C 1.30980 0.84956 -0.00179
 C344 C 1.27660 0.86481 -0.00638
 C345 C 1.23731 0.88189 -0.01066
 C346 C 1.20350 0.89642 -0.01298
 C347 C 1.16326 0.91420 -0.01377
 C348 C 1.15538 0.95109 0.00498
 C349 C 1.11593 0.96761 0.00682
 C350 C 1.08268 0.94837 -0.01048
 C351 C 1.09192 0.91045 -0.02879
 C352 C 1.13150 0.89368 -0.03047
 H353 H 1.38332 0.87798 -0.02225
 H354 H 1.32263 0.77702 0.03057
 H355 H 1.38778 0.74096 0.03708
 H356 H 1.44917 0.84241 -0.01582
 H357 H 1.17963 0.96681 0.01918
 H358 H 1.11208 0.99480 0.02401
 H359 H 1.06902 0.89205 -0.04015
 H360 H 1.13711 0.86431 -0.04412
 C361 C 0.62093 0.83769 0.00128
 C362 C 0.65576 0.81308 0.00564
 C363 C 0.65205 0.77209 0.01335
 C364 C 0.61353 0.75553 0.01623
 C365 C 0.57772 0.77980 0.01144
 C366 C 0.58236 0.82138 0.00416
 C367 C 0.69528 0.83012 0.00222
 C368 C 0.72806 0.84514 -0.00048
 C369 C 0.76595 0.86361 -0.00308
 C370 C 0.79794 0.88021 -0.00446
 C371 C 0.83554 0.90097 -0.00476
 C372 C 0.86298 0.89764 -0.03751
 C373 C 0.89923 0.91845 -0.03731
 C374 C 0.90986 0.94269 -0.00425
 C375 C 0.88062 0.94588 0.02778
 C376 C 0.84440 0.92524 0.02785
 H377 H 0.62355 0.86955 -0.00484
 H378 H 0.67897 0.75285 0.01719
 H379 H 0.61267 0.72388 0.02315
 H380 H 0.55661 0.84160 -0.00105
 H381 H 0.85638 0.87909 -0.06333
 H382 H 0.91875 0.91449 -0.06328
 H383 H 0.88480 0.96380 0.05350
 H384 H 0.82314 0.92849 0.05342
 C385 C 0.87747 0.53626 0.32205
 C386 C 0.86389 0.50337 0.34471
 C387 C 0.88967 0.46935 0.34908
 C388 C 0.92773 0.46722 0.32902
 C389 C 0.94061 0.49913 0.30436
 C390 C 0.91572 0.53418 0.30203
 C391 C 0.82245 0.50289 0.36053
 C392 C 0.78754 0.50163 0.37296
 C393 C 0.74655 0.50011 0.38727
 C394 C 0.71168 0.49970 0.39993
 C395 C 0.67041 0.50128 0.41631
 C396 C 0.64490 0.46870 0.41353
 C397 C 0.60571 0.47067 0.43168
 C398 C 0.59041 0.50522 0.45309
 C399 C 0.61721 0.53753 0.45445
 C400 C 0.65610 0.53582 0.43642
 H401 H 0.85774 0.56269 0.31825
 H402 H 0.87959 0.44369 0.36644
 H403 H 0.94625 0.43973 0.33094
 H404 H 0.92436 0.55864 0.28238
 H405 H 0.65544 0.44148 0.39793
 H406 H 0.58791 0.44459 0.42885
 H407 H 0.60956 0.56464 0.46967
 H408 H 0.67541 0.56147 0.43898
 C409 C 0.11918 0.51885 0.35145
 C410 C 0.15766 0.51052 0.33316
 C411 C 0.16042 0.50015 0.29214
 C412 C 0.12517 0.49673 0.26985
 C413 C 0.08634 0.50354 0.28819
 C414 C 0.08366 0.51559 0.32899
 C415 C 0.19453 0.51073 0.35617
 C416 C 0.22638 0.50967 0.37380
 C417 C 0.26448 0.50758 0.39309
 C418 C 0.29735 0.50558 0.40880
 C419 C 0.33691 0.50345 0.42711
 C420 C 0.36999 0.48366 0.40751
 C421 C 0.40862 0.48307 0.42459
 C422 C 0.41592 0.50215 0.46195
 C423 C 0.38143 0.52200 0.48076
 C424 C 0.34283 0.52255 0.46387
 H425 H 0.11658 0.52695 0.38320
 H426 H 0.18988 0.49387 0.27749
 H427 H 0.12830 0.48814 0.23827
 H428 H 0.05417 0.52085 0.34389
 H429 H 0.36619 0.46921 0.37852
 H430 H 0.43265 0.46923 0.40687
 H431 H 0.38372 0.53907 0.50805
 H432 H 0.31770 0.53864 0.47931
 C433 C 0.85158 0.50869 0.70336
 C434 C 0.85287 0.52999 0.66705
 C435 C 0.88984 0.54512 0.65259
 C436 C 0.92576 0.53752 0.67387
 C437 C 0.92515 0.51379 0.70938
 C438 C 0.88709 0.50071 0.72430
 C439 C 0.81619 0.53321 0.64429
 C440 C 0.78406 0.53260 0.62756
 C441 C 0.74551 0.52891 0.61038
 C442 C 0.71216 0.52410 0.59721
 C443 C 0.67208 0.51723 0.58266
 C444 C 0.66729 0.49519 0.54740
 C445 C 0.62831 0.48840 0.53354
 C446 C 0.59261 0.50459 0.55340
 C447 C 0.59876 0.52375 0.59101
 C448 C 0.63770 0.53039 0.60513
 H449 H 0.82305 0.49732 0.71517
 H450 H 0.89114 0.56165 0.62434
 H451 H 0.95402 0.54797 0.66077
 H452 H 0.88417 0.48454 0.75259
 H453 H 0.69369 0.48290 0.53065
 H454 H 0.62688 0.46933 0.50752
 H455 H 0.57417 0.53232 0.61105
 H456 H 0.64087 0.54564 0.63381
 C457 C 0.12447 0.47776 0.64850
 C458 C 0.14012 0.51626 0.64779
 C459 C 0.11677 0.54875 0.66394
 C460 C 0.07891 0.54222 0.68311
 C461 C 0.06463 0.50277 0.68732
 C462 C 0.08714 0.47105 0.66791
 C463 C 0.18180 0.52067 0.63442
 C464 C 0.21739 0.52120 0.62454
 C465 C 0.25929 0.51885 0.61383
 C466 C 0.29499 0.51506 0.60464
 C467 C 0.33727 0.50915 0.59280
 C468 C 0.36512 0.53885 0.59969
 C469 C 0.40524 0.53413 0.58479
 C470 C 0.41901 0.50003 0.56200
 C471 C 0.39056 0.46941 0.55834
 C472 C 0.35044 0.47384 0.57319
 H473 H 0.14202 0.45245 0.63563
 H474 H 0.12869 0.57875 0.66354
 H475 H 0.06312 0.56762 0.69764
 H476 H 0.07649 0.44058 0.66853
 H477 H 0.35565 0.56621 0.61565
 H478 H 0.42460 0.55820 0.59075
 H479 H 0.39802 0.44195 0.54354
 H480 H 0.32938 0.45000 0.56832
 C481 C 0.49011 0.63737 0.13029
 C482 C 0.52635 0.64270 0.15063
 C483 C 0.55720 0.66544 0.13282
 C484 C 0.55075 0.68481 0.09581
 C485 C 0.51324 0.68187 0.07681
 C486 C 0.48355 0.65689 0.09358
 C487 C 0.52897 0.62937 0.19183
 C488 C 0.52833 0.61958 0.22689
 C489 C 0.52485 0.60897 0.26806
 C490 C 0.52020 0.59985 0.30308
 C491 C 0.51338 0.58801 0.34443
 C492 C 0.54252 0.59441 0.37327
 C493 C 0.53713 0.57931 0.41242
 C494 C 0.50287 0.55688 0.42420
 C495 C 0.47280 0.55363 0.39475
 C496 C 0.47789 0.56868 0.35558
 H497 H 0.46599 0.61999 0.14392
 H498 H 0.58520 0.67001 0.14855
 H499 H 0.57373 0.70444 0.08374
 H500 H 0.45442 0.65427 0.07934
 H501 H 0.57002 0.61008 0.36529
 H502 H 0.56087 0.58484 0.43260
 H503 H 0.44532 0.53898 0.40062
 H504 H 0.45451 0.56413 0.33366
 C505 C 0.53582 0.63540 0.89678
 C506 C 0.52901 0.65498 0.85986
 C507 C 0.51744 0.69580 0.85935
 C508 C 0.51089 0.71667 0.89554
 C509 C 0.51587 0.69694 0.93276
 C510 C 0.52957 0.65649 0.93326
 C511 C 0.52999 0.63329 0.82233
 C512 C 0.52824 0.61751 0.78972
 C513 C 0.52391 0.60148 0.75076
 C514 C 0.51900 0.58929 0.71705
 C515 C 0.51251 0.57584 0.67658
 C516 C 0.52605 0.59843 0.64370
 C517 C 0.52066 0.58485 0.60431
 C518 C 0.50243 0.54772 0.59633
 C519 C 0.48552 0.52787 0.63051
 C520 C 0.49110 0.54118 0.66992
 H521 H 0.54462 0.60371 0.89739
 H522 H 0.51211 0.71118 0.83094
 H523 H 0.50098 0.74806 0.89450
 H524 H 0.53349 0.64084 0.96173
 H525 H 0.54087 0.62663 0.64843
 H526 H 0.52968 0.60476 0.58084
 H527 H 0.46706 0.50213 0.62750
 H528 H 0.47859 0.52435 0.69520
 C529 C 0.52912 0.35168 0.11631
 C530 C 0.51151 0.33936 0.15331
 C531 C 0.48818 0.30514 0.15436
 C532 C 0.48123 0.28401 0.11899
 C533 C 0.49721 0.29654 0.08095
 C534 C 0.52240 0.33023 0.08040
 C535 C 0.51565 0.36138 0.19070
 C536 C 0.51649 0.37757 0.22347
 C537 C 0.51546 0.39474 0.26286
 C538 C 0.51374 0.40862 0.29677
 C539 C 0.51152 0.42508 0.33738
 C540 C 0.49145 0.40505 0.36884
 C541 C 0.48989 0.42105 0.40818
 C542 C 0.50820 0.45777 0.41777
 C543 C 0.52872 0.47675 0.38495
 C544 C 0.53021 0.46097 0.34572
 H545 H 0.54744 0.37817 0.11507
 H546 H 0.47490 0.29478 0.18276
 H547 H 0.46373 0.25715 0.12214
 H548 H 0.53539 0.34146 0.05236
 H549 H 0.47723 0.37673 0.36314
 H550 H 0.47552 0.40333 0.43088
 H551 H 0.54538 0.50353 0.38895
 H552 H 0.54648 0.47676 0.32191
 C553 C 0.53032 0.33454 0.88538
 C554 C 0.49613 0.34822 0.86404
 C555 C 0.45746 0.34626 0.88238
 C556 C 0.45249 0.32837 0.92033
 C557 C 0.48613 0.31153 0.94102
 C558 C 0.52548 0.31681 0.92386
 C559 C 0.49956 0.36205 0.82251
 C560 C 0.50035 0.37299 0.78752
 C561 C 0.50023 0.38573 0.74644
 C562 C 0.50050 0.39720 0.71162
 C563 C 0.50263 0.41238 0.67053
 C564 C 0.47028 0.40945 0.64416
 C565 C 0.47258 0.42692 0.60539
 C566 C 0.50714 0.44801 0.59149
 C567 C 0.53937 0.44915 0.61892
 C568 C 0.53736 0.43177 0.65732
 H569 H 0.56056 0.33611 0.87164
 H570 H 0.43079 0.35741 0.86672
 H571 H 0.42184 0.32729 0.93310
 H572 H 0.55232 0.30437 0.93822
 H573 H 0.44292 0.39435 0.65372
 H574 H 0.44665 0.42410 0.58691
 H575 H 0.56666 0.46375 0.61222
 H576 H 0.56290 0.43436 0.67717
 C577 C 0.65498 0.86873 0.47746
 C578 C 0.64585 0.85592 0.51678
 C579 C 0.65567 0.87971 0.54978
 C580 C 0.67575 0.91577 0.54344
 C581 C 0.68684 0.92823 0.50383
 C582 C 0.67516 0.90442 0.47098
 C583 C 0.62862 0.81715 0.52247
 C584 C 0.61533 0.78391 0.52465
 C585 C 0.60083 0.74456 0.52455
 C586 C 0.58895 0.71079 0.52263
 C587 C 0.57498 0.67057 0.51867
 C588 C 0.59764 0.63805 0.53373
 C589 C 0.58430 0.59893 0.52892
 C590 C 0.54742 0.59081 0.50953
 C591 C 0.52691 0.62462 0.49233
 C592 C 0.54001 0.66371 0.49726
 H593 H 0.64713 0.85069 0.45167
 H594 H 0.64887 0.86984 0.58042
 H595 H 0.68460 0.93213 0.56989
 H596 H 0.68106 0.91331 0.43992
 H597 H 0.62599 0.64279 0.54882
 H598 H 0.60454 0.57567 0.53888
 H599 H 0.50119 0.62154 0.47349
 H600 H 0.52301 0.68857 0.48379
 C601 C 0.63297 0.12189 0.49516
 C602 C 0.64435 0.14460 0.52841
 C603 C 0.67197 0.12822 0.55599
 C604 C 0.69004 0.09012 0.54894
 C605 C 0.68061 0.06837 0.51425
 C606 C 0.65114 0.08394 0.48802
 C607 C 0.63242 0.18645 0.53046
 C608 C 0.62377 0.22186 0.52955
 C609 C 0.61435 0.26326 0.52597
 C610 C 0.60598 0.29842 0.52134
 C611 C 0.59461 0.33985 0.51463
 C612 C 0.60051 0.36868 0.54417
 C613 C 0.58486 0.40787 0.53920
 C614 C 0.56222 0.41958 0.50506
 C615 C 0.55988 0.39021 0.47445
 C616 C 0.57553 0.35103 0.47910
 H617 H 0.61197 0.13451 0.47341
 H618 H 0.68144 0.14586 0.58144
 H619 H 0.71377 0.07926 0.56863
 H620 H 0.64409 0.06775 0.46076
 H621 H 0.61602 0.36064 0.57173
 H622 H 0.58993 0.42806 0.56322
 H623 H 0.54519 0.39614 0.44702
 H624 H 0.57136 0.32908 0.45544
 C625 C 0.35879 0.88342 0.46768
 C626 C 0.34839 0.85969 0.50117
 C627 C 0.32221 0.87583 0.53172
 C628 C 0.30476 0.91464 0.52765
 C629 C 0.31325 0.93763 0.49295
 C630 C 0.34130 0.92209 0.46355
 C631 C 0.36173 0.81786 0.50227
 C632 C 0.37221 0.78266 0.50232
 C633 C 0.38443 0.74138 0.50225
 C634 C 0.39552 0.70635 0.50296
 C635 C 0.41033 0.66506 0.50563
 C636 C 0.42872 0.65200 0.54087
 C637 C 0.44650 0.61343 0.54312
 C638 C 0.44679 0.58587 0.51054
 C639 C 0.42614 0.59955 0.47569
 C640 C 0.40832 0.63842 0.47315
 H641 H 0.37890 0.87133 0.44379
 H642 H 0.31369 0.85771 0.55767
 H643 H 0.28225 0.92527 0.54996
 H644 H 0.34783 0.93906 0.43626
 H645 H 0.43042 0.67212 0.56654
 H646 H 0.46041 0.60675 0.57076
 H647 H 0.42416 0.58092 0.44960
 H648 H 0.39389 0.64791 0.44547
 C649 C 0.30181 0.15683 0.49219
 C650 C 0.34176 0.15501 0.50583
 C651 C 0.36006 0.11748 0.51524
 C652 C 0.33875 0.08195 0.50986
 C653 C 0.29918 0.08368 0.49459
 C654 C 0.28070 0.12160 0.48666
 C655 C 0.36377 0.19187 0.50829
 C656 C 0.38048 0.22375 0.50890
 C657 C 0.39855 0.26192 0.50849
 C658 C 0.41309 0.29488 0.50770
 C659 C 0.42985 0.33457 0.50672
 C660 C 0.46560 0.34207 0.52673
 C661 C 0.48110 0.38074 0.52681
 C662 C 0.46187 0.41366 0.50668
 C663 C 0.42545 0.40485 0.48689
 C664 C 0.40978 0.36617 0.48684
 H665 H 0.28716 0.18556 0.48503
 H666 H 0.39098 0.11562 0.52588
 H667 H 0.35370 0.05317 0.51611
 H668 H 0.24995 0.12401 0.47565
 H669 H 0.48138 0.31810 0.54286
 H670 H 0.50779 0.38429 0.54426
 H671 H 0.40741 0.42770 0.47283
 H672 H 0.38153 0.36113 0.47170
   
