data_POSCAR
  _audit_creation_date              2014-09-24
  _audit_creation_method            'ToBaCCo'
  _symmetry_space_group_name_H-M    'P1'
  _symmetry_Int_Tables_number       1
  _symmetry_cell_setting            triclinic
  loop_
  _symmetry_equiv_pos_as_xyz
 x,y,z
_cell_length_a 32.3771
_cell_length_b 32.5415
_cell_length_c 32.7210
_cell_angle_alpha 90.012800
_cell_angle_beta 89.759600
_cell_angle_gamma 89.825200
loop_
  _atom_site_label
  _atom_site_type_symbol
  _atom_site_fract_x
  _atom_site_fract_y
  _atom_site_fract_z
N1 N 0.36118 0.36657 1.35897
 N2 N 1.13633 0.63594 0.86280
 N3 N 0.63698 -0.14442 0.13598
 N4 N -0.13839 1.14194 -0.35551
 N5 N 0.63452 0.64306 0.63933
 N6 N 0.86384 0.36193 0.14140
 N7 N 0.36351 0.13302 0.85762
 N8 N 0.13998 0.86375 0.36383
 Zn9 Zn 0.01209 1.04768 -0.02294
 Zn10 Zn -0.03170 0.96702 -0.03004
 Zn11 Zn 0.04951 0.97276 0.01331
 Zn12 Zn -0.02569 1.00977 0.05092
 O13 O 0.00095 0.99922 0.00275
 O14 O -0.01206 1.05116 -0.07162
 O15 O -0.00753 0.91864 -0.04279
 O16 O 0.09386 0.99970 -0.00541
 O17 O -0.04437 0.99171 -0.07775
 O18 O 0.06601 1.05548 -0.03231
 O19 O 0.05194 0.92345 -0.01013
 O20 O 0.00173 0.99102 0.09453
 O21 O -0.08030 0.95444 -0.00621
 O22 O 0.05785 0.96396 0.06668
 O23 O -0.07540 0.98629 0.05329
 O24 O -0.03422 1.06350 0.05970
 O25 O -0.00575 1.09154 0.00496
 C26 C -0.03476 1.02685 -0.09179
 C27 C 0.02729 0.90363 -0.03274
 C28 C 0.09744 1.03359 -0.02425
 C29 C 0.03601 0.97233 0.09791
 C30 C -0.09535 0.96398 0.02846
 C31 C -0.02490 1.09496 0.03871
 Zn32 Zn 0.48019 0.01363 0.44473
 Zn33 Zn 0.47003 -0.02625 0.52689
 Zn34 Zn 0.55324 -0.02077 0.48711
 Zn35 Zn 0.51243 0.05522 0.51880
 O36 O 0.50389 0.00540 0.49450
 O37 O 0.43048 -0.00919 0.44168
 O38 O 0.49392 -0.07374 0.54224
 O39 O 0.56399 -0.03269 0.43483
 O40 O 0.42250 -0.03973 0.50164
 O41 O 0.50955 -0.00733 0.40298
 O42 O 0.55533 -0.06906 0.51276
 O43 O 0.56571 0.06401 0.53054
 O44 O 0.45523 -0.00058 0.57347
 O45 O 0.59612 0.00825 0.50578
 O46 O 0.48523 0.06006 0.56609
 O47 O 0.49545 0.09791 0.48834
 O48 O 0.47194 0.06660 0.43329
 C49 C 0.40908 -0.03047 0.46634
 C50 C 0.52949 -0.08850 0.53458
 C51 C 0.54379 -0.02641 0.40228
 C52 C 0.59798 0.04269 0.52390
 C53 C 0.46280 0.03544 0.58636
 C54 C 0.47868 0.09922 0.45337
 Zn55 Zn 0.94961 0.47685 0.49041
 Zn56 Zn 1.03072 0.47024 0.53366
 Zn57 Zn 1.02491 0.51393 0.45332
 Zn58 Zn 0.98716 0.55138 0.52736
 O59 O 0.99816 0.50301 0.50126
 O60 O 0.94658 0.42761 0.51435
 O61 O 1.07929 0.45731 0.50974
 O62 O 0.99787 0.49535 0.40946
 O63 O 1.00641 0.42223 0.54628
 O64 O 0.94199 0.46778 0.43700
 O65 O 1.07474 0.49065 0.45098
 O66 O 1.00606 0.59542 0.50048
 O67 O 1.04299 0.49417 0.58175
 O68 O 1.03358 0.56757 0.44511
 O69 O 1.01020 0.55367 0.57661
 O70 O 0.93318 0.56004 0.53554
 O71 O 0.90519 0.50477 0.50802
 C72 C 0.97138 0.40762 0.53684
 C73 C 1.09452 0.46768 0.47540
 C74 C 0.96390 0.47634 0.40590
 C75 C 1.02508 0.59890 0.46668
 C76 C 1.03272 0.52887 0.59655
 C77 C 0.90165 0.53885 0.52662
 Zn78 Zn 0.47598 0.48163 0.94825
 Zn79 Zn 0.46660 0.52685 1.02759
 Zn80 Zn 0.51209 0.44623 1.02354
 Zn81 Zn 0.54925 0.52055 0.98582
 O82 O 0.50089 0.49393 0.99645
 O83 O 0.42621 0.50427 0.94442
 O84 O 0.45341 0.50356 1.07599
 O85 O 0.49448 0.40119 0.99725
 O86 O 0.41841 0.53857 1.00232
 O87 O 0.46850 0.42777 0.94078
 O88 O 0.48836 0.44504 1.07267
 O89 O 0.59369 0.49394 1.00473
 O90 O 0.49009 0.57559 1.03986
 O91 O 0.56602 0.43864 1.03266
 O92 O 0.55076 0.56996 1.00897
 O93 O 0.55816 0.52918 0.93247
 O94 O 0.50366 0.49993 0.90456
 C95 C 0.40495 0.52741 0.96760
 C96 C 0.46480 0.46970 1.09180
 C97 C 0.47677 0.39689 0.96298
 C98 C 0.59737 0.46032 1.02403
 C99 C 0.52533 0.59020 1.03070
 C100 C 0.53716 0.51978 0.90120
 C101 C 1.25115 0.40714 0.41769
 C102 C 1.25978 0.36493 0.41540
 C103 C 1.29595 0.35158 0.39621
 C104 C 1.32392 0.38011 0.37967
 C105 C 1.31428 0.42210 0.38311
 N106 N 1.27848 0.43433 0.40133
 C107 C 1.21186 0.42265 0.43496
 N108 N 1.19466 0.45702 0.41850
 C109 C 1.15772 0.47217 0.43143
 C110 C 1.13583 0.45258 0.46300
 C111 C 1.15355 0.41781 0.48132
 C112 C 1.19145 0.40262 0.46725
 H113 H 1.30163 0.31889 0.39358
 H114 H 1.33506 0.44513 0.37106
 H115 H 1.14540 0.49939 0.41681
 H116 H 1.13774 0.40191 0.50586
 H117 H 1.23821 0.34237 0.42697
 H118 H 1.20464 0.37567 0.48160
 C119 C 0.25046 0.58948 0.90627
 C120 C 0.24422 0.59417 0.86406
 C121 C 0.20684 0.60970 0.84990
 C122 C 0.17556 0.62082 0.87752
 C123 C 0.18333 0.61685 0.91953
 N124 N 0.22011 0.60146 0.93271
 C125 C 0.28943 0.57201 0.92231
 N126 N 0.30347 0.58382 0.95972
 C127 C 0.33975 0.56958 0.97536
 C128 C 0.36418 0.54180 0.95285
 C129 C 0.34952 0.52845 0.91480
 C130 C 0.31231 0.54327 0.89958
 H131 H 0.20237 0.61329 0.81732
 H132 H 0.15995 0.62541 0.94170
 H133 H 0.34971 0.58042 1.00498
 H134 H 0.36691 0.50665 0.89652
 H135 H 0.26807 0.58647 0.84208
 H136 H 0.30157 0.53196 0.87041
 C137 C -0.25347 0.90314 0.08232
 C138 C -0.28581 0.88993 0.05699
 C139 C -0.32209 0.87472 0.07460
 C140 C -0.32631 0.87262 0.11727
 C141 C -0.29359 0.88687 0.14139
 N142 N -0.25865 0.90149 0.12359
 C143 C -0.21388 0.91923 0.06608
 N144 N -0.18999 0.94233 0.09129
 C145 C -0.15261 0.95724 0.07973
 C146 C -0.13671 0.94873 0.04063
 C147 C -0.16071 0.92492 0.01401
 C148 C -0.19924 0.91011 0.02657
 H149 H -0.34694 0.86463 0.05500
 H150 H -0.29545 0.88571 0.17439
 H151 H -0.13522 0.97535 0.10138
 H152 H -0.14956 0.91740 -0.01634
 H153 H -0.28361 0.89174 0.02406
 H154 H -0.21658 0.89096 0.00584
 C155 C 0.75316 0.09826 0.58772
 C156 C 0.78948 0.10253 0.56447
 C157 C 0.82535 0.11679 0.58322
 C158 C 0.82514 0.12618 0.62499
 C159 C 0.78839 0.12133 0.64719
 N160 N 0.75366 0.10803 0.62819
 C161 C 0.71407 0.08439 0.56929
 N162 N 0.67776 0.09939 0.58430
 C163 C 0.64054 0.08736 0.56954
 C164 C 0.63837 0.05779 0.53839
 C165 C 0.67543 0.04174 0.52260
 C166 C 0.71332 0.05516 0.53775
 H167 H 0.85327 0.12058 0.56531
 H168 H 0.78721 0.12884 0.67939
 H169 H 0.61269 0.10021 0.58285
 H170 H 0.67510 0.01873 0.49868
 H171 H 0.78995 0.09588 0.53206
 H172 H 0.74157 0.04195 0.52569
 C173 C 0.41693 0.25350 0.39258
 C174 C 0.41019 0.26236 0.35109
 C175 C 0.39189 0.29954 0.34013
 C176 C 0.38065 0.32821 0.37020
 C177 C 0.38884 0.31878 0.41119
 N178 N 0.40647 0.28216 0.42123
 C179 C 0.43469 0.21378 0.40615
 N180 N 0.45262 0.21139 0.44367
 C181 C 0.46802 0.17561 0.45888
 C182 C 0.46529 0.13913 0.43612
 C183 C 0.44713 0.14096 0.39729
 C184 C 0.43177 0.17801 0.38228
 H185 H 0.38620 0.30588 0.30816
 H186 H 0.38109 0.34046 0.43511
 H187 H 0.48155 0.17559 0.48907
 H188 H 0.44397 0.11356 0.37879
 H189 H 0.41915 0.24120 0.32716
 H190 H 0.41661 0.17801 0.35291
 C191 C 0.91618 0.25129 0.59887
 C192 C 0.94166 0.21954 0.61363
 C193 C 0.92376 0.18345 0.62850
 C194 C 0.88069 0.17881 0.62868
 C195 C 0.85645 0.21096 0.61310
 N196 N 0.87452 0.24574 0.59885
 C197 C 0.93271 0.29053 0.58271
 N198 N 0.90777 0.31393 0.55867
 C199 C 0.91964 0.35087 0.54341
 C200 C 0.95882 0.36676 0.55247
 C201 C 0.98516 0.34327 0.57726
 C202 C 0.97226 0.30524 0.59247
 H203 H 0.94348 0.15899 0.63960
 H204 H 0.82312 0.20866 0.61275
 H205 H 0.89820 0.36789 0.52453
 H206 H 1.01554 0.35445 0.58525
 H207 H 0.97494 0.22198 0.61318
 H208 H 0.99278 0.28834 0.61235
 C209 C 0.08261 0.74540 -0.09037
 C210 C 0.05697 0.71267 -0.10195
 C211 C 0.07469 0.67631 -0.11656
 C212 C 0.11778 0.67236 -0.11959
 C213 C 0.14227 0.70540 -0.10680
 N214 N 0.12434 0.74049 -0.09276
 C215 C 0.06611 0.78515 -0.07532
 N216 N 0.09141 0.80958 -0.05289
 C217 C 0.07949 0.84704 -0.03883
 C218 C 0.03991 0.86241 -0.04755
 C219 C 0.01324 0.83791 -0.07081
 C220 C 0.02618 0.79931 -0.08476
 H221 H 0.05483 0.65125 -0.12569
 H222 H 0.17559 0.70373 -0.10888
 H223 H 0.10120 0.86485 -0.02114
 H224 H -0.01746 0.84865 -0.07846
 H225 H 0.02372 0.71472 -0.09947
 H226 H 0.00541 0.78149 -0.10347
 C227 C 0.58132 0.74687 1.09071
 C228 C 0.55629 0.77850 1.10658
 C229 C 0.57462 0.81446 1.12106
 C230 C 0.61767 0.81921 1.11952
 C231 C 0.64148 0.78713 1.10304
 N232 N 0.62299 0.75242 1.08925
 C233 C 0.56434 0.70766 1.07504
 N234 N 0.58888 0.68417 1.05051
 C235 C 0.57676 0.64720 1.03568
 C236 C 0.53772 0.63132 1.04571
 C237 C 0.51171 0.65492 1.07093
 C238 C 0.52488 0.69303 1.08571
 H239 H 0.55525 0.83871 1.13334
 H240 H 0.67479 0.78934 1.10178
 H241 H 0.59795 0.63013 1.01640
 H242 H 0.48148 0.64373 1.07967
 H243 H 0.52302 0.77604 1.10745
 H244 H 0.50466 0.71002 1.10598
 C245 C 0.40892 0.42197 1.25185
 C246 C 0.43597 0.41005 1.28314
 C247 C 0.42008 0.39344 1.31912
 C248 C 0.37734 0.38874 1.32416
 C249 C 0.35120 0.40287 1.29299
 N250 N 0.36742 0.41875 1.25797
 C251 C 0.42472 0.43543 1.21160
 N252 N 0.40330 0.46377 1.18945
 C253 C 0.41577 0.47594 1.15152
 C254 C 0.45111 0.45842 1.13347
 C255 C 0.47332 0.42896 1.15574
 C256 C 0.46040 0.41757 1.19472
 H257 H 0.44110 0.38327 1.34272
 H258 H 0.31806 0.39962 1.29576
 H259 H 0.39766 0.49857 1.13522
 H260 H 0.50073 0.41464 1.14301
 H261 H 0.46909 0.41299 1.27965
 H262 H 0.47754 0.39411 1.21092
 C263 C 0.59876 -0.09582 0.24991
 C264 C 0.60776 -0.13794 0.24650
 C265 C 0.61956 -0.15410 0.20875
 C266 C 0.62272 -0.12837 0.17459
 C267 C 0.61310 -0.08658 0.17905
 N268 N 0.60120 -0.07154 0.21609
 C269 C 0.58625 -0.07753 0.28938
 N270 N 0.55766 -0.04676 0.29002
 C271 C 0.54410 -0.02949 0.32552
 C272 C 0.55986 -0.04288 0.36318
 C273 C 0.59023 -0.07375 0.36303
 C274 C 0.60334 -0.09123 0.32629
 H275 H 0.62689 -0.18648 0.20621
 H276 H 0.61511 -0.06607 0.15310
 H277 H 0.52089 -0.00552 0.32429
 H278 H 0.60327 -0.08497 0.39135
 H279 H 0.60527 -0.15825 0.27258
 H280 H 0.62679 -0.11501 0.32680
 C281 C -0.09578 1.08576 -0.24638
 C282 C -0.11014 1.06107 -0.27856
 C283 C -0.12402 1.07958 -0.31451
 C284 C -0.12342 1.12250 -0.31869
 C285 C -0.10865 1.14600 -0.28595
 N286 N -0.09533 1.12732 -0.25128
 C287 C -0.08024 1.06839 -0.20745
 N288 N -0.05588 1.09245 -0.18363
 C289 C -0.04082 1.07963 -0.14713
 C290 C -0.05037 1.04033 -0.13216
 C291 C -0.07557 1.01491 -0.15605
 C292 C -0.09061 1.02879 -0.19363
 H293 H -0.13484 1.06041 -0.33927
 H294 H -0.10812 1.17919 -0.28775
 H295 H -0.02164 1.10042 -0.12976
 H296 H -0.08398 0.98449 -0.14555
 H297 H -0.11007 1.02792 -0.27660
 H298 H -0.11077 1.00894 -0.21091
 C299 C 1.08938 0.58276 0.75427
 C300 C 1.10274 0.55712 0.78619
 C301 C 1.11735 0.57463 0.82230
 C302 C 1.11849 0.61747 0.82682
 C303 C 1.10396 0.64195 0.79465
 N304 N 1.09003 0.62425 0.75977
 C305 C 1.07450 0.56656 0.71469
 N306 N 1.05111 0.59162 0.69081
 C307 C 1.03724 0.58005 0.65346
 C308 C 1.04718 0.54111 0.63766
 C309 C 1.07137 0.51468 0.66163
 C310 C 1.08513 0.52725 0.70008
 H311 H 1.12802 0.55484 0.84669
 H312 H 1.10465 0.67512 0.79686
 H313 H 1.01876 0.60154 0.63608
 H314 H 1.07997 0.48447 0.65054
 H315 H 1.10172 0.52401 0.78371
 H316 H 1.10463 0.50670 0.71742
 C317 C 0.74308 0.59574 0.58370
 C318 C 0.71011 0.56915 0.59269
 C319 C 0.67418 0.58489 0.61049
 C320 C 0.67090 0.62690 0.61932
 C321 C 0.70440 0.65245 0.60991
 N322 N 0.73922 0.63642 0.59281
 C323 C 0.78283 0.58062 0.56681
 N324 N 0.81744 0.60338 0.57307
 C325 C 0.85536 0.59113 0.55985
 C326 C 0.86017 0.55371 0.53895
 C327 C 0.82476 0.53023 0.53121
 C328 C 0.78611 0.54358 0.54492
 H329 H 0.64897 0.56430 0.61771
 H330 H 0.70314 0.68493 0.61693
 H331 H 0.88174 0.61042 0.56623
 H332 H 0.82694 0.50136 0.51486
 H333 H 0.71223 0.53644 0.58728
 H334 H 0.75931 0.52510 0.53812
 C335 C 0.75495 0.40803 1.08625
 C336 C 0.78581 0.43556 1.09877
 C337 C 0.82174 0.42039 1.11682
 C338 C 0.82703 0.37800 1.12241
 C339 C 0.79552 0.35155 1.10957
 N340 N 0.76069 0.36702 1.09232
 C341 C 0.71548 0.42221 1.06842
 N342 N 0.68168 0.39767 1.07203
 C343 C 0.64404 0.40878 1.05744
 C344 C 0.63873 0.44673 1.03772
 C345 C 0.67339 0.47209 1.03271
 C346 C 0.71175 0.45996 1.04793
 H347 H 0.84544 0.44164 1.12648
 H348 H 0.79836 0.31870 1.11384
 H349 H 0.61826 0.38810 1.06172
 H350 H 0.67080 0.50150 1.01744
 H351 H 0.78204 0.46843 1.09567
 H352 H 0.73805 0.47987 1.04331
 C353 C 0.25481 1.08652 -0.08696
 C354 C 0.28447 1.05904 -0.10267
 C355 C 0.32037 1.07435 -0.12077
 C356 C 0.32694 1.11684 -0.12303
 C357 C 0.29653 1.14326 -0.10716
 N358 N 0.26164 1.12767 -0.09002
 C359 C 0.21539 1.07219 -0.06900
 N360 N 0.18184 1.09745 -0.07058
 C361 C 0.14425 1.08617 -0.05582
 C362 C 0.13877 1.04730 -0.03802
 C363 C 0.17321 1.02117 -0.03506
 C364 C 0.21150 1.03346 -0.05047
 H365 H 0.34306 1.05311 -0.13301
 H366 H 0.30023 1.17624 -0.10905
 H367 H 0.11865 1.10745 -0.05845
 H368 H 0.17048 0.99101 -0.02135
 H369 H 0.27970 1.02616 -0.10202
 H370 H 0.23764 1.01291 -0.04756
 C371 C 0.24976 -0.08616 0.41321
 C372 C 0.21973 -0.05983 0.39669
 C373 C 0.18324 -0.07622 0.38132
 C374 C 0.17653 -0.11879 0.38217
 C375 C 0.20679 -0.14393 0.40017
 N376 N 0.24215 -0.12723 0.41499
 C377 C 0.28995 -0.07039 0.42743
 N378 N 0.30962 -0.08934 0.45901
 C379 C 0.34727 -0.07685 0.47255
 C380 C 0.36766 -0.04408 0.45329
 C381 C 0.34800 -0.02445 0.42048
 C382 C 0.30922 -0.03735 0.40762
 H383 H 0.16034 -0.05571 0.36846
 H384 H 0.20283 -0.17691 0.40145
 H385 H 0.36152 -0.09297 0.49778
 H386 H 0.36260 0.00093 0.40470
 H387 H 0.22431 -0.02691 0.39571
 H388 H 0.29505 -0.02227 0.38172
 C389 C 0.58175 -0.24484 0.59811
 C390 C 0.57948 -0.25499 0.63973
 C391 C 0.59663 -0.29191 0.65331
 C392 C 0.61569 -0.31901 0.62553
 C393 C 0.61674 -0.30783 0.58408
 N394 N 0.60041 -0.27142 0.57169
 C395 C 0.56657 -0.20502 0.58245
 N396 N 0.58637 -0.18769 0.55004
 C397 C 0.57495 -0.15076 0.53435
 C398 C 0.54137 -0.12910 0.55115
 C399 C 0.51987 -0.14677 0.58403
 C400 C 0.53250 -0.18462 0.59991
 H401 H 0.59573 -0.29887 0.68564
 H402 H 0.63078 -0.32790 0.56158
 H403 H 0.59208 -0.13848 0.50866
 H404 H 0.49369 -0.13114 0.59774
 H405 H 0.56590 -0.23411 0.66179
 H406 H 0.51549 -0.19790 0.62517
 C407 C 1.08568 0.75577 0.41218
 C408 C 1.09670 0.78786 0.43876
 C409 C 1.11441 0.82354 0.42286
 C410 C 1.12125 0.82730 0.38071
 C411 C 1.10980 0.79466 0.35522
 N412 N 1.09282 0.76016 0.37137
 C413 C 1.06834 0.71646 0.42708
 N414 N 1.07271 0.68241 0.40325
 C415 C 1.05854 0.64492 0.41487
 C416 C 1.03848 0.64002 0.45266
 C417 C 1.03274 0.67489 0.47734
 C418 C 1.04751 0.71310 0.46468
 H419 H 1.12293 0.84820 0.44336
 H420 H 1.11496 0.79639 0.32257
 H421 H 1.06341 0.61897 0.39470
 H422 H 1.01717 0.67260 0.50661
 H423 H 1.09273 0.78529 0.47148
 H424 H 1.04225 0.73954 0.48406
 C425 C -0.08184 1.25307 0.09442
 C426 C -0.09361 1.28457 0.06744
 C427 C -0.11105 1.32061 0.08296
 C428 C -0.11677 1.32541 0.12516
 C429 C -0.10444 1.29339 0.15112
 N430 N -0.08783 1.25840 0.13530
 C431 C -0.06516 1.21335 0.07963
 N432 N -0.07045 1.17925 0.10315
 C433 C -0.05725 1.14142 0.09115
 C434 C -0.03733 1.13626 0.05329
 C435 C -0.03057 1.17119 0.02902
 C436 C -0.04434 1.20970 0.04205
 H437 H -0.12038 1.34470 0.06209
 H438 H -0.10884 1.29588 0.18382
 H439 H -0.06280 1.11542 0.11102
 H440 H -0.01503 1.16873 -0.00025
 H441 H -0.09059 1.28116 0.03469
 H442 H -0.03839 1.23617 0.02296
 C443 C 0.42130 0.23873 0.90703
 C444 C 0.40724 0.20762 0.93339
 C445 C 0.38906 0.17244 0.91704
 C446 C 0.38472 0.16808 0.87460
 C447 C 0.40009 0.19944 0.84933
 N448 N 0.41725 0.23358 0.86596
 C449 C 0.43775 0.27823 0.92235
 N450 N 0.43514 0.31186 0.89776
 C451 C 0.44802 0.34964 0.90978
 C452 C 0.46481 0.35536 0.94886
 C453 C 0.46881 0.32094 0.97441
 C454 C 0.45538 0.28237 0.96131
 H455 H 0.37778 0.14883 0.93751
 H456 H 0.39732 0.19754 0.81647
 H457 H 0.44468 0.37520 0.88889
 H458 H 0.48188 0.32387 1.00468
 H459 H 0.40883 0.21080 0.96623
 H460 H 0.45908 0.25628 0.98144
 C461 C 0.58965 0.58323 0.74545
 C462 C 0.56181 0.59468 0.71455
 C463 C 0.57659 0.61410 0.67939
 C464 C 0.61885 0.62216 0.67500
 C465 C 0.64565 0.61003 0.70634
 N466 N 0.63056 0.59145 0.74040
 C467 C 0.57576 0.56458 0.78436
 N468 N 0.59975 0.56930 0.81811
 C469 C 0.58864 0.55441 0.85534
 C470 C 0.55121 0.53329 0.86027
 C471 C 0.52655 0.52700 0.82565
 C472 C 0.53869 0.54249 0.78771
 H473 H 0.55515 0.62314 0.65571
 H474 H 0.67842 0.61606 0.70401
 H475 H 0.60879 0.55970 0.88110
 H476 H 0.49756 0.51063 0.82796
 H477 H 0.52893 0.58986 0.71776
 H478 H 0.51929 0.53697 0.76147
 C479 C 0.39936 0.09002 0.74110
 C480 C 0.36572 0.11712 0.74465
 C481 C 0.35329 0.13057 0.78327
 C482 C 0.37489 0.11775 0.81796
 C483 C 0.40802 0.09040 0.81332
 N484 N 0.41920 0.07708 0.77542
 C485 C 0.41421 0.07628 0.70072
 N486 N 0.42485 0.03618 0.69485
 C487 C 0.43944 0.02215 0.65832
 C488 C 0.44519 0.04944 0.62560
 C489 C 0.43482 0.09093 0.63123
 C490 C 0.41888 0.10436 0.66856
 H491 H 0.32746 0.15159 0.78622
 H492 H 0.42491 0.07982 0.83979
 H493 H 0.44748 -0.01001 0.65517
 H494 H 0.43887 0.11290 0.60668
 H495 H 0.34917 0.12756 0.71788
 H496 H 0.41125 0.13654 0.67260
 C497 C 0.09160 0.91445 0.25467
 C498 C 0.06462 0.90394 0.28678
 C499 C 0.08059 0.88743 0.32278
 C500 C 0.12322 0.88135 0.32693
 C501 C 0.14911 0.89195 0.29414
 N502 N 0.13287 0.90781 0.25929
 C503 C 0.07650 0.93091 0.21526
 N504 N 0.10037 0.92585 0.18126
 C505 C 0.08846 0.93931 0.14379
 C506 C 0.05032 0.95934 0.13886
 C507 C 0.02561 0.96572 0.17366
 C508 C 0.03856 0.95168 0.21182
 H509 H 0.05975 0.87931 0.34744
 H510 H 0.18212 0.88710 0.29610
 H511 H 0.10866 0.93397 0.11788
 H512 H -0.00389 0.98132 0.17138
 H513 H 0.03153 0.90744 0.28401
 H514 H 0.01917 0.95752 0.23819
 C515 C 0.91040 0.41651 0.24934
 C516 C 0.93799 0.40379 0.21852
 C517 C 0.92264 0.38611 0.18285
 C518 C 0.88000 0.38108 0.17774
 C519 C 0.85347 0.39423 0.20915
 N520 N 0.86911 0.41109 0.24376
 C521 C 0.92484 0.43375 0.28861
 N522 N 0.90026 0.42988 0.32224
 C523 C 0.91169 0.44384 0.35966
 C524 C 0.95004 0.46312 0.36490
 C525 C 0.97545 0.46838 0.33043
 C526 C 0.96300 0.45383 0.29231
 H527 H 0.94398 0.37618 0.15924
 H528 H 0.82041 0.39038 0.20645
 H529 H 0.89095 0.43941 0.38529
 H530 H 1.00516 0.48335 0.33297
 H531 H 0.97106 0.40637 0.22216
 H532 H 0.98296 0.45864 0.26618
   
