data_POSCAR
  _audit_creation_date              2014-09-24
  _audit_creation_method            'ToBaCCo'
  _symmetry_space_group_name_H-M    'P1'
  _symmetry_Int_Tables_number       1
  _symmetry_cell_setting            triclinic
  loop_
  _symmetry_equiv_pos_as_xyz
 x,y,z
_cell_length_a 27.0571
_cell_length_b 27.0196
_cell_length_c 24.4095
_cell_angle_alpha 89.998800
_cell_angle_beta 89.998500
_cell_angle_gamma 90.011200
loop_
  _atom_site_label
  _atom_site_type_symbol
  _atom_site_fract_x
  _atom_site_fract_y
  _atom_site_fract_z
C1 C 0.10388 0.30987 -0.05110
 C2 C 0.12929 0.30945 -0.00128
 C3 C 0.10409 0.31038 0.04860
 C4 C 0.05196 0.31272 0.04934
 C5 C 0.02558 0.31355 -0.00091
 C6 C 0.05162 0.31229 -0.05144
 C7 C 0.02467 0.31224 -0.10072
 C8 C -0.02678 0.31222 -0.10043
 C9 C -0.05333 0.31218 -0.05085
 C10 C -0.02693 0.31344 -0.00059
 C11 C 0.02554 0.31295 0.09892
 C12 C -0.02590 0.31281 0.09926
 C13 C -0.05290 0.31244 0.04999
 C14 C -0.10514 0.30985 0.04979
 C15 C -0.13066 0.30901 0.00003
 C16 C -0.10555 0.30967 -0.05000
 H17 H 0.04325 0.31177 -0.14001
 H18 H -0.04566 0.31174 -0.13954
 H19 H 0.04450 0.31279 0.13799
 H20 H -0.04443 0.31253 0.13858
 H21 H 0.16931 0.30608 -0.00118
 H22 H -0.17071 0.30559 0.00024
 C23 C 0.39511 0.81390 0.54943
 C24 C 0.36988 0.81288 0.49955
 C25 C 0.39528 0.81346 0.44976
 C26 C 0.44742 0.81615 0.44934
 C27 C 0.47350 0.81747 0.49979
 C28 C 0.44724 0.81644 0.55011
 C29 C 0.47381 0.81659 0.59962
 C30 C 0.52528 0.81651 0.59976
 C31 C 0.55204 0.81636 0.55040
 C32 C 0.52596 0.81750 0.49994
 C33 C 0.47417 0.81618 0.39997
 C34 C 0.52565 0.81633 0.40011
 C35 C 0.55222 0.81636 0.44963
 C36 C 0.60435 0.81388 0.45031
 C37 C 0.62959 0.81303 0.50020
 C38 C 0.60419 0.81374 0.55000
 H39 H 0.45494 0.81626 0.63874
 H40 H 0.54399 0.81612 0.63897
 H41 H 0.45546 0.81565 0.36077
 H42 H 0.54451 0.81590 0.36099
 H43 H 0.32991 0.80924 0.49949
 H44 H 0.66956 0.80945 0.50027
 C45 C 0.89634 0.68752 -0.04959
 C46 C 0.87082 0.68819 0.00009
 C47 C 0.89591 0.68742 0.05005
 C48 C 0.94803 0.68495 0.05093
 C49 C 0.97445 0.68385 0.00072
 C50 C 0.94849 0.68499 -0.04983
 C51 C 0.97535 0.68493 -0.09910
 C52 C 1.02682 0.68495 -0.09880
 C53 C 1.05327 0.68509 -0.04921
 C54 C 1.02692 0.68396 0.00105
 C55 C 0.97443 0.68496 0.10053
 C56 C 1.02590 0.68511 0.10088
 C57 C 1.05290 0.68525 0.05161
 C58 C 1.10514 0.68796 0.05128
 C59 C 1.13057 0.68863 0.00146
 C60 C 1.10538 0.68772 -0.04843
 H61 H 0.95673 0.68533 -0.13836
 H62 H 1.04577 0.68536 -0.13787
 H63 H 0.95543 0.68533 0.13957
 H64 H 1.04444 0.68560 0.14019
 H65 H 0.83084 0.69176 -0.00012
 H66 H 1.17057 0.69226 0.00139
 C67 C 0.39563 0.18802 0.45064
 C68 C 0.37039 0.18889 0.50054
 C69 C 0.39578 0.18828 0.55035
 C70 C 0.44794 0.18578 0.55075
 C71 C 0.47403 0.18463 0.50029
 C72 C 0.44777 0.18566 0.44998
 C73 C 0.47435 0.18563 0.40046
 C74 C 0.52583 0.18579 0.40032
 C75 C 0.55259 0.18588 0.44968
 C76 C 0.52650 0.18467 0.50014
 C77 C 0.47471 0.18571 0.60011
 C78 C 0.52619 0.18564 0.59997
 C79 C 0.55276 0.18572 0.55046
 C80 C 0.60490 0.18815 0.54978
 C81 C 0.63013 0.18908 0.49988
 C82 C 0.60474 0.18846 0.45009
 H83 H 0.45549 0.18599 0.36134
 H84 H 0.54454 0.18626 0.36112
 H85 H 0.45600 0.18614 0.63932
 H86 H 0.54506 0.18602 0.63909
 H87 H 0.33041 0.19232 0.50061
 H88 H 0.67012 0.19258 0.49981
 C89 C 0.68961 -0.10555 -0.05006
 C90 C 0.69042 -0.13070 -0.00004
 C91 C 0.68960 -0.10515 0.04973
 C92 C 0.68687 -0.05286 0.04995
 C93 C 0.68573 -0.02684 -0.00062
 C94 C 0.68697 -0.05326 -0.05088
 C95 C 0.68682 -0.02666 -0.10046
 C96 C 0.68672 0.02485 -0.10074
 C97 C 0.68670 0.05182 -0.05145
 C98 C 0.68552 0.02574 -0.00093
 C99 C 0.68650 -0.02583 0.09923
 C100 C 0.68624 0.02568 0.09891
 C101 C 0.68636 0.05215 0.04933
 C102 C 0.68865 0.10435 0.04860
 C103 C 0.68952 0.12960 -0.00128
 C104 C 0.68910 0.10415 -0.05110
 H105 H 0.68727 -0.04556 -0.13958
 H106 H 0.68712 0.04347 -0.14003
 H107 H 0.68687 -0.04439 0.13855
 H108 H 0.68641 0.04466 0.13797
 H109 H 0.69394 -0.17079 0.00015
 H110 H 0.69289 0.16968 -0.00117
 C111 C 0.18805 0.60433 0.45069
 C112 C 0.18911 0.62958 0.50057
 C113 C 0.18845 0.60416 0.55036
 C114 C 0.18567 0.55195 0.55078
 C115 C 0.18432 0.52583 0.50032
 C116 C 0.18543 0.55213 0.45001
 C117 C 0.18525 0.52553 0.40049
 C118 C 0.18518 0.47398 0.40034
 C119 C 0.18519 0.44718 0.44971
 C120 C 0.18411 0.47330 0.50017
 C121 C 0.18552 0.52515 0.60014
 C122 C 0.18519 0.47360 0.59999
 C123 C 0.18509 0.44699 0.55048
 C124 C 0.18733 0.39477 0.54979
 C125 C 0.18814 0.36951 0.49989
 C126 C 0.18760 0.39495 0.45011
 H127 H 0.18567 0.54442 0.36137
 H128 H 0.18555 0.45525 0.36113
 H129 H 0.18609 0.54388 0.63935
 H130 H 0.18552 0.45470 0.63911
 H131 H 0.19275 0.66961 0.50063
 H132 H 0.19154 0.32946 0.49982
 C133 C 0.31069 1.10588 -0.04996
 C134 C 0.31002 1.13101 0.00008
 C135 C 0.31079 1.10543 0.04983
 C136 C 0.31333 1.05312 0.05001
 C137 C 0.31437 1.02714 -0.00058
 C138 C 0.31319 1.05359 -0.05082
 C139 C 0.31327 1.02702 -0.10042
 C140 C 0.31323 0.97551 -0.10074
 C141 C 0.31315 0.94851 -0.05147
 C142 C 0.31438 0.97455 -0.00092
 C143 C 0.31359 1.02606 0.09927
 C144 C 0.31363 0.97455 0.09891
 C145 C 0.31341 0.94812 0.04931
 C146 C 0.31092 0.89593 0.04854
 C147 C 0.31004 0.87071 -0.00135
 C148 C 0.31062 0.89618 -0.05116
 H149 H 0.31288 1.04595 -0.13952
 H150 H 0.31279 0.95692 -0.14004
 H151 H 0.31329 1.04459 0.13860
 H152 H 0.31337 0.95554 0.13796
 H153 H 0.30658 1.17111 0.00030
 H154 H 0.30658 0.83064 -0.00128
 C155 C 0.81166 0.60489 0.54975
 C156 C 0.81068 0.63015 0.49987
 C157 C 0.81147 0.60474 0.45009
 C158 C 0.81433 0.55253 0.44967
 C159 C 0.81563 0.52641 0.50013
 C160 C 0.81439 0.55270 0.55044
 C161 C 0.81455 0.52610 0.59995
 C162 C 0.81474 0.47455 0.60010
 C163 C 0.81485 0.44775 0.55073
 C164 C 0.81593 0.47388 0.50028
 C165 C 0.81459 0.52575 0.40031
 C166 C 0.81497 0.47420 0.40044
 C167 C 0.81504 0.44758 0.44996
 C168 C 0.81286 0.39536 0.45062
 C169 C 0.81207 0.37008 0.50052
 C170 C 0.81255 0.39551 0.55032
 H171 H 0.81403 0.54500 0.63907
 H172 H 0.81436 0.45582 0.63931
 H173 H 0.81405 0.54449 0.36110
 H174 H 0.81473 0.45532 0.36132
 H175 H 0.80696 0.67017 0.49980
 H176 H 0.80874 0.33003 0.50057
 O177 O 0.24589 0.17705 0.21203
 O178 O 0.19924 0.26578 0.31435
 O179 O 0.17824 0.24467 0.21222
 O180 O 0.26689 0.19811 0.31440
 O181 O 0.32182 0.25326 0.28652
 O182 O 0.23317 0.29981 0.18432
 O183 O 0.25416 0.32093 0.28645
 O184 O 0.30082 0.23220 0.18416
 Cu185 Cu 0.21706 0.21582 0.26606
 Cu186 Cu 0.28306 0.28208 0.23257
 C187 C 0.28053 0.19002 0.18008
 C188 C 0.21940 0.30803 0.31828
 C189 C 0.19107 0.27948 0.18039
 C190 C 0.30896 0.21851 0.31842
 O191 O 0.67782 0.74759 0.28655
 O192 O 0.76629 0.70005 0.18476
 O193 O 0.74484 0.67926 0.28671
 O194 O 0.69906 0.76814 0.18413
 O195 O 0.75439 0.82291 0.21192
 O196 O 0.80014 0.73404 0.31459
 O197 O 0.82161 0.75482 0.21264
 O198 O 0.73314 0.80238 0.31435
 Cu199 Cu 0.71637 0.71828 0.23274
 Cu200 Cu 0.78285 0.78411 0.26618
 C201 C 0.69091 0.78233 0.31835
 C202 C 0.80861 0.71995 0.18097
 C203 C 0.77970 0.69193 0.31851
 C204 C 0.71966 0.81015 0.17997
 O205 O 0.82280 0.24529 0.21200
 O206 O 0.73378 0.19932 0.31433
 O207 O 0.75470 0.17811 0.21221
 O208 O 0.80196 0.26648 0.31437
 O209 O 0.74736 0.32193 0.28649
 O210 O 0.70011 0.23356 0.18431
 O211 O 0.67918 0.25476 0.28643
 O212 O 0.76820 0.30074 0.18413
 Cu213 Cu 0.78384 0.21674 0.26604
 Cu214 Cu 0.71824 0.28337 0.23255
 C215 C 0.81015 0.28009 0.18004
 C216 C 0.69176 0.21985 0.31826
 C217 C 0.72005 0.19123 0.18038
 C218 C 0.78195 0.30877 0.31840
 O219 O 0.25363 0.67827 0.28683
 O220 O 0.29998 0.76677 0.18432
 O221 O 0.32117 0.74610 0.28651
 O222 O 0.23230 0.69911 0.18465
 O223 O 0.17731 0.75418 0.21251
 O224 O 0.26618 0.80118 0.31433
 O225 O 0.24498 0.82186 0.21216
 O226 O 0.19865 0.73335 0.31470
 Cu227 Cu 0.28231 0.71699 0.23278
 Cu228 Cu 0.21623 0.78319 0.26623
 C229 C 0.21894 0.69119 0.31871
 C230 C 0.27971 0.80893 0.18031
 C231 C 0.30837 0.78101 0.31823
 C232 C 0.19014 0.71933 0.18072
 O233 O 0.75490 0.17689 0.78770
 O234 O 0.80154 0.26625 0.68604
 O235 O 0.82234 0.24478 0.78828
 O236 O 0.73389 0.19855 0.68565
 O237 O 0.67883 0.25344 0.71380
 O238 O 0.76728 0.29968 0.81637
 O239 O 0.74647 0.32114 0.71413
 O240 O 0.69985 0.23180 0.81584
 Cu241 Cu 0.78373 0.21610 0.73409
 Cu242 Cu 0.71757 0.28206 0.76786
 C243 C 0.72012 0.18959 0.81959
 C244 C 0.78124 0.30843 0.68222
 C245 C 0.80939 0.27938 0.82034
 C246 C 0.69175 0.21881 0.68178
 O247 O 0.32201 0.74763 0.71329
 O248 O 0.23423 0.70011 0.81578
 O249 O 0.25513 0.67914 0.71360
 O250 O 0.30092 0.76875 0.81546
 O251 O 0.24525 0.82312 0.78758
 O252 O 0.19944 0.73351 0.68577
 O253 O 0.17854 0.75450 0.78795
 O254 O 0.26633 0.80200 0.68540
 Cu255 Cu 0.28371 0.71844 0.76733
 Cu256 Cu 0.21678 0.78377 0.73387
 C257 C 0.30867 0.78220 0.68140
 C258 C 0.19188 0.71989 0.81979
 C259 C 0.22010 0.69152 0.68188
 C260 C 0.28020 0.81072 0.81939
 O261 O 0.26669 0.19849 0.68608
 O262 O 0.17704 0.24442 0.78771
 O263 O 0.19853 0.26564 0.68567
 O264 O 0.24545 0.17753 0.78834
 O265 O 0.29981 0.23316 0.81640
 O266 O 0.25287 0.32126 0.71381
 O267 O 0.23140 0.30002 0.81584
 O268 O 0.32104 0.25412 0.71414
 Cu269 Cu 0.21646 0.21590 0.73412
 Cu270 Cu 0.28177 0.28274 0.76787
 C271 C 0.30864 0.21917 0.68225
 C272 C 0.18942 0.27936 0.81960
 C273 C 0.21841 0.30801 0.68178
 C274 C 0.27989 0.19082 0.82038
 O275 O 0.74555 0.67900 0.71325
 O276 O 0.69944 0.76737 0.81600
 O277 O 0.67812 0.74692 0.71361
 O278 O 0.76713 0.69976 0.81522
 O279 O 0.82211 0.75485 0.78732
 O280 O 0.73310 0.80205 0.68579
 O281 O 0.75443 0.82248 0.78817
 O282 O 0.80052 0.73411 0.68534
 Cu283 Cu 0.71698 0.71773 0.76731
 Cu284 Cu 0.78305 0.78397 0.73385
 C285 C 0.78026 0.69192 0.68139
 C286 C 0.71982 0.80948 0.82014
 C287 C 0.69094 0.78182 0.68186
 C288 C 0.80936 0.71990 0.81900
 C289 C 0.30351 0.13243 0.09658
 C290 C 0.29453 0.15783 0.13598
 C291 C 0.80384 0.63377 0.59876
 C292 C 0.79454 0.65952 0.63771
 C293 C 0.69692 0.86783 0.09646
 C294 C 0.70585 0.84240 0.13585
 C295 C 0.19493 0.36588 0.59886
 C296 C 0.20411 0.34023 0.63793
 C297 C 0.86786 0.30269 0.09655
 C298 C 0.84242 0.29386 0.13595
 C299 C 0.36632 0.80611 0.59850
 C300 C 0.34077 0.79673 0.63757
 C301 C 0.13219 0.69563 0.09787
 C302 C 0.15775 0.70496 0.13701
 C303 C 0.63376 0.19567 0.59887
 C304 C 0.65944 0.20474 0.63794
 C305 C 0.69667 0.13133 0.90234
 C306 C 0.70589 0.15702 0.86324
 C307 C 0.19566 0.63319 0.40160
 C308 C 0.20480 0.65887 0.36254
 C309 C 0.30319 0.86903 0.90224
 C310 C 0.29415 0.84334 0.86310
 C311 C 0.80534 0.36651 0.40150
 C312 C 0.79620 0.34093 0.36233
 C313 C 0.13104 0.30241 0.90233
 C314 C 0.15676 0.29335 0.86323
 C315 C 0.63314 0.80609 0.40122
 C316 C 0.65871 0.79676 0.36214
 C317 C 0.86772 0.69564 0.90124
 C318 C 0.84195 0.70525 0.86238
 C319 C 0.36680 0.19547 0.40151
 C320 C 0.34120 0.20448 0.36235
 C321 C 0.69691 0.86712 0.90349
 C322 C 0.70588 0.84162 0.86422
 C323 C 0.19557 0.36619 0.40095
 C324 C 0.20500 0.34048 0.36195
 C325 C 0.30325 0.13323 0.90363
 C326 C 0.29411 0.15873 0.86440
 C327 C 0.80342 0.63350 0.40098
 C328 C 0.79400 0.65932 0.36208
 C329 C 0.13420 0.69571 0.90256
 C330 C 0.15977 0.70524 0.86355
 C331 C 0.63348 0.19636 0.40093
 C332 C 0.65922 0.20566 0.36193
 C333 C 0.86711 0.30234 0.90357
 C334 C 0.84158 0.29335 0.86434
 C335 C 0.36658 0.80523 0.40066
 C336 C 0.34086 0.79560 0.36175
 C337 C 0.30321 0.86699 0.09756
 C338 C 0.29396 0.84128 0.13656
 C339 C 0.80474 0.36672 0.59951
 C340 C 0.79547 0.34098 0.63854
 C341 C 0.69632 0.13326 0.09764
 C342 C 0.70561 0.15894 0.13665
 C343 C 0.19650 0.63293 0.59949
 C344 C 0.20588 0.65878 0.63839
 C345 C 0.86693 0.69550 0.09889
 C346 C 0.84109 0.70515 0.13763
 C347 C 0.36704 0.19602 0.59955
 C348 C 0.34127 0.20517 0.63858
 C349 C 0.13299 0.30283 0.09765
 C350 C 0.15870 0.29369 0.13667
 C351 C 0.63287 0.80573 0.59918
 C352 C 0.65851 0.79627 0.63820
   
