data_POSCAR
  _audit_creation_date              2014-09-24
  _audit_creation_method            'ToBaCCo'
  _symmetry_space_group_name_H-M    'P1'
  _symmetry_Int_Tables_number       1
  _symmetry_cell_setting            triclinic
  loop_
  _symmetry_equiv_pos_as_xyz
 x,y,z
_cell_length_a 36.9738
_cell_length_b 37.1699
_cell_length_c 34.9485
_cell_angle_alpha 89.947600
_cell_angle_beta 89.912000
_cell_angle_gamma 91.139100
loop_
  _atom_site_label
  _atom_site_type_symbol
  _atom_site_fract_x
  _atom_site_fract_y
  _atom_site_fract_z
O1 O 0.03720 0.30268 -0.03102
 O2 O -0.03578 0.30184 0.04067
 O3 O 0.03450 0.30177 0.04332
 O4 O -0.03289 0.30245 -0.03382
 O5 O -0.03433 0.24304 -0.03429
 O6 O 0.03381 0.24237 0.04239
 O7 O -0.03670 0.24247 0.04019
 O8 O 0.03584 0.24327 -0.03208
 Cu9 Cu 0.00084 0.30814 0.00491
 Cu10 Cu -0.00047 0.23681 0.00407
 C11 C 0.04880 0.27315 -0.04400
 C12 C -0.04869 0.27202 0.05281
 C13 C 0.04576 0.27198 0.05595
 C14 C -0.04498 0.27289 -0.04738
 O15 O 0.53382 0.79408 0.46334
 O16 O 0.46167 0.78938 0.53585
 O17 O 0.53180 0.79393 0.53777
 O18 O 0.46356 0.78900 0.46132
 O19 O 0.46654 0.72973 0.46161
 O20 O 0.53476 0.73466 0.53795
 O21 O 0.46459 0.73010 0.53616
 O22 O 0.53670 0.73481 0.46349
 Cu23 Cu 0.49741 0.79756 0.49952
 Cu24 Cu 0.50093 0.72636 0.49982
 C25 C 0.54751 0.76526 0.45096
 C26 C 0.45094 0.75896 0.54852
 C27 C 0.54483 0.76511 0.55099
 C28 C 0.45347 0.75851 0.44835
 O29 O 1.03477 0.70023 0.03640
 O30 O 0.96290 0.69951 -0.03637
 O31 O 1.03336 0.70129 -0.03785
 O32 O 0.96453 0.69908 0.03818
 O33 O 0.96463 0.75847 0.03898
 O34 O 1.03316 0.76066 -0.03745
 O35 O 0.96271 0.75890 -0.03549
 O36 O 1.03493 0.75960 0.03678
 Cu37 Cu 0.99883 0.69406 -0.00002
 Cu38 Cu 0.99880 0.76537 0.00073
 C39 C 1.04722 0.73004 0.04901
 C40 C 0.95052 0.72909 -0.04833
 C41 C 1.04518 0.73134 -0.05057
 C42 C 0.95297 0.72840 0.05171
 O43 O 0.46231 0.20064 0.46854
 O44 O 0.53426 0.20160 0.54097
 O45 O 0.46385 0.20501 0.54277
 O46 O 0.53244 0.19896 0.46654
 O47 O 0.53545 0.25828 0.46321
 O48 O 0.46740 0.26429 0.53945
 O49 O 0.53783 0.26087 0.53752
 O50 O 0.46541 0.25995 0.46517
 Cu51 Cu 0.49791 0.19560 0.50514
 Cu52 Cu 0.50186 0.26681 0.50113
 C53 C 0.45166 0.23005 0.45436
 C54 C 0.54847 0.23134 0.55150
 C55 C 0.45379 0.23576 0.55395
 C56 C 0.54546 0.22766 0.45172
 O57 O 0.71581 -0.03494 0.03429
 O58 O 0.71553 0.03544 -0.03921
 O59 O 0.71761 -0.03443 -0.03996
 O60 O 0.71698 0.03501 0.03523
 O61 O 0.77671 0.03638 0.03502
 O62 O 0.77733 -0.03272 -0.03961
 O63 O 0.77521 0.03713 -0.03943
 O64 O 0.77555 -0.03358 0.03477
 Cu65 Cu 0.71048 0.00015 -0.00242
 Cu66 Cu 0.78220 0.00199 -0.00230
 C67 C 0.74556 -0.04632 0.04711
 C68 C 0.74520 0.04833 -0.05206
 C69 C 0.74771 -0.04545 -0.05252
 C70 C 0.74687 0.04749 0.04795
 O71 O 0.20942 0.46489 0.53434
 O72 O 0.20882 0.53363 0.45868
 O73 O 0.21310 0.46370 0.45994
 O74 O 0.20727 0.53481 0.53303
 O75 O 0.26690 0.53844 0.53530
 O76 O 0.27271 0.46787 0.46204
 O77 O 0.26842 0.53778 0.46096
 O78 O 0.26905 0.46858 0.53653
 Cu79 Cu 0.20368 0.49883 0.49623
 Cu80 Cu 0.27525 0.50352 0.49888
 C81 C 0.23926 0.45506 0.54845
 C82 C 0.23845 0.54761 0.44704
 C83 C 0.24396 0.45367 0.44852
 C84 C 0.23616 0.54872 0.54667
 O85 O 0.28941 1.03787 0.03263
 O86 O 0.28642 0.96810 -0.04229
 O87 O 0.28471 1.03822 -0.04164
 O88 O 0.29145 0.96811 0.03209
 O89 O 0.23191 0.96534 0.03674
 O90 O 0.22516 1.03525 -0.03761
 O91 O 0.22689 0.96520 -0.03763
 O92 O 0.22986 1.03524 0.03674
 Cu93 Cu 0.29395 1.00334 -0.00533
 Cu94 Cu 0.22249 0.99997 -0.00005
 C95 C 0.26011 1.04841 0.04763
 C96 C 0.25613 0.95465 -0.05265
 C97 C 0.25383 1.04881 -0.05225
 C98 C 0.26289 0.95491 0.04721
 O99 O 0.78880 0.46702 0.46070
 O100 O 0.78852 0.53736 0.53448
 O101 O 0.79156 0.46787 0.53509
 O102 O 0.78477 0.53692 0.46032
 O103 O 0.72517 0.53259 0.46304
 O104 O 0.73197 0.46365 0.53819
 O105 O 0.72891 0.53334 0.53745
 O106 O 0.72923 0.46266 0.46383
 Cu107 Cu 0.79440 0.50268 0.49723
 Cu108 Cu 0.72280 0.49765 0.50084
 C109 C 0.75911 0.45274 0.44976
 C110 C 0.75870 0.54722 0.54872
 C111 C 0.76295 0.45417 0.54962
 C112 C 0.75383 0.54663 0.44900
 C113 C 0.23971 0.26010 0.25193
 C114 C 0.26350 0.23253 0.25174
 C115 C 0.26329 0.20486 0.22099
 C116 C 0.29084 0.22873 0.28250
 C117 C 0.24220 0.28965 0.28055
 C118 C 0.20978 0.26202 0.22380
 C119 C 0.26183 0.16825 0.23064
 C120 C 0.26075 0.14195 0.20210
 C121 C 0.26048 0.15164 0.16309
 C122 C 0.26409 0.18842 0.15367
 C123 C 0.26529 0.21470 0.18226
 C124 C 0.28036 0.22660 0.32103
 C125 C 0.30638 0.22494 0.34989
 C126 C 0.34353 0.22429 0.34080
 C127 C 0.35373 0.22676 0.30199
 C128 C 0.32767 0.22837 0.27318
 C129 C 0.27435 0.30983 0.28536
 C130 C 0.27665 0.33690 0.31305
 C131 C 0.24679 0.34436 0.33672
 C132 C 0.21411 0.32520 0.33026
 C133 C 0.21191 0.29807 0.30270
 C134 C 0.20653 0.29268 0.20086
 C135 C 0.17859 0.29492 0.17421
 C136 C 0.15244 0.26701 0.17078
 C137 C 0.15643 0.23588 0.19333
 C138 C 0.18448 0.23364 0.21993
 H139 H 0.26125 0.16000 0.26037
 H140 H 0.26052 0.11407 0.21090
 H141 H 0.26617 0.19696 0.12413
 H142 H 0.26788 0.24276 0.17416
 H143 H 0.25199 0.22696 0.32879
 H144 H 0.29717 0.22508 0.37924
 H145 H 0.33628 0.23046 0.24361
 H146 H 0.29766 0.30467 0.26754
 H147 H 0.30174 0.35211 0.31507
 H148 H 0.19018 0.33113 0.34681
 H149 H 0.18661 0.28331 0.29896
 H150 H 0.22612 0.31464 0.20308
 H151 H 0.17791 0.31842 0.15598
 H152 H 0.13817 0.21298 0.19024
 H153 H 0.18660 0.20968 0.23737
 H154 H 0.38196 0.22813 0.29380
 C155 C 0.76157 0.73867 0.25108
 C156 C 0.73818 0.76655 0.25067
 C157 C 0.73868 0.79363 0.21945
 C158 C 0.71025 0.77070 0.28082
 C159 C 0.75832 0.70919 0.27969
 C160 C 0.79144 0.73615 0.22283
 C161 C 0.74300 0.83022 0.22817
 C162 C 0.74376 0.85592 0.19901
 C163 C 0.73903 0.84575 0.16048
 C164 C 0.73556 0.80877 0.15191
 C165 C 0.73489 0.78309 0.18112
 C166 C 0.71977 0.77230 0.31963
 C167 C 0.69300 0.77387 0.34782
 C168 C 0.65612 0.77498 0.33780
 C169 C 0.64690 0.77318 0.29872
 C170 C 0.67368 0.77165 0.27060
 C171 C 0.72580 0.68955 0.28430
 C172 C 0.72274 0.66264 0.31213
 C173 C 0.75226 0.65475 0.33599
 C174 C 0.78532 0.67334 0.32971
 C175 C 0.78825 0.70035 0.30207
 C176 C 0.79439 0.70519 0.20031
 C177 C 0.82192 0.70264 0.17312
 C178 C 0.84788 0.73062 0.16861
 C179 C 0.84428 0.76194 0.19089
 C180 C 0.81673 0.76443 0.21810
 H181 H 0.74640 0.83881 0.25758
 H182 H 0.74813 0.88388 0.20667
 H183 H 0.73389 0.79928 0.12277
 H184 H 0.73161 0.75490 0.17382
 H185 H 0.74791 0.77149 0.32810
 H186 H 0.70131 0.77333 0.37746
 H187 H 0.66579 0.76989 0.24081
 H188 H 0.70276 0.69507 0.26628
 H189 H 0.69736 0.64793 0.31411
 H190 H 0.80897 0.66707 0.34650
 H191 H 0.81381 0.71471 0.29845
 H192 H 0.77480 0.68330 0.20317
 H193 H 0.82219 0.67898 0.15519
 H194 H 0.86253 0.78477 0.18708
 H195 H 0.81492 0.78858 0.23525
 H196 H 0.61896 0.77192 0.28968
 C197 C 0.73516 0.23453 0.25014
 C198 C 0.75966 0.26246 0.24998
 C199 C 0.78786 0.26594 0.21974
 C200 C 0.75985 0.29041 0.28029
 C201 C 0.70529 0.23202 0.27852
 C202 C 0.73723 0.20492 0.22186
 C203 C 0.82443 0.26851 0.23000
 C204 C 0.85131 0.26946 0.20187
 C205 C 0.84226 0.26716 0.16277
 C206 C 0.80536 0.26716 0.15268
 C207 C 0.77849 0.26640 0.18086
 C208 C 0.76186 0.28099 0.31909
 C209 C 0.76081 0.30748 0.34736
 C210 C 0.75736 0.34402 0.33746
 C211 C 0.75774 0.35336 0.29837
 C212 C 0.75865 0.32684 0.27015
 C213 C 0.68111 0.26026 0.28334
 C214 C 0.65378 0.25782 0.31091
 C215 C 0.64922 0.22659 0.33348
 C216 C 0.67390 0.19854 0.32867
 C217 C 0.70125 0.20106 0.30116
 C218 C 0.70765 0.19716 0.19808
 C219 C 0.71019 0.17096 0.16967
 C220 C 0.74257 0.15232 0.16406
 C221 C 0.77125 0.15851 0.18992
 C222 C 0.76865 0.18467 0.21836
 H223 H 0.83221 0.26911 0.25986
 H224 H 0.87923 0.27181 0.21087
 H225 H 0.79702 0.26795 0.12307
 H226 H 0.75033 0.26587 0.17234
 H227 H 0.76430 0.25308 0.32747
 H228 H 0.76315 0.29920 0.37690
 H229 H 0.75806 0.33472 0.24032
 H230 H 0.68369 0.28438 0.26606
 H231 H 0.63642 0.28063 0.31483
 H232 H 0.67292 0.17489 0.34666
 H233 H 0.71995 0.17917 0.29818
 H234 H 0.68285 0.21195 0.20099
 H235 H 0.68685 0.16556 0.15175
 H236 H 0.79571 0.14315 0.18865
 H237 H 0.79127 0.18939 0.23748
 H238 H 0.75747 0.38122 0.28944
 C239 C 0.26668 0.76166 0.24417
 C240 C 0.23964 0.73613 0.24469
 C241 C 0.21107 0.73470 0.21486
 C242 C 0.23753 0.70837 0.27529
 C243 C 0.29692 0.76079 0.27209
 C244 C 0.26718 0.79172 0.21613
 C245 C 0.17455 0.73384 0.22564
 C246 C 0.14740 0.73362 0.19791
 C247 C 0.15613 0.73493 0.15866
 C248 C 0.19288 0.73352 0.14807
 C249 C 0.22002 0.73359 0.17585
 C250 C 0.23635 0.71825 0.31399
 C251 C 0.23691 0.69202 0.34261
 C252 C 0.23907 0.65526 0.33318
 C253 C 0.23757 0.64552 0.29423
 C254 C 0.23711 0.67179 0.26564
 C255 C 0.31821 0.73017 0.27578
 C256 C 0.34452 0.72840 0.30432
 C257 C 0.34998 0.75722 0.33001
 C258 C 0.33032 0.78885 0.32419
 C259 C 0.30392 0.79052 0.29573
 C260 C 0.29751 0.79737 0.19268
 C261 C 0.29815 0.82500 0.16557
 C262 C 0.26880 0.84843 0.16205
 C263 C 0.23815 0.84215 0.18532
 C264 C 0.23757 0.81449 0.21245
 H265 H 0.16704 0.73371 0.25561
 H266 H 0.11954 0.73228 0.20739
 H267 H 0.20082 0.73201 0.11834
 H268 H 0.24805 0.73273 0.16693
 H269 H 0.23531 0.74635 0.32201
 H270 H 0.23542 0.70073 0.37206
 H271 H 0.23711 0.66360 0.23590
 H272 H 0.31408 0.70742 0.25683
 H273 H 0.36051 0.70446 0.30575
 H274 H 0.33498 0.81220 0.34214
 H275 H 0.28828 0.81470 0.29281
 H276 H 0.32042 0.77975 0.19473
 H277 H 0.32143 0.82726 0.14694
 H278 H 0.21440 0.85847 0.18240
 H279 H 0.21387 0.81062 0.23034
 H280 H 0.23689 0.61753 0.28574
 C281 C 0.76784 0.26359 0.74891
 C282 C 0.74260 0.23639 0.74844
 C283 C 0.71447 0.23391 0.71818
 C284 C 0.74193 0.20800 0.77834
 C285 C 0.79702 0.26530 0.77798
 C286 C 0.76771 0.29320 0.72046
 C287 C 0.67784 0.23209 0.72845
 C288 C 0.65103 0.23195 0.70034
 C289 C 0.66021 0.23426 0.66125
 C290 C 0.69712 0.23366 0.65112
 C291 C 0.72391 0.23360 0.67929
 C292 C 0.73920 0.21688 0.81722
 C293 C 0.74076 0.19008 0.84517
 C294 C 0.74552 0.15382 0.83491
 C295 C 0.74583 0.14495 0.79570
 C296 C 0.74434 0.17179 0.76778
 C297 C 0.82152 0.23724 0.78204
 C298 C 0.84856 0.23918 0.80991
 C299 C 0.85233 0.26972 0.83359
 C300 C 0.82695 0.29729 0.82987
 C301 C 0.80004 0.29534 0.80197
 C302 C 0.79820 0.29933 0.69738
 C303 C 0.79849 0.32667 0.67001
 C304 C 0.76865 0.34935 0.66591
 C305 C 0.73778 0.34249 0.68871
 C306 C 0.73752 0.31506 0.71608
 H307 H 0.66997 0.23143 0.75832
 H308 H 0.62301 0.23026 0.70928
 H309 H 0.70558 0.23284 0.62154
 H310 H 0.75208 0.23355 0.67075
 H311 H 0.73605 0.24461 0.82589
 H312 H 0.73811 0.19782 0.87487
 H313 H 0.74556 0.16435 0.73785
 H314 H 0.81950 0.21373 0.76384
 H315 H 0.86620 0.21652 0.81309
 H316 H 0.82739 0.32025 0.84885
 H317 H 0.78098 0.31700 0.79962
 H318 H 0.82153 0.28233 0.69999
 H319 H 0.82195 0.32935 0.65168
 H320 H 0.71364 0.35813 0.68522
 H321 H 0.71367 0.31066 0.73363
 H322 H 0.74692 0.11730 0.78631
 C323 C 0.23176 0.73809 0.74725
 C324 C 0.25839 0.76403 0.74731
 C325 C 0.28889 0.76295 0.71964
 C326 C 0.25830 0.79417 0.77529
 C327 C 0.20413 0.73574 0.77806
 C328 C 0.22938 0.71026 0.71680
 C329 C 0.31017 0.73226 0.71658
 C330 C 0.33703 0.73027 0.68857
 C331 C 0.34304 0.75891 0.66271
 C332 C 0.32329 0.79060 0.66783
 C333 C 0.29635 0.79250 0.69581
 C334 C 0.28863 0.80099 0.79837
 C335 C 0.28778 0.82759 0.82661
 C336 C 0.25634 0.84763 0.83282
 C337 C 0.22699 0.84239 0.80760
 C338 C 0.22790 0.81584 0.77936
 C339 C 0.16731 0.73570 0.76873
 C340 C 0.14108 0.73375 0.79748
 C341 C 0.15105 0.73063 0.83623
 C342 C 0.18818 0.73151 0.84538
 C343 C 0.21438 0.73345 0.81659
 C344 C 0.22774 0.71994 0.67804
 C345 C 0.22674 0.69349 0.64963
 C346 C 0.22626 0.65666 0.65937
 C347 C 0.22839 0.64728 0.69837
 C348 C 0.22935 0.67373 0.72671
 H349 H 0.30572 0.70967 0.73572
 H350 H 0.35309 0.70634 0.68770
 H351 H 0.32840 0.81386 0.64982
 H352 H 0.28074 0.81675 0.69829
 H353 H 0.31272 0.78517 0.79509
 H354 H 0.31174 0.83222 0.84379
 H355 H 0.20470 0.81195 0.76082
 H356 H 0.15889 0.73790 0.73916
 H357 H 0.11294 0.73514 0.78927
 H358 H 0.19725 0.73126 0.87476
 H359 H 0.24272 0.73346 0.82438
 H360 H 0.22780 0.74803 0.66978
 H361 H 0.22713 0.70211 0.62009
 H362 H 0.23007 0.61944 0.70712
 H363 H 0.23110 0.66571 0.75645
 H364 H 0.20323 0.85879 0.80941
 C365 C 0.26192 0.24178 0.75357
 C366 C 0.23804 0.26929 0.75384
 C367 C 0.23831 0.29730 0.72343
 C368 C 0.21046 0.27267 0.78449
 C369 C 0.25903 0.21155 0.78137
 C370 C 0.29212 0.24085 0.72551
 C371 C 0.24058 0.33378 0.73340
 C372 C 0.24181 0.36033 0.70508
 C373 C 0.24128 0.35097 0.66600
 C374 C 0.23701 0.31434 0.65632
 C375 C 0.23574 0.28782 0.68467
 C376 C 0.22053 0.27395 0.82315
 C377 C 0.19422 0.27586 0.85178
 C378 C 0.15724 0.27761 0.84236
 C379 C 0.14742 0.27578 0.80344
 C380 C 0.17375 0.27394 0.77487
 C381 C 0.22659 0.19172 0.78579
 C382 C 0.22364 0.16448 0.81327
 C383 C 0.25318 0.15644 0.83706
 C384 C 0.28624 0.17504 0.83079
 C385 C 0.28906 0.20240 0.80347
 C386 C 0.29637 0.21067 0.70206
 C387 C 0.32335 0.21048 0.67403
 C388 C 0.34633 0.24073 0.66841
 C389 C 0.34354 0.26986 0.69398
 C390 C 0.31661 0.26998 0.72204
 H391 H 0.24168 0.34170 0.76320
 H392 H 0.24262 0.38811 0.71415
 H393 H 0.23447 0.30613 0.62673
 H394 H 0.23268 0.25985 0.67640
 H395 H 0.24878 0.27291 0.83116
 H396 H 0.20300 0.27521 0.88126
 H397 H 0.16543 0.27248 0.74520
 H398 H 0.20346 0.19744 0.76796
 H399 H 0.19831 0.14967 0.81514
 H400 H 0.30995 0.16861 0.84740
 H401 H 0.31458 0.21686 0.80001
 H402 H 0.27831 0.18752 0.70496
 H403 H 0.32596 0.18669 0.65650
 H404 H 0.36215 0.29261 0.69266
 H405 H 0.31467 0.29295 0.74093
 H406 H 0.11931 0.27506 0.79492
 C407 C 0.73588 0.76227 0.75052
 C408 C 0.75970 0.73473 0.75136
 C409 C 0.75953 0.70647 0.72139
 C410 C 0.78733 0.73192 0.78204
 C411 C 0.73858 0.79264 0.77794
 C412 C 0.70602 0.76343 0.72223
 C413 C 0.75704 0.67013 0.73188
 C414 C 0.75587 0.64332 0.70393
 C415 C 0.75666 0.65232 0.66474
 C416 C 0.76119 0.68882 0.65456
 C417 C 0.76242 0.71559 0.68255
 C418 C 0.77736 0.73222 0.82079
 C419 C 0.80375 0.73188 0.84936
 C420 C 0.84080 0.73150 0.83979
 C421 C 0.85034 0.72848 0.80089
 C422 C 0.82395 0.72903 0.77236
 C423 C 0.77071 0.81302 0.78146
 C424 C 0.77368 0.84016 0.80892
 C425 C 0.74456 0.84734 0.83368
 C426 C 0.71163 0.82839 0.82807
 C427 C 0.70875 0.80118 0.80069
 C428 C 0.70266 0.79358 0.69851
 C429 C 0.67506 0.79490 0.67138
 C430 C 0.64939 0.76652 0.66813
 C431 C 0.65343 0.73599 0.69159
 C432 C 0.68107 0.73472 0.71873
 H433 H 0.75572 0.66253 0.76179
 H434 H 0.75489 0.61564 0.71338
 H435 H 0.76396 0.69672 0.62487
 H436 H 0.76569 0.74346 0.67392
 H437 H 0.74911 0.73298 0.82890
 H438 H 0.79487 0.73162 0.87883
 H439 H 0.83217 0.72785 0.74263
 H440 H 0.79360 0.80770 0.76307
 H441 H 0.79875 0.85550 0.81014
 H442 H 0.68814 0.83432 0.84532
 H443 H 0.68344 0.78627 0.79779
 H444 H 0.72199 0.81579 0.70044
 H445 H 0.67437 0.81796 0.65254
 H446 H 0.63553 0.71278 0.68874
 H447 H 0.68321 0.71117 0.73680
 H448 H 0.87833 0.72598 0.79239
 C449 C 0.26071 0.07496 0.07719
 C450 C 0.29847 0.08887 0.08950
 C451 C 0.29774 0.11394 0.11783
 C452 C 0.25956 0.12315 0.13165
 C453 C 0.23913 0.13401 0.09506
 C454 C 0.24000 0.10901 0.06662
 C455 C 0.24280 0.06148 0.11437
 C456 C 0.24185 0.08660 0.14263
 H457 H 0.32371 0.07994 0.07717
 H458 H 0.32225 0.12617 0.12946
 H459 H 0.22416 0.15868 0.09210
 H460 H 0.22639 0.11279 0.03943
 H461 H 0.23043 0.03491 0.11768
 H462 H 0.22768 0.08126 0.16928
 C463 C 0.75835 0.57527 0.57965
 C464 C 0.79576 0.59009 0.59168
 C465 C 0.79453 0.61521 0.61986
 C466 C 0.75616 0.62351 0.63378
 C467 C 0.73530 0.63372 0.59725
 C468 C 0.73672 0.60863 0.56894
 C469 C 0.74087 0.56144 0.61685
 C470 C 0.73940 0.58659 0.64505
 H471 H 0.82113 0.58168 0.57922
 H472 H 0.81880 0.62806 0.63135
 H473 H 0.71979 0.65804 0.59423
 H474 H 0.72296 0.61185 0.54176
 H475 H 0.72908 0.53463 0.62014
 H476 H 0.72529 0.58100 0.67166
 C477 C 0.74454 0.92474 0.07716
 C478 C 0.78143 0.91288 0.09239
 C479 C 0.77905 0.88664 0.11953
 C480 C 0.74012 0.87437 0.12921
 C481 C 0.72055 0.90924 0.13990
 C482 C 0.72317 0.93555 0.11290
 C483 C 0.72583 0.88994 0.06323
 C484 C 0.72322 0.86371 0.09033
 H485 H 0.80723 0.92403 0.08275
 H486 H 0.80282 0.87545 0.13290
 H487 H 0.70500 0.91267 0.16595
 H488 H 0.71039 0.96141 0.11629
 H489 H 0.71414 0.88676 0.03492
 H490 H 0.70824 0.83890 0.08487
 C491 C 0.23964 0.42732 0.57985
 C492 C 0.20224 0.41252 0.59212
 C493 C 0.20345 0.38765 0.62062
 C494 C 0.24179 0.37954 0.63464
 C495 C 0.26275 0.36906 0.59821
 C496 C 0.26135 0.39388 0.56958
 C497 C 0.25700 0.44151 0.61688
 C498 C 0.25844 0.41662 0.64541
 H499 H 0.17688 0.42077 0.57958
 H500 H 0.17917 0.37487 0.63227
 H501 H 0.27833 0.34475 0.59549
 H502 H 0.27519 0.39042 0.54245
 H503 H 0.26864 0.46842 0.61986
 H504 H 0.27238 0.42250 0.67200
 C505 C 0.92321 0.27122 0.08090
 C506 C 0.93363 0.25060 0.11725
 C507 C 0.90681 0.24842 0.14391
 C508 C 0.87186 0.26766 0.13234
 C509 C 0.88420 0.30619 0.12215
 C510 C 0.91091 0.30818 0.09538
 C511 C 0.88839 0.25228 0.06683
 C512 C 0.86169 0.25013 0.09367
 H513 H 0.95950 0.23778 0.12123
 H514 H 0.90987 0.23305 0.17007
 H515 H 0.87277 0.33002 0.13498
 H516 H 0.92208 0.33381 0.08561
 H517 H 0.88542 0.24033 0.03863
 H518 H 0.83658 0.23546 0.08822
 C519 C 0.42191 0.75756 0.57872
 C520 C 0.38658 0.77486 0.56587
 C521 C 0.36030 0.77453 0.59321
 C522 C 0.37170 0.75725 0.63138
 C523 C 0.38400 0.71937 0.61941
 C524 C 0.41035 0.71962 0.59214
 C525 C 0.43286 0.77758 0.61542
 C526 C 0.40669 0.77746 0.64280
 H527 H 0.38219 0.78540 0.53730
 H528 H 0.33343 0.78452 0.58761
 H529 H 0.37152 0.69432 0.62902
 H530 H 0.42048 0.69494 0.57990
 H531 H 0.45912 0.79055 0.61962
 H532 H 0.41064 0.79037 0.67037
 C533 C 0.07520 0.73083 0.07711
 C534 C 0.06450 0.75106 0.11360
 C535 C 0.09125 0.75329 0.14025
 C536 C 0.12640 0.73445 0.12850
 C537 C 0.11444 0.69590 0.11805
 C538 C 0.08779 0.69387 0.09131
 C539 C 0.10988 0.75018 0.06313
 C540 C 0.13650 0.75237 0.08996
 H541 H 0.03855 0.76373 0.11763
 H542 H 0.08802 0.76863 0.16638
 H543 H 0.12604 0.67208 0.13072
 H544 H 0.07685 0.66822 0.08139
 H545 H 0.11287 0.76222 0.03494
 H546 H 0.16161 0.76710 0.08457
 C547 C 0.57838 0.23191 0.58067
 C548 C 0.58854 0.19489 0.59669
 C549 C 0.61565 0.19629 0.62292
 C550 C 0.63048 0.23440 0.63106
 C551 C 0.64114 0.24972 0.59141
 C552 C 0.61398 0.24813 0.56515
 C553 C 0.56973 0.25461 0.61606
 C554 C 0.59697 0.25621 0.64221
 H555 H 0.57561 0.16966 0.58827
 H556 H 0.62576 0.17230 0.63669
 H557 H 0.66686 0.26285 0.58485
 H558 H 0.61712 0.25888 0.53642
 H559 H 0.54471 0.26902 0.61977
 H560 H 0.59518 0.27256 0.66783
 C561 C 0.74511 0.07539 0.91893
 C562 C 0.70739 0.08723 0.90573
 C563 C 0.70828 0.11291 0.87803
 C564 C 0.74654 0.12476 0.86564
 C565 C 0.76574 0.13610 0.90306
 C566 C 0.76470 0.11044 0.93091
 C567 C 0.76433 0.06382 0.88207
 C568 C 0.76540 0.08960 0.85438
 H569 H 0.68201 0.07653 0.91703
 H570 H 0.68382 0.12386 0.86592
 H571 H 0.78013 0.16155 0.90698
 H572 H 0.77756 0.11442 0.95855
 H573 H 0.77731 0.03806 0.87857
 H574 H 0.78025 0.08574 0.82797
 C575 C 0.23838 0.57631 0.41666
 C576 C 0.20081 0.58621 0.40151
 C577 C 0.20167 0.61228 0.37418
 C578 C 0.23985 0.62640 0.36417
 C579 C 0.25648 0.63816 0.40281
 C580 C 0.25539 0.61208 0.43019
 C581 C 0.26012 0.56633 0.38090
 C582 C 0.26119 0.59251 0.35362
 H583 H 0.17561 0.57386 0.41129
 H584 H 0.17726 0.62207 0.36082
 H585 H 0.26991 0.66392 0.40787
 H586 H 0.26693 0.61612 0.45846
 H587 H 0.27441 0.54125 0.37779
 H588 H 0.27707 0.58977 0.32769
 C589 C 0.25519 0.92583 0.91707
 C590 C 0.21725 0.91101 0.90692
 C591 C 0.21728 0.88482 0.87971
 C592 C 0.25528 0.87591 0.86443
 C593 C 0.27161 0.91224 0.85139
 C594 C 0.27153 0.93825 0.87877
 C595 C 0.27651 0.89241 0.92825
 C596 C 0.27642 0.86626 0.90098
 H597 H 0.19256 0.91903 0.92112
 H598 H 0.19261 0.87037 0.87191
 H599 H 0.28220 0.91713 0.82283
 H600 H 0.28201 0.96532 0.87357
 H601 H 0.28935 0.88899 0.95591
 H602 H 0.28880 0.84045 0.90592
 C603 C 0.75891 0.42370 0.41986
 C604 C 0.79629 0.41389 0.40405
 C605 C 0.79513 0.38757 0.37707
 C606 C 0.75686 0.37316 0.36805
 C607 C 0.74093 0.36164 0.40716
 C608 C 0.74231 0.38798 0.43420
 C609 C 0.73654 0.43324 0.38445
 C610 C 0.73515 0.40681 0.35753
 H611 H 0.82158 0.42647 0.41316
 H612 H 0.81937 0.37779 0.36331
 H613 H 0.72783 0.33580 0.41280
 H614 H 0.73128 0.38414 0.46275
 H615 H 0.72201 0.45818 0.38136
 H616 H 0.71871 0.40919 0.33200
 C617 C 0.07792 0.27403 0.92590
 C618 C 0.11313 0.29253 0.93937
 C619 C 0.13934 0.29459 0.91197
 C620 C 0.12822 0.27745 0.87339
 C621 C 0.11566 0.23895 0.88360
 C622 C 0.08947 0.23709 0.91094
 C623 C 0.06699 0.29502 0.89001
 C624 C 0.09326 0.29713 0.86276
 H625 H 0.11671 0.30416 0.96763
 H626 H 0.16476 0.30886 0.91698
 H627 H 0.12660 0.21507 0.87040
 H628 H 0.07817 0.21159 0.92090
 H629 H 0.04119 0.30817 0.88685
 H630 H 0.08987 0.31284 0.83688
 C631 C 0.57661 0.76765 0.42090
 C632 C 0.56440 0.78721 0.38458
 C633 C 0.59060 0.79061 0.35736
 C634 C 0.62683 0.77352 0.36850
 C635 C 0.63664 0.79202 0.40674
 C636 C 0.61050 0.78868 0.43410
 C637 C 0.59071 0.73137 0.40671
 C638 C 0.61685 0.73451 0.37944
 H639 H 0.53782 0.79868 0.38117
 H640 H 0.58627 0.80582 0.33133
 H641 H 0.66119 0.80783 0.41154
 H642 H 0.61323 0.80091 0.46218
 H643 H 0.58112 0.70537 0.41713
 H644 H 0.62944 0.71122 0.36674
 C645 C 0.92111 0.72932 0.92198
 C646 C 0.90875 0.69212 0.90713
 C647 C 0.88218 0.69342 0.88030
 C648 C 0.87007 0.73164 0.87049
 C649 C 0.85981 0.74845 0.90934
 C650 C 0.88639 0.74694 0.93618
 C651 C 0.93185 0.75066 0.88595
 C652 C 0.90519 0.75219 0.85923
 H653 H 0.91984 0.66687 0.91675
 H654 H 0.87070 0.66932 0.86721
 H655 H 0.83488 0.76241 0.91492
 H656 H 0.88350 0.75862 0.96446
 H657 H 0.95787 0.76428 0.88223
 H658 H 0.90850 0.76774 0.83313
 C659 C 0.42263 0.22891 0.42427
 C660 C 0.41160 0.26563 0.40825
 C661 C 0.38541 0.26344 0.38101
 C662 C 0.37234 0.22487 0.37195
 C663 C 0.40702 0.20449 0.36184
 C664 C 0.43330 0.20690 0.38899
 C665 C 0.38717 0.21121 0.43832
 C666 C 0.36097 0.20880 0.41104
 H667 H 0.42322 0.29122 0.41747
 H668 H 0.37478 0.28715 0.36715
 H669 H 0.41028 0.18836 0.33625
 H670 H 0.45898 0.19348 0.38610
 H671 H 0.38347 0.20016 0.46686
 H672 H 0.33552 0.19473 0.41652
 C673 C 0.74804 0.92592 0.91720
 C674 C 0.78591 0.91473 0.90397
 C675 C 0.78549 0.88854 0.87680
 C676 C 0.74709 0.87599 0.86472
 C677 C 0.72916 0.86450 0.90283
 C678 C 0.72948 0.89064 0.93006
 C679 C 0.72844 0.93668 0.88041
 C680 C 0.72790 0.91064 0.85308
 H681 H 0.81100 0.92500 0.91625
 H682 H 0.81037 0.87638 0.86744
 H683 H 0.71815 0.83772 0.90839
 H684 H 0.71848 0.88623 0.95854
 H685 H 0.71623 0.96270 0.87610
 H686 H 0.71520 0.91445 0.82543
 C687 C 0.24613 0.42450 0.41881
 C688 C 0.28464 0.41476 0.40629
 C689 C 0.28572 0.38813 0.37958
 C690 C 0.24802 0.37366 0.36727
 C691 C 0.23012 0.36210 0.40535
 C692 C 0.22897 0.38867 0.43208
 C693 C 0.22654 0.43373 0.38152
 C694 C 0.22748 0.40725 0.35472
 H695 H 0.30910 0.42644 0.41862
 H696 H 0.31127 0.37710 0.37065
 H697 H 0.22010 0.33500 0.41122
 H698 H 0.21780 0.38427 0.46050
 H699 H 0.21328 0.45910 0.37649
 H700 H 0.21499 0.41007 0.32681
 C701 C 0.25192 0.07638 0.91941
 C702 C 0.21360 0.08677 0.90676
 C703 C 0.21316 0.11338 0.87992
 C704 C 0.25116 0.12718 0.86766
 C705 C 0.26904 0.13851 0.90573
 C706 C 0.26961 0.11200 0.93256
 C707 C 0.27148 0.06676 0.88210
 C708 C 0.27114 0.09324 0.85525
 H709 H 0.18883 0.07553 0.91897
 H710 H 0.18787 0.12480 0.87078
 H711 H 0.27941 0.16548 0.91155
 H712 H 0.28064 0.11639 0.96101
 H713 H 0.28424 0.04113 0.87704
 H714 H 0.28363 0.09015 0.82734
 C715 C 0.75166 0.57536 0.41888
 C716 C 0.71330 0.58459 0.40554
 C717 C 0.71252 0.61097 0.37846
 C718 C 0.75036 0.62568 0.36674
 C719 C 0.76738 0.63773 0.40500
 C720 C 0.76824 0.61143 0.43204
 C721 C 0.77205 0.56596 0.38209
 C722 C 0.77142 0.59218 0.35497
 H723 H 0.68873 0.57267 0.41748
 H724 H 0.68705 0.62155 0.36875
 H725 H 0.77705 0.66497 0.41072
 H726 H 0.77879 0.61619 0.46061
 H727 H 0.78557 0.54064 0.37759
 H728 H 0.78443 0.58919 0.32731
 C729 C 0.07235 0.73164 0.92040
 C730 C 0.08500 0.76909 0.90619
 C731 C 0.11096 0.76805 0.87863
 C732 C 0.12224 0.72991 0.86745
 C733 C 0.13307 0.71196 0.90549
 C734 C 0.10716 0.71319 0.93313
 C735 C 0.06053 0.71140 0.88406
 C736 C 0.08660 0.71018 0.85658
 H737 H 0.07461 0.79434 0.91673
 H738 H 0.12257 0.79231 0.86589
 H739 H 0.15799 0.69766 0.90997
 H740 H 0.11066 0.70089 0.96105
 H741 H 0.03427 0.69819 0.88063
 H742 H 0.08253 0.69521 0.83025
 C743 C 0.57288 0.22591 0.42002
 C744 C 0.60857 0.24556 0.42971
 C745 C 0.63333 0.24526 0.40093
 C746 C 0.62051 0.22525 0.36480
 C747 C 0.60858 0.18745 0.37903
 C748 C 0.58392 0.18786 0.40802
 C749 C 0.55984 0.24341 0.38283
 C750 C 0.58455 0.24291 0.35393
 H751 H 0.61398 0.25847 0.45702
 H752 H 0.65989 0.25799 0.40369
 H753 H 0.61657 0.16238 0.36599
 H754 H 0.57212 0.16328 0.41982
 H755 H 0.53294 0.25408 0.37910
 H756 H 0.57835 0.25281 0.32552
 C757 C 0.92798 0.27294 0.92054
 C758 C 0.91828 0.31041 0.90542
 C759 C 0.89399 0.30961 0.87622
 C760 C 0.88094 0.27137 0.86490
 C761 C 0.91641 0.25186 0.85582
 C762 C 0.94081 0.25256 0.88497
 C763 C 0.89164 0.25506 0.93135
 C764 C 0.86715 0.25423 0.90234
 H765 H 0.93066 0.33540 0.91540
 H766 H 0.88669 0.33395 0.86119
 H767 H 0.92280 0.24019 0.82824
 H768 H 0.96745 0.24102 0.88232
 H769 H 0.88563 0.24408 0.95949
 H770 H 0.84022 0.24244 0.90574
 C771 C 0.42575 0.75683 0.41692
 C772 C 0.41572 0.71877 0.40267
 C773 C 0.39045 0.71815 0.37437
 C774 C 0.37759 0.75581 0.36231
 C775 C 0.36428 0.77233 0.40017
 C776 C 0.38949 0.77304 0.42851
 C777 C 0.43757 0.77755 0.38088
 C778 C 0.41246 0.77706 0.35247
 H779 H 0.42606 0.69423 0.41502
 H780 H 0.37909 0.69289 0.36405
 H781 H 0.33697 0.78161 0.40475
 H782 H 0.38376 0.78318 0.45696
 H783 H 0.46361 0.79127 0.37785
 H784 H 0.41711 0.79039 0.32520
 C785 C 0.26550 0.92677 0.07803
 C786 C 0.30426 0.91693 0.08940
 C787 C 0.30586 0.89166 0.11752
 C788 C 0.26848 0.87787 0.13163
 C789 C 0.24935 0.91256 0.14384
 C790 C 0.24765 0.93792 0.11578
 C791 C 0.24707 0.89086 0.06730
 C792 C 0.24859 0.86541 0.09523
 H793 H 0.32846 0.92999 0.07792
 H794 H 0.33148 0.88445 0.13015
 H795 H 0.23929 0.91747 0.17251
 H796 H 0.23577 0.96403 0.12048
 H797 H 0.23407 0.88580 0.03994
 H798 H 0.23680 0.83863 0.09169
 C799 C 0.76546 0.42656 0.58089
 C800 C 0.80413 0.41833 0.59401
 C801 C 0.80559 0.39348 0.62253
 C802 C 0.76821 0.37845 0.63522
 C803 C 0.74733 0.41249 0.64616
 C804 C 0.74577 0.43745 0.61770
 C805 C 0.74877 0.38992 0.56989
 C806 C 0.75018 0.36487 0.59821
 H807 H 0.82824 0.43218 0.58340
 H808 H 0.83096 0.38736 0.63638
 H809 H 0.73610 0.41737 0.67433
 H810 H 0.73282 0.46316 0.62154
 H811 H 0.73695 0.38412 0.54209
 H812 H 0.73949 0.33767 0.59458
 C813 C 0.74673 0.07572 0.07868
 C814 C 0.78442 0.08914 0.09159
 C815 C 0.78360 0.11480 0.11928
 C816 C 0.74506 0.12459 0.13218
 C817 C 0.72645 0.13560 0.09456
 C818 C 0.72717 0.10998 0.06677
 C819 C 0.72779 0.06306 0.11552
 C820 C 0.72689 0.08855 0.14338
 H821 H 0.80963 0.08079 0.07871
 H822 H 0.80819 0.12851 0.12859
 H823 H 0.71495 0.16182 0.08956
 H824 H 0.71596 0.11423 0.03846
 H825 H 0.71622 0.03623 0.11944
 H826 H 0.71451 0.08346 0.17110
 C827 C 0.23362 0.57764 0.57663
 C828 C 0.27009 0.59203 0.59197
 C829 C 0.26695 0.61805 0.61902
 C830 C 0.22774 0.62766 0.62861
 C831 C 0.21060 0.63719 0.58972
 C832 C 0.21394 0.61115 0.56260
 C833 C 0.21250 0.56538 0.61233
 C834 C 0.20912 0.59149 0.63933
 H835 H 0.29625 0.58271 0.58248
 H836 H 0.29037 0.63082 0.63240
 H837 H 0.19540 0.66131 0.58429
 H838 H 0.20246 0.61365 0.53417
 H839 H 0.20021 0.53877 0.61557
 H840 H 0.19322 0.58707 0.66509
 C841 C 0.92523 0.72788 0.08321
 C842 C 0.93820 0.74750 0.11947
 C843 C 0.91317 0.74785 0.14808
 C844 C 0.87700 0.72883 0.13782
 C845 C 0.86490 0.74675 0.10045
 C846 C 0.89000 0.74623 0.07198
 C847 C 0.91338 0.69022 0.09729
 C848 C 0.88844 0.69068 0.12596
 H849 H 0.96526 0.75893 0.12289
 H850 H 0.91934 0.75915 0.17598
 H851 H 0.83861 0.75876 0.09667
 H852 H 0.88514 0.75772 0.04393
 H853 H 0.92485 0.66534 0.08710
 H854 H 0.87979 0.66612 0.14036
 C855 C 0.42509 0.23812 0.58435
 C856 C 0.43546 0.21996 0.62210
 C857 C 0.40931 0.22120 0.64948
 C858 C 0.37494 0.24057 0.63695
 C859 C 0.38840 0.27789 0.62285
 C860 C 0.41471 0.27658 0.59565
 C861 C 0.38918 0.21995 0.57253
 C862 C 0.36293 0.22139 0.59980
 H863 H 0.46130 0.20736 0.62696
 H864 H 0.41283 0.20960 0.67772
 H865 H 0.37678 0.30324 0.63129
 H866 H 0.42569 0.30076 0.58218
 H867 H 0.38438 0.20815 0.54454
 H868 H 0.33568 0.21121 0.59457
 C869 C 0.07374 0.27147 0.08711
 C870 C 0.06183 0.24946 0.12230
 C871 C 0.08725 0.24829 0.15043
 C872 C 0.12270 0.26904 0.14077
 C873 C 0.13490 0.25366 0.10215
 C874 C 0.10941 0.25494 0.07420
 C875 C 0.08456 0.30861 0.10335
 C876 C 0.10986 0.30734 0.13152
 H877 H 0.03513 0.23714 0.12551
 H878 H 0.08163 0.23546 0.17775
 H879 H 0.16152 0.24272 0.09721
 H880 H 0.11428 0.24519 0.04540
 H881 H 0.07222 0.33364 0.09489
 H882 H 0.11812 0.33129 0.14720
 C883 C 0.57237 0.76661 0.58256
 C884 C 0.58257 0.80457 0.59695
 C885 C 0.60737 0.80487 0.62572
 C886 C 0.62030 0.76716 0.63734
 C887 C 0.58484 0.74662 0.64733
 C888 C 0.55998 0.74620 0.61863
 C889 C 0.60843 0.74983 0.57134
 C890 C 0.63337 0.75008 0.59989
 H891 H 0.57025 0.82905 0.58678
 H892 H 0.61516 0.82962 0.64021
 H893 H 0.57880 0.73507 0.67519
 H894 H 0.53330 0.73384 0.62193
 H895 H 0.61396 0.73882 0.54320
 H896 H 0.66018 0.73919 0.59613
   
