data_POSCAR
  _audit_creation_date              2014-09-24
  _audit_creation_method            'ToBaCCo'
  _symmetry_space_group_name_H-M    'P1'
  _symmetry_Int_Tables_number       1
  _symmetry_cell_setting            triclinic
  loop_
  _symmetry_equiv_pos_as_xyz
 x,y,z
_cell_length_a 26.4719
_cell_length_b 26.4146
_cell_length_c 12.7254
_cell_angle_alpha 89.877500
_cell_angle_beta 90.122700
_cell_angle_gamma 120.030500
loop_
  _atom_site_label
  _atom_site_type_symbol
  _atom_site_fract_x
  _atom_site_fract_y
  _atom_site_fract_z
C1 C 0.42031 0.84268 0.49580
 C2 C 0.43723 0.87258 0.59110
 C3 C 0.46930 0.93390 0.59218
 C4 C 0.48297 0.96673 0.49750
 C5 C 0.46374 0.93478 0.40213
 C6 C 0.43403 0.87360 0.40154
 C7 C 0.51671 1.03309 0.49800
 C8 C 0.53698 1.06561 0.40325
 C9 C 0.56678 1.12687 0.40356
 C10 C 0.57952 1.15715 0.49840
 C11 C 0.56154 1.12659 0.59298
 C12 C 0.52940 1.06534 0.59302
 H13 H 0.39642 0.79520 0.49477
 H14 H 0.48314 0.95466 0.66782
 H15 H 0.47096 0.95598 0.32685
 H16 H 0.53056 1.04468 0.32794
 H17 H 0.60350 1.20463 0.49882
 H18 H 0.51478 1.04429 0.66827
 C19 C 0.15697 0.57853 0.49837
 C20 C 0.12694 0.55995 0.59334
 C21 C 0.06579 0.52789 0.59390
 C22 C 0.03327 0.51649 0.49943
 C23 C 0.06521 0.53742 0.40448
 C24 C 0.12628 0.56666 0.40407
 C25 C -0.03285 0.48333 0.49991
 C26 C -0.06536 0.46279 0.40531
 C27 C -0.12650 0.43354 0.40587
 C28 C -0.15655 0.42136 0.50087
 C29 C -0.12589 0.43959 0.59526
 C30 C -0.06481 0.47155 0.59494
 H31 H 0.20434 0.60229 0.49764
 H32 H 0.04481 0.51215 0.66894
 H33 H 0.04394 0.53196 0.32967
 H34 H -0.04438 0.46869 0.33016
 H35 H -0.20393 0.39764 0.50155
 H36 H -0.04355 0.48678 0.66991
 C37 C 0.42020 0.57822 0.50262
 C38 C 0.43375 0.56146 0.59767
 C39 C 0.46339 0.52994 0.59830
 C40 C 0.48245 0.51660 0.50349
 C41 C 0.46886 0.53529 0.40821
 C42 C 0.43711 0.56469 0.40809
 C43 C 0.51595 0.48382 0.50415
 C44 C 0.52901 0.46424 0.40959
 C45 C 0.56089 0.43496 0.41075
 C46 C 0.57839 0.42243 0.50582
 C47 C 0.56537 0.44004 0.60001
 C48 C 0.53566 0.47143 0.59948
 H49 H 0.39645 0.60188 0.50201
 H50 H 0.47072 0.51633 0.67392
 H51 H 0.48242 0.52790 0.33281
 H52 H 0.51492 0.47079 0.33387
 H53 H 0.60225 0.39891 0.50650
 H54 H 0.52893 0.48571 0.67469
 O55 O 0.41775 0.66810 -0.12243
 O56 O 0.42110 0.76731 -0.09476
 C57 C 0.38459 0.77388 -0.14927
 O58 O 0.33058 0.74825 -0.12950
 O59 O 0.23206 0.65269 -0.09708
 C60 C 0.22462 0.60758 -0.14598
 O61 O 0.24950 0.57904 -0.12105
 O62 O 0.34549 0.57740 -0.08796
 C63 C 0.38890 0.61390 -0.14202
 O64 O 0.42088 0.65429 0.08769
 O65 O 0.41765 0.75017 0.11534
 C66 C 0.38884 0.77549 0.13472
 O67 O 0.34561 0.76866 0.08015
 O68 O 0.24954 0.67082 0.11258
 C69 C 0.22462 0.61734 0.13745
 O70 O 0.23191 0.57961 0.08850
 O71 O 0.33026 0.58265 0.12161
 C72 C 0.38423 0.61113 0.14193
 Cr73 Cr 0.41618 0.70839 -0.00356
 Cr74 Cr 0.29103 0.70850 -0.00834
 Cr75 Cr 0.29088 0.58286 0.00014
 O76 O 0.33262 0.66654 -0.00396
 O77 O 0.58000 0.34726 -0.08414
 O78 O 0.58193 0.25136 -0.11811
 C79 C 0.61016 0.22602 -0.14130
 O80 O 0.65448 0.23293 -0.09042
 O81 O 0.74987 0.33215 -0.12013
 C82 C 0.77551 0.38647 -0.13863
 O83 O 0.76914 0.42272 -0.08290
 O84 O 0.67088 0.42057 -0.11239
 C85 C 0.61714 0.39204 -0.13478
 O86 O 0.58217 0.32949 0.12520
 O87 O 0.58009 0.23155 0.09149
 C88 C 0.61735 0.22423 0.14235
 O89 O 0.67099 0.24932 0.11949
 O90 O 0.76923 0.34556 0.08978
 C91 C 0.77575 0.38827 0.14549
 O92 O 0.75015 0.41692 0.12702
 O93 O 0.65477 0.42061 0.09725
 C94 C 0.61033 0.38323 0.14786
 Cr95 Cr 0.58423 0.29149 0.00360
 Cr96 Cr 0.70956 0.29157 -0.00022
 Cr97 Cr 0.70967 0.41703 0.00715
 O98 O 0.66774 0.33333 0.00351
 C99 C 0.42134 0.84138 -0.31753
 C100 C 0.40542 0.81168 -0.23919
 C101 C 0.15778 0.57421 -0.31500
 C102 C 0.18707 0.58865 -0.23622
 C103 C 0.41884 0.57716 -0.31061
 C104 C 0.40549 0.59294 -0.23188
 C105 C 0.57699 0.15896 -0.30998
 C106 C 0.59157 0.18839 -0.23141
 C107 C 0.84209 0.42366 -0.30746
 C108 C 0.81294 0.40783 -0.22869
 C109 C 0.58246 0.42496 -0.30275
 C110 C 0.59758 0.41059 -0.22422
 C111 C 0.84268 0.41803 0.31418
 C112 C 0.81335 0.40451 0.23549
 C113 C 0.58312 0.15754 0.31166
 C114 C 0.59808 0.18666 0.23263
 C115 C 0.57660 0.41777 0.31452
 C116 C 0.59146 0.40260 0.23688
 C117 C 0.15824 0.58396 0.30672
 C118 C 0.18727 0.59873 0.22778
 C119 C 0.41843 0.84178 0.30400
 C120 C 0.40524 0.81286 0.22494
 C121 C 0.42062 0.58059 0.31093
 C122 C 0.40484 0.59423 0.23226
   
