data_POSCAR
  _audit_creation_date              2014-09-24
  _audit_creation_method            'ToBaCCo'
  _symmetry_space_group_name_H-M    'P1'
  _symmetry_Int_Tables_number       1
  _symmetry_cell_setting            triclinic
  loop_
  _symmetry_equiv_pos_as_xyz
 x,y,z
_cell_length_a 37.8852
_cell_length_b 49.0102
_cell_length_c 39.7288
_cell_angle_alpha 89.811000
_cell_angle_beta 87.251200
_cell_angle_gamma 84.661700
loop_
  _atom_site_label
  _atom_site_type_symbol
  _atom_site_fract_x
  _atom_site_fract_y
  _atom_site_fract_z
C1 C 1.22080 0.22201 0.21101
 C2 C 1.24185 0.24159 0.18982
 C3 C 1.26236 0.25710 0.20787
 C4 C 1.25902 0.25190 0.24635
 C5 C 1.24831 0.20548 0.23161
 C6 C 1.26813 0.22088 0.25023
 C7 C 1.19918 0.24105 0.23643
 C8 C 1.21886 0.25629 0.25563
 H9 H 1.23838 0.24469 0.16318
 H10 H 1.27577 0.26400 0.26156
 H11 H 1.25041 0.18329 0.23283
 H12 H 1.17046 0.24313 0.23786
 C13 C 0.72974 -0.27649 0.19039
 C14 C 0.75125 -0.25630 0.17077
 C15 C 0.76999 -0.24059 0.19033
 C16 C 0.76479 -0.24641 0.22851
 C17 C 0.75636 -0.29286 0.21209
 C18 C 0.77449 -0.27735 0.23219
 C19 C 0.70620 -0.25805 0.21519
 C20 C 0.72424 -0.24269 0.23589
 H21 H 0.74901 -0.25283 0.14403
 H22 H 0.78055 -0.23433 0.24472
 H23 H 0.75870 -0.31505 0.21318
 H24 H 0.67756 -0.25636 0.21494
 C25 C 0.73792 0.22647 -0.31128
 C26 C 0.76084 0.24464 -0.32894
 C27 C 0.77942 0.26121 -0.30712
 C28 C 0.77085 0.25609 -0.27112
 C29 C 0.76065 0.21057 -0.28873
 C30 C 0.77888 0.22644 -0.26626
 C31 C 0.71431 0.24491 -0.28978
 C32 C 0.73197 0.26147 -0.26726
 H33 H 0.75774 0.24996 -0.35513
 H34 H 0.78597 0.26800 -0.25442
 H35 H 0.76117 0.18845 -0.28711
 H36 H 0.68581 0.24568 -0.29089
 C37 C 1.23548 -0.27466 -0.29344
 C38 C 1.26341 -0.26044 -0.31453
 C39 C 1.28543 -0.24660 -0.29603
 C40 C 1.27763 -0.24861 -0.25764
 C41 C 1.25648 -0.29278 -0.26864
 C42 C 1.27823 -0.27931 -0.24979
 C43 C 1.21644 -0.25140 -0.27180
 C44 C 1.23825 -0.23792 -0.25276
 H45 H 1.26205 -0.25744 -0.34140
 H46 H 1.29575 -0.23794 -0.24218
 H47 H 1.25261 -0.31422 -0.26473
 H48 H 1.18791 -0.24673 -0.27086
 C49 C 0.22023 0.23619 0.79202
 C50 C 0.24444 0.25021 0.81185
 C51 C 0.26793 0.26638 0.79239
 C52 C 0.26236 0.26515 0.75610
 C53 C 0.20074 0.25937 0.77205
 C54 C 0.22259 0.27442 0.75292
 C55 C 0.24383 0.21966 0.76562
 C56 C 0.26582 0.23459 0.74680
 H57 H 0.24369 0.24924 0.83900
 H58 H 0.27938 0.27725 0.73968
 H59 H 0.17217 0.26365 0.77316
 H60 H 0.24304 0.19781 0.76209
 C61 C 0.71827 0.73476 0.80957
 C62 C 0.74455 0.74841 0.82719
 C63 C 0.76565 0.76527 0.80612
 C64 C 0.75651 0.76432 0.77051
 C65 C 0.69760 0.75665 0.79223
 C66 C 0.71835 0.77325 0.77078
 C67 C 0.73803 0.71940 0.78233
 C68 C 0.75943 0.73529 0.76067
 H69 H 0.74769 0.74580 0.85398
 H70 H 0.77210 0.77703 0.75369
 H71 H 0.66950 0.75671 0.78880
 H72 H 0.73724 0.69752 0.77927
 C73 C 0.73274 0.23330 0.30101
 C74 C 0.75878 0.24719 0.32249
 C75 C 0.77853 0.26489 0.30483
 C76 C 0.77088 0.26669 0.26706
 C77 C 0.71100 0.25736 0.28493
 C78 C 0.73067 0.27467 0.26700
 C79 C 0.75591 0.21980 0.27200
 C80 C 0.77566 0.23705 0.25421
 H81 H 0.76004 0.24495 0.34944
 H82 H 0.78678 0.28088 0.25229
 H83 H 0.68226 0.25997 0.28686
 H84 H 0.75645 0.19822 0.26591
 C85 C 0.22880 0.73579 0.29412
 C86 C 0.25303 0.75355 0.31271
 C87 C 0.27267 0.76928 0.29212
 C88 C 0.26639 0.76575 0.25442
 C89 C 0.20650 0.75662 0.27304
 C90 C 0.22594 0.77216 0.25201
 C91 C 0.25339 0.71942 0.26838
 C92 C 0.27293 0.73485 0.24769
 H93 H 0.25311 0.75500 0.33982
 H94 H 0.28242 0.77834 0.23747
 H95 H 0.17777 0.75846 0.27429
 H96 H 0.25455 0.69731 0.26617
 N97 N 1.05755 0.02142 0.02999
 N98 N 1.08222 0.03850 0.03257
 N99 N 1.02461 -0.02947 0.05922
 N100 N 1.02891 -0.04635 0.08498
 N101 N 1.05008 -0.03490 0.03593
 N102 N 1.07238 -0.05553 0.04532
 N103 N 1.03181 0.02685 0.05293
 N104 N 1.03831 0.04767 0.07188
 C105 C 1.06982 0.05478 0.05880
 C106 C 1.05858 -0.06273 0.07579
 N107 N 0.92535 -0.01695 0.03527
 N108 N 0.90130 -0.03439 0.04179
 N109 N 0.95588 0.03805 0.05250
 N110 N 0.95161 0.05973 0.07241
 N111 N 0.93213 0.03978 0.02939
 N112 N 0.91101 0.06269 0.03303
 N113 N 0.94862 -0.01822 0.05882
 N114 N 0.94089 -0.03620 0.08211
 Mn115 Mn 0.99019 0.00436 0.05620
 C116 C 0.91133 -0.04613 0.07123
 C117 C 0.92366 0.07504 0.05985
 N118 N 1.05375 -0.03962 -0.03685
 N119 N 1.07711 -0.06095 -0.04323
 N120 N 1.03765 0.01939 -0.06519
 N121 N 1.04439 0.03978 -0.08572
 N122 N 1.06106 0.01668 -0.04183
 N123 N 1.08424 0.03500 -0.04576
 N124 N 1.03017 -0.03725 -0.06010
 N125 N 1.03658 -0.05697 -0.08259
 Mn126 Mn 1.05593 -0.00926 -0.00319
 C127 C 1.06563 -0.07183 -0.07159
 C128 C 1.07377 0.04919 -0.07334
 N129 N 0.93564 0.03511 -0.04321
 N130 N 0.91563 0.05756 -0.05134
 N131 N 0.95428 -0.02656 -0.06064
 N132 N 0.94828 -0.04766 -0.07949
 N133 N 0.92870 -0.02171 -0.03735
 N134 N 0.90471 -0.03944 -0.03965
 N135 N 0.96166 0.02988 -0.06595
 N136 N 0.96009 0.04838 -0.09004
 Mn137 Mn 0.92994 0.00911 -0.00397
 Mn138 Mn 0.99595 -0.00364 -0.06332
 Cl139 Cl 0.99295 0.00008 -0.00356
 C140 C 0.93145 0.06566 -0.08064
 C141 C 0.91722 -0.05552 -0.06611
 N142 N 1.05622 0.53299 0.53258
 N143 N 1.07948 0.55130 0.53374
 N144 N 1.02895 0.48145 0.56658
 N145 N 1.03393 0.46508 0.59270
 N146 N 1.05473 0.47648 0.54350
 N147 N 1.07789 0.45660 0.55330
 N148 N 1.03063 0.53802 0.55578
 N149 N 1.03589 0.55988 0.57352
 C150 C 1.06640 0.56803 0.55928
 C151 C 1.06443 0.44952 0.58395
 N152 N 0.92911 0.48697 0.54303
 N153 N 0.90746 0.46794 0.55034
 N154 N 0.95438 0.54461 0.55560
 N155 N 0.94724 0.56644 0.57497
 N156 N 0.93060 0.54381 0.53271
 N157 N 0.90642 0.56499 0.53621
 N158 N 0.95239 0.48798 0.56636
 N159 N 0.94698 0.46988 0.59030
 Mn160 Mn 0.99154 0.51306 0.56145
 C161 C 0.91879 0.45758 0.58003
 C162 C 0.91744 0.57915 0.56241
 N163 N 1.05881 0.46759 0.47163
 N164 N 1.08430 0.44748 0.46722
 N165 N 1.03668 0.52326 0.43797
 N166 N 1.04150 0.54202 0.41468
 N167 N 1.05996 0.52414 0.46125
 N168 N 1.08122 0.54348 0.45450
 N169 N 1.03509 0.46651 0.44876
 N170 N 1.04362 0.44545 0.42843
 Mn171 Mn 1.05775 0.50024 0.50226
 C172 C 1.07414 0.43357 0.44052
 C173 C 1.06954 0.55439 0.42527
 N174 N 0.93471 0.53497 0.46036
 N175 N 0.91360 0.55644 0.45101
 N176 N 0.95871 0.47298 0.44839
 N177 N 0.95365 0.45127 0.43030
 N178 N 0.93266 0.47810 0.47114
 N179 N 0.90922 0.45989 0.46920
 N180 N 0.96066 0.52943 0.43761
 N181 N 0.95800 0.54679 0.41233
 Mn182 Mn 0.93128 0.51104 0.50181
 Mn183 Mn 0.99778 0.49795 0.44287
 Cl184 Cl 0.99453 0.50553 0.50212
 C185 C 0.92866 0.56361 0.42093
 C186 C 0.92275 0.44319 0.44367
 N187 N 0.56491 0.02048 0.53471
 N188 N 0.58756 0.03912 0.53770
 N189 N 0.53771 -0.03297 0.56277
 N190 N 0.54401 -0.05017 0.58792
 N191 N 0.56313 -0.03656 0.53912
 N192 N 0.58727 -0.05619 0.54746
 N193 N 0.53894 0.02410 0.55775
 N194 N 0.54320 0.04521 0.57713
 C195 C 0.57361 0.05444 0.56426
 C196 C 0.57485 -0.06476 0.57776
 N197 N 0.43802 -0.02598 0.53901
 N198 N 0.41559 -0.04469 0.54548
 N199 N 0.46273 0.03084 0.55751
 N200 N 0.45654 0.05238 0.57755
 N201 N 0.43920 0.03145 0.53425
 N202 N 0.41632 0.05337 0.53788
 N203 N 0.46127 -0.02618 0.56252
 N204 N 0.45514 -0.04463 0.58571
 Mn205 Mn 0.50011 -0.00102 0.56049
 C206 C 0.42665 -0.05608 0.57482
 C207 C 0.42757 0.06635 0.56489
 N208 N 0.56722 -0.04039 0.46666
 N209 N 0.59194 -0.06087 0.46086
 N210 N 0.54562 0.01794 0.43929
 N211 N 0.55050 0.03903 0.41924
 N212 N 0.56872 0.01646 0.46295
 N213 N 0.58972 0.03629 0.45984
 N214 N 0.54368 -0.03946 0.44339
 N215 N 0.55148 -0.05947 0.42141
 Mn216 Mn 0.56629 -0.01011 0.50084
 C217 C 0.58144 -0.07283 0.43281
 C218 C 0.57833 0.05014 0.43244
 N219 N 0.44315 0.02777 0.46157
 N220 N 0.42119 0.04928 0.45399
 N221 N 0.46730 -0.03285 0.44281
 N222 N 0.46141 -0.05258 0.42176
 N223 N 0.44161 -0.02954 0.46625
 N224 N 0.41767 -0.04691 0.46182
 N225 N 0.46929 0.02419 0.43863
 N226 N 0.46586 0.04296 0.41493
 Mn227 Mn 0.44001 0.00094 0.50029
 Mn228 Mn 0.50651 -0.00757 0.44063
 Cl229 Cl 0.50316 -0.00451 0.50056
 C230 C 0.43591 0.05861 0.42481
 C231 C 0.43041 -0.06131 0.43411
 N232 N 0.55939 0.51443 0.03642
 N233 N 0.58194 0.53311 0.03977
 N234 N 0.53176 0.46064 0.06274
 N235 N 0.53871 0.44345 0.08778
 N236 N 0.55690 0.45734 0.03878
 N237 N 0.58136 0.43783 0.04673
 N238 N 0.53352 0.51765 0.05960
 N239 N 0.53772 0.53850 0.07942
 C240 C 0.56802 0.54797 0.06673
 C241 C 0.56950 0.42906 0.07711
 N242 N 0.43187 0.46889 0.03941
 N243 N 0.40785 0.45150 0.04644
 N244 N 0.45737 0.52499 0.05966
 N245 N 0.45218 0.54655 0.07975
 N246 N 0.43371 0.52628 0.03649
 N247 N 0.41174 0.54870 0.04023
 N248 N 0.45528 0.46791 0.06283
 N249 N 0.44773 0.45015 0.08646
 Mn250 Mn 0.49443 0.49281 0.06155
 C251 C 0.41824 0.43992 0.07588
 C252 C 0.42363 0.56122 0.06727
 N253 N 0.56078 0.45523 -0.03373
 N254 N 0.58583 0.43522 -0.04073
 N255 N 0.53983 0.51461 -0.05891
 N256 N 0.54670 0.53485 -0.07968
 N257 N 0.56327 0.51200 -0.03558
 N258 N 0.58681 0.52994 -0.03988
 N259 N 0.53747 0.45716 -0.05725
 N260 N 0.54597 0.43841 -0.08073
 Mn261 Mn 0.56034 0.48464 0.00149
 C262 C 0.57595 0.42463 -0.06989
 C263 C 0.57629 0.54408 -0.06740
 N264 N 0.43731 0.52422 -0.03614
 N265 N 0.41647 0.54681 -0.04163
 N266 N 0.46087 0.46413 -0.05723
 N267 N 0.45562 0.44397 -0.07795
 N268 N 0.43543 0.46688 -0.03349
 N269 N 0.41236 0.44872 -0.03732
 N270 N 0.46350 0.52139 -0.05909
 N271 N 0.46138 0.54192 -0.08061
 Mn272 Mn 0.43410 0.49655 0.00155
 Mn273 Mn 0.50039 0.48933 -0.05855
 Cl274 Cl 0.49727 0.49074 0.00149
 C275 C 0.43195 0.55766 -0.06947
 C276 C 0.42524 0.43448 -0.06510
 C277 C 1.17047 0.19153 0.20911
 C278 C 1.15078 0.17345 0.19269
 C279 C 1.15948 0.16603 0.15924
 C280 C 1.18830 0.17688 0.14215
 C281 C 1.20793 0.19520 0.15847
 C282 C 1.19874 0.20334 0.19201
 N283 N 1.13922 0.14681 0.14373
 N284 N 1.14719 0.13706 0.11443
 C285 C 1.12659 0.11751 0.09991
 C286 C 1.13879 0.10470 0.06959
 C287 C 1.12013 0.08444 0.05587
 C288 C 1.08881 0.07692 0.07228
 C289 C 1.07613 0.09031 0.10224
 C290 C 1.09491 0.11037 0.11603
 H291 H 1.16377 0.19600 0.23543
 H292 H 1.12902 0.16477 0.20628
 H293 H 1.19589 0.17098 0.11639
 H294 H 1.23070 0.20239 0.14493
 H295 H 1.16313 0.11008 0.05692
 H296 H 1.13035 0.07451 0.03262
 H297 H 1.05201 0.08497 0.11534
 H298 H 1.08482 0.12009 0.13942
 C299 C 1.18029 0.70024 0.70563
 C300 C 1.15716 0.68444 0.68984
 C301 C 1.16370 0.67669 0.65619
 C302 C 1.19366 0.68507 0.63825
 C303 C 1.21680 0.70101 0.65396
 C304 C 1.21018 0.70916 0.68784
 N305 N 1.14058 0.65915 0.64145
 N306 N 1.14629 0.64983 0.61167
 C307 C 1.12394 0.63132 0.59762
 C308 C 1.13417 0.61920 0.56644
 C309 C 1.11484 0.59907 0.55349
 C310 C 1.08477 0.59096 0.57155
 C311 C 1.07365 0.60395 0.60217
 C312 C 1.09318 0.62393 0.61523
 H313 H 1.17504 0.70524 0.73203
 H314 H 1.13445 0.67772 0.70406
 H315 H 1.19956 0.67889 0.61230
 H316 H 1.24019 0.70609 0.63958
 H317 H 1.15779 0.62478 0.55266
 H318 H 1.12384 0.58949 0.52969
 H319 H 1.05051 0.59810 0.61652
 H320 H 1.08469 0.63314 0.63935
 C321 C 0.73058 0.20149 0.63442
 C322 C 0.71309 0.18286 0.61620
 C323 C 0.68441 0.17053 0.63105
 C324 C 0.67360 0.17668 0.66462
 C325 C 0.69109 0.19500 0.68294
 C326 C 0.71928 0.20856 0.66804
 N327 N 0.66757 0.15089 0.61235
 N328 N 0.63974 0.14099 0.62432
 C329 C 0.62274 0.12048 0.60744
 C330 C 0.59143 0.11190 0.62221
 C331 C 0.57508 0.09076 0.60777
 C332 C 0.59003 0.07773 0.57832
 C333 C 0.62114 0.08670 0.56308
 C334 C 0.63742 0.10799 0.57753
 H335 H 0.75350 0.20953 0.62217
 H336 H 0.72225 0.17772 0.59057
 H337 H 0.65208 0.16688 0.67704
 H338 H 0.68275 0.19826 0.70919
 H339 H 0.57997 0.12139 0.64530
 H340 H 0.55108 0.08431 0.62000
 H341 H 0.63311 0.07706 0.54028
 H342 H 0.66170 0.11431 0.56574
 C343 C 0.72256 0.69612 0.13688
 C344 C 0.70546 0.67706 0.11906
 C345 C 0.67576 0.66580 0.13354
 C346 C 0.66335 0.67368 0.16625
 C347 C 0.68048 0.69253 0.18414
 C348 C 0.70982 0.70461 0.16948
 N349 N 0.65959 0.64549 0.11538
 N350 N 0.63162 0.63567 0.12711
 C351 C 0.61547 0.61463 0.11040
 C352 C 0.58410 0.60585 0.12477
 C353 C 0.56840 0.58441 0.11025
 C354 C 0.58405 0.57131 0.08110
 C355 C 0.61530 0.58040 0.06635
 C356 C 0.63094 0.60196 0.08088
 H357 H 0.74627 0.70356 0.12537
 H358 H 0.71573 0.67069 0.09412
 H359 H 0.64090 0.66480 0.17834
 H360 H 0.67109 0.69718 0.20982
 H361 H 0.57203 0.61546 0.14755
 H362 H 0.54427 0.57787 0.12211
 H363 H 0.62781 0.57069 0.04381
 H364 H 0.65528 0.60843 0.06940
 C365 C 0.80528 -0.22138 0.14222
 C366 C 0.82137 -0.19985 0.12668
 C367 C 0.82406 -0.17552 0.14413
 C368 C 0.81107 -0.17311 0.17784
 C369 C 0.79443 -0.19455 0.19334
 C370 C 0.79071 -0.21877 0.17549
 N371 N 0.83917 -0.15345 0.12668
 N372 N 0.84791 -0.13245 0.14183
 C373 C 0.86235 -0.11038 0.12378
 C374 C 0.88160 -0.09242 0.14112
 C375 C 0.89734 -0.07142 0.12396
 C376 C 0.89319 -0.06759 0.08926
 C377 C 0.87287 -0.08503 0.07201
 C378 C 0.85786 -0.10650 0.08907
 H379 H 0.80393 -0.23997 0.12792
 H380 H 0.83161 -0.20206 0.10081
 H381 H 0.81285 -0.15441 0.19184
 H382 H 0.78345 -0.19168 0.21879
 H383 H 0.88512 -0.09512 0.16786
 H384 H 0.91278 -0.05815 0.13784
 H385 H 0.86940 -0.08251 0.04524
 H386 H 0.84276 -0.12003 0.07523
 C387 C 0.81208 0.28170 0.64579
 C388 C 0.82897 0.30336 0.63160
 C389 C 0.83475 0.32600 0.65100
 C390 C 0.82414 0.32653 0.68535
 C391 C 0.80674 0.30494 0.69970
 C392 C 0.79961 0.28229 0.67993
 N393 N 0.84998 0.34850 0.63459
 N394 N 0.86114 0.36828 0.65041
 C395 C 0.87504 0.39075 0.63260
 C396 C 0.89569 0.40810 0.64941
 C397 C 0.91010 0.42982 0.63231
 C398 C 0.90331 0.43487 0.59826
 C399 C 0.88199 0.41779 0.58161
 C400 C 0.86823 0.39577 0.59852
 H401 H 0.80923 0.26440 0.62965
 H402 H 0.83746 0.30255 0.60517
 H403 H 0.82822 0.34401 0.70081
 H404 H 0.79740 0.30712 0.72575
 H405 H 0.90105 0.40454 0.67567
 H406 H 0.92636 0.44275 0.64575
 H407 H 0.87642 0.42119 0.55537
 H408 H 0.85208 0.38279 0.58504
 C409 C 0.32309 -0.23124 0.65498
 C410 C 0.34014 -0.21084 0.63789
 C411 C 0.34339 -0.18574 0.65347
 C412 C 0.33024 -0.18150 0.68692
 C413 C 0.31270 -0.20176 0.70393
 C414 C 0.30830 -0.22668 0.68791
 N415 N 0.35869 -0.16455 0.63439
 N416 N 0.36730 -0.14291 0.64822
 C417 C 0.38146 -0.12126 0.62914
 C418 C 0.39988 -0.10237 0.64583
 C419 C 0.41450 -0.08120 0.62802
 C420 C 0.41005 -0.07812 0.59326
 C421 C 0.39076 -0.09664 0.57657
 C422 C 0.37687 -0.11830 0.59433
 H423 H 0.32075 -0.25037 0.64209
 H424 H 0.35037 -0.21444 0.61221
 H425 H 0.33233 -0.16218 0.69947
 H426 H 0.30121 -0.19728 0.72898
 H427 H 0.40339 -0.10433 0.67265
 H428 H 0.42913 -0.06711 0.64150
 H429 H 0.38710 -0.09470 0.54977
 H430 H 0.36237 -0.13255 0.58100
 C431 C 0.29675 0.27369 0.15742
 C432 C 0.31433 0.29379 0.14041
 C433 C 0.32056 0.31789 0.15681
 C434 C 0.30949 0.32152 0.19093
 C435 C 0.29134 0.30152 0.20794
 C436 C 0.28415 0.27755 0.19120
 N437 N 0.33739 0.33843 0.13792
 N438 N 0.34948 0.35875 0.15179
 C439 C 0.36569 0.37929 0.13229
 C440 C 0.38734 0.39636 0.14821
 C441 C 0.40444 0.41601 0.12974
 C442 C 0.39942 0.41938 0.09509
 C443 C 0.37695 0.40274 0.07923
 C444 C 0.36048 0.38261 0.09762
 H445 H 0.29289 0.25517 0.14387
 H446 H 0.32307 0.29061 0.11425
 H447 H 0.31405 0.34006 0.20415
 H448 H 0.28209 0.30530 0.23378
 H449 H 0.39147 0.39409 0.17490
 H450 H 0.42147 0.42869 0.14262
 H451 H 0.37271 0.40494 0.05255
 H452 H 0.34360 0.36976 0.08483
 C453 C 0.80482 0.22640 -0.21020
 C454 C 0.82272 0.21190 -0.18456
 C455 C 0.83793 0.18504 -0.19009
 C456 C 0.83552 0.17300 -0.22176
 C457 C 0.81696 0.18702 -0.24689
 C458 C 0.80053 0.21378 -0.24145
 N459 N 0.85437 0.16963 -0.16331
 N460 N 0.87570 0.14855 -0.17016
 C461 C 0.89117 0.13039 -0.14552
 C462 C 0.92002 0.11210 -0.15597
 C463 C 0.93364 0.09178 -0.13433
 C464 C 0.91814 0.08895 -0.10180
 C465 C 0.88956 0.10772 -0.09087
 C466 C 0.87622 0.12849 -0.11259
 H467 H 0.79254 0.24670 -0.20445
 H468 H 0.82435 0.22150 -0.16024
 H469 H 0.84719 0.15233 -0.22688
 H470 H 0.81604 0.17677 -0.27087
 H471 H 0.93153 0.11324 -0.18137
 H472 H 0.95569 0.07771 -0.14355
 H473 H 0.87718 0.10602 -0.06591
 H474 H 0.85355 0.14228 -0.10419
 C475 C 0.79245 0.71881 0.29193
 C476 C 0.81006 0.70400 0.31739
 C477 C 0.83317 0.68067 0.30941
 C478 C 0.83932 0.67280 0.27546
 C479 C 0.82134 0.68727 0.25018
 C480 C 0.79730 0.71008 0.25825
 N481 N 0.84841 0.66424 0.33595
 N482 N 0.87253 0.64491 0.32932
 C483 C 0.88724 0.62648 0.35408
 C484 C 0.91702 0.60881 0.34446
 C485 C 0.93075 0.58891 0.36660
 C486 C 0.91459 0.58600 0.39884
 C487 C 0.88493 0.60404 0.40884
 C488 C 0.87136 0.62429 0.38660
 H489 H 0.77369 0.73618 0.29873
 H490 H 0.80500 0.71028 0.34341
 H491 H 0.85698 0.65485 0.26854
 H492 H 0.82551 0.68022 0.22435
 H493 H 0.92933 0.61022 0.31941
 H494 H 0.95367 0.57539 0.35811
 H495 H 0.87202 0.60228 0.43357
 H496 H 0.84807 0.63765 0.39443
 C497 C 0.29010 0.21620 0.30854
 C498 C 0.30951 0.20100 0.33254
 C499 C 0.33243 0.17799 0.32276
 C500 C 0.33651 0.17084 0.28844
 C501 C 0.31670 0.18565 0.26464
 C502 C 0.29289 0.20813 0.27456
 N503 N 0.34948 0.16106 0.34791
 N504 N 0.37386 0.14235 0.33955
 C505 C 0.39022 0.12339 0.36288
 C506 C 0.42044 0.10684 0.35162
 C507 C 0.43565 0.08636 0.37223
 C508 C 0.42051 0.08171 0.40450
 C509 C 0.39044 0.09865 0.41616
 C510 C 0.37543 0.11950 0.39550
 H511 H 0.27155 0.23332 0.31673
 H512 H 0.30602 0.20673 0.35887
 H513 H 0.35393 0.15313 0.28014
 H514 H 0.31922 0.17911 0.23855
 H515 H 0.43192 0.10955 0.32647
 H516 H 0.45881 0.07371 0.36249
 H517 H 0.37830 0.09553 0.44094
 H518 H 0.35181 0.13195 0.40458
 C519 C 0.27452 0.69484 -0.19609
 C520 C 0.29052 0.67936 -0.17050
 C521 C 0.32747 0.67587 -0.16935
 C522 C 0.34840 0.68948 -0.19309
 C523 C 0.33229 0.70545 -0.21846
 C524 C 0.29533 0.70746 -0.22066
 N525 N 0.34279 0.65668 -0.14569
 N526 N 0.37575 0.64871 -0.14671
 C527 C 0.39027 0.62798 -0.12446
 C528 C 0.42542 0.61705 -0.13044
 C529 C 0.43921 0.59460 -0.11191
 C530 C 0.41809 0.58287 -0.08674
 C531 C 0.38332 0.59462 -0.07962
 C532 C 0.36939 0.61693 -0.09848
 H533 H 0.24589 0.69639 -0.19728
 H534 H 0.27414 0.66903 -0.15238
 H535 H 0.37706 0.68714 -0.19260
 H536 H 0.34867 0.71510 -0.23724
 H537 H 0.44176 0.62534 -0.15037
 H538 H 0.46621 0.58609 -0.11775
 H539 H 0.36652 0.58601 -0.06030
 H540 H 0.34212 0.62507 -0.09332
 C541 C 1.23926 -0.21413 -0.19704
 C542 C 1.22336 -0.19553 -0.17288
 C543 C 1.19242 -0.17901 -0.17989
 C544 C 1.17856 -0.18024 -0.21197
 C545 C 1.19447 -0.19856 -0.23607
 C546 C 1.22440 -0.21621 -0.22858
 N547 N 1.17470 -0.16168 -0.15414
 N548 N 1.14328 -0.15094 -0.15799
 C549 C 1.12381 -0.13299 -0.13407
 C550 C 1.08924 -0.12309 -0.14125
 C551 C 1.06991 -0.10399 -0.12010
 C552 C 1.08495 -0.09440 -0.09129
 C553 C 1.11927 -0.10509 -0.08332
 C554 C 1.13869 -0.12430 -0.10466
 H555 H 1.26217 -0.22762 -0.19051
 H556 H 1.23443 -0.19467 -0.14832
 H557 H 1.15508 -0.16730 -0.21830
 H558 H 1.18296 -0.19920 -0.26044
 H559 H 1.07755 -0.12976 -0.16381
 H560 H 1.04347 -0.09621 -0.12680
 H561 H 1.13146 -0.09798 -0.06127
 H562 H 1.16543 -0.13181 -0.09867
 C563 C 1.16991 0.26881 0.29915
 C564 C 1.15251 0.28689 0.32279
 C565 C 1.16741 0.31068 0.33160
 C566 C 1.20061 0.31599 0.31702
 C567 C 1.21791 0.29804 0.29284
 C568 C 1.20234 0.27453 0.28303
 N569 N 1.14703 0.32985 0.35351
 N570 N 1.16019 0.34950 0.36777
 C571 C 1.13809 0.36926 0.38761
 C572 C 1.15361 0.38632 0.40965
 C573 C 1.13261 0.40663 0.42800
 C574 C 1.09586 0.41056 0.42380
 C575 C 1.08030 0.39329 0.40190
 C576 C 1.10117 0.37264 0.38418
 H577 H 1.15762 0.25043 0.29338
 H578 H 1.12704 0.28252 0.33405
 H579 H 1.21251 0.33442 0.32341
 H580 H 1.24276 0.30315 0.28117
 H581 H 1.18203 0.38398 0.41242
 H582 H 1.14524 0.41983 0.44458
 H583 H 1.05203 0.39594 0.39826
 H584 H 1.08858 0.35983 0.36708
 C585 C 0.67201 -0.23001 0.27621
 C586 C 0.65408 -0.21279 0.30053
 C587 C 0.66997 -0.19063 0.31310
 C588 C 0.70439 -0.18592 0.30129
 C589 C 0.72220 -0.20288 0.27643
 C590 C 0.70606 -0.22496 0.26313
 N591 N 0.64978 -0.17246 0.33636
 N592 N 0.66379 -0.15504 0.35386
 C593 C 0.64243 -0.13596 0.37525
 C594 C 0.65861 -0.12124 0.39938
 C595 C 0.63853 -0.10137 0.41920
 C596 C 0.60208 -0.09557 0.41451
 C597 C 0.58581 -0.11059 0.39062
 C598 C 0.60573 -0.13079 0.37133
 H599 H 0.65896 -0.24731 0.26786
 H600 H 0.62761 -0.21670 0.30961
 H601 H 0.71708 -0.16871 0.31056
 H602 H 0.74820 -0.19812 0.26733
 H603 H 0.68688 -0.12497 0.40255
 H604 H 0.65170 -0.08992 0.43735
 H605 H 0.55774 -0.10650 0.38657
 H606 H 0.59265 -0.14179 0.35269
 C607 C 0.67735 0.29047 -0.25058
 C608 C 0.65809 0.30898 -0.22862
 C609 C 0.67368 0.31897 -0.20074
 C610 C 0.70944 0.31083 -0.19538
 C611 C 0.72909 0.29241 -0.21759
 C612 C 0.71320 0.28128 -0.24533
 N613 N 0.65235 0.33748 -0.17869
 N614 N 0.66294 0.34625 -0.15118
 C615 C 0.64031 0.36495 -0.13028
 C616 C 0.65248 0.37390 -0.09988
 C617 C 0.63122 0.39283 -0.07964
 C618 C 0.59747 0.40314 -0.08970
 C619 C 0.58506 0.39372 -0.11988
 C620 C 0.60623 0.37479 -0.13998
 H621 H 0.66379 0.28430 -0.27217
 H622 H 0.63068 0.31556 -0.23335
 H623 H 0.72215 0.31858 -0.17401
 H624 H 0.75623 0.28651 -0.21186
 H625 H 0.67862 0.36644 -0.09206
 H626 H 0.64145 0.39978 -0.05649
 H627 H 0.55916 0.40127 -0.12823
 H628 H 0.59608 0.36815 -0.16330
 C629 C 1.16469 0.21069 -0.20364
 C630 C 1.14455 0.19081 -0.18927
 C631 C 1.15549 0.17665 -0.16050
 C632 C 1.18668 0.18300 -0.14571
 C633 C 1.20686 0.20299 -0.15999
 C634 C 1.19594 0.21751 -0.18899
 N635 N 1.13562 0.15493 -0.14804
 N636 N 1.14515 0.14032 -0.12295
 C637 C 1.12617 0.11801 -0.11089
 C638 C 1.13843 0.10329 -0.08294
 C639 C 1.12132 0.08095 -0.07087
 C640 C 1.09152 0.07286 -0.08666
 C641 C 1.07904 0.08772 -0.11469
 C642 C 1.09625 0.11016 -0.12676
 H643 H 1.15633 0.21989 -0.22708
 H644 H 1.12095 0.18575 -0.20130
 H645 H 1.19606 0.17198 -0.12373
 H646 H 1.23170 0.20614 -0.14895
 H647 H 1.16146 0.10909 -0.07055
 H648 H 1.13152 0.06999 -0.04916
 H649 H 1.05608 0.08198 -0.12725
 H650 H 1.08632 0.12123 -0.14850
 C651 C 1.21722 0.70808 0.34780
 C652 C 1.19907 0.68852 0.36540
 C653 C 1.17109 0.67683 0.35102
 C654 C 1.16097 0.68519 0.31879
 C655 C 1.17903 0.70478 0.30115
 C656 C 1.20719 0.71681 0.31548
 N657 N 1.15471 0.65560 0.36896
 N658 N 1.12976 0.64345 0.35710
 C659 C 1.11442 0.62165 0.37491
 C660 C 1.08665 0.60934 0.36084
 C661 C 1.07184 0.58749 0.37721
 C662 C 1.08479 0.57757 0.40791
 C663 C 1.11251 0.59006 0.42209
 C664 C 1.12720 0.61192 0.40577
 H665 H 1.23983 0.71534 0.35930
 H666 H 1.20751 0.68186 0.39001
 H667 H 1.13971 0.67616 0.30691
 H668 H 1.17152 0.70999 0.27581
 H669 H 1.07661 0.61663 0.33704
 H670 H 1.05043 0.57828 0.36577
 H671 H 1.12293 0.58291 0.44579
 H672 H 1.14868 0.62104 0.41716
 C673 C 0.68387 0.20218 0.29757
 C674 C 0.66234 0.18276 0.31061
 C675 C 0.66562 0.17356 0.34365
 C676 C 0.69046 0.18434 0.36386
 C677 C 0.71205 0.20391 0.35088
 C678 C 0.70907 0.21309 0.31743
 N679 N 0.64460 0.15242 0.35551
 N680 N 0.64759 0.14233 0.38485
 C681 C 0.62790 0.12044 0.39668
 C682 C 0.63488 0.10941 0.42835
 C683 C 0.61824 0.08681 0.43997
 C684 C 0.59404 0.07490 0.42009
 C685 C 0.58613 0.08644 0.38865
 C686 C 0.60311 0.10906 0.37689
 H687 H 0.68119 0.20851 0.27160
 H688 H 0.64349 0.17447 0.29472
 H689 H 0.69360 0.17736 0.38951
 H690 H 0.73125 0.21112 0.36707
 H691 H 0.65388 0.11804 0.44377
 H692 H 0.62463 0.07851 0.46447
 H693 H 0.56751 0.07764 0.37296
 H694 H 0.59729 0.11735 0.35227
 C695 C 0.66144 0.72261 -0.16008
 C696 C 0.64222 0.70267 -0.14450
 C697 C 0.65920 0.67738 -0.13561
 C698 C 0.69627 0.67293 -0.14005
 C699 C 0.71555 0.69270 -0.15583
 C700 C 0.69825 0.71719 -0.16843
 N701 N 0.63824 0.65615 -0.12362
 N702 N 0.65262 0.63323 -0.11376
 C703 C 0.63257 0.61117 -0.10305
 C704 C 0.64973 0.58952 -0.08548
 C705 C 0.63128 0.56764 -0.07437
 C706 C 0.59541 0.56672 -0.08135
 C707 C 0.57827 0.58808 -0.09983
 C708 C 0.59668 0.61039 -0.11039
 H709 H 0.64677 0.74185 -0.16583
 H710 H 0.61379 0.70672 -0.14007
 H711 H 0.71024 0.65377 -0.13254
 H712 H 0.74397 0.68817 -0.15993
 H713 H 0.67741 0.58981 -0.07995
 H714 H 0.64515 0.55137 -0.06026
 H715 H 0.55057 0.58785 -0.10533
 H716 H 0.58305 0.62686 -0.12433
 C717 C 0.81474 -0.20476 -0.20154
 C718 C 0.83536 -0.18517 -0.18892
 C719 C 0.83057 -0.17645 -0.15542
 C720 C 0.80567 -0.18839 -0.13418
 C721 C 0.78530 -0.20820 -0.14655
 C722 C 0.78874 -0.21642 -0.18078
 N723 N 0.85059 -0.15510 -0.14383
 N724 N 0.84418 -0.14396 -0.11497
 C725 C 0.86349 -0.12232 -0.10309
 C726 C 0.89309 -0.11354 -0.12134
 C727 C 0.91083 -0.09200 -0.10916
 C728 C 0.89909 -0.07873 -0.07875
 C729 C 0.86961 -0.08771 -0.06057
 C730 C 0.85214 -0.10937 -0.07259
 H731 H 0.82013 -0.21090 -0.22747
 H732 H 0.85484 -0.17644 -0.20552
 H733 H 0.80149 -0.18211 -0.10809
 H734 H 0.76557 -0.21573 -0.12928
 H735 H 0.90246 -0.12325 -0.14494
 H736 H 0.93349 -0.08554 -0.12370
 H737 H 0.86003 -0.07800 -0.03700
 H738 H 0.82941 -0.11594 -0.05825
 C739 C 0.83196 0.29159 0.30454
 C740 C 0.85186 0.31072 0.31914
 C741 C 0.84106 0.32244 0.35050
 C742 C 0.81039 0.31432 0.36752
 C743 C 0.79061 0.29513 0.35305
 C744 C 0.80101 0.28369 0.32126
 N745 N 0.86094 0.34304 0.36401
 N746 N 0.85109 0.35565 0.39133
 C747 C 0.87028 0.37672 0.40470
 C748 C 0.85648 0.39076 0.43376
 C749 C 0.87369 0.41220 0.44672
 C750 C 0.90519 0.41986 0.43081
 C751 C 0.91937 0.40541 0.40198
 C752 C 0.90204 0.38406 0.38896
 H753 H 0.84078 0.28302 0.28016
 H754 H 0.87546 0.31676 0.30575
 H755 H 0.80139 0.32311 0.39174
 H756 H 0.76652 0.28996 0.36633
 H757 H 0.83204 0.38529 0.44614
 H758 H 0.86221 0.42290 0.46902
 H759 H 0.94363 0.41084 0.38921
 H760 H 0.91329 0.37350 0.36650
 C761 C 0.32710 -0.20485 0.28840
 C762 C 0.34844 -0.18598 0.30163
 C763 C 0.33812 -0.17225 0.33191
 C764 C 0.30588 -0.17738 0.34863
 C765 C 0.28463 -0.19612 0.33548
 C766 C 0.29512 -0.21031 0.30540
 N767 N 0.36048 -0.15325 0.34536
 N768 N 0.35216 -0.14117 0.37335
 C769 C 0.37309 -0.12189 0.38809
 C770 C 0.36080 -0.10975 0.41877
 C771 C 0.37971 -0.09035 0.43383
 C772 C 0.41147 -0.08271 0.41844
 C773 C 0.42415 -0.09517 0.38779
 C774 C 0.40506 -0.11463 0.37266
 H775 H 0.33596 -0.21552 0.26527
 H776 H 0.37317 -0.18220 0.28840
 H777 H 0.29700 -0.16689 0.37188
 H778 H 0.25973 -0.19924 0.34879
 H779 H 0.33624 -0.11522 0.43092
 H780 H 0.36929 -0.08119 0.45746
 H781 H 0.44855 -0.08966 0.37538
 H782 H 0.41509 -0.12380 0.34893
 C783 C 0.31982 0.29373 -0.21206
 C784 C 0.34147 0.31188 -0.19793
 C785 C 0.33548 0.32049 -0.16449
 C786 C 0.30802 0.31006 -0.14491
 C787 C 0.28645 0.29179 -0.15881
 C788 C 0.29138 0.28357 -0.19295
 N789 N 0.35687 0.34030 -0.15127
 N790 N 0.35069 0.35024 -0.12177
 C791 C 0.37090 0.37050 -0.10794
 C792 C 0.36018 0.38145 -0.07623
 C793 C 0.37811 0.40202 -0.06229
 C794 C 0.40741 0.41195 -0.07977
 C795 C 0.41867 0.40058 -0.11139
 C796 C 0.40046 0.38006 -0.12547
 H797 H 0.32640 0.28737 -0.23776
 H798 H 0.36286 0.31947 -0.21326
 H799 H 0.30276 0.31636 -0.11892
 H800 H 0.26491 0.28544 -0.14277
 H801 H 0.33749 0.37426 -0.06245
 H802 H 0.36887 0.41025 -0.03783
 H803 H 0.44116 0.40784 -0.12542
 H804 H 0.40929 0.37187 -0.15003
 C805 C 1.22510 -0.20322 0.19650
 C806 C 1.20837 -0.18489 0.17387
 C807 C 1.17567 -0.17045 0.18289
 C808 C 1.16009 -0.17418 0.21519
 C809 C 1.17677 -0.19242 0.23781
 C810 C 1.20929 -0.20737 0.22862
 N811 N 1.15869 -0.15232 0.15892
 N812 N 1.12826 -0.13963 0.16540
 C813 C 1.11083 -0.12132 0.14194
 C814 C 1.12620 -0.11639 0.10986
 C815 C 1.10883 -0.09774 0.08802
 C816 C 1.07592 -0.08371 0.09792
 C817 C 1.06042 -0.08909 0.12981
 C818 C 1.07777 -0.10775 0.15156
 H819 H 1.24987 -0.21468 0.18849
 H820 H 1.22068 -0.18221 0.14906
 H821 H 1.13497 -0.16310 0.22293
 H822 H 1.16419 -0.19475 0.26257
 H823 H 1.15171 -0.12669 0.10181
 H824 H 1.12141 -0.09400 0.06359
 H825 H 1.03508 -0.07861 0.13812
 H826 H 1.06562 -0.11143 0.17619
 C827 C 1.22494 0.30150 0.69927
 C828 C 1.21003 0.32166 0.67777
 C829 C 1.17885 0.33778 0.68781
 C830 C 1.16325 0.33407 0.72010
 C831 C 1.17811 0.31403 0.74156
 C832 C 1.20877 0.29721 0.73118
 N833 N 1.16297 0.35721 0.66466
 N834 N 1.13339 0.37093 0.67191
 C835 C 1.11662 0.39025 0.64922
 C836 C 1.08404 0.40430 0.65941
 C837 C 1.06685 0.42338 0.63807
 C838 C 1.08208 0.42871 0.60607
 C839 C 1.11469 0.41443 0.59574
 C840 C 1.13186 0.39533 0.61714
 H841 H 1.24833 0.28867 0.69043
 H842 H 1.22234 0.32432 0.65296
 H843 H 1.13934 0.34643 0.72863
 H844 H 1.16543 0.31160 0.76625
 H845 H 1.07199 0.40049 0.68405
 H846 H 1.04175 0.43406 0.64670
 H847 H 1.12704 0.41814 0.57120
 H848 H 1.15700 0.38465 0.60868
 C849 C 0.66824 -0.19300 0.76083
 C850 C 0.65058 -0.17346 0.74063
 C851 C 0.66598 -0.16603 0.70983
 C852 C 0.70015 -0.17765 0.69981
 C853 C 0.71825 -0.19709 0.72024
 C854 C 0.70216 -0.20561 0.75081
 N855 N 0.64577 -0.14717 0.68909
 N856 N 0.65615 -0.14106 0.65935
 C857 C 0.63495 -0.12238 0.63912
 C858 C 0.64756 -0.11640 0.60655
 C859 C 0.62765 -0.09803 0.58635
 C860 C 0.59473 -0.08531 0.59852
 C861 C 0.58184 -0.09161 0.63106
 C862 C 0.60178 -0.11001 0.65123
 H863 H 0.65525 -0.19781 0.78469
 H864 H 0.62444 -0.16435 0.74879
 H865 H 0.71259 -0.17209 0.67598
 H866 H 0.74379 -0.20636 0.71081
 H867 H 0.67298 -0.12588 0.59689
 H868 H 0.63824 -0.09356 0.56135
 H869 H 0.55657 -0.08209 0.64105
 H870 H 0.59137 -0.11439 0.67632
 C871 C 0.68415 0.31376 0.26247
 C872 C 0.66489 0.33313 0.24314
 C873 C 0.67480 0.33681 0.20924
 C874 C 0.70551 0.32191 0.19517
 C875 C 0.72504 0.30265 0.21463
 C876 C 0.71385 0.29790 0.24812
 N877 N 0.65221 0.35468 0.18937
 N878 N 0.65767 0.35710 0.15773
 C879 C 0.63439 0.37444 0.13788
 C880 C 0.64330 0.37762 0.10366
 C881 C 0.62162 0.39487 0.08371
 C882 C 0.59048 0.40911 0.09773
 C883 C 0.58102 0.40536 0.13191
 C884 C 0.60287 0.38819 0.15191
 H885 H 0.67530 0.31065 0.28841
 H886 H 0.64144 0.34463 0.25427
 H887 H 0.71377 0.32456 0.16900
 H888 H 0.74771 0.29050 0.20303
 H889 H 0.66737 0.36698 0.09255
 H890 H 0.62951 0.39735 0.05739
 H891 H 0.55720 0.41614 0.14333
 H892 H 0.59530 0.38586 0.17831
 C893 C 0.83500 0.22792 0.22415
 C894 C 0.85658 0.21343 0.19930
 C895 C 0.84141 0.19866 0.17442
 C896 C 0.80425 0.19977 0.17358
 C897 C 0.78281 0.21385 0.19859
 C898 C 0.79805 0.22735 0.22454
 N899 N 0.86381 0.18031 0.15281
 N900 N 0.85126 0.16738 0.12905
 C901 C 0.87197 0.14668 0.10942
 C902 C 0.85664 0.13513 0.08213
 C903 C 0.87408 0.11247 0.06508
 C904 C 0.90706 0.10076 0.07542
 C905 C 0.92303 0.11296 0.10206
 C906 C 0.90568 0.13580 0.11889
 H907 H 0.84718 0.23801 0.24420
 H908 H 0.88516 0.21266 0.20035
 H909 H 0.79180 0.18853 0.15473
 H910 H 0.75430 0.21319 0.19858
 H911 H 0.83057 0.14321 0.07473
 H912 H 0.86115 0.10352 0.04463
 H913 H 0.94850 0.10442 0.11046
 H914 H 0.91797 0.14426 0.14007
 C915 C 0.76908 0.69996 0.71682
 C916 C 0.78972 0.68690 0.69058
 C917 C 0.82178 0.69673 0.67933
 C918 C 0.83200 0.72065 0.69379
 C919 C 0.81072 0.73434 0.71958
 C920 C 0.77947 0.72362 0.73237
 N921 N 0.84514 0.68143 0.65523
 N922 N 0.83362 0.66356 0.63639
 C923 C 0.85624 0.64548 0.61471
 C924 C 0.84080 0.63030 0.59049
 C925 C 0.86112 0.60963 0.57213
 C926 C 0.89716 0.60339 0.57831
 C927 C 0.91293 0.61926 0.60183
 C928 C 0.89270 0.64029 0.61974
 H929 H 0.74451 0.69154 0.72431
 H930 H 0.78109 0.66851 0.67982
 H931 H 0.85679 0.72842 0.68549
 H932 H 0.82018 0.75220 0.73076
 H933 H 0.81266 0.63395 0.58659
 H934 H 0.84825 0.59770 0.55426
 H935 H 0.94070 0.61492 0.60702
 H936 H 0.90512 0.65156 0.63858
 C937 C 0.32615 0.22437 0.71876
 C938 C 0.34903 0.20857 0.69609
 C939 C 0.33546 0.19070 0.67353
 C940 C 0.29855 0.18960 0.67303
 C941 C 0.27585 0.20495 0.69596
 C942 C 0.28951 0.22196 0.71949
 N943 N 0.35937 0.17214 0.65358
 N944 N 0.34810 0.15743 0.63078
 C945 C 0.37028 0.13676 0.61243
 C946 C 0.35630 0.12390 0.58535
 C947 C 0.37547 0.10158 0.56914
 C948 C 0.40889 0.09148 0.58012
 C949 C 0.42339 0.10487 0.60674
 C950 C 0.40429 0.12743 0.62273
 H951 H 0.33716 0.23725 0.73690
 H952 H 0.37741 0.20957 0.69684
 H953 H 0.28731 0.17595 0.65596
 H954 H 0.24761 0.20292 0.69605
 H955 H 0.33003 0.13080 0.57734
 H956 H 0.36363 0.09171 0.54870
 H957 H 0.44915 0.09756 0.61563
 H958 H 0.41552 0.13693 0.64379
 C959 C 0.33278 0.72260 0.21984
 C960 C 0.35464 0.70606 0.19711
 C961 C 0.33972 0.68943 0.17398
 C962 C 0.30258 0.69051 0.17279
 C963 C 0.28087 0.70665 0.19574
 C964 C 0.29582 0.72227 0.21990
 N965 N 0.36231 0.66974 0.15435
 N966 N 0.34996 0.65549 0.13171
 C967 C 0.37074 0.63381 0.11379
 C968 C 0.35579 0.62129 0.08701
 C969 C 0.37351 0.59817 0.07120
 C970 C 0.40640 0.58694 0.08229
 C971 C 0.42187 0.59992 0.10864
 C972 C 0.40423 0.62326 0.12423
 H973 H 0.34470 0.73434 0.23858
 H974 H 0.38319 0.70536 0.19840
 H975 H 0.29032 0.67786 0.15528
 H976 H 0.25235 0.70613 0.19556
 H977 H 0.32990 0.62911 0.07889
 H978 H 0.36096 0.58863 0.05094
 H979 H 0.44727 0.59176 0.11760
 H980 H 0.41619 0.63248 0.14508
   
