data_POSCAR
  _audit_creation_date              2014-09-24
  _audit_creation_method            'ToBaCCo'
  _symmetry_space_group_name_H-M    'P1'
  _symmetry_Int_Tables_number       1
  _symmetry_cell_setting            triclinic
  loop_
  _symmetry_equiv_pos_as_xyz
 x,y,z
_cell_length_a 41.7574
_cell_length_b 41.0424
_cell_length_c 16.5592
_cell_angle_alpha 90.024300
_cell_angle_beta 90.011000
_cell_angle_gamma 122.067400
loop_
  _atom_site_label
  _atom_site_type_symbol
  _atom_site_fract_x
  _atom_site_fract_y
  _atom_site_fract_z
C1 C 0.46898 0.96457 0.54464
 C2 C 0.48124 0.96543 0.46434
 C3 C 0.50410 1.00075 0.42542
 C4 C 0.51449 1.03589 0.46258
 C5 C 0.50259 1.03538 0.54367
 C6 C 0.47866 0.99959 0.58155
 H7 H 0.47128 0.99923 0.64442
 H8 H 0.51117 1.00039 0.36255
 C9 C 0.03434 0.51316 0.54518
 C10 C 0.03512 0.51222 0.46026
 C11 C 0.00149 0.49793 0.41648
 C12 C -0.03336 0.48459 0.45554
 C13 C -0.03397 0.48502 0.54164
 C14 C -0.00008 0.49981 0.58494
 H15 H -0.00076 0.49993 0.65035
 H16 H 0.00292 0.49899 0.35114
 C17 C 0.48726 0.52272 0.54350
 C18 C 0.48979 0.52294 0.45778
 C19 C 0.50660 0.50502 0.42028
 C20 C 0.52159 0.48723 0.46528
 C21 C 0.51966 0.48707 0.55069
 C22 C 0.50206 0.50437 0.58824
 H23 H 0.50035 0.50410 0.65350
 H24 H 0.50741 0.50441 0.35490
 O25 O 0.38611 0.66684 -0.10085
 O26 O 0.38537 0.72901 -0.07102
 C27 C 0.36024 0.73309 -0.10408
 O28 O 0.32557 0.71259 -0.08572
 O29 O 0.26451 0.64587 -0.05898
 C30 C 0.25986 0.61736 -0.09992
 O31 O 0.27851 0.60155 -0.08723
 O32 O 0.34310 0.60611 -0.06974
 C33 C 0.37062 0.63103 -0.11227
 O34 O 0.39279 0.65767 0.05811
 O35 O 0.38896 0.71806 0.08780
 C36 C 0.37059 0.73353 0.10688
 O37 O 0.33940 0.72444 0.07374
 O38 O 0.27936 0.65674 0.10197
 C39 C 0.26349 0.62111 0.11614
 O40 O 0.26979 0.59922 0.07399
 O41 O 0.33605 0.60759 0.09124
 C42 C 0.37164 0.62767 0.09982
 Cr43 Cr 0.38617 0.69165 -0.00622
 Cr44 Cr 0.30328 0.68389 0.00762
 Cr45 Cr 0.30778 0.60578 0.00199
 O46 O 0.33241 0.66052 0.00107
 O47 O 0.60999 0.34960 -0.05917
 O48 O 0.60688 0.28519 -0.08494
 C49 C 0.62219 0.26631 -0.10095
 O50 O 0.65199 0.27245 -0.06577
 O51 O 0.71529 0.33691 -0.09644
 C52 C 0.73552 0.37277 -0.10900
 O53 O 0.73197 0.39696 -0.06823
 O54 O 0.66925 0.39606 -0.08882
 C55 C 0.63389 0.37875 -0.10036
 O56 O 0.61419 0.33969 0.10168
 O57 O 0.60837 0.27401 0.07480
 C58 C 0.63163 0.26763 0.11003
 O59 O 0.66653 0.28578 0.09301
 O60 O 0.73147 0.34875 0.06232
 C61 C 0.73921 0.37847 0.10273
 O62 O 0.72197 0.39590 0.09251
 O63 O 0.66150 0.39886 0.07181
 C64 C 0.63312 0.37558 0.11456
 Cr65 Cr 0.61194 0.31323 0.00794
 Cr66 Cr 0.69036 0.31206 -0.00155
 Cr67 Cr 0.69500 0.39481 0.00177
 O68 O 0.66570 0.33997 0.00256
 C69 C 0.41486 0.86295 -0.31573
 C70 C 0.40342 0.88938 -0.30827
 C71 C 0.42125 0.92299 -0.35434
 C72 C 0.45000 0.93018 -0.40936
 C73 C 0.46065 0.90289 -0.41404
 N74 N 0.44332 0.87078 -0.36751
 C75 C 0.39876 0.82810 -0.26500
 N76 N 0.42097 0.81418 -0.24568
 C77 C 0.40891 0.78325 -0.19668
 C78 C 0.37234 0.76427 -0.16390
 C79 C 0.34846 0.77730 -0.18534
 C80 C 0.36157 0.80922 -0.23566
 H81 H 0.41180 0.94287 -0.34820
 H82 H 0.48398 0.90782 -0.45165
 H83 H 0.42814 0.77396 -0.18244
 H84 H 0.32000 0.76346 -0.16163
 H85 H 0.38167 0.88477 -0.26591
 H86 H 0.34275 0.81886 -0.25132
 C87 C 0.13730 0.55290 -0.32606
 C88 C 0.10376 0.52081 -0.29743
 C89 C 0.07001 0.50800 -0.33821
 C90 C 0.06973 0.52665 -0.40861
 C91 C 0.10484 0.55690 -0.44132
 N92 N 0.13693 0.57043 -0.39574
 C93 C 0.17170 0.56983 -0.27605
 N94 N 0.19010 0.60776 -0.25613
 C95 C 0.21891 0.62378 -0.20163
 C96 C 0.23055 0.60115 -0.16362
 C97 C 0.21286 0.56233 -0.18579
 C98 C 0.18323 0.54651 -0.24137
 H99 H 0.04421 0.48353 -0.31473
 H100 H 0.10465 0.57847 -0.49906
 H101 H 0.23228 0.65399 -0.18710
 H102 H 0.22103 0.54391 -0.15805
 H103 H 0.10340 0.50678 -0.24175
 H104 H 0.16892 0.51621 -0.25600
 C105 C 0.43824 0.57440 -0.32748
 C106 C 0.46162 0.59376 -0.39384
 C107 C 0.47806 0.57692 -0.43650
 C108 C 0.47104 0.54056 -0.41421
 C109 C 0.44772 0.52254 -0.34667
 N110 N 0.43198 0.53945 -0.30645
 C111 C 0.42001 0.59043 -0.27888
 N112 N 0.38926 0.56578 -0.23377
 C113 C 0.37212 0.57798 -0.18332
 C114 C 0.38636 0.61742 -0.17448
 C115 C 0.41767 0.64342 -0.22147
 C116 C 0.43455 0.63009 -0.27370
 H117 H 0.49721 0.59307 -0.48534
 H118 H 0.44081 0.49433 -0.32734
 H119 H 0.34808 0.55683 -0.14837
 H120 H 0.42978 0.67410 -0.21622
 H121 H 0.46710 0.62141 -0.41332
 H122 H 0.45949 0.65082 -0.30679
 C123 C 0.54914 0.13554 -0.31274
 C124 C 0.51060 0.10721 -0.30568
 C125 C 0.49515 0.07402 -0.35287
 C126 C 0.51774 0.06916 -0.40863
 C127 C 0.55639 0.09821 -0.41267
 N128 N 0.57084 0.12992 -0.36509
 C129 C 0.56736 0.17035 -0.26159
 N130 N 0.60426 0.18630 -0.24050
 C131 C 0.62260 0.21748 -0.19129
 C132 C 0.60368 0.23462 -0.16036
 C133 C 0.56598 0.21941 -0.18357
 C134 C 0.54771 0.18727 -0.23392
 H135 H 0.46527 0.05266 -0.34720
 H136 H 0.57550 0.09518 -0.45148
 H137 H 0.65178 0.22849 -0.17560
 H138 H 0.55032 0.23177 -0.16133
 H139 H 0.49267 0.11013 -0.26295
 H140 H 0.51864 0.17596 -0.25105
 C141 C 0.86305 0.43173 -0.32305
 C142 C 0.86820 0.41053 -0.38277
 C143 C 0.90198 0.42773 -0.42601
 C144 C 0.93035 0.46614 -0.41129
 C145 C 0.92424 0.48636 -0.35136
 N146 N 0.89119 0.46895 -0.30961
 C147 C 0.82818 0.41510 -0.27370
 N148 N 0.82112 0.43942 -0.23275
 C149 C 0.79094 0.42665 -0.18274
 C150 C 0.76586 0.38707 -0.17040
 C151 C 0.77221 0.36144 -0.21300
 C152 C 0.80326 0.37524 -0.26433
 H153 H 0.90589 0.41122 -0.47162
 H154 H 0.94553 0.51608 -0.33852
 H155 H 0.78727 0.44751 -0.15105
 H156 H 0.75384 0.33067 -0.20490
 H157 H 0.84646 0.38125 -0.39723
 H158 H 0.80811 0.35469 -0.29354
 C159 C 0.57356 0.44194 -0.31647
 C160 C 0.57340 0.47373 -0.28661
 C161 C 0.55465 0.48800 -0.32874
 C162 C 0.53695 0.47154 -0.40277
 C163 C 0.53923 0.44020 -0.43399
 N164 N 0.55569 0.42540 -0.38728
 C165 C 0.59101 0.42520 -0.26840
 N166 N 0.57056 0.38718 -0.24892
 C167 C 0.58399 0.37139 -0.19718
 C168 C 0.61991 0.39433 -0.16198
 C169 C 0.64186 0.43325 -0.18386
 C170 C 0.62738 0.44881 -0.23642
 H171 H 0.55552 0.51296 -0.30453
 H172 H 0.51627 0.41873 -0.49151
 H173 H 0.56641 0.34113 -0.18258
 H174 H 0.66967 0.45199 -0.15812
 H175 H 0.58701 0.48693 -0.22981
 H176 H 0.64414 0.47916 -0.25095
 C177 C 0.86809 0.44339 0.31449
 C178 C 0.87345 0.46589 0.38297
 C179 C 0.90626 0.48012 0.42888
 C180 C 0.93376 0.47165 0.40797
 C181 C 0.92751 0.44974 0.33759
 N182 N 0.89523 0.43605 0.29420
 C183 C 0.83361 0.42668 0.26407
 N184 N 0.82414 0.39537 0.21784
 C185 C 0.79364 0.37889 0.16798
 C186 C 0.77073 0.39432 0.16153
 C187 C 0.77984 0.42652 0.20894
 C188 C 0.81118 0.44277 0.26013
 H189 H 0.91032 0.49843 0.47988
 H190 H 0.94738 0.44190 0.31889
 H191 H 0.78787 0.35424 0.13231
 H192 H 0.76317 0.43960 0.20547
 H193 H 0.85247 0.47210 0.40206
 H194 H 0.81818 0.46824 0.29402
 C195 C 0.56917 0.13682 0.32101
 C196 C 0.57984 0.10980 0.31368
 C197 C 0.56159 0.07633 0.35991
 C198 C 0.53308 0.06979 0.41496
 C199 C 0.52290 0.09747 0.41911
 N200 N 0.54075 0.12959 0.37246
 C201 C 0.58688 0.17206 0.27132
 N202 N 0.56573 0.18663 0.24749
 C203 C 0.57971 0.21786 0.19843
 C204 C 0.61712 0.23634 0.17041
 C205 C 0.63979 0.22262 0.19692
 C206 C 0.62480 0.19055 0.24715
 H207 H 0.57074 0.05619 0.35432
 H208 H 0.50000 0.09312 0.45756
 H209 H 0.56134 0.22769 0.18017
 H210 H 0.66884 0.23603 0.17722
 H211 H 0.60156 0.11402 0.27162
 H212 H 0.64274 0.18038 0.26665
 C213 C 0.57800 0.43924 0.34481
 C214 C 0.55773 0.42199 0.41626
 C215 C 0.54065 0.43867 0.45939
 C216 C 0.54153 0.47086 0.42372
 C217 C 0.56392 0.48825 0.35527
 N218 N 0.58112 0.47213 0.31809
 C219 C 0.59420 0.42182 0.29388
 N220 N 0.62272 0.44498 0.24217
 C221 C 0.63659 0.43103 0.18715
 C222 C 0.62083 0.39126 0.17994
 C223 C 0.59183 0.36680 0.23361
 C224 C 0.57852 0.38192 0.29071
 H225 H 0.56750 0.51439 0.33065
 H226 H 0.65901 0.45102 0.14725
 H227 H 0.57880 0.33592 0.23024
 H228 H 0.55414 0.39546 0.43838
 H229 H 0.55509 0.36235 0.32893
 C230 C 0.14058 0.55235 0.34160
 C231 C 0.10772 0.51945 0.31260
 C232 C 0.07331 0.50640 0.35048
 C233 C 0.07148 0.52573 0.41809
 C234 C 0.10584 0.55696 0.45181
 N235 N 0.13866 0.57046 0.40890
 C236 C 0.17574 0.56991 0.29341
 N237 N 0.19658 0.60872 0.28277
 C238 C 0.22591 0.62597 0.22963
 C239 C 0.23518 0.60371 0.18208
 C240 C 0.21522 0.56386 0.19544
 C241 C 0.18564 0.54693 0.25093
 H242 H 0.04811 0.48135 0.32652
 H243 H 0.24094 0.65687 0.22238
 H244 H 0.22161 0.54551 0.16120
 H245 H 0.10818 0.50497 0.25836
 H246 H 0.16999 0.51604 0.25885
 C247 C 0.43745 0.86340 0.32192
 C248 C 0.47677 0.88916 0.32741
 C249 C 0.49110 0.92245 0.37385
 C250 C 0.46644 0.93000 0.41513
 C251 C 0.42741 0.90386 0.40746
 N252 N 0.41409 0.87176 0.36148
 C253 C 0.42052 0.82850 0.27090
 N254 N 0.38499 0.81386 0.24141
 C255 C 0.36801 0.78288 0.19141
 C256 C 0.38708 0.76473 0.16779
 C257 C 0.42324 0.77853 0.19979
 C258 C 0.43999 0.81027 0.25134
 H259 H 0.52138 0.94227 0.37788
 H260 H 0.40756 0.90914 0.43746
 H261 H 0.33996 0.77306 0.16887
 H262 H 0.43893 0.76528 0.18387
 H263 H 0.49633 0.88434 0.29480
 H264 H 0.46779 0.82021 0.27543
 C265 C 0.44249 0.57165 0.30763
 C266 C 0.48080 0.58384 0.29947
 C267 C 0.49597 0.56759 0.34798
 C268 C 0.47321 0.53926 0.40452
 C269 C 0.43485 0.52694 0.40931
 N270 N 0.42065 0.54326 0.36146
 C271 C 0.42494 0.58793 0.25743
 N272 N 0.38695 0.56664 0.24440
 C273 C 0.36908 0.57914 0.19668
 C274 C 0.38979 0.61502 0.15808
 C275 C 0.42879 0.63793 0.17289
 C276 C 0.44638 0.62465 0.22266
 H277 H 0.52560 0.57740 0.34211
 H278 H 0.41635 0.50462 0.45142
 H279 H 0.33891 0.56061 0.18745
 H280 H 0.44586 0.66603 0.14539
 H281 H 0.49889 0.60521 0.25543
 H282 H 0.47638 0.64318 0.23370
   
