data_POSCAR
  _audit_creation_date              2014-09-24
  _audit_creation_method            'ToBaCCo'
  _symmetry_space_group_name_H-M    'P1'
  _symmetry_Int_Tables_number       1
  _symmetry_cell_setting            triclinic
  loop_
  _symmetry_equiv_pos_as_xyz
 x,y,z
_cell_length_a 37.7372
_cell_length_b 16.3668
_cell_length_c 14.8438
_cell_angle_alpha 88.826200
_cell_angle_beta 90.227900
_cell_angle_gamma 87.136700
loop_
  _atom_site_label
  _atom_site_type_symbol
  _atom_site_fract_x
  _atom_site_fract_y
  _atom_site_fract_z
C1 C 0.65682 0.25511 0.49910
 C2 C 0.67382 0.25184 0.58354
 C3 C 0.71108 0.25083 0.58640
 C4 C 0.73156 0.25519 0.50697
 C5 C 0.71342 0.26027 0.42346
 C6 C 0.67635 0.25760 0.41892
 C7 C 0.77150 0.25335 0.51122
 C8 C 0.79231 0.22917 0.43611
 C9 C 0.82970 0.22509 0.44016
 C10 C 0.84611 0.24117 0.52246
 C11 C 0.82622 0.25950 0.59882
 C12 C 0.78937 0.26966 0.59235
 H13 H 0.62808 0.25943 0.49545
 H14 H 0.72363 0.24328 0.65167
 H15 H 0.72774 0.26684 0.36107
 H16 H 0.77981 0.20781 0.37601
 H17 H 0.87475 0.23456 0.52925
 H18 H 0.77524 0.28644 0.65278
 C19 C 0.15498 0.75401 0.46149
 C20 C 0.17076 0.76999 0.54548
 C21 C 0.20814 0.77102 0.54963
 C22 C 0.22928 0.75241 0.47383
 C23 C 0.21235 0.73734 0.39145
 C24 C 0.17546 0.74033 0.38406
 C25 C 0.26890 0.74589 0.48009
 C26 C 0.28961 0.75863 0.40250
 C27 C 0.32523 0.73040 0.40015
 C28 C 0.34159 0.70258 0.48038
 C29 C 0.32306 0.70076 0.56215
 C30 C 0.28621 0.71869 0.56064
 H31 H 0.12637 0.75453 0.45507
 H32 H 0.22078 0.78994 0.61083
 H33 H 0.22752 0.72304 0.33178
 H34 H 0.27772 0.78629 0.34207
 H35 H 0.36953 0.68375 0.47938
 H36 H 0.27108 0.70723 0.62102
 C37 C 0.33127 0.35157 -0.48893
 C38 C 0.31679 0.33436 -0.57275
 C39 C 0.28370 0.29844 -0.57620
 C40 C 0.26531 0.27816 -0.49612
 C41 C 0.28271 0.28953 -0.41293
 C42 C 0.31512 0.32691 -0.40975
 C43 C 0.22878 0.24441 -0.49841
 C44 C 0.20800 0.24071 -0.41899
 C45 C 0.17468 0.20613 -0.41834
 C46 C 0.16016 0.18402 -0.50092
 C47 C 0.17972 0.18703 -0.58065
 C48 C 0.21403 0.21573 -0.57915
 H49 H 0.35657 0.38008 -0.48510
 H50 H 0.27320 0.28565 -0.64167
 H51 H 0.27211 0.26856 -0.34966
 H52 H 0.21670 0.26652 -0.35690
 H53 H 0.13424 0.15827 -0.50273
 H54 H 0.22887 0.21275 -0.64099
 C55 C -0.16760 0.84899 -0.50317
 C56 C -0.18000 0.82231 -0.58610
 C57 C -0.21253 0.78373 -0.58792
 C58 C -0.23344 0.77559 -0.50934
 C59 C -0.21897 0.80061 -0.42657
 C60 C -0.18575 0.83482 -0.42331
 C61 C -0.26940 0.73909 -0.51359
 C62 C -0.28666 0.71266 -0.43432
 C63 C -0.32075 0.68284 -0.43778
 C64 C -0.33717 0.67337 -0.52095
 C65 C -0.32053 0.69637 -0.60074
 C66 C -0.28732 0.73104 -0.59699
 H67 H -0.14257 0.87866 -0.49953
 H68 H -0.22016 0.75607 -0.64997
 H69 H -0.23250 0.79281 -0.36348
 H70 H -0.27433 0.71426 -0.36881
 H71 H -0.36314 0.64793 -0.52367
 H72 H -0.27610 0.75112 -0.65992
 O73 O -0.04776 0.84134 0.14671
 O74 O -0.08728 0.93526 0.08068
 C75 C -0.07958 0.87398 0.13525
 O76 O 0.05653 1.10120 0.17515
 O77 O 0.09284 1.03150 0.07581
 C78 C 0.08755 1.07635 0.14639
 O79 O -0.04214 1.11062 0.19407
 O80 O -0.08485 1.06676 0.09839
 C81 C -0.07496 1.10249 0.17070
 O82 O 0.05061 0.81488 0.12319
 O83 O 0.08997 0.89312 0.04741
 C84 C 0.08263 0.83174 0.10024
 Zr85 Zr 0.00114 0.87511 0.09157
 O86 O 0.00752 0.84704 0.23072
 O87 O -0.00555 0.75013 0.06530
 Zr88 Zr 0.00534 1.07881 0.12531
 O89 O 0.01010 1.07107 0.26715
 O90 O 0.00379 1.20807 0.13257
 O91 O -0.02756 0.98034 0.13064
 O92 O 0.03389 0.96798 0.12046
 O93 O 0.04432 0.86733 -0.19148
 O94 O 0.08738 0.92031 -0.10277
 C95 C 0.07723 0.87902 -0.17139
 O96 O -0.04844 1.16792 -0.14075
 O97 O -0.08755 1.08975 -0.06345
 C98 C -0.08023 1.14789 -0.12035
 O99 O 0.04950 1.15505 -0.14222
 O100 O 0.08923 1.05900 -0.08136
 C101 C 0.08146 1.12340 -0.13187
 O102 O -0.05528 0.88916 -0.17848
 O103 O -0.09138 0.95510 -0.07720
 C104 C -0.08658 0.91070 -0.14776
 Zr105 Zr -0.00358 0.91054 -0.13105
 O106 O -0.00410 0.92887 -0.27267
 O107 O -0.00898 0.78349 -0.14739
 Zr108 Zr 0.00063 1.11413 -0.09643
 O109 O 0.00105 1.14479 -0.23543
 O110 O -0.00070 1.23976 -0.06422
 Zr111 Zr -0.05221 1.00487 0.00436
 Zr112 Zr 0.05410 0.98357 -0.01030
 O113 O 0.02859 1.00898 -0.13497
 O114 O -0.03319 1.02120 -0.12770
 O115 O 0.03049 0.87064 -0.02693
 O116 O -0.02831 1.11704 0.02107
 O117 O -0.03265 0.88438 -0.01749
 O118 O 0.03569 1.10532 0.01257
 H119 H 0.04981 0.95530 0.17199
 H120 H -0.04412 1.16628 0.03058
 H121 H 0.04265 1.01482 -0.19074
 H122 H -0.04971 0.84047 -0.02152
 H123 H 0.02788 1.22631 0.11936
 H124 H 0.02277 1.25171 -0.03910
 H125 H -0.01081 1.10091 -0.26674
 H126 H -0.02376 0.96920 -0.28764
 H127 H 0.01351 0.75475 -0.12775
 H128 H 0.01429 0.73107 0.02645
 H129 H -0.00796 0.88666 0.26370
 H130 H 0.01258 1.01229 0.28361
 O131 O 0.45124 0.36914 0.17080
 O132 O 0.41318 0.45196 0.08606
 C133 C 0.41957 0.39846 0.15031
 O134 O 0.55697 0.63641 0.13721
 O135 O 0.59329 0.54401 0.06190
 C136 C 0.58792 0.60419 0.11704
 O137 O 0.45791 0.65653 0.14788
 O138 O 0.41634 0.58632 0.07346
 C139 C 0.42515 0.64156 0.12920
 O140 O 0.54959 0.33689 0.15808
 O141 O 0.58985 0.40104 0.06969
 C142 C 0.58182 0.34875 0.13247
 Zr143 Zr 0.50093 0.39511 0.11531
 O144 O 0.50674 0.40264 0.25684
 O145 O 0.49357 0.26820 0.12848
 Zr146 Zr 0.50613 0.60091 0.09971
 O147 O 0.51127 0.60423 0.24169
 O148 O 0.50606 0.73012 0.09006
 O149 O 0.47229 0.50685 0.12790
 O150 O 0.53453 0.49053 0.12213
 O151 O 0.54543 0.32906 -0.15846
 O152 O 0.58787 0.39541 -0.08168
 C153 C 0.57830 0.34162 -0.13916
 O154 O 0.45428 0.62654 -0.18746
 O155 O 0.41445 0.57810 -0.08569
 C156 C 0.42221 0.61605 -0.15967
 O157 O 0.55379 0.61930 -0.17779
 O158 O 0.59198 0.53457 -0.09365
 C159 C 0.58526 0.58923 -0.15666
 O160 O 0.44560 0.36486 -0.15869
 O161 O 0.41027 0.44771 -0.07141
 C162 C 0.41458 0.39560 -0.13471
 Zr163 Zr 0.49760 0.38579 -0.11065
 O164 O 0.49846 0.37284 -0.25217
 O165 O 0.48994 0.25904 -0.09518
 Zr166 Zr 0.50351 0.59177 -0.12544
 O167 O 0.50553 0.60205 -0.26742
 O168 O 0.50150 0.72130 -0.12239
 Zr169 Zr 0.44936 0.50702 -0.00157
 Zr170 Zr 0.55508 0.47894 -0.00888
 O171 O 0.53083 0.47998 -0.13697
 O172 O 0.46938 0.49603 -0.13363
 O173 O 0.53063 0.36594 0.00128
 O174 O 0.47396 0.61927 -0.01274
 O175 O 0.46790 0.38365 0.00538
 O176 O 0.53733 0.60343 -0.01610
 H177 H 0.55110 0.48800 0.17415
 H178 H 0.45847 0.66993 -0.01710
 H179 H 0.54554 0.47377 -0.19177
 H180 H 0.45032 0.34070 0.00918
 H181 H 0.52467 0.74423 0.04653
 H182 H 0.52584 0.73835 -0.11059
 H183 H 0.50341 0.54627 -0.29039
 H184 H 0.48334 0.41844 -0.27849
 H185 H 0.51183 0.23355 -0.06787
 H186 H 0.50906 0.24071 0.08370
 H187 H 0.48718 0.43937 0.27888
 H188 H 0.49004 0.58015 0.26810
 C189 C 0.39923 0.32678 0.28724
 C190 C 0.37457 0.31216 0.35350
 C191 C 0.33954 0.34437 0.34636
 C192 C 0.32842 0.38472 0.26480
 C193 C 0.35312 0.39337 0.19317
 C194 C 0.38978 0.37107 0.20808
 C195 C 0.33979 0.42223 0.10917
 N196 N 0.30517 0.44745 0.10019
 N197 N 0.28300 0.44680 0.16967
 C198 C 0.29357 0.41747 0.25197
 H199 H 0.42639 0.30524 0.30050
 H200 H 0.38353 0.27804 0.41340
 H201 H 0.35584 0.42151 0.04947
 H202 H 0.27450 0.41965 0.30594
 C203 C -0.09703 0.81608 0.28155
 C204 C -0.12131 0.80673 0.35009
 C205 C -0.15772 0.82723 0.33741
 C206 C -0.16965 0.85250 0.24929
 C207 C -0.14468 0.85718 0.17777
 C208 C -0.10781 0.84479 0.19590
 C209 C -0.15755 0.87469 0.09028
 N210 N -0.19243 0.89499 0.07660
 N211 N -0.21526 0.89876 0.14465
 C212 C -0.20506 0.87913 0.23041
 H213 H -0.06919 0.80453 0.29773
 H214 H -0.11114 0.78388 0.41469
 H215 H -0.14031 0.87060 0.03253
 H216 H -0.22470 0.88616 0.28261
 C217 C 0.63616 0.57313 0.22457
 C218 C 0.65812 0.59551 0.29418
 C219 C 0.66236 0.67804 0.31247
 C220 C 0.64608 0.73910 0.25474
 C221 C 0.62402 0.71584 0.18273
 C222 C 0.61815 0.63202 0.16975
 C223 C 0.60783 0.77759 0.12730
 N224 N 0.61305 0.85731 0.14390
 N225 N 0.63322 0.87922 0.21231
 C226 C 0.64978 0.82295 0.26851
 H227 H 0.63037 0.50966 0.21944
 H228 H 0.67000 0.54795 0.33820
 H229 H 0.59139 0.76303 0.07054
 H230 H 0.66569 0.84430 0.32314
 C231 C 0.13092 1.17514 0.19810
 C232 C 0.15375 1.20259 0.26451
 C233 C 0.16456 1.15126 0.33743
 C234 C 0.15443 1.06936 0.33963
 C235 C 0.13020 1.04263 0.27484
 C236 C 0.11812 1.09612 0.20356
 C237 C 0.11742 0.96417 0.28683
 N238 N 0.12888 0.91565 0.35703
 N239 N 0.15296 0.93945 0.41527
 C240 C 0.16649 1.01417 0.40834
 H241 H 0.12134 1.21753 0.14543
 H242 H 0.16098 1.26582 0.26233
 H243 H 0.09894 0.94019 0.24075
 H244 H 0.18614 1.03018 0.45733
 C245 C 0.63937 0.33444 -0.20174
 C246 C 0.66262 0.31360 -0.27124
 C247 C 0.65367 0.25656 -0.33612
 C248 C 0.62329 0.21021 -0.32054
 C249 C 0.60011 0.22995 -0.24791
 C250 C 0.60653 0.29833 -0.19344
 C251 C 0.57193 0.17865 -0.23082
 N252 N 0.56686 0.11387 -0.28399
 N253 N 0.58837 0.09583 -0.35230
 C254 C 0.61652 0.14113 -0.37180
 H255 H 0.64602 0.38432 -0.15894
 H256 H 0.68602 0.34876 -0.27922
 H257 H 0.55487 0.18663 -0.17334
 H258 H 0.63407 0.12086 -0.42502
 C259 C 0.09669 0.87155 -0.32782
 C260 C 0.11859 0.84397 -0.39662
 C261 C 0.14907 0.79264 -0.37959
 C262 C 0.15642 0.76769 -0.28792
 C263 C 0.13404 0.79779 -0.21715
 C264 C 0.10384 0.84965 -0.23796
 C265 C 0.14157 0.77126 -0.12819
 N266 N 0.16903 0.71662 -0.11101
 N267 N 0.18904 0.68573 -0.17690
 C268 C 0.18341 0.70828 -0.26440
 H269 H 0.07376 0.91138 -0.34529
 H270 H 0.11183 0.86608 -0.46393
 H271 H 0.12553 0.79201 -0.07229
 H272 H 0.19938 0.67711 -0.31444
 C273 C 0.39083 0.58911 -0.29796
 C274 C 0.36558 0.60724 -0.36404
 C275 C 0.34195 0.67627 -0.35865
 C276 C 0.34244 0.72419 -0.27916
 C277 C 0.36822 0.70412 -0.21079
 C278 C 0.39312 0.63797 -0.22263
 C279 C 0.36944 0.75345 -0.13469
 N280 N 0.34643 0.81918 -0.12743
 N281 N 0.32279 0.83946 -0.19188
 C282 C 0.32029 0.79515 -0.26769
 H283 H 0.40917 0.53669 -0.30634
 H284 H 0.36519 0.56782 -0.42185
 H285 H 0.38876 0.74093 -0.08152
 H286 H 0.30133 0.81712 -0.31807
 C287 C -0.13076 1.13229 -0.21915
 C288 C -0.15443 1.15961 -0.28588
 C289 C -0.15654 1.24191 -0.31326
 C290 C -0.13642 1.29872 -0.26732
 C291 C -0.11305 1.27084 -0.19664
 C292 C -0.10960 1.18616 -0.17450
 C293 C -0.09347 1.32864 -0.15206
 N294 N -0.09683 1.40871 -0.17783
 N295 N -0.11834 1.43457 -0.24509
 C296 C -0.13818 1.38222 -0.29095
 H297 H -0.12620 1.06739 -0.20875
 H298 H -0.16871 1.11481 -0.32247
 H299 H -0.07587 1.31098 -0.09656
 H300 H -0.15540 1.40618 -0.34474
 C301 C 0.63038 0.55593 -0.27043
 C302 C 0.65285 0.57867 -0.33968
 C303 C 0.66012 0.66093 -0.35457
 C304 C 0.64582 0.72096 -0.29543
 C305 C 0.62317 0.69744 -0.22445
 C306 C 0.61465 0.61462 -0.21398
 C307 C 0.60932 0.75803 -0.16684
 N308 N 0.61721 0.83721 -0.18078
 N309 N 0.63784 0.85969 -0.24859
 C310 C 0.65226 0.80448 -0.30660
 H311 H 0.62330 0.49282 -0.26485
 H312 H 0.66336 0.53219 -0.38467
 H313 H 0.59259 0.74294 -0.11050
 H314 H 0.66852 0.82654 -0.36078
 C315 C 0.09657 1.20112 -0.26941
 C316 C 0.11884 1.21873 -0.34026
 C317 C 0.15504 1.19489 -0.33793
 C318 C 0.16920 1.15654 -0.25699
 C319 C 0.14622 1.14114 -0.18271
 C320 C 0.10907 1.15841 -0.19163
 C321 C 0.16137 1.10824 -0.10234
 N322 N 0.19637 1.08557 -0.09879
 N323 N 0.21723 1.09338 -0.17016
 C324 C 0.20486 1.12710 -0.24906
 H325 H 0.06865 1.21759 -0.27883
 H326 H 0.10722 1.25045 -0.39891
 H327 H 0.14606 1.10196 -0.04157
 H328 H 0.22310 1.12889 -0.30464
 C329 C 0.38731 0.30101 -0.23840
 C330 C 0.36343 0.28408 -0.30588
 C331 C 0.33409 0.33703 -0.32420
 C332 C 0.32671 0.40454 -0.26855
 C333 C 0.35043 0.42136 -0.19724
 C334 C 0.38280 0.37169 -0.18663
 C335 C 0.34078 0.48857 -0.14248
 N336 N 0.31105 0.53606 -0.16084
 N337 N 0.28984 0.52145 -0.22973
 C338 C 0.29664 0.45736 -0.28416
 H339 H 0.41074 0.26044 -0.23039
 H340 H 0.36912 0.23185 -0.34815
 H341 H 0.35540 0.50434 -0.08404
 H342 H 0.27831 0.44792 -0.33872
 C343 C -0.10989 0.81952 -0.26137
 C344 C -0.13364 0.80154 -0.32839
 C345 C -0.16629 0.84508 -0.33745
 C346 C -0.17707 0.90059 -0.26977
 C347 C -0.15336 0.91636 -0.19757
 C348 C -0.11775 0.88131 -0.19912
 C349 C -0.16638 0.96804 -0.12903
 N350 N -0.19941 1.00440 -0.13550
 N351 N -0.22057 0.99281 -0.20546
 C352 C -0.21044 0.94268 -0.27308
 H353 H -0.08414 0.78722 -0.26192
 H354 H -0.12539 0.75655 -0.37769
 H355 H -0.15111 0.98118 -0.07045
 H356 H -0.22871 0.93593 -0.32829
 C357 C 0.40577 0.73222 0.25353
 C358 C 0.38103 0.75387 0.31893
 C359 C 0.34636 0.72662 0.31542
 C360 C 0.33503 0.68843 0.23565
 C361 C 0.35954 0.67465 0.16437
 C362 C 0.39623 0.68666 0.17908
 C363 C 0.34630 0.64866 0.08143
 N364 N 0.31184 0.63048 0.07345
 N365 N 0.28989 0.63472 0.14325
 C366 C 0.30051 0.66107 0.22447
 H367 H 0.43310 0.74670 0.26497
 H368 H 0.38999 0.78622 0.37707
 H369 H 0.36247 0.64522 0.02191
 H370 H 0.28170 0.65980 0.27856
 C371 C -0.09884 1.10630 0.32314
 C372 C -0.12180 1.13608 0.38857
 C373 C -0.14925 1.19514 0.36791
 C374 C -0.15360 1.22272 0.27636
 C375 C -0.13032 1.19039 0.20897
 C376 C -0.10242 1.13295 0.23364
 C377 C -0.13456 1.22024 0.11980
 N378 N -0.15990 1.27940 0.09971
 N379 N -0.18089 1.31170 0.16287
 C380 C -0.17833 1.28636 0.25028
 H381 H -0.07785 1.06176 0.34283
 H382 H -0.11819 1.11127 0.45642
 H383 H -0.11764 1.19848 0.06599
 H384 H -0.19503 1.31815 0.29833
 C385 C 0.64282 0.34569 0.19600
 C386 C 0.66503 0.32677 0.26960
 C387 C 0.65730 0.26367 0.33070
 C388 C 0.62965 0.21169 0.30907
 C389 C 0.60647 0.23271 0.23581
 C390 C 0.61119 0.30552 0.18462
 C391 C 0.57987 0.17886 0.21502
 N392 N 0.57649 0.10957 0.26526
 N393 N 0.59811 0.09013 0.33435
 C394 C 0.62465 0.13852 0.35765
 H395 H 0.64895 0.39659 0.15219
 H396 H 0.68698 0.36530 0.28195
 H397 H 0.56272 0.18938 0.15719
 H398 H 0.64219 0.11825 0.41221
 C399 C 0.14500 0.82049 0.15645
 C400 C 0.16757 0.79895 0.22886
 C401 C 0.15804 0.74033 0.29365
 C402 C 0.12901 0.69192 0.27506
 C403 C 0.10662 0.71216 0.19997
 C404 C 0.11240 0.78363 0.14681
 C405 C 0.07904 0.66020 0.18137
 N406 N 0.07363 0.59476 0.23627
 N407 N 0.09410 0.57729 0.30808
 C408 C 0.12163 0.62354 0.32927
 H409 H 0.15113 0.87313 0.11501
 H410 H 0.19032 0.83535 0.24011
 H411 H 0.06252 0.66927 0.12213
 H412 H 0.13800 0.60545 0.38700
   
