data_POSCAR
  _audit_creation_date              2014-09-24
  _audit_creation_method            'ToBaCCo'
  _symmetry_space_group_name_H-M    'P1'
  _symmetry_Int_Tables_number       1
  _symmetry_cell_setting            triclinic
  loop_
  _symmetry_equiv_pos_as_xyz
 x,y,z
_cell_length_a 67.2352
_cell_length_b 67.3008
_cell_length_c 20.1131
_cell_angle_alpha 89.955300
_cell_angle_beta 90.020300
_cell_angle_gamma 119.884900
loop_
  _atom_site_label
  _atom_site_type_symbol
  _atom_site_fract_x
  _atom_site_fract_y
  _atom_site_fract_z
C1 C 0.22860 0.49406 0.46364
 C2 C 0.23183 0.50014 0.53243
 C3 C 0.25238 0.50425 0.56359
 C4 C 0.26879 0.50055 0.53056
 C5 C 0.26478 0.49371 0.46273
 C6 C 0.24465 0.48988 0.43131
 H7 H 0.24261 0.48560 0.37879
 H8 H 0.25478 0.50871 0.61586
 C9 C 0.50026 -0.26883 0.46492
 C10 C 0.50093 -0.26752 0.53566
 C11 C 0.50075 -0.24914 0.56774
 C12 C 0.50105 -0.23087 0.53245
 C13 C 0.50160 -0.23157 0.46167
 C14 C 0.50068 -0.25052 0.42957
 H15 H 0.50064 -0.25060 0.37565
 H16 H 0.50083 -0.24909 0.62165
 C17 C 1.27040 0.76767 0.46595
 C18 C 1.26838 0.76902 0.53626
 C19 C 1.24971 0.75145 0.57005
 C20 C 1.23274 0.73237 0.53651
 C21 C 1.23417 0.73069 0.46690
 C22 C 1.25311 0.74810 0.43280
 H23 H 1.25379 0.74663 0.37932
 H24 H 1.24857 0.75245 0.62366
 C25 C 0.76951 0.50253 0.46653
 C26 C 0.77158 0.50590 0.53678
 C27 C 0.75400 0.50759 0.57029
 C28 C 0.73411 0.50454 0.53773
 C29 C 0.73216 0.50055 0.46808
 C30 C 0.74970 0.49934 0.43403
 H31 H 0.74849 0.49715 0.38045
 H32 H 0.75521 0.51022 0.62359
 C33 C 0.50166 0.26899 0.46522
 C34 C 0.49838 0.26752 0.53519
 C35 C 0.49589 0.24797 0.56862
 C36 C 0.49751 0.23033 0.53543
 C37 C 0.50029 0.23200 0.46495
 C38 C 0.50288 0.25143 0.43166
 H39 H 0.50459 0.25226 0.37793
 H40 H 0.49378 0.24711 0.62213
 C41 C 0.73269 0.23236 0.46290
 C42 C 0.73180 0.23320 0.53296
 C43 C 0.74936 0.25210 0.56674
 C44 C 0.76832 0.26996 0.53291
 C45 C 0.76886 0.26854 0.46212
 C46 C 0.75095 0.25007 0.42858
 H47 H 0.75138 0.24931 0.37472
 H48 H 0.74838 0.25242 0.62047
 O49 O 1.03268 0.54876 0.12717
 O50 O 1.05795 0.54444 0.06029
 C51 C 1.05329 0.55410 0.10896
 O52 O 0.96794 0.44649 0.10961
 O53 O 0.94283 0.45407 0.05279
 C54 C 0.94739 0.44196 0.09366
 O55 O 1.03196 0.47941 0.11679
 O56 O 1.05746 0.51107 0.05731
 C57 C 1.05260 0.49522 0.10126
 O58 O 0.96850 0.51962 0.11874
 O59 O 0.94297 0.48857 0.05698
 C60 C 0.94781 0.50436 0.10127
 Zr61 Zr 1.00061 0.52446 0.08619
 O62 O 0.99857 0.52317 0.19120
 O63 O 1.00215 0.55658 0.08299
 Zr64 Zr 1.00017 0.47413 0.08024
 O65 O 0.99907 0.47457 0.18522
 O66 O 1.00197 0.44361 0.07943
 O67 O 1.02085 0.50915 0.09622
 O68 O 0.98036 0.48932 0.09533
 O69 O 0.96923 0.52246 -0.11290
 O70 O 0.94345 0.49054 -0.05461
 C71 C 0.94851 0.50698 -0.09681
 O72 O 1.03234 0.48283 -0.12661
 O73 O 1.05780 0.51218 -0.05982
 C74 C 1.05301 0.49770 -0.10799
 O75 O 0.96815 0.44991 -0.12281
 O76 O 0.94298 0.45543 -0.05924
 C77 C 0.94758 0.44472 -0.10489
 O78 O 1.03341 0.55240 -0.11609
 O79 O 1.05849 0.54548 -0.05635
 C80 C 1.05394 0.55676 -0.10032
 Zr81 Zr 1.00098 0.52655 -0.08090
 O82 O 0.99892 0.52684 -0.18592
 O83 O 1.00325 0.55902 -0.07549
 Zr84 Zr 1.00030 0.47604 -0.08735
 O85 O 0.99811 0.47557 -0.19237
 O86 O 1.00239 0.44565 -0.08816
 Zr87 Zr 1.03481 0.51707 -0.00033
 Zr88 Zr 0.96619 0.48348 -0.00073
 O89 O 0.98073 0.49172 -0.09649
 O90 O 1.02110 0.51145 -0.09725
 O91 O 0.98026 0.51929 0.00292
 O92 O 1.02022 0.48124 -0.00386
 O93 O 1.02095 0.53899 0.00343
 O94 O 0.97964 0.46110 -0.00425
 H95 H 0.96999 0.48383 0.13436
 H96 H 1.03044 0.47457 -0.00512
 H97 H 0.97058 0.48724 -0.13594
 H98 H 1.03151 0.55578 0.00516
 H99 H 0.99079 0.43331 0.04605
 H100 H 0.98825 0.43337 -0.06734
 H101 H 1.01000 0.49079 -0.20854
 H102 H 1.01185 0.52545 -0.20405
 H103 H 0.99185 0.55782 -0.04227
 H104 H 1.00209 0.56105 0.12989
 H105 H 1.00739 0.51588 0.20659
 H106 H 0.99871 0.46038 0.20040
 O107 O 0.44724 0.47877 0.11369
 O108 O 0.45360 0.51066 0.05475
 C109 C 0.44242 0.49463 0.09819
 O110 O 0.55022 0.51779 0.12080
 O111 O 0.54506 0.48728 0.05719
 C112 C 0.55570 0.50264 0.10268
 O113 O 0.51552 0.54723 0.12867
 O114 O 0.48681 0.54399 0.05980
 C115 C 0.50069 0.55309 0.10959
 O116 O 0.47776 0.44523 0.10691
 O117 O 0.51044 0.45261 0.05053
 C118 C 0.49371 0.44056 0.09122
 Zr119 Zr 0.47334 0.47292 0.07667
 O120 O 0.47153 0.46933 0.18136
 O121 O 0.44179 0.44231 0.06304
 Zr122 Zr 0.52320 0.52287 0.08754
 O123 O 0.52003 0.51824 0.19174
 O124 O 0.55315 0.55535 0.09672
 O125 O 0.48776 0.50791 0.09506
 O126 O 0.50815 0.48769 0.09406
 O127 O 0.48103 0.44884 -0.12248
 O128 O 0.51252 0.45487 -0.06183
 C129 C 0.49674 0.44388 -0.10597
 O130 O 0.52056 0.55240 -0.11576
 O131 O 0.48872 0.54594 -0.05641
 C132 C 0.50470 0.55718 -0.09990
 O133 O 0.55439 0.52192 -0.10933
 O134 O 0.54653 0.48872 -0.05526
 C135 C 0.55876 0.50565 -0.09498
 O136 O 0.45157 0.48367 -0.13018
 O137 O 0.45538 0.51275 -0.06220
 C138 C 0.44598 0.49870 -0.11145
 Zr139 Zr 0.47629 0.47618 -0.09021
 O140 O 0.47970 0.47686 -0.19496
 O141 O 0.44375 0.44616 -0.09645
 Zr142 Zr 0.52644 0.52620 -0.07981
 O143 O 0.52978 0.52704 -0.18458
 O144 O 0.55639 0.55876 -0.07203
 Zr145 Zr 0.48264 0.51678 -0.00133
 Zr146 Zr 0.51707 0.48245 -0.00190
 O147 O 0.51152 0.49143 -0.09758
 O148 O 0.49136 0.51169 -0.09807
 O149 O 0.48131 0.46045 -0.00766
 O150 O 0.51843 0.53819 0.00477
 O151 O 0.46112 0.48103 -0.00723
 O152 O 0.53903 0.51820 0.00453
 H153 H 0.51265 0.48185 0.13313
 H154 H 0.52490 0.55500 0.00745
 H155 H 0.51728 0.48693 -0.13682
 H156 H 0.44429 0.47462 -0.00948
 H157 H 0.56489 0.55539 0.06707
 H158 H 0.56776 0.55684 -0.04576
 H159 H 0.51544 0.52528 -0.20373
 H160 H 0.48161 0.49162 -0.21084
 H161 H 0.44345 0.43532 -0.06263
 H162 H 0.43592 0.43639 0.10820
 H163 H 0.47797 0.48492 0.20019
 H164 H 0.53350 0.53177 0.21127
 O165 O 0.48295 0.03137 0.12733
 O166 O 0.51259 0.05703 0.06151
 C167 C 0.49797 0.05207 0.10949
 O168 O 0.52269 -0.03199 0.10926
 O169 O 0.49028 -0.05737 0.05225
 C170 C 0.50699 -0.05261 0.09314
 O171 O 0.55230 0.03200 0.11757
 O172 O 0.54595 0.05733 0.05743
 C173 C 0.55695 0.05260 0.10190
 O174 O 0.44983 -0.03259 0.12104
 O175 O 0.45539 -0.05765 0.05697
 C176 C 0.44462 -0.05312 0.10269
 Zr177 Zr 0.47623 -0.00044 0.08681
 O178 O 0.47582 -0.00223 0.19186
 O179 O 0.44509 0.00012 0.08367
 Zr180 Zr 0.52658 0.00005 0.08005
 O181 O 0.52524 -0.00134 0.18504
 O182 O 0.55926 0.00263 0.07814
 O183 O 0.51163 0.02025 0.09667
 O184 O 0.49173 -0.02023 0.09525
 O185 O 0.44667 -0.03211 -0.11061
 O186 O 0.45425 -0.05743 -0.05498
 C187 C 0.44215 -0.05271 -0.09547
 O188 O 0.54937 0.03264 -0.12656
 O189 O 0.54482 0.05771 -0.05963
 C190 C 0.55465 0.05317 -0.10806
 O191 O 0.51938 -0.03140 -0.12351
 O192 O 0.48911 -0.05706 -0.05965
 C193 C 0.50438 -0.05209 -0.10568
 O194 O 0.48064 0.03192 -0.11826
 O195 O 0.51124 0.05739 -0.05509
 C196 C 0.49595 0.05255 -0.10100
 Zr197 Zr 0.47426 -0.00006 -0.08015
 O198 O 0.47094 -0.00265 -0.18490
 O199 O 0.44401 0.00215 -0.07296
 Zr200 Zr 0.52471 0.00045 -0.08739
 O201 O 0.52295 -0.00166 -0.19244
 O202 O 0.55748 0.00317 -0.08864
 Zr203 Zr 0.51735 0.03435 0.00033
 Zr204 Zr 0.48362 -0.03432 -0.00088
 O205 O 0.48953 -0.01968 -0.09645
 O206 O 0.50938 0.02065 -0.09664
 O207 O 0.46128 -0.02087 0.00359
 O208 O 0.53915 0.02032 -0.00380
 O209 O 0.48149 0.01985 0.00418
 O210 O 0.51950 -0.02025 -0.00467
 H211 H 0.48717 -0.03058 0.13429
 H212 H 0.55596 0.03079 -0.00509
 H213 H 0.48396 -0.02980 -0.13596
 H214 H 0.47494 0.03016 0.00577
 H215 H 0.55847 -0.00879 0.04573
 H216 H 0.55597 -0.01086 -0.06797
 H217 H 0.51997 0.01048 -0.20867
 H218 H 0.48575 0.00903 -0.20403
 H219 H 0.43367 -0.00979 -0.04120
 H220 H 0.44056 0.00006 0.13058
 H221 H 0.49194 0.00683 0.20684
 H222 H 0.53932 -0.00132 0.19977
 C223 C 1.17891 0.49572 0.34707
 N224 N 1.18833 0.51038 0.39888
 N225 N 1.20424 0.50972 0.43676
 C226 C 1.21143 0.49444 0.42427
 N227 N 1.20248 0.48033 0.37084
 N228 N 1.18631 0.48073 0.33354
 C229 C 1.16070 0.49582 0.30730
 N230 N 1.14498 0.47657 0.27547
 N231 N 1.12790 0.47642 0.24144
 C232 C 1.12615 0.49562 0.23726
 N233 N 1.14202 0.51495 0.26849
 N234 N 1.15889 0.51499 0.30336
 C235 C 1.10718 0.49541 0.20078
 N236 N 1.10936 0.51512 0.17562
 N237 N 1.09202 0.51498 0.14317
 C238 C 1.07178 0.49520 0.13570
 N239 N 1.06954 0.47551 0.16120
 N240 N 1.08700 0.47559 0.19277
 C241 C 0.49713 0.67689 0.35835
 N242 N 0.49790 0.67704 0.42565
 N243 N 0.49865 0.69432 0.45983
 C244 C 0.49898 0.71241 0.42865
 N245 N 0.49799 0.71199 0.36095
 N246 N 0.49703 0.69462 0.32653
 C247 C 0.49697 0.65809 0.32097
 N248 N 0.49161 0.65510 0.25527
 N249 N 0.49176 0.63812 0.22158
 C250 C 0.49750 0.62369 0.25223
 N251 N 0.50291 0.62674 0.31784
 N252 N 0.50255 0.64356 0.35164
 C253 C 0.49815 0.60525 0.21512
 N254 N 0.50891 0.59448 0.24103
 N255 N 0.50978 0.57791 0.20728
 C256 C 0.49971 0.57134 0.14667
 N257 N 0.48882 0.58202 0.12089
 N258 N 0.48815 0.59876 0.15437
 C259 C 0.32259 -0.18096 0.35439
 N260 N 0.30730 -0.20112 0.32575
 N261 N 0.29064 -0.21768 0.36182
 C262 C 0.28861 -0.21490 0.42812
 N263 N 0.30421 -0.19472 0.45621
 N264 N 0.32075 -0.17810 0.42031
 C265 C 0.34055 -0.16222 0.31506
 N266 N 0.35252 -0.14088 0.34144
 N267 N 0.36869 -0.12366 0.30620
 C268 C 0.37363 -0.12716 0.24338
 N269 N 0.36174 -0.14853 0.21694
 N270 N 0.34540 -0.16575 0.25207
 C271 C 0.39165 -0.10802 0.20533
 N272 N 0.40012 -0.11174 0.14832
 N273 N 0.41692 -0.09425 0.11519
 C274 C 0.42567 -0.07243 0.13759
 N275 N 0.41705 -0.06874 0.19426
 N276 N 0.40042 -0.08621 0.22761
 C277 C 0.82138 0.50469 0.34591
 N278 N 0.80019 0.48575 0.34717
 N279 N 0.78367 0.48509 0.38536
 C280 C 0.78779 0.50328 0.42400
 N281 N 0.80880 0.52243 0.42144
 N282 N 0.82532 0.52306 0.38342
 C283 C 0.83991 0.50512 0.30604
 N284 N 0.86160 0.52315 0.31026
 N285 N 0.87859 0.52328 0.27586
 C286 C 0.87453 0.50543 0.23577
 N287 N 0.85281 0.48744 0.23121
 N288 N 0.83582 0.48727 0.26582
 C289 C 0.89346 0.50537 0.19937
 N290 N 0.88938 0.48825 0.15615
 N291 N 0.90666 0.48802 0.12435
 C292 C 0.92865 0.50485 0.13483
 N293 N 0.93270 0.52197 0.17796
 N294 N 0.91543 0.52225 0.20953
 C295 C 0.49800 0.31811 0.34545
 N296 N 0.51488 0.31291 0.33598
 N297 N 0.51616 0.29742 0.37433
 C298 C 0.50074 0.28674 0.42396
 N299 N 0.48368 0.29173 0.43275
 N300 N 0.48239 0.30719 0.39441
 C301 C 0.49666 0.33537 0.30389
 N302 N 0.47959 0.34028 0.31337
 N303 N 0.47853 0.35622 0.27671
 C304 C 0.49451 0.36784 0.22916
 N305 N 0.51156 0.36288 0.21947
 N306 N 0.51260 0.34691 0.25613
 C307 C 0.49373 0.38599 0.19061
 N308 N 0.51024 0.39846 0.14511
 N309 N 0.51000 0.41557 0.11237
 C310 C 0.49323 0.42079 0.12387
 N311 N 0.47664 0.40820 0.16896
 N312 N 0.47688 0.39111 0.20168
 C313 C 0.68137 0.17955 0.34987
 N314 N 0.69819 0.17691 0.37862
 N315 N 0.71457 0.19375 0.41449
 C316 C 0.71455 0.21372 0.42351
 N317 N 0.69791 0.21649 0.39423
 N318 N 0.68159 0.19968 0.35806
 C319 C 0.66316 0.16083 0.31111
 N320 N 0.64777 0.16417 0.27624
 N321 N 0.63112 0.14709 0.24165
 C322 C 0.62919 0.12603 0.24099
 N323 N 0.64457 0.12269 0.27590
 N324 N 0.66128 0.13979 0.31018
 C325 C 0.61061 0.10705 0.20394
 N326 N 0.60690 0.08538 0.21059
 N327 N 0.58984 0.06807 0.17790
 C328 C 0.57595 0.07179 0.13703
 N329 N 0.57972 0.09347 0.13011
 N330 N 0.59671 0.11078 0.16311
 C331 C 0.49760 0.17865 -0.35198
 N332 N 0.49544 0.19557 -0.32235
 N333 N 0.49525 0.21205 -0.35872
 C334 C 0.49734 0.21245 -0.42619
 N335 N 0.49991 0.19561 -0.45494
 N336 N 0.49984 0.17898 -0.41894
 C337 C 0.49728 0.16007 -0.31292
 N338 N 0.49275 0.14023 -0.34314
 N339 N 0.49233 0.12321 -0.30828
 C340 C 0.49671 0.12549 -0.24203
 N341 N 0.50138 0.14539 -0.21174
 N342 N 0.50153 0.16234 -0.24652
 C343 C 0.49630 0.10662 -0.20431
 N344 N 0.50683 0.11035 -0.14427
 N345 N 0.50678 0.09315 -0.11115
 C346 C 0.49596 0.07159 -0.13659
 N347 N 0.48531 0.06787 -0.19634
 N348 N 0.48560 0.08509 -0.22975
 C349 C 0.68296 0.50451 -0.34810
 N350 N 0.67775 0.49259 -0.40591
 N351 N 0.69423 0.49276 -0.44308
 C352 C 0.71657 0.50465 -0.42375
 N353 N 0.72158 0.51613 -0.36491
 N354 N 0.70517 0.51629 -0.32823
 C355 C 0.66487 0.50469 -0.30784
 N356 N 0.66954 0.52296 -0.26877
 N357 N 0.65300 0.52329 -0.23314
 C358 C 0.63130 0.50519 -0.23444
 N359 N 0.62668 0.48684 -0.27302
 N360 N 0.64314 0.48667 -0.30949
 C361 C 0.61298 0.50551 -0.19574
 N362 N 0.59471 0.48561 -0.17472
 N363 N 0.57773 0.48578 -0.14110
 C364 C 0.57824 0.50582 -0.12815
 N365 N 0.59648 0.52573 -0.14937
 N366 N 0.61365 0.52559 -0.18206
 C367 C 0.81972 0.32246 -0.35633
 N368 N 0.82177 0.32160 -0.42312
 N369 N 0.80514 0.30495 -0.45870
 C370 C 0.78579 0.28823 -0.42946
 N371 N 0.78380 0.28931 -0.36229
 N372 N 0.80034 0.30609 -0.32651
 C373 C 0.83848 0.34056 -0.31735
 N374 N 0.83530 0.34460 -0.25316
 N375 N 0.85251 0.36103 -0.21827
 C376 C 0.87358 0.37383 -0.24615
 N377 N 0.87674 0.36970 -0.31020
 N378 N 0.85951 0.35345 -0.34520
 C379 C 0.89273 0.39189 -0.20819
 N380 N 0.91451 0.40117 -0.23142
 N381 N 0.93197 0.41777 -0.19794
 C382 C 0.92829 0.42586 -0.14021
 N383 N 0.90649 0.41662 -0.11692
 N384 N 0.88903 0.39985 -0.15015
 C385 C 0.50016 -0.17889 -0.35914
 N386 N 0.49880 -0.19741 -0.32817
 N387 N 0.49907 -0.21405 -0.36328
 C388 C 0.50056 -0.21304 -0.43088
 N389 N 0.50151 -0.19455 -0.46133
 N390 N 0.50148 -0.17777 -0.42640
 C391 C 0.50062 -0.16015 -0.32061
 N392 N 0.50755 -0.13947 -0.34940
 N393 N 0.50840 -0.12229 -0.31430
 C394 C 0.50216 -0.12522 -0.24928
 N395 N 0.49509 -0.14594 -0.22054
 N396 N 0.49446 -0.16307 -0.25550
 C397 C 0.50306 -0.10624 -0.21098
 N398 N 0.49199 -0.11011 -0.15183
 N399 N 0.49249 -0.09285 -0.11794
 C400 C 0.50430 -0.07108 -0.14166
 N401 N 0.51552 -0.06721 -0.20051
 N402 N 0.51483 -0.08448 -0.23467
 C403 C 0.32286 0.50352 -0.36207
 N404 N 0.30974 0.51165 -0.33560
 N405 N 0.29250 0.51095 -0.37040
 C406 C 0.28775 0.50227 -0.43328
 N407 N 0.30106 0.49423 -0.45908
 N408 N 0.31819 0.49482 -0.42445
 C409 C 0.34148 0.50346 -0.32398
 N410 N 0.35234 0.49263 -0.34868
 N411 N 0.36901 0.49211 -0.31445
 C412 C 0.37555 0.50248 -0.25430
 N413 N 0.36478 0.51342 -0.22956
 N414 N 0.34798 0.51385 -0.26373
 C415 C 0.39387 0.50163 -0.21683
 N416 N 0.40245 0.51398 -0.16022
 N417 N 0.41911 0.51311 -0.12667
 C418 C 0.42768 0.49976 -0.14832
 N419 N 0.41904 0.48738 -0.20481
 N420 N 0.40249 0.48834 -0.23851
 C421 C 1.18044 0.68061 -0.35019
 N422 N 1.19511 0.67635 -0.38550
 N423 N 1.21171 0.69280 -0.42190
 C424 C 1.21431 0.71413 -0.42374
 N425 N 1.19980 0.71847 -0.38795
 N426 N 1.18305 0.70195 -0.35216
 C427 C 1.16194 0.66243 -0.31094
 N428 N 1.14375 0.66448 -0.29112
 N429 N 1.12674 0.64783 -0.25637
 C430 C 1.12746 0.62867 -0.23947
 N431 N 1.14574 0.62669 -0.25883
 N432 N 1.16262 0.64323 -0.29426
 C433 C 1.10855 0.61023 -0.20204
 N434 N 1.11140 0.59399 -0.17036
 N435 N 1.09408 0.57711 -0.13707
 C436 C 1.07325 0.57573 -0.13494
 N437 N 1.07040 0.59193 -0.16678
 N438 N 1.08778 0.60895 -0.19939
 C439 C 0.82357 0.50663 -0.35023
 N440 N 0.82346 0.50453 -0.41724
 N441 N 0.80676 0.50425 -0.45355
 C442 C 0.78967 0.50648 -0.42497
 N443 N 0.78993 0.50851 -0.35752
 N444 N 0.80644 0.50850 -0.32090
 C445 C 0.84204 0.50700 -0.31051
 N446 N 0.83923 0.50213 -0.24447
 N447 N 0.85605 0.50232 -0.20884
 C448 C 0.87635 0.50768 -0.23789
 N449 N 0.87917 0.51269 -0.30377
 N450 N 0.86228 0.51222 -0.33952
 C451 C 0.89502 0.50803 -0.19933
 N452 N 0.91682 0.51955 -0.22278
 N453 N 0.93386 0.51953 -0.18915
 C454 C 0.92970 0.50779 -0.13119
 N455 N 0.90788 0.49621 -0.10763
 N456 N 0.89085 0.49646 -0.14093
 C457 C 0.49886 0.31931 -0.35325
 N458 N 0.48756 0.29733 -0.33140
 N459 N 0.48760 0.28070 -0.36717
 C460 C 0.49844 0.28525 -0.42703
 N461 N 0.50987 0.30738 -0.44832
 N462 N 0.51018 0.32408 -0.41207
 C463 C 0.49869 0.33761 -0.31429
 N464 N 0.51665 0.35935 -0.31728
 N465 N 0.51642 0.37603 -0.28225
 C466 C 0.49805 0.37164 -0.24396
 N467 N 0.48001 0.34993 -0.24134
 N468 N 0.48041 0.33316 -0.27547
 C469 C 0.49761 0.39013 -0.20682
 N470 N 0.47746 0.38958 -0.19502
 N471 N 0.47715 0.40674 -0.16290
 C472 C 0.49694 0.42482 -0.14043
 N473 N 0.51705 0.42524 -0.15160
 N474 N 0.51740 0.40829 -0.18472
 C475 C 0.67898 0.18043 -0.35574
 N476 N 0.68823 0.20262 -0.33629
 N477 N 0.70499 0.21939 -0.37160
 C478 C 0.71300 0.21460 -0.42789
 N479 N 0.70384 0.19238 -0.44665
 N480 N 0.68715 0.17564 -0.41143
 C481 C 0.66044 0.16177 -0.31766
 N482 N 0.65122 0.16615 -0.26341
 N483 N 0.63430 0.14903 -0.22953
 C484 C 0.62605 0.12694 -0.24867
 N485 N 0.63530 0.12260 -0.30282
 N486 N 0.65216 0.13969 -0.33670
 C487 C 0.60745 0.10791 -0.21177
 N488 N 0.60015 0.08593 -0.23010
 N489 N 0.58333 0.06854 -0.19699
 C490 C 0.57314 0.07247 -0.14436
 N491 N 0.58040 0.09446 -0.12600
 N492 N 0.59728 0.11188 -0.15909
 C493 C 1.17995 0.49803 -0.35151
 N494 N 1.17511 0.48613 -0.40919
 N495 N 1.19184 0.48685 -0.44624
 C496 C 1.21418 0.49965 -0.42780
 N497 N 1.21892 0.51099 -0.36870
 N498 N 1.20216 0.51035 -0.33156
 C499 C 1.16130 0.49772 -0.31264
 N500 N 1.16571 0.51104 -0.25778
 N501 N 1.14860 0.51106 -0.22426
 C502 C 1.12651 0.49775 -0.24438
 N503 N 1.12215 0.48439 -0.29900
 N504 N 1.13922 0.48441 -0.33254
 C505 C 1.10752 0.49783 -0.20845
 N506 N 1.08551 0.48368 -0.22776
 N507 N 1.06818 0.48369 -0.19578
 C508 C 1.07220 0.49790 -0.14341
 N509 N 1.09422 0.51209 -0.12409
 N510 N 1.11158 0.51205 -0.15603
 C511 C 0.50398 0.68351 -0.34305
 N512 N 0.48505 0.68584 -0.34317
 N513 N 0.48414 0.70155 -0.38140
 C514 C 0.50211 0.71540 -0.42107
 N515 N 0.52124 0.71344 -0.41986
 N516 N 0.52211 0.69769 -0.38176
 C517 C 0.50460 0.66550 -0.30336
 N518 N 0.52269 0.66189 -0.30806
 N519 N 0.52294 0.64505 -0.27395
 C520 C 0.50512 0.63121 -0.23376
 N521 N 0.48708 0.63490 -0.22872
 N522 N 0.48680 0.65172 -0.26300
 C523 C 0.50518 0.61226 -0.19772
 N524 N 0.48794 0.59897 -0.15512
 N525 N 0.48784 0.58151 -0.12353
 C526 C 0.50495 0.57666 -0.13358
 N527 N 0.52219 0.58996 -0.17612
 N528 N 0.52232 0.60746 -0.20753
 C529 C 0.31743 -0.17870 -0.34410
 N530 N 0.30185 -0.17550 -0.37845
 N531 N 0.28618 -0.19213 -0.41656
 C532 C 0.28573 -0.21245 -0.42217
 N533 N 0.30110 -0.21577 -0.38728
 N534 N 0.31670 -0.19917 -0.34900
 C535 C 0.33502 -0.16025 -0.30319
 N536 N 0.34962 -0.16398 -0.26559
 N537 N 0.36596 -0.14710 -0.22971
 C538 C 0.36833 -0.12586 -0.23028
 N539 N 0.35369 -0.12214 -0.26773
 N540 N 0.33730 -0.13904 -0.30343
 C541 C 0.38691 -0.10703 -0.19286
 N542 N 0.39088 -0.08528 -0.19947
 N543 N 0.40829 -0.06802 -0.16768
 C544 C 0.42232 -0.07190 -0.12787
 N545 N 0.41824 -0.09368 -0.12079
 N546 N 0.40087 -0.11093 -0.15280
 C547 C 0.50581 -0.17943 0.33848
 N548 N 0.48660 -0.20040 0.33924
 N549 N 0.48530 -0.21700 0.37833
 C550 C 0.50311 -0.21317 0.41836
 N551 N 0.52253 -0.19237 0.41656
 N552 N 0.52380 -0.17576 0.37759
 C553 C 0.50687 -0.16085 0.29745
 N554 N 0.52523 -0.13935 0.30121
 N555 N 0.52582 -0.12231 0.26588
 C556 C 0.50810 -0.12615 0.22533
 N557 N 0.48982 -0.14768 0.22121
 N558 N 0.48920 -0.16471 0.25668
 C559 C 0.50834 -0.10716 0.18852
 N560 N 0.49093 -0.11107 0.14659
 N561 N 0.49070 -0.09373 0.11527
 C562 C 0.50785 -0.07184 0.12485
 N563 N 0.52532 -0.06795 0.16650
 N564 N 0.52558 -0.08530 0.19767
 C565 C 0.31542 0.49316 0.34343
 N566 N 0.29635 0.47320 0.36022
 N567 N 0.28004 0.47331 0.39760
 C568 C 0.28240 0.49339 0.42003
 N569 N 0.30140 0.51333 0.40308
 N570 N 0.31759 0.51322 0.36527
 C571 C 0.33367 0.49311 0.30357
 N572 N 0.35074 0.51292 0.27755
 N573 N 0.36764 0.51302 0.24273
 C574 C 0.36818 0.49333 0.23317
 N575 N 0.35111 0.47352 0.25919
 N576 N 0.33411 0.47339 0.29355
 C577 C 0.38721 0.49356 0.19679
 N578 N 0.39038 0.47518 0.19922
 N579 N 0.40798 0.47555 0.16768
 C580 C 0.42293 0.49423 0.13213
 N581 N 0.41967 0.51257 0.12930
 N582 N 0.40218 0.51227 0.16132
 C583 C 1.18103 0.67767 0.35729
 N584 N 1.20321 0.68666 0.33772
 N585 N 1.22012 0.70346 0.37250
 C586 C 1.21549 0.71177 0.42838
 N587 N 1.19327 0.70287 0.44733
 N588 N 1.17639 0.68614 0.41262
 C589 C 1.16223 0.65914 0.31955
 N590 N 1.14015 0.65106 0.33860
 N591 N 1.12296 0.63428 0.30483
 C592 C 1.12719 0.62490 0.25078
 N593 N 1.14928 0.63295 0.23168
 N594 N 1.16650 0.64979 0.26544
 C595 C 1.10809 0.60642 0.21378
 N596 N 1.11204 0.59627 0.16107
 N597 N 1.09459 0.57955 0.12770
 C598 C 1.07258 0.57242 0.14577
 N599 N 1.06866 0.58258 0.19846
 N600 N 1.08608 0.59925 0.23186
 C601 C 0.49818 0.17950 0.34831
 N602 N 0.51705 0.20072 0.34816
 N603 N 0.51765 0.21750 0.38478
 C604 C 0.49943 0.21361 0.42305
 N605 N 0.48032 0.19257 0.42177
 N606 N 0.47976 0.17578 0.38536
 C607 C 0.49791 0.16067 0.31079
 N608 N 0.48018 0.13892 0.31757
 N609 N 0.48023 0.12168 0.28526
 C610 C 0.49797 0.12555 0.24485
 N611 N 0.51565 0.14732 0.23777
 N612 N 0.51565 0.16456 0.27032
 C613 C 0.49808 0.10648 0.20986
 N614 N 0.51469 0.11046 0.16479
 N615 N 0.51471 0.09312 0.13295
 C616 C 0.49819 0.07115 0.14531
 N617 N 0.48163 0.06717 0.19056
 N618 N 0.48156 0.08452 0.22218
 C619 C 0.68102 0.50172 0.35162
 N620 N 0.69223 0.51787 0.39897
 N621 N 0.70842 0.51744 0.43601
 C622 C 0.71387 0.50071 0.42755
 N623 N 0.70294 0.48476 0.37938
 N624 N 0.68673 0.48520 0.34227
 C625 C 0.66288 0.50210 0.31190
 N626 N 0.65143 0.48602 0.26446
 N627 N 0.63472 0.48627 0.22942
 C628 C 0.62888 0.50261 0.24062
 N629 N 0.64038 0.51870 0.28791
 N630 N 0.65707 0.51845 0.32287
 C631 C 0.61017 0.50277 0.20337
 N632 N 0.60407 0.51876 0.21690
 N633 N 0.58682 0.51876 0.18439
 C634 C 0.57504 0.50280 0.13704
 N635 N 0.58119 0.48683 0.12324
 N636 N 0.59845 0.48681 0.15586
 C637 C 0.82094 0.31727 0.34111
 N638 N 0.80011 0.31590 0.34384
 N639 N 0.78356 0.30040 0.38253
 C640 C 0.78730 0.28584 0.42012
 N641 N 0.80797 0.28690 0.41654
 N642 N 0.82455 0.30245 0.37799
 C643 C 0.83940 0.33480 0.30001
 N644 N 0.86077 0.33746 0.30176
 N645 N 0.87771 0.35382 0.26605
 C646 C 0.87387 0.36805 0.22711
 N647 N 0.85245 0.36529 0.22501
 N648 N 0.83553 0.34897 0.26088
 C649 C 0.89277 0.38663 0.18990
 N650 N 0.88892 0.40044 0.14905
 N651 N 0.90626 0.41785 0.11738
 C652 C 0.92809 0.42211 0.12558
 N653 N 0.93191 0.40822 0.16614
 N654 N 0.91457 0.39078 0.19762
   
