data_POSCAR
  _audit_creation_date              2014-09-24
  _audit_creation_method            'ToBaCCo'
  _symmetry_space_group_name_H-M    'P1'
  _symmetry_Int_Tables_number       1
  _symmetry_cell_setting            triclinic
  loop_
  _symmetry_equiv_pos_as_xyz
 x,y,z
_cell_length_a 21.5394
_cell_length_b 30.1614
_cell_length_c 31.8891
_cell_angle_alpha 89.248600
_cell_angle_beta 87.971600
_cell_angle_gamma 118.263400
loop_
  _atom_site_label
  _atom_site_type_symbol
  _atom_site_fract_x
  _atom_site_fract_y
  _atom_site_fract_z
C1 C 0.03913 0.48929 1.36774
 C2 C 0.09354 0.53736 1.36092
 C3 C 0.07479 0.55926 1.32846
 N4 N 0.01182 0.52514 1.31429
 C5 C -0.00974 0.48257 1.33822
 C6 C 0.11411 0.60970 1.31209
 C7 C 0.09958 0.62276 1.27195
 C8 C 0.11732 0.67110 1.25734
 C9 C 0.10236 0.66793 1.21555
 C10 C 0.07335 0.61754 1.20612
 N11 N 0.07098 0.59018 1.24069
 C12 C 0.05881 0.59848 1.16550
 C13 C 0.01233 0.54754 1.15841
 C14 C 0.00516 0.52452 1.12026
 C15 C -0.04724 0.47597 1.12650
 C16 C -0.07226 0.47127 1.16790
 N17 N -0.03528 0.51511 1.18743
 C18 C -0.12823 0.42744 1.18745
 C19 C -0.13709 0.42199 1.23184
 C20 C -0.19876 0.38873 1.25414
 C21 C -0.18334 0.39199 1.29582
 C22 C -0.11312 0.42781 1.29793
 N23 N -0.08547 0.44637 1.25896
 C24 C -0.07420 0.43835 1.33444
 H25 H 0.03687 0.46184 1.39078
 H26 H 0.14226 0.55318 1.37716
 H27 H -0.03215 0.46947 1.25107
 H28 H 0.13982 0.70541 1.27467
 H29 H 0.11260 0.69931 1.19452
 H30 H 0.03471 0.54050 1.09092
 H31 H -0.06331 0.44738 1.10319
 H32 H -0.21940 0.36996 1.32158
 H33 H 0.05967 0.55254 1.24114
 H34 H -0.24948 0.36420 1.24171
 C35 C 0.53041 0.52233 1.37060
 C36 C 0.54815 0.48455 1.36758
 C37 C 0.51779 0.45845 1.33195
 N38 N 0.48313 0.48000 1.31268
 C39 C 0.49154 0.51947 1.33607
 C40 C 0.52355 0.41620 1.31728
 C41 C 0.50334 0.39732 1.27662
 C42 C 0.48893 0.34942 1.26460
 C43 C 0.47357 0.34613 1.22297
 C44 C 0.47827 0.39188 1.21057
 N45 N 0.49657 0.42296 1.24343
 C46 C 0.46913 0.40426 1.16912
 C47 C 0.46072 0.44642 1.15793
 C48 C 0.45745 0.46131 1.11711
 C49 C 0.44352 0.50112 1.11986
 C50 C 0.43871 0.50921 1.16228
 N51 N 0.44894 0.47556 1.18543
 C52 C 0.41865 0.54397 1.17891
 C53 C 0.41583 0.55220 1.22233
 C54 C 0.38455 0.57885 1.24022
 C55 C 0.39621 0.58063 1.28245
 C56 C 0.43387 0.55469 1.28930
 N57 N 0.44597 0.53783 1.25247
 C58 C 0.46297 0.55219 1.32769
 H59 H 0.54575 0.54929 1.39525
 H60 H 0.58157 0.47844 1.38881
 H61 H 0.48021 0.52295 1.24764
 H62 H 0.48895 0.31965 1.28391
 H63 H 0.46034 0.31363 1.20398
 H64 H 0.46328 0.44469 1.08835
 H65 H 0.43629 0.52109 1.09364
 H66 H 0.37996 0.59980 1.30525
 H67 H 0.51109 0.46109 1.24213
 H68 H 0.35726 0.59604 1.22441
 C69 C 0.60816 1.04662 1.37728
 C70 C 0.60998 1.00158 1.37809
 C71 C 0.57491 0.97565 1.34350
 N72 N 0.55089 1.00285 1.32207
 C73 C 0.57039 1.04610 1.34278
 C74 C 0.56467 0.92754 1.33216
 C75 C 0.54111 0.90784 1.29228
 C76 C 0.50421 0.85685 1.28422
 C77 C 0.49098 0.85324 1.24232
 C78 C 0.52006 0.90205 1.22577
 N79 N 0.55082 0.93526 1.25642
 C80 C 0.52045 0.91451 1.18286
 C81 C 0.54250 0.96402 1.16855
 C82 C 0.56707 0.98333 1.12827
 C83 C 0.57491 1.03145 1.12715
 C84 C 0.55054 1.03837 1.16617
 N85 N 0.53219 0.99730 1.19134
 C86 C 0.54031 1.07913 1.17946
 C87 C 0.51995 1.07903 1.22201
 C88 C 0.47276 1.09501 1.23674
 C89 C 0.47560 1.09546 1.27967
 C90 C 0.52462 1.07990 1.28968
 N91 N 0.54927 1.06791 1.25451
 C92 C 0.55352 1.08394 1.32931
 H93 H 0.63437 1.07656 1.39877
 H94 H 0.63617 0.98996 1.40072
 H95 H 0.59116 1.05961 1.25236
 H96 H 0.48722 0.82535 1.30639
 H97 H 0.46362 0.81850 1.22587
 H98 H 0.57960 0.96515 1.10278
 H99 H 0.59751 1.05775 1.10078
 H100 H 0.44748 1.10806 1.30105
 H101 H 0.58072 0.97428 1.25276
 H102 H 0.44147 1.10669 1.21829
 C103 C 0.97164 0.52308 0.87814
 C104 C 1.02197 0.57246 0.87259
 C105 C 1.04797 0.57865 0.83128
 N106 N 1.01401 0.53493 0.81120
 C107 C 0.96735 0.50093 0.83982
 C108 C 1.10506 0.62304 0.81331
 C109 C 1.11771 0.63088 0.76923
 C110 C 1.18212 0.66411 0.74957
 C111 C 1.17277 0.66141 0.70732
 C112 C 1.10314 0.62602 0.70193
 N113 N 1.06985 0.60712 0.73983
 C114 C 1.07359 0.61152 0.66228
 C115 C 1.01666 0.56334 0.65553
 C116 C 0.98297 0.54850 0.61809
 C117 C 0.93530 0.49851 0.62336
 C118 C 0.93990 0.48444 0.66427
 N119 N 0.99015 0.52420 0.68377
 C120 C 0.90216 0.43481 0.68183
 C121 C 0.90355 0.42254 0.72466
 C122 C 0.87513 0.37392 0.74176
 C123 C 0.88195 0.37800 0.78441
 C124 C 0.91424 0.42898 0.79234
 N125 N 0.92669 0.45579 0.75583
 C126 C 0.92542 0.44924 0.83273
 H127 H 0.94199 0.50558 0.90718
 H128 H 1.03765 0.60052 0.89638
 H129 H 0.94216 0.49399 0.75306
 H130 H 1.23175 0.68686 0.76389
 H131 H 1.21369 0.68176 0.68322
 H132 H 0.99229 0.57109 0.58961
 H133 H 0.90215 0.47552 0.59925
 H134 H 0.86341 0.34680 0.80702
 H135 H 1.01628 0.58234 0.74531
 H136 H 0.85019 0.33887 0.72555
 C137 C 0.47787 0.50446 0.88257
 C138 C 0.48737 0.46267 0.88020
 C139 C 0.50345 0.45887 0.83834
 N140 N 0.50324 0.49665 0.81510
 C141 C 0.48676 0.52416 0.84198
 C142 C 0.51928 0.42172 0.82219
 C143 C 0.53153 0.41777 0.77890
 C144 C 0.56390 0.39104 0.76256
 C145 C 0.55839 0.39143 0.71974
 C146 C 0.52281 0.41838 0.71109
 N147 N 0.50702 0.43451 0.74732
 C148 C 0.49946 0.42272 0.67116
 C149 C 0.47247 0.45592 0.66162
 C150 C 0.44043 0.45614 0.62480
 C151 C 0.42105 0.49323 0.62805
 C152 C 0.44205 0.51457 0.66677
 N153 N 0.47449 0.49219 0.68692
 C154 C 0.43310 0.55511 0.68202
 C155 C 0.45114 0.57462 0.72247
 C156 C 0.45793 0.62056 0.73479
 C157 C 0.47223 0.62429 0.77679
 C158 C 0.47266 0.58016 0.78915
 N159 N 0.45942 0.55010 0.75583
 C160 C 0.48097 0.56750 0.83079
 H161 H 0.46425 0.51808 0.91082
 H162 H 0.48242 0.43800 0.90645
 H163 H 0.44866 0.51277 0.75673
 H164 H 0.58763 0.37225 0.77982
 H165 H 0.57675 0.37280 0.69759
 H166 H 0.43143 0.43186 0.59847
 H167 H 0.39460 0.50330 0.60446
 H168 H 0.48006 0.65556 0.79617
 H169 H 0.47220 0.44905 0.75106
 H170 H 0.45298 0.64844 0.71553
 C171 C 0.50680 -0.03046 0.62353
 C172 C 0.50680 0.01494 0.62222
 C173 C 0.49165 0.02363 0.66289
 N174 N 0.48065 -0.01548 0.68883
 C175 C 0.48970 -0.04876 0.66483
 C176 C 0.48611 0.06642 0.67513
 C177 C 0.48389 0.07926 0.71737
 C178 C 0.47112 0.11799 0.73046
 C179 C 0.48345 0.12303 0.77261
 C180 C 0.50306 0.08708 0.78414
 N181 N 0.50275 0.06039 0.75038
 C182 C 0.52842 0.08376 0.82365
 C183 C 0.53632 0.04213 0.83762
 C184 C 0.57009 0.04082 0.87347
 C185 C 0.56731 -0.00548 0.87554
 C186 C 0.53196 -0.03101 0.84087
 N187 N 0.51262 -0.00197 0.81785
 C188 C 0.51924 -0.07989 0.83040
 C189 C 0.49524 -0.09999 0.79074
 C190 C 0.45888 -0.15108 0.78325
 C191 C 0.44823 -0.15534 0.74109
 C192 C 0.47843 -0.10676 0.72376
 N193 N 0.50593 -0.07306 0.75439
 C194 C 0.48301 -0.09512 0.68021
 H195 H 0.51993 -0.04699 0.59708
 H196 H 0.51825 0.03921 0.59458
 H197 H 0.53746 -0.03431 0.74998
 H198 H 0.45707 0.14149 0.71132
 H199 H 0.48049 0.15101 0.79229
 H200 H 0.59562 0.07042 0.89547
 H201 H 0.59071 -0.01814 0.89920
 H202 H 0.42122 -0.19034 0.72493
 H203 H 0.52401 0.03593 0.74876
 H204 H 0.44136 -0.18218 0.80591
 O205 O 0.46746 0.68386 0.97794
 O206 O 0.49598 0.77722 0.96630
 C207 C 0.47651 0.80867 0.95400
 O208 O 0.42413 0.81152 0.97081
 O209 O 0.30735 0.74340 0.94056
 C210 C 0.26639 0.69941 0.92915
 O211 O 0.25574 0.66006 0.94997
 O212 O 0.36455 0.64297 0.94709
 C213 C 0.42992 0.65663 0.94894
 O214 O 0.43187 0.68790 1.05994
 O215 O 0.46806 0.78409 1.04921
 C216 C 0.42144 0.79435 1.06509
 O217 O 0.36327 0.78215 1.04871
 O218 O 0.24571 0.71759 1.01883
 C219 C 0.22259 0.67638 1.04001
 O220 O 0.24510 0.64492 1.03397
 O221 O 0.34632 0.62157 1.03041
 C222 C 0.38575 0.64175 1.06072
 Cr223 Cr 0.46284 0.73275 1.01294
 Cr224 Cr 0.33645 0.76209 0.99485
 Cr225 Cr 0.30500 0.64469 0.99053
 O226 O 0.36826 0.71328 0.99925
 O227 O 0.52791 0.27677 0.94754
 O228 O 0.54253 0.19722 0.96385
 C229 C 0.59703 0.20402 0.94164
 O230 O 0.65928 0.23055 0.95328
 O231 O 0.76293 0.31278 0.97918
 C232 C 0.76771 0.34869 0.95576
 O233 O 0.72498 0.36621 0.95930
 O234 O 0.59882 0.35702 0.96346
 C235 C 0.55500 0.32378 0.93988
 O236 O 0.49996 0.28490 1.02910
 O237 O 0.52262 0.21012 1.04751
 C238 C 0.56258 0.19198 1.05708
 O239 O 0.61365 0.19691 1.03296
 O240 O 0.71092 0.28354 1.05856
 C241 C 0.73180 0.32881 1.06868
 O242 O 0.72684 0.36150 1.04500
 O243 O 0.59935 0.34990 1.04859
 C244 C 0.53329 0.32216 1.05223
 Cr245 Cr 0.52617 0.24327 0.99712
 Cr246 Cr 0.68483 0.25675 1.00594
 Cr247 Cr 0.66141 0.35647 1.00403
 O248 O 0.62415 0.28597 1.00218
 O249 O 0.60803 0.36589 0.53553
 O250 O 0.71673 0.35715 0.55920
 C251 C 0.74737 0.33176 0.56900
 O252 O 0.74267 0.29466 0.54819
 O253 O 0.61875 0.21417 0.55424
 C254 C 0.55186 0.19263 0.55569
 O255 O 0.51660 0.20221 0.52917
 O256 O 0.51806 0.28764 0.54238
 C257 C 0.54976 0.33309 0.55312
 O258 O 0.65551 0.36936 0.45386
 O259 O 0.76547 0.36551 0.47857
 C260 C 0.77660 0.33434 0.45732
 O261 O 0.74197 0.28703 0.46390
 O262 O 0.62192 0.20329 0.47031
 C263 C 0.58261 0.20563 0.44252
 O264 O 0.54934 0.23052 0.44671
 O265 O 0.54187 0.31282 0.45956
 C266 C 0.59451 0.34814 0.43966
 Cr267 Cr 0.68435 0.36209 0.50678
 Cr268 Cr 0.67976 0.25118 0.50909
 Cr269 Cr 0.53473 0.25923 0.49481
 O270 O 0.63290 0.29087 0.50414
 O271 O 0.34172 0.61825 0.53255
 O272 O 0.24866 0.64959 0.53339
 C273 C 0.23277 0.68465 0.53837
 O274 O 0.26266 0.72630 0.51749
 O275 O 0.38740 0.78851 0.54257
 C276 C 0.44418 0.79454 0.55815
 O277 O 0.48353 0.77816 0.54178
 O278 O 0.43898 0.68292 0.55477
 C279 C 0.38777 0.63890 0.55968
 O280 O 0.35767 0.63273 0.44782
 O281 O 0.25797 0.65907 0.44961
 C282 C 0.27294 0.69788 0.42681
 O283 O 0.31664 0.74213 0.43685
 O284 O 0.44009 0.80805 0.46255
 C285 C 0.49211 0.80331 0.44780
 O286 O 0.50496 0.76829 0.45940
 O287 O 0.46543 0.67350 0.47280
 C288 C 0.42293 0.64544 0.44628
 Cr289 Cr 0.30428 0.64241 0.49095
 Cr290 Cr 0.35246 0.76425 0.48998
 Cr291 Cr 0.46972 0.72515 0.50674
 O292 O 0.37552 0.71069 0.49595
 N293 N 0.52242 0.65066 0.40150
 N294 N 0.53283 0.62719 0.36962
 C295 C 0.47023 0.58922 0.35962
 C296 C 0.41714 0.58860 0.38597
 C297 C 0.45289 0.62822 0.41221
 H298 H 0.36123 0.56246 0.38660
 H299 H 0.56248 0.68164 0.41549
 H300 H 0.58218 0.63658 0.35547
 N301 N 0.57819 0.82931 0.38707
 N302 N 0.59819 0.86444 0.35377
 C303 C 0.57138 0.89586 0.36236
 C304 C 0.53454 0.88190 0.40102
 C305 C 0.53815 0.83930 0.41469
 H306 H 0.50084 0.89618 0.41435
 H307 H 0.58539 0.79741 0.38715
 H308 H 0.62401 0.86319 0.32581
 N309 N 0.26957 0.71422 0.35044
 N310 N 0.22617 0.68782 0.31817
 C311 C 0.16825 0.64748 0.33542
 C312 C 0.17387 0.64825 0.37884
 C313 C 0.23784 0.68958 0.38679
 H314 H 0.13696 0.62179 0.40229
 H315 H 0.32079 0.74402 0.34610
 H316 H 0.24162 0.69535 0.28636
 N317 N 0.62185 0.36147 0.36323
 N318 N 0.60007 0.37864 0.32886
 C319 C 0.55234 0.39260 0.34311
 C320 C 0.54096 0.38285 0.38646
 C321 C 0.58566 0.36385 0.39757
 H322 H 0.50527 0.38909 0.40729
 H323 H 0.65950 0.34892 0.36193
 H324 H 0.62198 0.38337 0.29833
 N325 N 0.58117 0.20371 0.36572
 N326 N 0.57482 0.17043 0.33445
 C327 C 0.56592 0.12692 0.35276
 C328 C 0.56855 0.13254 0.39630
 C329 C 0.57754 0.18078 0.40271
 H330 H 0.55977 0.10456 0.42056
 H331 H 0.58876 0.24026 0.36063
 H332 H 0.57988 0.17981 0.30242
 N333 N 0.84793 0.32502 0.39827
 N334 N 0.88798 0.35280 0.36584
 C335 C 0.89800 0.40016 0.36936
 C336 C 0.86277 0.40273 0.40565
 C337 C 0.83113 0.35407 0.42293
 H338 H 0.85490 0.43399 0.41552
 H339 H 0.82908 0.28622 0.40194
 H340 H 0.90457 0.33879 0.34049
 N341 N 0.42309 0.31219 1.08949
 N342 N 0.40626 0.33391 1.12041
 C343 C 0.46615 0.37015 1.13549
 C344 C 0.52355 0.37195 1.11333
 C345 C 0.49396 0.33462 1.08434
 H346 H 0.57886 0.39738 1.11731
 H347 H 0.38657 0.28305 1.07202
 H348 H 0.35473 0.32434 1.13067
 N349 N 0.76064 0.31089 1.13956
 N350 N 0.79820 0.33851 1.17316
 C351 C 0.82496 0.38790 1.16262
 C352 C 0.80315 0.39245 1.12282
 C353 C 0.76420 0.34377 1.10943
 H354 H 0.81441 0.42676 1.10553
 H355 H 0.73543 0.27165 1.13842
 H356 H 0.80862 0.32281 1.19963
 N357 N 0.56260 0.19528 1.13362
 N358 N 0.55934 0.16457 1.16737
 C359 C 0.54735 0.11940 1.15269
 C360 C 0.54369 0.12109 1.10902
 C361 C 0.55350 0.16890 1.09881
 H362 H 0.53170 0.09146 1.08712
 H363 H 0.57477 0.23308 1.13537
 H364 H 0.56988 0.17696 1.19800
 N365 N 0.31271 0.56842 1.10822
 N366 N 0.32086 0.54322 1.13975
 C367 C 0.38883 0.56683 1.14987
 C368 C 0.42595 0.60945 1.12376
 C369 C 0.37532 0.60874 1.09760
 H370 H 0.48215 0.63481 1.12200
 H371 H 0.26524 0.55726 1.09349
 H372 H 0.28113 0.50921 1.15284
 N373 N 0.13149 0.69013 1.08003
 N374 N 0.08892 0.67008 1.11376
 C375 C 0.09840 0.63200 1.12907
 C376 C 0.14867 0.62743 1.10419
 C377 C 0.16787 0.66460 1.07328
 H378 H 0.16839 0.60068 1.10809
 H379 H 0.13520 0.72056 1.06206
 H380 H 0.05362 0.68195 1.12563
 N381 N 0.37952 0.81752 1.12977
 N382 N 0.40553 0.84889 1.16052
 C383 C 0.47626 0.87377 1.15514
 C384 C 0.49674 0.85722 1.11939
 C385 C 0.43319 0.82147 1.10427
 H386 H 0.54942 0.87058 1.10559
 H387 H 0.32566 0.79437 1.12608
 H388 H 0.37507 0.85406 1.18424
 N389 N 0.45629 0.31506 0.60864
 N390 N 0.44360 0.33838 0.63985
 C391 C 0.49554 0.38630 0.63938
 C392 C 0.54377 0.39413 0.60639
 C393 C 0.51675 0.34768 0.58770
 H394 H 0.59236 0.42805 0.59813
 H395 H 0.42465 0.27708 0.60248
 H396 H 0.40054 0.32149 0.66141
 N397 N 0.44214 0.12969 0.59479
 N398 N 0.42483 0.09698 0.62671
 C399 C 0.48434 0.10019 0.64175
 C400 C 0.54214 0.13638 0.61858
 C401 C 0.51299 0.15408 0.58896
 H402 H 0.59723 0.14714 0.62204
 H403 H 0.40585 0.13467 0.57713
 H404 H 0.37316 0.07231 0.63741
 N405 N 0.83815 0.32960 0.61397
 N406 N 0.87954 0.35720 0.64341
 C407 C 0.86186 0.39313 0.65351
 C408 C 0.80626 0.38786 0.62980
 C409 C 0.79357 0.34762 0.60468
 H410 H 0.78189 0.41206 0.62893
 H411 H 0.84287 0.30057 0.59920
 H412 H 0.92113 0.35280 0.65498
 N413 N 0.31825 0.57275 0.61423
 N414 N 0.32991 0.55241 0.64791
 C415 C 0.39953 0.57631 0.65434
 C416 C 0.43396 0.61378 0.62346
 C417 C 0.38030 0.60992 0.59855
 H418 H 0.49022 0.63741 0.61793
 H419 H 0.26882 0.56035 0.60166
 H420 H 0.29137 0.52077 0.66469
 N421 N 0.50690 0.81193 0.62410
 N422 N 0.51603 0.84166 0.65868
 C423 C 0.48229 0.86892 0.65209
 C424 C 0.44945 0.85612 0.61391
 C425 C 0.46643 0.82066 0.59757
 H426 H 0.41666 0.87011 0.60005
 H427 H 0.52732 0.78689 0.62040
 H428 H 0.54745 0.84402 0.68366
 N429 N 0.17742 0.71551 0.59170
 N430 N 0.13379 0.69482 0.62776
 C431 C 0.10814 0.64445 0.62750
 C432 C 0.13476 0.63206 0.59189
 C433 C 0.17886 0.67741 0.57096
 H434 H 0.13007 0.59556 0.58503
 H435 H 0.20986 0.75400 0.58553
 H436 H 0.12677 0.71562 0.65165
 N437 N 0.53232 0.64969 0.91770
 N438 N 0.54592 0.62695 0.88636
 C439 C 0.48717 0.60220 0.86481
 C440 C 0.43327 0.60911 0.88344
 C441 C 0.46429 0.63942 0.91710
 H442 H 0.37884 0.59269 0.87486
 H443 H 0.56880 0.67088 0.93965
 H444 H 0.59424 0.62740 0.88050
 N445 N 0.23472 0.73065 0.86477
 N446 N 0.18878 0.70898 0.83242
 C447 C 0.15401 0.65862 0.83999
 C448 C 0.17717 0.64742 0.87676
 C449 C 0.22737 0.69303 0.89102
 H450 H 0.16162 0.61050 0.89068
 H451 H 0.26846 0.76914 0.86741
 H452 H 0.18156 0.72924 0.80798
 N453 N 0.54816 0.82919 0.88736
 N454 N 0.55681 0.85883 0.85151
 C455 C 0.52888 0.88947 0.86048
 C456 C 0.50208 0.88015 0.90181
 C457 C 0.51360 0.84147 0.91713
 H458 H 0.47046 0.89508 0.91695
 H459 H 0.55834 0.79861 0.88838
 H460 H 0.57878 0.85579 0.82266
 N461 N 0.48741 0.30694 0.87544
 N462 N 0.47835 0.33259 0.84464
 C463 C 0.51782 0.38214 0.85090
 C464 C 0.55429 0.38845 0.88730
 C465 C 0.53300 0.33963 0.90195
 H466 H 0.59080 0.42335 0.90105
 H467 H 0.46249 0.26766 0.87812
 H468 H 0.44505 0.31628 0.81997
 N469 N 0.87503 0.35652 0.91669
 N470 N 0.91625 0.38278 0.88403
 C471 C 0.89334 0.41434 0.86955
 C472 C 0.83518 0.40811 0.89387
 C473 C 0.82535 0.37109 0.92347
 H474 H 0.80390 0.42720 0.89007
 H475 H 0.88056 0.32881 0.93360
 H476 H 0.95894 0.37886 0.87179
 N477 N 0.63621 0.20251 0.86823
 N478 N 0.61689 0.17158 0.83676
 C479 C 0.55759 0.12945 0.84883
 C480 C 0.53724 0.13393 0.88970
 C481 C 0.58914 0.18084 0.90078
 H482 H 0.49388 0.10596 0.90923
 H483 H 0.68161 0.23752 0.86756
 H484 H 0.64567 0.17834 0.80819
   
