data_POSCAR
  _audit_creation_date              2014-09-24
  _audit_creation_method            'ToBaCCo'
  _symmetry_space_group_name_H-M    'P1'
  _symmetry_Int_Tables_number       1
  _symmetry_cell_setting            triclinic
  loop_
  _symmetry_equiv_pos_as_xyz
 x,y,z
_cell_length_a 12.0614
_cell_length_b 24.0078
_cell_length_c 12.1700
_cell_angle_alpha 90.198800
_cell_angle_beta 89.605700
_cell_angle_gamma 89.857000
loop_
  _atom_site_label
  _atom_site_type_symbol
  _atom_site_fract_x
  _atom_site_fract_y
  _atom_site_fract_z
N1 N 0.19249 0.05943 0.11746
 N2 N 0.24893 0.10644 0.11981
 N3 N 0.11552 -0.05774 0.19514
 N4 N 0.11704 -0.10470 0.25124
 N5 N 0.19357 -0.05806 0.11929
 N6 N 0.24986 -0.10525 0.12217
 N7 N 0.11480 0.05970 0.19354
 N8 N 0.11669 0.10687 0.24950
 C9 C 0.20144 0.13542 0.20329
 C10 C 0.20202 -0.13373 0.20561
 N11 N -0.19881 -0.05841 0.11709
 N12 N -0.25387 -0.10585 0.11926
 N13 N -0.12342 0.06000 0.19171
 N14 N -0.12305 0.10862 0.24293
 N15 N -0.20045 0.05889 0.11604
 N16 N -0.25654 0.10972 0.11538
 N17 N -0.12292 -0.05771 0.19396
 N18 N -0.12465 -0.10464 0.25007
 Mn19 Mn -0.00411 0.00106 0.19503
 C20 C -0.20752 -0.13405 0.20340
 C21 C -0.20510 0.13878 0.19580
 N22 N 0.19795 -0.05902 -0.11738
 N23 N 0.25511 -0.10952 -0.11679
 N24 N 0.11957 0.05747 -0.19568
 N25 N 0.12122 0.10461 -0.25137
 N26 N 0.19545 0.05815 -0.11874
 N27 N 0.25038 0.10562 -0.12052
 N28 N 0.12091 -0.06046 -0.19301
 N29 N 0.12170 -0.10901 -0.24449
 Mn30 Mn 0.19614 0.00011 0.00025
 C31 C 0.20436 -0.13877 -0.19733
 C32 C 0.20409 0.13401 -0.20439
 N33 N -0.19659 0.05773 -0.12087
 N34 N -0.25220 0.10511 -0.12358
 N35 N -0.11803 -0.06094 -0.19430
 N36 N -0.11719 -0.10949 -0.24596
 N37 N -0.19698 -0.05951 -0.11953
 N38 N -0.25374 -0.10999 -0.11973
 N39 N -0.11897 0.05700 -0.19714
 N40 N -0.12006 0.10397 -0.25329
 Mn41 Mn -0.19936 -0.00031 -0.00184
 Mn42 Mn 0.00090 -0.00178 -0.19661
 Cl43 Cl -0.00160 -0.00025 -0.00086
 C44 C -0.20437 0.13335 -0.20733
 C45 C -0.20085 -0.13927 -0.19978
 N46 N 0.69789 0.55876 0.61715
 N47 N 0.75390 0.60597 0.61899
 N48 N 0.62088 0.44122 0.69334
 N49 N 0.62235 0.39390 0.74819
 N50 N 0.69767 0.44100 0.61627
 N51 N 0.75296 0.39345 0.61696
 N52 N 0.62102 0.55882 0.69416
 N53 N 0.62307 0.60603 0.75003
 C54 C 0.70711 0.63486 0.70308
 C55 C 0.70589 0.36470 0.70049
 N56 N 0.30511 0.44160 0.61984
 N57 N 0.24939 0.39433 0.62146
 N58 N 0.38250 0.55906 0.69649
 N59 N 0.38065 0.60623 0.75253
 N60 N 0.30527 0.55921 0.62094
 N61 N 0.24919 0.60649 0.62388
 N62 N 0.38233 0.44143 0.69544
 N63 N 0.38076 0.39403 0.75015
 Mn64 Mn 0.50170 0.50013 0.69631
 C65 C 0.29665 0.36525 0.70395
 C66 C 0.29633 0.63520 0.70713
 N67 N 0.69690 0.44097 0.37989
 N68 N 0.75279 0.39360 0.37676
 N69 N 0.61994 0.55861 0.30513
 N70 N 0.62125 0.60583 0.25001
 N71 N 0.69709 0.55865 0.38077
 N72 N 0.75248 0.60601 0.37887
 N73 N 0.61964 0.44122 0.30434
 N74 N 0.62131 0.39411 0.24813
 Mn75 Mn 0.69892 0.49984 0.49852
 C76 C 0.70550 0.36500 0.29337
 C77 C 0.70505 0.63479 0.29606
 N78 N 0.30481 0.55945 0.38468
 N79 N 0.24906 0.60685 0.38364
 N80 N 0.38128 0.44179 0.30659
 N81 N 0.37911 0.39465 0.25060
 N82 N 0.30445 0.44190 0.38359
 N83 N 0.24832 0.39478 0.38172
 N84 N 0.38158 0.55925 0.30759
 N85 N 0.37970 0.60646 0.25239
 Mn86 Mn 0.30343 0.50055 0.50229
 Mn87 Mn 0.50061 0.50021 0.30451
 Cl88 Cl 0.50118 0.50018 0.50043
 C89 C 0.29590 0.63556 0.29992
 C90 C 0.29501 0.36595 0.29759
 C91 C 0.16776 0.22243 0.31169
 C92 C 0.22743 0.19395 0.22936
 C93 C 0.30842 0.22263 0.16860
 C94 C 0.32903 0.27887 0.18950
 C95 C 0.26921 0.30738 0.27170
 C96 C 0.18828 0.27869 0.33250
 H97 H 0.10493 0.20131 0.35978
 H98 H 0.35546 0.20172 0.10450
 H99 H 0.39211 0.29995 0.14160
 H100 H 0.14119 0.29961 0.39654
 C101 C 0.68810 0.77796 0.16907
 C102 C 0.76808 0.80726 0.22924
 C103 C 0.82840 0.77924 0.31057
 C104 C 0.80936 0.72284 0.33105
 C105 C 0.72947 0.69354 0.27075
 C106 C 0.66911 0.72159 0.18950
 H107 H 0.64057 0.79850 0.10580
 H108 H 0.89071 0.80081 0.35802
 H109 H 0.85675 0.70229 0.39444
 H110 H 0.60685 0.70003 0.14196
 C111 C 0.83135 0.22019 0.68509
 C112 C 0.77071 0.19207 0.76668
 C113 C 0.68965 0.22131 0.82709
 C114 C 0.67001 0.27768 0.80679
 C115 C 0.73071 0.30585 0.72535
 C116 C 0.81160 0.27660 0.66466
 H117 H 0.89441 0.19868 0.63738
 H118 H 0.64177 0.20072 0.89056
 H119 H 0.60697 0.29914 0.85462
 H120 H 0.85932 0.29722 0.60111
 C121 C 0.16770 0.77893 0.69684
 C122 C 0.22747 0.80758 0.77850
 C123 C 0.30982 0.77836 0.83667
 C124 C 0.33057 0.72215 0.81479
 C125 C 0.27032 0.69382 0.73386
 C126 C 0.18874 0.72270 0.67512
 H127 H 0.10444 0.79975 0.64935
 H128 H 0.35828 0.79863 0.89979
 H129 H 0.39432 0.70094 0.86098
 H130 H 0.14151 0.70193 0.61174
 C131 C 0.16929 0.22141 0.68945
 C132 C 0.22940 0.19278 0.77010
 C133 C 0.31061 0.22151 0.82987
 C134 C 0.33113 0.27782 0.80962
 C135 C 0.27103 0.30647 0.72902
 C136 C 0.18978 0.27776 0.66923
 H137 H 0.10607 0.20034 0.64232
 H138 H 0.35807 0.20056 0.89268
 H139 H 0.39436 0.29885 0.85681
 H140 H 0.14234 0.29876 0.60648
 C141 C 0.69279 0.77811 0.83305
 C142 C 0.77645 0.80711 0.77553
 C143 C 0.83751 0.77826 0.69398
 C144 C 0.81624 0.72210 0.67165
 C145 C 0.73332 0.69347 0.72985
 C146 C 0.67198 0.72201 0.81074
 H147 H 0.64328 0.79846 0.89610
 H148 H 0.90182 0.79890 0.64697
 H149 H 0.86441 0.70119 0.60836
 H150 H 0.60720 0.70106 0.85658
 C151 C 0.16740 0.77942 0.31338
 C152 C 0.22796 0.80771 0.23197
 C153 C 0.31002 0.77880 0.17227
 C154 C 0.33075 0.72257 0.19314
 C155 C 0.27015 0.69424 0.27445
 C156 C 0.18826 0.72318 0.33438
 H157 H 0.10355 0.80066 0.36052
 H158 H 0.35786 0.79953 0.10897
 H159 H 0.39454 0.70135 0.14588
 H160 H 0.14054 0.70242 0.39777
 C161 C 0.83366 0.22100 0.30137
 C162 C 0.77282 0.19255 0.22015
 C163 C 0.69033 0.22207 0.16279
 C164 C 0.67015 0.27828 0.18530
 C165 C 0.73118 0.30636 0.26602
 C166 C 0.81314 0.27724 0.32377
 H167 H 0.89746 0.20002 0.34794
 H168 H 0.64115 0.20200 0.09997
 H169 H 0.60611 0.29966 0.13980
 H170 H 0.86109 0.29783 0.38683
   
