data_POSCAR
  _audit_creation_date              2014-09-24
  _audit_creation_method            'ToBaCCo'
  _symmetry_space_group_name_H-M    'P1'
  _symmetry_Int_Tables_number       1
  _symmetry_cell_setting            triclinic
  loop_
  _symmetry_equiv_pos_as_xyz
 x,y,z
_cell_length_a 45.0738
_cell_length_b 44.0633
_cell_length_c 45.1580
_cell_angle_alpha 90.330600
_cell_angle_beta 90.056200
_cell_angle_gamma 89.517900
loop_
  _atom_site_label
  _atom_site_type_symbol
  _atom_site_fract_x
  _atom_site_fract_y
  _atom_site_fract_z
C1 C 0.15324 0.15015 0.19251
 C2 C 0.17956 0.13669 0.18134
 C3 C 0.19462 0.14844 0.15644
 C4 C 0.18165 0.17364 0.14187
 C5 C 0.15526 0.18715 0.15217
 C6 C 0.14180 0.17568 0.17767
 H7 H 0.18719 0.11560 0.19081
 H8 H 0.19230 0.18370 0.12297
 H9 H 0.12302 0.18801 0.18670
 C10 C -0.16004 0.84213 0.20082
 C11 C -0.15082 0.81506 0.18666
 C12 C -0.16496 0.80421 0.16106
 C13 C -0.18941 0.82031 0.14974
 C14 C -0.19952 0.84720 0.16342
 C15 C -0.18441 0.85811 0.18857
 H16 H -0.13369 0.80107 0.19652
 H17 H -0.20080 0.81162 0.13043
 H18 H -0.19115 0.87977 0.19780
 C19 C -0.16104 0.15608 -0.20028
 C20 C -0.18737 0.14592 -0.18661
 C21 C -0.20024 0.16149 -0.16220
 C22 C -0.18610 0.18798 -0.15188
 C23 C -0.15965 0.19818 -0.16453
 C24 C -0.14713 0.18185 -0.18814
 H25 H -0.19798 0.12587 -0.19511
 H26 H -0.19641 0.20193 -0.13495
 H27 H -0.12571 0.18891 -0.19621
 C28 C 0.15001 0.84887 -0.19072
 C29 C 0.14019 0.82242 -0.17679
 C30 C 0.15320 0.81238 -0.15036
 C31 C 0.17663 0.82905 -0.13804
 C32 C 0.18826 0.85487 -0.15223
 C33 C 0.17392 0.86491 -0.17832
 H34 H 0.12296 0.80905 -0.18713
 H35 H 0.18509 0.82209 -0.11671
 H36 H 0.18189 0.88454 -0.18997
 C37 C 0.15185 1.15234 0.80043
 C38 C 0.14088 1.17989 0.81227
 C39 C 0.15385 1.19279 0.83775
 C40 C 0.17729 1.17725 0.85174
 C41 C 0.18922 1.15042 0.83967
 C42 C 0.17636 1.13825 0.81401
 H43 H 0.12259 1.19144 0.80147
 H44 H 0.18641 1.18623 0.87213
 H45 H 0.18617 1.11823 0.80387
 C46 C 0.84839 0.85604 0.81243
 C47 C 0.86164 0.82882 0.82281
 C48 C 0.84979 0.81257 0.84703
 C49 C 0.82385 0.82420 0.86057
 C50 C 0.81071 0.85141 0.85129
 C51 C 0.82356 0.86745 0.82799
 H52 H 0.88103 0.81997 0.81179
 H53 H 0.81242 0.81123 0.87722
 H54 H 0.81420 0.88939 0.82258
 C55 C 0.17222 0.83601 1.20527
 C56 C 0.15989 0.81096 1.19000
 C57 C 0.17305 0.79940 1.16387
 C58 C 0.19894 0.81298 1.15304
 C59 C 0.21109 0.83839 1.16717
 C60 C 0.19715 0.85006 1.19254
 H61 H 0.14066 0.79960 1.19868
 H62 H 0.21008 0.80323 1.13397
 H63 H 0.20549 0.87103 1.20174
 C64 C 0.84324 1.15412 1.19714
 C65 C 0.81867 1.13924 1.18435
 C66 C 0.80311 1.15163 1.16023
 C67 C 0.81317 1.17874 1.14772
 C68 C 0.83799 1.19375 1.15929
 C69 C 0.85257 1.18151 1.18408
 H70 H 0.81197 1.11727 1.19233
 H71 H 0.80145 1.18842 1.12907
 H72 H 0.87013 1.19459 1.19411
 N73 N 0.52971 1.05592 0.95951
 N74 N 0.55321 1.07302 0.95500
 N75 N 0.46522 1.03552 0.94309
 N76 N 0.44066 1.03873 0.92742
 N77 N 0.46739 1.05726 0.96294
 N78 N 0.44450 1.07597 0.96121
 N79 N 0.52749 1.03513 0.93870
 N80 N 0.54933 1.03754 0.91948
 C81 C 0.56516 1.06132 0.92982
 C82 C 0.42805 1.06417 0.93896
 N83 N 0.46794 0.94888 0.96346
 N84 N 0.44478 0.93083 0.96260
 N85 N 0.52786 0.97013 0.93896
 N86 N 0.55033 0.96778 0.92039
 N87 N 0.53030 0.94989 0.96005
 N88 N 0.55456 0.93329 0.95647
 N89 N 0.46550 0.97012 0.94334
 N90 N 0.44051 0.96712 0.92828
 Mn91 Mn 0.49635 1.00272 0.94065
 C92 C 0.42789 0.94234 0.94051
 C93 C 0.56670 0.94460 0.93148
 N94 N 0.47042 1.05774 1.02626
 N95 N 0.44629 1.07472 1.02833
 N96 N 0.53319 1.03637 1.04461
 N97 N 0.55751 1.03882 1.06072
 N98 N 0.53296 1.05661 1.02339
 N99 N 0.55713 1.07328 1.02443
 N100 N 0.47060 1.03676 1.04683
 N101 N 0.44659 1.03917 1.06356
 Mn102 Mn 0.50027 1.05727 0.99307
 C103 C 0.43173 1.06317 1.05182
 C104 C 0.57215 1.06205 1.04798
 N105 N 0.53373 0.95052 1.02378
 N106 N 0.55794 0.93352 1.02515
 N107 N 0.47122 0.97088 1.04713
 N108 N 0.44765 0.96829 1.06433
 N109 N 0.47131 0.94964 1.02660
 N110 N 0.44776 0.93235 1.02903
 N111 N 0.53374 0.97117 1.04486
 N112 N 0.55793 0.96865 1.06122
 Mn113 Mn 0.50097 0.94937 0.99349
 Mn114 Mn 0.50207 1.00381 1.04632
 Cl115 Cl 0.49992 1.00330 0.99340
 C116 C 0.57276 0.94498 1.04872
 C117 C 0.43333 0.94401 1.05274
 N118 N 0.03787 0.46626 0.04877
 N119 N 0.04313 0.44155 0.06434
 N120 N 0.05474 0.53217 0.02999
 N121 N 0.07283 0.55540 0.03381
 N122 N 0.03665 0.52990 0.05263
 N123 N 0.04201 0.55117 0.07246
 N124 N 0.05661 0.46819 0.02662
 N125 N 0.07532 0.44497 0.02672
 C126 C 0.06664 0.42858 0.05041
 C127 C 0.06454 0.56699 0.06052
 N128 N 0.02479 0.53494 -0.05176
 N129 N 0.02452 0.55991 -0.06774
 N130 N 0.04924 0.47074 -0.03680
 N131 N 0.06592 0.44646 -0.04201
 N132 N 0.02614 0.47104 -0.05456
 N133 N 0.02640 0.44705 -0.07213
 N134 N 0.04760 0.53471 -0.03365
 N135 N 0.06357 0.55944 -0.03699
 Mn136 Mn 0.05249 0.50154 -0.00355
 C137 C 0.04895 0.57489 -0.05845
 C138 C 0.05144 0.43202 -0.06428
 N139 N -0.02667 0.52928 0.05924
 N140 N -0.02747 0.55307 0.07718
 N141 N -0.04856 0.46618 0.03806
 N142 N -0.06535 0.44211 0.04184
 N143 N -0.02550 0.46521 0.05578
 N144 N -0.02582 0.44036 0.07193
 N145 N -0.04949 0.52979 0.04115
 N146 N -0.06656 0.55361 0.04648
 Mn147 Mn 0.00561 0.49760 0.05445
 C148 C -0.05267 0.56785 0.06911
 C149 C -0.05089 0.42623 0.06310
 N150 N -0.03732 0.46987 -0.04765
 N151 N -0.04119 0.44601 -0.06502
 N152 N -0.05642 0.53304 -0.02217
 N153 N -0.07371 0.55744 -0.02192
 N154 N -0.03839 0.53361 -0.04495
 N155 N -0.04295 0.55819 -0.06084
 N156 N -0.05549 0.46900 -0.02498
 N157 N -0.07198 0.44447 -0.02615
 Mn158 Mn -0.00620 0.50233 -0.05009
 Mn159 Mn -0.05287 0.49956 0.00804
 Cl160 Cl -0.00021 0.50026 0.00223
 C161 C -0.06301 0.43045 -0.05135
 C162 C -0.06512 0.57282 -0.04636
 N163 N 1.03305 0.05164 0.52431
 N164 N 1.03699 0.07172 0.54564
 N165 N 1.05021 0.02476 0.46382
 N166 N 1.06841 0.02654 0.44114
 N167 N 1.02955 0.04587 0.46236
 N168 N 1.03319 0.06263 0.43843
 N169 N 1.05292 0.02975 0.52596
 N170 N 1.07079 0.03426 0.54879
 C171 C 1.06065 0.06073 0.56066
 C172 C 1.05759 0.05016 0.42541
 N173 N 1.02834 -0.06032 0.46955
 N174 N 1.02971 -0.07941 0.44692
 N175 N 1.05270 -0.03570 0.52981
 N176 N 1.07157 -0.03753 0.55206
 N177 N 1.03219 -0.05653 0.53196
 N178 N 1.03634 -0.07285 0.55610
 N179 N 1.04950 -0.04010 0.46786
 N180 N 1.06589 -0.04495 0.44410
 Mn181 Mn 1.05169 -0.00533 0.49698
 C182 C 1.05338 -0.06960 0.43129
 C183 C 1.06113 -0.06082 0.56829
 N184 N 0.96549 0.04720 0.46643
 N185 N 0.96127 0.06264 0.44181
 N186 N 0.94933 0.03184 0.53198
 N187 N 0.93401 0.03658 0.55643
 N188 N 0.96949 0.05286 0.52855
 N189 N 0.96836 0.07254 0.55073
 N190 N 0.94443 0.02714 0.47002
 N191 N 0.92530 0.02845 0.44791
 Mn192 Mn 0.99936 0.04979 0.49524
 C193 C 0.93602 0.05079 0.43054
 C194 C 0.94601 0.06210 0.56788
 N195 N 0.96889 -0.05515 0.53577
 N196 N 0.96896 -0.07060 0.56067
 N197 N 0.94373 -0.03763 0.47476
 N198 N 0.92438 -0.04091 0.45317
 N199 N 0.96433 -0.05882 0.47339
 N200 N 0.95956 -0.07706 0.45051
 N201 N 0.94880 -0.03342 0.53665
 N202 N 0.93446 -0.03373 0.56218
 Mn203 Mn 0.99841 -0.05815 0.50255
 Mn204 Mn 0.94623 -0.00299 0.50350
 Cl205 Cl 0.99894 -0.00417 0.49955
 C206 C 0.94725 -0.05721 0.57688
 C207 C 0.93432 -0.06563 0.43829
 C208 C 1.09407 0.13403 0.24860
 C209 C 1.10989 0.11861 0.27102
 C210 C 1.14030 0.11220 0.26582
 C211 C 1.15440 0.12236 0.23999
 C212 C 1.13874 0.13873 0.21817
 C213 C 1.10814 0.14376 0.22288
 C214 C 1.15675 0.09593 0.28661
 C215 C 1.14363 0.08541 0.31231
 C216 C 1.11344 0.09132 0.31866
 C217 C 1.09656 0.10913 0.29820
 C218 C 1.06722 0.11748 0.30594
 C219 C 1.05458 0.10830 0.33245
 C220 C 1.07031 0.08985 0.35204
 C221 C 1.09976 0.08058 0.34516
 C222 C 1.11418 0.06053 0.36496
 C223 C 1.10026 0.05091 0.39072
 C224 C 1.07160 0.06094 0.39790
 C225 C 1.05667 0.08044 0.37845
 H226 H 1.07054 0.13836 0.24988
 H227 H 1.17805 0.11849 0.23788
 H228 H 1.09434 0.15438 0.20623
 H229 H 1.18008 0.09110 0.28291
 H230 H 1.15813 0.07339 0.32723
 H231 H 1.05357 0.13190 0.29227
 H232 H 1.03210 0.11555 0.33755
 H233 H 1.13599 0.05124 0.36094
 H234 H 1.11217 0.03552 0.40519
 H235 H 1.03425 0.08786 0.38360
 C236 C 0.89795 -0.14714 0.25948
 C237 C 0.88251 -0.13050 0.28152
 C238 C 0.85290 -0.12162 0.27521
 C239 C 0.83920 -0.13016 0.24850
 C240 C 0.85437 -0.14773 0.22711
 C241 C 0.88418 -0.15555 0.23303
 C242 C 0.83677 -0.10455 0.29576
 C243 C 0.84938 -0.09575 0.32242
 C244 C 0.87879 -0.10398 0.32990
 C245 C 0.89543 -0.12226 0.30942
 C246 C 0.92417 -0.13208 0.31776
 C247 C 0.93652 -0.12385 0.34481
 C248 C 0.92102 -0.10521 0.36456
 C249 C 0.89202 -0.09478 0.35732
 C250 C 0.87762 -0.07514 0.37772
 C251 C 0.89139 -0.06640 0.40396
 C252 C 0.91988 -0.07691 0.41107
 C253 C 0.93454 -0.09657 0.39141
 H254 H 0.92090 -0.15372 0.26171
 H255 H 0.81606 -0.12424 0.24538
 H256 H 0.89762 -0.16747 0.21681
 H257 H 0.81403 -0.09782 0.29116
 H258 H 0.83509 -0.08287 0.33694
 H259 H 0.93768 -0.14666 0.30401
 H260 H 0.95863 -0.13199 0.35020
 H261 H 0.85596 -0.06547 0.37392
 H262 H 0.87963 -0.05102 0.41872
 H263 H 0.95678 -0.10448 0.39660
 C264 C 0.85702 0.09630 0.74266
 C265 C 0.87418 0.11247 0.72190
 C266 C 0.88022 0.14327 0.72833
 C267 C 0.86855 0.15732 0.75378
 C268 C 0.85102 0.14128 0.77420
 C269 C 0.84574 0.11039 0.76811
 C270 C 0.89768 0.16021 0.70919
 C271 C 0.90959 0.14727 0.68375
 C272 C 0.90405 0.11676 0.67604
 C273 C 0.88551 0.09923 0.69509
 C274 C 0.87835 0.06935 0.68635
 C275 C 0.88885 0.05698 0.66001
 C276 C 0.90733 0.07354 0.64153
 C277 C 0.91580 0.10342 0.64949
 C278 C 0.93574 0.11861 0.63045
 C279 C 0.94578 0.10506 0.60424
 C280 C 0.93629 0.07608 0.59605
 C281 C 0.91730 0.06034 0.61496
 H282 H 0.85231 0.07250 0.74026
 H283 H 0.87226 0.18139 0.75665
 H284 H 0.83381 0.09629 0.78349
 H285 H 0.90231 0.18385 0.71396
 H286 H 0.92250 0.16217 0.67016
 H287 H 0.86398 0.05503 0.69905
 H288 H 0.88239 0.03408 0.65404
 H289 H 0.94430 0.14084 0.63524
 H290 H 0.96080 0.11748 0.59016
 H291 H 0.91027 0.03761 0.60904
 C292 C 1.09181 -0.13485 0.75042
 C293 C 1.10883 -0.12312 0.72682
 C294 C 1.13974 -0.11968 0.73152
 C295 C 1.15298 -0.12901 0.75814
 C296 C 1.13588 -0.14101 0.78113
 C297 C 1.10516 -0.14350 0.77702
 C298 C 1.15740 -0.10702 0.70959
 C299 C 1.14506 -0.09704 0.68320
 C300 C 1.11445 -0.10003 0.67732
 C301 C 1.09625 -0.11443 0.69896
 C302 C 1.06633 -0.12029 0.69174
 C303 C 1.05442 -0.11189 0.66457
 C304 C 1.07150 -0.09655 0.64384
 C305 C 1.10157 -0.08973 0.65017
 C306 C 1.11735 -0.07240 0.62920
 C307 C 1.10406 -0.06313 0.60284
 C308 C 1.07479 -0.07101 0.59625
 C309 C 1.05859 -0.08774 0.61683
 H310 H 1.06805 -0.13700 0.74931
 H311 H 1.17681 -0.12725 0.76074
 H312 H 1.09122 -0.15193 0.79463
 H313 H 1.18108 -0.10452 0.71296
 H314 H 1.16040 -0.08787 0.66740
 H315 H 1.05163 -0.13219 0.70635
 H316 H 1.03143 -0.11718 0.65988
 H317 H 1.13977 -0.06492 0.63279
 H318 H 1.11687 -0.04980 0.58744
 H319 H 1.03568 -0.09334 0.61211
 C320 C 0.26774 1.10666 1.15708
 C321 C 0.27802 1.11015 1.12777
 C322 C 0.25987 1.12696 1.10807
 C323 C 0.23228 1.13881 1.11729
 C324 C 0.22209 1.13535 1.14663
 C325 C 0.24059 1.11903 1.16624
 C326 C 0.26934 1.13205 1.07914
 C327 C 0.29690 1.12176 1.06954
 C328 C 0.31603 1.10520 1.08838
 C329 C 0.30586 1.09811 1.11752
 C330 C 0.32368 1.07889 1.13524
 C331 C 0.35088 1.06781 1.12528
 C332 C 0.36187 1.07595 1.09761
 C333 C 0.34481 1.09511 1.07889
 C334 C 0.35758 1.10385 1.05164
 C335 C 0.38570 1.09354 1.04326
 C336 C 0.40210 1.07401 1.06148
 C337 C 0.38999 1.06518 1.08863
 H338 H 0.28063 1.09538 1.17391
 H339 H 0.21860 1.15002 1.10092
 H340 H 0.23511 1.11678 1.18942
 H341 H 0.25545 1.14460 1.06380
 H342 H 0.30230 1.12661 1.04684
 H343 H 0.31689 1.07137 1.15683
 H344 H 0.36366 1.05300 1.13963
 H345 H 0.34677 1.11921 1.03654
 H346 H 0.39457 1.10084 1.02221
 H347 H 0.40267 1.05032 1.10302
 C348 C 0.24715 0.91335 0.86143
 C349 C 0.26847 0.89700 0.87808
 C350 C 0.26148 0.86685 0.88594
 C351 C 0.23510 0.85339 0.87617
 C352 C 0.21426 0.86942 0.85878
 C353 C 0.22075 0.89986 0.85206
 C354 C 0.28109 0.84985 0.90317
 C355 C 0.30754 0.86210 0.91303
 C356 C 0.31587 0.89190 0.90556
 C357 C 0.29638 0.90940 0.88715
 C358 C 0.30586 0.93828 0.87777
 C359 C 0.33331 0.94970 0.88607
 C360 C 0.35218 0.93325 0.90460
 C361 C 0.34346 0.90443 0.91521
 C362 C 0.36274 0.88939 0.93520
 C363 C 0.38987 0.90191 0.94327
 C364 C 0.39887 0.92977 0.93179
 C365 C 0.37982 0.94549 0.91261
 H366 H 0.24992 0.93684 0.85566
 H367 H 0.23193 0.82964 0.88109
 H368 H 0.20512 0.91407 0.84024
 H369 H 0.27592 0.82669 0.90916
 H370 H 0.32143 0.84711 0.92582
 H371 H 0.29286 0.95239 0.86321
 H372 H 0.33981 0.97175 0.87790
 H373 H 0.35741 0.86813 0.94545
 H374 H 0.40394 0.88955 0.95856
 H375 H 0.38637 0.96740 0.90410
 C376 C 0.72772 0.89149 1.16141
 C377 C 0.72052 0.89167 1.13089
 C378 C 0.74045 0.87694 1.11114
 C379 C 0.76690 0.86369 1.12161
 C380 C 0.77357 0.86337 1.15200
 C381 C 0.75360 0.87742 1.17167
 C382 C 0.73370 0.87505 1.08104
 C383 C 0.70698 0.88633 1.07019
 C384 C 0.68621 0.90088 1.08899
 C385 C 0.69387 0.90511 1.11948
 C386 C 0.67482 0.92294 1.13744
 C387 C 0.64855 0.93507 1.12639
 C388 C 0.63972 0.92925 1.09733
 C389 C 0.65819 0.91173 1.07825
 C390 C 0.64740 0.90514 1.04946
 C391 C 0.61970 0.91583 1.04010
 C392 C 0.60201 0.93375 1.05883
 C393 C 0.61227 0.94059 1.08734
 H394 H 0.71324 0.90095 1.17810
 H395 H 0.78217 0.85334 1.10595
 H396 H 0.75748 0.87685 1.19532
 H397 H 0.74898 0.86411 1.06574
 H398 H 0.70352 0.88391 1.04669
 H399 H 0.67999 0.92859 1.16010
 H400 H 0.63470 0.94871 1.14099
 H401 H 0.65941 0.89105 1.03393
 H402 H 0.61216 0.91012 1.01799
 H403 H 0.59850 0.95416 1.10210
 C404 C 0.74067 1.14872 0.89479
 C405 C 0.71932 1.13173 0.87904
 C406 C 0.72585 1.12397 0.84926
 C407 C 0.75213 1.13385 0.83575
 C408 C 0.77312 1.15126 0.85142
 C409 C 0.76683 1.15819 0.88130
 C410 C 0.70604 1.10649 0.83287
 C411 C 0.68004 1.09600 0.84547
 C412 C 0.67243 1.10303 0.87506
 C413 C 0.69195 1.12198 0.89185
 C414 C 0.68318 1.13099 0.92065
 C415 C 0.65661 1.12142 0.93287
 C416 C 0.63790 1.10207 0.91722
 C417 C 0.64569 1.09218 0.88827
 C418 C 0.62648 1.07150 0.87391
 C419 C 0.60053 1.06171 0.88751
 C420 C 0.59262 1.07220 0.91573
 C421 C 0.61142 1.09240 0.93051
 H422 H 0.73826 1.15453 0.91786
 H423 H 0.75524 1.12880 0.81249
 H424 H 0.78265 1.17000 0.89511
 H425 H 0.71076 1.10063 0.80999
 H426 H 0.66600 1.08290 0.83105
 H427 H 0.69611 1.14607 0.93424
 H428 H 0.65077 1.12910 0.95498
 H429 H 0.63107 1.06191 0.85240
 H430 H 0.58653 1.04579 0.87575
 H431 H 0.60569 1.10025 0.95260
 C432 C 0.09732 0.24274 0.12385
 C433 C 0.11458 0.26707 0.11337
 C434 C 0.14583 0.26319 0.11299
 C435 C 0.15910 0.23707 0.12520
 C436 C 0.14164 0.21389 0.13707
 C437 C 0.11067 0.21670 0.13532
 C438 C 0.16370 0.28559 0.10081
 C439 C 0.15126 0.31180 0.08891
 C440 C 0.12034 0.31722 0.08978
 C441 C 0.10185 0.29499 0.10326
 C442 C 0.07147 0.30190 0.10735
 C443 C 0.05944 0.32943 0.09834
 C444 C 0.07689 0.35077 0.08402
 C445 C 0.10738 0.34465 0.07864
 C446 C 0.12350 0.36624 0.06215
 C447 C 0.11009 0.39318 0.05258
 C448 C 0.08048 0.39967 0.05951
 C449 C 0.06395 0.37831 0.07508
 H450 H 0.07343 0.24289 0.12301
 H451 H 0.18307 0.23529 0.12616
 H452 H 0.09653 0.19863 0.14304
 H453 H 0.18762 0.28279 0.10037
 H454 H 0.16666 0.32808 0.08027
 H455 H 0.05653 0.28693 0.11865
 H456 H 0.03613 0.33399 0.10251
 H457 H 0.14630 0.36272 0.05577
 H458 H 0.12311 0.40923 0.04012
 H459 H 0.04076 0.38294 0.07986
 C460 C -0.11855 0.27299 -0.16357
 C461 C -0.11815 0.28073 -0.13312
 C462 C -0.13243 0.26087 -0.11317
 C463 C -0.14532 0.23385 -0.12337
 C464 C -0.14532 0.22643 -0.15360
 C465 C -0.13201 0.24643 -0.17353
 C466 C -0.13399 0.26813 -0.08313
 C467 C -0.12258 0.29524 -0.07248
 C468 C -0.10835 0.31591 -0.09144
 C469 C -0.10475 0.30779 -0.12194
 C470 C -0.08749 0.32671 -0.14012
 C471 C -0.07523 0.35333 -0.12925
 C472 C -0.08028 0.36261 -0.10012
 C473 C -0.09722 0.34427 -0.08084
 C474 C -0.10289 0.35548 -0.05194
 C475 C -0.09182 0.38340 -0.04262
 C476 C -0.07456 0.40099 -0.06157
 C477 C -0.06869 0.39038 -0.09025
 H478 H -0.10951 0.28743 -0.18042
 H479 H -0.15537 0.21856 -0.10765
 H480 H -0.13244 0.24185 -0.19711
 H481 H -0.14461 0.25291 -0.06771
 H482 H -0.12464 0.29899 -0.04898
 H483 H -0.08239 0.32117 -0.16283
 H484 H -0.06203 0.36708 -0.14399
 H485 H -0.11647 0.34366 -0.03621
 H486 H -0.09678 0.39121 -0.02036
 H487 H -0.05557 0.40406 -0.10513
 C488 C 0.15473 0.73714 -0.10979
 C489 C 0.12459 0.72840 -0.11005
 C490 C 0.10394 0.74790 -0.12431
 C491 C 0.11317 0.77547 -0.13663
 C492 C 0.14314 0.78382 -0.13612
 C493 C 0.16373 0.76422 -0.12271
 C494 C 0.07422 0.73968 -0.12650
 C495 C 0.06459 0.71200 -0.11574
 C496 C 0.08428 0.69166 -0.10154
 C497 C 0.11442 0.70070 -0.09734
 C498 C 0.13327 0.68196 -0.08024
 C499 C 0.12345 0.65472 -0.06870
 C500 C 0.09475 0.64464 -0.07425
 C501 C 0.07477 0.66274 -0.09101
 C502 C 0.04632 0.65075 -0.09707
 C503 C 0.03813 0.62229 -0.08657
 C504 C 0.05780 0.60493 -0.06952
 C505 C 0.08602 0.61633 -0.06329
 H506 H 0.17211 0.72309 -0.10068
 H507 H 0.09689 0.79042 -0.14673
 H508 H 0.18717 0.76944 -0.12276
 H509 H 0.05826 0.75460 -0.13714
 H510 H 0.04128 0.70749 -0.11832
 H511 H 0.15570 0.68808 -0.07473
 H512 H 0.13871 0.64114 -0.05562
 H513 H 0.03011 0.66241 -0.11047
 H514 H 0.01620 0.61388 -0.09178
 H515 H 0.10148 0.60286 -0.05033
 C516 C -0.16501 0.72729 0.12254
 C517 C -0.13449 0.71936 0.12209
 C518 C -0.11423 0.74009 0.13485
 C519 C -0.12420 0.76798 0.14637
 C520 C -0.15453 0.77543 0.14690
 C521 C -0.17476 0.75473 0.13489
 C522 C -0.08412 0.73280 0.13642
 C523 C -0.07365 0.70484 0.12649
 C524 C -0.09288 0.68333 0.11366
 C525 C -0.12351 0.69135 0.11006
 C526 C -0.14200 0.67138 0.09409
 C527 C -0.13121 0.64411 0.08279
 C528 C -0.10188 0.63520 0.08765
 C529 C -0.08237 0.65432 0.10367
 C530 C -0.05329 0.64331 0.10936
 C531 C -0.04386 0.61503 0.09865
 C532 C -0.06295 0.59697 0.08181
 C533 C -0.09195 0.60714 0.07650
 H534 H -0.18205 0.71233 0.11454
 H535 H -0.10819 0.78387 0.15522
 H536 H -0.19838 0.75932 0.13570
 H537 H -0.06849 0.74868 0.14594
 H538 H -0.05008 0.70108 0.12844
 H539 H -0.16485 0.67662 0.08914
 H540 H -0.14615 0.62966 0.07036
 H541 H -0.03746 0.65571 0.12248
 H542 H -0.02140 0.60747 0.10324
 H543 H -0.10700 0.59304 0.06382
 C544 C 1.12774 0.09307 0.74445
 C545 C 1.12002 0.11068 0.71948
 C546 C 1.12009 0.14272 0.72275
 C547 C 1.12981 0.15629 0.74927
 C548 C 1.13892 0.13842 0.77327
 C549 C 1.13692 0.10676 0.77077
 C550 C 1.11086 0.16108 0.69940
 C551 C 1.10117 0.14839 0.67291
 C552 C 1.10121 0.11664 0.66835
 C553 C 1.11201 0.09757 0.69156
 C554 C 1.11534 0.06618 0.68581
 C555 C 1.10756 0.05366 0.65863
 C556 C 1.09532 0.07166 0.63640
 C557 C 1.09142 0.10334 0.64110
 C558 C 1.07722 0.12025 0.61853
 C559 C 1.06769 0.10628 0.59246
 C560 C 1.07237 0.07522 0.58769
 C561 C 1.08648 0.05804 0.60960
 H562 H 1.12650 0.06867 0.74453
 H563 H 1.13109 0.18079 0.75086
 H564 H 1.14268 0.09237 0.78931
 H565 H 1.11095 0.18559 0.70168
 H566 H 1.09473 0.16424 0.65597
 H567 H 1.12485 0.05070 0.70164
 H568 H 1.11075 0.02948 0.65515
 H569 H 1.07222 0.14410 0.62070
 H570 H 1.05646 0.11991 0.57592
 H571 H 1.08956 0.03382 0.60626
 C572 C 0.84883 -0.09671 0.74353
 C573 C 0.87795 -0.10083 0.73274
 C574 C 0.89741 -0.11959 0.74929
 C575 C 0.88809 -0.13283 0.77596
 C576 C 0.85881 -0.12896 0.78649
 C577 C 0.83952 -0.11054 0.76955
 C578 C 0.92606 -0.12546 0.73895
 C579 C 0.93533 -0.11443 0.71176
 C580 C 0.91647 -0.09627 0.69408
 C581 C 0.88801 -0.08786 0.70558
 C582 C 0.87065 -0.06669 0.68964
 C583 C 0.87989 -0.05558 0.66248
 C584 C 0.90641 -0.06558 0.64978
 C585 C 0.92511 -0.08613 0.66532
 C586 C 0.95121 -0.09647 0.65093
 C587 C 0.95822 -0.08687 0.62243
 C588 C 0.93976 -0.06644 0.60734
 C589 C 0.91408 -0.05551 0.62132
 H590 H 0.83214 -0.08404 0.73165
 H591 H 0.90424 -0.14569 0.78854
 H592 H 0.81633 -0.10786 0.77516
 H593 H 0.94129 -0.13941 0.75166
 H594 H 0.95773 -0.12013 0.70541
 H595 H 0.84989 -0.05776 0.69785
 H596 H 0.86574 -0.03947 0.65099
 H597 H 0.96623 -0.11275 0.66065
 H598 H 0.97819 -0.09570 0.61208
 H599 H 0.89960 -0.03980 0.60972
 C600 C 1.16833 -0.12522 0.27914
 C601 C 1.13826 -0.12813 0.28710
 C602 C 1.11986 -0.14564 0.26831
 C603 C 1.13090 -0.15763 0.24141
 C604 C 1.16064 -0.15307 0.23278
 C605 C 1.17916 -0.13744 0.25280
 C606 C 1.09048 -0.15095 0.27642
 C607 C 1.07909 -0.13960 0.30295
 C608 C 1.09644 -0.12146 0.32207
 C609 C 1.12614 -0.11467 0.31334
 C610 C 1.14253 -0.09391 0.33062
 C611 C 1.13085 -0.08110 0.35619
 C612 C 1.10260 -0.08874 0.36592
 C613 C 1.08500 -0.10928 0.34932
 C614 C 1.05685 -0.11694 0.36098
 C615 C 1.04670 -0.10429 0.38765
 C616 C 1.06405 -0.08349 0.40338
 C617 C 1.09193 -0.07581 0.39231
 H618 H 1.18443 -0.11443 0.29326
 H619 H 1.11567 -0.16940 0.22692
 H620 H 1.20274 -0.13537 0.24897
 H621 H 1.07616 -0.16431 0.26223
 H622 H 1.05622 -0.14472 0.30747
 H623 H 1.16429 -0.08625 0.32447
 H624 H 1.14423 -0.06512 0.36862
 H625 H 1.04239 -0.13301 0.35034
 H626 H 1.02507 -0.11067 0.39587
 H627 H 1.10564 -0.05994 0.40451
 C628 C 0.90126 0.13876 0.25498
 C629 C 0.88596 0.12058 0.27556
 C630 C 0.85638 0.11263 0.26864
 C631 C 0.84257 0.12354 0.24286
 C632 C 0.85767 0.14235 0.22279
 C633 C 0.88742 0.14936 0.22932
 C634 C 0.84040 0.09409 0.28765
 C635 C 0.85310 0.08303 0.31344
 C636 C 0.88240 0.09049 0.32164
 C637 C 0.89893 0.11005 0.30266
 C638 C 0.92758 0.11896 0.31175
 C639 C 0.93973 0.10914 0.33830
 C640 C 0.92414 0.08969 0.35675
 C641 C 0.89548 0.07959 0.34852
 C642 C 0.88119 0.05890 0.36763
 C643 C 0.89447 0.04954 0.39401
 C644 C 0.92233 0.06042 0.40235
 C645 C 0.93714 0.08034 0.38351
 H646 H 0.92417 0.14490 0.25771
 H647 H 0.81939 0.11830 0.23951
 H648 H 0.90081 0.16228 0.21414
 H649 H 0.81771 0.08797 0.28251
 H650 H 0.83897 0.06915 0.32686
 H651 H 0.94111 0.13417 0.29911
 H652 H 0.96167 0.11689 0.34446
 H653 H 0.85987 0.04920 0.36279
 H654 H 0.88275 0.03379 0.40803
 H655 H 0.95896 0.08851 0.38958
 C656 C 0.15687 0.27093 -0.12687
 C657 C 0.12668 0.27976 -0.12534
 C658 C 0.10546 0.26008 -0.13823
 C659 C 0.11420 0.23186 -0.15032
 C660 C 0.14417 0.22297 -0.15053
 C661 C 0.16532 0.24318 -0.13931
 C662 C 0.07561 0.26863 -0.13890
 C663 C 0.06633 0.29649 -0.12748
 C664 C 0.08654 0.31669 -0.11401
 C665 C 0.11699 0.30758 -0.11184
 C666 C 0.13661 0.32617 -0.09558
 C667 C 0.12710 0.35320 -0.08267
 C668 C 0.09790 0.36324 -0.08597
 C669 C 0.07725 0.34543 -0.10207
 C670 C 0.04827 0.35742 -0.10590
 C671 C 0.04019 0.38550 -0.09377
 C672 C 0.06049 0.40249 -0.07721
 C673 C 0.08930 0.39117 -0.07330
 H674 H 0.17462 0.28524 -0.11929
 H675 H 0.09757 0.21663 -0.15911
 H676 H 0.18876 0.23764 -0.14031
 H677 H 0.05921 0.25371 -0.14862
 H678 H 0.04288 0.30116 -0.12876
 H679 H 0.15943 0.32000 -0.09162
 H680 H 0.14293 0.36656 -0.07019
 H681 H 0.03148 0.34603 -0.11868
 H682 H 0.01778 0.39386 -0.09724
 H683 H 0.10524 0.40438 -0.06079
 C684 C -0.16253 0.27096 0.12217
 C685 C -0.13196 0.27768 0.11994
 C686 C -0.11146 0.25651 0.13196
 C687 C -0.12132 0.22918 0.14424
 C688 C -0.15169 0.22266 0.14593
 C689 C -0.17211 0.24404 0.13504
 C690 C -0.08118 0.26273 0.13179
 C691 C -0.07074 0.28995 0.12071
 C692 C -0.09020 0.31180 0.10847
 C693 C -0.12113 0.30490 0.10678
 C694 C -0.14009 0.32511 0.09148
 C695 C -0.12947 0.35170 0.07920
 C696 C -0.09977 0.35968 0.08232
 C697 C -0.07973 0.34012 0.09738
 C698 C -0.05017 0.35011 0.10123
 C699 C -0.04101 0.37804 0.09020
 C700 C -0.06077 0.39676 0.07470
 C701 C -0.09008 0.38736 0.07066
 H702 H -0.17969 0.28642 0.11499
 H703 H -0.10519 0.21286 0.15239
 H704 H -0.19573 0.24026 0.13691
 H705 H -0.06536 0.24653 0.14074
 H706 H -0.04704 0.29284 0.12132
 H707 H -0.16327 0.32061 0.08789
 H708 H -0.14483 0.36642 0.06749
 H709 H -0.03376 0.33729 0.11334
 H710 H -0.01826 0.38493 0.09374
 H711 H -0.10559 0.40195 0.05898
 C712 C -0.10816 0.73856 -0.15243
 C713 C -0.11258 0.72818 -0.12320
 C714 C -0.12993 0.74662 -0.10406
 C715 C -0.14145 0.77458 -0.11372
 C716 C -0.13721 0.78478 -0.14300
 C717 C -0.12022 0.76609 -0.16204
 C718 C -0.13593 0.73706 -0.07530
 C719 C -0.12588 0.70906 -0.06531
 C720 C -0.10868 0.68967 -0.08354
 C721 C -0.10089 0.69996 -0.11253
 C722 C -0.08134 0.68192 -0.12972
 C723 C -0.07057 0.65435 -0.11947
 C724 C -0.07919 0.64328 -0.09197
 C725 C -0.09858 0.66052 -0.07363
 C726 C -0.10731 0.64756 -0.04633
 C727 C -0.09672 0.61905 -0.03760
 C728 C -0.07709 0.60260 -0.05564
 C729 C -0.06844 0.61490 -0.08278
 H730 H -0.09636 0.72544 -0.16888
 H731 H -0.15316 0.78863 -0.09776
 H732 H -0.11723 0.77156 -0.18514
 H733 H -0.14899 0.75119 -0.06043
 H734 H -0.13153 0.70352 -0.04282
 H735 H -0.07333 0.68879 -0.15109
 H736 H -0.05549 0.64137 -0.13342
 H737 H -0.12267 0.65858 -0.03142
 H738 H -0.10382 0.60994 -0.01655
 H739 H -0.05338 0.60223 -0.09702
 C740 C 0.14984 0.74571 0.10202
 C741 C 0.13862 0.72049 0.11759
 C742 C 0.13772 0.72248 0.14895
 C743 C 0.14887 0.74807 0.16385
 C744 C 0.16047 0.77259 0.14810
 C745 C 0.16046 0.77120 0.11706
 C746 C 0.12583 0.69887 0.16539
 C747 C 0.11415 0.67348 0.15148
 C748 C 0.11443 0.67032 0.12033
 C749 C 0.12797 0.69361 0.10317
 C750 C 0.13093 0.68895 0.07231
 C751 C 0.12038 0.66285 0.05857
 C752 C 0.10573 0.64068 0.07476
 C753 C 0.10208 0.64436 0.10581
 C754 C 0.08560 0.62213 0.12098
 C755 C 0.07382 0.59725 0.10606
 C756 C 0.07817 0.59328 0.07560
 C757 C 0.09433 0.61500 0.06002
 H758 H 0.15021 0.74675 0.07820
 H759 H 0.14892 0.74860 0.18785
 H760 H 0.16851 0.79010 0.10421
 H761 H 0.12530 0.70012 0.18937
 H762 H 0.10574 0.65625 0.16596
 H763 H 0.14203 0.70482 0.05815
 H764 H 0.12337 0.66021 0.03487
 H765 H 0.08063 0.62367 0.14427
 H766 H 0.06114 0.58095 0.11857
 H767 H 0.09731 0.61237 0.03632
 C768 C 0.24590 1.09108 0.86342
 C769 C 0.26930 1.10904 0.87465
 C770 C 0.26475 1.14089 0.87602
 C771 C 0.23871 1.15406 0.86475
 C772 C 0.21611 1.13605 0.85283
 C773 C 0.21980 1.10443 0.85281
 C774 C 0.28632 1.15959 0.88832
 C775 C 0.31236 1.14742 0.89968
 C776 C 0.31829 1.11593 0.89840
 C777 C 0.29693 1.09656 0.88463
 C778 C 0.30434 1.06563 0.88038
 C779 C 0.33154 1.05394 0.88949
 C780 C 0.35203 1.07227 0.90406
 C781 C 0.34534 1.10331 0.90955
 C782 C 0.36596 1.12038 0.92628
 C783 C 0.39254 1.10744 0.93592
 C784 C 0.39962 1.07727 0.92904
 C785 C 0.37922 1.05970 0.91325
 H786 H 0.24682 1.06664 0.86302
 H787 H 0.23642 1.17857 0.86472
 H788 H 0.20237 1.08983 0.84462
 H789 H 0.28299 1.18397 0.88931
 H790 H 0.32800 1.16355 0.90835
 H791 H 0.28994 1.04999 0.86906
 H792 H 0.33650 1.03019 0.88526
 H793 H 0.36196 1.14358 0.93290
 H794 H 0.40779 1.12127 0.94861
 H795 H 0.38431 1.03605 0.90853
 C796 C 0.28505 0.87884 1.16608
 C797 C 0.29078 0.88196 1.13548
 C798 C 0.27034 0.86888 1.11531
 C799 C 0.24440 0.85496 1.12560
 C800 C 0.23870 0.85274 1.15603
 C801 C 0.25960 0.86437 1.17605
 C802 C 0.27590 0.86969 1.08497
 C803 C 0.30182 0.88233 1.07416
 C804 C 0.32287 0.89561 1.09334
 C805 C 0.31643 0.89693 1.12431
 C806 C 0.33551 0.91366 1.14297
 C807 C 0.36079 0.92744 1.13202
 C808 C 0.36860 0.92434 1.10230
 C809 C 0.34998 0.90802 1.08257
 C810 C 0.35975 0.90402 1.05303
 C811 C 0.38668 0.91588 1.04362
 C812 C 0.40457 0.93251 1.06306
 C813 C 0.39525 0.93704 1.09228
 H814 H 0.30024 0.88653 1.18291
 H815 H 0.22851 0.84608 1.10981
 H816 H 0.25648 0.86199 1.19969
 H817 H 0.26026 0.85999 1.06939
 H818 H 0.30432 0.88212 1.05044
 H819 H 0.33103 0.91725 1.16617
 H820 H 0.37472 0.94014 1.14716
 H821 H 0.34765 0.89094 1.03689
 H822 H 0.39355 0.91199 1.02091
 H823 H 0.40927 0.94956 1.10751
 C824 C 0.72984 1.10971 1.15844
 C825 C 0.72189 1.11058 1.12814
 C826 C 0.74140 1.12538 1.10842
 C827 C 0.76824 1.13761 1.11869
 C828 C 0.77571 1.13675 1.14886
 C829 C 0.75610 1.12275 1.16852
 C830 C 0.73385 1.12834 1.07862
 C831 C 0.70677 1.11802 1.06808
 C832 C 0.68645 1.10336 1.08686
 C833 C 0.69489 1.09808 1.11695
 C834 C 0.67627 1.08016 1.13474
 C835 C 0.64966 1.06893 1.12398
 C836 C 0.64011 1.07575 1.09540
 C837 C 0.65812 1.09338 1.07648
 C838 C 0.64663 1.10090 1.04822
 C839 C 0.61872 1.09089 1.03916
 C840 C 0.60150 1.07284 1.05773
 C841 C 0.61241 1.06520 1.08576
 H842 H 0.71569 1.10022 1.17516
 H843 H 0.78320 1.14805 1.10306
 H844 H 0.76061 1.12252 1.19207
 H845 H 0.74879 1.13938 1.06334
 H846 H 0.70268 1.12123 1.04479
 H847 H 0.68203 1.07370 1.15700
 H848 H 0.63615 1.05516 1.13842
 H849 H 0.65828 1.11515 1.03287
 H850 H 0.61066 1.09720 1.01742
 H851 H 0.59903 1.05150 1.10039
 C852 C 0.75019 0.86844 0.90764
 C853 C 0.72730 0.88103 0.88989
 C854 C 0.73318 0.88488 0.85931
 C855 C 0.76023 0.87520 0.84707
 C856 C 0.78245 0.86228 0.86482
 C857 C 0.77723 0.85930 0.89524
 C858 C 0.71201 0.89821 0.84093
 C859 C 0.68511 0.90836 0.85222
 C860 C 0.67799 0.90498 0.88245
 C861 C 0.69896 0.89007 0.90138
 C862 C 0.69062 0.88408 0.93090
 C863 C 0.66297 0.89273 0.94172
 C864 C 0.64282 0.90840 0.92391
 C865 C 0.65026 0.91539 0.89421
 C866 C 0.62972 0.93293 0.87766
 C867 C 0.60274 0.94227 0.88988
 C868 C 0.59516 0.93430 0.91879
 C869 C 0.61528 0.91736 0.93573
 H870 H 0.74815 0.86583 0.93124
 H871 H 0.76377 0.87732 0.82343
 H872 H 0.79424 0.85005 0.90963
 H873 H 0.71635 0.90101 0.81750
 H874 H 0.66995 0.91801 0.83635
 H875 H 0.70472 0.87193 0.94611
 H876 H 0.65741 0.88734 0.96445
 H877 H 0.63405 0.94050 0.85546
 H878 H 0.58769 0.95577 0.87653
 H879 H 0.60977 0.91168 0.95839
   
