data_POSCAR
  _audit_creation_date              2014-09-24
  _audit_creation_method            'ToBaCCo'
  _symmetry_space_group_name_H-M    'P1'
  _symmetry_Int_Tables_number       1
  _symmetry_cell_setting            triclinic
  loop_
  _symmetry_equiv_pos_as_xyz
 x,y,z
_cell_length_a 26.6912
_cell_length_b 26.5143
_cell_length_c 26.6679
_cell_angle_alpha 89.660300
_cell_angle_beta 89.704900
_cell_angle_gamma 90.874300
loop_
  _atom_site_label
  _atom_site_type_symbol
  _atom_site_fract_x
  _atom_site_fract_y
  _atom_site_fract_z
C1 C 0.28515 0.25718 0.21482
 N2 N 0.28321 0.22135 0.25133
 C3 C 0.24674 0.22176 0.28692
 N4 N 0.21158 0.25823 0.28560
 C5 C 0.21300 0.29429 0.24915
 N6 N 0.24974 0.29342 0.21368
 C7 C 0.71001 -0.25158 0.21145
 N8 N 0.74639 -0.28691 0.21064
 C9 C 0.78263 -0.28741 0.24626
 N10 N 0.78259 -0.25166 0.28257
 C11 C 0.74650 -0.21613 0.28382
 N12 N 0.71055 -0.21609 0.24800
 C13 C 0.71657 0.24450 0.78860
 N14 N 0.71565 0.20862 0.75253
 C15 C 0.75151 0.20807 0.71624
 N16 N 0.78818 0.24420 0.71586
 C17 C 0.78953 0.28037 0.75179
 N18 N 0.75332 0.28046 0.78779
 C19 C 0.29253 -0.25226 0.78276
 N20 N 0.25474 -0.28724 0.78398
 C21 C 0.21723 -0.28578 0.74978
 N22 N 0.21774 -0.24907 0.71407
 C23 C 0.25484 -0.21350 0.71284
 N24 N 0.29209 -0.21529 0.74725
 C25 C 0.71710 -0.25493 0.78662
 N26 N 0.71573 -0.22023 0.74890
 C27 C 0.75090 -0.21999 0.71187
 N28 N 0.78797 -0.25450 0.71300
 C29 C 0.78996 -0.28936 0.75047
 N30 N 0.75406 -0.28964 0.78681
 C31 C 0.28406 0.24898 0.78922
 N32 N 0.28440 0.21303 0.75315
 C33 C 0.24859 0.21200 0.71713
 N34 N 0.21258 0.24763 0.71706
 C35 C 0.21181 0.28372 0.75297
 N36 N 0.24781 0.28437 0.78878
 C37 C 0.29066 -0.24893 0.21149
 N38 N 0.25107 -0.28178 0.21000
 C39 C 0.21313 -0.27889 0.24405
 N40 N 0.21517 -0.24273 0.27993
 C41 C 0.25458 -0.20985 0.28208
 N42 N 0.29204 -0.21298 0.24764
 C43 C 0.71420 0.25286 0.21392
 N44 N 0.71365 0.21717 0.25070
 C45 C 0.74825 0.21855 0.28790
 N46 N 0.78357 0.25600 0.28807
 C47 C 0.78402 0.29245 0.25200
 N48 N 0.74937 0.29038 0.21487
 O49 O 0.29105 0.05534 0.45176
 O50 O 0.29235 -0.04633 0.54606
 O51 O 0.29446 -0.04263 0.44821
 O52 O 0.29055 0.05162 0.54867
 O53 O 0.20783 0.04887 0.54743
 O54 O 0.21183 -0.04779 0.44890
 O55 O 0.20962 -0.04841 0.54661
 O56 O 0.20844 0.05060 0.44958
 Cu57 Cu 0.30043 0.00470 0.49865
 Cu58 Cu 0.20110 0.00044 0.49784
 C59 C 0.24953 0.07042 0.43468
 C60 C 0.25114 -0.06397 0.56321
 C61 C 0.25387 -0.06139 0.43146
 C62 C 0.24858 0.06627 0.56527
 O63 O 0.79013 0.04531 0.54704
 O64 O 0.78670 -0.05015 0.44783
 O65 O 0.78688 0.04799 0.44929
 O66 O 0.78739 -0.05236 0.54549
 O67 O 0.70467 -0.05262 0.54728
 O68 O 0.70419 0.04795 0.45170
 O69 O 0.70399 -0.05072 0.45014
 O70 O 0.70742 0.04562 0.54901
 Cu71 Cu 0.79607 -0.00224 0.49708
 Cu72 Cu 0.69676 -0.00238 0.49963
 C73 C 0.74944 0.06156 0.56519
 C74 C 0.74486 -0.06718 0.43245
 C75 C 0.74538 0.06534 0.43436
 C76 C 0.74606 -0.06973 0.56266
 O77 O 0.45320 0.29409 0.04817
 O78 O 0.55009 0.28808 -0.04974
 O79 O 0.45268 0.28935 -0.04940
 O80 O 0.55028 0.28990 0.04788
 O81 O 0.54710 0.20666 0.05061
 O82 O 0.44915 0.20616 -0.04572
 O83 O 0.54701 0.20485 -0.04646
 O84 O 0.44956 0.21087 0.05134
 Cu85 Cu 0.50189 0.29872 -0.00116
 Cu86 Cu 0.49780 0.19877 0.00271
 C87 C 0.43490 0.25354 0.06655
 C88 C 0.56545 0.24557 -0.06448
 C89 C 0.43396 0.24756 -0.06382
 C90 C 0.56558 0.24829 0.06558
 O91 O 0.54994 0.78614 0.04590
 O92 O 0.45371 0.78551 -0.05244
 O93 O 0.45256 0.78610 0.04518
 O94 O 0.55149 0.78749 -0.05126
 O95 O 0.55089 0.70421 -0.05137
 O96 O 0.45196 0.70282 0.04569
 O97 O 0.45351 0.70224 -0.05247
 O98 O 0.54892 0.70284 0.04638
 Cu99 Cu 0.50186 0.79467 -0.00328
 Cu100 Cu 0.50118 0.69466 -0.00303
 C101 C 0.56555 0.74452 0.06319
 C102 C 0.43746 0.74375 -0.06949
 C103 C 0.43581 0.74436 0.06238
 C104 C 0.56835 0.74614 -0.06756
 O105 O 0.04875 0.45995 0.29066
 O106 O -0.05002 0.55492 0.28982
 O107 O -0.04909 0.45749 0.29205
 O108 O 0.04769 0.55779 0.28700
 O109 O 0.04650 0.55584 0.20425
 O110 O -0.05026 0.45560 0.20929
 O111 O -0.05088 0.55364 0.20705
 O112 O 0.04723 0.45736 0.20795
 Cu113 Cu -0.00042 0.50773 0.29818
 Cu114 Cu -0.00187 0.50539 0.19881
 C115 C 0.06492 0.44246 0.24953
 C116 C -0.06765 0.57019 0.24839
 C117 C -0.06657 0.43981 0.25146
 C118 C 0.06352 0.57402 0.24480
 O119 O 0.04893 0.54779 0.79662
 O120 O -0.04881 0.44849 0.79632
 O121 O 0.04805 0.44946 0.79695
 O122 O -0.04826 0.54715 0.79640
 O123 O -0.04794 0.54719 0.71361
 O124 O 0.04908 0.44998 0.71415
 O125 O -0.04841 0.44903 0.71352
 O126 O 0.04981 0.54789 0.71382
 Cu127 Cu -0.00018 0.49825 0.80489
 Cu128 Cu 0.00066 0.49863 0.70544
 C129 C 0.06603 0.56481 0.75523
 C130 C -0.06490 0.43142 0.75491
 C131 C 0.06480 0.43283 0.75568
 C132 C -0.06435 0.56406 0.75494
 C133 C 0.32589 0.25652 0.17562
 C134 C 0.30747 0.23720 0.12467
 C135 C 0.34374 0.23660 0.08860
 C136 C 0.39520 0.25556 0.10659
 C137 C 0.38550 0.30831 0.12817
 C138 C 0.34935 0.30871 0.16438
 C139 C 0.37083 0.22312 0.18862
 C140 C 0.40704 0.22278 0.15256
 H141 H 0.26915 0.22505 0.11758
 H142 H 0.33639 0.22409 0.05060
 H143 H 0.40559 0.34235 0.11659
 H144 H 0.33873 0.34300 0.18349
 H145 H 0.37454 0.20224 0.22351
 H146 H 0.44131 0.20165 0.15671
 C147 C 0.67194 0.74781 0.17398
 C148 C 0.69171 0.76366 0.12190
 C149 C 0.65630 0.76228 0.08533
 C150 C 0.60425 0.74501 0.10393
 C151 C 0.61279 0.69372 0.12959
 C152 C 0.64799 0.69525 0.16630
 C153 C 0.62702 0.78249 0.18374
 C154 C 0.59169 0.78081 0.14715
 H155 H 0.73027 0.77513 0.11439
 H156 H 0.66464 0.77238 0.04663
 H157 H 0.59245 0.65926 0.12043
 H158 H 0.65747 0.66211 0.18820
 H159 H 0.62260 0.80572 0.21681
 H160 H 0.55758 0.80253 0.14913
 C161 C 0.67664 0.24456 -0.17137
 C162 C 0.62618 0.26372 -0.19050
 C163 C 0.58934 0.26360 -0.15499
 C164 C 0.60617 0.24413 -0.10351
 C165 C 0.62781 0.19168 -0.11383
 C166 C 0.66479 0.19200 -0.14920
 C167 C 0.68874 0.27748 -0.12547
 C168 C 0.65193 0.27709 -0.09001
 H169 H 0.61997 0.27637 -0.22873
 H170 H 0.55161 0.27601 -0.16289
 H171 H 0.61569 0.15733 -0.09472
 H172 H 0.68406 0.15798 -0.16013
 H173 H 0.72353 0.29858 -0.12063
 H174 H 0.65537 0.29785 -0.05519
 C175 C 0.33083 0.74666 -0.18003
 C176 C 0.37742 0.78023 -0.19103
 C177 C 0.41278 0.77862 -0.15451
 C178 C 0.39865 0.74394 -0.11013
 C179 C 0.34755 0.76254 -0.09193
 C180 C 0.31209 0.76388 -0.12838
 C181 C 0.35218 0.69382 -0.17081
 C182 C 0.38746 0.69233 -0.13416
 H183 H 0.38288 0.80259 -0.22491
 H184 H 0.44797 0.79957 -0.15731
 H185 H 0.33985 0.77355 -0.05354
 H186 H 0.27414 0.77619 -0.12108
 H187 H 0.34095 0.66048 -0.19164
 H188 H 0.40612 0.65769 -0.12395
 C189 C 0.17405 0.33479 0.24870
 C190 C 0.18420 0.37896 0.21202
 C191 C 0.14822 0.41482 0.21278
 C192 C 0.10515 0.40334 0.24979
 C193 C 0.08565 0.35064 0.23534
 C194 C 0.12164 0.31479 0.23488
 C195 C 0.16723 0.36006 0.29996
 C196 C 0.13116 0.39577 0.30065
 H197 H 0.21706 0.38233 0.18803
 H198 H 0.15048 0.44853 0.18951
 H199 H 0.04680 0.34222 0.22638
 H200 H 0.11356 0.27576 0.22537
 H201 H 0.18924 0.35098 0.33284
 H202 H 0.12264 0.41705 0.33419
 C203 C 0.17596 0.67489 0.75132
 C204 C 0.19330 0.62293 0.73369
 C205 C 0.15675 0.58659 0.73536
 C206 C 0.10607 0.60530 0.75471
 C207 C 0.11773 0.62908 0.80598
 C208 C 0.15416 0.66557 0.80410
 C209 C 0.13004 0.68659 0.71869
 C210 C 0.09351 0.65025 0.72064
 H211 H 0.23111 0.61541 0.72088
 H212 H 0.16335 0.54798 0.72406
 H213 H 0.09870 0.61874 0.84069
 H214 H 0.16608 0.68617 0.83713
 H215 H 0.12598 0.72079 0.69662
 H216 H 0.05859 0.65350 0.70025
 C217 C -0.17949 0.67504 0.24616
 C218 C -0.18796 0.63067 0.20978
 C219 C -0.15104 0.59583 0.21099
 C220 C -0.10878 0.60833 0.24805
 C221 C -0.09042 0.66153 0.23323
 C222 C -0.12733 0.69643 0.23233
 C223 C -0.17272 0.64962 0.29766
 C224 C -0.13570 0.61494 0.29872
 H225 H -0.22041 0.62625 0.18574
 H226 H -0.15216 0.56212 0.18808
 H227 H -0.05164 0.67096 0.22434
 H228 H -0.12002 0.73567 0.22249
 H229 H -0.19549 0.65771 0.33043
 H230 H -0.12717 0.59362 0.33240
 C231 C -0.17203 0.31847 0.75204
 C232 C -0.14827 0.32602 0.80400
 C233 C -0.11287 0.36344 0.80536
 C234 C -0.10390 0.38989 0.75450
 C235 C -0.09144 0.34690 0.71828
 C236 C -0.12703 0.30959 0.71678
 C237 C -0.19136 0.37074 0.73708
 C238 C -0.15573 0.40800 0.73827
 H239 H -0.15800 0.30349 0.83688
 H240 H -0.09261 0.37256 0.83939
 H241 H -0.05723 0.34559 0.69615
 H242 H -0.12277 0.27660 0.69332
 H243 H -0.22979 0.37785 0.72624
 H244 H -0.16374 0.44687 0.72861
 C245 C 0.24645 0.18207 0.32745
 C246 C 0.29743 0.17760 0.35352
 C247 C 0.29878 0.14075 0.38913
 C248 C 0.24881 0.11167 0.39582
 C249 C 0.21015 0.15274 0.40642
 C250 C 0.20874 0.18954 0.37059
 C251 C 0.23476 0.12897 0.30752
 C252 C 0.23591 0.09217 0.34328
 H253 H 0.32962 0.20175 0.34506
 H254 H 0.33218 0.13371 0.41098
 H255 H 0.18623 0.15307 0.43947
 H256 H 0.18354 0.22116 0.37325
 H257 H 0.22611 0.12102 0.26860
 H258 H 0.22840 0.05275 0.33493
 C259 C 0.75079 0.16808 0.67639
 C260 C 0.80224 0.14445 0.66716
 C261 C 0.80227 0.10915 0.63032
 C262 C 0.75064 0.10032 0.60609
 C263 C 0.71554 0.08729 0.65030
 C264 C 0.71544 0.12273 0.68702
 C265 C 0.73465 0.18818 0.62492
 C266 C 0.73446 0.15272 0.58818
 H267 H 0.83573 0.15432 0.68810
 H268 H 0.83585 0.08899 0.62006
 H269 H 0.69313 0.05284 0.65282
 H270 H 0.69290 0.11821 0.72078
 H271 H 0.72420 0.22700 0.61798
 H272 H 0.72400 0.16126 0.54979
 C273 C 0.25431 -0.17272 0.67338
 C274 C 0.20284 -0.14819 0.66759
 C275 C 0.20140 -0.11219 0.63110
 C276 C 0.25178 -0.10361 0.60370
 C277 C 0.28931 -0.09194 0.64576
 C278 C 0.29082 -0.12812 0.68213
 C279 C 0.26745 -0.19203 0.62080
 C280 C 0.26626 -0.15585 0.58438
 H281 H 0.17038 -0.15794 0.69057
 H282 H 0.16766 -0.09131 0.62318
 H283 H 0.31235 -0.05787 0.64713
 H284 H 0.31520 -0.12466 0.71442
 H285 H 0.27705 -0.23084 0.61294
 H286 H 0.27469 -0.16374 0.54536
 C287 C 0.74604 -0.17683 0.32433
 C288 C 0.69376 -0.16839 0.34703
 C289 C 0.69276 -0.13198 0.38280
 C290 C 0.74432 -0.10742 0.39299
 C291 C 0.77838 -0.15188 0.40573
 C292 C 0.77945 -0.18812 0.36984
 C293 C 0.76357 -0.12456 0.30564
 C294 C 0.76278 -0.08829 0.34156
 H295 H 0.66040 -0.18949 0.33618
 H296 H 0.65851 -0.12221 0.40232
 H297 H 0.79940 -0.15491 0.44034
 H298 H 0.80140 -0.22199 0.37410
 H299 H 0.77565 -0.11676 0.26740
 H300 H 0.77406 -0.04946 0.33399
 C301 C 0.67951 0.74507 -0.17494
 C302 C 0.68954 0.71073 -0.12921
 C303 C 0.65284 0.71168 -0.09360
 C304 C 0.60923 0.74647 -0.10666
 C305 C 0.63430 0.79829 -0.11666
 C306 C 0.67110 0.79748 -0.15216
 C307 C 0.62770 0.72802 -0.19393
 C308 C 0.59104 0.72867 -0.15823
 H309 H 0.72286 0.68826 -0.12448
 H310 H 0.65499 0.69009 -0.05898
 H311 H 0.62465 0.83259 -0.09706
 H312 H 0.69258 0.83107 -0.16264
 H313 H 0.62043 0.71633 -0.23220
 H314 H 0.55251 0.71773 -0.16605
 C315 C 0.32362 0.24902 -0.17070
 C316 C 0.33042 0.19703 -0.14608
 C317 C 0.36695 0.19608 -0.11070
 C318 C 0.39339 0.24744 -0.10276
 C319 C 0.41233 0.26335 -0.15507
 C320 C 0.37588 0.26407 -0.19060
 C321 C 0.31428 0.28483 -0.12643
 C322 C 0.35071 0.28382 -0.09090
 H323 H 0.30812 0.16383 -0.15540
 H324 H 0.37558 0.16200 -0.08995
 H325 H 0.45115 0.27306 -0.16346
 H326 H 0.38352 0.27453 -0.22934
 H327 H 0.28161 0.30843 -0.12273
 H328 H 0.34902 0.30649 -0.05717
 C329 C 0.32898 0.74899 0.17388
 C330 C 0.37703 0.77999 0.18491
 C331 C 0.41232 0.77767 0.14803
 C332 C 0.39673 0.74488 0.10325
 C333 C 0.38307 0.69319 0.12660
 C334 C 0.34781 0.69539 0.16364
 C335 C 0.31123 0.76847 0.12264
 C336 C 0.34663 0.76638 0.08582
 H337 H 0.38351 0.80114 0.21906
 H338 H 0.44843 0.79684 0.15083
 H339 H 0.39997 0.65795 0.11557
 H340 H 0.33489 0.66204 0.18402
 H341 H 0.27393 0.78276 0.11586
 H342 H 0.33952 0.77872 0.04766
 C343 C 0.67507 0.25150 0.17339
 C344 C 0.66527 0.19859 0.15194
 C345 C 0.62899 0.19703 0.11624
 C346 C 0.60586 0.24872 0.10486
 C347 C 0.58748 0.26780 0.15588
 C348 C 0.62362 0.26914 0.19173
 C349 C 0.68701 0.28465 0.12707
 C350 C 0.65088 0.28303 0.09125
 H351 H 0.68543 0.16526 0.16349
 H352 H 0.61843 0.16229 0.09746
 H353 H 0.54920 0.27903 0.16326
 H354 H 0.61626 0.28166 0.22971
 H355 H 0.72123 0.30682 0.12224
 H356 H 0.65433 0.30380 0.05616
 C357 C -0.17158 0.67370 0.75142
 C358 C -0.19064 0.62110 0.73590
 C359 C -0.15497 0.58496 0.73734
 C360 C -0.10337 0.60441 0.75437
 C361 C -0.09048 0.64843 0.71860
 C362 C -0.12608 0.68463 0.71686
 C363 C -0.14854 0.66597 0.80367
 C364 C -0.11309 0.62965 0.80528
 H365 H -0.22892 0.61295 0.72456
 H366 H -0.16282 0.54601 0.72737
 H367 H -0.05596 0.65125 0.69698
 H368 H -0.12149 0.71822 0.69372
 H369 H -0.15877 0.68758 0.83654
 H370 H -0.09330 0.62053 0.83953
 C371 C -0.17814 0.33120 0.25221
 C372 C -0.16644 0.35212 0.30471
 C373 C -0.12935 0.38795 0.30502
 C374 C -0.10740 0.40009 0.25274
 C375 C -0.09063 0.34906 0.23218
 C376 C -0.12754 0.31304 0.23197
 C377 C -0.18994 0.37841 0.22055
 C378 C -0.15298 0.41431 0.22097
 H379 H -0.18595 0.34022 0.33871
 H380 H -0.11742 0.40631 0.33930
 H381 H -0.05287 0.34181 0.21907
 H382 H -0.12124 0.27505 0.21855
 H383 H -0.22467 0.38389 0.20035
 H384 H -0.15624 0.44997 0.20112
 C385 C 0.17166 0.32299 0.75343
 C386 C 0.19106 0.37542 0.73710
 C387 C 0.15552 0.41170 0.73810
 C388 C 0.10373 0.39244 0.75557
 C389 C 0.09098 0.34835 0.72048
 C390 C 0.12652 0.31208 0.71917
 C391 C 0.14841 0.33093 0.80561
 C392 C 0.11303 0.36732 0.80683
 H393 H 0.22947 0.38329 0.72557
 H394 H 0.16357 0.45059 0.72755
 H395 H 0.05666 0.34561 0.69891
 H396 H 0.12225 0.27847 0.69646
 H397 H 0.15859 0.30945 0.83872
 H398 H 0.09315 0.37667 0.84106
 C399 C 0.17347 0.68427 0.24389
 C400 C 0.19052 0.63268 0.26344
 C401 C 0.15393 0.59640 0.26326
 C402 C 0.10343 0.61467 0.24343
 C403 C 0.09071 0.66051 0.27580
 C404 C 0.12723 0.69690 0.27621
 C405 C 0.15189 0.67358 0.19152
 C406 C 0.11541 0.63706 0.19123
 H407 H 0.22823 0.62526 0.27638
 H408 H 0.16043 0.55804 0.27585
 H409 H 0.05559 0.66439 0.29605
 H410 H 0.12283 0.73175 0.29681
 H411 H 0.16384 0.69333 0.15763
 H412 H 0.09646 0.62588 0.15705
 C413 C 0.74955 -0.18052 0.67102
 C414 C 0.69716 -0.17304 0.64873
 C415 C 0.69550 -0.13640 0.61279
 C416 C 0.74657 -0.11060 0.60205
 C417 C 0.76448 -0.09150 0.65326
 C418 C 0.76593 -0.12801 0.68932
 C419 C 0.78334 -0.19068 0.62526
 C420 C 0.78160 -0.15418 0.58920
 H421 H 0.66425 -0.19498 0.65992
 H422 H 0.66110 -0.12731 0.59343
 H423 H 0.77487 -0.05249 0.66060
 H424 H 0.77770 -0.12023 0.72744
 H425 H 0.80603 -0.22401 0.62097
 H426 H 0.80279 -0.15646 0.55444
 C427 C 0.25580 -0.16982 0.32196
 C428 C 0.24249 -0.19001 0.37463
 C429 C 0.24202 -0.15385 0.41065
 C430 C 0.25527 -0.10072 0.39104
 C431 C 0.30634 -0.10632 0.36466
 C432 C 0.30662 -0.14240 0.32854
 C433 C 0.21832 -0.12752 0.31224
 C434 C 0.21818 -0.09128 0.34821
 H435 H 0.23440 -0.22943 0.38296
 H436 H 0.23352 -0.16238 0.44968
 H437 H 0.33946 -0.08384 0.37335
 H438 H 0.34007 -0.15061 0.30696
 H439 H 0.19434 -0.12592 0.27953
 H440 H 0.19410 -0.05870 0.34617
 C441 C 0.74763 0.17819 0.32794
 C442 C 0.78175 0.18862 0.37327
 C443 C 0.78043 0.15136 0.40863
 C444 C 0.74544 0.10684 0.39559
 C445 C 0.69420 0.13108 0.38627
 C446 C 0.69546 0.16846 0.35103
 C447 C 0.76405 0.12663 0.30831
 C448 C 0.76301 0.08937 0.34369
 H449 H 0.80442 0.22261 0.37779
 H450 H 0.80192 0.15365 0.44302
 H451 H 0.65996 0.12041 0.40601
 H452 H 0.66238 0.18944 0.34083
 H453 H 0.77562 0.12002 0.26985
 H454 H 0.77356 0.05091 0.33542
 C455 C 0.24866 0.17215 0.67712
 C456 C 0.28283 0.12699 0.68741
 C457 C 0.28215 0.09176 0.65048
 C458 C 0.24770 0.10480 0.60640
 C459 C 0.19609 0.11313 0.63077
 C460 C 0.19669 0.14821 0.66785
 C461 C 0.26567 0.19265 0.62571
 C462 C 0.26527 0.15742 0.58876
 H463 H 0.30500 0.12245 0.72109
 H464 H 0.30371 0.05743 0.65275
 H465 H 0.16211 0.09284 0.62041
 H466 H 0.16327 0.15774 0.68892
 H467 H 0.27711 0.23157 0.61896
 H468 H 0.27622 0.16627 0.55040
   
