data_POSCAR
  _audit_creation_date              2014-09-24
  _audit_creation_method            'ToBaCCo'
  _symmetry_space_group_name_H-M    'P1'
  _symmetry_Int_Tables_number       1
  _symmetry_cell_setting            triclinic
  loop_
  _symmetry_equiv_pos_as_xyz
 x,y,z
_cell_length_a 50.8365
_cell_length_b 41.7680
_cell_length_c 23.1855
_cell_angle_alpha 90.274900
_cell_angle_beta 89.818400
_cell_angle_gamma 89.951600
loop_
  _atom_site_label
  _atom_site_type_symbol
  _atom_site_fract_x
  _atom_site_fract_y
  _atom_site_fract_z
O1 O 0.22920 0.27429 0.18188
 O2 O 0.28151 0.21647 0.22008
 O3 O 0.23361 0.21216 0.18119
 O4 O 0.27846 0.27837 0.21317
 O5 O 0.26571 0.27843 0.30416
 O6 O 0.21874 0.21337 0.27056
 O7 O 0.26673 0.21608 0.30965
 O8 O 0.21632 0.27507 0.27284
 Cu9 Cu 0.25707 0.24534 0.19010
 Cu10 Cu 0.24059 0.24584 0.29836
 C11 C 0.21359 0.28421 0.22114
 C12 C 0.28287 0.20630 0.27164
 C13 C 0.21812 0.20167 0.21975
 C14 C 0.28023 0.28941 0.26403
 O15 O 0.76710 0.22039 0.20002
 O16 O 0.71621 0.28175 0.22925
 O17 O 0.76422 0.28211 0.18717
 O18 O 0.71863 0.21987 0.23601
 O19 O 0.73293 0.22542 0.32511
 O20 O 0.77953 0.28747 0.27557
 O21 O 0.73170 0.28766 0.31743
 O22 O 0.78151 0.22610 0.28912
 Cu23 Cu 0.74005 0.25059 0.20422
 Cu24 Cu 0.75782 0.25729 0.31071
 C25 C 0.78312 0.21293 0.23982
 C26 C 0.71520 0.29500 0.27874
 C27 C 0.78005 0.29503 0.22250
 C28 C 0.71775 0.21195 0.28877
 O29 O 0.73488 0.78076 0.67119
 O30 O 0.78194 0.71880 0.71769
 O31 O 0.73325 0.71895 0.68124
 O32 O 0.78432 0.78010 0.70241
 O33 O 0.77187 0.78611 0.79293
 O34 O 0.71948 0.72631 0.77063
 O35 O 0.76802 0.72454 0.80737
 O36 O 0.72262 0.78799 0.76167
 Cu37 Cu 0.75990 0.74898 0.68413
 Cu38 Cu 0.74423 0.75687 0.79218
 C39 C 0.72057 0.79484 0.70860
 C40 C 0.78309 0.71123 0.77068
 C41 C 0.71728 0.71260 0.72179
 C42 C 0.78723 0.79326 0.75148
 O43 O 0.23463 0.71831 0.83269
 O44 O 0.28122 0.78262 0.79564
 O45 O 0.23156 0.78025 0.82574
 O46 O 0.28453 0.72124 0.80674
 O47 O 0.27411 0.71580 0.71489
 O48 O 0.22046 0.77450 0.73450
 O49 O 0.27049 0.77759 0.70397
 O50 O 0.22452 0.71278 0.74072
 Cu51 Cu 0.25898 0.75123 0.82436
 Cu52 Cu 0.24635 0.74486 0.71427
 C53 C 0.22158 0.70454 0.79297
 C54 C 0.28423 0.79065 0.74322
 C55 C 0.21647 0.78700 0.78394
 C56 C 0.28856 0.70860 0.75759
 C57 C 0.99652 0.06526 0.10220
 C58 C 1.02070 0.05641 0.07768
 C59 C 1.02121 0.03234 0.03510
 C60 C 0.99802 0.01610 0.01859
 C61 C 0.97400 0.02574 0.04432
 C62 C 0.97297 0.05114 0.08411
 C63 C 0.99873 -0.01039 -0.02564
 C64 C 0.97592 -0.01909 -0.05634
 C65 C 0.97566 -0.04560 -0.09372
 C66 C 0.99935 -0.06154 -0.10583
 C67 C 1.02280 -0.05255 -0.07817
 C68 C 1.02200 -0.02787 -0.03661
 H69 H 0.99595 0.08339 0.13572
 H70 H 1.03973 0.02705 0.01414
 H71 H 0.95581 0.01407 0.03307
 H72 H 0.95795 -0.00554 -0.05155
 H73 H 0.99940 -0.08128 -0.13621
 H74 H 1.03956 -0.02302 -0.01198
 C75 C 0.50259 0.55952 0.61334
 C76 C 0.52487 0.55001 0.58180
 C77 C 0.52231 0.52600 0.53951
 C78 C 0.49802 0.51046 0.53004
 C79 C 0.47604 0.52057 0.56281
 C80 C 0.47789 0.54586 0.60271
 C81 C 0.49545 0.48433 0.48554
 C82 C 0.47081 0.47694 0.46090
 C83 C 0.46795 0.45147 0.42185
 C84 C 0.49028 0.43452 0.40367
 C85 C 0.51519 0.44177 0.42605
 C86 C 0.51748 0.46608 0.46791
 H87 H 0.50444 0.57774 0.64646
 H88 H 0.53923 0.52026 0.51310
 H89 H 0.45715 0.50936 0.55678
 H90 H 0.45353 0.49092 0.47121
 H91 H 0.48817 0.41531 0.37248
 H92 H 0.53648 0.46997 0.48751
 C93 C -0.00106 0.43550 0.08827
 C94 C -0.02483 0.44804 0.06784
 C95 C -0.02430 0.47217 0.02582
 C96 C -0.00026 0.48542 0.00659
 C97 C 0.02331 0.47277 0.02936
 C98 C 0.02314 0.44713 0.06831
 C99 C 0.00039 0.51239 -0.03639
 C100 C 0.02349 0.51905 -0.06817
 C101 C 0.02533 0.54598 -0.10386
 C102 C 0.00290 0.56476 -0.11278
 C103 C -0.02083 0.55791 -0.08439
 C104 C -0.02168 0.53242 -0.04502
 H105 H -0.00144 0.41633 0.11958
 H106 H -0.04281 0.48056 0.00894
 H107 H 0.04211 0.48236 0.01667
 H108 H 0.04043 0.50354 -0.06574
 H109 H 0.00399 0.58507 -0.14149
 H110 H -0.03952 0.52908 -0.02042
 C111 C 0.49854 0.93691 0.59792
 C112 C 0.47530 0.94776 0.57203
 C113 C 0.47655 0.97276 0.53173
 C114 C 0.50050 0.98859 0.52010
 C115 C 0.52323 0.97828 0.54947
 C116 C 0.52274 0.95161 0.58605
 C117 C 0.50207 1.01540 0.47718
 C118 C 0.52618 1.02286 0.44996
 C119 C 0.52828 1.04857 0.41166
 C120 C 0.50569 1.06585 0.39710
 C121 C 0.48129 1.05864 0.42221
 C122 C 0.47974 1.03390 0.46305
 H123 H 0.49778 0.91629 0.62604
 H124 H 0.45868 0.97973 0.51003
 H125 H 0.54160 0.99095 0.54446
 H126 H 0.54360 1.00867 0.45759
 H127 H 0.50723 1.08525 0.36646
 H128 H 0.46114 1.02983 0.48446
 C129 C 1.20000 0.16355 0.15011
 C130 C 1.18051 0.14174 0.13402
 C131 C 1.16007 0.13421 0.17216
 C132 C 1.16033 0.14718 0.22820
 C133 C 1.18011 0.16852 0.24485
 C134 C 1.19980 0.17776 0.20543
 C135 C 1.13818 0.11392 0.15166
 C136 C 1.11317 0.12075 0.16521
 C137 C 1.09043 0.10380 0.13991
 C138 C 1.06699 0.12086 0.13216
 C139 C 1.04474 0.10573 0.11005
 C140 C 1.04519 0.07287 0.09650
 C141 C 1.06881 0.05579 0.10365
 C142 C 1.09127 0.07113 0.12504
 H143 H 1.21497 0.16962 0.11867
 H144 H 1.18080 0.13176 0.09080
 H145 H 1.14507 0.14110 0.25894
 H146 H 1.17937 0.17859 0.28797
 H147 H 1.14246 0.09552 0.11991
 H148 H 1.10904 0.14147 0.19211
 H149 H 1.06592 0.14609 0.14301
 H150 H 1.02710 0.11983 0.10384
 H151 H 1.06972 0.03038 0.09440
 H152 H 1.10896 0.05719 0.13158
 C153 C 0.67482 0.68706 0.75154
 C154 C 0.65282 0.66827 0.73903
 C155 C 0.65101 0.65165 0.68645
 C156 C 0.67190 0.65384 0.64672
 C157 C 0.69383 0.67284 0.65905
 C158 C 0.69536 0.69001 0.71125
 C159 C 0.62624 0.63464 0.67270
 C160 C 0.62450 0.61055 0.63444
 C161 C 0.59902 0.59547 0.61970
 C162 C 0.59816 0.56283 0.60526
 C163 C 0.57417 0.54804 0.59230
 C164 C 0.55064 0.56579 0.59266
 C165 C 0.55177 0.59877 0.60490
 C166 C 0.57564 0.61342 0.61839
 H167 H 0.67533 0.70009 0.79202
 H168 H 0.63692 0.66715 0.77018
 H169 H 0.67095 0.64204 0.60515
 H170 H 0.70929 0.67472 0.62699
 H171 H 0.60876 0.64203 0.69608
 H172 H 0.64214 0.60068 0.61505
 H173 H 0.61599 0.54862 0.60529
 H174 H 0.57398 0.52258 0.58331
 H175 H 0.53417 0.61337 0.60378
 H176 H 0.57578 0.63891 0.62705
 C177 C -0.19939 0.32628 0.14224
 C178 C -0.17931 0.34567 0.12063
 C179 C -0.15961 0.35759 0.15711
 C180 C -0.16068 0.35003 0.21626
 C181 C -0.18081 0.33062 0.23789
 C182 C -0.20016 0.31814 0.20098
 C183 C -0.13742 0.37556 0.13090
 C184 C -0.12102 0.39449 0.16083
 C185 C -0.09726 0.40957 0.13540
 C186 C -0.07650 0.41776 0.17232
 C187 C -0.05318 0.43054 0.15037
 C188 C -0.05015 0.43573 0.09089
 C189 C -0.07124 0.42862 0.05398
 C190 C -0.09460 0.41572 0.07595
 H191 H -0.21396 0.31705 0.11255
 H192 H -0.17891 0.35093 0.07492
 H193 H -0.14557 0.35786 0.24578
 H194 H -0.18072 0.32458 0.28327
 H195 H -0.13426 0.37210 0.08514
 H196 H -0.12414 0.39798 0.20658
 H197 H -0.07811 0.41365 0.21830
 H198 H -0.03746 0.43638 0.18001
 H199 H -0.06948 0.43242 0.00797
 H200 H -0.11042 0.41078 0.04618
 C201 C 0.32096 0.82767 0.77034
 C202 C 0.34219 0.84715 0.75526
 C203 C 0.34769 0.85396 0.69722
 C204 C 0.33102 0.84131 0.65439
 C205 C 0.30976 0.82176 0.66952
 C206 C 0.30476 0.81429 0.72760
 C207 C 0.37198 0.87219 0.68358
 C208 C 0.37658 0.88694 0.63316
 C209 C 0.40173 0.90341 0.61900
 C210 C 0.40765 0.90967 0.56087
 C211 C 0.43140 0.92427 0.54533
 C212 C 0.44977 0.93291 0.58773
 C213 C 0.44365 0.92736 0.64592
 C214 C 0.41987 0.91303 0.66150
 H215 H 0.31771 0.82236 0.81548
 H216 H 0.35472 0.85645 0.78913
 H217 H 0.33482 0.84522 0.60909
 H218 H 0.29777 0.81165 0.63550
 H219 H 0.38676 0.87272 0.71693
 H220 H 0.36176 0.88636 0.59983
 H221 H 0.39401 0.90279 0.52722
 H222 H 0.43563 0.92822 0.50012
 H223 H 0.45720 0.93449 0.67956
 H224 H 0.41588 0.91002 0.70693
 C225 C -0.19957 0.67324 -0.15520
 C226 C -0.17999 0.65260 -0.13509
 C227 C -0.15750 0.64651 -0.16851
 C228 C -0.15554 0.66003 -0.22380
 C229 C -0.17531 0.68022 -0.24431
 C230 C -0.19728 0.68752 -0.20978
 C231 C -0.13629 0.62619 -0.14490
 C232 C -0.11086 0.63263 -0.15475
 C233 C -0.08891 0.61342 -0.13133
 C234 C -0.06445 0.62824 -0.12347
 C235 C -0.04264 0.61054 -0.10575
 C236 C -0.04468 0.57738 -0.09656
 C237 C -0.06937 0.56264 -0.10304
 C238 C -0.09130 0.58046 -0.12023
 H239 H -0.21639 0.67826 -0.12780
 H240 H -0.18203 0.64215 -0.09264
 H241 H -0.13872 0.65504 -0.25118
 H242 H -0.17303 0.69079 -0.28659
 H243 H -0.14172 0.60712 -0.11574
 H244 H -0.10573 0.65383 -0.17910
 H245 H -0.06213 0.65361 -0.13161
 H246 H -0.02407 0.62280 -0.10002
 H247 H -0.07152 0.53707 -0.09712
 H248 H -0.10973 0.56812 -0.12711
 C249 C 0.30128 1.16599 0.33991
 C250 C 0.32146 1.14566 0.35778
 C251 C 0.34461 1.14279 0.32520
 C252 C 0.34671 1.15943 0.27273
 C253 C 0.32632 1.17943 0.25438
 C254 C 0.30361 1.18335 0.28834
 C255 C 0.36619 1.12249 0.34718
 C256 C 0.39155 1.12997 0.33919
 C257 C 0.41357 1.11133 0.36382
 C258 C 0.43747 1.12700 0.37427
 C259 C 0.45913 1.11014 0.39515
 C260 C 0.45753 1.07703 0.40515
 C261 C 0.43346 1.06136 0.39546
 C262 C 0.41169 1.07831 0.37493
 H263 H 0.28389 1.16829 0.36673
 H264 H 0.31930 1.13281 0.39800
 H265 H 0.36405 1.15699 0.24585
 H266 H 0.32860 1.19238 0.21432
 H267 H 0.36097 1.10257 0.37465
 H268 H 0.39648 1.15184 0.31665
 H269 H 0.43941 1.15241 0.36615
 H270 H 0.47723 1.12305 0.40308
 H271 H 0.43173 1.03578 0.40183
 H272 H 0.39376 1.06528 0.36601
 C273 C 1.17614 -0.18737 -0.25056
 C274 C 1.15338 -0.16950 -0.23939
 C275 C 1.14907 -0.15568 -0.18492
 C276 C 1.16805 -0.15992 -0.14169
 C277 C 1.19061 -0.17814 -0.15247
 C278 C 1.19486 -0.19252 -0.20686
 C279 C 1.12388 -0.13899 -0.17318
 C280 C 1.12155 -0.11511 -0.13466
 C281 C 1.09607 -0.09956 -0.12128
 C282 C 1.09562 -0.06700 -0.10645
 C283 C 1.07189 -0.05178 -0.09276
 C284 C 1.04810 -0.06901 -0.09220
 C285 C 1.04873 -0.10188 -0.10587
 C286 C 1.07241 -0.11695 -0.12055
 H287 H 1.17857 -0.19800 -0.29296
 H288 H 1.13895 -0.16669 -0.27328
 H289 H 1.16507 -0.15025 -0.09878
 H290 H 1.20445 -0.18147 -0.11757
 H291 H 1.10690 -0.14612 -0.19825
 H292 H 1.13896 -0.10566 -0.11385
 H293 H 1.11365 -0.05318 -0.10633
 H294 H 1.07219 -0.02637 -0.08336
 H295 H 1.03100 -0.11618 -0.10440
 H296 H 1.07226 -0.14236 -0.12997
 C297 C 0.69626 0.33798 0.34184
 C298 C 0.67566 0.35838 0.35769
 C299 C 0.65245 0.35925 0.32528
 C300 C 0.65075 0.34057 0.27473
 C301 C 0.67152 0.32045 0.25841
 C302 C 0.69427 0.31847 0.29247
 C303 C 0.63040 0.37958 0.34568
 C304 C 0.60515 0.37148 0.33785
 C305 C 0.58281 0.39003 0.36208
 C306 C 0.55903 0.37410 0.37285
 C307 C 0.53731 0.39068 0.39478
 C308 C 0.53874 0.42378 0.40570
 C309 C 0.56257 0.43977 0.39496
 C310 C 0.58438 0.42312 0.37328
 H311 H 0.71363 0.33720 0.36870
 H312 H 0.67754 0.37281 0.39642
 H313 H 0.63340 0.34143 0.24783
 H314 H 0.66948 0.30581 0.22001
 H315 H 0.63522 0.40014 0.37223
 H316 H 0.60057 0.34911 0.31628
 H317 H 0.55730 0.34863 0.36458
 H318 H 0.51938 0.37753 0.40335
 H319 H 0.56415 0.46536 0.40187
 H320 H 0.60214 0.43640 0.36399
 C321 C 0.82581 -0.17795 -0.28452
 C322 C 0.84738 -0.15795 -0.27471
 C323 C 0.85143 -0.14394 -0.22040
 C324 C 0.83333 -0.15033 -0.17584
 C325 C 0.81180 -0.17043 -0.18548
 C326 C 0.80788 -0.18487 -0.23979
 C327 C 0.87567 -0.12495 -0.21060
 C328 C 0.87769 -0.10255 -0.16920
 C329 C 0.90264 -0.08626 -0.15365
 C330 C 0.90458 -0.07262 -0.09846
 C331 C 0.92807 -0.05886 -0.07982
 C332 C 0.95023 -0.05801 -0.11621
 C333 C 0.94809 -0.07061 -0.17233
 C334 C 0.92452 -0.08453 -0.19101
 H335 H 0.82358 -0.18852 -0.32698
 H336 H 0.86114 -0.15365 -0.30960
 H337 H 0.83617 -0.14089 -0.13280
 H338 H 0.79860 -0.17521 -0.14978
 H339 H 0.89241 -0.13048 -0.23776
 H340 H 0.86064 -0.09696 -0.14295
 H341 H 0.88807 -0.07349 -0.06885
 H342 H 0.92909 -0.04982 -0.03603
 H343 H 0.96465 -0.06977 -0.20177
 H344 H 0.92364 -0.09375 -0.23459
 C345 C 0.31665 0.32536 0.23193
 C346 C 0.33707 0.34666 0.24373
 C347 C 0.34130 0.35793 0.29998
 C348 C 0.32429 0.34779 0.34436
 C349 C 0.30385 0.32628 0.33256
 C350 C 0.30008 0.31446 0.27633
 C351 C 0.36497 0.37770 0.31093
 C352 C 0.36772 0.39741 0.35636
 C353 C 0.39269 0.41425 0.37007
 C354 C 0.39692 0.42446 0.42704
 C355 C 0.42102 0.43771 0.44331
 C356 C 0.44143 0.44113 0.40281
 C357 C 0.43680 0.43250 0.34516
 C358 C 0.41263 0.41943 0.32877
 H359 H 0.31433 0.31677 0.18810
 H360 H 0.34994 0.35393 0.20885
 H361 H 0.32730 0.35523 0.38858
 H362 H 0.29151 0.31819 0.36774
 H363 H 0.38095 0.37493 0.28043
 H364 H 0.35163 0.40008 0.38669
 H365 H 0.38186 0.42109 0.45962
 H366 H 0.42409 0.44403 0.48815
 H367 H 0.45201 0.43555 0.31284
 H368 H 0.40989 0.41334 0.28385
 C369 C 0.19531 0.67362 -0.13470
 C370 C 0.17577 0.65135 -0.12124
 C371 C 0.16280 0.63420 -0.16496
 C372 C 0.17066 0.63888 -0.22261
 C373 C 0.19008 0.66133 -0.23609
 C374 C 0.20234 0.67927 -0.19236
 C375 C 0.14096 0.61249 -0.14821
 C376 C 0.12276 0.60123 -0.18499
 C377 C 0.09899 0.58348 -0.16598
 C378 C 0.07666 0.58373 -0.20147
 C379 C 0.05300 0.57023 -0.18270
 C380 C 0.05118 0.55608 -0.12795
 C381 C 0.07397 0.55409 -0.09394
 C382 C 0.09766 0.56739 -0.11286
 H383 H 0.20445 0.68696 -0.09998
 H384 H 0.17034 0.64807 -0.07643
 H385 H 0.16197 0.62547 -0.25765
 H386 H 0.19535 0.66481 -0.28092
 H387 H 0.13871 0.60799 -0.10257
 H388 H 0.12369 0.60769 -0.23002
 H389 H 0.07725 0.59542 -0.24306
 H390 H 0.03599 0.57151 -0.21056
 H391 H 0.07330 0.54341 -0.05150
 H392 H 0.11464 0.56539 -0.08516
 C393 C 0.69765 1.17951 0.36493
 C394 C 0.67865 1.15736 0.38253
 C395 C 0.66130 1.14354 0.34251
 C396 C 0.66351 1.15226 0.28414
 C397 C 0.68247 1.17429 0.26650
 C398 C 0.69964 1.18857 0.30667
 C399 C 0.64005 1.12226 0.36398
 C400 C 0.62567 1.10295 0.33000
 C401 C 0.60200 1.08587 0.35084
 C402 C 0.58121 1.08067 0.31224
 C403 C 0.55750 1.06750 0.33139
 C404 C 0.55431 1.05878 0.38941
 C405 C 0.57565 1.06222 0.42731
 C406 C 0.59928 1.07566 0.40828
 H407 H 0.71046 1.18987 0.39725
 H408 H 0.67727 1.15130 0.42782
 H409 H 0.65016 1.14314 0.25186
 H410 H 0.68321 1.18061 0.22126
 H411 H 0.63544 1.12384 0.40952
 H412 H 0.62990 1.10125 0.28439
 H413 H 0.58295 1.08796 0.26762
 H414 H 0.54148 1.06468 0.30112
 H415 H 0.57370 1.05569 0.47227
 H416 H 0.61522 1.07831 0.43874
 C417 C 0.17021 0.30869 0.24577
 C418 C 0.14809 0.32669 0.23142
 C419 C 0.14677 0.34259 0.17846
 C420 C 0.16810 0.34019 0.13982
 C421 C 0.19014 0.32164 0.15379
 C422 C 0.19133 0.30557 0.20685
 C423 C 0.12211 0.35932 0.16348
 C424 C 0.12115 0.38528 0.12988
 C425 C 0.09592 0.40096 0.11542
 C426 C 0.09488 0.43432 0.10935
 C427 C 0.07119 0.44952 0.09548
 C428 C 0.04817 0.43152 0.08613
 C429 C 0.04944 0.39803 0.09152
 C430 C 0.07298 0.38294 0.10615
 H431 H 0.17040 0.29641 0.28681
 H432 H 0.13182 0.32799 0.26165
 H433 H 0.16738 0.35165 0.09808
 H434 H 0.20607 0.31954 0.12288
 H435 H 0.10413 0.35061 0.18312
 H436 H 0.13923 0.39620 0.11490
 H437 H 0.11236 0.44867 0.11609
 H438 H 0.07092 0.47537 0.09237
 H439 H 0.03236 0.38331 0.08301
 H440 H 0.07333 0.35707 0.10876
 C441 C 0.69463 0.82241 0.63164
 C442 C 0.67433 0.84289 0.61479
 C443 C 0.65961 0.86004 0.65600
 C444 C 0.66647 0.85730 0.71458
 C445 C 0.68667 0.83665 0.73144
 C446 C 0.70071 0.81863 0.69025
 C447 C 0.63730 0.88006 0.63576
 C448 C 0.61777 0.89076 0.67005
 C449 C 0.59429 0.90824 0.64859
 C450 C 0.57181 0.90989 0.68390
 C451 C 0.54879 0.92462 0.66447
 C452 C 0.54770 0.93812 0.60912
 C453 C 0.57047 0.93742 0.57452
 C454 C 0.59354 0.92295 0.59411
 H455 H 0.70510 0.80893 0.59881
 H456 H 0.66972 0.84476 0.56934
 H457 H 0.65643 0.87089 0.74775
 H458 H 0.69112 0.83458 0.77692
 H459 H 0.63623 0.88403 0.58981
 H460 H 0.61779 0.88469 0.71531
 H461 H 0.57190 0.89921 0.72639
 H462 H 0.53180 0.92528 0.69274
 H463 H 0.57035 0.94736 0.53148
 H464 H 0.61054 0.92339 0.56608
 C465 C 0.82522 0.18662 0.26808
 C466 C 0.84666 0.16688 0.25577
 C467 C 0.84765 0.14918 0.20434
 C468 C 0.82650 0.15119 0.16551
 C469 C 0.80512 0.17134 0.17749
 C470 C 0.80445 0.18958 0.22859
 C471 C 0.87215 0.13176 0.19013
 C472 C 0.87332 0.10609 0.15537
 C473 C 0.89883 0.09182 0.13833
 C474 C 0.90123 0.05859 0.13099
 C475 C 0.92536 0.04504 0.11450
 C476 C 0.94737 0.06464 0.10396
 C477 C 0.94459 0.09799 0.11018
 C478 C 0.92071 0.11138 0.12733
 H479 H 0.82537 0.20041 0.30775
 H480 H 0.86282 0.16591 0.28609
 H481 H 0.82696 0.13839 0.12483
 H482 H 0.78941 0.17316 0.14623
 H483 H 0.89012 0.14052 0.20971
 H484 H 0.85541 0.09496 0.14001
 H485 H 0.88453 0.04310 0.13876
 H486 H 0.92680 0.01927 0.11041
 H487 H 0.96078 0.11394 0.10050
 H488 H 0.91922 0.13719 0.13060
 C489 C 0.33120 0.68521 0.79039
 C490 C 0.35332 0.66602 0.78088
 C491 C 0.35521 0.64678 0.73133
 C492 C 0.33443 0.64691 0.69140
 C493 C 0.31246 0.66651 0.70045
 C494 C 0.31076 0.68609 0.74977
 C495 C 0.38006 0.62948 0.71973
 C496 C 0.38139 0.60233 0.68886
 C497 C 0.40679 0.58778 0.67170
 C498 C 0.40875 0.55449 0.66482
 C499 C 0.43213 0.54056 0.64473
 C500 C 0.45382 0.55980 0.62980
 C501 C 0.45173 0.59317 0.63710
 C502 C 0.42858 0.60697 0.65798
 H503 H 0.33054 0.70018 0.82864
 H504 H 0.36921 0.66656 0.81191
 H505 H 0.33558 0.63296 0.65201
 H506 H 0.29703 0.66676 0.66837
 H507 H 0.39792 0.63958 0.73750
 H508 H 0.36347 0.59031 0.67587
 H509 H 0.39213 0.53926 0.67483
 H510 H 0.43309 0.51478 0.64042
 H511 H 0.46766 0.60888 0.62452
 H512 H 0.42744 0.63281 0.66097
   
