data_POSCAR
  _audit_creation_date              2014-09-24
  _audit_creation_method            'ToBaCCo'
  _symmetry_space_group_name_H-M    'P1'
  _symmetry_Int_Tables_number       1
  _symmetry_cell_setting            triclinic
  loop_
  _symmetry_equiv_pos_as_xyz
 x,y,z
_cell_length_a 51.8954
_cell_length_b 51.5491
_cell_length_c 51.3224
_cell_angle_alpha 89.883900
_cell_angle_beta 89.943400
_cell_angle_gamma 90.022700
loop_
  _atom_site_label
  _atom_site_type_symbol
  _atom_site_fract_x
  _atom_site_fract_y
  _atom_site_fract_z
C1 C 0.26756 0.25086 0.23072
 N2 N 0.24888 0.26931 0.23071
 C3 C 0.23006 0.26920 0.24914
 N4 N 0.23006 0.25037 0.26771
 C5 C 0.24861 0.23179 0.26797
 N6 N 0.26730 0.23216 0.24941
 C7 C 0.73049 -0.25204 0.23069
 N8 N 0.74954 -0.27016 0.23048
 C9 C 0.76863 -0.26989 0.24861
 N10 N 0.76851 -0.25107 0.26714
 C11 C 0.74963 -0.23284 0.26771
 N12 N 0.73071 -0.23346 0.24946
 C13 C 0.73162 0.25121 0.76819
 N14 N 0.75030 0.26969 0.76816
 C15 C 0.76945 0.26944 0.75004
 N16 N 0.76964 0.25033 0.73180
 C17 C 0.75106 0.23176 0.73152
 N18 N 0.73212 0.23231 0.74979
 C19 C 0.26863 -0.25273 0.77006
 N20 N 0.24961 -0.27090 0.77031
 C21 C 0.23068 -0.27066 0.75204
 N22 N 0.23079 -0.25197 0.73336
 C23 C 0.24962 -0.23366 0.73279
 N24 N 0.26845 -0.23420 0.75116
 C25 C 0.73084 -0.25232 0.76975
 N26 N 0.74987 -0.27046 0.76996
 C27 C 0.76896 -0.27018 0.75178
 N28 N 0.76885 -0.25133 0.73321
 C29 C 0.75000 -0.23307 0.73263
 N30 N 0.73108 -0.23371 0.75092
 C31 C 0.26737 0.25132 0.76852
 N32 N 0.24872 0.26981 0.76845
 C33 C 0.22977 0.26955 0.75020
 N34 N 0.22960 0.25055 0.73188
 C35 C 0.24815 0.23195 0.73168
 N36 N 0.26696 0.23246 0.75007
 C37 C 0.26874 -0.25255 0.23129
 N38 N 0.24968 -0.27068 0.23114
 C39 C 0.23061 -0.27042 0.24934
 N40 N 0.23075 -0.25159 0.26786
 C41 C 0.24963 -0.23334 0.26837
 N42 N 0.26854 -0.23397 0.25006
 C43 C 0.73169 0.25115 0.23011
 N44 N 0.75034 0.26965 0.23009
 C45 C 0.76944 0.26942 0.24823
 N46 N 0.76961 0.25031 0.26654
 C47 C 0.75105 0.23171 0.26688
 N48 N 0.73216 0.23225 0.24859
 O49 O 0.22729 0.02414 0.47489
 O50 O 0.22747 -0.02632 0.52577
 O51 O 0.22722 0.02405 0.52576
 O52 O 0.22750 -0.02623 0.47489
 O53 O 0.27002 -0.02618 0.47505
 O54 O 0.26974 0.02441 0.52560
 O55 O 0.27000 -0.02625 0.52561
 O56 O 0.26981 0.02448 0.47504
 Cu57 Cu 0.22311 -0.00111 0.50033
 Cu58 Cu 0.27416 -0.00086 0.50033
 C59 C 0.24853 0.03297 0.46629
 C60 C 0.24877 -0.03494 0.53437
 C61 C 0.24844 0.03286 0.53435
 C62 C 0.24881 -0.03483 0.46630
 O63 O 0.77244 0.02440 0.52510
 O64 O 0.77213 -0.02596 0.47433
 O65 O 0.77241 0.02439 0.47422
 O66 O 0.77218 -0.02596 0.52522
 O67 O 0.72965 -0.02590 0.52513
 O68 O 0.72989 0.02474 0.47444
 O69 O 0.72961 -0.02590 0.47457
 O70 O 0.72992 0.02475 0.52502
 Cu71 Cu 0.77655 -0.00080 0.49971
 Cu72 Cu 0.72551 -0.00055 0.49980
 C73 C 0.75123 0.03321 0.53372
 C74 C 0.75082 -0.03457 0.46579
 C75 C 0.75119 0.03320 0.46562
 C76 C 0.75087 -0.03458 0.53387
 O77 O 0.47436 0.23078 0.02467
 O78 O 0.52465 0.23088 -0.02594
 O79 O 0.52467 0.23084 0.02463
 O80 O 0.47434 0.23085 -0.02589
 O81 O 0.47446 0.27366 -0.02608
 O82 O 0.52450 0.27365 0.02474
 O83 O 0.52449 0.27369 -0.02614
 O84 O 0.47446 0.27358 0.02479
 Cu85 Cu 0.49951 0.22655 -0.00063
 Cu86 Cu 0.49948 0.27794 -0.00068
 C87 C 0.46581 0.25216 0.03340
 C88 C 0.53315 0.25230 -0.03473
 C89 C 0.53318 0.25224 0.03335
 C90 C 0.46580 0.25226 -0.03464
 O91 O 0.52476 0.76755 0.02552
 O92 O 0.47442 0.76749 -0.02494
 O93 O 0.47440 0.76749 0.02557
 O94 O 0.52479 0.76752 -0.02498
 O95 O 0.52462 0.72470 -0.02510
 O96 O 0.47462 0.72467 0.02588
 O97 O 0.47463 0.72466 -0.02506
 O98 O 0.52459 0.72473 0.02584
 Cu99 Cu 0.49959 0.77180 0.00028
 Cu100 Cu 0.49962 0.72039 0.00040
 C101 C 0.53325 0.74615 0.03434
 C102 C 0.46594 0.74607 -0.03365
 C103 C 0.46593 0.74608 0.03439
 C104 C 0.53329 0.74612 -0.03371
 O105 O 0.02437 0.47513 0.22649
 O106 O -0.02568 0.52573 0.22632
 O107 O 0.02428 0.52580 0.22653
 O108 O -0.02565 0.47502 0.22627
 O109 O -0.02616 0.47518 0.26928
 O110 O 0.02436 0.52535 0.26954
 O111 O -0.02602 0.52546 0.26933
 O112 O 0.02416 0.47502 0.26949
 Cu113 Cu -0.00065 0.50043 0.22209
 Cu114 Cu -0.00093 0.50025 0.27372
 C115 C 0.03284 0.46643 0.24802
 C116 C -0.03442 0.53423 0.24781
 C117 C 0.03291 0.53419 0.24808
 C118 C -0.03450 0.46648 0.24773
 O119 O 0.02454 0.52504 0.77344
 O120 O -0.02545 0.47434 0.77311
 O121 O 0.02454 0.47436 0.77307
 O122 O -0.02545 0.52505 0.77349
 O123 O -0.02566 0.52522 0.73048
 O124 O 0.02470 0.47494 0.73006
 O125 O -0.02564 0.47493 0.73011
 O126 O 0.02470 0.52525 0.73044
 Cu127 Cu -0.00046 0.49966 0.77759
 Cu128 Cu -0.00047 0.50013 0.72596
 C129 C 0.03321 0.53377 0.75199
 C130 C -0.03412 0.46600 0.75156
 C131 C 0.03320 0.46602 0.75149
 C132 C -0.03414 0.53375 0.75205
 C133 C 0.32702 0.25152 0.17203
 C134 C 0.33025 0.23741 0.19530
 C135 C 0.31090 0.23707 0.21425
 C136 C 0.28800 0.25112 0.21057
 C137 C 0.28479 0.26539 0.18745
 C138 C 0.30399 0.26544 0.16834
 C139 C 0.34753 0.25166 0.15171
 C140 C 0.35238 0.27407 0.13681
 C141 C 0.37148 0.27413 0.11760
 C142 C 0.38646 0.25187 0.11297
 C143 C 0.38173 0.22953 0.12799
 C144 C 0.36242 0.22937 0.14698
 C145 C 0.40688 0.25195 0.09255
 C146 C 0.41179 0.22961 0.07765
 C147 C 0.43105 0.22963 0.05860
 C148 C 0.44561 0.25209 0.05373
 C149 C 0.44065 0.27449 0.06844
 C150 C 0.42164 0.27437 0.08774
 H151 H 0.34790 0.22688 0.19907
 H152 H 0.31406 0.22607 0.23196
 H153 H 0.26727 0.27624 0.18394
 H154 H 0.30058 0.27612 0.15049
 H155 H 0.34158 0.29172 0.14012
 H156 H 0.37430 0.29158 0.10619
 H157 H 0.39310 0.21214 0.12527
 H158 H 0.35902 0.21163 0.15778
 H159 H 0.40052 0.21215 0.08042
 H160 H 0.43429 0.21213 0.04741
 H161 H 0.45171 0.29203 0.06526
 H162 H 0.41876 0.29178 0.09913
 C163 C 0.67163 0.74693 0.17325
 C164 C 0.67044 0.76430 0.19432
 C165 C 0.68989 0.76479 0.21312
 C166 C 0.71090 0.74754 0.21171
 C167 C 0.71187 0.72992 0.19077
 C168 C 0.69266 0.72981 0.17172
 C169 C 0.65110 0.74675 0.15293
 C170 C 0.64383 0.72351 0.14064
 C171 C 0.62485 0.72342 0.12134
 C172 C 0.61226 0.74649 0.11409
 C173 C 0.61933 0.76968 0.12659
 C174 C 0.63863 0.76985 0.14556
 C175 C 0.59193 0.74638 0.09358
 C176 C 0.58886 0.76774 0.07672
 C177 C 0.56964 0.76775 0.05767
 C178 C 0.55338 0.74621 0.05465
 C179 C 0.55652 0.72475 0.07121
 C180 C 0.57540 0.72492 0.09062
 H181 H 0.65430 0.77740 0.19653
 H182 H 0.68817 0.77855 0.22895
 H183 H 0.72772 0.71640 0.18874
 H184 H 0.69459 0.71652 0.15554
 H185 H 0.65263 0.70525 0.14604
 H186 H 0.62029 0.70522 0.11193
 H187 H 0.60983 0.78778 0.12192
 H188 H 0.64392 0.78822 0.15422
 H189 H 0.60152 0.78437 0.07795
 H190 H 0.56779 0.78446 0.04498
 H191 H 0.54407 0.70797 0.06945
 H192 H 0.57675 0.70835 0.10351
 C193 C 0.67178 0.25209 -0.17354
 C194 C 0.66869 0.23788 -0.19670
 C195 C 0.68814 0.23749 -0.21555
 C196 C 0.71101 0.25160 -0.21185
 C197 C 0.71405 0.26601 -0.18886
 C198 C 0.69475 0.26611 -0.16985
 C199 C 0.65120 0.25221 -0.15328
 C200 C 0.64626 0.27462 -0.13852
 C201 C 0.62717 0.27462 -0.11930
 C202 C 0.61228 0.25231 -0.11452
 C203 C 0.61708 0.22996 -0.12943
 C204 C 0.63638 0.22986 -0.14843
 C205 C 0.59192 0.25231 -0.09405
 C206 C 0.58712 0.22995 -0.07903
 C207 C 0.56793 0.22990 -0.05992
 C208 C 0.55331 0.25231 -0.05510
 C209 C 0.55815 0.27472 -0.06992
 C210 C 0.57710 0.27467 -0.08929
 H211 H 0.65109 0.22726 -0.20048
 H212 H 0.68512 0.22638 -0.23316
 H213 H 0.73154 0.27691 -0.18533
 H214 H 0.69805 0.27687 -0.15207
 H215 H 0.65700 0.29231 -0.14193
 H216 H 0.62430 0.29208 -0.10798
 H217 H 0.60577 0.21253 -0.12661
 H218 H 0.63985 0.21212 -0.15912
 H219 H 0.59845 0.21254 -0.08175
 H220 H 0.56477 0.21240 -0.04865
 H221 H 0.54705 0.29222 -0.06679
 H222 H 0.57989 0.29209 -0.10077
 C223 C 0.32737 0.74648 -0.17237
 C224 C 0.30635 0.72932 -0.17077
 C225 C 0.28717 0.72935 -0.18986
 C226 C 0.28815 0.74694 -0.21089
 C227 C 0.30914 0.76425 -0.21236
 C228 C 0.32855 0.76383 -0.19352
 C229 C 0.34789 0.74636 -0.15204
 C230 C 0.36034 0.76949 -0.14478
 C231 C 0.37965 0.76937 -0.12584
 C232 C 0.38677 0.74620 -0.11324
 C233 C 0.37419 0.72310 -0.12036
 C234 C 0.35519 0.72314 -0.13964
 C235 C 0.40714 0.74614 -0.09277
 C236 C 0.42370 0.72472 -0.08974
 C237 C 0.44263 0.72460 -0.07038
 C238 C 0.44578 0.74608 -0.05393
 C239 C 0.42949 0.76759 -0.05701
 C240 C 0.41023 0.76752 -0.07602
 H241 H 0.30443 0.71603 -0.15453
 H242 H 0.27135 0.71579 -0.18779
 H243 H 0.31087 0.77799 -0.22826
 H244 H 0.34468 0.77697 -0.19579
 H245 H 0.35502 0.78784 -0.15353
 H246 H 0.38914 0.78750 -0.12126
 H247 H 0.37878 0.70492 -0.11086
 H248 H 0.34640 0.70486 -0.14493
 H249 H 0.42234 0.70813 -0.10255
 H250 H 0.45510 0.70785 -0.06856
 H251 H 0.43135 0.78431 -0.04441
 H252 H 0.39755 0.78413 -0.07731
 C253 C 0.17101 0.32797 0.24870
 C254 C 0.16753 0.30470 0.26266
 C255 C 0.18675 0.28572 0.26294
 C256 C 0.20977 0.28938 0.24899
 C257 C 0.21323 0.31251 0.23488
 C258 C 0.19416 0.33164 0.23489
 C259 C 0.15061 0.34829 0.24857
 C260 C 0.14601 0.36329 0.22614
 C261 C 0.12702 0.38250 0.22608
 C262 C 0.11188 0.38702 0.24836
 C263 C 0.11636 0.37189 0.27074
 C264 C 0.13557 0.35290 0.27090
 C265 C 0.09156 0.40741 0.24827
 C266 C 0.08653 0.42212 0.27077
 C267 C 0.06735 0.44115 0.27073
 C268 C 0.05299 0.44616 0.24810
 C269 C 0.05807 0.43164 0.22555
 C270 C 0.07700 0.41237 0.22568
 H271 H 0.14979 0.30095 0.27311
 H272 H 0.18340 0.26802 0.27382
 H273 H 0.23084 0.31601 0.22411
 H274 H 0.19775 0.34948 0.22433
 H275 H 0.15693 0.36007 0.20846
 H276 H 0.12440 0.39398 0.20861
 H277 H 0.10487 0.37453 0.28814
 H278 H 0.13878 0.34202 0.28865
 H279 H 0.09765 0.41923 0.28836
 H280 H 0.06401 0.45218 0.28835
 H281 H 0.04716 0.43494 0.20787
 H282 H 0.07997 0.40112 0.20815
 C283 C 0.17136 0.67108 0.75276
 C284 C 0.16724 0.69494 0.74023
 C285 C 0.18658 0.71382 0.73984
 C286 C 0.21022 0.70936 0.75242
 C287 C 0.21418 0.68557 0.76523
 C288 C 0.19501 0.66651 0.76519
 C289 C 0.15106 0.65094 0.75277
 C290 C 0.15690 0.62538 0.74541
 C291 C 0.13765 0.60642 0.74508
 C292 C 0.11236 0.61258 0.75257
 C293 C 0.10657 0.63807 0.76018
 C294 C 0.12571 0.65715 0.76004
 C295 C 0.09204 0.59245 0.75240
 C296 C 0.07623 0.58873 0.77430
 C297 C 0.05724 0.56950 0.77426
 C298 C 0.05339 0.55399 0.75212
 C299 C 0.06905 0.55792 0.73011
 C300 C 0.08837 0.57683 0.73035
 H301 H 0.14918 0.69881 0.73039
 H302 H 0.18293 0.73199 0.72989
 H303 H 0.23223 0.68154 0.77501
 H304 H 0.19854 0.64829 0.77511
 H305 H 0.17629 0.62020 0.73959
 H306 H 0.14256 0.58684 0.73927
 H307 H 0.08715 0.64327 0.76590
 H308 H 0.12082 0.67672 0.76591
 H309 H 0.07884 0.60048 0.79158
 H310 H 0.04539 0.56694 0.79146
 H311 H 0.06657 0.54619 0.71281
 H312 H 0.10025 0.57948 0.71318
 C313 C -0.17266 0.67273 0.24785
 C314 C -0.17140 0.69382 0.26515
 C315 C -0.19080 0.71260 0.26554
 C316 C -0.21183 0.71115 0.24826
 C317 C -0.21288 0.69020 0.23071
 C318 C -0.19372 0.67116 0.23069
 C319 C -0.15219 0.65244 0.24778
 C320 C -0.14494 0.64005 0.22451
 C321 C -0.12599 0.62079 0.22452
 C322 C -0.11342 0.61369 0.24773
 C323 C -0.12048 0.62627 0.27095
 C324 C -0.13974 0.64520 0.27102
 C325 C -0.09309 0.59325 0.24773
 C326 C -0.09005 0.57656 0.26926
 C327 C -0.07083 0.55758 0.26937
 C328 C -0.05454 0.55447 0.24777
 C329 C -0.05765 0.57086 0.22613
 C330 C -0.07653 0.59019 0.22621
 H331 H -0.15524 0.69605 0.27827
 H332 H -0.18902 0.72845 0.27925
 H333 H -0.22875 0.68813 0.21717
 H334 H -0.19570 0.65497 0.21745
 H335 H -0.15374 0.64533 0.20614
 H336 H -0.12143 0.61131 0.20629
 H337 H -0.11099 0.62170 0.28916
 H338 H -0.14503 0.65394 0.28942
 H339 H -0.10273 0.57788 0.28596
 H340 H -0.06901 0.54502 0.28622
 H341 H -0.04518 0.56903 0.20930
 H342 H -0.07786 0.60296 0.20950
 C343 C -0.17234 0.32737 0.75051
 C344 C -0.19354 0.32893 0.76752
 C345 C -0.21257 0.30975 0.76755
 C346 C -0.21124 0.28865 0.75019
 C347 C -0.19011 0.28726 0.73299
 C348 C -0.17085 0.30620 0.73333
 C349 C -0.15191 0.34772 0.75068
 C350 C -0.13926 0.35495 0.72752
 C351 C -0.12000 0.37391 0.72771
 C352 C -0.11315 0.38651 0.75098
 C353 C -0.12594 0.37942 0.77410
 C354 C -0.14488 0.36015 0.77399
 C355 C -0.09281 0.40695 0.75113
 C356 C -0.07642 0.40997 0.77276
 C357 C -0.05754 0.42931 0.77300
 C358 C -0.05425 0.44575 0.75142
 C359 C -0.07036 0.44266 0.72969
 C360 C -0.08957 0.42366 0.72964
 H361 H -0.19570 0.34518 0.78066
 H362 H -0.22853 0.31178 0.78102
 H363 H -0.18813 0.27132 0.71941
 H364 H -0.15458 0.30399 0.72031
 H365 H -0.14437 0.34617 0.70910
 H366 H -0.11035 0.37848 0.70957
 H367 H -0.12154 0.38892 0.79235
 H368 H -0.15384 0.35487 0.79230
 H369 H -0.07790 0.39718 0.78944
 H370 H -0.04521 0.43111 0.78991
 H371 H -0.06839 0.45525 0.71288
 H372 H -0.10211 0.42236 0.71286
 C373 C 0.24836 0.17230 0.32710
 C374 C 0.26248 0.16904 0.30392
 C375 C 0.26268 0.18840 0.28482
 C376 C 0.24849 0.21134 0.28827
 C377 C 0.23420 0.21456 0.31130
 C378 C 0.23428 0.19536 0.33056
 C379 C 0.24835 0.15177 0.34757
 C380 C 0.22609 0.14675 0.36241
 C381 C 0.22615 0.12761 0.38173
 C382 C 0.24837 0.11274 0.38653
 C383 C 0.27057 0.11765 0.37157
 C384 C 0.27061 0.13700 0.35247
 C385 C 0.24839 0.09225 0.40703
 C386 C 0.27059 0.08750 0.42202
 C387 C 0.27068 0.06814 0.44112
 C388 C 0.24847 0.05331 0.44594
 C389 C 0.22622 0.05811 0.43115
 C390 C 0.22623 0.07723 0.41180
 H391 H 0.27313 0.15136 0.30032
 H392 H 0.27371 0.18523 0.26719
 H393 H 0.22323 0.23212 0.31463
 H394 H 0.22358 0.19879 0.34833
 H395 H 0.20847 0.15745 0.35896
 H396 H 0.20880 0.12468 0.39308
 H397 H 0.28793 0.10636 0.37442
 H398 H 0.28823 0.14054 0.34173
 H399 H 0.28785 0.09899 0.41928
 H400 H 0.28806 0.06503 0.45237
 H401 H 0.20887 0.04684 0.43430
 H402 H 0.20894 0.07996 0.40034
 C403 C 0.75167 0.17207 0.67284
 C404 C 0.73741 0.16888 0.69595
 C405 C 0.73712 0.18829 0.71493
 C406 C 0.75138 0.21120 0.71142
 C407 C 0.76585 0.21433 0.68848
 C408 C 0.76585 0.19509 0.66934
 C409 C 0.75167 0.15155 0.65244
 C410 C 0.77395 0.14648 0.63768
 C411 C 0.77386 0.12741 0.61837
 C412 C 0.75159 0.11265 0.61351
 C413 C 0.72937 0.11757 0.62841
 C414 C 0.72936 0.13687 0.64749
 C415 C 0.75151 0.09224 0.59300
 C416 C 0.72932 0.08763 0.57797
 C417 C 0.72918 0.06836 0.55886
 C418 C 0.75134 0.05349 0.55406
 C419 C 0.77359 0.05816 0.56887
 C420 C 0.77363 0.07718 0.58824
 H421 H 0.72667 0.15124 0.69959
 H422 H 0.72595 0.18519 0.73250
 H423 H 0.77688 0.23186 0.68511
 H424 H 0.77667 0.19847 0.65162
 H425 H 0.79161 0.15711 0.64116
 H426 H 0.79123 0.12445 0.60707
 H427 H 0.71197 0.10637 0.62552
 H428 H 0.71173 0.14044 0.65817
 H429 H 0.71210 0.09915 0.58069
 H430 H 0.71181 0.06534 0.54759
 H431 H 0.79090 0.04685 0.56575
 H432 H 0.79091 0.07980 0.59973
 C433 C 0.24944 -0.17434 0.67349
 C434 C 0.23525 -0.19737 0.67018
 C435 C 0.23518 -0.21653 0.68948
 C436 C 0.24959 -0.21331 0.71240
 C437 C 0.26394 -0.19044 0.71568
 C438 C 0.26372 -0.17111 0.69655
 C439 C 0.24934 -0.15381 0.65302
 C440 C 0.27158 -0.13903 0.64795
 C441 C 0.27143 -0.11966 0.62886
 C442 C 0.24914 -0.11476 0.61409
 C443 C 0.22695 -0.12965 0.61905
 C444 C 0.22700 -0.14879 0.63837
 C445 C 0.24904 -0.09424 0.59361
 C446 C 0.22682 -0.07928 0.58899
 C447 C 0.22668 -0.06016 0.56964
 C448 C 0.24886 -0.05529 0.55471
 C449 C 0.27112 -0.07004 0.55939
 C450 C 0.27116 -0.08941 0.57848
 H451 H 0.22444 -0.20079 0.65250
 H452 H 0.22410 -0.23403 0.68627
 H453 H 0.27507 -0.18728 0.73324
 H454 H 0.27448 -0.15347 0.70005
 H455 H 0.28926 -0.14257 0.65854
 H456 H 0.28877 -0.10836 0.62589
 H457 H 0.20953 -0.12672 0.60784
 H458 H 0.20939 -0.15949 0.64195
 H459 H 0.20959 -0.08206 0.60056
 H460 H 0.20929 -0.04894 0.56661
 H461 H 0.28844 -0.06686 0.54803
 H462 H 0.28846 -0.10084 0.58110
 C463 C 0.74992 -0.17356 0.32681
 C464 C 0.76417 -0.19655 0.33014
 C465 C 0.76421 -0.21569 0.31089
 C466 C 0.74971 -0.21249 0.28802
 C467 C 0.73530 -0.18965 0.28472
 C468 C 0.73555 -0.17035 0.30380
 C469 C 0.75005 -0.15307 0.34724
 C470 C 0.72781 -0.13835 0.35236
 C471 C 0.72798 -0.11903 0.37142
 C472 C 0.75031 -0.11412 0.38612
 C473 C 0.77251 -0.12894 0.38110
 C474 C 0.77243 -0.14803 0.36181
 C475 C 0.75044 -0.09366 0.40658
 C476 C 0.77265 -0.07868 0.41114
 C477 C 0.77283 -0.05964 0.43048
 C478 C 0.75069 -0.05485 0.44547
 C479 C 0.72842 -0.06963 0.44086
 C480 C 0.72835 -0.08893 0.42178
 H481 H 0.77505 -0.19997 0.34779
 H482 H 0.77534 -0.23317 0.31412
 H483 H 0.72410 -0.18651 0.26720
 H484 H 0.72474 -0.15273 0.30030
 H485 H 0.71010 -0.14190 0.34182
 H486 H 0.71063 -0.10779 0.37443
 H487 H 0.78995 -0.12600 0.39226
 H488 H 0.79005 -0.15866 0.35819
 H489 H 0.78985 -0.08139 0.39952
 H490 H 0.79021 -0.04840 0.43345
 H491 H 0.71113 -0.06651 0.45226
 H492 H 0.71106 -0.10038 0.41921
 C493 C 0.67196 0.74670 -0.17268
 C494 C 0.69297 0.72953 -0.17114
 C495 C 0.71218 0.72962 -0.19024
 C496 C 0.71125 0.74726 -0.21123
 C497 C 0.69026 0.76455 -0.21265
 C498 C 0.67081 0.76408 -0.19381
 C499 C 0.65142 0.74655 -0.15232
 C500 C 0.63896 0.76966 -0.14504
 C501 C 0.61963 0.76952 -0.12606
 C502 C 0.61252 0.74634 -0.11345
 C503 C 0.62511 0.72325 -0.12059
 C504 C 0.64411 0.72332 -0.13991
 C505 C 0.59213 0.74626 -0.09294
 C506 C 0.57559 0.72481 -0.08986
 C507 C 0.55666 0.72466 -0.07046
 C508 C 0.55346 0.74615 -0.05403
 C509 C 0.56973 0.76769 -0.05717
 C510 C 0.58900 0.76765 -0.07621
 H511 H 0.69487 0.71622 -0.15493
 H512 H 0.72800 0.71607 -0.18819
 H513 H 0.68856 0.77832 -0.22852
 H514 H 0.65470 0.77721 -0.19604
 H515 H 0.64428 0.78802 -0.15378
 H516 H 0.61014 0.78763 -0.12147
 H517 H 0.62051 0.70507 -0.11110
 H518 H 0.65291 0.70505 -0.14522
 H519 H 0.57698 0.70821 -0.10265
 H520 H 0.54421 0.70788 -0.06861
 H521 H 0.56784 0.78443 -0.04458
 H522 H 0.60166 0.78429 -0.07753
 C523 C 0.32701 0.25205 -0.17307
 C524 C 0.33014 0.23787 -0.19625
 C525 C 0.31075 0.23753 -0.21512
 C526 C 0.28790 0.25166 -0.21146
 C527 C 0.28481 0.26604 -0.18844
 C528 C 0.30404 0.26610 -0.16940
 C529 C 0.34754 0.25214 -0.15279
 C530 C 0.35248 0.27454 -0.13801
 C531 C 0.37158 0.27453 -0.11882
 C532 C 0.38647 0.25223 -0.11411
 C533 C 0.38166 0.22989 -0.12903
 C534 C 0.36235 0.22980 -0.14799
 C535 C 0.40689 0.25223 -0.09372
 C536 C 0.41175 0.22986 -0.07876
 C537 C 0.43100 0.22982 -0.05973
 C538 C 0.44560 0.25225 -0.05495
 C539 C 0.44069 0.27467 -0.06971
 C540 C 0.42169 0.27461 -0.08899
 H541 H 0.34773 0.22724 -0.20001
 H542 H 0.31382 0.22643 -0.23275
 H543 H 0.26733 0.27696 -0.18494
 H544 H 0.30070 0.27684 -0.15162
 H545 H 0.34175 0.29223 -0.14138
 H546 H 0.37445 0.29198 -0.10750
 H547 H 0.39296 0.21246 -0.12626
 H548 H 0.35888 0.21207 -0.15869
 H549 H 0.40044 0.21243 -0.08146
 H550 H 0.43420 0.21231 -0.04850
 H551 H 0.45179 0.29219 -0.06660
 H552 H 0.41886 0.29204 -0.10043
 C553 C 0.32752 0.74653 0.17363
 C554 C 0.30650 0.72937 0.17217
 C555 C 0.28732 0.72944 0.19130
 C556 C 0.28830 0.74705 0.21224
 C557 C 0.30930 0.76434 0.21357
 C558 C 0.32872 0.76389 0.19470
 C559 C 0.34802 0.74640 0.15323
 C560 C 0.36048 0.76952 0.14584
 C561 C 0.37977 0.76940 0.12682
 C562 C 0.38685 0.74623 0.11428
 C563 C 0.37426 0.72313 0.12153
 C564 C 0.35529 0.72318 0.14088
 C565 C 0.40719 0.74617 0.09372
 C566 C 0.42372 0.72472 0.09069
 C567 C 0.44261 0.72459 0.07126
 C568 C 0.44578 0.74609 0.05474
 C569 C 0.42952 0.76762 0.05782
 C570 C 0.41029 0.76756 0.07691
 H571 H 0.30456 0.71607 0.15600
 H572 H 0.27148 0.71589 0.18932
 H573 H 0.31104 0.77809 0.22940
 H574 H 0.34485 0.77702 0.19686
 H575 H 0.35519 0.78787 0.15454
 H576 H 0.38926 0.78752 0.12215
 H577 H 0.37883 0.70495 0.11209
 H578 H 0.34650 0.70490 0.14628
 H579 H 0.42236 0.70812 0.10356
 H580 H 0.45506 0.70783 0.06945
 H581 H 0.43138 0.78436 0.04517
 H582 H 0.39763 0.78419 0.07819
 C583 C 0.67194 0.25197 0.17182
 C584 C 0.69489 0.26605 0.16810
 C585 C 0.71416 0.26597 0.18710
 C586 C 0.71111 0.25153 0.21015
 C587 C 0.68827 0.23736 0.21387
 C588 C 0.66885 0.23772 0.19503
 C589 C 0.65138 0.25207 0.15157
 C590 C 0.63658 0.22972 0.14682
 C591 C 0.61727 0.22982 0.12786
 C592 C 0.61244 0.25218 0.11289
 C593 C 0.62732 0.27450 0.11756
 C594 C 0.64642 0.27450 0.13674
 C595 C 0.59204 0.25220 0.09248
 C596 C 0.57723 0.27456 0.08769
 C597 C 0.55824 0.27463 0.06839
 C598 C 0.55336 0.25223 0.05367
 C599 C 0.56797 0.22981 0.05852
 C600 C 0.58720 0.22984 0.07757
 H601 H 0.69820 0.27684 0.15029
 H602 H 0.73163 0.27692 0.18355
 H603 H 0.68524 0.22621 0.23152
 H604 H 0.65126 0.22706 0.19884
 H605 H 0.64006 0.21198 0.15756
 H606 H 0.60598 0.21239 0.12512
 H607 H 0.62444 0.29197 0.10620
 H608 H 0.65714 0.29219 0.14008
 H609 H 0.58003 0.29198 0.09910
 H610 H 0.54714 0.29214 0.06523
 H611 H 0.56479 0.21231 0.04733
 H612 H 0.59852 0.21242 0.08031
 C613 C -0.17240 0.67234 0.75247
 C614 C -0.17111 0.69348 0.73515
 C615 C -0.19048 0.71230 0.73479
 C616 C -0.21152 0.71083 0.75211
 C617 C -0.21259 0.68982 0.76970
 C618 C -0.19345 0.67075 0.76968
 C619 C -0.15195 0.65200 0.75249
 C620 C -0.13949 0.64487 0.72922
 C621 C -0.12024 0.62593 0.72924
 C622 C -0.11320 0.61319 0.75244
 C623 C -0.12580 0.62018 0.77567
 C624 C -0.14474 0.63946 0.77573
 C625 C -0.09288 0.59274 0.75238
 C626 C -0.07637 0.58950 0.77389
 C627 C -0.05748 0.57018 0.77389
 C628 C -0.05430 0.55397 0.75219
 C629 C -0.07055 0.55725 0.73059
 C630 C -0.08978 0.57622 0.73078
 H631 H -0.15496 0.69575 0.72200
 H632 H -0.18868 0.72819 0.72106
 H633 H -0.22845 0.68774 0.78327
 H634 H -0.19545 0.65453 0.78295
 H635 H -0.14474 0.65372 0.71084
 H636 H -0.11074 0.62146 0.71102
 H637 H -0.12127 0.61059 0.79387
 H638 H -0.15354 0.64465 0.79412
 H639 H -0.07774 0.60213 0.79066
 H640 H -0.04504 0.56821 0.79072
 H641 H -0.06867 0.54484 0.71369
 H642 H -0.10242 0.57766 0.71408
 C643 C -0.17247 0.32751 0.24780
 C644 C -0.19358 0.32904 0.23071
 C645 C -0.21257 0.30980 0.23065
 C646 C -0.21127 0.28867 0.24806
 C647 C -0.19021 0.28729 0.26531
 C648 C -0.17099 0.30629 0.26499
 C649 C -0.15212 0.34796 0.24773
 C650 C -0.13962 0.35511 0.27094
 C651 C -0.12043 0.37413 0.27086
 C652 C -0.11349 0.38691 0.24764
 C653 C -0.12614 0.37991 0.22446
 C654 C -0.14501 0.36056 0.22447
 C655 C -0.09321 0.40741 0.24762
 C656 C -0.09011 0.42396 0.26918
 C657 C -0.07091 0.44297 0.26929
 C658 C -0.05466 0.44625 0.24765
 C659 C -0.05784 0.43000 0.22598
 C660 C -0.07672 0.41065 0.22605
 H661 H -0.19572 0.34532 0.21755
 H662 H -0.22846 0.31182 0.21714
 H663 H -0.18825 0.27132 0.27892
 H664 H -0.15479 0.30409 0.27807
 H665 H -0.14479 0.34620 0.28933
 H666 H -0.11089 0.37862 0.28904
 H667 H -0.12167 0.38953 0.20625
 H668 H -0.15385 0.35536 0.20612
 H669 H -0.10274 0.42251 0.28591
 H670 H -0.06904 0.45540 0.28618
 H671 H -0.04541 0.43196 0.20912
 H672 H -0.07809 0.39800 0.20930
 C673 C 0.17090 0.32827 0.75046
 C674 C 0.16660 0.30439 0.73810
 C675 C 0.18582 0.28540 0.73780
 C676 C 0.20952 0.28975 0.75028
 C677 C 0.21370 0.31359 0.76285
 C678 C 0.19465 0.33275 0.76273
 C679 C 0.15066 0.34847 0.75057
 C680 C 0.15654 0.37406 0.74326
 C681 C 0.13737 0.39310 0.74316
 C682 C 0.11210 0.38697 0.75084
 C683 C 0.10627 0.36143 0.75837
 C684 C 0.12534 0.34228 0.75800
 C685 C 0.09188 0.40718 0.75099
 C686 C 0.07620 0.41065 0.77302
 C687 C 0.05727 0.42994 0.77328
 C688 C 0.05336 0.44578 0.75132
 C689 C 0.06890 0.44211 0.72919
 C690 C 0.08815 0.42315 0.72912
 H691 H 0.14848 0.30059 0.72838
 H692 H 0.18200 0.26720 0.72803
 H693 H 0.23179 0.31754 0.77255
 H694 H 0.19833 0.35098 0.77252
 H695 H 0.17591 0.37923 0.73732
 H696 H 0.14232 0.41271 0.73741
 H697 H 0.08688 0.35624 0.76422
 H698 H 0.12041 0.32269 0.76385
 H699 H 0.07885 0.39866 0.79016
 H700 H 0.04552 0.43228 0.79056
 H701 H 0.06636 0.45409 0.71203
 H702 H 0.09992 0.42070 0.71187
 C703 C 0.17179 0.67224 0.24867
 C704 C 0.17059 0.69330 0.26600
 C705 C 0.19002 0.71207 0.26637
 C706 C 0.21105 0.71062 0.24905
 C707 C 0.21206 0.68967 0.23148
 C708 C 0.19286 0.67065 0.23148
 C709 C 0.15124 0.65200 0.24857
 C710 C 0.14399 0.63966 0.22527
 C711 C 0.12495 0.62049 0.22523
 C712 C 0.11226 0.61341 0.24842
 C713 C 0.11932 0.62593 0.27167
 C714 C 0.13869 0.64477 0.27178
 C715 C 0.09181 0.59307 0.24835
 C716 C 0.08856 0.57637 0.26986
 C717 C 0.06926 0.55745 0.26987
 C718 C 0.05308 0.55442 0.24819
 C719 C 0.05637 0.57084 0.22660
 C720 C 0.07533 0.59011 0.22677
 H721 H 0.15443 0.69555 0.27915
 H722 H 0.18827 0.72790 0.28010
 H723 H 0.22792 0.68760 0.21790
 H724 H 0.19480 0.65448 0.21821
 H725 H 0.15286 0.64494 0.20691
 H726 H 0.12040 0.61105 0.20699
 H727 H 0.10976 0.62137 0.28986
 H728 H 0.14396 0.65347 0.29020
 H729 H 0.10116 0.57761 0.28660
 H730 H 0.06729 0.54487 0.28669
 H731 H 0.04399 0.56908 0.20972
 H732 H 0.07680 0.60289 0.21009
 C733 C 0.75024 -0.17371 0.67334
 C734 C 0.73588 -0.17054 0.69639
 C735 C 0.73565 -0.18987 0.71552
 C736 C 0.75007 -0.21268 0.71227
 C737 C 0.76458 -0.21584 0.68937
 C738 C 0.76452 -0.19668 0.67006
 C739 C 0.75034 -0.15320 0.65285
 C740 C 0.77269 -0.14813 0.63817
 C741 C 0.77273 -0.12902 0.61881
 C742 C 0.75052 -0.11420 0.61383
 C743 C 0.72822 -0.11915 0.62863
 C744 C 0.72808 -0.13848 0.64775
 C745 C 0.75060 -0.09372 0.59329
 C746 C 0.72848 -0.08895 0.57819
 C747 C 0.72852 -0.06963 0.55904
 C748 C 0.75078 -0.05487 0.55428
 C749 C 0.77295 -0.05968 0.56918
 C750 C 0.77281 -0.07874 0.58859
 H751 H 0.72506 -0.15293 0.69986
 H752 H 0.72445 -0.18675 0.73305
 H753 H 0.77572 -0.23331 0.68618
 H754 H 0.77540 -0.20008 0.65240
 H755 H 0.79032 -0.15876 0.64176
 H756 H 0.79016 -0.12607 0.60759
 H757 H 0.71085 -0.10791 0.62565
 H758 H 0.71039 -0.14205 0.65836
 H759 H 0.71118 -0.10040 0.58087
 H760 H 0.71120 -0.06650 0.54771
 H761 H 0.79034 -0.04845 0.56609
 H762 H 0.79004 -0.08147 0.60013
 C763 C 0.24945 -0.17400 0.32743
 C764 C 0.26382 -0.17082 0.30438
 C765 C 0.26403 -0.19015 0.28532
 C766 C 0.24959 -0.21297 0.28866
 C767 C 0.23508 -0.21613 0.31157
 C768 C 0.23516 -0.19697 0.33080
 C769 C 0.24936 -0.15348 0.34784
 C770 C 0.22700 -0.14841 0.36248
 C771 C 0.22697 -0.12928 0.38174
 C772 C 0.24919 -0.11446 0.38667
 C773 C 0.27150 -0.11941 0.37191
 C774 C 0.27163 -0.13876 0.35288
 C775 C 0.24911 -0.09397 0.40711
 C776 C 0.27122 -0.08920 0.42221
 C777 C 0.27118 -0.06987 0.44128
 C778 C 0.24892 -0.05511 0.44596
 C779 C 0.22676 -0.05992 0.43105
 C780 C 0.22690 -0.07899 0.41172
 H781 H 0.27466 -0.15322 0.30083
 H782 H 0.27524 -0.18704 0.26778
 H783 H 0.22392 -0.23359 0.31483
 H784 H 0.22427 -0.20037 0.34848
 H785 H 0.20937 -0.15904 0.35892
 H786 H 0.20954 -0.12632 0.39294
 H787 H 0.28887 -0.10817 0.37485
 H788 H 0.28932 -0.14233 0.34229
 H789 H 0.28851 -0.10064 0.41960
 H790 H 0.28849 -0.06674 0.45262
 H791 H 0.20938 -0.04869 0.43408
 H792 H 0.20968 -0.08172 0.40017
 C793 C 0.75158 0.17203 0.32584
 C794 C 0.76577 0.19504 0.32921
 C795 C 0.76579 0.21428 0.30998
 C796 C 0.75133 0.21115 0.28707
 C797 C 0.73705 0.18825 0.28370
 C798 C 0.73732 0.16885 0.30276
 C799 C 0.75157 0.15150 0.34633
 C800 C 0.72927 0.13681 0.35138
 C801 C 0.72928 0.11752 0.37055
 C802 C 0.75149 0.11260 0.38544
 C803 C 0.77376 0.12738 0.38048
 C804 C 0.77385 0.14645 0.36108
 C805 C 0.75142 0.09220 0.40605
 C806 C 0.77355 0.07717 0.41085
 C807 C 0.77353 0.05816 0.43031
 C808 C 0.75128 0.05346 0.44518
 C809 C 0.72910 0.06830 0.44033
 C810 C 0.72922 0.08756 0.42112
 H811 H 0.77658 0.19843 0.34690
 H812 H 0.77682 0.23180 0.31327
 H813 H 0.72589 0.18515 0.26616
 H814 H 0.72657 0.15121 0.29922
 H815 H 0.71164 0.14036 0.34071
 H816 H 0.71188 0.10630 0.37351
 H817 H 0.79112 0.12444 0.39177
 H818 H 0.79150 0.15708 0.35753
 H819 H 0.79084 0.07981 0.39933
 H820 H 0.79086 0.04688 0.43347
 H821 H 0.71172 0.06526 0.45163
 H822 H 0.71199 0.09905 0.41837
 C823 C 0.24778 0.17217 0.67306
 C824 C 0.23363 0.19519 0.66950
 C825 C 0.23356 0.21447 0.68861
 C826 C 0.24792 0.21137 0.71159
 C827 C 0.26216 0.18847 0.71516
 C828 C 0.26195 0.16903 0.69622
 C829 C 0.24783 0.15160 0.65272
 C830 C 0.27013 0.13688 0.64786
 C831 C 0.27017 0.11751 0.62885
 C832 C 0.24799 0.11254 0.61393
 C833 C 0.22573 0.12735 0.61869
 C834 C 0.22560 0.14650 0.63792
 C835 C 0.24811 0.09204 0.59350
 C836 C 0.22598 0.07699 0.58876
 C837 C 0.22604 0.05791 0.56945
 C838 C 0.24833 0.05316 0.55467
 C839 C 0.27051 0.06800 0.55948
 C840 C 0.27035 0.08734 0.57853
 H841 H 0.22289 0.19854 0.65174
 H842 H 0.22255 0.23199 0.68518
 H843 H 0.27324 0.18539 0.73276
 H844 H 0.27266 0.15139 0.69991
 H845 H 0.28773 0.14047 0.65856
 H846 H 0.28756 0.10628 0.62603
 H847 H 0.20840 0.12436 0.60737
 H848 H 0.20795 0.15715 0.64134
 H849 H 0.20866 0.07968 0.60020
 H850 H 0.20871 0.04662 0.56632
 H851 H 0.28791 0.06493 0.54824
 H852 H 0.28759 0.09884 0.58124
   
