data_POSCAR
  _audit_creation_date              2014-09-24
  _audit_creation_method            'ToBaCCo'
  _symmetry_space_group_name_H-M    'P1'
  _symmetry_Int_Tables_number       1
  _symmetry_cell_setting            triclinic
  loop_
  _symmetry_equiv_pos_as_xyz
 x,y,z
_cell_length_a 54.0493
_cell_length_b 46.8316
_cell_length_c 42.0295
_cell_angle_alpha 89.892400
_cell_angle_beta 89.772200
_cell_angle_gamma 87.451600
loop_
  _atom_site_label
  _atom_site_type_symbol
  _atom_site_fract_x
  _atom_site_fract_y
  _atom_site_fract_z
C1 C 1.23348 0.22968 0.21661
 C2 C 1.25303 0.24532 0.19766
 C3 C 1.26758 0.26153 0.21619
 C4 C 1.26126 0.26077 0.25194
 C5 C 1.24806 0.21249 0.24188
 C6 C 1.26257 0.22876 0.26032
 C7 C 1.21891 0.25304 0.23511
 C8 C 1.23343 0.26926 0.25362
 H9 H 1.25554 0.24319 0.17210
 H10 H 1.27307 0.27405 0.26699
 H11 H 1.24751 0.18942 0.24438
 H12 H 1.19883 0.25566 0.23476
 C13 C 0.72718 -0.26708 0.21605
 C14 C 0.74488 -0.24945 0.19634
 C15 C 0.76159 -0.23575 0.21437
 C16 C 0.75920 -0.24094 0.25040
 C17 C 0.74388 -0.28740 0.23596
 C18 C 0.76058 -0.27367 0.25394
 C19 C 0.71528 -0.24602 0.24001
 C20 C 0.73205 -0.23238 0.25793
 H21 H 0.74379 -0.24724 0.17064
 H22 H 0.77288 -0.22980 0.26503
 H23 H 0.74219 -0.31044 0.23648
 H24 H 0.69539 -0.24217 0.24254
 C25 C 0.73195 0.22911 -0.28590
 C26 C 0.74709 0.24975 -0.30189
 C27 C 0.75924 0.26806 -0.28012
 C28 C 0.75391 0.26221 -0.24652
 C29 C 0.74850 0.21350 -0.26408
 C30 C 0.76061 0.23179 -0.24234
 C31 C 0.71474 0.24582 -0.26587
 C32 C 0.72684 0.26405 -0.24411
 H33 H 0.74994 0.25050 -0.32751
 H34 H 0.76330 0.27648 -0.22968
 H35 H 0.75128 0.19034 -0.26381
 H36 H 0.69481 0.24339 -0.26566
 C37 C 1.23385 -0.27510 -0.27758
 C38 C 1.24855 -0.25546 -0.29911
 C39 C 1.26202 -0.23653 -0.28262
 C40 C 1.25967 -0.23887 -0.24628
 C41 C 1.25313 -0.28943 -0.25537
 C42 C 1.26661 -0.27038 -0.23905
 C43 C 1.21812 -0.25491 -0.25624
 C44 C 1.23169 -0.23600 -0.23991
 H45 H 1.24865 -0.25673 -0.32492
 H46 H 1.27067 -0.22341 -0.23290
 H47 H 1.25601 -0.31245 -0.25298
 H48 H 1.19808 -0.25539 -0.25434
 C49 C 0.23549 0.23220 0.78514
 C50 C 0.25418 0.24706 0.80245
 C51 C 0.26919 0.26397 0.78240
 C52 C 0.26280 0.26307 0.74875
 C53 C 0.22058 0.25538 0.76671
 C54 C 0.23491 0.27154 0.74758
 C55 C 0.24964 0.21481 0.75947
 C56 C 0.26392 0.23103 0.74038
 H57 H 0.25705 0.24497 0.82795
 H58 H 0.27442 0.27630 0.73316
 H59 H 0.20050 0.25782 0.76743
 H60 H 0.24891 0.19176 0.75707
 C61 C 0.72836 0.73437 0.78576
 C62 C 0.74519 0.75177 0.80359
 C63 C 0.76217 0.76623 0.78351
 C64 C 0.75912 0.76055 0.74953
 C65 C 0.71608 0.75376 0.76306
 C66 C 0.73308 0.76818 0.74309
 C67 C 0.74411 0.71485 0.76676
 C68 C 0.76108 0.72936 0.74675
 H69 H 0.74456 0.75439 0.82930
 H70 H 0.77233 0.77175 0.73397
 H71 H 0.69610 0.75740 0.76152
 H72 H 0.74294 0.69172 0.76710
 C73 C 0.73274 0.23058 0.28639
 C74 C 0.74837 0.25277 0.30248
 C75 C 0.75963 0.27029 0.28147
 C76 C 0.75420 0.26409 0.24620
 C77 C 0.71454 0.24776 0.26524
 C78 C 0.72573 0.26519 0.24417
 C79 C 0.75036 0.21464 0.26325
 C80 C 0.76154 0.23216 0.24221
 H81 H 0.75098 0.25393 0.32806
 H82 H 0.76334 0.27843 0.22913
 H83 H 0.69465 0.24518 0.26568
 H84 H 0.75327 0.19153 0.26301
 C85 C 0.23381 0.72720 0.27836
 C86 C 0.24883 0.74674 0.29940
 C87 C 0.26243 0.76542 0.28247
 C88 C 0.25984 0.76295 0.24616
 C89 C 0.21817 0.74748 0.25711
 C90 C 0.23179 0.76615 0.24030
 C91 C 0.25285 0.71254 0.25593
 C92 C 0.26645 0.73130 0.23913
 H93 H 0.24910 0.74551 0.32521
 H94 H 0.27090 0.77820 0.23242
 H95 H 0.19812 0.74709 0.25545
 H96 H 0.25556 0.68949 0.25384
 O97 O 1.02955 0.04936 0.05641
 O98 O 1.05785 0.02271 0.02668
 C99 C 1.05201 0.04164 0.04818
 O100 O 0.96262 -0.05188 0.05270
 O101 O 0.93478 -0.02384 0.02392
 C102 C 0.94031 -0.04398 0.04423
 O103 O 1.03171 -0.05091 0.05643
 O104 O 1.05889 -0.02585 0.02621
 C105 C 1.05387 -0.04421 0.04815
 O106 O 0.96066 0.05413 0.05189
 O107 O 0.93380 0.02710 0.02388
 C108 C 0.93863 0.04734 0.04362
 Zr109 Zr 0.99548 0.03551 0.03878
 O110 O 0.99401 0.02999 0.08865
 O111 O 0.99539 0.08037 0.04435
 Zr112 Zr 0.99695 -0.03610 0.03818
 O113 O 0.99394 -0.03536 0.08842
 O114 O 1.00057 -0.08129 0.03845
 O115 O 1.01846 -0.00081 0.04492
 O116 O 0.97425 0.00028 0.04393
 O117 O 0.96170 0.05407 -0.05678
 O118 O 0.93433 0.02722 -0.02900
 C119 C 0.93952 0.04738 -0.04882
 O120 O 1.03292 -0.05016 -0.05978
 O121 O 1.05943 -0.02508 -0.02899
 C122 C 1.05487 -0.04330 -0.05110
 O123 O 0.96385 -0.05149 -0.05761
 O124 O 0.93539 -0.02368 -0.02942
 C125 C 0.94136 -0.04374 -0.04966
 O126 O 1.03087 0.05008 -0.05845
 O127 O 1.05848 0.02314 -0.02818
 C128 C 1.05312 0.04230 -0.04962
 Zr129 Zr 0.99633 0.03624 -0.04184
 O130 O 0.99425 0.03492 -0.09213
 O131 O 0.99772 0.08134 -0.04283
 Zr132 Zr 0.99781 -0.03554 -0.04227
 O133 O 0.99541 -0.03388 -0.09254
 O134 O 1.00161 -0.08071 -0.04352
 Zr135 Zr 1.03368 -0.00072 -0.00134
 Zr136 Zr 0.95943 0.00098 -0.00231
 O137 O 0.97535 0.00092 -0.04809
 O138 O 1.01940 -0.00010 -0.04798
 O139 O 0.97387 0.04212 -0.00179
 O140 O 1.01898 -0.04161 -0.00182
 O141 O 1.01717 0.04080 -0.00120
 O142 O 0.97542 -0.04096 -0.00237
 H143 H 0.96267 0.00062 0.06228
 H144 H 1.03038 -0.05877 -0.00182
 H145 H 0.96423 0.00132 -0.06678
 H146 H 1.02774 0.05753 -0.00095
 H147 H 0.98756 -0.08844 0.02445
 H148 H 0.98875 -0.08818 -0.02935
 H149 H 1.00985 -0.02371 -0.10052
 H150 H 1.00981 0.02554 -0.10015
 H151 H 0.98486 0.08907 -0.02797
 H152 H 0.99811 0.08855 0.02303
 H153 H 0.99300 0.04948 0.09782
 H154 H 1.00713 -0.02335 0.09655
 O155 O 1.03130 0.54564 0.55937
 O156 O 1.05908 0.51960 0.52822
 C157 C 1.05361 0.53806 0.55035
 O158 O 0.96447 0.44497 0.55757
 O159 O 0.93611 0.47275 0.52931
 C160 C 0.94199 0.45278 0.54972
 O161 O 1.03375 0.44668 0.55935
 O162 O 1.06028 0.47177 0.52814
 C163 C 1.05573 0.45358 0.55045
 O164 O 0.96208 0.55013 0.55732
 O165 O 0.93493 0.52348 0.52929
 C166 C 0.93995 0.54336 0.54945
 Zr167 Zr 0.99683 0.53258 0.54209
 O168 O 0.99602 0.52887 0.59220
 O169 O 0.99826 0.57762 0.54435
 Zr170 Zr 0.99853 0.46071 0.54177
 O171 O 0.99649 0.46104 0.59207
 O172 O 1.00240 0.41553 0.54163
 O173 O 1.01990 0.49623 0.54771
 O174 O 0.97594 0.49710 0.54799
 O175 O 0.96138 0.55024 0.44712
 O176 O 0.93459 0.52344 0.47593
 C177 C 0.93937 0.54331 0.45556
 O178 O 1.03305 0.44684 0.44285
 O179 O 1.05993 0.47200 0.47304
 C180 C 1.05513 0.45380 0.45097
 O181 O 0.96382 0.44553 0.44649
 O182 O 0.93578 0.47309 0.47567
 C183 C 0.94144 0.45333 0.45496
 O184 O 1.03058 0.54655 0.44353
 O185 O 1.05873 0.51995 0.47335
 C186 C 1.05301 0.53883 0.45170
 Zr187 Zr 0.99635 0.53307 0.46161
 O188 O 0.99335 0.53258 0.41139
 O189 O 0.99793 0.57816 0.46137
 Zr190 Zr 0.99807 0.46103 0.46138
 O191 O 0.99505 0.46156 0.41116
 O192 O 1.00193 0.41584 0.46133
 Zr193 Zr 1.03433 0.49620 0.50108
 Zr194 Zr 0.96026 0.49761 0.50223
 O195 O 0.97554 0.49751 0.45605
 O196 O 1.01932 0.49667 0.45487
 O197 O 0.97439 0.53890 0.50219
 O198 O 1.01994 0.45518 0.50124
 O199 O 1.01788 0.53775 0.50157
 O200 O 0.97629 0.45568 0.50187
 H201 H 0.96481 0.49732 0.56679
 H202 H 1.03155 0.43819 0.50106
 H203 H 0.96426 0.49784 0.43751
 H204 H 1.02850 0.55446 0.50154
 H205 H 0.98885 0.40835 0.52854
 H206 H 0.98829 0.40856 0.47436
 H207 H 1.00863 0.47289 0.40272
 H208 H 1.00808 0.52182 0.40289
 H209 H 0.98427 0.58591 0.47499
 H210 H 0.98622 0.58565 0.52873
 H211 H 0.99565 0.54866 0.60055
 H212 H 1.00844 0.47488 0.59970
 O213 O 0.53263 0.04576 0.55854
 O214 O 0.56086 0.01904 0.52878
 C215 C 0.55507 0.03812 0.55011
 O216 O 0.46618 -0.05651 0.55542
 O217 O 0.43818 -0.02850 0.52687
 C218 C 0.44384 -0.04876 0.54698
 O219 O 0.53533 -0.05458 0.55930
 O220 O 0.56221 -0.02914 0.52899
 C221 C 0.55741 -0.04758 0.55092
 O222 O 0.46365 0.04994 0.55449
 O223 O 0.43691 0.02262 0.52664
 C224 C 0.44166 0.04300 0.54623
 Zr225 Zr 0.49852 0.03145 0.54140
 O226 O 0.49743 0.02563 0.59124
 O227 O 0.49814 0.07632 0.54700
 Zr228 Zr 0.50035 -0.04002 0.54133
 O229 O 0.49867 -0.03591 0.59136
 O230 O 0.50384 -0.08512 0.54425
 O231 O 0.52171 -0.00464 0.54766
 O232 O 0.47737 -0.00386 0.54681
 O233 O 0.46452 0.04933 0.44576
 O234 O 0.43736 0.02242 0.47379
 C235 C 0.44241 0.04251 0.45384
 O236 O 0.53634 -0.05444 0.44334
 O237 O 0.56263 -0.02919 0.47425
 C238 C 0.55823 -0.04744 0.45215
 O239 O 0.46710 -0.05613 0.44548
 O240 O 0.43863 -0.02832 0.47365
 C241 C 0.44460 -0.04842 0.45352
 O242 O 0.53371 0.04563 0.44376
 O243 O 0.56136 0.01886 0.47410
 C244 C 0.55598 0.03787 0.45257
 Zr245 Zr 0.49925 0.03181 0.46070
 O246 O 0.49702 0.03040 0.41042
 O247 O 0.50046 0.07692 0.45956
 Zr248 Zr 0.50106 -0.04009 0.46076
 O249 O 0.49867 -0.03917 0.41049
 O250 O 0.50505 -0.08527 0.46031
 Zr251 Zr 0.53669 -0.00476 0.50129
 Zr252 Zr 0.46260 -0.00349 0.50057
 O253 O 0.47847 -0.00373 0.45475
 O254 O 0.52241 -0.00450 0.45468
 O255 O 0.47685 0.03774 0.50081
 O256 O 0.52226 -0.04576 0.50126
 O257 O 0.52008 0.03670 0.50124
 O258 O 0.47883 -0.04533 0.50082
 H259 H 0.46573 -0.00356 0.56510
 H260 H 0.53372 -0.06286 0.50142
 H261 H 0.46735 -0.00347 0.43606
 H262 H 0.53058 0.05350 0.50125
 H263 H 0.49346 -0.09273 0.52721
 H264 H 0.49163 -0.09268 0.47361
 H265 H 0.51280 -0.02853 0.40239
 H266 H 0.51243 0.02070 0.40239
 H267 H 0.48762 0.08461 0.47447
 H268 H 0.50083 0.08450 0.52566
 H269 H 0.49616 0.04507 0.60051
 H270 H 0.49905 -0.05565 0.59992
 O271 O 0.45531 0.45940 -0.06022
 O272 O 0.47787 0.42644 -0.03032
 C273 C 0.46165 0.43342 -0.05200
 O274 O 0.54462 0.53556 -0.05380
 O275 O 0.51966 0.56818 -0.02651
 C276 C 0.53796 0.56141 -0.04551
 O277 O 0.54300 0.45635 -0.05820
 O278 O 0.52073 0.42479 -0.02888
 C279 C 0.53744 0.43075 -0.04986
 O280 O 0.45177 0.53885 -0.05602
 O281 O 0.47504 0.56973 -0.02760
 C282 C 0.45771 0.56426 -0.04764
 Zr283 Zr 0.46748 0.49853 -0.04251
 O284 O 0.47286 0.49979 -0.09230
 O285 O 0.42862 0.49922 -0.04842
 Zr286 Zr 0.52913 0.49645 -0.04141
 O287 O 0.52489 0.49813 -0.09134
 O288 O 0.56809 0.49415 -0.04652
 O289 O 0.49876 0.47155 -0.04830
 O290 O 0.49807 0.52310 -0.04740
 O291 O 0.45081 0.53789 0.05298
 O292 O 0.47440 0.56925 0.02535
 C293 C 0.45681 0.56344 0.04508
 O294 O 0.54139 0.45528 0.05593
 O295 O 0.51987 0.42430 0.02530
 C296 C 0.53603 0.42986 0.04692
 O297 O 0.54235 0.53469 0.05416
 O298 O 0.51864 0.56775 0.02592
 C299 C 0.53607 0.56064 0.04588
 O300 O 0.45398 0.45826 0.05511
 O301 O 0.47723 0.42587 0.02522
 C302 C 0.46059 0.43243 0.04667
 Zr303 Zr 0.46615 0.49775 0.03810
 O304 O 0.46658 0.50042 0.08839
 O305 O 0.42705 0.49636 0.03815
 Zr306 Zr 0.52815 0.49567 0.03927
 O307 O 0.52544 0.49837 0.08949
 O308 O 0.56725 0.49178 0.04205
 Zr309 Zr 0.49838 0.45415 -0.00194
 Zr310 Zr 0.49719 0.54009 -0.00111
 O311 O 0.49675 0.52188 0.04469
 O312 O 0.49745 0.47081 0.04467
 O313 O 0.46149 0.52361 -0.00202
 O314 O 0.53371 0.47132 -0.00123
 O315 O 0.46250 0.47352 -0.00252
 O316 O 0.53331 0.52108 -0.00069
 H317 H 0.49823 0.53662 -0.06557
 H318 H 0.54878 0.45850 -0.00103
 H319 H 0.49638 0.53481 0.06334
 H320 H 0.44798 0.46135 -0.00278
 H321 H 0.57501 0.49125 -0.02499
 H322 H 0.57393 0.50523 0.02636
 H323 H 0.51851 0.48045 0.09733
 H324 H 0.47559 0.48310 0.09654
 H325 H 0.42064 0.51136 0.02333
 H326 H 0.42139 0.49460 -0.02752
 H327 H 0.45609 0.50142 -0.10173
 H328 H 0.54185 0.49859 -0.10025
 C329 C 1.21781 0.21190 0.19719
 C330 C 1.20479 0.19683 0.18199
 C331 C 1.18903 0.17851 0.16463
 C332 C 1.16616 0.18920 0.15325
 C333 C 1.15037 0.17113 0.13752
 C334 C 1.15725 0.14208 0.13303
 C335 C 1.18037 0.13157 0.14436
 C336 C 1.19615 0.14970 0.16006
 C337 C 1.14014 0.12277 0.11712
 C338 C 1.13681 0.09508 0.12902
 C339 C 1.11985 0.07740 0.11482
 C340 C 1.10609 0.08715 0.08852
 C341 C 1.10959 0.11446 0.07619
 C342 C 1.12648 0.13216 0.09037
 C343 C 1.08766 0.06978 0.07476
 C344 C 1.07165 0.05627 0.06289
 H345 H 1.16040 0.21141 0.15690
 H346 H 1.13255 0.17975 0.12949
 H347 H 1.18628 0.10939 0.14095
 H348 H 1.21381 0.14121 0.16884
 H349 H 1.14685 0.08738 0.14980
 H350 H 1.11719 0.05634 0.12463
 H351 H 1.09903 0.12219 0.05582
 H352 H 1.12888 0.15321 0.08041
 C353 C 1.21908 0.70473 0.70487
 C354 C 1.20641 0.68866 0.69050
 C355 C 1.19064 0.67016 0.67340
 C356 C 1.19760 0.64129 0.66894
 C357 C 1.18196 0.62342 0.65256
 C358 C 1.15922 0.63430 0.64038
 C359 C 1.15245 0.66335 0.64502
 C360 C 1.16806 0.68113 0.66141
 C361 C 1.14240 0.61552 0.62319
 C362 C 1.12968 0.62560 0.59598
 C363 C 1.11281 0.60859 0.58072
 C364 C 1.10842 0.58127 0.59238
 C365 C 1.12134 0.57077 0.61905
 C366 C 1.13830 0.58776 0.63434
 C367 C 1.08977 0.56478 0.57774
 C368 C 1.07354 0.55200 0.56533
 H369 H 1.21506 0.63261 0.67812
 H370 H 1.18775 0.60121 0.64912
 H371 H 1.13488 0.67224 0.63642
 H372 H 1.16245 0.70341 0.66489
 H373 H 1.13273 0.64670 0.58656
 H374 H 1.10291 0.61691 0.56009
 H375 H 1.11799 0.54969 0.62834
 H376 H 1.14764 0.57953 0.65541
 C377 C 0.71987 0.21124 0.69352
 C378 C 0.70865 0.19546 0.67683
 C379 C 0.69433 0.17649 0.65832
 C380 C 0.67374 0.18728 0.64138
 C381 C 0.65835 0.16863 0.62589
 C382 C 0.66331 0.13891 0.62728
 C383 C 0.68438 0.12830 0.64378
 C384 C 0.69978 0.14701 0.65923
 C385 C 0.64591 0.11911 0.61281
 C386 C 0.63915 0.09442 0.62927
 C387 C 0.62149 0.07678 0.61661
 C388 C 0.61045 0.08355 0.58736
 C389 C 0.61744 0.10771 0.57049
 C390 C 0.63506 0.12540 0.58311
 C391 C 0.59126 0.06646 0.57504
 C392 C 0.57484 0.05299 0.56414
 H393 H 0.66922 0.21005 0.64085
 H394 H 0.64207 0.17741 0.61377
 H395 H 0.68879 0.10554 0.64496
 H396 H 0.71561 0.13845 0.67244
 H397 H 0.64696 0.08924 0.65236
 H398 H 0.61613 0.05817 0.62988
 H399 H 0.60902 0.11309 0.54777
 H400 H 0.64011 0.14406 0.56974
 C401 C 0.70888 0.71837 0.19713
 C402 C 0.69343 0.70637 0.18229
 C403 C 0.67476 0.69170 0.16540
 C404 C 0.67056 0.66323 0.17290
 C405 C 0.65228 0.64884 0.15694
 C406 C 0.63793 0.66276 0.13321
 C407 C 0.64213 0.69148 0.12598
 C408 C 0.66049 0.70586 0.14199
 C409 C 0.61894 0.64705 0.11593
 C410 C 0.59546 0.65990 0.10940
 C411 C 0.57736 0.64436 0.09424
 C412 C 0.58267 0.61594 0.08537
 C413 C 0.60611 0.60326 0.09128
 C414 C 0.62412 0.61866 0.10641
 C415 C 0.56427 0.59895 0.07099
 C416 C 0.55037 0.58258 0.05931
 H417 H 0.68136 0.65217 0.19117
 H418 H 0.64919 0.62688 0.16339
 H419 H 0.63150 0.70264 0.10763
 H420 H 0.66359 0.72795 0.13609
 H421 H 0.59092 0.68168 0.11668
 H422 H 0.55923 0.65433 0.08982
 H423 H 0.61042 0.58129 0.08442
 H424 H 0.64215 0.60836 0.11063
 C425 C 0.77865 -0.21644 0.20052
 C426 C 0.79251 -0.20031 0.18805
 C427 C 0.80870 -0.18121 0.17222
 C428 C 0.80493 -0.15160 0.17550
 C429 C 0.82004 -0.13307 0.15900
 C430 C 0.83906 -0.14398 0.13889
 C431 C 0.84282 -0.17379 0.13599
 C432 C 0.82772 -0.19225 0.15253
 C433 C 0.85498 -0.12444 0.12099
 C434 C 0.86197 -0.13060 0.08936
 C435 C 0.87780 -0.11290 0.07291
 C436 C 0.88682 -0.08879 0.08778
 C437 C 0.87962 -0.08217 0.11903
 C438 C 0.86375 -0.09983 0.13553
 C439 C 0.90473 -0.07201 0.07173
 C440 C 0.92052 -0.05873 0.05878
 H441 H 0.79014 -0.14283 0.19053
 H442 H 0.81655 -0.11024 0.16149
 H443 H 0.85756 -0.18285 0.12112
 H444 H 0.83079 -0.21514 0.14981
 H445 H 0.85523 -0.14915 0.07736
 H446 H 0.88331 -0.11828 0.04876
 H447 H 0.88666 -0.06370 0.13087
 H448 H 0.85891 -0.09469 0.15994
 C449 C 0.77594 0.28708 0.70943
 C450 C 0.79058 0.30320 0.69844
 C451 C 0.80793 0.32154 0.68340
 C452 C 0.80474 0.35132 0.68545
 C453 C 0.82066 0.36892 0.66881
 C454 C 0.83989 0.35691 0.64972
 C455 C 0.84315 0.32696 0.64827
 C456 C 0.82728 0.30945 0.66495
 C457 C 0.85634 0.37539 0.63104
 C458 C 0.86370 0.36768 0.59993
 C459 C 0.87982 0.38446 0.58267
 C460 C 0.88882 0.40923 0.59615
 C461 C 0.88132 0.41735 0.62690
 C462 C 0.86514 0.40061 0.64421
 C463 C 0.90674 0.42539 0.57911
 C464 C 0.92241 0.43827 0.56529
 H465 H 0.78971 0.36094 0.69945
 H466 H 0.81752 0.39187 0.67023
 H467 H 0.85801 0.31703 0.63426
 H468 H 0.82991 0.28644 0.66309
 H469 H 0.85695 0.34867 0.58889
 H470 H 0.88550 0.37791 0.55893
 H471 H 0.88829 0.43636 0.63770
 H472 H 0.86003 0.40699 0.66818
 C473 C 0.27788 -0.21689 0.70186
 C474 C 0.29132 -0.20076 0.68865
 C475 C 0.30766 -0.18199 0.67266
 C476 C 0.33314 -0.18444 0.67844
 C477 C 0.34922 -0.16697 0.66215
 C478 C 0.34002 -0.14678 0.63981
 C479 C 0.31434 -0.14420 0.63447
 C480 C 0.29827 -0.16175 0.65077
 C481 C 0.35726 -0.12886 0.62190
 C482 C 0.35150 -0.09964 0.61655
 C483 C 0.36815 -0.08275 0.60029
 C484 C 0.39065 -0.09491 0.58910
 C485 C 0.39636 -0.12401 0.59397
 C486 C 0.37981 -0.14088 0.61023
 C487 C 0.40842 -0.07760 0.57359
 C488 C 0.42414 -0.06393 0.56111
 H489 H 0.34058 -0.19999 0.69539
 H490 H 0.36886 -0.16914 0.66713
 H491 H 0.30676 -0.12905 0.61720
 H492 H 0.27858 -0.15976 0.64606
 H493 H 0.33438 -0.08975 0.62551
 H494 H 0.36361 -0.06020 0.59678
 H495 H 0.41373 -0.13363 0.58538
 H496 H 0.38459 -0.16339 0.61354
 C497 C 0.28794 0.27664 0.20299
 C498 C 0.30473 0.28890 0.19083
 C499 C 0.32438 0.30331 0.17508
 C500 C 0.34915 0.29407 0.17940
 C501 C 0.36803 0.30736 0.16285
 C502 C 0.36234 0.32995 0.14160
 C503 C 0.33740 0.33922 0.13771
 C504 C 0.31860 0.32599 0.15431
 C505 C 0.38219 0.34398 0.12357
 C506 C 0.37857 0.35180 0.09152
 C507 C 0.39643 0.36679 0.07510
 C508 C 0.41821 0.37412 0.09037
 C509 C 0.42233 0.36572 0.12198
 C510 C 0.40449 0.35063 0.13846
 C511 C 0.43488 0.39277 0.07460
 C512 C 0.44751 0.40996 0.06159
 H513 H 0.35383 0.27642 0.19528
 H514 H 0.38702 0.29962 0.16619
 H515 H 0.33245 0.35688 0.12198
 H516 H 0.29951 0.33333 0.15076
 H517 H 0.36178 0.34661 0.07925
 H518 H 0.39294 0.37332 0.05072
 H519 H 0.43898 0.37156 0.13418
 H520 H 0.40773 0.34512 0.16317
 C521 C 0.77624 0.22085 -0.21954
 C522 C 0.78983 0.20936 -0.20027
 C523 C 0.80587 0.19370 -0.17853
 C524 C 0.83150 0.19656 -0.18003
 C525 C 0.84730 0.17874 -0.16176
 C526 C 0.83767 0.15772 -0.14181
 C527 C 0.81183 0.15565 -0.13967
 C528 C 0.79606 0.17347 -0.15800
 C529 C 0.85454 0.13716 -0.12458
 C530 C 0.84935 0.12871 -0.09317
 C531 C 0.86536 0.10922 -0.07725
 C532 C 0.88661 0.09785 -0.09259
 C533 C 0.89177 0.10597 -0.12388
 C534 C 0.87587 0.12544 -0.13978
 C535 C 0.90394 0.07893 -0.07609
 C536 C 0.91955 0.06389 -0.06315
 H537 H 0.83931 0.21202 -0.19597
 H538 H 0.86709 0.18115 -0.16355
 H539 H 0.80386 0.13950 -0.12481
 H540 H 0.77626 0.17085 -0.15692
 H541 H 0.83316 0.13751 -0.08078
 H542 H 0.86129 0.10326 -0.05292
 H543 H 0.90820 0.09736 -0.13596
 H544 H 0.88014 0.13109 -0.16412
 C545 C 0.77693 0.71114 0.27574
 C546 C 0.79028 0.69766 0.29373
 C547 C 0.80601 0.68081 0.31477
 C548 C 0.83119 0.68618 0.31703
 C549 C 0.84672 0.66885 0.33619
 C550 C 0.83725 0.64586 0.35332
 C551 C 0.81182 0.64096 0.35135
 C552 C 0.79632 0.65831 0.33214
 C553 C 0.85403 0.62661 0.37236
 C554 C 0.84679 0.61659 0.40246
 C555 C 0.86285 0.59861 0.42028
 C556 C 0.88623 0.59035 0.40813
 C557 C 0.89345 0.60001 0.37812
 C558 C 0.87750 0.61798 0.36035
 C559 C 0.90344 0.57281 0.42647
 C560 C 0.91914 0.55881 0.44055
 H561 H 0.83888 0.70355 0.30373
 H562 H 0.86615 0.67342 0.33760
 H563 H 0.80405 0.62327 0.36398
 H564 H 0.77687 0.65389 0.33044
 H565 H 0.82891 0.62307 0.41243
 H566 H 0.85714 0.59139 0.44357
 H567 H 0.91151 0.59376 0.36850
 H568 H 0.88345 0.62492 0.33707
 C569 C 0.27878 0.21602 0.28398
 C570 C 0.29218 0.20384 0.30293
 C571 C 0.30808 0.18774 0.32440
 C572 C 0.33360 0.19151 0.32408
 C573 C 0.34939 0.17366 0.34230
 C574 C 0.33982 0.15171 0.36100
 C575 C 0.31406 0.14868 0.36195
 C576 C 0.29831 0.16655 0.34367
 C577 C 0.35677 0.13126 0.37816
 C578 C 0.35117 0.12191 0.40911
 C579 C 0.36733 0.10259 0.42502
 C580 C 0.38913 0.09230 0.41007
 C581 C 0.39469 0.10128 0.37921
 C582 C 0.37864 0.12059 0.36334
 C583 C 0.40659 0.07360 0.42658
 C584 C 0.42233 0.05877 0.43951
 H585 H 0.34137 0.20778 0.30916
 H586 H 0.36911 0.17678 0.34148
 H587 H 0.30619 0.13182 0.37585
 H588 H 0.27859 0.16329 0.34385
 H589 H 0.33455 0.12991 0.42118
 H590 H 0.36296 0.09594 0.44902
 H591 H 0.41154 0.09350 0.36746
 H592 H 0.38324 0.12697 0.33934
 C593 C 0.28604 0.72067 -0.21744
 C594 C 0.30227 0.71253 -0.19960
 C595 C 0.32154 0.70182 -0.17870
 C596 C 0.31571 0.68404 -0.15323
 C597 C 0.33454 0.67167 -0.13438
 C598 C 0.35951 0.67689 -0.14081
 C599 C 0.36515 0.69542 -0.16596
 C600 C 0.34626 0.70779 -0.18479
 C601 C 0.37952 0.66153 -0.12266
 C602 C 0.40050 0.64971 -0.13859
 C603 C 0.41805 0.63256 -0.12223
 C604 C 0.41493 0.62710 -0.08976
 C605 C 0.39461 0.63962 -0.07344
 C606 C 0.37703 0.65678 -0.08975
 C607 C 0.43109 0.60637 -0.07407
 C608 C 0.44377 0.58776 -0.06161
 H609 H 0.29664 0.67915 -0.14844
 H610 H 0.32960 0.65716 -0.11554
 H611 H 0.38417 0.70008 -0.17127
 H612 H 0.35097 0.72153 -0.20447
 H613 H 0.40278 0.65261 -0.16398
 H614 H 0.43357 0.62272 -0.13516
 H615 H 0.39195 0.63540 -0.04833
 H616 H 0.36123 0.66586 -0.07678
 C617 C 1.22031 -0.21497 -0.21896
 C618 C 1.20992 -0.19769 -0.20178
 C619 C 1.19644 -0.17754 -0.18176
 C620 C 1.19454 -0.14860 -0.19013
 C621 C 1.17949 -0.12951 -0.17231
 C622 C 1.16612 -0.13920 -0.14591
 C623 C 1.16869 -0.16821 -0.13722
 C624 C 1.18373 -0.18723 -0.15506
 C625 C 1.14848 -0.11960 -0.12854
 C626 C 1.14607 -0.12137 -0.09526
 C627 C 1.12807 -0.10447 -0.07927
 C628 C 1.11231 -0.08556 -0.09630
 C629 C 1.11495 -0.08314 -0.12931
 C630 C 1.13294 -0.10001 -0.14535
 C631 C 1.09254 -0.06988 -0.08018
 C632 C 1.07553 -0.05740 -0.06683
 H633 H 1.20427 -0.14090 -0.21082
 H634 H 1.17810 -0.10725 -0.17936
 H635 H 1.15836 -0.17642 -0.11733
 H636 H 1.18492 -0.20965 -0.14854
 H637 H 1.15795 -0.13601 -0.08164
 H638 H 1.12614 -0.10653 -0.05371
 H639 H 1.10272 -0.06871 -0.14274
 H640 H 1.13409 -0.09845 -0.17102
 C641 C 1.22269 0.29029 0.27521
 C642 C 1.21234 0.30717 0.29297
 C643 C 1.19854 0.32649 0.31374
 C644 C 1.19466 0.35529 0.30539
 C645 C 1.17910 0.37329 0.32392
 C646 C 1.16715 0.36269 0.35103
 C647 C 1.17170 0.33388 0.35965
 C648 C 1.18724 0.31594 0.34110
 C649 C 1.14901 0.38105 0.36929
 C650 C 1.14761 0.37913 0.40268
 C651 C 1.12939 0.39501 0.41956
 C652 C 1.11234 0.41303 0.40334
 C653 C 1.11388 0.41552 0.37022
 C654 C 1.13209 0.39969 0.35330
 C655 C 1.09259 0.42796 0.42045
 C656 C 1.07566 0.44000 0.43450
 H657 H 1.20320 0.36366 0.28417
 H658 H 1.17621 0.39543 0.31686
 H659 H 1.16252 0.32492 0.38007
 H660 H 1.18989 0.29361 0.34761
 H661 H 1.16053 0.36524 0.41572
 H662 H 1.12838 0.39291 0.44521
 H663 H 1.10071 0.42928 0.35740
 H664 H 1.13240 0.40134 0.32760
 C665 C 0.72427 -0.21167 0.28154
 C666 C 0.71608 -0.19462 0.30067
 C667 C 0.70433 -0.17473 0.32255
 C668 C 0.69243 -0.18493 0.34962
 C669 C 0.67754 -0.16637 0.36822
 C670 C 0.67428 -0.13735 0.35984
 C671 C 0.68723 -0.12704 0.33340
 C672 C 0.70212 -0.14566 0.31482
 C673 C 0.65579 -0.11866 0.37693
 C674 C 0.63959 -0.10007 0.35974
 C675 C 0.62052 -0.08452 0.37530
 C676 C 0.61741 -0.08730 0.40818
 C677 C 0.63383 -0.10509 0.42564
 C678 C 0.65293 -0.12070 0.41013
 C679 C 0.59671 -0.07289 0.42372
 C680 C 0.57914 -0.06117 0.43663
 H681 H 0.69378 -0.20747 0.35557
 H682 H 0.66756 -0.17504 0.38816
 H683 H 0.68531 -0.10473 0.32661
 H684 H 0.71112 -0.13760 0.29377
 H685 H 0.64105 -0.09838 0.33411
 H686 H 0.60785 -0.07086 0.36157
 H687 H 0.63159 -0.10732 0.45115
 H688 H 0.66526 -0.13462 0.42401
 C689 C 0.71364 0.27803 -0.22067
 C690 C 0.70021 0.28932 -0.20098
 C691 C 0.68238 0.30172 -0.17887
 C692 C 0.66105 0.28703 -0.17168
 C693 C 0.64243 0.29977 -0.15261
 C694 C 0.64488 0.32743 -0.14044
 C695 C 0.66667 0.34177 -0.14715
 C696 C 0.68527 0.32902 -0.16633
 C697 C 0.62439 0.34176 -0.12198
 C698 C 0.62947 0.35849 -0.09525
 C699 C 0.61033 0.37359 -0.07927
 C700 C 0.58584 0.37221 -0.08973
 C701 C 0.58049 0.35506 -0.11582
 C702 C 0.59963 0.33983 -0.13179
 C703 C 0.56687 0.39063 -0.07545
 C704 C 0.55238 0.40789 -0.06367
 H705 H 0.65858 0.26592 -0.18135
 H706 H 0.62602 0.28806 -0.14757
 H707 H 0.66897 0.36324 -0.13845
 H708 H 0.70159 0.34069 -0.17197
 H709 H 0.64829 0.36013 -0.08692
 H710 H 0.61471 0.38695 -0.05923
 H711 H 0.56167 0.35410 -0.12438
 H712 H 0.59516 0.32741 -0.15253
 C713 C 1.22006 0.21445 -0.19485
 C714 C 1.20720 0.19929 -0.17936
 C715 C 1.19161 0.18075 -0.16184
 C716 C 1.19850 0.15174 -0.15849
 C717 C 1.18273 0.13334 -0.14298
 C718 C 1.15987 0.14377 -0.13062
 C719 C 1.15325 0.17304 -0.13381
 C720 C 1.16902 0.19138 -0.14936
 C721 C 1.14265 0.12416 -0.11520
 C722 C 1.12935 0.13268 -0.08774
 C723 C 1.11223 0.11478 -0.07412
 C724 C 1.10816 0.08816 -0.08775
 C725 C 1.12160 0.07925 -0.11474
 C726 C 1.13879 0.09712 -0.12837
 C727 C 1.08939 0.07073 -0.07473
 C728 C 1.07309 0.05710 -0.06354
 H729 H 1.21594 0.14330 -0.16816
 H730 H 1.18842 0.11097 -0.14060
 H731 H 1.13560 0.18160 -0.12498
 H732 H 1.16343 0.21376 -0.15209
 H733 H 1.13216 0.15322 -0.07684
 H734 H 1.10192 0.12185 -0.05320
 H735 H 1.11850 0.05874 -0.12553
 H736 H 1.14854 0.09013 -0.14973
 C737 C 1.21886 0.70723 0.29631
 C738 C 1.20601 0.69124 0.31080
 C739 C 1.19004 0.67271 0.32790
 C740 C 1.19723 0.64401 0.33327
 C741 C 1.18141 0.62609 0.34954
 C742 C 1.15820 0.63669 0.36070
 C743 C 1.15118 0.66557 0.35514
 C744 C 1.16698 0.68340 0.33886
 C745 C 1.14120 0.61782 0.37786
 C746 C 1.12745 0.62817 0.40424
 C747 C 1.11060 0.61096 0.41956
 C748 C 1.10725 0.58314 0.40882
 C749 C 1.12114 0.57242 0.38294
 C750 C 1.13805 0.58962 0.36758
 C751 C 1.08880 0.56624 0.42371
 C752 C 1.07277 0.55312 0.43638
 H753 H 1.21504 0.63550 0.32487
 H754 H 1.18744 0.60405 0.35371
 H755 H 1.13328 0.67427 0.36294
 H756 H 1.16115 0.70552 0.33467
 H757 H 1.12971 0.64961 0.41304
 H758 H 1.09998 0.61948 0.43958
 H759 H 1.11861 0.55095 0.37434
 H760 H 1.14818 0.58113 0.34716
 C761 C 0.72034 0.21153 0.30833
 C762 C 0.70938 0.19554 0.32518
 C763 C 0.69540 0.17629 0.34394
 C764 C 0.70092 0.14684 0.34254
 C765 C 0.68578 0.12788 0.35824
 C766 C 0.66491 0.13822 0.37548
 C767 C 0.65989 0.16791 0.37738
 C768 C 0.67503 0.18680 0.36164
 C769 C 0.64766 0.11821 0.39006
 C770 C 0.63714 0.12400 0.42014
 C771 C 0.61946 0.10629 0.43279
 C772 C 0.61209 0.08261 0.41556
 C773 C 0.62285 0.07626 0.38595
 C774 C 0.64059 0.09393 0.37327
 C775 C 0.59267 0.06571 0.42780
 C776 C 0.57603 0.05247 0.43863
 H777 H 0.71660 0.13851 0.32874
 H778 H 0.69021 0.10515 0.35665
 H779 H 0.64374 0.17646 0.39007
 H780 H 0.67045 0.20955 0.36254
 H781 H 0.64244 0.14235 0.43374
 H782 H 0.61123 0.11133 0.45577
 H783 H 0.61718 0.05803 0.37240
 H784 H 0.64815 0.08916 0.34989
 C785 C 0.71159 0.72048 -0.19511
 C786 C 0.69657 0.70859 -0.17912
 C787 C 0.67825 0.69440 -0.16075
 C788 C 0.68137 0.66516 -0.15431
 C789 C 0.66313 0.65107 -0.13757
 C790 C 0.64147 0.66607 -0.12708
 C791 C 0.63856 0.69551 -0.13351
 C792 C 0.65687 0.70957 -0.15023
 C793 C 0.62185 0.65080 -0.11012
 C794 C 0.59668 0.65629 -0.11744
 C795 C 0.57837 0.64044 -0.10294
 C796 C 0.58501 0.61908 -0.08085
 C797 C 0.60992 0.61403 -0.07282
 C798 C 0.62822 0.62977 -0.08730
 C799 C 0.56678 0.60069 -0.06807
 C800 C 0.55276 0.58366 -0.05763
 H801 H 0.69775 0.65316 -0.16258
 H802 H 0.66573 0.62831 -0.13344
 H803 H 0.62221 0.70766 -0.12548
 H804 H 0.65426 0.73223 -0.15515
 H805 H 0.59123 0.67215 -0.13515
 H806 H 0.55916 0.64436 -0.10954
 H807 H 0.61528 0.59748 -0.05583
 H808 H 0.64738 0.62532 -0.08086
 C809 C 0.77838 -0.21500 -0.20454
 C810 C 0.79241 -0.19860 -0.19299
 C811 C 0.80893 -0.17937 -0.17812
 C812 C 0.80010 -0.15234 -0.16789
 C813 C 0.81579 -0.13432 -0.15179
 C814 C 0.84053 -0.14316 -0.14557
 C815 C 0.84931 -0.17021 -0.15639
 C816 C 0.83361 -0.18816 -0.17251
 C817 C 0.85703 -0.12455 -0.12744
 C818 C 0.87339 -0.13643 -0.10451
 C819 C 0.88925 -0.11912 -0.08781
 C820 C 0.88903 -0.08969 -0.09368
 C821 C 0.87265 -0.07758 -0.11620
 C822 C 0.85670 -0.09486 -0.13292
 C823 C 0.90648 -0.07237 -0.07761
 C824 C 0.92190 -0.05874 -0.06453
 H825 H 0.78098 -0.14537 -0.17192
 H826 H 0.80840 -0.11377 -0.14351
 H827 H 0.86835 -0.17747 -0.15244
 H828 H 0.84065 -0.20902 -0.18030
 H829 H 0.87383 -0.15911 -0.09937
 H830 H 0.90188 -0.12877 -0.07050
 H831 H 0.87243 -0.05485 -0.12113
 H832 H 0.84450 -0.08512 -0.15062
 C833 C 0.77654 0.29117 0.29222
 C834 C 0.79067 0.30783 0.30304
 C835 C 0.80754 0.32672 0.31778
 C836 C 0.79888 0.35316 0.32991
 C837 C 0.81479 0.37024 0.34695
 C838 C 0.83957 0.36097 0.35225
 C839 C 0.84822 0.33466 0.33932
 C840 C 0.83231 0.31767 0.32226
 C841 C 0.85617 0.37819 0.37191
 C842 C 0.87245 0.36469 0.39387
 C843 C 0.88842 0.38068 0.41202
 C844 C 0.88837 0.41040 0.40858
 C845 C 0.87205 0.42413 0.38709
 C846 C 0.85598 0.40815 0.36893
 C847 C 0.90608 0.42642 0.42586
 C848 C 0.92173 0.43911 0.43967
 H849 H 0.77969 0.36027 0.32686
 H850 H 0.80752 0.39024 0.35684
 H851 H 0.86728 0.32713 0.34255
 H852 H 0.83920 0.29721 0.31311
 H853 H 0.87276 0.34173 0.39712
 H854 H 0.90102 0.36980 0.42850
 H855 H 0.87198 0.44711 0.38403
 H856 H 0.84383 0.41914 0.35205
 C857 C 0.27874 -0.21526 0.29763
 C858 C 0.29247 -0.19948 0.31075
 C859 C 0.30903 -0.18112 0.32691
 C860 C 0.30092 -0.15359 0.33629
 C861 C 0.31687 -0.13613 0.35273
 C862 C 0.34114 -0.14606 0.36012
 C863 C 0.34914 -0.17370 0.35037
 C864 C 0.33319 -0.19107 0.33390
 C865 C 0.35807 -0.12780 0.37799
 C866 C 0.37361 -0.13972 0.40178
 C867 C 0.39009 -0.12280 0.41796
 C868 C 0.39129 -0.09373 0.41067
 C869 C 0.37568 -0.08155 0.38734
 C870 C 0.35912 -0.09844 0.37115
 C871 C 0.40933 -0.07686 0.42619
 C872 C 0.42507 -0.06344 0.43888
 H873 H 0.28221 -0.14570 0.33112
 H874 H 0.31009 -0.11507 0.36018
 H875 H 0.36782 -0.18180 0.35525
 H876 H 0.33968 -0.21233 0.32672
 H877 H 0.37298 -0.16214 0.40793
 H878 H 0.40209 -0.13248 0.43596
 H879 H 0.37655 -0.05910 0.38136
 H880 H 0.34758 -0.08869 0.35275
 C881 C 0.28868 0.27819 -0.20590
 C882 C 0.30566 0.29049 -0.19452
 C883 C 0.32547 0.30508 -0.17964
 C884 C 0.32052 0.33162 -0.16523
 C885 C 0.33920 0.34511 -0.14895
 C886 C 0.36316 0.33222 -0.14679
 C887 C 0.36812 0.30577 -0.16188
 C888 C 0.34934 0.29225 -0.17811
 C889 C 0.38267 0.34631 -0.12853
 C890 C 0.40697 0.34744 -0.14049
 C891 C 0.42479 0.36241 -0.12405
 C892 C 0.41857 0.37613 -0.09535
 C893 C 0.39466 0.37432 -0.08284
 C894 C 0.37685 0.35952 -0.09925
 C895 C 0.43568 0.39435 -0.08002
 C896 C 0.44851 0.41126 -0.06715
 H897 H 0.30212 0.34176 -0.16626
 H898 H 0.33492 0.36569 -0.13806
 H899 H 0.38634 0.29525 -0.16044
 H900 H 0.35334 0.27160 -0.18902
 H901 H 0.41194 0.33763 -0.16307
 H902 H 0.44317 0.36390 -0.13412
 H903 H 0.38959 0.38497 -0.06074
 H904 H 0.35843 0.35862 -0.08918
 C905 C 1.22033 -0.21316 0.21894
 C906 C 1.20961 -0.19639 0.20144
 C907 C 1.19560 -0.17703 0.18102
 C908 C 1.19460 -0.14761 0.18707
 C909 C 1.17919 -0.12920 0.16891
 C910 C 1.16452 -0.14001 0.14449
 C911 C 1.16611 -0.16954 0.13815
 C912 C 1.18151 -0.18788 0.15633
 C913 C 1.14675 -0.12091 0.12667
 C914 C 1.14300 -0.12480 0.09386
 C915 C 1.12506 -0.10807 0.07762
 C916 C 1.11064 -0.08722 0.09388
 C917 C 1.11457 -0.08278 0.12636
 C918 C 1.13251 -0.09947 0.14265
 C919 C 1.09104 -0.07137 0.07761
 C920 C 1.07425 -0.05867 0.06411
 H921 H 1.20536 -0.13898 0.20620
 H922 H 1.17859 -0.10655 0.17412
 H923 H 1.15481 -0.17861 0.11987
 H924 H 1.18197 -0.21064 0.15162
 H925 H 1.15386 -0.14089 0.08081
 H926 H 1.12218 -0.11170 0.05247
 H927 H 1.10342 -0.06681 0.13924
 H928 H 1.13467 -0.09621 0.16797
 C929 C 1.22399 0.29213 0.72569
 C930 C 1.21354 0.30861 0.70763
 C931 C 1.19967 0.32739 0.68646
 C932 C 1.19780 0.35684 0.69221
 C933 C 1.18230 0.37458 0.67339
 C934 C 1.16841 0.36305 0.64863
 C935 C 1.17092 0.33351 0.64259
 C936 C 1.18641 0.31584 0.66140
 C937 C 1.15037 0.38133 0.63027
 C938 C 1.14716 0.37703 0.59743
 C939 C 1.12885 0.39280 0.58072
 C940 C 1.11354 0.41308 0.59658
 C941 C 1.11696 0.41798 0.62906
 C942 C 1.13525 0.40225 0.64581
 C943 C 1.09357 0.42787 0.57995
 C944 C 1.07645 0.43982 0.56634
 H945 H 1.20789 0.36599 0.71164
 H946 H 1.18098 0.39727 0.67841
 H947 H 1.16021 0.32388 0.62407
 H948 H 1.18751 0.29304 0.65695
 H949 H 1.15869 0.36133 0.58471
 H950 H 1.12637 0.38884 0.55557
 H951 H 1.10514 0.43353 0.64160
 H952 H 1.13699 0.40580 0.67113
 C953 C 0.72494 -0.21226 0.72099
 C954 C 0.71606 -0.19534 0.70215
 C955 C 0.70347 -0.17574 0.68064
 C956 C 0.70096 -0.14664 0.68809
 C957 C 0.68556 -0.12835 0.66981
 C958 C 0.67236 -0.13900 0.64391
 C959 C 0.67580 -0.16807 0.63588
 C960 C 0.69120 -0.18630 0.65419
 C961 C 0.65374 -0.12050 0.62680
 C962 C 0.65077 -0.12286 0.59367
 C963 C 0.63186 -0.10706 0.57809
 C964 C 0.61571 -0.08872 0.59540
 C965 C 0.61886 -0.08575 0.62822
 C966 C 0.63774 -0.10150 0.64384
 C967 C 0.59533 -0.07379 0.57973
 C968 C 0.57804 -0.06166 0.56667
 H969 H 0.71024 -0.13827 0.70865
 H970 H 0.68354 -0.10601 0.67633
 H971 H 0.66566 -0.17702 0.61639
 H972 H 0.69275 -0.20886 0.64845
 H973 H 0.66293 -0.13708 0.57986
 H974 H 0.62961 -0.10948 0.55265
 H975 H 0.60640 -0.07170 0.64186
 H976 H 0.63928 -0.09953 0.66941
 C977 C 0.71152 0.28009 0.21990
 C978 C 0.69806 0.29142 0.20038
 C979 C 0.68055 0.30396 0.17814
 C980 C 0.68077 0.33308 0.17077
 C981 C 0.66241 0.34556 0.15121
 C982 C 0.64351 0.32907 0.13891
 C983 C 0.64368 0.29973 0.14605
 C984 C 0.66210 0.28728 0.16552
 C985 C 0.62327 0.34273 0.11967
 C986 C 0.59843 0.33611 0.12507
 C987 C 0.57923 0.35077 0.10871
 C988 C 0.58469 0.37199 0.08662
 C989 C 0.60938 0.37801 0.08038
 C990 C 0.62854 0.36351 0.09676
 C991 C 0.56534 0.38974 0.07235
 C992 C 0.55074 0.40683 0.06061
 H993 H 0.69480 0.34625 0.18068
 H994 H 0.66257 0.36829 0.14650
 H995 H 0.62952 0.28646 0.13667
 H996 H 0.66169 0.26472 0.17120
 H997 H 0.59380 0.32040 0.14280
 H998 H 0.56018 0.34614 0.11395
 H999 H 0.61382 0.39451 0.06344
 H1000 H 0.64748 0.36881 0.09181
 C1001 C 0.77764 0.22069 0.21757
 C1002 C 0.79083 0.20925 0.19777
 C1003 C 0.80638 0.19370 0.17532
 C1004 C 0.83196 0.19709 0.17517
 C1005 C 0.84742 0.17941 0.15623
 C1006 C 0.83748 0.15799 0.13730
 C1007 C 0.81166 0.15543 0.13675
 C1008 C 0.79623 0.17313 0.15573
 C1009 C 0.85408 0.13743 0.11967
 C1010 C 0.84826 0.12851 0.08872
 C1011 C 0.86405 0.10895 0.07248
 C1012 C 0.88569 0.09799 0.08709
 C1013 C 0.89147 0.10658 0.11794
 C1014 C 0.87580 0.12611 0.13413
 C1015 C 0.90282 0.07899 0.07035
 C1016 C 0.91846 0.06389 0.05749
 H1017 H 0.84003 0.21285 0.19035
 H1018 H 0.86720 0.18217 0.15677
 H1019 H 0.80349 0.13898 0.12268
 H1020 H 0.77647 0.17013 0.15593
 H1021 H 0.83174 0.13700 0.07693
 H1022 H 0.85952 0.10261 0.04849
 H1023 H 0.90820 0.09828 0.12943
 H1024 H 0.88055 0.13213 0.15813
 C1025 C 0.77673 0.71488 0.72620
 C1026 C 0.79026 0.70120 0.70846
 C1027 C 0.80619 0.68398 0.68783
 C1028 C 0.79657 0.66146 0.67061
 C1029 C 0.81221 0.64373 0.65188
 C1030 C 0.83775 0.64822 0.65022
 C1031 C 0.84717 0.67121 0.66724
 C1032 C 0.83149 0.68892 0.68592
 C1033 C 0.85464 0.62861 0.63158
 C1034 C 0.87798 0.61992 0.64379
 C1035 C 0.89399 0.60160 0.62640
 C1036 C 0.88699 0.59160 0.59655
 C1037 C 0.86376 0.59994 0.58419
 C1038 C 0.84763 0.61828 0.60162
 C1039 C 0.90424 0.57360 0.57856
 C1040 C 0.91986 0.55924 0.56460
 H1041 H 0.77703 0.65732 0.67205
 H1042 H 0.80443 0.62605 0.63938
 H1043 H 0.86667 0.67549 0.66610
 H1044 H 0.83916 0.70627 0.69913
 H1045 H 0.88377 0.62708 0.66697
 H1046 H 0.91193 0.59532 0.63621
 H1047 H 0.85819 0.59249 0.56101
 H1048 H 0.82989 0.62477 0.59145
 C1049 C 0.27959 0.21831 0.71606
 C1050 C 0.29260 0.20616 0.69659
 C1051 C 0.30816 0.19011 0.67462
 C1052 C 0.29813 0.16890 0.65580
 C1053 C 0.31366 0.15093 0.63725
 C1054 C 0.33943 0.15388 0.63751
 C1055 C 0.34922 0.17591 0.65566
 C1056 C 0.33368 0.19386 0.67414
 C1057 C 0.35620 0.13315 0.62042
 C1058 C 0.37801 0.12243 0.63515
 C1059 C 0.39390 0.10284 0.61941
 C1060 C 0.38825 0.09361 0.58877
 C1061 C 0.36651 0.10395 0.57391
 C1062 C 0.35048 0.12356 0.58970
 C1063 C 0.40561 0.07461 0.57245
 C1064 C 0.42139 0.05953 0.55989
 H1065 H 0.27841 0.16566 0.65624
 H1066 H 0.30562 0.13401 0.62375
 H1067 H 0.36897 0.17896 0.65594
 H1068 H 0.34163 0.21013 0.68872
 H1069 H 0.38267 0.12899 0.65899
 H1070 H 0.41071 0.09502 0.63109
 H1071 H 0.36207 0.09710 0.55007
 H1072 H 0.33388 0.13159 0.57773
 C1073 C 0.28583 0.72185 0.21741
 C1074 C 0.30196 0.71314 0.19954
 C1075 C 0.32108 0.70172 0.17861
 C1076 C 0.34595 0.70701 0.18439
 C1077 C 0.36462 0.69411 0.16544
 C1078 C 0.35864 0.67570 0.14045
 C1079 C 0.33354 0.67108 0.13439
 C1080 C 0.31492 0.68398 0.15336
 C1081 C 0.37841 0.66001 0.12196
 C1082 C 0.37574 0.65534 0.08910
 C1083 C 0.39322 0.63819 0.07243
 C1084 C 0.41363 0.62557 0.08834
 C1085 C 0.41688 0.63086 0.12078
 C1086 C 0.39944 0.64800 0.13748
 C1087 C 0.42988 0.60507 0.07222
 C1088 C 0.44269 0.58670 0.05943
 H1089 H 0.35094 0.72068 0.20390
 H1090 H 0.38374 0.69834 0.17050
 H1091 H 0.32831 0.65669 0.11569
 H1092 H 0.29575 0.67957 0.14879
 H1093 H 0.35993 0.66458 0.07640
 H1094 H 0.39045 0.63415 0.04735
 H1095 H 0.43246 0.62096 0.13341
 H1096 H 0.40189 0.65083 0.16282
   
