data_POSCAR
  _audit_creation_date              2014-09-24
  _audit_creation_method            'ToBaCCo'
  _symmetry_space_group_name_H-M    'P1'
  _symmetry_Int_Tables_number       1
  _symmetry_cell_setting            triclinic
  loop_
  _symmetry_equiv_pos_as_xyz
 x,y,z
_cell_length_a 24.5191
_cell_length_b 25.2192
_cell_length_c 25.3523
_cell_angle_alpha 89.798700
_cell_angle_beta 90.453000
_cell_angle_gamma 89.542800
loop_
  _atom_site_label
  _atom_site_type_symbol
  _atom_site_fract_x
  _atom_site_fract_y
  _atom_site_fract_z
N1 N 0.20741 1.19368 0.21336
 N2 N 0.82651 0.80863 0.17101
 N3 N 0.77787 1.20344 -0.21591
 N4 N 0.15357 0.81956 -0.16955
 C5 C 0.56481 1.01470 -0.08924
 H6 H 0.56274 0.97215 -0.09404
 C7 C 0.59991 1.04433 -0.12058
 H8 H 0.62483 1.02469 -0.14982
 C9 C 0.53733 1.09200 -0.04313
 H10 H 0.51425 1.11013 -0.01178
 C11 C 0.57233 1.12304 -0.07326
 H12 H 0.57562 1.16510 -0.06546
 N13 N 0.53442 1.03881 -0.05145
 C14 C 0.41524 1.06925 0.02044
 H15 H 0.41136 1.07226 -0.02200
 C16 C 0.38067 1.09869 0.05268
 H17 H 0.35004 1.12454 0.03506
 C18 C 0.45833 1.03006 0.09525
 H19 H 0.48775 1.00229 0.11155
 C20 C 0.42421 1.05856 0.12902
 H21 H 0.42783 1.05311 0.17129
 Zn22 Zn 0.49443 0.99481 -0.00562
 N23 N 0.45333 1.03606 0.04204
 C24 C 0.58470 0.97946 0.05848
 N25 N 0.54637 0.95251 0.03059
 C26 C 0.54901 0.89884 0.02540
 C27 C 0.59216 0.87024 0.04852
 C28 C 0.62819 0.95251 0.08232
 C29 C 0.43404 0.96147 -0.09566
 C30 C 0.38974 0.93723 -0.12049
 C31 C 0.36703 0.89568 -0.03751
 C32 C 0.41167 0.92066 -0.01426
 N33 N 0.44358 0.95341 -0.04326
 H34 H 0.58205 1.02221 0.06106
 H35 H 0.51880 0.87841 0.00198
 H36 H 0.59495 0.82770 0.04333
 H37 H 0.65910 0.97446 0.10357
 H38 H 0.45886 0.98883 -0.11763
 H39 H 0.38097 0.94550 -0.16165
 H40 H 0.34054 0.87139 -0.01364
 H41 H 0.41951 0.91596 0.02755
 C42 C 0.38509 1.09344 0.10758
 C43 C 0.60416 1.09899 -0.11221
 C44 C 0.35505 0.90510 -0.09081
 C45 C 0.63251 0.89748 0.07672
 C46 C -0.04149 0.52678 1.09653
 H47 H -0.01146 0.50131 1.11529
 C48 C -0.06599 0.56728 1.12572
 H49 H -0.05544 0.57213 1.16698
 C50 C -0.08776 0.55568 1.01897
 H51 H -0.09465 0.55189 0.97697
 C52 C -0.11217 0.59727 1.04636
 H53 H -0.13788 0.62550 1.02532
 N54 N -0.05169 0.52267 1.04382
 C55 C 0.08974 0.42383 1.02799
 H56 H 0.10921 0.44583 0.99684
 C57 C 0.11935 0.38488 1.05556
 H58 H 0.16186 0.37783 1.04642
 C59 C 0.00989 0.40285 1.07564
 H60 H -0.03314 0.40925 1.08240
 C61 C 0.03793 0.36380 1.10421
 H62 H 0.01658 0.34035 1.13324
 Zn63 Zn -0.00750 0.48089 0.99930
 N64 N 0.03614 0.43256 1.03897
 C65 C 0.07925 0.55233 0.98379
 N66 N 0.03407 0.53099 0.96093
 C67 C 0.01113 0.55325 0.91697
 C68 C 0.03348 0.59866 0.89445
 C69 C 0.10349 0.59723 0.96198
 C70 C -0.09635 0.41644 0.97441
 C71 C -0.12491 0.37859 0.94544
 C72 C -0.06146 0.39046 0.87397
 C73 C -0.03331 0.42713 0.90480
 N74 N -0.05112 0.43937 0.95402
 H75 H 0.09487 0.53629 1.02055
 H76 H -0.02654 0.53776 0.90114
 H77 H 0.01356 0.61705 0.86069
 H78 H 0.13885 0.61437 0.98104
 H79 H -0.10900 0.42609 1.01403
 H80 H -0.15976 0.35925 0.96282
 H81 H -0.04669 0.38066 0.83503
 H82 H 0.00383 0.44441 0.89011
 C83 C 0.09311 0.35437 1.09392
 C84 C -0.09937 0.60464 1.09975
 C85 C -0.10661 0.36430 0.89513
 C86 C 0.07928 0.62194 0.91791
 C87 C 1.06623 -0.02207 0.57688
 H88 H 1.07731 0.01857 0.56889
 C89 C 1.08958 -0.04868 0.61986
 H90 H 1.11876 -0.02851 0.64486
 C91 C 1.01127 -0.09644 0.55694
 H92 H 0.97870 -0.11387 0.53405
 C93 C 1.03395 -0.12469 0.59936
 H94 H 1.01949 -0.16414 0.60840
 N95 N 1.02730 -0.04587 0.54688
 C96 C 1.08716 0.02588 0.45032
 H97 H 1.10381 -0.00916 0.46937
 C98 C 1.11884 0.05413 0.41442
 H99 H 1.16008 0.04103 0.40624
 C100 C 1.01166 0.08316 0.43398
 H101 H 0.96929 0.09312 0.44071
 C102 C 1.04186 0.11251 0.39795
 H103 H 1.02283 0.14551 0.37722
 Zn104 Zn 0.98764 -0.00239 0.49902
 N105 N 1.03456 0.04073 0.45917
 C106 C 0.96495 0.08204 0.56644
 N107 N 0.94148 0.04061 0.54094
 C108 C 0.88879 0.02710 0.55021
 C109 C 0.85684 0.05731 0.58440
 C110 C 0.93505 0.11216 0.60231
 C111 C 0.97435 -0.08559 0.42750
 C112 C 0.95182 -0.11169 0.38414
 C113 C 0.87647 -0.04937 0.38500
 C114 C 0.90074 -0.02410 0.42798
 N115 N 0.94849 -0.04289 0.44881
 H116 H 1.00745 0.09088 0.55988
 H117 H 0.87178 -0.00793 0.53227
 H118 H 0.81484 0.04628 0.59098
 H119 H 0.95497 0.14379 0.62366
 H120 H 1.01375 -0.09802 0.44276
 H121 H 0.97355 -0.14466 0.36656
 H122 H 0.83906 -0.03348 0.36805
 H123 H 0.88279 0.01209 0.44279
 C124 C 1.09596 0.09778 0.38758
 C125 C 1.07215 -0.09992 0.63228
 C126 C 0.90294 -0.09279 0.36187
 C127 C 0.87991 0.10059 0.61093
 C128 C 0.16322 0.22222 1.12780
 C129 C 0.17685 0.23151 1.18156
 C130 C 0.16021 0.27902 1.20519
 C131 C 0.13354 0.31838 1.17609
 C132 C 0.12252 0.31146 1.12235
 C133 C 0.13682 0.26300 1.09772
 C134 C 0.17302 0.17270 1.10377
 C135 C 0.15998 0.16446 1.05082
 C136 C 0.13582 0.20483 1.02107
 C137 C 0.12375 0.25351 1.04424
 H138 H 0.18915 0.13938 1.12570
 H139 H 0.16803 0.12629 1.03297
 H140 H 0.12545 0.19806 0.98007
 H141 H 0.10350 0.28323 1.02006
 H142 H 0.16936 0.28605 1.24643
 H143 H 0.12183 0.35488 1.19554
 C144 C -0.09527 0.74660 1.15194
 C145 C -0.15212 0.75649 1.15805
 C146 C -0.18891 0.71508 1.14896
 C147 C -0.17093 0.66548 1.13231
 C148 C -0.11537 0.65498 1.12545
 C149 C -0.07677 0.69516 1.13660
 C150 C -0.05641 0.78723 1.15796
 C151 C -0.00081 0.77669 1.15336
 C152 C 0.01726 0.72607 1.14060
 C153 C -0.02015 0.68607 1.13069
 H154 H -0.06800 0.82769 1.16524
 H155 H 0.02837 0.80820 1.15899
 H156 H 0.06050 0.71809 1.13687
 H157 H -0.00388 0.64828 1.11828
 H158 H -0.23229 0.72167 1.15361
 H159 H -0.20078 0.63524 1.12355
 C160 C -0.13477 0.23329 0.82285
 C161 C -0.19154 0.24035 0.81119
 C162 C -0.21823 0.28588 0.83030
 C163 C -0.18989 0.32552 0.85637
 C164 C -0.13381 0.32090 0.86580
 C165 C -0.10583 0.27407 0.85005
 C166 C -0.10717 0.18495 0.81272
 C167 C -0.05217 0.17823 0.82538
 C168 C -0.02378 0.21846 0.85041
 C169 C -0.05036 0.26551 0.86356
 H170 H -0.12770 0.15084 0.79716
 H171 H -0.03182 0.14099 0.81693
 H172 H 0.01868 0.21260 0.86111
 H173 H -0.02714 0.29418 0.88567
 H174 H -0.26150 0.29157 0.82305
 H175 H -0.21203 0.36050 0.86911
 C176 C 0.11970 0.76845 0.90815
 C177 C 0.13555 0.77067 0.85449
 C178 C 0.13296 0.72470 0.82376
 C179 C 0.11545 0.67694 0.84524
 C180 C 0.09937 0.67362 0.89805
 C181 C 0.10042 0.71990 0.92985
 C182 C 0.11975 0.81431 0.93991
 C183 C 0.10125 0.81265 0.99162
 C184 C 0.08146 0.76567 1.01246
 C185 C 0.08053 0.71976 0.98204
 H186 H 0.13240 0.85223 0.92490
 H187 H 0.10124 0.84828 1.01531
 H188 H 0.06610 0.76512 1.05219
 H189 H 0.06307 0.68478 0.99965
 H190 H 0.14510 0.72584 0.78280
 H191 H 0.11431 0.64214 0.82033
 C192 C 1.20348 0.17528 0.31016
 C193 C 1.18074 0.17151 0.25882
 C194 C 1.13104 0.14556 0.25152
 C195 C 1.10427 0.12254 0.29382
 C196 C 1.12629 0.12467 0.34493
 C197 C 1.17609 0.15166 0.35366
 C198 C 1.25216 0.20324 0.31933
 C199 C 1.27384 0.20736 0.37015
 C200 C 1.24718 0.18435 0.41267
 C201 C 1.19858 0.15700 0.40476
 H202 H 1.27345 0.22268 0.28760
 H203 H 1.31127 0.22893 0.37666
 H204 H 1.26399 0.18812 0.45208
 H205 H 1.17860 0.14077 0.43902
 H206 H 1.11331 0.14250 0.21240
 H207 H 1.06626 0.10209 0.28648
 C208 C 1.07393 -0.15036 0.77485
 C209 C 1.13017 -0.16362 0.78042
 C210 C 1.16463 -0.15785 0.73691
 C211 C 1.14482 -0.13862 0.68888
 C212 C 1.08981 -0.12475 0.68260
 C213 C 1.05368 -0.13059 0.72564
 C214 C 1.03788 -0.15338 0.81788
 C215 C 0.98325 -0.13861 0.81247
 C216 C 0.96350 -0.11952 0.76448
 C217 C 0.99828 -0.11498 0.72155
 H218 H 1.05138 -0.16583 0.85642
 H219 H 0.95627 -0.14126 0.84596
 H220 H 0.92118 -0.10745 0.76068
 H221 H 0.98129 -0.09847 0.68558
 H222 H 1.20753 -0.16784 0.74048
 H223 H 1.17286 -0.13377 0.65643
 C224 C 0.86194 -0.11080 0.21701
 C225 C 0.84517 -0.16460 0.21818
 C226 C 0.84767 -0.19282 0.26585
 C227 C 0.86594 -0.16877 0.31200
 C228 C 0.88226 -0.11570 0.31198
 C229 C 0.88095 -0.08628 0.26417
 C230 C 0.86314 -0.08174 0.16934
 C231 C 0.88134 -0.02956 0.16823
 C232 C 0.89980 -0.00559 0.21423
 C233 C 0.90021 -0.03363 0.26168
 H234 H 0.85159 -0.09920 0.13224
 H235 H 0.88198 -0.00791 0.13130
 H236 H 0.91465 0.03470 0.21301
 H237 H 0.91664 -0.01381 0.29595
 H238 H 0.83508 -0.23385 0.26726
 H239 H 0.86735 -0.19176 0.34817
 C240 C 0.82051 0.21250 0.69664
 C241 C 0.79658 0.18154 0.73756
 C242 C 0.79388 0.12617 0.73068
 C243 C 0.81992 0.10127 0.68902
 C244 C 0.84800 0.13047 0.65100
 C245 C 0.84617 0.18672 0.65314
 C246 C 0.81572 0.26839 0.69575
 C247 C 0.83805 0.29819 0.65502
 C248 C 0.86384 0.27309 0.61328
 C249 C 0.86714 0.21797 0.61172
 H250 H 0.79273 0.28972 0.72498
 H251 H 0.83408 0.34097 0.65519
 H252 H 0.88009 0.29642 0.58119
 H253 H 0.88479 0.20029 0.57697
 H254 H 0.77540 0.10130 0.76039
 H255 H 0.82008 0.05833 0.68787
 C256 C 0.29948 1.20287 0.17147
 C257 C 0.25868 1.17129 0.19531
 C258 C 0.26611 1.11601 0.19710
 C259 C 0.30905 1.09174 0.17073
 C260 C 0.34613 1.12186 0.14188
 C261 C 0.34286 1.17792 0.14359
 C262 C 0.29887 1.25862 0.17566
 C263 C 0.33832 1.28916 0.15081
 C264 C 0.37967 1.26483 0.12218
 C265 C 0.38239 1.20972 0.11888
 H266 H 0.26922 1.27906 0.19948
 H267 H 0.33717 1.33192 0.15431
 H268 H 0.41037 1.28875 0.10326
 H269 H 0.41618 1.19231 0.09770
 H270 H 0.23618 1.09104 0.21583
 H271 H 0.31153 1.04882 0.17030
 C272 C 0.68317 1.17109 -0.22042
 C273 C 0.73188 1.18347 -0.19181
 C274 C 0.73368 1.17234 -0.13725
 C275 C 0.69136 1.14626 -0.11237
 C276 C 0.64552 1.12994 -0.14074
 C277 C 0.64052 1.14284 -0.19492
 C278 C 0.67450 1.18860 -0.27287
 C279 C 0.62727 1.17516 -0.30056
 C280 C 0.58707 1.14525 -0.27637
 C281 C 0.59318 1.12962 -0.22387
 H282 H 0.70319 1.21399 -0.29260
 H283 H 0.62157 1.18854 -0.34086
 H284 H 0.55042 1.13511 -0.29805
 H285 H 0.56016 1.10796 -0.20597
 H286 H 0.76964 1.18130 -0.11396
 H287 H 0.69530 1.13699 -0.07073
 C288 C 0.20770 0.89851 -0.14078
 C289 C 0.20382 0.84330 -0.15112
 C290 C 0.24964 0.81064 -0.14245
 C291 C 0.29851 0.83143 -0.12378
 C292 C 0.30335 0.88565 -0.11365
 C293 C 0.25792 0.91982 -0.12214
 C294 C 0.16211 0.93270 -0.14615
 C295 C 0.16620 0.98662 -0.13508
 C296 C 0.21541 1.00751 -0.11760
 C297 C 0.26081 0.97456 -0.11072
 H298 H 0.12256 0.91823 -0.15754
 H299 H 0.13080 1.01222 -0.13947
 H300 H 0.21822 1.04934 -0.10864
 H301 H 0.29783 0.99235 -0.09588
 H302 H 0.24745 0.76853 -0.15021
 H303 H 0.33287 0.80495 -0.11692
 C304 C 0.77457 0.83510 0.08927
 C305 C 0.77747 0.82801 0.14487
 C306 C 0.73202 0.84115 0.17558
 C307 C 0.68477 0.86195 0.15258
 C308 C 0.68112 0.86964 0.09804
 C309 C 0.72582 0.85568 0.06570
 C310 C 0.81991 0.82470 0.05679
 C311 C 0.81668 0.83250 0.00239
 C312 C 0.76873 0.85160 -0.02068
 C313 C 0.72376 0.86355 0.01053
 H314 H 0.85861 0.81171 0.07291
 H315 H 0.85179 0.82420 -0.02194
 H316 H 0.76659 0.85785 -0.06291
 H317 H 0.68766 0.87926 -0.00892
 H318 H 0.73343 0.83574 0.21795
 H319 H 0.65097 0.87297 0.17766
   
