data_POSCAR
  _audit_creation_date              2014-09-24
  _audit_creation_method            'ToBaCCo'
  _symmetry_space_group_name_H-M    'P1'
  _symmetry_Int_Tables_number       1
  _symmetry_cell_setting            triclinic
  loop_
  _symmetry_equiv_pos_as_xyz
 x,y,z
_cell_length_a 39.8535
_cell_length_b 39.4427
_cell_length_c 40.7210
_cell_angle_alpha 88.466600
_cell_angle_beta 91.782300
_cell_angle_gamma 90.809500
loop_
  _atom_site_label
  _atom_site_type_symbol
  _atom_site_fract_x
  _atom_site_fract_y
  _atom_site_fract_z
N1 N 0.15775 0.22689 0.23426
 N2 N 0.16360 0.19619 0.24628
 C3 C 0.14642 0.19126 0.27404
 C4 C 0.12935 0.22066 0.27981
 C5 C 0.13676 0.24260 0.25393
 H6 H 0.14678 0.16830 0.28917
 H7 H 0.12755 0.26807 0.24976
 Cu8 Cu 0.19395 0.16596 0.22520
 Cu9 Cu 0.17704 0.24386 0.19361
 Cu10 Cu 0.24746 0.20112 0.17124
 N11 N 0.23424 0.14285 0.21291
 N12 N 0.25556 0.15754 0.19289
 C13 C 0.28157 0.13694 0.18913
 C14 C 0.27606 0.10734 0.20715
 C15 C 0.24601 0.11214 0.22250
 H16 H 0.30305 0.14303 0.17439
 H17 H 0.23376 0.09470 0.23937
 N18 N 0.23466 0.24528 0.15172
 N19 N 0.20750 0.26148 0.15983
 C20 C 0.20459 0.28985 0.14084
 C21 C 0.23129 0.29148 0.11989
 C22 C 0.24959 0.26270 0.12724
 H23 H 0.18403 0.30741 0.14138
 H24 H 0.27164 0.25468 0.11489
 H25 H 0.19619 0.20010 0.17385
 H26 H 0.21981 0.21975 0.20897
 N27 N 0.64253 0.73081 0.72076
 N28 N 0.66094 0.71520 0.74366
 C29 C 0.64487 0.71554 0.77226
 C30 C 0.61476 0.73227 0.76691
 C31 C 0.61389 0.74106 0.73374
 H32 H 0.65434 0.70436 0.79520
 H33 H 0.59393 0.75391 0.72003
 Cu34 Cu 0.70405 0.69540 0.73395
 Cu35 Cu 0.65863 0.73821 0.67674
 Cu36 Cu 0.71843 0.68781 0.65092
 N37 N 0.73604 0.66298 0.71652
 N38 N 0.73879 0.65774 0.68487
 C39 C 0.75778 0.63030 0.68100
 C40 C 0.76754 0.61744 0.71181
 C41 C 0.75411 0.63962 0.73365
 H42 H 0.76372 0.62026 0.65745
 H43 H 0.75676 0.63869 0.76015
 N44 N 0.70784 0.73064 0.62789
 N45 N 0.68433 0.75038 0.63838
 C46 C 0.68216 0.77822 0.61876
 C47 C 0.70535 0.77568 0.59446
 C48 C 0.72151 0.74533 0.60109
 H49 H 0.66511 0.79888 0.62200
 H50 H 0.74156 0.73473 0.58746
 H51 H 0.68352 0.68320 0.68928
 H52 H 0.71551 0.71820 0.68932
 N53 N 0.33558 0.75364 0.75228
 N54 N 0.32288 0.77512 0.77249
 C55 C 0.34304 0.77685 0.79966
 C56 C 0.36952 0.75487 0.79637
 C57 C 0.36394 0.74080 0.76591
 H58 H 0.33965 0.79403 0.81952
 H59 H 0.38023 0.72356 0.75397
 Cu60 Cu 0.28238 0.80034 0.76046
 Cu61 Cu 0.31664 0.74623 0.70849
 Cu62 Cu 0.25385 0.80051 0.68158
 N63 N 0.24961 0.83301 0.74330
 N64 N 0.24087 0.83490 0.71192
 C65 C 0.21878 0.86017 0.70676
 C66 C 0.21203 0.87384 0.73679
 C67 C 0.23256 0.85631 0.75936
 H68 H 0.20654 0.86643 0.68334
 H69 H 0.23523 0.86054 0.78545
 N70 N 0.27007 0.76367 0.65479
 N71 N 0.29423 0.74306 0.66496
 C72 C 0.29870 0.71985 0.64189
 C73 C 0.27627 0.72611 0.61588
 C74 C 0.25813 0.75374 0.62525
 H75 H 0.31632 0.69926 0.64416
 H76 H 0.23677 0.76480 0.61217
 H77 H 0.30066 0.79588 0.70453
 H78 H 0.26816 0.76288 0.71535
 N79 N 0.84376 0.27261 0.25525
 N80 N 0.83090 0.28528 0.28149
 C81 C 0.85503 0.28733 0.30532
 C82 C 0.88506 0.27620 0.29296
 C83 C 0.87638 0.26624 0.26131
 H84 H 0.85134 0.29773 0.32922
 H85 H 0.89228 0.25445 0.24399
 Cu86 Cu 0.78444 0.29987 0.28047
 Cu87 Cu 0.81806 0.26774 0.21417
 Cu88 Cu 0.73212 0.26898 0.22219
 N89 N 0.74108 0.32052 0.27034
 N90 N 0.72004 0.30769 0.24827
 C91 C 0.69397 0.32878 0.24340
 C92 C 0.69914 0.35633 0.26324
 C93 C 0.72928 0.35034 0.27998
 H94 H 0.67457 0.32607 0.22444
 H95 H 0.74298 0.36775 0.29570
 N96 N 0.75347 0.24704 0.18566
 N97 N 0.78600 0.24971 0.18102
 C98 C 0.79283 0.23597 0.15217
 C99 C 0.76316 0.22397 0.13781
 C100 C 0.73879 0.23075 0.16028
 H101 H 0.81772 0.23435 0.14254
 H102 H 0.71234 0.22431 0.15853
 H103 H 0.77567 0.29577 0.22116
 H104 H 0.77949 0.25333 0.24207
 N105 N 0.85174 0.72659 0.26954
 N106 N 0.85039 0.69440 0.26200
 C107 C 0.87091 0.68926 0.23702
 C108 C 0.88552 0.72004 0.22819
 C109 C 0.87339 0.74302 0.24985
 H110 H 0.87355 0.66539 0.22495
 H111 H 0.87871 0.76998 0.25023
 Cu112 Cu 0.81899 0.66326 0.28274
 Cu113 Cu 0.82163 0.74573 0.30066
 Cu114 Cu 0.77629 0.68765 0.34735
 N115 N 0.77901 0.63888 0.29667
 N116 N 0.76249 0.64811 0.32233
 C117 C 0.73504 0.62813 0.32541
 C118 C 0.73408 0.60571 0.29985
 C119 C 0.76259 0.61287 0.28237
 H120 H 0.71644 0.63072 0.34394
 H121 H 0.76999 0.60106 0.26009
 N122 N 0.78095 0.73576 0.35819
 N123 N 0.79700 0.75824 0.33967
 C124 C 0.79272 0.78935 0.35160
 C125 C 0.77250 0.78629 0.37852
 C126 C 0.76611 0.75188 0.38241
 H127 H 0.80280 0.81264 0.34105
 H128 H 0.75091 0.73958 0.40092
 H129 H 0.82334 0.70251 0.32856
 H130 H 0.78451 0.70837 0.30241
 N131 N 0.32849 0.25256 -0.24821
 N132 N 0.31874 0.22656 -0.26568
 C133 C 0.34010 0.22285 -0.29021
 C134 C 0.36485 0.24813 -0.28841
 C135 C 0.35678 0.26592 -0.26062
 H136 H 0.33733 0.20332 -0.30825
 H137 H 0.37101 0.28601 -0.24894
 Cu138 Cu 0.27973 0.19908 -0.25415
 Cu139 Cu 0.30202 0.26826 -0.21225
 Cu140 Cu 0.25562 0.20393 -0.17563
 N141 N 0.24966 0.16557 -0.23469
 N142 N 0.24048 0.16740 -0.20406
 C143 C 0.22068 0.14050 -0.19677
 C144 C 0.21780 0.12039 -0.22411
 C145 C 0.23611 0.13738 -0.24789
 H146 H 0.20914 0.13596 -0.17333
 H147 H 0.23980 0.12944 -0.27272
 N148 N 0.26442 0.24812 -0.15502
 N149 N 0.28101 0.27315 -0.16962
 C150 C 0.28052 0.30069 -0.15081
 C151 C 0.26239 0.29280 -0.12308
 C152 C 0.25320 0.25898 -0.12632
 H153 H 0.29217 0.32486 -0.15697
 H154 H 0.23918 0.24346 -0.10912
 H155 H 0.29883 0.21838 -0.20029
 H156 H 0.25808 0.23776 -0.21432
 N157 N 0.65038 0.25981 -0.23816
 N158 N 0.66335 0.28056 -0.26025
 C159 C 0.64284 0.28178 -0.28709
 C160 C 0.61545 0.26030 -0.28193
 C161 C 0.62103 0.24726 -0.25014
 H162 H 0.64760 0.29708 -0.30892
 H163 H 0.60415 0.23156 -0.23582
 Cu164 Cu 0.70440 0.30598 -0.25060
 Cu165 Cu 0.67175 0.25258 -0.19474
 Cu166 Cu 0.75488 0.28063 -0.18790
 N167 N 0.74655 0.32942 -0.24091
 N168 N 0.76615 0.31969 -0.21597
 C169 C 0.79295 0.34081 -0.21395
 C170 C 0.79006 0.36494 -0.23919
 C171 C 0.76015 0.35707 -0.25557
 H172 H 0.81235 0.33949 -0.19480
 H173 H 0.74880 0.37109 -0.27613
 N174 N 0.73435 0.24902 -0.15585
 N175 N 0.70283 0.23832 -0.15838
 C176 C 0.69672 0.21652 -0.13315
 C177 C 0.72571 0.21371 -0.11385
 C178 C 0.74896 0.23478 -0.12870
 H179 H 0.67309 0.20346 -0.12919
 H180 H 0.77470 0.23905 -0.12050
 H181 H 0.70575 0.29355 -0.19148
 H182 H 0.71692 0.25624 -0.21591
 N183 N 0.15359 0.76465 0.25649
 N184 N 0.16562 0.78759 0.23586
 C185 C 0.14594 0.78863 0.20841
 C186 C 0.12060 0.76447 0.21178
 C187 C 0.12594 0.75020 0.24288
 H188 H 0.14944 0.80608 0.18781
 H189 H 0.11087 0.73071 0.25474
 Cu190 Cu 0.20546 0.81415 0.24744
 Cu191 Cu 0.17489 0.75583 0.29944
 Cu192 Cu 0.26002 0.77499 0.29967
 N193 N 0.24911 0.83394 0.25812
 N194 N 0.27066 0.81862 0.27835
 C195 C 0.29883 0.83777 0.28090
 C196 C 0.29487 0.86669 0.26089
 C197 C 0.26262 0.86335 0.24728
 H198 H 0.31967 0.83182 0.29759
 H199 H 0.25013 0.88069 0.23006
 N200 N 0.23997 0.74061 0.32957
 N201 N 0.20724 0.73586 0.33121
 C202 C 0.20080 0.71325 0.35546
 C203 C 0.23098 0.70192 0.36910
 C204 C 0.25533 0.72040 0.35244
 H205 H 0.17582 0.70572 0.36260
 H206 H 0.28220 0.71952 0.35689
 H207 H 0.21331 0.79304 0.30410
 H208 H 0.21720 0.75907 0.27345
 N209 N 0.47992 0.41762 0.49076
 N210 N 0.46801 0.43378 0.51560
 C211 C 0.46917 0.41332 0.54257
 C212 C 0.48283 0.38278 0.53421
 C213 C 0.48877 0.38620 0.50096
 H214 H 0.46030 0.41992 0.56638
 H215 H 0.49840 0.36714 0.48525
 Cu216 Cu 0.45007 0.47903 0.50968
 Cu217 Cu 0.48254 0.43856 0.44710
 Cu218 Cu 0.46699 0.52476 0.44149
 N219 N 0.42418 0.51877 0.49674
 N220 N 0.43069 0.53682 0.47000
 C221 C 0.40728 0.56095 0.46557
 C222 C 0.38511 0.55772 0.49096
 C223 C 0.39642 0.53065 0.51017
 H224 H 0.40520 0.57796 0.44434
 H225 H 0.38408 0.51903 0.53100
 N226 N 0.49208 0.50110 0.40836
 N227 N 0.49696 0.46803 0.41009
 C228 C 0.51717 0.45956 0.38587
 C229 C 0.52538 0.48864 0.36812
 C230 C 0.50894 0.51454 0.38284
 H231 H 0.52733 0.43458 0.38291
 H232 H 0.51092 0.54135 0.37681
 H233 H 0.49183 0.48464 0.46732
 H234 H 0.44849 0.47791 0.44972
 N235 N -0.01567 -0.08640 0.99411
 N236 N -0.03365 -0.07316 1.01690
 C237 C -0.03232 -0.09343 1.04395
 C238 C -0.01197 -0.12062 1.03799
 C239 C -0.00226 -0.11558 1.00586
 H240 H -0.04623 -0.08951 1.06588
 H241 H 0.01278 -0.13225 0.99184
 Cu242 Cu -0.05923 -0.03227 1.00787
 Cu243 Cu -0.01359 -0.06595 0.95019
 Cu244 Cu -0.03496 0.01924 0.94613
 N245 N -0.08104 0.01069 0.99856
 N246 N -0.07189 0.03064 0.97397
 C247 C -0.09214 0.05770 0.97189
 C248 C -0.11501 0.05464 0.99677
 C249 C -0.10735 0.02434 1.01299
 H250 H -0.09120 0.07729 0.95282
 H251 H -0.12072 0.01267 1.03315
 N252 N -0.00798 -0.00222 0.91294
 N253 N -0.00123 -0.03491 0.91391
 C254 C 0.01662 -0.04222 0.88763
 C255 C 0.02102 -0.01281 0.86904
 C256 C 0.00552 0.01221 0.88596
 H257 H 0.02658 -0.06691 0.88283
 H258 H 0.00411 0.03883 0.87904
 H259 H -0.01193 -0.02094 0.97263
 H260 H -0.05166 -0.02946 0.94860
 N261 N 1.00346 0.59300 0.98945
 N262 N 1.02098 0.57656 1.01247
 C263 C 1.01974 0.59353 1.04068
 C264 C 1.00029 0.62215 1.03501
 C265 C 0.99107 0.62124 1.00195
 H266 H 1.03272 0.58610 1.06340
 H267 H 0.97717 0.64017 0.98771
 Cu268 Cu 1.04636 0.53653 1.00235
 Cu269 Cu 0.99834 0.57704 0.94480
 Cu270 Cu 1.02700 0.49605 0.93298
 N271 N 1.07632 0.50311 0.98504
 N272 N 1.06866 0.48748 0.95763
 C273 C 1.09342 0.46614 0.95095
 C274 C 1.11809 0.46883 0.97533
 C275 C 1.10631 0.49214 0.99685
 H276 H 1.09348 0.44992 0.92994
 H277 H 1.11881 0.50071 1.01914
 N278 N 0.99488 0.51861 0.90272
 N279 N 0.98454 0.54983 0.90664
 C280 C 0.96256 0.55798 0.88200
 C281 C 0.95957 0.53077 0.86130
 C282 C 0.98011 0.50614 0.87542
 H283 H 0.94899 0.58153 0.87982
 H284 H 0.98395 0.48096 0.86648
 H285 H 0.99978 0.52851 0.96278
 H286 H 1.03881 0.54447 0.94294
 N287 N 0.50908 0.11380 0.47900
 N288 N 0.53107 0.10026 0.49997
 C289 C 0.52879 0.11496 0.52917
 C290 C 0.50438 0.13970 0.52655
 C291 C 0.49292 0.13862 0.49391
 H292 H 0.54465 0.10882 0.55046
 H293 H 0.47511 0.15532 0.48143
 Cu294 Cu 0.56411 0.06853 0.48594
 Cu295 Cu 0.50348 0.09701 0.43421
 Cu296 Cu 0.53591 0.01588 0.42858
 N297 N 0.59085 0.03077 0.47306
 N298 N 0.57912 0.00931 0.45129
 C299 C 0.60094 -0.01615 0.44901
 C300 C 0.62784 -0.01030 0.47055
 C301 C 0.62089 0.02015 0.48492
 H302 H 0.59725 -0.03764 0.43327
 H303 H 0.63625 0.03331 0.50299
 N304 N 0.50134 0.03442 0.39783
 N305 N 0.48996 0.06566 0.39886
 C306 C 0.46787 0.07078 0.37348
 C307 C 0.46569 0.04139 0.35557
 C308 C 0.48694 0.01889 0.37191
 H309 H 0.45404 0.09388 0.36871
 H310 H 0.49193 -0.00681 0.36502
 H311 H 0.51256 0.05201 0.45638
 H312 H 0.54592 0.06671 0.42805
 N313 N -0.01370 0.09148 0.50573
 N314 N -0.03008 0.07651 0.48154
 C315 C -0.02790 0.09610 0.45399
 C316 C -0.00888 0.12484 0.46136
 C317 C -0.00122 0.12134 0.49470
 H318 H -0.03910 0.08989 0.43034
 H319 H 0.01264 0.13909 0.50991
 Cu320 Cu -0.05361 0.03354 0.48940
 Cu321 Cu -0.00837 0.07063 0.54945
 Cu322 Cu -0.03158 -0.01426 0.55571
 N323 N -0.08124 -0.00491 0.50385
 N324 N -0.07225 -0.02403 0.52950
 C325 C -0.09551 -0.04872 0.53392
 C326 C -0.12039 -0.04485 0.50968
 C327 C -0.11068 -0.01658 0.49126
 H328 H -0.09486 -0.06745 0.55382
 H329 H -0.12424 -0.00522 0.47042
 N330 N -0.00118 0.00765 0.58799
 N331 N 0.00686 0.04019 0.58601
 C332 C 0.02740 0.04784 0.61170
 C333 C 0.03186 0.01890 0.63125
 C334 C 0.01375 -0.00623 0.61519
 H335 H 0.03863 0.07256 0.61571
 H336 H 0.01123 -0.03254 0.62302
 H337 H -0.00663 0.02437 0.52854
 H338 H -0.04648 0.03380 0.54918
 N339 N 0.49764 0.57998 0.00364
 N340 N 0.48596 0.56316 -0.02178
 C341 C 0.48898 0.58262 -0.04921
 C342 C 0.50339 0.61349 -0.04058
 C343 C 0.50773 0.61106 -0.00664
 H344 H 0.48058 0.57516 -0.07351
 H345 H 0.51693 0.63062 0.00958
 Cu346 Cu 0.46468 0.51897 -0.01581
 Cu347 Cu 0.49883 0.55998 0.04808
 Cu348 Cu 0.48170 0.47383 0.05324
 N349 N 0.43499 0.48237 -0.00127
 N350 N 0.44140 0.46462 0.02596
 C351 C 0.41477 0.44434 0.03239
 C352 C 0.39027 0.45024 0.00817
 C353 C 0.40424 0.47396 -0.01317
 H354 H 0.41241 0.42843 0.05428
 H355 H 0.39200 0.48598 -0.03444
 N356 N 0.50947 0.49714 0.08649
 N357 N 0.51353 0.53041 0.08585
 C358 C 0.53345 0.53916 0.11161
 C359 C 0.54364 0.50989 0.12851
 C360 C 0.52723 0.48374 0.11223
 H361 H 0.54117 0.56490 0.11681
 H362 H 0.52894 0.45688 0.11803
 H363 H 0.50713 0.51439 0.02819
 H364 H 0.46448 0.52091 0.04429
 N365 N 0.52041 -0.08451 -0.00787
 N366 N 0.55238 -0.08401 -0.01469
 C367 C 0.55796 -0.10661 -0.03779
 C368 C 0.52754 -0.12123 -0.04766
 C369 C 0.50422 -0.10666 -0.02768
 H370 H 0.58274 -0.11285 -0.04554
 H371 H 0.47774 -0.11275 -0.02650
 Cu372 Cu 0.58395 -0.05308 0.00598
 Cu373 Cu 0.50453 -0.05960 0.02958
 Cu374 Cu 0.56928 -0.03551 0.08357
 N375 N 0.60988 -0.01860 0.02864
 N376 N 0.60476 -0.01195 0.05952
 C377 C 0.62582 0.01325 0.06890
 C378 C 0.64509 0.02266 0.04234
 C379 C 0.63407 0.00215 0.01716
 H380 H 0.62642 0.02447 0.09287
 H381 H 0.64287 0.00249 -0.00771
 N382 N 0.52334 -0.04482 0.09751
 N383 N 0.49808 -0.05002 0.07647
 C384 C 0.46928 -0.05029 0.09287
 C385 C 0.47682 -0.04649 0.12620
 C386 C 0.51150 -0.04283 0.12791
 H387 H 0.44470 -0.05210 0.08105
 H388 H 0.52708 -0.03776 0.14948
 H389 H 0.54389 -0.02629 0.04095
 H390 H 0.54940 -0.07229 0.05124
 N391 N 1.01698 0.41218 0.50461
 N392 N 1.04881 0.41290 0.49696
 C393 C 1.05369 0.39074 0.47314
 C394 C 1.02331 0.37524 0.46556
 C395 C 1.00046 0.38922 0.48598
 H396 H 1.07758 0.38589 0.46240
 H397 H 0.97395 0.38323 0.48718
 Cu398 Cu 1.08109 0.44220 0.51906
 Cu399 Cu 1.00004 0.44197 0.53776
 Cu400 Cu 1.06176 0.47084 0.59240
 N401 N 1.10748 0.47787 0.53963
 N402 N 1.10019 0.48928 0.56858
 C403 C 1.12110 0.51540 0.57581
 C404 C 1.14230 0.52050 0.54979
 C405 C 1.13315 0.49614 0.52743
 H406 H 1.11990 0.53052 0.59751
 H407 H 1.14326 0.49314 0.50335
 N408 N 1.01434 0.46554 0.60377
 N409 N 0.99048 0.45885 0.58166
 C410 C 0.96045 0.46192 0.59540
 C411 C 0.96550 0.46907 0.62848
 C412 C 1.00023 0.47154 0.63255
 H413 H 0.93685 0.45980 0.58183
 H414 H 1.01439 0.47797 0.65463
 H415 H 1.03996 0.47515 0.54727
 H416 H 1.04271 0.43063 0.56366
 Si417 Si 0.38052 -0.00546 0.23483
 Si418 Si 0.12196 -0.00358 0.75735
 Si419 Si 0.62977 0.49597 0.25819
 Si420 Si 0.86806 0.50071 0.73955
 Si421 Si 0.24787 0.38556 -0.00299
 Si422 Si 0.75356 0.13271 0.01631
 Si423 Si 0.24711 0.62608 0.50304
 Si424 Si 0.74039 0.88457 0.48673
 Si425 Si 0.01692 0.25356 0.37313
 Si426 Si -0.00768 0.74750 0.12332
 Si427 Si 0.48996 0.25481 0.62615
 Si428 Si 0.50745 0.74590 0.87301
 C429 C 0.05513 0.21306 0.33408
 C430 C 0.07966 0.20532 0.31198
 C431 C 0.10700 0.22723 0.30712
 C432 C 0.11163 0.25557 0.32747
 C433 C 0.08712 0.26305 0.35080
 C434 C 0.05714 0.24293 0.35213
 C435 C 0.09423 0.28996 0.37199
 N436 N 0.12272 0.30880 0.36900
 N437 N 0.14509 0.30233 0.34651
 C438 C 0.14064 0.27625 0.32581
 H439 H 0.03318 0.19661 0.33535
 H440 H 0.07619 0.18309 0.29712
 H441 H 0.07856 0.29552 0.39190
 H442 H 0.16024 0.27153 0.30883
 C443 C 0.55616 0.71346 0.83605
 C444 C 0.58091 0.71065 0.81296
 C445 C 0.58842 0.73758 0.79118
 C446 C 0.57040 0.76826 0.79291
 C447 C 0.54408 0.77065 0.81548
 C448 C 0.53763 0.74321 0.83807
 C449 C 0.52603 0.80116 0.81556
 N450 N 0.53480 0.82766 0.79565
 N451 N 0.56049 0.82593 0.77572
 C452 C 0.57872 0.79735 0.77387
 H453 H 0.55184 0.69203 0.85254
 H454 H 0.59430 0.68700 0.81207
 H455 H 0.50523 0.80448 0.83145
 H456 H 0.60000 0.79818 0.75815
 C457 C 0.46138 0.74916 0.81831
 C458 C 0.43104 0.75209 0.80104
 C459 C 0.40066 0.75163 0.81716
 C460 C 0.40109 0.74636 0.85175
 C461 C 0.43239 0.74328 0.86964
 C462 C 0.46327 0.74670 0.85278
 C463 C 0.43124 0.73491 0.90341
 N464 N 0.40139 0.73147 0.91829
 N465 N 0.37235 0.73513 0.90167
 C466 C 0.37118 0.74221 0.86894
 H467 H 0.48336 0.74869 0.80372
 H468 H 0.43145 0.75498 0.77451
 H469 H 0.45361 0.73037 0.91826
 H470 H 0.34682 0.74361 0.85666
 C471 C -0.05139 0.26398 0.36052
 C472 C -0.08162 0.27009 0.34356
 C473 C -0.08303 0.27451 0.30927
 C474 C -0.05215 0.27624 0.29245
 C475 C -0.02125 0.26842 0.30957
 C476 C -0.02107 0.26128 0.34425
 C477 C 0.00821 0.27013 0.29127
 N478 N 0.00720 0.28029 0.25926
 N479 N -0.02123 0.28968 0.24405
 C480 C -0.05066 0.28871 0.25968
 H481 H -0.05199 0.26057 0.38699
 H482 H -0.10427 0.26976 0.35757
 H483 H 0.03242 0.26548 0.30179
 H484 H -0.07210 0.29943 0.24665
 C485 C -0.04262 0.71185 0.17157
 C486 C -0.06574 0.70523 0.19585
 C487 C -0.09242 0.72709 0.20015
 C488 C -0.09742 0.75478 0.17764
 C489 C -0.07354 0.76193 0.15297
 C490 C -0.04470 0.74099 0.15114
 C491 C -0.08055 0.78892 0.13056
 N492 N -0.10868 0.80744 0.13297
 N493 N -0.13091 0.80060 0.15594
 C494 C -0.12647 0.77473 0.17805
 H495 H -0.02186 0.69460 0.16979
 H496 H -0.06211 0.68332 0.21213
 H497 H -0.06535 0.79483 0.11009
 H498 H -0.14633 0.76952 0.19492
 C499 C 0.43144 0.22628 0.65396
 C500 C 0.40272 0.22488 0.67250
 C501 C 0.39282 0.25260 0.69089
 C502 C 0.41253 0.28311 0.68863
 C503 C 0.44365 0.28321 0.67231
 C504 C 0.45238 0.25498 0.65351
 C505 C 0.46418 0.31250 0.67410
 N506 N 0.45272 0.34086 0.68776
 N507 N 0.42203 0.34202 0.69953
 C508 C 0.40139 0.31443 0.69983
 H509 H 0.43752 0.20417 0.64030
 H510 H 0.38889 0.20111 0.67294
 H511 H 0.48880 0.31365 0.66400
 H512 H 0.37598 0.31798 0.70716
 C513 C 0.54919 0.28227 0.65551
 C514 C 0.57815 0.28324 0.67532
 C515 C 0.58698 0.25604 0.69674
 C516 C 0.56614 0.22629 0.69646
 C517 C 0.53583 0.22585 0.67687
 C518 C 0.52777 0.25392 0.65555
 C519 C 0.51525 0.19658 0.67846
 N520 N 0.52527 0.16901 0.69650
 N521 N 0.55467 0.16849 0.71282
 C522 C 0.57558 0.19585 0.71301
 H523 H 0.54344 0.30446 0.64035
 H524 H 0.59288 0.30651 0.67474
 H525 H 0.49168 0.19482 0.66502
 H526 H 0.59990 0.19277 0.72491
 C527 C 0.03151 0.74937 0.18253
 C528 C 0.06012 0.75342 0.20242
 C529 C 0.09177 0.75766 0.18889
 C530 C 0.09466 0.75638 0.15431
 C531 C 0.06526 0.75321 0.13381
 C532 C 0.03322 0.74953 0.14820
 C533 C 0.06924 0.75339 0.09954
 N534 N 0.10031 0.75529 0.08697
 N535 N 0.12781 0.75691 0.10625
 C536 C 0.12607 0.75725 0.13940
 H537 H 0.00775 0.74772 0.19450
 H538 H 0.05724 0.75440 0.22875
 H539 H 0.04821 0.75127 0.08246
 H540 H 0.14935 0.75741 0.15364
 C541 C 0.33086 0.04090 0.24800
 C542 C 0.30608 0.06504 0.24249
 C543 C 0.29917 0.07832 0.21090
 C544 C 0.31722 0.06633 0.18420
 C545 C 0.34437 0.04376 0.19012
 C546 C 0.35006 0.02942 0.22230
 C547 C 0.36484 0.03743 0.16351
 N548 N 0.35621 0.04901 0.13281
 N549 N 0.32870 0.06711 0.12685
 C550 C 0.30890 0.07614 0.15148
 H551 H 0.33498 0.03098 0.27286
 H552 H 0.29270 0.07397 0.26328
 H553 H 0.38835 0.02505 0.16655
 H554 H 0.28670 0.09060 0.14515
 C555 C 0.83539 0.55282 0.70283
 C556 C 0.81302 0.57912 0.69650
 C557 C 0.78884 0.58724 0.71925
 C558 C 0.78673 0.56716 0.74868
 C559 C 0.81160 0.54249 0.75649
 C560 C 0.83564 0.53470 0.73284
 C561 C 0.81056 0.52557 0.78738
 N562 N 0.78492 0.53091 0.80760
 N563 N 0.76014 0.55189 0.79904
 C564 C 0.75993 0.56978 0.77018
 H565 H 0.85342 0.54749 0.68439
 H566 H 0.81515 0.59362 0.67369
 H567 H 0.82918 0.50741 0.79543
 H568 H 0.73812 0.58476 0.76395
 C569 C 0.81180 0.45667 0.74519
 C570 C 0.79421 0.42641 0.74967
 C571 C 0.81098 0.39585 0.75546
 C572 C 0.84658 0.39586 0.75571
 C573 C 0.86470 0.42701 0.75168
 C574 C 0.84696 0.45794 0.74695
 C575 C 0.90001 0.42584 0.75204
 N576 N 0.91583 0.39571 0.75555
 N577 N 0.89883 0.36658 0.75856
 C578 C 0.86483 0.36559 0.75861
 H579 H 0.79728 0.47907 0.73965
 H580 H 0.76703 0.42702 0.74877
 H581 H 0.91537 0.44844 0.74971
 H582 H 0.85253 0.34108 0.76027
 C583 C 0.32168 -0.04414 0.24624
 C584 C 0.30230 -0.07330 0.25027
 C585 C 0.31687 -0.10513 0.25660
 C586 C 0.35266 -0.10698 0.25837
 C587 C 0.37248 -0.07668 0.25553
 C588 C 0.35672 -0.04507 0.24835
 C589 C 0.40765 -0.07936 0.25864
 N590 N 0.42203 -0.11019 0.26201
 N591 N 0.40371 -0.13861 0.26209
 C592 C 0.36973 -0.13810 0.25993
 H593 H 0.30863 -0.02096 0.24016
 H594 H 0.27531 -0.07044 0.24889
 H595 H 0.42401 -0.05737 0.25841
 H596 H 0.35680 -0.16214 0.25796
 C597 C 0.16792 -0.04449 0.72709
 C598 C 0.18736 -0.07247 0.72076
 C599 C 0.18903 -0.10036 0.74275
 C600 C 0.16838 -0.10085 0.77063
 C601 C 0.14859 -0.07210 0.77735
 C602 C 0.14775 -0.04372 0.75464
 C603 C 0.13090 -0.07329 0.80682
 N604 N 0.13029 -0.10183 0.82603
 N605 N 0.14631 -0.12958 0.81807
 C606 C 0.16507 -0.13016 0.79100
 H607 H 0.16856 -0.02310 0.70985
 H608 H 0.20267 -0.07137 0.69921
 H609 H 0.11825 -0.05202 0.81578
 H610 H 0.17634 -0.15391 0.78533
 C611 C 0.63798 0.42626 0.27489
 C612 C 0.65373 0.39494 0.27687
 C613 C 0.68245 0.38934 0.25917
 C614 C 0.69464 0.41517 0.23773
 C615 C 0.67865 0.44715 0.23568
 C616 C 0.65082 0.45329 0.25569
 C617 C 0.69144 0.47183 0.21373
 N618 N 0.71829 0.46506 0.19547
 N619 N 0.73331 0.43514 0.19756
 C620 C 0.72245 0.40999 0.21806
 H621 H 0.61575 0.42921 0.28899
 H622 H 0.64363 0.37501 0.29268
 H623 H 0.68061 0.49645 0.21096
 H624 H 0.73552 0.38613 0.21857
 C625 C 0.69332 0.52272 0.27800
 C626 C 0.71682 0.54729 0.28725
 C627 C 0.70740 0.58088 0.29115
 C628 C 0.67342 0.59006 0.28523
 C629 C 0.64935 0.56498 0.27565
 C630 C 0.65958 0.53091 0.27172
 C631 C 0.61610 0.57537 0.26896
 N632 N 0.60771 0.60829 0.27186
 N633 N 0.63031 0.63174 0.28065
 C634 C 0.66284 0.62384 0.28718
 H635 H 0.70188 0.49704 0.27599
 H636 H 0.74271 0.53993 0.29161
 H637 H 0.59675 0.55802 0.26073
 H638 H 0.68005 0.64424 0.29326
 C639 C 0.15679 0.05690 0.73959
 C640 C 0.17812 0.08484 0.74348
 C641 C 0.19796 0.08852 0.77215
 C642 C 0.19776 0.06218 0.79654
 C643 C 0.17527 0.03407 0.79300
 C644 C 0.15377 0.03191 0.76453
 C645 C 0.17543 0.00901 0.81818
 N646 N 0.19711 0.01132 0.84434
 N647 N 0.21890 0.03701 0.84706
 C648 C 0.22010 0.06237 0.82402
 H649 H 0.14215 0.05538 0.71689
 H650 H 0.17849 0.10422 0.72413
 H651 H 0.15867 -0.01238 0.81746
 H652 H 0.23908 0.08190 0.82714
 C653 C 0.24559 0.32395 0.03388
 C654 C 0.24182 0.30265 0.06128
 C655 C 0.23668 0.31582 0.09224
 C656 C 0.23702 0.35142 0.09589
 C657 C 0.24084 0.37328 0.06788
 C658 C 0.24407 0.35926 0.03627
 C659 C 0.24134 0.40846 0.07272
 N660 N 0.23852 0.42071 0.10328
 N661 N 0.23540 0.40018 0.12950
 C662 C 0.23465 0.36601 0.12688
 H663 H 0.24958 0.31230 0.01064
 H664 H 0.24232 0.27547 0.05811
 H665 H 0.24377 0.42645 0.05265
 H666 H 0.23277 0.35068 0.14914
 C667 C 0.75041 0.84170 0.54356
 C668 C 0.74381 0.81544 0.56608
 C669 C 0.71177 0.80097 0.56789
 C670 C 0.68558 0.81401 0.54727
 C671 C 0.69190 0.84202 0.52549
 C672 C 0.72565 0.85395 0.52115
 C673 C 0.66362 0.85791 0.51082
 N674 N 0.63252 0.84402 0.51373
 N675 N 0.62738 0.81560 0.53122
 C676 C 0.65285 0.80012 0.54813
 H677 H 0.77525 0.85271 0.54440
 H678 H 0.76378 0.80691 0.58284
 H679 H 0.66521 0.88173 0.49798
 H680 H 0.64719 0.77725 0.56220
 C681 C 0.77467 0.86375 0.43038
 C682 C 0.78324 0.83968 0.40780
 C683 C 0.76051 0.81395 0.39887
 C684 C 0.72697 0.81576 0.40918
 C685 C 0.71832 0.84077 0.43183
 C686 C 0.74365 0.86211 0.44582
 C687 C 0.68432 0.84494 0.43779
 N688 N 0.66079 0.82382 0.42452
 N689 N 0.66904 0.79919 0.40472
 C690 C 0.70124 0.79468 0.39626
 H691 H 0.79347 0.88252 0.43697
 H692 H 0.80844 0.84021 0.39855
 H693 H 0.67606 0.86652 0.45029
 H694 H 0.70599 0.77567 0.37848
 C695 C 0.27882 0.35778 -0.05807
 C696 C 0.28209 0.33731 -0.08505
 C697 C 0.25609 0.31540 -0.09525
 C698 C 0.22546 0.31535 -0.07830
 C699 C 0.22273 0.33496 -0.04964
 C700 C 0.24984 0.35652 -0.03938
 C701 C 0.19261 0.33237 -0.03249
 N702 N 0.16658 0.31335 -0.04428
 N703 N 0.16849 0.29671 -0.07212
 C704 C 0.19687 0.29723 -0.08960
 H705 H 0.29938 0.37485 -0.05216
 H706 H 0.30548 0.33843 -0.09791
 H707 H 0.18933 0.34495 -0.00971
 H708 H 0.19632 0.28417 -0.11254
 C709 C 0.74303 0.19064 -0.02499
 C710 C 0.73715 0.20908 -0.05415
 C711 C 0.73112 0.19263 -0.08373
 C712 C 0.73169 0.15678 -0.08411
 C713 C 0.73814 0.13785 -0.05443
 C714 C 0.74340 0.15507 -0.02436
 C715 C 0.73930 0.10228 -0.05621
 N716 N 0.73427 0.08704 -0.08543
 N717 N 0.72831 0.10486 -0.11315
 C718 C 0.72692 0.13917 -0.11352
 H719 H 0.74808 0.20467 -0.00291
 H720 H 0.73732 0.23654 -0.05362
 H721 H 0.74390 0.08624 -0.03480
 H722 H 0.72236 0.15230 -0.13683
 C723 C 0.26581 0.66570 0.44920
 C724 C 0.26301 0.68362 0.41945
 C725 C 0.23582 0.67797 0.39766
 C726 C 0.21278 0.65121 0.40495
 C727 C 0.21417 0.63449 0.43641
 C728 C 0.24056 0.64292 0.45935
 C729 C 0.18962 0.60942 0.44282
 N730 N 0.16661 0.60069 0.41924
 N731 N 0.16649 0.61512 0.38937
 C732 C 0.18900 0.63972 0.38132
 H733 H 0.28694 0.67165 0.46554
 H734 H 0.28160 0.70313 0.41421
 H735 H 0.18889 0.59548 0.46554
 H736 H 0.18874 0.64911 0.35618
 C737 C 0.26336 0.64765 0.56616
 C738 C 0.27137 0.66939 0.59161
 C739 C 0.26969 0.70461 0.58689
 C740 C 0.25952 0.71801 0.55550
 C741 C 0.24878 0.69573 0.53018
 C742 C 0.25286 0.66004 0.53499
 C743 C 0.23375 0.71046 0.50162
 N744 N 0.23361 0.74461 0.49702
 N745 N 0.24703 0.76524 0.51929
 C746 C 0.26005 0.75312 0.54831
 H747 H 0.26588 0.62063 0.57092
 H748 H 0.27866 0.65841 0.61538
 H749 H 0.22088 0.69567 0.48339
 H750 H 0.27105 0.77109 0.56518
 C751 C 0.78445 0.16416 0.07129
 C752 C 0.78641 0.18435 0.09869
 C753 C 0.75964 0.20496 0.10676
 C754 C 0.73044 0.20568 0.08573
 C755 C 0.72763 0.18312 0.05902
 C756 C 0.75526 0.16285 0.05142
 C757 C 0.69793 0.18132 0.03950
 N758 N 0.67266 0.20370 0.04663
 N759 N 0.67635 0.22738 0.07058
 C760 C 0.70460 0.22894 0.08968
 H761 H 0.80567 0.14846 0.06654
 H762 H 0.80897 0.18311 0.11415
 H763 H 0.67324 0.19104 0.03599
 H764 H 0.70678 0.24897 0.10715
 C765 C 0.46171 0.31339 0.59539
 C766 C 0.46013 0.34238 0.57530
 C767 C 0.48694 0.35211 0.55567
 C768 C 0.51625 0.33207 0.55656
 C769 C 0.51767 0.30202 0.57667
 C770 C 0.49037 0.29315 0.59713
 C771 C 0.54680 0.28231 0.57584
 N772 N 0.57290 0.29261 0.55732
 N773 N 0.57201 0.32137 0.53954
 C774 C 0.54475 0.34154 0.53870
 H775 H 0.43985 0.30675 0.60932
 H776 H 0.43733 0.35708 0.57467
 H777 H 0.54958 0.25916 0.59008
 H778 H 0.54604 0.36499 0.52452
 C779 C -0.00827 0.78749 0.06474
 C780 C -0.00860 0.81705 0.04533
 C781 C -0.00645 0.84897 0.05955
 C782 C -0.00200 0.85094 0.09413
 C783 C -0.00341 0.82092 0.11408
 C784 C -0.00657 0.78879 0.09908
 C785 C -0.00230 0.82441 0.14844
 N786 N 0.00260 0.85536 0.16159
 N787 N 0.00624 0.88317 0.14278
 C788 C 0.00422 0.88202 0.10956
 H789 H -0.01000 0.76347 0.05260
 H790 H -0.01167 0.81488 0.01894
 H791 H -0.00580 0.80314 0.16511
 H792 H 0.00809 0.90535 0.09563
 C793 C 0.01862 0.68669 0.09992
 C794 C 0.02060 0.65842 0.08043
 C795 C -0.00532 0.65013 0.05795
 C796 C -0.03487 0.66990 0.05686
 C797 C -0.03603 0.69997 0.07533
 C798 C -0.00857 0.70883 0.09669
 C799 C -0.06506 0.71978 0.07198
 N800 N -0.09158 0.70933 0.05306
 N801 N -0.09117 0.68027 0.03726
 C802 C -0.06389 0.66012 0.03870
 H803 H 0.03909 0.69129 0.11728
 H804 H 0.04312 0.64337 0.08250
 H805 H -0.06707 0.74344 0.08411
 H806 H -0.06566 0.63624 0.02640
 C807 C 0.51912 0.19857 0.59720
 C808 C 0.52281 0.17326 0.57461
 C809 C 0.49691 0.16493 0.55201
 C810 C 0.46586 0.18206 0.55366
 C811 C 0.46297 0.20973 0.57517
 C812 C 0.48989 0.21777 0.59753
 C813 C 0.43288 0.22803 0.57367
 N814 N 0.40680 0.21777 0.55405
 N815 N 0.40871 0.19044 0.53579
 C816 C 0.43716 0.17210 0.53516
 H817 H 0.54033 0.20407 0.61343
 H818 H 0.54686 0.16092 0.57433
 H819 H 0.42940 0.25002 0.58821
 H820 H 0.43654 0.14936 0.52102
 C821 C -0.01786 0.19395 0.39561
 C822 C -0.02355 0.16482 0.41496
 C823 C 0.00012 0.15388 0.43898
 C824 C 0.03104 0.17200 0.44214
 C825 C 0.03576 0.20307 0.42423
 C826 C 0.01097 0.21423 0.40054
 C827 C 0.06560 0.22160 0.43054
 N828 N 0.08988 0.20874 0.45109
 N829 N 0.08645 0.17849 0.46588
 C830 C 0.05805 0.15960 0.46191
 H831 H -0.03649 0.20052 0.37680
 H832 H -0.04699 0.15099 0.41140
 H833 H 0.06998 0.24619 0.41960
 H834 H 0.05739 0.13472 0.47356
 C835 C 0.48784 0.67936 0.89205
 C836 C 0.48629 0.64965 0.91117
 C837 C 0.50899 0.64384 0.93757
 C838 C 0.53539 0.66777 0.94303
 C839 C 0.53576 0.69912 0.92478
 C840 C 0.51091 0.70546 0.89953
 C841 C 0.56154 0.72254 0.93225
 N842 N 0.58595 0.71468 0.95497
 N843 N 0.58651 0.68475 0.97077
 C844 C 0.56228 0.66097 0.96539
 H845 H 0.46989 0.68215 0.87175
 H846 H 0.46646 0.63145 0.90564
 H847 H 0.56300 0.74678 0.92023
 H848 H 0.56500 0.63667 0.97791
 C849 C 0.49179 0.79755 0.91769
 C850 C 0.49503 0.82771 0.93456
 C851 C 0.52236 0.84975 0.92975
 C852 C 0.54625 0.84102 0.90641
 C853 C 0.54586 0.80788 0.89352
 C854 C 0.51678 0.78649 0.89712
 C855 C 0.57525 0.79776 0.87833
 N856 N 0.59940 0.82088 0.87056
 N857 N 0.59665 0.85338 0.87779
 C858 C 0.57074 0.86427 0.89526
 H859 H 0.46947 0.78290 0.92159
 H860 H 0.47593 0.83348 0.95179
 H861 H 0.57992 0.77175 0.87313
 H862 H 0.56931 0.89104 0.89994
 C863 C 0.00983 0.28821 0.43242
 C864 C 0.01037 0.31552 0.45340
 C865 C 0.01762 0.34829 0.44159
 C866 C 0.02246 0.35406 0.40767
 C867 C 0.02184 0.32631 0.38616
 C868 C 0.01671 0.29272 0.39897
 C869 C 0.02766 0.33328 0.35276
 N870 N 0.03292 0.36560 0.34176
 N871 N 0.03289 0.39160 0.36191
 C872 C 0.02791 0.38694 0.39448
 H873 H 0.00442 0.26334 0.44285
 H874 H 0.00631 0.31086 0.47933
 H875 H 0.02890 0.31345 0.33540
 H876 H 0.02797 0.40900 0.40970
 C877 C 0.31704 0.61647 0.51446
 C878 C 0.34828 0.60163 0.51155
 C879 C 0.35180 0.57317 0.49239
 C880 C 0.32342 0.55934 0.47564
 C881 C 0.29147 0.57420 0.47875
 C882 C 0.28810 0.60293 0.49888
 C883 C 0.26405 0.55944 0.46156
 N884 N 0.26838 0.53205 0.44281
 N885 N 0.29837 0.51824 0.43998
 C886 C 0.32601 0.53088 0.45578
 H887 H 0.31598 0.63913 0.52867
 H888 H 0.36997 0.61258 0.52424
 H889 H 0.23912 0.56887 0.46315
 H890 H 0.34971 0.51856 0.45260
 C891 C 0.79536 0.07617 0.01124
 C892 C 0.82472 0.05854 0.00714
 C893 C 0.85513 0.07562 0.00180
 C894 C 0.85582 0.11161 0.00086
 C895 C 0.82557 0.12973 0.00443
 C896 C 0.79510 0.11168 0.01039
 C897 C 0.82720 0.16540 0.00236
 N898 N 0.85704 0.18160 -0.00182
 N899 N 0.88546 0.16463 -0.00401
 C900 C 0.88592 0.13028 -0.00260
 H901 H 0.77259 0.06149 0.01451
 H902 H 0.82344 0.03107 0.00753
 H903 H 0.80530 0.18074 0.00452
 H904 H 0.90992 0.11809 -0.00362
 C905 C 0.69114 0.09883 0.00845
 C906 C 0.66692 0.07378 0.01385
 C907 C 0.67057 0.05010 0.03988
 C908 C 0.69898 0.05230 0.06153
 C909 C 0.72380 0.07791 0.05605
 C910 C 0.72035 0.10057 0.02834
 C911 C 0.75171 0.07908 0.07810
 N912 N 0.75468 0.05606 0.10329
 N913 N 0.73176 0.03172 0.10795
 C914 C 0.70420 0.02889 0.08785
 H915 H 0.68704 0.11659 -0.01190
 H916 H 0.64511 0.07271 -0.00268
 H917 H 0.77157 0.09754 0.07543
 H918 H 0.68696 0.00813 0.09258
 C919 C 0.22381 0.56395 0.53087
 C920 C 0.20031 0.53987 0.54119
 C921 C 0.16665 0.54836 0.54402
 C922 C 0.15663 0.58225 0.53759
 C923 C 0.18054 0.60681 0.52668
 C924 C 0.21422 0.59702 0.52169
 C925 C 0.16935 0.63995 0.51975
 N926 N 0.13672 0.64783 0.52347
 N927 N 0.11433 0.62473 0.53344
 C928 C 0.12310 0.59221 0.54044
 H929 H 0.24952 0.55606 0.52924
 H930 H 0.20836 0.51409 0.54632
 H931 H 0.18598 0.65965 0.51117
 H932 H 0.10371 0.57457 0.54805
 C933 C 0.18354 0.40994 0.01097
 C934 C 0.15466 0.42908 0.00661
 C935 C 0.14963 0.44968 -0.02147
 C936 C 0.17447 0.45131 -0.04564
 C937 C 0.20431 0.43220 -0.04098
 C938 C 0.20897 0.41145 -0.01210
 C939 C 0.22887 0.43553 -0.06501
 N940 N 0.22363 0.45613 -0.09180
 N941 N 0.19564 0.47391 -0.09615
 C942 C 0.17100 0.47236 -0.07395
 H943 H 0.18560 0.39369 0.03265
 H944 H 0.13573 0.42733 0.02514
 H945 H 0.25248 0.42261 -0.06266
 H946 H 0.14919 0.48794 -0.07852
 C947 C 0.69826 0.93120 0.45246
 C948 C 0.67186 0.95383 0.44894
 C949 C 0.65734 0.96760 0.47644
 C950 C 0.67084 0.95926 0.50832
 C951 C 0.69890 0.93747 0.51174
 C952 C 0.71111 0.92161 0.48361
 C953 C 0.71275 0.93111 0.54351
 N954 N 0.69826 0.94399 0.57002
 N955 N 0.67075 0.96266 0.56699
 C956 C 0.65640 0.97046 0.53719
 H957 H 0.70784 0.92023 0.43061
 H958 H 0.66220 0.96014 0.42441
 H959 H 0.73505 0.91621 0.54767
 H960 H 0.63348 0.98463 0.53671
 C961 C 0.78697 0.93815 0.49931
 C962 C 0.81795 0.95425 0.50372
 C963 C 0.84760 0.93579 0.50602
 C964 C 0.84590 0.90000 0.50371
 C965 C 0.81418 0.88335 0.49913
 C966 C 0.78411 0.90277 0.49688
 C967 C 0.81401 0.84789 0.49554
 N968 N 0.84318 0.83060 0.49677
 N969 N 0.87271 0.84626 0.50097
 C970 C 0.87509 0.88030 0.50429
 H971 H 0.76528 0.95418 0.49714
 H972 H 0.81875 0.98164 0.50524
 H973 H 0.79102 0.83361 0.49151
 H974 H 0.89986 0.89154 0.50676
 C975 C 0.31718 0.38904 0.00818
 C976 C 0.34955 0.40259 0.01025
 C977 C 0.35511 0.43757 0.00786
 C978 C 0.32719 0.45953 0.00581
 C979 C 0.29394 0.44575 0.00379
 C980 C 0.28906 0.40981 0.00320
 C981 C 0.26724 0.46874 0.00381
 N982 N 0.27327 0.50258 0.00475
 N983 N 0.30429 0.51533 0.00631
 C984 C 0.33138 0.49501 0.00723
 H985 H 0.31424 0.36168 0.00933
 H986 H 0.37057 0.38549 0.01285
 H987 H 0.24168 0.46070 0.00482
 H988 H 0.35578 0.50696 0.01004
 C989 C 0.56565 0.50177 0.28644
 C990 C 0.54216 0.50075 0.31109
 C991 C 0.55166 0.49198 0.34346
 C992 C 0.58579 0.48542 0.35152
 C993 C 0.60981 0.48615 0.32644
 C994 C 0.59946 0.49393 0.29326
 C995 C 0.64334 0.47878 0.33573
 N996 N 0.65205 0.47202 0.36764
 N997 N 0.62960 0.47209 0.39112
 C998 C 0.59683 0.47858 0.38418
 H999 H 0.55705 0.50919 0.26194
 H1000 H 0.51619 0.50636 0.30474
 H1001 H 0.66283 0.47784 0.31816
 H1002 H 0.57988 0.47870 0.40438
 C1003 C 0.08987 0.01725 0.81428
 C1004 C 0.06675 0.01580 0.83918
 C1005 C 0.04125 -0.00890 0.83940
 C1006 C 0.03769 -0.03130 0.81288
 C1007 C 0.06159 -0.03034 0.78776
 C1008 C 0.08832 -0.00600 0.78882
 C1009 C 0.05833 -0.05465 0.76308
 N1010 N 0.03207 -0.07686 0.76278
 N1011 N 0.00888 -0.07667 0.78556
 C1012 C 0.01076 -0.05467 0.81055
 H1013 H 0.10942 0.03649 0.81541
 H1014 H 0.06963 0.03329 0.85917
 H1015 H 0.07648 -0.05676 0.74427
 H1016 H -0.00906 -0.05543 0.82808
 C1017 C 0.09517 -0.01682 0.69312
 C1018 C 0.07423 -0.01242 0.66534
 C1019 C 0.05264 0.01522 0.66202
 C1020 C 0.05179 0.03867 0.68778
 C1021 C 0.07399 0.03490 0.71566
 C1022 C 0.09572 0.00646 0.71858
 C1023 C 0.07316 0.05973 0.73988
 N1024 N 0.05074 0.08522 0.73714
 N1025 N 0.02891 0.08770 0.71186
 C1026 C 0.02853 0.06527 0.68726
 H1027 H 0.11027 -0.03931 0.69480
 H1028 H 0.07496 -0.03088 0.64616
 H1029 H 0.09018 0.05957 0.76088
 H1030 H 0.00952 0.06818 0.66799
 C1031 C 0.58089 0.47991 0.21028
 C1032 C 0.56090 0.48240 0.18171
 C1033 C 0.56759 0.50691 0.15725
 C1034 C 0.59661 0.52794 0.16101
 C1035 C 0.61599 0.52688 0.19110
 C1036 C 0.60742 0.50283 0.21652
 C1037 C 0.64386 0.54915 0.19354
 N1038 N 0.65231 0.56970 0.16786
 N1039 N 0.63511 0.56942 0.13941
 C1040 C 0.60792 0.54897 0.13498
 H1041 H 0.57466 0.46033 0.22833
 H1042 H 0.53954 0.46530 0.17904
 H1043 H 0.66015 0.54991 0.21470
 H1044 H 0.59638 0.54860 0.11070
 C1045 C 0.44252 -0.01287 0.20414
 C1046 C 0.46428 -0.02203 0.18001
 C1047 C 0.45323 -0.04173 0.15348
 C1048 C 0.41950 -0.05391 0.15281
 C1049 C 0.39643 -0.04146 0.17540
 C1050 C 0.40827 -0.02096 0.20171
 C1051 C 0.36225 -0.04998 0.17053
 N1052 N 0.35264 -0.07259 0.14748
 N1053 N 0.37485 -0.08707 0.12877
 C1054 C 0.40793 -0.07870 0.13081
 H1055 H 0.45276 0.00153 0.22433
 H1056 H 0.48990 -0.01276 0.18201
 H1057 H 0.34296 -0.03865 0.18435
 H1058 H 0.42488 -0.09231 0.11595
 C1059 C 0.92831 0.50422 0.70450
 C1060 C 0.95029 0.49624 0.68016
 C1061 C 0.94011 0.47595 0.65376
 C1062 C 0.90617 0.46406 0.65223
 C1063 C 0.88277 0.47614 0.67476
 C1064 C 0.89437 0.49482 0.70230
 C1065 C 0.84863 0.46784 0.66951
 N1066 N 0.83918 0.44563 0.64605
 N1067 N 0.86160 0.43118 0.62755
 C1068 C 0.89473 0.43929 0.63013
 H1069 H 0.93857 0.51744 0.72539
 H1070 H 0.97578 0.50579 0.68262
 H1071 H 0.82933 0.47884 0.68367
 H1072 H 0.91171 0.42509 0.61592
 C1073 C 0.89688 0.49074 0.80314
 C1074 C 0.91774 0.49703 0.83027
 C1075 C 0.93703 0.52684 0.83204
 C1076 C 0.93469 0.55125 0.80589
 C1077 C 0.91305 0.54499 0.77819
 C1078 C 0.89486 0.51370 0.77634
 C1079 C 0.91114 0.57011 0.75298
 N1080 N 0.93009 0.59880 0.75504
 N1081 N 0.95102 0.60416 0.78051
 C1082 C 0.95418 0.58131 0.80581
 H1083 H 0.88232 0.46745 0.80339
 H1084 H 0.91876 0.47831 0.85024
 H1085 H 0.89555 0.56705 0.73122
 H1086 H 0.97227 0.58682 0.82524
 C1087 C 0.40464 -0.00554 0.30077
 C1088 C 0.42376 0.00476 0.32792
 C1089 C 0.44417 0.03385 0.32630
 C1090 C 0.44486 0.05335 0.29657
 C1091 C 0.42542 0.04273 0.26866
 C1092 C 0.40586 0.01228 0.27060
 C1093 C 0.42684 0.06283 0.23963
 N1094 N 0.44664 0.09104 0.23856
 N1095 N 0.46526 0.10055 0.26449
 C1096 C 0.46521 0.08261 0.29333
 H1097 H 0.38911 -0.02802 0.30362
 H1098 H 0.42270 -0.01031 0.35052
 H1099 H 0.41293 0.05629 0.21754
 H1100 H 0.48129 0.09136 0.31326
   
