data_POSCAR
  _audit_creation_date              2014-09-24
  _audit_creation_method            'ToBaCCo'
  _symmetry_space_group_name_H-M    'P1'
  _symmetry_Int_Tables_number       1
  _symmetry_cell_setting            triclinic
  loop_
  _symmetry_equiv_pos_as_xyz
 x,y,z
_cell_length_a 50.1091
_cell_length_b 50.0719
_cell_length_c 50.1442
_cell_angle_alpha 89.931400
_cell_angle_beta 89.961100
_cell_angle_gamma 89.996200
loop_
  _atom_site_label
  _atom_site_type_symbol
  _atom_site_fract_x
  _atom_site_fract_y
  _atom_site_fract_z
C1 C 0.25014 0.27017 0.22971
 C2 C 0.27002 0.27005 0.20999
 C3 C 0.28997 0.25026 0.20982
 C4 C 0.28977 0.23046 0.22978
 C5 C 0.27002 0.23033 0.24962
 C6 C 0.25012 0.25024 0.24961
 C7 C 0.23027 0.28992 0.22982
 C8 C 0.21030 0.29009 0.24957
 C9 C 0.21047 0.27011 0.26935
 C10 C 0.23021 0.25023 0.26949
 C11 C 0.23032 0.23034 0.28922
 C12 C 0.25009 0.21037 0.28942
 C13 C 0.26988 0.21057 0.26948
 H14 H 0.26989 0.28543 0.19476
 H15 H 0.30500 0.21509 0.22992
 H16 H 0.23042 0.30516 0.21446
 H17 H 0.19523 0.26996 0.28469
 H18 H 0.21494 0.23047 0.30444
 H19 H 0.28524 0.19533 0.26936
 C20 C 0.74970 -0.26997 0.22980
 C21 C 0.72979 -0.26990 0.21013
 C22 C 0.70968 -0.25017 0.20992
 C23 C 0.70994 -0.23039 0.22995
 C24 C 0.72974 -0.23025 0.24972
 C25 C 0.74969 -0.25010 0.24966
 C26 C 0.76962 -0.28968 0.22986
 C27 C 0.78971 -0.28992 0.24956
 C28 C 0.78943 -0.26988 0.26932
 C29 C 0.76963 -0.25007 0.26948
 C30 C 0.76950 -0.23021 0.28920
 C31 C 0.74968 -0.21029 0.28945
 C32 C 0.72986 -0.21051 0.26957
 H33 H 0.73008 -0.28533 0.19499
 H34 H 0.69475 -0.21498 0.23028
 H35 H 0.76934 -0.30484 0.21444
 H36 H 0.80462 -0.26956 0.28470
 H37 H 0.78490 -0.23031 0.30437
 H38 H 0.71446 -0.19532 0.26949
 C39 C 0.75020 0.27034 0.76991
 C40 C 0.73032 0.27021 0.78964
 C41 C 0.71027 0.25042 0.78992
 C42 C 0.71056 0.23065 0.76989
 C43 C 0.73033 0.23056 0.75006
 C44 C 0.75022 0.25046 0.75005
 C45 C 0.77006 0.29010 0.76980
 C46 C 0.79013 0.29039 0.75004
 C47 C 0.78988 0.27035 0.73028
 C48 C 0.77013 0.25048 0.73018
 C49 C 0.77003 0.23062 0.71046
 C50 C 0.75026 0.21065 0.71028
 C51 C 0.73047 0.21082 0.73021
 H52 H 0.73059 0.28565 0.80478
 H53 H 0.69541 0.21519 0.76961
 H54 H 0.76976 0.30525 0.78522
 H55 H 0.80505 0.27007 0.71486
 H56 H 0.78540 0.23076 0.69525
 H57 H 0.71512 0.19558 0.73035
 C58 C 0.24959 -0.27069 0.77060
 C59 C 0.26944 -0.27058 0.79034
 C60 C 0.28944 -0.25085 0.79048
 C61 C 0.28933 -0.23109 0.77049
 C62 C 0.26962 -0.23095 0.75063
 C63 C 0.24967 -0.25082 0.75067
 C64 C 0.22969 -0.29041 0.77053
 C65 C 0.20966 -0.29065 0.75075
 C66 C 0.21001 -0.27061 0.73094
 C67 C 0.22980 -0.25080 0.73079
 C68 C 0.23000 -0.23094 0.71101
 C69 C 0.24982 -0.21102 0.71078
 C70 C 0.26957 -0.21122 0.73073
 H71 H 0.26925 -0.28593 0.80559
 H72 H 0.30459 -0.21576 0.77032
 H73 H 0.22992 -0.30555 0.78600
 H74 H 0.19488 -0.27031 0.71550
 H75 H 0.21466 -0.23106 0.69579
 H76 H 0.28496 -0.19602 0.73084
 C77 C 0.75013 -0.27023 0.77040
 C78 C 0.73027 -0.27011 0.79015
 C79 C 0.71029 -0.25036 0.79031
 C80 C 0.71042 -0.23060 0.77033
 C81 C 0.73014 -0.23047 0.75046
 C82 C 0.75008 -0.25035 0.75048
 C83 C 0.77001 -0.28995 0.77031
 C84 C 0.79005 -0.29021 0.75052
 C85 C 0.78973 -0.27017 0.73071
 C86 C 0.76995 -0.25034 0.73058
 C87 C 0.76978 -0.23048 0.71082
 C88 C 0.74997 -0.21055 0.71061
 C89 C 0.73022 -0.21074 0.73057
 H90 H 0.73044 -0.28547 0.80540
 H91 H 0.69516 -0.21525 0.77018
 H92 H 0.76976 -0.30510 0.78578
 H93 H 0.80487 -0.26987 0.71526
 H94 H 0.78513 -0.23060 0.69558
 H95 H 0.71483 -0.19553 0.73069
 C96 C 0.25011 0.26979 0.76968
 C97 C 0.27002 0.26969 0.78933
 C98 C 0.29002 0.24995 0.78945
 C99 C 0.28983 0.23018 0.76952
 C100 C 0.27004 0.23002 0.74974
 C101 C 0.25010 0.24989 0.74980
 C102 C 0.23020 0.28949 0.76961
 C103 C 0.21020 0.28964 0.74993
 C104 C 0.21036 0.26969 0.73017
 C105 C 0.23014 0.24986 0.72999
 C106 C 0.23026 0.23000 0.71028
 C107 C 0.25008 0.21008 0.71004
 C108 C 0.26991 0.21029 0.72991
 H109 H 0.26989 0.28505 0.80454
 H110 H 0.30509 0.21484 0.76934
 H111 H 0.23035 0.30472 0.78496
 H112 H 0.19510 0.26953 0.71488
 H113 H 0.21486 0.23011 0.69512
 H114 H 0.28530 0.19509 0.73000
 C115 C 0.24983 -0.27041 0.22975
 C116 C 0.26976 -0.27035 0.21008
 C117 C 0.28990 -0.25066 0.20989
 C118 C 0.28966 -0.23091 0.22994
 C119 C 0.26985 -0.23076 0.24972
 C120 C 0.24986 -0.25057 0.24964
 C121 C 0.22988 -0.29008 0.22979
 C122 C 0.20976 -0.29030 0.24950
 C123 C 0.21006 -0.27028 0.26928
 C124 C 0.22990 -0.25052 0.26946
 C125 C 0.23005 -0.23069 0.28921
 C126 C 0.24991 -0.21083 0.28947
 C127 C 0.26975 -0.21106 0.26959
 H128 H 0.26945 -0.28576 0.19491
 H129 H 0.30488 -0.21554 0.23029
 H130 H 0.23014 -0.30521 0.21434
 H131 H 0.19486 -0.26996 0.28467
 H132 H 0.21464 -0.23079 0.30439
 H133 H 0.28518 -0.19589 0.26952
 C134 C 0.75063 0.27070 0.22988
 C135 C 0.73082 0.27054 0.21012
 C136 C 0.71089 0.25074 0.20994
 C137 C 0.71104 0.23096 0.22990
 C138 C 0.73073 0.23087 0.24978
 C139 C 0.75061 0.25080 0.24978
 C140 C 0.77046 0.29047 0.22999
 C141 C 0.79046 0.29077 0.24979
 C142 C 0.79017 0.27071 0.26958
 C143 C 0.77045 0.25083 0.26969
 C144 C 0.77030 0.23095 0.28944
 C145 C 0.75055 0.21096 0.28961
 C146 C 0.73082 0.21112 0.26965
 H147 H 0.73096 0.28591 0.19488
 H148 H 0.69583 0.21557 0.23004
 H149 H 0.77019 0.30563 0.21454
 H150 H 0.80529 0.27045 0.28504
 H151 H 0.78562 0.23109 0.30468
 H152 H 0.71548 0.19587 0.26950
 O153 O 0.22799 0.02550 0.47393
 O154 O 0.22801 -0.02654 0.52592
 O155 O 0.22799 0.02547 0.52586
 O156 O 0.22799 -0.02651 0.47398
 O157 O 0.27208 -0.02651 0.47394
 O158 O 0.27209 0.02547 0.52583
 O159 O 0.27210 -0.02654 0.52589
 O160 O 0.27208 0.02550 0.47390
 Cu161 Cu 0.22357 -0.00052 0.49993
 Cu162 Cu 0.27652 -0.00052 0.49988
 C163 C 0.25003 0.03435 0.46508
 C164 C 0.25005 -0.03538 0.53475
 C165 C 0.25004 0.03431 0.53467
 C166 C 0.25004 -0.03535 0.46514
 O167 O 0.77215 0.02600 0.52593
 O168 O 0.77201 -0.02596 0.47398
 O169 O 0.77216 0.02605 0.47400
 O170 O 0.77203 -0.02601 0.52592
 O171 O 0.72794 -0.02591 0.52596
 O172 O 0.72806 0.02616 0.47403
 O173 O 0.72792 -0.02585 0.47401
 O174 O 0.72805 0.02610 0.52596
 Cu175 Cu 0.77652 0.00001 0.49995
 Cu176 Cu 0.72357 0.00014 0.49999
 C177 C 0.75012 0.03489 0.53478
 C178 C 0.74995 -0.03473 0.46516
 C179 C 0.75013 0.03497 0.46519
 C180 C 0.74997 -0.03481 0.53477
 O181 O 0.47473 0.22827 0.02547
 O182 O 0.52673 0.22828 -0.02649
 O183 O 0.52670 0.22834 0.02545
 O184 O 0.47476 0.22822 -0.02646
 O185 O 0.47470 0.27235 -0.02656
 O186 O 0.52664 0.27247 0.02535
 O187 O 0.52667 0.27241 -0.02659
 O188 O 0.47467 0.27240 0.02537
 Cu189 Cu 0.50074 0.22385 -0.00050
 Cu190 Cu 0.50067 0.27684 -0.00062
 C191 C 0.46585 0.25033 0.03425
 C192 C 0.53554 0.25035 -0.03538
 C193 C 0.53550 0.25042 0.03423
 C194 C 0.46590 0.25026 -0.03534
 O195 O 0.52582 0.77148 0.02681
 O196 O 0.47385 0.77136 -0.02511
 O197 O 0.47384 0.77139 0.02682
 O198 O 0.52582 0.77146 -0.02513
 O199 O 0.52590 0.72733 -0.02505
 O200 O 0.47392 0.72726 0.02689
 O201 O 0.47393 0.72724 -0.02504
 O202 O 0.52590 0.72736 0.02689
 Cu203 Cu 0.49983 0.77586 0.00084
 Cu204 Cu 0.49992 0.72287 0.00093
 C205 C 0.53470 0.74944 0.03568
 C206 C 0.46505 0.74928 -0.03390
 C207 C 0.46504 0.74931 0.03569
 C208 C 0.53470 0.74941 -0.03393
 O209 O 0.02563 0.47471 0.22743
 O210 O -0.02637 0.52671 0.22741
 O211 O 0.02561 0.52672 0.22737
 O212 O -0.02633 0.47470 0.22748
 O213 O -0.02632 0.47470 0.27154
 O214 O 0.02562 0.52672 0.27143
 O215 O -0.02637 0.52671 0.27147
 O216 O 0.02564 0.47471 0.27149
 Cu217 Cu -0.00037 0.50071 0.22299
 Cu218 Cu -0.00036 0.50071 0.27591
 C219 C 0.03448 0.46587 0.24946
 C220 C -0.03522 0.53555 0.24943
 C221 C 0.03445 0.53556 0.24938
 C222 C -0.03516 0.46585 0.24953
 O223 O 0.02557 0.52608 0.77257
 O224 O -0.02645 0.47411 0.77240
 O225 O 0.02552 0.47408 0.77243
 O226 O -0.02641 0.52613 0.77251
 O227 O -0.02634 0.52628 0.72845
 O228 O 0.02558 0.47424 0.72837
 O229 O -0.02638 0.47426 0.72834
 O230 O 0.02564 0.52624 0.72851
 Cu231 Cu -0.00045 0.50009 0.77690
 Cu232 Cu -0.00037 0.50027 0.72399
 C233 C 0.03446 0.53499 0.75057
 C234 C -0.03526 0.46534 0.75034
 C235 C 0.03438 0.46531 0.75039
 C236 C -0.03521 0.53505 0.75049
 N237 N 0.33007 0.26933 0.15075
 C238 C 0.34927 0.25027 0.15061
 N239 N 0.34909 0.23121 0.16981
 N240 N 0.33027 0.23121 0.18860
 C241 C 0.31094 0.25027 0.18889
 N242 N 0.31126 0.26932 0.16955
 C243 C 0.36953 0.25027 0.13037
 C244 C 0.38656 0.25027 0.11337
 C245 C 0.40684 0.25029 0.09314
 N246 N 0.41657 0.22694 0.08352
 N247 N 0.43540 0.22696 0.06473
 C248 C 0.44512 0.25032 0.05495
 N249 N 0.43532 0.27367 0.06464
 N250 N 0.41650 0.27365 0.08342
 N251 N 0.67054 0.73072 0.15200
 C252 C 0.65128 0.74971 0.15189
 N253 N 0.65144 0.76874 0.17106
 N254 N 0.67029 0.76878 0.18979
 C255 C 0.68973 0.74979 0.19009
 N256 N 0.68938 0.73077 0.17073
 C257 C 0.63099 0.74967 0.13170
 C258 C 0.61395 0.74963 0.11474
 C259 C 0.59367 0.74958 0.09454
 N260 N 0.58393 0.77291 0.08483
 N261 N 0.56512 0.77287 0.06606
 C262 C 0.55542 0.74949 0.05637
 N263 N 0.56521 0.72616 0.06614
 N264 N 0.58403 0.72621 0.08491
 N265 N 0.67119 0.26942 -0.15204
 C266 C 0.65199 0.25037 -0.15186
 N267 N 0.65217 0.23134 -0.17104
 N268 N 0.67098 0.23136 -0.18983
 C269 C 0.69036 0.25040 -0.19019
 N270 N 0.68999 0.26943 -0.17083
 C271 C 0.63173 0.25035 -0.13162
 C272 C 0.61472 0.25034 -0.11460
 C273 C 0.59448 0.25034 -0.09434
 N274 N 0.58482 0.22699 -0.08460
 N275 N 0.56602 0.22699 -0.06579
 C276 C 0.55626 0.25035 -0.05609
 N277 N 0.56597 0.27370 -0.06590
 N278 N 0.58477 0.27370 -0.08471
 N279 N 0.34853 0.76814 -0.16951
 C280 C 0.34863 0.74912 -0.15027
 N281 N 0.32940 0.73010 -0.15040
 N282 N 0.31062 0.73011 -0.16920
 C283 C 0.31037 0.74914 -0.18857
 N284 N 0.32974 0.76815 -0.18831
 C285 C 0.36887 0.74911 -0.13003
 C286 C 0.38587 0.74913 -0.11302
 C287 C 0.40611 0.74916 -0.09279
 N288 N 0.41583 0.72583 -0.08308
 N289 N 0.43463 0.72586 -0.06429
 C290 C 0.44434 0.74924 -0.05460
 N291 N 0.43456 0.77257 -0.06437
 N292 N 0.41575 0.77253 -0.08315
 N293 N 0.15118 0.33016 0.26856
 C294 C 0.15102 0.34938 0.24950
 N295 N 0.17024 0.34921 0.23047
 N296 N 0.18904 0.33040 0.23050
 C297 C 0.18934 0.31105 0.24955
 N298 N 0.16999 0.31135 0.26858
 C299 C 0.13076 0.36963 0.24947
 C300 C 0.11373 0.38665 0.24946
 C301 C 0.09347 0.40691 0.24946
 N302 N 0.08377 0.41660 0.22614
 N303 N 0.06495 0.43541 0.22614
 C304 C 0.05521 0.44515 0.24946
 N305 N 0.06497 0.43540 0.27278
 N306 N 0.08378 0.41659 0.27278
 N307 N 0.17042 0.65134 0.76986
 C308 C 0.15126 0.65121 0.75082
 N309 N 0.15151 0.67041 0.73176
 N310 N 0.17036 0.68917 0.73175
 C311 C 0.18971 0.68949 0.75078
 N312 N 0.18927 0.67011 0.76984
 C313 C 0.13095 0.63100 0.75083
 C314 C 0.11389 0.61402 0.75080
 C315 C 0.09357 0.59382 0.75075
 N316 N 0.08389 0.58424 0.72740
 N317 N 0.06503 0.56548 0.72734
 C318 C 0.05522 0.55568 0.75063
 N319 N 0.06496 0.56532 0.77398
 N320 N 0.08383 0.58408 0.77404
 N321 N -0.15206 0.67113 0.26844
 C322 C -0.15189 0.65192 0.24944
 N323 N -0.17112 0.65205 0.23047
 N324 N -0.18997 0.67083 0.23051
 C325 C -0.19033 0.69021 0.24951
 N326 N -0.17091 0.68990 0.26847
 C327 C -0.13159 0.63170 0.24941
 C328 C -0.11454 0.61470 0.24940
 C329 C -0.09425 0.59447 0.24941
 N330 N -0.08456 0.58479 0.22609
 N331 N -0.06572 0.56600 0.22610
 C332 C -0.05595 0.55626 0.24942
 N333 N -0.06571 0.56601 0.27274
 N334 N -0.08455 0.58480 0.27273
 N335 N -0.15177 0.32951 0.73105
 C336 C -0.15164 0.34870 0.75007
 N337 N -0.17086 0.34851 0.76908
 N338 N -0.18965 0.32969 0.76906
 C339 C -0.18998 0.31031 0.75005
 N340 N -0.17057 0.31070 0.73104
 C341 C -0.13140 0.36898 0.75008
 C342 C -0.11440 0.38602 0.75011
 C343 C -0.09416 0.40630 0.75017
 N344 N -0.08452 0.41593 0.77352
 N345 N -0.06574 0.43476 0.77357
 C346 C -0.05597 0.44460 0.75028
 N347 N -0.06567 0.43492 0.72693
 N348 N -0.08445 0.41608 0.72688
 N349 N 0.23099 0.17024 0.34848
 C350 C 0.25003 0.15102 0.34866
 N351 N 0.26909 0.15119 0.32947
 N352 N 0.26910 0.17003 0.31068
 C353 C 0.25007 0.18939 0.31037
 N354 N 0.23102 0.18907 0.32969
 C355 C 0.25001 0.13073 0.36890
 C356 C 0.25000 0.11369 0.38590
 C357 C 0.25001 0.09340 0.40614
 N358 N 0.27335 0.08370 0.41580
 N359 N 0.27336 0.06486 0.43460
 C360 C 0.25003 0.05510 0.44436
 N361 N 0.22668 0.06486 0.43465
 N362 N 0.22668 0.08370 0.41585
 N363 N 0.73123 0.15155 0.67027
 C364 C 0.75029 0.15139 0.65109
 N365 N 0.76935 0.17059 0.65125
 N366 N 0.76933 0.18939 0.67004
 C367 C 0.75027 0.18969 0.68935
 N368 N 0.73123 0.17036 0.68905
 C369 C 0.75029 0.13113 0.63086
 C370 C 0.75028 0.11412 0.61387
 C371 C 0.75024 0.09386 0.59365
 N372 N 0.77356 0.08412 0.58396
 N373 N 0.77352 0.06531 0.56518
 C374 C 0.75017 0.05561 0.55547
 N375 N 0.72685 0.06541 0.56522
 N376 N 0.72689 0.08422 0.58399
 N377 N 0.23091 -0.17099 0.65162
 C378 C 0.24999 -0.15181 0.65141
 N379 N 0.26901 -0.15198 0.67060
 N380 N 0.26896 -0.17077 0.68944
 C381 C 0.24989 -0.19009 0.68979
 N382 N 0.23087 -0.18977 0.67046
 C383 C 0.25003 -0.13157 0.63112
 C384 C 0.25005 -0.11456 0.61408
 C385 C 0.25006 -0.09432 0.59379
 N386 N 0.22672 -0.08464 0.58410
 N387 N 0.22672 -0.06584 0.56526
 C388 C 0.25006 -0.05610 0.55549
 N389 N 0.27339 -0.06585 0.56523
 N390 N 0.27339 -0.08464 0.58407
 N391 N 0.73059 -0.15125 0.32956
 C392 C 0.74969 -0.15107 0.34867
 N393 N 0.76878 -0.17023 0.34844
 N394 N 0.76877 -0.18902 0.32964
 C395 C 0.74968 -0.18935 0.31039
 N396 N 0.73059 -0.17005 0.31076
 C397 C 0.74971 -0.13083 0.36892
 C398 C 0.74974 -0.11383 0.38593
 C399 C 0.74979 -0.09360 0.40619
 N400 N 0.77315 -0.08400 0.41586
 N401 N 0.77320 -0.06522 0.43467
 C402 C 0.74989 -0.05543 0.44444
 N403 N 0.72653 -0.06510 0.43471
 N404 N 0.72648 -0.08387 0.41590
 N405 N 0.65119 0.76861 -0.16964
 C406 C 0.65107 0.74956 -0.15042
 N407 N 0.67030 0.73054 -0.15057
 N408 N 0.68909 0.73057 -0.16938
 C409 C 0.68935 0.74961 -0.18873
 N410 N 0.66998 0.76863 -0.18844
 C411 C 0.63083 0.74953 -0.13018
 C412 C 0.61383 0.74951 -0.11316
 C413 C 0.59360 0.74948 -0.09290
 N414 N 0.58397 0.72612 -0.08317
 N415 N 0.56518 0.72609 -0.06435
 C416 C 0.55540 0.74944 -0.05464
 N417 N 0.56509 0.77281 -0.06443
 N418 N 0.58388 0.77283 -0.08325
 N419 N 0.33015 0.26905 -0.15164
 C420 C 0.34939 0.25003 -0.15153
 N421 N 0.34923 0.23099 -0.17070
 N422 N 0.33039 0.23097 -0.18943
 C423 C 0.31101 0.24998 -0.18969
 N424 N 0.31131 0.26902 -0.17038
 C425 C 0.36967 0.25006 -0.13135
 C426 C 0.38670 0.25009 -0.11439
 C427 C 0.40696 0.25013 -0.09419
 N428 N 0.41668 0.22680 -0.08448
 N429 N 0.43549 0.22684 -0.06570
 C430 C 0.44520 0.25022 -0.05602
 N431 N 0.43542 0.27355 -0.06580
 N432 N 0.41661 0.27351 -0.08457
 N433 N 0.34819 0.76823 0.17105
 C434 C 0.34833 0.74924 0.15184
 N435 N 0.32905 0.73028 0.15192
 N436 N 0.31019 0.73031 0.17066
 C437 C 0.30986 0.74930 0.19006
 N438 N 0.32933 0.76826 0.18979
 C439 C 0.36863 0.74922 0.13165
 C440 C 0.38568 0.74922 0.11469
 C441 C 0.40598 0.74924 0.09451
 N442 N 0.41573 0.72590 0.08489
 N443 N 0.43457 0.72592 0.06612
 C444 C 0.44430 0.74928 0.05636
 N445 N 0.43450 0.77263 0.06605
 N446 N 0.41565 0.77261 0.08481
 N447 N 0.67096 0.26973 0.15080
 C448 C 0.65178 0.25065 0.15064
 N449 N 0.65192 0.23160 0.16985
 N450 N 0.67068 0.23164 0.18867
 C451 C 0.68999 0.25071 0.18897
 N452 N 0.68971 0.26976 0.16962
 C453 C 0.63159 0.25062 0.13038
 C454 C 0.61461 0.25059 0.11336
 C455 C 0.59439 0.25055 0.09312
 N456 N 0.58469 0.27388 0.08340
 N457 N 0.56590 0.27385 0.06460
 C458 C 0.55620 0.25047 0.05492
 N459 N 0.56596 0.22713 0.06471
 N460 N 0.58475 0.22717 0.08350
 N461 N -0.15184 0.67078 0.73150
 C462 C -0.15163 0.65158 0.75056
 N463 N -0.17081 0.65174 0.76961
 N464 N -0.18963 0.67053 0.76960
 C465 C -0.19003 0.68991 0.75054
 N466 N -0.17066 0.68956 0.73149
 C467 C -0.13137 0.63134 0.75056
 C468 C -0.11436 0.61432 0.75056
 C469 C -0.09412 0.59406 0.75055
 N470 N -0.08440 0.58444 0.72722
 N471 N -0.06560 0.56562 0.72720
 C472 C -0.05590 0.55579 0.75052
 N473 N -0.06569 0.56547 0.77385
 N474 N -0.08448 0.58429 0.77386
 N475 N -0.17053 0.34892 0.23072
 C476 C -0.15137 0.34912 0.24976
 N477 N -0.15155 0.32992 0.26882
 N478 N -0.17033 0.31109 0.26882
 C479 C -0.18967 0.31070 0.24978
 N480 N -0.18930 0.33008 0.23073
 C481 C -0.13116 0.36941 0.24974
 C482 C -0.11418 0.38645 0.24971
 C483 C -0.09398 0.40676 0.24967
 N484 N -0.08431 0.41647 0.27297
 N485 N -0.06555 0.43532 0.27292
 C486 C -0.05583 0.44509 0.24958
 N487 N -0.06556 0.43532 0.22628
 N488 N -0.08433 0.41647 0.22632
 N489 N 0.15098 0.32961 0.73109
 C490 C 0.15084 0.34881 0.75011
 N491 N 0.17009 0.34867 0.76907
 N492 N 0.18892 0.32989 0.76901
 C493 C 0.18921 0.31056 0.74999
 N494 N 0.16982 0.31084 0.73104
 C495 C 0.13057 0.36904 0.75016
 C496 C 0.11354 0.38605 0.75021
 C497 C 0.09329 0.40631 0.75026
 N498 N 0.08364 0.41608 0.72696
 N499 N 0.06484 0.43491 0.72700
 C500 C 0.05508 0.44457 0.75034
 N501 N 0.06479 0.43473 0.77365
 N502 N 0.08359 0.41591 0.77360
 N503 N 0.17050 0.65181 0.23034
 C504 C 0.15125 0.65170 0.24931
 N505 N 0.15145 0.67087 0.26835
 N506 N 0.17033 0.68960 0.26840
 C507 C 0.18977 0.68989 0.24943
 N508 N 0.18939 0.67054 0.23040
 C509 C 0.13093 0.63153 0.24927
 C510 C 0.11385 0.61457 0.24927
 C511 C 0.09353 0.59439 0.24929
 N512 N 0.08382 0.58474 0.22599
 N513 N 0.06497 0.56597 0.22601
 C514 C 0.05519 0.55625 0.24935
 N515 N 0.06496 0.56597 0.27266
 N516 N 0.08381 0.58473 0.27263
 N517 N 0.76893 -0.17051 0.65146
 C518 C 0.74986 -0.15132 0.65128
 N519 N 0.73083 -0.15149 0.67048
 N520 N 0.73086 -0.17029 0.68931
 C521 C 0.74993 -0.18961 0.68963
 N522 N 0.76896 -0.18930 0.67029
 C523 C 0.74984 -0.13107 0.63101
 C524 C 0.74985 -0.11406 0.61399
 C525 C 0.74987 -0.09380 0.59373
 N526 N 0.72655 -0.08406 0.58407
 N527 N 0.72658 -0.06525 0.56525
 C528 C 0.74993 -0.05555 0.55548
 N529 N 0.77326 -0.06535 0.56520
 N530 N 0.77322 -0.08417 0.58401
 N531 N 0.23085 -0.17081 0.34851
 C532 C 0.24998 -0.15168 0.34875
 N533 N 0.26909 -0.15189 0.32962
 N534 N 0.26907 -0.17066 0.31081
 C535 C 0.24994 -0.18992 0.31043
 N536 N 0.23084 -0.18957 0.32970
 C537 C 0.25000 -0.13147 0.36900
 C538 C 0.25000 -0.11448 0.38601
 C539 C 0.25001 -0.09426 0.40624
 N540 N 0.27335 -0.08458 0.41590
 N541 N 0.27337 -0.06579 0.43469
 C542 C 0.25003 -0.05605 0.44445
 N543 N 0.22669 -0.06579 0.43474
 N544 N 0.22668 -0.08458 0.41595
 N545 N 0.73144 0.15182 0.32966
 C546 C 0.75044 0.15166 0.34888
 N547 N 0.76947 0.17089 0.34873
 N548 N 0.76950 0.18971 0.32992
 C549 C 0.75051 0.19000 0.31057
 N550 N 0.73148 0.17064 0.31085
 C551 C 0.75040 0.13139 0.36912
 C552 C 0.75035 0.11435 0.38612
 C553 C 0.75029 0.09406 0.40634
 N554 N 0.77360 0.08429 0.41599
 N555 N 0.77355 0.06544 0.43477
 C556 C 0.75019 0.05573 0.44451
 N557 N 0.72687 0.06556 0.43479
 N558 N 0.72693 0.08441 0.41601
 N559 N 0.23095 0.16999 0.65111
 C560 C 0.25004 0.15082 0.65089
 N561 N 0.26914 0.15101 0.67000
 N562 N 0.26915 0.16982 0.68877
 C563 C 0.25007 0.18913 0.68913
 N564 N 0.23097 0.18879 0.66988
 C565 C 0.25001 0.13056 0.63068
 C566 C 0.25001 0.11354 0.61371
 C567 C 0.25002 0.09328 0.59350
 N568 N 0.27336 0.08360 0.58383
 N569 N 0.27337 0.06478 0.56506
 C570 C 0.25004 0.05503 0.55534
 N571 N 0.22669 0.06477 0.56508
 N572 N 0.22669 0.08359 0.58385
   
