data_POSCAR
  _audit_creation_date              2014-09-24
  _audit_creation_method            'ToBaCCo'
  _symmetry_space_group_name_H-M    'P1'
  _symmetry_Int_Tables_number       1
  _symmetry_cell_setting            triclinic
  loop_
  _symmetry_equiv_pos_as_xyz
 x,y,z
_cell_length_a 41.3651
_cell_length_b 40.6266
_cell_length_c 13.7451
_cell_angle_alpha 89.071100
_cell_angle_beta 89.893600
_cell_angle_gamma 120.972600
loop_
  _atom_site_label
  _atom_site_type_symbol
  _atom_site_fract_x
  _atom_site_fract_y
  _atom_site_fract_z
C1 C 0.17688 0.47029 0.43275
 C2 C 0.16203 0.46873 0.52627
 C3 C 0.17862 0.46536 0.61198
 C4 C 0.21093 0.46216 0.60539
 C5 C 0.22703 0.46369 0.51311
 C6 C 0.21037 0.46807 0.42651
 C7 C 0.22753 0.46928 0.33662
 C8 C 0.26021 0.46749 0.33177
 C9 C 0.27667 0.46281 0.41602
 C10 C 0.25986 0.46054 0.50773
 C11 C 0.22622 0.45515 0.68904
 C12 C 0.25772 0.45167 0.68359
 C13 C 0.27593 0.45539 0.59428
 C14 C 0.30849 0.45204 0.58885
 C15 C 0.32382 0.45358 0.49648
 C16 C 0.30976 0.46078 0.41122
 H17 H 0.21618 0.47121 0.26776
 H18 H 0.27202 0.46922 0.26034
 H19 H 0.21330 0.45088 0.76017
 H20 H 0.26667 0.44483 0.75078
 H21 H 0.13950 0.47450 0.53469
 H22 H 0.34910 0.45209 0.49011
 C23 C 0.54026 -0.15868 0.59112
 C24 C 0.53667 -0.14124 0.50644
 C25 C 0.53878 -0.15382 0.41347
 C26 C 0.54489 -0.18488 0.40482
 C27 C 0.54713 -0.20396 0.48954
 C28 C 0.54535 -0.19042 0.58285
 C29 C 0.54958 -0.20845 0.66541
 C30 C 0.55345 -0.24032 0.65713
 C31 C 0.55222 -0.25644 0.56580
 C32 C 0.55064 -0.23695 0.48080
 C33 C 0.54931 -0.19707 0.31333
 C34 C 0.55296 -0.22897 0.30465
 C35 C 0.55214 -0.25043 0.38703
 C36 C 0.55449 -0.28387 0.37782
 C37 C 0.55560 -0.30293 0.46302
 C38 C 0.55298 -0.29100 0.55713
 H39 H 0.55039 -0.19779 0.73758
 H40 H 0.55827 -0.25132 0.72403
 H41 H 0.55065 -0.18178 0.24691
 H42 H 0.55714 -0.23599 0.23200
 H43 H 0.52978 -0.11904 0.51384
 H44 H 0.55381 -0.33008 0.45436
 C45 C 1.17928 0.69473 0.38544
 C46 C 1.16293 0.67365 0.47116
 C47 C 1.17514 0.68942 0.56397
 C48 C 1.20604 0.72837 0.56825
 C49 C 1.22293 0.74994 0.48048
 C50 C 1.20884 0.73307 0.38932
 C51 C 1.22399 0.75510 0.30365
 C52 C 1.25316 0.79300 0.30661
 C53 C 1.26967 0.81022 0.39531
 C54 C 1.25404 0.78854 0.48345
 C55 C 1.21993 0.74714 0.65704
 C56 C 1.25091 0.78431 0.66001
 C57 C 1.26942 0.80514 0.57443
 C58 C 1.30229 0.84234 0.57757
 C59 C 1.31613 0.86356 0.48962
 C60 C 1.30048 0.84874 0.39860
 H61 H 1.21285 0.74341 0.23299
 H62 H 1.26205 0.80836 0.23776
 H63 H 1.20703 0.73400 0.72620
 H64 H 1.25931 0.79687 0.73100
 H65 H 1.14194 0.64367 0.46303
 H66 H 1.34263 0.89031 0.48917
 C67 C 0.68889 0.49826 0.62636
 C68 C 0.66775 0.48920 0.54013
 C69 C 0.67774 0.47706 0.45660
 C70 C 0.71034 0.47415 0.45765
 C71 C 0.73281 0.48392 0.54257
 C72 C 0.72207 0.49587 0.62708
 C73 C 0.74612 0.50732 0.70790
 C74 C 0.77920 0.50626 0.70707
 C75 C 0.79009 0.49361 0.62546
 C76 C 0.76666 0.48266 0.54192
 C77 C 0.72175 0.46297 0.37449
 C78 C 0.75453 0.46156 0.37399
 C79 C 0.77748 0.47147 0.45646
 C80 C 0.81170 0.47185 0.45397
 C81 C 0.83467 0.48300 0.53592
 C82 C 0.82471 0.49377 0.62273
 H83 H 0.74067 0.51879 0.77205
 H84 H 0.79665 0.51699 0.77064
 H85 H 0.70593 0.45592 0.30777
 H86 H 0.76206 0.45338 0.30702
 H87 H 0.64132 0.48867 0.53907
 H88 H 0.85960 0.48074 0.53242
 C89 C 0.45012 0.16098 0.59853
 C90 C 0.45302 0.14543 0.51088
 C91 C 0.45484 0.16272 0.42045
 C92 C 0.45404 0.19716 0.41740
 C93 C 0.45243 0.21418 0.50548
 C94 C 0.45015 0.19585 0.59611
 C95 C 0.44744 0.21263 0.68195
 C96 C 0.44889 0.24758 0.67963
 C97 C 0.45295 0.26743 0.59119
 C98 C 0.45333 0.24973 0.50291
 C99 C 0.45420 0.21474 0.32849
 C100 C 0.45425 0.24896 0.32581
 C101 C 0.45472 0.26746 0.41194
 C102 C 0.45610 0.30295 0.40909
 C103 C 0.45615 0.32020 0.49668
 C104 C 0.45492 0.30349 0.58828
 H105 H 0.44375 0.19877 0.75232
 H106 H 0.44580 0.25814 0.74852
 H107 H 0.45368 0.20194 0.25968
 H108 H 0.45359 0.26050 0.25491
 H109 H 0.45616 0.12056 0.51324
 H110 H 0.46073 0.34892 0.49277
 C111 C 0.67645 0.20462 0.34307
 C112 C 0.64868 0.19148 0.41641
 C113 C 0.65755 0.20410 0.51164
 C114 C 0.69516 0.23190 0.53439
 C115 C 0.72362 0.24594 0.46083
 C116 C 0.71410 0.23288 0.36416
 C117 C 0.74256 0.24779 0.29211
 C118 C 0.77992 0.27449 0.31487
 C119 C 0.79042 0.28634 0.41117
 C120 C 0.76181 0.27224 0.48474
 C121 C 0.70495 0.24599 0.62886
 C122 C 0.74219 0.27116 0.65279
 C123 C 0.77122 0.28441 0.58239
 C124 C 0.80950 0.30758 0.60819
 C125 C 0.83731 0.31848 0.53558
 C126 C 0.82853 0.31178 0.43682
 H127 H 0.73614 0.23880 0.21739
 H128 H 0.80050 0.28480 0.25635
 H129 H 0.68394 0.23724 0.68606
 H130 H 0.74779 0.27902 0.72826
 H131 H 0.61986 0.16970 0.39986
 H132 H 0.86671 0.33612 0.55430
 O133 O 0.97212 0.48635 -0.18358
 O134 O 1.02578 0.55773 0.11600
 O135 O 0.90939 0.46073 0.07627
 O136 O 1.07540 0.55637 -0.09662
 O137 O 0.96049 0.51297 0.11266
 O138 O 1.03943 0.51029 -0.19648
 O139 O 1.07833 0.56140 0.08730
 O140 O 0.95083 0.50407 -0.06263
 C141 C 0.95642 0.50393 -0.15229
 C142 C 1.06047 0.57650 0.11653
 C143 C 0.92606 0.49012 0.13241
 C144 C 1.06407 0.54514 -0.18115
 O145 O 1.02662 0.44411 -0.10232
 O146 O 0.97081 0.45876 0.19970
 O147 O 0.92039 0.43215 -0.08349
 O148 O 1.07393 0.49544 0.10156
 O149 O 1.03926 0.50519 0.20518
 O150 O 0.96361 0.42043 -0.09247
 O151 O 1.07920 0.49518 -0.08221
 O152 O 0.94400 0.42408 0.07691
 Co153 Co 1.00074 0.46715 -0.13292
 Co154 Co 0.99982 0.50714 0.14583
 Co155 Co 0.94995 0.46574 0.01052
 Co156 Co 1.06997 0.52352 0.00285
 O157 O 1.00747 0.49090 0.00326
 C158 C 1.06103 0.46152 -0.11025
 C159 C 0.94905 0.42631 0.16556
 C160 C 0.93062 0.41009 -0.11114
 C161 C 1.06339 0.49552 0.18727
 O162 O 0.47607 0.43601 -0.10432
 O163 O 0.49036 0.52792 0.18958
 O164 O 0.49305 0.43722 0.07394
 O165 O 0.44540 0.51910 -0.10077
 O166 O 0.50072 0.47431 0.19227
 O167 O 0.44140 0.46555 -0.12774
 O168 O 0.44808 0.51897 0.08184
 O169 O 0.52826 0.44188 -0.08109
 C170 C 0.49704 0.42322 -0.11921
 C171 C 0.45722 0.51909 0.16845
 C172 C 0.48592 0.44120 0.15931
 C173 C 0.42747 0.48605 -0.13316
 O174 O 0.50158 0.52905 -0.21077
 O175 O 0.57114 0.52136 0.11503
 O176 O 0.57501 0.51216 -0.05742
 O177 O 0.51465 0.58238 0.07125
 O178 O 0.55934 0.57233 0.10436
 O179 O 0.53963 0.49946 -0.18560
 O180 O 0.51372 0.57608 -0.11192
 O181 O 0.56395 0.46629 0.08581
 Co182 Co 0.49118 0.48428 -0.14562
 Co183 Co 0.52847 0.52246 0.13778
 Co184 Co 0.53336 0.47640 0.01138
 Co185 Co 0.48301 0.54507 -0.01360
 O186 O 0.50672 0.50720 -0.00676
 C187 C 0.51435 0.56433 -0.19555
 C188 C 0.57828 0.49589 0.14143
 C189 C 0.57193 0.51401 -0.14802
 C190 C 0.54692 0.59420 0.10419
 O191 O 0.56242 0.05573 -0.13111
 O192 O 0.49223 -0.02442 0.18787
 O193 O 0.56123 0.07516 0.03866
 O194 O 0.50022 -0.06356 -0.10251
 O195 O 0.53247 0.04520 0.16993
 O196 O 0.54628 -0.00750 -0.13451
 O197 O 0.50362 -0.05724 0.08124
 O198 O 0.54347 0.09384 -0.12046
 C199 C 0.56729 0.08744 -0.15469
 C200 C 0.50487 -0.04598 0.16665
 C201 C 0.56243 0.06851 0.12650
 C202 C 0.53250 -0.04252 -0.13701
 O203 O 0.47711 -0.02919 -0.21068
 O204 O 0.47228 0.04932 0.10430
 O205 O 0.47423 0.05550 -0.07521
 O206 O 0.43564 -0.06959 0.08295
 O207 O 0.43352 -0.01942 0.11885
 O208 O 0.49146 0.03640 -0.20226
 O209 O 0.43587 -0.06696 -0.10029
 O210 O 0.51884 0.10285 0.04704
 Co211 Co 0.51776 0.01352 -0.15826
 Co212 Co 0.48410 0.01228 0.13153
 Co213 Co 0.51652 0.06290 -0.01544
 Co214 Co 0.47174 -0.05761 -0.01028
 O215 O 0.49766 0.00543 -0.01607
 C216 C 0.44375 -0.05417 -0.18596
 C217 C 0.49247 0.08552 0.11231
 C218 C 0.47125 0.04801 -0.16409
 C219 C 0.41849 -0.05491 0.11960
 C220 C 1.15988 0.47660 0.34931
 C221 C 1.12525 0.47238 0.34841
 C222 C 1.11046 0.48243 0.26202
 C223 C 1.07935 0.48483 0.26954
 H224 H 1.10653 0.46092 0.41081
 H225 H 1.12552 0.48891 0.19315
 H226 H 1.17534 0.48617 0.28141
 H227 H 1.06551 0.47988 0.33986
 C228 C 0.55045 0.69861 0.28649
 C229 C 0.56418 0.67585 0.26636
 C230 C 0.55125 0.65060 0.18144
 C231 C 0.56683 0.62973 0.16021
 H232 H 0.58355 0.67393 0.31584
 H233 H 0.52593 0.64540 0.14461
 H234 H 0.53439 0.70255 0.23027
 H235 H 0.59219 0.63533 0.19760
 C236 C 0.31903 -0.12903 0.31330
 C237 C 0.34007 -0.09030 0.31178
 C238 C 0.36746 -0.06657 0.23393
 C239 C 0.38296 -0.08016 0.17303
 H240 H 0.33863 -0.07442 0.37247
 H241 H 0.37938 -0.03583 0.23757
 H242 H 0.31726 -0.14352 0.24677
 H243 H 0.37280 -0.11058 0.17217
 C244 C 0.82449 0.46080 0.36626
 C245 C 0.85849 0.48453 0.32755
 C246 C 0.87282 0.47423 0.24252
 C247 C 0.90701 0.49941 0.20731
 H248 H 0.87642 0.51219 0.36048
 H249 H 0.85650 0.44585 0.21213
 H250 H 0.80561 0.43365 0.33239
 H251 H 0.92323 0.52737 0.24008
 C252 C 0.46257 0.32500 0.31626
 C253 C 0.44888 0.34809 0.30042
 C254 C 0.46294 0.37575 0.21817
 C255 C 0.46231 0.40818 0.22373
 H256 H 0.43004 0.34926 0.35330
 H257 H 0.47849 0.37226 0.15965
 H258 H 0.48155 0.32455 0.26258
 H259 H 0.44945 0.41290 0.28664
 C260 C 0.66476 0.18587 0.24769
 C261 C 0.64858 0.14772 0.24391
 C262 C 0.62308 0.12546 0.16493
 C263 C 0.59735 0.08847 0.18196
 H264 H 0.64924 0.13223 0.30827
 H265 H 0.62100 0.14031 0.10116
 H266 H 0.66461 0.20239 0.18522
 H267 H 0.59816 0.07482 0.24965
 C268 C 0.45184 0.14278 -0.30844
 C269 C 0.43642 0.10480 -0.29753
 C270 C 0.44731 0.08894 -0.21585
 C271 C 0.44830 0.05693 -0.22758
 H272 H 0.41932 0.08577 -0.35472
 H273 H 0.46033 0.10651 -0.15276
 H274 H 0.46911 0.16127 -0.25066
 H275 H 0.43850 0.04142 -0.29494
 C276 C 0.67497 0.50628 -0.28845
 C277 C 0.65281 0.52141 -0.29026
 C278 C 0.63108 0.52036 -0.20389
 C279 C 0.60445 0.52937 -0.21433
 H280 H 0.64842 0.53252 -0.35798
 H281 H 0.63253 0.50661 -0.13712
 H282 H 0.68131 0.49884 -0.21798
 H283 H 0.60175 0.54064 -0.28394
 C284 C 0.82051 0.32381 -0.29892
 C285 C 0.85392 0.33343 -0.26137
 C286 C 0.87139 0.36247 -0.18628
 C287 C 0.90691 0.37460 -0.16273
 H288 H 0.87060 0.32267 -0.29335
 H289 H 0.85740 0.37709 -0.16024
 H290 H 0.80261 0.33125 -0.25916
 H291 H 0.92056 0.35980 -0.18999
 C292 C 0.53376 -0.14595 -0.31364
 C293 C 0.54956 -0.10869 -0.29305
 C294 C 0.53570 -0.09568 -0.21187
 C295 C 0.55160 -0.05817 -0.19422
 H296 H 0.57075 -0.08728 -0.34228
 H297 H 0.50998 -0.11640 -0.17385
 H298 H 0.51349 -0.16753 -0.26318
 H299 H 0.57733 -0.03776 -0.23271
 C300 C 0.32810 0.45146 -0.32685
 C301 C 0.35118 0.43724 -0.32495
 C302 C 0.37790 0.44346 -0.24595
 C303 C 0.39255 0.47391 -0.18772
 H304 H 0.35124 0.42012 -0.38437
 H305 H 0.39010 0.42541 -0.24639
 H306 H 0.32520 0.46381 -0.26085
 H307 H 0.38235 0.49366 -0.19069
 C308 C 1.15834 0.66579 -0.35097
 C309 C 1.12500 0.63225 -0.34910
 C310 C 1.11028 0.60749 -0.26050
 C311 C 1.07973 0.57210 -0.26524
 H312 H 1.10732 0.62238 -0.41247
 H313 H 1.12496 0.61771 -0.19230
 H314 H 1.17286 0.67430 -0.28257
 H315 H 1.06612 0.56183 -0.33470
 C316 C 0.84776 0.50159 -0.29400
 C317 C 0.88479 0.51381 -0.29865
 C318 C 0.90578 0.51309 -0.21255
 C319 C 0.94051 0.51886 -0.22372
 H320 H 0.89978 0.52259 -0.36774
 H321 H 0.89100 0.50240 -0.14342
 H322 H 0.83507 0.49646 -0.22230
 H323 H 0.95392 0.52697 -0.29501
 C324 C 0.45895 0.32445 -0.32621
 C325 C 0.44805 0.35037 -0.32038
 C326 C 0.45536 0.37561 -0.23685
 C327 C 0.48674 0.39053 -0.18338
 H328 H 0.43140 0.35268 -0.37779
 H329 H 0.43641 0.38638 -0.22842
 H330 H 0.47094 0.31943 -0.26194
 H331 H 0.50716 0.38181 -0.19484
 C332 C 0.62718 0.18487 -0.41388
 C333 C 0.63010 0.16448 -0.34084
 C334 C 0.59872 0.14136 -0.27225
 C335 C 0.59939 0.11465 -0.21594
 H336 H 0.65568 0.16339 -0.33451
 H337 H 0.57423 0.14451 -0.27183
 H338 H 0.60073 0.18373 -0.42574
 H339 H 0.62304 0.11023 -0.22136
 C340 C 1.16466 0.46878 -0.29740
 C341 C 1.12804 0.45474 -0.28029
 C342 C 1.11496 0.46469 -0.19264
 C343 C 1.07848 0.44496 -0.16896
 H344 H 1.10727 0.43666 -0.33325
 H345 H 1.13422 0.49088 -0.15535
 H346 H 1.18410 0.48296 -0.23853
 H347 H 1.05978 0.41848 -0.20597
 C348 C 0.54666 0.68472 -0.36026
 C349 C 0.54968 0.65332 -0.35849
 C350 C 0.53718 0.62763 -0.27220
 C351 C 0.52969 0.59160 -0.27837
 H352 H 0.56039 0.64528 -0.41957
 H353 H 0.53199 0.63757 -0.20447
 H354 H 0.53632 0.68997 -0.29369
 H355 H 0.53335 0.58125 -0.34733
 C356 C 0.32379 -0.14397 -0.33611
 C357 C 0.35213 -0.10770 -0.32456
 C358 C 0.37938 -0.09720 -0.24569
 C359 C 0.41450 -0.06775 -0.26014
 H360 H 0.35723 -0.08498 -0.37561
 H361 H 0.37144 -0.11418 -0.17876
 H362 H 0.31935 -0.16423 -0.27808
 H363 H 0.42224 -0.05248 -0.32973
 C364 C 0.53003 -0.13749 0.32686
 C365 C 0.53770 -0.10134 0.32104
 C366 C 0.52489 -0.08829 0.23747
 C367 C 0.52063 -0.05809 0.24519
 H368 H 0.55224 -0.08157 0.37930
 H369 H 0.51664 -0.10486 0.17150
 H370 H 0.51515 -0.15636 0.26726
 H371 H 0.52691 -0.04301 0.31337
 C372 C 0.33202 0.46838 0.31974
 C373 C 0.36961 0.49092 0.32052
 C374 C 0.39365 0.49690 0.23536
 C375 C 0.43063 0.51190 0.24806
 H376 H 0.38343 0.50474 0.38748
 H377 H 0.38130 0.48834 0.16397
 H378 H 0.31792 0.45517 0.25274
 H379 H 0.44205 0.51869 0.32086
 C380 C 1.16656 0.67451 0.29256
 C381 C 1.13087 0.65900 0.26523
 C382 C 1.11593 0.63124 0.18654
 C383 C 1.07934 0.61334 0.16602
 H384 H 1.11171 0.66394 0.30787
 H385 H 1.13373 0.62178 0.15473
 H386 H 1.18634 0.67065 0.24968
 H387 H 1.06172 0.62283 0.19886
 C388 C 0.46139 0.14623 0.33165
 C389 C 0.44457 0.10816 0.31977
 C390 C 0.45316 0.08937 0.24072
 C391 C 0.48308 0.10714 0.18030
 H392 H 0.42331 0.08900 0.37219
 H393 H 0.43485 0.05850 0.23707
 H394 H 0.48107 0.16592 0.27741
 H395 H 0.50236 0.13779 0.18301
 C396 C 0.65272 0.46631 0.37030
 C397 C 0.64020 0.48879 0.33689
 C398 C 0.61485 0.47856 0.25256
 C399 C 0.60512 0.50341 0.22023
 H400 H 0.64908 0.51572 0.37261
 H401 H 0.60378 0.45095 0.21865
 H402 H 0.64505 0.44001 0.33305
 H403 H 0.61658 0.53083 0.25555
 C404 C 0.85975 0.33452 0.36432
 C405 C 0.88623 0.37120 0.38316
 C406 C 0.91810 0.39860 0.32042
 C407 C 0.92523 0.39275 0.22940
 H408 H 0.88377 0.38397 0.44916
 H409 H 0.93447 0.42722 0.34946
 H410 H 0.86051 0.32193 0.29644
 H411 H 0.90848 0.36494 0.19672
   
