data_POSCAR
  _audit_creation_date              2014-09-24
  _audit_creation_method            'ToBaCCo'
  _symmetry_space_group_name_H-M    'P1'
  _symmetry_Int_Tables_number       1
  _symmetry_cell_setting            triclinic
  loop_
  _symmetry_equiv_pos_as_xyz
 x,y,z
_cell_length_a 27.3495
_cell_length_b 27.3945
_cell_length_c 44.5100
_cell_angle_alpha 78.189100
_cell_angle_beta 99.449500
_cell_angle_gamma 84.596400
loop_
  _atom_site_label
  _atom_site_type_symbol
  _atom_site_fract_x
  _atom_site_fract_y
  _atom_site_fract_z
O1 O -0.04722 0.55661 0.96065
 O2 O -0.05912 0.44132 1.01731
 O3 O -0.05831 0.53514 1.01863
 O4 O -0.04797 0.46078 0.95905
 O5 O 0.03426 0.44935 0.97353
 O6 O 0.02362 0.51966 1.03474
 O7 O 0.02315 0.42621 1.03111
 O8 O 0.03471 0.54312 0.97674
 Cu9 Cu -0.06143 0.49990 0.98713
 Cu10 Cu 0.03714 0.48334 1.00549
 C11 C -0.00415 0.56987 0.95950
 C12 C -0.01986 0.41402 1.03379
 C13 C -0.01910 0.53940 1.03710
 C14 C -0.00500 0.44216 0.95633
 O15 O 0.56749 -0.00975 0.53127
 O16 O 0.45937 -0.03277 0.47756
 O17 O 0.55421 -0.03110 0.47615
 O18 O 0.47362 -0.01099 0.53211
 O19 O 0.45892 0.07027 0.51015
 O20 O 0.53918 0.04988 0.45360
 O21 O 0.44354 0.04839 0.45548
 O22 O 0.55359 0.07111 0.50841
 Cu23 Cu 0.51526 -0.02932 0.50636
 Cu24 Cu 0.49728 0.06804 0.47951
 C25 C 0.57890 0.03456 0.52916
 C26 C 0.43249 0.00391 0.45779
 C27 C 0.56077 0.00593 0.45551
 C28 C 0.45279 0.03301 0.53080
 C29 C -0.04607 -0.13625 0.23934
 C30 C -0.08989 -0.12981 0.25618
 C31 C -0.09156 -0.08827 0.26857
 C32 C -0.04884 -0.05673 0.26292
 C33 C -0.05008 -0.08675 0.21524
 C34 C -0.05148 -0.04520 0.22743
 C35 C 0.00049 -0.13595 0.26377
 C36 C -0.00063 -0.09413 0.27595
 H37 H -0.11665 -0.15644 0.25849
 H38 H -0.04995 -0.02272 0.27287
 H39 H -0.04941 -0.08507 0.19077
 H40 H 0.03243 -0.16497 0.26975
 C41 C 0.10924 0.06935 0.72788
 C42 C 0.10789 0.01935 0.75066
 C43 C 0.06772 0.01884 0.76511
 C44 C 0.03243 0.06881 0.75565
 C45 C 0.05875 0.07939 0.70545
 C46 C 0.01859 0.07880 0.71986
 C47 C 0.10652 0.10885 0.74751
 C48 C 0.06632 0.10893 0.76204
 H49 H 0.13572 -0.01323 0.75452
 H50 H -0.00039 0.06870 0.76740
 H51 H 0.05534 0.08378 0.68041
 H52 H 0.13395 0.13465 0.74945
 C53 C -0.03079 -0.37939 0.10608
 N54 N 0.01417 -0.40299 0.10418
 N55 N 0.01788 -0.42904 0.08227
 C56 C -0.02323 -0.43241 0.06145
 N57 N -0.06821 -0.40902 0.06344
 N58 N -0.07190 -0.38289 0.08532
 C59 C -0.03461 -0.34896 0.12938
 N60 N -0.07881 -0.32198 0.12948
 N61 N -0.08180 -0.29226 0.14952
 C62 C -0.04075 -0.28858 0.17028
 N63 N 0.00334 -0.31600 0.17042
 N64 N 0.00636 -0.34566 0.15033
 C65 C -0.04328 -0.25275 0.19056
 N66 N -0.00220 -0.24833 0.21105
 N67 N -0.00344 -0.21286 0.22751
 C68 C -0.04582 -0.18050 0.22410
 N69 N -0.08702 -0.18537 0.20384
 N70 N -0.08583 -0.22090 0.18746
 C71 C -0.03039 0.28366 0.09562
 N72 N 0.01472 0.29540 0.08975
 N73 N 0.01806 0.33802 0.06998
 C74 C -0.02366 0.37012 0.05492
 N75 N -0.06888 0.35829 0.06074
 N76 N -0.07215 0.31594 0.08088
 C77 C -0.03369 0.23581 0.11662
 N78 N -0.07328 0.22968 0.13126
 N79 N -0.07610 0.18568 0.14996
 C80 C -0.03977 0.14618 0.15427
 N81 N -0.00038 0.15236 0.13953
 N82 N 0.00281 0.19647 0.12125
 C83 C -0.04341 0.09689 0.17350
 N84 N -0.02058 0.05471 0.16757
 N85 N -0.02369 0.00959 0.18464
 C86 C -0.04914 0.00496 0.20858
 N87 N -0.07161 0.04717 0.21479
 N88 N -0.06916 0.09239 0.19735
 C89 C 0.36182 0.05272 0.59534
 N90 N 0.38805 0.00725 0.59730
 N91 N 0.41716 0.00119 0.57678
 C92 C 0.42118 0.04040 0.55354
 N93 N 0.39516 0.08603 0.55163
 N94 N 0.36589 0.09206 0.57213
 C95 C 0.32842 0.05835 0.61742
 N96 N 0.29844 0.10225 0.61426
 N97 N 0.26648 0.10611 0.63355
 C98 C 0.26353 0.06625 0.65672
 N99 N 0.29386 0.02260 0.66001
 N100 N 0.32569 0.01873 0.64073
 C101 C 0.22618 0.06884 0.67675
 N102 N 0.22253 0.02779 0.69880
 N103 N 0.18652 0.02839 0.71556
 C104 C 0.15272 0.07006 0.71097
 N105 N 0.15684 0.11145 0.68920
 N106 N 0.19291 0.11085 0.67238
 C107 C -0.30111 0.05887 0.59035
 N108 N -0.32542 0.09667 0.56629
 N109 N -0.36464 0.08897 0.54655
 C110 C -0.38051 0.04297 0.54988
 N111 N -0.35602 0.00517 0.57391
 N112 N -0.31720 0.01304 0.59385
 C113 C -0.25702 0.06675 0.61157
 N114 N -0.24012 0.03400 0.63954
 N115 N -0.19871 0.03974 0.65819
 C116 C -0.17245 0.07815 0.64940
 N117 N -0.18945 0.11100 0.62148
 N118 N -0.23118 0.10560 0.60300
 C119 C -0.12453 0.08186 0.66861
 N120 N -0.09042 0.10759 0.65553
 N121 N -0.04523 0.10758 0.67211
 C122 C -0.03269 0.08238 0.70248
 N123 N -0.06715 0.05745 0.71576
 N124 N -0.11218 0.05693 0.69906
 C125 C 0.01277 -0.29474 0.90114
 N126 N -0.03360 -0.30615 0.90451
 N127 N -0.03924 -0.34957 0.92280
 C128 C 0.00131 -0.38301 0.93840
 N129 N 0.04756 -0.37153 0.93499
 N130 N 0.05317 -0.32832 0.91663
 C131 C 0.01971 -0.24697 0.88126
 N132 N 0.06596 -0.23883 0.87580
 N133 N 0.07292 -0.19577 0.85789
 C134 C 0.03398 -0.15899 0.84489
 N135 N -0.01237 -0.16696 0.85039
 N136 N -0.01939 -0.21024 0.86824
 C137 C 0.04234 -0.11203 0.82477
 N138 N 0.00540 -0.07250 0.81384
 N139 N 0.01353 -0.03046 0.79521
 C140 C 0.05878 -0.02657 0.78674
 N141 N 0.09560 -0.06610 0.79780
 N142 N 0.08759 -0.10791 0.81651
 C143 C 0.01054 0.34868 0.89413
 N144 N 0.05090 0.36581 0.90861
 N145 N 0.04568 0.39615 0.92804
 C146 C -0.00015 0.41087 0.93357
 N147 N -0.04068 0.39414 0.91889
 N148 N -0.03541 0.36349 0.89956
 C149 C 0.01717 0.31381 0.87360
 N150 N -0.02113 0.29016 0.86259
 N151 N -0.01418 0.25748 0.84471
 C152 C 0.03128 0.24747 0.83713
 N153 N 0.06939 0.27133 0.84803
 N154 N 0.06252 0.30373 0.86600
 C155 C 0.03970 0.21141 0.81759
 N156 N 0.08376 0.20626 0.80759
 N157 N 0.09206 0.17367 0.78997
 C158 C 0.05676 0.14467 0.78178
 N159 N 0.01268 0.14964 0.79188
 N160 N 0.00425 0.18250 0.80942
 C161 C -0.34071 -0.01826 0.39584
 N162 N -0.35658 -0.05760 0.41388
 N163 N -0.38826 -0.04980 0.43268
 C164 C -0.40561 -0.00234 0.43396
 N165 N -0.39006 0.03708 0.41576
 N166 N -0.35805 0.02926 0.39710
 C167 C -0.30473 -0.02732 0.37579
 N168 N -0.28165 0.01060 0.36196
 N169 N -0.24813 0.00176 0.34442
 C170 C -0.23674 -0.04525 0.33995
 N171 N -0.26006 -0.08302 0.35364
 N172 N -0.29327 -0.07427 0.37132
 C173 C -0.19953 -0.05562 0.32093
 N174 N -0.19376 -0.10089 0.31314
 N175 N -0.15971 -0.11099 0.29630
 C176 C -0.12983 -0.07636 0.28674
 N177 N -0.13553 -0.03104 0.29457
 N178 N -0.16987 -0.02078 0.31128
 C179 C 0.30247 -0.02345 0.40341
 N180 N 0.33627 -0.06212 0.42137
 N181 N 0.37793 -0.05329 0.43838
 C182 C 0.38754 -0.00546 0.43791
 N183 N 0.35391 0.03329 0.41979
 N184 N 0.31208 0.02445 0.40287
 C185 C 0.25618 -0.03358 0.38519
 N186 N 0.21946 0.00445 0.36990
 N187 N 0.17745 -0.00512 0.35356
 C188 C 0.17072 -0.05306 0.35188
 N189 N 0.20746 -0.09101 0.36715
 N190 N 0.24931 -0.08147 0.38358
 C191 C 0.12516 -0.06387 0.33324
 N192 N 0.12189 -0.11087 0.32840
 N193 N 0.08151 -0.12063 0.31062
 C194 C 0.04267 -0.08387 0.29716
 N195 N 0.04570 -0.03696 0.30229
 N196 N 0.08625 -0.02710 0.31996
   
