data_POSCAR
  _audit_creation_date              2014-09-24
  _audit_creation_method            'ToBaCCo'
  _symmetry_space_group_name_H-M    'P1'
  _symmetry_Int_Tables_number       1
  _symmetry_cell_setting            triclinic
  loop_
  _symmetry_equiv_pos_as_xyz
 x,y,z
_cell_length_a 34.5231
_cell_length_b 34.5127
_cell_length_c 34.5731
_cell_angle_alpha 100.125500
_cell_angle_beta 82.636600
_cell_angle_gamma 75.353000
loop_
  _atom_site_label
  _atom_site_type_symbol
  _atom_site_fract_x
  _atom_site_fract_y
  _atom_site_fract_z
C1 C 0.50858 0.45439 -0.01989
 C2 C 0.48000 0.48945 -0.02093
 C3 C 0.43711 0.49105 -0.02512
 C4 C 0.49047 0.52888 -0.01867
 C5 C 0.55231 0.45246 -0.02184
 C6 C 0.49873 0.41556 -0.01652
 C7 C 0.42008 0.51150 -0.05319
 C8 C 0.38003 0.51453 -0.05799
 C9 C 0.35538 0.49621 -0.03548
 C10 C 0.37298 0.47545 -0.00724
 C11 C 0.41272 0.47400 -0.00140
 C12 C 0.51779 0.53491 -0.04923
 C13 C 0.52639 0.57273 -0.04652
 C14 C 0.50766 0.60520 -0.01329
 C15 C 0.48042 0.59877 0.01721
 C16 C 0.47174 0.56113 0.01438
 C17 C 0.56583 0.47680 0.00753
 C18 C 0.60749 0.47285 0.00545
 C19 C 0.63621 0.44393 -0.02556
 C20 C 0.62247 0.41970 -0.05477
 C21 C 0.58099 0.42392 -0.05290
 C22 C 0.50797 0.39856 0.01631
 C23 C 0.50123 0.36111 0.01984
 C24 C 0.48515 0.33969 -0.00947
 C25 C 0.47556 0.35680 -0.04233
 C26 C 0.48271 0.39432 -0.04606
 H27 H 0.43811 0.52488 -0.07205
 H28 H 0.36978 0.52921 -0.08148
 H29 H 0.35551 0.46245 0.01249
 H30 H 0.42418 0.45978 0.02194
 H31 H 0.53209 0.51047 -0.07524
 H32 H 0.54708 0.57683 -0.07077
 H33 H 0.45057 0.55697 0.03821
 H34 H 0.54425 0.49837 0.03225
 H35 H 0.61734 0.49160 0.02857
 H36 H 0.64387 0.39753 -0.07923
 H37 H 0.57117 0.40475 -0.07573
 H38 H 0.52054 0.41440 0.03929
 H39 H 0.50840 0.34894 0.04570
 H40 H 0.46345 0.34070 -0.06551
 H41 H 0.47609 0.40661 -0.07198
 H42 H 0.46601 0.62278 0.04352
 C43 C 0.00557 0.53493 0.47680
 C44 C 0.00122 0.50587 0.44676
 C45 C -0.00066 0.46447 0.45193
 C46 C -0.00117 0.51351 0.40597
 C47 C 0.00863 0.57541 0.46982
 C48 C 0.00700 0.52894 0.51834
 C49 C 0.02933 0.43917 0.46751
 C50 C 0.02865 0.39900 0.46868
 C51 C -0.00134 0.38327 0.45328
 C52 C -0.03137 0.40863 0.43799
 C53 C -0.03114 0.44886 0.43751
 C54 C 0.02659 0.48658 0.37321
 C55 C 0.02360 0.49150 0.33443
 C56 C -0.00734 0.52342 0.32753
 C57 C -0.03481 0.55086 0.36037
 C58 C -0.03195 0.54574 0.39929
 C59 C -0.01927 0.61125 0.49338
 C60 C -0.01627 0.64964 0.48836
 C61 C 0.01483 0.65297 0.45974
 C62 C 0.04259 0.61706 0.43583
 C63 C 0.03973 0.57853 0.44107
 C64 C -0.02296 0.51589 0.53979
 C65 C -0.02252 0.51382 0.57987
 C66 C 0.00721 0.52582 0.59941
 C67 C 0.03723 0.53854 0.57789
 C68 C 0.03723 0.53989 0.53780
 H69 H 0.05377 0.45011 0.47782
 H70 H 0.05229 0.37976 0.48031
 H71 H -0.05494 0.39719 0.42626
 H72 H -0.05446 0.46771 0.42519
 H73 H 0.05050 0.46151 0.37773
 H74 H 0.04550 0.47024 0.30973
 H75 H -0.05414 0.56641 0.42413
 H76 H -0.04342 0.60944 0.51572
 H77 H -0.03835 0.67683 0.50686
 H78 H 0.06709 0.61883 0.41388
 H79 H 0.06199 0.55118 0.42308
 H80 H -0.04724 0.50831 0.52588
 H81 H -0.04620 0.50429 0.59604
 H82 H 0.06062 0.54766 0.59223
 H83 H 0.06057 0.55019 0.52203
 H84 H -0.05918 0.57546 0.35584
 C85 C 0.51331 0.02439 0.53591
 C86 C 0.48470 0.02562 0.56740
 C87 C 0.49417 0.02310 0.60777
 C88 C 0.44203 0.02789 0.56327
 C89 C 0.50335 0.02519 0.49552
 C90 C 0.55607 0.02231 0.53989
 C91 C 0.48282 -0.00625 0.62642
 C92 C 0.48952 -0.00855 0.66489
 C93 C 0.50823 0.01828 0.68595
 C94 C 0.52018 0.04741 0.66669
 C95 C 0.51252 0.05025 0.62835
 C96 C 0.43246 -0.00404 0.53876
 C97 C 0.39182 -0.00372 0.53917
 C98 C 0.36020 0.02841 0.56428
 C99 C 0.37003 0.06082 0.58789
 C100 C 0.41055 0.06042 0.58753
 C101 C 0.47383 0.05827 0.48857
 C102 C 0.46566 0.05866 0.45000
 C103 C 0.48708 0.02609 0.41776
 C104 C 0.51649 -0.00698 0.42505
 C105 C 0.52468 -0.00727 0.46347
 C106 C 0.57301 0.05216 0.52817
 C107 C 0.61277 0.05166 0.53233
 C108 C 0.63699 0.02111 0.54841
 C109 C 0.61966 -0.00917 0.55967
 C110 C 0.57995 -0.00883 0.55496
 H111 H 0.46883 -0.02770 0.61101
 H112 H 0.48129 -0.03267 0.67729
 H113 H 0.53353 0.06958 0.68180
 H114 H 0.52052 0.07392 0.61495
 H115 H 0.45645 -0.02981 0.52047
 H116 H 0.38520 -0.02933 0.52098
 H117 H 0.41747 0.08518 0.60677
 H118 H 0.45752 0.08393 0.51288
 H119 H 0.44322 0.08480 0.44526
 H120 H 0.53301 -0.03285 0.40104
 H121 H 0.54754 -0.03305 0.46833
 H122 H 0.55503 0.07654 0.51655
 H123 H 0.62346 0.07664 0.52455
 H124 H 0.63708 -0.03430 0.57068
 H125 H 0.56779 -0.03287 0.56317
 H126 H 0.34636 0.08634 0.60697
 O127 O 0.45884 -0.00782 0.00121
 O128 O 0.47468 0.00106 0.10545
 O129 O 0.47381 0.04750 0.05262
 O130 O 0.45943 -0.05459 0.05217
 O131 O 0.52495 -0.08322 0.02901
 O132 O 0.54017 0.01954 0.03433
 O133 O 0.54023 -0.02906 0.08404
 O134 O 0.52527 -0.03319 -0.01963
 Cu135 Cu 0.46008 -0.00070 0.05539
 Cu136 Cu 0.53930 -0.03458 0.03007
 C137 C 0.48960 -0.02086 -0.02687
 C138 C 0.51022 -0.01269 0.11257
 C139 C 0.50935 0.05090 0.04288
 C140 C 0.48945 -0.08646 0.03954
 O141 O -0.05954 0.50611 0.96413
 O142 O 0.05099 0.49065 0.95462
 O143 O -0.00050 0.49628 0.90471
 O144 O -0.00787 0.49787 1.01281
 O145 O 0.00140 0.43093 0.99956
 O146 O 0.00992 0.42922 0.89239
 O147 O 0.06099 0.42361 0.94329
 O148 O -0.04971 0.43911 0.95107
 Cu149 Cu -0.00513 0.50442 0.96010
 Cu150 Cu 0.00676 0.42401 0.94490
 C151 C -0.07363 0.47533 0.95955
 C152 C 0.07476 0.45463 0.94864
 C153 C 0.00552 0.46236 0.88011
 C154 C -0.00441 0.46442 1.02458
 O155 O 0.01163 -0.03146 0.48186
 O156 O 0.00420 0.07752 0.48248
 O157 O 0.06307 0.01211 0.47787
 O158 O -0.04683 0.03330 0.48111
 O159 O -0.05755 0.04528 0.54703
 O160 O 0.05307 0.02743 0.54373
 O161 O -0.00742 0.09122 0.54838
 O162 O 0.00259 -0.01689 0.54768
 Cu163 Cu 0.00894 0.02145 0.47424
 Cu164 Cu -0.00345 0.03823 0.55329
 C165 C 0.00849 -0.04271 0.51500
 C166 C -0.00249 0.10290 0.51577
 C167 C 0.07696 0.01677 0.51008
 C168 C -0.07092 0.04228 0.51434
 C169 C -0.30372 0.47219 0.97810
 C170 C -0.26150 0.46643 0.97430
 C171 C -0.23482 0.42620 0.96546
 C172 C -0.25073 0.39248 0.96075
 C173 C -0.29264 0.39846 0.96417
 C174 C -0.31950 0.43824 0.97260
 C175 C -0.19264 0.42022 0.96111
 C176 C -0.17667 0.45394 0.96518
 C177 C -0.20327 0.49419 0.97405
 C178 C -0.24552 0.50020 0.97867
 C179 C -0.18710 0.52778 0.97801
 C180 C -0.14501 0.52160 0.97319
 C181 C -0.11823 0.48171 0.96432
 C182 C -0.13442 0.44799 0.96038
 H183 H -0.32420 0.50296 0.98427
 H184 H -0.23075 0.36146 0.95411
 H185 H -0.30416 0.37187 0.96031
 H186 H -0.17226 0.38933 0.95427
 H187 H -0.26589 0.53108 0.98539
 H188 H -0.20700 0.55884 0.98480
 H189 H -0.13344 0.54815 0.97645
 H190 H -0.11420 0.41706 0.95361
 C191 C 0.29690 0.46867 0.96766
 C192 C 0.25717 0.47083 0.96078
 C193 C 0.23518 0.50444 0.94696
 C194 C 0.25360 0.53452 0.93895
 C195 C 0.29351 0.53151 0.94437
 C196 C 0.31623 0.49874 0.95913
 C197 C 0.19511 0.50747 0.94123
 C198 C 0.17701 0.47666 0.94808
 C199 C 0.19954 0.44204 0.96023
 C200 C 0.23930 0.43955 0.96694
 C201 C 0.18174 0.41064 0.96573
 C202 C 0.14167 0.41399 0.96026
 C203 C 0.11849 0.44905 0.94975
 C204 C 0.13658 0.48010 0.94328
 H205 H 0.31331 0.44195 0.97723
 H206 H 0.23708 0.56060 0.92848
 H207 H 0.30526 0.55669 0.93904
 H208 H 0.17808 0.53374 0.93130
 H209 H 0.25631 0.41328 0.97687
 H210 H 0.19861 0.38373 0.97475
 H211 H 0.12833 0.38977 0.96563
 H212 H 0.11906 0.50714 0.93488
 C213 C 0.01484 -0.27614 0.49072
 C214 C 0.01658 -0.23659 0.48813
 C215 C 0.02246 -0.22651 0.45032
 C216 C 0.02727 -0.25668 0.41566
 C217 C 0.02552 -0.29618 0.41853
 C218 C 0.01875 -0.30602 0.45610
 C219 C 0.02302 -0.18642 0.44791
 C220 C 0.01765 -0.15640 0.48289
 C221 C 0.01241 -0.16697 0.52057
 C222 C 0.01201 -0.20692 0.52293
 C223 C 0.00717 -0.13728 0.55549
 C224 C 0.00647 -0.09721 0.55333
 C225 C 0.01101 -0.08592 0.51620
 C226 C 0.01695 -0.11587 0.48095
 H227 H 0.01037 -0.28372 0.51980
 H228 H 0.03193 -0.24962 0.38639
 H229 H 0.02851 -0.31877 0.39146
 H230 H 0.02719 -0.17852 0.41895
 H231 H 0.00766 -0.21479 0.55190
 H232 H 0.00324 -0.14494 0.58455
 H233 H 0.00195 -0.07491 0.58097
 H234 H 0.02056 -0.10760 0.45214
 C235 C 0.00057 0.32431 0.48665
 C236 C -0.00051 0.28376 0.48563
 C237 C -0.00211 0.25848 0.44924
 C238 C -0.00313 0.27436 0.41465
 C239 C -0.00284 0.31496 0.41611
 C240 C -0.00090 0.34016 0.45201
 C241 C -0.00291 0.21786 0.44805
 C242 C -0.00273 0.20233 0.48291
 C243 C -0.00186 0.22786 0.51941
 C244 C -0.00048 0.26829 0.52049
 C245 C -0.00236 0.21251 0.55430
 C246 C -0.00333 0.17215 0.55307
 C247 C -0.00352 0.14621 0.51687
 C248 C -0.00336 0.16163 0.48184
 H249 H 0.00164 0.34385 0.51449
 H250 H -0.00444 0.25549 0.38654
 H251 H -0.00381 0.32669 0.38907
 H252 H -0.00386 0.19843 0.42009
 H253 H 0.00043 0.28773 0.54847
 H254 H -0.00183 0.23167 0.58254
 H255 H -0.00329 0.16106 0.58048
 H256 H -0.00365 0.14200 0.45378
 C257 C 0.48755 0.00272 -0.24913
 C258 C 0.49372 -0.00039 -0.21042
 C259 C 0.52773 0.00908 -0.19672
 C260 C 0.55432 0.02267 -0.22163
 C261 C 0.54754 0.02654 -0.25994
 C262 C 0.51443 0.01597 -0.27468
 C263 C 0.53439 0.00514 -0.15825
 C264 C 0.50677 -0.00707 -0.13298
 C265 C 0.47201 -0.01529 -0.14629
 C266 C 0.46599 -0.01241 -0.18510
 C267 C 0.44356 -0.02576 -0.12033
 C268 C 0.44929 -0.02768 -0.08137
 C269 C 0.48407 -0.02029 -0.06823
 C270 C 0.51291 -0.01037 -0.09427
 H271 H 0.46062 -0.00363 -0.25851
 H272 H 0.58052 0.03018 -0.21154
 H273 H 0.56956 0.03599 -0.27852
 H274 H 0.56072 0.01206 -0.14782
 H275 H 0.43953 -0.01911 -0.19544
 H276 H 0.41664 -0.03191 -0.12998
 H277 H 0.42670 -0.03521 -0.06155
 H278 H 0.53944 -0.00389 -0.08391
 C279 C 0.51205 0.01254 0.34401
 C280 C 0.50515 0.01141 0.30481
 C281 C 0.46500 0.02494 0.29777
 C282 C 0.43245 0.03957 0.33024
 C283 C 0.43958 0.04033 0.36926
 C284 C 0.47939 0.02658 0.37652
 C285 C 0.45808 0.02335 0.25845
 C286 C 0.49083 0.00814 0.22611
 C287 C 0.53096 -0.00529 0.23333
 C288 C 0.53787 -0.00341 0.27258
 C289 C 0.56361 -0.02065 0.20112
 C290 C 0.55670 -0.02295 0.16202
 C291 C 0.51699 -0.00980 0.15430
 C292 C 0.48413 0.00590 0.18663
 H293 H 0.54297 0.00257 0.34922
 H294 H 0.40146 0.05003 0.32544
 H295 H 0.41385 0.05094 0.39371
 H296 H 0.42727 0.03366 0.25301
 H297 H 0.56867 -0.01381 0.27802
 H298 H 0.59453 -0.03106 0.20615
 H299 H 0.58259 -0.03508 0.13777
 H300 H 0.45336 0.01612 0.18113
 C301 C 0.48424 -0.31782 0.00537
 C302 C 0.49181 -0.27938 0.00923
 C303 C 0.53158 -0.27695 -0.00325
 C304 C 0.56310 -0.31317 -0.01934
 C305 C 0.55535 -0.35140 -0.02284
 C306 C 0.51591 -0.35418 -0.01041
 C307 C 0.53914 -0.23843 0.00063
 C308 C 0.50738 -0.20233 0.01690
 C309 C 0.46766 -0.20496 0.02944
 C310 C 0.46013 -0.24338 0.02548
 C311 C 0.43597 -0.16904 0.04569
 C312 C 0.44334 -0.13076 0.04926
 C313 C 0.48257 -0.12752 0.03671
 C314 C 0.51459 -0.16361 0.02067
 H315 H 0.45352 -0.31937 0.01441
 H316 H 0.59382 -0.31195 -0.02898
 H317 H 0.58042 -0.37886 -0.03466
 H318 H 0.56964 -0.23655 -0.00901
 H319 H 0.42961 -0.24527 0.03509
 H320 H 0.40538 -0.17053 0.05549
 H321 H 0.41810 -0.10359 0.06172
 H322 H 0.54497 -0.16161 0.01080
 C323 C 0.50930 0.27032 0.00598
 C324 C 0.50309 0.23299 0.01183
 C325 C 0.46594 0.22458 0.00625
 C326 C 0.43598 0.25341 -0.00582
 C327 C 0.44253 0.29046 -0.01182
 C328 C 0.47900 0.29945 -0.00553
 C329 C 0.45939 0.18755 0.01283
 C330 C 0.48977 0.15859 0.02431
 C331 C 0.52721 0.16675 0.02915
 C332 C 0.53349 0.20402 0.02319
 C333 C 0.55796 0.13727 0.03944
 C334 C 0.55195 0.09976 0.04438
 C335 C 0.51480 0.09144 0.03998
 C336 C 0.48363 0.12123 0.03035
 H337 H 0.53780 0.27674 0.01030
 H338 H 0.40737 0.24742 -0.01036
 H339 H 0.41869 0.31256 -0.02043
 H340 H 0.43081 0.18116 0.00875
 H341 H 0.56212 0.21036 0.02716
 H342 H 0.58686 0.14298 0.04313
 H343 H 0.57639 0.07719 0.05166
 H344 H 0.45510 0.11477 0.02625
 C345 C -0.29936 0.03810 0.52769
 C346 C -0.25955 0.03815 0.53198
 C347 C -0.24221 0.02133 0.56228
 C348 C -0.26496 0.00435 0.58754
 C349 C -0.30447 0.00387 0.58280
 C350 C -0.32263 0.02098 0.55295
 C351 C -0.20225 0.02123 0.56645
 C352 C -0.17910 0.03682 0.53993
 C353 C -0.19641 0.05317 0.50926
 C354 C -0.23662 0.05418 0.50580
 C355 C -0.17292 0.06741 0.48190
 C356 C -0.13227 0.06449 0.48417
 C357 C -0.11472 0.04829 0.51442
 C358 C -0.13849 0.03520 0.54275
 H359 H -0.31119 0.04978 0.50320
 H360 H -0.25221 -0.00861 0.61105
 H361 H -0.32114 -0.00850 0.60385
 H362 H -0.18893 0.00830 0.58974
 H363 H -0.24982 0.06678 0.48228
 H364 H -0.18570 0.07993 0.45819
 H365 H -0.11439 0.07474 0.46209
 H366 H -0.12486 0.02210 0.56580
 C367 C 0.30210 0.01508 0.53243
 C368 C 0.26114 0.01528 0.53500
 C369 C 0.23488 0.02816 0.57261
 C370 C 0.25012 0.04011 0.60702
 C371 C 0.29086 0.03987 0.60421
 C372 C 0.31717 0.02770 0.56694
 C373 C 0.19373 0.02932 0.57520
 C374 C 0.17838 0.01811 0.54061
 C375 C 0.20472 0.00482 0.50304
 C376 C 0.24595 0.00332 0.50049
 C377 C 0.18922 -0.00616 0.46852
 C378 C 0.14784 -0.00308 0.47102
 C379 C 0.12119 0.01080 0.50811
 C380 C 0.13687 0.02078 0.54291
 H381 H 0.32199 0.00596 0.50350
 H382 H 0.23051 0.04983 0.63611
 H383 H 0.30190 0.04896 0.63135
 H384 H 0.17357 0.03948 0.60404
 H385 H 0.26606 -0.00661 0.47162
 H386 H 0.20897 -0.01652 0.43951
 H387 H 0.13662 -0.01110 0.44373
 H388 H 0.11667 0.03160 0.57168
 C389 C -0.00766 0.49151 1.25691
 C390 C -0.00985 0.49385 1.21717
 C391 C -0.01601 0.53216 1.20607
 C392 C -0.02059 0.56763 1.23530
 C393 C -0.01843 0.56502 1.27497
 C394 C -0.01145 0.52689 1.28600
 C395 C -0.01711 0.53424 1.16596
 C396 C -0.01207 0.49843 1.13692
 C397 C -0.00654 0.46030 1.14841
 C398 C -0.00554 0.45828 1.18838
 C399 C -0.00164 0.42458 1.11966
 C400 C -0.00157 0.42631 1.07969
 C401 C -0.00640 0.46380 1.06754
 C402 C -0.01200 0.49993 1.09649
 H403 H -0.00302 0.46205 1.26528
 H404 H -0.02543 0.59731 1.22743
 H405 H -0.02131 0.59267 1.29687
 H406 H -0.02151 0.56356 1.15733
 H407 H -0.00098 0.42892 1.19700
 H408 H 0.00251 0.39516 1.12802
 H409 H 0.00273 0.39800 1.05817
 H410 H -0.01582 0.52906 1.08758
 C411 C 0.00416 0.49233 0.65818
 C412 C 0.00483 0.49311 0.69891
 C413 C 0.00665 0.52921 0.72445
 C414 C 0.00825 0.56368 0.70878
 C415 C 0.00835 0.56237 0.66817
 C416 C 0.00628 0.52682 0.64255
 C417 C 0.00712 0.53025 0.76517
 C418 C 0.00639 0.49544 0.78066
 C419 C 0.00525 0.45915 0.75501
 C420 C 0.00419 0.45829 0.71440
 C421 C 0.00520 0.42423 0.77042
 C422 C 0.00597 0.42526 0.81087
 C423 C 0.00650 0.46131 0.83689
 C424 C 0.00681 0.49635 0.82144
 H425 H 0.00294 0.46469 0.63846
 H426 H 0.00970 0.59157 0.72787
 H427 H 0.00975 0.58935 0.65672
 H428 H 0.00827 0.55804 0.78471
 H429 H 0.00311 0.43047 0.69484
 H430 H 0.00445 0.39611 0.75120
 H431 H 0.00557 0.39784 0.82190
 H432 H 0.00736 0.52431 0.84109
   
