data_POSCAR
  _audit_creation_date              2014-09-24
  _audit_creation_method            'ToBaCCo'
  _symmetry_space_group_name_H-M    'P1'
  _symmetry_Int_Tables_number       1
  _symmetry_cell_setting            triclinic
  loop_
  _symmetry_equiv_pos_as_xyz
 x,y,z
_cell_length_a 42.0420
_cell_length_b 42.0990
_cell_length_c 44.1939
_cell_angle_alpha 88.193800
_cell_angle_beta 89.979500
_cell_angle_gamma 90.246700
loop_
  _atom_site_label
  _atom_site_type_symbol
  _atom_site_fract_x
  _atom_site_fract_y
  _atom_site_fract_z
Si1 Si 0.22846 0.48633 0.98359
 Si2 Si 0.75371 0.52724 -0.01863
 Si3 Si -0.00573 0.24419 0.50091
 Si4 Si 1.02482 0.75056 0.46170
 Si5 Si 0.49843 0.00575 0.25884
 Si6 Si 0.52159 -0.00315 0.77068
 C7 C 0.31017 0.04257 0.48866
 H8 H 0.30601 0.06092 0.50477
 C9 C 0.33205 0.04781 0.46526
 H10 H 0.34329 0.07091 0.46305
 C11 C 0.30016 -0.00958 0.47249
 H12 H 0.28814 -0.03216 0.47582
 C13 C 0.32279 -0.00583 0.44950
 H14 H 0.32791 -0.02599 0.43578
 N15 N 0.29436 0.01443 0.49156
 C16 C 0.21155 0.03170 0.54822
 H17 H 0.21252 0.01004 0.56202
 C18 C 0.18644 0.05278 0.55170
 H19 H 0.16791 0.04674 0.56791
 C20 C 0.23395 0.06471 0.50934
 H21 H 0.25207 0.06905 0.49242
 C22 C 0.20957 0.08678 0.51245
 H23 H 0.20996 0.10827 0.49836
 Zn24 Zn 0.26720 0.00707 0.52523
 N25 N 0.23482 0.03805 0.52751
 C26 C 0.28583 0.02831 0.58271
 N27 N 0.29280 0.00811 0.56025
 C28 C 0.31983 -0.00950 0.56097
 C29 C 0.34145 -0.00670 0.58472
 C30 C 0.30660 0.03161 0.60700
 C31 C 0.22250 -0.03289 0.50124
 C32 C 0.20306 -0.05957 0.49902
 C33 C 0.23401 -0.08568 0.53849
 C34 C 0.25249 -0.05809 0.54042
 N35 N 0.24630 -0.03241 0.52197
 H36 H 0.26454 0.04253 0.58154
 H37 H 0.32509 -0.02491 0.54250
 H38 H 0.36339 -0.02005 0.58425
 H39 H 0.30055 0.04781 0.62464
 H40 H 0.21789 -0.01194 0.48715
 H41 H 0.18330 -0.05847 0.48336
 H42 H 0.23951 -0.10595 0.55319
 H43 H 0.27142 -0.05708 0.55691
 C44 C 0.18527 0.08096 0.53385
 C45 C 0.33924 0.02324 0.44547
 C46 C 0.20849 -0.08653 0.51788
 C47 C 0.33514 0.01440 0.60799
 C48 C 0.70248 -0.00255 0.54709
 H49 H 0.69639 0.01465 0.52935
 C50 C 0.68399 -0.00506 0.57336
 H51 H 0.66353 0.01022 0.57557
 C52 C 0.73571 -0.04438 0.56501
 H53 H 0.75559 -0.06000 0.56154
 C54 C 0.71789 -0.04771 0.59159
 H55 H 0.72467 -0.06556 0.60852
 N56 N 0.72778 -0.02207 0.54341
 C57 C 0.79194 0.02406 0.47800
 H58 H 0.79454 0.00514 0.46218
 C59 C 0.80926 0.05213 0.47372
 H60 H 0.82501 0.05490 0.45442
 C61 C 0.76937 0.04286 0.52319
 H62 H 0.75415 0.03893 0.54265
 C63 C 0.78684 0.07112 0.52012
 H64 H 0.78473 0.08901 0.53708
 Zn65 Zn 0.75066 -0.01945 0.50645
 N66 N 0.77200 0.02015 0.50207
 C67 C 0.72231 -0.00587 0.44879
 N68 N 0.72131 -0.02491 0.47422
 C69 C 0.69816 -0.04732 0.47813
 C70 C 0.67457 -0.05090 0.45619
 C71 C 0.69971 -0.00919 0.42595
 C72 C 0.80789 -0.04584 0.52484
 C73 C 0.83306 -0.06726 0.52612
 C74 C 0.80543 -0.09938 0.49007
 C75 C 0.78079 -0.07709 0.48930
 N76 N 0.78244 -0.05106 0.50669
 H77 H 0.74044 0.01215 0.44604
 H78 H 0.69757 -0.06190 0.49872
 H79 H 0.65579 -0.06810 0.46051
 H80 H 0.70172 0.00578 0.40570
 H81 H 0.80870 -0.02475 0.53819
 H82 H 0.85333 -0.06212 0.54027
 H83 H 0.80350 -0.12023 0.47647
 H84 H 0.76036 -0.08064 0.47492
 C85 C 0.80684 0.07600 0.49499
 C86 C 0.69149 -0.02805 0.59595
 C87 C 0.83207 -0.09459 0.50870
 C88 C 0.67502 -0.03164 0.42955
 C89 C 0.48683 0.21009 1.04453
 H90 H 0.46724 0.20829 1.02880
 C91 C 0.48933 0.18836 1.06902
 H92 H 0.47146 0.16994 1.07212
 C93 C 0.53524 0.23479 1.05831
 H94 H 0.55365 0.25222 1.05351
 C95 C 0.53886 0.21335 1.08279
 H96 H 0.55975 0.21490 1.09701
 N97 N 0.50979 0.23251 1.03949
 C98 C 0.47106 0.29813 0.97052
 H99 H 0.49025 0.29631 0.95436
 C100 C 0.44718 0.32044 0.96544
 H101 H 0.44778 0.33513 0.94489
 C102 C 0.44808 0.28204 1.01755
 H103 H 0.44930 0.26785 1.03833
 C104 C 0.42367 0.30439 1.01344
 H105 H 0.40613 0.30705 1.03112
 Zn106 Zn 0.50956 0.25680 1.00265
 N107 N 0.47140 0.27977 0.99636
 C108 C 0.49536 0.22458 0.94835
 N109 N 0.51676 0.22836 0.97106
 C110 C 0.54385 0.21089 0.97263
 C111 C 0.55063 0.18897 0.95051
 C112 C 0.50126 0.20301 0.92565
 C113 C 0.53803 0.31092 1.02401
 C114 C 0.55735 0.33790 1.02336
 C115 C 0.58474 0.31758 0.98000
 C116 C 0.56474 0.29092 0.98141
 N117 N 0.54170 0.28833 1.00300
 H118 H 0.47359 0.23810 0.94786
 H119 H 0.56017 0.21395 0.99124
 H120 H 0.57214 0.17501 0.95248
 H121 H 0.48418 0.20076 0.90751
 H122 H 0.51921 0.30844 1.04064
 H123 H 0.55364 0.35590 1.03996
 H124 H 0.60216 0.31995 0.96202
 H125 H 0.56673 0.27311 0.96445
 C126 C 0.42361 0.32457 0.98746
 C127 C 0.51604 0.18937 1.08803
 C128 C 0.58060 0.34184 1.00074
 C129 C 0.52924 0.18483 0.92651
 C130 C 0.44933 0.79250 -0.01863
 H131 H 0.43004 0.79242 -0.00242
 C132 C 0.44826 0.81275 -0.04421
 H133 H 0.42807 0.82838 -0.04731
 C134 C 0.49986 0.77341 -0.03308
 H135 H 0.52027 0.75860 -0.02832
 C136 C 0.49968 0.79313 -0.05910
 H137 H 0.51970 0.79261 -0.07447
 N138 N 0.47485 0.77339 -0.01354
 C139 C 0.43791 0.70126 0.05016
 H140 H 0.45247 0.70597 0.06971
 C141 C 0.41647 0.67586 0.05114
 H142 H 0.41414 0.66171 0.07190
 C143 C 0.42401 0.71378 -0.00076
 H144 H 0.42783 0.72800 -0.02123
 C145 C 0.40258 0.68830 -0.00091
 H146 H 0.39012 0.68329 -0.02166
 Zn147 Zn 0.47520 0.74933 0.02328
 N148 N 0.44142 0.71949 0.02445
 C149 C 0.44541 0.77964 0.07255
 N150 N 0.47169 0.77874 0.05463
 C151 C 0.49524 0.80081 0.05669
 C152 C 0.49315 0.82476 0.07771
 C153 C 0.44218 0.80344 0.09368
 C154 C 0.51745 0.70333 0.00538
 C155 C 0.54416 0.68384 0.00632
 C156 C 0.56103 0.70939 0.05185
 C157 C 0.53399 0.72858 0.04994
 N158 N 0.51305 0.72541 0.02675
 H159 H 0.42652 0.76247 0.06996
 H160 H 0.51547 0.80004 0.04160
 H161 H 0.51194 0.84238 0.07874
 H162 H 0.42106 0.80397 0.10769
 H163 H 0.50003 0.70083 -0.01241
 H164 H 0.54704 0.66621 -0.01078
 H165 H 0.57762 0.71230 0.07030
 H166 H 0.52963 0.74568 0.06716
 C167 C 0.39898 0.66853 0.02513
 C168 C 0.47372 0.81336 -0.06484
 C169 C 0.56640 0.68675 0.02975
 C170 C 0.46623 0.82644 0.09637
 C171 C 1.03197 0.45183 0.20302
 H172 H 1.01421 0.43337 0.20630
 C173 C 1.05820 0.44670 0.18443
 H174 H 1.06069 0.42418 0.17349
 C175 C 1.04944 0.50436 0.21183
 H176 H 1.04552 0.52705 0.22194
 C177 C 1.07563 0.50048 0.19290
 H178 H 1.09198 0.52010 0.18881
 N179 N 1.02820 0.48022 0.21644
 C180 C 0.96129 0.46237 0.29029
 H181 H 0.94538 0.48206 0.28566
 C182 C 0.95760 0.44379 0.31672
 H183 H 0.93863 0.44902 0.33235
 C184 C 1.00636 0.43252 0.27620
 H185 H 1.02602 0.42895 0.26100
 C186 C 1.00318 0.41295 0.30215
 H187 H 1.02030 0.39423 0.30660
 Zn188 Zn 0.99055 0.48693 0.23875
 N189 N 0.98552 0.45669 0.27083
 C190 C 0.93205 0.46359 0.21561
 N191 N 0.95619 0.48490 0.21150
 C192 C 0.95732 0.50490 0.18679
 C193 C 0.93340 0.50414 0.16499
 C194 C 0.90754 0.46205 0.19435
 C195 C 1.01489 0.53150 0.27777
 C196 C 1.01414 0.55792 0.29600
 C197 C 0.96538 0.57438 0.27127
 C198 C 0.96722 0.54776 0.25328
 N199 N 0.99148 0.52675 0.25718
 H200 H 0.93187 0.44759 0.23521
 H201 H 0.97708 0.52128 0.18393
 H202 H 0.93510 0.51986 0.14518
 H203 H 0.88836 0.44514 0.19807
 H204 H 1.03343 0.51396 0.28090
 H205 H 1.03229 0.56064 0.31312
 H206 H 0.94544 0.59042 0.26858
 H207 H 0.94843 0.54311 0.23733
 C208 C 0.97890 0.41894 0.32296
 C209 C 1.08009 0.47140 0.17890
 C210 C 0.98872 0.57933 0.29336
 C211 C 0.90807 0.48248 0.16859
 C212 C -0.03553 0.51864 0.78178
 H213 H -0.01235 0.52571 0.78963
 C214 C -0.06091 0.51729 0.80213
 H215 H -0.05681 0.52326 0.82547
 C216 C -0.06873 0.50076 0.74246
 H217 H -0.07146 0.49347 0.71937
 C218 C -0.09477 0.49897 0.76210
 H219 H -0.11757 0.49113 0.75367
 N220 N -0.03980 0.51055 0.75249
 C221 C 0.00077 0.47292 0.67403
 H222 H 0.00872 0.49492 0.66318
 C223 C -0.00223 0.44568 0.65708
 H224 H 0.00315 0.44704 0.63311
 C225 C -0.01672 0.44468 0.71826
 H226 H -0.02242 0.44461 0.74213
 C227 C -0.02029 0.41689 0.70209
 H228 H -0.02850 0.39536 0.71372
 Zn229 Zn -0.00457 0.51002 0.72554
 N230 N -0.00664 0.47200 0.70398
 C231 C 0.05118 0.48427 0.75239
 N232 N 0.03392 0.51132 0.74814
 C233 C 0.04277 0.53884 0.76124
 C234 C 0.06978 0.53979 0.77959
 C235 C 0.07796 0.48401 0.77111
 C236 C -0.03484 0.54982 0.68219
 C237 C -0.03754 0.57421 0.66023
 C238 C 0.01730 0.58825 0.66921
 C239 C 0.01899 0.56347 0.69095
 N240 N -0.00695 0.54495 0.69720
 H241 H 0.04372 0.46261 0.74195
 H242 H 0.02843 0.55993 0.75791
 H243 H 0.07618 0.56169 0.79033
 H244 H 0.09105 0.46214 0.77491
 H245 H -0.05495 0.53445 0.68685
 H246 H -0.05979 0.57714 0.64816
 H247 H 0.03815 0.60284 0.66482
 H248 H 0.04128 0.55871 0.70230
 C249 C -0.01314 0.41725 0.67104
 C250 C -0.09100 0.50723 0.79241
 C251 C -0.01124 0.59383 0.65341
 C252 C 0.08738 0.51199 0.78506
 C253 C 0.04230 0.20245 0.52294
 C254 C 0.06896 0.18275 0.52057
 C255 C 0.08421 0.18000 0.49225
 C256 C 0.07334 0.19794 0.46717
 C257 C 0.04709 0.21779 0.46988
 C258 C 0.03071 0.21941 0.49746
 C259 C 0.11011 0.15949 0.48946
 C260 C 0.12131 0.14200 0.51474
 C261 C 0.10677 0.14549 0.54328
 C262 C 0.08055 0.16571 0.54600
 C263 C 0.11863 0.12855 0.56859
 C264 C 0.14441 0.10807 0.56562
 C265 C 0.15859 0.10373 0.53718
 C266 C 0.14681 0.12098 0.51183
 H267 H 0.03076 0.20464 0.54464
 H268 H 0.08518 0.19667 0.44546
 H269 H 0.03997 0.23179 0.45023
 H270 H 0.12152 0.15713 0.46762
 H271 H 0.06913 0.16807 0.56782
 H272 H 0.10801 0.13118 0.59071
 H273 H 0.15334 0.09577 0.58572
 H274 H 0.15701 0.11765 0.48965
 C275 C 0.70914 0.56824 0.00790
 C276 C 0.68554 0.59171 0.00749
 C277 C 0.67716 0.60718 -0.02024
 C278 C 0.69290 0.59927 -0.04694
 C279 C 0.71634 0.57587 -0.04629
 C280 C 0.72447 0.56020 -0.01897
 C281 C 0.65284 0.62985 -0.02095
 C282 C 0.63661 0.63712 0.00567
 C283 C 0.64535 0.62211 0.03349
 C284 C 0.66982 0.59954 0.03424
 C285 C 0.62910 0.62959 0.06004
 C286 C 0.60392 0.65117 0.05894
 C287 C 0.59455 0.66563 0.03129
 C288 C 0.61137 0.65879 0.00479
 H289 H 0.71518 0.55584 0.02897
 H290 H 0.68676 0.61086 -0.06838
 H291 H 0.72768 0.56965 -0.06727
 H292 H 0.64619 0.64145 -0.04227
 H293 H 0.67631 0.58777 0.05553
 H294 H 0.63551 0.61836 0.08157
 H295 H 0.59118 0.65587 0.07961
 H296 H 0.60463 0.67020 -0.01658
 C297 C 0.97777 -0.21022 0.48685
 C298 C 0.95030 -0.19137 0.48628
 C299 C 0.93330 -0.18672 0.45890
 C300 C 0.94381 -0.20144 0.43271
 C301 C 0.97085 -0.22062 0.43365
 C302 C 0.98776 -0.22542 0.46074
 C303 C 0.90631 -0.16720 0.45806
 C304 C 0.89589 -0.15253 0.48435
 C305 C 0.91250 -0.15782 0.51186
 C306 C 0.93966 -0.17705 0.51263
 C307 C 0.90178 -0.14357 0.53817
 C308 C 0.87526 -0.12374 0.53719
 C309 C 0.85900 -0.11747 0.50982
 C310 C 0.86934 -0.13235 0.48350
 H311 H 0.99133 -0.21315 0.50760
 H312 H 0.93123 -0.19798 0.41147
 H313 H 0.97882 -0.23112 0.41297
 H314 H 0.89351 -0.16334 0.43697
 H315 H 0.95255 -0.18082 0.53370
 H316 H 0.91401 -0.14763 0.55952
 H317 H 0.86747 -0.11326 0.55797
 H318 H 0.85730 -0.12758 0.46217
 C319 C 0.28668 0.45304 0.97828
 C320 C 0.30698 0.42683 0.98145
 C321 C 0.29499 0.39736 0.99274
 C322 C 0.26263 0.39468 1.00028
 C323 C 0.24263 0.42111 0.99731
 C324 C 0.25474 0.45070 0.98723
 C325 C 0.31549 0.37117 0.99615
 C326 C 0.34786 0.37423 0.98855
 C327 C 0.35963 0.40382 0.97720
 C328 C 0.33916 0.42981 0.97363
 C329 C 0.39183 0.40707 0.96969
 C330 C 0.41229 0.38130 0.97321
 C331 C 0.40106 0.35158 0.98418
 C332 C 0.36872 0.34826 0.99204
 H333 H 0.29586 0.47525 0.96876
 H334 H 0.25282 0.37220 1.00856
 H335 H 0.21775 0.41839 1.00311
 H336 H 0.30630 0.34855 1.00480
 H337 H 0.34832 0.45246 0.96498
 H338 H 0.40125 0.42964 0.96118
 H339 H 0.43718 0.38477 0.96765
 H340 H 0.35976 0.32548 1.00046
 C341 C 0.93544 0.21241 0.49112
 C342 C 0.91202 0.18939 0.49761
 C343 C 0.91247 0.17236 0.52569
 C344 C 0.93610 0.17910 0.54696
 C345 C 0.95986 0.20145 0.53992
 C346 C 0.96011 0.21774 0.51173
 C347 C 0.88992 0.14829 0.53165
 C348 C 0.86766 0.14032 0.50945
 C349 C 0.86719 0.15749 0.48141
 C350 C 0.88896 0.18230 0.47590
 C351 C 0.84566 0.14884 0.45887
 C352 C 0.82555 0.12270 0.46362
 C353 C 0.82610 0.10526 0.49121
 C354 C 0.84669 0.11461 0.51434
 H355 H 0.93486 0.22524 0.46959
 H356 H 0.93670 0.16650 0.56872
 H357 H 0.97809 0.20584 0.55652
 H358 H 0.89044 0.13504 0.55310
 H359 H 0.88874 0.19526 0.45429
 H360 H 0.84500 0.16172 0.43726
 H361 H 0.80972 0.11581 0.44561
 H362 H 0.84742 0.10093 0.53553
 C363 C 0.27932 0.52553 0.00199
 C364 C 0.29697 0.55375 0.00357
 C365 C 0.28668 0.58135 -0.01256
 C366 C 0.25871 0.58017 -0.02979
 C367 C 0.24143 0.55179 -0.03141
 C368 C 0.25221 0.52399 -0.01643
 C369 C 0.30431 0.60967 -0.01091
 C370 C 0.33230 0.61058 0.00641
 C371 C 0.34254 0.58286 0.02242
 C372 C 0.32473 0.55472 0.02106
 C373 C 0.37064 0.58361 0.03937
 C374 C 0.38866 0.61145 0.04031
 C375 C 0.37883 0.63934 0.02464
 C376 C 0.35039 0.63867 0.00780
 H377 H 0.28667 0.50477 0.01527
 H378 H 0.25003 0.60123 -0.04179
 H379 H 0.21931 0.55193 -0.04385
 H380 H 0.29638 0.63087 -0.02322
 H381 H 0.33264 0.53350 0.03338
 H382 H 0.37892 0.56252 0.05159
 H383 H 0.41076 0.61086 0.05286
 H384 H 0.34226 0.65998 -0.00417
 C385 C 0.07572 -0.21580 0.48872
 C386 C 0.10016 -0.19297 0.48898
 C387 C 0.10713 -0.17480 0.46228
 C388 C 0.08920 -0.17937 0.43602
 C389 C 0.06453 -0.20165 0.43620
 C390 C 0.05799 -0.22026 0.46231
 C391 C 0.13143 -0.15192 0.46242
 C392 C 0.14817 -0.14617 0.48914
 C393 C 0.14093 -0.16394 0.51594
 C394 C 0.11729 -0.18757 0.51559
 C395 C 0.15701 -0.15726 0.54279
 C396 C 0.17935 -0.13258 0.54332
 C397 C 0.18664 -0.11451 0.51684
 C398 C 0.17139 -0.12218 0.48963
 H399 H 0.07017 -0.22955 0.50918
 H400 H 0.09401 -0.16545 0.41548
 H401 H 0.05065 -0.20453 0.41582
 H402 H 0.13674 -0.13804 0.44192
 H403 H 0.11178 -0.20126 0.53615
 H404 H 0.15166 -0.17051 0.56360
 H405 H 0.19013 -0.12709 0.56477
 H406 H 0.17713 -0.10917 0.46880
 C407 C 0.69846 0.48822 0.98400
 C408 C 0.68173 0.45934 0.98529
 C409 C 0.69824 0.43043 0.98227
 C410 C 0.73130 0.43104 0.97787
 C411 C 0.74783 0.45996 0.97704
 C412 C 0.73159 0.48870 0.98030
 C413 C 0.68150 0.40147 0.98409
 C414 C 0.64852 0.40111 0.98927
 C415 C 0.63215 0.43014 0.99232
 C416 C 0.64880 0.45901 0.99010
 C417 C 0.59936 0.42988 0.99780
 C418 C 0.58286 0.40114 1.00054
 C419 C 0.59875 0.37207 0.99771
 C420 C 0.63164 0.37223 0.99180
 H421 H 0.68559 0.51016 0.98656
 H422 H 0.74441 0.40916 0.97550
 H423 H 0.77341 0.45986 0.97417
 H424 H 0.69416 0.37927 0.98184
 H425 H 0.63617 0.48122 0.99251
 H426 H 0.58646 0.45190 1.00009
 H427 H 0.55745 0.40166 1.00453
 H428 H 0.64412 0.34993 0.98974
 C429 C 0.51723 0.05204 1.21451
 C430 C 0.51264 0.07813 1.19441
 C431 C 0.48307 0.09406 1.19385
 C432 C 0.45893 0.08409 1.21395
 C433 C 0.46384 0.05830 1.23407
 C434 C 0.49288 0.04204 1.23434
 C435 C 0.47800 0.11942 1.17301
 C436 C 0.50221 0.12923 1.15287
 C437 C 0.53205 0.11381 1.15405
 C438 C 0.53701 0.08829 1.17468
 C439 C 0.55641 0.12399 1.13435
 C440 C 0.55122 0.14895 1.11341
 C441 C 0.52151 0.16405 1.11154
 C442 C 0.49706 0.15410 1.13144
 H443 H 0.53960 0.03931 1.21457
 H444 H 0.43614 0.09602 1.21389
 H445 H 0.44461 0.05073 1.24892
 H446 H 0.45518 0.13135 1.17234
 H447 H 0.55978 0.07625 1.17526
 H448 H 0.57942 0.11250 1.13498
 H449 H 0.57028 0.15598 1.09810
 H450 H 0.47414 0.16578 1.13028
 C451 C 0.00175 0.71653 0.51435
 C452 C 0.00438 0.69414 0.53847
 C453 C 0.03289 0.67674 0.54243
 C454 C 0.05831 0.68221 0.52241
 C455 C 0.05553 0.70462 0.49863
 C456 C 0.02741 0.72201 0.49455
 C457 C 0.03545 0.65396 0.56613
 C458 C 0.00991 0.64834 0.58603
 C459 C -0.01846 0.66595 0.58232
 C460 C -0.02108 0.68870 0.55855
 C461 C -0.04385 0.66032 0.60238
 C462 C -0.04131 0.63724 0.62567
 C463 C -0.01338 0.61924 0.62934
 C464 C 0.01223 0.62514 0.60942
 H465 H -0.02035 0.72918 0.51084
 H466 H 0.08029 0.66907 0.52504
 H467 H 0.07540 0.70835 0.48330
 H468 H 0.05725 0.64051 0.56899
 H469 H -0.04292 0.70207 0.55562
 H470 H -0.06571 0.67371 0.60001
 H471 H -0.06123 0.63358 0.64093
 H472 H 0.03375 0.61117 0.61166
 C473 C 0.49726 0.94558 -0.19387
 C474 C 0.49858 0.92115 -0.17168
 C475 C 0.52790 0.91361 -0.15758
 C476 C 0.55554 0.93025 -0.16656
 C477 C 0.55398 0.95449 -0.18891
 C478 C 0.52488 0.96219 -0.20263
 C479 C 0.52894 0.89009 -0.13437
 C480 C 0.50103 0.87405 -0.12516
 C481 C 0.47192 0.88112 -0.13986
 C482 C 0.47088 0.90461 -0.16299
 C483 C 0.44416 0.86491 -0.13086
 C484 C 0.44498 0.84241 -0.10701
 C485 C 0.47353 0.83576 -0.09155
 C486 C 0.50162 0.85146 -0.10109
 H487 H 0.47457 0.95211 -0.20384
 H488 H 0.57821 0.92487 -0.15598
 H489 H 0.57535 0.96762 -0.19504
 H490 H 0.55132 0.88459 -0.12323
 H491 H 0.44845 0.91031 -0.17397
 H492 H 0.42172 0.86984 -0.14209
 H493 H 0.42314 0.83023 -0.10061
 H494 H 0.52376 0.84689 -0.08923
 C495 C 0.98371 0.29949 0.46377
 C496 C 0.98032 0.31642 0.43616
 C497 C 0.97899 0.29985 0.40884
 C498 C 0.97962 0.26655 0.40979
 C499 C 0.98281 0.24990 0.43744
 C500 C 0.98592 0.26626 0.46448
 C501 C 0.97755 0.31685 0.38107
 C502 C 0.97731 0.35018 0.38033
 C503 C 0.97739 0.36666 0.40775
 C504 C 0.97894 0.34968 0.43547
 C505 C 0.97644 0.39994 0.40699
 C506 C 0.97613 0.41681 0.37932
 C507 C 0.97709 0.40071 0.35199
 C508 C 0.97743 0.36736 0.35260
 H509 H 0.98515 0.31237 0.48453
 H510 H 0.97819 0.25341 0.38913
 H511 H 0.98383 0.22420 0.43765
 H512 H 0.97711 0.30417 0.36007
 H513 H 0.97961 0.36236 0.45646
 H514 H 0.97633 0.41292 0.42778
 H515 H 0.97602 0.44255 0.37922
 H516 H 0.97788 0.35490 0.33150
 C517 C 0.47734 0.96431 0.21355
 C518 C 0.47997 0.93869 0.19413
 C519 C 0.50872 0.92142 0.19313
 C520 C 0.53420 0.92997 0.21167
 C521 C 0.53112 0.95510 0.23133
 C522 C 0.50256 0.97207 0.23278
 C523 C 0.51158 0.89595 0.17361
 C524 C 0.48591 0.88720 0.15536
 C525 C 0.45697 0.90413 0.15670
 C526 C 0.45427 0.92993 0.17589
 C527 C 0.43120 0.89492 0.13881
 C528 C 0.43409 0.86935 0.11960
 C529 C 0.46288 0.85269 0.11773
 C530 C 0.48871 0.86174 0.13578
 H531 H 0.45559 0.97803 0.21393
 H532 H 0.55649 0.91719 0.21101
 H533 H 0.55131 0.96134 0.24508
 H534 H 0.53372 0.88287 0.17272
 H535 H 0.43214 0.94301 0.17678
 H536 H 0.40883 0.90757 0.13958
 H537 H 0.41399 0.86299 0.10569
 H538 H 0.51089 0.84879 0.13472
 C539 C -0.01883 0.28007 0.55314
 C540 C -0.01249 0.30419 0.57358
 C541 C 0.01609 0.32197 0.57088
 C542 C 0.03805 0.31494 0.54822
 C543 C 0.03151 0.29099 0.52801
 C544 C 0.00304 0.27365 0.53019
 C545 C 0.02200 0.34688 0.59042
 C546 C -0.00036 0.35447 0.61255
 C547 C -0.02864 0.33636 0.61573
 C548 C -0.03450 0.31127 0.59626
 C549 C -0.05081 0.34401 0.63803
 C550 C -0.04540 0.36984 0.65651
 C551 C -0.01776 0.38849 0.65298
 C552 C 0.00489 0.38033 0.63119
 H553 H -0.04106 0.26702 0.55461
 H554 H 0.06005 0.32830 0.54583
 H555 H 0.04849 0.28639 0.51026
 H556 H 0.04374 0.36071 0.58806
 H557 H -0.05636 0.29761 0.59846
 H558 H -0.07258 0.33036 0.64086
 H559 H -0.06330 0.37580 0.67299
 H560 H 0.02651 0.39428 0.62860
 C561 C 0.53747 0.04953 0.80636
 C562 C 0.53095 0.07340 0.82694
 C563 C 0.49935 0.07807 0.83683
 C564 C 0.47483 0.05896 0.82578
 C565 C 0.48157 0.03530 0.80533
 C566 C 0.51277 0.03074 0.79520
 C567 C 0.49283 0.10132 0.85798
 C568 C 0.51751 0.11997 0.86944
 C569 C 0.54905 0.11555 0.85932
 C570 C 0.55558 0.09230 0.83814
 C571 C 0.57360 0.13432 0.87076
 C572 C 0.56707 0.15701 0.89229
 C573 C 0.53588 0.16134 0.90289
 C574 C 0.51117 0.14275 0.89114
 H575 H 0.56178 0.04519 0.79955
 H576 H 0.45053 0.06200 0.83330
 H577 H 0.46242 0.02023 0.79774
 H578 H 0.46863 0.10469 0.86572
 H579 H 0.57981 0.08878 0.83056
 H580 H 0.59788 0.13141 0.86313
 H581 H 0.58649 0.17133 0.90052
 H582 H 0.48708 0.14548 0.89936
 C583 C 1.00152 0.70738 0.41940
 C584 C 1.00363 0.68724 0.39483
 C585 C 1.03290 0.68427 0.37939
 C586 C 1.05931 0.70210 0.38842
 C587 C 1.05680 0.72251 0.41261
 C588 C 1.02789 0.72537 0.42809
 C589 C 1.03540 0.66322 0.35553
 C590 C 1.00895 0.64526 0.34681
 C591 C 0.97946 0.64898 0.36168
 C592 C 0.97702 0.66985 0.38565
 C593 C 0.95297 0.63134 0.35263
 C594 C 0.95583 0.60955 0.32965
 C595 C 0.98524 0.60490 0.31537
 C596 C 1.01165 0.62319 0.32380
 H597 H 0.97935 0.70908 0.43178
 H598 H 1.08196 0.70004 0.37695
 H599 H 1.07768 0.73549 0.41957
 H600 H 1.05797 0.66058 0.34400
 H601 H 0.95450 0.67235 0.39732
 H602 H 0.93017 0.63398 0.36371
 H603 H 0.93525 0.59546 0.32377
 H604 H 1.03434 0.61993 0.31269
 C605 C 1.20060 0.47187 0.04177
 C606 C 1.17795 0.47621 0.06469
 C607 C 1.15568 0.50122 0.06159
 C608 C 1.15605 0.52108 0.03559
 C609 C 1.17801 0.51602 0.01266
 C610 C 1.20030 0.49145 0.01548
 C611 C 1.13310 0.50583 0.08431
 C612 C 1.13179 0.48521 0.10976
 C613 C 1.15354 0.45975 0.11272
 C614 C 1.17683 0.45571 0.09038
 C615 C 1.15120 0.43850 0.13775
 C616 C 1.12732 0.44225 0.15941
 C617 C 1.10598 0.46773 0.15673
 C618 C 1.10852 0.48928 0.13199
 H619 H 1.21818 0.45333 0.04448
 H620 H 1.13909 0.54025 0.03281
 H621 H 1.17743 0.53134 -0.00747
 H622 H 1.11618 0.52514 0.08192
 H623 H 1.19362 0.43629 0.09268
 H624 H 1.16751 0.41875 0.14035
 H625 H 1.12557 0.42538 0.17836
 H626 H 1.09171 0.50867 0.12964
 C627 C 0.57221 -0.02329 0.73411
 C628 C 0.59520 -0.01906 0.71127
 C629 C 0.60338 0.01201 0.70076
 C630 C 0.58874 0.03826 0.71358
 C631 C 0.56542 0.03375 0.73583
 C632 C 0.55713 0.00304 0.74629
 C633 C 0.62512 0.01631 0.67687
 C634 C 0.63830 -0.01007 0.66291
 C635 C 0.63044 -0.04111 0.67369
 C636 C 0.60915 -0.04540 0.69795
 C637 C 0.64347 -0.06740 0.65958
 C638 C 0.66359 -0.06306 0.63463
 C639 C 0.67122 -0.03235 0.62335
 C640 C 0.65870 -0.00591 0.63790
 H641 H 0.56505 -0.04708 0.74146
 H642 H 0.59446 0.06221 0.70560
 H643 H 0.55306 0.05429 0.74401
 H644 H 0.63109 0.04013 0.66860
 H645 H 0.60285 -0.06923 0.70595
 H646 H 0.63767 -0.09135 0.66750
 H647 H 0.67257 -0.08384 0.62366
 H648 H 0.66471 0.01789 0.62968
 C649 C -0.21633 0.51164 0.92565
 C650 C -0.19377 0.51609 0.90241
 C651 C -0.17384 0.54326 0.90203
 C652 C -0.17725 0.56578 0.92444
 C653 C -0.19952 0.56100 0.94754
 C654 C -0.21870 0.53367 0.94872
 C655 C -0.15057 0.54734 0.87952
 C656 C -0.14667 0.52442 0.85752
 C657 C -0.16688 0.49748 0.85753
 C658 C -0.19043 0.49356 0.87989
 C659 C -0.16281 0.47466 0.83545
 C660 C -0.13854 0.47813 0.81395
 C661 C -0.11793 0.50451 0.81410
 C662 C -0.12247 0.52779 0.83579
 H663 H -0.23168 0.49096 0.92580
 H664 H -0.16241 0.58690 0.92433
 H665 H -0.20152 0.57870 0.96462
 H666 H -0.13513 0.56806 0.87945
 H667 H -0.20573 0.47275 0.88007
 H668 H -0.17807 0.45386 0.83509
 H669 H -0.13537 0.45970 0.79769
 H670 H -0.10702 0.54848 0.83585
 C671 C 0.46254 0.02186 0.30969
 C672 C 0.43794 0.01888 0.33099
 C673 C 0.41397 -0.00434 0.32740
 C674 C 0.41577 -0.02493 0.30310
 C675 C 0.44111 -0.02257 0.28262
 C676 C 0.46435 0.00112 0.28555
 C677 C 0.38897 -0.00691 0.34843
 C678 C 0.38843 0.01254 0.37368
 C679 C 0.41312 0.03487 0.37777
 C680 C 0.43735 0.03836 0.35612
 C681 C 0.41351 0.05300 0.40375
 C682 C 0.38982 0.04897 0.42567
 C683 C 0.36444 0.02749 0.42169
 C684 C 0.36392 0.00958 0.39521
 H685 H 0.48065 0.03999 0.31221
 H686 H 0.39787 -0.04318 0.30022
 H687 H 0.44232 -0.03927 0.26463
 H688 H 0.37037 -0.02449 0.34550
 H689 H 0.45608 0.05578 0.35914
 H690 H 0.43255 0.06986 0.40748
 H691 H 0.39196 0.06242 0.44601
 H692 H 0.34455 -0.00674 0.39114
 C693 C 0.20666 0.49829 0.92274
 C694 C 0.18451 0.49540 0.89913
 C695 C 0.15954 0.47285 0.90208
 C696 C 0.15714 0.45368 0.92846
 C697 C 0.17848 0.45761 0.95220
 C698 C 0.20296 0.48027 0.94979
 C699 C 0.13689 0.47036 0.87901
 C700 C 0.13807 0.49094 0.85349
 C701 C 0.16278 0.51375 0.85057
 C702 C 0.18624 0.51539 0.87312
 C703 C 0.16305 0.53513 0.82555
 C704 C 0.13867 0.53440 0.80404
 C705 C 0.11413 0.51177 0.80678
 C706 C 0.11425 0.48977 0.83132
 H707 H 0.22627 0.51485 0.92015
 H708 H 0.13819 0.43628 0.93110
 H709 H 0.17537 0.44335 0.97280
 H710 H 0.11777 0.45307 0.88137
 H711 H 0.20515 0.53292 0.87093
 H712 H 0.18170 0.55285 0.82298
 H713 H 0.13891 0.55153 0.78523
 H714 H 0.09506 0.47258 0.83375
 C715 C 0.54228 -0.01771 0.30238
 C716 C 0.56730 -0.01557 0.32323
 C717 C 0.58332 0.01373 0.32644
 C718 C 0.57464 0.04007 0.30805
 C719 C 0.55007 0.03753 0.28694
 C720 C 0.53373 0.00870 0.28406
 C721 C 0.60749 0.01628 0.34815
 C722 C 0.61628 -0.01027 0.36626
 C723 C 0.60096 -0.03979 0.36231
 C724 C 0.57637 -0.04220 0.34103
 C725 C 0.61047 -0.06643 0.37977
 C726 C 0.63475 -0.06387 0.40116
 C727 C 0.64971 -0.03447 0.40601
 C728 C 0.64014 -0.00772 0.38830
 H729 H 0.52930 -0.03987 0.30049
 H730 H 0.58665 0.06271 0.31021
 H731 H 0.54334 0.05835 0.27352
 H732 H 0.61946 0.03888 0.35092
 H733 H 0.56432 -0.06477 0.33832
 H734 H 0.59924 -0.08933 0.37679
 H735 H 0.64193 -0.08513 0.41370
 H736 H 0.65079 0.01532 0.39189
 C737 C 0.78675 0.50157 0.03286
 C738 C 0.80687 0.50327 0.05807
 C739 C 0.81783 0.53320 0.06745
 C740 C 0.80802 0.56090 0.05176
 C741 C 0.78826 0.55890 0.02650
 C742 C 0.77790 0.52928 0.01659
 C743 C 0.83878 0.53494 0.09201
 C744 C 0.84932 0.50709 0.10703
 C745 C 0.83806 0.47718 0.09791
 C746 C 0.81672 0.47547 0.07363
 C747 C 0.84881 0.44941 0.11289
 C748 C 0.87110 0.45119 0.13622
 C749 C 0.88292 0.48076 0.14511
 C750 C 0.87148 0.50867 0.13065
 H751 H 0.77866 0.47860 0.02574
 H752 H 0.81596 0.58406 0.05876
 H753 H 0.78113 0.58062 0.01470
 H754 H 0.84738 0.55790 0.09904
 H755 H 0.80830 0.45250 0.06647
 H756 H 0.84044 0.42629 0.10619
 H757 H 0.87974 0.42931 0.14674
 H758 H 0.88001 0.53164 0.13763
 C759 C 0.47050 0.01516 0.73222
 C760 C 0.44681 0.00995 0.71057
 C761 C 0.44189 -0.02099 0.69979
 C762 C 0.46094 -0.04609 0.71066
 C763 C 0.48461 -0.04060 0.73202
 C764 C 0.48911 -0.01016 0.74328
 C765 C 0.41835 -0.02625 0.67804
 C766 C 0.39992 -0.00091 0.66662
 C767 C 0.40496 0.03003 0.67729
 C768 C 0.42825 0.03524 0.69929
 C769 C 0.38678 0.05534 0.66554
 C770 C 0.36403 0.05016 0.64323
 C771 C 0.35876 0.01950 0.63238
 C772 C 0.37676 -0.00599 0.64442
 H773 H 0.47468 0.03891 0.74016
 H774 H 0.45774 -0.06987 0.70244
 H775 H 0.49946 -0.06019 0.73972
 H776 H 0.41461 -0.04997 0.66977
 H777 H 0.43210 0.05899 0.70746
 H778 H 0.39043 0.07923 0.67333
 H779 H 0.35099 0.07035 0.63400
 H780 H 0.37271 -0.02980 0.63657
   
