data_POSCAR
  _audit_creation_date              2014-09-24
  _audit_creation_method            'ToBaCCo'
  _symmetry_space_group_name_H-M    'P1'
  _symmetry_Int_Tables_number       1
  _symmetry_cell_setting            triclinic
  loop_
  _symmetry_equiv_pos_as_xyz
 x,y,z
_cell_length_a 56.6588
_cell_length_b 56.5338
_cell_length_c 56.5236
_cell_angle_alpha 89.869200
_cell_angle_beta 90.013200
_cell_angle_gamma 90.016600
loop_
  _atom_site_label
  _atom_site_type_symbol
  _atom_site_fract_x
  _atom_site_fract_y
  _atom_site_fract_z
O1 O 0.37314 0.34150 -0.02419
 O2 O 0.33989 0.37298 0.02209
 O3 O 0.37269 0.34048 0.02186
 O4 O 0.34055 0.37395 -0.02395
 O5 O 0.31309 0.34617 -0.02478
 O6 O 0.34520 0.31272 0.02100
 O7 O 0.31243 0.34518 0.02121
 O8 O 0.34563 0.31374 -0.02501
 Cu9 Cu 0.35934 0.36003 -0.00092
 Cu10 Cu 0.32632 0.32665 -0.00194
 C11 C 0.36497 0.32230 -0.03241
 C12 C 0.32047 0.36446 0.02936
 C13 C 0.36443 0.32088 0.02906
 C14 C 0.32139 0.36570 -0.03210
 O15 O 0.65889 0.62664 0.02300
 O16 O 0.62746 0.65826 -0.02454
 O17 O 0.66023 0.62589 -0.02304
 O18 O 0.62648 0.65937 0.02149
 O19 O 0.65408 0.68704 0.02152
 O20 O 0.68774 0.65364 -0.02292
 O21 O 0.65500 0.68598 -0.02447
 O22 O 0.68645 0.65435 0.02307
 Cu23 Cu 0.64049 0.63974 -0.00078
 Cu24 Cu 0.67359 0.67305 -0.00070
 C25 C 0.67801 0.63512 0.03101
 C26 C 0.63588 0.67749 -0.03247
 C27 C 0.67973 0.63411 -0.03045
 C28 C 0.63458 0.67890 0.02897
 O29 O 0.65871 0.37361 0.97703
 O30 O 0.62721 0.34197 1.02451
 O31 O 0.66003 0.37430 1.02306
 O32 O 0.62622 0.34094 0.97847
 O33 O 0.65376 0.31322 0.97842
 O34 O 0.68749 0.34651 1.02292
 O35 O 0.65470 0.31421 1.02441
 O36 O 0.68621 0.34585 0.97693
 Cu37 Cu 0.64026 0.36051 1.00078
 Cu38 Cu 0.67331 0.32715 1.00066
 C39 C 0.67781 0.36510 0.96901
 C40 C 0.63560 0.32272 1.03243
 C41 C 0.67951 0.36604 1.03046
 C42 C 0.63429 0.32141 0.97096
 O43 O 0.33987 0.62690 0.97820
 O44 O 0.37322 0.65854 1.02435
 O45 O 0.34068 0.62600 1.02424
 O46 O 0.37264 0.65945 0.97830
 O47 O 0.34513 0.68717 0.97918
 O48 O 0.31318 0.65374 1.02509
 O49 O 0.34569 0.68624 1.02518
 O50 O 0.31239 0.65465 0.97909
 Cu51 Cu 0.35938 0.63992 1.00114
 Cu52 Cu 0.32632 0.67324 1.00218
 C53 C 0.32042 0.63538 0.97096
 C54 C 0.36506 0.67774 1.03255
 C55 C 0.32153 0.63423 1.03242
 C56 C 0.36435 0.67902 0.97108
 O57 O -0.02328 0.37590 0.34348
 O58 O 0.02260 0.34322 0.37630
 O59 O 0.02274 0.37592 0.34370
 O60 O -0.02342 0.34320 0.37606
 O61 O -0.02325 0.31565 0.34835
 O62 O 0.02284 0.34831 0.31605
 O63 O 0.02270 0.31566 0.34859
 O64 O -0.02311 0.34830 0.31582
 Cu65 Cu -0.00035 0.36235 0.36268
 Cu66 Cu -0.00019 0.32921 0.32942
 C67 C -0.03093 0.36760 0.32411
 C68 C 0.03038 0.32391 0.36797
 C69 C 0.03057 0.36762 0.32440
 C70 C -0.03112 0.32389 0.36766
 O71 O 0.02272 0.65648 0.62360
 O72 O -0.02320 0.62389 0.65646
 O73 O -0.02330 0.65649 0.62378
 O74 O 0.02281 0.62387 0.65629
 O75 O 0.02290 0.65156 0.68387
 O76 O -0.02314 0.68412 0.65140
 O77 O -0.02304 0.65158 0.68404
 O78 O 0.02281 0.68411 0.65123
 Cu79 Cu -0.00026 0.63739 0.63724
 Cu80 Cu -0.00010 0.67063 0.67041
 C81 C 0.03050 0.67581 0.63188
 C82 C -0.03087 0.63225 0.67580
 C83 C -0.03100 0.67583 0.63212
 C84 C 0.03063 0.63222 0.67558
 O85 O 1.02308 0.63006 0.33739
 O86 O 0.97745 0.66272 0.37027
 O87 O 0.97721 0.63012 0.33765
 O88 O 1.02332 0.66266 0.37000
 O89 O 1.02319 0.69035 0.34230
 O90 O 0.97710 0.65783 0.30996
 O91 O 0.97734 0.69042 0.34257
 O92 O 1.02296 0.65776 0.30970
 Cu93 Cu 1.00027 0.64359 0.35662
 Cu94 Cu 1.00013 0.67688 0.32334
 C95 C 1.03064 0.63834 0.31793
 C96 C 0.96978 0.68215 0.36203
 C97 C 0.96946 0.63843 0.31828
 C98 C 1.03095 0.68206 0.36166
 O99 O 0.97720 0.33710 0.62965
 O100 O 1.02286 0.36972 0.66261
 O101 O 1.02308 0.33713 0.62997
 O102 O 0.97698 0.36968 0.66230
 O103 O 0.97682 0.34195 0.68997
 O104 O 1.02290 0.30942 0.65765
 O105 O 1.02269 0.34200 0.69028
 O106 O 0.97704 0.30938 0.65733
 Cu107 Cu 1.00004 0.35620 0.64334
 Cu108 Cu 0.99984 0.32289 0.67660
 C109 C 0.96951 0.31767 0.63786
 C110 C 1.03039 0.36142 0.68207
 C111 C 1.03068 0.31772 0.63829
 C112 C 0.96922 0.36137 0.68166
 O113 O 0.37279 0.02425 0.34165
 O114 O 0.34139 -0.02338 0.37318
 O115 O 0.37388 -0.02177 0.34053
 O116 O 0.33999 0.02264 0.37400
 O117 O 0.31252 0.02250 0.34620
 O118 O 0.34634 -0.02183 0.31280
 O119 O 0.31388 -0.02348 0.34542
 O120 O 0.34528 0.02414 0.31389
 Cu121 Cu 0.35979 0.00045 0.36014
 Cu122 Cu 0.32673 0.00032 0.32678
 C123 C 0.36437 0.03219 0.32241
 C124 C 0.32230 -0.03142 0.36466
 C125 C 0.36583 -0.02925 0.32097
 C126 C 0.32049 0.03001 0.36575
 O127 O 0.62666 0.02384 0.65871
 O128 O 0.65989 -0.02250 0.62729
 O129 O 0.62710 -0.02220 0.65981
 O130 O 0.65917 0.02352 0.62619
 O131 O 0.68668 0.02444 0.65394
 O132 O 0.65461 -0.02126 0.68755
 O133 O 0.68737 -0.02155 0.65507
 O134 O 0.65420 0.02473 0.68643
 Cu135 Cu 0.64042 0.00053 0.64020
 Cu136 Cu 0.67348 0.00164 0.67355
 C137 C 0.63485 0.03211 0.67788
 C138 C 0.67932 -0.02974 0.63582
 C139 C 0.63537 -0.02935 0.67942
 C140 C 0.67834 0.03170 0.63440
 O141 O 0.37274 0.97580 0.65848
 O142 O 0.34125 1.02333 0.62688
 O143 O 0.37377 1.02183 0.65952
 O144 O 0.33994 0.97731 0.62612
 O145 O 0.31248 0.97743 0.65393
 O146 O 0.34624 1.02188 0.68726
 O147 O 0.31376 1.02341 0.65465
 O148 O 0.34524 0.97590 0.68625
 Cu149 Cu 0.35970 0.99956 0.63995
 Cu150 Cu 0.32666 0.99966 0.67332
 C151 C 0.36434 0.96787 0.67773
 C152 C 0.32216 1.03134 0.63540
 C153 C 0.36571 1.02932 0.67907
 C154 C 0.32046 0.96991 0.63438
 O155 O 0.62726 0.97658 0.34127
 O156 O 0.66056 1.02280 0.37286
 O157 O 0.62775 1.02262 0.34034
 O158 O 0.65978 0.97677 0.37382
 O159 O 0.68728 0.97594 0.34607
 O160 O 0.65525 1.02177 0.31260
 O161 O 0.68803 1.02193 0.34510
 O162 O 0.65480 0.97577 0.31356
 Cu163 Cu 0.64106 0.99983 0.35987
 Cu164 Cu 0.67411 0.99881 0.32654
 C165 C 0.63544 0.96837 0.32207
 C166 C 0.67999 1.03007 0.36438
 C167 C 0.63602 1.02983 0.32075
 C168 C 0.67893 0.96861 0.36558
 C169 C 0.81327 0.81265 0.51353
 C170 C 0.81347 0.81271 0.48941
 C171 C 0.83040 0.79807 0.47572
 C172 C 0.79734 0.82806 0.47544
 C173 C 0.79864 0.82962 0.52720
 C174 C 0.82831 0.79618 0.52746
 C175 C 0.85485 0.80007 0.47947
 C176 C 0.87060 0.78634 0.46633
 C177 C 0.86210 0.77067 0.44917
 C178 C 0.83779 0.76884 0.44514
 C179 C 0.82202 0.78254 0.45828
 C180 C 0.80673 0.84363 0.45849
 C181 C 0.79191 0.85866 0.44568
 C182 C 0.76751 0.85818 0.44952
 C183 C 0.75794 0.84237 0.46605
 C184 C 0.77277 0.82728 0.47887
 C185 C 0.78270 0.82121 0.54428
 C186 C 0.76871 0.83701 0.55709
 C187 C 0.77067 0.86139 0.55309
 C188 C 0.78682 0.86991 0.53637
 C189 C 0.80083 0.85413 0.52357
 C190 C 0.82744 0.77163 0.52366
 C191 C 0.84251 0.75650 0.53616
 C192 C 0.85839 0.76575 0.55273
 C193 C 0.85887 0.79012 0.55703
 C194 C 0.84386 0.80525 0.54453
 H195 H 0.86169 0.81232 0.49248
 H196 H 0.88939 0.78800 0.46949
 H197 H 0.83103 0.75684 0.43184
 H198 H 0.80325 0.78091 0.45500
 H199 H 0.82560 0.84444 0.45552
 H200 H 0.79949 0.87081 0.43292
 H201 H 0.76515 0.81510 0.49156
 H202 H 0.78091 0.80239 0.54745
 H203 H 0.75634 0.83023 0.57005
 H204 H 0.78859 0.88874 0.53324
 H205 H 0.81337 0.86099 0.51083
 H206 H 0.81529 0.76424 0.51085
 H207 H 0.84193 0.73766 0.53275
 H208 H 0.87106 0.79746 0.56983
 H209 H 0.84474 0.82410 0.54779
 H210 H 0.73908 0.84179 0.46909
 C211 C 0.18670 0.18742 0.51297
 C212 C 0.18672 0.18717 0.48884
 C213 C 0.17157 0.20345 0.47481
 C214 C 0.20128 0.17005 0.47530
 C215 C 0.20300 0.17232 0.52702
 C216 C 0.16979 0.20214 0.52657
 C217 C 0.15598 0.19417 0.45788
 C218 C 0.14092 0.20914 0.44523
 C219 C 0.14140 0.23356 0.44922
 C220 C 0.15730 0.24302 0.46566
 C221 C 0.17241 0.22806 0.47831
 C222 C 0.19916 0.14558 0.47928
 C223 C 0.21311 0.12965 0.46661
 C224 C 0.22913 0.13798 0.44967
 C225 C 0.23101 0.16230 0.44531
 C226 C 0.21708 0.17825 0.45800
 C227 C 0.22754 0.17311 0.52335
 C228 C 0.24252 0.15821 0.53623
 C229 C 0.23314 0.14258 0.55304
 C230 C 0.20878 0.14211 0.55713
 C231 C 0.19380 0.15695 0.54426
 C232 C 0.17819 0.21793 0.54377
 C233 C 0.16242 0.23173 0.55682
 C234 C 0.13810 0.22973 0.55294
 C235 C 0.12959 0.21380 0.53602
 C236 C 0.14534 0.19998 0.52298
 H237 H 0.15511 0.17528 0.45485
 H238 H 0.12872 0.20163 0.43254
 H239 H 0.15789 0.26190 0.46882
 H240 H 0.18459 0.23560 0.49098
 H241 H 0.18672 0.13887 0.49221
 H242 H 0.21141 0.11086 0.47001
 H243 H 0.21881 0.19703 0.45455
 H244 H 0.23502 0.18513 0.51043
 H245 H 0.26135 0.15877 0.53299
 H246 H 0.20134 0.13011 0.57010
 H247 H 0.17497 0.15613 0.54742
 H248 H 0.19697 0.21969 0.54693
 H249 H 0.16919 0.24392 0.56993
 H250 H 0.11079 0.21200 0.53299
 H251 H 0.13848 0.18753 0.51016
 H252 H 0.24328 0.16892 0.43218
 C253 C 0.18708 0.81224 0.48705
 C254 C 0.18707 0.81246 0.51118
 C255 C 0.17189 0.79616 0.52518
 C256 C 0.20159 0.82959 0.52475
 C257 C 0.20337 0.82738 0.47303
 C258 C 0.17017 0.79752 0.47342
 C259 C 0.15629 0.80543 0.54209
 C260 C 0.14122 0.79045 0.55470
 C261 C 0.14169 0.76603 0.55069
 C262 C 0.15760 0.75659 0.53427
 C263 C 0.17273 0.77156 0.52166
 C264 C 0.19943 0.85405 0.52079
 C265 C 0.21334 0.87000 0.53350
 C266 C 0.22936 0.86169 0.55045
 C267 C 0.23128 0.83737 0.55478
 C268 C 0.21739 0.82140 0.54206
 C269 C 0.22790 0.82663 0.47672
 C270 C 0.24287 0.84156 0.46386
 C271 C 0.23348 0.85717 0.44704
 C272 C 0.20913 0.85760 0.44293
 C273 C 0.19416 0.84273 0.45578
 C274 C 0.17858 0.78173 0.45624
 C275 C 0.16281 0.76794 0.44317
 C276 C 0.13849 0.76995 0.44702
 C277 C 0.12997 0.78589 0.46391
 C278 C 0.14572 0.79970 0.47697
 H279 H 0.15543 0.82432 0.54514
 H280 H 0.12901 0.79795 0.56738
 H281 H 0.15817 0.73771 0.53110
 H282 H 0.18492 0.76402 0.50899
 H283 H 0.18699 0.86075 0.50786
 H284 H 0.21161 0.88879 0.53012
 H285 H 0.21916 0.80262 0.54548
 H286 H 0.23539 0.81463 0.48965
 H287 H 0.26170 0.84103 0.46712
 H288 H 0.20168 0.86959 0.42994
 H289 H 0.17532 0.84352 0.45260
 H290 H 0.19736 0.77997 0.45311
 H291 H 0.16958 0.75574 0.43007
 H292 H 0.11117 0.78769 0.46692
 H293 H 0.13886 0.81215 0.48978
 H294 H 0.24356 0.83076 0.56792
 C295 C 0.81314 0.18694 0.48610
 C296 C 0.81332 0.18695 0.51023
 C297 C 0.83024 0.20164 0.52390
 C298 C 0.79714 0.17167 0.52422
 C299 C 0.79851 0.16992 0.47247
 C300 C 0.82818 0.20338 0.47216
 C301 C 0.85469 0.19966 0.52019
 C302 C 0.87043 0.21342 0.53333
 C303 C 0.86193 0.22911 0.55046
 C304 C 0.83761 0.23092 0.55446
 C305 C 0.82185 0.21719 0.54132
 C306 C 0.80648 0.15615 0.54124
 C307 C 0.79161 0.14118 0.55408
 C308 C 0.76722 0.14168 0.55019
 C309 C 0.75771 0.15745 0.53359
 C310 C 0.77258 0.17247 0.52074
 C311 C 0.78262 0.17827 0.45531
 C312 C 0.76865 0.16242 0.44252
 C313 C 0.77056 0.13806 0.44661
 C314 C 0.78666 0.12959 0.46341
 C315 C 0.80066 0.14542 0.47619
 C316 C 0.82728 0.22795 0.47589
 C317 C 0.84235 0.24307 0.46338
 C318 C 0.85825 0.23380 0.44685
 C319 C 0.85876 0.20942 0.44261
 C320 C 0.84375 0.19430 0.45512
 H321 H 0.86155 0.18740 0.50720
 H322 H 0.88922 0.21176 0.53020
 H323 H 0.83084 0.24293 0.56774
 H324 H 0.80308 0.21881 0.54457
 H325 H 0.82535 0.15533 0.54426
 H326 H 0.79915 0.12908 0.56691
 H327 H 0.76500 0.18461 0.50799
 H328 H 0.78086 0.19708 0.45205
 H329 H 0.75631 0.16916 0.42950
 H330 H 0.78840 0.11077 0.46662
 H331 H 0.81317 0.13860 0.48900
 H332 H 0.81511 0.23535 0.48866
 H333 H 0.84175 0.26191 0.46673
 H334 H 0.87097 0.20206 0.42985
 H335 H 0.84464 0.17544 0.45192
 H336 H 0.73885 0.15803 0.53051
 C337 C 0.51172 0.81236 0.81223
 C338 C 0.48766 0.81194 0.81263
 C339 C 0.47335 0.82695 0.79646
 C340 C 0.47441 0.79709 0.82981
 C341 C 0.52605 0.79620 0.82723
 C342 C 0.52497 0.82956 0.79739
 C343 C 0.45622 0.84221 0.80588
 C344 C 0.44316 0.85700 0.79102
 C345 C 0.44693 0.85660 0.76655
 C346 C 0.46360 0.84106 0.75695
 C347 C 0.47668 0.82620 0.77182
 C348 C 0.47839 0.79920 0.85427
 C349 C 0.46569 0.78525 0.87027
 C350 C 0.44873 0.76925 0.86202
 C351 C 0.44445 0.76731 0.83770
 C352 C 0.45716 0.78123 0.82168
 C353 C 0.52274 0.77157 0.82645
 C354 C 0.53590 0.75670 0.84124
 C355 C 0.55262 0.76631 0.85674
 C356 C 0.55635 0.79077 0.85719
 C357 C 0.54321 0.80563 0.84246
 C358 C 0.54222 0.82145 0.78153
 C359 C 0.55495 0.83747 0.76764
 C360 C 0.55070 0.86179 0.76961
 C361 C 0.53373 0.87002 0.78560
 C362 C 0.52101 0.85401 0.79952
 H363 H 0.45332 0.84299 0.82481
 H364 H 0.43029 0.86894 0.79863
 H365 H 0.46661 0.84054 0.73803
 H366 H 0.48950 0.81426 0.76416
 H367 H 0.49126 0.81169 0.86093
 H368 H 0.46904 0.78700 0.88905
 H369 H 0.45370 0.77951 0.80292
 H370 H 0.50989 0.76391 0.81453
 H371 H 0.53292 0.73778 0.84071
 H372 H 0.56926 0.79839 0.86909
 H373 H 0.54610 0.82456 0.84325
 H374 H 0.54567 0.80269 0.77979
 H375 H 0.56810 0.83092 0.75539
 H376 H 0.53041 0.88880 0.78738
 H377 H 0.50815 0.86066 0.81202
 H378 H 0.43130 0.75506 0.83113
 C379 C 0.51188 0.18776 0.18802
 C380 C 0.48782 0.18811 0.18759
 C381 C 0.47352 0.17308 0.20375
 C382 C 0.47455 0.20291 0.17037
 C383 C 0.52617 0.20394 0.17300
 C384 C 0.52517 0.17062 0.20288
 C385 C 0.45641 0.15779 0.19432
 C386 C 0.44334 0.14300 0.20918
 C387 C 0.44708 0.14344 0.23365
 C388 C 0.46375 0.15900 0.24326
 C389 C 0.47683 0.17386 0.22839
 C390 C 0.47854 0.20079 0.14592
 C391 C 0.46584 0.21471 0.12990
 C392 C 0.44887 0.23070 0.13812
 C393 C 0.44458 0.23265 0.16243
 C394 C 0.45729 0.21876 0.17847
 C395 C 0.52282 0.22857 0.17374
 C396 C 0.53591 0.24345 0.15891
 C397 C 0.55263 0.23387 0.14341
 C398 C 0.55642 0.20941 0.14300
 C399 C 0.54334 0.19453 0.15777
 C400 C 0.54241 0.17881 0.21873
 C401 C 0.55520 0.16284 0.23263
 C402 C 0.55101 0.13851 0.23069
 C403 C 0.53404 0.13021 0.21472
 C404 C 0.52126 0.14616 0.20079
 H405 H 0.45352 0.15699 0.17539
 H406 H 0.43048 0.13104 0.20156
 H407 H 0.46673 0.15954 0.26218
 H408 H 0.48964 0.18582 0.23605
 H409 H 0.49142 0.18830 0.13928
 H410 H 0.46920 0.21294 0.11112
 H411 H 0.45382 0.22049 0.19723
 H412 H 0.50996 0.23621 0.18566
 H413 H 0.53290 0.26236 0.15942
 H414 H 0.56933 0.20181 0.13109
 H415 H 0.54626 0.17562 0.15700
 H416 H 0.54582 0.19758 0.22044
 H417 H 0.56835 0.16946 0.24486
 H418 H 0.53077 0.11141 0.21296
 H419 H 0.50841 0.13945 0.18831
 H420 H 0.43142 0.24490 0.16898
 C421 C 0.48819 0.18770 0.81204
 C422 C 0.51225 0.18815 0.81247
 C423 C 0.52658 0.17324 0.79630
 C424 C 0.52543 0.20289 0.82973
 C425 C 0.47386 0.20386 0.82694
 C426 C 0.47501 0.17044 0.79730
 C427 C 0.54364 0.15786 0.80571
 C428 C 0.55652 0.14299 0.79084
 C429 C 0.55262 0.14344 0.76639
 C430 C 0.53606 0.15915 0.75680
 C431 C 0.52317 0.17408 0.77167
 C432 C 0.52134 0.20061 0.85416
 C433 C 0.53378 0.21464 0.87023
 C434 C 0.55058 0.23090 0.86208
 C435 C 0.55501 0.23296 0.83780
 C436 C 0.54257 0.21895 0.82170
 C437 C 0.47724 0.22849 0.82608
 C438 C 0.46430 0.24336 0.84098
 C439 C 0.44771 0.23377 0.85666
 C440 C 0.44385 0.20932 0.85714
 C441 C 0.45678 0.19445 0.84231
 C442 C 0.45785 0.17847 0.78126
 C443 C 0.44537 0.16237 0.76729
 C444 C 0.44979 0.13809 0.76937
 C445 C 0.46662 0.12994 0.78560
 C446 C 0.47909 0.14602 0.79959
 H447 H 0.54660 0.15701 0.82463
 H448 H 0.56932 0.13092 0.79844
 H449 H 0.53296 0.15970 0.73790
 H450 H 0.51038 0.18611 0.76403
 H451 H 0.50856 0.18797 0.86074
 H452 H 0.53032 0.21279 0.88900
 H453 H 0.54610 0.22081 0.80295
 H454 H 0.49004 0.23614 0.81407
 H455 H 0.46736 0.26227 0.84040
 H456 H 0.43103 0.20172 0.86919
 H457 H 0.45385 0.17553 0.84317
 H458 H 0.45433 0.19721 0.77939
 H459 H 0.43231 0.16885 0.75486
 H460 H 0.47006 0.11118 0.78747
 H461 H 0.49189 0.13944 0.81222
 H462 H 0.56805 0.24540 0.83131
 C463 C 0.48855 0.81304 0.18749
 C464 C 0.51261 0.81266 0.18705
 C465 C 0.52692 0.82759 0.20323
 C466 C 0.52582 0.79791 0.16982
 C467 C 0.47424 0.79682 0.17260
 C468 C 0.47533 0.83024 0.20226
 C469 C 0.54396 0.84301 0.19383
 C470 C 0.55685 0.85789 0.20872
 C471 C 0.55298 0.85740 0.23317
 C472 C 0.53642 0.84166 0.24274
 C473 C 0.52353 0.82673 0.22786
 C474 C 0.52171 0.80011 0.14539
 C475 C 0.53414 0.78605 0.12935
 C476 C 0.55097 0.76984 0.13754
 C477 C 0.55542 0.76787 0.16183
 C478 C 0.54298 0.78190 0.17789
 C479 C 0.47766 0.77220 0.17349
 C480 C 0.46472 0.75728 0.15864
 C481 C 0.44808 0.76680 0.14296
 C482 C 0.44418 0.79124 0.14245
 C483 C 0.45712 0.80617 0.15724
 C484 C 0.45820 0.82214 0.21829
 C485 C 0.44570 0.83818 0.23230
 C486 C 0.45007 0.86248 0.23027
 C487 C 0.46687 0.87070 0.21406
 C488 C 0.47936 0.85468 0.20002
 H489 H 0.54690 0.84388 0.17492
 H490 H 0.56963 0.86997 0.20113
 H491 H 0.53335 0.84108 0.26165
 H492 H 0.51076 0.81467 0.23550
 H493 H 0.50890 0.81271 0.13878
 H494 H 0.53066 0.78784 0.11058
 H495 H 0.54653 0.78010 0.19664
 H496 H 0.49049 0.76460 0.18551
 H497 H 0.46782 0.73838 0.15924
 H498 H 0.43133 0.79880 0.13041
 H499 H 0.45415 0.82507 0.15636
 H500 H 0.45472 0.80338 0.22012
 H501 H 0.43267 0.83163 0.24472
 H502 H 0.47027 0.88947 0.21223
 H503 H 0.49214 0.86131 0.18740
 H504 H 0.56848 0.75546 0.16835
 C505 C 0.81266 0.51202 0.81294
 C506 C 0.81270 0.48790 0.81270
 C507 C 0.79648 0.47383 0.82786
 C508 C 0.82957 0.47431 0.79791
 C509 C 0.82776 0.52606 0.79663
 C510 C 0.79812 0.52554 0.83010
 C511 C 0.80575 0.45661 0.84320
 C512 C 0.79085 0.44371 0.85808
 C513 C 0.76648 0.44774 0.85768
 C514 C 0.75702 0.46452 0.84208
 C515 C 0.77193 0.47744 0.82714
 C516 C 0.85403 0.47790 0.80000
 C517 C 0.86974 0.46485 0.78614
 C518 C 0.86118 0.44792 0.77025
 C519 C 0.83685 0.44404 0.76833
 C520 C 0.82113 0.45710 0.78216
 C521 C 0.82686 0.52256 0.77202
 C522 C 0.84196 0.53518 0.75702
 C523 C 0.85790 0.55159 0.76645
 C524 C 0.85843 0.55559 0.79087
 C525 C 0.84338 0.54298 0.80587
 C526 C 0.78226 0.54280 0.82193
 C527 C 0.76832 0.55544 0.83791
 C528 C 0.77026 0.55110 0.86224
 C529 C 0.78634 0.53420 0.87053
 C530 C 0.80030 0.52157 0.85457
 H531 H 0.82460 0.45349 0.84397
 H532 H 0.79835 0.43075 0.87007
 H533 H 0.73818 0.46772 0.84157
 H534 H 0.76439 0.49034 0.81514
 H535 H 0.86092 0.49073 0.81241
 H536 H 0.88854 0.46788 0.78788
 H537 H 0.80234 0.45394 0.78046
 H538 H 0.81466 0.50989 0.76450
 H539 H 0.84135 0.53201 0.73814
 H540 H 0.87066 0.56827 0.79835
 H541 H 0.84429 0.54601 0.82477
 H542 H 0.78047 0.54623 0.80315
 H543 H 0.75601 0.56854 0.83131
 H544 H 0.78809 0.53081 0.88932
 H545 H 0.81278 0.50868 0.86125
 H546 H 0.83005 0.43092 0.75616
 C547 C 0.18709 0.51141 0.18711
 C548 C 0.18721 0.48728 0.18713
 C549 C 0.20179 0.47360 0.17014
 C550 C 0.17212 0.47339 0.20358
 C551 C 0.17016 0.52512 0.20173
 C552 C 0.20331 0.52534 0.17182
 C553 C 0.19962 0.47728 0.14564
 C554 C 0.21355 0.46443 0.12982
 C555 C 0.22959 0.44760 0.13832
 C556 C 0.23153 0.44354 0.16269
 C557 C 0.21762 0.45641 0.17852
 C558 C 0.15655 0.45634 0.19450
 C559 C 0.14152 0.44384 0.20961
 C560 C 0.14202 0.44810 0.23399
 C561 C 0.15791 0.46465 0.24326
 C562 C 0.17299 0.47715 0.22815
 C563 C 0.17854 0.54251 0.21731
 C564 C 0.16277 0.55564 0.23102
 C565 C 0.13846 0.55165 0.22914
 C566 C 0.12996 0.53455 0.21341
 C567 C 0.14571 0.52142 0.19967
 C568 C 0.22786 0.52179 0.17263
 C569 C 0.24277 0.53458 0.15759
 C570 C 0.23331 0.55118 0.14179
 C571 C 0.20893 0.55514 0.14129
 C572 C 0.19402 0.54236 0.15627
 H573 H 0.18715 0.49010 0.13879
 H574 H 0.21180 0.46760 0.11099
 H575 H 0.24382 0.43050 0.16944
 H576 H 0.21940 0.45319 0.19734
 H577 H 0.15567 0.45311 0.17563
 H578 H 0.12933 0.43106 0.20225
 H579 H 0.18516 0.48992 0.23555
 H580 H 0.19731 0.54574 0.21898
 H581 H 0.16953 0.56890 0.24306
 H582 H 0.11117 0.53143 0.21170
 H583 H 0.13887 0.50845 0.18738
 H584 H 0.23541 0.50903 0.18479
 H585 H 0.26162 0.53144 0.15818
 H586 H 0.20143 0.56796 0.12916
 H587 H 0.17517 0.54543 0.15544
 H588 H 0.15850 0.46801 0.26211
 C589 C 0.81253 0.48797 0.18717
 C590 C 0.81260 0.51209 0.18740
 C591 C 0.79640 0.52617 0.17222
 C592 C 0.82951 0.52567 0.20217
 C593 C 0.82764 0.47393 0.20348
 C594 C 0.79798 0.47446 0.17002
 C595 C 0.80571 0.54338 0.15688
 C596 C 0.79083 0.55630 0.14200
 C597 C 0.76646 0.55231 0.14239
 C598 C 0.75696 0.53552 0.15797
 C599 C 0.77185 0.52259 0.17292
 C600 C 0.85396 0.52207 0.20004
 C601 C 0.86970 0.53511 0.21389
 C602 C 0.86118 0.55203 0.22979
 C603 C 0.83686 0.55592 0.23175
 C604 C 0.82110 0.54287 0.21794
 C605 C 0.82679 0.47744 0.22808
 C606 C 0.84190 0.46481 0.24307
 C607 C 0.85780 0.44839 0.23363
 C608 C 0.85829 0.44438 0.20921
 C609 C 0.84323 0.45700 0.19422
 C610 C 0.78209 0.45722 0.17820
 C611 C 0.76814 0.44458 0.16221
 C612 C 0.77010 0.44890 0.13789
 C613 C 0.78621 0.46577 0.12959
 C614 C 0.80018 0.47841 0.14555
 H615 H 0.82456 0.54648 0.15613
 H616 H 0.79836 0.56926 0.13002
 H617 H 0.73811 0.53235 0.15847
 H618 H 0.76428 0.50969 0.18492
 H619 H 0.86081 0.50925 0.18761
 H620 H 0.88849 0.53207 0.21212
 H621 H 0.80232 0.54603 0.21966
 H622 H 0.81460 0.49011 0.23562
 H623 H 0.84131 0.46799 0.26195
 H624 H 0.87050 0.43170 0.20172
 H625 H 0.84411 0.45396 0.17533
 H626 H 0.78029 0.45381 0.19697
 H627 H 0.75580 0.43149 0.16881
 H628 H 0.78797 0.46915 0.11080
 H629 H 0.81268 0.49127 0.13887
 H630 H 0.83009 0.56904 0.24393
 C631 C 0.18669 0.48838 0.81330
 C632 C 0.18683 0.51250 0.81330
 C633 C 0.20142 0.52618 0.83031
 C634 C 0.17178 0.52641 0.79683
 C635 C 0.16977 0.47467 0.79864
 C636 C 0.20291 0.47444 0.82859
 C637 C 0.19927 0.52247 0.85481
 C638 C 0.21323 0.53530 0.87064
 C639 C 0.22928 0.55214 0.86216
 C640 C 0.23120 0.55622 0.83779
 C641 C 0.21727 0.54337 0.82194
 C642 C 0.15622 0.54346 0.80589
 C643 C 0.14124 0.55598 0.79075
 C644 C 0.14177 0.55174 0.76636
 C645 C 0.15765 0.53519 0.75712
 C646 C 0.17269 0.52266 0.77226
 C647 C 0.17816 0.45727 0.78309
 C648 C 0.16240 0.44414 0.76934
 C649 C 0.13808 0.44814 0.77116
 C650 C 0.12957 0.46526 0.78686
 C651 C 0.14532 0.47838 0.80063
 C652 C 0.22746 0.47799 0.82777
 C653 C 0.24237 0.46521 0.84282
 C654 C 0.23291 0.44861 0.85862
 C655 C 0.20853 0.44464 0.85912
 C656 C 0.19362 0.45741 0.84414
 H657 H 0.18680 0.50964 0.86165
 H658 H 0.21149 0.53211 0.88946
 H659 H 0.24350 0.56927 0.83104
 H660 H 0.21903 0.54661 0.80313
 H661 H 0.15531 0.54669 0.82475
 H662 H 0.12905 0.56878 0.79808
 H663 H 0.18485 0.50988 0.76488
 H664 H 0.19693 0.45402 0.78146
 H665 H 0.16916 0.43087 0.75732
 H666 H 0.11078 0.46839 0.78852
 H667 H 0.13846 0.49136 0.81290
 H668 H 0.23500 0.49074 0.81561
 H669 H 0.26123 0.46835 0.84222
 H670 H 0.20103 0.43182 0.87126
 H671 H 0.17477 0.45434 0.84497
 H672 H 0.15828 0.53183 0.73827
 C673 C 0.30715 0.37701 0.04688
 C674 C 0.29568 0.38764 0.06133
 C675 C 0.28200 0.40016 0.07799
 C676 C 0.27014 0.41092 0.09202
 C677 C 0.25611 0.42360 0.10826
 C678 C 0.24404 0.43449 0.12201
 C679 C 0.69050 0.62258 0.04920
 C680 C 0.70123 0.61193 0.06424
 C681 C 0.71414 0.59937 0.08154
 C682 C 0.72549 0.58860 0.09602
 C683 C 0.73923 0.57595 0.11260
 C684 C 0.75139 0.56516 0.12639
 C685 C 0.69032 0.37764 0.95084
 C686 C 0.70109 0.38827 0.93581
 C687 C 0.71403 0.40081 0.91852
 C688 C 0.72542 0.41155 0.90404
 C689 C 0.73920 0.42416 0.88747
 C690 C 0.75138 0.43492 0.87367
 C691 C 0.30706 0.62277 0.95349
 C692 C 0.29555 0.61211 0.93907
 C693 C 0.28182 0.59957 0.92245
 C694 C 0.26993 0.58880 0.90844
 C695 C 0.25586 0.57612 0.89222
 C696 C 0.24376 0.56523 0.87847
 C697 C 0.04814 0.31105 0.38073
 C698 C 0.06295 0.29999 0.39135
 C699 C 0.08013 0.28671 0.40368
 C700 C 0.09459 0.27508 0.41414
 C701 C 0.11126 0.26106 0.42636
 C702 C 0.12519 0.24874 0.43677
 C703 C 0.04829 0.68862 0.61911
 C704 C 0.06312 0.69966 0.60849
 C705 C 0.08032 0.71290 0.59616
 C706 C 0.09481 0.72453 0.58571
 C707 C 0.11150 0.73853 0.57351
 C708 C 0.12545 0.75085 0.56311
 C709 C 0.95251 0.69522 0.37515
 C710 C 0.93826 0.70641 0.38632
 C711 C 0.92185 0.71974 0.39952
 C712 C 0.90801 0.73126 0.41086
 C713 C 0.89196 0.74488 0.42419
 C714 C 0.87833 0.75660 0.43558
 C715 C 0.95224 0.30460 0.62470
 C716 C 0.93801 0.29340 0.61349
 C717 C 0.92162 0.28008 0.60025
 C718 C 0.90779 0.26855 0.58887
 C719 C 0.89176 0.25491 0.57550
 C720 C 0.87814 0.24318 0.56408
 C721 C 0.37684 0.05040 0.30987
 C722 C 0.38743 0.06544 0.29907
 C723 C 0.39993 0.08273 0.28609
 C724 C 0.41068 0.09718 0.27468
 C725 C 0.42332 0.11373 0.26089
 C726 C 0.43414 0.12749 0.24871
 C727 C 0.62195 0.05005 0.69026
 C728 C 0.61122 0.06499 0.70098
 C729 C 0.59875 0.08226 0.71392
 C730 C 0.58817 0.09677 0.72533
 C731 C 0.57580 0.11343 0.73914
 C732 C 0.56525 0.12733 0.75133
 C733 C 0.37682 0.94969 0.69028
 C734 C 0.38740 0.93466 0.70109
 C735 C 0.39989 0.91736 0.71409
 C736 C 0.41061 0.90290 0.72551
 C737 C 0.42322 0.88634 0.73931
 C738 C 0.43401 0.87256 0.75149
 C739 C 0.62251 0.95049 0.30961
 C740 C 0.61175 0.93562 0.29882
 C741 C 0.59924 0.91841 0.28580
 C742 C 0.58862 0.90396 0.27433
 C743 C 0.57622 0.88734 0.26047
 C744 C 0.56563 0.87349 0.24825
 C745 C 0.37790 0.30989 0.94969
 C746 C 0.38868 0.29916 0.93480
 C747 C 0.40123 0.28621 0.91759
 C748 C 0.41190 0.27481 0.90313
 C749 C 0.42436 0.26101 0.88654
 C750 C 0.43499 0.24882 0.87270
 C751 C 0.62337 0.69007 0.94937
 C752 C 0.61273 0.70088 0.93438
 C753 C 0.60014 0.71387 0.91716
 C754 C 0.58931 0.72528 0.90277
 C755 C 0.57657 0.73907 0.88630
 C756 C 0.56566 0.75125 0.87261
 C757 C 0.37804 0.69023 0.05037
 C758 C 0.38887 0.70103 0.06519
 C759 C 0.40146 0.71407 0.08231
 C760 C 0.41217 0.72555 0.09670
 C761 C 0.42468 0.73943 0.11321
 C762 C 0.43534 0.75168 0.12698
 C763 C 0.62309 0.31014 0.05058
 C764 C 0.61246 0.29933 0.06558
 C765 C 0.59991 0.28634 0.08283
 C766 C 0.58913 0.27492 0.09726
 C767 C 0.57645 0.26112 0.11376
 C768 C 0.56560 0.24894 0.12750
 C769 C 0.30964 0.04952 0.62287
 C770 C 0.29884 0.06455 0.61227
 C771 C 0.28585 0.08183 0.59978
 C772 C 0.27440 0.09629 0.58908
 C773 C 0.26056 0.11284 0.57653
 C774 C 0.24831 0.12662 0.56581
 C775 C 0.69263 0.04661 0.37629
 C776 C 0.70412 0.06106 0.38692
 C777 C 0.71786 0.07772 0.39942
 C778 C 0.72978 0.09174 0.41014
 C779 C 0.74389 0.10799 0.42276
 C780 C 0.75603 0.12174 0.43360
 C781 C 0.69265 0.95273 0.62329
 C782 C 0.70416 0.93828 0.61270
 C783 C 0.71791 0.92163 0.60024
 C784 C 0.72984 0.90761 0.58954
 C785 C 0.74397 0.89139 0.57694
 C786 C 0.75612 0.87766 0.56611
 C787 C 0.30981 0.95036 0.37717
 C788 C 0.29905 0.93531 0.38777
 C789 C 0.28609 0.91800 0.40027
 C790 C 0.27468 0.90352 0.41098
 C791 C 0.26086 0.88695 0.42355
 C792 C 0.24863 0.87315 0.43427
 C793 C 0.04767 0.37445 0.69525
 C794 C 0.06192 0.38554 0.70653
 C795 C 0.07834 0.39866 0.71995
 C796 C 0.09218 0.40995 0.73155
 C797 C 0.10823 0.42322 0.74525
 C798 C 0.12186 0.43458 0.75703
 C799 C 0.04793 0.62531 0.30480
 C800 C 0.06220 0.61422 0.29355
 C801 C 0.07864 0.60111 0.28018
 C802 C 0.09250 0.58983 0.26863
 C803 C 0.10858 0.57657 0.25497
 C804 C 0.12222 0.56521 0.24322
 C805 C 0.95128 0.38029 0.31122
 C806 C 0.93644 0.39084 0.30014
 C807 C 0.91922 0.40309 0.28684
 C808 C 0.90472 0.41350 0.27519
 C809 C 0.88801 0.42564 0.26116
 C810 C 0.87405 0.43600 0.24883
 C811 C 0.95134 0.61959 0.68872
 C812 C 0.93650 0.60907 0.69982
 C813 C 0.91928 0.59684 0.71315
 C814 C 0.90479 0.58645 0.72483
 C815 C 0.88809 0.57433 0.73888
 C816 C 0.87414 0.56398 0.75124
 C817 C 0.69240 0.62171 0.95341
 C818 C 0.70391 0.61080 0.93921
 C819 C 0.71766 0.59811 0.92272
 C820 C 0.72956 0.58732 0.90876
 C821 C 0.74366 0.57473 0.89250
 C822 C 0.75577 0.56397 0.87868
 C823 C 0.30943 0.37805 0.95114
 C824 C 0.29858 0.38898 0.93638
 C825 C 0.28555 0.40172 0.91932
 C826 C 0.27409 0.41255 0.90496
 C827 C 0.26025 0.42517 0.88845
 C828 C 0.24803 0.43589 0.87466
 C829 C 0.30963 0.62188 0.04922
 C830 C 0.29883 0.61093 0.06400
 C831 C 0.28584 0.59817 0.08109
 C832 C 0.27443 0.58731 0.09545
 C833 C 0.26062 0.57466 0.11197
 C834 C 0.24842 0.56392 0.12576
 C835 C 0.69220 0.37839 0.04663
 C836 C 0.70372 0.38928 0.06086
 C837 C 0.71747 0.40194 0.07736
 C838 C 0.72938 0.41270 0.09135
 C839 C 0.74348 0.42528 0.10761
 C840 C 0.75560 0.43603 0.12144
 C841 C 0.95209 0.68796 0.62017
 C842 C 0.93717 0.69900 0.60968
 C843 C 0.91989 0.71227 0.59753
 C844 C 0.90534 0.72394 0.58722
 C845 C 0.88860 0.73802 0.57521
 C846 C 0.87462 0.75044 0.56497
 C847 C 0.95196 0.31171 0.37955
 C848 C 0.93704 0.30065 0.39000
 C849 C 0.91975 0.28733 0.40211
 C850 C 0.90520 0.27564 0.41239
 C851 C 0.88846 0.26153 0.42438
 C852 C 0.87449 0.24911 0.43461
 C853 C 0.04718 0.30538 0.62606
 C854 C 0.06157 0.29420 0.61507
 C855 C 0.07813 0.28088 0.60206
 C856 C 0.09207 0.26934 0.59087
 C857 C 0.10820 0.25566 0.57769
 C858 C 0.12187 0.24388 0.56641
 C859 C 0.04748 0.69438 0.37389
 C860 C 0.06189 0.70554 0.38488
 C861 C 0.07847 0.71884 0.39788
 C862 C 0.09243 0.73037 0.40907
 C863 C 0.10858 0.74403 0.42224
 C864 C 0.12226 0.75581 0.43353
 C865 C 0.62256 0.95330 0.69283
 C866 C 0.61169 0.93896 0.70428
 C867 C 0.59885 0.92239 0.71787
 C868 C 0.58784 0.90839 0.72960
 C869 C 0.57491 0.89211 0.74345
 C870 C 0.56387 0.87828 0.75535
 C871 C 0.37908 0.95372 0.30769
 C872 C 0.39011 0.93954 0.29627
 C873 C 0.40292 0.92307 0.28262
 C874 C 0.41379 0.90910 0.27080
 C875 C 0.42645 0.89283 0.25679
 C876 C 0.43723 0.87898 0.24473
 C877 C 0.62320 0.04719 0.30738
 C878 C 0.61230 0.06153 0.29596
 C879 C 0.59942 0.07808 0.28239
 C880 C 0.58835 0.09205 0.27068
 C881 C 0.57536 0.10829 0.25684
 C882 C 0.56425 0.12208 0.24495
 C883 C 0.37893 0.04642 0.69230
 C884 C 0.38993 0.06067 0.70367
 C885 C 0.40272 0.07722 0.71725
 C886 C 0.41357 0.09125 0.72902
 C887 C 0.42620 0.10761 0.74297
 C888 C 0.43696 0.12152 0.75497
 C889 C 0.62141 0.69218 0.04606
 C890 C 0.61045 0.70363 0.06028
 C891 C 0.59774 0.71731 0.07680
 C892 C 0.58696 0.72917 0.09081
 C893 C 0.57441 0.74324 0.10713
 C894 C 0.56372 0.75534 0.12101
 C895 C 0.37725 0.30753 0.04644
 C896 C 0.38810 0.29610 0.06081
 C897 C 0.40090 0.28251 0.07742
 C898 C 0.41187 0.27078 0.09145
 C899 C 0.42475 0.25691 0.10775
 C900 C 0.43575 0.24499 0.12161
 C901 C 0.62109 0.30819 0.95384
 C902 C 0.61013 0.29681 0.93957
 C903 C 0.59740 0.28320 0.92300
 C904 C 0.58661 0.27140 0.90894
 C905 C 0.57404 0.25741 0.89257
 C906 C 0.56334 0.24536 0.87865
 C907 C 0.37712 0.69238 0.95367
 C908 C 0.38795 0.70381 0.93928
 C909 C 0.40074 0.71740 0.92267
 C910 C 0.41170 0.72914 0.90864
 C911 C 0.42459 0.74301 0.89234
 C912 C 0.43559 0.75494 0.87850
 C913 C 0.69151 0.95086 0.37865
 C914 C 0.70230 0.93609 0.38960
 C915 C 0.71525 0.91900 0.40239
 C916 C 0.72662 0.90462 0.41327
 C917 C 0.74035 0.88808 0.42596
 C918 C 0.75249 0.87426 0.43674
 C919 C 0.30705 0.95283 0.62131
 C920 C 0.29553 0.93864 0.61040
 C921 C 0.28180 0.92215 0.59769
 C922 C 0.26992 0.90819 0.58687
 C923 C 0.25587 0.89194 0.57422
 C924 C 0.24380 0.87812 0.56341
 C925 C 0.30705 0.04703 0.37885
 C926 C 0.29550 0.06119 0.38977
 C927 C 0.28173 0.07763 0.40249
 C928 C 0.26981 0.09156 0.41330
 C929 C 0.25571 0.10778 0.42594
 C930 C 0.24361 0.12156 0.43674
 C931 C 0.69095 0.04938 0.62128
 C932 C 0.70177 0.06410 0.61029
 C933 C 0.71477 0.08113 0.59745
 C934 C 0.72618 0.09545 0.58654
 C935 C 0.73997 0.11192 0.57382
 C936 C 0.75215 0.12568 0.56301
 C937 C 0.95201 0.62544 0.30531
 C938 C 0.93764 0.61438 0.29418
 C939 C 0.92110 0.60130 0.28089
 C940 C 0.90718 0.59006 0.26937
 C941 C 0.89106 0.57684 0.25572
 C942 C 0.87740 0.56553 0.24394
 C943 C 0.95179 0.37438 0.69463
 C944 C 0.93745 0.38546 0.70579
 C945 C 0.92095 0.39856 0.71909
 C946 C 0.90707 0.40983 0.73062
 C947 C 0.89099 0.42307 0.74430
 C948 C 0.87737 0.43440 0.75609
 C949 C 0.04847 0.61953 0.68839
 C950 C 0.06333 0.60900 0.69945
 C951 C 0.08055 0.59678 0.71276
 C952 C 0.09503 0.58642 0.72446
 C953 C 0.11170 0.57434 0.73858
 C954 C 0.12561 0.56404 0.75102
 C955 C 0.04844 0.38033 0.31166
 C956 C 0.06334 0.39088 0.30066
 C957 C 0.08061 0.40311 0.28742
 C958 C 0.09514 0.41347 0.27577
 C959 C 0.11185 0.42554 0.26170
 C960 C 0.12581 0.43582 0.24930
   
