data_POSCAR
  _audit_creation_date              2014-09-24
  _audit_creation_method            'ToBaCCo'
  _symmetry_space_group_name_H-M    'P1'
  _symmetry_Int_Tables_number       1
  _symmetry_cell_setting            triclinic
  loop_
  _symmetry_equiv_pos_as_xyz
 x,y,z
_cell_length_a 53.7562
_cell_length_b 53.8796
_cell_length_c 54.0362
_cell_angle_alpha 89.998000
_cell_angle_beta 89.995900
_cell_angle_gamma 90.005400
loop_
  _atom_site_label
  _atom_site_type_symbol
  _atom_site_fract_x
  _atom_site_fract_y
  _atom_site_fract_z
N1 N 0.28994 0.24011 0.22075
 N2 N 0.27998 0.26030 0.21130
 C3 C 0.29322 0.26726 0.19128
 C4 C 0.31235 0.25052 0.18820
 C5 C 0.30984 0.23353 0.20709
 H6 H 0.28926 0.28318 0.17974
 H7 H 0.32154 0.21758 0.21058
 Cu8 Cu 0.25044 0.27504 0.22600
 Cu9 Cu 0.27636 0.22377 0.24998
 Cu10 Cu 0.22360 0.25009 0.27621
 N11 N 0.22088 0.28977 0.24068
 N12 N 0.21039 0.27977 0.26030
 C13 C 0.19023 0.29319 0.26659
 C14 C 0.18809 0.31251 0.25002
 C15 C 0.20771 0.30992 0.23381
 H16 H 0.17802 0.28918 0.28199
 H17 H 0.21195 0.32177 0.21822
 N18 N 0.23978 0.22009 0.28957
 N19 N 0.25986 0.21007 0.27958
 C20 C 0.26647 0.19001 0.29294
 C21 C 0.24977 0.18742 0.31209
 C22 C 0.23311 0.20665 0.30953
 H23 H 0.28227 0.17818 0.28914
 H24 H 0.21740 0.21055 0.32140
 H25 H 0.24006 0.23530 0.24494
 H26 H 0.26009 0.25492 0.26523
 N27 N 0.70985 -0.24021 0.22007
 N28 N 0.72009 -0.26013 0.21032
 C29 C 0.70684 -0.26707 0.19029
 C30 C 0.68745 -0.25056 0.18753
 C31 C 0.68978 -0.23376 0.20660
 H32 H 0.71093 -0.28283 0.17859
 H33 H 0.67786 -0.21803 0.21037
 Cu34 Cu 0.74982 -0.27482 0.22474
 Cu35 Cu 0.72331 -0.22408 0.24945
 Cu36 Cu 0.77602 -0.25035 0.27566
 N37 N 0.77923 -0.28960 0.23972
 N38 N 0.78942 -0.27986 0.25963
 C39 C 0.80944 -0.29340 0.26611
 C40 C 0.81177 -0.31254 0.24936
 C41 C 0.79243 -0.30973 0.23285
 H42 H 0.82140 -0.28958 0.28175
 H43 H 0.78838 -0.32144 0.21710
 N44 N 0.75973 -0.22049 0.28916
 N45 N 0.73965 -0.21048 0.27918
 C46 C 0.73299 -0.19045 0.29259
 C47 C 0.74967 -0.18788 0.31176
 C48 C 0.76635 -0.20709 0.30917
 H49 H 0.71721 -0.17862 0.28877
 H50 H 0.78208 -0.21098 0.32102
 H51 H 0.75971 -0.23532 0.24447
 H52 H 0.73967 -0.25547 0.26427
 N53 N 0.71065 0.24024 0.77928
 N54 N 0.72086 0.26018 0.78902
 C55 C 0.70764 0.26705 0.80908
 C56 C 0.68826 0.25053 0.81188
 C57 C 0.69061 0.23376 0.79277
 H58 H 0.71173 0.28282 0.82076
 H59 H 0.67867 0.21804 0.78902
 Cu60 Cu 0.75045 0.27511 0.77450
 Cu61 Cu 0.72407 0.22417 0.74988
 Cu62 Cu 0.77677 0.25044 0.72368
 N63 N 0.78005 0.28968 0.75962
 N64 N 0.79026 0.27992 0.73973
 C65 C 0.81031 0.29345 0.73327
 C66 C 0.81266 0.31258 0.75004
 C67 C 0.79329 0.30978 0.76652
 H68 H 0.82226 0.28966 0.71761
 H69 H 0.78917 0.32148 0.78226
 N70 N 0.76043 0.22061 0.71012
 N71 N 0.74036 0.21061 0.72011
 C72 C 0.73368 0.19058 0.70672
 C73 C 0.75034 0.18799 0.68754
 C74 C 0.76704 0.20720 0.69011
 H75 H 0.71791 0.17873 0.71057
 H76 H 0.78279 0.21105 0.67826
 H77 H 0.76040 0.23550 0.75490
 H78 H 0.74038 0.25550 0.73499
 N79 N 0.28991 -0.24049 0.77966
 N80 N 0.27996 -0.26070 0.78911
 C81 C 0.29321 -0.26763 0.80914
 C82 C 0.31232 -0.25085 0.81223
 C83 C 0.30979 -0.23388 0.79332
 H84 H 0.28926 -0.28355 0.82068
 H85 H 0.32150 -0.21794 0.78981
 Cu86 Cu 0.25043 -0.27548 0.77435
 Cu87 Cu 0.27635 -0.22418 0.75040
 Cu88 Cu 0.22361 -0.25052 0.72413
 N89 N 0.22086 -0.29025 0.75965
 N90 N 0.21038 -0.28024 0.74003
 C91 C 0.19020 -0.29364 0.73371
 C92 C 0.18806 -0.31297 0.75027
 C93 C 0.20768 -0.31041 0.76651
 H94 H 0.17801 -0.28960 0.71830
 H95 H 0.21190 -0.32224 0.78213
 N96 N 0.23980 -0.22049 0.71078
 N97 N 0.25987 -0.21047 0.72077
 C98 C 0.26650 -0.19040 0.70742
 C99 C 0.24982 -0.18781 0.68825
 C100 C 0.23315 -0.20704 0.69081
 H101 H 0.28230 -0.17858 0.71123
 H102 H 0.21745 -0.21094 0.67893
 H103 H 0.24006 -0.23573 0.75541
 H104 H 0.26010 -0.25532 0.73512
 N105 N 0.71068 -0.24009 0.77960
 N106 N 0.72093 -0.26000 0.78936
 C107 C 0.70779 -0.26683 0.80948
 C108 C 0.68843 -0.25031 0.81231
 C109 C 0.69069 -0.23359 0.79315
 H110 H 0.71192 -0.28257 0.82121
 H111 H 0.67872 -0.21791 0.78938
 Cu112 Cu 0.75032 -0.27498 0.77459
 Cu113 Cu 0.72399 -0.22406 0.75012
 Cu114 Cu 0.77666 -0.25035 0.72385
 N115 N 0.77999 -0.28950 0.75989
 N116 N 0.79015 -0.27977 0.73996
 C117 C 0.81021 -0.29327 0.73351
 C118 C 0.81261 -0.31232 0.75034
 C119 C 0.79327 -0.30954 0.76684
 H120 H 0.82211 -0.28951 0.71780
 H121 H 0.78924 -0.32122 0.78262
 N122 N 0.76027 -0.22059 0.71028
 N123 N 0.74021 -0.21058 0.72029
 C124 C 0.73352 -0.19057 0.70688
 C125 C 0.75015 -0.18802 0.68767
 C126 C 0.76686 -0.20722 0.69025
 H127 H 0.71776 -0.17872 0.71075
 H128 H 0.78260 -0.21109 0.67841
 H129 H 0.74030 -0.25539 0.73516
 H130 H 0.76038 -0.23543 0.75513
 N131 N 0.28958 0.23970 0.77964
 N132 N 0.27907 0.25935 0.78964
 C133 C 0.29221 0.26621 0.80975
 C134 C 0.31183 0.24996 0.81232
 C135 C 0.30973 0.23337 0.79303
 H136 H 0.28795 0.28182 0.82159
 H137 H 0.32195 0.21794 0.78903
 Cu138 Cu 0.24955 0.27409 0.77494
 Cu139 Cu 0.27643 0.22377 0.75002
 Cu140 Cu 0.22369 0.25010 0.72379
 N141 N 0.22004 0.28884 0.76025
 N142 N 0.21010 0.27938 0.74009
 C143 C 0.19021 0.29306 0.73353
 C144 C 0.18767 0.31198 0.75049
 C145 C 0.20678 0.30889 0.76721
 H146 H 0.17851 0.28957 0.71762
 H147 H 0.21070 0.32044 0.78310
 N148 N 0.24021 0.22045 0.71011
 N149 N 0.26028 0.21043 0.72009
 C150 C 0.26697 0.19045 0.70666
 C151 C 0.25033 0.18792 0.68747
 C152 C 0.23362 0.20710 0.69007
 H153 H 0.28270 0.17855 0.71053
 H154 H 0.21783 0.21093 0.67827
 H155 H 0.26001 0.25514 0.73533
 H156 H 0.23997 0.23474 0.75485
 N157 N 0.28986 -0.23961 0.22045
 N158 N 0.27935 -0.25925 0.21044
 C159 C 0.29250 -0.26611 0.19033
 C160 C 0.31214 -0.24988 0.18779
 C161 C 0.31003 -0.23330 0.20708
 H162 H 0.28824 -0.28172 0.17849
 H163 H 0.32226 -0.21788 0.21110
 Cu164 Cu 0.24980 -0.27397 0.22509
 Cu165 Cu 0.27667 -0.22369 0.25006
 Cu166 Cu 0.22387 -0.24997 0.27622
 N167 N 0.22027 -0.28869 0.23975
 N168 N 0.21031 -0.27923 0.25989
 C169 C 0.19039 -0.29288 0.26642
 C170 C 0.18786 -0.31178 0.24946
 C171 C 0.20699 -0.30872 0.23277
 H172 H 0.17866 -0.28936 0.28230
 H173 H 0.21093 -0.32027 0.21687
 N174 N 0.24038 -0.22035 0.28991
 N175 N 0.26048 -0.21034 0.27997
 C176 C 0.26716 -0.19036 0.29342
 C177 C 0.25047 -0.18784 0.31258
 C178 C 0.23375 -0.20700 0.30994
 H179 H 0.28291 -0.17848 0.28960
 H180 H 0.21794 -0.21083 0.32171
 H181 H 0.26017 -0.25506 0.26474
 H182 H 0.24018 -0.23465 0.24519
 N183 N 0.71001 0.23965 0.22051
 N184 N 0.72024 0.25958 0.21077
 C185 C 0.70708 0.26645 0.19069
 C186 C 0.68773 0.24992 0.18786
 C187 C 0.69002 0.23316 0.20697
 H188 H 0.71118 0.28222 0.17901
 H189 H 0.67804 0.21748 0.21073
 Cu190 Cu 0.74959 0.27460 0.22550
 Cu191 Cu 0.72335 0.22360 0.24994
 Cu192 Cu 0.77605 0.24988 0.27614
 N193 N 0.77930 0.28901 0.24013
 N194 N 0.78950 0.27927 0.26002
 C195 C 0.80956 0.29277 0.26643
 C196 C 0.81193 0.31185 0.24965
 C197 C 0.79255 0.30907 0.23320
 H198 H 0.82150 0.28904 0.28211
 H199 H 0.78847 0.32078 0.21747
 N200 N 0.75969 0.22012 0.28970
 N201 N 0.73962 0.21010 0.27972
 C202 C 0.73297 0.19007 0.29311
 C203 C 0.74964 0.18752 0.31227
 C204 C 0.76633 0.20673 0.30970
 H205 H 0.71722 0.17820 0.28927
 H206 H 0.78209 0.21060 0.32151
 H207 H 0.73966 0.25493 0.26491
 H208 H 0.75971 0.23502 0.24487
 C209 C 0.24999 0.07805 0.51286
 C210 C 0.24998 0.07807 0.48745
 C211 C 0.25000 0.05342 0.48002
 N212 N 0.25002 0.03851 0.50014
 C213 C 0.25002 0.05339 0.52027
 C214 C 0.25001 0.04535 0.45504
 C215 C 0.25001 0.02021 0.44712
 C216 C 0.25004 0.01265 0.42255
 C217 C 0.25005 -0.01288 0.42257
 C218 C 0.25002 -0.02042 0.44715
 N219 N 0.24998 -0.00010 0.46182
 C220 C 0.25003 -0.04555 0.45510
 C221 C 0.25006 -0.05364 0.48008
 C222 C 0.25008 -0.07830 0.48749
 C223 C 0.25013 -0.07832 0.51290
 C224 C 0.25013 -0.05368 0.52033
 N225 N 0.25009 -0.03877 0.50022
 C226 C 0.25017 -0.04562 0.54533
 C227 C 0.25014 -0.02047 0.55324
 C228 C 0.25014 -0.01291 0.57780
 C229 C 0.25010 0.01263 0.57778
 C230 C 0.25008 0.02016 0.55320
 N231 N 0.25011 -0.00016 0.53853
 C232 C 0.25004 0.04530 0.54525
 H233 H 0.24997 0.09438 0.52452
 H234 H 0.24995 0.09441 0.47581
 H235 H 0.25013 -0.00015 0.51957
 H236 H 0.25005 0.02429 0.40623
 H237 H 0.25006 -0.02454 0.40626
 H238 H 0.25007 -0.09463 0.47583
 H239 H 0.25015 -0.09467 0.52454
 H240 H 0.25009 0.02429 0.59408
 H241 H 0.24992 -0.00011 0.48078
 H242 H 0.25016 -0.02454 0.59412
 C243 C 0.74985 0.07795 0.48724
 C244 C 0.74986 0.07796 0.51265
 C245 C 0.74984 0.05332 0.52009
 N246 N 0.74982 0.03841 0.49997
 C247 C 0.74983 0.05329 0.47984
 C248 C 0.74985 0.04526 0.54508
 C249 C 0.74984 0.02010 0.55299
 C250 C 0.74986 0.01253 0.57755
 C251 C 0.74985 -0.01301 0.57753
 C252 C 0.74983 -0.02055 0.55295
 N253 N 0.74982 -0.00021 0.53828
 C254 C 0.74980 -0.04568 0.54500
 C255 C 0.74977 -0.05377 0.52000
 C256 C 0.74975 -0.07843 0.51259
 C257 C 0.74972 -0.07844 0.48718
 C258 C 0.74972 -0.05379 0.47975
 N259 N 0.74975 -0.03888 0.49987
 C260 C 0.74969 -0.04572 0.45475
 C261 C 0.74972 -0.02057 0.44685
 C262 C 0.74971 -0.01300 0.42228
 C263 C 0.74974 0.01254 0.42231
 C264 C 0.74977 0.02007 0.44689
 N265 N 0.74976 -0.00026 0.46156
 C266 C 0.74982 0.04520 0.45485
 H267 H 0.74985 0.09428 0.47558
 H268 H 0.74987 0.09431 0.52429
 H269 H 0.74978 -0.00026 0.48051
 H270 H 0.74989 0.02417 0.59388
 H271 H 0.74986 -0.02467 0.59383
 H272 H 0.74975 -0.09476 0.52424
 H273 H 0.74969 -0.09478 0.47554
 H274 H 0.74974 0.02420 0.40600
 H275 H 0.74980 -0.00022 0.51932
 H276 H 0.74967 -0.02463 0.40596
 C277 C 0.51278 0.25055 0.07779
 C278 C 0.48724 0.25049 0.07780
 C279 C 0.47978 0.25049 0.05322
 N280 N 0.50000 0.25054 0.03836
 C281 C 0.52023 0.25057 0.05320
 C282 C 0.45466 0.25047 0.04517
 C283 C 0.44671 0.25048 0.02011
 C284 C 0.42202 0.25056 0.01256
 C285 C 0.42205 0.25058 -0.01290
 C286 C 0.44675 0.25052 -0.02041
 N287 N 0.46150 0.25042 -0.00014
 C288 C 0.45476 0.25055 -0.04547
 C289 C 0.47987 0.25053 -0.05353
 C290 C 0.48732 0.25051 -0.07811
 C291 C 0.51286 0.25052 -0.07813
 C292 C 0.52033 0.25054 -0.05355
 N293 N 0.50010 0.25054 -0.03869
 C294 C 0.54545 0.25055 -0.04551
 C295 C 0.55340 0.25056 -0.02043
 C296 C 0.57809 0.25051 -0.01289
 C297 C 0.57806 0.25054 0.01258
 C298 C 0.55335 0.25059 0.02008
 N299 N 0.53861 0.25062 -0.00018
 C300 C 0.54534 0.25061 0.04514
 H301 H 0.52449 0.25056 0.09408
 H302 H 0.47553 0.25047 0.09410
 H303 H 0.51955 0.25073 -0.00018
 H304 H 0.40561 0.25060 0.02416
 H305 H 0.40566 0.25065 -0.02453
 H306 H 0.47561 0.25050 -0.09440
 H307 H 0.52457 0.25051 -0.09442
 H308 H 0.59445 0.25051 0.02421
 H309 H 0.48055 0.25024 -0.00015
 H310 H 0.59450 0.25048 -0.02449
 C311 C 0.48774 0.74945 0.07827
 C312 C 0.51328 0.74950 0.07828
 C313 C 0.52075 0.74952 0.05370
 N314 N 0.50053 0.74949 0.03884
 C315 C 0.48029 0.74944 0.05368
 C316 C 0.54588 0.74953 0.04566
 C317 C 0.55383 0.74954 0.02058
 C318 C 0.57852 0.74941 0.01303
 C319 C 0.57849 0.74941 -0.01244
 C320 C 0.55379 0.74954 -0.01995
 N321 N 0.53904 0.74965 0.00033
 C322 C 0.54579 0.74954 -0.04501
 C323 C 0.52066 0.74956 -0.05306
 C324 C 0.51320 0.74957 -0.07765
 C325 C 0.48767 0.74956 -0.07766
 C326 C 0.48020 0.74955 -0.05308
 N327 N 0.50042 0.74955 -0.03822
 C328 C 0.45507 0.74953 -0.04503
 C329 C 0.44713 0.74953 -0.01995
 C330 C 0.42244 0.74961 -0.01240
 C331 C 0.42247 0.74957 0.01307
 C332 C 0.44717 0.74947 0.02057
 N333 N 0.46192 0.74943 0.00029
 C334 C 0.45517 0.74941 0.04563
 H335 H 0.47603 0.74943 0.09456
 H336 H 0.52498 0.74951 0.09458
 H337 H 0.48097 0.74922 0.00030
 H338 H 0.59492 0.74932 0.02464
 H339 H 0.59488 0.74933 -0.02407
 H340 H 0.52492 0.74957 -0.09393
 H341 H 0.47596 0.74955 -0.09395
 H342 H 0.40608 0.74961 0.02470
 H343 H 0.51999 0.74992 0.00033
 H344 H 0.40602 0.74968 -0.02400
 C345 C 0.07780 0.51317 0.24944
 C346 C 0.07782 0.48769 0.24942
 C347 C 0.05311 0.48024 0.24940
 N348 N 0.03817 0.50041 0.24942
 C349 C 0.05308 0.52059 0.24944
 C350 C 0.04503 0.45518 0.24937
 C351 C 0.01984 0.44725 0.24939
 C352 C 0.01225 0.42262 0.24945
 C353 C -0.01335 0.42265 0.24943
 C354 C -0.02089 0.44731 0.24936
 N355 N -0.00051 0.46201 0.24933
 C356 C -0.04607 0.45530 0.24932
 C357 C -0.05418 0.48035 0.24928
 C358 C -0.07890 0.48777 0.24923
 C359 C -0.07893 0.51324 0.24921
 C360 C -0.05422 0.52071 0.24925
 N361 N -0.03928 0.50054 0.24929
 C362 C -0.04614 0.54577 0.24924
 C363 C -0.02094 0.55370 0.24929
 C364 C -0.01334 0.57833 0.24926
 C365 C 0.01226 0.57830 0.24932
 C366 C 0.01979 0.55364 0.24938
 N367 N -0.00059 0.53894 0.24938
 C368 C 0.04497 0.54565 0.24942
 H369 H 0.09417 0.52486 0.24946
 H370 H 0.09420 0.47602 0.24942
 H371 H -0.00058 0.51993 0.24946
 H372 H 0.02391 0.40624 0.24949
 H373 H -0.02504 0.40630 0.24946
 H374 H -0.09527 0.47606 0.24922
 H375 H -0.09531 0.52492 0.24917
 H376 H 0.02395 0.59465 0.24932
 H377 H -0.00053 0.48102 0.24922
 H378 H -0.02500 0.59471 0.24920
 C379 C 0.07811 0.48771 0.75050
 C380 C 0.07813 0.51319 0.75056
 C381 C 0.05343 0.52066 0.75057
 N382 N 0.03848 0.50048 0.75051
 C383 C 0.05339 0.48029 0.75048
 C384 C 0.04536 0.54573 0.75063
 C385 C 0.02015 0.55365 0.75060
 C386 C 0.01256 0.57828 0.75056
 C387 C -0.01304 0.57825 0.75055
 C388 C -0.02059 0.55360 0.75058
 N389 N -0.00021 0.53889 0.75062
 C390 C -0.04579 0.54561 0.75057
 C391 C -0.05390 0.52054 0.75056
 C392 C -0.07862 0.51311 0.75055
 C393 C -0.07864 0.48763 0.75053
 C394 C -0.05394 0.48017 0.75053
 N395 N -0.03899 0.50035 0.75055
 C396 C -0.04586 0.45509 0.75051
 C397 C -0.02065 0.44717 0.75048
 C398 C -0.01305 0.42255 0.75052
 C399 C 0.01255 0.42258 0.75049
 C400 C 0.02009 0.44723 0.75045
 N401 N -0.00029 0.46194 0.75042
 C402 C 0.04528 0.45522 0.75045
 H403 H 0.09447 0.47602 0.75049
 H404 H 0.09452 0.52486 0.75059
 H405 H -0.00029 0.48095 0.75030
 H406 H 0.02422 0.59466 0.75055
 H407 H -0.02474 0.59460 0.75053
 H408 H -0.09499 0.52480 0.75056
 H409 H -0.09502 0.47595 0.75053
 H410 H 0.02424 0.40623 0.75051
 H411 H -0.00022 0.51988 0.75071
 H412 H -0.02471 0.40617 0.75056
 C413 C 0.36531 0.25061 0.13419
 N414 N 0.37632 0.22907 0.12720
 N415 N 0.39378 0.22904 0.10968
 C416 C 0.40075 0.25055 0.09863
 N417 N 0.38973 0.27208 0.10562
 N418 N 0.37228 0.27211 0.12314
 C419 C 0.34662 0.25064 0.15316
 C420 C 0.33096 0.25062 0.16913
 C421 C 0.41962 0.25052 0.07986
 C422 C 0.43552 0.25050 0.06411
 C423 C 0.63523 0.74929 0.13474
 N424 N 0.62330 0.77062 0.12866
 N425 N 0.60583 0.77066 0.11115
 C426 C 0.59976 0.74937 0.09919
 N427 N 0.61169 0.72804 0.10528
 N428 N 0.62915 0.72800 0.12279
 C429 C 0.65400 0.74925 0.15365
 C430 C 0.66973 0.74929 0.16956
 C431 C 0.58090 0.74941 0.08038
 C432 C 0.56502 0.74947 0.06461
 C433 C 0.63491 0.25069 -0.13446
 N434 N 0.62473 0.22902 -0.12665
 N435 N 0.60722 0.22898 -0.10918
 C436 C 0.59935 0.25061 -0.09900
 N437 N 0.60952 0.27228 -0.10682
 N438 N 0.62703 0.27232 -0.12429
 C439 C 0.65373 0.25072 -0.15331
 C440 C 0.66950 0.25068 -0.16917
 C441 C 0.58047 0.25057 -0.08022
 C442 C 0.56459 0.25055 -0.06445
 C443 C 0.36559 0.74915 -0.13399
 N444 N 0.38999 0.74791 -0.14024
 N445 N 0.40750 0.74802 -0.12278
 C446 C 0.40114 0.74938 -0.09853
 N447 N 0.37673 0.75064 -0.09227
 N448 N 0.35922 0.75053 -0.10974
 C449 C 0.34675 0.74908 -0.15284
 C450 C 0.33100 0.74906 -0.16874
 C451 C 0.42002 0.74946 -0.07973
 C452 C 0.43592 0.74951 -0.06397
 C453 C 0.13444 0.36598 0.24927
 N454 N 0.11005 0.35963 0.25049
 N455 N 0.09250 0.37710 0.25046
 C456 C 0.09880 0.40144 0.24920
 N457 N 0.12319 0.40779 0.24797
 N458 N 0.14074 0.39032 0.24801
 C459 C 0.15334 0.34717 0.24945
 C460 C 0.16921 0.33137 0.24968
 C461 C 0.07992 0.42025 0.24925
 C462 C 0.06407 0.43609 0.24931
 C463 C 0.13517 0.63470 0.75095
 N464 N 0.14134 0.61032 0.75218
 N465 N 0.12370 0.59293 0.75217
 C466 C 0.09934 0.59938 0.75092
 N467 N 0.09316 0.62376 0.74969
 N468 N 0.11081 0.64115 0.74970
 C469 C 0.15419 0.65344 0.75081
 C470 C 0.17013 0.66920 0.75060
 C471 C 0.08034 0.58063 0.75083
 C472 C 0.06443 0.56483 0.75073
 C473 C -0.13561 0.63495 0.24887
 N474 N -0.11122 0.64130 0.25012
 N475 N -0.09366 0.62384 0.25014
 C476 C -0.09995 0.59949 0.24892
 N477 N -0.12433 0.59314 0.24768
 N478 N -0.14190 0.61060 0.24766
 C479 C -0.15452 0.65374 0.24896
 C480 C -0.17039 0.66957 0.24912
 C481 C -0.08105 0.58069 0.24902
 C482 C -0.06519 0.56486 0.24912
 C483 C -0.13497 0.36543 0.75050
 N484 N -0.14141 0.38974 0.75175
 N485 N -0.12395 0.40732 0.75179
 C486 C -0.09952 0.40113 0.75058
 N487 N -0.09309 0.37681 0.74931
 N488 N -0.11054 0.35924 0.74927
 C489 C -0.15378 0.34648 0.75038
 C490 C -0.16956 0.33056 0.75025
 C491 C -0.08071 0.42006 0.75057
 C492 C -0.06490 0.43597 0.75055
 C493 C 0.24995 0.13418 0.36570
 N494 N 0.24704 0.14050 0.38983
 N495 N 0.24706 0.12310 0.40736
 C496 C 0.25000 0.09885 0.40129
 N497 N 0.25292 0.09253 0.37717
 N498 N 0.25289 0.10993 0.35964
 C499 C 0.24989 0.15292 0.34683
 C500 C 0.24984 0.16865 0.33097
 C501 C 0.25001 0.08011 0.42015
 C502 C 0.25001 0.06434 0.43599
 C503 C 0.75010 0.13446 0.63414
 N504 N 0.74788 0.14072 0.60993
 N505 N 0.74780 0.12322 0.59249
 C506 C 0.74994 0.09892 0.59873
 N507 N 0.75216 0.09267 0.62295
 N508 N 0.75223 0.11017 0.64039
 C509 C 0.75020 0.15331 0.65293
 C510 C 0.75027 0.16914 0.66871
 C511 C 0.74989 0.08008 0.57994
 C512 C 0.74986 0.06426 0.56413
 C513 C 0.25009 -0.13451 0.63464
 N514 N 0.24732 -0.14083 0.61050
 N515 N 0.24737 -0.12341 0.59298
 C516 C 0.25021 -0.09915 0.59907
 N517 N 0.25298 -0.09284 0.62321
 N518 N 0.25293 -0.11025 0.64073
 C519 C 0.25000 -0.15327 0.65352
 C520 C 0.24990 -0.16902 0.66937
 C521 C 0.25021 -0.08038 0.58022
 C522 C 0.25019 -0.06462 0.56437
 C523 C 0.74957 -0.13458 0.36538
 N524 N 0.75439 -0.14065 0.38927
 N525 N 0.75439 -0.12324 0.40679
 C526 C 0.74958 -0.09923 0.40096
 N527 N 0.74478 -0.09316 0.37708
 N528 N 0.74478 -0.11057 0.35955
 C529 C 0.74958 -0.15334 0.34650
 C530 C 0.74961 -0.16909 0.33064
 C531 C 0.74961 -0.08047 0.41984
 C532 C 0.74964 -0.06472 0.43570
 C533 C 0.63511 0.74939 -0.13404
 N534 N 0.62883 0.72802 -0.12233
 N535 N 0.61135 0.72803 -0.10484
 C536 C 0.59964 0.74941 -0.09852
 N537 N 0.60591 0.77077 -0.11024
 N538 N 0.62339 0.77076 -0.12773
 C539 C 0.65393 0.74941 -0.15288
 C540 C 0.66970 0.74951 -0.16874
 C541 C 0.58078 0.74942 -0.07973
 C542 C 0.56491 0.74946 -0.06396
 C543 C 0.36533 0.25052 -0.13429
 N544 N 0.37648 0.22904 -0.12737
 N545 N 0.39401 0.22909 -0.10994
 C546 C 0.40090 0.25062 -0.09890
 N547 N 0.38975 0.27211 -0.10582
 N548 N 0.37222 0.27206 -0.12325
 C549 C 0.34647 0.25044 -0.15306
 C550 C 0.33065 0.25026 -0.16885
 C551 C 0.41977 0.25064 -0.08015
 C552 C 0.43564 0.25062 -0.06440
 C553 C 0.36570 0.74933 0.13444
 N554 N 0.39009 0.74816 0.14077
 N555 N 0.40763 0.74810 0.12334
 C556 C 0.40131 0.74922 0.09907
 N557 N 0.37692 0.75038 0.09274
 N558 N 0.35938 0.75043 0.11017
 C559 C 0.34683 0.74954 0.15320
 C560 C 0.33099 0.74978 0.16898
 C561 C 0.42018 0.74926 0.08032
 C562 C 0.43606 0.74932 0.06456
 C563 C 0.63450 0.25042 0.13422
 N564 N 0.62672 0.27211 0.12411
 N565 N 0.60928 0.27218 0.10659
 C566 C 0.59910 0.25057 0.09866
 N567 N 0.60687 0.22888 0.10878
 N568 N 0.62431 0.22881 0.12630
 C569 C 0.65325 0.25033 0.15309
 C570 C 0.66900 0.25017 0.16895
 C571 C 0.58029 0.25063 0.07986
 C572 C 0.56445 0.25064 0.06408
 C573 C -0.13502 0.63495 0.75068
 N574 N -0.14142 0.61062 0.74981
 N575 N -0.12392 0.59309 0.74981
 C576 C -0.09950 0.59938 0.75068
 N577 N -0.09311 0.62372 0.75154
 N578 N -0.11061 0.64124 0.75154
 C579 C -0.15385 0.65383 0.75063
 C580 C -0.16962 0.66973 0.75053
 C581 C -0.08067 0.58053 0.75064
 C582 C -0.06483 0.56469 0.75060
 C583 C -0.13492 0.36571 0.24928
 N584 N -0.11095 0.35998 0.25459
 N585 N -0.09353 0.37758 0.25457
 C586 C -0.09958 0.40143 0.24925
 N587 N -0.12356 0.40715 0.24395
 N588 N -0.14098 0.38955 0.24396
 C589 C -0.15366 0.34678 0.24934
 C590 C -0.16937 0.33085 0.24945
 C591 C -0.08086 0.42035 0.24927
 C592 C -0.06508 0.43623 0.24929
 C593 C 0.13447 0.36586 0.75068
 N594 N 0.14090 0.39020 0.75008
 N595 N 0.12341 0.40773 0.75003
 C596 C 0.09898 0.40145 0.75059
 N597 N 0.09256 0.37711 0.75119
 N598 N 0.11005 0.35958 0.75123
 C599 C 0.15327 0.34697 0.75068
 C600 C 0.16900 0.33103 0.75063
 C601 C 0.08016 0.42031 0.75052
 C602 C 0.06432 0.43615 0.75048
 C603 C 0.13447 0.63460 0.24921
 N604 N 0.14074 0.61025 0.24808
 N605 N 0.12316 0.59282 0.24812
 C606 C 0.09879 0.59922 0.24931
 N607 N 0.09252 0.62357 0.25046
 N608 N 0.11010 0.64100 0.25042
 C609 C 0.15335 0.65338 0.24922
 C610 C 0.16915 0.66924 0.24928
 C611 C 0.07989 0.58047 0.24936
 C612 C 0.06401 0.56469 0.24940
 C613 C 0.75003 -0.13464 0.63420
 N614 N 0.75055 -0.11026 0.64044
 N615 N 0.75049 -0.09282 0.62295
 C616 C 0.74992 -0.09924 0.59868
 N617 N 0.74936 -0.12361 0.59244
 N618 N 0.74942 -0.14105 0.60994
 C619 C 0.75007 -0.15342 0.65303
 C620 C 0.75010 -0.16920 0.66885
 C621 C 0.74985 -0.08047 0.57985
 C622 C 0.74984 -0.06468 0.56403
 C623 C 0.25022 -0.13444 0.36595
 N624 N 0.25251 -0.14076 0.39014
 N625 N 0.25243 -0.12332 0.40762
 C626 C 0.25005 -0.09905 0.40144
 N627 N 0.24776 -0.09272 0.37726
 N628 N 0.24784 -0.11016 0.35977
 C629 C 0.25032 -0.15321 0.34715
 C630 C 0.25040 -0.16901 0.33136
 C631 C 0.25004 -0.08029 0.42025
 C632 C 0.25000 -0.06452 0.43608
 C633 C 0.74976 0.13414 0.36568
 N634 N 0.74756 0.14047 0.38988
 N635 N 0.74760 0.12303 0.40737
 C636 C 0.74983 0.09873 0.40118
 N637 N 0.75204 0.09240 0.37699
 N638 N 0.75200 0.10984 0.35950
 C639 C 0.74970 0.15291 0.34687
 C640 C 0.74966 0.16870 0.33107
 C641 C 0.74982 0.07997 0.42000
 C642 C 0.74982 0.06419 0.43582
 C643 C 0.25015 0.13440 0.63421
 N644 N 0.25345 0.11022 0.64036
 N645 N 0.25340 0.09272 0.62293
 C646 C 0.25004 0.09889 0.59882
 N647 N 0.24673 0.12307 0.59267
 N648 N 0.24678 0.14056 0.61011
 C649 C 0.25022 0.15323 0.65296
 C650 C 0.25028 0.16906 0.66871
 C651 C 0.25002 0.08008 0.58006
 C652 C 0.25003 0.06428 0.56427
   
