data_POSCAR
  _audit_creation_date              2014-09-24
  _audit_creation_method            'ToBaCCo'
  _symmetry_space_group_name_H-M    'P1'
  _symmetry_Int_Tables_number       1
  _symmetry_cell_setting            triclinic
  loop_
  _symmetry_equiv_pos_as_xyz
 x,y,z
_cell_length_a 32.9198
_cell_length_b 32.4694
_cell_length_c 11.2602
_cell_angle_alpha 90.422400
_cell_angle_beta 89.643800
_cell_angle_gamma 119.865000
loop_
  _atom_site_label
  _atom_site_type_symbol
  _atom_site_fract_x
  _atom_site_fract_y
  _atom_site_fract_z
C1 C 0.18542 0.46978 0.44128
 C2 C 0.18667 0.46681 0.56802
 C3 C 0.22090 0.45944 0.62177
 C4 C 0.25664 0.45763 0.55680
 C5 C 0.25565 0.46074 0.43080
 C6 C 0.22047 0.46636 0.37580
 H7 H 0.22038 0.46632 0.27995
 H8 H 0.22064 0.45822 0.71752
 C9 C 0.54104 -0.27705 0.41654
 C10 C 0.53280 -0.28347 0.54142
 C11 C 0.53340 -0.24660 0.60976
 C12 C 0.54108 -0.20370 0.55951
 C13 C 0.54593 -0.19911 0.43351
 C14 C 0.54602 -0.23551 0.36556
 H15 H 0.54878 -0.23195 0.26970
 H16 H 0.52654 -0.25203 0.70436
 C17 C 1.28442 0.80682 0.43398
 C18 C 1.28730 0.81088 0.56079
 C19 C 1.25081 0.77527 0.62946
 C20 C 1.21318 0.73561 0.57645
 C21 C 1.21022 0.73189 0.45177
 C22 C 1.24491 0.76819 0.38249
 H23 H 1.24237 0.76478 0.28650
 H24 H 1.25083 0.77820 0.72516
 C25 C 0.78356 0.50310 0.44662
 C26 C 0.78844 0.51346 0.56982
 C27 C 0.75114 0.51372 0.63103
 C28 C 0.70997 0.50595 0.57325
 C29 C 0.70635 0.49694 0.44793
 C30 C 0.74331 0.49586 0.38750
 H31 H 0.74018 0.48779 0.29320
 H32 H 0.75365 0.51961 0.72601
 C33 C 0.44221 0.24778 0.44159
 C34 C 0.44954 0.25420 0.56575
 C35 C 0.45552 0.22033 0.63068
 C36 C 0.45687 0.18197 0.57285
 C37 C 0.45173 0.17832 0.44702
 C38 C 0.44293 0.20990 0.38481
 H39 H 0.43669 0.20491 0.28991
 H40 H 0.46209 0.22581 0.72480
 C41 C 0.72836 0.22117 0.42021
 C42 C 0.72226 0.22193 0.54411
 C43 C 0.75673 0.25909 0.61201
 C44 C 0.79798 0.29546 0.56051
 C45 C 0.80318 0.29573 0.43422
 C46 C 0.76848 0.25799 0.36663
 H47 H 0.77123 0.25849 0.27069
 H48 H 0.75165 0.25882 0.70741
 N49 N 0.94990 0.56569 0.13900
 N50 N 0.91246 0.56994 0.15544
 N51 N 1.04966 0.58725 0.21302
 N52 N 1.08589 0.60955 0.28508
 N53 N 1.04795 0.61751 0.13920
 N54 N 1.08265 0.66092 0.15864
 N55 N 0.95017 0.53472 0.21294
 N56 N 0.91240 0.51676 0.28135
 C57 C 0.88934 0.53926 0.24417
 C58 C 1.10599 0.65550 0.24960
 N59 N 1.05290 0.47408 0.09762
 N60 N 1.08652 0.46342 0.10911
 N61 N 0.95346 0.44789 0.18922
 N62 N 0.91991 0.42155 0.26505
 N63 N 0.95408 0.42207 0.09954
 N64 N 0.92092 0.37727 0.11253
 N65 N 1.05184 0.49859 0.18993
 N66 N 1.08417 0.50421 0.26800
 Mn67 Mn 1.00139 0.51720 0.20300
 C68 C 1.10571 0.48232 0.21567
 C69 C 0.89973 0.37764 0.21585
 N70 N 1.04876 0.62596 -0.11406
 N71 N 1.08580 0.66916 -0.11950
 N72 N 0.95122 0.54792 -0.20295
 N73 N 0.91420 0.53295 -0.27091
 N74 N 0.94956 0.57331 -0.11404
 N75 N 0.91086 0.57613 -0.11890
 N76 N 1.04932 0.59969 -0.20224
 N77 N 1.08653 0.62378 -0.26946
 Mn78 Mn 0.99902 0.59613 0.01281
 C79 C 1.10899 0.66704 -0.21727
 C80 C 0.88945 0.55098 -0.21820
 N81 N 0.95394 0.43035 -0.15747
 N82 N 0.92526 0.38673 -0.19608
 N83 N 1.05164 0.51396 -0.22871
 N84 N 1.08395 0.52712 -0.31183
 N85 N 1.05249 0.48251 -0.15782
 N86 N 1.08555 0.47316 -0.19171
 N87 N 0.95389 0.46166 -0.23066
 N88 N 0.92556 0.44032 -0.32082
 Mn89 Mn 1.00332 0.45172 -0.02948
 Mn90 Mn 1.00148 0.53097 -0.21658
 Cl91 Cl 1.00130 0.52381 -0.00716
 C92 C 0.90719 0.39376 -0.29665
 C93 C 1.10511 0.50185 -0.28707
 N94 N 0.43061 0.38094 0.13020
 N95 N 0.42031 0.33614 0.13577
 N96 N 0.42490 0.46630 0.23613
 N97 N 0.41009 0.48598 0.31542
 N98 N 0.39151 0.44040 0.16034
 N99 N 0.35273 0.44111 0.18728
 N100 N 0.46416 0.40716 0.20484
 N101 N 0.47762 0.38123 0.26391
 C102 C 0.45015 0.33724 0.21922
 C103 C 0.36502 0.46971 0.28446
 N104 N 0.54179 0.57553 0.13852
 N105 N 0.55924 0.62040 0.17222
 N106 N 0.55575 0.48907 0.19098
 N107 N 0.58075 0.47923 0.26470
 N108 N 0.58235 0.51738 0.10611
 N109 N 0.62619 0.52749 0.12010
 N110 N 0.51646 0.54705 0.22448
 N111 N 0.51644 0.57119 0.31873
 Mn112 Mn 0.49022 0.47714 0.21474
 C113 C 0.54251 0.61667 0.28468
 C114 C 0.62446 0.50277 0.21814
 N115 N 0.38068 0.44062 -0.09441
 N116 N 0.33668 0.42987 -0.10893
 N117 N 0.44786 0.40871 -0.20702
 N118 N 0.46031 0.38360 -0.27588
 N119 N 0.42093 0.38217 -0.11999
 N120 N 0.41473 0.33884 -0.12683
 N121 N 0.40674 0.46671 -0.18297
 N122 N 0.38098 0.47386 -0.26061
 Mn123 Mn 0.40536 0.41077 0.01920
 C124 C 0.33749 0.45111 -0.21245
 C125 C 0.43894 0.33994 -0.22483
 N126 N 0.57202 0.51938 -0.14884
 N127 N 0.61354 0.52922 -0.19051
 N128 N 0.49922 0.55141 -0.19693
 N129 N 0.49409 0.57921 -0.27363
 N130 N 0.53144 0.57723 -0.11786
 N131 N 0.54858 0.62287 -0.13821
 N132 N 0.53910 0.49354 -0.22600
 N133 N 0.55736 0.48606 -0.32265
 Mn134 Mn 0.55730 0.54785 -0.00570
 Mn135 Mn 0.47306 0.48003 -0.20437
 Cl136 Cl 0.48159 0.47925 0.00556
 C137 C 0.60356 0.50763 -0.29840
 C138 C 0.52474 0.62371 -0.23444
 N139 N 0.43122 -0.05174 0.15828
 N140 N 0.38937 -0.08454 0.19624
 N141 N 0.50971 0.04990 0.23243
 N142 N 0.52157 0.08270 0.31560
 N143 N 0.47638 0.04788 0.16517
 N144 N 0.46433 0.07906 0.20107
 N145 N 0.46395 -0.04966 0.22822
 N146 N 0.44557 -0.08093 0.31444
 C147 C 0.39919 -0.10289 0.29276
 C148 C 0.49313 0.10068 0.29433
 N149 N 0.62341 0.05435 0.10682
 N150 N 0.66536 0.09284 0.11251
 N151 N 0.55101 -0.04601 0.19270
 N152 N 0.54364 -0.08002 0.26710
 N153 N 0.57582 -0.04593 0.10103
 N154 N 0.58659 -0.07995 0.11162
 N155 N 0.59741 0.05329 0.19674
 N156 N 0.62052 0.09067 0.26564
 Mn157 Mn 0.53074 0.00205 0.21307
 C158 C 0.66283 0.11506 0.21239
 C159 C 0.56575 -0.10105 0.21557
 N160 N 0.46660 0.05113 -0.08702
 N161 N 0.45325 0.08332 -0.09284
 N162 N 0.44646 -0.04515 -0.19257
 N163 N 0.42112 -0.07855 -0.27082
 N164 N 0.42141 -0.04903 -0.09751
 N165 N 0.37864 -0.08570 -0.10757
 N166 N 0.49240 0.05414 -0.17969
 N167 N 0.49640 0.08776 -0.25213
 Mn168 Mn 0.44831 -0.00070 0.03460
 C169 C 0.47218 0.10598 -0.19621
 C170 C 0.37901 -0.10346 -0.21633
 N171 N 0.56569 -0.04363 -0.15557
 N172 N 0.57812 -0.07422 -0.19553
 N173 N 0.58222 0.05806 -0.21408
 N174 N 0.60272 0.09567 -0.28387
 N175 N 0.61331 0.05627 -0.14490
 N176 N 0.65546 0.09253 -0.16480
 N177 N 0.53535 -0.04189 -0.22797
 N178 N 0.52669 -0.07097 -0.31901
 Mn179 Mn 0.59496 0.00497 -0.02347
 Mn180 Mn 0.51414 0.00650 -0.20495
 Cl181 Cl 0.52191 0.00305 0.00440
 C182 C 0.55274 -0.09165 -0.29629
 C183 C 0.64844 0.11681 -0.25132
 C184 C 1.14797 0.47179 0.38273
 C185 C 1.14561 0.47944 0.26620
 H186 H 1.11770 0.46572 0.43398
 H187 H 1.17219 0.48313 0.20384
 C188 C 0.54209 0.68954 0.33677
 C189 C 0.55232 0.65595 0.36583
 H190 H 0.53523 0.69189 0.24357
 H191 H 0.56359 0.65359 0.45399
 C192 C 0.31852 -0.16075 0.35422
 C193 C 0.36462 -0.13799 0.37498
 H194 H 0.30722 -0.15759 0.26609
 H195 H 0.37830 -0.14571 0.45364
 C196 C 0.82100 0.50097 0.37748
 C197 C 0.84564 0.53362 0.29571
 H198 H 0.83204 0.47612 0.40474
 H199 H 0.83492 0.55891 0.27026
 C200 C 0.43143 0.27936 0.37103
 C201 C 0.45048 0.29570 0.26490
 H202 H 0.41111 0.29355 0.41249
 H203 H 0.47253 0.28409 0.22167
 C204 C 0.69196 0.18224 0.34776
 C205 C 0.70117 0.15976 0.26062
 H206 H 0.65589 0.16875 0.37414
 H207 H 0.73671 0.17220 0.23067
 C208 C 0.46329 0.14779 -0.36455
 C209 C 0.46430 0.14339 -0.24626
 H210 H 0.46606 0.12101 -0.41537
 H211 H 0.45705 0.16475 -0.18523
 C212 C 0.67555 0.50718 -0.35203
 C213 C 0.63840 0.51071 -0.38523
 H214 H 0.67998 0.50596 -0.25685
 H215 H 0.63188 0.51594 -0.47559
 C216 C 0.83093 0.32966 -0.36010
 C217 C 0.87699 0.35625 -0.38010
 H218 H 0.81852 0.33295 -0.27286
 H219 H 0.89344 0.35196 -0.45876
 C220 C 0.54101 -0.16943 -0.36060
 C221 C 0.55853 -0.12293 -0.38179
 H222 H 0.52690 -0.18139 -0.27214
 H223 H 0.57752 -0.10632 -0.46196
 C224 C 0.29311 0.45426 -0.38433
 C225 C 0.29558 0.44829 -0.26676
 H226 H 0.32190 0.45679 -0.43584
 H227 H 0.26688 0.44004 -0.20692
 C228 C 1.17624 0.69809 -0.34956
 C229 C 1.15262 0.70669 -0.26494
 H230 H 1.16478 0.66166 -0.37434
 H231 H 1.16322 0.74268 -0.23753
 C232 C 0.83028 0.52335 -0.37212
 C233 C 0.84431 0.54293 -0.26387
 H234 H 0.85463 0.51639 -0.42066
 H235 H 0.82466 0.55474 -0.21044
 C236 C 0.45273 0.29525 -0.38021
 C237 C 0.44173 0.29829 -0.26734
 H238 H 0.46098 0.32552 -0.43579
 H239 H 0.42932 0.26816 -0.20851
 C240 C 0.68129 0.18252 -0.39518
 C241 C 0.68713 0.15976 -0.30450
 H242 H 0.64652 0.16975 -0.43048
 H243 H 0.72209 0.17150 -0.27144
 C244 C 1.15544 0.47068 -0.35284
 C245 C 1.14068 0.50188 -0.36541
 H246 H 1.14682 0.45081 -0.27055
 H247 H 1.15371 0.52742 -0.43707
 C248 C 0.51777 0.67039 -0.39843
 C249 C 0.53539 0.66840 -0.29318
 H250 H 0.49366 0.63774 -0.44383
 H251 H 0.56101 0.70104 -0.25039
 C252 C 0.32501 -0.14612 -0.37843
 C253 C 0.33908 -0.14591 -0.26693
 H254 H 0.34238 -0.11309 -0.42721
 H255 H 0.32219 -0.17702 -0.21134
 C256 C 0.54299 -0.16139 0.36825
 C257 C 0.56845 -0.14037 0.27080
 H258 H 0.51905 -0.15039 0.40277
 H259 H 0.59247 -0.15081 0.23401
 C260 C 0.28729 0.45302 0.35099
 C261 C 0.33370 0.48142 0.35161
 H262 H 0.27149 0.42327 0.28967
 H263 H 0.34940 0.51171 0.41132
 C264 C 1.17049 0.69044 0.39314
 C265 C 1.14762 0.69566 0.30249
 H266 H 1.15820 0.65531 0.42876
 H267 H 1.15865 0.73076 0.26803
 C268 C 0.45358 0.14133 0.37413
 C269 C 0.49176 0.13695 0.36917
 H270 H 0.42426 0.12011 0.31588
 H271 H 0.52164 0.15888 0.42510
 C272 C 0.66395 0.48482 0.37774
 C273 C 0.66644 0.50788 0.27735
 H274 H 0.63016 0.45858 0.41266
 H275 H 0.70029 0.53403 0.24244
 C276 C 0.83988 0.33790 0.37022
 C277 C 0.86119 0.33496 0.27121
 H278 H 0.85049 0.37256 0.40810
 H279 H 0.85149 0.30074 0.23210
   
