data_POSCAR
  _audit_creation_date              2014-09-24
  _audit_creation_method            'ToBaCCo'
  _symmetry_space_group_name_H-M    'P1'
  _symmetry_Int_Tables_number       1
  _symmetry_cell_setting            triclinic
  loop_
  _symmetry_equiv_pos_as_xyz
 x,y,z
_cell_length_a 12.1146
_cell_length_b 12.8917
_cell_length_c 32.9108
_cell_angle_alpha 94.766800
_cell_angle_beta 87.214900
_cell_angle_gamma 125.753900
loop_
  _atom_site_label
  _atom_site_type_symbol
  _atom_site_fract_x
  _atom_site_fract_y
  _atom_site_fract_z
C1 C -0.08307 -0.04049 0.51785
 C2 C 0.94058 -0.11362 0.15308
 C3 C 0.16592 1.16923 0.83162
 O4 O 0.41303 -0.02734 -0.05419
 O5 O 0.56002 -0.10879 0.02354
 O6 O 0.31908 -0.16146 0.01134
 O7 O 0.59864 -0.08039 -0.05590
 O8 O 0.71475 0.12110 -0.03126
 O9 O 0.43195 0.03630 0.03961
 O10 O 0.67650 0.09406 0.04706
 O11 O 0.52887 0.16977 -0.02590
 Cu12 Cu 0.46347 -0.11108 -0.02123
 Cu13 Cu 0.59754 0.12211 0.00940
 C14 C 0.44460 0.08711 -0.05213
 C15 C 0.64468 -0.01748 0.04884
 C16 C 0.32624 -0.07977 0.03711
 C17 C 0.70458 0.03276 -0.05552
 O18 O 0.00497 0.44779 0.72209
 O19 O -0.08941 0.57333 0.64475
 O20 O -0.11274 0.36013 0.64950
 O21 O -0.05867 0.61486 0.72268
 O22 O 0.15752 0.73785 0.70490
 O23 O 0.10293 0.48356 0.63075
 O24 O 0.12650 0.69729 0.62661
 O25 O 0.21894 0.56964 0.70268
 Cu26 Cu -0.08214 0.48718 0.68686
 Cu27 Cu 0.17247 0.63374 0.66474
 C28 C 0.12819 0.48531 0.72512
 C29 C 0.00537 0.66235 0.62375
 C30 C -0.01476 0.37700 0.62802
 C31 C 0.05589 0.72268 0.72452
 O32 O 0.51152 0.55306 0.29176
 O33 O 0.28442 0.34241 0.37194
 O34 O 0.48572 0.59084 0.37169
 O35 O 0.28181 0.33705 0.29388
 O36 O 0.40755 0.26450 0.29589
 O37 O 0.60514 0.51458 0.37950
 O38 O 0.40168 0.26111 0.37322
 O39 O 0.63699 0.48220 0.29834
 Cu40 Cu 0.38093 0.46458 0.33250
 Cu41 Cu 0.52858 0.37753 0.33832
 C42 C 0.61038 0.54806 0.28031
 C43 C 0.30112 0.26168 0.38490
 C44 C 0.57710 0.59457 0.39007
 C45 C 0.31008 0.26028 0.28054
 C46 C -0.13920 0.20413 0.57278
 C47 C -0.15458 0.10669 0.54576
 C48 C -0.06396 0.07173 0.54661
 C49 C 0.05116 0.14666 0.57414
 C50 C 0.05894 0.23744 0.60331
 C51 C -0.03338 0.26993 0.60144
 C52 C 0.16036 0.29381 0.63372
 N53 N 0.25726 0.27239 0.63197
 N54 N 0.25964 0.19846 0.60189
 C55 C 0.16190 0.13686 0.57281
 H56 H -0.21009 0.22905 0.57112
 H57 H -0.23913 0.05738 0.52472
 H58 H 0.16379 0.35444 0.65897
 H59 H 0.17476 0.08364 0.54859
 C60 C 0.83423 0.70500 0.25095
 C61 C 0.91684 0.77855 0.21940
 C62 C 0.86158 0.76932 0.18112
 C63 C 0.73056 0.65367 0.17229
 C64 C 0.64194 0.58656 0.20504
 C65 C 0.69443 0.61699 0.24514
 C66 C 0.50411 0.49127 0.19621
 N67 N 0.46176 0.45591 0.15689
 N68 N 0.54847 0.50889 0.12607
 C69 C 0.68161 0.60530 0.13259
 H70 H 0.87894 0.72167 0.28064
 H71 H 1.02340 0.84934 0.22638
 H72 H 0.43027 0.44301 0.22001
 H73 H 0.74915 0.63782 0.10712
 C74 C 0.39432 0.09836 -0.12241
 C75 C 0.34678 0.13495 -0.15167
 C76 C 0.28068 0.19667 -0.14193
 C77 C 0.30190 0.24968 -0.10037
 C78 C 0.34534 0.20749 -0.06992
 C79 C 0.38798 0.12719 -0.08129
 C80 C 0.34244 0.24621 -0.02883
 N81 N 0.31290 0.33171 -0.01924
 N82 N 0.28545 0.38052 -0.04788
 C83 C 0.28022 0.34317 -0.08789
 H84 H 0.43601 0.04542 -0.13228
 H85 H 0.35564 0.10327 -0.18191
 H86 H 0.36285 0.20946 -0.00414
 H87 H 0.26268 0.38898 -0.10971
 C88 C 0.03515 0.76482 0.55995
 C89 C 0.01738 0.83769 0.53586
 C90 C -0.06760 0.87684 0.54746
 C91 C -0.12216 0.85120 0.58905
 C92 C -0.09520 0.78360 0.61425
 C93 C -0.02341 0.73364 0.59848
 C94 C -0.13582 0.77261 0.65559
 N95 N -0.20470 0.81974 0.67073
 N96 N -0.23745 0.87641 0.64725
 C97 C -0.19988 0.89290 0.60764
 H98 H 0.09932 0.73556 0.54872
 H99 H 0.07861 0.86860 0.50883
 H100 H -0.11181 0.72958 0.67663
 H101 H -0.24163 0.93018 0.59113
 C102 C 0.08853 0.11623 0.24778
 C103 C 0.00381 0.04082 0.21526
 C104 C 0.05206 0.00951 0.17992
 C105 C 0.19719 0.08605 0.17476
 C106 C 0.28323 0.15415 0.20933
 C107 C 0.22708 0.16834 0.24635
 C108 C 0.42391 0.21368 0.20453
 N109 N 0.47643 0.21855 0.16689
 N110 N 0.39809 0.16976 0.13385
 C111 C 0.26144 0.10743 0.13648
 H112 H 0.04426 0.13221 0.27484
 H113 H -0.10308 -0.00240 0.21945
 H114 H 0.49392 0.26122 0.22977
 H115 H 0.20552 0.07647 0.10845
 C116 C 0.88259 0.00785 -0.08455
 C117 C 0.99358 0.04491 -0.11030
 C118 C 1.04353 0.14206 -0.13795
 C119 C 0.98301 0.21366 -0.13327
 C120 C 0.85904 0.16239 -0.11154
 C121 C 0.81411 0.06501 -0.08522
 C122 C 0.78545 0.21489 -0.11498
 N123 N 0.84301 0.32594 -0.13289
 N124 N 0.96970 0.38819 -0.14661
 C125 C 1.04216 0.33872 -0.14594
 H126 H 0.85045 -0.06570 -0.06369
 H127 H 1.04202 -0.00342 -0.10846
 H128 H 0.68412 0.17034 -0.10268
 H129 H 1.14646 0.40286 -0.15320
 C130 C 0.20437 -0.15073 0.10260
 C131 C 0.10181 -0.17120 0.12938
 C132 C 0.00394 -0.15286 0.11773
 C133 C -0.01350 -0.15581 0.07435
 C134 C 0.09369 -0.13094 0.04753
 C135 C 0.20740 -0.11907 0.06284
 C136 C 0.08410 -0.11869 0.00593
 N137 N -0.03100 -0.14141 -0.00871
 N138 N -0.13654 -0.17526 0.01547
 C139 C -0.13246 -0.18489 0.05599
 H140 H 0.28728 -0.14916 0.11413
 H141 H 0.11243 -0.18136 0.16097
 H142 H 0.16554 -0.09428 -0.01530
 H143 H -0.22353 -0.21584 0.07287
 C144 C 0.69813 0.81666 0.42323
 C145 C 0.76155 0.90582 0.45690
 C146 C 0.77414 0.86820 0.49466
 C147 C 0.68056 0.73279 0.49979
 C148 C 0.62869 0.64314 0.46532
 C149 C 0.64274 0.68658 0.42618
 C150 C 0.55339 0.51143 0.47176
 N151 N 0.51572 0.47187 0.50998
 N152 N 0.54502 0.55491 0.54166
 C153 C 0.62171 0.68280 0.53737
 H154 H 0.69996 0.85087 0.39406
 H155 H 0.81779 1.00653 0.45162
 H156 H 0.51839 0.43894 0.44697
 H157 H 0.62153 0.74144 0.56189
 C158 C 0.05830 0.28806 0.75360
 C159 C 0.07032 0.21461 0.77829
 C160 C 0.18577 0.26385 0.80350
 C161 C 0.29878 0.39646 0.79910
 C162 C 0.28241 0.47334 0.77402
 C163 C 0.15935 0.41795 0.75192
 C164 C 0.38779 0.60480 0.77336
 N165 N 0.50399 0.65590 0.79439
 N166 N 0.52190 0.58489 0.81637
 C167 C 0.42418 0.45826 0.81958
 H168 H -0.03464 0.24165 0.73608
 H169 H -0.01856 0.11629 0.77942
 H170 H 0.37904 0.66864 0.75693
 H171 H 0.44944 0.40905 0.83733
 C172 C 0.85281 0.04700 0.08269
 C173 C 0.92346 0.03130 0.11053
 C174 C 0.85480 -0.07085 0.13652
 C175 C 0.71265 -0.12800 0.14247
 C176 C 0.63933 -0.12100 0.11169
 C177 C 0.71120 -0.03714 0.08030
 C178 C 0.49730 -0.19141 0.11495
 N179 N 0.43465 -0.25100 0.14945
 N180 N 0.50521 -0.24393 0.18063
 C181 C 0.64202 -0.18208 0.17863
 H182 H 0.90985 0.12013 0.06106
 H183 H 1.03275 0.09085 0.10832
 H184 H 0.43637 -0.19621 0.09101
 H185 H 0.69333 -0.17541 0.20554
 C186 C 0.19230 0.23601 0.45051
 C187 C 0.10748 0.16722 0.48184
 C188 C 0.03174 0.03059 0.48289
 C189 C 0.04829 -0.03230 0.44700
 C190 C 0.13755 0.04127 0.41445
 C191 C 0.20892 0.17630 0.41666
 C192 C 0.14719 -0.02344 0.37949
 N193 N 0.07315 -0.15288 0.37670
 N194 N -0.01029 -0.22192 0.40642
 C195 C -0.02564 -0.16661 0.44099
 H196 H 0.24480 0.33918 0.45266
 H197 H 0.10088 0.22888 0.50427
 H198 H 0.21110 0.02745 0.35400
 H199 H -0.09542 -0.22920 0.46344
 C200 C -0.00885 0.81749 0.78195
 C201 C 0.01409 0.92243 0.80645
 C202 C 0.12782 1.04944 0.80043
 C203 C 0.20598 1.06588 0.76332
 C204 C 0.16616 0.96001 0.73543
 C205 C 0.07095 0.83462 0.74751
 C206 C 0.22488 0.98341 0.69616
 N207 N 0.33257 1.10234 0.68781
 N208 N 0.38542 1.19864 0.71622
 C209 C 0.32801 1.18367 0.75360
 H210 H -0.08996 0.72176 0.79014
 H211 H -0.05849 0.89950 0.83033
 H212 H 0.18562 0.90892 0.67187
 H213 H 0.38302 1.26209 0.77585
   
