data_POSCAR
  _audit_creation_date              2014-09-24
  _audit_creation_method            'ToBaCCo'
  _symmetry_space_group_name_H-M    'P1'
  _symmetry_Int_Tables_number       1
  _symmetry_cell_setting            triclinic
  loop_
  _symmetry_equiv_pos_as_xyz
 x,y,z
_cell_length_a 24.4594
_cell_length_b 24.4509
_cell_length_c 24.0819
_cell_angle_alpha 90.172100
_cell_angle_beta 90.220600
_cell_angle_gamma 89.713100
loop_
  _atom_site_label
  _atom_site_type_symbol
  _atom_site_fract_x
  _atom_site_fract_y
  _atom_site_fract_z
N1 N 0.17272 1.15132 0.14194
 N2 N 0.77945 0.75697 0.24346
 N3 N 0.78378 1.23133 -0.22703
 N4 N 0.17219 0.85346 -0.15173
 C5 C 0.59984 1.08126 -0.01573
 H6 H 0.59461 1.08741 0.02845
 C7 C 0.63434 1.11553 -0.04565
 H8 H 0.65571 1.14794 -0.02413
 C9 C 0.57901 1.03057 -0.09711
 H10 H 0.55818 0.99672 -0.11673
 C11 C 0.61346 1.06364 -0.12851
 H12 H 0.61868 1.05548 -0.17241
 N13 N 0.57239 1.04032 -0.04187
 C14 C 0.44916 1.01160 0.08423
 H15 H 0.45874 0.96940 0.09368
 C16 C 0.40347 1.03629 0.10818
 H17 H 0.37852 1.01325 0.13679
 C18 C 0.46623 1.09089 0.03068
 H19 H 0.48902 1.11082 -0.00178
 C20 C 0.42026 1.11688 0.05314
 H21 H 0.40878 1.15712 0.03849
 Zn22 Zn 0.52662 0.99576 0.00184
 N23 N 0.47903 1.03874 0.04570
 C24 C 0.57842 0.96126 0.10146
 N25 N 0.57153 0.95036 0.04644
 C26 C 0.59859 0.90834 0.02140
 C27 C 0.63308 0.87426 0.05228
 C28 C 0.61283 0.92844 0.13377
 C29 C 0.44983 0.98265 -0.08177
 C30 C 0.40397 0.95968 -0.10691
 C31 C 0.41794 0.87824 -0.05200
 C32 C 0.46426 0.90250 -0.02837
 N33 N 0.47858 0.95425 -0.04285
 H34 H 0.55790 0.99592 0.12017
 H35 H 0.59319 0.90129 -0.02265
 H36 H 0.65414 0.84094 0.03172
 H37 H 0.61821 0.93752 0.17749
 H38 H 0.46050 1.02458 -0.09069
 H39 H 0.38007 0.98372 -0.13598
 H40 H 0.40522 0.83831 -0.03793
 H41 H 0.48618 0.88162 0.00442
 C42 C 0.38745 1.08861 0.09093
 C43 C 0.64122 1.10685 -0.10276
 C44 C 0.38646 0.90782 -0.09044
 C45 C 0.64032 0.88425 0.10918
 C46 C -0.00744 0.57274 1.08781
 H47 H 0.03676 0.57222 1.08980
 C48 C -0.03720 0.60628 1.12383
 H49 H -0.01562 0.63147 1.15361
 C50 C -0.08912 0.54250 1.04444
 H51 H -0.10908 0.51875 1.01243
 C52 C -0.12038 0.57596 1.07921
 H53 H -0.16439 0.57742 1.07419
 N54 N -0.03366 0.54167 1.04920
 C55 C 0.09188 0.42373 1.00078
 H56 H 0.09565 0.43333 0.95715
 C57 C 0.11919 0.37832 1.02251
 H58 H 0.14469 0.35349 0.99564
 C59 C 0.05011 0.44135 1.08775
 H60 H 0.02128 0.46453 1.11236
 C61 C 0.07593 0.39568 1.11088
 H62 H 0.06754 0.38491 1.15352
 Zn63 Zn 0.00944 0.50286 0.99719
 N64 N 0.05740 0.45358 1.03321
 C65 C 0.10269 0.55993 0.95607
 N66 N 0.04718 0.55596 0.95574
 C67 C 0.01531 0.59468 0.93117
 C68 C 0.03893 0.64051 0.90702
 C69 C 0.12810 0.60504 0.93182
 C70 C -0.06171 0.41824 0.97928
 C71 C -0.09322 0.38035 0.95036
 C72 C -0.07172 0.42732 0.86512
 C73 C -0.04013 0.46439 0.89579
 N74 N -0.03580 0.45903 0.95187
 H75 H 0.12720 0.52962 0.97735
 H76 H -0.02873 0.59108 0.93265
 H77 H 0.01294 0.67221 0.88973
 H78 H 0.17210 0.60892 0.93420
 H79 H -0.05718 0.41479 1.02384
 H80 H -0.11324 0.34826 0.97324
 H81 H -0.07479 0.43144 0.82045
 H82 H -0.01847 0.49665 0.87476
 C83 C 0.10943 0.36266 1.07748
 C84 C -0.09431 0.60839 1.11926
 C85 C -0.09803 0.38435 0.89254
 C86 C 0.09585 0.64629 0.90787
 C87 C 1.08398 0.00297 0.58158
 H88 H 1.08350 0.04681 0.57569
 C89 C 1.11171 -0.01954 0.62682
 H90 H 1.13274 0.00712 0.65576
 C91 C 1.05259 -0.08470 0.55411
 H92 H 1.02750 -0.10956 0.52710
 C93 C 1.08015 -0.10898 0.59871
 H94 H 1.07624 -0.15250 0.60556
 N95 N 1.05412 -0.02952 0.54720
 C96 C 1.01577 0.07769 0.40829
 H97 H 0.97213 0.08202 0.41409
 C98 C 1.04057 0.10103 0.36215
 H99 H 1.01601 0.12410 0.33284
 C100 C 1.10027 0.03908 0.43733
 H101 H 1.12286 0.01339 0.46588
 C102 C 1.12651 0.06069 0.39084
 H103 H 1.16944 0.05214 0.38428
 Zn104 Zn 1.00646 0.00675 0.49764
 N105 N 1.04564 0.04707 0.44448
 C106 C 0.96113 0.10779 0.53763
 N107 N 0.96158 0.05229 0.54209
 C108 C 0.93272 0.02657 0.58238
 C109 C 0.90087 0.05661 0.61952
 C110 C 0.92978 0.13949 0.57413
 C111 C 0.99123 -0.07641 0.42045
 C112 C 0.96270 -0.11153 0.38509
 C113 C 0.87828 -0.08032 0.42649
 C114 C 0.90838 -0.04527 0.46070
 N115 N 0.96388 -0.04399 0.45708
 H116 H 0.98597 0.12766 0.50676
 H117 H 0.93513 -0.01747 0.58604
 H118 H 0.87882 0.03544 0.65178
 H119 H 0.93020 0.18364 0.57079
 H120 H 1.03531 -0.07405 0.41797
 H121 H 0.98520 -0.13656 0.35589
 H122 H 0.83410 -0.08074 0.42928
 H123 H 0.88722 -0.01832 0.48908
 C124 C 1.09609 0.09099 0.35212
 C125 C 1.10893 -0.07593 0.63631
 C126 C 0.90551 -0.11323 0.38762
 C127 C 0.89899 0.11371 0.61533
 C128 C 0.10743 0.27668 1.14836
 C129 C 0.10059 0.22483 1.11194
 C130 C 0.15958 0.20826 1.12630
 C131 C 0.16690 0.25930 1.16284
 C132 C 0.18101 0.23867 1.07493
 C133 C 0.12177 0.25613 1.06096
 C134 C 0.12881 0.30762 1.09726
 C135 C 0.18796 0.29083 1.11117
 H136 H 0.07687 0.29150 1.17890
 H137 H 0.06471 0.19723 1.11095
 H138 H 0.18578 0.26052 1.20478
 H139 H 0.21095 0.22506 1.04334
 H140 H 0.10288 0.25492 1.01898
 H141 H 0.22380 0.31847 1.11066
 C142 C -0.10733 0.68024 1.20471
 C143 C -0.13391 0.73250 1.18007
 C144 C -0.18739 0.71832 1.20994
 C145 C -0.16145 0.66650 1.23497
 C146 C -0.20786 0.68538 1.15938
 C147 C -0.15386 0.69915 1.12909
 C148 C -0.12733 0.64752 1.15388
 C149 C -0.18088 0.63334 1.18379
 H150 H -0.06622 0.67819 1.22423
 H151 H -0.11398 0.77304 1.17768
 H152 H -0.16561 0.65250 1.27853
 H153 H -0.24854 0.68562 1.13909
 H154 H -0.15059 0.71230 1.08516
 H155 H -0.19978 0.59219 1.18524
 C156 C -0.18514 0.35488 0.83113
 C157 C -0.16496 0.32344 0.77908
 C158 C -0.18743 0.27010 0.80368
 C159 C -0.20872 0.30130 0.85509
 C160 C -0.13270 0.25794 0.83271
 C161 C -0.10956 0.31186 0.80874
 C162 C -0.13042 0.34276 0.86032
 C163 C -0.15350 0.28941 0.88447
 H164 H -0.20637 0.39511 0.83074
 H165 H -0.17070 0.33800 0.73583
 H166 H -0.24839 0.30022 0.87694
 H167 H -0.11095 0.21801 0.83357
 H168 H -0.06852 0.31665 0.78990
 H169 H -0.14948 0.27391 0.92754
 C170 C 0.10250 0.73134 0.83759
 C171 C 0.09614 0.78337 0.87390
 C172 C 0.15629 0.79709 0.86263
 C173 C 0.16312 0.74590 0.82616
 C174 C 0.17439 0.76545 0.91480
 C175 C 0.11400 0.75089 0.92573
 C176 C 0.12042 0.69933 0.88954
 C177 C 0.18078 0.71317 0.87862
 H178 H 0.07271 0.71696 0.80594
 H179 H 0.06142 0.81275 0.87288
 H180 H 0.18364 0.74417 0.78518
 H181 H 0.20358 0.77738 0.94789
 H182 H 0.09355 0.75256 0.96678
 H183 H 0.21575 0.68413 0.88048
 C184 C 1.12977 0.16770 0.27970
 C185 C 1.18504 0.15012 0.25312
 C186 C 1.15449 0.13787 0.19869
 C187 C 1.09960 0.15568 0.22429
 C188 C 1.14472 0.07840 0.21633
 C189 C 1.17494 0.09025 0.27179
 C190 C 1.12020 0.10825 0.29769
 C191 C 1.09009 0.09614 0.24279
 H192 H 1.12341 0.20437 0.30622
 H193 H 1.22420 0.17256 0.25699
 H194 H 1.06668 0.18206 0.20736
 H195 H 1.14966 0.04162 0.18968
 H196 H 1.20611 0.06306 0.29101
 H197 H 1.05099 0.07360 0.23864
 C198 C 1.09549 -0.08791 0.74360
 C199 C 1.10395 -0.14814 0.76077
 C200 C 1.15712 -0.13167 0.79077
 C201 C 1.14835 -0.07157 0.77443
 C202 C 1.19092 -0.14254 0.73822
 C203 C 1.13744 -0.15867 0.70719
 C204 C 1.12895 -0.09845 0.69064
 C205 C 1.18192 -0.08197 0.72093
 H206 H 1.05612 -0.06519 0.74544
 H207 H 1.07021 -0.17473 0.77468
 H208 H 1.15186 -0.03576 0.80262
 H209 H 1.23022 -0.16532 0.73628
 H210 H 1.13314 -0.19473 0.67946
 H211 H 1.21386 -0.05456 0.70416
 C212 C 0.82381 -0.12792 0.31464
 C213 C 0.84601 -0.15831 0.26281
 C214 C 0.81429 -0.20941 0.28051
 C215 C 0.79159 -0.17962 0.33187
 C216 C 0.86352 -0.23052 0.31447
 C217 C 0.89575 -0.17890 0.29711
 C218 C 0.87329 -0.14862 0.34839
 C219 C 0.84144 -0.19972 0.36603
 H220 H 0.80755 -0.08546 0.31505
 H221 H 0.84839 -0.14064 0.22054
 H222 H 0.74872 -0.18079 0.34672
 H223 H 0.88163 -0.27205 0.31650
 H224 H 0.93850 -0.17921 0.28190
 H225 H 0.83984 -0.21639 0.40881
 C226 C 0.83743 0.20138 0.64584
 C227 C 0.78780 0.18068 0.67944
 C228 C 0.81388 0.20340 0.73285
 C229 C 0.86296 0.22527 0.69958
 C230 C 0.84369 0.14898 0.74381
 C231 C 0.81790 0.12561 0.68991
 C232 C 0.86712 0.14680 0.65682
 C233 C 0.89300 0.17018 0.71002
 H234 H 0.83489 0.22259 0.60522
 H235 H 0.74449 0.18588 0.66649
 H236 H 0.88394 0.26525 0.70085
 H237 H 0.84681 0.12726 0.78408
 H238 H 0.79881 0.08472 0.68570
 H239 H 0.93660 0.16571 0.72221
 C240 C 0.28108 1.07470 0.09380
 C241 C 0.25983 1.08514 0.15315
 C242 C 0.23060 1.13703 0.13209
 C243 C 0.25108 1.12630 0.07283
 C244 C 0.28079 1.17230 0.14536
 C245 C 0.31111 1.12008 0.16615
 C246 C 0.33182 1.10956 0.10682
 C247 C 0.30226 1.16130 0.08569
 H248 H 0.28140 1.03449 0.07224
 H249 H 0.24498 1.05232 0.18072
 H250 H 0.22583 1.12795 0.03447
 H251 H 0.28032 1.21247 0.16691
 H252 H 0.33633 1.11737 0.20446
 H253 H 0.31924 1.19295 0.05780
 C254 C 0.73163 1.11907 -0.16279
 C255 C 0.71644 1.14843 -0.21776
 C256 C 0.74744 1.19941 -0.19680
 C257 C 0.76303 1.17032 -0.14245
 C258 C 0.69476 1.22238 -0.17081
 C259 C 0.66363 1.17081 -0.19056
 C260 C 0.67923 1.14183 -0.13609
 C261 C 0.70995 1.19295 -0.11572
 H262 H 0.74654 1.07626 -0.15934
 H263 H 0.71623 1.12772 -0.25868
 H264 H 0.80394 1.16948 -0.12240
 H265 H 0.67870 1.26468 -0.17527
 H266 H 0.62237 1.17079 -0.20993
 H267 H 0.70758 1.21212 -0.07398
 C268 C 0.28055 0.92515 -0.09690
 C269 C 0.26115 0.91645 -0.15729
 C270 C 0.22993 0.86528 -0.13849
 C271 C 0.24856 0.87428 -0.07819
 C272 C 0.27965 0.82846 -0.15022
 C273 C 0.31191 0.87994 -0.16875
 C274 C 0.33084 0.88875 -0.10841
 C275 C 0.29933 0.83772 -0.08947
 H276 H 0.28113 0.96497 -0.07463
 H277 H 0.24790 0.95030 -0.18472
 H278 H 0.22198 0.87296 -0.04098
 H279 H 0.27885 0.78867 -0.17248
 H280 H 0.33847 0.88240 -0.20591
 H281 H 0.31470 0.80511 -0.06144
 C282 C 0.66064 0.82160 0.19825
 C283 C 0.69168 0.76915 0.18043
 C284 C 0.74387 0.79150 0.20788
 C285 C 0.71300 0.84339 0.22669
 C286 C 0.76117 0.81905 0.15346
 C287 C 0.70850 0.79712 0.12536
 C288 C 0.67784 0.84924 0.14377
 C289 C 0.72987 0.87140 0.17172
 H290 H 0.61895 0.82275 0.21627
 H291 H 0.67548 0.72709 0.18496
 H292 H 0.71296 0.86429 0.26753
 H293 H 0.80240 0.81874 0.13449
 H294 H 0.70687 0.77725 0.08392
 H295 H 0.74536 0.91381 0.16797
   
