data_POSCAR
  _audit_creation_date              2014-09-24
  _audit_creation_method            'ToBaCCo'
  _symmetry_space_group_name_H-M    'P1'
  _symmetry_Int_Tables_number       1
  _symmetry_cell_setting            triclinic
  loop_
  _symmetry_equiv_pos_as_xyz
 x,y,z
_cell_length_a 31.9430
_cell_length_b 32.0649
_cell_length_c 63.0422
_cell_angle_alpha 90.052700
_cell_angle_beta 90.069100
_cell_angle_gamma 120.540300
loop_
  _atom_site_label
  _atom_site_type_symbol
  _atom_site_fract_x
  _atom_site_fract_y
  _atom_site_fract_z
C1 C -0.02658 0.48573 1.24868
 C2 C 0.02298 0.51100 1.24866
 C3 C 0.05092 0.52070 1.26869
 C4 C 0.05067 0.52907 1.22862
 C5 C -0.05452 0.46655 1.22868
 C6 C -0.05412 0.47609 1.26878
 C7 C 0.08448 0.56838 1.27483
 C8 C 0.10697 0.57767 1.29473
 C9 C 0.09644 0.53923 1.30852
 C10 C 0.06454 0.49148 1.30204
 C11 C 0.04214 0.48227 1.28219
 C12 C 0.04145 0.55781 1.21476
 C13 C 0.06391 0.57073 1.19494
 C14 C 0.09610 0.55544 1.18886
 C15 C 0.10697 0.52848 1.20294
 C16 C 0.08453 0.51554 1.22280
 C17 C -0.04554 0.43685 1.21532
 C18 C -0.06792 0.42297 1.19546
 C19 C -0.09978 0.43826 1.18883
 C20 C -0.11048 0.46616 1.20244
 C21 C -0.08813 0.48004 1.22236
 C22 C -0.08694 0.42836 1.27505
 C23 C -0.10814 0.41911 1.29520
 C24 C -0.09707 0.45754 1.30908
 C25 C -0.06607 0.50527 1.30251
 C26 C -0.04491 0.51454 1.28242
 H27 H 0.09177 0.59841 1.26457
 H28 H 0.13158 0.61483 1.29950
 H29 H 0.05605 0.46133 1.31247
 H30 H 0.01689 0.44521 1.27756
 H31 H 0.01593 0.56914 1.21912
 H32 H 0.05540 0.59174 1.18419
 H33 H 0.09213 0.49345 1.23330
 H34 H -0.02019 0.42557 1.22005
 H35 H -0.05950 0.40127 1.18509
 H36 H -0.13509 0.47819 1.19744
 H37 H -0.09550 0.50286 1.23248
 H38 H -0.09444 0.39830 1.26473
 H39 H -0.13210 0.38204 1.30015
 H40 H -0.05736 0.53523 1.31311
 H41 H -0.02010 0.55163 1.27773
 H42 H 0.13186 0.51651 1.19836
 C43 C 0.51561 0.48837 1.24939
 C44 C 0.49439 0.51610 1.24959
 C45 C 0.47901 0.52807 1.26979
 C46 C 0.48563 0.53529 1.22973
 C47 C 0.52560 0.47114 1.22924
 C48 C 0.52942 0.47432 1.26946
 C49 C 0.44706 0.49103 1.28354
 C50 C 0.43752 0.50227 1.30368
 C51 C 0.45913 0.55061 1.31016
 C52 C 0.48916 0.58781 1.29617
 C53 C 0.49891 0.57659 1.27600
 C54 C 0.43829 0.52389 1.22440
 C55 C 0.42901 0.53798 1.20481
 C56 C 0.46705 0.56401 1.19049
 C57 C 0.51461 0.57701 1.19605
 C58 C 0.52394 0.56297 1.21563
 C59 C 0.57321 0.48284 1.22432
 C60 C 0.58373 0.47109 1.20444
 C61 C 0.54667 0.44713 1.18941
 C62 C 0.49881 0.43367 1.19454
 C63 C 0.48822 0.44528 1.21441
 C64 C 0.56085 0.50998 1.28390
 C65 C 0.56800 0.49694 1.30411
 C66 C 0.54428 0.44814 1.31000
 C67 C 0.51487 0.41224 1.29531
 C68 C 0.50765 0.42528 1.27505
 H69 H 0.43086 0.45342 1.27890
 H70 H 0.41417 0.47323 1.31437
 H71 H 0.50595 0.62535 1.30103
 H72 H 0.52350 0.60560 1.26559
 H73 H 0.40835 0.50261 1.23508
 H74 H 0.39207 0.52768 1.20063
 H75 H 0.56080 0.57263 1.21960
 H76 H 0.60245 0.50268 1.23557
 H77 H 0.62088 0.48165 1.20061
 H78 H 0.46986 0.41510 1.18303
 H79 H 0.45114 0.43532 1.21804
 H80 H 0.57824 0.54796 1.27977
 H81 H 0.59091 0.52497 1.31534
 H82 H 0.49642 0.37437 1.29973
 H83 H 0.48328 0.39735 1.26410
 H84 H 0.54430 0.59716 1.18509
 C85 C 0.51676 1.02886 1.25215
 C86 C 0.49041 0.97946 1.25232
 C87 C 0.47928 0.95179 1.27244
 C88 C 0.47110 0.95148 1.23235
 C89 C 0.53370 1.05598 1.23191
 C90 C 0.52802 1.05729 1.27209
 C91 C 0.51670 0.96026 1.28668
 C92 C 0.50572 0.93751 1.30645
 C93 C 0.45728 0.90556 1.31209
 C94 C 0.41990 0.89565 1.29766
 C95 C 0.43089 0.91851 1.27788
 C96 C 0.48444 0.91775 1.22620
 C97 C 0.47065 0.89537 1.20630
 C98 C 0.44307 0.90624 1.19252
 C99 C 0.42793 0.93826 1.19897
 C100 C 0.44161 0.96055 1.21883
 C101 C 0.51914 1.08903 1.22621
 C102 C 0.52957 1.10981 1.20599
 C103 C 0.55501 1.09801 1.19139
 C104 C 0.57152 1.06675 1.19735
 C105 C 0.56119 1.04609 1.21755
 C106 C 0.49055 1.04907 1.28619
 C107 C 0.50140 1.07214 1.30590
 C108 C 0.54978 1.10426 1.31162
 C109 C 0.58723 1.11427 1.29726
 C110 C 0.57636 1.09101 1.27752
 H111 H 0.55430 0.98535 1.28266
 H112 H 0.53500 0.94552 1.31744
 H113 H 0.38225 0.87104 1.30182
 H114 H 0.40160 0.91156 1.26710
 H115 H 0.50708 0.91026 1.23644
 H116 H 0.48255 0.87064 1.20146
 H117 H 0.43044 0.98600 1.22344
 H118 H 0.49791 1.09705 1.23708
 H119 H 0.51660 1.13396 1.20159
 H120 H 0.59130 1.05735 1.18624
 H121 H 0.57320 1.02110 1.22177
 H122 H 0.45299 1.02377 1.28214
 H123 H 0.47206 1.06410 1.31681
 H124 H 0.62484 1.13913 1.30148
 H125 H 0.60570 1.09795 1.26681
 H126 H 0.40655 0.94689 1.18845
 C127 C 1.03060 0.51297 0.74960
 C128 C 0.98102 0.48841 0.75003
 C129 C 0.95234 0.47856 0.73023
 C130 C 0.95383 0.47033 0.77023
 C131 C 1.05951 0.52994 0.76948
 C132 C 1.05727 0.52328 0.72921
 C133 C 0.96010 0.51681 0.71682
 C134 C 0.93725 0.50720 0.69705
 C135 C 0.90610 0.45932 0.69059
 C136 C 0.89658 0.42110 0.70427
 C137 C 0.91941 0.43070 0.72409
 C138 C 0.92030 0.48407 0.77638
 C139 C 0.89787 0.47057 0.79624
 C140 C 0.90838 0.44282 0.81001
 C141 C 0.94047 0.42761 0.80365
 C142 C 0.96285 0.44101 0.78381
 C143 C 1.09286 0.51518 0.77450
 C144 C 1.11566 0.52616 0.79436
 C145 C 1.10561 0.55239 0.80925
 C146 C 1.07400 0.56898 0.80394
 C147 C 1.05135 0.55814 0.78411
 C148 C 1.04777 0.48532 0.71521
 C149 C 1.06825 0.49528 0.69495
 C150 C 1.09892 0.54328 0.68856
 C151 C 1.11029 0.58122 0.70281
 C152 C 1.08971 0.57123 0.72310
 H153 H 0.98495 0.55399 0.72144
 H154 H 0.94479 0.53703 0.68661
 H155 H 0.87256 0.38392 0.69940
 H156 H 0.91302 0.40081 0.73424
 H157 H 0.91284 0.50659 0.76611
 H158 H 0.87311 0.48256 0.80103
 H159 H 0.98809 0.42949 0.77922
 H160 H 1.09958 0.49344 0.76341
 H161 H 1.14004 0.51308 0.79826
 H162 H 1.06588 0.58929 0.81530
 H163 H 1.02618 0.57033 0.78042
 H164 H 1.02328 0.44807 0.71976
 H165 H 1.05916 0.46554 0.68414
 H166 H 1.13396 0.61854 0.69808
 H167 H 1.09743 0.60092 0.73369
 H168 H 0.94882 0.40610 0.81416
 C169 C 0.48939 0.51801 0.75139
 C170 C 0.51225 0.49180 0.75141
 C171 C 0.52285 0.47502 0.73127
 C172 C 0.52728 0.47909 0.77152
 C173 C 0.47488 0.53132 0.77147
 C174 C 0.47789 0.53399 0.73126
 C175 C 0.48515 0.44603 0.71705
 C176 C 0.49586 0.43672 0.69673
 C177 C 0.54427 0.45568 0.69055
 C178 C 0.58188 0.48237 0.70504
 C179 C 0.57121 0.49185 0.72537
 C180 C 0.50784 0.43029 0.77704
 C181 C 0.51645 0.41795 0.79719
 C182 C 0.54491 0.45428 0.81189
 C183 C 0.56618 0.50301 0.80611
 C184 C 0.55773 0.51539 0.78597
 C185 C 0.49463 0.58028 0.77682
 C186 C 0.48622 0.59319 0.79689
 C187 C 0.45768 0.55728 0.81166
 C188 C 0.43613 0.50837 0.80604
 C189 C 0.44442 0.49542 0.78598
 C190 C 0.51498 0.56289 0.71685
 C191 C 0.50338 0.57199 0.69666
 C192 C 0.45470 0.55278 0.69078
 C193 C 0.41770 0.52591 0.70544
 C194 C 0.42926 0.51674 0.72565
 H195 H 0.44761 0.43235 0.72142
 H196 H 0.46649 0.41590 0.68566
 H197 H 0.61945 0.49707 0.70042
 H198 H 0.60070 0.51423 0.73614
 H199 H 0.48431 0.40186 0.76610
 H200 H 0.49991 0.38013 0.80150
 H201 H 0.57345 0.55324 0.78188
 H202 H 0.51823 0.60840 0.76583
 H203 H 0.50307 0.63112 0.80108
 H204 H 0.41395 0.48028 0.81733
 H205 H 0.42851 0.45746 0.78202
 H206 H 0.55272 0.57680 0.72100
 H207 H 0.53228 0.59291 0.68546
 H208 H 0.37991 0.51089 0.70104
 H209 H 0.40025 0.49432 0.73655
 H210 H 0.58835 0.53140 0.81734
 C211 C 0.48450 -0.03115 0.74837
 C212 C 0.50986 0.01825 0.74846
 C213 C 0.52833 0.04635 0.72855
 C214 C 0.51993 0.04582 0.76856
 C215 C 0.47365 -0.05884 0.76845
 C216 C 0.46640 -0.05892 0.72830
 C217 C 0.55718 0.03742 0.71459
 C218 C 0.57086 0.06078 0.69500
 C219 C 0.55628 0.09364 0.68926
 C220 C 0.52925 0.10423 0.70346
 C221 C 0.51554 0.08087 0.72309
 C222 C 0.56801 0.07850 0.77471
 C223 C 0.57775 0.10028 0.79475
 C224 C 0.53946 0.08988 0.80863
 C225 C 0.49138 0.05901 0.80218
 C226 C 0.48161 0.03733 0.78219
 C227 C 0.42531 -0.09095 0.77435
 C228 C 0.41475 -0.11194 0.79453
 C229 C 0.45252 -0.10134 0.80885
 C230 C 0.50090 -0.07123 0.80262
 C231 C 0.51143 -0.05033 0.78247
 C232 C 0.43826 -0.04934 0.71416
 C233 C 0.42533 -0.07198 0.69436
 C234 C 0.43984 -0.10493 0.68859
 C235 C 0.46604 -0.11627 0.70299
 C236 C 0.47906 -0.09353 0.72282
 H237 H 0.56807 0.01151 0.71870
 H238 H 0.59191 0.05247 0.68415
 H239 H 0.51782 0.12964 0.69915
 H240 H 0.49349 0.08836 0.73370
 H241 H 0.59796 0.08556 0.76437
 H242 H 0.61509 0.12418 0.79961
 H243 H 0.44426 0.01275 0.77756
 H244 H 0.39577 -0.09794 0.76372
 H245 H 0.37715 -0.13519 0.79915
 H246 H 0.53047 -0.06277 0.81351
 H247 H 0.54897 -0.02608 0.77807
 H248 H 0.42743 -0.02338 0.71828
 H249 H 0.40494 -0.06296 0.68341
 H250 H 0.47742 -0.14176 0.69873
 H251 H 0.50053 -0.10154 0.73356
 H252 H 0.46151 0.05084 0.81279
 O253 O 0.41730 0.67421 0.98397
 O254 O 0.40751 0.74809 0.97622
 C255 C 0.38079 0.76509 0.97125
 O256 O 0.34477 0.75881 0.98229
 O257 O 0.27067 0.67389 0.97422
 C258 C 0.25329 0.62960 0.96989
 O259 O 0.25857 0.60049 0.98173
 O260 O 0.34401 0.61139 0.97601
 C261 C 0.38882 0.63866 0.97223
 O262 O 0.41006 0.68770 1.02608
 O263 O 0.40545 0.76457 1.01844
 C264 C 0.37167 0.76345 1.02954
 O265 O 0.32731 0.73955 1.02439
 O266 O 0.25032 0.65716 1.01621
 C267 C 0.25026 0.62533 1.02822
 O268 O 0.27420 0.60470 1.02434
 O269 O 0.35697 0.61023 1.01856
 C270 C 0.38905 0.64309 1.03039
 Cr271 Cr 0.40784 0.71736 1.00115
 Cr272 Cr 0.29957 0.70644 0.99929
 Cr273 Cr 0.30936 0.60892 1.00015
 O274 O 0.33895 0.67756 1.00014
 O275 O 0.58846 0.33539 0.98297
 O276 O 0.58733 0.25525 0.97576
 C277 C 0.60972 0.23336 0.97115
 O278 O 0.64345 0.23510 0.98254
 O279 O 0.72407 0.31441 0.97409
 C280 C 0.74647 0.35885 0.96930
 O281 O 0.74500 0.39123 0.98039
 O282 O 0.66452 0.39105 0.97435
 C283 C 0.61923 0.36839 0.97086
 O284 O 0.59406 0.32196 1.02512
 O285 O 0.58693 0.23889 1.01804
 C286 C 0.61807 0.23579 1.02944
 O287 O 0.66243 0.25518 1.02454
 O288 O 0.74515 0.33153 1.01599
 C289 C 0.75065 0.36682 1.02728
 O290 O 0.73134 0.39178 1.02293
 O291 O 0.65365 0.39657 1.01685
 C292 C 0.61988 0.36677 1.02899
 Cr293 Cr 0.59144 0.28891 1.00044
 Cr294 Cr 0.69267 0.28521 0.99928
 Cr295 Cr 0.69744 0.39042 0.99865
 O296 O 0.66058 0.32157 0.99942
 O297 O 0.65493 0.41304 0.51778
 O298 O 0.73534 0.41347 0.52419
 C299 C 0.75647 0.39032 0.52880
 O300 O 0.75349 0.35599 0.51755
 O301 O 0.67334 0.27621 0.52540
 C302 C 0.62879 0.25409 0.53016
 O303 O 0.59659 0.25645 0.51925
 O304 O 0.59835 0.33721 0.52609
 C305 C 0.62165 0.38223 0.52981
 O306 O 0.66714 0.40832 0.47536
 O307 O 0.75030 0.41424 0.48168
 C308 C 0.75405 0.38313 0.47062
 O309 O 0.73403 0.33890 0.47546
 O310 O 0.65625 0.25703 0.48333
 C311 C 0.62104 0.25258 0.47217
 O312 O 0.59626 0.27192 0.47691
 O313 O 0.59228 0.34950 0.48386
 C314 C 0.62198 0.38325 0.47174
 Cr315 Cr 0.70085 0.40999 0.49978
 Cr316 Cr 0.70309 0.30817 0.50044
 Cr317 Cr 0.59818 0.30494 0.50150
 O318 O 0.66741 0.34103 0.50059
 O319 O 0.33911 0.58560 0.51711
 O320 O 0.25960 0.58718 0.52292
 C321 C 0.23872 0.61086 0.52692
 O322 O 0.24218 0.64462 0.51515
 O323 O 0.32309 0.72356 0.52346
 C324 C 0.36753 0.74462 0.52851
 O325 O 0.39961 0.74237 0.51750
 O326 O 0.39668 0.66141 0.52496
 C327 C 0.37271 0.61662 0.52902
 O328 O 0.32737 0.58894 0.47455
 O329 O 0.24504 0.58519 0.48031
 C330 C 0.24261 0.61626 0.46866
 O331 O 0.26315 0.66079 0.47318
 O332 O 0.34148 0.74242 0.48143
 C333 C 0.37666 0.74627 0.47047
 O334 O 0.40028 0.72575 0.47528
 O335 O 0.40263 0.64748 0.48290
 C336 C 0.37256 0.61338 0.47095
 Cr337 Cr 0.29387 0.58897 0.49872
 Cr338 Cr 0.29363 0.69174 0.49832
 Cr339 Cr 0.39750 0.69310 0.50012
 O340 O 0.32834 0.65792 0.49903
 C341 C 0.41883 0.59297 0.41372
 C342 C 0.42148 0.62490 0.39755
 C343 C 0.43081 0.61744 0.37627
 C344 C 0.43848 0.57874 0.37137
 C345 C 0.43846 0.54844 0.38772
 C346 C 0.42847 0.55552 0.40897
 C347 C 0.42851 0.52478 0.42504
 C348 C 0.43857 0.48829 0.42029
 C349 C 0.44831 0.48131 0.39952
 C350 C 0.44815 0.51084 0.38334
 C351 C 0.43214 0.64912 0.36029
 C352 C 0.42519 0.68754 0.36526
 C353 C 0.41680 0.69526 0.38612
 C354 C 0.41470 0.66434 0.40213
 C355 C 0.44597 0.56979 0.34953
 C356 C 0.45195 0.56161 0.33148
 C357 C 0.40409 0.59784 0.43491
 C358 C 0.39037 0.60365 0.45185
 H359 H 0.42124 0.52895 0.44143
 H360 H 0.43889 0.46534 0.43279
 H361 H 0.45616 0.45297 0.39591
 H362 H 0.45601 0.50405 0.36744
 H363 H 0.43890 0.64478 0.34385
 H364 H 0.42660 0.71163 0.35290
 H365 H 0.41198 0.72539 0.38993
 H366 H 0.40783 0.67181 0.41809
 C367 C 0.40716 0.81375 0.41297
 C368 C 0.44922 0.85904 0.40880
 C369 C 0.45926 0.87746 0.38775
 C370 C 0.42754 0.85014 0.37098
 C371 C 0.38557 0.80474 0.37514
 C372 C 0.37489 0.78689 0.39626
 C373 C 0.33203 0.74193 0.40010
 C374 C 0.30105 0.71515 0.38354
 C375 C 0.31210 0.73203 0.36283
 C376 C 0.35378 0.77637 0.35860
 C377 C 0.50132 0.92305 0.38399
 C378 C 0.53271 0.94950 0.40051
 C379 C 0.52297 0.93140 0.42107
 C380 C 0.48178 0.88666 0.42525
 C381 C 0.43778 0.86914 0.34951
 C382 C 0.44665 0.88572 0.33184
 C383 C 0.39800 0.79329 0.43416
 C384 C 0.38913 0.77360 0.45119
 H385 H 0.32198 0.72703 0.41592
 H386 H 0.26825 0.68115 0.38679
 H387 H 0.28810 0.71079 0.35001
 H388 H 0.36078 0.78815 0.34224
 H389 H 0.51040 0.93873 0.36828
 H390 H 0.56468 0.98433 0.39734
 H391 H 0.54744 0.95213 0.43385
 H392 H 0.47571 0.87408 0.44150
 C393 C 0.18022 0.57861 0.40997
 C394 C 0.21075 0.57955 0.39346
 C395 C 0.19408 0.57188 0.37211
 C396 C 0.14672 0.56251 0.36745
 C397 C 0.11570 0.56017 0.38402
 C398 C 0.13260 0.56851 0.40535
 C399 C 0.10112 0.56641 0.42162
 C400 C 0.05404 0.55585 0.41699
 C401 C 0.03738 0.54737 0.39616
 C402 C 0.06774 0.54962 0.37980
 C403 C 0.22551 0.57378 0.35584
 C404 C 0.27191 0.58249 0.36054
 C405 C 0.28800 0.58947 0.38143
 C406 C 0.25810 0.58833 0.39775
 C407 C 0.12961 0.55474 0.34565
 C408 C 0.11436 0.54771 0.32772
 C409 C 0.19880 0.58977 0.43152
 C410 C 0.21696 0.60074 0.44891
 H411 H 0.11245 0.57260 0.43807
 H412 H 0.03031 0.55413 0.42964
 H413 H 0.00073 0.53896 0.39265
 H414 H 0.05313 0.54280 0.36385
 H415 H 0.21450 0.56833 0.33935
 H416 H 0.29541 0.58357 0.34793
 H417 H 0.32377 0.59562 0.38499
 H418 H 0.27250 0.59431 0.41372
 C419 C 0.57504 0.40301 0.41443
 C420 C 0.56266 0.36598 0.39920
 C421 C 0.55390 0.37328 0.37780
 C422 C 0.55708 0.41734 0.37183
 C423 C 0.56632 0.45303 0.38734
 C424 C 0.57547 0.44589 0.40872
 C425 C 0.58500 0.48218 0.42392
 C426 C 0.58504 0.52418 0.41820
 C427 C 0.57598 0.53114 0.39732
 C428 C 0.56686 0.49617 0.38198
 C429 C 0.54213 0.33602 0.36280
 C430 C 0.53820 0.29237 0.36885
 C431 C 0.54607 0.28497 0.38984
 C432 C 0.55878 0.32141 0.40485
 C433 C 0.55195 0.42656 0.34972
 C434 C 0.54835 0.43556 0.33148
 C435 C 0.58993 0.39778 0.43556
 C436 C 0.60381 0.39215 0.45252
 H437 H 0.59206 0.47825 0.44037
 H438 H 0.59207 0.55145 0.43005
 H439 H 0.57588 0.56375 0.39297
 H440 H 0.55983 0.50315 0.36597
 H441 H 0.53530 0.33998 0.34632
 H442 H 0.52876 0.26405 0.35723
 H443 H 0.54239 0.25080 0.39450
 H444 H 0.56486 0.31399 0.42095
 C445 C 0.59465 0.19074 0.41350
 C446 C 0.56456 0.14069 0.40928
 C447 C 0.55555 0.12377 0.38798
 C448 C 0.57688 0.15705 0.37103
 C449 C 0.60639 0.20721 0.37525
 C450 C 0.61556 0.22409 0.39655
 C451 C 0.64507 0.27449 0.40036
 C452 C 0.66430 0.30723 0.38362
 C453 C 0.65516 0.29068 0.36280
 C454 C 0.62672 0.24127 0.35856
 C455 C 0.52469 0.07360 0.38413
 C456 C 0.50324 0.04116 0.40085
 C457 C 0.51240 0.05767 0.42168
 C458 C 0.54273 0.10684 0.42595
 C459 C 0.56814 0.13951 0.34932
 C460 C 0.56010 0.12374 0.33147
 C461 C 0.60264 0.20865 0.43514
 C462 C 0.61023 0.22657 0.45255
 H463 H 0.65341 0.28922 0.41627
 H464 H 0.68660 0.34562 0.38684
 H465 H 0.67022 0.31626 0.34986
 H466 H 0.62054 0.23015 0.34210
 H467 H 0.51647 0.05893 0.36821
 H468 H 0.47928 0.00301 0.39762
 H469 H 0.49575 0.03226 0.43460
 H470 H 0.54868 0.11805 0.44241
 C471 C 0.82001 0.41568 0.41274
 C472 C 0.80471 0.37609 0.39862
 C473 C 0.82110 0.38446 0.37726
 C474 C 0.85333 0.43227 0.37025
 C475 C 0.86957 0.47173 0.38450
 C476 C 0.85279 0.46340 0.40582
 C477 C 0.86928 0.50335 0.41975
 C478 C 0.90153 0.55029 0.41284
 C479 C 0.91793 0.55848 0.39200
 C480 C 0.90225 0.51980 0.37792
 C481 C 0.80455 0.34443 0.36333
 C482 C 0.77312 0.29741 0.37037
 C483 C 0.75763 0.28914 0.39133
 C484 C 0.77297 0.32789 0.40534
 C485 C 0.87008 0.44083 0.34844
 C486 C 0.88450 0.44816 0.33040
 C487 C 0.80000 0.40717 0.43401
 C488 C 0.78078 0.39789 0.45116
 H489 H 0.85757 0.49870 0.43612
 H490 H 0.91385 0.58046 0.42372
 H491 H 0.94302 0.59501 0.38673
 H492 H 0.91610 0.52800 0.36188
 H493 H 0.81571 0.34901 0.34689
 H494 H 0.76073 0.26722 0.35951
 H495 H 0.73315 0.25256 0.39672
 H496 H 0.75958 0.31956 0.42145
 C497 C 0.59777 0.40882 1.08694
 C498 C 0.62569 0.40685 1.10397
 C499 C 0.61533 0.41412 1.12511
 C500 C 0.57790 0.42444 1.12904
 C501 C 0.55114 0.42808 1.11193
 C502 C 0.56106 0.42013 1.09082
 C503 C 0.53374 0.42371 1.07397
 C504 C 0.49774 0.43508 1.07787
 C505 C 0.48809 0.44292 1.09851
 C506 C 0.51425 0.43939 1.11541
 C507 C 0.64279 0.41062 1.14194
 C508 C 0.67988 0.40087 1.13795
 C509 C 0.69049 0.39454 1.11725
 C510 C 0.66373 0.39722 1.10040
 C511 C 0.56715 0.43178 1.15061
 C512 C 0.55797 0.43835 1.16841
 C513 C 0.60515 0.39645 1.06568
 C514 C 0.61145 0.38414 1.04850
 H515 H 0.54014 0.41810 1.05765
 H516 H 0.47730 0.43789 1.06481
 H517 H 0.46022 0.45184 1.10145
 H518 H 0.50532 0.44572 1.13119
 H519 H 0.63599 0.41549 1.15831
 H520 H 0.70066 0.39845 1.15098
 H521 H 0.71969 0.38763 1.11424
 H522 H 0.67330 0.39180 1.08458
 C523 C 0.81630 0.39172 1.08516
 C524 C 0.78704 0.35967 1.10142
 C525 C 0.80320 0.36908 1.12284
 C526 C 0.84916 0.40967 1.12779
 C527 C 0.87911 0.44081 1.11144
 C528 C 0.86254 0.43187 1.09007
 C529 C 0.89289 0.46361 1.07402
 C530 C 0.93848 0.50306 1.07893
 C531 C 0.95475 0.51182 1.09982
 C532 C 0.92553 0.48122 1.11595
 C533 C 0.77254 0.33752 1.13889
 C534 C 0.72752 0.29734 1.13388
 C535 C 0.71221 0.28758 1.11290
 C536 C 0.74133 0.31831 1.09680
 C537 C 0.86595 0.41916 1.14964
 C538 C 0.88081 0.42748 1.16764
 C539 C 0.79712 0.38465 1.06374
 C540 C 0.77798 0.37749 1.04658
 H541 H 0.88183 0.45811 1.05753
 H542 H 0.96132 0.52693 1.06645
 H543 H 0.99020 0.54250 1.10355
 H544 H 0.93974 0.48959 1.13196
 H545 H 0.78299 0.34353 1.15544
 H546 H 0.70450 0.27352 1.14633
 H547 H 0.67761 0.25603 1.10906
 H548 H 0.72759 0.30922 1.08074
 C549 C 0.58273 0.17494 1.08830
 C550 C 0.58140 0.13134 1.09341
 C551 C 0.57617 0.11604 1.11489
 C552 C 0.57204 0.14435 1.13111
 C553 C 0.57265 0.18762 1.12595
 C554 C 0.57766 0.20278 1.10447
 C555 C 0.57816 0.24618 1.09970
 C556 C 0.57374 0.27370 1.11569
 C557 C 0.56933 0.25914 1.13671
 C558 C 0.56873 0.21659 1.14188
 C559 C 0.57550 0.07257 1.11964
 C560 C 0.57968 0.04493 1.10362
 C561 C 0.58443 0.05973 1.08261
 C562 C 0.58539 0.10247 1.07747
 C563 C 0.56663 0.12864 1.15303
 C564 C 0.56158 0.11483 1.17113
 C565 C 0.59264 0.19307 1.06671
 C566 C 0.60296 0.21074 1.04927
 H567 H 0.58178 0.25921 1.08359
 H568 H 0.57354 0.30639 1.11174
 H569 H 0.56617 0.28085 1.14907
 H570 H 0.56512 0.20666 1.15846
 H571 H 0.57163 0.05941 1.13573
 H572 H 0.57887 0.01166 1.10753
 H573 H 0.58736 0.03799 1.07021
 H574 H 0.58910 0.11253 1.06090
 C575 C 0.42086 0.61123 1.08868
 C576 C 0.40863 0.56386 1.09469
 C577 C 0.41721 0.55467 1.11583
 C578 C 0.43842 0.59305 1.13075
 C579 C 0.45015 0.64035 1.12480
 C580 C 0.44136 0.64948 1.10369
 C581 C 0.45326 0.69706 1.09811
 C582 C 0.47309 0.73445 1.11298
 C583 C 0.48148 0.72544 1.13364
 C584 C 0.47035 0.67904 1.13956
 C585 C 0.40390 0.50682 1.12158
 C586 C 0.38268 0.46916 1.10687
 C587 C 0.37485 0.47827 1.08613
 C588 C 0.38762 0.52502 1.08002
 C589 C 0.44853 0.58381 1.15213
 C590 C 0.45698 0.57534 1.16974
 C591 C 0.41056 0.62044 1.06734
 C592 C 0.40125 0.62958 1.05005
 H593 H 0.44723 0.70587 1.08226
 H594 H 0.48168 0.77052 1.10847
 H595 H 0.49668 0.75458 1.14515
 H596 H 0.47753 0.67382 1.15583
 H597 H 0.40944 0.49790 1.13749
 H598 H 0.37253 0.43275 1.11156
 H599 H 0.35870 0.44894 1.07473
 H600 H 0.38075 0.53032 1.06372
 C601 C 0.18508 0.59738 1.08621
 C602 C 0.15312 0.54965 1.09334
 C603 C 0.13559 0.54159 1.11451
 C604 C 0.15004 0.58134 1.12843
 C605 C 0.18226 0.62907 1.12134
 C606 C 0.19995 0.63712 1.10019
 C607 C 0.23264 0.68514 1.09355
 C608 C 0.24737 0.72408 1.10740
 C609 C 0.22989 0.71617 1.12807
 C610 C 0.19765 0.66929 1.13504
 C611 C 0.10409 0.49350 1.12135
 C612 C 0.09041 0.45443 1.10768
 C613 C 0.10756 0.46236 1.08695
 C614 C 0.13850 0.50937 1.07977
 C615 C 0.13182 0.57300 1.15000
 C616 C 0.11606 0.56545 1.16782
 C617 C 0.20482 0.60555 1.06491
 C618 C 0.22365 0.61356 1.04769
 H619 H 0.24721 0.69306 1.07763
 H620 H 0.27253 0.76056 1.10207
 H621 H 0.24131 0.74646 1.13880
 H622 H 0.18500 0.66493 1.15125
 H623 H 0.08997 0.48565 1.13735
 H624 H 0.06644 0.41784 1.11323
 H625 H 0.09694 0.43197 1.07637
 H626 H 0.15098 0.51382 1.06353
 C627 C 0.39937 0.82248 1.08886
 C628 C 0.41912 0.87225 1.09339
 C629 C 0.42697 0.88853 1.11479
 C630 C 0.41551 0.85495 1.13153
 C631 C 0.39538 0.80508 1.12700
 C632 C 0.38682 0.78873 1.10562
 C633 C 0.36569 0.73853 1.10151
 C634 C 0.35377 0.70556 1.11803
 C635 C 0.36289 0.72168 1.13892
 C636 C 0.38341 0.77082 1.14345
 C637 C 0.44615 0.93843 1.11893
 C638 C 0.45713 0.97121 1.10240
 C639 C 0.44997 0.95534 1.08147
 C640 C 0.43119 0.90646 1.07692
 C641 C 0.42451 0.87184 1.15336
 C642 C 0.43255 0.88680 1.17134
 C643 C 0.39160 0.80549 1.06706
 C644 C 0.38370 0.78844 1.04946
 H645 H 0.35803 0.72415 1.08554
 H646 H 0.33773 0.66734 1.11459
 H647 H 0.35406 0.69598 1.15168
 H648 H 0.38977 0.78161 1.15996
 H649 H 0.45266 0.95262 1.13494
 H650 H 0.47142 1.00917 1.10584
 H651 H 0.45890 0.98104 1.06870
 H652 H 0.42602 0.89576 1.06040
 C653 C 0.59508 0.42434 0.58693
 C654 C 0.63056 0.43637 0.60297
 C655 C 0.62068 0.44403 0.62414
 C656 C 0.57558 0.44007 0.62910
 C657 C 0.54118 0.43059 0.61285
 C658 C 0.55091 0.42257 0.59171
 C659 C 0.51589 0.41282 0.57576
 C660 C 0.47258 0.41138 0.58053
 C661 C 0.46308 0.41931 0.60119
 C662 C 0.49681 0.42873 0.61725
 C663 C 0.65649 0.45553 0.63994
 C664 C 0.70109 0.46008 0.63491
 C665 C 0.71099 0.45322 0.61417
 C666 C 0.67611 0.44099 0.59835
 C667 C 0.56449 0.44534 0.65092
 C668 C 0.55533 0.44973 0.66904
 C669 C 0.60321 0.41130 0.56591
 C670 C 0.61089 0.39890 0.54900
 H671 H 0.52178 0.40658 0.55945
 H672 H 0.44629 0.40415 0.56812
 H673 H 0.42947 0.41834 0.60480
 H674 H 0.48790 0.43489 0.63306
 H675 H 0.65061 0.46155 0.65628
 H676 H 0.72822 0.46922 0.64715
 H677 H 0.74590 0.45738 0.61031
 H678 H 0.68548 0.43577 0.58247
 C679 C 0.59807 0.18453 0.58706
 C680 C 0.63792 0.20074 0.60119
 C681 C 0.63010 0.18290 0.62230
 C682 C 0.58256 0.14854 0.62906
 C683 C 0.54291 0.13144 0.61477
 C684 C 0.55072 0.14947 0.59368
 C685 C 0.51062 0.13187 0.57966
 C686 C 0.46402 0.09744 0.58631
 C687 C 0.45629 0.07999 0.60696
 C688 C 0.49515 0.09660 0.62109
 C689 C 0.67036 0.20012 0.63623
 C690 C 0.71713 0.23369 0.62942
 C691 C 0.72489 0.25073 0.60870
 C692 C 0.68587 0.23472 0.59471
 C693 C 0.57437 0.13030 0.65061
 C694 C 0.56670 0.11427 0.66836
 C695 C 0.60589 0.20587 0.56612
 C696 C 0.61474 0.22622 0.54926
 H697 H 0.51491 0.14436 0.56344
 H698 H 0.43374 0.08429 0.57537
 H699 H 0.41999 0.05347 0.61209
 H700 H 0.48729 0.08185 0.63697
 H701 H 0.66618 0.18781 0.65249
 H702 H 0.74752 0.24654 0.64028
 H703 H 0.76126 0.27687 0.60349
 H704 H 0.69379 0.24931 0.57879
 C705 C 0.81918 0.41686 0.58739
 C706 C 0.86935 0.44745 0.59162
 C707 C 0.88648 0.45568 0.61291
 C708 C 0.85331 0.43318 0.62983
 C709 C 0.80316 0.40230 0.62559
 C710 C 0.78605 0.39402 0.60431
 C711 C 0.73567 0.36311 0.60047
 C712 C 0.70319 0.34129 0.61718
 C713 C 0.71997 0.34933 0.63798
 C714 C 0.76934 0.37943 0.64223
 C715 C 0.93679 0.48669 0.61676
 C716 C 0.96919 0.50895 0.60006
 C717 C 0.95245 0.50065 0.57925
 C718 C 0.90311 0.47031 0.57498
 C719 C 0.87085 0.44192 0.65157
 C720 C 0.88622 0.44955 0.66948
 C721 C 0.80099 0.40945 0.56578
 C722 C 0.78281 0.40182 0.54840
 H723 H 0.72077 0.35554 0.58458
 H724 H 0.66482 0.31777 0.61396
 H725 H 0.69463 0.33210 0.65090
 H726 H 0.78065 0.38460 0.65867
 H727 H 0.95162 0.49411 0.63267
 H728 H 1.00751 0.53272 0.60329
 H729 H 0.97783 0.51785 0.56634
 H730 H 0.89174 0.46501 0.55854
 C731 C 0.39888 0.57900 0.58722
 C732 C 0.37215 0.58317 0.60418
 C733 C 0.38336 0.57772 0.62545
 C734 C 0.42056 0.56716 0.62961
 C735 C 0.44599 0.56111 0.61261
 C736 C 0.43516 0.56716 0.59134
 C737 C 0.46123 0.56128 0.57462
 C738 C 0.49693 0.54959 0.57877
 C739 C 0.50759 0.54376 0.59956
 C740 C 0.48251 0.54937 0.61635
 C741 C 0.35702 0.58332 0.64216
 C742 C 0.32034 0.59357 0.63796
 C743 C 0.30900 0.59832 0.61717
 C744 C 0.33451 0.59335 0.60041
 C745 C 0.43265 0.56256 0.65136
 C746 C 0.44269 0.55850 0.66940
 C747 C 0.39060 0.58968 0.56577
 C748 C 0.38301 0.60071 0.54853
 H749 H 0.45410 0.56539 0.55820
 H750 H 0.51642 0.54505 0.56579
 H751 H 0.53538 0.53472 0.60269
 H752 H 0.49201 0.54433 0.63224
 H753 H 0.36440 0.57975 0.65860
 H754 H 0.30048 0.59766 0.65091
 H755 H 0.28027 0.60589 0.61401
 H756 H 0.32436 0.59754 0.58452
 C757 C 0.40181 0.80857 0.58683
 C758 C 0.41064 0.78343 0.60306
 C759 C 0.41700 0.80018 0.62435
 C760 C 0.41523 0.84236 0.62922
 C761 C 0.40679 0.86771 0.61296
 C762 C 0.40011 0.85076 0.59169
 C763 C 0.39166 0.87659 0.57570
 C764 C 0.38962 0.91791 0.58061
 C765 C 0.39597 0.93440 0.60142
 C766 C 0.40456 0.90981 0.61747
 C767 C 0.42486 0.77396 0.64037
 C768 C 0.42686 0.73263 0.63545
 C769 C 0.42130 0.71664 0.61459
 C770 C 0.41295 0.74137 0.59854
 C771 C 0.42317 0.86032 0.65084
 C772 C 0.43054 0.87606 0.66868
 C773 C 0.39173 0.78922 0.56543
 C774 C 0.38174 0.77064 0.54815
 H775 H 0.38662 0.86517 0.55928
 H776 H 0.38302 0.93719 0.56820
 H777 H 0.39410 0.96636 0.60515
 H778 H 0.40919 0.92404 0.63342
 H779 H 0.42954 0.78509 0.65682
 H780 H 0.43295 0.71300 0.64787
 H781 H 0.42361 0.68498 0.61082
 H782 H 0.40862 0.72729 0.58258
 C783 C 0.17470 0.58730 0.58508
 C784 C 0.13055 0.54511 0.59058
 C785 C 0.11541 0.53637 0.61213
 C786 C 0.14436 0.57014 0.62802
 C787 C 0.18781 0.61306 0.62242
 C788 C 0.20277 0.62188 0.60086
 C789 C 0.24608 0.66533 0.59561
 C790 C 0.27399 0.69884 0.61123
 C791 C 0.25972 0.68989 0.63234
 C792 C 0.21712 0.64758 0.63797
 C793 C 0.07143 0.49356 0.61727
 C794 C 0.04303 0.46060 0.60155
 C795 C 0.05762 0.46945 0.58047
 C796 C 0.10092 0.51110 0.57496
 C797 C 0.12906 0.56095 0.65004
 C798 C 0.11553 0.55294 0.66823
 C799 C 0.19330 0.59387 0.56357
 C800 C 0.21194 0.60058 0.54634
 H801 H 0.25876 0.67395 0.57942
 H802 H 0.30679 0.73194 0.60692
 H803 H 0.28168 0.71598 0.64442
 H804 H 0.20742 0.64231 0.65460
 H805 H 0.05840 0.48517 0.63343
 H806 H 0.00933 0.42820 0.60574
 H807 H 0.03525 0.44394 0.56830
 H808 H 0.11075 0.51652 0.55835
 C809 C 0.43293 0.61588 0.91490
 C810 C 0.44237 0.57802 0.91082
 C811 C 0.44845 0.56704 0.88959
 C812 C 0.44476 0.59384 0.87258
 C813 C 0.43694 0.63277 0.87671
 C814 C 0.43172 0.64426 0.89797
 C815 C 0.42460 0.68378 0.90174
 C816 C 0.42209 0.71072 0.88499
 C817 C 0.42626 0.69892 0.86420
 C818 C 0.43369 0.66047 0.86001
 C819 C 0.45769 0.52889 0.88590
 C820 C 0.46082 0.50237 0.90269
 C821 C 0.45500 0.51321 0.92344
 C822 C 0.44574 0.55050 0.92755
 C823 C 0.44887 0.58124 0.85085
 C824 C 0.45252 0.57048 0.83290
 C825 C 0.42052 0.62341 0.93615
 C826 C 0.40754 0.62998 0.95314
 H827 H 0.42105 0.69437 0.91764
 H828 H 0.41688 0.74090 0.88818
 H829 H 0.42391 0.71980 0.85125
 H830 H 0.43688 0.65278 0.84356
 H831 H 0.46268 0.51921 0.87004
 H832 H 0.46792 0.47333 0.89958
 H833 H 0.45771 0.49263 0.93642
 H834 H 0.44162 0.55775 0.94395
 C835 C 0.19076 0.58849 0.91136
 C836 C 0.22088 0.58896 0.89477
 C837 C 0.20397 0.58138 0.87346
 C838 C 0.15693 0.57302 0.86888
 C839 C 0.12648 0.57166 0.88552
 C840 C 0.14344 0.57935 0.90683
 C841 C 0.11241 0.57788 0.92319
 C842 C 0.06590 0.56908 0.91863
 C843 C 0.04935 0.56169 0.89779
 C844 C 0.07912 0.56294 0.88137
 C845 C 0.23496 0.58267 0.85712
 C846 C 0.28129 0.59104 0.86171
 C847 C 0.29771 0.59822 0.88255
 C848 C 0.26816 0.59747 0.89894
 C849 C 0.13976 0.56592 0.84711
 C850 C 0.12445 0.55980 0.82920
 C851 C 0.20975 0.60026 0.93282
 C852 C 0.22791 0.61222 0.95017
 H853 H 0.12367 0.58330 0.93965
 H854 H 0.04259 0.56798 0.93133
 H855 H 0.01325 0.55492 0.89432
 H856 H 0.06458 0.55701 0.86543
 H857 H 0.22370 0.57713 0.84067
 H858 H 0.30451 0.59178 0.84904
 H859 H 0.33343 0.60416 0.88604
 H860 H 0.28276 0.60349 0.91487
 C861 C 0.40540 0.82551 0.91244
 C862 C 0.44760 0.86965 0.90697
 C863 C 0.45720 0.88394 0.88536
 C864 C 0.42435 0.85409 0.86937
 C865 C 0.38192 0.81016 0.87486
 C866 C 0.37220 0.79602 0.89648
 C867 C 0.32939 0.75200 0.90159
 C868 C 0.29732 0.72275 0.88580
 C869 C 0.30717 0.73624 0.86464
 C870 C 0.34889 0.77947 0.85913
 C871 C 0.50002 0.92790 0.88023
 C872 C 0.53236 0.95691 0.89602
 C873 C 0.52271 0.94313 0.91717
 C874 C 0.48088 0.90000 0.92268
 C875 C 0.43401 0.86892 0.84733
 C876 C 0.44239 0.88217 0.82915
 C877 C 0.39775 0.80824 0.93414
 C878 C 0.39058 0.79064 0.95159
 H879 H 0.32013 0.73977 0.91781
 H880 H 0.26456 0.68954 0.89002
 H881 H 0.28225 0.71317 0.85243
 H882 H 0.35494 0.78849 0.84245
 H883 H 0.50897 0.94034 0.86402
 H884 H 0.56484 0.99051 0.89183
 H885 H 0.54774 0.96602 0.92939
 H886 H 0.47486 0.89079 0.93934
 C887 C 0.57585 0.39672 0.91441
 C888 C 0.56491 0.36282 0.89782
 C889 C 0.55756 0.37410 0.87685
 C890 C 0.56065 0.41895 0.87263
 C891 C 0.56924 0.45180 0.88941
 C892 C 0.57671 0.44056 0.91038
 C893 C 0.58510 0.47382 0.92690
 C894 C 0.58617 0.51707 0.92284
 C895 C 0.57926 0.52827 0.90232
 C896 C 0.57085 0.49614 0.88573
 C897 C 0.54742 0.33998 0.86047
 C898 C 0.54384 0.29565 0.86475
 C899 C 0.55027 0.28432 0.88531
 C900 C 0.56115 0.31753 0.90169
 C901 C 0.55521 0.43133 0.85105
 C902 C 0.55072 0.44169 0.83314
 C903 C 0.58929 0.38768 0.93518
 C904 C 0.60214 0.37956 0.95189
 H905 H 0.59052 0.46657 0.94313
 H906 H 0.59238 0.54200 0.93569
 H907 H 0.58009 0.56190 0.89925
 H908 H 0.56540 0.50633 0.87006
 H909 H 0.54184 0.34701 0.84424
 H910 H 0.53580 0.26984 0.85207
 H911 H 0.54679 0.24959 0.88858
 H912 H 0.56600 0.30707 0.91740
 C913 C 0.81552 0.39253 0.91206
 C914 C 0.80142 0.35403 0.89745
 C915 C 0.81976 0.36397 0.87640
 C916 C 0.85256 0.41230 0.87016
 C917 C 0.86732 0.45070 0.88489
 C918 C 0.84876 0.44076 0.90591
 C919 C 0.86398 0.47967 0.92035
 C920 C 0.89655 0.52712 0.91419
 C921 C 0.91452 0.53689 0.89361
 C922 C 0.90029 0.49927 0.87907
 C923 C 0.80456 0.32497 0.86199
 C924 C 0.77244 0.27745 0.86825
 C925 C 0.75490 0.26768 0.88890
 C926 C 0.76902 0.30538 0.90339
 C927 C 0.87148 0.42254 0.84868
 C928 C 0.88780 0.43146 0.83095
 C929 C 0.79385 0.38253 0.93302
 C930 C 0.77369 0.37279 0.94996
 H931 H 0.85101 0.47384 0.93654
 H932 H 0.90790 0.55646 0.92545
 H933 H 0.93979 0.57382 0.88890
 H934 H 0.91538 0.50870 0.86326
 H935 H 0.81730 0.33074 0.84576
 H936 H 0.76112 0.24806 0.85702
 H937 H 0.72986 0.23074 0.89368
 H938 H 0.75414 0.29593 0.91924
 C939 C 0.58231 0.17247 0.91232
 C940 C 0.54935 0.12311 0.90775
 C941 C 0.54070 0.10685 0.88635
 C942 C 0.56549 0.14001 0.86970
 C943 C 0.59831 0.18943 0.87427
 C944 C 0.60673 0.20574 0.89565
 C945 C 0.63915 0.25553 0.89981
 C946 C 0.66217 0.28823 0.88332
 C947 C 0.65415 0.27218 0.86242
 C948 C 0.62273 0.22337 0.85786
 C949 C 0.50678 0.05749 0.88212
 C950 C 0.48201 0.02525 0.89856
 C951 C 0.49098 0.04105 0.91950
 C952 C 0.52427 0.08939 0.92413
 C953 C 0.55687 0.12329 0.84789
 C954 C 0.54931 0.10872 0.82987
 C955 C 0.59009 0.18986 0.93402
 C956 C 0.59798 0.20751 0.95149
 H957 H 0.64681 0.26986 0.91579
 H958 H 0.68659 0.32619 0.88679
 H959 H 0.67236 0.29769 0.84968
 H960 H 0.61759 0.21264 0.84134
 H961 H 0.49882 0.04335 0.86610
 H962 H 0.45590 -0.01229 0.89505
 H963 H 0.47196 0.01572 0.93221
 H964 H 0.52995 0.10008 0.94066
   
