data_POSCAR
  _audit_creation_date              2014-09-24
  _audit_creation_method            'ToBaCCo'
  _symmetry_space_group_name_H-M    'P1'
  _symmetry_Int_Tables_number       1
  _symmetry_cell_setting            triclinic
  loop_
  _symmetry_equiv_pos_as_xyz
 x,y,z
_cell_length_a 43.4352
_cell_length_b 44.6784
_cell_length_c 41.7141
_cell_angle_alpha 91.576800
_cell_angle_beta 89.837900
_cell_angle_gamma 92.652000
loop_
  _atom_site_label
  _atom_site_type_symbol
  _atom_site_fract_x
  _atom_site_fract_y
  _atom_site_fract_z
C1 C 0.20170 0.52508 1.04009
 H2 H 0.20158 0.54280 1.02294
 C3 C 0.18018 0.52430 1.06502
 H4 H 0.16355 0.54160 1.06719
 C5 C 0.22269 0.48019 1.05741
 H6 H 0.23873 0.46263 1.05389
 C7 C 0.20158 0.47854 1.08268
 H8 H 0.20171 0.45987 1.09872
 N9 N 0.22240 0.50325 1.03677
 C10 C 0.29617 0.54189 0.97747
 H11 H 0.29670 0.52492 0.95848
 C12 C 0.31705 0.56660 0.97720
 H13 H 0.33378 0.56869 0.95799
 C14 C 0.27421 0.55958 1.02614
 H15 H 0.25783 0.55653 1.04542
 C16 C 0.29473 0.58465 1.02680
 H17 H 0.29399 0.60089 1.04653
 Zn18 Zn 0.24832 0.50428 1.00027
 N19 N 0.27516 0.53894 1.00156
 C20 C 0.22371 0.52738 0.94332
 N21 N 0.22204 0.50449 0.96423
 C22 C 0.19987 0.48204 0.96140
 C23 C 0.17831 0.48193 0.93663
 C24 C 0.20259 0.52812 0.91821
 C25 C 0.29396 0.46776 1.02223
 C26 C 0.31290 0.44334 1.02224
 C27 C 0.28869 0.42486 0.97303
 C28 C 0.27016 0.44964 0.97394
 N29 N 0.27289 0.47031 0.99849
 H30 H 0.24094 0.54542 0.94645
 H31 H 0.19871 0.46445 0.97874
 H32 H 0.16055 0.46414 0.93473
 H33 H 0.20382 0.54657 0.90187
 H34 H 0.29595 0.48474 1.04120
 H35 H 0.32957 0.44147 1.04127
 H36 H 0.28640 0.40851 0.95342
 H37 H 0.25380 0.45237 0.95492
 C38 C 0.31631 0.58818 1.00208
 C39 C 0.18001 0.50070 1.08640
 C40 C 0.31018 0.42166 0.99746
 C41 C 0.17962 0.50526 0.91495
 C42 C 0.79891 0.52008 -0.03511
 H43 H 0.79991 0.53647 -0.01551
 C44 C 0.82031 0.52212 -0.06001
 H45 H 0.83781 0.54021 -0.05972
 C46 C 0.77534 0.47602 -0.05903
 H47 H 0.75816 0.45779 -0.05822
 C48 C 0.79638 0.47723 -0.08445
 H49 H 0.79517 0.46008 -0.10334
 N50 N 0.77688 0.49742 -0.03514
 C51 C 0.70540 0.53266 0.02707
 H52 H 0.70360 0.51561 0.04498
 C53 C 0.68634 0.55702 0.02887
 H54 H 0.66980 0.55878 0.04824
 C55 C 0.72855 0.55091 -0.02056
 H56 H 0.74458 0.54820 -0.04015
 C57 C 0.70994 0.57558 -0.01966
 H58 H 0.71188 0.59188 -0.03840
 Zn59 Zn 0.75056 0.49606 0.00099
 N60 N 0.72615 0.53017 0.00274
 C61 C 0.77660 0.51690 0.06085
 N62 N 0.77659 0.49532 0.03715
 C63 C 0.79699 0.47312 0.03723
 C64 C 0.81833 0.47179 0.06200
 C65 C 0.79764 0.51640 0.08613
 C66 C 0.70285 0.45873 -0.02523
 C67 C 0.68182 0.43412 -0.02713
 C68 C 0.70373 0.41562 0.02126
 C69 C 0.72437 0.44057 0.02226
 N70 N 0.72368 0.46142 -0.00090
 H71 H 0.76075 0.53477 0.05994
 H72 H 0.79682 0.45660 0.01776
 H73 H 0.83457 0.45410 0.06176
 H74 H 0.79772 0.53373 0.10483
 H75 H 0.70247 0.47588 -0.04303
 H76 H 0.66515 0.43228 -0.04644
 H77 H 0.70422 0.39929 0.03996
 H78 H 0.74053 0.44342 0.04184
 C79 C 0.68866 0.57867 0.00528
 C80 C 0.81907 0.50048 -0.08486
 C81 C 0.68226 0.41240 -0.00364
 C82 C 0.81872 0.49367 0.08660
 C83 C -0.03071 0.28654 0.48174
 H84 H -0.04837 0.28767 0.50002
 C85 C -0.03077 0.30592 0.45608
 H86 H -0.04861 0.32200 0.45455
 C87 C 0.01468 0.26484 0.46199
 H88 H 0.03273 0.24930 0.46475
 C89 C 0.01551 0.28384 0.43593
 H90 H 0.03406 0.28263 0.41858
 N91 N -0.00831 0.26642 0.48413
 C92 C -0.04891 0.19786 0.54583
 H93 H -0.03202 0.19810 0.56487
 C94 C -0.07425 0.17743 0.54619
 H95 H -0.07693 0.16183 0.56554
 C96 C -0.06549 0.21701 0.49662
 H97 H -0.06165 0.23194 0.47694
 C98 C -0.09112 0.19696 0.49606
 H99 H -0.10700 0.19665 0.47605
 Zn100 Zn -0.00909 0.24273 0.52102
 N101 N -0.04505 0.21715 0.52131
 C102 C -0.03114 0.26987 0.57897
 N103 N -0.00823 0.26976 0.55663
 C104 C 0.01538 0.29086 0.55743
 C105 C 0.01663 0.31325 0.58138
 C106 C -0.03080 0.29198 0.60338
 C107 C 0.02775 0.19733 0.49759
 C108 C 0.05304 0.17916 0.49618
 C109 C 0.07289 0.20427 0.54439
 C110 C 0.04722 0.22200 0.54490
 N111 N 0.02553 0.21853 0.52142
 H112 H -0.05010 0.25337 0.57744
 H113 H 0.03294 0.29056 0.53898
 H114 H 0.03524 0.33025 0.58148
 H115 H -0.04940 0.29236 0.62072
 H116 H 0.00995 0.19478 0.47949
 H117 H 0.05477 0.16250 0.47696
 H118 H 0.09016 0.20725 0.56303
 H119 H 0.04471 0.23845 0.56406
 C120 C -0.09546 0.17693 0.52099
 C121 C -0.00740 0.30461 0.43302
 C122 C 0.07590 0.18281 0.51968
 C123 C -0.00677 0.31395 0.60441
 C124 C 0.98678 0.71117 0.51486
 H125 H 0.96971 0.70877 0.49602
 C126 C 0.98556 0.69168 0.54043
 H127 H 0.96747 0.67420 0.54139
 C128 C 1.03169 0.73644 0.53631
 H129 H 1.04995 0.75353 0.53431
 C130 C 1.03133 0.71738 0.56232
 H131 H 1.04915 0.72000 0.58043
 N132 N 1.00944 0.73316 0.51339
 C133 C 0.97024 0.79943 0.45259
 H134 H 0.98739 0.80107 0.43378
 C135 C 0.94466 0.81727 0.45207
 H136 H 0.94203 0.83273 0.43281
 C137 C 0.95303 0.77795 0.50122
 H138 H 0.95664 0.76311 0.52070
 C139 C 0.92716 0.79536 0.50161
 H140 H 0.91085 0.79366 0.52125
 Zn141 Zn 1.00960 0.75745 0.47701
 N142 N 0.97383 0.78011 0.47681
 C143 C 0.98738 0.72931 0.41887
 N144 N 1.01054 0.73109 0.44087
 C145 C 1.03390 0.71183 0.43959
 C146 C 1.03446 0.68948 0.41562
 C147 C 0.98705 0.70720 0.39450
 C148 C 1.04591 0.80556 0.50191
 C149 C 1.07091 0.82627 0.50406
 C150 C 1.09206 0.80382 0.45594
 C151 C 1.06663 0.78347 0.45469
 N152 N 1.04437 0.78452 0.47771
 H153 H 0.96860 0.74428 0.42082
 H154 H 1.05162 0.71336 0.45781
 H155 H 1.05274 0.67377 0.41527
 H156 H 0.96813 0.70534 0.37758
 H157 H 1.02768 0.80613 0.51961
 H158 H 1.07196 0.84293 0.52344
 H159 H 1.10967 0.80293 0.43755
 H160 H 1.06466 0.76702 0.43526
 C161 C 0.92295 0.81519 0.47684
 C162 C 1.00803 0.69484 0.56436
 C163 C 1.09423 0.82533 0.48093
 C164 C 1.01065 0.68694 0.39310
 C165 C 0.46288 -0.01415 0.29200
 H166 H 0.47985 -0.03112 0.29224
 C167 C 0.43911 -0.01449 0.31463
 H168 H 0.43763 -0.03186 0.33225
 C169 C 0.44466 0.02989 0.26951
 H170 H 0.44730 0.04753 0.25240
 C171 C 0.42053 0.03037 0.29173
 H172 H 0.40449 0.04822 0.29144
 N173 N 0.46518 0.00777 0.26998
 C174 C 0.52149 -0.02867 0.19268
 H175 H 0.53930 -0.01100 0.19140
 C176 C 0.52206 -0.05347 0.17160
 H177 H 0.54045 -0.05491 0.15408
 C178 C 0.47564 -0.04821 0.21691
 H179 H 0.45738 -0.04589 0.23430
 C180 C 0.47532 -0.07342 0.19625
 H181 H 0.45693 -0.09053 0.19806
 Zn182 Zn 0.49983 0.00803 0.24229
 N183 N 0.49872 -0.02665 0.21500
 C184 C 0.55517 -0.01355 0.26743
 N185 N 0.53514 0.00900 0.26895
 C186 C 0.53830 0.03157 0.29147
 C187 C 0.56237 0.03202 0.31367
 C188 C 0.57956 -0.01393 0.28916
 C189 C 0.47700 0.04293 0.19406
 C190 C 0.47621 0.06668 0.17305
 C191 C 0.52363 0.08743 0.19646
 C192 C 0.52354 0.06326 0.21708
 N193 N 0.50028 0.04176 0.21568
 H194 H 0.55185 -0.03170 0.24999
 H195 H 0.52169 0.04888 0.29256
 H196 H 0.56445 0.04982 0.33180
 H197 H 0.59510 -0.03221 0.28811
 H198 H 0.45907 0.02530 0.19314
 H199 H 0.45755 0.06744 0.15595
 H200 H 0.54220 0.10446 0.19768
 H201 H 0.54218 0.06160 0.23393
 C202 C 0.49882 -0.07611 0.17345
 C203 C 0.41783 0.00805 0.31457
 C204 C 0.49973 0.08914 0.17427
 C205 C 0.58306 0.00894 0.31262
 C206 C 0.53736 -0.03158 0.70815
 H207 H 0.51912 -0.04891 0.70756
 C208 C 0.56134 -0.03249 0.68587
 H209 H 0.56170 -0.05066 0.66815
 C210 C 0.55869 0.01381 0.73132
 H211 H 0.55720 0.03213 0.74862
 C212 C 0.58313 0.01376 0.70940
 H213 H 0.60058 0.03189 0.71008
 N214 N 0.53650 -0.00875 0.73036
 C215 C 0.47678 -0.04528 0.80573
 H216 H 0.45908 -0.02902 0.80663
 C217 C 0.47576 -0.06896 0.82700
 H218 H 0.45715 -0.07105 0.84426
 C219 C 0.52319 -0.06201 0.78283
 H220 H 0.54200 -0.05892 0.76609
 C221 C 0.52304 -0.08599 0.80364
 H222 H 0.54157 -0.10141 0.80262
 Zn223 Zn 0.50139 -0.00858 0.75741
 N224 N 0.50018 -0.04232 0.78410
 C225 C 0.44387 -0.03114 0.73057
 N226 N 0.46678 -0.00930 0.72984
 C227 C 0.46677 0.01263 0.70785
 C228 C 0.44281 0.01353 0.68576
 C229 C 0.41939 -0.03107 0.70881
 C230 C 0.52512 0.03050 0.80633
 C231 C 0.52583 0.05538 0.82746
 C232 C 0.47884 0.07100 0.80346
 C233 C 0.47899 0.04588 0.78281
 N234 N 0.50205 0.02633 0.78441
 H235 H 0.44464 -0.04874 0.74776
 H236 H 0.48552 0.02942 0.70751
 H237 H 0.44302 0.03114 0.66841
 H238 H 0.40121 -0.04847 0.70948
 H239 H 0.54287 0.01436 0.80748
 H240 H 0.54422 0.05850 0.84488
 H241 H 0.46032 0.08635 0.80210
 H242 H 0.46042 0.04185 0.76587
 C243 C 0.49916 -0.08946 0.82598
 C244 C 0.58437 -0.00956 0.68641
 C245 C 0.50244 0.07580 0.82600
 C246 C 0.41891 -0.00850 0.68623
 C247 C 0.22936 0.04468 0.50658
 C248 C 0.25018 0.04081 0.53565
 C249 C 0.26784 0.01638 0.53280
 C250 C 0.26312 -0.00197 0.50129
 C251 C 0.25118 0.04555 0.47762
 C252 C 0.26884 0.02109 0.47493
 C253 C 0.21064 0.01497 0.50274
 C254 C 0.22824 -0.00937 0.49996
 H255 H 0.25149 0.05638 0.55614
 H256 H 0.27745 -0.02190 0.49903
 H257 H 0.25283 0.06391 0.46107
 H258 H 0.18559 0.01331 0.50217
 C259 C 0.77179 -0.04434 0.49290
 C260 C 0.75047 -0.04535 0.52227
 C261 C 0.73282 -0.02092 0.52543
 C262 C 0.73803 0.00224 0.49909
 C263 C 0.75046 -0.04038 0.46427
 C264 C 0.73280 -0.01600 0.46758
 C265 C 0.79053 -0.01461 0.49657
 C266 C 0.77293 0.00969 0.49983
 H267 H 0.74916 -0.06377 0.53876
 H268 H 0.72370 0.02214 0.50170
 H269 H 0.74886 -0.05584 0.44371
 H270 H 0.81558 -0.01294 0.49692
 C271 C 0.45735 0.27677 0.99699
 C272 C 0.45949 0.25459 0.96841
 C273 C 0.48518 0.23809 0.96905
 C274 C 0.50640 0.24531 0.99799
 C275 C 0.45939 0.25756 1.02677
 C276 C 0.48507 0.24104 1.02719
 C277 C 0.48755 0.29573 0.99649
 C278 C 0.51315 0.27936 0.99699
 H279 H 0.44160 0.25111 0.95036
 H280 H 0.52740 0.23202 0.99842
 H281 H 0.44134 0.25577 1.04480
 H282 H 0.48861 0.32007 0.99577
 C283 C 0.54105 0.72330 0.00420
 C284 C 0.53929 0.74281 -0.02539
 C285 C 0.51376 0.75956 -0.02571
 C286 C 0.49231 0.75521 0.00338
 C287 C 0.53901 0.74526 0.03298
 C288 C 0.51349 0.76199 0.03244
 C289 C 0.51070 0.70458 0.00442
 C290 C 0.48526 0.72118 0.00399
 H291 H 0.55735 0.74453 -0.04341
 H292 H 0.47144 0.76868 0.00304
 H293 H 0.55692 0.74851 0.05104
 H294 H 0.50942 0.68023 0.00480
 C295 C 0.99883 0.45179 0.28150
 C296 C 0.97057 0.45247 0.25964
 C297 C 0.97140 0.47640 0.24000
 C298 C 1.00024 0.49743 0.24386
 C299 C 1.02665 0.45283 0.25879
 C300 C 1.02730 0.47676 0.23915
 C301 C 1.00027 0.48218 0.29950
 C302 C 1.00100 0.50598 0.27976
 H303 H 0.95183 0.43550 0.25948
 H304 H 1.00084 0.51691 0.22782
 H305 H 1.04412 0.43618 0.25820
 H306 H 1.00071 0.48465 0.32549
 C307 C 0.00139 0.54763 0.71830
 C308 C -0.02683 0.54663 0.74048
 C309 C -0.02787 0.52268 0.76011
 C310 C -0.00078 0.50197 0.75591
 C311 C 0.02925 0.54690 0.74069
 C312 C 0.02802 0.52298 0.76033
 C313 C 0.00020 0.51726 0.70028
 C314 C -0.00095 0.49344 0.72000
 H315 H -0.04421 0.56336 0.74081
 H316 H -0.00169 0.48248 0.77193
 H317 H 0.04797 0.56390 0.74126
 H318 H 0.00010 0.51481 0.67428
 C319 C 0.10213 0.16429 0.51857
 C320 C 0.12375 0.14834 0.51737
 C321 C 0.14845 0.12893 0.51566
 C322 C 0.16876 0.11149 0.51394
 C323 C 0.19138 0.08987 0.51166
 C324 C 0.20941 0.07021 0.50948
 C325 C 0.66850 0.60339 0.00595
 C326 C 0.65119 0.62373 0.00614
 C327 C 0.63022 0.64696 0.00602
 C328 C 0.61154 0.66608 0.00571
 C329 C 0.58855 0.68740 0.00520
 C330 C 0.56781 0.70442 0.00473
 C331 C 0.89714 -0.16575 0.47770
 C332 C 0.87589 -0.14934 0.47905
 C333 C 0.85165 -0.12943 0.48125
 C334 C 0.83170 -0.11163 0.48354
 C335 C 0.80946 -0.08970 0.48659
 C336 C 0.79165 -0.06990 0.48939
 C337 C 0.32994 0.39664 0.99679
 C338 C 0.34704 0.37613 0.99642
 C339 C 0.36788 0.35278 0.99617
 C340 C 0.38655 0.33363 0.99612
 C341 C 0.40959 0.31236 0.99625
 C342 C 0.43043 0.29544 0.99650
 C343 C 0.87965 0.15454 0.51951
 C344 C 0.85961 0.13500 0.51762
 C345 C 0.83737 0.11106 0.51473
 C346 C 0.81971 0.08956 0.51179
 C347 C 0.80095 0.06309 0.50790
 C348 C 0.78692 0.03935 0.50431
 C349 C 0.33860 0.61307 0.00283
 C350 C 0.35812 0.63317 0.00327
 C351 C 0.38213 0.65559 0.00361
 C352 C 0.40379 0.67347 0.00378
 C353 C 0.43062 0.69257 0.00389
 C354 C 0.45482 0.70690 0.00395
 C355 C 0.11965 -0.15288 0.48246
 C356 C 0.14014 -0.13379 0.48423
 C357 C 0.16288 -0.11027 0.48681
 C358 C 0.18090 -0.08903 0.48940
 C359 C 0.19999 -0.06274 0.49282
 C360 C 0.21420 -0.03905 0.49598
 C361 C 0.65968 0.38775 0.99583
 C362 C 0.64003 0.36778 0.99566
 C363 C 0.61597 0.34542 0.99571
 C364 C 0.59433 0.32752 0.99591
 C365 C 0.56759 0.30833 0.99627
 C366 C 0.54347 0.29386 0.99661
 C367 C 0.49935 0.11362 1.15250
 C368 C 0.49855 0.13383 1.13398
 C369 C 0.49703 0.15720 1.11196
 C370 C 0.49521 0.17686 1.09291
 C371 C 0.49242 0.19957 1.07032
 C372 C 0.48943 0.21865 1.05081
 C373 C 0.00756 0.67434 0.59032
 C374 C 0.00693 0.65659 0.61154
 C375 C 0.00595 0.63511 0.63568
 C376 C 0.00498 0.61614 0.65565
 C377 C 0.00374 0.59321 0.67821
 C378 C 0.00266 0.57299 0.69674
 C379 C 0.49933 0.88656 -0.15161
 C380 C 0.50009 0.86663 -0.13273
 C381 C 0.50167 0.84346 -0.11047
 C382 C 0.50358 0.82386 -0.09133
 C383 C 0.50646 0.80116 -0.06873
 C384 C 0.50948 0.78204 -0.04927
 C385 C 0.99366 0.32428 0.40866
 C386 C 0.99456 0.34222 0.38762
 C387 C 0.99556 0.36392 0.36368
 C388 C 0.99638 0.38304 0.34388
 C389 C 0.99728 0.40612 0.32148
 C390 C 0.99801 0.42641 0.30304
 C391 C 0.49918 0.89944 0.15318
 C392 C 0.49996 0.87793 0.13511
 C393 C 0.50146 0.85292 0.11378
 C394 C 0.50328 0.83175 0.09541
 C395 C 0.50609 0.80718 0.07371
 C396 C 0.50910 0.78645 0.05502
 C397 C -0.00700 0.33849 0.62741
 C398 C -0.00675 0.36008 0.64536
 C399 C -0.00603 0.38647 0.66471
 C400 C -0.00512 0.40988 0.67976
 C401 C -0.00380 0.43820 0.69558
 C402 C -0.00253 0.46306 0.70755
 C403 C 0.50205 0.10122 0.84799
 C404 C 0.50102 0.12249 0.86636
 C405 C 0.49904 0.14732 0.88787
 C406 C 0.49675 0.16841 0.90627
 C407 C 0.49338 0.19293 0.92792
 C408 C 0.48994 0.21365 0.94654
 C409 C 1.00920 0.66197 0.37058
 C410 C 1.00796 0.64008 0.35305
 C411 C 1.00648 0.61340 0.33415
 C412 C 1.00522 0.58980 0.31945
 C413 C 1.00374 0.56133 0.30394
 C414 C 1.00249 0.53640 0.29214
 C415 C 1.15813 0.49857 0.10976
 C416 C 1.13846 0.49627 0.13009
 C417 C 1.11514 0.49309 0.15352
 C418 C 1.09507 0.48995 0.17330
 C419 C 1.07147 0.48580 0.19626
 C420 C 1.05131 0.48188 0.21580
 C421 C 0.60857 -0.00972 0.66274
 C422 C 0.62835 -0.01034 0.64240
 C423 C 0.65102 -0.01159 0.61812
 C424 C 0.67004 -0.01310 0.59710
 C425 C 0.69204 -0.01535 0.57225
 C426 C 0.71066 -0.01768 0.55094
 C427 C -0.15845 0.50202 0.88980
 C428 C -0.13913 0.50392 0.86909
 C429 C -0.11605 0.50680 0.84539
 C430 C -0.09605 0.50978 0.82551
 C431 C -0.07242 0.51382 0.80258
 C432 C -0.05214 0.51767 0.78317
 C433 C 0.39404 0.00893 0.33866
 C434 C 0.37444 0.00994 0.35915
 C435 C 0.35179 0.01146 0.38342
 C436 C 0.33264 0.01309 0.40430
 C437 C 0.31037 0.01540 0.42887
 C438 C 0.29143 0.01777 0.44987
 C439 C 0.15669 0.50643 0.89027
 C440 C 0.13721 0.50779 0.86993
 C441 C 0.11418 0.50988 0.84643
 C442 C 0.09440 0.51211 0.82657
 C443 C 0.07122 0.51529 0.80347
 C444 C 0.05147 0.51851 0.78381
 C445 C 0.60687 0.00780 0.33645
 C446 C 0.62652 0.00612 0.35661
 C447 C 0.64926 0.00330 0.38034
 C448 C 0.66851 0.00013 0.40058
 C449 C 0.69093 -0.00450 0.42418
 C450 C 0.71001 -0.00927 0.44411
 C451 C 0.84130 0.49300 0.11168
 C452 C 0.86069 0.49186 0.13215
 C453 C 0.88381 0.48985 0.15557
 C454 C 0.90379 0.48758 0.17521
 C455 C 0.92733 0.48429 0.19789
 C456 C 0.94744 0.48096 0.21711
 C457 C 0.39425 -0.00774 0.66330
 C458 C 0.37409 -0.00616 0.64368
 C459 C 0.35098 -0.00327 0.62036
 C460 C 0.33160 0.00002 0.60029
 C461 C 0.30921 0.00483 0.57671
 C462 C 0.29030 0.00969 0.55663
   
