data_POSCAR
  _audit_creation_date              2014-09-24
  _audit_creation_method            'ToBaCCo'
  _symmetry_space_group_name_H-M    'P1'
  _symmetry_Int_Tables_number       1
  _symmetry_cell_setting            triclinic
  loop_
  _symmetry_equiv_pos_as_xyz
 x,y,z
_cell_length_a 47.6853
_cell_length_b 49.6832
_cell_length_c 46.0816
_cell_angle_alpha 89.856400
_cell_angle_beta 89.212800
_cell_angle_gamma 90.071300
loop_
  _atom_site_label
  _atom_site_type_symbol
  _atom_site_fract_x
  _atom_site_fract_y
  _atom_site_fract_z
N1 N 0.18134 0.20885 0.25530
 N2 N 0.20007 0.18955 0.25365
 C3 C 0.19634 0.17263 0.27622
 C4 C 0.17370 0.18158 0.29291
 C5 C 0.16492 0.20486 0.27887
 H6 H 0.20849 0.15456 0.27937
 H7 H 0.14721 0.21747 0.28439
 Cu8 Cu 0.22512 0.18681 0.22018
 Cu9 Cu 0.17748 0.23567 0.22467
 Cu10 Cu 0.23636 0.24195 0.17979
 N11 N 0.25164 0.18670 0.18783
 N12 N 0.25683 0.20863 0.17271
 C13 C 0.27670 0.20335 0.15249
 C14 C 0.28397 0.17633 0.15456
 C15 C 0.26751 0.16652 0.17737
 H16 H 0.28441 0.21798 0.13691
 H17 H 0.26730 0.14634 0.18613
 N18 N 0.20585 0.26872 0.18119
 N19 N 0.18345 0.26629 0.19815
 C20 C 0.16543 0.28629 0.19213
 C21 C 0.17678 0.30179 0.16993
 C22 C 0.20246 0.29009 0.16357
 H23 H 0.14480 0.28841 0.20187
 H24 H 0.21704 0.29592 0.14651
 H25 H 0.20156 0.21988 0.19018
 H26 H 0.21953 0.23562 0.22165
 N27 N -0.18608 0.81632 0.23975
 N28 N -0.21024 0.82239 0.25212
 C29 C -0.20568 0.83755 0.27571
 C30 C -0.17704 0.84141 0.27824
 C31 C -0.16525 0.82768 0.25492
 H32 H -0.22207 0.84587 0.28942
 H33 H -0.14321 0.82595 0.24941
 Cu34 Cu -0.24545 0.81174 0.23511
 Cu35 Cu -0.18379 0.79466 0.20455
 Cu36 Cu -0.24591 0.76428 0.18389
 N37 N -0.27760 0.80683 0.21029
 N38 N -0.27798 0.78801 0.19036
 C39 C -0.30202 0.78983 0.17555
 C40 C -0.31755 0.81134 0.18650
 C41 C -0.30125 0.82143 0.20880
 H42 H -0.30698 0.77709 0.15735
 H43 H -0.30550 0.83871 0.22234
 N44 N -0.20892 0.75214 0.17000
 N45 N -0.18536 0.76440 0.17686
 C46 C -0.16376 0.75166 0.16373
 C47 C -0.17424 0.73031 0.14788
 C48 C -0.20300 0.73129 0.15240
 H49 H -0.14195 0.75695 0.16641
 H50 H -0.21856 0.71791 0.14350
 H51 H -0.22426 0.79868 0.18880
 H52 H -0.21802 0.77329 0.21791
 N53 N -0.19140 0.20655 -0.24194
 N54 N -0.21278 0.18983 -0.24157
 C55 C -0.20899 0.17123 -0.26243
 C56 C -0.18369 0.17643 -0.27642
 C57 C -0.17309 0.19899 -0.26284
 H58 H -0.22295 0.15447 -0.26627
 H59 H -0.15336 0.20894 -0.26755
 Cu60 Cu -0.24213 0.19250 -0.21220
 Cu61 Cu -0.18834 0.23611 -0.21450
 Cu62 Cu -0.23622 0.23649 -0.15724
 N63 N -0.26474 0.18924 -0.17707
 N64 N -0.26342 0.20719 -0.15627
 C65 C -0.28113 0.20002 -0.13460
 C66 C -0.29388 0.17585 -0.14190
 C67 C -0.28285 0.16972 -0.16916
 H68 H -0.28326 0.21087 -0.11440
 H69 H -0.28748 0.15239 -0.18241
 N70 N -0.20677 0.26406 -0.16232
 N71 N -0.18887 0.26420 -0.18444
 C72 C -0.17032 0.28431 -0.18082
 C73 C -0.17654 0.29716 -0.15498
 C74 C -0.19980 0.28384 -0.14384
 H75 H -0.15244 0.28820 -0.19489
 H76 H -0.21018 0.28765 -0.12326
 H77 H -0.20795 0.21437 -0.18164
 H78 H -0.23002 0.23915 -0.20165
 N79 N 0.20372 0.79718 -0.28178
 N80 N 0.22311 0.81552 -0.27754
 C81 C 0.21733 0.83745 -0.29356
 C82 C 0.19299 0.83263 -0.30876
 C83 C 0.18500 0.80676 -0.30080
 H84 H 0.22931 0.85592 -0.29331
 H85 H 0.16674 0.79581 -0.30791
 Cu86 Cu 0.25262 0.80932 -0.24976
 Cu87 Cu 0.20390 0.76256 -0.26145
 Cu88 Cu 0.24567 0.76126 -0.20003
 N89 N 0.28225 0.80276 -0.22216
 N90 N 0.27916 0.78392 -0.20233
 C91 C 0.30036 0.78555 -0.18346
 C92 C 0.31780 0.80678 -0.19174
 C93 C 0.30562 0.81698 -0.21671
 H94 H 0.30190 0.77301 -0.16437
 H95 H 0.31213 0.83448 -0.22900
 N96 N 0.21650 0.73412 -0.20784
 N97 N 0.20099 0.73429 -0.23135
 C98 C 0.18268 0.71365 -0.22986
 C99 C 0.18689 0.69971 -0.20418
 C100 C 0.20860 0.71329 -0.19089
 H101 H 0.16707 0.70947 -0.24604
 H102 H 0.21746 0.70889 -0.16996
 H103 H 0.21681 0.78211 -0.22557
 H104 H 0.24427 0.76126 -0.24383
 N105 N 0.17275 1.17807 0.76402
 N106 N 0.15864 1.20080 0.76390
 C107 C 0.13946 1.19988 0.74270
 C108 C 0.14202 1.17545 0.72856
 C109 C 0.16341 1.16216 0.74262
 H110 H 0.12480 1.21578 0.73776
 H111 H 0.17108 1.14211 0.73808
 Cu112 Cu 0.16685 1.22909 0.79173
 Cu113 Cu 0.20133 1.17020 0.79272
 Cu114 Cu 0.22129 1.22319 0.83676
 N115 N 0.17604 1.25747 0.81914
 N116 N 0.19711 1.25480 0.83701
 C117 C 0.19839 1.27662 0.85420
 C118 C 0.17699 1.29403 0.84668
 C119 C 0.16326 1.28118 0.82429
 H120 H 0.21369 1.27950 0.87101
 H121 H 0.14484 1.28824 0.81320
 N122 N 0.23823 1.18707 0.83903
 N123 N 0.22998 1.16665 0.82297
 C124 C 0.24438 1.14450 0.83066
 C125 C 0.26269 1.15131 0.85251
 C126 C 0.25823 1.17849 0.85721
 H127 H 0.24197 1.12489 0.82090
 H128 H 0.26831 1.19092 0.87323
 H129 H 0.18933 1.19779 0.82450
 H130 H 0.21359 1.20940 0.79480
 N131 N 0.79422 0.80728 0.73659
 N132 N 0.81645 0.79382 0.74475
 C133 C 0.83770 0.79868 0.72595
 C134 C 0.82839 0.81630 0.70480
 C135 C 0.80059 0.82124 0.71231
 H136 H 0.85851 0.79035 0.72794
 H137 H 0.78631 0.83478 0.70161
 Cu138 Cu 0.81644 0.77249 0.78008
 Cu139 Cu 0.75959 0.80736 0.75948
 Cu140 Cu 0.75542 0.76163 0.81609
 N141 N 0.81221 0.74393 0.80855
 N142 N 0.78820 0.73893 0.82185
 C143 C 0.79170 0.71840 0.84064
 C144 C 0.81949 0.71041 0.83919
 C145 C 0.83183 0.72701 0.81856
 H146 H 0.77562 0.71071 0.85522
 H147 H 0.85355 0.72691 0.81151
 N148 N 0.72482 0.78679 0.80683
 N149 N 0.72651 0.80432 0.78534
 C150 C 0.70403 0.82066 0.78660
 C151 C 0.68733 0.81324 0.81017
 C152 C 0.70123 0.79154 0.82235
 H153 H 0.70101 0.83770 0.77240
 H154 H 0.69556 0.78096 0.84208
 H155 H 0.77523 0.79551 0.79940
 H156 H 0.76637 0.76815 0.77307
 N157 N 0.20483 0.81131 1.28411
 N158 N 0.18310 0.79577 1.27914
 C159 C 0.16191 0.80262 1.29721
 C160 C 0.17080 0.82354 1.31458
 C161 C 0.19823 0.82847 1.30574
 H162 H 0.14145 0.79322 1.29755
 H163 H 0.21193 0.84412 1.31360
 Cu164 Cu 0.18370 0.76869 1.24888
 Cu165 Cu 0.23888 0.80972 1.26018
 Cu166 Cu 0.24353 0.75690 1.21154
 N167 N 0.18879 0.73644 1.22572
 N168 N 0.21207 0.73193 1.21097
 C169 C 0.20907 0.70930 1.19531
 C170 C 0.18246 0.69899 1.20060
 C171 C 0.17026 0.71675 1.22014
 H172 H 0.22486 0.70131 1.18066
 H173 H 0.14904 0.71608 1.22866
 N174 N 0.27308 0.78432 1.21531
 N175 N 0.27140 0.80452 1.23375
 C176 C 0.29349 0.82103 1.22922
 C177 C 0.30990 0.81078 1.20672
 C178 C 0.29624 0.78739 1.19862
 H179 H 0.29660 0.83978 1.24054
 H180 H 0.30186 0.77422 1.18088
 H181 H 0.22234 0.79163 1.22393
 H182 H 0.23432 0.76886 1.25373
 N183 N 0.81721 1.18594 1.22856
 N184 N 0.83774 1.20301 1.22340
 C185 C 0.85628 1.20160 1.24513
 C186 C 0.84685 1.18260 1.26508
 C187 C 0.82192 1.17312 1.25378
 H188 H 0.87528 1.21342 1.24617
 H189 H 0.80867 1.15740 1.26269
 Cu190 Cu 0.83896 1.22488 1.18840
 Cu191 Cu 0.78720 1.18032 1.20105
 Cu192 Cu 0.78195 1.22685 1.14555
 N193 N 0.83324 1.25344 1.16033
 N194 N 0.81037 1.25522 1.14481
 C195 C 0.81243 1.27696 1.12729
 C196 C 0.83813 1.28907 1.13192
 C197 C 0.85076 1.27361 1.15294
 H198 H 0.79720 1.28262 1.11122
 H199 H 0.87138 1.27665 1.16187
 N200 N 0.75590 1.19608 1.15006
 N201 N 0.75844 1.17809 1.17098
 C202 C 0.74019 1.15790 1.16656
 C203 C 0.72536 1.16333 1.14165
 C204 C 0.73571 1.18784 1.13185
 H205 H 0.73845 1.14008 1.17998
 H206 H 0.73018 1.19801 1.11197
 H207 H 0.80561 1.19654 1.16330
 H208 H 0.78838 1.22086 1.18909
 O209 O 0.52676 0.97137 0.94950
 O210 O 0.46916 0.97668 1.06790
 O211 O 0.52633 0.94700 1.03638
 O212 O 0.45208 0.94664 0.98002
 O213 O 0.51977 0.97731 1.06824
 O214 O 0.47513 0.96932 0.94637
 O215 O 0.45751 0.94716 1.03562
 O216 O 0.53208 0.94411 0.98473
 C217 C 0.53255 0.94821 0.95826
 C218 C 0.46053 0.95337 1.06161
 C219 C 0.52542 0.95334 1.06229
 C220 C 0.45982 0.94968 0.95412
 O221 O 0.47072 1.02065 0.95889
 O222 O 0.51974 1.02577 1.03995
 O223 O 0.55503 0.99424 0.98339
 O224 O 0.43756 0.99698 1.03525
 O225 O 0.46918 1.02639 1.04234
 O226 O 0.52380 1.02232 0.96812
 O227 O 0.43769 0.99760 0.98163
 O228 O 0.55182 0.99622 1.03562
 Co229 Co 0.49905 0.99508 0.96073
 Co230 Co 0.49463 1.00015 1.05072
 Co231 Co 0.53761 0.97163 1.00991
 Co232 Co 0.45100 0.97320 1.00831
 O233 O 0.49540 0.98514 1.00715
 C234 C 0.44538 1.01702 0.96554
 C235 C 0.54507 1.02029 1.03945
 C236 C 0.54877 1.01710 0.97348
 C237 C 0.44397 1.02086 1.04026
 O238 O 0.02992 0.49181 0.05502
 O239 O 0.02498 0.53949 -0.06477
 O240 O 0.04754 0.47369 -0.02039
 O241 O 0.05673 0.55025 0.01840
 O242 O 0.03423 0.49076 -0.06016
 O243 O 0.03015 0.54214 0.05545
 O244 O 0.05412 0.54241 -0.03176
 O245 O 0.02179 0.45927 0.02432
 C246 C 0.03262 0.46773 0.04728
 C247 C 0.04920 0.54514 -0.05765
 C248 C 0.05226 0.47782 -0.04642
 C249 C 0.05313 0.55015 0.04513
 O250 O -0.02292 0.54367 0.04347
 O251 O -0.02021 0.48280 -0.04656
 O252 O -0.02575 0.47295 0.00384
 O253 O 0.00050 0.56645 -0.03152
 O254 O -0.02627 0.53296 -0.04426
 O255 O -0.02439 0.49168 0.04631
 O256 O 0.00460 0.57202 0.01999
 O257 O 0.00249 0.44713 -0.03022
 Co258 Co 0.00383 0.51708 0.04508
 Co259 Co 0.00418 0.51179 -0.04906
 Co260 Co 0.01094 0.47617 -0.00879
 Co261 Co 0.02789 0.55464 -0.00646
 O262 O 0.01249 0.51604 -0.00199
 C263 C -0.01751 0.56709 0.03477
 C264 C -0.01519 0.45751 -0.04894
 C265 C -0.03563 0.47573 0.02887
 C266 C -0.02304 0.55767 -0.03983
 O267 O 1.05412 0.01807 0.47461
 O268 O 0.93830 0.03854 0.52525
 O269 O 0.97593 0.05344 0.45907
 O270 O 1.01157 0.02808 0.55715
 O271 O 0.93635 0.03631 0.47093
 O272 O 1.03364 0.04106 0.51894
 O273 O 0.96155 0.01785 0.55912
 O274 O 1.02291 0.04573 0.46566
 C275 C 1.04772 0.03919 0.46217
 C276 C 0.94492 0.03619 0.55128
 C277 C 0.95008 0.05464 0.45901
 C278 C 1.02703 0.04503 0.54469
 O279 O 1.05965 -0.00319 0.52595
 O280 O 0.93817 -0.01537 0.47261
 O281 O 1.01697 -0.00758 0.44730
 O282 O 0.97318 -0.03248 0.53907
 O283 O 0.93451 -0.01388 0.52727
 O284 O 1.03039 -0.02579 0.48782
 O285 O 1.02185 -0.02376 0.53980
 O286 O 0.96705 0.00222 0.44016
 Co287 Co 1.03028 0.00753 0.50422
 Co288 Co 0.94179 0.01139 0.49925
 Co289 Co 0.99539 0.02236 0.45667
 Co290 Co 0.99179 -0.00127 0.54464
 O291 O 0.98800 0.01099 0.49989
 C292 C 1.04771 -0.01973 0.54404
 C293 C 0.94767 -0.01422 0.44709
 C294 C 1.02740 -0.02733 0.46090
 C295 C 0.94731 -0.03356 0.53749
 C296 C 1.13675 0.17958 0.33048
 C297 C 1.12260 0.16559 0.35256
 C298 C 1.13216 0.14049 0.36183
 C299 C 1.15678 0.12982 0.34950
 C300 C 1.17103 0.14376 0.32739
 C301 C 1.16086 0.16861 0.31696
 N302 N 1.11551 0.12569 0.38244
 N303 N 1.12244 0.10258 0.39191
 C304 C 1.10436 0.08769 0.41119
 C305 C 1.11311 0.06266 0.42180
 C306 C 1.09500 0.04696 0.43906
 C307 C 1.06780 0.05610 0.44569
 C308 C 1.05930 0.08142 0.43546
 C309 C 1.07740 0.09710 0.41845
 H310 H 1.12818 0.19870 0.32379
 H311 H 1.10366 0.17405 0.36201
 H312 H 1.16464 0.11044 0.35643
 H313 H 1.18961 0.13451 0.31818
 H314 H 1.13380 0.05513 0.41628
 H315 H 1.10202 0.02748 0.44665
 H316 H 1.03845 0.08897 0.44027
 H317 H 1.07006 0.11632 0.41048
 C318 C 0.82397 -0.13666 0.32706
 C319 C 0.83730 -0.12101 0.34789
 C320 C 0.86417 -0.11070 0.34255
 C321 C 0.87791 -0.11657 0.31615
 C322 C 0.86469 -0.13246 0.29535
 C323 C 0.83747 -0.14250 0.30051
 N324 N 0.87680 -0.09426 0.36425
 N325 N 0.90001 -0.08206 0.36016
 C326 C 0.91205 -0.06565 0.38230
 C327 C 0.93596 -0.05030 0.37576
 C328 C 0.94765 -0.03354 0.39676
 C329 C 0.93571 -0.03212 0.42480
 C330 C 0.91194 -0.04788 0.43138
 C331 C 0.90016 -0.06440 0.41033
 H332 H 0.80317 -0.14432 0.33190
 H333 H 0.82656 -0.11669 0.36821
 H334 H 0.89874 -0.10884 0.31158
 H335 H 0.87559 -0.13644 0.27506
 H336 H 0.94535 -0.05111 0.35426
 H337 H 0.96599 -0.02168 0.39104
 H338 H 0.90222 -0.04727 0.45275
 H339 H 0.88173 -0.07615 0.41598
 C340 C 0.81372 0.14578 0.68073
 C341 C 0.82667 0.13017 0.65922
 C342 C 0.85592 0.12822 0.65768
 C343 C 0.87224 0.14266 0.67747
 C344 C 0.85934 0.15875 0.69858
 C345 C 0.82995 0.16024 0.70057
 N346 N 0.86854 0.11150 0.63590
 N347 N 0.89385 0.10361 0.63753
 C348 C 0.90655 0.08721 0.61552
 C349 C 0.93107 0.07306 0.62184
 C350 C 0.94349 0.05629 0.60104
 C351 C 0.93194 0.05403 0.57325
 C352 C 0.90763 0.06872 0.56676
 C353 C 0.89487 0.08498 0.58780
 H354 H 0.79105 0.14676 0.68167
 H355 H 0.81390 0.11921 0.64399
 H356 H 0.89491 0.14159 0.67653
 H357 H 0.87234 0.16955 0.71372
 H358 H 0.94027 0.07466 0.64313
 H359 H 0.96215 0.04515 0.60666
 H360 H 0.89821 0.06732 0.54556
 H361 H 0.87602 0.09591 0.58238
 C362 C 1.19195 -0.12572 0.66038
 C363 C 1.17762 -0.10727 0.64310
 C364 C 1.14913 -0.11085 0.63747
 C365 C 1.13509 -0.13343 0.64907
 C366 C 1.14943 -0.15200 0.66619
 C367 C 1.17799 -0.14826 0.67221
 N368 N 1.13495 -0.09139 0.62000
 N369 N 1.10866 -0.09266 0.61587
 C370 C 1.09405 -0.07360 0.59832
 C371 C 1.06501 -0.07615 0.59587
 C372 C 1.05000 -0.05837 0.57852
 C373 C 1.06387 -0.03770 0.56314
 C374 C 1.09305 -0.03492 0.56581
 C375 C 1.10807 -0.05275 0.58332
 H376 H 1.21399 -0.12234 0.66433
 H377 H 1.18871 -0.09003 0.63419
 H378 H 1.11305 -0.13671 0.64498
 H379 H 1.13797 -0.16898 0.67512
 H380 H 1.05398 -0.09210 0.60735
 H381 H 1.02753 -0.06103 0.57691
 H382 H 1.10423 -0.01913 0.55426
 H383 H 1.13057 -0.05039 0.58493
 C384 C 0.32181 1.17516 1.11779
 C385 C 0.34138 1.16060 1.10123
 C386 C 0.34237 1.13253 1.10316
 C387 C 0.32382 1.11912 1.12218
 C388 C 0.30477 1.13358 1.13921
 C389 C 0.30335 1.16187 1.13730
 N390 N 0.36290 1.11788 1.08666
 N391 N 0.35985 1.09280 1.08219
 C392 C 0.38061 1.07656 1.06806
 C393 C 0.37350 1.05022 1.06058
 C394 C 0.39393 1.03250 1.05022
 C395 C 0.42205 1.04078 1.04762
 C396 C 0.42901 1.06762 1.05398
 C397 C 0.40839 1.08546 1.06406
 H398 H 0.32177 1.19684 1.11568
 H399 H 0.35573 1.17119 1.08679
 H400 H 0.32436 1.09742 1.12426
 H401 H 0.29096 1.12226 1.15347
 H402 H 0.35216 1.04316 1.06364
 H403 H 0.38787 1.01201 1.04534
 H404 H 0.45049 1.07457 1.05202
 H405 H 0.41434 1.10576 1.06986
 C406 C 0.34843 0.80680 0.85069
 C407 C 0.36849 0.81964 0.86762
 C408 C 0.38137 0.84335 0.85797
 C409 C 0.37505 0.85345 0.83037
 C410 C 0.35495 0.84072 0.81338
 C411 C 0.34054 0.81768 0.82369
 N412 N 0.39871 0.85794 0.87758
 N413 N 0.41110 0.87974 0.87047
 C414 C 0.42616 0.89533 0.89124
 C415 C 0.44006 0.91877 0.88213
 C416 C 0.45210 0.93604 0.90244
 C417 C 0.45006 0.93018 0.93227
 C418 C 0.43701 0.90611 0.94122
 C419 C 0.42524 0.88881 0.92092
 H420 H 0.33856 0.78893 0.85951
 H421 H 0.37330 0.81159 0.88884
 H422 H 0.38489 0.87171 0.82235
 H423 H 0.35030 0.84964 0.79259
 H424 H 0.44082 0.92408 0.85932
 H425 H 0.46204 0.95442 0.89490
 H426 H 0.43528 0.90092 0.96402
 H427 H 0.41458 0.87084 0.92855
 C428 C 0.64421 0.81066 1.15132
 C429 C 0.62113 0.82312 1.13865
 C430 C 0.61046 0.84714 1.14993
 C431 C 0.62221 0.85796 1.17509
 C432 C 0.64527 0.84555 1.18788
 C433 C 0.65728 0.82215 1.17564
 N434 N 0.58977 0.86142 1.13379
 N435 N 0.58020 0.88419 1.14175
 C436 C 0.56182 0.89948 1.12374
 C437 C 0.55420 0.92553 1.13225
 C438 C 0.54064 0.94274 1.11288
 C439 C 0.53467 0.93405 1.08463
 C440 C 0.54052 0.90726 1.07691
 C441 C 0.55399 0.89013 1.09627
 H442 H 0.65214 0.79252 1.14128
 H443 H 0.61221 0.81457 1.11924
 H444 H 0.61423 0.87650 1.18430
 H445 H 0.65401 0.85502 1.20681
 H446 H 0.56011 0.93299 1.15337
 H447 H 0.53625 0.96324 1.11945
 H448 H 0.53590 0.89991 1.05538
 H449 H 0.55949 0.87003 1.08920
 C450 C 0.67450 1.17110 0.90035
 C451 C 0.65580 1.15562 0.91708
 C452 C 0.65018 1.12894 0.90956
 C453 C 0.66286 1.11804 0.88460
 C454 C 0.68088 1.13365 0.86736
 C455 C 0.68726 1.16038 0.87508
 N456 N 0.63093 1.11340 0.92682
 N457 N 0.63232 1.08783 0.92727
 C458 C 0.61219 1.07142 0.94233
 C459 C 0.61855 1.04436 0.94734
 C460 C 0.59829 1.02696 0.95895
 C461 C 0.57104 1.03629 0.96500
 C462 C 0.56492 1.06369 0.96089
 C463 C 0.58544 1.08122 0.94984
 H464 H 0.67835 1.19161 0.90702
 H465 H 0.64590 1.16434 0.93614
 H466 H 0.65850 1.09752 0.87819
 H467 H 0.69020 1.12432 0.84839
 H468 H 0.63909 1.03660 0.94155
 H469 H 0.60357 1.00594 0.96190
 H470 H 0.54412 1.07139 0.96560
 H471 H 0.58005 1.10207 0.94599
 C472 C 0.16883 0.32796 0.12430
 C473 C 0.15368 0.34689 0.10845
 C474 C 0.13242 0.36194 0.12187
 C475 C 0.12657 0.35807 0.15156
 C476 C 0.14140 0.33884 0.16733
 C477 C 0.16253 0.32346 0.15380
 N478 N 0.11637 0.38015 0.10466
 N479 N 0.09966 0.39725 0.11593
 C480 C 0.08290 0.41462 0.09844
 C481 C 0.07859 0.40927 0.06890
 C482 C 0.06181 0.42632 0.05240
 C483 C 0.04946 0.44921 0.06503
 C484 C 0.05389 0.45452 0.09456
 C485 C 0.07023 0.43714 0.11118
 H486 H 0.18477 0.31623 0.11319
 H487 H 0.15829 0.34964 0.08556
 H488 H 0.11015 0.36942 0.16237
 H489 H 0.13623 0.33589 0.19007
 H490 H 0.08799 0.39183 0.05865
 H491 H 0.05888 0.42185 0.02965
 H492 H 0.04455 0.47199 0.10484
 H493 H 0.07329 0.44137 0.13396
 C494 C -0.15780 0.31833 -0.11008
 C495 C -0.13964 0.33621 -0.09644
 C496 C -0.12325 0.35414 -0.11286
 C497 C -0.12532 0.35420 -0.14324
 C498 C -0.14307 0.33594 -0.15696
 C499 C -0.15934 0.31774 -0.14049
 N500 N -0.10382 0.37116 -0.09825
 N501 N -0.09238 0.39146 -0.11045
 C502 C -0.07217 0.40745 -0.09562
 C503 C -0.06747 0.43405 -0.10447
 C504 C -0.04869 0.45037 -0.08946
 C505 C -0.03371 0.43996 -0.06591
 C506 C -0.03771 0.41295 -0.05777
 C507 C -0.05702 0.39691 -0.07227
 H508 H -0.16985 0.30434 -0.09686
 H509 H -0.13811 0.33593 -0.07302
 H510 H -0.11271 0.36783 -0.15635
 H511 H -0.14397 0.33595 -0.18043
 H512 H -0.07893 0.44234 -0.12254
 H513 H -0.04597 0.47111 -0.09616
 H514 H -0.02654 0.40441 -0.03965
 H515 H -0.06011 0.37628 -0.06529
 C516 C 0.14406 0.67008 -0.20358
 C517 C 0.12764 0.64984 -0.19071
 C518 C 0.13716 0.63595 -0.16632
 C519 C 0.16384 0.64192 -0.15544
 C520 C 0.18026 0.66212 -0.16826
 C521 C 0.17037 0.67680 -0.19217
 N522 N 0.11881 0.61715 -0.15195
 N523 N 0.12586 0.60515 -0.12873
 C524 C 0.10727 0.58756 -0.11301
 C525 C 0.11590 0.57730 -0.08630
 C526 C 0.09731 0.56258 -0.06874
 C527 C 0.06974 0.55773 -0.07777
 C528 C 0.06148 0.56695 -0.10522
 C529 C 0.08006 0.58188 -0.12269
 H530 H 0.13568 0.68095 -0.22189
 H531 H 0.10710 0.64548 -0.19927
 H532 H 0.17178 0.63138 -0.13669
 H533 H 0.20057 0.66637 -0.15915
 H534 H 0.13679 0.58156 -0.07861
 H535 H 0.10427 0.55566 -0.04772
 H536 H 0.04034 0.56352 -0.11268
 H537 H 0.07293 0.58959 -0.14330
 C538 C -0.16995 0.68482 0.12483
 C539 C -0.15433 0.66527 0.11006
 C540 C -0.12677 0.67058 0.10098
 C541 C -0.11494 0.69591 0.10665
 C542 C -0.13044 0.71543 0.12168
 C543 C -0.15808 0.71004 0.13108
 N544 N -0.11095 0.64953 0.08735
 N545 N -0.08668 0.65335 0.07625
 C546 C -0.07060 0.63168 0.06409
 C547 C -0.04502 0.63731 0.05008
 C548 C -0.02802 0.61638 0.03975
 C549 C -0.03626 0.58940 0.04364
 C550 C -0.06228 0.58386 0.05711
 C551 C -0.07932 0.60478 0.06717
 H552 H -0.19105 0.67988 0.13195
 H553 H -0.16362 0.64577 0.10596
 H554 H -0.09360 0.70045 0.09994
 H555 H -0.12076 0.73470 0.12592
 H556 H -0.03805 0.65794 0.04757
 H557 H -0.00814 0.62130 0.02939
 H558 H -0.06932 0.56332 0.06026
 H559 H -0.09900 0.59988 0.07794
 C560 C 1.09645 0.17189 0.70240
 C561 C 1.07994 0.16061 0.68067
 C562 C 1.09182 0.14308 0.66020
 C563 C 1.12052 0.13690 0.66169
 C564 C 1.13686 0.14760 0.68384
 C565 C 1.12496 0.16511 0.70445
 N566 N 1.07414 0.13024 0.63946
 N567 N 1.08412 0.11978 0.61634
 C568 C 1.06723 0.10455 0.59682
 C569 C 1.07822 0.09795 0.56943
 C570 C 1.06404 0.07999 0.55146
 C571 C 1.03889 0.06786 0.56097
 C572 C 1.02727 0.07541 0.58793
 C573 C 1.04120 0.09379 0.60563
 H574 H 1.08673 0.18517 0.71817
 H575 H 1.05780 0.16534 0.67993
 H576 H 1.13009 0.12314 0.64631
 H577 H 1.15881 0.14215 0.68486
 H578 H 1.09832 0.10601 0.56244
 H579 H 1.07361 0.07439 0.53089
 H580 H 1.00798 0.06633 0.59580
 H581 H 1.03237 0.09845 0.62679
 C582 C 0.87457 -0.17309 0.68038
 C583 C 0.89043 -0.15947 0.65924
 C584 C 0.87729 -0.14358 0.63839
 C585 C 0.84787 -0.14205 0.63834
 C586 C 0.83196 -0.15564 0.65946
 C587 C 0.84513 -0.17097 0.68106
 N588 N 0.89426 -0.12789 0.61881
 N589 N 0.88356 -0.11236 0.59997
 C590 C 0.90033 -0.09522 0.58170
 C591 C 0.88686 -0.07717 0.56322
 C592 C 0.90229 -0.05783 0.54778
 C593 C 0.93158 -0.05632 0.55054
 C594 C 0.94524 -0.07539 0.56795
 C595 C 0.92973 -0.09465 0.58351
 H596 H 0.88555 -0.18459 0.69660
 H597 H 0.91310 -0.16074 0.65957
 H598 H 0.83719 -0.12991 0.62240
 H599 H 0.80938 -0.15377 0.65899
 H600 H 0.86422 -0.07743 0.56165
 H601 H 0.89119 -0.04350 0.53444
 H602 H 0.96778 -0.07473 0.57052
 H603 H 0.94064 -0.10845 0.59763
 C604 C 1.16696 -0.14758 0.35898
 C605 C 1.15098 -0.13263 0.37886
 C606 C 1.12186 -0.13074 0.37602
 C607 C 1.10869 -0.14466 0.35346
 C608 C 1.12457 -0.15998 0.33388
 C609 C 1.15391 -0.16132 0.33621
 N610 N 1.10634 -0.11388 0.39562
 N611 N 1.08112 -0.10695 0.39083
 C612 C 1.06594 -0.08945 0.41004
 C613 C 1.04226 -0.07602 0.39977
 C614 C 1.02892 -0.05646 0.41677
 C615 C 1.03870 -0.05056 0.44466
 C616 C 1.06142 -0.06521 0.45563
 C617 C 1.07515 -0.08432 0.43834
 H618 H 1.18948 -0.14843 0.36147
 H619 H 1.16137 -0.12201 0.39617
 H620 H 1.08619 -0.14355 0.35086
 H621 H 1.11392 -0.17019 0.31646
 H622 H 1.03492 -0.07987 0.37803
 H623 H 1.01143 -0.04546 0.40785
 H624 H 1.06947 -0.06093 0.47700
 H625 H 1.09328 -0.09463 0.44682
 C626 C 0.88994 0.17780 0.29544
 C627 C 0.90376 0.16713 0.31945
 C628 C 0.88912 0.15167 0.34006
 C629 C 0.86018 0.14748 0.33676
 C630 C 0.84637 0.15802 0.31272
 C631 C 0.86115 0.17299 0.29155
 N632 N 0.90433 0.13902 0.36298
 N633 N 0.89208 0.12491 0.38246
 C634 C 0.90714 0.11051 0.40425
 C635 C 0.89206 0.09426 0.42377
 C636 C 0.90608 0.07710 0.44274
 C637 C 0.93555 0.07596 0.44253
 C638 C 0.95069 0.09343 0.42403
 C639 C 0.93661 0.11053 0.40497
 H640 H 0.90205 0.18909 0.27955
 H641 H 0.92609 0.17039 0.32165
 H642 H 0.84836 0.13558 0.35239
 H643 H 0.82414 0.15421 0.31065
 H644 H 0.86936 0.09407 0.42343
 H645 H 0.89380 0.06396 0.45677
 H646 H 0.97340 0.09300 0.42333
 H647 H 0.94873 0.12298 0.39010
 C648 C 0.17741 0.32549 -0.11078
 C649 C 0.16837 0.34901 -0.09692
 C650 C 0.15140 0.36750 -0.11141
 C651 C 0.14399 0.36245 -0.14031
 C652 C 0.15276 0.33881 -0.15409
 C653 C 0.16926 0.31989 -0.13936
 N654 N 0.14003 0.38990 -0.09565
 N655 N 0.12603 0.40838 -0.10797
 C656 C 0.11221 0.42930 -0.09189
 C657 C 0.11140 0.42922 -0.06138
 C658 C 0.09345 0.44669 -0.04634
 C659 C 0.07600 0.46448 -0.06154
 C660 C 0.07857 0.46597 -0.09194
 C661 C 0.09650 0.44843 -0.10694
 H662 H 0.18995 0.31129 -0.09873
 H663 H 0.17405 0.35254 -0.07457
 H664 H 0.13075 0.37635 -0.15195
 H665 H 0.14639 0.33526 -0.17621
 H666 H 0.12341 0.41467 -0.04922
 H667 H 0.09195 0.44507 -0.02293
 H668 H 0.06544 0.47947 -0.10425
 H669 H 0.09696 0.44873 -0.13044
 C670 C -0.12089 0.30951 0.10633
 C671 C -0.10802 0.33079 0.09150
 C672 C -0.12254 0.35477 0.08671
 C673 C -0.15064 0.35701 0.09602
 C674 C -0.16390 0.33528 0.11007
 C675 C -0.14890 0.31156 0.11572
 N676 N -0.10797 0.37640 0.07256
 N677 N -0.11471 0.40102 0.07564
 C678 C -0.09859 0.42156 0.06127
 C679 C -0.09480 0.44649 0.07481
 C680 C -0.07520 0.46497 0.06362
 C681 C -0.05978 0.45898 0.03822
 C682 C -0.06533 0.43484 0.02351
 C683 C -0.08431 0.41618 0.03509
 H684 H -0.10901 0.29132 0.11027
 H685 H -0.08640 0.32884 0.08431
 H686 H -0.16225 0.37537 0.09228
 H687 H -0.18554 0.33721 0.11718
 H688 H -0.10572 0.45090 0.09500
 H689 H -0.07138 0.48345 0.07535
 H690 H -0.05377 0.42961 0.00394
 H691 H -0.08716 0.39714 0.02413
 C692 C -0.18062 0.66708 -0.13267
 C693 C -0.16651 0.64750 -0.11652
 C694 C -0.13820 0.65100 -0.10970
 C695 C -0.12406 0.67423 -0.11940
 C696 C -0.13792 0.69344 -0.13599
 C697 C -0.16629 0.69005 -0.14284
 N698 N -0.12370 0.63042 -0.09407
 N699 N -0.10027 0.63539 -0.08231
 C700 C -0.08359 0.61531 -0.06850
 C701 C -0.05979 0.62363 -0.05360
 C702 C -0.04083 0.60476 -0.04308
 C703 C -0.04519 0.57710 -0.04761
 C704 C -0.06984 0.56867 -0.06138
 C705 C -0.08895 0.58767 -0.07176
 H706 H -0.20248 0.66397 -0.13779
 H707 H -0.17761 0.62961 -0.10933
 H708 H -0.10212 0.67732 -0.11465
 H709 H -0.12643 0.71107 -0.14328
 H710 H -0.05546 0.64488 -0.05096
 H711 H -0.02222 0.61192 -0.03229
 H712 H -0.07382 0.54750 -0.06508
 H713 H -0.10722 0.58083 -0.08334
 C714 C 0.14428 0.66438 0.19829
 C715 C 0.13008 0.64402 0.18364
 C716 C 0.13997 0.63483 0.15674
 C717 C 0.16495 0.64558 0.14503
 C718 C 0.17930 0.66584 0.15974
 C719 C 0.16880 0.67584 0.18628
 N720 N 0.12332 0.61598 0.14102
 N721 N 0.12980 0.60841 0.11544
 C722 C 0.11205 0.59091 0.09919
 C723 C 0.11864 0.58596 0.07002
 C724 C 0.10001 0.57173 0.05259
 C725 C 0.07448 0.56209 0.06422
 C726 C 0.06858 0.56591 0.09390
 C727 C 0.08715 0.58028 0.11123
 H728 H 0.13581 0.67133 0.21884
 H729 H 0.11085 0.63588 0.19289
 H730 H 0.17301 0.63881 0.12422
 H731 H 0.19803 0.67426 0.14978
 H732 H 0.13776 0.59405 0.06049
 H733 H 0.10519 0.56903 0.02983
 H734 H 0.04913 0.55867 0.10351
 H735 H 0.08163 0.58374 0.13378
 C736 C 0.27774 1.10552 0.86914
 C737 C 0.29660 1.08863 0.88333
 C738 C 0.32083 1.09918 0.89579
 C739 C 0.32577 1.12705 0.89440
 C740 C 0.30670 1.14403 0.88062
 C741 C 0.28259 1.13341 0.86764
 N742 N 0.34019 1.08120 0.90934
 N743 N 0.36463 1.08872 0.91661
 C744 C 0.38415 1.07083 0.93001
 C745 C 0.41229 1.07859 0.93164
 C746 C 0.43218 1.06117 0.94334
 C747 C 0.42412 1.03578 0.95412
 C748 C 0.39568 1.02833 0.95328
 C749 C 0.37587 1.04561 0.94109
 H750 H 0.25922 1.09676 0.85962
 H751 H 0.29251 1.06720 0.88431
 H752 H 0.34431 1.13571 0.90397
 H753 H 0.31111 1.16539 0.87968
 H754 H 0.41890 1.09802 0.92329
 H755 H 0.45389 1.06757 0.94391
 H756 H 0.38885 1.00891 0.96146
 H757 H 0.35418 1.03926 0.94025
 C758 C 0.34744 0.81119 1.16782
 C759 C 0.36857 0.82438 1.15202
 C760 C 0.37735 0.85014 1.15992
 C761 C 0.36540 0.86232 1.18462
 C762 C 0.34414 0.84919 1.20045
 C763 C 0.33441 0.82368 1.19186
 N764 N 0.39660 0.86418 1.14114
 N765 N 0.40617 0.88745 1.14695
 C766 C 0.42343 0.90205 1.12660
 C767 C 0.43337 0.92758 1.13411
 C768 C 0.44692 0.94382 1.11338
 C769 C 0.45046 0.93480 1.08466
 C770 C 0.44182 0.90858 1.07761
 C771 C 0.42847 0.89233 1.09838
 H772 H 0.34097 0.79151 1.16057
 H773 H 0.37761 0.81478 1.13301
 H774 H 0.37183 0.88229 1.19115
 H775 H 0.33491 0.85944 1.21891
 H776 H 0.42965 0.93531 1.15577
 H777 H 0.45343 0.96389 1.11950
 H778 H 0.44445 0.90097 1.05574
 H779 H 0.42107 0.87263 1.09200
 C780 C 0.70666 1.11730 1.13168
 C781 C 0.68778 1.10003 1.11824
 C782 C 0.66680 1.11025 1.10046
 C783 C 0.66516 1.13818 1.09574
 C784 C 0.68440 1.15554 1.10885
 C785 C 0.70517 1.14526 1.12721
 N786 N 0.64738 1.09171 1.08801
 N787 N 0.62524 1.09900 1.07504
 C788 C 0.60618 1.07948 1.06359
 C789 C 0.57916 1.08749 1.05579
 C790 C 0.55933 1.06836 1.04727
 C791 C 0.56642 1.04092 1.04606
 C792 C 0.59396 1.03313 1.05249
 C793 C 0.61360 1.05218 1.06137
 H794 H 0.72264 1.10867 1.14529
 H795 H 0.68930 1.07855 1.12196
 H796 H 0.64912 1.14651 1.08198
 H797 H 0.68275 1.17699 1.10506
 H798 H 0.57319 1.10847 1.05725
 H799 H 0.53833 1.07496 1.04213
 H800 H 0.60011 1.01216 1.05156
 H801 H 0.63444 1.04548 1.06697
 C802 C 0.65254 0.85132 0.80867
 C803 C 0.63126 0.86664 0.82166
 C804 C 0.61956 0.85892 0.84839
 C805 C 0.62861 0.83496 0.86151
 C806 C 0.64988 0.81961 0.84857
 C807 C 0.66264 0.82792 0.82230
 N808 N 0.60018 0.87665 0.86273
 N809 N 0.58974 0.87116 0.88761
 C810 C 0.57208 0.88953 0.90326
 C811 C 0.56339 0.88266 0.93142
 C812 C 0.54938 0.90138 0.94888
 C813 C 0.54373 0.92738 0.93838
 C814 C 0.55107 0.93378 0.90952
 C815 C 0.56526 0.91504 0.89210
 H816 H 0.66145 0.85833 0.78832
 H817 H 0.62445 0.88505 0.81130
 H818 H 0.61985 0.82849 0.88218
 H819 H 0.65671 0.80165 0.85969
 H820 H 0.56851 0.86308 0.94025
 H821 H 0.54383 0.89578 0.97096
 H822 H 0.54692 0.95363 0.90082
 H823 H 0.57172 0.92079 0.87034
   
