data_POSCAR
  _audit_creation_date              2014-09-24
  _audit_creation_method            'ToBaCCo'
  _symmetry_space_group_name_H-M    'P1'
  _symmetry_Int_Tables_number       1
  _symmetry_cell_setting            triclinic
  loop_
  _symmetry_equiv_pos_as_xyz
 x,y,z
_cell_length_a 33.8956
_cell_length_b 26.4774
_cell_length_c 31.0479
_cell_angle_alpha 88.954100
_cell_angle_beta 90.691300
_cell_angle_gamma 89.672800
loop_
  _atom_site_label
  _atom_site_type_symbol
  _atom_site_fract_x
  _atom_site_fract_y
  _atom_site_fract_z
C1 C 0.30632 0.32112 0.23452
 H2 H 0.30869 0.32628 0.26895
 C3 C 0.32900 0.35059 0.20656
 H4 H 0.34812 0.37878 0.22019
 C5 C 0.27729 0.27868 0.17571
 H6 H 0.25750 0.25024 0.16374
 C7 C 0.29950 0.30708 0.14664
 H8 H 0.29618 0.30046 0.11246
 N9 N 0.28056 0.28669 0.21873
 C10 C 0.19184 0.27024 0.31845
 H11 H 0.19183 0.22956 0.32246
 C12 C 0.16688 0.29977 0.34320
 H13 H 0.14849 0.28114 0.36676
 C14 C 0.21724 0.34325 0.28364
 H15 H 0.23650 0.36008 0.26002
 C16 C 0.19273 0.37423 0.30766
 H17 H 0.19376 0.41480 0.30263
 Zn18 Zn 0.24984 0.24902 0.25826
 N19 N 0.21682 0.29228 0.28990
 C20 C 0.28442 0.22081 0.33888
 N21 N 0.28499 0.21312 0.29572
 C22 C 0.31126 0.18054 0.27827
 C23 C 0.33738 0.15269 0.30469
 C24 C 0.31001 0.19389 0.36644
 C25 C 0.18847 0.22554 0.20192
 C26 C 0.16357 0.19529 0.17744
 C27 C 0.19552 0.12152 0.20914
 C28 C 0.21985 0.15325 0.23302
 N29 N 0.21644 0.20426 0.22835
 H30 H 0.26416 0.24784 0.35214
 H31 H 0.31144 0.17564 0.24375
 H32 H 0.35691 0.12582 0.28994
 H33 H 0.30875 0.20010 0.40079
 H34 H 0.18622 0.26625 0.19911
 H35 H 0.14290 0.21351 0.15530
 H36 H 0.19914 0.08096 0.21254
 H37 H 0.24163 0.13698 0.25491
 C38 C 0.16709 0.35266 0.33787
 C39 C 0.32570 0.34370 0.16180
 C40 C 0.16705 0.14238 0.18077
 C41 C 0.33688 0.15920 0.34957
 C42 C 0.81535 0.78729 0.21075
 H43 H 0.82767 0.75676 0.23010
 C44 C 0.84060 0.81737 0.18614
 H45 H 0.87158 0.80781 0.18706
 C46 C 0.76009 0.83547 0.18692
 H47 H 0.72880 0.84321 0.18816
 C48 C 0.78418 0.86652 0.16179
 H49 H 0.77073 0.89729 0.14327
 N50 N 0.77576 0.79599 0.21005
 C51 C 0.66694 0.78726 0.27243
 H52 H 0.65507 0.75699 0.25340
 C53 C 0.64158 0.81680 0.29678
 H54 H 0.61022 0.80913 0.29617
 C55 C 0.72216 0.83364 0.29692
 H56 H 0.75367 0.83989 0.29665
 C57 C 0.69790 0.86394 0.32189
 H58 H 0.71116 0.89405 0.34005
 Zn59 Zn 0.74096 0.75386 0.24217
 N60 N 0.70647 0.79575 0.27333
 C61 C 0.76596 0.71694 0.32458
 N62 N 0.77032 0.71160 0.28140
 C63 C 0.79516 0.67605 0.26564
 C64 C 0.81762 0.64515 0.29357
 C65 C 0.78793 0.68700 0.35365
 C66 C 0.69220 0.73510 0.16954
 C67 C 0.66992 0.70619 0.14110
 C68 C 0.68595 0.63209 0.18438
 C69 C 0.70788 0.66244 0.21203
 N70 N 0.71088 0.71300 0.20410
 H71 H 0.74555 0.74456 0.33669
 H72 H 0.79749 0.67168 0.23118
 H73 H 0.83658 0.61686 0.27989
 H74 H 0.78434 0.69226 0.38790
 H75 H 0.69447 0.77525 0.16385
 H76 H 0.65628 0.72477 0.11338
 H77 H 0.68391 0.59193 0.19123
 H78 H 0.72205 0.64550 0.24011
 C79 C 0.65702 0.85505 0.32259
 C80 C 0.82511 0.85766 0.16069
 C81 C 0.66635 0.65389 0.14857
 C82 C 0.81464 0.65105 0.33837
 C83 C 0.82393 0.31151 0.73326
 H84 H 0.82972 0.31289 0.76756
 C85 C 0.84753 0.33896 0.70470
 H86 H 0.87153 0.36070 0.71785
 C87 C 0.78585 0.28011 0.67532
 H88 H 0.76208 0.25685 0.66379
 C89 C 0.80865 0.30683 0.64568
 H90 H 0.80182 0.30405 0.61163
 N91 N 0.79317 0.28383 0.71830
 C92 C 0.70274 0.28069 0.81727
 H93 H 0.69601 0.24079 0.81853
 C94 C 0.68272 0.31398 0.84387
 H95 H 0.66111 0.29880 0.86583
 C96 C 0.74050 0.34781 0.78818
 H97 H 0.76289 0.36108 0.76641
 C98 C 0.72130 0.38236 0.81422
 H99 H 0.72935 0.42187 0.81231
 Zn100 Zn 0.76039 0.25002 0.75859
 N101 N 0.73167 0.29780 0.79086
 C102 C 0.78755 0.21018 0.83915
 N103 N 0.79299 0.20987 0.79588
 C104 C 0.82176 0.18106 0.77836
 C105 C 0.84629 0.15062 0.80461
 C106 C 0.81082 0.17981 0.86653
 C107 C 0.69536 0.23120 0.70438
 C108 C 0.66976 0.20223 0.67947
 C109 C 0.70229 0.12697 0.70754
 C110 C 0.72732 0.15738 0.73179
 N111 N 0.72398 0.20854 0.72910
 H112 H 0.76498 0.23370 0.85272
 H113 H 0.82548 0.18151 0.74379
 H114 H 0.86810 0.12766 0.78900
 H115 H 0.80536 0.18060 0.90085
 H116 H 0.69330 0.27199 0.70296
 H117 H 0.64862 0.22162 0.65866
 H118 H 0.70603 0.08632 0.70926
 H119 H 0.74994 0.14002 0.75199
 C120 C 0.69221 0.36567 0.84275
 C121 C 0.83950 0.33754 0.66012
 C122 C 0.67330 0.14921 0.68057
 C123 C 0.84099 0.14950 0.84971
 C124 C 0.31674 0.78977 0.70996
 H125 H 0.32899 0.75881 0.72885
 C126 C 0.34191 0.81952 0.68496
 H127 H 0.37288 0.80969 0.68452
 C128 C 0.26159 0.83893 0.68706
 H129 H 0.23034 0.84693 0.68859
 C130 C 0.28567 0.86971 0.66171
 H131 H 0.27253 0.90075 0.64328
 N132 N 0.27722 0.79922 0.70998
 C133 C 0.16758 0.78987 0.77076
 H134 H 0.15655 0.75865 0.75229
 C135 C 0.14134 0.81913 0.79417
 H136 H 0.11017 0.81030 0.79341
 C137 C 0.22155 0.83872 0.79505
 H138 H 0.25293 0.84599 0.79510
 C139 C 0.19637 0.86876 0.81916
 H140 H 0.20872 0.89970 0.83706
 Zn141 Zn 0.24229 0.75765 0.74234
 N142 N 0.20691 0.79970 0.77204
 C143 C 0.26646 0.72346 0.82572
 N144 N 0.27126 0.71667 0.78277
 C145 C 0.29619 0.68054 0.76816
 C146 C 0.31819 0.65036 0.79705
 C147 C 0.28800 0.69430 0.85573
 C148 C 0.19371 0.73769 0.67024
 C149 C 0.17073 0.70858 0.64267
 C150 C 0.18723 0.63492 0.68634
 C151 C 0.20972 0.66549 0.71324
 N152 N 0.21276 0.71592 0.70471
 H153 H 0.24601 0.75157 0.83692
 H154 H 0.29885 0.67501 0.73387
 H155 H 0.33715 0.62147 0.78425
 H156 H 0.28401 0.70063 0.88978
 H157 H 0.19603 0.77779 0.66418
 H158 H 0.15657 0.72678 0.61505
 H159 H 0.18512 0.59486 0.69362
 H160 H 0.22414 0.64889 0.74131
 C161 C 0.15570 0.85839 0.81953
 C162 C 0.32637 0.86016 0.66024
 C163 C 0.16702 0.65645 0.65085
 C164 C 0.31469 0.65765 0.84164
 C165 C -0.03741 -0.03163 0.03685
 C166 C -0.01603 -0.00779 0.00397
 C167 C -0.03595 0.01517 -0.03106
 C168 C -0.07749 0.01606 -0.03291
 C169 C -0.09847 -0.00787 0.00048
 C170 C -0.07901 -0.03289 0.03514
 C171 C 0.02737 -0.00464 0.00729
 C172 C 0.05120 -0.02625 -0.02419
 C173 C 0.09262 -0.02341 -0.02090
 C174 C 0.10953 0.00216 0.01389
 C175 C 0.08607 0.02503 0.04500
 C176 C 0.04484 0.02050 0.04195
 H177 H -0.02086 -0.04845 0.06339
 H178 H -0.01861 0.03459 -0.05514
 H179 H 0.03707 -0.04627 -0.05013
 H180 H 0.02602 0.03635 0.06621
 H181 H -0.13049 -0.00750 -0.00082
 H182 H 0.14138 0.00487 0.01650
 C183 C -0.04534 0.47604 0.52867
 C184 C -0.02692 0.50283 0.49532
 C185 C -0.04971 0.52712 0.46313
 C186 C -0.09118 0.52453 0.46384
 C187 C -0.10925 0.49739 0.49747
 C188 C -0.08670 0.47319 0.53009
 C189 C 0.01642 0.50469 0.49381
 C190 C 0.03665 0.47688 0.46303
 C191 C 0.07815 0.47629 0.46270
 C192 C 0.09890 0.50599 0.49223
 C193 C 0.07893 0.53511 0.52246
 C194 C 0.03750 0.53333 0.52369
 H195 H -0.02716 0.45637 0.55255
 H196 H -0.03475 0.54874 0.43843
 H197 H 0.01977 0.45573 0.43978
 H198 H 0.02142 0.55376 0.54782
 H199 H -0.14117 0.49518 0.49834
 H200 H 0.13088 0.50639 0.49175
 C201 C 0.46802 -0.02902 0.53553
 C202 C 0.48902 -0.00065 0.50497
 C203 C 0.46871 0.02555 0.47180
 C204 C 0.42729 0.02349 0.46887
 C205 C 0.40674 -0.00548 0.49944
 C206 C 0.42661 -0.03166 0.53294
 C207 C 0.53237 0.00227 0.50797
 C208 C 0.55576 -0.02129 0.47715
 C209 C 0.59722 -0.01905 0.48000
 C210 C 0.61460 0.00789 0.51379
 C211 C 0.59154 0.03262 0.54430
 C212 C 0.55022 0.02872 0.54161
 H213 H 0.48429 -0.04976 0.56036
 H214 H 0.48544 0.04844 0.44943
 H215 H 0.54120 -0.04227 0.45208
 H216 H 0.53165 0.04587 0.56545
 H217 H 0.37481 -0.00725 0.49743
 H218 H 0.64649 0.01009 0.51613
 C219 C 0.44848 0.47662 0.03379
 C220 C 0.46803 0.50270 0.00085
 C221 C 0.44639 0.52967 -0.03071
 C222 C 0.40489 0.53037 -0.02987
 C223 C 0.38564 0.50441 0.00359
 C224 C 0.40704 0.47753 0.03563
 C225 C 0.51130 0.50072 -0.00125
 C226 C 0.52953 0.46784 -0.02969
 C227 C 0.57074 0.46505 -0.03186
 C228 C 0.59371 0.49577 -0.00486
 C229 C 0.57570 0.52950 0.02343
 C230 C 0.53425 0.53119 0.02542
 H231 H 0.46587 0.45476 0.05696
 H232 H 0.46230 0.55042 -0.05522
 H233 H 0.51147 0.44418 -0.05005
 H234 H 0.51955 0.55538 0.04801
 H235 H 0.35367 0.50488 0.00456
 H236 H 0.62559 0.49319 -0.00527
 C237 C 0.12761 -0.11289 -0.15397
 C238 C 0.13817 -0.09082 -0.11721
 C239 C 0.10880 -0.06601 -0.08995
 C240 C 0.11966 -0.04763 -0.05175
 H241 H 0.16848 -0.09292 -0.10588
 H242 H 0.07860 -0.06327 -0.10136
 H243 H 0.09672 -0.11286 -0.16347
 H244 H 0.15057 -0.05029 -0.04241
 C245 C 0.14264 0.38652 0.36430
 C246 C 0.11027 0.37131 0.38526
 C247 C 0.08672 0.40421 0.41323
 C248 C 0.10096 0.44568 0.43204
 H249 H 0.09923 0.33348 0.38106
 H250 H 0.05749 0.39095 0.42091
 H251 H 0.15132 0.42574 0.36540
 H252 H 0.13149 0.45594 0.42743
 C253 C 0.62969 -0.11535 0.34946
 C254 C 0.64101 -0.09219 0.38550
 C255 C 0.61226 -0.06566 0.41246
 C256 C 0.62375 -0.04527 0.44971
 H257 H 0.67145 -0.09426 0.39637
 H258 H 0.58193 -0.06317 0.40147
 H259 H 0.59866 -0.11498 0.34053
 H260 H 0.65476 -0.04773 0.45863
 C261 C 0.67415 0.40278 -0.12807
 C262 C 0.63978 0.39566 -0.10819
 C263 C 0.62413 0.43378 -0.07881
 C264 C 0.58848 0.42822 -0.06141
 H265 H 0.62262 0.36202 -0.11380
 H266 H 0.64166 0.46685 -0.07209
 H267 H 0.68963 0.43802 -0.12330
 H268 H 0.57073 0.39609 -0.07054
 C269 C -0.13717 0.12042 -0.12261
 C270 C -0.10336 0.09255 -0.13336
 C271 C -0.08279 0.06097 -0.10403
 C272 C -0.09896 0.04199 -0.06563
 H273 H -0.08983 0.09811 -0.16439
 H274 H -0.05374 0.04873 -0.11354
 H275 H -0.14543 0.12045 -0.08901
 H276 H -0.13047 0.04592 -0.06129
 C277 C -0.16189 0.62051 0.37020
 C278 C -0.12897 0.59486 0.36048
 C279 C -0.10417 0.56684 0.39253
 C280 C -0.11670 0.55118 0.43139
 H281 H -0.11759 0.59669 0.32813
 H282 H -0.07468 0.55751 0.38233
 H283 H -0.17116 0.62192 0.40337
 H284 H -0.14730 0.55659 0.43976
 C285 C 0.36227 0.12953 0.38008
 C286 C 0.39448 0.10336 0.36881
 C287 C 0.41875 0.07351 0.40013
 C288 C 0.40392 0.05281 0.43621
 H289 H 0.40507 0.10553 0.33615
 H290 H 0.44908 0.06661 0.39154
 H291 H 0.35442 0.13071 0.41375
 H292 H 0.37258 0.05621 0.44192
 C293 C 0.33743 0.62768 -0.12556
 C294 C 0.37003 0.60086 -0.13429
 C295 C 0.39374 0.57245 -0.10153
 C296 C 0.38062 0.55867 -0.06242
 H297 H 0.38181 0.60145 -0.16647
 H298 H 0.42280 0.56087 -0.11151
 H299 H 0.32773 0.63022 -0.09262
 H300 H 0.35032 0.56639 -0.05408
 C301 C -0.15168 -0.11144 0.13363
 C302 C -0.11035 -0.11430 0.13084
 C303 C -0.08732 -0.08760 0.10095
 C304 C -0.10220 -0.05791 0.06636
 H305 H -0.09388 -0.13811 0.15325
 H306 H -0.05593 -0.09318 0.10482
 H307 H -0.16731 -0.08348 0.11414
 H308 H -0.13378 -0.05529 0.06180
 C309 C -0.13818 0.36707 0.62746
 C310 C -0.11237 0.40374 0.63662
 C311 C -0.09172 0.43343 0.60307
 C312 C -0.10726 0.44345 0.56384
 H313 H -0.10475 0.41217 0.66955
 H314 H -0.06387 0.44998 0.61240
 H315 H -0.14395 0.35841 0.59403
 H316 H -0.13700 0.43130 0.55648
 C317 C 0.35088 -0.10815 0.63120
 C318 C 0.39044 -0.10575 0.63360
 C319 C 0.41465 -0.07527 0.60354
 C320 C 0.40282 -0.06226 0.56342
 H321 H 0.40626 -0.12489 0.65959
 H322 H 0.44358 -0.06461 0.61510
 H323 H 0.33519 -0.08490 0.60757
 H324 H 0.37400 -0.07373 0.55204
 C325 C 0.34779 0.37432 0.12975
 C326 C 0.37882 0.40349 0.13937
 C327 C 0.40071 0.43313 0.10675
 C328 C 0.38494 0.44891 0.06894
 H329 H 0.39064 0.40394 0.17182
 H330 H 0.43035 0.44397 0.11568
 H331 H 0.33864 0.37099 0.09641
 H332 H 0.35403 0.44211 0.06226
 C333 C 0.14368 0.10812 0.15327
 C334 C 0.10986 0.12181 0.13324
 C335 C 0.08854 0.08976 0.10225
 C336 C 0.10601 0.05312 0.07988
 H337 H 0.09635 0.15789 0.13982
 H338 H 0.05834 0.10052 0.09503
 H339 H 0.15495 0.07011 0.14978
 H340 H 0.13725 0.04597 0.08456
 C341 C 0.14334 0.62347 0.62263
 C342 C 0.11243 0.64035 0.59898
 C343 C 0.08853 0.60797 0.57064
 C344 C 0.10239 0.56577 0.55279
 H345 H 0.10258 0.67908 0.60175
 H346 H 0.05937 0.62187 0.56200
 H347 H 0.15061 0.58359 0.62314
 H348 H 0.13292 0.55487 0.55811
 C349 C 0.64964 0.11607 0.65222
 C350 C 0.61655 0.13086 0.63126
 C351 C 0.59498 0.09904 0.60022
 C352 C 0.61196 0.06149 0.57843
 H353 H 0.60365 0.16742 0.63730
 H354 H 0.56495 0.11037 0.59272
 H355 H 0.66014 0.07768 0.64885
 H356 H 0.64309 0.05373 0.58329
 C357 C 0.64319 0.62097 0.11963
 C358 C 0.61339 0.63813 0.09443
 C359 C 0.58893 0.60564 0.06670
 C360 C 0.60090 0.56102 0.05150
 H361 H 0.60433 0.67728 0.09587
 H362 H 0.56056 0.62106 0.05678
 H363 H 0.64963 0.58088 0.12116
 H364 H 0.63077 0.54804 0.05790
   
