data_POSCAR
  _audit_creation_date              2014-09-24
  _audit_creation_method            'ToBaCCo'
  _symmetry_space_group_name_H-M    'P1'
  _symmetry_Int_Tables_number       1
  _symmetry_cell_setting            triclinic
  loop_
  _symmetry_equiv_pos_as_xyz
 x,y,z
_cell_length_a 33.2702
_cell_length_b 33.3898
_cell_length_c 24.5014
_cell_angle_alpha 89.632400
_cell_angle_beta 90.272000
_cell_angle_gamma 90.111100
loop_
  _atom_site_label
  _atom_site_type_symbol
  _atom_site_fract_x
  _atom_site_fract_y
  _atom_site_fract_z
C1 C 1.28454 0.20109 0.26122
 C2 C 1.25336 0.22441 0.23900
 C3 C 1.22146 0.20582 0.21178
 C4 C 1.22105 0.16433 0.20554
 C5 C 1.25244 0.14115 0.22691
 C6 C 1.28361 0.15895 0.25758
 C7 C 1.25358 0.26823 0.24545
 C8 C 1.28705 0.29039 0.22881
 C9 C 1.28805 0.33236 0.23379
 C10 C 1.25447 0.35169 0.25691
 C11 C 1.22117 0.32944 0.27518
 C12 C 1.22052 0.28785 0.26803
 H13 H 1.30800 0.21584 0.28450
 H14 H 1.19683 0.22359 0.19562
 H15 H 1.31257 0.27461 0.21198
 H16 H 1.19468 0.27066 0.28147
 H17 H 1.25188 0.10905 0.22062
 H18 H 1.25359 0.38405 0.25968
 C19 C 0.78512 -0.29162 0.26423
 C20 C 0.75132 -0.26943 0.24791
 C21 C 0.71640 -0.28921 0.23133
 C22 C 0.71511 -0.33089 0.22978
 C23 C 0.74918 -0.35305 0.24481
 C24 C 0.78474 -0.33385 0.26255
 C25 C 0.75257 -0.22545 0.24534
 C26 C 0.78362 -0.20612 0.21716
 C27 C 0.78282 -0.16460 0.21012
 C28 C 0.75102 -0.14226 0.23103
 C29 C 0.72114 -0.16099 0.26238
 C30 C 0.72157 -0.20276 0.26835
 H31 H 0.81099 -0.27573 0.28025
 H32 H 0.69043 -0.27209 0.21806
 H33 H 0.80808 -0.22333 0.20006
 H34 H 0.69820 -0.21758 0.29169
 H35 H 0.74816 -0.38536 0.24101
 H36 H 0.75067 -0.11004 0.22525
 C37 C 0.78433 0.20719 -0.23331
 C38 C 0.75360 0.23152 -0.25436
 C39 C 0.71968 0.21374 -0.27829
 C40 C 0.71680 0.17203 -0.28267
 C41 C 0.74717 0.14784 -0.26025
 C42 C 0.78080 0.16539 -0.23528
 C43 C 0.75571 0.27544 -0.24905
 C44 C 0.78969 0.29691 -0.26626
 C45 C 0.79139 0.33902 -0.26165
 C46 C 0.75793 0.35901 -0.23904
 C47 C 0.72442 0.33738 -0.22036
 C48 C 0.72317 0.29588 -0.22675
 H49 H 0.81020 0.22067 -0.21353
 H50 H 0.69579 0.23240 -0.29460
 H51 H 0.81376 0.28081 -0.28606
 H52 H 0.69713 0.27929 -0.21259
 H53 H 0.74474 0.11551 -0.26232
 H54 H 0.75851 0.39121 -0.23376
 C55 C 1.28543 -0.29399 -0.22681
 C56 C 1.25247 -0.27030 -0.24181
 C57 C 1.21787 -0.28832 -0.26337
 C58 C 1.21618 -0.32996 -0.26990
 C59 C 1.24959 -0.35338 -0.25505
 C60 C 1.28495 -0.33566 -0.23425
 C61 C 1.25544 -0.22649 -0.23673
 C62 C 1.28889 -0.20644 -0.25835
 C63 C 1.29282 -0.16490 -0.25316
 C64 C 1.26271 -0.14325 -0.22659
 C65 C 1.22916 -0.16303 -0.20511
 C66 C 1.22543 -0.20463 -0.21032
 H67 H 1.31108 -0.27972 -0.20756
 H68 H 1.19287 -0.26990 -0.27679
 H69 H 1.31144 -0.22309 -0.28053
 H70 H 1.19945 -0.21988 -0.19352
 H71 H 1.24843 -0.38539 -0.26196
 H72 H 1.26513 -0.11098 -0.22318
 C73 C 0.21262 0.28350 0.71476
 C74 C 0.23276 0.25041 0.73686
 C75 C 0.21076 0.21682 0.75433
 C76 C 0.16848 0.21577 0.74996
 C77 C 0.14879 0.24974 0.72795
 C78 C 0.17073 0.28324 0.71009
 C79 C 0.27698 0.25051 0.74092
 C80 C 0.29739 0.28037 0.77021
 C81 C 0.33976 0.27968 0.77583
 C82 C 0.36106 0.24936 0.74820
 C83 C 0.34055 0.21939 0.71927
 C84 C 0.29871 0.22002 0.71602
 H85 H 0.22953 0.30943 0.70102
 H86 H 0.22675 0.19236 0.77392
 H87 H 0.27978 0.30284 0.79097
 H88 H 0.28300 0.19665 0.69393
 H89 H 0.11635 0.25009 0.72367
 H90 H 0.39362 0.24905 0.74848
 C91 C 0.70605 0.78230 0.72244
 C92 C 0.72774 0.74945 0.74198
 C93 C 0.70725 0.71678 0.76493
 C94 C 0.66490 0.71641 0.76808
 C95 C 0.64375 0.75075 0.74978
 C96 C 0.66406 0.78421 0.72739
 C97 C 0.77203 0.74986 0.73784
 C98 C 0.79396 0.78309 0.75658
 C99 C 0.83587 0.78489 0.75063
 C100 C 0.85588 0.75258 0.72626
 C101 C 0.83419 0.71917 0.70773
 C102 C 0.79235 0.71790 0.71363
 H103 H 0.72222 0.80606 0.70160
 H104 H 0.72459 0.69223 0.78198
 H105 H 0.77839 0.80732 0.77670
 H106 H 0.77566 0.69214 0.69910
 H107 H 0.61130 0.75137 0.75282
 H108 H 0.88832 0.75315 0.72237
 C109 C 0.70559 0.28330 0.22922
 C110 C 0.72575 0.25125 0.25457
 C111 C 0.70355 0.22046 0.27925
 C112 C 0.66147 0.22184 0.27954
 C113 C 0.64146 0.25347 0.25315
 C114 C 0.66345 0.28408 0.22751
 C115 C 0.76999 0.24914 0.25360
 C116 C 0.79320 0.27968 0.27688
 C117 C 0.83527 0.27844 0.27420
 C118 C 0.85417 0.24668 0.24708
 C119 C 0.83104 0.21632 0.22272
 C120 C 0.78903 0.21715 0.22757
 H121 H 0.72262 0.30685 0.20925
 H122 H 0.71902 0.19567 0.29890
 H123 H 0.77854 0.30456 0.29680
 H124 H 0.77108 0.19379 0.20884
 H125 H 0.60889 0.25409 0.25220
 H126 H 0.88662 0.24629 0.24352
 C127 C 0.20736 0.79095 0.22899
 C128 C 0.22718 0.75617 0.24647
 C129 C 0.20490 0.72385 0.26690
 C130 C 0.16269 0.72558 0.27017
 C131 C 0.14334 0.76133 0.25348
 C132 C 0.16522 0.79425 0.23235
 C133 C 0.27151 0.75383 0.24483
 C134 C 0.29473 0.78256 0.27212
 C135 C 0.33670 0.77919 0.27423
 C136 C 0.35567 0.74744 0.24736
 C137 C 0.33266 0.71859 0.21964
 C138 C 0.29064 0.72188 0.21860
 H139 H 0.22509 0.81581 0.21361
 H140 H 0.22072 0.69693 0.27935
 H141 H 0.28009 0.80688 0.29331
 H142 H 0.27283 0.69929 0.19799
 H143 H 0.11094 0.76327 0.25620
 H144 H 0.38809 0.74458 0.24922
 N145 N 1.03870 0.04823 0.08464
 N146 N 1.06634 0.05559 0.12193
 N147 N 0.95545 0.07481 0.04011
 N148 N 0.93108 0.10491 0.05008
 N149 N 0.95449 0.04853 0.08016
 N150 N 0.92938 0.06045 0.11854
 N151 N 1.03973 0.07533 0.04559
 N152 N 1.06824 0.10194 0.05527
 C153 C 1.08435 0.08930 0.10325
 C154 C 0.91408 0.09520 0.09834
 N155 N 0.96019 0.04371 -0.11437
 N156 N 0.93057 0.04783 -0.15003
 N157 N 1.04297 0.07364 -0.07175
 N158 N 1.06595 0.10434 -0.08495
 N159 N 1.04443 0.04600 -0.10960
 N160 N 1.06842 0.05766 -0.14968
 N161 N 0.95850 0.07173 -0.07702
 N162 N 0.92741 0.09538 -0.08580
 Mn163 Mn 0.99918 0.07413 -0.01584
 C164 C 0.91032 0.08005 -0.13133
 C165 C 1.08250 0.09374 -0.13293
 N166 N 0.95493 -0.03817 0.08313
 N167 N 0.92727 -0.04616 0.11994
 N168 N 1.04055 -0.06616 0.05183
 N169 N 1.06375 -0.09600 0.06791
 N170 N 1.03892 -0.03838 0.08949
 N171 N 1.06084 -0.04900 0.13241
 N172 N 0.95633 -0.06658 0.04636
 N173 N 0.92950 -0.09464 0.05704
 Mn174 Mn 0.99674 0.00509 0.08481
 C175 C 0.91164 -0.08137 0.10295
 C176 C 1.07654 -0.08482 0.11791
 N177 N 1.04607 -0.04076 -0.10427
 N178 N 1.07855 -0.04575 -0.13419
 N179 N 0.96031 -0.06917 -0.07074
 N180 N 0.93696 -0.09968 -0.08332
 N181 N 0.96166 -0.04321 -0.11117
 N182 N 0.93927 -0.05586 -0.15249
 N183 N 1.04453 -0.06775 -0.06512
 N184 N 1.07575 -0.09184 -0.06739
 Mn185 Mn 1.00313 0.00140 -0.11051
 Mn186 Mn 1.00039 -0.06763 -0.00951
 Cl187 Cl 0.99984 0.00327 -0.01275
 C188 C 1.09699 -0.07755 -0.11023
 C189 C 0.92320 -0.09076 -0.13390
 N190 N 1.07162 0.54823 0.54785
 N191 N 1.10057 0.57381 0.55895
 N192 N 1.04802 0.46281 0.59020
 N193 N 1.05601 0.43514 0.62726
 N194 N 1.07619 0.46407 0.55287
 N195 N 1.10420 0.43712 0.56374
 N196 N 1.04556 0.54669 0.58784
 N197 N 1.05692 0.57093 0.62765
 C198 C 1.09089 0.58855 0.60836
 C199 C 1.09132 0.41952 0.61061
 N200 N 0.93371 0.45700 0.55270
 N201 N 0.90347 0.43406 0.56791
 N202 N 0.95876 0.54301 0.58746
 N203 N 0.95057 0.57079 0.62367
 N204 N 0.93041 0.54108 0.55009
 N205 N 0.90199 0.56765 0.56018
 N206 N 0.96095 0.45908 0.59163
 N207 N 0.94947 0.43748 0.63436
 Mn208 Mn 1.00335 0.50285 0.58970
 C209 C 0.91401 0.42115 0.61826
 C210 C 0.91499 0.58584 0.60643
 N211 N 1.07588 0.46212 0.43559
 N212 N 1.10568 0.43710 0.42723
 N213 N 1.04338 0.54350 0.39255
 N214 N 1.04766 0.57228 0.35594
 N215 N 1.07094 0.54641 0.43073
 N216 N 1.09432 0.57773 0.42122
 N217 N 1.04891 0.45964 0.39646
 N218 N 1.06019 0.43294 0.35982
 Mn219 Mn 1.07396 0.50525 0.49172
 C220 C 1.09529 0.41848 0.38052
 C221 C 1.07923 0.59402 0.37441
 N222 N 0.92998 0.53853 0.43244
 N223 N 0.89945 0.56198 0.42039
 N224 N 0.96174 0.45483 0.39723
 N225 N 0.95469 0.42706 0.36034
 N226 N 0.93366 0.45450 0.43479
 N227 N 0.90675 0.42640 0.42416
 N228 N 0.95653 0.53880 0.39293
 N229 N 0.94435 0.56260 0.35271
 Mn230 Mn 0.93171 0.49778 0.49244
 Mn231 Mn 1.00264 0.49911 0.39419
 Cl232 Cl 1.00288 0.50115 0.49202
 C233 C 0.90901 0.57753 0.37117
 C234 C 0.92026 0.40954 0.37749
 N235 N 0.57225 0.04226 0.55364
 N236 N 0.60074 0.06881 0.56215
 N237 N 0.54489 -0.04153 0.59593
 N238 N 0.55133 -0.06972 0.63282
 N239 N 0.57284 -0.04182 0.55833
 N240 N 0.59945 -0.07020 0.56890
 N241 N 0.54587 0.04263 0.59318
 N242 N 0.55610 0.06957 0.63021
 C243 C 0.58996 0.08634 0.60926
 C244 C 0.58525 -0.08749 0.61518
 N245 N 0.43154 -0.04277 0.55763
 N246 N 0.40208 -0.06727 0.57072
 N247 N 0.45933 0.04222 0.59308
 N248 N 0.45248 0.07026 0.62936
 N249 N 0.43087 0.04152 0.55577
 N250 N 0.40373 0.06939 0.56585
 N251 N 0.45859 -0.04153 0.59672
 N252 N 0.44783 -0.06507 0.63774
 Mn253 Mn 0.50218 0.00047 0.59526
 C254 C 0.41292 -0.08171 0.62021
 C255 C 0.41771 0.08693 0.61205
 N256 N 0.57221 -0.04344 0.44121
 N257 N 0.60447 -0.06370 0.42794
 N258 N 0.54323 0.04018 0.39885
 N259 N 0.54823 0.06982 0.36364
 N260 N 0.57113 0.04098 0.43698
 N261 N 0.59560 0.07162 0.42918
 N262 N 0.54604 -0.04331 0.40079
 N263 N 0.56085 -0.06281 0.35847
 Mn264 Mn 0.57235 -0.00054 0.49752
 C265 C 0.59718 -0.07566 0.37653
 C266 C 0.58085 0.08920 0.38338
 N267 N 0.42975 0.03920 0.43814
 N268 N 0.39784 0.05993 0.42365
 N269 N 0.45877 -0.04563 0.40252
 N270 N 0.45330 -0.07616 0.36935
 N271 N 0.43091 -0.04505 0.44032
 N272 N 0.40571 -0.07526 0.43371
 N273 N 0.45597 0.03824 0.39817
 N274 N 0.44188 0.05809 0.35517
 Mn275 Mn 0.43047 -0.00175 0.49795
 Mn276 Mn 0.50097 -0.00264 0.39958
 Cl277 Cl 0.50146 -0.00111 0.49749
 C278 C 0.40580 0.07188 0.37222
 C279 C 0.42034 -0.09478 0.38968
 N280 N 0.56968 0.54574 0.05806
 N281 N 0.59974 0.56922 0.07217
 N282 N 0.54345 0.46144 0.09877
 N283 N 0.54961 0.43245 0.13471
 N284 N 0.57159 0.46159 0.06136
 N285 N 0.59742 0.43227 0.07038
 N286 N 0.54201 0.54528 0.09612
 N287 N 0.55276 0.56852 0.13712
 C288 C 0.58867 0.58350 0.12120
 C289 C 0.58323 0.41443 0.11620
 N290 N 0.42958 0.45835 0.05767
 N291 N 0.39892 0.43565 0.07199
 N292 N 0.45556 0.54359 0.09345
 N293 N 0.44680 0.57072 0.13035
 N294 N 0.42787 0.54252 0.05509
 N295 N 0.39942 0.56910 0.06511
 N296 N 0.45642 0.45983 0.09715
 N297 N 0.44433 0.43830 0.13948
 Mn298 Mn 0.49939 0.50250 0.09671
 C299 C 0.40865 0.42305 0.12276
 C300 C 0.41170 0.58643 0.11233
 N301 N 0.57363 0.46061 -0.05533
 N302 N 0.60419 0.43672 -0.06435
 N303 N 0.54365 0.54308 -0.09844
 N304 N 0.55068 0.57057 -0.13620
 N305 N 0.57100 0.54463 -0.05961
 N306 N 0.59745 0.57323 -0.07005
 N307 N 0.54749 0.45901 -0.09554
 N308 N 0.56019 0.43401 -0.13357
 Mn309 Mn 0.57170 0.50322 0.00113
 C310 C 0.59516 0.41954 -0.11247
 C311 C 0.58401 0.58943 -0.11755
 N312 N 0.42937 0.53991 -0.06264
 N313 N 0.39873 0.56254 -0.07690
 N314 N 0.46009 0.45555 -0.09693
 N315 N 0.45453 0.42591 -0.13162
 N316 N 0.43144 0.45596 -0.06013
 N317 N 0.40549 0.42671 -0.06906
 N318 N 0.45665 0.53960 -0.10124
 N319 N 0.44485 0.56210 -0.14297
 Mn320 Mn 0.42933 0.49920 -0.00261
 Mn321 Mn 0.50195 0.49924 -0.09866
 Cl322 Cl 0.50056 0.50102 -0.00090
 C323 C 0.40905 0.57697 -0.12642
 C324 C 0.42052 0.40808 -0.11342
 C325 C 1.15040 0.12275 0.10017
 C326 C 1.18391 0.14011 0.12477
 C327 C 1.18554 0.14490 0.18136
 C328 C 1.15261 0.13281 0.21390
 C329 C 1.11831 0.11547 0.18894
 C330 C 1.11775 0.10965 0.13157
 C331 C 1.08526 0.10585 0.22236
 N332 N 1.08736 0.11196 0.27696
 N333 N 1.11999 0.12739 0.30046
 C334 C 1.15261 0.13814 0.27083
 H335 H 1.15029 0.11880 0.05630
 H336 H 1.20882 0.14978 0.09956
 H337 H 1.05745 0.09440 0.20584
 H338 H 1.17807 0.15104 0.29202
 C339 C 1.16013 0.61198 0.62375
 C340 C 1.19030 0.63070 0.65324
 C341 C 1.18177 0.65115 0.70131
 C342 C 1.14135 0.65349 0.71932
 C343 C 1.11006 0.63506 0.68835
 C344 C 1.11985 0.61295 0.64076
 C345 C 1.07023 0.64017 0.70601
 N346 N 1.06264 0.66035 0.75270
 N347 N 1.09207 0.67597 0.78283
 C348 C 1.13112 0.67318 0.76783
 H349 H 1.16891 0.59576 0.58759
 H350 H 1.22088 0.62902 0.63836
 H351 H 1.04487 0.62924 0.68295
 H352 H 1.15372 0.68628 0.79408
 C353 C 0.62460 0.10872 0.69321
 C354 C 0.65682 0.12798 0.71855
 C355 C 0.68202 0.15379 0.68896
 C356 C 0.67357 0.16167 0.63314
 C357 C 0.64012 0.14300 0.60790
 C358 C 0.61672 0.11484 0.63760
 C359 C 0.63136 0.15291 0.55320
 N360 N 0.65578 0.17811 0.52513
 N361 N 0.68833 0.19414 0.54806
 C362 C 0.69818 0.18667 0.60090
 H363 H 0.60720 0.08717 0.71646
 H364 H 0.66278 0.12195 0.76133
 H365 H 0.60505 0.14127 0.53274
 H366 H 0.72530 0.20014 0.61684
 C367 C 0.63673 0.63846 0.12822
 C368 C 0.66775 0.65883 0.15390
 C369 C 0.67919 0.64899 0.20731
 C370 C 0.65754 0.61929 0.23646
 C371 C 0.62617 0.59789 0.21000
 C372 C 0.61609 0.60760 0.15502
 C373 C 0.60734 0.56664 0.23919
 N374 N 0.61792 0.55902 0.29175
 N375 N 0.64626 0.58019 0.31709
 C376 C 0.66640 0.61005 0.29129
 H377 H 0.62964 0.64601 0.08616
 H378 H 0.68398 0.68154 0.13110
 H379 H 0.58454 0.54790 0.22122
 H380 H 0.68900 0.62635 0.31398
 C381 C 0.84766 -0.11819 0.10224
 C382 C 0.81618 -0.13800 0.12806
 C383 C 0.81694 -0.14406 0.18452
 C384 C 0.85021 -0.13079 0.21570
 C385 C 0.88240 -0.11082 0.18950
 C386 C 0.88043 -0.10376 0.13239
 C387 C 0.91595 -0.09975 0.22135
 N388 N 0.91625 -0.10715 0.27584
 N389 N 0.88553 -0.12512 0.30060
 C390 C 0.85257 -0.13727 0.27244
 H391 H 0.84606 -0.11333 0.05851
 H392 H 0.79089 -0.14841 0.10396
 H393 H 0.94227 -0.08601 0.20362
 H394 H 0.82872 -0.15215 0.29457
 C395 C 0.84539 0.41392 0.65383
 C396 C 0.81569 0.39501 0.68430
 C397 C 0.82425 0.36092 0.71626
 C398 C 0.86524 0.34842 0.72087
 C399 C 0.89553 0.36777 0.68924
 C400 C 0.88518 0.40036 0.65474
 C401 C 0.93516 0.35339 0.69284
 N402 N 0.94432 0.32344 0.72833
 N403 N 0.91658 0.30695 0.76040
 C404 C 0.87758 0.31860 0.75827
 H405 H 0.83691 0.43922 0.62836
 H406 H 0.78515 0.40571 0.67945
 H407 H 0.95901 0.36567 0.66807
 H408 H 0.85684 0.30499 0.78670
 C409 C 0.34377 -0.09598 0.64810
 C410 C 0.31489 -0.11513 0.67934
 C411 C 0.32580 -0.14360 0.71868
 C412 C 0.36706 -0.15260 0.72712
 C413 C 0.39670 -0.13340 0.69451
 C414 C 0.38473 -0.10455 0.65493
 C415 C 0.43710 -0.14466 0.70194
 N416 N 0.44705 -0.17192 0.74097
 N417 N 0.41941 -0.18878 0.77288
 C418 C 0.37982 -0.18001 0.76741
 H419 H 0.33378 -0.07394 0.61838
 H420 H 0.28352 -0.10813 0.67196
 H421 H 0.46085 -0.13262 0.67684
 H422 H 0.35880 -0.19437 0.79480
 C423 C 0.36440 0.36506 0.13330
 C424 C 0.33526 0.34283 0.16020
 C425 C 0.32082 0.35422 0.21179
 C426 C 0.33881 0.38801 0.23772
 C427 C 0.36812 0.41123 0.20944
 C428 C 0.38085 0.39935 0.15679
 C429 C 0.38310 0.44597 0.23473
 N430 N 0.37195 0.45495 0.28635
 N431 N 0.34685 0.43163 0.31435
 C432 C 0.33025 0.39838 0.29211
 H433 H 0.37357 0.35581 0.09290
 H434 H 0.32226 0.31772 0.13855
 H435 H 0.40352 0.46617 0.21431
 H436 H 0.31120 0.38003 0.31766
 C437 C 0.87850 0.11152 -0.21183
 C438 C 0.84739 0.13285 -0.23674
 C439 C 0.81161 0.14019 -0.20874
 C440 C 0.80650 0.12482 -0.15524
 C441 C 0.83815 0.10319 -0.12991
 C442 C 0.87472 0.09752 -0.15811
 C443 C 0.83185 0.08749 -0.07724
 N444 N 0.79645 0.09392 -0.05154
 N445 N 0.76701 0.11496 -0.07492
 C446 C 0.77082 0.13069 -0.12580
 H447 H 0.90632 0.10730 -0.23385
 H448 H 0.85152 0.14444 -0.27774
 H449 H 0.85454 0.06986 -0.05646
 H450 H 0.74589 0.14743 -0.14283
 C451 C 0.83936 0.58887 0.34229
 C452 C 0.80916 0.60954 0.31513
 C453 C 0.81770 0.64328 0.28248
 C454 C 0.85891 0.65409 0.27468
 C455 C 0.88968 0.63354 0.30418
 C456 C 0.87960 0.60066 0.33825
 C457 C 0.92948 0.64710 0.29900
 N458 N 0.93838 0.67686 0.26315
 N459 N 0.91015 0.69390 0.23218
 C460 C 0.87092 0.68328 0.23625
 H461 H 0.83089 0.56358 0.36774
 H462 H 0.77850 0.60020 0.32290
 H463 H 0.95356 0.63451 0.32316
 H464 H 0.84971 0.69724 0.20860
 C465 C 0.38379 0.12581 0.30924
 C466 C 0.35353 0.14788 0.28355
 C467 C 0.31299 0.13536 0.28492
 C468 C 0.30341 0.09926 0.31379
 C469 C 0.33473 0.07568 0.33671
 C470 C 0.37480 0.09023 0.33679
 C471 C 0.32473 0.03828 0.36001
 N472 N 0.28571 0.02744 0.36546
 N473 N 0.25607 0.05148 0.34936
 C474 C 0.26350 0.08713 0.32461
 H475 H 0.41429 0.13724 0.30900
 H476 H 0.36220 0.17484 0.26172
 H477 H 0.34751 0.01747 0.37379
 H478 H 0.23803 0.10586 0.31513
 C479 C 0.34018 0.58497 -0.16015
 C480 C 0.30986 0.60533 -0.18753
 C481 C 0.31799 0.64066 -0.21695
 C482 C 0.35901 0.65273 -0.22317
 C483 C 0.38991 0.63215 -0.19418
 C484 C 0.38000 0.59851 -0.16151
 C485 C 0.42957 0.64649 -0.19834
 N486 N 0.43806 0.67752 -0.23233
 N487 N 0.40963 0.69514 -0.26234
 C488 C 0.37060 0.68361 -0.25937
 H489 H 0.33210 0.55882 -0.13613
 H490 H 0.27935 0.59484 -0.18167
 H491 H 0.45396 0.63335 -0.17523
 H492 H 0.34917 0.69822 -0.28609
 C493 C 1.13932 -0.09686 -0.18789
 C494 C 1.17073 -0.11816 -0.21101
 C495 C 1.19742 -0.13991 -0.17814
 C496 C 1.19371 -0.13878 -0.12072
 C497 C 1.16220 -0.11641 -0.09690
 C498 C 1.13384 -0.09655 -0.13120
 C499 C 1.16107 -0.11397 -0.03954
 N500 N 1.18858 -0.13392 -0.00876
 N501 N 1.21742 -0.15581 -0.03127
 C502 C 1.22102 -0.15882 -0.08616
 H503 H 1.11830 -0.08162 -0.21476
 H504 H 1.17371 -0.11848 -0.25503
 H505 H 1.13946 -0.09565 -0.01861
 H506 H 1.24542 -0.17648 -0.10224
 C507 C 1.13187 0.39702 0.29784
 C508 C 1.16371 0.37690 0.27320
 C509 C 1.18717 0.34945 0.30288
 C510 C 1.17753 0.34125 0.35817
 C511 C 1.14471 0.36111 0.38284
 C512 C 1.12270 0.39032 0.35290
 C513 C 1.13495 0.35098 0.43706
 N514 N 1.15769 0.32413 0.46510
 N515 N 1.18950 0.30673 0.44268
 C516 C 1.20030 0.31446 0.39038
 H517 H 1.11559 0.41941 0.27445
 H518 H 1.17056 0.38329 0.23084
 H519 H 1.10916 0.36368 0.45724
 H520 H 1.22669 0.29972 0.37476
 C521 C 0.61927 -0.12516 0.30819
 C522 C 0.64952 -0.14651 0.28209
 C523 C 0.69020 -0.13688 0.29036
 C524 C 0.70048 -0.10423 0.32451
 C525 C 0.66964 -0.08073 0.34751
 C526 C 0.62889 -0.09299 0.34209
 C527 C 0.68083 -0.04545 0.37513
 N528 N 0.72017 -0.03700 0.38394
 N529 N 0.74911 -0.06119 0.36669
 C530 C 0.74065 -0.09459 0.33767
 H531 H 0.58831 -0.13463 0.30326
 H532 H 0.64115 -0.17125 0.25597
 H533 H 0.65888 -0.02404 0.38888
 H534 H 0.76547 -0.11331 0.32575
 C535 C 0.63323 0.40183 -0.19565
 C536 C 0.66620 0.38388 -0.22066
 C537 C 0.69101 0.35732 -0.19156
 C538 C 0.68195 0.34804 -0.13642
 C539 C 0.64786 0.36535 -0.11156
 C540 C 0.62416 0.39357 -0.14091
 C541 C 0.63852 0.35369 -0.05775
 N542 N 0.66294 0.32813 -0.03011
 N543 N 0.69597 0.31327 -0.05266
 C544 C 0.70638 0.32239 -0.10470
 H545 H 0.61574 0.42359 -0.21851
 H546 H 0.67258 0.39092 -0.26298
 H547 H 0.61175 0.36416 -0.03767
 H548 H 0.73378 0.30970 -0.12050
 C549 C 1.09249 0.16258 -0.16641
 C550 C 1.11224 0.19212 -0.19613
 C551 C 1.14616 0.18323 -0.22784
 C552 C 1.15797 0.14221 -0.23228
 C553 C 1.13801 0.11209 -0.20093
 C554 C 1.10513 0.12261 -0.16741
 C555 C 1.15211 0.07248 -0.20392
 N556 N 1.18206 0.06316 -0.23888
 N557 N 1.19886 0.09071 -0.27099
 C558 C 1.18764 0.12969 -0.26930
 H559 H 1.06710 0.17133 -0.14167
 H560 H 1.10216 0.22270 -0.19113
 H561 H 1.13975 0.04877 -0.17895
 H562 H 1.20148 0.15028 -0.29776
 C563 C 1.13512 0.64242 0.36462
 C564 C 1.15603 0.67323 0.33893
 C565 C 1.14076 0.69260 0.29214
 C566 C 1.10341 0.67883 0.27031
 C567 C 1.08070 0.64890 0.29858
 C568 C 1.09751 0.62940 0.34559
 C569 C 1.04213 0.63977 0.27792
 N570 N 1.02948 0.65560 0.22980
 N571 N 1.05252 0.68021 0.20072
 C572 C 1.08909 0.69199 0.21897
 H573 H 1.14889 0.62864 0.40019
 H574 H 1.18406 0.68282 0.35743
 H575 H 1.02122 0.62098 0.29922
 H576 H 1.10687 0.71086 0.19247
 C577 C 0.61953 0.11930 0.30824
 C578 C 0.63931 0.15131 0.28341
 C579 C 0.63862 0.18950 0.30671
 C580 C 0.61728 0.19564 0.35586
 C581 C 0.59713 0.16303 0.38105
 C582 C 0.59892 0.12459 0.35728
 C583 C 0.57548 0.17012 0.42914
 N584 N 0.57502 0.20731 0.45104
 N585 N 0.59469 0.23778 0.42807
 C586 C 0.61588 0.23323 0.38136
 H587 H 0.62100 0.08997 0.28966
 H588 H 0.65556 0.14623 0.24586
 H589 H 0.55889 0.14648 0.44943
 H590 H 0.63139 0.25900 0.36470
 C591 C 0.59381 0.66058 -0.14205
 C592 C 0.61269 0.69131 -0.17104
 C593 C 0.64418 0.68344 -0.20781
 C594 C 0.65466 0.64253 -0.21729
 C595 C 0.63590 0.61145 -0.18653
 C596 C 0.60552 0.62079 -0.14856
 C597 C 0.64740 0.57157 -0.19592
 N598 N 0.67443 0.56318 -0.23538
 N599 N 0.69039 0.59191 -0.26636
 C600 C 0.68110 0.63105 -0.25922
 H601 H 0.57016 0.66802 -0.11362
 H602 H 0.60371 0.72175 -0.16226
 H603 H 0.63474 0.54693 -0.17278
 H604 H 0.69366 0.65252 -0.28755
 C605 C 0.90853 -0.16086 -0.15779
 C606 C 0.88833 -0.19078 -0.18607
 C607 C 0.85900 -0.18134 -0.22513
 C608 C 0.85075 -0.14039 -0.23677
 C609 C 0.87098 -0.10969 -0.20717
 C610 C 0.90034 -0.12017 -0.16731
 C611 C 0.86010 -0.06967 -0.21770
 N612 N 0.83241 -0.06106 -0.25681
 N613 N 0.81471 -0.08968 -0.28597
 C614 C 0.82298 -0.12896 -0.27742
 H615 H 0.93088 -0.16983 -0.12783
 H616 H 0.89499 -0.22176 -0.17625
 H617 H 0.87281 -0.04509 -0.19502
 H618 H 0.80796 -0.15080 -0.30275
 C619 C 0.88101 0.34661 0.37948
 C620 C 0.86121 0.31461 0.35483
 C621 C 0.85900 0.31166 0.29795
 C622 C 0.87651 0.34201 0.26514
 C623 C 0.89615 0.37508 0.29012
 C624 C 0.89908 0.37688 0.34809
 C625 C 0.91051 0.40597 0.25585
 N626 N 0.90679 0.40296 0.20090
 N627 N 0.88922 0.37151 0.17766
 C628 C 0.87379 0.34108 0.20784
 H629 H 0.88247 0.34757 0.42364
 H630 H 0.84735 0.29191 0.38039
 H631 H 0.92370 0.43301 0.27170
 H632 H 0.85919 0.31668 0.18670
 C633 C 0.40311 -0.13268 0.30641
 C634 C 0.38316 -0.16299 0.27832
 C635 C 0.36031 -0.19155 0.30635
 C636 C 0.35908 -0.19069 0.36415
 C637 C 0.37987 -0.16012 0.39301
 C638 C 0.40098 -0.12996 0.36350
 C639 C 0.37958 -0.16173 0.45047
 N640 N 0.35883 -0.19102 0.47669
 N641 N 0.33869 -0.21909 0.44954
 C642 C 0.33822 -0.22003 0.39426
 H643 H 0.41938 -0.11036 0.28298
 H644 H 0.38454 -0.16346 0.23415
 H645 H 0.39634 -0.14084 0.47510
 H646 H 0.32201 -0.24403 0.37444
 C647 C 0.36602 0.38070 -0.17048
 C648 C 0.34614 0.34949 -0.19674
 C649 C 0.36007 0.30964 -0.19323
 C650 C 0.39438 0.30178 -0.15925
 C651 C 0.41546 0.33414 -0.13446
 C652 C 0.40098 0.37369 -0.14029
 C653 C 0.44964 0.32568 -0.10244
 N654 N 0.46075 0.28720 -0.09331
 N655 N 0.43970 0.25672 -0.11346
 C656 C 0.40673 0.26262 -0.14524
 H657 H 0.35444 0.41088 -0.17480
 H658 H 0.32051 0.35723 -0.22208
 H659 H 0.46720 0.34924 -0.08376
 H660 H 0.38990 0.23654 -0.15749
 C661 C 1.13590 -0.12744 0.13162
 C662 C 1.15793 -0.15646 0.15960
 C663 C 1.14527 -0.17149 0.21059
 C664 C 1.11117 -0.15333 0.23547
 C665 C 1.08832 -0.12410 0.20628
 C666 C 1.10077 -0.11148 0.15359
 C667 C 1.05324 -0.10914 0.23070
 N668 N 1.04359 -0.12025 0.28230
 N669 N 1.06653 -0.14531 0.31111
 C670 C 1.10007 -0.16188 0.28974
 H671 H 1.14577 -0.11820 0.09138
 H672 H 1.18352 -0.16927 0.13889
 H673 H 1.03336 -0.08868 0.20966
 H674 H 1.11810 -0.18100 0.31580
 C675 C 1.13277 0.35830 0.60710
 C676 C 1.15122 0.32499 0.63072
 C677 C 1.14991 0.31863 0.68716
 C678 C 1.13069 0.34699 0.72076
 C679 C 1.11258 0.38146 0.69696
 C680 C 1.11265 0.38644 0.63918
 C681 C 1.09641 0.41031 0.73236
 N682 N 1.09687 0.40398 0.78709
 N683 N 1.11281 0.37108 0.80909
 C684 C 1.12988 0.34248 0.77788
 H685 H 1.13357 0.36172 0.56316
 H686 H 1.16637 0.30375 0.60468
 H687 H 1.08442 0.43836 0.71771
 H688 H 1.14299 0.31670 0.79807
 C689 C 0.58935 -0.15753 0.64655
 C690 C 0.60749 -0.18855 0.67581
 C691 C 0.64295 -0.18211 0.70625
 C692 C 0.65788 -0.14202 0.71047
 C693 C 0.64010 -0.11091 0.67891
 C694 C 0.60607 -0.11914 0.64616
 C695 C 0.65614 -0.07198 0.68271
 N696 N 0.68677 -0.06441 0.71782
 N697 N 0.70208 -0.09300 0.74974
 C698 C 0.68838 -0.13124 0.74787
 H699 H 0.56256 -0.16381 0.62273
 H700 H 0.59487 -0.21828 0.67146
 H701 H 0.64420 -0.04735 0.65882
 H702 H 0.70084 -0.15254 0.77666
 C703 C 0.62030 0.38562 0.19453
 C704 C 0.64019 0.35430 0.22110
 C705 C 0.64233 0.31633 0.19738
 C706 C 0.62411 0.30977 0.14580
 C707 C 0.60393 0.34165 0.11878
 C708 C 0.60250 0.37989 0.14327
 C709 C 0.58515 0.33390 0.06842
 N710 N 0.58739 0.29686 0.04623
 N711 N 0.60706 0.26714 0.07104
 C712 C 0.62553 0.27231 0.11996
 H713 H 0.61927 0.41473 0.21376
 H714 H 0.65392 0.35966 0.26058
 H715 H 0.56857 0.35684 0.04663
 H716 H 0.64109 0.24711 0.13817
 C717 C 0.89462 0.12701 0.18560
 C718 C 0.87597 0.15729 0.21521
 C719 C 0.85038 0.18485 0.18938
 C720 C 0.84295 0.18137 0.13254
 C721 C 0.86111 0.14997 0.10268
 C722 C 0.88832 0.12337 0.12918
 C723 C 0.85102 0.14616 0.04707
 N724 N 0.82636 0.17321 0.02270
 N725 N 0.81089 0.20375 0.05013
 C726 C 0.81839 0.20883 0.10406
 H727 H 0.91532 0.10718 0.20669
 H728 H 0.88180 0.15946 0.25863
 H729 H 0.86184 0.12161 0.02287
 H730 H 0.80523 0.23443 0.12391
 C731 C 0.87392 0.64749 0.60308
 C732 C 0.85523 0.68018 0.62729
 C733 C 0.85526 0.68452 0.68406
 C734 C 0.87339 0.65478 0.71729
 C735 C 0.89177 0.62103 0.69286
 C736 C 0.89302 0.61807 0.63495
 C737 C 0.90694 0.59082 0.72766
 N738 N 0.90528 0.59519 0.78259
 N739 N 0.88908 0.62743 0.80529
 C740 C 0.87296 0.65727 0.77458
 H741 H 0.87419 0.64562 0.55895
 H742 H 0.84089 0.70249 0.60152
 H743 H 0.91914 0.56325 0.71223
 H744 H 0.85966 0.68247 0.79527
 C745 C 0.38294 0.15223 0.61128
 C746 C 0.36570 0.18494 0.63729
 C747 C 0.36224 0.18572 0.69420
 C748 C 0.37548 0.15251 0.72555
 C749 C 0.39270 0.11902 0.69918
 C750 C 0.39713 0.11940 0.64150
 C751 C 0.40336 0.08562 0.73157
 N752 N 0.39815 0.08650 0.78640
 N753 N 0.38259 0.11824 0.81112
 C754 C 0.37089 0.15115 0.78260
 H755 H 0.38582 0.15285 0.56725
 H756 H 0.35478 0.20982 0.61283
 H757 H 0.41483 0.05839 0.71406
 H758 H 0.35772 0.17569 0.80476
 C759 C 0.37283 0.64969 0.11134
 C760 C 0.35454 0.68199 0.13718
 C761 C 0.35226 0.68358 0.19420
 C762 C 0.36723 0.65117 0.22575
 C763 C 0.38530 0.61797 0.19954
 C764 C 0.38924 0.61794 0.14174
 C765 C 0.39752 0.58530 0.23228
 N766 N 0.39319 0.58669 0.28724
 N767 N 0.37711 0.61824 0.31178
 C768 C 0.36386 0.65043 0.28298
 H769 H 0.37513 0.65003 0.06724
 H770 H 0.34260 0.70630 0.11253
 H771 H 0.40949 0.55822 0.21499
 H772 H 0.35042 0.67488 0.30508
   
