data_POSCAR
  _audit_creation_date              2014-09-24
  _audit_creation_method            'ToBaCCo'
  _symmetry_space_group_name_H-M    'P1'
  _symmetry_Int_Tables_number       1
  _symmetry_cell_setting            triclinic
  loop_
  _symmetry_equiv_pos_as_xyz
 x,y,z
_cell_length_a 34.4537
_cell_length_b 39.4732
_cell_length_c 37.1167
_cell_angle_alpha 90.298600
_cell_angle_beta 90.323700
_cell_angle_gamma 81.489400
loop_
  _atom_site_label
  _atom_site_type_symbol
  _atom_site_fract_x
  _atom_site_fract_y
  _atom_site_fract_z
N1 N 0.15575 1.24863 0.16378
 N2 N 0.12555 1.25097 0.18560
 C3 C 0.10169 1.28056 0.17928
 C4 C 0.11758 1.29753 0.15182
 C5 C 0.15207 1.27657 0.14265
 H6 H 0.07429 1.28883 0.19302
 H7 H 0.17252 1.28074 0.12173
 Cu8 Cu 0.11896 1.21464 0.21911
 Cu9 Cu 0.19607 1.20849 0.16262
 Cu10 Cu 0.18600 1.14379 0.22307
 N11 N 0.12109 1.18310 0.25938
 N12 N 0.14771 1.15562 0.26106
 C13 C 0.14139 1.13750 0.29051
 C14 C 0.10878 1.15456 0.30818
 C15 C 0.09681 1.18343 0.28773
 H16 H 0.15852 1.11324 0.29761
 H17 H 0.07168 1.20276 0.29267
 N18 N 0.22933 1.14083 0.18834
 N19 N 0.23346 1.16561 0.16556
 C20 C 0.26488 1.15544 0.14460
 C21 C 0.28126 1.12272 0.15479
 C22 C 0.25808 1.11435 0.18261
 H23 H 0.27440 1.17037 0.12293
 H24 H 0.26150 1.09034 0.19702
 H25 H 0.16158 1.17437 0.18061
 H26 H 0.18916 1.19488 0.21595
 N27 N 0.84522 0.74192 0.17570
 N28 N 0.87291 0.73891 0.20049
 C29 C 0.89853 0.71038 0.19385
 C30 C 0.88622 0.69471 0.16339
 C31 C 0.85221 0.71539 0.15252
 H32 H 0.92479 0.70195 0.20938
 H33 H 0.83452 0.71208 0.12897
 Cu34 Cu 0.87370 0.77361 0.23774
 Cu35 Cu 0.80366 0.78119 0.17389
 Cu36 Cu 0.80438 0.84278 0.24096
 N37 N 0.87432 0.80831 0.27508
 N38 N 0.84670 0.83511 0.27641
 C39 C 0.85448 0.85571 0.30369
 C40 C 0.88907 0.84107 0.32025
 C41 C 0.90074 0.81100 0.30145
 H42 H 0.83686 0.87994 0.31008
 H43 H 0.92704 0.79291 0.30620
 N44 N 0.76418 0.84596 0.20257
 N45 N 0.76418 0.82275 0.17681
 C46 C 0.73470 0.83321 0.15358
 C47 C 0.71527 0.86448 0.16533
 C48 C 0.73460 0.87168 0.19645
 H49 H 0.72838 0.81941 0.12954
 H50 H 0.72821 0.89460 0.21273
 H51 H 0.83445 0.81563 0.19940
 H52 H 0.80365 0.79185 0.22834
 N53 N 0.78354 1.28542 -0.15372
 N54 N 0.80822 1.28811 -0.18004
 C55 C 0.83095 1.31185 -0.17118
 C56 C 0.82003 1.32451 -0.13725
 C57 C 0.78990 1.30715 -0.12700
 H58 H 0.85399 1.31882 -0.18802
 H59 H 0.77401 1.30997 -0.10185
 Cu60 Cu 0.80919 1.26025 -0.22353
 Cu61 Cu 0.74549 1.25378 -0.15690
 Cu62 Cu 0.76294 1.18823 -0.21556
 N63 N 0.81785 1.22131 -0.25735
 N64 N 0.80094 1.19360 -0.25390
 C65 C 0.81471 1.17084 -0.27961
 C66 C 0.84184 1.18489 -0.30007
 C67 C 0.84293 1.21691 -0.28526
 H68 H 0.80617 1.14572 -0.28259
 H69 H 0.86157 1.23522 -0.29351
 N70 N 0.72605 1.18821 -0.17595
 N71 N 0.71901 1.21388 -0.15307
 C72 C 0.69325 1.20647 -0.12823
 C73 C 0.68347 1.17454 -0.13610
 C74 C 0.70481 1.16365 -0.16661
 H75 H 0.68287 1.22282 -0.10575
 H76 H 0.70551 1.13948 -0.18059
 H77 H 0.79765 1.22091 -0.19156
 H78 H 0.75646 1.24008 -0.22122
 N79 N 0.20519 0.72384 -0.14544
 N80 N 0.17789 0.72354 -0.17025
 C81 C 0.16042 0.69553 -0.16603
 C82 C 0.17778 0.67724 -0.13692
 C83 C 0.20615 0.69588 -0.12463
 H84 H 0.13602 0.68972 -0.18217
 H85 H 0.22495 0.69015 -0.10135
 Cu86 Cu 0.16436 0.76115 -0.20371
 Cu87 Cu 0.23418 0.76230 -0.14031
 Cu88 Cu 0.22895 0.82045 -0.20724
 N89 N 0.16250 0.79578 -0.24183
 N90 N 0.18733 0.81818 -0.24342
 C91 C 0.17781 0.83894 -0.27180
 C92 C 0.14538 0.82901 -0.28887
 C93 C 0.13668 0.80149 -0.26928
 H94 H 0.19287 0.86008 -0.27890
 H95 H 0.11275 0.78716 -0.27430
 N96 N 0.26773 0.81866 -0.16873
 N97 N 0.26960 0.79624 -0.14249
 C98 C 0.29796 0.80199 -0.11912
 C99 C 0.31454 0.82957 -0.13122
 C100 C 0.29469 0.83956 -0.16286
 H101 H 0.30561 0.78760 -0.09474
 H102 H 0.29892 0.86075 -0.17999
 H103 H 0.18797 0.80060 -0.17776
 H104 H 0.22199 0.76909 -0.20465
 C105 C 0.56106 1.04201 -0.03489
 H106 H 0.56186 1.04220 -0.00574
 C107 C 0.58479 1.06111 -0.05423
 H108 H 0.60414 1.07553 -0.03956
 C109 C 0.53605 1.02135 -0.08901
 H110 H 0.51751 1.00538 -0.10245
 C111 C 0.55951 1.03991 -0.10944
 H112 H 0.55852 1.03834 -0.13857
 N113 N 0.53687 1.02309 -0.05241
 C114 C 0.44635 1.01339 0.02693
 H115 H 0.44803 0.98582 0.02780
 C116 C 0.41827 1.03409 0.04744
 H117 H 0.39834 1.02192 0.06362
 C118 C 0.46897 1.06224 0.00263
 H119 H 0.48804 1.07319 -0.01555
 C120 C 0.44129 1.08390 0.02260
 H121 H 0.43972 1.11138 0.01991
 Zn122 Zn 0.50636 0.99779 -0.02358
 N123 N 0.47119 1.02766 0.00532
 C124 C 0.54056 0.96928 0.04185
 N125 N 0.54174 0.96805 0.00523
 C126 C 0.56939 0.94598 -0.01235
 C127 C 0.59683 0.92348 0.00693
 C128 C 0.56762 0.94730 0.06225
 C129 C 0.44798 0.98999 -0.07442
 C130 C 0.42282 0.97273 -0.09479
 C131 C 0.45441 0.91938 -0.06945
 C132 C 0.47906 0.93765 -0.04965
 N133 N 0.47548 0.97232 -0.05248
 H134 H 0.51876 0.98736 0.05535
 H135 H 0.56996 0.94583 -0.04150
 H136 H 0.61852 0.90596 -0.00756
 H137 H 0.56547 0.94833 0.09129
 H138 H 0.44538 1.01761 -0.07577
 H139 H 0.40093 0.98721 -0.11198
 H140 H 0.45831 0.89179 -0.06704
 H141 H 0.50058 0.92408 -0.03162
 C142 C 0.41560 1.06996 0.04551
 C143 C 0.58383 1.06051 -0.09210
 C144 C 0.42540 0.93705 -0.09203
 C145 C 0.59643 0.92410 0.04469
 C146 C -0.00827 0.55059 1.02544
 H147 H 0.02342 0.54798 1.02485
 C148 C -0.02951 0.57567 1.04710
 H149 H -0.01364 0.59244 1.06264
 C150 C -0.06699 0.53306 1.00368
 H151 H -0.08147 0.51692 0.98610
 C152 C -0.08944 0.55797 1.02483
 H153 H -0.12117 0.56057 1.02364
 N154 N -0.02714 0.52976 1.00452
 C155 C 0.06420 0.44287 0.98455
 H156 H 0.06561 0.44337 0.95545
 C157 C 0.08739 0.41693 1.00368
 H158 H 0.10687 0.39756 0.98916
 C159 C 0.03594 0.46677 1.03876
 H160 H 0.01528 0.48581 1.05230
 C161 C 0.05841 0.44118 1.05892
 H162 H 0.05549 0.44160 1.08792
 Zn163 Zn 0.00476 0.49859 0.97435
 N164 N 0.03900 0.46704 1.00224
 C165 C 0.07265 0.52253 0.94582
 N166 N 0.03283 0.52523 0.94477
 C167 C 0.01087 0.54902 0.92387
 C168 C 0.02886 0.57110 0.90256
 C169 C 0.09189 0.54440 0.92513
 C170 C -0.04751 0.45171 0.96360
 C171 C -0.06874 0.43006 0.94433
 C172 C -0.04492 0.45144 0.88907
 C173 C -0.02417 0.47269 0.90941
 N174 N -0.02597 0.47257 0.94600
 H175 H 0.08951 0.50385 0.96312
 H176 H -0.02078 0.55096 0.92403
 H177 H 0.01086 0.58999 0.88618
 H178 H 0.12358 0.54163 0.92614
 H179 H -0.04758 0.45147 0.99275
 H180 H -0.08462 0.41310 0.95920
 H181 H -0.04283 0.45160 0.85996
 H182 H -0.00593 0.48862 0.89589
 C183 C 0.08396 0.41537 1.04123
 C184 C -0.07075 0.57950 1.04709
 C185 C -0.06765 0.42980 0.90643
 C186 C 0.06977 0.56934 0.90341
 C187 C 1.05895 -0.00827 0.56933
 H188 H 1.05686 0.01934 0.56862
 C189 C 1.08434 -0.02710 0.59374
 H190 H 1.10187 -0.01383 0.61179
 C191 C 1.03804 -0.05898 0.54698
 H192 H 1.01960 -0.07123 0.52898
 C193 C 1.06285 -0.07884 0.57124
 H194 H 1.06383 -0.10635 0.57087
 N195 N 1.03666 -0.02437 0.54642
 C196 C 1.00958 0.05147 0.46142
 H197 H 0.97784 0.05524 0.46197
 C198 C 1.02910 0.06836 0.43574
 H199 H 1.01188 0.08486 0.41655
 C200 C 1.07007 0.02307 0.48419
 H201 H 1.08594 0.00459 0.50229
 C202 C 1.09074 0.03923 0.45885
 H203 H 1.12246 0.03337 0.45809
 Zn204 Zn 1.00187 0.00404 0.51591
 N205 N 1.03019 0.02940 0.48503
 C206 C 0.96440 0.06766 0.54580
 N207 N 0.96765 0.03290 0.54640
 C208 C 0.94711 0.01666 0.57029
 C209 C 0.92152 0.03542 0.59448
 C210 C 0.93914 0.08752 0.56971
 C211 C 0.99280 -0.04462 0.46243
 C212 C 0.97265 -0.06268 0.43790
 C213 C 0.91154 -0.03365 0.46188
 C214 C 0.93284 -0.01628 0.48605
 N215 N 0.97275 -0.02209 0.48599
 H216 H 0.98145 0.08006 0.52696
 H217 H 0.95063 -0.01103 0.57043
 H218 H 0.90533 0.02195 0.61321
 H219 H 0.93658 0.11510 0.56823
 H220 H 1.02454 -0.04802 0.46227
 H221 H 0.98937 -0.07965 0.41879
 H222 H 0.87978 -0.02835 0.46193
 H223 H 0.91738 0.00251 0.50412
 C224 C 1.07034 0.06215 0.43417
 C225 C 1.08617 -0.06276 0.59527
 C226 C 0.93136 -0.05725 0.43746
 C227 C 0.91742 0.07128 0.59465
 C228 C 0.10033 0.32834 1.13634
 C229 C 0.11558 0.34277 1.10819
 C230 C 0.09428 0.37397 1.09158
 C231 C 0.10659 0.38622 1.06078
 H232 H 0.14304 0.33110 1.09639
 H233 H 0.06707 0.38576 1.10372
 H234 H 0.07256 0.34049 1.14729
 H235 H 0.13266 0.37274 1.04798
 C236 C -0.09245 0.66410 1.14555
 C237 C -0.10586 0.65007 1.11601
 C238 C -0.08181 0.62119 1.09765
 C239 C -0.09491 0.60685 1.06809
 H240 H -0.13414 0.66042 1.10466
 H241 H -0.05293 0.61194 1.10839
 H242 H -0.06426 0.65325 1.15680
 H243 H -0.12469 0.61536 1.05893
 C244 C -0.16308 0.35005 0.88462
 C245 C -0.13414 0.36614 0.87278
 C246 C -0.11698 0.39045 0.89605
 C247 C -0.08768 0.40620 0.88419
 H248 H -0.12247 0.36105 0.84594
 H249 H -0.12858 0.39529 0.92291
 H250 H -0.17463 0.35545 0.91148
 H251 H -0.07796 0.40176 0.85659
 C252 C 0.16635 0.64674 0.88052
 C253 C 0.13544 0.63251 0.86952
 C254 C 0.12193 0.60462 0.88997
 C255 C 0.08780 0.59413 0.88160
 H256 H 0.11860 0.64255 0.84621
 H257 H 0.13871 0.59440 0.91325
 H258 H 0.18272 0.63681 0.90417
 H259 H 0.07071 0.60627 0.85930
 C260 C 1.08965 0.14458 0.33862
 C261 C 1.10231 0.11594 0.35700
 C262 C 1.07938 0.10494 0.38703
 C263 C 1.09282 0.07664 0.40563
 H264 H 1.12923 0.09976 0.34943
 H265 H 1.05131 0.11986 0.39345
 H266 H 1.06294 0.16063 0.34711
 H267 H 1.12189 0.06324 0.39963
 C268 C 1.12392 -0.15616 0.68167
 C269 C 1.13230 -0.12822 0.66490
 C270 C 1.10684 -0.11210 0.63582
 C271 C 1.11261 -0.08196 0.62216
 H272 H 1.15719 -0.11622 0.67331
 H273 H 1.08212 -0.12415 0.62708
 H274 H 1.09865 -0.16750 0.67282
 H275 H 1.13636 -0.06965 0.63291
 C276 C 0.90981 -0.14612 0.34846
 C277 C 0.89731 -0.11647 0.36529
 C278 C 0.92143 -0.10288 0.39325
 C279 C 0.90810 -0.07371 0.41060
 H280 H 0.86946 -0.10149 0.35808
 H281 H 0.95017 -0.11681 0.39934
 H282 H 0.93756 -0.16085 0.35655
 H283 H 0.87843 -0.06130 0.40510
 C284 C 0.86516 0.17010 0.67158
 C285 C 0.86368 0.13835 0.65934
 C286 C 0.89047 0.12278 0.63100
 C287 C 0.89005 0.09021 0.62100
 H288 H 0.84326 0.12306 0.67080
 H289 H 0.91136 0.13762 0.61964
 H290 H 0.88581 0.18496 0.65964
 H291 H 0.86958 0.07595 0.63418
 C292 C 0.31439 1.09988 0.13860
 C293 C 0.33459 1.10904 0.11054
 C294 C 0.36583 1.08459 0.09377
 C295 C 0.38526 1.09358 0.06506
 H296 H 0.32751 1.13442 0.09917
 H297 H 0.37260 1.05918 0.10506
 H298 H 0.32172 1.07436 0.14969
 H299 H 0.37882 1.11972 0.05543
 C300 C 0.65733 1.15615 -0.11476
 C301 C 0.64663 1.12647 -0.12546
 C302 C 0.62149 1.10847 -0.10263
 C303 C 0.60869 1.07987 -0.11416
 H304 H 0.65648 1.11523 -0.15110
 H305 H 0.61312 1.11908 -0.07637
 H306 H 0.64663 1.16748 -0.08936
 H307 H 0.61569 1.07082 -0.14133
 C308 C 0.34540 0.84518 -0.11255
 C309 C 0.35775 0.87381 -0.12396
 C310 C 0.38735 0.88926 -0.10330
 C311 C 0.39750 0.91937 -0.11294
 H312 H 0.34545 0.88642 -0.14816
 H313 H 0.39961 0.87638 -0.07924
 H314 H 0.35763 0.83306 -0.08802
 H315 H 0.38313 0.93256 -0.13606
 C316 C 0.68257 0.88708 0.14810
 C317 C 0.66858 0.88067 0.11550
 C318 C 0.63734 0.90491 0.09839
 C319 C 0.62607 0.89996 0.06443
 H320 H 0.68088 0.85787 0.10078
 H321 H 0.62480 0.92749 0.11331
 H322 H 0.67051 0.91030 0.16230
 H323 H 0.64067 0.87793 0.04970
   
