data_POSCAR
  _audit_creation_date              2014-09-24
  _audit_creation_method            'ToBaCCo'
  _symmetry_space_group_name_H-M    'P1'
  _symmetry_Int_Tables_number       1
  _symmetry_cell_setting            triclinic
  loop_
  _symmetry_equiv_pos_as_xyz
 x,y,z
_cell_length_a 51.4263
_cell_length_b 51.1502
_cell_length_c 51.0572
_cell_angle_alpha 89.928200
_cell_angle_beta 90.045300
_cell_angle_gamma 89.874300
loop_
  _atom_site_label
  _atom_site_type_symbol
  _atom_site_fract_x
  _atom_site_fract_y
  _atom_site_fract_z
C1 C 0.19159 1.22266 0.19203
 N2 N 0.21340 1.21193 0.18162
 C3 C 0.22462 1.19083 0.19320
 N4 N 0.21388 1.18034 0.21508
 C5 C 0.19207 1.19106 0.22551
 N6 N 0.18087 1.21216 0.21391
 C7 C 0.80936 0.77455 0.19303
 N8 N 0.78778 0.78520 0.18198
 C9 C 0.77671 0.80679 0.19269
 N10 N 0.78734 0.81785 0.21434
 C11 C 0.80892 0.80721 0.22539
 N12 N 0.81998 0.78562 0.21467
 C13 C 0.80564 1.22710 -0.19355
 N14 N 0.81650 1.21618 -0.21515
 C15 C 0.80576 1.19452 -0.22599
 N16 N 0.78426 1.18368 -0.21510
 C17 C 0.77340 1.19459 -0.19349
 N18 N 0.78415 1.21624 -0.18266
 C19 C 0.19275 0.77494 -0.19269
 N20 N 0.18187 0.78613 -0.21419
 C21 C 0.19272 0.80780 -0.22493
 N22 N 0.21435 0.81839 -0.21404
 C23 C 0.22523 0.80721 -0.19254
 N24 N 0.21438 0.78555 -0.18181
 C25 C 0.54015 1.03583 -0.00840
 H26 H 0.54091 1.03581 0.01277
 C27 C 0.55764 1.05104 -0.02270
 H28 H 0.57187 1.06287 -0.01254
 C29 C 0.52116 1.01988 -0.04760
 H30 H 0.50729 1.00732 -0.05724
 C31 C 0.53832 1.03479 -0.06265
 H32 H 0.53744 1.03386 -0.08383
 N33 N 0.52229 1.02078 -0.02097
 C34 C 0.46098 1.00775 0.03651
 H35 H 0.46039 0.98661 0.03652
 C36 C 0.44341 1.02191 0.05178
 H37 H 0.42928 1.01169 0.06370
 C38 C 0.47961 1.04699 0.02040
 H39 H 0.49338 1.05669 0.00775
 C40 C 0.46237 1.06190 0.03538
 H41 H 0.46306 1.08305 0.03440
 Zn42 Zn 0.50054 0.99957 0.00002
 N43 N 0.47870 1.02040 0.02134
 C44 C 0.52174 0.97927 0.04746
 N45 N 0.52258 0.97835 0.02082
 C46 C 0.54037 0.96328 0.00810
 C47 C 0.55809 0.94809 0.02225
 C48 C 0.53913 0.96437 0.06236
 C49 C 0.46063 0.99143 -0.03611
 C50 C 0.44299 0.97730 -0.05127
 C51 C 0.46228 0.93728 -0.03510
 C52 C 0.47960 0.95217 -0.02023
 N53 N 0.47856 0.97875 -0.02111
 H54 H 0.50792 0.99184 0.05721
 H55 H 0.54090 0.96328 -0.01308
 H56 H 0.57227 0.93626 0.01196
 H57 H 0.53848 0.96533 0.08354
 H58 H 0.45996 1.01258 -0.03608
 H59 H 0.42870 0.98755 -0.06307
 H60 H 0.46308 0.91613 -0.03419
 H61 H 0.49353 0.94244 -0.00771
 C62 C 0.44409 1.04923 0.05116
 C63 C 0.55673 1.05047 -0.05006
 C64 C 0.44379 0.94998 -0.05072
 C65 C 0.55748 0.94870 0.04961
 C66 C -0.00642 0.53975 1.03640
 H67 H 0.01462 0.54005 1.03639
 C68 C -0.02025 0.55746 1.05186
 H69 H -0.00987 0.57141 1.06389
 C70 C -0.04572 0.52170 1.02019
 H71 H -0.05557 0.50812 1.00743
 C72 C -0.06030 0.53910 1.03535
 H73 H -0.08134 0.53869 1.03441
 N74 N -0.01926 0.52224 1.02110
 C75 C 0.03653 0.45945 1.00724
 H76 H 0.03652 0.45914 0.98606
 C77 C 0.05123 0.44116 1.02120
 H78 H 0.06267 0.42674 1.01077
 C79 C 0.02099 0.47808 1.04679
 H80 H 0.00876 0.49212 1.05669
 C81 C 0.03540 0.46011 1.06151
 H82 H 0.03441 0.46052 1.08270
 Zn83 Zn 0.00111 0.50016 0.99957
 N84 N 0.02190 0.47750 1.02015
 C85 C 0.04853 0.52065 0.97936
 N86 N 0.02210 0.52210 0.97855
 C87 C 0.00972 0.54042 0.96372
 C88 C 0.02401 0.55807 0.94865
 C89 C 0.06356 0.53796 0.96458
 C90 C -0.03550 0.46091 0.99098
 C91 C -0.05087 0.44360 0.97663
 C92 C -0.03457 0.46308 0.93675
 C93 C -0.01950 0.48006 0.95185
 N94 N -0.02034 0.47876 0.97848
 H95 H 0.05801 0.50640 0.99174
 H96 H -0.01129 0.54142 0.96380
 H97 H 0.01401 0.57268 0.93699
 H98 H 0.08458 0.53683 0.96544
 H99 H -0.03544 0.46001 1.01215
 H100 H -0.06277 0.42936 0.98674
 H101 H -0.03368 0.46407 0.91557
 H102 H -0.00687 0.49391 0.94226
 C103 C 0.05059 0.44145 1.04857
 C104 C -0.04743 0.55715 1.05128
 C105 C -0.05034 0.44467 0.94927
 C106 C 0.05117 0.55685 0.94913
 C107 C 1.03477 -0.00739 0.54102
 H108 H 1.03465 0.01375 0.54168
 C109 C 1.04991 -0.02155 0.55880
 H110 H 1.06159 -0.01133 0.57316
 C111 C 1.01918 -0.04663 0.52197
 H112 H 1.00679 -0.05633 0.50795
 C113 C 1.03402 -0.06154 0.53941
 H114 H 1.03321 -0.08269 0.53861
 N115 N 1.01994 -0.02004 0.52298
 C116 C 1.00711 0.03704 0.46076
 H117 H 0.98609 0.03698 0.45997
 C118 C 1.02125 0.05226 0.44311
 H119 H 1.01112 0.06407 0.42870
 C120 C 1.04608 0.02116 0.48000
 H121 H 1.05570 0.00862 0.49403
 C122 C 1.06097 0.03610 0.46268
 H123 H 1.08200 0.03520 0.46359
 Zn124 Zn 0.99888 0.00077 0.50078
 N125 N 1.01964 0.02201 0.47883
 C126 C 0.97837 0.04815 0.52165
 N127 N 0.97758 0.02156 0.52268
 C128 C 0.96257 0.00888 0.54056
 C129 C 0.94727 0.02303 0.55815
 C130 C 0.96336 0.06304 0.53892
 C131 C 0.99110 -0.03547 0.46072
 C132 C 0.97717 -0.05073 0.44295
 C133 C 0.93723 -0.03463 0.46201
 C134 C 0.95191 -0.01967 0.47946
 N135 N 0.97836 -0.02047 0.47861
 H136 H 0.99090 0.05786 0.50777
 H137 H 0.96267 -0.01226 0.54125
 H138 H 0.93545 0.01278 0.57240
 H139 H 0.96419 0.08419 0.53811
 H140 H 1.01213 -0.03538 0.46018
 H141 H 0.98747 -0.06252 0.42870
 H142 H 0.91619 -0.03379 0.46268
 H143 H 0.94213 -0.00715 0.49335
 C144 C 1.04841 0.05174 0.44406
 C145 C 1.04949 -0.04887 0.55800
 C146 C 0.94999 -0.05026 0.44358
 C147 C 0.94771 0.05034 0.55734
 C148 C 0.17988 0.24321 1.17995
 C149 C 0.16921 0.26118 1.16901
 C150 C 0.15613 0.28225 1.15569
 C151 C 0.15999 0.30816 1.16355
 C152 C 0.14704 0.32853 1.15066
 C153 C 0.13000 0.32321 1.12976
 C154 C 0.12634 0.29710 1.12196
 C155 C 0.13932 0.27679 1.13485
 C156 C 0.11602 0.34473 1.11613
 C157 C 0.08987 0.34168 1.10862
 C158 C 0.07681 0.36172 1.09539
 C159 C 0.08965 0.38507 1.08949
 C160 C 0.11561 0.38840 1.09702
 C161 C 0.12872 0.36838 1.11029
 C162 C 0.07623 0.40537 1.07534
 C163 C 0.06469 0.42202 1.06325
 H164 H 0.17291 0.31260 1.17971
 H165 H 0.15003 0.34840 1.15730
 H166 H 0.11367 0.29239 1.10570
 H167 H 0.13625 0.25681 1.12855
 H168 H 0.07945 0.32388 1.11316
 H169 H 0.05670 0.35896 1.08970
 H170 H 0.12576 0.40638 1.09247
 H171 H 0.14892 0.37120 1.11555
 C172 C -0.17913 0.75342 1.18186
 C173 C -0.16870 0.73489 1.17171
 C174 C -0.15601 0.71309 1.15929
 C175 C -0.13578 0.69992 1.17210
 C176 C -0.12282 0.67935 1.15964
 C177 C -0.12992 0.67170 1.13416
 C178 C -0.15048 0.68489 1.12156
 C179 C -0.16340 0.70545 1.13406
 C180 C -0.11559 0.65047 1.12051
 C181 C -0.12892 0.63220 1.10491
 C182 C -0.11528 0.61275 1.09143
 C183 C -0.08817 0.61128 1.09337
 C184 C -0.07476 0.62920 1.10901
 C185 C -0.08835 0.64865 1.12251
 C186 C -0.07403 0.59184 1.07879
 C187 C -0.06200 0.57586 1.06637
 H188 H -0.12992 0.70566 1.19165
 H189 H -0.10730 0.66937 1.16997
 H190 H -0.15617 0.67971 1.10182
 H191 H -0.17895 0.71560 1.12391
 H192 H -0.14990 0.63289 1.10323
 H193 H -0.12586 0.59895 1.07939
 H194 H -0.05376 0.62831 1.11054
 H195 H -0.07749 0.66263 1.13405
 C196 C -0.18251 0.24947 0.81842
 C197 C -0.17232 0.26800 0.82874
 C198 C -0.15988 0.28978 0.84137
 C199 C -0.14330 0.30616 0.82715
 C200 C -0.13049 0.32675 0.83967
 C201 C -0.13411 0.33121 0.86662
 C202 C -0.15103 0.31478 0.88067
 C203 C -0.16380 0.29421 0.86811
 C204 C -0.11982 0.35246 0.88019
 C205 C -0.13212 0.36763 0.89957
 C206 C -0.11834 0.38699 0.91298
 C207 C -0.09213 0.39146 0.90721
 C208 C -0.07980 0.37669 0.88778
 C209 C -0.09353 0.35734 0.87433
 C210 C -0.07765 0.41063 0.92175
 C211 C -0.06531 0.42634 0.93417
 H212 H -0.14014 0.30292 0.80642
 H213 H -0.11784 0.33924 0.82826
 H214 H -0.15394 0.31746 0.90150
 H215 H -0.17649 0.28157 0.87934
 H216 H -0.15241 0.36457 0.90430
 H217 H -0.12808 0.39832 0.92799
 H218 H -0.05948 0.37991 0.88325
 H219 H -0.08341 0.34577 0.85979
 C220 C 0.18145 0.75373 0.81850
 C221 C 0.17118 0.73513 0.82864
 C222 C 0.15860 0.71325 0.84099
 C223 C 0.13219 0.70854 0.83645
 C224 C 0.11968 0.68785 0.84912
 C225 C 0.13345 0.67158 0.86655
 C226 C 0.16007 0.67632 0.87079
 C227 C 0.17255 0.69703 0.85808
 C228 C 0.11992 0.65017 0.88068
 C229 C 0.12523 0.64533 0.90730
 C230 C 0.11184 0.62579 0.92086
 C231 C 0.09302 0.61080 0.90802
 C232 C 0.08780 0.61524 0.88149
 C233 C 0.10115 0.63479 0.86788
 C234 C 0.07856 0.59140 0.92229
 C235 C 0.06620 0.57547 0.93443
 H236 H 0.12118 0.72106 0.82336
 H237 H 0.09911 0.68495 0.84572
 H238 H 0.17127 0.66395 0.88384
 H239 H 0.19301 0.70048 0.86172
 H240 H 0.13929 0.65706 0.91780
 H241 H 0.11594 0.62260 0.94144
 H242 H 0.07328 0.60374 0.87135
 H243 H 0.09686 0.63782 0.84733
 C244 C 1.18084 0.18005 0.24689
 C245 C 1.17062 0.17004 0.26562
 C246 C 1.15809 0.15781 0.28763
 C247 C 1.16384 0.13182 0.29402
 C248 C 1.15096 0.11955 0.31475
 C249 C 1.13208 0.13313 0.32936
 C250 C 1.12664 0.15936 0.32296
 C251 C 1.13957 0.17159 0.30222
 C252 C 1.11768 0.11977 0.35072
 C253 C 1.09078 0.12380 0.35381
 C254 C 1.07703 0.11054 0.37333
 C255 C 1.08996 0.09314 0.39004
 C256 C 1.11676 0.08920 0.38733
 C257 C 1.13055 0.10242 0.36781
 C258 C 1.07557 0.07880 0.40947
 C259 C 1.06330 0.06658 0.42542
 H260 H 1.17804 0.12093 0.28276
 H261 H 1.15532 0.09926 0.31894
 H262 H 1.11245 0.17042 0.33404
 H263 H 1.13498 0.19172 0.29745
 H264 H 1.08024 0.13673 0.34076
 H265 H 1.05627 0.11364 0.37518
 H266 H 1.12697 0.07578 0.40018
 H267 H 1.15129 0.09916 0.36613
 C268 C 1.18139 -0.18056 0.75403
 C269 C 1.17113 -0.17002 0.73558
 C270 C 1.15861 -0.15715 0.71387
 C271 C 1.14211 -0.17119 0.69726
 C272 C 1.12927 -0.15847 0.67671
 C273 C 1.13278 -0.13151 0.67252
 C274 C 1.14962 -0.11764 0.68918
 C275 C 1.16242 -0.13039 0.70972
 C276 C 1.11852 -0.11776 0.65124
 C277 C 1.13082 -0.09827 0.63626
 C278 C 1.11710 -0.08478 0.61680
 C279 C 1.09094 -0.09060 0.61205
 C280 C 1.07860 -0.11012 0.62666
 C281 C 1.09228 -0.12364 0.64611
 C282 C 1.07656 -0.07612 0.59266
 C283 C 1.06432 -0.06379 0.57670
 H284 H 1.13904 -0.19192 0.70029
 H285 H 1.11669 -0.16975 0.66402
 H286 H 1.15245 -0.09681 0.68671
 H287 H 1.17506 -0.11931 0.72255
 H288 H 1.15107 -0.09352 0.63951
 H289 H 1.12684 -0.06972 0.60558
 H290 H 1.05832 -0.11469 0.62322
 H291 H 1.08216 -0.13827 0.65754
 C292 C 0.81999 -0.18128 0.24658
 C293 C 0.83006 -0.17086 0.26516
 C294 C 0.84237 -0.15816 0.28702
 C295 C 0.83739 -0.13174 0.29206
 C296 C 0.85001 -0.11910 0.31271
 C297 C 0.86784 -0.13274 0.32860
 C298 C 0.87252 -0.15938 0.32354
 C299 C 0.85985 -0.17199 0.30287
 C300 C 0.88193 -0.11906 0.34997
 C301 C 0.90853 -0.12393 0.35432
 C302 C 0.92200 -0.11046 0.37387
 C303 C 0.90910 -0.09198 0.38935
 C304 C 0.88259 -0.08718 0.38536
 C305 C 0.86907 -0.10062 0.36581
 C306 C 0.92325 -0.07750 0.40883
 C307 C 0.93533 -0.06518 0.42484
 H308 H 0.82398 -0.12082 0.27982
 H309 H 0.84626 -0.09850 0.31587
 H310 H 0.88588 -0.17049 0.33561
 H311 H 0.86383 -0.19246 0.29915
 H312 H 0.91906 -0.13773 0.34223
 H313 H 0.94255 -0.11424 0.37670
 H314 H 0.87241 -0.07292 0.39725
 H315 H 0.84855 -0.09667 0.36315
 C316 C 0.81709 0.18314 0.75288
 C317 C 0.82738 0.17281 0.73437
 C318 C 0.83995 0.16019 0.71260
 C319 C 0.82643 0.14188 0.69751
 C320 C 0.83895 0.12891 0.67698
 C321 C 0.86521 0.13409 0.67127
 C322 C 0.87855 0.15275 0.68639
 C323 C 0.86599 0.16568 0.70692
 C324 C 0.87885 0.11968 0.65008
 C325 C 0.89657 0.13259 0.63355
 C326 C 0.91000 0.11878 0.61417
 C327 C 0.90591 0.09193 0.61105
 C328 C 0.88814 0.07896 0.62721
 C329 C 0.87468 0.09272 0.64658
 C330 C 0.92040 0.07752 0.59175
 C331 C 0.93275 0.06524 0.57589
 H332 H 0.80626 0.13749 0.70174
 H333 H 0.82808 0.11489 0.66550
 H334 H 0.89886 0.15692 0.68274
 H335 H 0.87668 0.17972 0.71856
 H336 H 0.89996 0.15338 0.63554
 H337 H 0.92369 0.12902 0.60174
 H338 H 0.88492 0.05815 0.62504
 H339 H 0.86145 0.08215 0.65922
 C340 C 0.24715 1.17894 0.18167
 C341 C 0.26580 1.16867 0.17172
 C342 C 0.28773 1.15610 0.15953
 C343 C 0.29170 1.12923 0.16287
 C344 C 0.31242 1.11675 0.15030
 C345 C 0.32946 1.13101 0.13417
 C346 C 0.32546 1.15808 0.13115
 C347 C 0.30472 1.17052 0.14376
 C348 C 0.35090 1.11755 0.12007
 C349 C 0.35665 1.12408 0.09393
 C350 C 0.37618 1.11076 0.08033
 C351 C 0.39025 1.09079 0.09267
 C352 C 0.38491 1.08436 0.11876
 C353 C 0.36537 1.09764 0.13239
 C354 C 0.40962 1.07641 0.07830
 C355 C 0.42552 1.06414 0.06604
 H356 H 0.27858 1.11785 0.17493
 H357 H 0.31475 1.09585 0.15273
 H358 H 0.33842 1.16964 0.11912
 H359 H 0.30183 1.19134 0.14106
 H360 H 0.34563 1.13905 0.08378
 H361 H 0.38007 1.11580 0.06010
 H362 H 0.39570 1.06894 0.12850
 H363 H 0.36162 1.09239 0.15259
 C364 C 0.75118 1.18263 -0.18148
 C365 C 0.73279 1.17235 -0.17113
 C366 C 0.71115 1.15981 -0.15846
 C367 C 0.69588 1.14184 -0.17220
 C368 C 0.67545 1.12895 -0.15960
 C369 C 0.67004 1.13388 -0.13303
 C370 C 0.68535 1.15221 -0.11948
 C371 C 0.70576 1.16505 -0.13212
 C372 C 0.64895 1.11955 -0.11933
 C373 C 0.63284 1.13243 -0.10116
 C374 C 0.61357 1.11868 -0.08765
 C375 C 0.61013 1.09192 -0.09211
 C376 C 0.62588 1.07900 -0.11032
 C377 C 0.64515 1.09270 -0.12386
 C378 C 0.59094 1.07756 -0.07753
 C379 C 0.57518 1.06532 -0.06511
 H380 H 0.69987 1.13765 -0.19261
 H381 H 0.66383 1.11520 -0.17064
 H382 H 0.68192 1.15617 -0.09895
 H383 H 0.71755 1.17884 -0.12127
 H384 H 0.63508 1.15314 -0.09747
 H385 H 0.60147 1.12888 -0.07360
 H386 H 0.62346 1.05826 -0.11384
 H387 H 0.65745 1.08214 -0.13744
 C388 C 0.24760 0.81890 -0.18055
 C389 C 0.26614 0.82898 -0.17025
 C390 C 0.28796 0.84133 -0.15770
 C391 C 0.30367 0.85870 -0.17173
 C392 C 0.32427 0.87144 -0.15927
 C393 C 0.32942 0.86696 -0.13255
 C394 C 0.31368 0.84923 -0.11870
 C395 C 0.29308 0.83653 -0.13120
 C396 C 0.35070 0.88116 -0.11902
 C397 C 0.36647 0.86835 -0.10044
 C398 C 0.38593 0.88200 -0.08711
 C399 C 0.38989 0.90859 -0.09216
 C400 C 0.37448 0.92144 -0.11076
 C401 C 0.35503 0.90784 -0.12413
 C402 C 0.40927 0.92289 -0.07777
 C403 C 0.42518 0.93511 -0.06554
 H404 H 0.29988 0.86255 -0.19226
 H405 H 0.33624 0.88472 -0.17054
 H406 H 0.31690 0.84563 -0.09805
 H407 H 0.28096 0.82322 -0.12012
 H408 H 0.36383 0.84776 -0.09631
 H409 H 0.39777 0.87186 -0.07275
 H410 H 0.37729 0.94206 -0.11472
 H411 H 0.34299 0.91834 -0.13803
 C412 C 0.75438 0.81851 0.18053
 C413 C 0.73588 0.82857 0.17004
 C414 C 0.71410 0.84083 0.15722
 C415 C 0.69641 0.85582 0.17166
 C416 C 0.67573 0.86841 0.15903
 C417 C 0.67250 0.86615 0.13174
 C418 C 0.69026 0.85083 0.11746
 C419 C 0.71091 0.83828 0.13012
 C420 C 0.65105 0.88017 0.11813
 C421 C 0.63739 0.86816 0.09751
 C422 C 0.61781 0.88172 0.08414
 C423 C 0.61161 0.90741 0.09120
 C424 C 0.62489 0.91943 0.11185
 C425 C 0.64446 0.90591 0.12525
 C426 C 0.59217 0.92171 0.07679
 C427 C 0.57618 0.93390 0.06451
 H428 H 0.69868 0.85790 0.19265
 H429 H 0.66221 0.87980 0.17060
 H430 H 0.68852 0.84901 0.09640
 H431 H 0.72457 0.82682 0.11874
 H432 H 0.64178 0.84826 0.09179
 H433 H 0.60764 0.87223 0.06819
 H434 H 0.62033 0.93936 0.11738
 H435 H 0.65485 0.91582 0.14079
   
