data_POSCAR
  _audit_creation_date              2014-09-24
  _audit_creation_method            'ToBaCCo'
  _symmetry_space_group_name_H-M    'P1'
  _symmetry_Int_Tables_number       1
  _symmetry_cell_setting            triclinic
  loop_
  _symmetry_equiv_pos_as_xyz
 x,y,z
_cell_length_a 25.2922
_cell_length_b 25.4575
_cell_length_c 25.2562
_cell_angle_alpha 89.795600
_cell_angle_beta 90.122400
_cell_angle_gamma 90.303700
loop_
  _atom_site_label
  _atom_site_type_symbol
  _atom_site_fract_x
  _atom_site_fract_y
  _atom_site_fract_z
C1 C -0.07271 0.51040 0.26781
 C2 C -0.02308 0.52141 0.24601
 C3 C -0.01221 0.57150 0.22561
 C4 C -0.05010 0.61168 0.22796
 C5 C -0.09890 0.60078 0.25288
 C6 C -0.11096 0.54998 0.27244
 C7 C 0.01821 0.48076 0.24579
 C8 C 0.00821 0.43166 0.22290
 C9 C 0.04797 0.39353 0.22104
 C10 C 0.09767 0.40466 0.24368
 C11 C 0.10760 0.45313 0.26847
 C12 C 0.06768 0.49119 0.26875
 H13 H -0.08029 0.47133 0.28333
 H14 H 0.02616 0.57877 0.20792
 H15 H -0.03003 0.42395 0.20503
 H16 H 0.07477 0.52898 0.28714
 H17 H -0.12823 0.63150 0.25563
 H18 H 0.12827 0.37506 0.24303
 C19 C -0.07032 0.48906 0.73417
 C20 C -0.02066 0.47903 0.75644
 C21 C -0.00952 0.42922 0.77710
 C22 C -0.04714 0.38833 0.77458
 C23 C -0.09603 0.39832 0.74929
 C24 C -0.10807 0.44880 0.72971
 C25 C 0.02045 0.52026 0.75668
 C26 C 0.01115 0.56812 0.78190
 C27 C 0.04956 0.60834 0.78154
 C28 C 0.09792 0.59932 0.75511
 C29 C 0.10780 0.55105 0.72992
 C30 C 0.06867 0.51180 0.73105
 H31 H -0.07858 0.52772 0.71813
 H32 H 0.02892 0.42269 0.79493
 H33 H -0.02649 0.57372 0.80149
 H34 H 0.07544 0.47447 0.71177
 H35 H -0.12550 0.36744 0.74607
 H36 H 0.12807 0.62969 0.75412
 C37 C 0.27976 -0.07115 0.51051
 C38 C 0.25509 -0.02319 0.52027
 C39 C 0.23006 -0.01464 0.56879
 C40 C 0.22896 -0.05398 0.60780
 C41 C 0.25355 -0.10241 0.59751
 C42 C 0.27940 -0.11146 0.54880
 C43 C 0.25487 0.01810 0.47934
 C44 C 0.23139 0.00860 0.43001
 C45 C 0.22738 0.04891 0.39190
 C46 C 0.24932 0.09874 0.40390
 C47 C 0.27532 0.10770 0.45248
 C48 C 0.27708 0.06726 0.49019
 H49 H 0.29891 -0.07676 0.47260
 H50 H 0.21125 0.02283 0.57589
 H51 H 0.21444 -0.02987 0.42255
 H52 H 0.29577 0.07384 0.52828
 H53 H 0.25256 -0.13284 0.62759
 H54 H 0.24757 0.13025 0.37503
 C55 C 0.72415 -0.06941 0.48823
 C56 C 0.74703 -0.02003 0.47881
 C57 C 0.76901 -0.00855 0.42943
 C58 C 0.76780 -0.04578 0.38879
 C59 C 0.74267 -0.09447 0.39766
 C60 C 0.72089 -0.10706 0.44764
 C61 C 0.74758 0.01999 0.52063
 C62 C 0.77161 0.00911 0.56929
 C63 C 0.77139 0.04633 0.61024
 C64 C 0.74553 0.09467 0.60152
 C65 C 0.72208 0.10640 0.55225
 C66 C 0.72373 0.06877 0.51189
 H67 H 0.70741 -0.07744 0.52691
 H68 H 0.78735 0.02951 0.42292
 H69 H 0.79042 -0.02869 0.57483
 H70 H 0.70529 0.07665 0.47393
 H71 H 0.74158 -0.12301 0.36596
 H72 H 0.74470 0.12386 0.63259
 C73 C 0.49206 0.26723 1.07251
 C74 C 0.48147 0.24646 1.02239
 C75 C 0.43184 0.22453 1.01146
 C76 C 0.39304 0.22092 1.05114
 C77 C 0.40463 0.24146 1.10184
 C78 C 0.45363 0.26572 1.11237
 C79 C 0.52262 0.24774 0.98132
 C80 C 0.57227 0.22575 0.99147
 C81 C 0.61287 0.22854 0.95354
 C82 C 0.60277 0.25502 0.90541
 C83 C 0.55256 0.27609 0.89447
 C84 C 0.51256 0.27176 0.93250
 H85 H 0.53034 0.28504 1.08015
 H86 H 0.42450 0.20873 0.97232
 H87 H 0.57887 0.20655 1.02927
 H88 H 0.47406 0.28880 0.92508
 H89 H 0.37509 0.24005 1.13281
 H90 H 0.63343 0.25807 0.87564
 C91 C 0.50867 0.72925 1.06709
 C92 C 0.51828 0.75360 1.01830
 C93 C 0.56740 0.77686 1.00817
 C94 C 0.60808 0.77522 1.04615
 C95 C 0.59863 0.74841 1.09434
 C96 C 0.54881 0.72587 1.10525
 C97 C 0.47704 0.75412 0.97727
 C98 C 0.42874 0.77835 0.98719
 C99 C 0.38846 0.77860 0.94871
 C100 C 0.39787 0.75387 0.89961
 C101 C 0.44671 0.72973 0.88924
 C102 C 0.48604 0.73016 0.92844
 H103 H 0.47039 0.71132 1.07440
 H104 H 0.57351 0.79614 0.97032
 H105 H 0.42287 0.79668 1.02539
 H106 H 0.52386 0.71170 0.92122
 H107 H 0.62945 0.74616 1.12409
 H108 H 0.36744 0.75335 0.86936
 B109 B 1.00073 1.05473 0.03089
 B110 B 1.00251 1.05235 -0.03598
 B111 B 1.05533 1.03130 -0.00037
 B112 B 1.03195 1.00057 0.05505
 B113 B 0.96529 1.00235 0.05310
 B114 B 0.94683 1.03423 -0.00255
 B115 B 0.99891 0.94474 -0.03204
 B116 B 0.99797 0.94689 0.03535
 B117 B 0.94490 0.96741 -0.00058
 B118 B 0.96740 0.99844 -0.05529
 B119 B 1.03465 0.99732 -0.05383
 B120 B 1.05312 0.96508 0.00248
 B121 B 0.55403 0.49843 0.46683
 B122 B 0.49944 0.53006 0.44380
 B123 B 0.49990 0.46361 0.44799
 B124 B 0.53315 0.44629 0.50330
 B125 B 0.55440 0.50258 0.53320
 B126 B 0.53272 0.55440 0.49698
 B127 B 0.44568 0.50129 0.53398
 B128 B 0.50010 0.47004 0.55642
 B129 B 0.50009 0.53648 0.55234
 B130 B 0.46589 0.55352 0.49680
 B131 B 0.44546 0.49795 0.46652
 B132 B 0.46622 0.44602 0.50362
 C133 C 1.02116 1.25122 0.14206
 N134 N 1.07097 1.26980 0.14974
 N135 N 1.07936 1.31457 0.17544
 C136 C 1.03822 1.34285 0.19421
 N137 N 0.98824 1.32425 0.18657
 N138 N 0.97982 1.27910 0.16115
 C139 C 1.01337 1.20227 0.11255
 N140 N 0.96657 1.17565 0.11264
 N141 N 0.96169 1.13013 0.08683
 C142 C 1.00336 1.10997 0.05985
 N143 N 1.04939 1.13740 0.05924
 N144 N 1.05446 1.18238 0.08513
 C145 C 0.97921 0.75547 0.15700
 N146 N 1.01359 0.71520 0.15135
 N147 N 1.00455 0.66921 0.17510
 C148 C 0.96044 0.66124 0.20494
 N149 N 0.92619 0.70185 0.21055
 N150 N 0.93550 0.74805 0.18728
 C151 C 0.98760 0.80535 0.12868
 N152 N 0.96014 0.84877 0.14251
 N153 N 0.96495 0.89302 0.11464
 C154 C 0.99669 0.89550 0.07140
 N155 N 1.02506 0.85234 0.05833
 N156 N 1.02073 0.80814 0.08650
 C157 C 0.98455 1.24502 -0.15510
 N158 N 1.01789 1.28635 -0.14852
 N159 N 1.00800 1.33222 -0.17199
 C160 C 0.96401 1.33903 -0.20239
 N161 N 0.93070 1.29742 -0.20880
 N162 N 0.94092 1.25133 -0.18587
 C163 C 0.99394 1.19496 -0.12757
 N164 N 0.96875 1.15074 -0.14372
 N165 N 0.97379 1.10618 -0.11657
 C166 C 1.00359 1.10393 -0.07188
 N167 N 1.02976 1.14800 -0.05637
 N168 N 1.02525 1.19263 -0.08383
 C169 C 1.01940 0.74937 -0.14433
 N170 N 0.98601 0.70798 -0.13819
 N171 N 0.99568 0.66261 -0.16239
 C172 C 1.03943 0.65645 -0.19307
 N173 N 1.07293 0.69800 -0.19867
 N174 N 1.06294 0.74356 -0.17505
 C175 C 1.00959 0.79956 -0.11779
 N176 N 1.03423 0.84360 -0.13529
 N177 N 1.02863 0.88872 -0.10970
 C178 C 0.99881 0.89178 -0.06526
 N179 N 0.97304 0.84788 -0.04836
 N180 N 0.97815 0.80259 -0.07432
 C181 C 1.14752 1.02248 0.25143
 N182 N 1.16398 1.07152 0.26482
 N183 N 1.19051 1.07990 0.30963
 C184 C 1.20112 1.03967 0.34343
 N185 N 1.18464 0.99048 0.32974
 N186 N 1.15863 0.98195 0.28455
 C187 C 1.11667 1.01464 0.20267
 N188 N 1.11286 0.96702 0.17857
 N189 N 1.08608 0.96175 0.13316
 C190 C 1.06178 1.00382 0.11065
 N191 N 1.06473 1.05072 0.13581
 N192 N 1.09180 1.05621 0.18055
 C193 C 1.15254 0.97514 -0.24776
 N194 N 1.14025 1.00327 -0.29176
 N195 N 1.16464 0.99401 -0.33746
 C196 C 1.20189 0.95589 -0.34118
 N197 N 1.21399 0.92760 -0.29712
 N198 N 1.18987 0.93714 -0.25127
 C199 C 1.12469 0.98438 -0.19761
 N200 N 1.14193 0.96177 -0.15211
 N201 N 1.11502 0.96757 -0.10728
 C202 C 1.06959 0.99570 -0.10612
 N203 N 1.05309 1.01938 -0.15144
 N204 N 1.08016 1.01395 -0.19631
 C205 C 0.84476 0.98630 0.24539
 N206 N 0.80518 0.95010 0.24765
 N207 N 0.78044 0.94002 0.29309
 C208 C 0.79414 0.96603 0.33792
 N209 N 0.83351 1.00253 0.33544
 N210 N 0.85853 1.01233 0.29011
 C211 C 0.87356 0.99506 0.19584
 N212 N 0.92028 1.02165 0.19514
 N213 N 0.94816 1.02571 0.15053
 C214 C 0.93015 1.00367 0.10502
 N215 N 0.88289 0.97825 0.10582
 N216 N 0.85517 0.97386 0.15026
 C217 C 0.84819 1.01573 -0.24881
 N218 N 0.85300 0.98243 -0.29025
 N219 N 0.82762 0.99202 -0.33553
 C220 C 0.79703 1.03554 -0.34145
 N221 N 0.79256 1.06875 -0.29975
 N222 N 0.81739 1.05889 -0.25433
 C223 C 0.87654 1.00669 -0.19901
 N224 N 0.86181 1.03324 -0.15522
 N225 N 0.88924 1.02872 -0.11060
 C226 C 0.93288 0.99814 -0.10786
 N227 N 0.94699 0.97040 -0.15140
 N228 N 0.91921 0.97452 -0.19624
 C229 C 1.25144 1.14545 0.02122
 N230 N 1.28544 1.15585 -0.01892
 N231 N 1.33102 1.18065 -0.00934
 C232 C 1.34416 1.19642 0.04054
 N233 N 1.30940 1.18662 0.08028
 N234 N 1.26422 1.16137 0.07086
 C235 C 1.20282 1.11507 0.01294
 N236 N 1.18075 1.09048 0.05495
 N237 N 1.13600 1.06373 0.04952
 C238 C 1.11080 1.06078 0.00227
 N239 N 1.13326 1.08476 -0.04038
 N240 N 1.17875 1.11130 -0.03517
 C241 C 0.75564 1.15532 -0.01930
 N242 N 0.71481 1.14876 0.01481
 N243 N 0.66909 1.17318 0.00647
 C244 C 0.66200 1.20457 -0.03667
 N245 N 0.70316 1.21103 -0.07068
 N246 N 0.74911 1.18711 -0.06203
 C247 C 0.80521 1.12665 -0.01165
 N248 N 0.84954 1.14180 -0.03772
 N249 N 0.89373 1.11396 -0.03342
 C250 C 0.89520 1.06950 -0.00367
 N251 N 0.85104 1.05496 0.02319
 N252 N 0.80689 1.08308 0.01944
 C253 C 1.24657 0.85029 -0.01839
 N254 N 1.25210 0.82064 -0.06257
 N255 N 1.29798 0.79771 -0.07351
 C256 C 1.34000 0.80304 -0.04032
 N257 N 1.33403 0.83259 0.00408
 N258 N 1.28840 0.85611 0.01466
 C259 C 1.19656 0.87678 -0.00780
 N260 N 1.19475 0.92052 0.02280
 N261 N 1.14975 0.94705 0.02811
 C262 C 1.10495 0.93040 0.00353
 N263 N 1.10675 0.88569 -0.02541
 N264 N 1.15163 0.85951 -0.03128
 C265 C 0.74995 0.85084 0.01751
 N266 N 0.70871 0.85664 -0.01632
 N267 N 0.66318 0.83165 -0.00733
 C268 C 0.65675 0.80041 0.03611
 N269 N 0.69824 0.79493 0.06991
 N270 N 0.74395 0.81940 0.06062
 C271 C 0.80003 0.87877 0.00883
 N272 N 0.84384 0.86328 0.03530
 N273 N 0.88879 0.89003 0.03050
 C274 C 0.89188 0.93366 -0.00029
 N275 N 0.84822 0.94865 -0.02775
 N276 N 0.80308 0.92157 -0.02340
 C277 C 0.74831 0.51954 0.34945
 N278 N 0.78086 0.47953 0.33632
 N279 N 0.82613 0.48930 0.31102
 C280 C 0.84034 0.53927 0.29734
 N281 N 0.80694 0.57892 0.30977
 N282 N 0.76216 0.56929 0.33564
 C283 C 0.70043 0.51081 0.38093
 N284 N 0.68305 0.55012 0.41206
 N285 N 0.63876 0.54462 0.43954
 C286 C 0.60924 0.50016 0.43660
 N287 N 0.62715 0.46004 0.40622
 N288 N 0.67221 0.46517 0.37901
 C289 C 0.25220 0.48078 0.34585
 N290 N 0.20952 0.51109 0.35624
 N291 N 0.16386 0.50276 0.33111
 C292 C 0.15896 0.46360 0.29491
 N293 N 0.20181 0.43343 0.28455
 N294 N 0.24754 0.44194 0.30942
 C295 C 0.30210 0.48822 0.37484
 N296 N 0.34563 0.46089 0.36067
 N297 N 0.39018 0.46512 0.38846
 C298 C 0.39301 0.49637 0.43178
 N299 N 0.34969 0.52455 0.44536
 N300 N 0.30504 0.52058 0.41742
 C301 C 0.75040 0.47947 0.64843
 N302 N 0.77265 0.43105 0.64725
 N303 N 0.81690 0.42102 0.67402
 C304 C 0.84103 0.45924 0.70267
 N305 N 0.81871 0.50778 0.70394
 N306 N 0.77401 0.51765 0.67764
 C307 C 0.70222 0.48962 0.61737
 N308 N 0.66870 0.52960 0.62904
 N309 N 0.62344 0.53543 0.60221
 C310 C 0.61041 0.50177 0.56252
 N311 N 0.64508 0.46330 0.55004
 N312 N 0.68975 0.45708 0.57696
 C313 C 0.25160 0.52262 0.65203
 N314 N 0.24816 0.56073 0.68938
 N315 N 0.20255 0.57000 0.71393
 C316 C 0.15859 0.54133 0.70232
 N317 N 0.16222 0.50309 0.66504
 N318 N 0.20771 0.49408 0.64020
 C319 C 0.30168 0.51362 0.62392
 N320 N 0.30324 0.48355 0.57962
 N321 N 0.34811 0.47825 0.55253
 C322 C 0.39320 0.50255 0.56880
 N323 N 0.39172 0.53132 0.61393
 N324 N 0.34692 0.53697 0.64085
 C325 C 0.52120 0.64285 0.24647
 N326 N 0.57108 0.65003 0.22793
 N327 N 0.57985 0.67701 0.18356
 C328 C 0.53899 0.69763 0.15567
 N329 N 0.48898 0.69048 0.17427
 N330 N 0.48021 0.66381 0.21900
 C331 C 0.51283 0.61227 0.29519
 N332 N 0.46616 0.61282 0.32194
 N333 N 0.46084 0.58646 0.36751
 C334 C 0.50188 0.55839 0.38760
 N335 N 0.54775 0.55724 0.35997
 N336 N 0.55327 0.58366 0.31493
 C337 C 0.47752 0.65537 0.74460
 N338 N 0.50390 0.64136 0.78922
 N339 N 0.49408 0.66518 0.83497
 C340 C 0.45706 0.70351 0.83811
 N341 N 0.43046 0.71737 0.79343
 N342 N 0.44061 0.69383 0.74750
 C343 C 0.48721 0.62760 0.69474
 N344 N 0.46807 0.64635 0.64820
 N345 N 0.47432 0.61926 0.60364
 C346 C 0.49953 0.57228 0.60384
 N347 N 0.51933 0.55413 0.65034
 N348 N 0.51360 0.58134 0.69486
 C349 C 0.48258 0.34093 0.25729
 N350 N 0.44488 0.30291 0.25361
 N351 N 0.43584 0.27860 0.20777
 C352 C 0.46440 0.29117 0.16397
 N353 N 0.50238 0.32892 0.16797
 N354 N 0.51115 0.35348 0.21363
 C355 C 0.49050 0.36995 0.30685
 N356 N 0.51884 0.41538 0.30726
 N357 N 0.52304 0.44366 0.35136
 C358 C 0.49947 0.42747 0.39683
 N359 N 0.47214 0.38141 0.39653
 N360 N 0.46752 0.35326 0.35240
 C361 C 0.52360 0.35781 0.75318
 N362 N 0.57358 0.35209 0.77192
 N363 N 0.58277 0.32551 0.81638
 C364 C 0.54224 0.30388 0.84410
 N365 N 0.49212 0.30956 0.82529
 N366 N 0.48294 0.33585 0.78047
 C367 C 0.51482 0.38800 0.70450
 N368 N 0.46811 0.38636 0.67770
 N369 N 0.46240 0.41259 0.63213
 C370 C 0.50309 0.44155 0.61222
 N371 N 0.54905 0.44367 0.63983
 N372 N 0.55493 0.41741 0.68487
 C373 C 0.64542 0.75092 0.47352
 N374 N 0.65466 0.78419 0.51436
 N375 N 0.67919 0.82996 0.50603
 C376 C 0.69591 0.84412 0.45673
 N377 N 0.68707 0.81024 0.41619
 N378 N 0.66208 0.76480 0.42436
 C379 C 0.61635 0.70143 0.48117
 N380 N 0.59454 0.67733 0.43870
 N381 N 0.56832 0.63236 0.44439
 C382 C 0.56327 0.60903 0.49247
 N383 N 0.58481 0.63334 0.53528
 N384 N 0.61071 0.67890 0.52977
 C385 C 0.64524 0.25033 0.52700
 N386 N 0.65938 0.23484 0.57650
 N387 N 0.68408 0.18944 0.58441
 C388 C 0.69547 0.15747 0.54313
 N389 N 0.68134 0.17308 0.49350
 N390 N 0.65678 0.21868 0.48553
 C391 C 0.61707 0.30014 0.51943
 N392 N 0.60646 0.31979 0.47042
 N393 N 0.58073 0.36519 0.46484
 C394 C 0.56463 0.39243 0.50805
 N395 N 0.57503 0.37222 0.55667
 N396 N 0.60081 0.32724 0.56236
 C397 C 0.35229 0.74743 0.51715
 N398 N 0.35854 0.78898 0.48403
 N399 N 0.33469 0.83436 0.49417
 C400 C 0.30429 0.84037 0.53817
 N401 N 0.29855 0.79864 0.57140
 N402 N 0.32182 0.75304 0.56093
 C403 C 0.37879 0.69741 0.50693
 N404 N 0.36118 0.65307 0.53093
 N405 N 0.38699 0.60814 0.52516
 C406 C 0.43165 0.60560 0.49566
 N407 N 0.44879 0.64988 0.47075
 N408 N 0.42262 0.69494 0.47600
 C409 C 0.35064 0.25142 0.48507
 N410 N 0.36566 0.20680 0.51030
 N411 N 0.34136 0.16137 0.50015
 C412 C 0.30148 0.15861 0.46402
 N413 N 0.28663 0.20330 0.43868
 N414 N 0.31064 0.24883 0.44916
 C415 C 0.37826 0.30141 0.49475
 N416 N 0.35801 0.34676 0.47546
 N417 N 0.38442 0.39174 0.48076
 C418 C 0.43218 0.39340 0.50529
 N419 N 0.45209 0.34807 0.52546
 N420 N 0.42549 0.30293 0.52052
   
