data_POSCAR
  _audit_creation_date              2014-09-24
  _audit_creation_method            'ToBaCCo'
  _symmetry_space_group_name_H-M    'P1'
  _symmetry_Int_Tables_number       1
  _symmetry_cell_setting            triclinic
  loop_
  _symmetry_equiv_pos_as_xyz
 x,y,z
_cell_length_a 42.9736
_cell_length_b 42.9500
_cell_length_c 24.1489
_cell_angle_alpha 89.988300
_cell_angle_beta 90.006000
_cell_angle_gamma 120.007300
loop_
  _atom_site_label
  _atom_site_type_symbol
  _atom_site_fract_x
  _atom_site_fract_y
  _atom_site_fract_z
C1 C 0.55654 1.11338 0.47269
 C2 C 0.55500 1.11346 0.52938
 C3 C 0.53796 1.07776 0.54617
 N4 N 0.52907 1.05606 0.50145
 C5 C 0.54030 1.07766 0.45645
 C6 C 0.53236 1.06612 0.60198
 C7 C 0.51580 1.02964 0.61907
 C8 C 0.51579 1.01873 0.67323
 C9 C 0.49737 0.98186 0.67329
 C10 C 0.48644 0.97088 0.61917
 N11 N 0.49738 1.00024 0.58654
 C12 C 0.46652 0.93438 0.60220
 C13 C 0.46042 0.92267 0.54643
 C14 C 0.44173 0.88695 0.52976
 C15 C 0.44328 0.88697 0.47307
 C16 C 0.46275 0.92267 0.45670
 N17 N 0.47318 0.94432 0.50163
 C18 C 0.46973 0.93435 0.40101
 C19 C 0.48797 0.97076 0.38363
 C20 C 0.49061 0.98164 0.32887
 C21 C 0.50908 1.01854 0.32881
 C22 C 0.51737 1.02948 0.38353
 N23 N 0.50492 1.00014 0.41654
 C24 C 0.53558 1.06591 0.40079
 H25 H 0.56816 1.13698 0.44646
 H26 H 0.56553 1.13716 0.55530
 H27 H 0.50960 1.00016 0.45852
 H28 H 0.52809 1.03561 0.70909
 H29 H 0.49282 0.96503 0.70921
 H30 H 0.42858 0.86329 0.55577
 H31 H 0.43125 0.86333 0.44692
 H32 H 0.51518 1.03537 0.29247
 H33 H 0.49000 1.00022 0.54569
 H34 H 0.47985 0.96478 0.29258
 C35 C -0.11441 0.44268 0.47093
 C36 C -0.11441 0.44380 0.52763
 C37 C -0.07868 0.46197 0.54420
 N38 N -0.05703 0.47198 0.49927
 C39 C -0.07868 0.46031 0.45436
 C40 C -0.06696 0.46785 0.60001
 C41 C -0.03047 0.48512 0.61715
 C42 C -0.01944 0.48605 0.67152
 C43 C 0.01742 0.50448 0.67140
 C44 C 0.02823 0.51446 0.61701
 N45 N -0.00115 0.50305 0.58436
 C46 C 0.06463 0.53358 0.59979
 C47 C 0.07631 0.53936 0.54410
 C48 C 0.11202 0.55685 0.52762
 C49 C 0.11201 0.55571 0.47088
 C50 C 0.07630 0.53765 0.45441
 N51 N 0.05464 0.52772 0.49926
 C52 C 0.06461 0.53183 0.39873
 C53 C 0.02822 0.51469 0.38153
 C54 C 0.01741 0.51399 0.32718
 C55 C -0.01945 0.49563 0.32708
 C56 C -0.03049 0.48542 0.38142
 N57 N -0.00117 0.49669 0.41418
 C58 C -0.06697 0.46618 0.39854
 H59 H -0.13807 0.43048 0.44486
 H60 H -0.13807 0.43231 0.55371
 H61 H -0.00122 0.49013 0.45543
 H62 H -0.03622 0.47425 0.70763
 H63 H 0.03431 0.50952 0.70738
 H64 H 0.13567 0.56899 0.55371
 H65 H 0.13565 0.56711 0.44478
 H66 H -0.03623 0.49074 0.29099
 H67 H -0.00119 0.50944 0.54305
 H68 H 0.03431 0.52590 0.29122
 C69 C 0.55893 0.44568 0.52975
 C70 C 0.55737 0.44413 0.47305
 C71 C 0.53782 0.46026 0.45670
 N72 N 0.52736 0.47145 0.50163
 C73 C 0.54018 0.46262 0.54642
 C74 C 0.53079 0.46491 0.40100
 C75 C 0.51249 0.48301 0.38362
 C76 C 0.50974 0.49115 0.32885
 C77 C 0.49127 0.50955 0.32879
 C78 C 0.48309 0.51231 0.38353
 N79 N 0.49560 0.49548 0.41655
 C80 C 0.46492 0.53056 0.40080
 C81 C 0.46026 0.53763 0.45646
 C82 C 0.44409 0.55717 0.47270
 C83 C 0.44563 0.55879 0.52939
 C84 C 0.46261 0.54008 0.54618
 N85 N 0.47146 0.52724 0.50146
 C86 C 0.46818 0.53401 0.60199
 C87 C 0.48470 0.51407 0.61906
 C88 C 0.48464 0.50309 0.67319
 C89 C 0.50307 0.48467 0.67325
 C90 C 0.51408 0.48471 0.61915
 N91 N 0.50317 0.50316 0.58654
 C92 C 0.53404 0.46819 0.60219
 H93 H 0.57213 0.43522 0.55575
 H94 H 0.56943 0.43257 0.44690
 H95 H 0.51062 0.51059 0.54573
 H96 H 0.52044 0.48499 0.29255
 H97 H 0.48510 0.52021 0.29244
 H98 H 0.43250 0.56917 0.44647
 H99 H 0.43515 0.57199 0.55532
 H100 H 0.50758 0.47234 0.70915
 H101 H 0.49103 0.49093 0.45857
 H102 H 0.47230 0.50761 0.70904
 O103 O 0.38624 0.66830 -0.06405
 O104 O 0.38792 0.72910 -0.04719
 C105 C 0.36551 0.73429 -0.07406
 O106 O 0.33218 0.71814 -0.06383
 O107 O 0.27135 0.65895 -0.04749
 C108 C 0.26625 0.63144 -0.07455
 O109 O 0.28240 0.61424 -0.06439
 O110 O 0.34147 0.61248 -0.04769
 C111 C 0.36907 0.63498 -0.07447
 O112 O 0.38756 0.65838 0.04617
 O113 O 0.38626 0.71768 0.06301
 C114 C 0.36922 0.73395 0.07341
 O115 O 0.34176 0.72907 0.04646
 O116 O 0.28244 0.66838 0.06280
 C117 C 0.26611 0.63501 0.07287
 O118 O 0.27107 0.61252 0.04581
 O119 O 0.33165 0.61380 0.06254
 C120 C 0.36496 0.63084 0.07299
 Cr121 Cr 0.38497 0.69236 -0.00053
 Cr122 Cr 0.30794 0.69262 -0.00052
 Cr123 Cr 0.30767 0.61528 -0.00093
 O124 O 0.33353 0.66676 -0.00067
 O125 O 0.61261 0.34154 -0.04720
 O126 O 0.61428 0.28241 -0.06405
 C127 C 0.63144 0.26627 -0.07447
 O128 O 0.65905 0.27140 -0.04769
 O129 O 0.71811 0.33227 -0.06440
 C130 C 0.73422 0.36562 -0.07462
 O131 O 0.72916 0.38804 -0.04752
 O132 O 0.66834 0.38636 -0.06382
 C133 C 0.63502 0.36916 -0.07406
 O134 O 0.61426 0.33178 0.06301
 O135 O 0.61296 0.27117 0.04617
 C136 C 0.63556 0.26624 0.07299
 O137 O 0.66886 0.28253 0.06254
 O138 O 0.72944 0.34187 0.04584
 C139 C 0.73437 0.36931 0.07295
 O140 O 0.71808 0.38636 0.06280
 O141 O 0.65878 0.38770 0.04648
 C142 C 0.63131 0.36510 0.07342
 Cr143 Cr 0.61555 0.30774 -0.00053
 Cr144 Cr 0.69285 0.30802 -0.00092
 Cr145 Cr 0.69259 0.38510 -0.00052
 O146 O 0.66699 0.33362 -0.00067
 C147 C 0.42885 0.85930 -0.27842
 N148 N 0.40823 0.82394 -0.29110
 N149 N 0.39577 0.79921 -0.25114
 C150 C 0.40355 0.80911 -0.19732
 N151 N 0.42416 0.84447 -0.18466
 N152 N 0.43663 0.86920 -0.22461
 C153 C 0.44223 0.88596 -0.32134
 C154 C 0.45356 0.90854 -0.35720
 C155 C 0.39008 0.78255 -0.15422
 C156 C 0.37882 0.76041 -0.11775
 C157 C 0.14128 0.57066 -0.27880
 N158 N 0.17671 0.59010 -0.29163
 N159 N 0.20146 0.60211 -0.25173
 C160 C 0.19151 0.59503 -0.19782
 N161 N 0.15608 0.57559 -0.18502
 N162 N 0.13134 0.56359 -0.22490
 C163 C 0.11460 0.55775 -0.32165
 C164 C 0.09200 0.54682 -0.35742
 C165 C 0.21809 0.60797 -0.15478
 C166 C 0.24020 0.61875 -0.11831
 C167 C 0.43082 0.57179 -0.27881
 N168 N 0.41603 0.59235 -0.29155
 N169 N 0.40377 0.60483 -0.25162
 C170 C 0.40593 0.59710 -0.19778
 N171 N 0.42071 0.57654 -0.18507
 N172 N 0.43297 0.56407 -0.22498
 C173 C 0.44408 0.55838 -0.32169
 C174 C 0.45531 0.54702 -0.35749
 C175 C 0.39282 0.61056 -0.15471
 C176 C 0.38191 0.62176 -0.11823
 C177 C 0.56972 0.14129 -0.27882
 N178 N 0.56742 0.13141 -0.22498
 N179 N 0.57967 0.15614 -0.18506
 C180 C 0.59459 0.19151 -0.19778
 N181 N 0.59690 0.20141 -0.25164
 N182 N 0.58464 0.17667 -0.29157
 C183 C 0.55646 0.11462 -0.32171
 C184 C 0.54523 0.09201 -0.35751
 C185 C 0.60770 0.21808 -0.15471
 C186 C 0.61860 0.24020 -0.11823
 C187 C 0.85824 0.42942 -0.28028
 N188 N 0.82270 0.41236 -0.29274
 N189 N 0.79817 0.39974 -0.25253
 C190 C 0.80843 0.40380 -0.19867
 N191 N 0.84396 0.42085 -0.18623
 N192 N 0.86849 0.43347 -0.22642
 C193 C 0.88470 0.44303 -0.32345
 C194 C 0.90720 0.45458 -0.35940
 C195 C 0.78208 0.39024 -0.15530
 C196 C 0.76012 0.37895 -0.11860
 C197 C 0.57172 0.43082 -0.27842
 N198 N 0.59197 0.41569 -0.29114
 N199 N 0.60443 0.40343 -0.25117
 C200 C 0.59700 0.40593 -0.19731
 N201 N 0.57674 0.42106 -0.18461
 N202 N 0.56429 0.43332 -0.22457
 C203 C 0.55834 0.44409 -0.32135
 C204 C 0.54701 0.45532 -0.35721
 C205 C 0.61045 0.39284 -0.15421
 C206 C 0.62170 0.38196 -0.11774
 C207 C 0.85829 0.42987 0.27875
 N208 N 0.82282 0.40978 0.29099
 N209 N 0.79832 0.39784 0.25072
 C210 C 0.80856 0.40564 0.19702
 N211 N 0.84403 0.42573 0.18480
 N212 N 0.86852 0.43766 0.22506
 C213 C 0.88472 0.44270 0.32197
 C214 C 0.90719 0.45362 0.35795
 C215 C 0.78225 0.39277 0.15359
 C216 C 0.76031 0.38202 0.11688
 C217 C 0.57341 0.14218 0.27871
 N218 N 0.56689 0.13192 0.22488
 N219 N 0.57912 0.15644 0.18465
 C220 C 0.59826 0.19197 0.19702
 N221 N 0.60479 0.20225 0.25086
 N222 N 0.59255 0.17771 0.29111
 C223 C 0.56027 0.11572 0.32192
 C224 C 0.54912 0.09324 0.35790
 C225 C 0.61147 0.21832 0.15362
 C226 C 0.62250 0.24029 0.11691
 C227 C 0.56941 0.42719 0.27911
 N228 N 0.58625 0.40850 0.29158
 N229 N 0.59858 0.39629 0.25136
 C230 C 0.59443 0.40241 0.19749
 N231 N 0.57760 0.42111 0.18505
 N232 N 0.56528 0.43331 0.22524
 C233 C 0.55604 0.44029 0.32227
 C234 C 0.54466 0.45141 0.35819
 C235 C 0.60758 0.38921 0.15412
 C236 C 0.61849 0.37818 0.11740
 C237 C 0.14119 0.57121 0.27722
 N238 N 0.17663 0.58712 0.28998
 N239 N 0.20135 0.59978 0.25004
 C240 C 0.19136 0.59691 0.19615
 N241 N 0.15593 0.58100 0.18341
 N242 N 0.13122 0.56834 0.22334
 C243 C 0.11454 0.55751 0.32012
 C244 C 0.09197 0.54590 0.35592
 C245 C 0.21791 0.61046 0.15307
 C246 C 0.24002 0.62174 0.11659
 C247 C 0.43108 0.85798 0.27912
 N248 N 0.41543 0.82249 0.29150
 N249 N 0.40310 0.79794 0.25129
 C250 C 0.40606 0.80816 0.19750
 N251 N 0.42171 0.84364 0.18514
 N252 N 0.43403 0.86818 0.22534
 C253 C 0.44446 0.88446 0.32228
 C254 C 0.45585 0.90697 0.35820
 C255 C 0.39293 0.78180 0.15412
 C256 C 0.38203 0.75985 0.11740
 C257 C 0.42708 0.56895 0.27872
 N258 N 0.40816 0.58556 0.29113
 N259 N 0.39593 0.59785 0.25087
 C260 C 0.40224 0.59388 0.19703
 N261 N 0.42115 0.57727 0.18464
 N262 N 0.43338 0.56499 0.22488
 C263 C 0.44022 0.55565 0.32193
 C264 C 0.45138 0.54433 0.35791
 C265 C 0.38904 0.60701 0.15362
 C266 C 0.37801 0.61794 0.11691
   
