data_POSCAR
  _audit_creation_date              2014-09-24
  _audit_creation_method            'ToBaCCo'
  _symmetry_space_group_name_H-M    'P1'
  _symmetry_Int_Tables_number       1
  _symmetry_cell_setting            triclinic
  loop_
  _symmetry_equiv_pos_as_xyz
 x,y,z
_cell_length_a 35.9150
_cell_length_b 19.9350
_cell_length_c 14.8312
_cell_angle_alpha 89.993800
_cell_angle_beta 89.811900
_cell_angle_gamma 89.643200
loop_
  _atom_site_label
  _atom_site_type_symbol
  _atom_site_fract_x
  _atom_site_fract_y
  _atom_site_fract_z
C1 C 0.65487 0.30815 0.49623
 C2 C 0.67333 0.30090 0.57820
 C3 C 0.71034 0.27804 0.57860
 C4 C 0.72889 0.25992 0.49703
 C5 C 0.70894 0.26840 0.41506
 C6 C 0.67261 0.29396 0.41489
 C7 C 0.76871 0.23416 0.49734
 C8 C 0.78904 0.22458 0.41560
 C9 C 0.82570 0.20013 0.41648
 C10 C 0.84317 0.18861 0.49864
 C11 C 0.82411 0.19587 0.57969
 C12 C 0.78698 0.21744 0.57945
 H13 H 0.62657 0.32753 0.49536
 H14 H 0.72416 0.27621 0.64284
 H15 H 0.72081 0.25636 0.35037
 H16 H 0.77720 0.23507 0.35057
 H17 H 0.87170 0.17033 0.49949
 H18 H 0.77300 0.21931 0.64372
 C19 C 0.15610 0.81126 0.50509
 C20 C 0.17350 0.79807 0.58713
 C21 C 0.21000 0.77280 0.58746
 C22 C 0.23025 0.76371 0.50565
 C23 C 0.21199 0.78125 0.42382
 C24 C 0.17501 0.80366 0.42375
 C25 C 0.27004 0.73775 0.50551
 C26 C 0.28842 0.72073 0.42339
 C27 C 0.32547 0.69885 0.42296
 C28 C 0.34439 0.69156 0.50386
 C29 C 0.32683 0.70340 0.58614
 C30 C 0.29019 0.72810 0.58721
 H31 H 0.12771 0.83025 0.50456
 H32 H 0.22186 0.76130 0.65217
 H33 H 0.22588 0.77929 0.35946
 H34 H 0.27458 0.72249 0.35917
 H35 H 0.37286 0.67299 0.50280
 H36 H 0.27819 0.73864 0.65227
 C37 C 0.32376 0.36900 -0.50095
 C38 C 0.31129 0.34230 -0.58194
 C39 C 0.28203 0.29631 -0.58140
 C40 C 0.26464 0.27651 -0.49922
 C41 C 0.28055 0.30042 -0.41758
 C42 C 0.31041 0.34522 -0.41887
 C43 C 0.23144 0.22977 -0.49897
 C44 C 0.21524 0.20632 -0.41716
 C45 C 0.18452 0.16315 -0.41775
 C46 C 0.17064 0.14064 -0.50021
 C47 C 0.18427 0.16573 -0.58150
 C48 C 0.21423 0.21014 -0.58094
 H49 H 0.34678 0.40400 -0.50160
 H50 H 0.27428 0.27563 -0.64559
 H51 H 0.27106 0.28429 -0.35229
 H52 H 0.22532 0.22170 -0.35225
 H53 H 0.14702 0.10697 -0.50115
 H54 H 0.22273 0.22983 -0.64524
 C55 C -0.17404 0.86600 -0.49946
 C56 C -0.18681 0.84179 -0.58188
 C57 C -0.21655 0.79656 -0.58310
 C58 C -0.23272 0.77265 -0.50151
 C59 C -0.21574 0.79270 -0.41926
 C60 C -0.18670 0.83910 -0.41854
 C61 C -0.26587 0.72578 -0.50190
 C62 C -0.28330 0.70587 -0.41999
 C63 C -0.31341 0.66172 -0.41973
 C64 C -0.32683 0.63697 -0.50115
 C65 C -0.31258 0.65952 -0.58320
 C66 C -0.28191 0.70262 -0.58379
 H67 H -0.15128 0.90156 -0.49830
 H68 H -0.22586 0.78004 -0.64820
 H69 H -0.22369 0.77203 -0.35508
 H70 H -0.27493 0.72522 -0.35555
 H71 H -0.35059 0.60366 -0.50078
 H72 H -0.27192 0.71821 -0.64886
 O73 O -0.05524 0.89664 0.17344
 O74 O -0.09531 0.95666 0.08339
 C75 C -0.08826 0.91691 0.15046
 O76 O 0.05569 1.11440 0.15909
 O77 O 0.09555 1.04767 0.07652
 C78 C 0.08859 1.09208 0.13845
 O79 O -0.04741 1.12329 0.16434
 O80 O -0.09129 1.06628 0.08267
 C81 C -0.08148 1.10786 0.14544
 O82 O 0.04778 0.87586 0.16372
 O83 O 0.09166 0.93339 0.08198
 C84 C 0.08191 0.89123 0.14426
 Zr85 Zr -0.00287 0.91554 0.11420
 O86 O -0.00128 0.90408 0.25576
 O87 O -0.01068 0.81064 0.10236
 Zr88 Zr 0.00296 1.08550 0.11119
 O89 O 0.00598 1.09187 0.25343
 O90 O 0.00300 1.19148 0.10041
 O91 O -0.03267 1.00476 0.13138
 O92 O 0.03193 0.99693 0.12994
 O93 O 0.04761 0.87118 -0.15651
 O94 O 0.09154 0.92926 -0.07633
 C95 C 0.08172 0.88613 -0.13720
 O96 O -0.04748 1.11927 -0.16707
 O97 O -0.09134 1.06454 -0.08185
 C98 C -0.08157 1.10449 -0.14659
 O99 O 0.05595 1.11053 -0.16322
 O100 O 0.09565 1.04390 -0.08071
 C101 C 0.08883 1.08793 -0.14313
 O102 O -0.05508 0.89316 -0.16769
 O103 O -0.09522 0.95510 -0.07958
 C104 C -0.08810 0.91408 -0.14540
 Zr105 Zr -0.00286 0.91321 -0.10942
 O106 O -0.00026 0.89977 -0.25060
 O107 O -0.01116 0.80863 -0.09476
 Zr108 Zr 0.00306 1.08314 -0.11317
 O109 O 0.00635 1.08734 -0.25558
 O110 O 0.00310 1.18928 -0.10589
 Zr111 Zr -0.05600 1.00622 0.00097
 Zr112 Zr 0.05625 0.99283 0.00042
 O113 O 0.03201 0.99402 -0.12889
 O114 O -0.03259 1.00206 -0.12967
 O115 O 0.03081 0.89745 0.00254
 O116 O -0.02972 1.10023 -0.00109
 O117 O -0.03659 0.90641 0.00277
 O118 O 0.03740 1.09330 -0.00142
 H119 H 0.04756 0.99599 0.18481
 H120 H -0.04564 1.14102 -0.00175
 H121 H 0.04769 0.99122 -0.18384
 H122 H -0.05553 0.87045 0.00351
 H123 H 0.02739 1.20505 0.07540
 H124 H 0.02780 1.20336 -0.08363
 H125 H -0.01230 1.05577 -0.27957
 H126 H -0.00353 0.94465 -0.27772
 H127 H 0.01265 0.78834 -0.07483
 H128 H 0.01364 0.79010 0.08657
 H129 H 0.00061 0.94964 0.28138
 H130 H -0.01249 1.06019 0.27831
 O131 O 0.44411 0.39382 0.16723
 O132 O 0.40447 0.45694 0.07992
 C133 C 0.41126 0.41556 0.14541
 O134 O 0.55679 0.60867 0.16205
 O135 O 0.59597 0.54154 0.07829
 C136 C 0.58950 0.58554 0.14100
 O137 O 0.45342 0.61966 0.16781
 O138 O 0.40919 0.56622 0.08297
 C139 C 0.41924 0.60573 0.14778
 O140 O 0.54662 0.36951 0.15472
 O141 O 0.59096 0.42679 0.07413
 C142 C 0.58083 0.38380 0.13506
 Zr143 Zr 0.49649 0.41259 0.10811
 O144 O 0.49851 0.39798 0.24911
 O145 O 0.48753 0.30830 0.09218
 Zr146 Zr 0.50368 0.58250 0.11294
 O147 O 0.50688 0.58569 0.25535
 O148 O 0.50445 0.68866 0.10673
 O149 O 0.46745 0.50214 0.12941
 O150 O 0.53194 0.49263 0.12773
 O151 O 0.54696 0.37502 -0.16554
 O152 O 0.59120 0.43117 -0.08389
 C153 C 0.58119 0.38944 -0.14628
 O154 O 0.45351 0.62468 -0.16374
 O155 O 0.40924 0.56852 -0.08155
 C156 C 0.41932 0.61000 -0.14432
 O157 O 0.55674 0.61301 -0.16002
 O158 O 0.59597 0.54380 -0.07992
 C159 C 0.58943 0.58921 -0.14067
 O160 O 0.44400 0.39830 -0.17382
 O161 O 0.40441 0.45901 -0.08274
 C162 C 0.41114 0.41925 -0.15007
 Zr163 Zr 0.49653 0.41580 -0.11533
 O164 O 0.49830 0.40492 -0.25698
 O165 O 0.48792 0.31107 -0.10427
 Zr166 Zr 0.50364 0.58564 -0.11148
 O167 O 0.50682 0.59287 -0.25367
 O168 O 0.50449 0.69154 -0.09979
 Zr169 Zr 0.44409 0.50739 -0.00081
 Zr170 Zr 0.55616 0.49139 -0.00189
 O171 O 0.53189 0.49639 -0.13109
 O172 O 0.46742 0.50581 -0.13160
 O173 O 0.53009 0.39657 -0.00431
 O174 O 0.47106 0.60075 0.00140
 O175 O 0.46271 0.40710 -0.00353
 O176 O 0.53811 0.59230 0.00069
 H177 H 0.54767 0.48945 0.18231
 H178 H 0.45543 0.64190 0.00253
 H179 H 0.54743 0.49505 -0.18635
 H180 H 0.44351 0.37160 -0.00418
 H181 H 0.52908 0.70226 0.08310
 H182 H 0.52916 0.70443 -0.07611
 H183 H 0.48817 0.56175 -0.27870
 H184 H 0.49896 0.45070 -0.28233
 H185 H 0.51203 0.28988 -0.08855
 H186 H 0.51137 0.28752 0.07301
 H187 H 0.49872 0.44307 0.27665
 H188 H 0.48809 0.55415 0.27912
 C189 C 0.38134 0.41963 0.30401
 C190 C 0.33884 0.43115 0.30145
 C191 C 0.33321 0.35882 0.33450
 C192 C 0.37564 0.34712 0.33662
 C193 C 0.33162 0.33336 0.23647
 C194 C 0.33787 0.40638 0.20240
 C195 C 0.38024 0.39454 0.20605
 C196 C 0.37444 0.32204 0.23837
 H197 H 0.40190 0.45548 0.33172
 H198 H 0.32308 0.47494 0.32786
 H199 H 0.39131 0.32260 0.39215
 H200 H 0.31093 0.29771 0.20901
 H201 H 0.32269 0.43106 0.14627
 H202 H 0.38933 0.27723 0.21178
 C203 C -0.16166 0.90744 0.20788
 C204 C -0.16780 0.83410 0.24089
 C205 C -0.16605 0.85882 0.33927
 C206 C -0.16059 0.93144 0.30734
 C207 C -0.12358 0.84716 0.34079
 C208 C -0.12496 0.82293 0.24221
 C209 C -0.11925 0.89570 0.21103
 C210 C -0.11804 0.92002 0.30931
 H211 H -0.17692 0.93255 0.15223
 H212 H -0.18842 0.79864 0.21268
 H213 H -0.17652 0.97482 0.33433
 H214 H -0.10767 0.82219 0.39558
 H215 H -0.11005 0.77841 0.21481
 H216 H -0.09747 0.95570 0.33737
 C217 C 0.62748 0.67929 0.23146
 C218 C 0.62419 0.65691 0.33068
 C219 C 0.66631 0.64189 0.33249
 C220 C 0.67000 0.66461 0.23346
 C221 C 0.65944 0.56927 0.30225
 C222 C 0.61725 0.58414 0.30087
 C223 C 0.62042 0.60657 0.20181
 C224 C 0.66251 0.59127 0.20221
 H225 H 0.61415 0.72452 0.20175
 H226 H 0.60823 0.68395 0.38382
 H227 H 0.69194 0.69787 0.20594
 H228 H 0.67364 0.52505 0.33196
 H229 H 0.59546 0.55065 0.32876
 H230 H 0.67798 0.56404 0.14848
 C231 C 0.12469 1.18626 0.23260
 C232 C 0.12123 1.16176 0.33091
 C233 C 0.16351 1.14886 0.33352
 C234 C 0.16740 1.17369 0.23544
 C235 C 0.15802 1.07652 0.30046
 C236 C 0.11567 1.08929 0.29820
 C237 C 0.11902 1.11383 0.20002
 C238 C 0.16129 1.10063 0.20136
 H239 H 0.11084 1.23138 0.20399
 H240 H 0.10461 1.18684 0.38457
 H241 H 0.18891 1.20862 0.20975
 H242 H 0.17262 1.03226 0.32897
 H243 H 0.09431 1.05409 0.32416
 H244 H 0.17749 1.07534 0.14717
 C245 C 0.59975 0.36218 -0.31034
 C246 C 0.63805 0.39188 -0.33306
 C247 C 0.65380 0.32023 -0.34189
 C248 C 0.61550 0.29042 -0.31890
 C249 C 0.66466 0.32000 -0.24135
 C250 C 0.64836 0.39223 -0.23191
 C251 C 0.61004 0.36225 -0.20954
 C252 C 0.62573 0.29056 -0.21758
 H253 H 0.57300 0.37982 -0.33959
 H254 H 0.64260 0.43284 -0.38241
 H255 H 0.60190 0.24853 -0.35520
 H256 H 0.69157 0.30248 -0.21296
 H257 H 0.66167 0.43427 -0.19532
 H258 H 0.62049 0.24917 -0.16923
 C259 C 0.10072 0.86065 -0.30046
 C260 C 0.13974 0.88790 -0.32091
 C261 C 0.15383 0.81533 -0.33240
 C262 C 0.11480 0.78800 -0.31164
 C263 C 0.16429 0.81220 -0.23168
 C264 C 0.14963 0.88536 -0.21969
 C265 C 0.11056 0.85785 -0.19943
 C266 C 0.12457 0.78520 -0.21003
 H267 H 0.07458 0.88109 -0.32972
 H268 H 0.14532 0.92926 -0.36887
 H269 H 0.10043 0.74801 -0.34998
 H270 H 0.19063 0.79195 -0.20342
 H271 H 0.16374 0.92569 -0.18143
 H272 H 0.11820 0.74325 -0.16338
 C273 C 0.39992 0.63874 -0.30669
 C274 C 0.36083 0.61185 -0.32672
 C275 C 0.34657 0.68464 -0.33446
 C276 C 0.38568 0.71158 -0.31405
 C277 C 0.33652 0.68522 -0.23331
 C278 C 0.35133 0.61190 -0.22509
 C279 C 0.39047 0.63900 -0.20537
 C280 C 0.37629 0.71181 -0.21206
 H281 H 0.42598 0.61918 -0.33777
 H282 H 0.35513 0.57160 -0.37626
 H283 H 0.39983 0.75263 -0.35107
 H284 H 0.31025 0.70470 -0.20331
 H285 H 0.33746 0.57065 -0.18790
 H286 H 0.38286 0.75258 -0.16382
 C287 C -0.10104 1.13384 -0.30910
 C288 C -0.13931 1.10398 -0.33068
 C289 C -0.15549 1.17550 -0.33645
 C290 C -0.11720 1.20542 -0.31443
 C291 C -0.16575 1.17368 -0.23550
 C292 C -0.14906 1.10159 -0.22918
 C293 C -0.11076 1.13173 -0.20799
 C294 C -0.12684 1.20329 -0.21274
 H295 H -0.07440 1.11715 -0.34025
 H296 H -0.14398 1.06406 -0.38140
 H297 H -0.10411 1.24825 -0.35006
 H298 H -0.19266 1.19039 -0.20584
 H299 H -0.16192 1.05882 -0.19302
 H300 H -0.12147 1.24383 -0.16326
 C301 C 0.66225 0.59614 -0.20345
 C302 C 0.65915 0.57266 -0.30279
 C303 C 0.66539 0.64501 -0.33507
 C304 C 0.66911 0.66919 -0.23675
 C305 C 0.62320 0.65906 -0.33264
 C306 C 0.61689 0.58658 -0.30069
 C307 C 0.62009 0.61048 -0.20229
 C308 C 0.62649 0.68293 -0.23407
 H309 H 0.67801 0.57010 -0.14940
 H310 H 0.67349 0.52817 -0.33165
 H311 H 0.69082 0.70338 -0.21059
 H312 H 0.60701 0.68490 -0.38617
 H313 H 0.59531 0.55213 -0.32707
 H314 H 0.61290 0.72824 -0.20509
 C315 C 0.12599 1.18248 -0.23470
 C316 C 0.16859 1.16856 -0.23858
 C317 C 0.16451 1.14596 -0.33755
 C318 C 0.12233 1.16030 -0.33390
 C319 C 0.15822 1.07314 -0.30729
 C320 C 0.16163 1.09501 -0.20728
 C321 C 0.11947 1.10956 -0.20497
 C322 C 0.11596 1.08730 -0.30401
 H323 H 0.11257 1.22741 -0.20422
 H324 H 0.19038 1.20215 -0.21140
 H325 H 0.10591 1.18716 -0.38613
 H326 H 0.17257 1.02928 -0.33772
 H327 H 0.17750 1.06795 -0.15432
 H328 H 0.09423 1.05346 -0.33106
 C329 C 0.38083 0.42303 -0.30802
 C330 C 0.37467 0.35034 -0.33923
 C331 C 0.33228 0.36277 -0.33599
 C332 C 0.33837 0.43525 -0.30428
 C333 C 0.33086 0.33809 -0.23756
 C334 C 0.37360 0.32606 -0.24065
 C335 C 0.37989 0.39870 -0.20973
 C336 C 0.33757 0.41127 -0.20481
 H337 H 0.40150 0.45828 -0.33696
 H338 H 0.39012 0.32506 -0.39475
 H339 H 0.32260 0.47892 -0.33071
 H340 H 0.31005 0.30303 -0.20892
 H341 H 0.38837 0.28125 -0.21391
 H342 H 0.32270 0.43666 -0.14854
 C343 C -0.16135 0.90319 -0.20233
 C344 C -0.16030 0.92834 -0.30124
 C345 C -0.16521 0.85598 -0.33476
 C346 C -0.16688 0.83013 -0.23689
 C347 C -0.12268 0.84546 -0.33684
 C348 C -0.11770 0.91800 -0.30377
 C349 C -0.11887 0.89252 -0.20595
 C350 C -0.12397 0.81999 -0.23876
 H351 H -0.17691 0.92724 -0.14608
 H352 H -0.17638 0.97175 -0.32737
 H353 H -0.18734 0.79380 -0.20969
 H354 H -0.10663 0.82157 -0.39246
 H355 H -0.09737 0.95452 -0.33124
 H356 H -0.10879 0.77548 -0.21243
 C357 C 0.39995 0.63500 0.31075
 C358 C 0.38440 0.70700 0.31662
 C359 C 0.34584 0.67807 0.33895
 C360 C 0.36141 0.60614 0.33267
 C361 C 0.33562 0.67682 0.23814
 C362 C 0.37479 0.70544 0.21505
 C363 C 0.39026 0.63347 0.20975
 C364 C 0.35170 0.60432 0.23126
 H365 H 0.42644 0.61748 0.34145
 H366 H 0.39782 0.74936 0.35231
 H367 H 0.35634 0.56619 0.38321
 H368 H 0.30888 0.69436 0.20886
 H369 H 0.38055 0.74595 0.16569
 H370 H 0.33850 0.56203 0.19501
 C371 C -0.10092 1.13632 0.30817
 C372 C -0.11550 1.20894 0.31560
 C373 C -0.15445 1.18144 0.33690
 C374 C -0.13986 1.10886 0.32912
 C375 C -0.16460 1.18168 0.23596
 C376 C -0.12498 1.20886 0.21381
 C377 C -0.11047 1.13625 0.20704
 C378 C -0.14945 1.10857 0.22768
 H379 H -0.07475 1.11719 0.33876
 H380 H -0.10152 1.25027 0.35220
 H381 H -0.14531 1.06866 0.37901
 H382 H -0.19097 1.20070 0.20640
 H383 H -0.11865 1.24965 0.16529
 H384 H -0.16315 1.06704 0.19091
 C385 C 0.64869 0.38163 0.21663
 C386 C 0.63877 0.38472 0.31794
 C387 C 0.65230 0.31187 0.32975
 C388 C 0.66274 0.30817 0.22892
 C389 C 0.61306 0.28555 0.30965
 C390 C 0.59955 0.35847 0.29822
 C391 C 0.60942 0.35506 0.19707
 C392 C 0.62284 0.28211 0.20797
 H393 H 0.66314 0.42146 0.17794
 H394 H 0.64474 0.42608 0.36555
 H395 H 0.68899 0.28708 0.20088
 H396 H 0.59840 0.24608 0.34856
 H397 H 0.57357 0.37968 0.32769
 H398 H 0.61615 0.24016 0.16168
 C399 C 0.14898 0.89528 0.22922
 C400 C 0.13857 0.89472 0.33044
 C401 C 0.15469 0.82337 0.33921
 C402 C 0.16562 0.82333 0.23857
 C403 C 0.11657 0.79299 0.31660
 C404 C 0.10045 0.86444 0.30815
 C405 C 0.11085 0.86465 0.20724
 C406 C 0.12689 0.79323 0.21521
 H407 H 0.16211 0.93755 0.19252
 H408 H 0.14291 0.93567 0.37984
 H409 H 0.19271 0.80618 0.21037
 H410 H 0.10321 0.75089 0.35319
 H411 H 0.07359 0.88166 0.33768
 H412 H 0.12191 0.75172 0.16695
   
