data_POSCAR
  _audit_creation_date              2014-09-24
  _audit_creation_method            'ToBaCCo'
  _symmetry_space_group_name_H-M    'P1'
  _symmetry_Int_Tables_number       1
  _symmetry_cell_setting            triclinic
  loop_
  _symmetry_equiv_pos_as_xyz
 x,y,z
_cell_length_a 62.0285
_cell_length_b 62.0605
_cell_length_c 18.7096
_cell_angle_alpha 89.925200
_cell_angle_beta 90.105700
_cell_angle_gamma 120.030500
loop_
  _atom_site_label
  _atom_site_type_symbol
  _atom_site_fract_x
  _atom_site_fract_y
  _atom_site_fract_z
C1 C 0.24807 0.49599 0.53075
 C2 C 0.24795 0.49624 0.45785
 C3 C 0.22681 0.49484 0.41650
 C4 C 0.26898 0.49782 0.41580
 C5 C 0.26804 0.49484 0.57166
 C6 C 0.22836 0.49695 0.57318
 C7 C 0.20231 0.47536 0.42766
 C8 C 0.18255 0.47454 0.38925
 C9 C 0.18711 0.49305 0.33870
 C10 C 0.21157 0.51223 0.32637
 C11 C 0.23130 0.51305 0.36484
 C12 C 0.26447 0.47949 0.36466
 C13 C 0.28422 0.48020 0.32688
 C14 C 0.30865 0.49934 0.33943
 C15 C 0.31322 0.51803 0.38904
 C16 C 0.29347 0.51737 0.42679
 C17 C 0.28190 0.51322 0.62275
 C18 C 0.30134 0.51287 0.65967
 C19 C 0.30698 0.49404 0.64633
 C20 C 0.29284 0.47532 0.59669
 C21 C 0.27338 0.47563 0.55979
 C22 C 0.22285 0.51612 0.56278
 C23 C 0.20381 0.51642 0.60187
 C24 C 0.19030 0.49774 0.65220
 C25 C 0.19608 0.47891 0.66390
 C26 C 0.21508 0.47857 0.62481
 H27 H 0.19852 0.46087 0.46626
 H28 H 0.16376 0.45950 0.39928
 H29 H 0.21546 0.52668 0.28739
 H30 H 0.25007 0.52812 0.35515
 H31 H 0.24571 0.46436 0.35518
 H32 H 0.28048 0.46567 0.28851
 H33 H 0.29727 0.53192 0.46510
 H34 H 0.27798 0.52809 0.63293
 H35 H 0.31211 0.52741 0.69811
 H36 H 0.29696 0.46060 0.58620
 H37 H 0.26261 0.46104 0.52154
 H38 H 0.23320 0.53073 0.52420
 H39 H 0.19957 0.53114 0.59262
 H40 H 0.18577 0.46440 0.70281
 H41 H 0.21915 0.46374 0.63390
 H42 H 0.33204 0.53299 0.39893
 C43 C 0.50443 -0.24851 0.53711
 C44 C 0.50415 -0.24857 0.46420
 C45 C 0.50260 -0.26967 0.42249
 C46 C 0.50554 -0.22754 0.42248
 C47 C 0.50339 -0.22874 0.57915
 C48 C 0.50573 -0.26831 0.57832
 C49 C 0.52083 -0.26520 0.37105
 C50 C 0.52006 -0.28496 0.33316
 C51 C 0.50094 -0.30938 0.34588
 C52 C 0.48237 -0.31392 0.39592
 C53 C 0.48311 -0.29415 0.43379
 C54 C 0.52505 -0.20304 0.43336
 C55 C 0.52584 -0.18339 0.39457
 C56 C 0.50731 -0.18806 0.34406
 C57 C 0.48813 -0.21249 0.33196
 C58 C 0.48730 -0.23214 0.37075
 C59 C 0.48420 -0.22328 0.56824
 C60 C 0.48384 -0.20419 0.60686
 C61 C 0.50248 -0.19055 0.65726
 C62 C 0.52133 -0.19629 0.66950
 C63 C 0.52173 -0.21535 0.63087
 C64 C 0.48731 -0.28226 0.62914
 C65 C 0.48767 -0.30172 0.66579
 C66 C 0.50658 -0.30727 0.65243
 C67 C 0.52538 -0.29298 0.60316
 C68 C 0.52504 -0.27350 0.56657
 H69 H 0.53592 -0.24645 0.36130
 H70 H 0.53449 -0.28124 0.29446
 H71 H 0.46743 -0.33272 0.40595
 H72 H 0.46862 -0.29793 0.47230
 H73 H 0.53956 -0.19917 0.47201
 H74 H 0.54083 -0.16456 0.40414
 H75 H 0.47221 -0.25092 0.36128
 H76 H 0.46962 -0.23371 0.52960
 H77 H 0.46910 -0.19999 0.59719
 H78 H 0.53581 -0.18589 0.70847
 H79 H 0.53658 -0.21937 0.64037
 H80 H 0.47235 -0.27843 0.63917
 H81 H 0.47304 -0.31257 0.70390
 H82 H 0.54020 -0.29698 0.59254
 H83 H 0.53966 -0.26265 0.52849
 H84 H 0.47373 -0.21631 0.29293
 C85 C 1.24649 0.75364 0.53896
 C86 C 1.24688 0.75378 0.46606
 C87 C 1.26799 0.77368 0.42512
 C88 C 1.22620 0.73402 0.42353
 C89 C 1.22650 0.73266 0.58003
 C90 C 1.26610 0.77443 0.58150
 C91 C 1.26340 0.78726 0.37322
 C92 C 1.28309 0.80634 0.33524
 C93 C 1.30761 0.81194 0.34832
 C94 C 1.31228 0.79813 0.39907
 C95 C 1.29256 0.77901 0.43701
 C96 C 1.20152 0.72862 0.43309
 C97 C 1.18219 0.70947 0.39409
 C98 C 1.18737 0.69574 0.34468
 C99 C 1.21199 0.70144 0.33375
 C100 C 1.23132 0.72055 0.37275
 C101 C 1.22130 0.70809 0.56957
 C102 C 1.20222 0.68852 0.60806
 C103 C 1.18833 0.69335 0.65791
 C104 C 1.19376 0.71787 0.66946
 C105 C 1.21280 0.73741 0.63094
 C106 C 1.27935 0.76945 0.63358
 C107 C 1.29819 0.78885 0.67304
 C108 C 1.30385 0.81343 0.66127
 C109 C 1.29035 0.81847 0.61038
 C110 C 1.27147 0.79905 0.57094
 H111 H 1.24457 0.78332 0.36298
 H112 H 1.27918 0.81681 0.29604
 H113 H 1.33113 0.80216 0.40953
 H114 H 1.29645 0.76843 0.47583
 H115 H 1.19724 0.73911 0.47103
 H116 H 1.16321 0.70528 0.40274
 H117 H 1.25025 0.72454 0.36433
 H118 H 1.23198 0.70409 0.53156
 H119 H 1.19832 0.66966 0.59879
 H120 H 1.18321 0.72190 0.70794
 H121 H 1.21664 0.75624 0.64008
 H122 H 1.27536 0.75057 0.64277
 H123 H 1.30845 0.78466 0.71229
 H124 H 1.29446 0.83739 0.60089
 H125 H 1.26113 0.80321 0.53198
 H126 H 1.21622 0.69097 0.29557
 C127 C 0.75256 0.50405 0.53875
 C128 C 0.75243 0.50366 0.46585
 C129 C 0.77198 0.50196 0.42463
 C130 C 0.73284 0.50506 0.42371
 C131 C 0.73179 0.50323 0.58039
 C132 C 0.77354 0.50528 0.58047
 C133 C 0.78588 0.52011 0.37303
 C134 C 0.80495 0.51925 0.33579
 C135 C 0.81018 0.50014 0.34932
 C136 C 0.79600 0.48165 0.39947
 C137 C 0.77690 0.48247 0.43670
 C138 C 0.72793 0.52463 0.43396
 C139 C 0.70905 0.52537 0.39508
 C140 C 0.69508 0.50672 0.34509
 C141 C 0.70026 0.48749 0.33353
 C142 C 0.71911 0.48671 0.37242
 C143 C 0.70708 0.48409 0.56976
 C144 C 0.68767 0.48384 0.60831
 C145 C 0.69278 0.50258 0.65842
 C146 C 0.71742 0.52141 0.67028
 C147 C 0.73682 0.52167 0.63168
 C148 C 0.76886 0.48698 0.63198
 C149 C 0.78854 0.48737 0.66961
 C150 C 0.81308 0.50620 0.65653
 C151 C 0.81782 0.52486 0.60646
 C152 C 0.79813 0.52449 0.56889
 H153 H 0.78228 0.53520 0.36270
 H154 H 0.81576 0.53362 0.29699
 H155 H 0.79982 0.46672 0.41012
 H156 H 0.76609 0.46804 0.47534
 H157 H 0.73864 0.53922 0.47227
 H158 H 0.70526 0.54040 0.40422
 H159 H 0.72273 0.47157 0.36344
 H160 H 0.70286 0.46942 0.53145
 H161 H 0.66871 0.46909 0.59880
 H162 H 0.72167 0.53599 0.70896
 H163 H 0.75575 0.53648 0.64096
 H164 H 0.75001 0.47211 0.64191
 H165 H 0.78459 0.47285 0.70831
 H166 H 0.83670 0.53961 0.59603
 H167 H 0.80206 0.53902 0.53030
 H168 H 0.68960 0.47299 0.29489
 C169 C 0.49585 0.24758 0.53924
 C170 C 0.49627 0.24784 0.46635
 C171 C 0.49489 0.26748 0.42445
 C172 C 0.49799 0.22836 0.42490
 C173 C 0.49458 0.22652 0.58064
 C174 C 0.49675 0.26832 0.58118
 C175 C 0.47535 0.27245 0.43494
 C176 C 0.47457 0.29130 0.39603
 C177 C 0.49314 0.30518 0.34577
 C178 C 0.51235 0.29997 0.33406
 C179 C 0.51317 0.28115 0.37296
 C180 C 0.47979 0.21444 0.37340
 C181 C 0.48062 0.19536 0.33622
 C182 C 0.49976 0.19015 0.34971
 C183 C 0.51833 0.20438 0.39968
 C184 C 0.51754 0.22350 0.43685
 C185 C 0.51284 0.23110 0.63227
 C186 C 0.51239 0.21136 0.66963
 C187 C 0.49355 0.18685 0.65619
 C188 C 0.47493 0.18222 0.60598
 C189 C 0.47536 0.20196 0.56867
 C190 C 0.51597 0.29299 0.57078
 C191 C 0.51627 0.31239 0.60948
 C192 C 0.49751 0.30730 0.65950
 C193 C 0.47863 0.28268 0.67118
 C194 C 0.47831 0.26329 0.63243
 H195 H 0.46080 0.26179 0.47337
 H196 H 0.45956 0.29510 0.40530
 H197 H 0.52678 0.31056 0.29522
 H198 H 0.52828 0.27750 0.36377
 H199 H 0.46467 0.21801 0.36319
 H200 H 0.46620 0.18449 0.29754
 H201 H 0.53199 0.23433 0.47545
 H202 H 0.52772 0.24991 0.64251
 H203 H 0.52688 0.21524 0.70845
 H204 H 0.46017 0.16337 0.59526
 H205 H 0.46085 0.19811 0.53000
 H206 H 0.53063 0.29719 0.53249
 H207 H 0.53106 0.33133 0.60012
 H208 H 0.46403 0.27846 0.70980
 H209 H 0.46344 0.24438 0.64152
 H210 H 0.53328 0.20058 0.41030
 C211 C 0.75116 0.24937 0.53801
 C212 C 0.75112 0.24920 0.46510
 C213 C 0.73015 0.22933 0.42363
 C214 C 0.77213 0.26880 0.42327
 C215 C 0.77089 0.27050 0.57933
 C216 C 0.73155 0.22834 0.57980
 C217 C 0.73486 0.21558 0.37277
 C218 C 0.71521 0.19627 0.33517
 C219 C 0.69069 0.19065 0.34758
 C220 C 0.68591 0.20467 0.39701
 C221 C 0.70555 0.22401 0.43460
 C222 C 0.79666 0.27393 0.43461
 C223 C 0.81636 0.29303 0.39668
 C224 C 0.81171 0.30699 0.34656
 C225 C 0.78725 0.30156 0.33377
 C226 C 0.76753 0.28248 0.37172
 C227 C 0.77608 0.29501 0.56733
 C228 C 0.79551 0.31486 0.60405
 C229 C 0.80976 0.31039 0.65372
 C230 C 0.80420 0.28593 0.66734
 C231 C 0.78480 0.26609 0.63055
 C232 C 0.71753 0.23282 0.63030
 C233 C 0.69825 0.21303 0.66750
 C234 C 0.69294 0.18861 0.65501
 C235 C 0.70729 0.18409 0.60614
 C236 C 0.72660 0.20387 0.56898
 H237 H 0.75370 0.21949 0.36328
 H238 H 0.71913 0.18558 0.29693
 H239 H 0.66701 0.20056 0.40679
 H240 H 0.70158 0.23470 0.47263
 H241 H 0.80052 0.26327 0.47319
 H242 H 0.83521 0.29701 0.40674
 H243 H 0.74874 0.27870 0.36195
 H244 H 0.76527 0.29875 0.52896
 H245 H 0.79950 0.33367 0.59321
 H246 H 0.81502 0.28218 0.70574
 H247 H 0.78100 0.24732 0.64081
 H248 H 0.72116 0.25157 0.63965
 H249 H 0.68730 0.21673 0.70533
 H250 H 0.70342 0.16529 0.59633
 H251 H 0.73750 0.20010 0.53119
 H252 H 0.78344 0.31221 0.29498
 O253 O 0.96583 0.44477 0.12901
 O254 O 0.93833 0.45032 0.06007
 C255 C 0.94351 0.43910 0.10983
 O256 O 1.03536 0.55599 0.12617
 O257 O 1.06294 0.54957 0.06053
 C258 C 1.05771 0.56163 0.10737
 O259 O 0.96558 0.51914 0.13242
 O260 O 0.93826 0.48647 0.06212
 C261 C 0.94331 0.50245 0.11292
 O262 O 1.03520 0.47734 0.12271
 O263 O 1.06266 0.51194 0.05904
 C264 C 1.05751 0.49428 0.10461
 Zr265 Zr 1.00052 0.47205 0.08673
 O266 O 1.00098 0.46845 0.19907
 O267 O 0.99971 0.43790 0.07212
 Zr268 Zr 1.00042 0.52655 0.09112
 O269 O 1.00281 0.52690 0.20405
 O270 O 0.99762 0.55918 0.09260
 O271 O 0.97833 0.48811 0.10277
 O272 O 1.02208 0.51007 0.10248
 O273 O 1.03572 0.47903 -0.12724
 O274 O 1.06307 0.51318 -0.06133
 C275 C 1.05801 0.49596 -0.10832
 O276 O 0.96589 0.52098 -0.13019
 O277 O 0.93837 0.48737 -0.06320
 C278 C 0.94357 0.50411 -0.11191
 O279 O 1.03557 0.55755 -0.12290
 O280 O 1.06296 0.55034 -0.05883
 C281 C 1.05787 0.56287 -0.10447
 O282 O 0.96558 0.44594 -0.13443
 O283 O 0.93801 0.45118 -0.06480
 C284 C 0.94321 0.44028 -0.11539
 Zr285 Zr 1.00064 0.47336 -0.09303
 O286 O 1.00346 0.47538 -0.20588
 O287 O 0.99828 0.43813 -0.09430
 Zr288 Zr 1.00061 0.52781 -0.08925
 O289 O 1.00343 0.53020 -0.20205
 O290 O 0.99781 0.56043 -0.08517
 Zr291 Zr 0.96331 0.48130 -0.00150
 Zr292 Zr 1.03767 0.51863 -0.00053
 O293 O 1.02224 0.51150 -0.10401
 O294 O 0.97843 0.48956 -0.10551
 O295 O 1.02294 0.47979 -0.00306
 O296 O 0.97879 0.52020 0.00093
 O297 O 0.97872 0.45784 -0.00350
 O298 O 1.02276 0.54259 0.00146
 H299 H 1.03333 0.51552 0.14447
 H300 H 0.96752 0.52720 0.00164
 H301 H 1.03346 0.51738 -0.14599
 H302 H 0.96736 0.43958 -0.00427
 H303 H 1.01164 0.57200 0.06430
 H304 H 1.01233 0.57312 -0.05803
 H305 H 0.99008 0.51426 -0.22159
 H306 H 0.98958 0.47735 -0.22422
 H307 H 1.01117 0.43904 -0.06119
 H308 H 0.99910 0.43122 0.12066
 H309 H 1.00531 0.48475 0.21979
 H310 H 0.98910 0.51078 0.22153
 O311 O 0.52092 0.55399 -0.13618
 O312 O 0.48786 0.54888 -0.06831
 C313 C 0.50431 0.55982 -0.11806
 O314 O 0.47927 0.44285 -0.12657
 O315 O 0.51325 0.44975 -0.05967
 C316 C 0.49606 0.43744 -0.10668
 O317 O 0.44604 0.47932 -0.13595
 O318 O 0.45154 0.51266 -0.06873
 C319 C 0.44042 0.49610 -0.11817
 O320 O 0.55761 0.52130 -0.12624
 O321 O 0.55054 0.48724 -0.05979
 C322 C 0.56294 0.50446 -0.10658
 Zr323 Zr 0.52832 0.52696 -0.09169
 O324 O 0.53221 0.52963 -0.20412
 O325 O 0.56174 0.56121 -0.07876
 Zr326 Zr 0.47368 0.47238 -0.09344
 O327 O 0.47536 0.47107 -0.20627
 O328 O 0.43828 0.43965 -0.09308
 O329 O 0.49001 0.51072 -0.10791
 O330 O 0.51181 0.48884 -0.10479
 O331 O 0.55697 0.52177 0.12353
 O332 O 0.55005 0.48709 0.06048
 C333 C 0.56236 0.50476 0.10619
 O334 O 0.44511 0.47983 0.12626
 O335 O 0.45106 0.51282 0.05644
 C336 C 0.43968 0.49658 0.10640
 O337 O 0.47798 0.44298 0.12250
 O338 O 0.51267 0.44982 0.05975
 C339 C 0.49493 0.43751 0.10522
 O340 O 0.52010 0.55468 0.12789
 O341 O 0.48726 0.54897 0.05748
 C342 C 0.50337 0.56016 0.10799
 Zr343 Zr 0.52742 0.52703 0.08802
 O344 O 0.52847 0.52582 0.20101
 O345 O 0.56028 0.56231 0.08719
 Zr346 Zr 0.47287 0.47258 0.08686
 O347 O 0.47370 0.47116 0.19985
 O348 O 0.43737 0.43998 0.08488
 Zr349 Zr 0.48193 0.51837 -0.00461
 Zr350 Zr 0.51902 0.48109 -0.00082
 O351 O 0.51087 0.48899 0.10170
 O352 O 0.48899 0.51094 0.10031
 O353 O 0.54316 0.51994 -0.00076
 O354 O 0.45852 0.47944 -0.00446
 O355 O 0.52084 0.54184 -0.00297
 O356 O 0.48011 0.45709 -0.00226
 H357 H 0.51753 0.48313 -0.14626
 H358 H 0.44023 0.47239 -0.00514
 H359 H 0.51630 0.48342 0.14425
 H360 H 0.52778 0.56010 -0.00332
 H361 H 0.43972 0.42695 -0.06482
 H362 H 0.43894 0.42722 0.05745
 H363 H 0.47584 0.48705 0.21823
 H364 H 0.51250 0.52359 0.21902
 H365 H 0.57226 0.56114 0.05484
 H366 H 0.56777 0.56745 -0.12763
 H367 H 0.51963 0.51340 -0.22391
 H368 H 0.47752 0.48695 -0.22506
 O369 O 0.48054 0.03448 0.13427
 O370 O 0.51287 0.06187 0.06306
 C371 C 0.49705 0.05677 0.11437
 O372 O 0.52215 -0.03493 0.12442
 O373 O 0.48749 -0.06259 0.06107
 C374 C 0.50525 -0.05729 0.10649
 O375 O 0.55493 0.03460 0.12974
 O376 O 0.54896 0.06190 0.06123
 C377 C 0.56035 0.05685 0.11078
 O378 O 0.44350 -0.03505 0.12879
 O379 O 0.44982 -0.06264 0.06304
 C380 C 0.43790 -0.05740 0.11029
 Zr381 Zr 0.47249 -0.00034 0.09127
 O382 O 0.46980 -0.00051 0.20398
 O383 O 0.43900 0.00048 0.08054
 Zr384 Zr 0.52705 -0.00028 0.08955
 O385 O 0.52632 -0.00245 0.20254
 O386 O 0.56250 0.00253 0.08717
 O387 O 0.51092 0.02185 0.10408
 O388 O 0.48905 -0.02193 0.10409
 O389 O 0.44169 -0.03546 -0.12129
 O390 O 0.44899 -0.06286 -0.05757
 C391 C 0.43635 -0.05774 -0.10284
 O392 O 0.55370 0.03396 -0.13256
 O393 O 0.54839 0.06163 -0.06395
 C394 C 0.55942 0.05632 -0.11385
 O395 O 0.52044 -0.03581 -0.12494
 O396 O 0.48641 -0.06314 -0.05883
 C397 C 0.50362 -0.05809 -0.10578
 O398 O 0.47844 0.03400 -0.12953
 O399 O 0.51208 0.06165 -0.06267
 C400 C 0.49533 0.05635 -0.11150
 Zr401 Zr 0.47169 -0.00066 -0.08842
 O402 O 0.46985 -0.00367 -0.20126
 O403 O 0.43885 0.00177 -0.08606
 Zr404 Zr 0.52609 -0.00074 -0.09073
 O405 O 0.52410 -0.00373 -0.20356
 O406 O 0.56150 0.00197 -0.09117
 Zr407 Zr 0.51803 0.03679 -0.00027
 Zr408 Zr 0.48077 -0.03774 0.00126
 O409 O 0.48796 -0.02239 -0.10227
 O410 O 0.50997 0.02152 -0.10412
 O411 O 0.45677 -0.02286 0.00211
 O412 O 0.54137 0.02121 -0.00116
 O413 O 0.47914 0.02138 0.00134
 O414 O 0.51969 -0.02277 -0.00030
 H415 H 0.48376 -0.03309 0.14623
 H416 H 0.55966 0.03242 -0.00174
 H417 H 0.48208 -0.03368 -0.14411
 H418 H 0.47221 0.03271 0.00188
 H419 H 0.56095 -0.01156 0.05852
 H420 H 0.56010 -0.01228 -0.06354
 H421 H 0.52211 0.01010 -0.22218
 H422 H 0.48547 0.01024 -0.22057
 H423 H 0.42732 -0.01085 -0.05164
 H424 H 0.43352 0.00113 0.12979
 H425 H 0.48129 -0.00574 0.22327
 H426 H 0.52375 0.01106 0.22078
 C427 C 1.16862 0.49265 0.30378
 C428 C 1.15164 0.49251 0.27184
 C429 C 1.13181 0.49260 0.23491
 C430 C 1.11489 0.49285 0.20390
 C431 C 1.09501 0.49328 0.16834
 C432 C 1.07795 0.49371 0.13875
 C433 C 0.50067 0.67025 0.30842
 C434 C 0.50073 0.65328 0.27734
 C435 C 0.50107 0.63350 0.24121
 C436 C 0.50151 0.61666 0.21053
 C437 C 0.50216 0.59698 0.17474
 C438 C 0.50273 0.58018 0.14425
 C439 C 0.32682 -0.16909 0.31228
 C440 C 0.34374 -0.15217 0.28053
 C441 C 0.36350 -0.13222 0.24362
 C442 C 0.38039 -0.11511 0.21240
 C443 C 0.40026 -0.09501 0.17627
 C444 C 0.41735 -0.07783 0.14586
 C445 C 0.83038 0.49981 0.31258
 C446 C 0.84749 0.49983 0.28205
 C447 C 0.86769 0.50013 0.24644
 C448 C 0.88501 0.50056 0.21606
 C449 C 0.90536 0.50120 0.18039
 C450 C 0.92272 0.50178 0.14974
 C451 C 0.49272 0.32500 0.30689
 C452 C 0.49264 0.34180 0.27466
 C453 C 0.49281 0.36167 0.23737
 C454 C 0.49312 0.37881 0.20604
 C455 C 0.49365 0.39908 0.17004
 C456 C 0.49420 0.41654 0.14001
 C457 C 0.67044 0.17025 0.31040
 C458 C 0.65356 0.15300 0.27955
 C459 C 0.63386 0.13267 0.24366
 C460 C 0.61705 0.11525 0.21315
 C461 C 0.59736 0.09484 0.17751
 C462 C 0.58051 0.07744 0.14707
 C463 C 0.49358 0.16758 -0.30895
 C464 C 0.49379 0.15056 -0.27843
 C465 C 0.49417 0.13066 -0.24300
 C466 C 0.49454 0.11367 -0.21288
 C467 C 0.49495 0.09375 -0.17767
 C468 C 0.49520 0.07670 -0.14754
 C469 C 0.67384 0.50270 -0.30511
 C470 C 0.65711 0.50297 -0.27317
 C471 C 0.63751 0.50342 -0.23631
 C472 C 0.62068 0.50384 -0.20541
 C473 C 0.60082 0.50426 -0.16999
 C474 C 0.58366 0.50448 -0.14054
 C475 C 0.82926 0.32977 -0.31225
 C476 C 0.84667 0.34685 -0.28245
 C477 C 0.86718 0.36676 -0.24771
 C478 C 0.88472 0.38370 -0.21798
 C479 C 0.90525 0.40347 -0.18285
 C480 C 0.92268 0.42030 -0.15241
 C481 C 0.50251 -0.17045 -0.30433
 C482 C 0.50271 -0.15345 -0.27260
 C483 C 0.50305 -0.13340 -0.23597
 C484 C 0.50336 -0.11619 -0.20521
 C485 C 0.50365 -0.09596 -0.16982
 C486 C 0.50376 -0.07866 -0.14022
 C487 C 0.32748 0.49416 -0.31714
 C488 C 0.34479 0.49445 -0.28680
 C489 C 0.36514 0.49491 -0.25142
 C490 C 0.38252 0.49532 -0.22120
 C491 C 0.40284 0.49576 -0.18565
 C492 C 0.42008 0.49602 -0.15505
 C493 C 1.16945 0.67429 -0.30537
 C494 C 1.15261 0.65749 -0.27307
 C495 C 1.13276 0.63781 -0.23569
 C496 C 1.11570 0.62093 -0.20431
 C497 C 1.09561 0.60099 -0.16839
 C498 C 1.07840 0.58374 -0.13862
 C499 C 0.83230 0.50609 -0.30848
 C500 C 0.84928 0.50582 -0.27791
 C501 C 0.86916 0.50537 -0.24251
 C502 C 0.88614 0.50495 -0.21249
 C503 C 0.90608 0.50450 -0.17748
 C504 C 0.92316 0.50423 -0.14759
 C505 C 0.49742 0.32623 -0.30403
 C506 C 0.49719 0.34299 -0.27219
 C507 C 0.49679 0.36264 -0.23552
 C508 C 0.49644 0.37952 -0.20483
 C509 C 0.49610 0.39945 -0.16968
 C510 C 0.49595 0.41666 -0.14045
 C511 C 0.67247 0.16817 -0.30873
 C512 C 0.65517 0.15105 -0.27886
 C513 C 0.63480 0.13099 -0.24423
 C514 C 0.61739 0.11387 -0.21474
 C515 C 0.59705 0.09381 -0.18007
 C516 C 0.57978 0.07669 -0.15012
 C517 C 1.17025 0.49764 -0.30894
 C518 C 1.15329 0.49737 -0.27682
 C519 C 1.13328 0.49693 -0.23976
 C520 C 1.11609 0.49654 -0.20866
 C521 C 1.09588 0.49613 -0.17291
 C522 C 1.07858 0.49593 -0.14303
 C523 C 0.50642 0.67321 -0.31368
 C524 C 0.50611 0.65580 -0.28404
 C525 C 0.50563 0.63533 -0.24955
 C526 C 0.50519 0.61785 -0.22004
 C527 C 0.50472 0.59744 -0.18518
 C528 C 0.50444 0.58015 -0.15491
 C529 C 0.32272 -0.16764 -0.30163
 C530 C 0.33962 -0.15096 -0.26918
 C531 C 0.35966 -0.13147 -0.23185
 C532 C 0.37697 -0.11478 -0.20071
 C533 C 0.39747 -0.09511 -0.16529
 C534 C 0.41514 -0.07816 -0.13611
 C535 C 0.50772 -0.16781 0.30539
 C536 C 0.50777 -0.15092 0.27338
 C537 C 0.50756 -0.13120 0.23643
 C538 C 0.50720 -0.11434 0.20546
 C539 C 0.50662 -0.09457 0.17000
 C540 C 0.50603 -0.07760 0.14051
 C541 C 0.32903 0.49946 0.30249
 C542 C 0.34604 0.49929 0.27200
 C543 C 0.36589 0.49885 0.23669
 C544 C 0.38281 0.49834 0.20675
 C545 C 0.40260 0.49767 0.17184
 C546 C 0.41952 0.49712 0.14201
 C547 C 1.16744 0.67553 0.30608
 C548 C 1.15080 0.65840 0.27420
 C549 C 1.13132 0.63814 0.23745
 C550 C 1.11464 0.62072 0.20662
 C551 C 1.09499 0.60020 0.17123
 C552 C 1.07807 0.58261 0.14168
 C553 C 0.50002 0.16989 0.31325
 C554 C 0.49995 0.15272 0.28301
 C555 C 0.49958 0.13245 0.24776
 C556 C 0.49909 0.11507 0.21762
 C557 C 0.49840 0.09468 0.18212
 C558 C 0.49776 0.07731 0.15145
 C559 C 0.67517 0.50705 0.30645
 C560 C 0.65829 0.50707 0.27449
 C561 C 0.63832 0.50684 0.23757
 C562 C 0.62110 0.50649 0.20654
 C563 C 0.60078 0.50594 0.17084
 C564 C 0.58329 0.50542 0.14097
 C565 C 0.83204 0.32715 0.30910
 C566 C 0.84906 0.34420 0.27813
 C567 C 0.86898 0.36427 0.24222
 C568 C 0.88600 0.38146 0.21176
 C569 C 0.90598 0.40161 0.17625
 C570 C 0.92309 0.41877 0.14595
   
