data_POSCAR
  _audit_creation_date              2014-09-24
  _audit_creation_method            'ToBaCCo'
  _symmetry_space_group_name_H-M    'P1'
  _symmetry_Int_Tables_number       1
  _symmetry_cell_setting            triclinic
  loop_
  _symmetry_equiv_pos_as_xyz
 x,y,z
_cell_length_a 17.9167
_cell_length_b 17.9167
_cell_length_c 32.5638
_cell_angle_alpha 90.000000
_cell_angle_beta 90.000000
_cell_angle_gamma 120.000000
loop_
  _atom_site_label
  _atom_site_type_symbol
  _atom_site_fract_x
  _atom_site_fract_y
  _atom_site_fract_z
Zn1 Zn 0.94578 0.05738 1.01840
 Zn2 Zn 1.11160 0.05423 1.01840
 Zn3 Zn 0.94263 -0.11159 1.01840
 Zn4 Zn 1.00000 0.00001 0.94379
 O5 O 1.00000 0.00001 0.99983
 O6 O 1.01455 0.14866 1.04964
 O7 O 1.13411 -0.01454 1.04964
 O8 O 0.85135 -0.13410 1.04964
 O9 O 1.13716 0.14636 1.04964
 O10 O 0.85365 -0.00920 1.04964
 O11 O 1.00921 -0.13715 1.04964
 O12 O 0.94547 -0.10601 0.92246
 O13 O 1.18961 0.09211 0.97763
 O14 O 0.90250 -0.18960 0.97763
 O15 O 1.10602 0.05149 0.92246
 O16 O 0.94852 0.05454 0.92246
 O17 O 0.90790 0.09751 0.97763
 C18 C 1.09229 0.17950 1.06077
 C19 C 1.08721 -0.09228 1.06077
 C20 C 0.82051 -0.08720 1.06077
 C21 C 0.90748 -0.17991 0.93897
 C22 C 1.17992 0.08739 0.93897
 C23 C 0.91262 0.09253 0.93897
 Zn24 Zn 0.05737 0.94578 0.51840
 Zn25 Zn -0.11159 0.94264 0.51840
 Zn26 Zn 0.05423 1.11160 0.51840
 Zn27 Zn 0.00000 1.00001 0.44379
 O28 O 0.00000 1.00001 0.49983
 O29 O -0.00920 0.85365 0.54964
 O30 O -0.13715 1.00921 0.54964
 O31 O 0.14636 1.13716 0.54965
 O32 O -0.13410 0.85135 0.54964
 O33 O 0.14866 1.01455 0.54964
 O34 O -0.01454 1.13411 0.54964
 O35 O 0.05149 1.10602 0.42246
 O36 O -0.18960 0.90250 0.47763
 O37 O 0.09211 1.18961 0.47763
 O38 O -0.10601 0.94547 0.42246
 O39 O 0.05454 0.94852 0.42246
 O40 O 0.09751 0.90790 0.47763
 C41 C -0.08720 0.82051 0.56077
 C42 C -0.09228 1.08721 0.56077
 C43 C 0.17950 1.09229 0.56077
 C44 C 0.08739 1.17992 0.43897
 C45 C -0.17991 0.90748 0.43897
 C46 C 0.09253 0.91262 0.43897
 O47 O 0.20692 0.54430 0.29706
 O48 O 0.20348 0.68648 0.28444
 C49 C 0.25729 0.75267 0.30433
 O50 O 0.33738 0.79309 0.29706
 O51 O 0.48300 0.79653 0.28444
 C52 C 0.49538 0.74272 0.30433
 O53 O 0.45571 0.66263 0.29706
 O54 O 0.31353 0.51701 0.28444
 C55 C 0.24734 0.50463 0.30433
 O56 O 0.20329 0.51706 0.21545
 O57 O 0.20691 0.66292 0.20282
 C58 C 0.24731 0.74306 0.19566
 O59 O 0.31377 0.79672 0.21545
 O60 O 0.45601 0.79310 0.20282
 C61 C 0.49576 0.75270 0.19566
 O62 O 0.48295 0.68624 0.21545
 O63 O 0.33709 0.54400 0.20282
 C64 C 0.25695 0.50425 0.19566
 Cr65 Cr 0.21001 0.60511 0.24993
 Cr66 Cr 0.39510 0.79000 0.24993
 Cr67 Cr 0.39490 0.60491 0.24993
 O68 O 0.33334 0.66667 0.24990
 O69 O 0.79653 0.48300 0.78444
 O70 O 0.79309 0.33739 0.79706
 C71 C 0.75267 0.25730 0.80433
 O72 O 0.68648 0.20348 0.78444
 O73 O 0.54430 0.20692 0.79706
 C74 C 0.50463 0.24734 0.80433
 O75 O 0.51701 0.31353 0.78444
 O76 O 0.66263 0.45571 0.79706
 C77 C 0.74271 0.49538 0.80433
 O78 O 0.79310 0.45601 0.70282
 O79 O 0.79672 0.31377 0.71545
 C80 C 0.74306 0.24731 0.69566
 O81 O 0.66291 0.20691 0.70282
 O82 O 0.51706 0.20329 0.71545
 C83 C 0.50425 0.25695 0.69566
 O84 O 0.54399 0.33710 0.70282
 O85 O 0.68624 0.48295 0.71545
 C86 C 0.75270 0.49576 0.69566
 Cr87 Cr 0.78999 0.39510 0.74993
 Cr88 Cr 0.60511 0.21002 0.74993
 Cr89 Cr 0.60491 0.39490 0.74993
 O90 O 0.66667 0.33334 0.74990
 C91 C 0.12996 0.25288 0.08758
 C92 C 0.16072 0.31309 0.11097
 C93 C 0.19559 0.38179 0.13939
 C94 C 0.22427 0.43875 0.16457
 C95 C 0.74713 0.87709 0.08758
 C96 C 0.68692 0.84763 0.11097
 C97 C 0.61822 0.81380 0.13939
 C98 C 0.56126 0.78553 0.16457
 C99 C 0.12292 0.87005 0.08758
 C100 C 0.15238 0.83929 0.11097
 C101 C 0.18621 0.80442 0.13939
 C102 C 0.21448 0.77574 0.16457
 C103 C 0.87709 0.74713 0.58758
 C104 C 0.84763 0.68692 0.61097
 C105 C 0.81380 0.61822 0.63939
 C106 C 0.78553 0.56126 0.66457
 C107 C 0.25288 0.12997 0.58758
 C108 C 0.31309 0.16072 0.61097
 C109 C 0.38179 0.19559 0.63939
 C110 C 0.43875 0.22427 0.66457
 C111 C 0.87004 0.12292 0.58758
 C112 C 0.83929 0.15238 0.61097
 C113 C 0.80442 0.18621 0.63939
 C114 C 0.77574 0.21448 0.66457
 C115 C 0.25427 0.12359 0.91281
 C116 C 0.31473 0.15315 0.88958
 C117 C 0.38321 0.18683 0.86107
 C118 C 0.43973 0.21484 0.83568
 C119 C 0.86932 0.74574 0.91281
 C120 C 0.83842 0.68528 0.88958
 C121 C 0.80362 0.61680 0.86107
 C122 C 0.77512 0.56028 0.83568
 C123 C 0.87642 0.13069 0.91281
 C124 C 0.84686 0.16159 0.88958
 C125 C 0.81318 0.19639 0.86107
 C126 C 0.78517 0.22489 0.83568
 C127 C 0.74574 0.86932 0.41281
 C128 C 0.68527 0.83842 0.38958
 C129 C 0.61680 0.80362 0.36107
 C130 C 0.56028 0.77512 0.33568
 C131 C 0.12359 0.25427 0.41281
 C132 C 0.15315 0.31474 0.38958
 C133 C 0.18683 0.38321 0.36107
 C134 C 0.21484 0.43973 0.33568
 C135 C 0.13069 0.87642 0.41281
 C136 C 0.16159 0.84686 0.38958
 C137 C 0.19639 0.81318 0.36107
 C138 C 0.22489 0.78517 0.33568
   
