data_POSCAR
  _audit_creation_date              2014-09-24
  _audit_creation_method            'ToBaCCo'
  _symmetry_space_group_name_H-M    'P1'
  _symmetry_Int_Tables_number       1
  _symmetry_cell_setting            triclinic
  loop_
  _symmetry_equiv_pos_as_xyz
 x,y,z
_cell_length_a 20.4365
_cell_length_b 20.4173
_cell_length_c 20.3959
_cell_angle_alpha 89.824400
_cell_angle_beta 90.168300
_cell_angle_gamma 89.893100
loop_
  _atom_site_label
  _atom_site_type_symbol
  _atom_site_fract_x
  _atom_site_fract_y
  _atom_site_fract_z
C1 C 0.24664 0.93626 -0.04043
 C2 C 0.23445 0.93732 0.02971
 C3 C 0.22233 0.99840 0.05796
 C4 C 0.24185 1.05822 0.03057
 C5 C 0.25168 1.05983 -0.03898
 C6 C 0.25919 0.99807 -0.06974
 H7 H 0.27688 0.99830 -0.11961
 H8 H 0.20033 0.99933 0.10632
 C9 C 0.73114 0.43599 0.53012
 C10 C 0.74880 0.43374 0.46145
 C11 C 0.76611 0.49400 0.43209
 C12 C 0.75774 0.55550 0.46197
 C13 C 0.74103 0.55556 0.52951
 C14 C 0.71815 0.49746 0.55703
 H15 H 0.69606 0.49996 0.60530
 H16 H 0.78477 0.49351 0.38251
 C17 C 0.74138 0.96389 1.05748
 C18 C 0.75982 1.03149 1.05656
 C19 C 0.77985 1.05765 0.99654
 C20 C 0.76279 1.03042 0.93633
 C21 C 0.74614 0.96185 0.93523
 C22 C 0.73021 0.93358 0.99617
 H23 H 0.71099 0.88423 0.99588
 H24 H 0.80385 1.10508 0.99625
 C25 C 0.26366 0.53082 0.43651
 C26 C 0.24501 0.46270 0.43499
 C27 C 0.22752 0.43470 0.49562
 C28 C 0.23909 0.46459 0.55694
 C29 C 0.26085 0.53089 0.55654
 C30 C 0.28133 0.55737 0.49699
 H31 H 0.30506 0.60491 0.49752
 H32 H 0.20725 0.38574 0.49523
 C33 C 1.05788 0.25624 0.03866
 C34 C 1.05750 0.24238 -0.03046
 C35 C 0.99745 0.22380 -0.05802
 C36 C 0.93682 0.23866 -0.03057
 C37 C 0.93526 0.25152 0.03898
 C38 C 0.99595 0.26524 0.06868
 H39 H 0.99468 0.28311 0.11854
 H40 H 0.99745 0.20109 -0.10607
 C41 C 0.43637 0.75351 0.53941
 C42 C 0.43758 0.73753 0.47044
 C43 C 0.49793 0.72041 0.44338
 C44 C 0.55767 0.73907 0.47075
 C45 C 0.55812 0.75859 0.53781
 C46 C 0.49702 0.76939 0.56805
 H47 H 0.49685 0.78835 0.61756
 H48 H 0.49833 0.69795 0.39521
 C49 C -0.03659 0.75637 -0.05978
 C50 C 0.03034 0.73478 -0.05760
 C51 C 0.05605 0.71741 0.00399
 C52 C 0.03106 0.74044 0.06312
 C53 C -0.03652 0.76162 0.06298
 C54 C -0.06485 0.77396 0.00114
 H55 H -0.11238 0.79746 0.00092
 H56 H 0.10183 0.69049 0.00588
 C57 C 0.46210 0.25825 0.44238
 C58 C 0.52639 0.23124 0.44438
 C59 C 0.55219 0.21371 0.50556
 C60 C 0.52823 0.23869 0.56447
 C61 C 0.46171 0.26324 0.56434
 C62 C 0.43424 0.27752 0.50254
 H63 H 0.38719 0.30204 0.50146
 H64 H 0.59784 0.18655 0.50685
 C65 C 1.06524 0.04060 0.24963
 C66 C 1.06483 -0.02938 0.23559
 C67 C 1.00400 -0.05804 0.22297
 C68 C 0.94439 -0.03163 0.24334
 C69 C 0.94249 0.03701 0.25539
 C70 C 1.00338 0.06869 0.26366
 H71 H 1.00205 0.11852 0.28137
 H72 H 1.00295 -0.10598 0.20014
 C73 C 0.44374 0.47179 0.74287
 C74 C 0.44393 0.53913 0.75973
 C75 C 0.50544 0.56838 0.76950
 C76 C 0.56573 0.53873 0.75295
 C77 C 0.56339 0.47001 0.73486
 C78 C 0.50192 0.44373 0.72099
 H79 H 0.49921 0.39566 0.69861
 H80 H 0.50584 0.61784 0.78837
 C81 C 1.03782 0.94547 0.74127
 C82 C 0.97043 0.94512 0.75881
 C83 C 0.94204 1.00435 0.77737
 C84 C 0.96795 1.06566 0.76112
 C85 C 1.03761 1.06771 0.74772
 C86 C 1.06739 1.00724 0.73216
 H87 H 1.11712 1.00814 0.71417
 H88 H 0.89442 1.00260 0.80079
 C89 C 0.47101 0.56403 0.26290
 C90 C 0.53968 0.56502 0.24633
 C91 C 0.56768 0.50417 0.23002
 C92 C 0.53691 0.44301 0.24030
 C93 C 0.46984 0.44390 0.25937
 C94 C 0.44349 0.50358 0.27942
 H95 H 0.39562 0.50327 0.30232
 H96 H 0.61706 0.50435 0.21105
 O97 O 0.25684 0.09001 0.13871
 O98 O 0.33828 0.06586 0.23206
 O99 O 0.10151 0.15002 0.24525
 O100 O 0.06956 0.24320 0.30702
 O101 O 0.17167 0.25377 0.06323
 O102 O 0.26218 0.33515 0.06275
 O103 O 0.25739 0.35121 0.39834
 O104 O 0.18599 0.25226 0.42287
 O105 O 0.43405 0.24880 0.32631
 O106 O 0.43652 0.16588 0.23265
 O107 O 0.35876 0.41032 0.24819
 O108 O 0.27023 0.43994 0.16307
 O109 O 0.25531 0.43000 0.32002
 O110 O 0.18626 0.43237 0.21616
 O111 O 0.43746 0.33184 0.24432
 O112 O 0.43876 0.24339 0.15738
 O113 O 0.35385 0.26109 0.40156
 O114 O 0.27512 0.19373 0.43565
 O115 O 0.25362 0.16820 0.05955
 O116 O 0.34137 0.24905 0.06016
 O117 O 0.09716 0.25136 0.14483
 O118 O 0.06711 0.31388 0.23743
 O119 O 0.17733 0.06987 0.23715
 O120 O 0.26821 0.06403 0.31063
 Zr121 Zr 0.25929 0.13273 0.23403
 O122 O 0.31760 0.19012 0.29726
 Zr123 Zr 0.14498 0.24553 0.23646
 O124 O 0.19976 0.31098 0.29504
 Zr125 Zr 0.25793 0.24975 0.12052
 O126 O 0.32038 0.30898 0.17673
 Zr127 Zr 0.26281 0.25630 0.35377
 O128 O 0.20305 0.18979 0.29984
 Zr129 Zr 0.37699 0.24982 0.23963
 O130 O 0.32108 0.19006 0.17672
 Zr131 Zr 0.26407 0.36793 0.23773
 O132 O 0.20054 0.31069 0.17905
 O133 O 0.19767 0.18734 0.17477
 O134 O 0.32443 0.31431 0.29955
 C135 C 0.25189 0.10843 0.07749
 C136 C 0.11789 0.08797 0.24456
 C137 C 0.11220 0.25480 0.08325
 C138 C 0.25311 0.41245 0.38026
 C139 C 0.41477 0.25640 0.38564
 C140 C 0.41966 0.39139 0.25011
 H141 H 0.34353 0.16117 0.32635
 H142 H 0.34846 0.33594 0.14812
 H143 H 0.16781 0.16021 0.14792
 H144 H 0.16902 0.33802 0.32081
 H145 H 0.15985 0.21271 0.41267
 H146 H 0.08637 0.26511 0.34680
 H147 H 0.44195 0.28693 0.13621
 H148 H 0.36385 0.20633 0.06553
 H149 H 0.27216 0.14855 0.41870
 H150 H 0.23454 0.07553 0.34346
 H151 H 0.31382 0.43746 0.14228
 H152 H 0.22342 0.36222 0.07345
 H153 H 0.36238 0.07322 0.19065
 H154 H 0.43495 0.14193 0.27484
 H155 H 0.08170 0.35201 0.21126
 H156 H 0.15452 0.42845 0.25250
 O157 O 0.74485 0.93616 0.17430
 O158 O 0.66785 0.93692 0.26899
 O159 O 0.91294 0.86052 0.25867
 O160 O 0.93858 0.77517 0.33697
 O161 O 0.85166 0.76065 0.10141
 O162 O 0.75125 0.68806 0.07652
 O163 O 0.75943 0.67208 0.43520
 O164 O 0.83684 0.75679 0.43825
 O165 O 0.59182 0.75291 0.36037
 O166 O 0.55995 0.83363 0.27326
 O167 O 0.65123 0.60184 0.25911
 O168 O 0.75641 0.57896 0.18519
 O169 O 0.74717 0.59737 0.35416
 O170 O 0.80776 0.56310 0.26608
 O171 O 0.57249 0.67984 0.25600
 O172 O 0.57170 0.78620 0.18719
 O173 O 0.67054 0.74853 0.43902
 O174 O 0.75234 0.84218 0.44034
 O175 O 0.74911 0.85569 0.09809
 O176 O 0.69276 0.76422 0.06423
 O177 O 0.93174 0.76499 0.17829
 O178 O 0.93398 0.68497 0.26217
 O179 O 0.83464 0.93957 0.25528
 O180 O 0.75730 0.93996 0.34395
 Zr181 Zr 0.75263 0.87907 0.26074
 O182 O 0.69363 0.82217 0.32264
 Zr183 Zr 0.86948 0.76591 0.26026
 O184 O 0.81259 0.70257 0.31866
 Zr185 Zr 0.75621 0.76448 0.14601
 O186 O 0.69098 0.70552 0.20070
 Zr187 Zr 0.75250 0.75878 0.37895
 O188 O 0.81228 0.82203 0.32329
 Zr189 Zr 0.63446 0.76190 0.26579
 O190 O 0.69132 0.82127 0.20266
 Zr191 Zr 0.74642 0.64640 0.26303
 O192 O 0.81216 0.70125 0.20335
 O193 O 0.81435 0.82559 0.19954
 O194 O 0.68813 0.69912 0.32566
 C195 C 0.74433 0.91665 0.11444
 C196 C 0.89441 0.92156 0.25358
 C197 C 0.91346 0.76226 0.11844
 C198 C 0.75509 0.61268 0.41515
 C199 C 0.61072 0.74736 0.42112
 C200 C 0.59000 0.61973 0.25436
 H201 H 0.66680 0.85051 0.35100
 H202 H 0.66365 0.68030 0.16970
 H203 H 0.84066 0.85347 0.16993
 H204 H 0.84218 0.67416 0.34463
 H205 H 0.86012 0.79893 0.43260
 H206 H 0.93412 0.73681 0.36639
 H207 H 0.57362 0.74929 0.15591
 H208 H 0.65081 0.78278 0.07968
 H209 H 0.70697 0.85687 0.44872
 H210 H 0.79928 0.93179 0.36701
 H211 H 0.71607 0.58168 0.15836
 H212 H 0.78754 0.65756 0.08699
 H213 H 0.63877 0.92545 0.23186
 H214 H 0.56754 0.86014 0.31303
 H215 H 0.91968 0.65421 0.22756
 H216 H 0.85107 0.57848 0.28132
 O217 O 0.76013 0.06675 0.82468
 O218 O 0.69315 0.05411 0.74579
 O219 O 0.93402 0.17543 0.75682
 O220 O 0.94547 0.25403 0.69141
 O221 O 0.82491 0.24000 0.93287
 O222 O 0.74185 0.31123 0.94179
 O223 O 0.73686 0.32413 0.56648
 O224 O 0.81272 0.25482 0.55857
 O225 O 0.56657 0.25229 0.67498
 O226 O 0.55723 0.18740 0.75463
 O227 O 0.67498 0.43306 0.74179
 O228 O 0.74748 0.43966 0.81397
 O229 O 0.74222 0.40362 0.64352
 O230 O 0.83364 0.42756 0.73852
 O231 O 0.59563 0.35573 0.74264
 O232 O 0.57339 0.26118 0.83570
 O233 O 0.64280 0.24672 0.59448
 O234 O 0.74415 0.16478 0.57096
 O235 O 0.74692 0.14293 0.90441
 O236 O 0.66477 0.24051 0.92723
 O237 O 0.90430 0.25387 0.85649
 O238 O 0.92485 0.33722 0.75561
 O239 O 0.85761 0.09566 0.74901
 O240 O 0.75925 0.07449 0.66307
 Zr241 Zr 0.75857 0.13333 0.74798
 O242 O 0.68858 0.18848 0.69497
 Zr243 Zr 0.86649 0.25199 0.75703
 O244 O 0.80970 0.30502 0.68783
 Zr245 Zr 0.74805 0.24193 0.86616
 O246 O 0.69416 0.31082 0.81024
 Zr247 Zr 0.74202 0.24760 0.63306
 O248 O 0.81311 0.19364 0.68805
 Zr249 Zr 0.63338 0.25647 0.75141
 O250 O 0.68919 0.18646 0.80571
 Zr251 Zr 0.75070 0.36574 0.74235
 O252 O 0.80600 0.31096 0.81248
 O253 O 0.81387 0.18675 0.81322
 O254 O 0.68510 0.31312 0.68545
 C255 C 0.75495 0.08228 0.88452
 C256 C 0.91863 0.11525 0.75484
 C257 C 0.88467 0.24573 0.91736
 C258 C 0.73698 0.38402 0.58248
 C259 C 0.58183 0.24682 0.61504
 C260 C 0.61517 0.41709 0.73987
 H261 H 0.65938 0.15798 0.67129
 H262 H 0.66960 0.34038 0.83967
 H263 H 0.84192 0.15896 0.84154
 H264 H 0.83872 0.33002 0.65818
 H265 H 0.84905 0.22521 0.57119
 H266 H 0.92649 0.24858 0.64716
 H267 H 0.56239 0.30766 0.84372
 H268 H 0.64297 0.19769 0.92104
 H269 H 0.69930 0.14692 0.56795
 H270 H 0.80389 0.07664 0.64444
 H271 H 0.78047 0.42796 0.84766
 H272 H 0.76599 0.35031 0.92654
 H273 H 0.64952 0.07241 0.75586
 H274 H 0.57311 0.15040 0.78183
 H275 H 0.92214 0.35716 0.79971
 H276 H 0.84242 0.43810 0.69200
 O277 O 0.24275 0.89870 0.85104
 O278 O 0.31496 0.92243 0.74918
 O279 O 0.06492 0.82900 0.74529
 O280 O 0.06324 0.75220 0.66599
 O281 O 0.13883 0.73446 0.90998
 O282 O 0.23564 0.66366 0.93805
 O283 O 0.24875 0.64170 0.59005
 O284 O 0.16415 0.72314 0.56369
 O285 O 0.39878 0.74187 0.65103
 O286 O 0.42377 0.81406 0.75511
 O287 O 0.32752 0.56677 0.75963
 O288 O 0.22695 0.56354 0.83428
 O289 O 0.24990 0.56309 0.66904
 O290 O 0.15929 0.55962 0.75137
 O291 O 0.40303 0.64698 0.74762
 O292 O 0.43559 0.73586 0.81039
 O293 O 0.32172 0.74269 0.57108
 O294 O 0.24027 0.81579 0.56739
 O295 O 0.23518 0.82323 0.93152
 O296 O 0.31134 0.73372 0.93679
 O297 O 0.06033 0.74486 0.83207
 O298 O 0.06196 0.65826 0.75028
 O299 O 0.14611 0.90433 0.74752
 O300 O 0.23590 0.94008 0.69653
 Zr301 Zr 0.23656 0.85526 0.75580
 O302 O 0.29545 0.80035 0.69115
 Zr303 Zr 0.12161 0.74260 0.75052
 O304 O 0.17825 0.68002 0.69157
 Zr305 Zr 0.23404 0.74079 0.86877
 O306 O 0.29724 0.68242 0.81197
 Zr307 Zr 0.24007 0.73591 0.63322
 O308 O 0.18034 0.79970 0.68921
 Zr309 Zr 0.35420 0.73795 0.74649
 O310 O 0.29937 0.79764 0.81228
 Zr311 Zr 0.24069 0.62304 0.75112
 O312 O 0.17775 0.67925 0.81026
 O313 O 0.17459 0.80242 0.81429
 O314 O 0.30175 0.67561 0.68750
 C315 C 0.24208 0.88278 0.91307
 C316 C 0.08495 0.88856 0.74385
 C317 C 0.07775 0.73716 0.89166
 C318 C 0.25263 0.58091 0.60919
 C319 C 0.38147 0.74557 0.58937
 C320 C 0.38714 0.58628 0.75583
 H321 H 0.32093 0.83112 0.66375
 H322 H 0.32528 0.65652 0.84195
 H323 H 0.14649 0.83089 0.84164
 H324 H 0.15029 0.65228 0.66359
 H325 H 0.13337 0.76023 0.56842
 H326 H 0.06047 0.70901 0.64432
 H327 H 0.41961 0.71888 0.85288
 H328 H 0.34404 0.76704 0.92384
 H329 H 0.20352 0.84489 0.57950
 H330 H 0.23368 0.92452 0.65071
 H331 H 0.26662 0.56695 0.86196
 H332 H 0.19722 0.63544 0.92961
 H333 H 0.34476 0.91269 0.78632
 H334 H 0.41946 0.84223 0.71577
 H335 H 0.06855 0.63447 0.79219
 H336 H 0.14083 0.55598 0.70663
 O337 O 0.24149 0.43745 0.67356
 O338 O 0.16438 0.43832 0.76836
 O339 O 0.41016 0.36278 0.76309
 O340 O 0.43694 0.27651 0.83769
 O341 O 0.34973 0.26206 0.60194
 O342 O 0.24944 0.18825 0.57837
 O343 O 0.25180 0.17471 0.93723
 O344 O 0.33426 0.25609 0.93877
 O345 O 0.09088 0.25110 0.86118
 O346 O 0.05954 0.33794 0.77492
 O347 O 0.14848 0.10534 0.76180
 O348 O 0.25311 0.08092 0.68712
 O349 O 0.24543 0.10071 0.85549
 O350 O 0.30502 0.06565 0.76713
 O351 O 0.06964 0.18295 0.75556
 O352 O 0.06756 0.28868 0.68949
 O353 O 0.16768 0.25766 0.94090
 O354 O 0.25413 0.34580 0.94038
 O355 O 0.24721 0.35664 0.59772
 O356 O 0.19157 0.26507 0.56413
 O357 O 0.42924 0.26734 0.67944
 O358 O 0.43163 0.18724 0.76344
 O359 O 0.33143 0.44116 0.75238
 O360 O 0.25464 0.44349 0.84229
 Zr361 Zr 0.24968 0.38102 0.76040
 O362 O 0.19094 0.32473 0.82311
 Zr363 Zr 0.36699 0.26811 0.76162
 O364 O 0.30993 0.20514 0.82027
 Zr365 Zr 0.25427 0.26592 0.64649
 O366 O 0.18871 0.20773 0.70152
 Zr367 Zr 0.24966 0.26170 0.88014
 O368 O 0.30924 0.32468 0.82389
 Zr369 Zr 0.13213 0.26424 0.76645
 O370 O 0.18885 0.32280 0.70247
 Zr371 Zr 0.24396 0.14914 0.76438
 O372 O 0.31003 0.20327 0.70465
 O373 O 0.31211 0.32727 0.70009
 O374 O 0.18556 0.20189 0.82678
 C375 C 0.24178 0.41758 0.61383
 C376 C 0.39118 0.42322 0.75480
 C377 C 0.41135 0.26397 0.61944
 C378 C 0.25010 0.11513 0.91703
 C379 C 0.10847 0.25043 0.92267
 C380 C 0.08727 0.12292 0.75572
 H381 H 0.16392 0.35319 0.85118
 H382 H 0.16135 0.18231 0.67071
 H383 H 0.33875 0.35497 0.67059
 H384 H 0.33925 0.17657 0.84639
 H385 H 0.35902 0.29737 0.93314
 H386 H 0.43227 0.23834 0.86733
 H387 H 0.07226 0.25402 0.65602
 H388 H 0.14928 0.28315 0.57924
 H389 H 0.20999 0.36509 0.94548
 H390 H 0.29696 0.43607 0.86494
 H391 H 0.21241 0.08320 0.66081
 H392 H 0.28631 0.15844 0.58880
 H393 H 0.13595 0.42756 0.73052
 H394 H 0.06137 0.35698 0.81942
 H395 H 0.41749 0.15654 0.72870
 H396 H 0.34845 0.08093 0.78216
 O397 O 0.76086 0.58870 0.63926
 O398 O 0.84161 0.56490 0.73187
 O399 O 0.60396 0.64996 0.74477
 O400 O 0.57325 0.74139 0.80815
 O401 O 0.67442 0.75770 0.56460
 O402 O 0.76872 0.83360 0.56206
 O403 O 0.75954 0.85054 0.89856
 O404 O 0.69017 0.75061 0.92370
 O405 O 0.93764 0.74505 0.82656
 O406 O 0.94081 0.66681 0.73016
 O407 O 0.86059 0.90984 0.74671
 O408 O 0.77252 0.94117 0.66518
 O409 O 0.75697 0.92926 0.82027
 O410 O 0.68781 0.93052 0.71514
 O411 O 0.94005 0.83209 0.74607
 O412 O 0.94062 0.74503 0.65633
 O413 O 0.85778 0.76339 0.90036
 O414 O 0.78007 0.69370 0.93581
 O415 O 0.75268 0.66764 0.56063
 O416 O 0.84372 0.74529 0.55979
 O417 O 0.59925 0.74905 0.64569
 O418 O 0.57063 0.81382 0.73829
 O419 O 0.68065 0.57007 0.73995
 O420 O 0.77400 0.56308 0.81050
 Zr421 Zr 0.76294 0.63214 0.73443
 O422 O 0.82118 0.68972 0.79750
 Zr423 Zr 0.64796 0.74482 0.73687
 O424 O 0.70254 0.81025 0.79552
 Zr425 Zr 0.76090 0.74924 0.62093
 O426 O 0.82304 0.80859 0.67712
 Zr427 Zr 0.76624 0.75588 0.85387
 O428 O 0.70655 0.68920 0.80015
 Zr429 Zr 0.88025 0.74965 0.73984
 O430 O 0.82433 0.68977 0.67709
 Zr431 Zr 0.76629 0.86731 0.73793
 O432 O 0.70316 0.81006 0.67911
 O433 O 0.70098 0.68665 0.67532
 O434 O 0.82736 0.81417 0.79959
 C435 C 0.75356 0.60781 0.57857
 C436 C 0.62111 0.58834 0.74598
 C437 C 0.61498 0.75581 0.58467
 C438 C 0.75473 0.91172 0.88050
 C439 C 0.91878 0.75558 0.88563
 C440 C 0.92154 0.89157 0.74997
 H441 H 0.84734 0.66088 0.82651
 H442 H 0.85100 0.83557 0.64844
 H443 H 0.67101 0.65947 0.64867
 H444 H 0.67166 0.83713 0.82129
 H445 H 0.66410 0.71108 0.91325
 H446 H 0.59000 0.76381 0.84766
 H447 H 0.94549 0.78940 0.63734
 H448 H 0.86496 0.70197 0.56540
 H449 H 0.77670 0.64844 0.91919
 H450 H 0.74131 0.57458 0.84431
 H451 H 0.81355 0.93539 0.64024
 H452 H 0.73234 0.86322 0.57425
 H453 H 0.86639 0.57319 0.69105
 H454 H 0.93686 0.64001 0.77043
 H455 H 0.58415 0.85065 0.70979
 H456 H 0.65650 0.92740 0.75194
 O457 O 0.26170 0.56773 0.32506
 O458 O 0.19425 0.55519 0.24670
 O459 O 0.43467 0.67599 0.26056
 O460 O 0.44747 0.75574 0.19325
 O461 O 0.32591 0.74052 0.43351
 O462 O 0.24202 0.81181 0.44221
 O463 O 0.23968 0.82475 0.06598
 O464 O 0.31645 0.75581 0.06004
 O465 O 0.06868 0.75356 0.17432
 O466 O 0.05881 0.68883 0.25343
 O467 O 0.17742 0.93464 0.24142
 O468 O 0.24954 0.94005 0.31480
 O469 O 0.24545 0.90388 0.14324
 O470 O 0.33574 0.92851 0.23921
 O471 O 0.09865 0.85695 0.24338
 O472 O 0.07498 0.76167 0.33514
 O473 O 0.14543 0.74832 0.09435
 O474 O 0.24674 0.66559 0.07165
 O475 O 0.24810 0.64358 0.40508
 O476 O 0.16565 0.74080 0.42744
 O477 O 0.40584 0.75412 0.35766
 O478 O 0.42633 0.83808 0.25764
 O479 O 0.35881 0.59620 0.24678
 O480 O 0.25914 0.57455 0.16366
 Zr481 Zr 0.25997 0.63414 0.24809
 O482 O 0.19058 0.68952 0.19471
 Zr483 Zr 0.36800 0.75283 0.25830
 O484 O 0.31197 0.80587 0.18860
 Zr485 Zr 0.24915 0.74254 0.36662
 O486 O 0.19584 0.81162 0.31027
 Zr487 Zr 0.24452 0.74869 0.13329
 O488 O 0.31510 0.69458 0.18878
 Zr489 Zr 0.13534 0.75742 0.25108
 O490 O 0.19054 0.68728 0.30568
 Zr491 Zr 0.25275 0.86669 0.24265
 O492 O 0.30733 0.81175 0.31336
 O493 O 0.31497 0.68735 0.31377
 O494 O 0.18733 0.81423 0.18542
 C495 C 0.25617 0.58302 0.38497
 C496 C 0.41931 0.61609 0.25513
 C497 C 0.38581 0.74578 0.41830
 C498 C 0.24021 0.88465 0.08196
 C499 C 0.08427 0.74829 0.11442
 C500 C 0.11765 0.91846 0.24027
 H501 H 0.16138 0.65916 0.17082
 H502 H 0.17117 0.84113 0.33966
 H503 H 0.34294 0.65927 0.34186
 H504 H 0.34139 0.83071 0.15920
 H505 H 0.35204 0.72529 0.07260
 H506 H 0.42982 0.74359 0.14981
 H507 H 0.06373 0.80808 0.34327
 H508 H 0.14387 0.69801 0.42096
 H509 H 0.20167 0.64847 0.06766
 H510 H 0.30325 0.57700 0.14387
 H511 H 0.28274 0.92835 0.34828
 H512 H 0.26659 0.85078 0.42737
 H513 H 0.15055 0.57388 0.25571
 H514 H 0.07426 0.65163 0.28059
 H515 H 0.42330 0.85790 0.30178
 H516 H 0.34493 0.93884 0.19273
 O517 O 0.73971 0.39584 0.35040
 O518 O 0.81324 0.41892 0.25015
 O519 O 0.56275 0.32613 0.24529
 O520 O 0.56143 0.25171 0.16441
 O521 O 0.63718 0.23300 0.41030
 O522 O 0.73077 0.15847 0.43598
 O523 O 0.75119 0.13983 0.08921
 O524 O 0.66319 0.21957 0.06187
 O525 O 0.89646 0.23902 0.15011
 O526 O 0.92213 0.30991 0.25448
 O527 O 0.82499 0.06322 0.25614
 O528 O 0.72479 0.05873 0.33095
 O529 O 0.74426 0.05999 0.16616
 O530 O 0.65570 0.05719 0.24973
 O531 O 0.89978 0.14385 0.24392
 O532 O 0.93262 0.23222 0.30989
 O533 O 0.81995 0.24208 0.06981
 O534 O 0.73747 0.31415 0.06681
 O535 O 0.73620 0.31857 0.42990
 O536 O 0.80845 0.22611 0.43579
 O537 O 0.55875 0.23826 0.33130
 O538 O 0.55869 0.15592 0.24548
 O539 O 0.64441 0.40096 0.24665
 O540 O 0.73434 0.43685 0.19617
 Zr541 Zr 0.73455 0.35197 0.25541
 O542 O 0.79354 0.29773 0.19040
 Zr543 Zr 0.61931 0.23946 0.24898
 O544 O 0.67599 0.17741 0.18942
 Zr545 Zr 0.73170 0.23632 0.36746
 O546 O 0.79468 0.17833 0.31011
 Zr547 Zr 0.73835 0.23369 0.13193
 O548 O 0.67845 0.29691 0.18836
 Zr549 Zr 0.85169 0.23469 0.24537
 O550 O 0.79706 0.29374 0.31163
 Zr551 Zr 0.73791 0.11961 0.24872
 O552 O 0.67514 0.17548 0.30830
 O553 O 0.67238 0.29861 0.31336
 O554 O 0.79938 0.17279 0.18595
 C555 C 0.74148 0.37838 0.41188
 C556 C 0.58322 0.38557 0.24330
 C557 C 0.57642 0.23345 0.39121
 C558 C 0.75180 0.07845 0.10700
 C559 C 0.87967 0.24378 0.08838
 C560 C 0.88452 0.08305 0.25192
 H561 H 0.81917 0.32868 0.16337
 H562 H 0.82271 0.15199 0.33969
 H563 H 0.64434 0.32705 0.34080
 H564 H 0.64817 0.15001 0.16096
 H565 H 0.63199 0.25638 0.06602
 H566 H 0.55907 0.20926 0.14126
 H567 H 0.91763 0.21082 0.35072
 H568 H 0.84263 0.25779 0.42261
 H569 H 0.70007 0.34244 0.07887
 H570 H 0.73351 0.42129 0.15030
 H571 H 0.76384 0.06326 0.35932
 H572 H 0.69225 0.13080 0.42622
 H573 H 0.84301 0.40831 0.28708
 H574 H 0.91745 0.33896 0.21582
 H575 H 0.56496 0.13065 0.28656
 H576 H 0.63608 0.05448 0.20541
   
