data_POSCAR
  _audit_creation_date              2014-09-24
  _audit_creation_method            'ToBaCCo'
  _symmetry_space_group_name_H-M    'P1'
  _symmetry_Int_Tables_number       1
  _symmetry_cell_setting            triclinic
  loop_
  _symmetry_equiv_pos_as_xyz
 x,y,z
_cell_length_a 17.9136
_cell_length_b 18.3811
_cell_length_c 17.6962
_cell_angle_alpha 90.148100
_cell_angle_beta 90.218500
_cell_angle_gamma 89.983700
loop_
  _atom_site_label
  _atom_site_type_symbol
  _atom_site_fract_x
  _atom_site_fract_y
  _atom_site_fract_z
C1 C 0.65454 0.98038 -0.43215
 C2 C 0.69291 0.98707 -0.50090
 C3 C 0.65628 1.00268 -0.56951
 C4 C 0.57894 1.01792 -0.56742
 C5 C 0.53830 1.00235 -0.50094
 C6 C 0.57579 0.97993 -0.43427
 C7 C 0.53326 0.95459 -0.37325
 C8 C 0.45647 0.96168 -0.37326
 C9 C 0.41924 0.99341 -0.43481
 C10 C 0.45976 1.00985 -0.50086
 C11 C 0.54157 1.05242 -0.62748
 C12 C 0.46469 1.06010 -0.62715
 C13 C 0.42204 1.03366 -0.56678
 C14 C 0.34301 1.03415 -0.56839
 C15 C 0.30477 1.02599 -0.49951
 C16 C 0.34218 1.00694 -0.43294
 H17 H 0.55830 0.92682 -0.32578
 H18 H 0.42672 0.94060 -0.32500
 H19 H 0.57109 1.07687 -0.67400
 H20 H 0.43962 1.08955 -0.67354
 H21 H 0.75300 0.98095 -0.50079
 H22 H 0.24454 1.03131 -0.49754
 C23 C -0.57032 1.34617 -0.01021
 C24 C -0.50227 1.30846 -0.00240
 C25 C -0.43342 1.34456 0.00642
 C26 C -0.43376 1.42157 0.01304
 C27 C -0.50068 1.46115 -0.00040
 C28 C -0.56840 1.42319 -0.01475
 C29 C -0.63128 1.46324 -0.03695
 C30 C -0.63036 1.53875 -0.03725
 C31 C -0.56727 1.57832 -0.01298
 C32 C -0.49991 1.53899 0.00056
 C33 C -0.37014 1.46003 0.03632
 C34 C -0.36944 1.53554 0.03819
 C35 C -0.43177 1.57670 0.01503
 C36 C -0.42949 1.65414 0.01028
 C37 C -0.49841 1.69134 0.00272
 C38 C -0.56804 1.65573 -0.00600
 H39 H -0.68131 1.43680 -0.05739
 H40 H -0.67925 1.56481 -0.06023
 H41 H -0.32075 1.43238 0.05646
 H42 H -0.31997 1.56038 0.06150
 H43 H -0.50294 1.24954 -0.00320
 H44 H -0.49784 1.75020 0.00353
 C45 C -0.01212 0.34427 0.42980
 C46 C -0.00590 0.30727 0.49924
 C47 C 0.00401 0.34278 0.56929
 C48 C 0.01351 0.41971 0.56852
 C49 C 0.00019 0.45918 0.50066
 C50 C -0.01570 0.42159 0.43194
 C51 C -0.03858 0.46266 0.36901
 C52 C -0.03560 0.53805 0.36975
 C53 C -0.01053 0.57613 0.43375
 C54 C 0.00333 0.53682 0.50135
 C55 C 0.04077 0.45824 0.63158
 C56 C 0.04439 0.53365 0.63198
 C57 C 0.02074 0.57472 0.56945
 C58 C 0.01912 0.65229 0.57091
 C59 C 0.01223 0.68894 0.50122
 C60 C -0.00155 0.65257 0.43284
 H61 H -0.06217 0.43775 0.31915
 H62 H -0.05533 0.56595 0.31989
 H63 H 0.06368 0.43104 0.68032
 H64 H 0.06977 0.55860 0.68096
 H65 H -0.00841 0.24850 0.49872
 H66 H 0.01569 0.74774 0.49973
 O67 O -0.19223 0.99583 -0.10461
 O68 O 0.19067 0.99729 -0.10325
 O69 O -0.00375 1.09288 -0.19322
 O70 O 0.00525 0.90064 -0.19143
 O71 O 0.00574 0.80844 -0.10321
 O72 O -0.00497 1.18667 -0.10631
 O73 O 0.09642 0.99315 -0.19190
 O74 O -0.09792 0.99538 -0.19245
 Zr75 Zr -0.00071 0.99719 -0.12890
 O76 O 0.06816 0.93180 -0.06621
 O77 O -0.06960 1.06467 -0.06857
 C78 C -0.16715 0.99432 -0.17347
 C79 C 0.16557 0.99332 -0.17215
 C80 C -0.00497 1.16115 -0.17506
 C81 C 0.00808 0.83286 -0.17227
 H82 H 0.09706 1.09534 -0.10109
 O83 O 0.06587 1.06542 -0.06731
 H84 H -0.09787 0.89819 -0.09901
 O85 O -0.06687 0.92987 -0.06636
 O86 O 0.19087 1.00839 0.10456
 O87 O -0.19184 0.99483 0.10319
 O88 O 0.10197 1.18874 -0.00052
 O89 O 0.10746 0.81129 -0.00013
 O90 O -0.10288 0.80852 0.00387
 O91 O -0.10740 1.18623 -0.00331
 O92 O -0.00100 1.09627 0.19134
 O93 O -0.00293 0.90386 0.19308
 O94 O -0.00097 1.18862 0.10322
 O95 O 0.00062 0.81037 0.10593
 O96 O 0.19144 1.09786 -0.00185
 O97 O -0.19469 1.09340 -0.00144
 O98 O -0.19187 0.89987 0.00404
 O99 O 0.19427 0.90454 -0.00085
 O100 O 0.09663 1.00682 0.19241
 O101 O -0.09710 0.99627 0.19123
 Zr102 Zr 0.13114 1.00044 0.00048
 Zr103 Zr -0.13189 0.99708 -0.00059
 Zr104 Zr -0.00212 1.13018 -0.00129
 Zr105 Zr 0.00167 0.86689 0.00114
 Zr106 Zr -0.00010 0.99959 0.12864
 O107 O -0.06708 0.93121 0.06730
 O108 O 0.06657 1.06755 0.06685
 C109 C 0.16560 1.01181 0.17329
 C110 C -0.16638 0.99471 0.17211
 C111 C 0.17106 1.16542 -0.00218
 C112 C 0.17591 0.83640 -0.00157
 C113 C -0.17195 0.83224 0.00574
 C114 C -0.17590 1.16146 -0.00206
 C115 C -0.00132 1.16418 0.17234
 C116 C -0.00272 0.83567 0.17462
 H117 H -0.10055 1.09504 0.09855
 O118 O -0.06833 1.06501 0.06572
 H119 H 0.10103 0.90401 0.10183
 O120 O 0.06863 0.93296 0.06794
 N121 N 0.33200 1.01786 0.29589
 C122 C 0.30114 1.03566 0.36388
 N123 N 0.22653 1.04716 0.36657
 N124 N 0.18493 1.04111 0.30482
 C125 C 0.21568 1.02296 0.23746
 N126 N 0.29028 1.01197 0.23357
 N127 N -0.33321 0.99426 0.29351
 C128 C -0.30138 1.00139 0.36335
 N129 N -0.22601 1.00355 0.36798
 N130 N -0.18459 1.00081 0.30638
 C131 C -0.21622 0.99533 0.23697
 N132 N -0.29155 0.99181 0.23115
 N133 N -0.33375 0.99692 -0.29620
 C134 C -0.30349 0.97878 -0.36438
 N135 N -0.22922 0.96546 -0.36725
 N136 N -0.18741 0.96962 -0.30557
 C137 C -0.21756 0.98756 -0.23795
 N138 N -0.29180 1.00081 -0.23383
 N139 N 0.32473 1.02789 -0.29636
 C140 C 0.29884 1.00020 -0.36291
 N141 N 0.23133 0.96740 -0.36458
 N142 N 0.19095 0.96281 -0.30214
 C143 C 0.21664 0.99016 -0.23564
 N144 N 0.28432 1.02293 -0.23353
 N145 N 0.36016 1.23358 -0.03995
 C146 C 0.35883 1.30251 -0.01256
 N147 N 0.29353 1.32764 0.01740
 N148 N 0.23229 1.28591 0.01907
 C149 C 0.23440 1.21682 -0.00832
 N150 N 0.29956 1.19186 -0.03769
 N151 N 0.37039 0.77255 -0.01595
 C152 C 0.36540 0.69940 -0.00627
 N153 N 0.29598 0.67122 0.00637
 N154 N 0.23497 0.71334 0.00716
 C155 C 0.24087 0.78618 -0.00382
 N156 N 0.30994 0.81463 -0.01487
 N157 N -0.36591 0.76926 0.02434
 C158 C -0.36213 0.69648 0.01169
 N159 N -0.29326 0.66771 -0.00312
 N160 N -0.23168 0.70910 -0.00378
 C161 C -0.23653 0.78171 0.00976
 N162 N -0.30500 0.81052 0.02348
 N163 N -0.29715 1.32468 -0.01974
 C164 C -0.36345 1.29935 0.00742
 N165 N -0.36640 1.22928 0.03107
 N166 N -0.30626 1.18685 0.02842
 C167 C -0.23999 1.21224 0.00228
 N168 N -0.23640 1.28230 -0.02169
 N169 N -0.02313 1.22857 0.36690
 C170 C -0.01236 1.30153 0.36225
 N171 N 0.00295 1.32975 0.29270
 N172 N 0.00593 1.28739 0.23116
 C173 C -0.00527 1.21458 0.23707
 N174 N -0.01977 1.18635 0.30611
 N175 N 0.00887 1.22560 -0.37028
 C176 C 0.00297 1.29906 -0.36405
 N177 N -0.00780 1.32730 -0.29353
 N178 N -0.01046 1.28451 -0.23257
 C179 C -0.00356 1.21126 -0.23992
 N180 N 0.00586 1.18293 -0.30998
 N181 N 0.00513 0.66724 -0.29224
 C182 C 0.02081 0.69521 -0.36180
 N183 N 0.03263 0.76801 -0.36660
 N184 N 0.02959 0.81035 -0.30579
 C185 C 0.01439 0.78234 -0.23674
 N186 N 0.00237 0.70969 -0.23081
 N187 N 0.02105 0.67325 0.29529
 C188 C -0.00612 0.69744 0.36265
 N189 N -0.03290 0.76640 0.36646
 N190 N -0.03280 0.80916 0.30596
 C191 C -0.00635 0.78489 0.23870
 N192 N 0.02044 0.71590 0.23425
   
