data_POSCAR
  _audit_creation_date              2014-09-24
  _audit_creation_method            'ToBaCCo'
  _symmetry_space_group_name_H-M    'P1'
  _symmetry_Int_Tables_number       1
  _symmetry_cell_setting            triclinic
  loop_
  _symmetry_equiv_pos_as_xyz
 x,y,z
_cell_length_a 16.2021
_cell_length_b 27.0019
_cell_length_c 16.3286
_cell_angle_alpha 90.225200
_cell_angle_beta 89.750600
_cell_angle_gamma 89.857500
loop_
  _atom_site_label
  _atom_site_type_symbol
  _atom_site_fract_x
  _atom_site_fract_y
  _atom_site_fract_z
N1 N 0.14368 0.05271 0.08714
 N2 N 0.19264 0.09138 0.09557
 N3 N 0.08680 -0.05127 0.14510
 N4 N 0.09487 -0.08981 0.19398
 N5 N 0.14462 -0.05157 0.08843
 N6 N 0.19361 -0.09033 0.09718
 N7 N 0.08593 0.05297 0.14382
 N8 N 0.09393 0.09181 0.19244
 C9 C 0.16089 0.11508 0.16165
 C10 C 0.16195 -0.11348 0.16348
 N11 N -0.14770 -0.05198 0.08736
 N12 N -0.19612 -0.09089 0.09584
 N13 N -0.09166 0.05293 0.14305
 N14 N -0.09972 0.09250 0.19030
 N15 N -0.14867 0.05221 0.08618
 N16 N -0.19942 0.09374 0.09430
 N17 N -0.09088 -0.05139 0.14449
 N18 N -0.09902 -0.08987 0.19344
 Mn19 Mn -0.00248 0.00081 0.14512
 C20 C -0.16512 -0.11378 0.16247
 C21 C -0.16599 0.11678 0.15991
 N22 N 0.14637 -0.05258 -0.08793
 N23 N 0.19745 -0.09394 -0.09592
 N24 N 0.08834 0.05089 -0.14648
 N25 N 0.09645 0.08948 -0.19530
 N26 N 0.14506 0.05155 -0.08922
 N27 N 0.19333 0.09056 -0.09753
 N28 N 0.08932 -0.05352 -0.14475
 N29 N 0.09769 -0.09309 -0.19192
 Mn30 Mn 0.14592 0.00003 -0.00037
 C31 C 0.16418 -0.11710 -0.16143
 C32 C 0.16243 0.11353 -0.16416
 N33 N -0.14705 0.05093 -0.09031
 N34 N -0.19576 0.08981 -0.09896
 N35 N -0.08855 -0.05400 -0.14542
 N36 N -0.09566 -0.09357 -0.19276
 N37 N -0.14653 -0.05323 -0.08900
 N38 N -0.19692 -0.09469 -0.09750
 N39 N -0.08941 0.05042 -0.14715
 N40 N -0.09727 0.08896 -0.19603
 Mn41 Mn -0.14846 -0.00050 -0.00145
 Mn42 Mn -0.00007 -0.00158 -0.14701
 Cl43 Cl -0.00127 -0.00031 -0.00095
 C44 C -0.16410 0.11279 -0.16537
 C45 C -0.16232 -0.11779 -0.16282
 N46 N 0.64715 0.55227 0.58816
 N47 N 0.69529 0.59141 0.59543
 N48 N 0.58962 0.44820 0.64512
 N49 N 0.59654 0.40882 0.69222
 N50 N 0.64688 0.44792 0.58799
 N51 N 0.69429 0.40834 0.59472
 N52 N 0.58984 0.55255 0.64526
 N53 N 0.59752 0.59189 0.69288
 C54 C 0.66386 0.61570 0.66130
 C55 C 0.66241 0.38441 0.66033
 N56 N 0.35469 0.44844 0.58930
 N57 N 0.30710 0.40906 0.59636
 N58 N 0.41212 0.55278 0.64614
 N59 N 0.40459 0.59209 0.69388
 N60 N 0.35480 0.55274 0.58958
 N61 N 0.30673 0.59202 0.59733
 N62 N 0.41199 0.44839 0.64592
 N63 N 0.40485 0.40897 0.69298
 Mn64 Mn 0.50090 0.50049 0.64670
 C65 C 0.33882 0.38487 0.66161
 C66 C 0.33829 0.61613 0.66293
 N67 N 0.64677 0.44749 0.41171
 N68 N 0.69457 0.40807 0.40387
 N69 N 0.58958 0.55183 0.35540
 N70 N 0.59652 0.59113 0.30816
 N71 N 0.64697 0.55187 0.41190
 N72 N 0.69449 0.59126 0.40460
 N73 N 0.58939 0.44758 0.35519
 N74 N 0.59664 0.40826 0.30741
 Mn75 Mn 0.64804 0.49988 0.49994
 C76 C 0.66280 0.38403 0.33824
 C77 C 0.66251 0.61527 0.33928
 N78 N 0.35481 0.55263 0.41340
 N79 N 0.30713 0.59210 0.40643
 N80 N 0.41191 0.44812 0.35603
 N81 N 0.40448 0.40884 0.30836
 N82 N 0.35462 0.44830 0.41311
 N83 N 0.30665 0.40911 0.40580
 N84 N 0.41211 0.55239 0.35630
 N85 N 0.40492 0.59167 0.30898
 Mn86 Mn 0.35365 0.50053 0.50136
 Mn87 Mn 0.50075 0.49998 0.35470
 Cl88 Cl 0.50084 0.50022 0.50069
 C89 C 0.33889 0.61602 0.34072
 C90 C 0.33828 0.38495 0.33989
 C91 C 0.24826 0.24614 0.24961
 C92 C 0.31586 0.26882 0.21172
 C93 C 0.34511 0.31416 0.24101
 C94 C 0.19215 0.16093 0.19304
 C95 C 0.23909 0.31426 0.34632
 C96 C 0.20993 0.26891 0.31693
 C97 C 0.21790 0.19969 0.21903
 C98 C 0.30691 0.33731 0.30854
 H99 H 0.34592 0.25148 0.15956
 H100 H 0.39763 0.33103 0.21091
 H101 H 0.20868 0.33121 0.39860
 H102 H 0.15753 0.25163 0.34664
 C103 C 0.74983 0.75472 0.25003
 C104 C 0.68250 0.73164 0.21265
 C105 C 0.65419 0.68609 0.24159
 C106 C 0.80430 0.84026 0.19381
 C107 C 0.76061 0.68656 0.34558
 C108 C 0.78884 0.73213 0.31651
 C109 C 0.77928 0.80137 0.21968
 C110 C 0.69306 0.66312 0.30828
 H111 H 0.65193 0.74882 0.16112
 H112 H 0.60185 0.66893 0.21188
 H113 H 0.79151 0.66975 0.39721
 H114 H 0.84106 0.74971 0.34583
 C115 C 0.75028 0.24456 0.74804
 C116 C 0.78898 0.26717 0.68119
 C117 C 0.76054 0.31285 0.65265
 C118 C 0.80526 0.15883 0.80343
 C119 C 0.65445 0.31341 0.75788
 C120 C 0.68299 0.26775 0.78631
 C121 C 0.78003 0.19780 0.77789
 C122 C 0.69305 0.33641 0.69084
 H123 H 0.84116 0.24953 0.65118
 H124 H 0.79125 0.32966 0.60073
 H125 H 0.60218 0.33066 0.78828
 H126 H 0.65264 0.25055 0.83814
 C127 C 0.24730 0.75520 0.75340
 C128 C 0.31496 0.73248 0.79092
 C129 C 0.34453 0.68705 0.76164
 C130 C 0.19151 0.84088 0.80979
 C131 C 0.23866 0.68690 0.65710
 C132 C 0.20919 0.73234 0.68649
 C133 C 0.21688 0.80187 0.78380
 C134 C 0.30659 0.66384 0.69447
 H135 H 0.34488 0.74989 0.84276
 H136 H 0.39710 0.67018 0.79142
 H137 H 0.20842 0.66991 0.60511
 H138 H 0.15677 0.74963 0.65703
 C139 C 0.24922 0.24529 0.74951
 C140 C 0.31673 0.26800 0.78737
 C141 C 0.34586 0.31355 0.75893
 C142 C 0.19327 0.15961 0.80469
 C143 C 0.23998 0.31387 0.65447
 C144 C 0.21095 0.26833 0.68302
 C145 C 0.21889 0.19857 0.77928
 C146 C 0.30768 0.33695 0.69224
 H147 H 0.34682 0.25051 0.83890
 H148 H 0.39826 0.33038 0.78902
 H149 H 0.20953 0.33097 0.60284
 H150 H 0.15865 0.25111 0.65326
 C151 C 0.75550 0.75456 0.75142
 C152 C 0.79343 0.73157 0.68405
 C153 C 0.76377 0.68624 0.65477
 C154 C 0.81106 0.84019 0.80796
 C155 C 0.65802 0.68671 0.76026
 C156 C 0.68776 0.73202 0.78942
 C157 C 0.78599 0.80120 0.78177
 C158 C 0.69578 0.66336 0.69266
 H159 H 0.84587 0.74867 0.65414
 H160 H 0.79392 0.66918 0.60245
 H161 H 0.60542 0.67003 0.79049
 H162 H 0.65790 0.74948 0.84159
 C163 C 0.24923 0.75525 0.25132
 C164 C 0.21082 0.73270 0.31844
 C165 C 0.23988 0.68727 0.34754
 C166 C 0.19314 0.84062 0.19500
 C167 C 0.34602 0.68677 0.24242
 C168 C 0.31688 0.73220 0.21342
 C169 C 0.21886 0.80181 0.22091
 C170 C 0.30770 0.66384 0.30970
 H171 H 0.15840 0.75021 0.34821
 H172 H 0.20934 0.67053 0.39963
 H173 H 0.39854 0.66965 0.21225
 H174 H 0.34705 0.74931 0.16142
 C175 C 0.75228 0.24470 0.24639
 C176 C 0.68469 0.26780 0.20936
 C177 C 0.65567 0.31327 0.23914
 C178 C 0.80702 0.15887 0.18897
 C179 C 0.76188 0.31276 0.34326
 C180 C 0.79081 0.26727 0.31338
 C181 C 0.78212 0.19794 0.21540
 C182 C 0.69404 0.33621 0.30635
 H183 H 0.65438 0.25066 0.15750
 H184 H 0.60316 0.33039 0.20965
 H185 H 0.79246 0.32951 0.39527
 H186 H 0.84317 0.24972 0.34251
   
