data_POSCAR
  _audit_creation_date              2014-09-24
  _audit_creation_method            'ToBaCCo'
  _symmetry_space_group_name_H-M    'P1'
  _symmetry_Int_Tables_number       1
  _symmetry_cell_setting            triclinic
  loop_
  _symmetry_equiv_pos_as_xyz
 x,y,z
_cell_length_a 28.1254
_cell_length_b 28.7727
_cell_length_c 23.3303
_cell_angle_alpha 91.265400
_cell_angle_beta 88.222200
_cell_angle_gamma 119.915300
loop_
  _atom_site_label
  _atom_site_type_symbol
  _atom_site_fract_x
  _atom_site_fract_y
  _atom_site_fract_z
O1 O 0.00110 0.53723 -0.08269
 O2 O 0.05642 0.48411 0.02244
 O3 O 0.00251 0.44723 -0.07110
 O4 O 0.05880 0.57342 0.01153
 O5 O -0.01818 0.54033 0.06323
 O6 O -0.07512 0.41445 -0.02061
 O7 O -0.02139 0.45042 0.07292
 O8 O -0.07582 0.50529 -0.03117
 Cu9 Cu 0.03714 0.51405 -0.03584
 Cu10 Cu -0.05589 0.47466 0.02542
 C11 C -0.04689 0.53010 -0.07484
 C12 C 0.02720 0.45889 0.06594
 C13 C -0.04504 0.40891 -0.05866
 C14 C 0.03099 0.57698 0.05359
 O15 O 0.51364 0.58627 0.02426
 O16 O 0.46669 0.47363 -0.07773
 O17 O 0.42699 0.49499 0.01717
 O18 O 0.55621 0.56728 -0.06726
 O19 O 0.59318 0.53092 -0.01503
 O20 O 0.46382 0.45767 0.06816
 O21 O 0.50424 0.43747 -0.02611
 O22 O 0.55035 0.54973 0.07677
 Cu23 Cu 0.48699 0.53362 -0.03191
 Cu24 Cu 0.53158 0.48987 0.03063
 C25 C 0.53861 0.58631 0.06871
 C26 C 0.47789 0.43676 -0.06966
 C27 C 0.42460 0.46614 0.05888
 C28 C 0.59695 0.56224 -0.05452
 O29 O 0.54951 1.01957 0.08261
 O30 O 0.49963 1.07681 -0.02389
 O31 O 0.45835 1.01715 0.06945
 O32 O 0.59003 1.07265 -0.01123
 O33 O 0.55692 0.99791 -0.06251
 O34 O 0.42566 0.94316 0.01694
 O35 O 0.46724 1.00250 -0.07572
 O36 O 0.51609 0.94457 0.03159
 Cu37 Cu 0.52731 1.05450 0.03364
 Cu38 Cu 0.48800 0.96486 -0.02821
 C39 C 0.54032 0.97197 0.07580
 C40 C 0.47577 1.04986 -0.06825
 C41 C 0.42094 0.96941 0.05898
 C42 C 0.59609 1.04387 -0.04954
 O43 O 1.06568 0.56531 0.46803
 O44 O 1.00423 0.45762 0.57481
 O45 O 1.06141 0.47283 0.48060
 O46 O 1.00613 0.54652 0.56331
 O47 O 0.93034 0.50661 0.51317
 O48 O 0.98517 0.43219 0.43130
 O49 O 0.92780 0.41799 0.52556
 O50 O 0.98999 0.52492 0.41790
 Cu51 Cu 1.04249 0.51523 0.52595
 Cu52 Cu 0.95109 0.46682 0.46612
 C53 C 1.03853 0.56322 0.42462
 C54 C 0.95494 0.42044 0.56922
 C55 C 1.03202 0.43902 0.44288
 C56 C 0.95767 0.53668 0.55446
 O57 O 0.54376 0.54322 0.42764
 O58 O 0.48430 0.42363 0.51898
 O59 O 0.45576 0.45022 0.42439
 O60 O 0.57096 0.51661 0.52284
 O61 O 0.52652 0.54936 0.57354
 O62 O 0.41071 0.48206 0.47545
 O63 O 0.43983 0.45587 0.57046
 O64 O 0.49895 0.57545 0.47851
 Cu65 Cu 0.51814 0.48021 0.46825
 Cu66 Cu 0.46423 0.51874 0.52947
 C67 C 0.53081 0.57915 0.43683
 C68 C 0.45353 0.42040 0.56150
 C69 C 0.41418 0.45594 0.43244
 C70 C 0.56781 0.54313 0.56565
 O71 O 0.57077 0.06092 0.53287
 O72 O 0.46379 -0.00045 0.42442
 O73 O 0.48003 0.05777 0.51855
 O74 O 0.55770 0.00376 0.44075
 O75 O 0.51488 -0.07033 0.49188
 O76 O 0.43745 -0.01605 0.57020
 O77 O 0.42108 -0.07432 0.47583
 O78 O 0.52877 -0.01319 0.58421
 Cu79 Cu 0.52182 0.03753 0.47320
 Cu80 Cu 0.47064 -0.05135 0.53504
 C81 C 0.56731 0.03483 0.57759
 C82 C 0.42456 -0.04796 0.43138
 C83 C 0.44826 0.03140 0.56002
 C84 C 0.55022 -0.04197 0.45389
 C85 C 0.06350 0.43328 0.28760
 C86 C 0.06959 0.44661 0.23060
 C87 C 0.10994 0.43682 0.20760
 N88 N 0.12936 0.41928 0.24927
 C89 C 0.10161 0.41769 0.29823
 C90 C 0.12709 0.44161 0.14904
 C91 C 0.17223 0.43633 0.12987
 C92 C 0.18302 0.42939 0.07291
 C93 C 0.23260 0.43060 0.07097
 C94 C 0.25076 0.43861 0.12672
 N95 N 0.21378 0.44210 0.16240
 C96 C 0.30301 0.44833 0.14200
 C97 C 0.31893 0.45284 0.19965
 C98 C 0.37262 0.47973 0.21769
 C99 C 0.37044 0.47600 0.27628
 C100 C 0.31541 0.44625 0.29214
 N101 N 0.28397 0.43211 0.24516
 C102 C 0.29470 0.43174 0.34893
 C103 C 0.23885 0.41049 0.36343
 C104 C 0.21412 0.38372 0.41381
 C105 C 0.16074 0.37343 0.41374
 C106 C 0.15490 0.39514 0.36374
 N107 N 0.20279 0.41769 0.33335
 C108 C 0.10841 0.39929 0.35132
 H109 H 0.03485 0.43594 0.31754
 H110 H 0.04681 0.46221 0.20969
 H111 H 0.21282 0.44302 0.29855
 H112 H 0.15817 0.42488 0.03641
 H113 H 0.25370 0.42762 0.03268
 H114 H 0.40958 0.50168 0.19179
 H115 H 0.40561 0.49460 0.30361
 H116 H 0.13038 0.35417 0.44776
 H117 H 0.22005 0.45508 0.20475
 H118 H 0.23288 0.37341 0.44738
 C119 C 0.50706 0.62702 0.28548
 C120 C 0.50614 0.62717 0.22679
 C121 C 0.53473 0.68035 0.21033
 N122 N 0.55365 0.71275 0.25678
 C123 C 0.53684 0.68018 0.30282
 C124 C 0.54344 0.69821 0.15313
 C125 C 0.55425 0.74974 0.13813
 C126 C 0.56587 0.76939 0.08275
 C127 C 0.56762 0.81806 0.08464
 C128 C 0.55763 0.82690 0.14124
 N129 N 0.54914 0.78493 0.17355
 C130 C 0.55282 0.87121 0.16026
 C131 C 0.55664 0.88673 0.21897
 C132 C 0.54866 0.92731 0.24195
 C133 C 0.56054 0.93126 0.29916
 C134 C 0.57341 0.89177 0.30995
 N135 N 0.57164 0.86516 0.26087
 C136 C 0.58976 0.88271 0.36336
 C137 C 0.59061 0.83546 0.37632
 C138 C 0.61006 0.82741 0.42693
 C139 C 0.59735 0.77453 0.42691
 C140 C 0.57137 0.75224 0.37594
 N141 N 0.56684 0.78931 0.34563
 C142 C 0.54982 0.69810 0.36007
 H143 H 0.48697 0.59168 0.31200
 H144 H 0.48512 0.59215 0.19963
 H145 H 0.54284 0.78152 0.30989
 H146 H 0.57098 0.74996 0.04469
 H147 H 0.57489 0.84382 0.04839
 H148 H 0.53541 0.95178 0.22086
 H149 H 0.55883 0.95960 0.32908
 H150 H 0.60596 0.75467 0.46058
 H151 H 0.53366 0.77760 0.21535
 H152 H 0.62970 0.85616 0.46122
 C153 C 0.10228 0.61645 0.20502
 C154 C 0.10357 0.61347 0.26345
 C155 C 0.13042 0.66576 0.28395
 N156 N 0.14557 0.70058 0.23996
 C157 C 0.12842 0.67046 0.19161
 C158 C 0.14050 0.68091 0.34235
 C159 C 0.18102 0.73243 0.35992
 C160 C 0.18737 0.75109 0.41600
 C161 C 0.23538 0.79971 0.41695
 C162 C 0.25680 0.80921 0.36142
 N163 N 0.22343 0.76807 0.32691
 C164 C 0.30899 0.85166 0.34562
 C165 C 0.32606 0.86451 0.28760
 C166 C 0.38001 0.89400 0.26811
 C167 C 0.37846 0.89714 0.20972
 C168 C 0.32361 0.86942 0.19528
 N169 N 0.29159 0.84952 0.24299
 C170 C 0.30415 0.86256 0.13870
 C171 C 0.25170 0.82133 0.12299
 C172 C 0.22965 0.81610 0.06935
 C173 C 0.18189 0.76713 0.06832
 C174 C 0.17629 0.74400 0.12135
 N175 N 0.21887 0.77733 0.15441
 C176 C 0.13623 0.69101 0.13541
 H177 H 0.08589 0.58249 0.17588
 H178 H 0.08846 0.57678 0.28736
 H179 H 0.22916 0.76727 0.19264
 H180 H 0.16110 0.73089 0.45271
 H181 H 0.25344 0.82440 0.45454
 H182 H 0.41702 0.90968 0.29254
 H183 H 0.41407 0.91575 0.18127
 H184 H 0.15535 0.74969 0.03205
 H185 H 0.23324 0.76093 0.28564
 H186 H 0.24723 0.84382 0.03398
 C187 C 0.62555 0.55999 0.72967
 C188 C 0.63310 0.57137 0.78729
 C189 C 0.68632 0.58408 0.79801
 N190 N 0.71211 0.58282 0.74864
 C191 C 0.67523 0.56814 0.70650
 C192 C 0.71150 0.59946 0.85183
 C193 C 0.76033 0.59955 0.86420
 C194 C 0.78811 0.61825 0.91516
 C195 C 0.82892 0.60494 0.91409
 C196 C 0.82534 0.57937 0.86214
 N197 N 0.78323 0.57574 0.83223
 C198 C 0.85787 0.55664 0.84550
 C199 C 0.86341 0.54391 0.78770
 C200 C 0.88596 0.51283 0.76902
 C201 C 0.88549 0.51241 0.71025
 C202 C 0.86199 0.54259 0.69503
 N203 N 0.84870 0.56199 0.74233
 C204 C 0.85294 0.55150 0.63814
 C205 C 0.81222 0.56384 0.62398
 C206 C 0.80350 0.57462 0.56896
 C207 C 0.75602 0.57744 0.57154
 C208 C 0.73755 0.56889 0.62820
 N209 N 0.77190 0.56046 0.65985
 C210 C 0.68737 0.56412 0.64760
 H211 H 0.58726 0.54687 0.70855
 H212 H 0.60228 0.56924 0.81765
 H213 H 0.76390 0.54571 0.70129
 H214 H 0.77868 0.63768 0.95037
 H215 H 0.85760 0.61271 0.94782
 H216 H 0.89994 0.49123 0.79452
 H217 H 0.89882 0.49045 0.68221
 H218 H 0.73667 0.58403 0.53565
 H219 H 0.76689 0.55217 0.79590
 H220 H 0.82774 0.57815 0.53064
 C221 C 0.48664 0.10693 0.76942
 C222 C 0.48098 0.10370 0.71110
 C223 C 0.45381 0.13106 0.69800
 N224 N 0.44262 0.15084 0.74645
 C225 C 0.46273 0.13613 0.79021
 C226 C 0.44030 0.13766 0.64191
 C227 C 0.42902 0.17837 0.62747
 C228 C 0.41104 0.18307 0.57443
 C229 C 0.41286 0.23186 0.57446
 C230 C 0.43193 0.25537 0.62749
 N231 N 0.44148 0.22245 0.65956
 C232 C 0.44604 0.30835 0.64233
 C233 C 0.46011 0.32913 0.69862
 C234 C 0.48897 0.38319 0.71264
 C235 C 0.49426 0.38634 0.77100
 C236 C 0.46839 0.33410 0.79079
 N237 N 0.44750 0.29914 0.74647
 C238 C 0.46371 0.31922 0.84896
 C239 C 0.45286 0.26808 0.86582
 C240 C 0.44133 0.24970 0.92173
 C241 C 0.44016 0.20125 0.92163
 C242 C 0.45094 0.19154 0.86565
 N243 N 0.45865 0.23245 0.83192
 C244 C 0.45966 0.14906 0.84860
 H245 H 0.50831 0.09154 0.79294
 H246 H 0.49734 0.08523 0.68179
 H247 H 0.47482 0.23940 0.79038
 H248 H 0.39980 0.15515 0.53875
 H249 H 0.40320 0.24896 0.53884
 H250 H 0.50646 0.41705 0.68393
 H251 H 0.51668 0.42311 0.79536
 H252 H 0.43382 0.17675 0.95878
 H253 H 0.46300 0.23288 0.69735
 H254 H 0.43606 0.26993 0.95898
 C255 C 0.62004 0.08363 0.74447
 C256 C 0.62965 0.07701 0.80028
 C257 C 0.68439 0.11342 0.80986
 N258 N 0.70858 0.14108 0.76141
 C259 C 0.66954 0.12296 0.72126
 C260 C 0.71309 0.11752 0.86017
 C261 C 0.76757 0.15845 0.86877
 C262 C 0.80079 0.15740 0.91077
 C263 C 0.84807 0.20651 0.90989
 C264 C 0.84232 0.23613 0.86741
 N265 N 0.79298 0.20668 0.84268
 C266 C 0.88013 0.29053 0.85653
 C267 C 0.88016 0.31577 0.80529
 C268 C 0.91339 0.36961 0.79269
 C269 C 0.90428 0.37568 0.73654
 C270 C 0.86666 0.32514 0.71630
 N271 N 0.85194 0.28882 0.75847
 C272 C 0.84903 0.31215 0.65907
 C273 C 0.80370 0.26278 0.64277
 C274 C 0.79087 0.24654 0.58627
 C275 C 0.74304 0.19800 0.58749
 C276 C 0.72802 0.18586 0.64469
 N277 N 0.76492 0.22583 0.67826
 C278 C 0.67956 0.13987 0.66339
 H279 H 0.58075 0.06184 0.72413
 H280 H 0.59939 0.04822 0.82958
 H281 H 0.76079 0.23035 0.72208
 H282 H 0.79135 0.12505 0.93999
 H283 H 0.88224 0.21941 0.93823
 H284 H 0.94174 0.40149 0.82020
 H285 H 0.92338 0.41325 0.71373
 H286 H 0.72159 0.17438 0.55040
 H287 H 0.77482 0.22097 0.81525
 H288 H 0.81347 0.26769 0.54807
 N289 N 0.04992 0.44185 0.10899
 N290 N 0.09997 0.45397 0.10564
 N291 N 0.55061 0.62590 0.11219
 N292 N 0.53678 0.66149 0.10729
 N293 N 0.37657 0.94288 0.09928
 N294 N 0.34186 0.89326 0.09336
 N295 N 0.93188 0.55496 0.59541
 N296 N 0.88145 0.54113 0.59199
 N297 N 0.43838 0.37942 0.60303
 N298 N 0.45262 0.34397 0.59672
 N299 N 0.60597 0.06037 0.62208
 N300 N 0.64017 0.11037 0.61987
 N301 N 0.46048 0.07372 0.88824
 N302 N 0.47011 0.12177 0.89324
 N303 N 0.64406 0.59107 0.91887
 N304 N 0.68912 0.61948 0.89543
 N305 N 0.93811 0.36213 0.91698
 N306 N 0.92392 0.31746 0.89625
 N307 N 0.58027 0.94036 0.42880
 N308 N 0.60955 0.92419 0.40628
 N309 N 0.37329 0.43664 0.38973
 N310 N 0.33172 0.44295 0.39503
 N311 N 0.06348 0.60316 0.38142
 N312 N 0.11212 0.64210 0.38669
 N313 N 0.93070 0.54805 0.88267
 N314 N 0.88390 0.54428 0.89003
 N315 N 0.46282 0.39553 0.88813
 N316 N 0.47402 0.35816 0.89356
 N317 N 0.64388 0.06104 0.92517
 N318 N 0.68934 0.07615 0.90258
 N319 N 0.04947 0.40950 0.41694
 N320 N 0.06510 0.38035 0.39401
 N321 N 0.54906 0.62185 0.39685
 N322 N 0.53877 0.65991 0.40445
 N323 N 0.38545 0.92744 0.38716
 N324 N 0.34654 0.87919 0.39121
 N325 N 0.55534 0.94833 0.11976
 N326 N 0.54244 0.89929 0.11647
 N327 N 0.37997 0.44713 0.09945
 N328 N 0.34316 0.46035 0.09661
 N329 N 0.05684 0.61941 0.09450
 N330 N 0.10729 0.65487 0.08920
 N331 N 0.43050 0.05769 0.60048
 N332 N 0.44673 0.10737 0.59572
 N333 N 0.60923 0.56287 0.60777
 N334 N 0.64723 0.55118 0.60435
 N335 N 0.92909 0.38244 0.61406
 N336 N 0.87773 0.34979 0.61385
   
