data_POSCAR
  _audit_creation_date              2014-09-24
  _audit_creation_method            'ToBaCCo'
  _symmetry_space_group_name_H-M    'P1'
  _symmetry_Int_Tables_number       1
  _symmetry_cell_setting            triclinic
  loop_
  _symmetry_equiv_pos_as_xyz
 x,y,z
_cell_length_a 23.6469
_cell_length_b 23.5973
_cell_length_c 27.3503
_cell_angle_alpha 89.973800
_cell_angle_beta 89.991300
_cell_angle_gamma 89.966200
loop_
  _atom_site_label
  _atom_site_type_symbol
  _atom_site_fract_x
  _atom_site_fract_y
  _atom_site_fract_z
B1 B 0.28075 0.23049 0.30113
 B2 B 0.21313 0.21429 0.28664
 B3 B 0.22971 0.28358 0.29922
 B4 B 0.29561 0.29557 0.27627
 B5 B 0.31708 0.23555 0.24883
 B6 B 0.26589 0.18575 0.25408
 B7 B 0.22194 0.27181 0.19965
 B8 B 0.29105 0.28739 0.21399
 B9 B 0.27362 0.21952 0.20122
 B10 B 0.20744 0.20719 0.22444
 B11 B 0.18615 0.26714 0.25281
 B12 B 0.23750 0.31717 0.24527
 B13 B 0.72101 0.77004 0.30000
 B14 B 0.78844 0.78689 0.28502
 B15 B 0.77251 0.71743 0.29741
 B16 B 0.70653 0.70500 0.27492
 B17 B 0.68422 0.76497 0.24792
 B18 B 0.73501 0.81523 0.25306
 B19 B 0.77916 0.73010 0.19771
 B20 B 0.71045 0.71357 0.21264
 B21 B 0.72701 0.78182 0.20009
 B22 B 0.79339 0.79456 0.22281
 B23 B 0.81570 0.73446 0.25067
 B24 B 0.76461 0.68417 0.24342
 B25 B 0.72545 0.21950 -0.20101
 B26 B 0.70806 0.28737 -0.21417
 B27 B 0.77709 0.27190 -0.19935
 B28 B 0.79181 0.20714 -0.22387
 B29 B 0.73358 0.18559 -0.25380
 B30 B 0.68229 0.23524 -0.24891
 B31 B 0.76987 0.28330 -0.29900
 B32 B 0.78650 0.21406 -0.28614
 B33 B 0.71894 0.23019 -0.30103
 B34 B 0.70381 0.29532 -0.27641
 B35 B 0.76176 0.31704 -0.24521
 B36 B 0.81322 0.26700 -0.25235
 B37 B 0.27973 0.77007 -0.30179
 B38 B 0.21184 0.78480 -0.28596
 B39 B 0.22972 0.71614 -0.29884
 B40 B 0.29670 0.70567 -0.27728
 B41 B 0.31761 0.76664 -0.24997
 B42 B 0.26462 0.81442 -0.25489
 B43 B 0.22508 0.72742 -0.19876
 B44 B 0.29347 0.71349 -0.21521
 B45 B 0.27458 0.78149 -0.20196
 B46 B 0.20767 0.79179 -0.22356
 B47 B 0.18692 0.73121 -0.25115
 B48 B 0.23986 0.68280 -0.24538
 B49 B 1.21933 1.27313 0.79925
 B50 B 1.28640 1.29031 0.78470
 B51 B 1.27204 1.22162 0.80104
 B52 B 1.20668 1.20584 0.77848
 B53 B 1.18416 1.26308 0.74729
 B54 B 1.23378 1.31467 0.74993
 B55 B 1.28056 1.22549 0.70162
 B56 B 1.21178 1.20920 0.71615
 B57 B 1.22746 1.27643 0.69917
 B58 B 1.29303 1.29258 0.72222
 B59 B 1.31544 1.23580 0.75449
 B60 B 1.26559 1.18358 0.74953
 B61 B 0.77237 0.72315 0.69932
 B62 B 0.78815 0.79043 0.71594
 B63 B 0.71932 0.77409 0.70169
 B64 B 0.70690 0.70718 0.72256
 B65 B 0.76607 0.68510 0.75020
 B66 B 0.81589 0.73665 0.74729
 B67 B 0.72835 0.77841 0.80113
 B68 B 0.71374 0.70964 0.78502
 B69 B 0.78085 0.72676 0.79933
 B70 B 0.79353 0.79402 0.77825
 B71 B 0.73448 0.81620 0.74940
 B72 B 0.68470 0.76406 0.75468
 B73 B 1.22662 0.72370 0.30208
 B74 B 1.21181 0.79135 0.28470
 B75 B 1.28012 0.77406 0.29883
 B76 B 1.29139 0.70641 0.27873
 B77 B 1.23123 0.68451 0.25121
 B78 B 1.18323 0.73773 0.25472
 B79 B 1.27064 0.77638 0.19899
 B80 B 1.28473 0.70844 0.21653
 B81 B 1.21687 0.72619 0.20240
 B82 B 1.20583 0.79389 0.22231
 B83 B 1.26561 0.81577 0.25025
 B84 B 1.31412 0.76266 0.24611
 B85 B 0.77216 1.27685 0.30118
 B86 B 0.78846 1.20977 0.28422
 B87 B 0.71956 1.22545 0.29886
 B88 B 0.70635 1.29234 0.27832
 B89 B 0.76527 1.31507 0.25043
 B90 B 0.81543 1.26400 0.25296
 B91 B 0.72799 1.22157 0.19941
 B92 B 0.71259 1.29010 0.21592
 B93 B 0.77982 1.27376 0.20106
 B94 B 0.79351 1.20656 0.22186
 B95 B 0.73489 1.18363 0.25096
 B96 B 0.68451 1.23530 0.24608
 O97 O 0.43960 1.10335 0.04185
 O98 O 0.56013 0.89621 0.04036
 O99 O 0.38635 0.93152 0.02559
 O100 O 0.61319 1.06779 0.02552
 O101 O 0.46191 0.90275 0.05767
 O102 O 0.53837 1.09508 0.05928
 O103 O 0.59803 0.97490 0.06200
 O104 O 0.39960 1.02501 0.06210
 C105 C 0.40536 1.07672 0.06853
 C106 C 0.59295 0.92315 0.06807
 C107 C 0.40949 0.90393 0.05822
 C108 C 0.59083 1.09380 0.05928
 O109 O 0.56055 1.10389 -0.04014
 O110 O 0.43856 0.89648 -0.04109
 O111 O 0.38694 1.06852 -0.02531
 O112 O 0.61261 0.93195 -0.02569
 O113 O 0.53754 0.90460 -0.05902
 O114 O 0.46235 1.09770 -0.05720
 O115 O 0.59805 1.02517 -0.06232
 O116 O 0.40046 0.97524 -0.06254
 Co117 Co 0.50019 1.09093 0.00096
 Co118 Co 0.49963 0.90907 -0.00056
 Co119 Co 0.40545 0.99999 -0.00009
 Co120 Co 0.59312 0.99993 -0.00011
 O121 O 0.49949 0.99998 0.00009
 C122 C 0.59312 1.07704 -0.06815
 C123 C 0.40609 0.92357 -0.06910
 C124 C 0.40999 1.09592 -0.05795
 C125 C 0.59001 0.90588 -0.05927
 O126 O 0.96086 0.59523 0.55866
 O127 O 1.03811 0.40338 0.55803
 O128 O 0.90040 0.47534 0.56238
 O129 O 1.09829 0.52412 0.56345
 O130 O 0.93898 0.39656 0.54114
 O131 O 1.05983 0.60295 0.54246
 O132 O 1.11318 0.43119 0.52489
 O133 O 0.88601 0.56880 0.52452
 C134 C 0.90839 0.59430 0.55848
 C135 C 1.09060 0.40490 0.55834
 C136 C 0.90651 0.42359 0.56924
 C137 C 1.09219 0.57578 0.57053
 O138 O 1.03850 0.59612 0.44309
 O139 O 0.96106 0.40433 0.44190
 O140 O 0.90147 0.52529 0.43723
 O141 O 1.09907 0.47557 0.43797
 O142 O 1.06011 0.39679 0.45869
 O143 O 0.93964 0.60386 0.45911
 O144 O 1.11349 0.56862 0.47659
 O145 O 0.88600 0.43201 0.47516
 Co146 Co 0.99968 0.59062 0.50081
 Co147 Co 0.99957 0.40923 0.49997
 Co148 Co 0.90587 0.50036 0.49986
 Co149 Co 1.09364 0.49993 0.50069
 O150 O 0.99970 0.50004 0.50032
 C151 C 1.09096 0.59501 0.44317
 C152 C 0.90858 0.40585 0.44166
 C153 C 0.90774 0.57701 0.43044
 C154 C 1.09281 0.42390 0.43082
 O155 O 1.04664 0.43931 0.08943
 O156 O 1.04967 0.55953 -0.08940
 O157 O 1.02780 0.38671 -0.05868
 O158 O 1.03061 0.61217 0.05832
 O159 O 1.06703 0.46139 -0.08232
 O160 O 1.06773 0.53685 0.08271
 O161 O 1.07534 0.59703 -0.02160
 O162 O 1.07089 0.39856 0.02235
 C163 C 1.07826 0.40506 0.06705
 C164 C 1.08303 0.59122 -0.06626
 C165 C 1.06727 0.40898 -0.08034
 C166 C 1.06937 0.58908 0.08025
 O167 O 0.95249 0.56161 0.08847
 O168 O 0.95165 0.44090 -0.08942
 O169 O 0.96926 0.38767 0.05822
 O170 O 0.97443 0.61346 -0.05955
 O171 O 0.93358 0.53933 -0.08181
 O172 O 0.93186 0.46312 0.08259
 O173 O 0.92993 0.60139 0.02055
 O174 O 0.92651 0.40111 -0.02240
 Co175 Co 0.99969 0.50029 0.07807
 Co176 Co 1.00038 0.50032 -0.07807
 Co177 Co 0.99880 0.40552 -0.00020
 Co178 Co 1.00241 0.59407 -0.00060
 O179 O 1.00026 0.49999 -0.00019
 C180 C 0.92178 0.59601 0.06520
 C181 C 0.91941 0.40731 -0.06707
 C182 C 0.93041 0.41069 0.08017
 C183 C 0.93409 0.59177 -0.08047
 O184 O 0.56825 0.96394 0.58292
 O185 O 0.56945 1.03481 0.41724
 O186 O 0.57200 0.90022 0.47696
 O187 O 0.57175 1.09813 0.52289
 O188 O 0.54515 0.93685 0.40930
 O189 O 0.54404 1.06205 0.59044
 O190 O 0.53276 1.11074 0.44223
 O191 O 0.53192 0.88799 0.55760
 C192 C 0.57060 0.91161 0.57975
 C193 C 0.57176 1.08712 0.42049
 C194 C 0.57814 0.90451 0.43220
 C195 C 0.57736 1.09410 0.56766
 O196 O 0.43072 1.03489 0.58226
 O197 O 0.43182 0.96431 0.41639
 O198 O 0.42824 0.90045 0.52194
 O199 O 0.42863 1.09838 0.47686
 O200 O 0.45622 1.06243 0.40920
 O201 O 0.45493 0.93680 0.58972
 O202 O 0.46757 1.11085 0.55761
 O203 O 0.46823 0.88825 0.44149
 Co204 Co 0.49955 0.99942 0.57830
 Co205 Co 0.50060 0.99960 0.42108
 Co206 Co 0.50012 0.90565 0.49953
 Co207 Co 0.50018 1.09307 0.49988
 O208 O 0.50013 0.99942 0.49970
 C209 C 0.42862 1.08727 0.57946
 C210 C 0.42948 0.91195 0.41947
 C211 C 0.42181 0.90490 0.56660
 C212 C 0.42297 1.09447 0.43209
 O213 O 1.09626 1.06793 0.46730
 O214 O 0.90355 1.06786 0.53370
 O215 O 0.97703 1.07321 0.41574
 O216 O 1.02296 1.07254 0.58528
 O217 O 0.89770 1.04925 0.44821
 O218 O 1.10219 1.04853 0.55266
 O219 O 0.93123 1.02720 0.59724
 O220 O 1.06863 1.02772 0.40358
 C221 C 1.09380 1.06754 0.42202
 C222 C 0.90612 1.06719 0.57896
 C223 C 0.92548 1.08108 0.41998
 C224 C 1.07451 1.08032 0.58096
 O225 O 1.09564 0.93228 0.53401
 O226 O 0.90383 0.93285 0.46622
 O227 O 1.02357 0.92804 0.41569
 O228 O 0.97613 0.92750 0.58478
 O229 O 0.89710 0.95149 0.55175
 O230 O 1.10260 0.95174 0.44878
 O231 O 1.06768 0.97260 0.59756
 O232 O 0.93209 0.97355 0.40289
 Co233 Co 1.09046 1.00013 0.50067
 Co234 Co 0.90926 1.00036 0.50001
 Co235 Co 1.00029 1.00060 0.41976
 Co236 Co 0.99955 1.00002 0.58097
 O237 O 0.99989 1.00031 0.50035
 C238 C 1.09262 0.93252 0.57926
 C239 C 0.90675 0.93358 0.42096
 C240 C 1.07507 0.92012 0.42028
 C241 C 0.92464 0.91964 0.58016
 O242 O 0.59537 0.56442 -0.03660
 O243 O 0.40458 0.56706 0.03656
 O244 O 0.47965 0.57324 -0.08494
 O245 O 0.52105 0.57464 0.08389
 O246 O 0.39975 0.55379 -0.04971
 O247 O 0.60019 0.55245 0.04929
 O248 O 0.43148 0.52427 0.09900
 O249 O 0.56913 0.52109 -0.09879
 C250 C 0.59560 0.56055 -0.08172
 C251 C 0.40522 0.56393 0.08173
 C252 C 0.42855 0.58396 -0.07908
 C253 C 0.57212 0.58442 0.07762
 O254 O 0.59419 0.43409 0.03653
 O255 O 0.40290 0.43554 -0.03520
 O256 O 0.51928 0.42569 -0.08406
 O257 O 0.47965 0.42775 0.08532
 O258 O 0.39990 0.44902 0.05089
 O259 O 0.59892 0.44631 -0.04946
 O260 O 0.56964 0.47839 0.09872
 O261 O 0.42971 0.47776 -0.09784
 Co262 Co 0.58917 0.49938 -0.00002
 Co263 Co 0.40993 0.50129 0.00061
 Co264 Co 0.49952 0.49954 -0.08058
 Co265 Co 0.50041 0.50116 0.08073
 O266 O 0.49979 0.50036 0.00013
 C267 C 0.59472 0.43799 0.08166
 C268 C 0.40321 0.43850 -0.08036
 C269 C 0.57034 0.41519 -0.07807
 C270 C 0.42859 0.41744 0.07925
 C271 C 0.30782 1.17648 0.16068
 C272 C 0.28415 1.11560 0.15515
 C273 C 0.31521 1.08105 0.12478
 C274 C 0.36766 1.11017 0.10233
 C275 C 0.34317 1.16307 0.07747
 C276 C 0.31138 1.19644 0.10726
 C277 C 0.37094 1.16484 0.17563
 C278 C 0.40107 1.13182 0.14527
 H279 H 0.24485 1.10159 0.17167
 H280 H 0.30128 1.03884 0.11511
 H281 H 0.34411 1.16956 0.03822
 H282 H 0.28260 1.22557 0.09061
 H283 H 0.39078 1.17532 0.21005
 H284 H 0.44395 1.11838 0.15367
 C285 C 0.80850 0.68479 0.65605
 C286 C 0.79144 0.62179 0.65071
 C287 C 0.82446 0.59138 0.61873
 C288 C 0.87190 0.62641 0.59417
 C289 C 0.84046 0.67639 0.57096
 C290 C 0.80660 0.70544 0.60258
 C291 C 0.87334 0.67958 0.66813
 C292 C 0.90529 0.65104 0.63590
 H293 H 0.75555 0.60293 0.66932
 H294 H 0.81622 0.54724 0.61034
 H295 H 0.83829 0.68307 0.53172
 H296 H 0.77351 0.73127 0.58763
 H297 H 0.89319 0.68783 0.70293
 H298 H 0.94917 0.64063 0.64349
 C299 C 0.69194 0.82485 0.16010
 C300 C 0.68807 0.80482 0.10680
 C301 C 0.65579 0.83773 0.07719
 C302 C 0.63082 0.89029 0.10205
 C303 C 0.59792 0.86828 0.14519
 C304 C 0.62880 0.83578 0.17551
 C305 C 0.71471 0.88610 0.15447
 C306 C 0.68285 0.92031 0.12437
 H307 H 0.71629 0.77536 0.09009
 H308 H 0.65396 0.83062 0.03807
 H309 H 0.55505 0.88146 0.15393
 H310 H 0.60966 0.82552 0.21029
 H311 H 0.75312 0.90111 0.17187
 H312 H 0.69450 0.96378 0.11634
 C313 C 1.19100 0.31460 0.65586
 C314 C 1.20744 0.37779 0.65075
 C315 C 1.17422 0.40806 0.61882
 C316 C 1.12718 0.37274 0.59402
 C317 C 1.15920 0.32319 0.57071
 C318 C 1.19326 0.29429 0.60231
 C319 C 1.12606 0.31913 0.66780
 C320 C 1.09391 0.34753 0.63558
 H321 H 1.24312 0.39690 0.66944
 H322 H 1.18209 0.45231 0.61058
 H323 H 1.16142 0.31664 0.53146
 H324 H 1.22654 0.26866 0.58738
 H325 H 1.10625 0.31071 0.70260
 H326 H 1.04992 0.35753 0.64312
 C327 C 0.69086 1.17651 -0.16050
 C328 C 0.71026 1.11366 -0.15929
 C329 C 0.67887 1.07918 -0.12917
 C330 C 0.63054 1.11027 -0.10236
 C331 C 0.66043 1.15945 -0.07637
 C332 C 0.69246 1.19266 -0.10609
 C333 C 0.62615 1.17062 -0.17237
 C334 C 0.59586 1.13745 -0.14218
 H335 H 0.74691 1.09790 -0.17892
 H336 H 0.68941 1.03500 -0.12329
 H337 H 0.66146 1.16400 -0.03699
 H338 H 0.72330 1.21981 -0.08971
 H339 H 0.60509 1.18409 -0.20537
 H340 H 0.55176 1.12729 -0.14913
 C341 C 1.19059 0.68601 0.34586
 C342 C 1.12553 0.68196 0.33455
 C343 C 1.09373 0.65324 0.36670
 C344 C 1.12738 0.62749 0.40776
 C345 C 1.17402 0.59224 0.38241
 C346 C 1.20696 0.62269 0.35049
 C347 C 1.19347 0.70595 0.39951
 C348 C 1.15973 0.67676 0.43120
 H349 H 1.10518 0.69127 0.30028
 H350 H 1.04959 0.64366 0.35947
 H351 H 1.18192 0.54791 0.39033
 H352 H 1.24252 0.60362 0.33156
 H353 H 1.22661 0.73185 0.41427
 H354 H 1.16210 0.68314 0.47046
 C355 C 0.30791 0.82605 -0.16239
 C356 C 0.28564 0.82981 -0.10974
 C357 C 0.31789 0.86213 -0.07900
 C358 C 0.36872 0.89088 -0.10383
 C359 C 0.40214 0.84365 -0.12752
 C360 C 0.37159 0.81135 -0.15799
 C361 C 0.31000 0.88995 -0.17694
 C362 C 0.34190 0.92326 -0.14668
 H363 H 0.24230 0.82063 -0.10048
 H364 H 0.30208 0.87550 -0.04365
 H365 H 0.44806 0.84186 -0.12733
 H366 H 0.39510 0.78899 -0.18523
 H367 H 0.28507 0.90898 -0.20588
 H368 H 0.34341 0.96853 -0.15092
 C369 C 0.80845 0.31523 0.34438
 C370 C 0.80597 0.29525 0.39803
 C371 C 0.83993 0.32430 0.42955
 C372 C 0.87208 0.37364 0.40605
 C373 C 0.90549 0.34809 0.36474
 C374 C 0.87343 0.31955 0.33261
 C375 C 0.79205 0.37850 0.34909
 C376 C 0.82520 0.40892 0.38092
 H377 H 0.77272 0.26965 0.41299
 H378 H 0.83765 0.31792 0.46882
 H379 H 0.94950 0.35798 0.35723
 H380 H 0.89337 0.31096 0.29790
 H381 H 0.75652 0.39760 0.33013
 H382 H 0.81751 0.45332 0.38873
 C383 C 1.18010 0.30558 0.15733
 C384 C 1.17477 0.28143 0.10496
 C385 C 1.14288 0.31392 0.07348
 C386 C 1.11675 0.36716 0.09726
 C387 C 1.08503 0.34367 0.14183
 C388 C 1.11688 0.31132 0.17219
 C389 C 1.19794 0.36878 0.15015
 C390 C 1.16613 0.39954 0.11878
 H391 H 1.18986 0.23979 0.09474
 H392 H 1.13293 0.30008 0.03667
 H393 H 1.04103 0.35242 0.14952
 H394 H 1.09690 0.29050 0.20298
 H395 H 1.23219 0.38930 0.16942
 H396 H 1.17449 0.44395 0.11138
 C397 C 0.67594 0.81074 0.66332
 C398 C 0.69425 0.87408 0.65804
 C399 C 0.66099 0.90698 0.62968
 C400 C 0.61044 0.87577 0.60906
 C401 C 0.63502 0.82380 0.58202
 C402 C 0.66812 0.78947 0.61058
 C403 C 0.61328 0.81607 0.68085
 C404 C 0.58024 0.85039 0.65328
 H405 H 0.72921 0.89332 0.67708
 H406 H 0.66912 0.95181 0.62422
 H407 H 0.62290 0.81207 0.54516
 H408 H 0.68221 0.74830 0.59813
 H409 H 0.59394 0.79201 0.71016
 H410 H 0.53566 0.85663 0.66108
 C411 C 1.18714 0.69203 -0.15398
 C412 C 1.19304 0.70476 -0.09846
 C413 C 1.16034 0.67163 -0.06826
 C414 C 1.12294 0.62872 -0.09541
 C415 C 1.08997 0.66505 -0.13213
 C416 C 1.12246 0.69812 -0.16147
 C417 C 1.19632 0.62639 -0.15626
 C418 C 1.16371 0.59456 -0.12630
 H419 H 1.21790 0.73797 -0.08279
 H420 H 1.16022 0.67676 -0.02890
 H421 H 1.04437 0.66550 -0.13440
 H422 H 1.10277 0.72804 -0.18631
 H423 H 1.22397 0.60457 -0.18111
 H424 H 1.16596 0.54858 -0.12576
 C425 C 0.67659 1.18845 0.33723
 C426 C 0.61399 1.18257 0.31962
 C427 C 0.58127 1.14798 0.34709
 C428 C 0.61157 1.12299 0.39138
 C429 C 0.66248 1.09213 0.37093
 C430 C 0.69551 1.12529 0.34261
 C431 C 0.66847 1.20973 0.38992
 C432 C 0.63555 1.17520 0.41842
 H433 H 0.59434 1.20650 0.29038
 H434 H 0.53680 1.14128 0.33915
 H435 H 0.67090 1.04734 0.37635
 H436 H 0.73052 1.10629 0.32346
 H437 H 0.68196 1.25110 0.40230
 H438 H 0.62302 1.18701 0.45517
 C439 C 0.82039 0.69721 0.15430
 C440 C 0.80477 0.63316 0.14977
 C441 C 0.83660 0.60216 0.11892
 C442 C 0.88343 0.63521 0.09431
 C443 C 0.85403 0.68586 0.06922
 C444 C 0.82286 0.71915 0.10078
 C445 C 0.88426 0.69541 0.16687
 C446 C 0.91627 0.66366 0.13598
 H447 H 0.77095 0.61245 0.16947
 H448 H 0.82909 0.55727 0.11294
 H449 H 0.86242 0.69843 0.03176
 H450 H 0.80735 0.76034 0.08981
 H451 H 0.90470 0.72356 0.19275
 H452 H 0.96167 0.66688 0.13608
 C453 C 0.32368 1.18851 0.66320
 C454 C 0.30502 1.12528 0.65789
 C455 C 0.33808 1.09223 0.62946
 C456 C 0.38883 1.12317 0.60885
 C457 C 0.36455 1.17536 0.58190
 C458 C 0.33159 1.20980 0.61047
 C459 C 0.38631 1.18272 0.68072
 C460 C 0.41913 1.14825 0.65312
 H461 H 0.27016 1.10616 0.67716
 H462 H 0.32979 1.04742 0.62409
 H463 H 0.37681 1.18717 0.54508
 H464 H 0.31774 1.25107 0.59805
 H465 H 0.40576 1.20636 0.71020
 H466 H 0.46358 1.14144 0.66110
 C467 C 0.81852 0.30626 -0.15690
 C468 C 0.82511 0.28197 -0.10468
 C469 C 0.85662 0.31499 -0.07335
 C470 C 0.88126 0.36894 -0.09716
 C471 C 0.91303 0.34620 -0.14200
 C472 C 0.88149 0.31346 -0.17224
 C473 C 0.79932 0.36891 -0.14913
 C474 C 0.83094 0.40033 -0.11814
 H475 H 0.81284 0.23933 -0.09487
 H476 H 0.86817 0.30065 -0.03702
 H477 H 0.95728 0.35449 -0.14925
 H478 H 0.90185 0.29240 -0.20272
 H479 H 0.76542 0.38918 -0.16878
 H480 H 0.82231 0.44485 -0.11129
 C481 C 0.32375 0.81086 0.33671
 C482 C 0.33187 0.78983 0.38947
 C483 C 0.36514 0.82424 0.41773
 C484 C 0.38950 0.87610 0.39040
 C485 C 0.41944 0.85057 0.34611
 C486 C 0.38626 0.81615 0.31880
 C487 C 0.30543 0.87423 0.34180
 C488 C 0.33880 0.90725 0.36991
 H489 H 0.31783 0.74874 0.40215
 H490 H 0.37753 0.81261 0.45456
 H491 H 0.46388 0.85707 0.33789
 H492 H 0.40531 0.79230 0.28924
 H493 H 0.27074 0.89351 0.32244
 H494 H 0.33087 0.95218 0.37497
 C495 C 1.17611 1.17268 0.32466
 C496 C 1.11286 1.16478 0.31377
 C497 C 1.08552 1.13082 0.34676
 C498 C 1.12376 1.10740 0.38808
 C499 C 1.17183 1.07777 0.36070
 C500 C 1.19746 1.11082 0.32674
 C501 C 1.17695 1.19263 0.37864
 C502 C 1.15027 1.15897 0.41137
 H503 H 1.09203 1.18152 0.28149
 H504 H 1.04210 1.11772 0.34143
 H505 H 1.18148 1.03304 0.36434
 H506 H 1.22343 1.09127 0.29897
 H507 H 1.19291 1.23233 0.39056
 H508 H 1.14599 1.17007 0.44971
 C509 C 0.67898 0.66511 -0.17817
 C510 C 0.70380 0.60454 -0.17433
 C511 C 0.67715 0.57034 -0.14139
 C512 C 0.62639 0.59855 -0.11625
 C513 C 0.64947 0.65126 -0.09261
 C514 C 0.67667 0.68502 -0.12439
 C515 C 0.61685 0.65408 -0.19140
 C516 C 0.58949 0.61930 -0.15929
 H517 H 0.73556 0.58749 -0.19861
 H518 H 0.68903 0.52634 -0.13609
 H519 H 0.64552 0.66145 -0.05404
 H520 H 0.69466 0.72273 -0.11096
 H521 H 0.59720 0.66867 -0.22498
 H522 H 0.54782 0.60268 -0.16703
 C523 C 0.82375 1.17237 0.67614
 C524 C 0.80260 1.11045 0.67432
 C525 C 0.82831 1.07733 0.64046
 C526 C 0.87622 1.10699 0.61294
 C527 C 0.84952 1.15843 0.58950
 C528 C 0.82279 1.19214 0.62212
 C529 C 0.88704 1.16465 0.68702
 C530 C 0.91446 1.13061 0.65413
 H531 H 0.77682 1.09094 0.70225
 H532 H 0.81896 1.03251 0.63712
 H533 H 0.85379 1.16948 0.55113
 H534 H 0.80684 1.23183 0.61010
 H535 H 0.90782 1.18152 0.71926
 H536 H 0.95789 1.11755 0.65948
 C537 C 0.32219 0.66608 0.18018
 C538 C 0.31472 0.60214 0.18881
 C539 C 0.33921 0.56901 0.15410
 C540 C 0.37464 0.60211 0.11637
 C541 C 0.33378 0.64287 0.09284
 C542 C 0.30627 0.67515 0.12574
 C543 C 0.38699 0.67145 0.18161
 C544 C 0.41430 0.63839 0.14811
 H545 H 0.29439 0.58397 0.22077
 H546 H 0.33430 0.52355 0.15415
 H547 H 0.32319 0.64299 0.05420
 H548 H 0.27116 0.69972 0.11373
 H549 H 0.40985 0.69095 0.21158
 H550 H 0.45933 0.63113 0.15014
 C551 C 1.17415 0.82649 0.67645
 C552 C 1.19532 0.88848 0.67476
 C553 C 1.16990 0.92172 0.64088
 C554 C 1.12205 0.89229 0.61323
 C555 C 1.14870 0.84087 0.58976
 C556 C 1.17523 0.80696 0.62238
 C557 C 1.11086 0.83427 0.68722
 C558 C 1.08361 0.86857 0.65433
 H559 H 1.22080 0.90806 0.70284
 H560 H 1.17938 0.96651 0.63764
 H561 H 1.14457 0.83001 0.55135
 H562 H 1.19120 0.76730 0.61031
 H563 H 1.08999 0.81731 0.71940
 H564 H 1.04021 0.88178 0.65966
 C565 C 0.67661 0.33386 0.17932
 C566 C 0.69679 0.39603 0.17933
 C567 C 0.67096 0.42966 0.14564
 C568 C 0.62457 0.39941 0.11628
 C569 C 0.65332 0.34964 0.09248
 C570 C 0.68004 0.31619 0.12491
 C571 C 0.61285 0.34011 0.18901
 C572 C 0.58552 0.37380 0.15590
 H573 H 0.72259 0.41466 0.20768
 H574 H 0.67956 0.47469 0.14312
 H575 H 0.65167 0.34008 0.05367
 H576 H 0.69912 0.27858 0.11208
 H577 H 0.59138 0.32168 0.22028
 H578 H 0.54105 0.38411 0.15948
 C579 C 0.82536 0.82854 0.32302
 C580 C 0.82405 0.80860 0.37698
 C581 C 0.85042 0.84225 0.40984
 C582 C 0.87716 0.89383 0.38670
 C583 C 0.91576 0.87041 0.34563
 C584 C 0.88870 0.83640 0.31251
 C585 C 0.80405 0.89043 0.32486
 C586 C 0.82935 0.92348 0.35898
 H587 H 0.80825 0.76875 0.38876
 H588 H 0.85450 0.83104 0.44819
 H589 H 0.95914 0.88370 0.34045
 H590 H 0.90975 0.81976 0.28030
 H591 H 0.77848 0.91000 0.29679
 H592 H 0.81973 0.96822 0.36247
 C593 C 0.32116 0.33446 -0.17810
 C594 C 0.31944 0.31558 -0.12378
 C595 C 0.34638 0.34881 -0.09128
 C596 C 0.37276 0.40001 -0.11475
 C597 C 0.41133 0.37668 -0.15575
 C598 C 0.38431 0.34301 -0.18887
 C599 C 0.29878 0.39584 -0.17632
 C600 C 0.32412 0.42924 -0.14222
 H601 H 0.30001 0.27817 -0.11089
 H602 H 0.34835 0.33902 -0.05251
 H603 H 0.45528 0.38857 -0.16018
 H604 H 0.40558 0.32597 -0.22082
 H605 H 0.26970 0.41390 -0.20244
 H606 H 0.31052 0.47236 -0.13570
 C607 C 1.17658 0.30960 -0.16151
 C608 C 1.16847 0.37315 -0.17760
 C609 C 1.13405 0.40476 -0.15012
 C610 C 1.10739 0.37250 -0.10876
 C611 C 1.07914 0.32039 -0.13280
 C612 C 1.11507 0.28777 -0.15987
 C613 C 1.19142 0.31314 -0.10651
 C614 C 1.15647 0.34711 -0.07948
 H615 H 1.18052 0.39226 -0.21188
 H616 H 1.12235 0.44759 -0.16069
 H617 H 1.03603 0.30728 -0.12578
 H618 H 1.10137 0.24805 -0.17596
 H619 H 1.21707 0.28269 -0.08746
 H620 H 1.15848 0.34845 -0.03988
 C621 C 0.68100 0.80457 0.34363
 C622 C 0.67717 0.86985 0.33325
 C623 C 0.64609 0.90063 0.36429
 C624 C 0.61687 0.86613 0.40316
 C625 C 0.58477 0.81935 0.37511
 C626 C 0.61792 0.78738 0.34464
 C627 C 0.69698 0.80132 0.39862
 C628 C 0.66453 0.83405 0.42927
 H629 H 0.68901 0.89156 0.30016
 H630 H 0.63808 0.94540 0.35794
 H631 H 0.54034 0.81008 0.38084
 H632 H 0.60090 0.75150 0.32470
 H633 H 0.72447 0.76998 0.41423
 H634 H 0.66886 0.83235 0.46870
 C635 C 0.82367 0.69035 -0.16148
 C636 C 0.80507 0.68043 -0.10791
 C637 C 0.84048 0.64673 -0.08106
 C638 C 0.89371 0.62833 -0.10869
 C639 C 0.87323 0.59816 -0.15368
 C640 C 0.83814 0.62920 -0.18099
 C641 C 0.88277 0.71677 -0.15475
 C642 C 0.91910 0.68479 -0.12739
 H643 H 0.77656 0.70755 -0.08831
 H644 H 0.83584 0.64196 -0.04181
 H645 H 0.88798 0.55672 -0.16544
 H646 H 0.82737 0.61101 -0.21600
 H647 H 0.89410 0.75884 -0.16742
 H648 H 0.95991 0.70106 -0.11635
 C649 C 0.32075 1.19543 0.34419
 C650 C 0.38374 1.21280 0.34562
 C651 C 0.41676 1.18042 0.37588
 C652 C 0.38453 1.13313 0.40322
 C653 C 0.33664 1.16466 0.42949
 C654 C 0.30439 1.19784 0.39908
 C655 C 0.32483 1.13034 0.33303
 C656 C 0.35573 1.09914 0.36387
 H657 H 0.40079 1.24899 0.32608
 H658 H 0.46115 1.18966 0.38190
 H659 H 0.33215 1.16585 0.46891
 H660 H 0.27711 1.22924 0.41488
 H661 H 0.31336 1.10914 0.29959
 H662 H 0.36394 1.05451 0.35703
 C663 C 1.17295 0.68979 0.16444
 C664 C 1.19153 0.62679 0.15850
 C665 C 1.15985 0.59422 0.12878
 C666 C 1.10853 0.62488 0.10968
 C667 C 1.07867 0.64757 0.15524
 C668 C 1.11092 0.68256 0.18278
 C669 C 1.16392 0.71218 0.11231
 C670 C 1.13116 0.67812 0.08350
 H671 H 1.21341 0.60393 0.18634
 H672 H 1.16398 0.54839 0.12860
 H673 H 1.03756 0.63345 0.16750
 H674 H 1.09260 0.70178 0.21499
 H675 H 1.17327 0.75518 0.10157
 H676 H 1.11641 0.69174 0.04786
 C677 C 0.67921 1.19507 0.65577
 C678 C 0.67531 1.12996 0.66692
 C679 C 0.64451 1.09874 0.63604
 C680 C 0.61570 1.13272 0.59663
 C681 C 0.58330 1.17994 0.62392
 C682 C 0.61616 1.21233 0.65423
 C683 C 0.69566 1.19756 0.60090
 C684 C 0.66357 1.16435 0.57044
 H685 H 0.68692 1.10875 0.70033
 H686 H 0.63642 1.05408 0.64284
 H687 H 0.53892 1.18918 0.61778
 H688 H 0.59898 1.24851 0.67370
 H689 H 0.72293 1.22897 0.58513
 H690 H 0.66817 1.16555 0.53103
 C691 C 0.82142 0.31093 0.16141
 C692 C 0.82707 0.37513 0.17625
 C693 C 0.86141 0.40701 0.14883
 C694 C 0.89001 0.37447 0.10859
 C695 C 0.91899 0.32366 0.13395
 C696 C 0.88352 0.29079 0.16102
 C697 C 0.80758 0.31284 0.10611
 C698 C 0.84227 0.34705 0.07898
 H699 H 0.81238 0.39501 0.20935
 H700 H 0.87093 0.45071 0.15824
 H701 H 0.96199 0.31046 0.12672
 H702 H 0.89784 0.25127 0.17712
 H703 H 0.78201 0.28218 0.08731
 H704 H 0.84064 0.34800 0.03936
 C705 C 0.31888 0.80495 0.65453
 C706 C 0.30241 0.80239 0.59965
 C707 C 0.33485 0.83529 0.56911
 C708 C 0.38286 0.86671 0.59532
 C709 C 0.35408 0.90098 0.63459
 C710 C 0.32294 0.87005 0.66545
 C711 C 0.38188 0.78734 0.65298
 C712 C 0.41494 0.81946 0.62272
 H713 H 0.27465 0.77134 0.58398
 H714 H 0.33023 0.83416 0.52970
 H715 H 0.36212 0.94569 0.64112
 H716 H 0.31074 0.89149 0.69857
 H717 H 0.39892 0.75103 0.67238
 H718 H 0.45930 0.80998 0.61668
 C719 C 0.30953 1.18303 -0.15723
 C720 C 0.28301 1.17616 -0.10637
 C721 C 0.31654 1.14876 -0.07330
 C722 C 0.37385 1.12814 -0.09393
 C723 C 0.35803 1.09300 -0.13873
 C724 C 0.32392 1.12049 -0.17122
 C725 C 0.37007 1.20747 -0.14831
 C726 C 0.40207 1.18042 -0.11472
 H727 H 0.23999 1.18858 -0.09788
 H728 H 0.30170 1.13905 -0.03673
 H729 H 0.37700 1.05246 -0.14668
 H730 H 0.31190 1.09959 -0.20489
 H731 H 0.39013 1.23862 -0.17115
 H732 H 0.44603 1.19153 -0.10838
 C733 C 0.80764 0.67383 0.33699
 C734 C 0.86980 0.69334 0.34453
 C735 C 0.90144 0.66111 0.37465
 C736 C 0.87047 0.61007 0.39544
 C737 C 0.81659 0.63444 0.41942
 C738 C 0.78354 0.66636 0.38881
 C739 C 0.81551 0.61080 0.32045
 C740 C 0.84849 0.57826 0.35052
 H741 H 0.88979 0.72755 0.32497
 H742 H 0.94607 0.66955 0.38057
 H743 H 0.80292 0.62307 0.45602
 H744 H 0.74144 0.67972 0.39913
 H745 H 0.79518 0.59170 0.28901
 H746 H 0.85681 0.53382 0.34340
 C747 C 0.69153 1.18212 0.15764
 C748 C 0.68058 1.11860 0.17093
 C749 C 0.64696 1.08991 0.13876
 C750 C 0.62754 1.12565 0.09513
 C751 C 0.59807 1.17641 0.11737
 C752 C 0.63008 1.20449 0.15011
 C753 C 0.71682 1.17705 0.10614
 C754 C 0.68337 1.14888 0.07346
 H755 H 0.69915 1.09638 0.20167
 H756 H 0.63647 1.04547 0.14340
 H757 H 0.55370 1.18643 0.11182
 H758 H 0.60980 1.23550 0.17289
 H759 H 0.75965 1.18961 0.09728
 H760 H 0.69846 1.13859 0.03714
 C761 C 1.19421 0.67239 0.66212
 C762 C 1.18734 0.60922 0.67864
 C763 C 1.15375 0.57663 0.64920
 C764 C 1.13028 0.60855 0.60488
 C765 C 1.09945 0.65918 0.62645
 C766 C 1.13164 0.69147 0.65591
 C767 C 1.21692 0.66547 0.60981
 C768 C 1.18328 0.63343 0.57983
 H769 H 1.20859 0.59016 0.70967
 H770 H 1.14576 0.53216 0.65647
 H771 H 1.05456 0.66723 0.62162
 H772 H 1.11176 0.72532 0.67599
 H773 H 1.25835 0.67984 0.59849
 H774 H 1.19592 0.62251 0.54287
 C775 C 0.69140 0.81769 -0.15729
 C776 C 0.71593 0.82203 -0.10545
 C777 C 0.68201 0.84993 -0.07294
 C778 C 0.62669 0.87391 -0.09510
 C779 C 0.64694 0.90988 -0.13827
 C780 C 0.68101 0.88137 -0.17021
 C781 C 0.62954 0.79560 -0.15066
 C782 C 0.59722 0.82361 -0.11805
 H783 H 0.75768 0.80673 -0.09567
 H784 H 0.69558 0.85798 -0.03575
 H785 H 0.63577 0.95407 -0.14323
 H786 H 0.69973 0.90363 -0.20085
 H787 H 0.61029 0.76260 -0.17228
 H788 H 0.55318 0.81278 -0.11185
 C789 C 1.19441 0.32719 0.33873
 C790 C 1.18707 0.39033 0.32220
 C791 C 1.15361 0.42287 0.35181
 C792 C 1.13076 0.39102 0.39637
 C793 C 1.09998 0.34017 0.37519
 C794 C 1.13202 0.30786 0.34559
 C795 C 1.21765 0.33440 0.39086
 C796 C 1.18416 0.36641 0.42106
 H797 H 1.20825 0.40956 0.29123
 H798 H 1.14562 0.46737 0.34467
 H799 H 1.05523 0.33183 0.38054
 H800 H 1.11217 0.27358 0.32608
 H801 H 1.25932 0.32037 0.40184
 H802 H 1.19710 0.37748 0.45790
 C803 C 0.30798 0.81294 0.15502
 C804 C 0.37331 0.80154 0.15784
 C805 C 0.40620 0.83057 0.12621
 C806 C 0.37336 0.87048 0.09364
 C807 C 0.32848 0.83309 0.06885
 C808 C 0.29398 0.80457 0.10047
 C809 C 0.30504 0.87846 0.16008
 C810 C 0.33930 0.90784 0.12886
 H811 H 0.39477 0.77907 0.18650
 H812 H 0.45207 0.82868 0.12767
 H813 H 0.32194 0.83185 0.02969
 H814 H 0.25714 0.78336 0.08678
 H815 H 0.27730 0.90067 0.18518
 H816 H 0.34197 0.95358 0.12927
 C817 C 0.80517 0.32686 0.66147
 C818 C 0.78192 0.33398 0.60934
 C819 C 0.81534 0.36599 0.57909
 C820 C 0.86868 0.39065 0.60373
 C821 C 0.84578 0.42255 0.64824
 C822 C 0.81239 0.39003 0.67790
 C823 C 0.86759 0.30757 0.65468
 C824 C 0.89957 0.33986 0.62500
 H825 H 0.74023 0.32003 0.59841
 H826 H 0.80231 0.37711 0.54227
 H827 H 0.85378 0.46703 0.65536
 H828 H 0.79125 0.40928 0.70888
 H829 H 0.88749 0.27338 0.67434
 H830 H 0.94434 0.33157 0.61967
 C831 C 1.16948 1.17076 0.68018
 C832 C 1.16223 1.10785 0.69300
 C833 C 1.12937 1.07867 0.66048
 C834 C 1.10635 1.11491 0.61766
 C835 C 1.07503 1.16359 0.64277
 C836 C 1.10728 1.19140 0.67645
 C837 C 1.19031 1.16987 0.62681
 C838 C 1.15788 1.14188 0.59467
 H839 H 1.17887 1.08850 0.72601
 H840 H 1.11729 1.03501 0.66679
 H841 H 1.03076 1.17324 0.63715
 H842 H 1.08751 1.21968 0.70239
 H843 H 1.22952 1.18630 0.61460
 H844 H 1.16949 1.13771 0.55640
 C845 C 0.66726 0.67727 0.17552
 C846 C 0.65773 0.61511 0.18986
 C847 C 0.62463 0.58574 0.15790
 C848 C 0.60377 0.62056 0.11355
 C849 C 0.57361 0.67171 0.13637
 C850 C 0.60615 0.70033 0.16959
 C851 C 0.68873 0.67378 0.12246
 C852 C 0.65652 0.64497 0.09070
 H853 H 0.67343 0.59624 0.22341
 H854 H 0.61154 0.54263 0.16536
 H855 H 0.53110 0.68491 0.12716
 H856 H 0.58829 0.73395 0.19142
 H857 H 0.72634 0.69169 0.10935
 H858 H 0.66775 0.64077 0.05233
 C859 C 1.16988 0.83006 0.32075
 C860 C 1.10757 0.80972 0.32446
 C861 C 1.07551 0.83738 0.35833
 C862 C 1.10700 0.88577 0.38354
 C863 C 1.15848 0.85852 0.40639
 C864 C 1.19079 0.83058 0.37410
 C865 C 1.16282 0.89303 0.30814
 C866 C 1.13007 0.92217 0.34081
 H867 H 1.08750 0.78198 0.29829
 H868 H 1.03123 0.82787 0.36398
 H869 H 1.17014 0.86250 0.44466
 H870 H 1.22999 0.81392 0.38617
 H871 H 1.17945 0.91244 0.27516
 H872 H 1.11809 0.96590 0.33466
 C873 C 0.66486 0.32338 -0.17712
 C874 C 0.65916 0.38676 -0.18873
 C875 C 0.62666 0.41592 -0.15622
 C876 C 0.60172 0.37944 -0.11451
 C877 C 0.56968 0.33216 -0.14123
 C878 C 0.60228 0.30372 -0.17460
 C879 C 0.68432 0.32200 -0.12336
 C880 C 0.65198 0.35034 -0.09122
 H881 H 0.67701 0.40679 -0.22095
 H882 H 0.61664 0.46021 -0.16185
 H883 H 0.52498 0.32369 -0.13651
 H884 H 0.58316 0.27469 -0.20026
 H885 H 0.72260 0.30385 -0.11084
 H886 H 0.66268 0.35313 -0.05266
 C887 C 0.83087 1.17151 0.32030
 C888 C 0.89304 1.19211 0.32409
 C889 C 0.92521 1.16433 0.35793
 C890 C 0.89381 1.11572 0.38312
 C891 C 0.84223 1.14279 0.40592
 C892 C 0.80992 1.17076 0.37365
 C893 C 0.83820 1.10858 0.30764
 C894 C 0.87094 1.07944 0.34031
 H895 H 0.91284 1.22026 0.29806
 H896 H 0.96946 1.17393 0.36360
 H897 H 0.83052 1.13872 0.44418
 H898 H 0.77071 1.18728 0.38576
 H899 H 0.82179 1.08920 0.27458
 H900 H 0.88316 1.03580 0.33404
 C901 C 0.33632 0.67653 -0.17897
 C902 C 0.32515 0.68956 -0.12454
 C903 C 0.35619 0.66009 -0.09199
 C904 C 0.39781 0.61997 -0.11573
 C905 C 0.36292 0.58276 -0.15068
 C906 C 0.33107 0.61200 -0.18342
 C907 C 0.40090 0.68493 -0.18485
 C908 C 0.43287 0.65727 -0.15057
 H909 H 0.30006 0.72408 -0.11212
 H910 H 0.35479 0.66869 -0.05300
 H911 H 0.37112 0.53819 -0.15581
 H912 H 0.31205 0.59086 -0.21458
 H913 H 0.42032 0.70728 -0.21519
 H914 H 0.47830 0.66121 -0.14915
 C915 C 0.83017 0.82883 0.67963
 C916 C 0.80883 0.83017 0.62640
 C917 C 0.84099 0.85834 0.59413
 C918 C 0.89282 0.88494 0.61685
 C919 C 0.87035 0.92094 0.66001
 C920 C 0.83773 0.89164 0.69265
 C921 C 0.89221 0.80795 0.67528
 C922 C 0.92421 0.83592 0.64148
 H923 H 0.76963 0.81369 0.61433
 H924 H 0.82909 0.86273 0.55594
 H925 H 0.88240 0.96461 0.66631
 H926 H 0.82133 0.91087 0.72578
 H927 H 0.91207 0.77913 0.70072
 H928 H 0.96829 0.82594 0.63525
 C929 C 0.33438 0.32319 0.17674
 C930 C 0.39549 0.29989 0.17031
 C931 C 0.42814 0.32911 0.13736
 C932 C 0.39769 0.38040 0.11502
 C933 C 0.34457 0.35631 0.09229
 C934 C 0.31246 0.32711 0.12388
 C935 C 0.34452 0.38506 0.19162
 C936 C 0.37789 0.41446 0.15994
 H937 H 0.41375 0.26698 0.19277
 H938 H 0.47197 0.31843 0.13019
 H939 H 0.33317 0.36083 0.05400
 H940 H 0.27446 0.30916 0.11087
 H941 H 0.33134 0.40287 0.22638
 H942 H 0.39508 0.45545 0.16953
   
