data_POSCAR
  _audit_creation_date              2014-09-24
  _audit_creation_method            'ToBaCCo'
  _symmetry_space_group_name_H-M    'P1'
  _symmetry_Int_Tables_number       1
  _symmetry_cell_setting            triclinic
  loop_
  _symmetry_equiv_pos_as_xyz
 x,y,z
_cell_length_a 44.7070
_cell_length_b 44.7262
_cell_length_c 42.7895
_cell_angle_alpha 89.970300
_cell_angle_beta 89.969200
_cell_angle_gamma 90.077800
loop_
  _atom_site_label
  _atom_site_type_symbol
  _atom_site_fract_x
  _atom_site_fract_y
  _atom_site_fract_z
O1 O 0.02930 0.28989 -0.03384
 O2 O -0.02874 0.29031 0.02725
 O3 O 0.02957 0.29122 0.02690
 O4 O -0.02894 0.28861 -0.03362
 O5 O -0.02807 0.23919 -0.03226
 O6 O 0.03039 0.24179 0.02821
 O7 O -0.02791 0.24089 0.02859
 O8 O 0.03016 0.24047 -0.03251
 Cu9 Cu 0.00018 0.29500 -0.00345
 Cu10 Cu 0.00120 0.23559 -0.00184
 C11 C 0.03957 0.26512 -0.04344
 C12 C -0.03814 0.26567 0.03823
 C13 C 0.03993 0.26692 0.03768
 C14 C -0.03835 0.26345 -0.04318
 O15 O 0.52975 0.79012 0.47366
 O16 O 0.47132 0.78841 0.53440
 O17 O 0.52957 0.78852 0.53442
 O18 O 0.47140 0.79036 0.47353
 O19 O 0.47125 0.74094 0.47200
 O20 O 0.52945 0.73909 0.53291
 O21 O 0.47120 0.73899 0.53285
 O22 O 0.52958 0.74070 0.47216
 Cu23 Cu 0.50050 0.79434 0.50414
 Cu24 Cu 0.50034 0.73495 0.50230
 C25 C 0.53960 0.76568 0.46275
 C26 C 0.46143 0.76341 0.54390
 C27 C 0.53936 0.76351 0.54391
 C28 C 0.46149 0.76597 0.46250
 O29 O 0.97115 0.71430 -0.02770
 O30 O 1.02960 0.71546 0.03298
 O31 O 0.97142 0.71546 0.03324
 O32 O 1.02941 0.71385 -0.02785
 O33 O 1.02967 0.76328 -0.02911
 O34 O 0.97162 0.76489 0.03206
 O35 O 1.02982 0.76489 0.03174
 O36 O 0.97139 0.76372 -0.02891
 Cu37 Cu 1.00035 0.70978 0.00278
 Cu38 Cu 1.00063 0.76918 0.00130
 C39 C 0.96143 0.73883 -0.03858
 C40 C 1.03954 0.74038 0.04263
 C41 C 0.96181 0.74042 0.04305
 C42 C 1.03935 0.73829 -0.03879
 O43 O 0.47180 0.21433 0.46551
 O44 O 0.52988 0.21183 0.52638
 O45 O 0.47164 0.21284 0.52645
 O46 O 0.52997 0.21383 0.46559
 O47 O 0.53064 0.26325 0.46710
 O48 O 0.47235 0.26226 0.52791
 O49 O 0.53061 0.26125 0.52791
 O50 O 0.47246 0.26375 0.46695
 Cu51 Cu 0.50072 0.20822 0.49585
 Cu52 Cu 0.50156 0.26762 0.49764
 C53 C 0.46241 0.23943 0.45586
 C54 C 0.54008 0.23611 0.53740
 C55 C 0.46219 0.23740 0.53749
 C56 C 0.54013 0.23872 0.45607
 O57 O 0.71123 -0.03013 0.03362
 O58 O 0.71035 0.02786 -0.02748
 O59 O 0.70982 -0.03043 -0.02712
 O60 O 0.71216 0.02806 0.03340
 O61 O 0.76161 0.02751 0.03195
 O62 O 0.75927 -0.03094 -0.02852
 O63 O 0.75979 0.02734 -0.02892
 O64 O 0.76068 -0.03067 0.03221
 Cu65 Cu 0.70590 -0.00107 0.00323
 Cu66 Cu 0.76533 -0.00171 0.00151
 C67 C 0.73609 -0.04022 0.04319
 C68 C 0.73491 0.03740 -0.03852
 C69 C 0.73418 -0.04064 -0.03793
 C70 C 0.73728 0.03761 0.04293
 O71 O 0.21102 0.47085 0.52685
 O72 O 0.21249 0.52933 0.46617
 O73 O 0.21220 0.47109 0.46606
 O74 O 0.21089 0.52915 0.52706
 O75 O 0.26034 0.52918 0.52824
 O76 O 0.26166 0.47109 0.46722
 O77 O 0.26194 0.52932 0.46737
 O78 O 0.26047 0.47090 0.52799
 Cu79 Cu 0.20666 0.50013 0.49642
 Cu80 Cu 0.26609 0.50015 0.49784
 C81 C 0.23553 0.46095 0.53759
 C82 C 0.23747 0.53917 0.45651
 C83 C 0.23714 0.46126 0.45638
 C84 C 0.23538 0.53897 0.53795
 O85 O 0.28438 1.03065 0.02681
 O86 O 0.28339 0.97219 -0.03384
 O87 O 0.28314 1.03035 -0.03414
 O88 O 0.28508 0.97242 0.02698
 O89 O 0.23563 0.97195 0.02831
 O90 O 0.23369 1.02995 -0.03289
 O91 O 0.23394 0.97176 -0.03254
 O92 O 0.23494 1.03020 0.02809
 Cu93 Cu 0.28898 1.00147 -0.00367
 Cu94 Cu 0.22956 1.00094 -0.00211
 C95 C 0.25982 1.04025 0.03773
 C96 C 0.25849 0.96213 -0.04344
 C97 C 0.25812 1.03986 -0.04392
 C98 C 0.26069 0.96239 0.03795
 O99 O 0.78650 0.46938 0.47312
 O100 O 0.78463 0.52718 0.53427
 O101 O 0.78480 0.46903 0.53394
 O102 O 0.78580 0.52758 0.47334
 O103 O 0.73635 0.52715 0.47215
 O104 O 0.73535 0.46863 0.53270
 O105 O 0.73517 0.52680 0.53310
 O106 O 0.73705 0.46893 0.47186
 Cu107 Cu 0.79042 0.49836 0.50378
 Cu108 Cu 0.73099 0.49786 0.50231
 C109 C 0.76210 0.45938 0.46217
 C110 C 0.75961 0.53667 0.54409
 C111 C 0.75989 0.45897 0.54356
 C112 C 0.76123 0.53721 0.46248
 C113 C 0.24215 0.26255 0.24505
 C114 C 0.26349 0.24079 0.24480
 C115 C 0.26311 0.21622 0.22144
 C116 C 0.28816 0.24046 0.26803
 C117 C 0.24082 0.28541 0.27019
 C118 C 0.21904 0.26463 0.22024
 C119 C 0.23779 0.19796 0.21771
 C120 C 0.23742 0.17552 0.19499
 C121 C 0.26248 0.17074 0.17575
 C122 C 0.28805 0.18860 0.18009
 C123 C 0.28839 0.21103 0.20280
 C124 C 0.29258 0.21513 0.28678
 C125 C 0.31478 0.21504 0.30973
 C126 C 0.33316 0.24022 0.31420
 C127 C 0.32924 0.26526 0.29474
 C128 C 0.30703 0.26532 0.27178
 C129 C 0.24126 0.31587 0.26239
 C130 C 0.24060 0.33762 0.28577
 C131 C 0.23924 0.32934 0.31745
 C132 C 0.23818 0.29879 0.32518
 C133 C 0.23883 0.27703 0.30175
 C134 C 0.22708 0.26642 0.18857
 C135 C 0.20505 0.26775 0.16546
 C136 C 0.17457 0.26768 0.17363
 C137 C 0.16665 0.26655 0.20541
 C138 C 0.18868 0.26513 0.22847
 H139 H 0.21822 0.20128 0.23223
 H140 H 0.21733 0.16227 0.19210
 H141 H 0.30788 0.18512 0.16603
 H142 H 0.30824 0.22469 0.20553
 H143 H 0.27842 0.19564 0.28404
 H144 H 0.31762 0.19522 0.32396
 H145 H 0.30427 0.28491 0.25718
 H146 H 0.24251 0.32277 0.23816
 H147 H 0.24091 0.36097 0.27906
 H148 H 0.23731 0.29169 0.34936
 H149 H 0.23796 0.25363 0.30822
 H150 H 0.25042 0.26672 0.18177
 H151 H 0.21184 0.26913 0.14121
 H152 H 0.14338 0.26614 0.21243
 H153 H 0.18204 0.26388 0.25279
 H154 H 0.34292 0.28504 0.29771
 C155 C 0.76296 0.73944 0.25455
 C156 C 0.74137 0.76096 0.25446
 C157 C 0.73974 0.78387 0.22938
 C158 C 0.71829 0.76271 0.27937
 C159 C 0.76292 0.71480 0.27784
 C160 C 0.78757 0.73943 0.23120
 C161 C 0.73998 0.81430 0.23725
 C162 C 0.73916 0.83611 0.21390
 C163 C 0.73784 0.82789 0.18222
 C164 C 0.73694 0.79736 0.17444
 C165 C 0.73775 0.77555 0.19782
 C166 C 0.72638 0.76446 0.31102
 C167 C 0.70437 0.76566 0.33421
 C168 C 0.67388 0.76548 0.32614
 C169 C 0.66591 0.76432 0.29438
 C170 C 0.68790 0.76305 0.27125
 C171 C 0.73781 0.69624 0.28159
 C172 C 0.73775 0.67372 0.30424
 C173 C 0.76290 0.66916 0.32338
 C174 C 0.78826 0.68733 0.31901
 C175 C 0.78829 0.70984 0.29637
 C176 C 0.79223 0.71418 0.21243
 C177 C 0.81440 0.71434 0.18942
 C178 C 0.83252 0.73971 0.18491
 C179 C 0.82835 0.76470 0.20437
 C180 C 0.80616 0.76450 0.22739
 H181 H 0.74122 0.82115 0.26149
 H182 H 0.73935 0.85944 0.22066
 H183 H 0.73610 0.79032 0.15025
 H184 H 0.73703 0.75216 0.19131
 H185 H 0.74972 0.76491 0.31775
 H186 H 0.71121 0.76706 0.35843
 H187 H 0.68122 0.76182 0.24695
 H188 H 0.71818 0.69939 0.26714
 H189 H 0.71782 0.66022 0.30715
 H190 H 0.80815 0.68402 0.33301
 H191 H 0.80798 0.72374 0.29362
 H192 H 0.77829 0.69453 0.21520
 H193 H 0.81744 0.69457 0.17519
 H194 H 0.84182 0.78463 0.20137
 H195 H 0.80322 0.78405 0.24200
 H196 H 0.64263 0.76382 0.28744
 C197 C 0.74296 0.24129 0.24880
 C198 C 0.76461 0.26279 0.24886
 C199 C 0.78752 0.26462 0.22377
 C200 C 0.76638 0.28557 0.27404
 C201 C 0.71843 0.24114 0.27223
 C202 C 0.74271 0.21676 0.22543
 C203 C 0.81797 0.26452 0.23160
 C204 C 0.83978 0.26526 0.20823
 C205 C 0.83155 0.26634 0.17654
 C206 C 0.80099 0.26719 0.16878
 C207 C 0.77918 0.26647 0.19219
 C208 C 0.76830 0.27704 0.30556
 C209 C 0.76858 0.29868 0.32910
 C210 C 0.76722 0.32925 0.32154
 C211 C 0.76618 0.33769 0.28989
 C212 C 0.76589 0.31604 0.26638
 C213 C 0.69977 0.26609 0.27609
 C214 C 0.67722 0.26587 0.29873
 C215 C 0.67277 0.24058 0.31774
 C216 C 0.69109 0.21541 0.31330
 C217 C 0.71362 0.21567 0.29069
 C218 C 0.71702 0.21173 0.20738
 C219 C 0.71651 0.18895 0.18510
 C220 C 0.74164 0.17059 0.18058
 C221 C 0.76722 0.17537 0.19905
 C222 C 0.76768 0.19814 0.22140
 H223 H 0.82485 0.26339 0.25584
 H224 H 0.86312 0.26513 0.21496
 H225 H 0.79393 0.26785 0.14459
 H226 H 0.75579 0.26708 0.18569
 H227 H 0.76919 0.25362 0.31191
 H228 H 0.76922 0.29147 0.35325
 H229 H 0.76469 0.32305 0.24218
 H230 H 0.70282 0.28579 0.26171
 H231 H 0.66359 0.28565 0.30171
 H232 H 0.68787 0.19542 0.32720
 H233 H 0.72761 0.19610 0.28785
 H234 H 0.69751 0.22580 0.21022
 H235 H 0.69661 0.18603 0.17101
 H236 H 0.78672 0.16126 0.19647
 H237 H 0.78749 0.20123 0.23560
 H238 H 0.76566 0.36106 0.28331
 C239 C 0.26315 0.76486 0.25066
 C240 C 0.24163 0.74321 0.25058
 C241 C 0.21718 0.74300 0.22707
 C242 C 0.24141 0.71866 0.27397
 C243 C 0.28589 0.76679 0.27590
 C244 C 0.26489 0.78774 0.22555
 C245 C 0.19843 0.76788 0.22318
 C246 C 0.17599 0.76762 0.20045
 C247 C 0.17172 0.74237 0.18137
 C248 C 0.19013 0.71726 0.18585
 C249 C 0.21255 0.71755 0.20856
 C250 C 0.21574 0.71360 0.29208
 C251 C 0.21535 0.69097 0.31457
 C252 C 0.24058 0.67277 0.31922
 C253 C 0.26608 0.67748 0.30058
 C254 C 0.26644 0.70014 0.27807
 C255 C 0.31640 0.76698 0.26826
 C256 C 0.33805 0.76788 0.29177
 C257 C 0.32959 0.76881 0.32342
 C258 C 0.29897 0.76930 0.33097
 C259 C 0.27733 0.76848 0.30743
 C260 C 0.26694 0.77936 0.19400
 C261 C 0.26722 0.80110 0.17053
 C262 C 0.26572 0.83164 0.17819
 C263 C 0.26455 0.83994 0.20986
 C264 C 0.26426 0.81819 0.23330
 H265 H 0.20132 0.78756 0.23760
 H266 H 0.16230 0.78736 0.19745
 H267 H 0.18705 0.69729 0.17192
 H268 H 0.22661 0.69803 0.21143
 H269 H 0.19611 0.72747 0.28906
 H270 H 0.19521 0.68755 0.32817
 H271 H 0.28630 0.70335 0.26395
 H272 H 0.32344 0.76580 0.24407
 H273 H 0.36143 0.76718 0.28520
 H274 H 0.29176 0.77057 0.35510
 H275 H 0.25389 0.76903 0.31378
 H276 H 0.26795 0.75597 0.18756
 H277 H 0.26797 0.79399 0.14636
 H278 H 0.26393 0.86328 0.21652
 H279 H 0.26295 0.82510 0.25752
 H280 H 0.28591 0.66395 0.30373
 C281 C 0.75811 0.25612 0.75072
 C282 C 0.73686 0.23422 0.75050
 C283 C 0.71430 0.23213 0.72512
 C284 C 0.73512 0.21133 0.77560
 C285 C 0.78247 0.25663 0.77429
 C286 C 0.75813 0.28065 0.72730
 C287 C 0.68374 0.23206 0.73252
 C288 C 0.66228 0.23139 0.70883
 C289 C 0.67099 0.23057 0.67726
 C290 C 0.70165 0.22984 0.66994
 C291 C 0.72310 0.23044 0.69367
 C292 C 0.73288 0.21968 0.80715
 C293 C 0.73221 0.19791 0.83058
 C294 C 0.73351 0.16737 0.82289
 C295 C 0.73498 0.15911 0.79122
 C296 C 0.73566 0.18088 0.76782
 C297 C 0.80144 0.23194 0.77833
 C298 C 0.82401 0.23262 0.80090
 C299 C 0.82818 0.25809 0.81966
 C300 C 0.80949 0.28298 0.81510
 C301 C 0.78695 0.28228 0.79254
 C302 C 0.78369 0.28581 0.70907
 C303 C 0.78382 0.30830 0.68644
 C304 C 0.75842 0.32626 0.68176
 C305 C 0.73303 0.32147 0.70054
 C306 C 0.73294 0.29895 0.72320
 H307 H 0.67653 0.23326 0.75666
 H308 H 0.63885 0.23225 0.71520
 H309 H 0.70903 0.22865 0.64588
 H310 H 0.74659 0.22982 0.68751
 H311 H 0.73192 0.24307 0.81361
 H312 H 0.73124 0.20499 0.85475
 H313 H 0.73710 0.17399 0.74360
 H314 H 0.79867 0.21212 0.76408
 H315 H 0.83793 0.21304 0.80399
 H316 H 0.81248 0.30310 0.82880
 H317 H 0.77272 0.30165 0.78955
 H318 H 0.80344 0.27209 0.71210
 H319 H 0.80388 0.31180 0.67272
 H320 H 0.71307 0.33481 0.69737
 H321 H 0.71315 0.29564 0.73740
 H322 H 0.73547 0.13577 0.78453
 C323 C 0.23585 0.73726 0.74985
 C324 C 0.25729 0.75898 0.74980
 C325 C 0.28189 0.75927 0.72645
 C326 C 0.25725 0.78357 0.77315
 C327 C 0.21297 0.73541 0.77497
 C328 C 0.23420 0.71433 0.72478
 C329 C 0.30068 0.73441 0.72261
 C330 C 0.32337 0.73481 0.70013
 C331 C 0.32784 0.76018 0.68126
 C332 C 0.30937 0.78525 0.68565
 C333 C 0.28670 0.78482 0.70811
 C334 C 0.28268 0.78859 0.79159
 C335 C 0.28275 0.81114 0.81415
 C336 C 0.25744 0.82929 0.81854
 C337 C 0.23220 0.82464 0.79953
 C338 C 0.23216 0.80207 0.77695
 C339 C 0.18250 0.73562 0.76720
 C340 C 0.16074 0.73518 0.79064
 C341 C 0.16905 0.73428 0.82232
 C342 C 0.19961 0.73323 0.83000
 C343 C 0.22136 0.73365 0.80653
 C344 C 0.23237 0.72265 0.69319
 C345 C 0.23185 0.70084 0.66980
 C346 C 0.23289 0.67030 0.67759
 C347 C 0.23393 0.66208 0.70929
 C348 C 0.23446 0.68389 0.73265
 H349 H 0.29765 0.71465 0.73692
 H350 H 0.33711 0.71510 0.69718
 H351 H 0.31260 0.80531 0.67187
 H352 H 0.27262 0.80433 0.71094
 H353 H 0.30236 0.77473 0.78880
 H354 H 0.30271 0.81452 0.82804
 H355 H 0.21249 0.79887 0.76257
 H356 H 0.17559 0.73669 0.74297
 H357 H 0.13739 0.73545 0.78396
 H358 H 0.20673 0.73271 0.85417
 H359 H 0.24478 0.73298 0.81298
 H360 H 0.23164 0.74603 0.68666
 H361 H 0.23122 0.70790 0.64561
 H362 H 0.23420 0.63876 0.71606
 H363 H 0.23558 0.67703 0.75690
 H364 H 0.21231 0.83812 0.80247
 C365 C 0.26018 0.23727 0.74573
 C366 C 0.23898 0.25916 0.74589
 C367 C 0.23764 0.28239 0.72110
 C368 C 0.21610 0.26110 0.77098
 C369 C 0.25990 0.21267 0.76909
 C370 C 0.28482 0.23701 0.72244
 C371 C 0.23797 0.31272 0.72941
 C372 C 0.23721 0.33485 0.70641
 C373 C 0.23588 0.32708 0.67460
 C374 C 0.23493 0.29666 0.66635
 C375 C 0.23568 0.27451 0.68941
 C376 C 0.22446 0.26283 0.80255
 C377 C 0.20267 0.26397 0.82594
 C378 C 0.17211 0.26377 0.81816
 C379 C 0.16385 0.26270 0.78647
 C380 C 0.18565 0.26148 0.76313
 C381 C 0.23457 0.19445 0.77301
 C382 C 0.23413 0.17232 0.79608
 C383 C 0.25912 0.16784 0.81548
 C384 C 0.28474 0.18557 0.81085
 C385 C 0.28515 0.20769 0.78779
 C386 C 0.28936 0.21165 0.70378
 C387 C 0.31188 0.21142 0.68114
 C388 C 0.33049 0.23648 0.67691
 C389 C 0.32634 0.26160 0.69619
 C390 C 0.30381 0.26181 0.71883
 H391 H 0.23919 0.31924 0.75375
 H392 H 0.23743 0.35808 0.71352
 H393 H 0.23408 0.28997 0.64206
 H394 H 0.23488 0.25123 0.68255
 H395 H 0.24787 0.26324 0.80905
 H396 H 0.20972 0.26533 0.85010
 H397 H 0.17877 0.26027 0.73889
 H398 H 0.21502 0.19765 0.75846
 H399 H 0.21402 0.15914 0.79917
 H400 H 0.30452 0.18229 0.82502
 H401 H 0.30500 0.22135 0.78494
 H402 H 0.27513 0.19220 0.70643
 H403 H 0.31486 0.19155 0.66704
 H404 H 0.34018 0.28131 0.69338
 H405 H 0.30099 0.28141 0.73338
 H406 H 0.14051 0.26220 0.77975
 C407 C 0.73850 0.75705 0.75483
 C408 C 0.76014 0.73559 0.75507
 C409 C 0.76027 0.71089 0.73189
 C410 C 0.78479 0.73587 0.77835
 C411 C 0.73659 0.78020 0.77962
 C412 C 0.71559 0.75849 0.72973
 C413 C 0.73527 0.69219 0.72822
 C414 C 0.73515 0.66995 0.70529
 C415 C 0.76013 0.66584 0.68579
 C416 C 0.78545 0.68405 0.69018
 C417 C 0.78555 0.70627 0.71310
 C418 C 0.78991 0.71061 0.79701
 C419 C 0.81244 0.71085 0.81962
 C420 C 0.83047 0.73632 0.82384
 C421 C 0.82575 0.76137 0.80459
 C422 C 0.80320 0.76109 0.78197
 C423 C 0.73619 0.81053 0.77135
 C424 C 0.73486 0.83259 0.79439
 C425 C 0.73370 0.82471 0.82617
 C426 C 0.73356 0.79425 0.83438
 C427 C 0.73482 0.77220 0.81130
 C428 C 0.72395 0.76037 0.69815
 C429 C 0.70215 0.76116 0.67477
 C430 C 0.67159 0.76033 0.68255
 C431 C 0.66334 0.75907 0.71424
 C432 C 0.68514 0.75827 0.73759
 H433 H 0.71571 0.69510 0.74285
 H434 H 0.71526 0.65640 0.70238
 H435 H 0.80523 0.68106 0.67591
 H436 H 0.80515 0.72031 0.71577
 H437 H 0.77613 0.69083 0.79437
 H438 H 0.81587 0.69103 0.83370
 H439 H 0.79994 0.78065 0.76743
 H440 H 0.73744 0.81714 0.74702
 H441 H 0.73533 0.85584 0.78734
 H442 H 0.73216 0.78749 0.85864
 H443 H 0.73443 0.74888 0.81813
 H444 H 0.74735 0.76107 0.69164
 H445 H 0.70921 0.76195 0.65057
 H446 H 0.64000 0.75895 0.72100
 H447 H 0.67826 0.75711 0.76184
 H448 H 0.83913 0.78138 0.80739
 C449 C 0.26090 0.10318 0.10424
 C450 C 0.27408 0.13101 0.09829
 C451 C 0.27460 0.15296 0.12153
 C452 C 0.26017 0.06163 0.06025
 C453 C 0.24867 0.11934 0.15681
 C454 C 0.24820 0.09740 0.13353
 C455 C 0.26048 0.08057 0.08029
 C456 C 0.26192 0.14737 0.15109
 H457 H 0.28389 0.13576 0.07567
 H458 H 0.28457 0.17445 0.11625
 H459 H 0.23904 0.11423 0.17942
 H460 H 0.23800 0.07590 0.13841
 C461 C 0.75886 0.59970 0.61293
 C462 C 0.74659 0.59312 0.64224
 C463 C 0.74696 0.61460 0.66597
 C464 C 0.75903 0.55890 0.56822
 C465 C 0.77190 0.64935 0.63110
 C466 C 0.77148 0.62785 0.60741
 C467 C 0.75881 0.57751 0.58859
 C468 C 0.75968 0.64295 0.66068
 H469 H 0.73686 0.57135 0.64679
 H470 H 0.73768 0.60890 0.68859
 H471 H 0.78145 0.67110 0.62616
 H472 H 0.78099 0.63320 0.58479
 C473 C 0.73702 0.89535 0.11063
 C474 C 0.75571 0.89849 0.13663
 C475 C 0.75601 0.87655 0.15989
 C476 C 0.73641 0.93710 0.06688
 C477 C 0.71891 0.84813 0.13115
 C478 C 0.71864 0.87013 0.10792
 C479 C 0.73667 0.91804 0.08680
 C480 C 0.73757 0.85113 0.15743
 H481 H 0.77010 0.91788 0.13891
 H482 H 0.77092 0.87928 0.17962
 H483 H 0.70422 0.82900 0.12877
 H484 H 0.70403 0.86751 0.08791
 C485 C 0.23510 0.39567 0.60417
 C486 C 0.25379 0.39838 0.63023
 C487 C 0.25407 0.37606 0.65310
 C488 C 0.23509 0.43800 0.56099
 C489 C 0.21697 0.34813 0.62385
 C490 C 0.21671 0.37050 0.60100
 C491 C 0.23496 0.41868 0.58065
 C492 C 0.23563 0.35069 0.65019
 H493 H 0.26821 0.41770 0.63284
 H494 H 0.26899 0.37848 0.67286
 H495 H 0.20228 0.32904 0.62114
 H496 H 0.20213 0.36821 0.58093
 C497 C 0.89885 0.26609 0.10470
 C498 C 0.87372 0.28451 0.10181
 C499 C 0.85179 0.28462 0.12513
 C500 C 0.94045 0.26584 0.06072
 C501 C 0.88011 0.24785 0.15435
 C502 C 0.90198 0.24776 0.13100
 C503 C 0.92145 0.26599 0.08073
 C504 C 0.85477 0.26631 0.15170
 H505 H 0.87111 0.29884 0.08157
 H506 H 0.83272 0.29932 0.12259
 H507 H 0.88283 0.23319 0.17429
 H508 H 0.92130 0.23335 0.13342
 C509 C 0.39655 0.76151 0.61092
 C510 C 0.40221 0.74859 0.64012
 C511 C 0.37988 0.74807 0.66301
 C512 C 0.43870 0.76272 0.56755
 C513 C 0.34610 0.77339 0.62750
 C514 C 0.36845 0.77387 0.60466
 C515 C 0.41953 0.76214 0.58736
 C516 C 0.35157 0.76053 0.65697
 H517 H 0.42392 0.73902 0.64523
 H518 H 0.38488 0.73832 0.68557
 H519 H 0.32442 0.78278 0.62199
 H520 H 0.36380 0.78383 0.58209
 C521 C 0.10390 0.74167 0.11015
 C522 C 0.13204 0.72928 0.10417
 C523 C 0.15410 0.72953 0.12731
 C524 C 0.06218 0.74086 0.06636
 C525 C 0.11994 0.75470 0.16255
 C526 C 0.09790 0.75439 0.13937
 C527 C 0.08119 0.74126 0.08633
 C528 C 0.14829 0.74221 0.15679
 H529 H 0.13696 0.71946 0.08161
 H530 H 0.17583 0.72013 0.12202
 H531 H 0.11468 0.76430 0.18511
 H532 H 0.07616 0.76399 0.14427
 C533 C 0.60431 0.23286 0.60495
 C534 C 0.59985 0.21521 0.63157
 C535 C 0.62161 0.21427 0.65500
 C536 C 0.56273 0.23506 0.56108
 C537 C 0.65250 0.24851 0.62513
 C538 C 0.63070 0.24944 0.60174
 C539 C 0.58172 0.23407 0.58104
 C540 C 0.64816 0.23098 0.65208
 H541 H 0.57954 0.20222 0.63424
 H542 H 0.61778 0.20029 0.67528
 H543 H 0.67251 0.26194 0.62240
 H544 H 0.63434 0.26323 0.58126
 C545 C 0.73406 0.10024 0.89487
 C546 C 0.71526 0.12511 0.89753
 C547 C 0.71504 0.14698 0.87415
 C548 C 0.73457 0.05877 0.93895
 C549 C 0.75245 0.11911 0.84533
 C550 C 0.75264 0.09730 0.86874
 C551 C 0.73430 0.07771 0.91890
 C552 C 0.73362 0.14420 0.84776
 H553 H 0.70073 0.12757 0.91763
 H554 H 0.70006 0.16584 0.87652
 H555 H 0.76732 0.11655 0.82554
 H556 H 0.76735 0.07819 0.86649
 C557 C 0.23926 0.60408 0.38955
 C558 C 0.22658 0.63205 0.39569
 C559 C 0.22707 0.65440 0.37285
 C560 C 0.23808 0.56192 0.43289
 C561 C 0.25304 0.62088 0.33760
 C562 C 0.25251 0.59854 0.36048
 C563 C 0.23864 0.58109 0.41309
 C564 C 0.24026 0.64905 0.34352
 H565 H 0.21637 0.63661 0.41816
 H566 H 0.21743 0.67598 0.37827
 H567 H 0.26304 0.61597 0.31513
 H568 H 0.26233 0.57694 0.35546
 C569 C 0.25753 0.89750 0.88934
 C570 C 0.27023 0.86953 0.89547
 C571 C 0.27016 0.84735 0.87248
 C572 C 0.25809 0.93943 0.93290
 C573 C 0.24457 0.88102 0.83708
 C574 C 0.24468 0.90319 0.86012
 C575 C 0.25779 0.92034 0.91302
 C576 C 0.25737 0.85285 0.84299
 H577 H 0.28015 0.86485 0.91804
 H578 H 0.27980 0.82576 0.87789
 H579 H 0.23486 0.88605 0.81451
 H580 H 0.23486 0.92479 0.85510
 C581 C 0.76458 0.39578 0.39397
 C582 C 0.74647 0.39874 0.36750
 C583 C 0.74738 0.37714 0.34392
 C584 C 0.76290 0.43692 0.43829
 C585 C 0.78455 0.34946 0.37326
 C586 C 0.78362 0.37111 0.39681
 C587 C 0.76366 0.41811 0.41814
 C588 C 0.76644 0.35225 0.34653
 H589 H 0.73159 0.41771 0.36511
 H590 H 0.73285 0.37970 0.32386
 H591 H 0.79969 0.33074 0.37577
 H592 H 0.79779 0.36865 0.41717
 C593 C 0.10439 0.26489 0.88950
 C594 C 0.13018 0.24760 0.89345
 C595 C 0.15231 0.24737 0.87036
 C596 C 0.06234 0.26501 0.93296
 C597 C 0.12293 0.28184 0.83927
 C598 C 0.10085 0.28206 0.86241
 C599 C 0.08152 0.26495 0.91316
 C600 C 0.14889 0.26443 0.84296
 H601 H 0.13311 0.23417 0.91431
 H602 H 0.17185 0.23344 0.87368
 H603 H 0.11984 0.29551 0.81863
 H604 H 0.08102 0.29560 0.85916
 C605 C 0.60536 0.76670 0.39666
 C606 C 0.63115 0.74948 0.40099
 C607 C 0.65356 0.74926 0.37819
 C608 C 0.56265 0.76624 0.43944
 C609 C 0.62449 0.78363 0.34666
 C610 C 0.60212 0.78383 0.36951
 C611 C 0.58211 0.76654 0.41993
 C612 C 0.65042 0.76625 0.35070
 H613 H 0.63384 0.73607 0.42189
 H614 H 0.67307 0.73536 0.38179
 H615 H 0.62160 0.79724 0.32595
 H616 H 0.58228 0.79730 0.36596
 C617 C 0.89834 0.73768 0.89506
 C618 C 0.87046 0.72466 0.90115
 C619 C 0.84841 0.72420 0.87800
 C620 C 0.94002 0.73843 0.93893
 C621 C 0.88205 0.74986 0.84252
 C622 C 0.90408 0.75028 0.86571
 C623 C 0.92103 0.73809 0.91893
 C624 C 0.85395 0.73678 0.84840
 H625 H 0.86574 0.71493 0.92382
 H626 H 0.82688 0.71435 0.88339
 H627 H 0.88712 0.75942 0.81987
 H628 H 0.92562 0.76035 0.86072
 C629 C 0.39929 0.24086 0.38711
 C630 C 0.40597 0.25316 0.35784
 C631 C 0.38449 0.25300 0.33409
 C632 C 0.44013 0.24026 0.43179
 C633 C 0.34954 0.22823 0.36888
 C634 C 0.37103 0.22844 0.39258
 C635 C 0.42149 0.24068 0.41144
 C636 C 0.35604 0.24046 0.33933
 H637 H 0.42783 0.26274 0.35332
 H638 H 0.39028 0.26228 0.31150
 H639 H 0.32771 0.21882 0.37378
 H640 H 0.36560 0.21891 0.41518
 C641 C 0.73266 0.89342 0.89634
 C642 C 0.71543 0.89656 0.86926
 C643 C 0.71556 0.87412 0.84654
 C644 C 0.73339 0.93626 0.93887
 C645 C 0.75004 0.84518 0.87805
 C646 C 0.74989 0.86766 0.90074
 C647 C 0.73294 0.91674 0.91947
 C648 C 0.73296 0.84822 0.85063
 H649 H 0.70195 0.91638 0.86568
 H650 H 0.70188 0.87693 0.82587
 H651 H 0.76396 0.82569 0.88168
 H652 H 0.76339 0.86505 0.92158
 C653 C 0.23841 0.39674 0.38906
 C654 C 0.22000 0.37153 0.39177
 C655 C 0.22030 0.34954 0.36855
 C656 C 0.23761 0.43855 0.43274
 C657 C 0.25749 0.37792 0.33984
 C658 C 0.25717 0.39986 0.36308
 C659 C 0.23798 0.41947 0.41286
 C660 C 0.23901 0.35253 0.34227
 H661 H 0.20533 0.36893 0.41175
 H662 H 0.20557 0.33043 0.37091
 H663 H 0.27244 0.38066 0.32012
 H664 H 0.27157 0.41924 0.36081
 C665 C 0.25735 0.10179 0.88854
 C666 C 0.24472 0.09539 0.85937
 C667 C 0.24520 0.11686 0.83559
 C668 C 0.25753 0.06093 0.93325
 C669 C 0.27093 0.15125 0.87015
 C670 C 0.27040 0.12977 0.89388
 C671 C 0.25729 0.07957 0.91288
 C672 C 0.25840 0.14501 0.84069
 H673 H 0.23465 0.07375 0.85495
 H674 H 0.23567 0.11127 0.81308
 H675 H 0.28085 0.17286 0.87495
 H676 H 0.28019 0.13499 0.91639
 C677 C 0.76209 0.60142 0.39475
 C678 C 0.77495 0.62938 0.40073
 C679 C 0.77524 0.65139 0.37753
 C680 C 0.76157 0.55983 0.43871
 C681 C 0.74973 0.61755 0.34220
 C682 C 0.74949 0.59555 0.36544
 C683 C 0.76181 0.57879 0.41867
 C684 C 0.76264 0.64572 0.34798
 H685 H 0.78468 0.63419 0.42337
 H686 H 0.78496 0.67298 0.38284
 H687 H 0.74018 0.61239 0.31959
 H688 H 0.73954 0.57396 0.36054
 C689 C 0.10209 0.73631 0.89449
 C690 C 0.09905 0.75430 0.86793
 C691 C 0.12078 0.75360 0.84445
 C692 C 0.06071 0.73765 0.93867
 C693 C 0.14878 0.71686 0.87405
 C694 C 0.12699 0.71758 0.89750
 C695 C 0.07962 0.73703 0.91858
 C696 C 0.14590 0.73485 0.84723
 H697 H 0.07991 0.76894 0.86540
 H698 H 0.11815 0.76804 0.82432
 H699 H 0.16767 0.70196 0.87670
 H700 H 0.12952 0.70350 0.91793
 C701 C 0.60463 0.23991 0.38866
 C702 C 0.59879 0.25270 0.35943
 C703 C 0.62094 0.25300 0.33635
 C704 C 0.56278 0.23915 0.43233
 C705 C 0.65489 0.22772 0.37171
 C706 C 0.63272 0.22747 0.39475
 C707 C 0.58183 0.23952 0.41240
 C708 C 0.64923 0.24045 0.34222
 H709 H 0.57708 0.26234 0.35446
 H710 H 0.61580 0.26265 0.31377
 H711 H 0.67657 0.21827 0.37709
 H712 H 0.63751 0.21761 0.41733
 C713 C 0.89677 0.26049 0.88997
 C714 C 0.86852 0.27251 0.89619
 C715 C 0.84620 0.27168 0.87336
 C716 C 0.93891 0.26241 0.93325
 C717 C 0.88031 0.24663 0.83797
 C718 C 0.90262 0.24752 0.86084
 C719 C 0.91974 0.26151 0.91348
 C720 C 0.85185 0.25877 0.84396
 H721 H 0.86373 0.28251 0.91870
 H722 H 0.82440 0.28082 0.87882
 H723 H 0.88544 0.23686 0.81545
 H724 H 0.92444 0.23819 0.85577
 C725 C 0.39687 0.76805 0.39523
 C726 C 0.40095 0.78540 0.36834
 C727 C 0.37901 0.78582 0.34507
 C728 C 0.43875 0.76670 0.43886
 C729 C 0.34868 0.75164 0.37563
 C730 C 0.37067 0.75123 0.39886
 C731 C 0.41964 0.76734 0.41900
 C732 C 0.35264 0.76888 0.34841
 H733 H 0.42110 0.79856 0.36533
 H734 H 0.38255 0.79960 0.32458
 H735 H 0.32883 0.73805 0.37870
 H736 H 0.36731 0.73766 0.41955
 C737 C 0.26316 0.89851 0.10598
 C738 C 0.28224 0.87388 0.10309
 C739 C 0.28314 0.85212 0.12655
 C740 C 0.26150 0.93984 0.06179
 C741 C 0.24585 0.87961 0.15593
 C742 C 0.24497 0.90131 0.13244
 C743 C 0.26226 0.92095 0.08188
 C744 C 0.26497 0.85476 0.15327
 H745 H 0.29648 0.87154 0.08274
 H746 H 0.29833 0.83344 0.12399
 H747 H 0.23127 0.88205 0.17597
 H748 H 0.23006 0.92024 0.13488
 C749 C 0.75878 0.39436 0.61082
 C750 C 0.77165 0.36645 0.60485
 C751 C 0.77149 0.34429 0.62789
 C752 C 0.75947 0.43626 0.56721
 C753 C 0.74544 0.37789 0.66301
 C754 C 0.74565 0.40003 0.63992
 C755 C 0.75912 0.41718 0.58711
 C756 C 0.75842 0.34978 0.65726
 H757 H 0.78178 0.36180 0.58237
 H758 H 0.78128 0.32275 0.62261
 H759 H 0.73552 0.38289 0.68549
 H760 H 0.73568 0.42159 0.64481
 C761 C 0.73982 0.10190 0.11039
 C762 C 0.76558 0.11927 0.11455
 C763 C 0.76627 0.14149 0.13751
 C764 C 0.73822 0.06023 0.06663
 C765 C 0.71542 0.12895 0.15230
 C766 C 0.71479 0.10674 0.12935
 C767 C 0.73899 0.07922 0.08658
 C768 C 0.74115 0.14664 0.15659
 H769 H 0.78506 0.11575 0.09994
 H770 H 0.78626 0.15498 0.13999
 H771 H 0.69589 0.13212 0.16689
 H772 H 0.69478 0.09335 0.12639
 C773 C 0.23399 0.60308 0.60573
 C774 C 0.25219 0.60005 0.63214
 C775 C 0.25180 0.62188 0.65550
 C776 C 0.23485 0.56157 0.56172
 C777 C 0.21499 0.64996 0.62610
 C778 C 0.21539 0.62807 0.60277
 C779 C 0.23442 0.58053 0.58174
 C780 C 0.23318 0.64709 0.65276
 H781 H 0.26674 0.58084 0.63463
 H782 H 0.26639 0.61924 0.67550
 H783 H 0.20016 0.66892 0.62349
 H784 H 0.20116 0.63061 0.58246
 C785 C 0.89868 0.74103 0.11193
 C786 C 0.90522 0.75342 0.14117
 C787 C 0.88373 0.75305 0.16494
 C788 C 0.93953 0.74092 0.06718
 C789 C 0.84906 0.72787 0.13023
 C790 C 0.87056 0.72829 0.10651
 C791 C 0.92090 0.74110 0.08756
 C792 C 0.85541 0.74020 0.15975
 H793 H 0.92696 0.76325 0.14566
 H794 H 0.88940 0.76242 0.18750
 H795 H 0.82733 0.71822 0.12536
 H796 H 0.86525 0.71869 0.08393
 C797 C 0.39817 0.23669 0.60545
 C798 C 0.40427 0.24900 0.63484
 C799 C 0.38231 0.24892 0.65812
 C800 C 0.43965 0.23707 0.56135
 C801 C 0.34803 0.22414 0.62268
 C802 C 0.37002 0.22427 0.59943
 C803 C 0.42074 0.23687 0.58146
 C804 C 0.35392 0.23648 0.65230
 H805 H 0.42602 0.25861 0.63977
 H806 H 0.38764 0.25826 0.68079
 H807 H 0.32628 0.21479 0.61733
 H808 H 0.36502 0.21477 0.57673
 C809 C 0.10589 0.26867 0.10340
 C810 C 0.13166 0.25143 0.09906
 C811 C 0.15413 0.25131 0.12175
 C812 C 0.06303 0.26781 0.06088
 C813 C 0.12518 0.28585 0.15319
 C814 C 0.10274 0.28596 0.13045
 C815 C 0.08255 0.26833 0.08028
 C816 C 0.15109 0.26843 0.14914
 H817 H 0.13427 0.23790 0.07824
 H818 H 0.17362 0.23737 0.11816
 H819 H 0.12237 0.29956 0.17383
 H820 H 0.08292 0.29944 0.13400
 C821 C 0.60403 0.76168 0.61108
 C822 C 0.60080 0.74297 0.63708
 C823 C 0.62279 0.74247 0.66027
 C824 C 0.56212 0.76283 0.56751
 C825 C 0.65145 0.77939 0.63147
 C826 C 0.62940 0.77986 0.60830
 C827 C 0.58125 0.76230 0.58734
 C828 C 0.64835 0.76073 0.65777
 H829 H 0.58129 0.72874 0.63941
 H830 H 0.61997 0.72756 0.68000
 H831 H 0.67068 0.79395 0.62906
 H832 H 0.63209 0.79449 0.58831
   
