data_POSCAR
  _audit_creation_date              2014-09-24
  _audit_creation_method            'ToBaCCo'
  _symmetry_space_group_name_H-M    'P1'
  _symmetry_Int_Tables_number       1
  _symmetry_cell_setting            triclinic
  loop_
  _symmetry_equiv_pos_as_xyz
 x,y,z
_cell_length_a 40.7397
_cell_length_b 40.7366
_cell_length_c 40.7149
_cell_angle_alpha 100.885600
_cell_angle_beta 80.665400
_cell_angle_gamma 102.916000
loop_
  _atom_site_label
  _atom_site_type_symbol
  _atom_site_fract_x
  _atom_site_fract_y
  _atom_site_fract_z
O1 O 0.52210 0.49359 0.02705
 O2 O 0.43032 0.48237 0.02320
 O3 O 0.47068 0.44273 0.02812
 O4 O 0.48126 0.53384 0.02388
 O5 O 0.49004 0.52281 -0.03162
 O6 O 0.47996 0.43132 -0.02734
 O7 O 0.43951 0.47093 -0.03221
 O8 O 0.53098 0.48264 -0.02845
 Cu9 Cu 0.47525 0.48931 0.03111
 Cu10 Cu 0.48608 0.47587 -0.03546
 C11 C 0.54222 0.48970 -0.00010
 C12 C 0.41915 0.47472 -0.00526
 C13 C 0.47361 0.42141 0.00123
 C14 C 0.48707 0.54395 -0.00453
 O15 O 0.03558 0.55988 0.49112
 O16 O 0.04120 0.46974 0.48212
 O17 O 0.03562 0.51002 0.44126
 O18 O 0.03969 0.51982 0.53259
 O19 O -0.01615 0.50574 0.54145
 O20 O -0.02018 0.49544 0.45054
 O21 O -0.01460 0.45537 0.49140
 O22 O -0.02022 0.54575 0.49992
 Cu23 Cu 0.04362 0.51618 0.48593
 Cu24 Cu -0.02336 0.49907 0.49681
 C25 C 0.00675 0.56833 0.49657
 C26 C 0.01434 0.44710 0.48524
 C27 C 0.00688 0.50148 0.43036
 C28 C 0.01237 0.51457 0.55267
 O29 O 0.51268 0.03662 0.56221
 O30 O 0.52055 0.04052 0.47135
 O31 O 0.47166 0.04249 0.52143
 O32 O 0.56139 0.03612 0.51272
 O33 O 0.54679 -0.01998 0.50212
 O34 O 0.45688 -0.01356 0.51052
 O35 O 0.50597 -0.01556 0.46080
 O36 O 0.49778 -0.01937 0.55124
 Cu37 Cu 0.51792 0.04457 0.51796
 Cu38 Cu 0.50030 -0.02271 0.50504
 C39 C 0.50431 0.00781 0.57228
 C40 C 0.51474 0.01305 0.45050
 C41 C 0.44889 0.01562 0.51744
 C42 C 0.56946 0.00700 0.50630
 C43 C 0.49918 -0.07719 -0.06147
 C44 C 0.50369 -0.04363 -0.06750
 C45 C 0.50518 -0.01686 -0.04011
 C46 C 0.50014 -0.02330 -0.00661
 C47 C 0.49490 -0.05742 -0.00126
 C48 C 0.49515 -0.08435 -0.02851
 C49 C 0.49993 0.00544 0.02251
 C50 C 0.50912 0.00279 0.05373
 C51 C 0.50872 0.02961 0.08108
 C52 C 0.50049 0.06000 0.07668
 C53 C 0.49200 0.06364 0.04574
 C54 C 0.49078 0.03599 0.01923
 H55 H 0.49959 -0.09775 -0.08264
 H56 H 0.50986 0.00896 -0.04522
 H57 H 0.48988 -0.06345 0.02405
 H58 H 0.51727 -0.01980 0.05690
 H59 H 0.49987 0.08071 0.09768
 H60 H 0.48301 0.03874 -0.00408
 C61 C -0.08017 0.49850 1.06123
 C62 C -0.08732 0.49471 1.02800
 C63 C -0.06064 0.49396 1.00139
 C64 C -0.02678 0.49827 1.00771
 C65 C -0.02031 0.50307 1.04147
 C66 C -0.04684 0.50221 1.06817
 C67 C 0.00171 0.49736 0.97939
 C68 C 0.03139 0.48682 0.98319
 C69 C 0.05899 0.48742 0.95760
 C70 C 0.05612 0.49673 0.92692
 C71 C 0.02646 0.50622 0.92193
 C72 C -0.00029 0.50717 0.94846
 H73 H -0.10054 0.49932 1.08191
 H74 H -0.06665 0.48921 0.97578
 H75 H 0.00539 0.50703 1.04725
 H76 H 0.03321 0.47762 1.00593
 H77 H 0.07709 0.49662 0.90684
 H78 H -0.02229 0.51624 0.94496
 C79 C -0.05765 -0.06207 0.49622
 C80 C -0.02440 -0.06744 0.49291
 C81 C 0.00275 -0.03930 0.49282
 C82 C -0.00293 -0.00568 0.49794
 C83 C -0.03676 -0.00103 0.50209
 C84 C -0.06407 -0.02906 0.50021
 C85 C 0.02628 0.02428 0.49878
 C86 C 0.02326 0.05545 0.49045
 C87 C 0.05018 0.08385 0.49209
 C88 C 0.08135 0.08043 0.50010
 C89 C 0.08545 0.04941 0.50748
 C90 C 0.05756 0.02198 0.50785
 H91 H -0.07877 -0.08361 0.49656
 H92 H 0.02829 -0.04405 0.48817
 H93 H -0.04220 0.02432 0.50647
 H94 H 0.00019 0.05786 0.48206
 H95 H 0.10249 0.10196 0.50056
 H96 H 0.06048 -0.00099 0.51574
 C97 C -0.36441 0.48893 0.97249
 C98 C -0.35192 0.49485 1.00357
 C99 C -0.37382 0.50015 1.03348
 C100 C -0.40818 0.49910 1.03234
 C101 C -0.42109 0.49266 1.00122
 C102 C -0.39874 0.48785 0.97129
 C103 C -0.31685 0.49460 1.00477
 C104 C -0.28760 0.49401 1.00588
 C105 C -0.25348 0.49305 1.00750
 C106 C -0.22446 0.49217 1.00938
 C107 C -0.18998 0.49122 1.01243
 C108 C -0.18349 0.47229 1.03512
 C109 C -0.15009 0.47270 1.03955
 C110 C -0.12268 0.49213 1.02136
 C111 C -0.12943 0.51044 0.99800
 C112 C -0.16289 0.51002 0.99363
 H113 H -0.34770 0.48476 0.94919
 H114 H -0.36442 0.50473 1.05768
 H115 H -0.42470 0.50286 1.05583
 H116 H -0.40784 0.48282 0.94691
 H117 H -0.20425 0.45756 1.04973
 H118 H -0.14569 0.45798 1.05737
 H119 H -0.10887 0.52591 0.98390
 H120 H -0.16763 0.52483 0.97605
 C121 C 0.32669 0.47275 1.02034
 C122 C 0.31473 0.46513 0.98889
 C123 C 0.33727 0.45988 0.95952
 C124 C 0.37172 0.46263 0.96146
 C125 C 0.38428 0.47079 0.99294
 C126 C 0.36117 0.47551 1.02241
 C127 C 0.27964 0.46403 0.98652
 C128 C 0.25053 0.46385 0.98400
 C129 C 0.21680 0.46457 0.98056
 C130 C 0.18833 0.46610 0.97731
 C131 C 0.15477 0.46911 0.97318
 C132 C 0.14169 0.45537 0.94266
 C133 C 0.11013 0.46052 0.93779
 C134 C 0.09129 0.47958 0.96341
 C135 C 0.10435 0.49263 0.99425
 C136 C 0.13588 0.48745 0.99906
 H137 H 0.30943 0.47696 1.04324
 H138 H 0.32828 0.45406 0.93504
 H139 H 0.38851 0.45871 0.93817
 H140 H 0.36969 0.48175 1.04711
 H141 H 0.15613 0.44116 0.92245
 H142 H 0.10056 0.44981 0.91393
 H143 H 0.09068 0.50780 1.01427
 H144 H 0.14587 0.49839 1.02269
 C145 C 0.03242 -0.33848 0.49366
 C146 C 0.00078 -0.32918 0.49809
 C147 C -0.02889 -0.35368 0.50314
 C148 C -0.02699 -0.38751 0.50326
 C149 C 0.00473 -0.39738 0.49821
 C150 C 0.03445 -0.37225 0.49375
 C151 C -0.00121 -0.29467 0.49670
 C152 C -0.00286 -0.26582 0.49523
 C153 C -0.00493 -0.23213 0.49338
 C154 C -0.00696 -0.20339 0.49192
 C155 C -0.00987 -0.16915 0.49054
 C156 C -0.03309 -0.16354 0.47138
 C157 C -0.03724 -0.13039 0.47142
 C158 C -0.01822 -0.10240 0.49069
 C159 C 0.00559 -0.10825 0.50928
 C160 C 0.00968 -0.14143 0.50922
 H161 H 0.05555 -0.31969 0.48976
 H162 H -0.05352 -0.34671 0.50662
 H163 H -0.05045 -0.40594 0.50683
 H164 H 0.05936 -0.37866 0.48985
 H165 H -0.04829 -0.18481 0.45676
 H166 H -0.05546 -0.12664 0.45654
 H167 H 0.02028 -0.08728 0.52469
 H168 H 0.02765 -0.14551 0.52421
 C169 C -0.00984 0.35134 0.48375
 C170 C 0.02207 0.34234 0.47734
 C171 C 0.05136 0.36747 0.47295
 C172 C 0.04882 0.40150 0.47522
 C173 C 0.01688 0.41088 0.48196
 C174 C -0.01246 0.38538 0.48603
 C175 C 0.02491 0.30754 0.47620
 C176 C 0.02756 0.27857 0.47579
 C177 C 0.03088 0.24486 0.47604
 C178 C 0.03380 0.21625 0.47695
 C179 C 0.03729 0.18232 0.47899
 C180 C 0.06712 0.17084 0.46455
 C181 C 0.07117 0.13855 0.46817
 C182 C 0.04538 0.11734 0.48635
 C183 C 0.01527 0.12893 0.50027
 C184 C 0.01130 0.16119 0.49663
 H185 H -0.03268 0.33210 0.48727
 H186 H 0.07619 0.36080 0.46805
 H187 H 0.07190 0.42047 0.47195
 H188 H -0.03740 0.39175 0.49124
 H189 H 0.08741 0.18700 0.45084
 H190 H 0.09445 0.13020 0.45682
 H191 H -0.00484 0.11342 0.51480
 H192 H -0.01183 0.16989 0.50806
 C193 C 0.49452 -0.02839 -0.34848
 C194 C 0.50335 0.00108 -0.32526
 C195 C 0.51144 0.03301 -0.33579
 C196 C 0.51119 0.03543 -0.36959
 C197 C 0.50292 0.00581 -0.39340
 C198 C 0.49425 -0.02612 -0.38223
 C199 C 0.50467 -0.00181 -0.29083
 C200 C 0.50573 -0.00523 -0.26228
 C201 C 0.50671 -0.01032 -0.22914
 C202 C 0.50714 -0.01551 -0.20105
 C203 C 0.50695 -0.02264 -0.16771
 C204 C 0.52943 -0.00174 -0.14621
 C205 C 0.52877 -0.00870 -0.11371
 C206 C 0.50560 -0.03670 -0.10237
 C207 C 0.48331 -0.05765 -0.12431
 C208 C 0.48401 -0.05065 -0.15672
 H209 H 0.48816 -0.05324 -0.34057
 H210 H 0.51828 0.05601 -0.31798
 H211 H 0.51796 0.06047 -0.37706
 H212 H 0.48766 -0.04953 -0.39958
 H213 H 0.54739 0.01994 -0.15452
 H214 H 0.54648 0.00767 -0.09753
 H215 H 0.46484 -0.07908 -0.11615
 H216 H 0.46645 -0.06696 -0.17313
 C217 C 0.51436 -0.01508 0.35629
 C218 C 0.52336 0.01622 0.34449
 C219 C 0.52989 0.04656 0.36730
 C220 C 0.52727 0.04561 0.40182
 C221 C 0.51803 0.01425 0.41395
 C222 C 0.51172 -0.01610 0.39075
 C223 C 0.52505 0.01716 0.30907
 C224 C 0.52587 0.01777 0.27945
 C225 C 0.52608 0.01849 0.24488
 C226 C 0.52553 0.01931 0.21553
 C227 C 0.52390 0.02073 0.18078
 C228 C 0.53902 0.05053 0.16738
 C229 C 0.53508 0.05303 0.13452
 C230 C 0.51586 0.02575 0.11464
 C231 C 0.50165 -0.00451 0.12796
 C232 C 0.50560 -0.00694 0.16085
 H233 H 0.50917 -0.03871 0.33887
 H234 H 0.53679 0.07095 0.35844
 H235 H 0.53230 0.06941 0.41899
 H236 H 0.50458 -0.04066 0.39922
 H237 H 0.55326 0.07210 0.18256
 H238 H 0.54670 0.07648 0.12480
 H239 H 0.48641 -0.02579 0.11341
 H240 H 0.49366 -0.03008 0.17102
 C241 C 0.49572 -0.37343 -0.03831
 C242 C 0.49169 -0.35041 -0.00842
 C243 C 0.48709 -0.36175 0.02268
 C244 C 0.48611 -0.39601 0.02394
 C245 C 0.48971 -0.41946 -0.00597
 C246 C 0.49476 -0.40774 -0.03713
 C247 C 0.49160 -0.31532 -0.00960
 C248 C 0.49124 -0.28600 -0.01053
 C249 C 0.49065 -0.25173 -0.01177
 C250 C 0.49018 -0.22254 -0.01318
 C251 C 0.48982 -0.18778 -0.01550
 C252 C 0.50880 -0.16076 0.00453
 C253 C 0.50981 -0.12705 0.00096
 C254 C 0.49191 -0.11996 -0.02280
 C255 C 0.47230 -0.14729 -0.04227
 C256 C 0.47130 -0.18095 -0.03864
 H257 H 0.49928 -0.36492 -0.06253
 H258 H 0.48394 -0.34416 0.04598
 H259 H 0.48217 -0.40417 0.04834
 H260 H 0.49757 -0.42513 -0.06059
 H261 H 0.52330 -0.16576 0.02247
 H262 H 0.52542 -0.10658 0.01604
 H263 H 0.45788 -0.14263 -0.06045
 H264 H 0.45644 -0.20166 -0.05421
 C265 C 0.46061 0.33964 0.03739
 C266 C 0.46615 0.31607 0.00831
 C267 C 0.47316 0.32668 -0.02330
 C268 C 0.47506 0.36088 -0.02576
 C269 C 0.47007 0.38488 0.00343
 C270 C 0.46252 0.37379 0.03500
 C271 C 0.46614 0.28142 0.01126
 C272 C 0.46691 0.25282 0.01454
 C273 C 0.46880 0.21986 0.01919
 C274 C 0.47135 0.19220 0.02375
 C275 C 0.47564 0.15982 0.02979
 C276 C 0.45434 0.12949 0.01741
 C277 C 0.45927 0.09812 0.02289
 C278 C 0.48559 0.09677 0.04084
 C279 C 0.50663 0.12745 0.05337
 C280 C 0.50167 0.15870 0.04788
 H281 H 0.45528 0.33173 0.06198
 H282 H 0.47763 0.30865 -0.04597
 H283 H 0.48093 0.36860 -0.05043
 H284 H 0.45850 0.39157 0.05796
 H285 H 0.43406 0.13008 0.00344
 H286 H 0.44244 0.07497 0.01325
 H287 H 0.52741 0.12723 0.06683
 H288 H 0.51837 0.18201 0.05748
 C289 C -0.35131 -0.02974 0.49772
 C290 C -0.32648 -0.00009 0.50331
 C291 C -0.33551 0.03187 0.50906
 C292 C -0.36931 0.03421 0.50956
 C293 C -0.39454 0.00454 0.50433
 C294 C -0.38513 -0.02748 0.49821
 C295 C -0.29182 -0.00250 0.50359
 C296 C -0.26287 -0.00472 0.50390
 C297 C -0.22908 -0.00769 0.50415
 C298 C -0.20030 -0.01071 0.50406
 C299 C -0.16610 -0.01505 0.50338
 C300 C -0.14476 0.00661 0.52558
 C301 C -0.11154 0.00214 0.52472
 C302 C -0.09933 -0.02412 0.50166
 C303 C -0.12101 -0.04569 0.47948
 C304 C -0.15414 -0.04117 0.48037
 H305 H -0.34457 -0.05462 0.49323
 H306 H -0.31648 0.05498 0.51341
 H307 H -0.37570 0.05924 0.51437
 H308 H -0.40393 -0.05079 0.49412
 H309 H -0.15382 0.02687 0.54356
 H310 H -0.09556 0.01892 0.54233
 H311 H -0.11219 -0.06580 0.46111
 H312 H -0.17040 -0.05801 0.46301
 C313 C 0.36980 0.05336 0.53015
 C314 C 0.34455 0.02401 0.52490
 C315 C 0.35331 -0.00814 0.51778
 C316 C 0.38722 -0.01095 0.51565
 C317 C 0.41283 0.01843 0.52058
 C318 C 0.40370 0.05062 0.52804
 C319 C 0.30984 0.02700 0.52584
 C320 C 0.28090 0.02962 0.52605
 C321 C 0.24717 0.03273 0.52552
 C322 C 0.21851 0.03534 0.52432
 C323 C 0.18446 0.03829 0.52185
 C324 C 0.16345 0.01175 0.50335
 C325 C 0.13103 0.01516 0.49929
 C326 C 0.11914 0.04523 0.51369
 C327 C 0.14023 0.07158 0.53274
 C328 C 0.17270 0.06811 0.53676
 H329 H 0.36332 0.07838 0.53560
 H330 H 0.33398 -0.03103 0.51358
 H331 H 0.39338 -0.03610 0.50988
 H332 H 0.42277 0.07374 0.53198
 H333 H 0.17235 -0.01136 0.49155
 H334 H 0.11562 -0.00538 0.48409
 H335 H 0.13167 0.09486 0.54445
 H336 H 0.18875 0.08882 0.55115
 C337 C -0.02971 0.48977 1.34819
 C338 C -0.00062 0.49960 1.32603
 C339 C 0.03121 0.50878 1.33763
 C340 C 0.03386 0.50867 1.37146
 C341 C 0.00464 0.49943 1.39407
 C342 C -0.02714 0.48966 1.38195
 C343 C -0.00385 0.50104 1.29168
 C344 C -0.00756 0.50228 1.26320
 C345 C -0.01295 0.50356 1.23014
 C346 C -0.01835 0.50429 1.20208
 C347 C -0.02566 0.50453 1.16872
 C348 C -0.00450 0.52680 1.14832
 C349 C -0.01155 0.52650 1.11574
 C350 C -0.03991 0.50388 1.10322
 C351 C -0.06116 0.48184 1.12408
 C352 C -0.05406 0.48218 1.15658
 H353 H -0.05447 0.48260 1.33947
 H354 H 0.05389 0.51645 1.32067
 H355 H 0.05867 0.51638 1.38001
 H356 H -0.05012 0.48241 1.39866
 H357 H 0.01749 0.54431 1.15753
 H358 H 0.00506 0.54402 1.10041
 H359 H -0.08288 0.46379 1.11499
 H360 H -0.07058 0.46480 1.17215
 C361 C 0.04590 0.53043 0.63716
 C362 C 0.01571 0.52447 0.65909
 C363 C -0.01549 0.51580 0.64629
 C364 C -0.01656 0.51284 0.61171
 C365 C 0.01363 0.51849 0.58938
 C366 C 0.04490 0.52750 0.60252
 C367 C 0.01667 0.52619 0.69457
 C368 C 0.01721 0.52690 0.72421
 C369 C 0.01774 0.52682 0.75877
 C370 C 0.01829 0.52590 0.78810
 C371 C 0.01927 0.52368 0.82278
 C372 C -0.00879 0.50562 0.84111
 C373 C -0.00686 0.50096 0.87385
 C374 C 0.02327 0.51419 0.88861
 C375 C 0.05097 0.53321 0.87036
 C376 C 0.04898 0.53787 0.83765
 H377 H 0.07020 0.53706 0.64680
 H378 H -0.03900 0.51104 0.66301
 H379 H -0.04104 0.50590 0.60245
 H380 H 0.06858 0.53202 0.58603
 H381 H -0.03186 0.49440 0.82979
 H382 H -0.02847 0.48590 0.88713
 H383 H 0.07434 0.54411 0.88123
 H384 H 0.07084 0.55191 0.82370
   
