data_POSCAR
  _audit_creation_date              2014-09-24
  _audit_creation_method            'ToBaCCo'
  _symmetry_space_group_name_H-M    'P1'
  _symmetry_Int_Tables_number       1
  _symmetry_cell_setting            triclinic
  loop_
  _symmetry_equiv_pos_as_xyz
 x,y,z
_cell_length_a 32.8832
_cell_length_b 32.9232
_cell_length_c 10.1613
_cell_angle_alpha 90.148400
_cell_angle_beta 90.015000
_cell_angle_gamma 119.793300
loop_
  _atom_site_label
  _atom_site_type_symbol
  _atom_site_fract_x
  _atom_site_fract_y
  _atom_site_fract_z
C1 C 0.21192 0.49935 0.43189
 C2 C 0.21152 0.49823 0.57156
 C3 C 0.24900 0.49881 0.63964
 C4 C 0.28666 0.49995 0.57189
 C5 C 0.28691 0.50096 0.43300
 C6 C 0.24986 0.50090 0.36472
 H7 H 0.25036 0.50139 0.25783
 H8 H 0.24859 0.49779 0.74654
 C9 C 0.50000 -0.28696 0.42838
 C10 C 0.49985 -0.28670 0.56734
 C11 C 0.50026 -0.24940 0.63553
 C12 C 0.50128 -0.21183 0.56785
 C13 C 0.50152 -0.21214 0.42841
 C14 C 0.50064 -0.24971 0.36055
 H15 H 0.50104 -0.24958 0.25366
 H16 H 0.50036 -0.24944 0.74241
 C17 C 1.28634 0.78950 0.42563
 C18 C 1.28576 0.78907 0.56502
 C19 C 1.24886 0.75173 0.63181
 C20 C 1.21205 0.71489 0.56320
 C21 C 1.21246 0.71544 0.42406
 C22 C 1.24960 0.75246 0.35705
 H23 H 1.24954 0.75261 0.25015
 H24 H 1.24852 0.75163 0.73864
 C25 C 0.78715 0.49990 0.43493
 C26 C 0.78697 0.49954 0.57387
 C27 C 0.75001 0.49982 0.64206
 C28 C 0.71336 0.50088 0.57417
 C29 C 0.71371 0.50124 0.43473
 C30 C 0.75045 0.50052 0.36709
 H31 H 0.75080 0.50105 0.26026
 H32 H 0.75008 0.49981 0.74899
 C33 C 0.49855 0.28664 0.43726
 C34 C 0.49798 0.28626 0.57670
 C35 C 0.49856 0.24940 0.64415
 C36 C 0.49927 0.21275 0.57561
 C37 C 0.49985 0.21323 0.43667
 C38 C 0.49968 0.25017 0.36920
 H39 H 0.49984 0.25022 0.26237
 H40 H 0.49791 0.24894 0.75107
 C41 C 0.71345 0.21405 0.43179
 C42 C 0.71345 0.21412 0.57060
 C43 C 0.75032 0.25103 0.63928
 C44 C 0.78747 0.28783 0.57168
 C45 C 0.78734 0.28781 0.43260
 C46 C 0.75028 0.25103 0.36415
 H47 H 0.75041 0.25088 0.25735
 H48 H 0.75030 0.25073 0.74614
 O49 O 0.93409 0.53526 -0.24905
 O50 O 0.88221 0.47361 -0.12160
 C51 C 0.89210 0.50345 -0.21624
 O52 O 1.06517 0.45885 -0.23691
 O53 O 1.11756 0.52329 -0.11812
 C54 C 1.10728 0.49138 -0.20751
 O55 O 0.93505 0.39823 -0.24870
 O56 O 0.88260 0.40717 -0.11983
 C57 C 0.89283 0.38755 -0.21531
 O58 O 1.06422 0.60305 -0.24392
 O59 O 1.11717 0.59190 -0.12346
 C60 C 1.10659 0.61307 -0.21399
 Zr61 Zr 0.99942 0.54986 -0.16881
 O62 O 1.00000 0.55143 -0.37507
 O63 O 0.99811 0.61320 -0.15310
 Zr64 Zr 0.99992 0.44673 -0.16219
 O65 O 1.00109 0.43802 -0.36630
 O66 O 0.99537 0.38080 -0.13508
 O67 O 0.95850 0.47758 -0.19169
 O68 O 1.03975 0.51828 -0.19110
 O69 O 1.06543 0.60605 0.22867
 O70 O 1.11774 0.59348 0.11026
 C71 C 1.10750 0.61544 0.19890
 O72 O 0.93586 0.39932 0.24671
 O73 O 0.88308 0.40846 0.11991
 C74 C 0.89364 0.38903 0.21483
 O75 O 1.06581 0.46163 0.23944
 O76 O 1.11793 0.52482 0.11656
 C77 C 1.10793 0.49377 0.20851
 O78 O 0.93564 0.53627 0.24582
 O79 O 0.88288 0.47483 0.11830
 C80 C 0.89338 0.50471 0.21373
 Zr81 Zr 1.00012 0.55250 0.15715
 O82 O 1.00226 0.56297 0.36149
 O83 O 0.99503 0.61365 0.13076
 Zr84 Zr 1.00058 0.44934 0.16400
 O85 O 1.00264 0.45009 0.37000
 O86 O 0.99673 0.38322 0.15599
 Zr87 Zr 0.92947 0.46438 -0.00158
 Zr88 Zr 1.07064 0.53487 -0.00327
 O89 O 1.04051 0.52109 0.18525
 O90 O 0.95932 0.48058 0.18774
 O91 O 1.04275 0.58040 -0.00690
 O92 O 0.95828 0.41988 0.00157
 O93 O 0.95767 0.53737 -0.00553
 O94 O 1.04335 0.46172 0.00084
 H95 H 1.05972 0.52822 -0.27058
 H96 H 0.93636 0.38565 0.00256
 H97 H 1.06083 0.53152 0.26420
 H98 H 0.93559 0.54966 -0.00573
 H99 H 1.02734 0.38643 -0.11687
 H100 H 1.02676 0.38801 0.12003
 H101 H 0.98418 0.46486 0.39829
 H102 H 1.01750 0.54607 0.39764
 H103 H 1.02583 0.63876 0.09942
 H104 H 0.99714 0.62306 -0.24453
 H105 H 0.98185 0.51838 -0.40416
 H106 H 1.01461 0.47000 -0.40166
 O107 O 0.39845 0.46455 0.24585
 O108 O 0.40820 0.52658 0.11968
 C109 C 0.38847 0.49665 0.21408
 O110 O 0.60505 0.54040 0.23582
 O111 O 0.59332 0.47607 0.11651
 C112 C 0.61470 0.50782 0.20647
 O113 O 0.53567 0.60130 0.24782
 O114 O 0.47458 0.59286 0.11860
 C115 C 0.50425 0.61224 0.21453
 O116 O 0.46056 0.39654 0.24007
 O117 O 0.52465 0.40771 0.12006
 C118 C 0.49302 0.38663 0.21052
 Zr119 Zr 0.44888 0.44978 0.16496
 O120 O 0.44738 0.44752 0.37112
 O121 O 0.38450 0.38660 0.14744
 Zr122 Zr 0.55213 0.55282 0.16055
 O123 O 0.56171 0.56107 0.36481
 O124 O 0.61334 0.61869 0.13438
 O125 O 0.48003 0.52204 0.18917
 O126 O 0.52057 0.48122 0.18834
 O127 O 0.45940 0.39432 -0.23363
 O128 O 0.52391 0.40644 -0.11431
 C129 C 0.49199 0.38469 -0.20366
 O130 O 0.53605 0.60117 -0.24740
 O131 O 0.47397 0.59188 -0.12137
 C132 C 0.50407 0.61145 -0.21562
 O133 O 0.60391 0.53857 -0.23954
 O134 O 0.59268 0.47505 -0.11744
 C135 C 0.61396 0.50637 -0.20829
 O136 O 0.39863 0.46402 -0.24825
 O137 O 0.40734 0.52549 -0.12030
 C138 C 0.38777 0.49558 -0.21559
 Zr139 Zr 0.44737 0.44785 -0.16104
 O140 O 0.43975 0.43847 -0.36573
 O141 O 0.38142 0.38658 -0.13646
 Zr142 Zr 0.55065 0.55081 -0.16564
 O143 O 0.55225 0.55028 -0.37165
 O144 O 0.61264 0.61689 -0.15725
 Zr145 Zr 0.46444 0.53573 -0.00073
 Zr146 Zr 0.53514 0.46490 0.00050
 O147 O 0.51910 0.47912 -0.18803
 O148 O 0.47832 0.51985 -0.19031
 O149 O 0.46193 0.41949 0.00274
 O150 O 0.53755 0.58006 -0.00293
 O151 O 0.41987 0.46274 0.00187
 O152 O 0.58078 0.53803 -0.00239
 H153 H 0.53046 0.47116 0.26797
 H154 H 0.54979 0.61431 -0.00336
 H155 H 0.52928 0.46886 -0.26683
 H156 H 0.38557 0.45050 0.00211
 H157 H 0.63971 0.61302 0.11689
 H158 H 0.63774 0.61212 -0.11978
 H159 H 0.51921 0.53643 -0.40034
 H160 H 0.47192 0.45525 -0.40100
 H161 H 0.38718 0.36146 -0.10485
 H162 H 0.37347 0.37652 0.23858
 H163 H 0.46235 0.48052 0.40073
 H164 H 0.54291 0.52910 0.39983
 O165 O 0.46372 0.06538 0.24731
 O166 O 0.52574 0.11765 0.12146
 C167 C 0.49573 0.10740 0.21610
 O168 O 0.54052 -0.06493 0.23175
 O169 O 0.47618 -0.11711 0.11214
 C170 C 0.50801 -0.10692 0.20172
 O171 O 0.60100 0.06488 0.24642
 O172 O 0.59226 0.11750 0.11855
 C173 C 0.61175 0.10711 0.21379
 O174 O 0.39592 -0.06439 0.23861
 O175 O 0.40744 -0.11689 0.11698
 C176 C 0.38607 -0.10660 0.20786
 Zr177 Zr 0.44924 0.00050 0.16480
 O178 O 0.44717 -0.00077 0.37090
 O179 O 0.38586 0.00182 0.14881
 Zr180 Zr 0.55264 0.00028 0.15854
 O181 O 0.56088 -0.00142 0.36274
 O182 O 0.61876 0.00499 0.13178
 O183 O 0.52157 0.04143 0.18884
 O184 O 0.48095 -0.03968 0.18638
 O185 O 0.39411 -0.06432 -0.23483
 O186 O 0.40648 -0.11682 -0.11743
 C187 C 0.38474 -0.10640 -0.20617
 O188 O 0.60110 0.06530 -0.24835
 O189 O 0.59144 0.11761 -0.12068
 C190 C 0.61125 0.10738 -0.21546
 O191 O 0.53867 -0.06484 -0.24365
 O192 O 0.47521 -0.11712 -0.12171
 C193 C 0.50656 -0.10701 -0.21301
 O194 O 0.46339 0.06546 -0.24699
 O195 O 0.52477 0.11778 -0.11851
 C196 C 0.49486 0.10760 -0.21365
 Zr197 Zr 0.44740 0.00072 -0.16112
 O198 O 0.43792 -0.00060 -0.36555
 O199 O 0.38590 0.00539 -0.13520
 Zr200 Zr 0.55074 0.00036 -0.16775
 O201 O 0.55047 -0.00121 -0.37388
 O202 O 0.61698 0.00430 -0.15985
 Zr203 Zr 0.53519 0.07091 -0.00051
 Zr204 Zr 0.46479 -0.07006 -0.00211
 O205 O 0.47898 -0.03953 -0.18998
 O206 O 0.51946 0.04163 -0.19065
 O207 O 0.41909 -0.04236 0.00182
 O208 O 0.57982 0.04222 -0.00428
 O209 O 0.46210 0.04265 0.00268
 O210 O 0.53806 -0.04269 -0.00543
 H211 H 0.47086 -0.05978 0.26548
 H212 H 0.61409 0.06412 -0.00464
 H213 H 0.46884 -0.05970 -0.26928
 H214 H 0.44972 0.06464 0.00370
 H215 H 0.61323 -0.02686 0.11270
 H216 H 0.61223 -0.02565 -0.12382
 H217 H 0.53641 0.01786 -0.40220
 H218 H 0.45515 -0.01559 -0.40125
 H219 H 0.36081 -0.02546 -0.10423
 H220 H 0.37576 0.00256 0.24022
 H221 H 0.48024 0.01722 0.40003
 H222 H 0.52882 -0.01524 0.39819
 C223 C 1.17626 0.49797 0.35776
 C224 C 1.14552 0.49636 0.28829
 C225 C 0.50074 0.67800 0.35688
 C226 C 0.50197 0.64787 0.29149
 C227 C 0.32101 -0.17485 0.35358
 C228 C 0.35060 -0.14407 0.28597
 C229 C 0.82476 0.50091 0.35841
 C230 C 0.85586 0.50234 0.29191
 C231 C 0.49702 0.32272 0.35939
 C232 C 0.49539 0.35171 0.29014
 C233 C 0.67698 0.17622 0.35598
 C234 C 0.64717 0.14483 0.29070
 C235 C 0.49831 0.17690 -0.35375
 C236 C 0.49700 0.14545 -0.28943
 C237 C 0.67896 0.50240 -0.35329
 C238 C 0.64946 0.50404 -0.28588
 C239 C 0.82340 0.32229 -0.35675
 C240 C 0.85493 0.35211 -0.29175
 C241 C 0.50281 -0.17583 -0.35942
 C242 C 0.50438 -0.14471 -0.29158
 C243 C 0.32168 0.49900 -0.35689
 C244 C 0.35193 0.49771 -0.29212
 C245 C 1.17454 0.67814 -0.36035
 C246 C 1.14391 0.64855 -0.29246
 C247 C 0.82261 0.50016 -0.35519
 C248 C 0.85406 0.50130 -0.29112
 C249 C 0.49613 0.32026 -0.35008
 C250 C 0.49429 0.34941 -0.28182
 C251 C 0.67685 0.17647 -0.35466
 C252 C 0.64686 0.14514 -0.29056
 C253 C 1.17554 0.49592 -0.35517
 C254 C 1.14460 0.49377 -0.28651
 C255 C 0.50059 0.67672 -0.35675
 C256 C 0.50185 0.64685 -0.29165
 C257 C 0.32133 -0.17378 -0.35582
 C258 C 0.35000 -0.14342 -0.28580
 C259 C 0.50355 -0.17465 0.35017
 C260 C 0.50552 -0.14409 0.28074
 C261 C 0.32359 0.50046 0.35671
 C262 C 0.35333 0.49919 0.29073
 C263 C 1.17530 0.67959 0.34582
 C264 C 1.14478 0.65058 0.27695
 C265 C 0.49924 0.17596 0.35980
 C266 C 0.49804 0.14497 0.29346
 C267 C 0.67805 0.50327 0.35630
 C268 C 0.64938 0.50525 0.28644
 C269 C 0.82494 0.32416 0.35686
 C270 C 0.85610 0.35383 0.29151
   
