data_POSCAR
  _audit_creation_date              2014-09-24
  _audit_creation_method            'ToBaCCo'
  _symmetry_space_group_name_H-M    'P1'
  _symmetry_Int_Tables_number       1
  _symmetry_cell_setting            triclinic
  loop_
  _symmetry_equiv_pos_as_xyz
 x,y,z
_cell_length_a 25.7556
_cell_length_b 25.7970
_cell_length_c 25.7028
_cell_angle_alpha 100.174700
_cell_angle_beta 71.059900
_cell_angle_gamma 77.816000
loop_
  _atom_site_label
  _atom_site_type_symbol
  _atom_site_fract_x
  _atom_site_fract_y
  _atom_site_fract_z
C1 C 0.53138 0.47160 0.00046
 C2 C 0.49541 0.51295 -0.00795
 C3 C 0.43904 0.50998 -0.00968
 C4 C 0.50882 0.56543 -0.01127
 C5 C 0.58798 0.47521 0.00054
 C6 C 0.51927 0.41831 0.00246
 C7 C 0.42474 0.52072 -0.05560
 C8 C 0.37031 0.52244 -0.05572
 C9 C 0.32791 0.51428 -0.00938
 C10 C 0.34391 0.50062 0.03535
 C11 C 0.39829 0.49962 0.03565
 C12 C 0.53589 0.57472 -0.06426
 C13 C 0.54471 0.62591 -0.06709
 C14 C 0.52702 0.66805 -0.01692
 C15 C 0.50060 0.65841 0.03609
 C16 C 0.49160 0.60733 0.03887
 C17 C 0.59912 0.47995 0.05084
 C18 C 0.65402 0.47905 0.04949
 C19 C 0.69839 0.47390 -0.00210
 C20 C 0.68628 0.47204 -0.05180
 C21 C 0.63184 0.47162 -0.05069
 C22 C 0.50874 0.40121 0.05280
 C23 C 0.49959 0.34995 0.05394
 C24 C 0.50032 0.31528 0.00491
 C25 C 0.51044 0.33252 -0.04538
 C26 C 0.51971 0.38382 -0.04655
 H27 H 0.45582 0.52754 -0.09177
 H28 H 0.36220 0.52853 -0.09333
 H29 H 0.31329 0.49441 0.07235
 H30 H 0.40799 0.49223 0.07211
 H31 H 0.54937 0.54263 -0.10332
 H32 H 0.56482 0.63291 -0.10829
 H33 H 0.47036 0.60068 0.07998
 H34 H 0.56557 0.48410 0.09107
 H35 H 0.66213 0.48161 0.08853
 H36 H 0.71943 0.46963 -0.09175
 H37 H 0.62403 0.46785 -0.08993
 H38 H 0.50735 0.42745 0.09129
 H39 H 0.49267 0.33693 0.09286
 H40 H 0.51177 0.30597 -0.08377
 H41 H 0.52803 0.39639 -0.08580
 H42 H 0.48608 0.69082 0.07513
 C43 C -0.00042 0.51544 0.51433
 C44 C -0.01027 0.47830 0.47674
 C45 C -0.01668 0.42446 0.48660
 C46 C -0.01409 0.48881 0.42285
 C47 C 0.00296 0.57042 0.50632
 C48 C 0.00733 0.50399 0.56633
 C49 C 0.01726 0.37588 0.44383
 C50 C 0.00966 0.32513 0.45047
 C51 C -0.03246 0.32207 0.49976
 C52 C -0.06582 0.37039 0.54314
 C53 C -0.05831 0.42136 0.53643
 C54 C 0.03024 0.50225 0.38390
 C55 C 0.02785 0.50821 0.33166
 C56 C -0.01862 0.50039 0.31732
 C57 C -0.06268 0.48653 0.35601
 C58 C -0.06055 0.48104 0.40842
 C59 C -0.04453 0.60901 0.50638
 C60 C -0.04299 0.66291 0.50617
 C61 C 0.00591 0.67887 0.50615
 C62 C 0.05425 0.63950 0.50335
 C63 C 0.05251 0.58594 0.50420
 C64 C -0.02681 0.54147 0.61947
 C65 C -0.01632 0.53522 0.66820
 C66 C 0.02889 0.49170 0.66454
 C67 C 0.06195 0.45297 0.61191
 C68 C 0.05147 0.45928 0.56290
 H69 H 0.04951 0.37734 0.40506
 H70 H 0.03620 0.28816 0.41687
 H71 H -0.09839 0.36870 0.58154
 H72 H -0.08562 0.45840 0.56954
 H73 H 0.06735 0.50675 0.39330
 H74 H 0.06276 0.51794 0.30190
 H75 H -0.09476 0.46985 0.43746
 H76 H -0.08332 0.59791 0.50863
 H77 H -0.08051 0.69262 0.50779
 H78 H 0.09271 0.65080 0.50225
 H79 H 0.08950 0.55671 0.50420
 H80 H -0.06095 0.57626 0.62296
 H81 H -0.04250 0.56515 0.70866
 H82 H 0.09692 0.41909 0.60853
 H83 H 0.07882 0.43041 0.52212
 H84 H -0.09818 0.47901 0.34513
 C85 C 0.50869 0.00199 0.48399
 C86 C 0.46713 -0.00397 0.52921
 C87 C 0.47802 -0.00890 0.58144
 C88 C 0.40861 -0.00163 0.53034
 C89 C 0.50152 0.00437 0.42944
 C90 C 0.56545 0.00226 0.48583
 C91 C 0.49835 -0.06067 0.58912
 C92 C 0.51139 -0.06492 0.63721
 C93 C 0.50620 -0.01739 0.67759
 C94 C 0.48471 0.03447 0.66974
 C95 C 0.47089 0.03858 0.62214
 C96 C 0.38375 -0.04308 0.54519
 C97 C 0.32842 -0.04068 0.54708
 C98 C 0.29677 0.00353 0.53479
 C99 C 0.32157 0.04490 0.51970
 C100 C 0.37675 0.04268 0.51814
 C101 C 0.50944 0.04908 0.40677
 C102 C 0.50518 0.05052 0.35427
 C103 C 0.49299 0.00725 0.32355
 C104 C 0.48531 -0.03765 0.34589
 C105 C 0.48939 -0.03902 0.39861
 C106 C 0.57750 0.05194 0.50089
 C107 C 0.63195 0.05193 0.50030
 C108 C 0.67565 0.00205 0.48459
 C109 C 0.66160 -0.04765 0.47294
 C110 C 0.60747 -0.04749 0.47263
 H111 H 0.50484 -0.09773 0.55749
 H112 H 0.52770 -0.10552 0.64161
 H113 H 0.47723 0.07203 0.70120
 H114 H 0.45505 0.07884 0.61672
 H115 H 0.40729 -0.07766 0.55478
 H116 H 0.31012 -0.07317 0.55839
 H117 H 0.39451 0.07568 0.50763
 H118 H 0.51883 0.08299 0.42966
 H119 H 0.51194 0.08512 0.33722
 H120 H 0.47651 -0.07166 0.32233
 H121 H 0.48399 -0.07425 0.41498
 H122 H 0.54492 0.09075 0.51253
 H123 H 0.64030 0.09120 0.51006
 H124 H 0.69225 -0.08689 0.46480
 H125 H 0.59815 -0.08621 0.46243
 H126 H 0.29800 0.07902 0.50945
 O127 O 0.47129 -0.00987 -0.06675
 O128 O 0.45827 0.00915 0.08270
 O129 O 0.45742 0.07317 0.01428
 O130 O 0.47433 -0.07451 0.00078
 O131 O 0.56821 -0.09053 -0.02813
 O132 O 0.55066 0.05733 -0.00991
 O133 O 0.55215 -0.00846 0.05555
 O134 O 0.56485 -0.02368 -0.09378
 Cu135 Cu 0.45593 0.00093 0.01043
 Cu136 Cu 0.56842 -0.01812 -0.02200
 C137 C 0.52001 -0.01820 -0.10544
 C138 C 0.50288 0.00347 0.09472
 C139 C 0.50121 0.09068 0.00492
 C140 C 0.52411 -0.10750 -0.01491
 O141 O -0.07012 0.53073 1.00147
 O142 O 0.07119 0.54567 0.99304
 O143 O 0.01846 0.53553 0.92135
 O144 O -0.01739 0.53966 1.07305
 O145 O 0.01899 0.44951 1.04945
 O146 O 0.05310 0.44522 0.89778
 O147 O 0.10697 0.45543 0.96829
 O148 O -0.03504 0.44063 0.97978
 Cu149 Cu -0.00292 0.54696 0.99960
 Cu150 Cu 0.03962 0.43866 0.97146
 C151 C -0.07634 0.48295 0.99056
 C152 C 0.11317 0.50319 0.97954
 C153 C 0.04094 0.48968 0.88368
 C154 C -0.00479 0.49529 1.08714
 O155 O 0.01985 -0.08189 0.46452
 O156 O -0.00656 0.06420 0.46520
 O157 O 0.07508 -0.00847 0.47337
 O158 O -0.06127 -0.00878 0.45653
 O159 O -0.10619 0.01477 0.55000
 O160 O 0.03035 0.01556 0.56695
 O161 O -0.05136 0.08867 0.55883
 O162 O -0.02511 -0.05767 0.55804
 Cu163 Cu 0.01136 -0.01115 0.45556
 Cu164 Cu -0.04244 0.01780 0.56788
 C165 C 0.00141 -0.09477 0.51122
 C166 C -0.03358 0.10132 0.51192
 C167 C 0.07579 0.00468 0.52308
 C168 C -0.10674 0.00155 0.50020
 C169 C -0.19355 0.42945 0.95665
 C170 C -0.24289 0.47166 0.99605
 C171 C -0.23625 0.51458 1.03272
 C172 C -0.18210 0.51696 1.03032
 C173 C -0.13242 0.47705 0.99049
 C174 C -0.13783 0.43342 0.95192
 C175 C -0.19837 0.38315 0.92190
 C176 C -0.14985 0.34409 0.88034
 C177 C -0.09576 0.35030 0.87247
 C178 C -0.08956 0.39439 0.90763
 H179 H -0.23951 0.37642 0.92666
 H180 H -0.15431 0.30919 0.85362
 H181 H -0.05829 0.32061 0.83910
 H182 H -0.04665 0.39762 0.89850
 H183 H -0.27342 0.54714 1.06304
 H184 H -0.17903 0.55067 1.05989
 C185 C 0.24460 0.55570 0.96880
 C186 C 0.27419 0.51704 0.99091
 C187 C 0.24731 0.47838 1.01131
 C188 C 0.19641 0.47421 1.00565
 C189 C 0.16901 0.50894 0.98046
 C190 C 0.19321 0.55003 0.96144
 C191 C 0.26171 0.60296 0.95873
 C192 C 0.23419 0.63882 0.93487
 C193 C 0.18803 0.62959 0.92201
 C194 C 0.16731 0.58607 0.93560
 H195 H 0.29552 0.61362 0.97049
 H196 H 0.24866 0.67407 0.92653
 H197 H 0.16720 0.65710 0.90276
 H198 H 0.13079 0.58134 0.92580
 H199 H 0.26750 0.44798 1.02833
 H200 H 0.17809 0.44323 1.02141
 C201 C 0.01502 -0.23044 0.55496
 C202 C 0.00634 -0.26318 0.50968
 C203 C -0.00089 -0.24084 0.46584
 C204 C -0.00015 -0.18699 0.46627
 C205 C 0.00798 -0.15348 0.51051
 C206 C 0.01762 -0.17577 0.55447
 C207 C 0.02030 -0.25051 0.60128
 C208 C 0.03140 -0.21897 0.64412
 C209 C 0.03746 -0.16703 0.64178
 C210 C 0.03078 -0.14550 0.59750
 H211 H 0.01560 -0.29047 0.60514
 H212 H 0.03583 -0.23513 0.67906
 H213 H 0.04722 -0.14318 0.67458
 H214 H 0.03716 -0.10550 0.59700
 H215 H -0.00739 -0.26536 0.43094
 H216 H -0.00748 -0.17091 0.43227
 C217 C -0.05827 0.23558 0.46721
 C218 C -0.04103 0.26801 0.50546
 C219 C -0.02874 0.24746 0.54836
 C220 C -0.02946 0.19424 0.55148
 C221 C -0.04225 0.15984 0.51165
 C222 C -0.05912 0.18113 0.47045
 C223 C -0.07566 0.25651 0.42641
 C224 C -0.09330 0.22456 0.38958
 C225 C -0.09469 0.17164 0.39308
 C226 C -0.07817 0.15007 0.43325
 H227 H -0.07672 0.29795 0.42321
 H228 H -0.10663 0.24121 0.35862
 H229 H -0.10922 0.14734 0.36491
 H230 H -0.08182 0.10949 0.43558
 H231 H -0.01615 0.27204 0.57825
 H232 H -0.01731 0.17897 0.58374
 C233 C 0.54761 0.01278 -0.25089
 C234 C 0.51868 -0.02136 -0.27324
 C235 C 0.49763 -0.05752 -0.24260
 C236 C 0.49960 -0.05648 -0.18899
 C237 C 0.52380 -0.02028 -0.16438
 C238 C 0.54862 0.01448 -0.19543
 C239 C 0.57801 0.04334 -0.28346
 C240 C 0.60379 0.07848 -0.26015
 C241 C 0.60066 0.08342 -0.20440
 C242 C 0.57365 0.05168 -0.17231
 H243 H 0.58307 0.03968 -0.32752
 H244 H 0.62628 0.10202 -0.28550
 H245 H 0.62005 0.11135 -0.18619
 H246 H 0.57284 0.05665 -0.12947
 H247 H 0.47558 -0.08426 -0.25819
 H248 H 0.48074 -0.08340 -0.16579
 C249 C 0.45021 0.04808 0.25845
 C250 C 0.49150 0.00780 0.26659
 C251 C 0.53486 -0.03127 0.21921
 C252 C 0.53822 -0.03092 0.16420
 C253 C 0.49805 0.00822 0.15456
 C254 C 0.45399 0.04895 0.20198
 C255 C 0.40504 0.08743 0.30531
 C256 C 0.36587 0.12810 0.29683
 C257 C 0.37098 0.13047 0.24180
 C258 C 0.41456 0.09150 0.19480
 H259 H 0.39950 0.08706 0.34879
 H260 H 0.33166 0.15819 0.33314
 H261 H 0.34103 0.16271 0.23544
 H262 H 0.41740 0.09581 0.15313
 H263 H 0.56697 -0.06198 0.22488
 H264 H 0.57236 -0.06207 0.12879
 C265 C 0.56617 -0.25210 0.00547
 C266 C 0.53276 -0.27663 -0.01971
 C267 C 0.50032 -0.24652 -0.04455
 C268 C 0.49890 -0.19212 -0.04314
 C269 C 0.53023 -0.16619 -0.01724
 C270 C 0.56437 -0.19614 0.00751
 C271 C 0.60119 -0.28207 0.02886
 C272 C 0.63214 -0.25697 0.05557
 C273 C 0.62874 -0.20179 0.05959
 C274 C 0.59524 -0.17153 0.03599
 H275 H 0.60513 -0.32509 0.02656
 H276 H 0.65859 -0.28036 0.07356
 H277 H 0.65225 -0.18229 0.08108
 H278 H 0.59365 -0.12878 0.04097
 H279 H 0.47446 -0.26486 -0.06374
 H280 H 0.47260 -0.16982 -0.06206
 C281 C 0.44660 0.24924 0.04279
 C282 C 0.49521 0.25927 0.00514
 C283 C 0.54244 0.21504 -0.03086
 C284 C 0.54295 0.16148 -0.02942
 C285 C 0.49617 0.14975 0.00798
 C286 C 0.44724 0.19418 0.04520
 C287 C 0.39720 0.29295 0.07793
 C288 C 0.35038 0.28323 0.11649
 C289 C 0.35181 0.23005 0.12085
 C290 C 0.39952 0.18597 0.08580
 H291 H 0.39417 0.33492 0.07574
 H292 H 0.31295 0.31718 0.14340
 H293 H 0.31565 0.22285 0.15154
 H294 H 0.39815 0.14607 0.09195
 H295 H 0.57998 0.22215 -0.05967
 H296 H 0.58074 0.12872 -0.05820
 C297 C -0.21732 -0.03676 0.44167
 C298 C -0.26877 0.00199 0.48337
 C299 C -0.26420 0.04001 0.52706
 C300 C -0.21164 0.03864 0.53164
 C301 C -0.16122 -0.00101 0.49329
 C302 C -0.16400 -0.04038 0.44872
 C303 C -0.21678 -0.07001 0.39127
 C304 C -0.16731 -0.11059 0.35331
 C305 C -0.11714 -0.11845 0.36407
 C306 C -0.11519 -0.08371 0.41106
 H307 H -0.25416 -0.06444 0.38003
 H308 H -0.16805 -0.13632 0.31557
 H309 H -0.07919 -0.15098 0.33528
 H310 H -0.07522 -0.09188 0.41751
 H311 H -0.30194 0.06986 0.55994
 H312 H -0.21050 0.06898 0.56598
 C313 C 0.18923 0.04942 0.57228
 C314 C 0.23844 0.00551 0.53592
 C315 C 0.23274 -0.03697 0.49792
 C316 C 0.17974 -0.03625 0.49467
 C317 C 0.13048 0.00689 0.52941
 C318 C 0.13501 0.05080 0.56820
 C319 C 0.19267 0.09190 0.61290
 C320 C 0.14461 0.13609 0.64665
 C321 C 0.09239 0.13889 0.64071
 C322 C 0.08742 0.09687 0.60197
 H323 H 0.23230 0.09131 0.61916
 H324 H 0.14802 0.16854 0.67730
 H325 H 0.05544 0.17377 0.66640
 H326 H 0.04615 0.10154 0.59852
 H327 H 0.26997 -0.07071 0.46984
 H328 H 0.17714 -0.06993 0.46470
 C329 C -0.06328 0.53738 1.25112
 C330 C -0.01851 0.50186 1.25987
 C331 C 0.02711 0.46468 1.21277
 C332 C 0.02941 0.46232 1.15764
 C333 C -0.01395 0.49692 1.14745
 C334 C -0.06177 0.53396 1.19454
 C335 C -0.10917 0.57676 1.29727
 C336 C -0.15400 0.60995 1.28836
 C337 C -0.15413 0.60455 1.23358
 C338 C -0.10868 0.56695 1.18703
 H339 H -0.11073 0.58251 1.34052
 H340 H -0.18909 0.63970 1.32421
 H341 H -0.18962 0.62974 1.22709
 H342 H -0.11147 0.56350 1.14559
 H343 H 0.06142 0.43702 1.21875
 H344 H 0.06634 0.43388 1.12241
 C345 C 0.06002 0.52990 0.74330
 C346 C 0.04206 0.48843 0.71593
 C347 C 0.03234 0.44522 0.74013
 C348 C 0.03586 0.44476 0.79298
 C349 C 0.04893 0.48764 0.82342
 C350 C 0.06365 0.52952 0.79740
 C351 C 0.07497 0.57156 0.71767
 C352 C 0.09300 0.61195 0.74470
 C353 C 0.09709 0.61134 0.79723
 C354 C 0.08288 0.57050 0.82325
 H355 H 0.07374 0.57281 0.67622
 H356 H 0.10444 0.64354 0.72449
 H357 H 0.11185 0.64236 0.81772
 H358 H 0.08837 0.57080 0.86301
 H359 H 0.01915 0.41300 0.71926
 H360 H 0.02504 0.41209 0.81164
   
