data_POSCAR
  _audit_creation_date              2014-09-24
  _audit_creation_method            'ToBaCCo'
  _symmetry_space_group_name_H-M    'P1'
  _symmetry_Int_Tables_number       1
  _symmetry_cell_setting            triclinic
  loop_
  _symmetry_equiv_pos_as_xyz
 x,y,z
_cell_length_a 29.9596
_cell_length_b 30.0261
_cell_length_c 65.2222
_cell_angle_alpha 90.553400
_cell_angle_beta 89.899300
_cell_angle_gamma 120.799300
loop_
  _atom_site_label
  _atom_site_type_symbol
  _atom_site_fract_x
  _atom_site_fract_y
  _atom_site_fract_z
C1 C -0.00313 0.03873 0.53952
 H2 H 0.00837 0.01274 0.54557
 C3 C -0.00857 0.07225 0.55282
 H4 H -0.00190 0.07110 0.56908
 C5 C -0.02268 0.07408 0.51098
 H6 H -0.02728 0.07497 0.49456
 C7 C -0.02843 0.10845 0.52375
 H8 H -0.03868 0.13464 0.51691
 N9 N -0.00990 0.04042 0.51900
 C10 C 0.06464 -0.04468 0.51416
 H11 H 0.09547 -0.01723 0.50441
 C12 C 0.07134 -0.08066 0.52512
 H13 H 0.10778 -0.07995 0.52401
 C14 C -0.02089 -0.08054 0.52703
 H15 H -0.05682 -0.08021 0.52762
 C16 C -0.01594 -0.11718 0.53815
 H17 H -0.04801 -0.14398 0.54764
 Zn18 Zn 0.00532 0.00072 0.50079
 N19 N 0.01924 -0.04484 0.51555
 C20 C 0.10998 0.07729 0.49370
 N21 N 0.06248 0.04808 0.48478
 C22 C 0.05413 0.05557 0.46497
 C23 C 0.09439 0.09375 0.45330
 C24 C 0.15182 0.11489 0.48241
 C25 C -0.09900 -0.04732 0.48512
 C26 C -0.14035 -0.08436 0.47313
 C27 C -0.08249 -0.10953 0.45824
 C28 C -0.04256 -0.07217 0.47044
 N29 N -0.05142 -0.04237 0.48364
 H30 H 0.11524 0.07172 0.50968
 H31 H 0.01579 0.03281 0.45830
 H32 H 0.08620 0.09795 0.43754
 H33 H 0.18939 0.13759 0.48982
 H34 H -0.10533 -0.02368 0.49597
 H35 H -0.17822 -0.08833 0.47479
 H36 H -0.07270 -0.13150 0.44794
 H37 H -0.00424 -0.06732 0.46967
 C38 C 0.03066 -0.11768 0.53720
 C39 C -0.02025 0.10846 0.54499
 C40 C -0.13293 -0.11711 0.45975
 C41 C 0.14417 0.12455 0.46206
 C42 C 1.08553 0.02659 0.13887
 H43 H 1.09027 0.06473 0.14015
 C44 C 1.12037 0.01935 0.12721
 H45 H 1.15104 0.05216 0.11919
 C46 C 1.03824 -0.06252 0.14738
 H47 H 1.00649 -0.09413 0.15547
 C48 C 1.07232 -0.07152 0.13585
 H49 H 1.06631 -0.11026 0.13500
 N50 N 1.04528 -0.01407 0.14854
 C51 C 0.92928 0.03125 0.15578
 H52 H 0.92527 0.03076 0.17227
 C53 C 0.89556 0.03841 0.14331
 H54 H 0.86678 0.04481 0.15050
 C55 C 0.97103 0.02186 0.12657
 H56 H 0.99904 0.01347 0.12002
 C57 C 0.93845 0.02913 0.11359
 H58 H 0.94246 0.02704 0.09715
 Zn59 Zn 1.00214 0.00146 0.16446
 N60 N 0.96557 0.02243 0.14726
 C61 C 1.04933 0.10095 0.18445
 N62 N 1.04659 0.05442 0.18307
 C63 C 1.07946 0.04493 0.19390
 C64 C 1.11735 0.08302 0.20664
 C65 C 1.08647 0.14021 0.19718
 C66 C 0.91419 -0.09648 0.16664
 C67 C 0.87197 -0.13983 0.17526
 C68 C 0.91028 -0.10071 0.20969
 C69 C 0.95026 -0.05917 0.19925
 N70 N 0.95132 -0.05788 0.17846
 H71 H 1.02345 0.10806 0.17540
 H72 H 1.07683 0.00776 0.19226
 H73 H 1.14244 0.07315 0.21470
 H74 H 1.08818 0.17714 0.19792
 H75 H 0.91688 -0.09286 0.15013
 H76 H 0.84283 -0.16938 0.16527
 H77 H 0.91073 -0.09978 0.22627
 H78 H 0.98029 -0.02697 0.20795
 C79 C 0.89919 0.03606 0.12186
 C80 C 1.11431 -0.03019 0.12578
 C81 C 0.86539 -0.14604 0.19821
 C82 C 1.12179 0.13203 0.20836
 C83 C 0.04690 1.00670 0.87371
 H84 H 0.01059 0.99908 0.88024
 C85 C 0.08420 1.00698 0.88650
 H86 H 0.07635 1.00073 0.90277
 C87 C 0.09977 1.02063 0.84464
 H88 H 0.10491 1.02471 0.82821
 C89 C 0.13821 1.02089 0.85692
 H90 H 0.17300 1.02627 0.84963
 N91 N 0.05524 1.01378 0.85319
 C92 C -0.10437 0.95451 0.85111
 H93 H -0.11215 0.92333 0.84055
 C94 C -0.14449 0.95142 0.86326
 H95 H -0.18242 0.91685 0.86196
 C96 C -0.04494 1.03714 0.86518
 H97 H -0.00609 1.07076 0.86560
 C98 C -0.08314 1.03524 0.87792
 H99 H -0.07284 1.06780 0.88815
 Zn100 Zn 0.00067 1.00655 0.83606
 N101 N -0.05573 0.99682 0.85243
 C102 C -0.02734 0.90428 0.82659
 N103 N -0.01730 0.94967 0.81819
 C104 C -0.01329 0.95759 0.79764
 C105 C -0.01737 0.91995 0.78393
 C106 C -0.03174 0.86376 0.81444
 C107 C 0.06912 1.10724 0.81885
 C108 C 0.08035 1.15016 0.80694
 C109 C -0.01522 1.10585 0.79919
 C110 C -0.02125 1.06529 0.81118
 N111 N 0.01979 1.06648 0.82046
 H112 H -0.02959 0.90042 0.84309
 H113 H -0.00456 0.99460 0.79169
 H114 H -0.01253 0.92847 0.76771
 H115 H -0.03800 0.82881 0.82174
 H116 H 0.10031 1.10650 0.82681
 H117 H 0.12018 1.18183 0.80584
 H118 H -0.04938 1.10226 0.79199
 H119 H -0.05967 1.03170 0.81307
 C120 C -0.13402 0.99224 0.87711
 C121 C 0.13035 1.01356 0.87821
 C122 C 0.03783 1.15369 0.79574
 C123 C -0.02499 0.86914 0.79115
 C124 C 0.39175 0.04417 -0.01139
 C125 C 0.39066 0.04329 0.00964
 C126 C 0.42046 0.02251 0.01572
 N127 N 0.43951 0.01048 -0.00086
 C128 C 0.42194 0.02361 -0.01747
 C129 C 0.42833 0.01316 0.03622
 C130 C 0.46892 0.00492 0.04205
 C131 C 0.47357 -0.01240 0.06114
 C132 C 0.52068 -0.00998 0.06140
 C133 C 0.54331 0.00840 0.04244
 N134 N 0.51152 0.01730 0.03073
 C135 C 0.59366 0.02001 0.03688
 C136 C 0.61016 0.02639 0.01625
 C137 C 0.66106 0.04709 0.00980
 C138 C 0.65946 0.04276 -0.01119
 C139 C 0.60766 0.01976 -0.01685
 N140 N 0.57764 0.00994 -0.00007
 C141 C 0.58822 0.00569 -0.03707
 C142 C 0.53922 -0.00219 -0.04290
 C143 C 0.51517 -0.02230 -0.06168
 C144 C 0.47098 -0.01912 -0.06203
 C145 C 0.46890 0.00229 -0.04339
 N146 N 0.51064 0.01262 -0.03184
 C147 C 0.43081 0.01462 -0.03798
 H148 H 0.37270 0.05861 -0.02106
 H149 H 0.37076 0.05707 0.01932
 H150 H 0.52193 0.03405 -0.01825
 H151 H 0.44626 -0.02476 0.07370
 H152 H 0.53663 -0.02020 0.07416
 H153 H 0.69578 0.06379 0.01919
 H154 H 0.69269 0.05561 -0.02115
 H155 H 0.44357 -0.03107 -0.07462
 H156 H 0.52137 0.03685 0.01686
 H157 H 0.52834 -0.03709 -0.07401
 C158 C -0.03704 0.34722 0.67605
 C159 C -0.03990 0.34600 0.65504
 C160 C -0.02083 0.39663 0.64885
 N161 N -0.00675 0.42863 0.66537
 C162 C -0.01673 0.39847 0.68201
 C163 C -0.01440 0.41321 0.62828
 C164 C -0.00472 0.46276 0.62281
 C165 C 0.01282 0.48521 0.60378
 C166 C 0.01320 0.53121 0.60412
 C167 C -0.00435 0.53547 0.62332
 N168 N -0.01501 0.49366 0.63464
 C169 C -0.01420 0.57498 0.62930
 C170 C -0.02345 0.58311 0.64986
 C171 C -0.04526 0.61207 0.65604
 C172 C -0.04608 0.61140 0.67708
 C173 C -0.02428 0.58246 0.68306
 N174 N -0.01055 0.56514 0.66638
 C175 C -0.01531 0.57402 0.70357
 C176 C -0.00276 0.53622 0.70892
 C177 C 0.01668 0.53332 0.72782
 C178 C 0.01951 0.48901 0.72746
 C179 C 0.00154 0.46594 0.70836
 N180 N -0.01180 0.49506 0.69714
 C181 C -0.00632 0.41702 0.70246
 H182 H -0.04939 0.31397 0.68580
 H183 H -0.05485 0.31160 0.64549
 H184 H -0.03207 0.48409 0.68334
 H185 H 0.02373 0.46981 0.59091
 H186 H 0.02438 0.55806 0.59153
 H187 H -0.05987 0.63101 0.64643
 H188 H -0.06153 0.62973 0.68677
 H189 H 0.03248 0.47493 0.73997
 H190 H -0.03440 0.48360 0.64859
 H191 H 0.02717 0.56002 0.74065
 C192 C 0.33737 0.38904 0.34276
 C193 C 0.34033 0.38760 0.32182
 C194 C 0.39238 0.41876 0.31679
 N195 N 0.42120 0.43972 0.33396
 C196 C 0.38757 0.42159 0.34984
 C197 C 0.41297 0.42416 0.29682
 C198 C 0.46443 0.46248 0.29175
 C199 C 0.49001 0.46261 0.27398
 C200 C 0.53877 0.50640 0.27482
 C201 C 0.54148 0.53195 0.29301
 N202 N 0.49583 0.50522 0.30312
 C203 C 0.58470 0.57953 0.29957
 C204 C 0.58964 0.60011 0.31950
 C205 C 0.62565 0.65069 0.32518
 C206 C 0.62102 0.65412 0.34594
 C207 C 0.58294 0.60526 0.35232
 N208 N 0.56353 0.57235 0.33610
 C209 C 0.57002 0.59056 0.37301
 C210 C 0.52569 0.54339 0.37878
 C211 C 0.51667 0.52241 0.39825
 C212 C 0.46914 0.47712 0.39757
 C213 C 0.45053 0.47177 0.37770
 N214 N 0.48495 0.51256 0.36641
 C215 C 0.40189 0.43115 0.37072
 H216 H 0.30228 0.36845 0.35177
 H217 H 0.30782 0.36571 0.31152
 H218 H 0.47868 0.52136 0.35171
 H219 H 0.47533 0.43386 0.26177
 H220 H 0.56880 0.51799 0.26336
 H221 H 0.65259 0.68181 0.31536
 H222 H 0.64371 0.68854 0.35527
 H223 H 0.45048 0.45105 0.41025
 H224 H 0.48508 0.51772 0.31612
 H225 H 0.54181 0.53789 0.41155
 C226 C -0.02166 0.14608 0.55945
 C227 C -0.01770 0.19264 0.55358
 C228 C -0.01163 0.23262 0.56864
 C229 C -0.02762 0.26748 0.56329
 C230 C -0.02167 0.30616 0.57709
 C231 C 0.00088 0.31090 0.59652
 C232 C 0.01811 0.27686 0.60159
 C233 C 0.01201 0.23818 0.58785
 C234 C 0.00749 0.35046 0.61192
 C235 C -0.01917 0.37731 0.61146
 H236 H -0.01871 0.20078 0.53754
 H237 H -0.04502 0.26459 0.54842
 H238 H -0.03421 0.33235 0.57226
 H239 H 0.03626 0.28006 0.61632
 H240 H 0.02685 0.21351 0.59222
 H241 H 0.03244 0.35676 0.62499
 H242 H -0.02290 0.13788 0.57563
 H243 H -0.04310 0.37366 0.59844
 C244 C 0.81621 0.80554 0.20829
 C245 C 0.81097 0.79775 0.22933
 C246 C 0.76423 0.75402 0.23867
 C247 C 0.76537 0.74446 0.25959
 C248 C 0.72167 0.70452 0.26918
 C249 C 0.67562 0.67304 0.25800
 C250 C 0.67422 0.68295 0.23710
 C251 C 0.71823 0.72281 0.22744
 C252 C 0.62802 0.63208 0.26813
 C253 C 0.63009 0.60799 0.28595
 H254 H 0.84230 0.82427 0.23941
 H255 H 0.80011 0.76831 0.26863
 H256 H 0.72387 0.69962 0.28548
 H257 H 0.63899 0.65983 0.22825
 H258 H 0.71590 0.72967 0.21132
 H259 H 0.59047 0.62208 0.26191
 H260 H 0.84210 0.83104 0.20390
 H261 H 0.66731 0.61646 0.29196
 C262 C 0.16766 0.01112 -0.10760
 C263 C 0.21174 0.00970 -0.11358
 C264 C 0.24557 0.00416 -0.09855
 C265 C 0.29831 0.02486 -0.10305
 C266 C 0.33144 0.02115 -0.08897
 C267 C 0.31218 -0.00390 -0.07008
 C268 C 0.25901 -0.02608 -0.06595
 C269 C 0.22601 -0.02226 -0.07998
 C270 C 0.34549 -0.00780 -0.05423
 C271 C 0.39971 0.01854 -0.05481
 H272 H 0.22323 0.01442 -0.12949
 H273 H 0.31411 0.04463 -0.11740
 H274 H 0.37176 0.03793 -0.09313
 H275 H 0.24287 -0.04628 -0.05170
 H276 H 0.18515 -0.04064 -0.07632
 H277 H 0.32642 -0.03143 -0.04095
 H278 H 0.15923 0.00958 -0.09139
 H279 H 0.42059 0.04051 -0.06811
 C280 C 0.03848 0.84529 0.54925
 C281 C -0.00277 0.79766 0.55577
 C282 C 0.00322 0.76269 0.56987
 C283 C -0.03731 0.71089 0.57119
 C284 C -0.03485 0.67737 0.58524
 C285 C 0.00834 0.69510 0.59835
 C286 C 0.04878 0.74694 0.59710
 C287 C 0.04641 0.78045 0.58299
 C288 C 0.01109 0.66153 0.61416
 C289 C -0.01699 0.60750 0.61295
 H290 H -0.04148 0.78471 0.55005
 H291 H -0.07140 0.69645 0.56150
 H292 H -0.06757 0.63817 0.58617
 H293 H 0.08213 0.76172 0.60722
 H294 H 0.07772 0.82045 0.58290
 H295 H 0.03714 0.67994 0.62707
 H296 H 0.07800 0.85547 0.55254
 H297 H -0.03817 0.58832 0.59907
 C298 C 0.16008 0.17306 0.22047
 C299 C 0.19905 0.17100 0.23160
 C300 C 0.23908 0.21440 0.24427
 C301 C 0.26539 0.20308 0.25921
 C302 C 0.30322 0.24227 0.27166
 C303 C 0.31630 0.29392 0.26929
 C304 C 0.29062 0.30567 0.25414
 C305 C 0.25252 0.26632 0.24169
 C306 C 0.35431 0.33348 0.28372
 C307 C 0.37978 0.38689 0.28055
 H308 H 0.20034 0.13578 0.23183
 H309 H 0.25618 0.16355 0.26146
 H310 H 0.32221 0.23211 0.28328
 H311 H 0.29892 0.34489 0.25210
 H312 H 0.23422 0.27704 0.23005
 H313 H 0.36231 0.31995 0.29782
 H314 H 0.15898 0.20849 0.22121
 H315 H 0.37809 0.40187 0.26573
 C316 C 0.83022 -0.00804 -0.11014
 C317 C 0.77692 -0.04455 -0.11023
 C318 C 0.74274 -0.04151 -0.09465
 C319 C 0.69502 -0.04723 -0.10047
 C320 C 0.66371 -0.04179 -0.08589
 C321 C 0.67925 -0.03180 -0.06521
 C322 C 0.72593 -0.02826 -0.05930
 C323 C 0.75773 -0.03245 -0.07392
 C324 C 0.64723 -0.02597 -0.04942
 C325 C 0.62018 -0.00037 -0.05310
 H326 H 0.75893 -0.07252 -0.12257
 H327 H 0.68258 -0.05473 -0.11635
 H328 H 0.62718 -0.04603 -0.09075
 H329 H 0.73827 -0.02121 -0.04341
 H330 H 0.79395 -0.02891 -0.06901
 H331 H 0.64742 -0.03963 -0.03413
 H332 H 0.84330 0.02346 -0.09905
 H333 H 0.62045 0.01363 -0.06836
 C334 C 0.15000 -0.03989 0.11338
 C335 C 0.20109 -0.00095 0.10929
 C336 C 0.23641 -0.00710 0.09517
 C337 C 0.28950 0.03060 0.09567
 C338 C 0.32390 0.02874 0.08170
 C339 C 0.30588 -0.01118 0.06688
 C340 C 0.25279 -0.04901 0.06641
 C341 C 0.21833 -0.04712 0.08039
 C342 C 0.34055 -0.01299 0.05107
 C343 C 0.39465 0.01439 0.05268
 H344 H 0.21659 0.03616 0.11702
 H345 H 0.30437 0.06223 0.10671
 H346 H 0.36412 0.05960 0.08226
 H347 H 0.23778 -0.07981 0.05499
 H348 H 0.17754 -0.07616 0.07910
 H349 H 0.32280 -0.03737 0.03766
 H350 H 0.13596 -0.07908 0.10802
 H351 H 0.41315 0.03402 0.06688
 C352 C 0.82404 0.84376 0.44876
 C353 C 0.82517 0.80517 0.43683
 C354 C 0.78035 0.76332 0.42532
 C355 C 0.72939 0.75419 0.42669
 C356 C 0.68910 0.71436 0.41515
 C357 C 0.69888 0.68269 0.40212
 C358 C 0.74950 0.69155 0.40097
 C359 C 0.78962 0.73118 0.41245
 C360 C 0.65883 0.64259 0.38844
 C361 C 0.60580 0.62504 0.38936
 H362 H 0.86062 0.80432 0.43570
 H363 H 0.72000 0.77740 0.43649
 H364 H 0.65084 0.70947 0.41620
 H365 H 0.75826 0.66804 0.39096
 H366 H 0.82833 0.73708 0.41106
 H367 H 0.67203 0.62715 0.37631
 H368 H 0.78779 0.84312 0.45015
 H369 H 0.58958 0.63423 0.40242
 C370 C 0.04777 0.20146 0.78193
 C371 C 0.00649 0.20623 0.77502
 C372 C 0.01281 0.24744 0.76103
 C373 C -0.02939 0.25471 0.75813
 C374 C -0.02614 0.29147 0.74433
 C375 C 0.01950 0.32169 0.73303
 C376 C 0.06172 0.31427 0.73581
 C377 C 0.05865 0.27777 0.74984
 C378 C 0.02275 0.35894 0.71755
 C379 C -0.00670 0.38286 0.71882
 H380 H -0.03242 0.17922 0.78031
 H381 H -0.06531 0.23144 0.76642
 H382 H -0.06001 0.29495 0.74213
 H383 H 0.09706 0.33668 0.72709
 H384 H 0.09162 0.27255 0.75158
 H385 H 0.04941 0.36829 0.70486
 H386 H 0.04267 0.17703 0.78900
 H387 H -0.02831 0.37921 0.73265
 C388 C 0.86201 0.03815 0.10752
 C389 C 0.81261 0.02806 0.11305
 C390 C 0.77337 0.02140 0.09763
 C391 C 0.73474 0.03247 0.10310
 C392 C 0.69689 0.02598 0.08887
 C393 C 0.69681 0.00778 0.06888
 C394 C 0.73442 -0.00494 0.06368
 C395 C 0.77232 0.00181 0.07785
 C396 C 0.65821 0.00086 0.05309
 C397 C 0.63001 0.02614 0.05361
 H398 H 0.80160 0.02428 0.12902
 H399 H 0.73403 0.04646 0.11840
 H400 H 0.66756 0.03452 0.09376
 H401 H 0.73466 -0.01995 0.04853
 H402 H 0.80002 -0.00937 0.07336
 H403 H 0.65371 -0.02318 0.03983
 H404 H 0.87279 0.04420 0.09150
 H405 H 0.63256 0.04954 0.06675
 C406 C 0.18611 0.16436 0.45128
 C407 C 0.18053 0.18651 0.43343
 C408 C 0.22556 0.22820 0.42258
 C409 C 0.22210 0.26937 0.41444
 C410 C 0.26345 0.30830 0.40338
 C411 C 0.30848 0.30593 0.39988
 C412 C 0.31163 0.26432 0.40778
 C413 C 0.27077 0.22607 0.41931
 C414 C 0.35064 0.34420 0.38678
 C415 C 0.36414 0.39598 0.38604
 H416 H 0.14241 0.17724 0.42826
 H417 H 0.18729 0.27133 0.41663
 H418 H 0.25943 0.33922 0.39700
 H419 H 0.34567 0.26137 0.40496
 H420 H 0.27380 0.19401 0.42508
 H421 H 0.37191 0.33137 0.37739
 H422 H 0.22475 0.18139 0.45785
 H423 H 0.34793 0.41135 0.39689
 C424 C -0.02360 0.82951 0.77519
 C425 C -0.02739 0.78290 0.78034
 C426 C -0.02060 0.75069 0.76473
 C427 C -0.02671 0.70290 0.77038
 C428 C -0.01932 0.67231 0.75602
 C429 C -0.00558 0.68911 0.73569
 C430 C 0.00114 0.73717 0.73014
 C431 C -0.00656 0.76753 0.74442
 C432 C 0.00255 0.65821 0.71989
 C433 C -0.02077 0.60437 0.72051
 H434 H -0.03369 0.77054 0.79618
 H435 H -0.03694 0.68931 0.78597
 H436 H -0.02346 0.63618 0.76106
 H437 H 0.01198 0.75112 0.71461
 H438 H -0.00108 0.80435 0.73953
 H439 H 0.02513 0.67827 0.70649
 H440 H -0.02497 0.84718 0.78450
 H441 H -0.04278 0.58332 0.73382
   
