data_POSCAR
  _audit_creation_date              2014-09-24
  _audit_creation_method            'ToBaCCo'
  _symmetry_space_group_name_H-M    'P1'
  _symmetry_Int_Tables_number       1
  _symmetry_cell_setting            triclinic
  loop_
  _symmetry_equiv_pos_as_xyz
 x,y,z
_cell_length_a 39.1141
_cell_length_b 37.3796
_cell_length_c 21.4731
_cell_angle_alpha 91.124500
_cell_angle_beta 91.312100
_cell_angle_gamma 90.020800
loop_
  _atom_site_label
  _atom_site_type_symbol
  _atom_site_fract_x
  _atom_site_fract_y
  _atom_site_fract_z
C1 C 1.28320 0.21656 0.27299
 C2 C 1.25225 0.23275 0.25604
 C3 C 1.22260 0.21179 0.25003
 C4 C 1.22381 0.17475 0.26111
 C5 C 1.25501 0.15928 0.28140
 C6 C 1.28513 0.18011 0.28615
 C7 C 1.25206 0.27176 0.24531
 C8 C 1.27944 0.28702 0.21398
 C9 C 1.28384 0.32430 0.21230
 C10 C 1.25885 0.34617 0.23977
 C11 C 1.23110 0.33138 0.27013
 C12 C 1.22742 0.29412 0.27220
 H13 H 1.30576 0.23317 0.27982
 H14 H 1.19901 0.22410 0.23402
 H15 H 1.29703 0.26920 0.19085
 H16 H 1.20651 0.28268 0.29746
 H17 H 1.25612 0.13089 0.29054
 H18 H 1.26113 0.37506 0.23910
 C19 C 0.77547 -0.28369 0.27280
 C20 C 0.74545 -0.26636 0.25316
 C21 C 0.71712 -0.28694 0.23344
 C22 C 0.71857 -0.32443 0.23362
 C23 C 0.74904 -0.34134 0.25226
 C24 C 0.77813 -0.32122 0.27110
 C25 C 0.74431 -0.22669 0.25231
 C26 C 0.77357 -0.20737 0.23658
 C27 C 0.77357 -0.16991 0.23694
 C28 C 0.74309 -0.15165 0.24999
 C29 C 0.71316 -0.17058 0.26433
 C30 C 0.71431 -0.20802 0.26677
 H31 H 0.79614 -0.26749 0.29205
 H32 H 0.69427 -0.27382 0.21600
 H33 H 0.79625 -0.22164 0.22235
 H34 H 0.69168 -0.22262 0.27951
 H35 H 0.75005 -0.37032 0.25104
 H36 H 0.74299 -0.12268 0.25031
 C37 C 0.78053 0.21441 -0.24187
 C38 C 0.75109 0.23375 -0.25846
 C39 C 0.72011 0.21539 -0.26995
 C40 C 0.71859 0.17802 -0.26447
 C41 C 0.74870 0.15916 -0.24918
 C42 C 0.77974 0.17717 -0.23802
 C43 C 0.75333 0.27321 -0.26149
 C44 C 0.78251 0.28904 -0.28636
 C45 C 0.78719 0.32637 -0.28414
 C46 C 0.76140 0.34761 -0.25775
 C47 C 0.73223 0.33223 -0.23315
 C48 C 0.72794 0.29507 -0.23578
 H49 H 0.80391 0.22867 -0.22962
 H50 H 0.69724 0.23015 -0.28260
 H51 H 0.80085 0.27179 -0.30881
 H52 H 0.70561 0.28322 -0.21547
 H53 H 0.74825 0.13025 -0.24692
 H54 H 0.76389 0.37648 -0.25546
 C55 C 1.28007 -0.27595 -0.22849
 C56 C 1.25035 -0.25762 -0.24674
 C57 C 1.22057 -0.27683 -0.26279
 C58 C 1.22060 -0.31436 -0.26158
 C59 C 1.25046 -0.33231 -0.24271
 C60 C 1.28075 -0.31354 -0.22665
 C61 C 1.25162 -0.21839 -0.25238
 C62 C 1.27856 -0.20299 -0.28446
 C63 C 1.28103 -0.16592 -0.28932
 C64 C 1.25695 -0.14392 -0.25987
 C65 C 1.23002 -0.15886 -0.22702
 C66 C 1.22701 -0.19627 -0.22466
 H67 H 1.30211 -0.26019 -0.21407
 H68 H 1.19810 -0.26259 -0.27921
 H69 H 1.29728 -0.21998 -0.30688
 H70 H 1.20636 -0.20814 -0.19934
 H71 H 1.25014 -0.36130 -0.24238
 H72 H 1.25910 -0.11511 -0.26272
 C73 C 0.20586 0.27727 0.73099
 C74 C 0.22430 0.24716 0.75105
 C75 C 0.20632 0.21665 0.77098
 C76 C 0.17010 0.21573 0.76889
 C77 C 0.15265 0.24717 0.74972
 C78 C 0.17022 0.27802 0.73142
 C79 C 0.26229 0.24790 0.74655
 C80 C 0.28063 0.27941 0.76378
 C81 C 0.31495 0.28393 0.74693
 C82 C 0.33135 0.25507 0.71709
 C83 C 0.31422 0.22320 0.70249
 C84 C 0.27964 0.21947 0.71696
 H85 H 0.21942 0.30049 0.71485
 H86 H 0.22058 0.19333 0.78569
 H87 H 0.26742 0.30126 0.78680
 H88 H 0.26607 0.19526 0.70289
 H89 H 0.12508 0.24832 0.75023
 H90 H 0.35831 0.25628 0.70698
 C91 C 0.71433 0.77166 0.73310
 C92 C 0.73122 0.74098 0.75477
 C93 C 0.71245 0.70930 0.76288
 C94 C 0.67743 0.70739 0.74654
 C95 C 0.66129 0.73861 0.72456
 C96 C 0.67899 0.77117 0.71860
 C97 C 0.76883 0.74188 0.76666
 C98 C 0.78442 0.77159 0.79753
 C99 C 0.81996 0.77263 0.80770
 C100 C 0.83990 0.74423 0.78490
 C101 C 0.82498 0.71400 0.75540
 C102 C 0.78937 0.71324 0.74591
 H103 H 0.72950 0.79521 0.72529
 H104 H 0.72545 0.68589 0.78065
 H105 H 0.76886 0.79339 0.81498
 H106 H 0.77764 0.69047 0.72185
 H107 H 0.63395 0.73848 0.71638
 H108 H 0.86745 0.74617 0.78934
 C109 C 0.71085 0.28879 0.24582
 C110 C 0.72459 0.25668 0.26923
 C111 C 0.70298 0.23281 0.29956
 C112 C 0.66826 0.24126 0.30818
 C113 C 0.65531 0.27321 0.28433
 C114 C 0.67638 0.29742 0.25425
 C115 C 0.76223 0.25101 0.26981
 C116 C 0.78319 0.27904 0.29302
 C117 C 0.81867 0.27510 0.29746
 C118 C 0.83333 0.24311 0.27593
 C119 C 0.81323 0.21398 0.25523
 C120 C 0.77735 0.21808 0.25152
 H121 H 0.72728 0.30761 0.22304
 H122 H 0.71351 0.20850 0.31887
 H123 H 0.77163 0.30362 0.30991
 H124 H 0.76143 0.19593 0.23532
 H125 H 0.62830 0.27904 0.28772
 H126 H 0.86087 0.24050 0.27523
 C127 C 0.22296 0.77505 0.23496
 C128 C 0.23578 0.74231 0.25675
 C129 C 0.21304 0.71440 0.26854
 C130 C 0.17772 0.71744 0.25614
 C131 C 0.16558 0.75023 0.23144
 C132 C 0.18769 0.77971 0.22197
 C133 C 0.27308 0.73667 0.26771
 C134 C 0.29332 0.76340 0.29732
 C135 C 0.32793 0.75699 0.31131
 C136 C 0.34247 0.72415 0.29482
 C137 C 0.32313 0.69743 0.26393
 C138 C 0.28847 0.70392 0.25003
 H139 H 0.24099 0.79600 0.22513
 H140 H 0.22336 0.68989 0.28739
 H141 H 0.28208 0.78879 0.31087
 H142 H 0.27353 0.68351 0.22536
 H143 H 0.13856 0.75411 0.22317
 H144 H 0.36964 0.72031 0.30312
 O145 O 1.05160 0.06119 0.12686
 O146 O 1.08686 0.02601 0.06729
 C147 C 1.08173 0.05017 0.11041
 O148 O 0.94873 -0.06193 0.11776
 O149 O 0.91236 -0.02487 0.06416
 C150 C 0.91826 -0.05053 0.10241
 O151 O 1.04392 -0.06638 0.11985
 O152 O 1.08350 -0.03818 0.06006
 C153 C 1.07456 -0.06286 0.09905
 O154 O 0.95538 0.06996 0.12068
 O155 O 0.91535 0.03825 0.06230
 C156 C 0.92399 0.06336 0.10217
 Zr157 Zr 1.00213 0.04608 0.09174
 O158 O 1.00061 0.04681 0.19023
 O159 O 1.00626 0.10239 0.08770
 Zr160 Zr 0.99761 -0.04324 0.08985
 O161 O 0.99907 -0.03693 0.18782
 O162 O 0.99523 -0.09958 0.09505
 O163 O 1.03126 -0.00039 0.10209
 O164 O 0.96984 0.00303 0.10242
 O165 O 0.95114 0.06695 -0.09654
 O166 O 0.91365 0.03430 -0.03999
 C167 C 0.92039 0.05834 -0.08031
 O168 O 1.04146 -0.06412 -0.10369
 O169 O 1.08241 -0.03428 -0.04470
 C170 C 1.07297 -0.05762 -0.08734
 O171 O 0.94722 -0.06562 -0.09175
 O172 O 0.91087 -0.02923 -0.03719
 C173 C 0.91705 -0.05647 -0.07383
 O174 O 1.04609 0.06169 -0.10094
 O175 O 1.08501 0.03005 -0.04202
 C176 C 1.07717 0.05399 -0.08383
 Zr177 Zr 0.99903 0.04576 -0.06532
 O178 O 0.99849 0.04970 -0.16353
 O179 O 1.00133 0.10193 -0.05246
 Zr180 Zr 0.99546 -0.04388 -0.06799
 O181 O 0.98997 -0.04248 -0.16625
 O182 O 0.99541 -0.10053 -0.06862
 Zr183 Zr 1.05041 -0.00169 0.01079
 Zr184 Zr 0.94751 0.00330 0.01239
 O185 O 0.96699 0.00192 -0.07789
 O186 O 1.02797 -0.00049 -0.07951
 O187 O 0.97043 0.05431 0.01374
 O188 O 1.02557 -0.05172 0.00995
 O189 O 1.03089 0.05082 0.01287
 O190 O 0.96624 -0.04933 0.01121
 H191 H 0.95473 0.00424 0.13883
 H192 H 1.03847 -0.07446 0.00745
 H193 H 0.95050 0.00138 -0.11360
 H194 H 1.04689 0.07139 0.01400
 H195 H 0.98872 -0.10854 0.05276
 H196 H 0.99434 -0.10855 -0.11293
 H197 H 1.00942 -0.02849 -0.18166
 H198 H 0.98460 0.02964 -0.18088
 H199 H 1.00136 0.11204 -0.09477
 H200 H 1.00744 0.11128 0.13149
 H201 H 1.01733 0.02886 0.20513
 H202 H 0.99665 -0.06132 0.20443
 O203 O 1.05593 0.56556 0.60030
 O204 O 1.09152 0.53071 0.54079
 C205 C 1.08601 0.55532 0.58292
 O206 O 0.95685 0.43936 0.59932
 O207 O 0.91855 0.47579 0.54848
 C208 C 0.92603 0.45022 0.58612
 O209 O 1.05152 0.44018 0.60235
 O210 O 1.08965 0.46783 0.53905
 C211 C 1.08211 0.44529 0.58260
 O212 O 0.96090 0.57181 0.59992
 O213 O 0.92021 0.53902 0.54518
 C214 C 0.92940 0.56438 0.58433
 Zr215 Zr 1.00684 0.54904 0.56803
 O216 O 1.00713 0.55169 0.66658
 O217 O 1.00940 0.60529 0.56036
 Zr218 Zr 1.00434 0.45975 0.57029
 O219 O 1.00552 0.46664 0.66819
 O220 O 1.00517 0.40335 0.57657
 O221 O 1.03693 0.50353 0.57937
 O222 O 0.97575 0.50547 0.58228
 O223 O 0.95324 0.56671 0.38255
 O224 O 0.91683 0.53417 0.44181
 C225 C 0.92290 0.55777 0.40030
 O226 O 1.04550 0.43728 0.37556
 O227 O 1.08670 0.46834 0.43182
 C228 C 1.07704 0.44435 0.39037
 O229 O 0.95189 0.43481 0.39112
 O230 O 0.91543 0.47100 0.44596
 C231 C 0.92179 0.44372 0.40966
 O232 O 1.04804 0.56294 0.37354
 O233 O 1.08809 0.53244 0.43191
 C234 C 1.07935 0.55584 0.38992
 Zr235 Zr 1.00176 0.54650 0.41148
 O236 O 1.00002 0.54840 0.31296
 O237 O 1.00332 0.60291 0.42071
 Zr238 Zr 1.00002 0.45686 0.41315
 O239 O 0.99346 0.45600 0.31500
 O240 O 1.00107 0.40032 0.41658
 Zr241 Zr 1.05496 0.50126 0.48751
 Zr242 Zr 0.95205 0.50421 0.49340
 O243 O 0.97049 0.50194 0.40235
 O244 O 1.03140 0.50068 0.39814
 O245 O 0.97394 0.55562 0.49136
 O246 O 1.03161 0.45066 0.49008
 O247 O 1.03446 0.55334 0.48796
 O248 O 0.97189 0.45196 0.49352
 H249 H 0.96126 0.50665 0.61952
 H250 H 1.04561 0.42859 0.48922
 H251 H 0.95359 0.50075 0.36731
 H252 H 1.04996 0.57430 0.48755
 H253 H 0.99539 0.39376 0.53675
 H254 H 0.99929 0.39129 0.37288
 H255 H 1.01126 0.47173 0.29821
 H256 H 0.98450 0.52923 0.29731
 H257 H 1.00249 0.61214 0.37774
 H258 H 1.01140 0.61509 0.60352
 H259 H 1.02304 0.53298 0.68151
 H260 H 1.00419 0.44229 0.68536
 O261 O 0.43768 -0.04738 0.38644
 O262 O 0.46823 -0.08916 0.44159
 C263 C 0.44485 -0.08008 0.40093
 O264 O 0.56363 0.04940 0.40340
 O265 O 0.53270 0.08981 0.46083
 C266 C 0.55733 0.08154 0.42307
 O267 O 0.55771 -0.04782 0.38405
 O268 O 0.52939 -0.08962 0.44059
 C269 C 0.55131 -0.08050 0.39895
 O270 O 0.43277 0.05003 0.40726
 O271 O 0.46622 0.08988 0.46433
 C272 C 0.43965 0.08171 0.42909
 Zr273 Zr 0.45688 0.00120 0.42422
 O274 O 0.46288 0.00579 0.32718
 O275 O 0.40313 -0.00069 0.41171
 Zr276 Zr 0.54109 0.00061 0.42364
 O277 O 0.53414 0.00518 0.32626
 O278 O 0.59485 -0.00233 0.41643
 O279 O 0.49850 -0.03168 0.40852
 O280 O 0.49900 0.03379 0.41604
 O281 O 0.43956 0.04619 0.61668
 O282 O 0.46987 0.08795 0.56335
 C283 C 0.44659 0.07881 0.60241
 O284 O 0.56215 -0.05412 0.60873
 O285 O 0.52902 -0.09215 0.54748
 C286 C 0.55285 -0.08586 0.58928
 O287 O 0.56563 0.04574 0.61347
 O288 O 0.53320 0.08775 0.56225
 C289 C 0.55814 0.07851 0.59968
 O290 O 0.44080 -0.05211 0.60915
 O291 O 0.46942 -0.09172 0.54584
 C292 C 0.44662 -0.08389 0.58696
 Zr293 Zr 0.45954 -0.00233 0.58256
 O294 O 0.46750 -0.00388 0.68010
 O295 O 0.40578 -0.00410 0.59110
 Zr296 Zr 0.54426 -0.00313 0.58096
 O297 O 0.54476 -0.00226 0.67961
 O298 O 0.59823 -0.00484 0.57751
 Zr299 Zr 0.49967 -0.05485 0.49730
 Zr300 Zr 0.50062 0.05338 0.50838
 O301 O 0.50232 0.02912 0.59603
 O302 O 0.50162 -0.03569 0.59038
 O303 O 0.45138 0.03056 0.50699
 O304 O 0.54889 -0.03224 0.49897
 O305 O 0.45106 -0.03094 0.50025
 O306 O 0.54970 0.03025 0.50554
 H307 H 0.49838 0.05182 0.38278
 H308 H 0.56939 -0.04775 0.49720
 H309 H 0.50308 0.04479 0.63383
 H310 H 0.42989 -0.04551 0.49855
 H311 H 0.60456 0.00379 0.45825
 H312 H 0.60677 -0.00587 0.62127
 H313 H 0.53111 -0.02294 0.69291
 H314 H 0.44443 -0.00382 0.69822
 H315 H 0.39585 0.01049 0.55729
 H316 H 0.39345 -0.00074 0.45380
 H317 H 0.43944 0.00736 0.30901
 H318 H 0.55740 0.00591 0.30897
 O319 O 0.55229 0.55903 0.09131
 O320 O 0.58758 0.52540 0.02932
 C321 C 0.58232 0.54905 0.07311
 O322 O 0.45319 0.43315 0.08463
 O323 O 0.41526 0.47018 0.03429
 C324 C 0.42247 0.44437 0.07156
 O325 O 0.54918 0.43568 0.08859
 O326 O 0.58647 0.46485 0.02571
 C327 C 0.57968 0.44269 0.06961
 O328 O 0.45655 0.56416 0.09081
 O329 O 0.41628 0.53221 0.03326
 C330 C 0.42515 0.55647 0.07453
 Zr331 Zr 0.50318 0.54324 0.05760
 O332 O 0.50370 0.54549 0.15613
 O333 O 0.50536 0.59954 0.05108
 Zr334 Zr 0.50089 0.45333 0.05591
 O335 O 0.50158 0.45757 0.15422
 O336 O 0.50255 0.39683 0.05833
 O337 O 0.53302 0.49742 0.06708
 O338 O 0.47247 0.49911 0.06977
 O339 O 0.45049 0.56470 -0.12476
 O340 O 0.41379 0.53007 -0.06969
 C341 C 0.42008 0.55533 -0.10812
 O342 O 0.54214 0.43341 -0.13897
 O343 O 0.58282 0.46436 -0.08118
 C344 C 0.57356 0.44077 -0.12346
 O345 O 0.44770 0.43321 -0.12798
 O346 O 0.41197 0.46717 -0.06768
 C347 C 0.41765 0.44191 -0.10854
 O348 O 0.54585 0.55875 -0.13612
 O349 O 0.58487 0.52635 -0.07901
 C350 C 0.57696 0.55007 -0.12035
 Zr351 Zr 0.49872 0.54284 -0.09921
 O352 O 0.49259 0.54422 -0.19731
 O353 O 0.50177 0.59919 -0.09074
 Zr354 Zr 0.49643 0.45272 -0.10133
 O355 O 0.49023 0.45202 -0.19956
 O356 O 0.49654 0.39623 -0.09782
 Zr357 Zr 0.55104 0.49640 -0.02474
 Zr358 Zr 0.44897 0.49927 -0.01926
 O359 O 0.46747 0.49846 -0.11033
 O360 O 0.52791 0.49687 -0.11436
 O361 O 0.47065 0.55082 -0.01903
 O362 O 0.52816 0.44550 -0.02440
 O363 O 0.53105 0.54864 -0.02216
 O364 O 0.46824 0.44676 -0.02134
 H365 H 0.45803 0.49961 0.10710
 H366 H 0.54264 0.42376 -0.02531
 H367 H 0.45094 0.49851 -0.14600
 H368 H 0.54688 0.56934 -0.02201
 H369 H 0.48960 0.38789 0.02109
 H370 H 0.49478 0.38734 -0.14158
 H371 H 0.50891 0.46653 -0.21639
 H372 H 0.50955 0.52755 -0.21515
 H373 H 0.50081 0.60828 -0.13377
 H374 H 0.50697 0.60898 0.09450
 H375 H 0.51713 0.52467 0.17048
 H376 H 0.50119 0.43272 0.16943
 C377 C 1.16922 0.10210 0.19077
 C378 C 1.13619 0.11476 0.20275
 N379 N 1.13238 0.14531 0.23712
 C380 C 1.16005 0.16420 0.25900
 C381 C 1.19330 0.15219 0.24579
 N382 N 1.19693 0.12102 0.21243
 N383 N 1.17305 0.07202 0.15514
 C384 C 1.14541 0.05425 0.13027
 C385 C 1.11218 0.06715 0.14114
 N386 N 1.10852 0.09709 0.17777
 H387 H 1.15614 0.18871 0.28553
 H388 H 1.14944 0.03060 0.10149
 C389 C 1.16986 0.61309 0.66048
 C390 C 1.13624 0.62471 0.66938
 N391 N 1.13051 0.65579 0.70120
 C392 C 1.15698 0.67599 0.72431
 C393 C 1.19080 0.66452 0.71531
 N394 N 1.19623 0.63312 0.68374
 N395 N 1.17563 0.58232 0.62774
 C396 C 1.14920 0.56268 0.60300
 C397 C 1.11543 0.57432 0.61161
 N398 N 1.10988 0.60508 0.64494
 H399 H 1.15162 0.70050 0.74989
 H400 H 1.15453 0.53842 0.57662
 C401 C 0.63467 0.15030 0.66415
 C402 C 0.62893 0.11792 0.69408
 N403 N 0.65075 0.10725 0.73992
 C404 C 0.67883 0.12694 0.75609
 C405 C 0.68597 0.15847 0.72395
 N406 N 0.66313 0.16979 0.67947
 N407 N 0.61275 0.16056 0.61775
 C408 C 0.58594 0.13935 0.59881
 C409 C 0.58133 0.10599 0.62667
 N410 N 0.60281 0.09652 0.67427
 H411 H 0.69563 0.11766 0.79308
 H412 H 0.56966 0.14753 0.56023
 C413 C 0.66732 0.60417 0.15300
 C414 C 0.63380 0.61511 0.16527
 N415 N 0.62847 0.64488 0.20087
 C416 C 0.65520 0.66454 0.22425
 C417 C 0.68890 0.65400 0.21139
 N418 N 0.69405 0.62374 0.17641
 N419 N 0.67258 0.57473 0.11646
 C420 C 0.64578 0.55588 0.09107
 C421 C 0.61212 0.56700 0.10280
 N422 N 0.60708 0.59633 0.14006
 H423 H 0.65017 0.68807 0.25272
 H424 H 0.65075 0.53273 0.06158
 C425 C 0.83025 -0.10128 0.17038
 C426 C 0.86298 -0.11492 0.18398
 N427 N 0.86604 -0.14539 0.21695
 C428 C 0.83789 -0.16314 0.23601
 C429 C 0.80495 -0.15005 0.22100
 N430 N 0.80215 -0.11905 0.18908
 N431 N 0.82700 -0.07099 0.13720
 C432 C 0.85496 -0.05384 0.11631
 C433 C 0.88792 -0.06767 0.12875
 N434 N 0.89108 -0.09791 0.16285
 H435 H 0.84127 -0.18722 0.26259
 H436 H 0.85133 -0.02987 0.08949
 C437 C 0.84238 0.39685 0.66047
 C438 C 0.87277 0.37844 0.64853
 N439 N 0.87454 0.34279 0.65849
 C440 C 0.84720 0.32457 0.67972
 C441 C 0.81647 0.34304 0.69242
 N442 N 0.81540 0.37890 0.68240
 N443 N 0.84004 0.43232 0.64921
 C444 C 0.86689 0.45028 0.62604
 C445 C 0.89753 0.43198 0.61444
 N446 N 0.89982 0.39642 0.62620
 H447 H 0.85036 0.29642 0.68851
 H448 H 0.86436 0.47855 0.61686
 C449 C 0.36774 -0.14784 0.65149
 C450 C 0.36136 -0.11733 0.61623
 N451 N 0.32911 -0.10464 0.60928
 C452 C 0.30270 -0.12055 0.63756
 C453 C 0.30892 -0.15023 0.67527
 N454 N 0.34131 -0.16370 0.68036
 N455 N 0.40053 -0.15958 0.65938
 C456 C 0.42727 -0.14141 0.63501
 C457 C 0.42065 -0.10991 0.60244
 N458 N 0.38782 -0.09918 0.59328
 H459 H 0.27719 -0.10983 0.63127
 H460 H 0.45324 -0.15025 0.64383
 C461 C 0.33850 0.39296 0.14905
 C462 C 0.36870 0.37408 0.13752
 N463 N 0.37034 0.33869 0.14968
 C464 C 0.34311 0.32119 0.17292
 C465 C 0.31261 0.34016 0.18550
 N466 N 0.31161 0.37575 0.17307
 N467 N 0.33638 0.42821 0.13591
 C468 C 0.36326 0.44548 0.11135
 C469 C 0.39372 0.42670 0.10022
 N470 N 0.39578 0.39138 0.11381
 H471 H 0.34631 0.29329 0.18361
 H472 H 0.36092 0.47361 0.10096
 C473 C 0.83431 0.11004 -0.15933
 C474 C 0.86745 0.12192 -0.17208
 N475 N 0.87149 0.15080 -0.20853
 C476 C 0.84389 0.16865 -0.23195
 C477 C 0.81061 0.15724 -0.21793
 N478 N 0.80686 0.12787 -0.18240
 N479 N 0.82999 0.08140 -0.12277
 C480 C 0.85733 0.06415 -0.09775
 C481 C 0.89071 0.07617 -0.10947
 N482 N 0.89496 0.10476 -0.14692
 H483 H 0.84797 0.19147 -0.26108
 H484 H 0.85289 0.04139 -0.06860
 C485 C 0.83565 0.60873 0.32596
 C486 C 0.86724 0.62652 0.32947
 N487 N 0.86916 0.66105 0.31196
 C488 C 0.84083 0.67891 0.29210
 C489 C 0.80869 0.66138 0.28933
 N490 N 0.80745 0.62636 0.30561
 N491 N 0.83341 0.57445 0.34483
 C492 C 0.86137 0.55725 0.36780
 C493 C 0.89306 0.57506 0.37167
 N494 N 0.89531 0.60929 0.35184
 H495 H 0.84405 0.70607 0.27704
 H496 H 0.85882 0.52997 0.38314
 C497 C 0.34920 0.13242 0.37847
 C498 C 0.37964 0.14215 0.34948
 N499 N 0.37809 0.16402 0.29993
 C500 C 0.34761 0.17671 0.27825
 C501 C 0.31679 0.16582 0.30550
 N502 N 0.31855 0.14362 0.35497
 N503 N 0.35078 0.11188 0.42970
 C504 C 0.38126 0.09961 0.45193
 C505 C 0.41153 0.10702 0.42038
 N506 N 0.41002 0.12827 0.36965
 H507 H 0.34738 0.19422 0.23867
 H508 H 0.38158 0.08166 0.49096
 C509 C 0.33473 0.61291 -0.17408
 C510 C 0.36734 0.62847 -0.17233
 N511 N 0.37108 0.66294 -0.18931
 C512 C 0.34364 0.68281 -0.20737
 C513 C 0.31051 0.66742 -0.20895
 N514 N 0.30744 0.63252 -0.19266
 N515 N 0.33068 0.57868 -0.15590
 C516 C 0.35789 0.55932 -0.13545
 C517 C 0.39067 0.57483 -0.13357
 N518 N 0.39463 0.60908 -0.15249
 H519 H 0.34833 0.70978 -0.22204
 H520 H 0.35392 0.53213 -0.12068
 C521 C 1.14712 -0.12350 -0.17235
 C522 C 1.15702 -0.09189 -0.14030
 N523 N 1.19061 -0.08276 -0.13687
 C524 C 1.21469 -0.10371 -0.16421
 C525 C 1.20480 -0.13550 -0.19610
 N526 N 1.17112 -0.14458 -0.19899
 N527 N 1.11362 -0.13252 -0.17679
 C528 C 1.08945 -0.11142 -0.15061
 C529 C 1.09912 -0.07983 -0.11785
 N530 N 1.13289 -0.07089 -0.11330
 H531 H 1.24129 -0.09586 -0.16042
 H532 H 1.06294 -0.11963 -0.15467
 C533 C 1.14929 0.37444 0.31033
 C534 C 1.16012 0.40251 0.35069
 N535 N 1.19392 0.40631 0.36500
 C536 C 1.21731 0.38346 0.34045
 C537 C 1.20639 0.35530 0.30027
 N538 N 1.17254 0.35145 0.28643
 N539 N 1.11572 0.37085 0.29499
 C540 C 1.09231 0.39382 0.31850
 C541 C 1.10281 0.42166 0.35999
 N542 N 1.13666 0.42532 0.37506
 H543 H 1.24417 0.38716 0.35215
 H544 H 1.06565 0.38982 0.30566
 C545 C 0.62920 -0.14771 0.33370
 C546 C 0.62181 -0.11507 0.30553
 N547 N 0.64327 -0.10182 0.26300
 C548 C 0.67238 -0.11941 0.24802
 C549 C 0.68076 -0.15161 0.27756
 N550 N 0.65848 -0.16529 0.31909
 N551 N 0.60795 -0.16020 0.37769
 C552 C 0.58023 -0.14086 0.39615
 C553 C 0.57385 -0.10726 0.36998
 N554 N 0.59466 -0.09574 0.32450
 H555 H 0.68874 -0.10823 0.21343
 H556 H 0.56476 -0.15055 0.43342
 C557 C 0.64861 0.37358 -0.20065
 C558 C 0.65784 0.40107 -0.15791
 N559 N 0.69105 0.40511 -0.13963
 C560 C 0.71550 0.38300 -0.16250
 C561 C 0.70626 0.35543 -0.20517
 N562 N 0.67293 0.35133 -0.22303
 N563 N 0.61553 0.36972 -0.21948
 C564 C 0.59107 0.39189 -0.19709
 C565 C 0.60004 0.41908 -0.15334
 N566 N 0.63337 0.42302 -0.13492
 H567 H 0.74188 0.38679 -0.14744
 H568 H 0.56480 0.38776 -0.21247
 C569 C 1.14566 0.13121 -0.15519
 C570 C 1.11219 0.12686 -0.17835
 N571 N 1.09930 0.15014 -0.22017
 C572 C 1.11784 0.17845 -0.23899
 C573 C 1.15137 0.18446 -0.21477
 N574 N 1.16473 0.15970 -0.17425
 N575 N 1.15770 0.10783 -0.11172
 C576 C 1.13751 0.08096 -0.08983
 C577 C 1.10348 0.07729 -0.11217
 N578 N 1.09227 0.10043 -0.15649
 H579 H 1.10642 0.19537 -0.27396
 H580 H 1.14742 0.06370 -0.05380
 C581 C 1.14824 0.63286 0.32272
 C582 C 1.11393 0.63207 0.30358
 N583 N 1.10122 0.65857 0.26760
 C584 C 1.12108 0.68641 0.25042
 C585 C 1.15579 0.68825 0.27038
 N586 N 1.16825 0.66067 0.30560
 N587 N 1.16060 0.60659 0.36017
 C588 C 1.13987 0.57988 0.38017
 C589 C 1.10508 0.57950 0.36202
 N590 N 1.09335 0.60567 0.32358
 H591 H 1.10951 0.70616 0.22071
 H592 H 1.15014 0.56004 0.41150
 C593 C 0.62861 0.15675 0.35835
 C594 C 0.59936 0.16879 0.38942
 N595 N 0.59419 0.20450 0.39673
 C596 C 0.61642 0.22853 0.37322
 C597 C 0.64513 0.21638 0.34003
 N598 N 0.65057 0.18061 0.33450
 N599 N 0.63418 0.12133 0.35076
 C600 C 0.61167 0.09720 0.37187
 C601 C 0.58169 0.10880 0.40177
 N602 N 0.57644 0.14459 0.41063
 H603 H 0.61158 0.25679 0.38025
 H604 H 0.61734 0.06909 0.36504
 C605 C 0.64924 0.62287 -0.18690
 C606 C 0.61697 0.61867 -0.21578
 N607 N 0.60682 0.64140 -0.26076
 C608 C 0.62675 0.66933 -0.27652
 C609 C 0.65835 0.67565 -0.24471
 N610 N 0.66921 0.65116 -0.20200
 N611 N 0.65891 0.60012 -0.14104
 C612 C 0.63729 0.57415 -0.12160
 C613 C 0.60417 0.57129 -0.14842
 N614 N 0.59529 0.59340 -0.19564
 H615 H 0.61772 0.68605 -0.31391
 H616 H 0.64514 0.55735 -0.08336
 C617 C 0.84715 -0.13537 -0.13912
 C618 C 0.87559 -0.14363 -0.10114
 N619 N 0.88329 -0.17818 -0.08947
 C620 C 0.86449 -0.20519 -0.11561
 C621 C 0.83706 -0.19755 -0.15682
 N622 N 0.82852 -0.16255 -0.16665
 N623 N 0.83997 -0.10034 -0.15036
 C624 C 0.86046 -0.07345 -0.12654
 C625 C 0.88987 -0.08215 -0.09121
 N626 N 0.89627 -0.11708 -0.07913
 H627 H 0.87149 -0.23251 -0.10549
 H628 H 0.85486 -0.04591 -0.13761
 C629 C 0.85052 0.36539 0.34932
 C630 C 0.88259 0.35661 0.37497
 N631 N 0.89241 0.32202 0.37824
 C632 C 0.87195 0.29545 0.35540
 C633 C 0.84040 0.30382 0.32621
 N634 N 0.83013 0.33880 0.32507
 N635 N 0.84087 0.40043 0.34775
 C636 C 0.86229 0.42697 0.36966
 C637 C 0.89500 0.41788 0.39254
 N638 N 0.90394 0.38287 0.39502
 H639 H 0.88047 0.26814 0.36042
 H640 H 0.85448 0.45468 0.36693
 C641 C 0.37504 -0.15770 0.33141
 C642 C 0.39776 -0.16544 0.38096
 N643 N 0.39595 -0.19758 0.40893
 C644 C 0.37270 -0.22254 0.38904
 C645 C 0.35012 -0.21496 0.33908
 N646 N 0.35178 -0.18256 0.31162
 N647 N 0.37697 -0.12566 0.30320
 C648 C 0.40033 -0.10077 0.32279
 C649 C 0.42283 -0.10819 0.37303
 N650 N 0.42100 -0.14054 0.40076
 H651 H 0.37213 -0.24825 0.41133
 H652 H 0.40083 -0.07518 0.30008
 C653 C 0.34399 0.36700 -0.17406
 C654 C 0.37338 0.37444 -0.20761
 N655 N 0.38099 0.35429 -0.25831
 C656 C 0.36143 0.32581 -0.27583
 C657 C 0.33295 0.31623 -0.24023
 N658 N 0.32430 0.33814 -0.19118
 N659 N 0.33713 0.38727 -0.12242
 C660 C 0.35892 0.41385 -0.10209
 C661 C 0.38927 0.41989 -0.13428
 N662 N 0.39520 0.40025 -0.18680
 H663 H 0.36818 0.31121 -0.31771
 H664 H 0.35360 0.42861 -0.05952
 C665 C 1.12818 -0.15699 0.14830
 C666 C 1.14446 -0.12379 0.15822
 N667 N 1.17570 -0.12317 0.18741
 C668 C 1.19112 -0.15390 0.20726
 C669 C 1.17415 -0.18733 0.19946
 N670 N 1.14297 -0.18735 0.16975
 N671 N 1.09751 -0.15848 0.11814
 C672 C 1.08177 -0.12828 0.09883
 C673 C 1.09669 -0.09448 0.11138
 N674 N 1.12821 -0.09290 0.14042
 H675 H 1.21553 -0.15165 0.23160
 H676 H 1.05705 -0.13056 0.07540
 C677 C 1.14658 0.36278 0.64955
 C678 C 1.11604 0.37185 0.67854
 N679 N 1.10420 0.35122 0.72459
 C680 C 1.12122 0.32137 0.74268
 C681 C 1.15155 0.31124 0.71304
 N682 N 1.16376 0.33273 0.66749
 N683 N 1.15767 0.38341 0.60232
 C684 C 1.13912 0.41216 0.58196
 C685 C 1.10781 0.42050 0.60979
 N686 N 1.09759 0.40007 0.65794
 H687 H 1.11118 0.30591 0.78019
 H688 H 1.14786 0.42714 0.54272
 C689 C 0.60934 -0.17430 0.65446
 C690 C 0.62277 -0.13967 0.65968
 N691 N 0.65481 -0.13474 0.68386
 C692 C 0.67419 -0.16290 0.70301
 C693 C 0.66080 -0.19810 0.69832
 N694 N 0.62843 -0.20229 0.67405
 N695 N 0.57752 -0.17952 0.62942
 C696 C 0.55850 -0.15150 0.60894
 C697 C 0.57181 -0.11660 0.61424
 N698 N 0.60372 -0.11158 0.63978
 H699 H 0.69911 -0.15717 0.72332
 H700 H 0.53330 -0.15647 0.58868
 C701 C 0.65038 0.37184 0.15062
 C702 C 0.62451 0.38787 0.18580
 N703 N 0.61908 0.37699 0.24449
 C704 C 0.63740 0.34970 0.26901
 C705 C 0.66158 0.33156 0.23252
 N706 N 0.66818 0.34374 0.17447
 N707 N 0.65536 0.38291 0.09151
 C708 C 0.63487 0.40838 0.06547
 C709 C 0.60752 0.42250 0.09946
 N710 N 0.60349 0.41219 0.15917
 H711 H 0.63213 0.34130 0.31578
 H712 H 0.63847 0.41569 0.01752
 C713 C 0.84842 0.13624 0.16515
 C714 C 0.87625 0.12674 0.20401
 N715 N 0.87997 0.14254 0.26105
 C716 C 0.85792 0.16831 0.28030
 C717 C 0.83132 0.17992 0.24008
 N718 N 0.82683 0.16298 0.18352
 N719 N 0.84466 0.11990 0.10831
 C720 C 0.86768 0.09507 0.08827
 C721 C 0.89652 0.08687 0.12590
 N722 N 0.89985 0.10287 0.18323
 H723 H 0.86214 0.18099 0.32559
 H724 H 0.86428 0.08298 0.04234
 C725 C 0.85799 0.63699 0.66048
 C726 C 0.88991 0.63116 0.68956
 N727 N 0.89911 0.65052 0.74118
 C728 C 0.87825 0.67623 0.76443
 C729 C 0.84683 0.68373 0.73388
 N730 N 0.83723 0.66325 0.68299
 N731 N 0.84887 0.61707 0.60905
 C732 C 0.87052 0.59206 0.58488
 C733 C 0.90308 0.58726 0.61274
 N734 N 0.91169 0.60689 0.66477
 H735 H 0.88634 0.69064 0.80637
 H736 H 0.86293 0.57715 0.54309
 C737 C 0.37523 0.14892 0.68288
 C738 C 0.38362 0.15198 0.61991
 N739 N 0.36659 0.17594 0.58402
 C740 C 0.34193 0.19733 0.60853
 C741 C 0.33388 0.19467 0.67175
 N742 N 0.35094 0.17056 0.70747
 N743 N 0.39201 0.12488 0.71880
 C744 C 0.41654 0.10340 0.69450
 C745 C 0.42509 0.10631 0.63155
 N746 N 0.40834 0.13063 0.59561
 H747 H 0.32970 0.21728 0.57974
 H748 H 0.42880 0.08366 0.72370
 C749 C 0.35298 0.62433 0.15883
 C750 C 0.38179 0.61215 0.19234
 N751 N 0.38816 0.62460 0.25110
 C752 C 0.36783 0.64988 0.27716
 C753 C 0.34046 0.66441 0.24213
 N754 N 0.33319 0.65051 0.18410
 N755 N 0.34668 0.61148 0.10002
 C756 C 0.36838 0.58769 0.07276
 C757 C 0.39829 0.57724 0.10510
 N758 N 0.40396 0.58948 0.16446
 H759 H 0.37385 0.65956 0.32396
 H760 H 0.36328 0.57852 0.02531
   
