data_POSCAR
  _audit_creation_date              2014-09-24
  _audit_creation_method            'ToBaCCo'
  _symmetry_space_group_name_H-M    'P1'
  _symmetry_Int_Tables_number       1
  _symmetry_cell_setting            triclinic
  loop_
  _symmetry_equiv_pos_as_xyz
 x,y,z
_cell_length_a 44.0484
_cell_length_b 38.2033
_cell_length_c 31.2275
_cell_angle_alpha 90.309500
_cell_angle_beta 89.586100
_cell_angle_gamma 90.246600
loop_
  _atom_site_label
  _atom_site_type_symbol
  _atom_site_fract_x
  _atom_site_fract_y
  _atom_site_fract_z
C1 C 1.24847 0.24883 0.25299
 C2 C 0.75361 -0.25214 0.25264
 C3 C 0.75365 0.24830 -0.24493
 C4 C 1.24777 -0.25025 -0.25394
 C5 C 0.24643 0.24853 0.74791
 C6 C 0.75170 0.75271 0.74783
 C7 C 0.75237 0.25238 0.24520
 C8 C 0.24659 0.75077 0.25388
 O9 O 1.04286 0.06335 0.07536
 O10 O 1.07649 0.02958 0.03686
 C11 C 1.07014 0.05418 0.06420
 O12 O 0.95707 -0.06330 0.07768
 O13 O 0.92378 -0.03052 0.03855
 C14 C 0.92990 -0.05483 0.06592
 O15 O 1.04136 -0.06000 0.08284
 O16 O 1.07578 -0.03056 0.04060
 C17 C 1.06886 -0.05254 0.07073
 O18 O 0.95831 0.06780 0.07016
 O19 O 0.92444 0.03237 0.03480
 C20 C 0.93099 0.05879 0.05929
 Zr21 Zr 1.00042 0.04486 0.05352
 O22 O 0.99848 0.04217 0.12104
 O23 O 1.00376 0.10009 0.05560
 Zr24 Zr 0.99947 -0.04224 0.05901
 O25 O 0.99796 -0.03207 0.12556
 O26 O 0.99979 -0.09676 0.07029
 O27 O 1.02745 0.00142 0.06459
 O28 O 0.97278 0.00187 0.06385
 O29 O 0.95923 0.06122 -0.07453
 O30 O 0.92488 0.02928 -0.03512
 C31 C 0.93177 0.05339 -0.06258
 O32 O 1.04253 -0.06626 -0.07171
 O33 O 1.07635 -0.03312 -0.03297
 C34 C 1.06986 -0.05740 -0.06065
 O35 O 0.95782 -0.06928 -0.06695
 O36 O 0.92419 -0.03347 -0.03155
 C37 C 0.93054 -0.05987 -0.05619
 O38 O 1.04381 0.05631 -0.07905
 O39 O 1.07689 0.02646 -0.03620
 C40 C 1.07095 0.04842 -0.06650
 Zr41 Zr 1.00112 0.03986 -0.05505
 O42 O 0.99983 0.03117 -0.12188
 O43 O 1.00462 0.09460 -0.06381
 Zr44 Zr 1.00016 -0.04749 -0.04950
 O45 O 0.99735 -0.04833 -0.11717
 O46 O 1.00261 -0.10279 -0.04836
 Zr47 Zr 1.04574 -0.00169 0.00210
 Zr48 Zr 0.95473 -0.00085 0.00178
 O49 O 0.97373 -0.00388 -0.06011
 O50 O 1.02815 -0.00439 -0.06043
 O51 O 0.97413 0.04965 -0.00130
 O52 O 1.02591 -0.05180 0.00521
 O53 O 1.02695 0.04879 -0.00109
 O54 O 0.97302 -0.05169 0.00509
 H55 H 0.95838 0.00308 0.08835
 H56 H 1.03903 -0.07276 0.00628
 H57 H 0.95974 -0.00482 -0.08481
 H58 H 1.04026 0.06973 -0.00236
 H59 H 1.00395 -0.10824 0.04247
 H60 H 0.98803 -0.11101 -0.02632
 H61 H 1.01488 -0.03488 -0.12850
 H62 H 0.99986 0.05468 -0.13512
 H63 H 0.99286 0.10575 -0.04042
 H64 H 0.99235 0.10904 0.03086
 H65 H 0.99827 0.06673 0.13136
 H66 H 0.99659 -0.05525 0.13951
 O67 O 1.05202 0.45041 0.57842
 O68 O 1.02660 0.41015 0.53687
 C69 C 1.04600 0.41860 0.56653
 O70 O 0.94208 0.54558 0.57333
 O71 O 0.97029 0.58577 0.53547
 C72 C 0.94866 0.57732 0.56218
 O73 O 0.94607 0.44941 0.57840
 O74 O 0.97287 0.40974 0.53768
 C75 C 0.95292 0.41776 0.56704
 O76 O 1.05441 0.54674 0.57457
 O77 O 1.02656 0.58637 0.53626
 C78 C 1.04755 0.57836 0.56364
 Zr79 Zr 1.03622 0.49846 0.55515
 O80 O 1.02934 0.49951 0.62219
 O81 O 1.08387 0.49814 0.56286
 Zr82 Zr 0.96110 0.49767 0.55425
 O83 O 0.96525 0.49972 0.62161
 O84 O 0.91324 0.49380 0.55830
 O85 O 0.99875 0.46609 0.56285
 O86 O 0.99844 0.52961 0.56242
 O87 O 1.05526 0.54652 0.42661
 O88 O 1.02712 0.58627 0.46534
 C89 C 1.04838 0.57819 0.43785
 O90 O 0.94735 0.44866 0.42207
 O91 O 0.97293 0.40927 0.46367
 C92 C 0.95365 0.41710 0.43385
 O93 O 0.94403 0.54520 0.42607
 O94 O 0.97128 0.58557 0.46498
 C95 C 0.95040 0.57700 0.43752
 O96 O 1.05288 0.44999 0.42254
 O97 O 1.02624 0.41003 0.46287
 C98 C 1.04613 0.41828 0.43362
 Zr99 Zr 1.03763 0.49821 0.44696
 O100 O 1.03738 0.50207 0.37931
 O101 O 1.08564 0.49537 0.44690
 Zr102 Zr 0.96209 0.49728 0.44604
 O103 O 0.96469 0.50127 0.37845
 O104 O 0.91421 0.49292 0.44335
 Zr105 Zr 0.99951 0.44485 0.50035
 Zr106 Zr 0.99903 0.55103 0.50056
 O107 O 0.99977 0.52884 0.43878
 O108 O 1.00008 0.46590 0.43798
 O109 O 1.04304 0.52946 0.50117
 O110 O 0.95586 0.46710 0.50010
 O111 O 1.04294 0.46804 0.50096
 O112 O 0.95523 0.52846 0.50010
 H113 H 0.99806 0.54593 0.58721
 H114 H 0.93765 0.45180 0.50013
 H115 H 0.99991 0.54476 0.41383
 H116 H 1.06119 0.45298 0.50079
 H117 H 0.90493 0.50777 0.53460
 H118 H 0.90562 0.51072 0.46304
 H119 H 0.97432 0.47971 0.36721
 H120 H 1.02614 0.48163 0.36789
 H121 H 1.09323 0.51420 0.46596
 H122 H 1.09285 0.49375 0.53428
 H123 H 1.04983 0.50078 0.63501
 H124 H 0.94427 0.50004 0.63325
 O125 O 0.54296 0.06446 0.57461
 O126 O 0.57747 0.03280 0.53496
 C127 C 0.57048 0.05634 0.56350
 O128 O 0.45986 -0.06423 0.57103
 O129 O 0.42552 -0.03137 0.53374
 C130 C 0.43242 -0.05625 0.56011
 O131 O 0.54382 -0.05899 0.57611
 O132 O 0.57789 -0.02737 0.53567
 C133 C 0.57122 -0.05043 0.56471
 O134 O 0.45893 0.06741 0.56920
 O135 O 0.42506 0.03254 0.53292
 C136 C 0.43159 0.05839 0.55852
 Zr137 Zr 0.50106 0.04537 0.55191
 O138 O 0.49947 0.03942 0.61912
 O139 O 0.50176 0.10047 0.55871
 Zr140 Zr 0.50166 -0.04165 0.55299
 O141 O 0.50006 -0.03404 0.62003
 O142 O 0.50300 -0.09654 0.56114
 O143 O 0.52893 0.00235 0.56069
 O144 O 0.47409 0.00158 0.56021
 O145 O 0.45956 0.06437 0.42411
 O146 O 0.42542 0.03126 0.46252
 C147 C 0.43218 0.05591 0.43559
 O148 O 0.54449 -0.06029 0.42083
 O149 O 0.57822 -0.02827 0.46109
 C150 C 0.57178 -0.05171 0.43221
 O151 O 0.46043 -0.06498 0.42532
 O152 O 0.42582 -0.03207 0.46312
 C153 C 0.43291 -0.05708 0.43655
 O154 O 0.54379 0.06205 0.41954
 O155 O 0.57785 0.03173 0.46040
 C156 C 0.57118 0.05441 0.43111
 Zr157 Zr 0.50168 0.04416 0.44355
 O158 O 0.50056 0.03864 0.37622
 O159 O 0.50394 0.09942 0.43976
 Zr160 Zr 0.50219 -0.04322 0.44465
 O161 O 0.49943 -0.04226 0.37699
 O162 O 0.50552 -0.09849 0.44392
 Zr163 Zr 0.54738 0.00180 0.49813
 Zr164 Zr 0.45585 0.00051 0.49820
 O165 O 0.47501 0.00004 0.43632
 O166 O 0.52945 0.00077 0.43577
 O167 O 0.47451 0.05146 0.49760
 O168 O 0.52829 -0.04876 0.49884
 O169 O 0.52763 0.05182 0.49762
 O170 O 0.47515 -0.04992 0.49888
 H171 H 0.45970 0.00172 0.58477
 H172 H 0.54180 -0.06942 0.49889
 H173 H 0.46117 -0.00046 0.41145
 H174 H 0.54081 0.07289 0.49717
 H175 H 0.50748 -0.10688 0.53276
 H176 H 0.49024 -0.10764 0.46443
 H177 H 0.51591 -0.02683 0.36636
 H178 H 0.50026 0.06272 0.36460
 H179 H 0.48959 0.10890 0.46137
 H180 H 0.50565 0.11019 0.52995
 H181 H 0.49832 0.06342 0.63118
 H182 H 0.49928 -0.05774 0.63269
 O183 O 0.54084 0.56328 0.07721
 O184 O 0.57503 0.53181 0.03677
 C185 C 0.56832 0.55464 0.06634
 O186 O 0.45598 0.43668 0.07149
 O187 O 0.42225 0.47033 0.03413
 C188 C 0.42864 0.44549 0.06085
 O189 O 0.54034 0.44022 0.07691
 O190 O 0.57478 0.47142 0.03662
 C191 C 0.56790 0.44866 0.06596
 O192 O 0.45664 0.56728 0.07179
 O193 O 0.42256 0.53354 0.03430
 C194 C 0.42919 0.55852 0.06120
 Zr195 Zr 0.49872 0.54543 0.05337
 O196 O 0.49701 0.53910 0.12054
 O197 O 0.49999 0.60051 0.06021
 Zr198 Zr 0.49832 0.45820 0.05330
 O199 O 0.49673 0.46507 0.12047
 O200 O 0.49891 0.40317 0.06018
 O201 O 0.52602 0.50180 0.06168
 O202 O 0.47134 0.50188 0.06085
 O203 O 0.45767 0.56549 -0.07558
 O204 O 0.42311 0.53279 -0.03735
 C205 C 0.43010 0.55701 -0.06484
 O206 O 0.54169 0.43993 -0.07865
 O207 O 0.57545 0.47142 -0.03787
 C208 C 0.56906 0.44846 -0.06733
 O209 O 0.45701 0.43707 -0.07556
 O210 O 0.42280 0.47024 -0.03734
 C211 C 0.42952 0.44566 -0.06474
 O212 O 0.54226 0.56242 -0.07866
 O213 O 0.57577 0.53127 -0.03788
 C214 C 0.56956 0.55392 -0.06744
 Zr215 Zr 0.49965 0.54530 -0.05492
 O216 O 0.49686 0.54401 -0.12260
 O217 O 0.50284 0.60061 -0.05536
 Zr218 Zr 0.49921 0.45751 -0.05506
 O219 O 0.49641 0.45857 -0.12272
 O220 O 0.50182 0.40218 -0.05585
 Zr221 Zr 0.54471 0.50152 -0.00073
 Zr222 Zr 0.45319 0.50169 -0.00124
 O223 O 0.47277 0.50141 -0.06293
 O224 O 0.52688 0.50132 -0.06327
 O225 O 0.47225 0.55247 -0.00098
 O226 O 0.52510 0.45120 -0.00075
 O227 O 0.52562 0.55192 -0.00063
 O228 O 0.47177 0.45086 -0.00108
 H229 H 0.45703 0.50200 0.08550
 H230 H 0.53848 0.43043 -0.00078
 H231 H 0.45920 0.50130 -0.08810
 H232 H 0.53923 0.57262 -0.00061
 H233 H 0.50323 0.39319 0.03156
 H234 H 0.48554 0.39322 -0.03677
 H235 H 0.51461 0.47095 -0.13370
 H236 H 0.51462 0.53092 -0.13361
 H237 H 0.48628 0.60978 -0.03692
 H238 H 0.50390 0.61021 0.03145
 H239 H 0.49620 0.56304 0.13284
 H240 H 0.49562 0.44123 0.13273
 N241 N 1.21571 0.20572 0.15535
 C242 C 1.20132 0.17773 0.17288
 N243 N 1.20262 0.17281 0.21565
 N244 N 1.21779 0.19516 0.24030
 C245 C 1.23212 0.22348 0.22325
 N246 N 1.23103 0.22811 0.18010
 C247 C 1.18217 0.15542 0.14796
 C248 C 1.16413 0.13671 0.13030
 C249 C 1.14056 0.11528 0.11283
 N250 N 1.11148 0.12104 0.12513
 N251 N 1.08916 0.10105 0.11010
 C252 C 1.09520 0.07442 0.08247
 N253 N 1.12443 0.06854 0.07026
 N254 N 1.14682 0.08860 0.08537
 N255 N 1.19727 0.72202 0.65558
 C256 C 1.17541 0.70361 0.67643
 N257 N 1.17786 0.69872 0.71920
 N258 N 1.20103 0.71252 0.74071
 C259 C 1.22279 0.73165 0.72028
 N260 N 1.22046 0.73585 0.67713
 C261 C 1.15062 0.68796 0.65363
 C262 C 1.12999 0.67267 0.63647
 C263 C 1.10647 0.65090 0.61906
 N264 N 1.10148 0.61926 0.63697
 N265 N 1.08165 0.59709 0.61987
 C266 C 1.06585 0.60571 0.58434
 N267 N 1.07043 0.63775 0.56660
 N268 N 1.09050 0.66004 0.58375
 N269 N 0.72143 0.19911 0.66156
 C270 C 0.69646 0.18409 0.67935
 N271 N 0.68937 0.19124 0.72071
 N272 N 0.70691 0.21240 0.74387
 C273 C 0.73210 0.22751 0.72648
 N274 N 0.73901 0.22033 0.68477
 C275 C 0.67764 0.16055 0.65536
 C276 C 0.66045 0.14086 0.63739
 C277 C 0.63809 0.11832 0.61858
 N278 N 0.60875 0.12144 0.63104
 N279 N 0.58747 0.10107 0.61390
 C280 C 0.59478 0.07670 0.58382
 N281 N 0.62428 0.07340 0.57145
 N282 N 0.64564 0.09387 0.58867
 N283 N 0.71483 0.69600 0.16652
 C284 C 0.70018 0.67092 0.18928
 N285 N 0.70349 0.67021 0.23241
 N286 N 0.72089 0.69387 0.25215
 C287 C 0.73562 0.71920 0.22953
 N288 N 0.73219 0.71964 0.18624
 C289 C 0.67945 0.64735 0.16825
 C290 C 0.66105 0.62886 0.15053
 C291 C 0.63780 0.60848 0.12982
 N292 N 0.60830 0.61383 0.14038
 N293 N 0.58636 0.59631 0.12033
 C294 C 0.59308 0.57281 0.08892
 N295 N 0.62269 0.56735 0.07841
 N296 N 0.64469 0.58495 0.09851
 N297 N 0.80292 -0.21669 0.16516
 C298 C 0.79779 -0.18182 0.16803
 N299 N 0.77706 -0.16977 0.19666
 N300 N 0.76219 -0.19193 0.22207
 C301 C 0.76769 -0.22694 0.22012
 N302 N 0.78805 -0.23888 0.19057
 C303 C 0.81737 -0.15784 0.14616
 C304 C 0.83558 -0.13822 0.13026
 C305 C 0.85917 -0.11610 0.11400
 N306 N 0.85326 -0.09032 0.08560
 N307 N 0.87573 -0.07019 0.07070
 C308 C 0.90471 -0.07517 0.08393
 N309 N 0.91042 -0.10090 0.11248
 N310 N 0.88801 -0.12096 0.12733
 N311 N 0.79602 0.30118 0.67313
 C312 C 0.82519 0.29136 0.67972
 N313 N 0.83119 0.26786 0.71075
 N314 N 0.80875 0.25445 0.73432
 C315 C 0.77941 0.26425 0.72822
 N316 N 0.77352 0.28771 0.69674
 C317 C 0.84973 0.30804 0.65713
 C318 C 0.87038 0.32372 0.64030
 C319 C 0.89414 0.34538 0.62309
 N320 N 0.90982 0.33639 0.58704
 N321 N 0.93004 0.35855 0.56993
 C322 C 0.93518 0.39029 0.58848
 N323 N 0.91973 0.39874 0.62482
 N324 N 0.89971 0.37668 0.64189
 N325 N 0.31711 -0.21385 0.69170
 C326 C 0.30525 -0.18772 0.66795
 N327 N 0.27483 -0.18285 0.66811
 N328 N 0.25685 -0.20326 0.69173
 C329 C 0.26858 -0.22921 0.71626
 N330 N 0.29912 -0.23427 0.71535
 C331 C 0.32492 -0.16395 0.64569
 C332 C 0.34243 -0.14398 0.62878
 C333 C 0.36486 -0.12098 0.61092
 N334 N 0.35730 -0.09522 0.58321
 N335 N 0.37866 -0.07403 0.56717
 C336 C 0.40816 -0.07793 0.57856
 N337 N 0.41548 -0.10367 0.60638
 N338 N 0.39422 -0.12475 0.62235
 N339 N 0.31362 0.30316 0.21272
 C340 C 0.30028 0.32371 0.18316
 N341 N 0.27001 0.32039 0.17642
 N342 N 0.25368 0.29705 0.19851
 C343 C 0.26704 0.27602 0.22796
 N344 N 0.29735 0.27987 0.23472
 C345 C 0.31860 0.34784 0.15887
 C346 C 0.33599 0.36680 0.13984
 C347 C 0.35908 0.38753 0.11914
 N348 N 0.35211 0.41323 0.09100
 N349 N 0.37413 0.43195 0.07221
 C350 C 0.40378 0.42551 0.08099
 N351 N 0.41051 0.39978 0.10914
 N352 N 0.38860 0.38116 0.12784
 N353 N 0.80040 0.21473 -0.15506
 C354 C 0.79959 0.17969 -0.16208
 N355 N 0.78226 0.16677 -0.19413
 N356 N 0.76650 0.18825 -0.21881
 C357 C 0.76745 0.22350 -0.21242
 N358 N 0.78457 0.23627 -0.17973
 C359 C 0.82017 0.15706 -0.14047
 C360 C 0.83875 0.13807 -0.12492
 C361 C 0.86220 0.11599 -0.10896
 N362 N 0.85581 0.08980 -0.08114
 N363 N 0.87792 0.06931 -0.06687
 C364 C 0.90706 0.07424 -0.08020
 N365 N 0.91329 0.10040 -0.10818
 N366 N 0.89121 0.12085 -0.12242
 N367 N 0.79401 0.69404 0.33409
 C368 C 0.82331 0.70427 0.32855
 N369 N 0.83004 0.72832 0.29827
 N370 N 0.80817 0.74187 0.27440
 C371 C 0.77872 0.73159 0.27938
 N372 N 0.77208 0.70765 0.31018
 C373 C 0.84729 0.68733 0.35126
 C374 C 0.86742 0.67127 0.36808
 C375 C 0.89052 0.64900 0.38497
 N376 N 0.90831 0.65888 0.41838
 N377 N 0.92851 0.63663 0.43460
 C378 C 0.93149 0.60392 0.41774
 N379 N 0.91385 0.59453 0.38411
 N380 N 0.89384 0.61664 0.36795
 N381 N 0.28539 0.20506 0.34621
 C382 C 0.30520 0.18335 0.32605
 N383 N 0.30737 0.18401 0.28282
 N384 N 0.28991 0.20526 0.26024
 C385 C 0.26966 0.22680 0.28005
 N386 N 0.26786 0.22637 0.32359
 C387 C 0.32426 0.16030 0.34965
 C388 C 0.34161 0.14090 0.36713
 C389 C 0.36416 0.11862 0.38508
 N390 N 0.39348 0.12282 0.37291
 N391 N 0.41490 0.10231 0.38872
 C392 C 0.40777 0.07674 0.41708
 N393 N 0.37830 0.07241 0.42922
 N394 N 0.35679 0.09301 0.41332
 N395 N 0.30313 0.71208 -0.17699
 C396 C 0.30112 0.67726 -0.18502
 N397 N 0.28156 0.66568 -0.21538
 N398 N 0.26446 0.68825 -0.23688
 C399 C 0.26635 0.72327 -0.22888
 N400 N 0.28608 0.73463 -0.19846
 C401 C 0.32089 0.65340 -0.16326
 C402 C 0.33871 0.63459 -0.14537
 C403 C 0.36159 0.61382 -0.12498
 N404 N 0.35420 0.58901 -0.09564
 N405 N 0.37587 0.57060 -0.07642
 C406 C 0.40564 0.57649 -0.08588
 N407 N 0.41282 0.60132 -0.11526
 N408 N 0.39123 0.61963 -0.13442
 N409 N 1.22157 -0.16881 -0.19794
 C410 C 1.20137 -0.18170 -0.16917
 N411 N 1.19732 -0.21679 -0.16641
 N412 N 1.21271 -0.23836 -0.19213
 C413 C 1.23244 -0.22559 -0.22197
 N414 N 1.23694 -0.19036 -0.22365
 C415 C 1.18155 -0.15848 -0.14643
 C416 C 1.16335 -0.13937 -0.12963
 C417 C 1.13993 -0.11768 -0.11211
 N418 N 1.11085 -0.12303 -0.12434
 N419 N 1.08866 -0.10331 -0.10837
 C420 C 1.09480 -0.07743 -0.07977
 N421 N 1.12402 -0.07196 -0.06766
 N422 N 1.14628 -0.09175 -0.08368
 N423 N 1.19705 0.31609 0.30197
 C424 C 1.17770 0.29597 0.32529
 N425 N 1.18212 0.26097 0.32668
 N426 N 1.20498 0.24650 0.30490
 C427 C 1.22425 0.26640 0.28081
 N428 N 1.21992 0.30161 0.28016
 C429 C 1.15187 0.31150 0.34599
 C430 C 1.13035 0.32628 0.36165
 C431 C 1.10574 0.34694 0.37796
 N432 N 1.09047 0.33815 0.41434
 N433 N 1.06986 0.35987 0.43121
 C434 C 1.06397 0.39098 0.41213
 N435 N 1.07898 0.39922 0.37543
 N436 N 1.09938 0.37757 0.35858
 N437 N 0.72717 -0.18775 0.33468
 C438 C 0.69704 -0.18608 0.32667
 N439 N 0.68492 -0.20748 0.29651
 N440 N 0.70244 -0.22962 0.27456
 C441 C 0.73273 -0.23141 0.28225
 N442 N 0.74471 -0.20992 0.31275
 C443 C 0.67836 -0.16043 0.34751
 C444 C 0.66148 -0.13911 0.36315
 C445 C 0.63953 -0.11487 0.37961
 N446 N 0.61087 -0.11600 0.36438
 N447 N 0.58969 -0.09490 0.38040
 C448 C 0.59641 -0.07174 0.41207
 N449 N 0.62528 -0.07031 0.42708
 N450 N 0.64655 -0.09154 0.41102
 N451 N 0.72253 0.33499 -0.20861
 C452 C 0.70073 0.32502 -0.18023
 N453 N 0.69671 0.29048 -0.17228
 N454 N 0.71376 0.26664 -0.19220
 C455 C 0.73547 0.27632 -0.22106
 N456 N 0.73964 0.31110 -0.22854
 C457 C 0.68067 0.35025 -0.16072
 C458 C 0.66248 0.37004 -0.14466
 C459 C 0.63919 0.39183 -0.12613
 N460 N 0.60999 0.38747 -0.13848
 N461 N 0.58788 0.40604 -0.12017
 C462 C 0.59411 0.42971 -0.08880
 N463 N 0.62343 0.43423 -0.07657
 N464 N 0.64561 0.41557 -0.09492
 N465 N 1.19881 0.21039 -0.16448
 C466 C 1.20274 0.17553 -0.17046
 N467 N 1.22247 0.16432 -0.20095
 N468 N 1.23735 0.18725 -0.22531
 C469 C 1.23288 0.22228 -0.22044
 N470 N 1.21372 0.23336 -0.18886
 C471 C 1.18305 0.15098 -0.14946
 C472 C 1.16495 0.13086 -0.13411
 C473 C 1.14162 0.10810 -0.11803
 N474 N 1.14735 0.08453 -0.08681
 N475 N 1.12501 0.06455 -0.07118
 C476 C 1.09630 0.06746 -0.08639
 N477 N 1.09080 0.09090 -0.11787
 N478 N 1.11308 0.11079 -0.13348
 N479 N 1.18143 0.73979 0.32712
 C480 C 1.17676 0.70474 0.32581
 N481 N 1.19556 0.68458 0.30167
 N482 N 1.21827 0.69893 0.27939
 C483 C 1.22328 0.73415 0.28044
 N484 N 1.20416 0.75417 0.30486
 C485 C 1.15158 0.68891 0.34816
 C486 C 1.13089 0.67330 0.36513
 C487 C 1.10747 0.65112 0.38256
 N488 N 1.10359 0.61891 0.36532
 N489 N 1.08381 0.59657 0.38239
 C490 C 1.06694 0.60553 0.41727
 N491 N 1.07045 0.63811 0.43438
 N492 N 1.09046 0.66058 0.41725
 N493 N 0.68454 0.21272 0.29946
 C494 C 0.69731 0.18704 0.32297
 N495 N 0.72793 0.18389 0.32319
 N496 N 0.74520 0.20543 0.29995
 C497 C 0.73251 0.23078 0.27545
 N498 N 0.70180 0.23422 0.27619
 C499 C 0.67836 0.16194 0.34440
 C500 C 0.66121 0.14109 0.36050
 C501 C 0.63902 0.11728 0.37756
 N502 N 0.64609 0.09408 0.40869
 N503 N 0.62475 0.07307 0.42511
 C504 C 0.59572 0.07456 0.41075
 N505 N 0.58892 0.09762 0.37937
 N506 N 0.61018 0.11852 0.36300
 N507 N 0.68610 0.69691 -0.21693
 C508 C 0.69926 0.67436 -0.18947
 N509 N 0.72964 0.67663 -0.18291
 N510 N 0.74622 0.70095 -0.20300
 C511 C 0.73300 0.72408 -0.23012
 N512 N 0.70262 0.72117 -0.23690
 C513 C 0.68058 0.64947 -0.16676
 C514 C 0.66295 0.63010 -0.14870
 C515 C 0.63973 0.60903 -0.12865
 N516 N 0.64627 0.58600 -0.09705
 N517 N 0.62409 0.56787 -0.07778
 C518 C 0.59466 0.57224 -0.08946
 N519 N 0.58835 0.59520 -0.12117
 N520 N 0.61043 0.61323 -0.14039
 N521 N 0.79598 -0.17260 -0.20779
 C522 C 0.79761 -0.18025 -0.16566
 N523 N 0.78340 -0.20934 -0.15068
 N524 N 0.76805 -0.23022 -0.17731
 C525 C 0.76667 -0.22283 -0.21984
 N526 N 0.78080 -0.19343 -0.23433
 C527 C 0.81722 -0.15975 -0.13909
 C528 C 0.83565 -0.14230 -0.12029
 C529 C 0.85953 -0.12188 -0.10179
 N530 N 0.85348 -0.09325 -0.07737
 N531 N 0.87610 -0.07328 -0.06278
 C532 C 0.90541 -0.08115 -0.07256
 N533 N 0.91130 -0.10982 -0.09699
 N534 N 0.88874 -0.12976 -0.11148
 N535 N 0.82970 0.27237 0.28827
 C536 C 0.82353 0.29499 0.32060
 N537 N 0.79428 0.30433 0.32826
 N538 N 0.77187 0.29118 0.30444
 C539 C 0.77796 0.26863 0.27164
 N540 N 0.80738 0.25930 0.26450
 C541 C 0.84806 0.31103 0.34371
 C542 C 0.86900 0.32589 0.36077
 C543 C 0.89348 0.34638 0.37803
 N544 N 0.90173 0.37615 0.35775
 N545 N 0.92237 0.39743 0.37474
 C546 C 0.93582 0.38966 0.41246
 N547 N 0.92804 0.35937 0.43249
 N548 N 0.90719 0.33801 0.41546
 N549 N 0.31084 -0.19278 0.28299
 C550 C 0.30652 -0.18800 0.32558
 N551 N 0.28333 -0.20496 0.34542
 N552 N 0.26462 -0.22548 0.32308
 C553 C 0.26834 -0.22986 0.27996
 N554 N 0.29217 -0.21324 0.26065
 C555 C 0.32612 -0.16468 0.34880
 C556 C 0.34353 -0.14494 0.36636
 C557 C 0.36583 -0.12205 0.38488
 N558 N 0.35795 -0.09610 0.41268
 N559 N 0.37913 -0.07489 0.42906
 C560 C 0.40880 -0.07891 0.41790
 N561 N 0.41644 -0.10484 0.39001
 N562 N 0.39536 -0.12595 0.37373
 N563 N 0.27720 0.33345 -0.20866
 C564 C 0.29937 0.32221 -0.18215
 N565 N 0.30384 0.28733 -0.17790
 N566 N 0.28686 0.26443 -0.19951
 C567 C 0.26477 0.27544 -0.22647
 N568 N 0.26016 0.31051 -0.23030
 C569 C 0.31923 0.34666 -0.16066
 C570 C 0.33721 0.36594 -0.14318
 C571 C 0.36033 0.38731 -0.12336
 N572 N 0.38991 0.38167 -0.13326
 N573 N 0.41169 0.40050 -0.11467
 C574 C 0.40480 0.42573 -0.08541
 N575 N 0.37510 0.43146 -0.07549
 N576 N 0.35324 0.41254 -0.09414
 N577 N 1.19242 -0.21526 0.17550
 C578 C 1.19686 -0.18022 0.17879
 N579 N 1.21841 -0.16784 0.20560
 N580 N 1.23496 -0.18980 0.22859
 C581 C 1.23070 -0.22514 0.22577
 N582 N 1.20900 -0.23729 0.19849
 C583 C 1.17700 -0.15639 0.15763
 C584 C 1.15931 -0.13646 0.14164
 C585 C 1.13685 -0.11354 0.12446
 N586 N 1.14390 -0.09027 0.09321
 N587 N 1.12245 -0.06992 0.07673
 C588 C 1.09332 -0.07213 0.09117
 N589 N 1.08650 -0.09527 0.12266
 N590 N 1.10790 -0.11554 0.13910
 N591 N 1.16904 0.26997 0.70659
 C592 C 1.17525 0.29423 0.67633
 N593 N 1.20454 0.30403 0.66945
 N594 N 1.22692 0.28983 0.69201
 C595 C 1.22080 0.26562 0.72274
 N596 N 1.19135 0.25583 0.72911
 C597 C 1.15081 0.31120 0.65440
 C598 C 1.13016 0.32676 0.63799
 C599 C 1.10619 0.34794 0.62109
 N600 N 1.10005 0.37901 0.64013
 N601 N 1.07964 0.40045 0.62353
 C602 C 1.06434 0.39162 0.58744
 N603 N 1.07008 0.36013 0.56863
 N604 N 1.09068 0.33859 0.58527
 N605 N 0.69210 -0.18302 0.71874
 C606 C 0.69723 -0.17804 0.67643
 N607 N 0.71943 -0.19655 0.65642
 N608 N 0.73624 -0.21910 0.67835
 C609 C 0.73123 -0.22415 0.72096
 N610 N 0.70886 -0.20550 0.74062
 C611 C 0.67874 -0.15384 0.65351
 C612 C 0.66169 -0.13377 0.63649
 C613 C 0.63934 -0.11100 0.61879
 N614 N 0.64651 -0.08744 0.58789
 N615 N 0.62502 -0.06721 0.57119
 C616 C 0.59578 -0.06990 0.58505
 N617 N 0.58888 -0.09333 0.61616
 N618 N 0.61028 -0.11345 0.63280
 N619 N 0.69404 0.29308 0.17527
 C620 C 0.69825 0.32779 0.18218
 N621 N 0.72045 0.33838 0.20932
 N622 N 0.73780 0.31493 0.22898
 C623 C 0.73347 0.27999 0.22243
 N624 N 0.71132 0.26968 0.19490
 C625 C 0.67828 0.35261 0.16237
 C626 C 0.66022 0.37197 0.14582
 C627 C 0.63714 0.39322 0.12653
 N628 N 0.64408 0.41674 0.09546
 N629 N 0.62218 0.43494 0.07646
 C630 C 0.59260 0.43014 0.08785
 N631 N 0.58584 0.40666 0.11904
 N632 N 0.60768 0.38855 0.13800
 N633 N 0.77760 0.17225 0.18577
 C634 C 0.79711 0.18586 0.15654
 N635 N 0.80032 0.22108 0.15394
 N636 N 0.78494 0.24205 0.18043
 C637 C 0.76607 0.22852 0.21085
 N638 N 0.76226 0.19318 0.21227
 C639 C 0.81768 0.16332 0.13407
 C640 C 0.83649 0.14450 0.11808
 C641 C 0.86038 0.12271 0.10203
 N642 N 0.85433 0.09430 0.07728
 N643 N 0.87682 0.07363 0.06385
 C644 C 0.90599 0.08060 0.07505
 N645 N 0.91188 0.10904 0.09988
 N646 N 0.88944 0.12967 0.11325
 N647 N 0.79071 0.69843 0.66389
 C648 C 0.82040 0.70609 0.67079
 N649 N 0.82780 0.72833 0.70294
 N650 N 0.80622 0.74286 0.72706
 C651 C 0.77634 0.73565 0.72024
 N652 N 0.76904 0.71305 0.68806
 C653 C 0.84399 0.68836 0.64742
 C654 C 0.86402 0.67189 0.63030
 C655 C 0.88716 0.64933 0.61330
 N656 N 0.90624 0.65939 0.58116
 N657 N 0.92686 0.63712 0.56532
 C658 C 0.92902 0.60421 0.58139
 N659 N 0.91006 0.59463 0.61376
 N660 N 0.88963 0.61676 0.62950
 N661 N 0.27252 0.18518 0.66400
 C662 C 0.30310 0.18888 0.66540
 N663 N 0.31530 0.21347 0.69165
 N664 N 0.29754 0.23331 0.71639
 C665 C 0.26686 0.22925 0.71594
 N666 N 0.25474 0.20506 0.68872
 C667 C 0.32261 0.16518 0.64247
 C668 C 0.34025 0.14538 0.62541
 C669 C 0.36305 0.12268 0.60770
 N670 N 0.39242 0.12781 0.61856
 N671 N 0.41398 0.10693 0.60309
 C672 C 0.40699 0.08001 0.57633
 N673 N 0.37748 0.07476 0.56547
 N674 N 0.35582 0.09574 0.58103
 N675 N 0.28259 0.70312 0.16368
 C676 C 0.29893 0.67858 0.18446
 N677 N 0.29759 0.67749 0.22782
 N678 N 0.28042 0.70012 0.24971
 C679 C 0.26380 0.72487 0.22918
 N680 N 0.26541 0.72576 0.18554
 C681 C 0.31915 0.65566 0.16110
 C682 C 0.33718 0.63729 0.14222
 C683 C 0.36023 0.61669 0.12099
 N684 N 0.38987 0.62324 0.12920
 N685 N 0.41156 0.60462 0.10998
 C686 C 0.40452 0.57870 0.08176
 N687 N 0.37476 0.57210 0.07346
 N688 N 0.35298 0.59080 0.09277
   
