data_POSCAR
  _audit_creation_date              2014-09-24
  _audit_creation_method            'ToBaCCo'
  _symmetry_space_group_name_H-M    'P1'
  _symmetry_Int_Tables_number       1
  _symmetry_cell_setting            triclinic
  loop_
  _symmetry_equiv_pos_as_xyz
 x,y,z
_cell_length_a 28.1360
_cell_length_b 28.0590
_cell_length_c 15.5837
_cell_angle_alpha 89.982500
_cell_angle_beta 89.906100
_cell_angle_gamma 119.233500
loop_
  _atom_site_label
  _atom_site_type_symbol
  _atom_site_fract_x
  _atom_site_fract_y
  _atom_site_fract_z
O1 O 0.43180 0.94556 0.57844
 O2 O 0.48901 1.05402 0.41454
 O3 O 0.43387 0.94903 0.41178
 O4 O 0.48566 1.05233 0.58266
 O5 O 0.56262 1.04947 0.58572
 O6 O 0.51068 0.94576 0.41430
 O7 O 0.56606 1.05143 0.41764
 O8 O 0.50909 0.94328 0.58116
 Cu9 Cu 0.45247 1.00076 0.49722
 Cu10 Cu 0.54493 0.99741 0.50021
 C11 C 0.46058 0.92558 0.60725
 C12 C 0.53694 1.07030 0.38633
 C13 C 0.46362 0.93017 0.38311
 C14 C 0.53270 1.06832 0.61390
 O15 O -0.05751 0.42917 0.42100
 O16 O 0.05478 0.48675 0.57659
 O17 O -0.05115 0.43207 0.58812
 O18 O 0.04765 0.48541 0.41004
 O19 O 0.04406 0.56221 0.41259
 O20 O -0.05399 0.50919 0.59127
 O21 O 0.05121 0.56359 0.57931
 O22 O -0.06170 0.50558 0.42434
 Cu23 Cu -0.00124 0.45063 0.49885
 Cu24 Cu -0.00552 0.54281 0.50199
 C25 C -0.07875 0.45754 0.39555
 C26 C 0.07219 0.53494 0.60457
 C27 C -0.06921 0.46166 0.62076
 C28 C 0.06256 0.53290 0.38063
 O29 O 0.43270 0.48549 0.41942
 O30 O 0.48901 0.43691 0.59018
 O31 O 0.43271 0.48704 0.58570
 O32 O 0.48795 0.43253 0.42300
 O33 O 0.56435 0.51132 0.41924
 O34 O 0.50888 0.56596 0.58226
 O35 O 0.56560 0.51553 0.58651
 O36 O 0.50944 0.56398 0.41592
 Cu37 Cu 0.45301 0.45247 0.50437
 Cu38 Cu 0.54482 0.54701 0.50041
 C39 C 0.46121 0.53343 0.38946
 C40 C 0.53669 0.46822 0.61831
 C41 C 0.46122 0.53582 0.61201
 C42 C 0.53563 0.46241 0.39364
 O43 O 0.40940 0.66649 -0.09779
 O44 O 0.41102 0.75863 -0.07499
 C45 C 0.37683 0.76587 -0.11843
 O46 O 0.32651 0.74239 -0.10080
 O47 O 0.23522 0.65301 -0.07676
 C48 C 0.22982 0.61225 -0.12015
 O49 O 0.25404 0.58566 -0.10128
 O50 O 0.34293 0.58204 -0.07132
 C51 C 0.38356 0.61607 -0.11500
 O52 O 0.41055 0.65228 0.07409
 O53 O 0.40815 0.74303 0.09635
 C54 C 0.38222 0.76845 0.11135
 O55 O 0.33973 0.75971 0.07006
 O56 O 0.24979 0.66758 0.09460
 C57 C 0.22445 0.61669 0.10925
 O58 O 0.23386 0.58295 0.06840
 O59 O 0.32599 0.58492 0.09876
 C60 C 0.37627 0.61105 0.11692
 Cr61 Cr 0.40677 0.70352 -0.00046
 Cr62 Cr 0.28938 0.70418 -0.00293
 Cr63 Cr 0.29068 0.58689 -0.00117
 O64 O 0.32897 0.66494 -0.00098
 O65 O 0.58658 0.34667 -0.06847
 O66 O 0.58848 0.25590 -0.09758
 C67 C 0.61390 0.23009 -0.11410
 O68 O 0.65627 0.23773 -0.07335
 O69 O 0.74699 0.32939 -0.09458
 C70 C 0.77228 0.38029 -0.10887
 O71 O 0.76300 0.41396 -0.06752
 O72 O 0.67111 0.41337 -0.09449
 C73 C 0.62045 0.38886 -0.10970
 O74 O 0.58835 0.32922 0.10157
 O75 O 0.58515 0.23664 0.07209
 C76 C 0.61857 0.22728 0.11354
 O77 O 0.66916 0.25176 0.09817
 O78 O 0.76093 0.34117 0.07740
 C79 C 0.76708 0.38208 0.12118
 O80 O 0.74378 0.40960 0.10274
 O81 O 0.65495 0.41392 0.07631
 C82 C 0.61425 0.37958 0.11970
 Cr83 Cr 0.59018 0.29368 0.00176
 Cr84 Cr 0.70683 0.29162 0.00171
 Cr85 Cr 0.70676 0.40967 0.00399
 O86 O 0.66797 0.33160 0.00195
 C87 C 0.47019 0.86301 -0.28843
 C88 C 0.43741 0.88093 -0.32909
 C89 C 0.38154 0.85412 -0.30786
 C90 C 0.36123 0.81532 -0.24102
 C91 C 0.39647 0.80285 -0.19344
 C92 C 0.45031 0.82514 -0.22225
 C93 C 0.50266 0.85336 -0.17394
 C94 C 0.52447 0.89489 -0.24653
 H95 H 0.35392 0.86464 -0.34036
 H96 H 0.31853 0.79714 -0.22421
 H97 H 0.52305 0.82804 -0.16968
 H98 H 0.49862 0.87080 -0.11205
 H99 H 0.55742 0.89348 -0.28397
 H100 H 0.53308 0.93645 -0.22679
 C101 C 0.13117 0.60671 -0.28985
 C102 C 0.11731 0.55795 -0.33309
 C103 C 0.14763 0.53144 -0.31400
 C104 C 0.18574 0.55007 -0.24655
 C105 C 0.19401 0.59534 -0.19626
 C106 C 0.16843 0.62485 -0.22308
 C107 C 0.13651 0.64501 -0.17301
 C108 C 0.09568 0.62513 -0.24623
 H109 H 0.14018 0.49491 -0.34839
 H110 H 0.20661 0.52736 -0.23133
 H111 H 0.15871 0.69020 -0.16626
 H112 H 0.11978 0.62196 -0.11225
 H113 H 0.09439 0.65889 -0.28158
 H114 H 0.05523 0.59055 -0.22799
 C115 C 0.46918 0.61073 -0.29803
 C116 C 0.43967 0.55658 -0.32666
 C117 C 0.38691 0.52414 -0.29188
 C118 C 0.36803 0.54369 -0.22403
 C119 C 0.40117 0.59623 -0.18969
 C120 C 0.45026 0.63009 -0.23187
 C121 C 0.50607 0.66446 -0.19629
 C122 C 0.52686 0.64316 -0.26871
 H123 H 0.36104 0.48276 -0.31408
 H124 H 0.32830 0.51694 -0.19671
 H125 H 0.51105 0.65070 -0.13163
 H126 H 0.51977 0.70881 -0.20178
 H127 H 0.54387 0.61698 -0.24608
 H128 H 0.55263 0.67531 -0.31574
 C129 C 0.60121 0.12235 -0.27285
 C130 C 0.55195 0.10785 -0.31452
 C131 C 0.51993 0.12994 -0.28230
 C132 C 0.53973 0.16940 -0.21663
 C133 C 0.59190 0.18748 -0.18115
 C134 C 0.62056 0.16097 -0.20770
 C135 C 0.67810 0.18449 -0.23765
 C136 C 0.65690 0.14224 -0.30906
 H137 H 0.48037 0.11820 -0.30963
 H138 H 0.51471 0.18667 -0.19535
 H139 H 0.70386 0.17781 -0.19048
 H140 H 0.69529 0.22720 -0.26117
 H141 H 0.67053 0.11128 -0.30299
 H142 H 0.66174 0.16039 -0.37411
 C143 C 0.87671 0.47536 -0.26909
 C144 C 0.89482 0.44235 -0.30923
 C145 C 0.87670 0.38976 -0.27411
 C146 C 0.83748 0.36967 -0.20791
 C147 C 0.81579 0.40179 -0.17451
 C148 C 0.83863 0.45577 -0.20324
 C149 C 0.81146 0.48683 -0.23413
 C150 C 0.85312 0.50827 -0.30643
 H151 H 0.89099 0.36314 -0.29981
 H152 H 0.82302 0.32843 -0.18485
 H153 H 0.81615 0.51908 -0.18808
 H154 H 0.76910 0.45970 -0.25658
 H155 H 0.88171 0.55289 -0.30202
 H156 H 0.83496 0.49355 -0.37091
 C157 C 0.52480 0.40067 -0.26735
 C158 C 0.55798 0.45003 -0.30964
 C159 C 0.61121 0.48282 -0.27772
 C160 C 0.63169 0.46351 -0.21180
 C161 C 0.59920 0.41117 -0.17586
 C162 C 0.54480 0.38187 -0.20204
 C163 C 0.51247 0.32399 -0.23105
 C164 C 0.49059 0.34460 -0.30275
 H165 H 0.63773 0.52249 -0.30564
 H166 H 0.67332 0.48890 -0.19084
 H167 H 0.48082 0.29815 -0.18346
 H168 H 0.53854 0.30701 -0.25433
 H169 H 0.44634 0.33055 -0.29645
 H170 H 0.50401 0.33966 -0.36773
 C171 C 0.85370 0.46546 0.30728
 C172 C 0.87882 0.43573 0.33552
 C173 C 0.85964 0.38299 0.30027
 C174 C 0.82217 0.36464 0.23183
 C175 C 0.80261 0.39831 0.19751
 C176 C 0.81642 0.44709 0.24064
 C177 C 0.83655 0.50341 0.20639
 C178 C 0.87757 0.52363 0.27936
 H179 H 0.87561 0.35694 0.32210
 H180 H 0.81033 0.32511 0.20374
 H181 H 0.80545 0.51680 0.21215
 H182 H 0.85564 0.50931 0.14191
 H183 H 0.87014 0.54876 0.32697
 H184 H 0.92048 0.54121 0.25718
 C185 C 0.52428 0.12597 0.27801
 C186 C 0.55693 0.10751 0.31798
 C187 C 0.60907 0.12472 0.28223
 C188 C 0.62895 0.16298 0.21471
 C189 C 0.59716 0.18476 0.18074
 C190 C 0.54377 0.16334 0.21102
 C191 C 0.51457 0.19232 0.24240
 C192 C 0.49321 0.15144 0.31585
 H193 H 0.63529 0.10996 0.30773
 H194 H 0.66973 0.17648 0.19076
 H195 H 0.48215 0.18808 0.19734
 H196 H 0.54285 0.23480 0.26352
 H197 H 0.44847 0.12369 0.31307
 H198 H 0.50908 0.17019 0.37966
 C199 C 0.60721 0.47344 0.28753
 C200 C 0.55822 0.43982 0.33016
 C201 C 0.53177 0.38352 0.31105
 C202 C 0.55084 0.36337 0.24431
 C203 C 0.59658 0.39916 0.19479
 C204 C 0.62582 0.45368 0.22146
 C205 C 0.64640 0.50532 0.17111
 C206 C 0.62598 0.52697 0.24355
 H207 H 0.49511 0.35534 0.34514
 H208 H 0.52822 0.32027 0.22910
 H209 H 0.62395 0.49955 0.10990
 H210 H 0.69152 0.52715 0.16510
 H211 H 0.59168 0.53376 0.22444
 H212 H 0.65937 0.56127 0.27916
 C213 C 0.11865 0.52066 0.26688
 C214 C 0.10083 0.55365 0.30741
 C215 C 0.11936 0.60656 0.27374
 C216 C 0.15901 0.62712 0.20817
 C217 C 0.18066 0.59505 0.17439
 C218 C 0.15731 0.54074 0.20190
 C219 C 0.18404 0.50926 0.23286
 C220 C 0.14170 0.48729 0.30417
 H221 H 0.10500 0.63291 0.30028
 H222 H 0.17381 0.66857 0.18597
 H223 H 0.22619 0.53609 0.25639
 H224 H 0.17970 0.47738 0.18632
 H225 H 0.15926 0.50140 0.36915
 H226 H 0.11305 0.44275 0.29867
 C227 C 0.47274 0.86489 0.28394
 C228 C 0.44399 0.89117 0.31095
 C229 C 0.39728 0.88128 0.26374
 C230 C 0.37749 0.84211 0.19760
 C231 C 0.40378 0.81166 0.17751
 C232 C 0.45304 0.82603 0.21923
 C233 C 0.47166 0.79096 0.26379
 C234 C 0.49324 0.83354 0.33471
 H235 H 0.37509 0.90263 0.27936
 H236 H 0.34063 0.83444 0.16447
 H237 H 0.50442 0.78839 0.22760
 H238 H 0.43726 0.75103 0.28462
 H239 H 0.53841 0.85547 0.33930
 H240 H 0.47136 0.81837 0.39677
 C241 C 0.47002 0.60517 0.28535
 C242 C 0.43780 0.55460 0.32499
 C243 C 0.38195 0.52618 0.30384
 C244 C 0.36120 0.54531 0.23801
 C245 C 0.39598 0.59306 0.19144
 C246 C 0.44975 0.62378 0.22019
 C247 C 0.50222 0.64810 0.17169
 C248 C 0.52445 0.62765 0.24316
 H249 H 0.35466 0.48822 0.33586
 H250 H 0.31858 0.52134 0.22118
 H251 H 0.52200 0.69338 0.16860
 H252 H 0.49862 0.62751 0.10915
 H253 H 0.55704 0.66119 0.28111
 H254 H 0.53371 0.59518 0.22217
   
