data_POSCAR
  _audit_creation_date              2014-09-24
  _audit_creation_method            'ToBaCCo'
  _symmetry_space_group_name_H-M    'P1'
  _symmetry_Int_Tables_number       1
  _symmetry_cell_setting            triclinic
  loop_
  _symmetry_equiv_pos_as_xyz
 x,y,z
_cell_length_a 25.2493
_cell_length_b 25.1425
_cell_length_c 34.7340
_cell_angle_alpha 90.478100
_cell_angle_beta 88.041400
_cell_angle_gamma 87.643200
loop_
  _atom_site_label
  _atom_site_type_symbol
  _atom_site_fract_x
  _atom_site_fract_y
  _atom_site_fract_z
C1 C 0.00444 0.50175 0.98070
 C2 C 0.00686 0.50251 1.01984
 C3 C 0.00846 0.55301 1.04220
 C4 C 0.00874 0.45262 1.04242
 C5 C -0.00087 0.45122 0.95895
 C6 C 0.00710 0.55110 0.95755
 C7 C 0.04957 0.56007 1.06753
 C8 C 0.05222 0.60721 1.08876
 C9 C 0.01323 0.64890 1.08534
 C10 C -0.02857 0.64077 1.06022
 C11 C -0.03099 0.59344 1.03903
 C12 C 0.04918 0.41339 1.03554
 C13 C 0.05058 0.36682 1.05725
 C14 C 0.01207 0.35888 1.08656
 C15 C -0.02863 0.39827 1.09319
 C16 C -0.02988 0.44485 1.07155
 C17 C -0.04327 0.41815 0.96689
 C18 C -0.04744 0.37045 0.94644
 C19 C -0.00916 0.35504 0.91758
 C20 C 0.03228 0.38907 0.90905
 C21 C 0.03640 0.43668 0.92951
 C22 C -0.03190 0.56257 0.93069
 C23 C -0.03003 0.60861 0.90859
 C24 C 0.01065 0.64431 0.91301
 C25 C 0.05055 0.63218 0.93929
 C26 C 0.04888 0.58581 0.96119
 H27 H 0.08015 0.52903 1.07062
 H28 H 0.08501 0.60945 1.10769
 H29 H -0.05970 0.67118 1.05675
 H30 H -0.06370 0.58835 1.02015
 H31 H 0.07973 0.41897 1.01346
 H32 H 0.08216 0.33708 1.05136
 H33 H -0.06152 0.47461 1.07711
 H34 H -0.07325 0.42945 0.98882
 H35 H -0.08109 0.34645 0.95296
 H36 H 0.06193 0.37855 0.88670
 H37 H 0.06910 0.46194 0.92270
 H38 H -0.06413 0.53603 0.92709
 H39 H -0.06087 0.61670 0.88825
 H40 H 0.08365 0.65765 0.94246
 H41 H 0.08035 0.57683 0.98083
 H42 H -0.06015 0.39315 1.11451
 C43 C 0.49677 -0.00397 0.48139
 C44 C 0.49478 -0.00546 0.52063
 C45 C 0.44387 -0.00944 0.54303
 C46 C 0.54342 -0.00252 0.54332
 C47 C 0.54798 -0.00478 0.45894
 C48 C 0.44784 -0.00082 0.45882
 C49 C 0.43097 0.02700 0.57302
 C50 C 0.38353 0.02370 0.59453
 C51 C 0.34784 -0.01591 0.58642
 C52 C 0.36130 -0.05325 0.55688
 C53 C 0.40902 -0.05012 0.53552
 C54 C 0.57712 0.04023 0.53907
 C55 C 0.62232 0.04281 0.56104
 C56 C 0.63421 0.00325 0.58810
 C57 C 0.60042 -0.03971 0.59212
 C58 C 0.55528 -0.04224 0.57014
 C59 C 0.58701 -0.04533 0.46389
 C60 C 0.63506 -0.04526 0.44265
 C61 C 0.64459 -0.00534 0.41554
 C62 C 0.60530 0.03521 0.41062
 C63 C 0.55739 0.03518 0.43193
 C64 C 0.44034 -0.03897 0.43007
 C65 C 0.39477 -0.03642 0.40837
 C66 C 0.35613 0.00508 0.41455
 C67 C 0.36372 0.04310 0.44350
 C68 C 0.40932 0.04045 0.46525
 H69 H 0.45751 0.05836 0.57957
 H70 H 0.37441 0.05256 0.61738
 H71 H 0.33584 -0.08555 0.55068
 H72 H 0.41898 -0.07967 0.51329
 H73 H 0.56825 0.07170 0.51890
 H74 H 0.64778 0.07614 0.55721
 H75 H 0.52982 -0.07562 0.57371
 H76 H 0.58023 -0.07701 0.48418
 H77 H 0.66472 -0.07675 0.44715
 H78 H 0.61169 0.06771 0.39104
 H79 H 0.52789 0.06695 0.42782
 H80 H 0.46952 -0.07124 0.42484
 H81 H 0.38976 -0.06758 0.38733
 H82 H 0.33452 0.07527 0.44903
 H83 H 0.41471 0.07069 0.48700
 H84 H 0.60899 -0.07195 0.61165
 C85 C 0.11545 0.01028 0.26294
 H86 H 0.11763 0.01476 0.23198
 C87 C 0.16159 0.01107 0.28390
 H88 H 0.19880 0.01720 0.26859
 C89 C 0.06329 -0.00065 0.32010
 H90 H 0.02486 -0.00461 0.33415
 C91 C 0.10850 -0.00023 0.34220
 H92 H 0.10444 -0.00435 0.37317
 N93 N 0.06769 0.00354 0.28112
 C94 C -0.02934 -0.07106 0.19607
 H95 H -0.06296 -0.04302 0.19536
 C96 C -0.02862 -0.11770 0.17387
 H97 H -0.06200 -0.12485 0.15599
 C98 C 0.05409 -0.09575 0.22096
 H99 H 0.08590 -0.08761 0.23986
 C100 C 0.05655 -0.14283 0.19930
 H101 H 0.09110 -0.16890 0.20229
 Zn102 Zn 0.00791 0.00179 0.24972
 N103 N 0.01186 -0.06077 0.21878
 C104 C 0.00647 0.06070 0.17980
 N105 N 0.00823 0.06350 0.21885
 C106 C 0.01191 0.11094 0.23742
 C107 C 0.01228 0.15830 0.21677
 C108 C 0.00652 0.10715 0.15799
 C109 C -0.06474 -0.04238 0.30220
 C110 C -0.11200 -0.04542 0.32406
 C111 C -0.14020 0.04055 0.29981
 C112 C -0.09246 0.04195 0.27846
 N113 N -0.05576 0.00097 0.28014
 H114 H 0.00494 0.02257 0.16545
 H115 H 0.01454 0.11188 0.26844
 H116 H 0.01616 0.19519 0.23242
 H117 H 0.00453 0.10430 0.12694
 H118 H -0.03518 -0.07474 0.30265
 H119 H -0.11854 -0.08022 0.34150
 H120 H -0.16797 0.07435 0.29860
 H121 H -0.08501 0.07577 0.26042
 C122 C 0.01465 -0.15471 0.17515
 C123 C 0.15858 0.00465 0.32411
 C124 C -0.15076 -0.00395 0.32269
 C125 C 0.00859 0.15686 0.17644
 C126 C -0.02822 0.11027 0.76389
 H127 H -0.03136 0.11124 0.73292
 C128 C -0.03145 0.15765 0.78522
 H129 H -0.03698 0.19512 0.77042
 C130 C -0.01699 0.06012 0.82068
 H131 H -0.01145 0.02202 0.83442
 C132 C -0.01996 0.10656 0.84316
 H133 H -0.01529 0.10315 0.87386
 N134 N -0.02042 0.06283 0.78175
 C135 C 0.05955 -0.04453 0.69711
 H136 H 0.03341 -0.07757 0.69793
 C137 C 0.10611 -0.04778 0.67412
 H138 H 0.11533 -0.08397 0.65783
 C139 C 0.07979 0.04132 0.71940
 H140 H 0.07004 0.07559 0.73759
 C141 C 0.12658 0.03985 0.69679
 H142 H 0.15209 0.07341 0.69760
 Zn143 Zn -0.01559 0.00066 0.75049
 N144 N 0.04705 -0.00026 0.71885
 C145 C -0.07219 -0.00317 0.68103
 N146 N -0.07642 0.00117 0.72008
 C147 C -0.12454 0.00750 0.73870
 C148 C -0.17105 0.00778 0.71809
 C149 C -0.11770 -0.00317 0.65927
 C150 C 0.03155 -0.07082 0.80198
 C151 C 0.03638 -0.11650 0.82445
 C152 C -0.04932 -0.14187 0.80348
 C153 C -0.05238 -0.09588 0.78133
 N154 N -0.01254 -0.06111 0.78132
 H155 H -0.03361 -0.00678 0.66664
 H156 H -0.12669 0.01219 0.76971
 H157 H -0.20864 0.01362 0.73370
 H158 H -0.11367 -0.00727 0.62823
 H159 H 0.06322 -0.04310 0.80074
 H160 H 0.07240 -0.12338 0.83989
 H161 H -0.08157 -0.16897 0.80319
 H162 H -0.08650 -0.08833 0.76399
 C163 C 0.14019 -0.00484 0.67352
 C164 C -0.02738 0.15629 0.82538
 C165 C -0.00481 -0.15261 0.82568
 C166 C -0.16796 0.00141 0.67777
 C167 C 0.01378 -0.30424 0.10504
 C168 C 0.05358 -0.28973 0.13008
 C169 C 0.05389 -0.24224 0.15153
 C170 C 0.01374 -0.20175 0.15270
 H171 H 0.08793 -0.31581 0.13384
 H172 H 0.08849 -0.23840 0.16852
 H173 H -0.01875 -0.27594 0.10066
 H174 H -0.02080 -0.20641 0.13570
 C175 C 0.01502 0.30875 0.10884
 C176 C -0.00834 0.30352 0.14384
 C177 C -0.00567 0.25438 0.16695
 C178 C 0.00791 0.20571 0.15269
 H179 H -0.02877 0.33747 0.15776
 H180 H -0.01849 0.25907 0.19684
 H181 H 0.03936 0.27615 0.09644
 H182 H 0.01629 0.20050 0.12212
 C183 C 0.29807 -0.01757 0.61020
 C184 C 0.25371 -0.03917 0.59813
 C185 C 0.20338 -0.03950 0.62132
 C186 C 0.19085 -0.00537 0.65050
 H187 H 0.25354 -0.05814 0.57010
 H188 H 0.17487 -0.06742 0.61211
 H189 H 0.29825 0.00111 0.63834
 H190 H 0.21780 0.02547 0.65718
 C191 C -0.31738 0.00744 0.61078
 C192 C -0.31125 -0.01625 0.64493
 C193 C -0.26361 -0.01257 0.66828
 C194 C -0.21574 0.00031 0.65411
 H195 H -0.34347 -0.03765 0.65790
 H196 H -0.26829 -0.02438 0.69801
 H197 H -0.28714 0.03298 0.59959
 H198 H -0.21016 0.00736 0.62358
 C199 C 0.01067 -0.30733 0.88893
 C200 C 0.03299 -0.26206 0.89933
 C201 C 0.03182 -0.21276 0.87623
 C202 C -0.00275 -0.20240 0.84842
 H203 H 0.05361 -0.26026 0.92606
 H204 H 0.05923 -0.18313 0.88438
 H205 H -0.00999 -0.30933 0.86224
 H206 H -0.03280 -0.23053 0.84270
 C207 C -0.01149 0.30484 0.89506
 C208 C -0.03817 0.26257 0.90702
 C209 C -0.03834 0.21170 0.88528
 C210 C -0.02869 0.20743 0.84710
 H211 H -0.05803 0.26321 0.93509
 H212 H -0.04908 0.17719 0.90168
 H213 H 0.01239 0.30190 0.86860
 H214 H -0.02295 0.24306 0.83046
 C215 C -0.30364 -0.00618 0.39397
 C216 C -0.29716 0.01622 0.35925
 C217 C -0.24621 0.01816 0.33700
 C218 C -0.20083 -0.00788 0.34594
 H219 H -0.33092 0.03511 0.34577
 H220 H -0.24740 0.04177 0.31114
 H221 H -0.27066 -0.02671 0.40724
 H222 H -0.20009 -0.03473 0.37006
 C223 C 0.30712 0.00930 0.39216
 C224 C 0.30330 -0.01269 0.35706
 C225 C 0.25532 -0.00900 0.33380
 C226 C 0.20623 0.00361 0.34802
 H227 H 0.33765 -0.03273 0.34322
 H228 H 0.26119 -0.02046 0.30385
 H229 H 0.27427 0.03343 0.40450
 H230 H 0.19978 0.01048 0.37864
   
