data_POSCAR
  _audit_creation_date              2014-09-24
  _audit_creation_method            'ToBaCCo'
  _symmetry_space_group_name_H-M    'P1'
  _symmetry_Int_Tables_number       1
  _symmetry_cell_setting            triclinic
  loop_
  _symmetry_equiv_pos_as_xyz
 x,y,z
_cell_length_a 40.4284
_cell_length_b 40.5078
_cell_length_c 40.0974
_cell_angle_alpha 90.402600
_cell_angle_beta 90.295500
_cell_angle_gamma 89.651400
loop_
  _atom_site_label
  _atom_site_type_symbol
  _atom_site_fract_x
  _atom_site_fract_y
  _atom_site_fract_z
C1 C 0.18452 0.14158 0.16820
 C2 C 0.17664 0.12430 0.19727
 C3 C 0.14973 0.13406 0.21742
 C4 C 0.13010 0.16114 0.20724
 C5 C 0.13873 0.17967 0.17916
 C6 C 0.16590 0.16972 0.15945
 C7 C 0.21191 0.13212 0.14888
 C8 C 0.22209 0.15119 0.12143
 C9 C 0.20290 0.17923 0.11291
 C10 C 0.17523 0.18866 0.13172
 C11 C 0.15780 0.21777 0.12423
 C12 C 0.13188 0.22870 0.14477
 C13 C 0.12197 0.20920 0.17173
 H14 H 0.19146 0.10297 0.20405
 H15 H 0.10982 0.16968 0.22270
 H16 H 0.22656 0.11117 0.15698
 H17 H 0.20911 0.19383 0.09134
 H18 H 0.16564 0.23298 0.10361
 H19 H 0.10193 0.21767 0.18755
 C20 C -0.17371 0.86682 0.19092
 C21 C -0.15410 0.87434 0.21900
 C22 C -0.12814 0.85304 0.22917
 C23 C -0.12113 0.82499 0.20928
 C24 C -0.13994 0.81768 0.18079
 C25 C -0.16647 0.83852 0.17166
 C26 C -0.20135 0.88640 0.18273
 C27 C -0.22187 0.87839 0.15519
 C28 C -0.21340 0.85059 0.13548
 C29 C -0.18642 0.83040 0.14388
 C30 C -0.18017 0.80119 0.12594
 C31 C -0.15401 0.78026 0.13524
 C32 C -0.13353 0.78895 0.16217
 H33 H -0.16078 0.89557 0.23414
 H34 H -0.10060 0.80883 0.21552
 H35 H -0.20651 0.90815 0.19772
 H36 H -0.22916 0.84294 0.11494
 H37 H -0.19609 0.79421 0.10524
 H38 H -0.11370 0.77238 0.16965
 C39 C -0.17177 0.12869 -0.18056
 C40 C -0.15452 0.12104 -0.20987
 C41 C -0.12825 0.14082 -0.22022
 C42 C -0.11815 0.16765 -0.20037
 C43 C -0.13457 0.17508 -0.17043
 C44 C -0.16165 0.15557 -0.16057
 C45 C -0.20031 0.11119 -0.17227
 C46 C -0.21950 0.12013 -0.14426
 C47 C -0.20785 0.14574 -0.12323
 C48 C -0.17961 0.16391 -0.13164
 C49 C -0.17058 0.19187 -0.11295
 C50 C -0.14433 0.21203 -0.12315
 C51 C -0.12590 0.20300 -0.15145
 H52 H -0.16282 0.10095 -0.22580
 H53 H -0.09822 0.18325 -0.20884
 H54 H -0.20756 0.09060 -0.18801
 H55 H -0.22223 0.15374 -0.10191
 H56 H -0.18487 0.19882 -0.09117
 H57 H -0.10608 0.21880 -0.15980
 C58 C 0.18330 0.85558 -0.17405
 C59 C 0.17364 0.87059 -0.20431
 C60 C 0.14827 0.85652 -0.22393
 C61 C 0.13075 0.82948 -0.21140
 C62 C 0.13883 0.81567 -0.18072
 C63 C 0.16550 0.82815 -0.16210
 C64 C 0.21181 0.86583 -0.15680
 C65 C 0.22298 0.84847 -0.12858
 C66 C 0.20396 0.82251 -0.11585
 C67 C 0.17511 0.81227 -0.13231
 C68 C 0.15645 0.78557 -0.12032
 C69 C 0.12889 0.77393 -0.13849
 C70 C 0.12115 0.78866 -0.16917
 H71 H 0.18770 0.89111 -0.21391
 H72 H 0.11038 0.81913 -0.22569
 H73 H 0.22665 0.88567 -0.16668
 H74 H 0.21246 0.80944 -0.09388
 H75 H 0.16330 0.77409 -0.09695
 H76 H 0.10140 0.77880 -0.18459
 C77 C 0.13751 1.19028 0.83166
 C78 C 0.11996 1.18233 0.80241
 C79 C 0.12890 1.15467 0.78272
 C80 C 0.15504 1.13427 0.79390
 C81 C 0.17350 1.14266 0.82232
 C82 C 0.16489 1.17085 0.84121
 C83 C 0.12904 1.21835 0.85052
 C84 C 0.14856 1.22847 0.87804
 C85 C 0.17622 1.20888 0.88698
 C86 C 0.18439 1.18023 0.86892
 C87 C 0.21269 1.16165 0.87717
 C88 C 0.22196 1.13425 0.85762
 C89 C 0.20178 1.12442 0.83081
 H90 H 0.09916 1.19772 0.79517
 H91 H 0.16320 1.11337 0.77900
 H92 H 0.10850 1.23349 0.84210
 H93 H 0.19122 1.21542 0.90847
 H94 H 0.22847 1.16950 0.89765
 H95 H 0.20889 1.10320 0.81578
 C96 C 0.86025 0.81274 0.81458
 C97 C 0.88136 0.82533 0.79016
 C98 C 0.87352 0.85475 0.77285
 C99 C 0.84425 0.87189 0.78177
 C100 C 0.82324 0.85988 0.80665
 C101 C 0.83092 0.82987 0.82259
 C102 C 0.86750 0.78258 0.83024
 C103 C 0.84472 0.76818 0.85227
 C104 C 0.81555 0.78572 0.86016
 C105 C 0.80901 0.81673 0.84624
 C106 C 0.78054 0.83452 0.85519
 C107 C 0.77320 0.86495 0.84025
 C108 C 0.79443 0.87729 0.81566
 H109 H 0.90286 0.81077 0.78337
 H110 H 0.83808 0.89522 0.77022
 H111 H 0.88981 0.76925 0.82337
 H112 H 0.79829 0.77570 0.87800
 H113 H 0.76368 0.82439 0.87335
 H114 H 0.78860 0.90055 0.80372
 C115 C 0.14026 0.82341 1.18011
 C116 C 0.13326 0.84051 1.20981
 C117 C 0.15479 0.86493 1.22180
 C118 C 0.18270 0.87332 1.20311
 C119 C 0.18985 0.85658 1.17329
 C120 C 0.16889 0.83106 1.16199
 C121 C 0.11964 0.79794 1.16910
 C122 C 0.12698 0.77929 1.14009
 C123 C 0.15621 0.78691 1.12247
 C124 C 0.17705 0.81264 1.13316
 C125 C 0.20627 0.81994 1.11587
 C126 C 0.22691 0.84568 1.12688
 C127 C 0.21837 0.86406 1.15535
 H128 H 0.11186 0.83380 1.22443
 H129 H 0.19924 0.89236 1.21225
 H130 H 0.09874 0.79172 1.18454
 H131 H 0.16243 0.77377 1.09974
 H132 H 0.21314 0.80557 1.09405
 H133 H 0.23476 0.88333 1.16429
 C134 C 0.86529 1.17596 1.17287
 C135 C 0.88501 1.16331 1.19849
 C136 C 0.87620 1.13444 1.21598
 C137 C 0.84657 1.11830 1.20625
 C138 C 0.82621 1.13105 1.18072
 C139 C 0.83571 1.16001 1.16398
 C140 C 0.87375 1.20575 1.15758
 C141 C 0.85248 1.22020 1.13418
 C142 C 0.82330 1.20408 1.12476
 C143 C 0.81485 1.17399 1.13943
 C144 C 0.78485 1.15884 1.13151
 C145 C 0.77500 1.13040 1.14829
 C146 C 0.79572 1.11630 1.17264
 H147 H 0.90606 1.17793 1.20602
 H148 H 0.83910 1.09565 1.21807
 H149 H 0.89589 1.21879 1.16531
 H150 H 0.80664 1.21568 1.10702
 H151 H 0.76833 1.16996 1.11330
 H152 H 0.78750 1.09471 1.18602
 O153 O 0.45075 1.06425 1.04559
 O154 O 0.41597 1.02639 1.02140
 C155 C 0.42152 1.05346 1.03790
 O156 O 0.54588 1.04692 0.93166
 O157 O 0.58296 1.02498 0.96907
 C158 C 0.57578 1.04119 0.94223
 O159 O 0.45298 1.04716 0.93282
 O160 O 0.41687 1.01920 0.96631
 C161 C 0.42338 1.03874 0.94175
 O162 O 0.54269 1.06146 1.05606
 O163 O 0.58149 1.03071 1.02800
 C164 C 0.57307 1.05302 1.04981
 Zr165 Zr 0.49785 1.04334 1.03613
 O166 O 0.50056 1.09536 1.03301
 O167 O 0.49307 1.04601 1.08854
 Zr168 Zr 0.49980 1.03401 0.95275
 O169 O 0.50127 1.08616 0.94965
 O170 O 0.49741 1.03067 0.90012
 O171 O 0.46906 1.04399 0.99291
 O172 O 0.52767 1.04587 0.99447
 O173 O 0.54785 0.95210 1.06898
 O174 O 0.58404 0.97649 1.03287
 C175 C 0.57744 0.96009 1.05964
 O176 O 0.45803 0.92923 0.94723
 O177 O 0.41956 0.96317 0.97186
 C178 C 0.42773 0.93779 0.95383
 O179 O 0.54976 0.94045 0.94041
 O180 O 0.58526 0.97095 0.97289
 C181 C 0.57913 0.95052 0.94860
 O182 O 0.45639 0.93941 1.05977
 O183 O 0.41878 0.96743 1.02740
 C184 C 0.42649 0.94530 1.04939
 Zr185 Zr 0.50163 0.96084 1.04538
 O186 O 0.50946 0.90960 1.05202
 O187 O 0.49544 0.96716 1.09741
 Zr188 Zr 0.50344 0.95099 0.96222
 O189 O 0.51159 0.90034 0.97247
 O190 O 0.50079 0.93818 0.91112
 Zr191 Zr 0.45119 0.99546 0.99784
 Zr192 Zr 0.55025 0.99928 1.00002
 O193 O 0.53215 0.95100 1.00500
 O194 O 0.47327 0.94842 1.00369
 O195 O 0.52896 1.00405 1.04771
 O196 O 0.47320 0.99060 0.95057
 O197 O 0.47039 1.00164 1.04625
 O198 O 0.53067 0.99302 0.95150
 H199 H 0.54211 1.06547 0.99288
 H200 H 0.45907 0.98753 0.93054
 H201 H 0.54879 0.93306 1.00720
 H202 H 0.45439 1.00314 1.06485
 H203 H 0.51293 1.01296 0.89322
 H204 H 0.50156 0.95910 0.89864
 H205 H 0.49011 0.89062 0.97870
 H206 H 0.49466 0.89797 1.03619
 H207 H 0.50917 0.98620 1.10426
 H208 H 0.49269 1.06983 1.09433
 H209 H 0.48795 1.10191 1.01292
 H210 H 0.47946 1.09478 0.95680
 O211 O 0.04570 0.54649 -0.05802
 O212 O 0.01089 0.58238 -0.03051
 C213 C 0.03358 0.57573 -0.05225
 O214 O -0.06993 0.44767 -0.05152
 O215 O -0.03498 0.41465 -0.02111
 C216 C -0.05968 0.41900 -0.04141
 O217 O -0.07153 0.53929 -0.06215
 O218 O -0.04421 0.57958 -0.03269
 C219 C -0.06549 0.57002 -0.05497
 O220 O 0.05674 0.45538 -0.04554
 O221 O 0.02398 0.41847 -0.01796
 C222 C 0.04921 0.42571 -0.03628
 Zr223 Zr 0.03169 0.50068 -0.03689
 O224 O 0.03272 0.49235 -0.08907
 O225 O 0.08341 0.50819 -0.03660
 Zr226 Zr -0.05100 0.49528 -0.04198
 O227 O -0.04206 0.48825 -0.09355
 O228 O -0.10213 0.49328 -0.05296
 O229 O -0.01145 0.52716 -0.04778
 O230 O -0.00742 0.46840 -0.04368
 O231 O 0.04687 0.46227 0.06794
 O232 O 0.02023 0.42215 0.03759
 C233 C 0.04083 0.43158 0.06054
 O234 O -0.07730 0.54703 0.05562
 O235 O -0.04733 0.58334 0.02441
 C236 C -0.07038 0.57661 0.04563
 O237 O -0.07334 0.45509 0.05882
 O238 O -0.03762 0.41837 0.03403
 C239 C -0.06265 0.42538 0.05304
 O240 O 0.03816 0.55448 0.06459
 O241 O 0.00747 0.58642 0.02866
 C242 C 0.02736 0.58272 0.05379
 Zr243 Zr 0.02703 0.50623 0.04700
 O244 O 0.02560 0.50630 0.09974
 O245 O 0.07893 0.51312 0.04799
 Zr246 Zr -0.05597 0.50097 0.04221
 O247 O -0.05639 0.50113 0.09504
 O248 O -0.10829 0.50052 0.04131
 Zr249 Zr -0.01573 0.54987 -0.00043
 Zr250 Zr -0.00901 0.45144 0.00578
 O251 O -0.01302 0.47524 0.05247
 O252 O -0.01694 0.53343 0.04931
 O253 O 0.03771 0.47453 0.00742
 O254 O -0.06176 0.52595 -0.00203
 O255 O 0.03334 0.53264 0.00358
 O256 O -0.05818 0.46876 0.00170
 H257 H -0.00541 0.45146 -0.06153
 H258 H -0.08252 0.53894 -0.00382
 H259 H -0.01343 0.46170 0.07294
 H260 H 0.05151 0.54895 0.00375
 H261 H -0.11385 0.49739 -0.03176
 H262 H -0.11504 0.48463 0.02375
 H263 H -0.04911 0.52318 0.10277
 H264 H 0.00771 0.52162 0.10654
 H265 H 0.08946 0.49237 0.04017
 H266 H 0.09224 0.49751 -0.01632
 H267 H 0.02017 0.51052 -0.09973
 H268 H -0.03914 0.51031 -0.10353
 O269 O 0.95347 0.06029 0.45050
 O270 O 0.98510 0.02793 0.41573
 C271 C 0.96358 0.05111 0.42118
 O272 O 1.06648 0.07045 0.54482
 O273 O 1.03907 0.03840 0.58265
 C274 C 1.05836 0.06260 0.57504
 O275 O 1.06856 0.06425 0.45138
 O276 O 1.04025 0.02988 0.41559
 C277 C 1.06147 0.05308 0.42174
 O278 O 0.94934 0.06036 0.54374
 O279 O 0.98207 0.03390 0.58227
 C280 C 0.95845 0.05424 0.57422
 Zr281 Zr 0.96810 0.04216 0.49789
 O282 O 0.95915 0.09360 0.49825
 O283 O 0.91656 0.03396 0.49362
 Zr284 Zr 1.05164 0.04893 0.49880
 O285 O 1.04656 0.10099 0.49774
 O286 O 1.10384 0.05262 0.49778
 O287 O 1.00974 0.05057 0.46847
 O288 O 1.00913 0.05304 0.52683
 O289 O 0.95985 -0.05691 0.55010
 O290 O 0.98845 -0.02203 0.58510
 C291 C 0.96888 -0.04663 0.57959
 O292 O 1.07670 -0.05258 0.45658
 O293 O 1.04381 -0.02638 0.41804
 C294 C 1.06782 -0.04620 0.42613
 O295 O 1.07762 -0.04679 0.54917
 O296 O 1.04435 -0.01770 0.58526
 C297 C 1.06778 -0.03893 0.57886
 O298 O 0.96424 -0.06481 0.45652
 O299 O 0.98873 -0.03104 0.41816
 C300 C 0.97118 -0.05648 0.42613
 Zr301 Zr 0.97483 -0.04018 0.50203
 O302 O 0.97319 -0.09207 0.50657
 O303 O 0.92257 -0.03930 0.49797
 Zr304 Zr 1.05843 -0.03386 0.50232
 O305 O 1.06242 -0.08576 0.50709
 O306 O 1.11057 -0.03016 0.49969
 Zr307 Zr 1.01381 0.00167 0.45051
 Zr308 Zr 1.01333 0.00670 0.55011
 O309 O 1.01717 -0.04178 0.53105
 O310 O 1.01742 -0.04514 0.47295
 O311 O 0.96505 0.00209 0.53019
 O312 O 1.06127 0.00646 0.47183
 O313 O 0.96578 -0.00100 0.47031
 O314 O 1.06149 0.00950 0.53060
 H315 H 1.00721 0.07349 0.54040
 H316 H 1.08123 0.00684 0.45761
 H317 H 1.01906 -0.06089 0.54623
 H318 H 0.94711 -0.00307 0.45432
 H319 H 1.11257 0.04204 0.51821
 H320 H 1.11775 -0.01457 0.51735
 H321 H 1.05022 -0.09586 0.48819
 H322 H 0.99632 -0.09996 0.50530
 H323 H 0.91363 -0.03321 0.52013
 H324 H 0.90874 0.02594 0.51544
 H325 H 0.98038 0.10418 0.49281
 H326 H 1.03477 0.10682 0.47687
 C327 C 1.10749 0.10115 0.29263
 C328 C 1.13451 0.09335 0.31200
 C329 C 1.16679 0.09656 0.30092
 C330 C 1.17152 0.10882 0.26869
 C331 C 1.14415 0.11873 0.24845
 C332 C 1.11157 0.11455 0.26092
 O333 O 1.07890 0.09540 0.30768
 C334 C 1.08816 0.08424 0.33740
 C335 C 1.12195 0.08313 0.34147
 C336 C 1.13707 0.07400 0.37124
 C337 C 1.11651 0.06547 0.39785
 C338 C 1.08163 0.06513 0.39392
 C339 C 1.06728 0.07433 0.36308
 H340 H 1.18765 0.09014 0.31666
 H341 H 1.19670 0.11252 0.26052
 H342 H 1.08996 0.12093 0.24621
 H343 H 1.16371 0.07375 0.37399
 H344 H 1.12777 0.05823 0.42128
 H345 H 1.04088 0.07386 0.35914
 C346 C 0.91118 -0.10444 0.30217
 C347 C 0.92178 -0.13122 0.32021
 C348 C 0.91753 -0.16348 0.30928
 C349 C 0.90154 -0.16843 0.27855
 C350 C 0.88943 -0.14129 0.25939
 C351 C 0.89459 -0.10872 0.27183
 O352 O 0.91801 -0.07579 0.31690
 C353 C 0.93296 -0.08476 0.34501
 C354 C 0.93560 -0.11845 0.34838
 C355 C 0.94920 -0.13329 0.37652
 C356 C 0.96054 -0.11251 0.40224
 C357 C 0.95876 -0.07771 0.39901
 C358 C 0.94489 -0.06364 0.36991
 H359 H 0.92597 -0.18419 0.32403
 H360 H 0.89718 -0.19368 0.27082
 H361 H 0.88686 -0.08713 0.25802
 H362 H 0.95067 -0.15987 0.37876
 H363 H 0.97108 -0.12344 0.42449
 H364 H 0.94277 -0.03713 0.36714
 C365 C 0.91081 0.10134 0.70405
 C366 C 0.90361 0.12489 0.68049
 C367 C 0.88800 0.15465 0.68819
 C368 C 0.87905 0.16022 0.72151
 C369 C 0.88530 0.13595 0.74606
 C370 C 0.90151 0.10611 0.73725
 O371 O 0.92601 0.07493 0.69143
 C372 C 0.92824 0.08190 0.65918
 C373 C 0.91458 0.11203 0.65122
 C374 C 0.91326 0.12389 0.61883
 C375 C 0.92695 0.10408 0.59359
 C376 C 0.94204 0.07323 0.60111
 C377 C 0.94259 0.06200 0.63451
 H378 H 0.88260 0.17276 0.66918
 H379 H 0.86621 0.18289 0.72806
 H380 H 0.90621 0.08713 0.75559
 H381 H 0.90209 0.14756 0.61318
 H382 H 0.92645 0.11321 0.56827
 H383 H 0.95383 0.03857 0.64105
 C384 C 1.12561 -0.09187 0.70266
 C385 C 1.12115 -0.11665 0.67955
 C386 C 1.12698 -0.14967 0.68607
 C387 C 1.13693 -0.15792 0.71824
 C388 C 1.14165 -0.13324 0.74324
 C389 C 1.13713 -0.09941 0.73487
 O390 O 1.11604 -0.06239 0.69132
 C391 C 1.10548 -0.06902 0.66042
 C392 C 1.10851 -0.10193 0.65228
 C393 C 1.09866 -0.11517 0.62197
 C394 C 1.08545 -0.09356 0.59854
 C395 C 1.08184 -0.05936 0.60572
 C396 C 1.09157 -0.04678 0.63738
 H397 H 1.12295 -0.16860 0.66733
 H398 H 1.14104 -0.18379 0.72369
 H399 H 1.13983 -0.08004 0.75342
 H400 H 1.10103 -0.14129 0.61653
 H401 H 1.07753 -0.10367 0.57474
 H402 H 1.08876 -0.02087 0.64357
 C403 C 0.29472 1.10468 1.08678
 C404 C 0.31262 1.13032 1.07406
 C405 C 0.30159 1.16278 1.07486
 C406 C 0.27095 1.16932 1.08977
 C407 C 0.25188 1.14358 1.10422
 C408 C 0.26432 1.11060 1.10223
 O409 O 0.30992 1.07562 1.08354
 C410 C 0.33821 1.08326 1.06877
 C411 C 0.34110 1.11651 1.06275
 C412 C 0.36927 1.13038 1.04915
 C413 C 0.39565 1.10913 1.04147
 C414 C 0.39320 1.07467 1.04685
 C415 C 0.36390 1.06143 1.06041
 H416 H 0.31635 1.18254 1.06482
 H417 H 0.26341 1.19492 1.09163
 H418 H 0.25068 1.08985 1.11181
 H419 H 0.37107 1.15668 1.04506
 H420 H 0.41791 1.11944 1.03095
 H421 H 0.36158 1.03524 1.06505
 C422 C 0.29948 0.89076 0.90522
 C423 C 0.32096 0.86431 0.90660
 C424 C 0.31173 0.83239 0.89796
 C425 C 0.27907 0.82753 0.88721
 C426 C 0.25653 0.85443 0.88496
 C427 C 0.26693 0.88656 0.89409
 O428 O 0.31326 0.91895 0.91493
 C429 C 0.34410 0.91007 0.92240
 C430 C 0.35012 0.87696 0.91745
 C431 C 0.38093 0.86249 0.92292
 C432 C 0.40658 0.88295 0.93423
 C433 C 0.40087 0.91707 0.94028
 C434 C 0.36910 0.93078 0.93419
 H435 H 0.32909 0.81200 0.89930
 H436 H 0.27150 0.80292 0.87985
 H437 H 0.25024 0.90750 0.89255
 H438 H 0.38508 0.83639 0.91858
 H439 H 0.43069 0.87209 0.93890
 H440 H 0.36407 0.95678 0.93830
 C441 C 0.70501 0.91365 1.11043
 C442 C 0.68710 0.92579 1.13684
 C443 C 0.69880 0.92510 1.16945
 C444 C 0.72996 0.91065 1.17521
 C445 C 0.74859 0.89635 1.14858
 C446 C 0.73572 0.89866 1.11556
 O447 O 0.68944 0.91659 1.08136
 C448 C 0.66085 0.93054 1.08968
 C449 C 0.65801 0.93636 1.12340
 C450 C 0.62932 0.94903 1.13776
 C451 C 0.60257 0.95609 1.11646
 C452 C 0.60525 0.95102 1.08154
 C453 C 0.63490 0.93825 1.06795
 H454 H 0.68419 0.93478 1.18988
 H455 H 0.73823 0.90878 1.20083
 H456 H 0.74916 0.88934 1.09417
 H457 H 0.62747 0.95294 1.16442
 H458 H 0.57997 0.96603 1.12701
 H459 H 0.63740 0.93386 1.04140
 C460 C 0.70394 1.08966 0.89724
 C461 C 0.68561 1.08060 0.86977
 C462 C 0.69754 1.08265 0.83751
 C463 C 0.72958 1.09485 0.83324
 C464 C 0.74914 1.10551 0.86103
 C465 C 0.73566 1.10261 0.89362
 O466 O 0.68812 1.08504 0.92578
 C467 C 0.65907 1.07314 0.91599
 C468 C 0.65618 1.07032 0.88190
 C469 C 0.62753 1.05935 0.86613
 C470 C 0.60076 1.05075 0.88636
 C471 C 0.60339 1.05263 0.92161
 C472 C 0.63304 1.06391 0.93663
 H473 H 0.68256 1.07538 0.81627
 H474 H 0.73811 1.09764 0.80789
 H475 H 0.74958 1.10939 0.91572
 H476 H 0.62582 1.05755 0.83923
 H477 H 0.57830 1.04183 0.87464
 H478 H 0.63563 1.06560 0.96348
 C479 C 0.09475 0.30481 0.10495
 C480 C 0.09573 0.32654 0.13148
 C481 C 0.10683 0.31747 0.16301
 C482 C 0.11769 0.28478 0.16728
 C483 C 0.11767 0.26211 0.14013
 C484 C 0.10596 0.27233 0.10851
 O485 O 0.08278 0.31825 0.07726
 C486 C 0.07625 0.34916 0.08646
 C487 C 0.08402 0.35560 0.11929
 C488 C 0.07976 0.38658 0.13390
 C489 C 0.06653 0.41186 0.11396
 C490 C 0.05739 0.40559 0.08030
 C491 C 0.06258 0.37375 0.06637
 H492 H 0.10727 0.33495 0.18354
 H493 H 0.12696 0.27731 0.19149
 H494 H 0.10570 0.25553 0.08738
 H495 H 0.08623 0.39109 0.15975
 H496 H 0.06253 0.43601 0.12502
 H497 H 0.05604 0.36824 0.04070
 C498 C -0.10317 0.28806 -0.08636
 C499 C -0.13048 0.30785 -0.08143
 C500 C -0.16254 0.29749 -0.08811
 C501 C -0.16670 0.26546 -0.10078
 C502 C -0.13900 0.24459 -0.10685
 C503 C -0.10672 0.25610 -0.09934
 O504 O -0.07490 0.30309 -0.07882
 C505 C -0.08465 0.33308 -0.06917
 C506 C -0.11844 0.33720 -0.07061
 C507 C -0.13409 0.36695 -0.06331
 C508 C -0.11414 0.39367 -0.05413
 C509 C -0.07926 0.39014 -0.05191
 C510 C -0.06426 0.35925 -0.05924
 H511 H -0.18359 0.31367 -0.08417
 H512 H -0.19147 0.25732 -0.10694
 H513 H -0.08512 0.24082 -0.10386
 H514 H -0.16070 0.36963 -0.06498
 H515 H -0.12592 0.41708 -0.04830
 H516 H -0.03768 0.35598 -0.05799
 C517 C 0.10096 0.69226 -0.10205
 C518 C 0.06855 0.69239 -0.11255
 C519 C 0.05384 0.71899 -0.12842
 C520 C 0.07361 0.74634 -0.13482
 C521 C 0.10792 0.74630 -0.12662
 C522 C 0.12156 0.71898 -0.10912
 O523 O 0.10922 0.66495 -0.08561
 C524 C 0.08141 0.64750 -0.08613
 C525 C 0.05606 0.66316 -0.10285
 C526 C 0.02488 0.64960 -0.10704
 C527 C 0.01912 0.61906 -0.09227
 C528 C 0.04390 0.60339 -0.07295
 C529 C 0.07591 0.61719 -0.07049
 H530 H 0.02794 0.71881 -0.13541
 H531 H 0.06208 0.76745 -0.14663
 H532 H 0.14744 0.71802 -0.10220
 H533 H 0.00556 0.66223 -0.12083
 H534 H -0.00493 0.60782 -0.09505
 H535 H 0.09511 0.60566 -0.05560
 C536 C -0.11655 0.70580 0.09266
 C537 C -0.14222 0.68384 0.09531
 C538 C -0.17265 0.69239 0.10897
 C539 C -0.17665 0.72482 0.12079
 C540 C -0.15021 0.74759 0.11930
 C541 C -0.11978 0.73800 0.10486
 O542 O -0.08961 0.69254 0.07916
 C543 C -0.09837 0.66146 0.07350
 C544 C -0.13019 0.65481 0.08327
 C545 C -0.14379 0.62342 0.08145
 C546 C -0.12370 0.59779 0.06917
 C547 C -0.09091 0.60405 0.05849
 C548 C -0.07833 0.63655 0.06020
 H549 H -0.19245 0.67464 0.11082
 H550 H -0.19989 0.73195 0.13216
 H551 H -0.09918 0.75491 0.10373
 H552 H -0.16876 0.61872 0.08970
 H553 H -0.13381 0.57312 0.06772
 H554 H -0.05353 0.64219 0.05208
 C555 C 1.09979 0.11167 0.70568
 C556 C 1.09160 0.13828 0.68621
 C557 C 1.09265 0.17057 0.69799
 C558 C 1.10349 0.17575 0.73091
 C559 C 1.11393 0.14880 0.75124
 C560 C 1.11128 0.11619 0.73817
 O561 O 1.09650 0.08293 0.68997
 C562 C 1.08645 0.09164 0.65973
 C563 C 1.08350 0.12527 0.65598
 C564 C 1.07470 0.13981 0.62587
 C565 C 1.06805 0.11877 0.59873
 C566 C 1.06968 0.08400 0.60243
 C567 C 1.07914 0.07027 0.63336
 H568 H 1.08587 0.19113 0.68221
 H569 H 1.10581 0.20103 0.73945
 H570 H 1.11771 0.09472 0.75279
 H571 H 1.07299 0.16636 0.62337
 H572 H 1.06047 0.12947 0.57520
 H573 H 1.08059 0.04380 0.63675
 C574 C 0.90241 -0.10498 0.69435
 C575 C 0.93541 -0.11296 0.69549
 C576 C 0.94958 -0.13078 0.72134
 C577 C 0.92887 -0.14118 0.74708
 C578 C 0.89431 -0.13366 0.74694
 C579 C 0.88127 -0.11476 0.71991
 O580 O 0.89403 -0.08781 0.66737
 C581 C 0.92251 -0.08480 0.65124
 C582 C 0.94857 -0.09973 0.66760
 C583 C 0.98082 -0.09901 0.65593
 C584 C 0.98660 -0.08187 0.62637
 C585 C 0.96031 -0.06627 0.60891
 C586 C 0.92766 -0.06793 0.62129
 H587 H 0.97580 -0.13638 0.72178
 H588 H 0.94041 -0.15406 0.76765
 H589 H 0.85521 -0.10893 0.71773
 H590 H 1.00092 -0.11074 0.66939
 H591 H 1.01167 -0.08042 0.61713
 H592 H 0.90734 -0.05567 0.60866
 C593 C 1.11410 -0.09691 0.29744
 C594 C 1.14000 -0.09791 0.31980
 C595 C 1.17136 -0.10937 0.31139
 C596 C 1.17615 -0.12062 0.27863
 C597 C 1.14969 -0.12050 0.25526
 C598 C 1.11823 -0.10832 0.26481
 O599 O 1.08634 -0.08506 0.31060
 C600 C 1.09490 -0.07863 0.34199
 C601 C 1.12741 -0.08631 0.34888
 C602 C 1.14143 -0.08248 0.38033
 C603 C 1.12118 -0.06997 0.40574
 C604 C 1.08772 -0.06118 0.39923
 C605 C 1.07440 -0.06564 0.36680
 H606 H 1.19132 -0.10994 0.32948
 H607 H 1.20019 -0.13035 0.27171
 H608 H 1.09762 -0.10801 0.24745
 H609 H 1.16702 -0.08894 0.38517
 H610 H 1.13182 -0.06651 0.43035
 H611 H 1.04890 -0.05938 0.36115
 C612 C 0.90183 0.09696 0.29771
 C613 C 0.93289 0.11006 0.30090
 C614 C 0.94775 0.12819 0.27610
 C615 C 0.92943 0.13421 0.24709
 C616 C 0.89586 0.12361 0.24359
 C617 C 0.88255 0.10352 0.26939
 O618 O 0.89314 0.07894 0.32387
 C619 C 0.91931 0.08108 0.34402
 C620 C 0.94403 0.10034 0.33116
 C621 C 0.97335 0.10683 0.34805
 C622 C 0.97782 0.09213 0.37918
 C623 C 0.95380 0.07058 0.39216
 C624 C 0.92373 0.06531 0.37477
 H625 H 0.97286 0.13701 0.27873
 H626 H 0.94223 0.14678 0.22735
 H627 H 0.85745 0.09458 0.26886
 H628 H 0.99222 0.12243 0.33754
 H629 H 1.00049 0.09660 0.39294
 H630 H 0.90517 0.04868 0.38419
 C631 C 0.10266 0.30090 -0.08688
 C632 C 0.12852 0.31961 -0.07521
 C633 C 0.16120 0.30902 -0.07676
 C634 C 0.16759 0.27805 -0.09134
 C635 C 0.14149 0.25846 -0.10491
 C636 C 0.10842 0.27039 -0.10215
 O637 O 0.07339 0.31535 -0.08276
 C638 C 0.08099 0.34400 -0.06851
 C639 C 0.11446 0.34798 -0.06368
 C640 C 0.12802 0.37682 -0.05064
 C641 C 0.10616 0.40257 -0.04221
 C642 C 0.07154 0.39872 -0.04627
 C643 C 0.05875 0.36892 -0.05939
 H644 H 0.18117 0.32424 -0.06743
 H645 H 0.19319 0.27051 -0.09368
 H646 H 0.08751 0.25619 -0.11097
 H647 H 0.15447 0.37955 -0.04744
 H648 H 0.11608 0.42531 -0.03203
 H649 H 0.03241 0.36558 -0.06302
 C650 C -0.10826 0.29581 0.09752
 C651 C -0.12982 0.31967 0.10898
 C652 C -0.15782 0.31254 0.12748
 C653 C -0.16381 0.27936 0.13466
 C654 C -0.14173 0.25434 0.12365
 C655 C -0.11350 0.26260 0.10485
 O656 O -0.08334 0.30809 0.08012
 C657 C -0.08933 0.34039 0.08075
 C658 C -0.11734 0.34862 0.09833
 C659 C -0.12811 0.38089 0.10281
 C660 C -0.10953 0.40583 0.08814
 C661 C -0.08079 0.39824 0.06917
 C662 C -0.07044 0.36489 0.06567
 H663 H -0.17432 0.33184 0.13622
 H664 H -0.18515 0.27312 0.14953
 H665 H -0.09623 0.24380 0.09644
 H666 H -0.15005 0.38667 0.11712
 H667 H -0.11785 0.43109 0.09144
 H668 H -0.04858 0.35819 0.05161
 C669 C -0.11302 0.69416 -0.11252
 C670 C -0.13900 0.67247 -0.11158
 C671 C -0.17096 0.68126 -0.12092
 C672 C -0.17635 0.71367 -0.13193
 C673 C -0.14965 0.73629 -0.13481
 C674 C -0.11742 0.72598 -0.12500
 O675 O -0.08507 0.68155 -0.10043
 C676 C -0.09351 0.65106 -0.09220
 C677 C -0.12606 0.64404 -0.09915
 C678 C -0.13979 0.61319 -0.09354
 C679 C -0.11911 0.58860 -0.08018
 C680 C -0.08574 0.59556 -0.07164
 C681 C -0.07299 0.62749 -0.07736
 H682 H -0.19114 0.66389 -0.11948
 H683 H -0.20113 0.72052 -0.13972
 H684 H -0.09657 0.74261 -0.12573
 H685 H -0.16544 0.60817 -0.09941
 H686 H -0.12938 0.56446 -0.07549
 H687 H -0.04807 0.63399 -0.07019
 C688 C 0.09603 0.69987 0.10332
 C689 C 0.06350 0.70147 0.11283
 C690 C 0.05018 0.72818 0.12993
 C691 C 0.07134 0.75422 0.13818
 C692 C 0.10563 0.75334 0.12965
 C693 C 0.11771 0.72556 0.11123
 O694 O 0.10349 0.67214 0.08696
 C695 C 0.07494 0.65601 0.08619
 C696 C 0.04974 0.67300 0.10177
 C697 C 0.01770 0.66102 0.10390
 C698 C 0.01119 0.63046 0.08881
 C699 C 0.03646 0.61276 0.07204
 C700 C 0.06897 0.62538 0.07103
 H701 H 0.02427 0.72905 0.13657
 H702 H 0.06032 0.77545 0.15037
 H703 H 0.14346 0.72288 0.10454
 H704 H -0.00164 0.67481 0.11645
 H705 H -0.01356 0.62052 0.08999
 H706 H 0.08853 0.61231 0.05803
 C707 C 0.29636 1.09363 0.89804
 C708 C 0.31641 1.08968 0.87067
 C709 C 0.30695 1.09903 0.83875
 C710 C 0.27552 1.11319 0.83484
 C711 C 0.25440 1.11797 0.86266
 C712 C 0.26504 1.10806 0.89478
 O713 O 0.31038 1.08320 0.92615
 C714 C 0.33995 1.07265 0.91624
 C715 C 0.34486 1.07633 0.88255
 C716 C 0.37444 1.06827 0.86695
 C717 C 0.40014 1.05594 0.88690
 C718 C 0.39568 1.05151 0.92165
 C719 C 0.36501 1.05974 0.93652
 H720 H 0.32326 1.09571 0.81765
 H721 H 0.26785 1.12109 0.81021
 H722 H 0.24945 1.11148 0.91642
 H723 H 0.37776 1.07174 0.84044
 H724 H 0.42347 1.04960 0.87526
 H725 H 0.36114 1.05700 0.96307
 C726 C 0.29940 0.89045 1.09013
 C727 C 0.32241 0.86533 1.08917
 C728 C 0.31501 0.83295 1.09763
 C729 C 0.28270 0.82632 1.10822
 C730 C 0.25891 0.85204 1.11066
 C731 C 0.26730 0.88449 1.10107
 O732 O 0.31162 0.91951 1.08146
 C733 C 0.34315 0.91265 1.07518
 C734 C 0.35104 0.87990 1.07990
 C735 C 0.38297 0.86757 1.07645
 C736 C 0.40774 0.88981 1.06744
 C737 C 0.40016 0.92354 1.06156
 C738 C 0.36730 0.93511 1.06539
 H739 H 0.33360 0.81362 1.09672
 H740 H 0.27659 0.80153 1.11593
 H741 H 0.24962 0.90459 1.10304
 H742 H 0.38866 0.84179 1.08066
 H743 H 0.43272 0.88055 1.06420
 H744 H 0.36086 0.96074 1.06120
 C745 C 0.70072 1.09060 1.10851
 C746 C 0.67590 1.10582 1.12639
 C747 C 0.68202 1.12701 1.15312
 C748 C 0.71515 1.13328 1.16138
 C749 C 0.74112 1.11853 1.14286
 C750 C 0.73389 1.09664 1.11624
 O751 O 0.68945 1.07206 1.08351
 C752 C 0.65685 1.07580 1.08558
 C753 C 0.64737 1.09638 1.11127
 C754 C 0.61459 1.10477 1.11729
 C755 C 0.59046 1.09099 1.09630
 C756 C 0.59935 1.06906 1.06993
 C757 C 0.63322 1.06154 1.06450
 H758 H 0.66205 1.13892 1.16656
 H759 H 0.72067 1.15062 1.18131
 H760 H 0.75341 1.08585 1.10125
 H761 H 0.60781 1.12137 1.13743
 H762 H 0.56480 1.09716 1.10099
 H763 H 0.64097 1.04500 1.04467
 C764 C 0.70318 0.90217 0.89062
 C765 C 0.68272 0.91286 0.86538
 C766 C 0.69082 0.90988 0.83182
 C767 C 0.72117 0.89490 0.82386
 C768 C 0.74247 0.88294 0.84933
 C769 C 0.73337 0.88691 0.88324
 O770 O 0.69040 0.90675 0.92082
 C771 C 0.66108 0.92040 0.91446
 C772 C 0.65520 0.92442 0.88086
 C773 C 0.62549 0.93652 0.86829
 C774 C 0.60073 0.94466 0.89124
 C775 C 0.60616 0.94109 0.92601
 C776 C 0.63695 0.92920 0.93791
 H777 H 0.67416 0.91837 0.81244
 H778 H 0.72760 0.89167 0.79786
 H779 H 0.74912 0.87799 0.90320
 H780 H 0.62135 0.93915 0.84175
 H781 H 0.57731 0.95409 0.88196
 H782 H 0.64154 0.92605 0.96434
   
