data_POSCAR
  _audit_creation_date              2014-09-24
  _audit_creation_method            'ToBaCCo'
  _symmetry_space_group_name_H-M    'P1'
  _symmetry_Int_Tables_number       1
  _symmetry_cell_setting            triclinic
  loop_
  _symmetry_equiv_pos_as_xyz
 x,y,z
_cell_length_a 50.9221
_cell_length_b 51.8078
_cell_length_c 52.3847
_cell_angle_alpha 89.350300
_cell_angle_beta 90.777200
_cell_angle_gamma 90.938700
loop_
  _atom_site_label
  _atom_site_type_symbol
  _atom_site_fract_x
  _atom_site_fract_y
  _atom_site_fract_z
C1 C 0.72306 0.66464 0.96391
 H2 H 0.74177 0.66534 0.95437
 C3 C 0.70166 0.67791 0.95352
 H4 H 0.70393 0.68905 0.93604
 C5 C 0.69670 0.64813 0.99752
 H6 H 0.69453 0.63587 1.01418
 C7 C 0.67486 0.66109 0.98780
 H8 H 0.65612 0.65900 0.99721
 N9 N 0.72019 0.65000 0.98546
 C10 C 0.79839 0.63515 1.01709
 H11 H 0.79650 0.61440 1.01913
 C12 C 0.82135 0.64773 1.02525
 H13 H 0.83721 0.63667 1.03365
 C14 C 0.77987 0.67493 1.00389
 H15 H 0.76354 0.68541 0.99576
 C16 C 0.80259 0.68833 1.01186
 H17 H 0.80376 0.70914 1.00980
 Zn18 Zn 0.74842 0.62901 0.99642
 N19 N 0.77834 0.64877 1.00644
 C20 C 0.78149 0.60916 0.95874
 N21 N 0.75692 0.60775 0.96864
 C22 C 0.73769 0.59286 0.95768
 C23 C 0.74291 0.57850 0.93591
 C24 C 0.78752 0.59513 0.93710
 C25 C 0.73422 0.62266 1.04698
 C26 C 0.72600 0.60996 1.06914
 C27 C 0.72697 0.56952 1.04653
 C28 C 0.73523 0.58306 1.02473
 N29 N 0.73823 0.60921 1.02527
 H30 H 0.79632 0.62162 0.96719
 H31 H 0.71817 0.59252 0.96560
 H32 H 0.72747 0.56689 0.92711
 H33 H 0.80706 0.59660 0.92923
 H34 H 0.73704 0.64341 1.04689
 H35 H 0.72241 0.62103 1.08615
 H36 H 0.72417 0.54875 1.04580
 H37 H 0.73897 0.57271 1.00741
 C38 C 0.82352 0.67454 1.02257
 C39 C 0.67728 0.67587 0.96545
 C40 C 0.72212 0.58316 1.06889
 C41 C 0.76806 0.57979 0.92550
 C42 C 0.73170 0.35080 0.52120
 H43 H 0.75056 0.34970 0.53089
 C44 C 0.71005 0.33714 0.53084
 H45 H 0.71224 0.32536 0.54793
 C46 C 0.70538 0.36859 0.48791
 H47 H 0.70341 0.38144 0.47166
 C48 C 0.68326 0.35526 0.49691
 H49 H 0.66443 0.35771 0.48739
 N50 N 0.72900 0.36622 0.50016
 C51 C 0.80769 0.37996 0.47038
 H52 H 0.80764 0.40083 0.46953
 C53 C 0.82932 0.36664 0.46162
 H54 H 0.84601 0.37725 0.45398
 C55 C 0.78574 0.34058 0.48086
 H56 H 0.76856 0.33053 0.48802
 C57 C 0.80701 0.32647 0.47225
 H58 H 0.80622 0.30557 0.47289
 Zn59 Zn 0.75810 0.38708 0.49033
 N60 N 0.78657 0.36686 0.47992
 C61 C 0.79255 0.40499 0.52934
 N62 N 0.76798 0.40699 0.51903
 C63 C 0.74938 0.42148 0.53025
 C64 C 0.75522 0.43468 0.55281
 C65 C 0.79919 0.41788 0.55180
 C66 C 0.74345 0.39589 0.43994
 C67 C 0.73555 0.40973 0.41828
 C68 C 0.73924 0.44907 0.44255
 C69 C 0.74715 0.43444 0.46384
 N70 N 0.74862 0.40829 0.46223
 H71 H 0.80684 0.39285 0.52061
 H72 H 0.72984 0.42229 0.52194
 H73 H 0.74023 0.44585 0.56186
 H74 H 0.81867 0.41585 0.56008
 H75 H 0.74505 0.37511 0.43918
 H76 H 0.73093 0.39960 0.40077
 H77 H 0.73754 0.46981 0.44402
 H78 H 0.75179 0.44396 0.48162
 C79 C 0.82898 0.33966 0.46255
 C80 C 0.68557 0.33961 0.51870
 C81 C 0.73320 0.43651 0.41965
 C82 C 0.78033 0.43269 0.56373
 C83 C 0.23095 -0.14616 0.02606
 H84 H 0.24964 -0.14750 0.03602
 C85 C 0.20916 -0.16016 0.03493
 H86 H 0.21107 -0.17244 0.05171
 C87 C 0.20521 -0.12762 -0.00725
 H88 H 0.20351 -0.11440 -0.02325
 C89 C 0.18296 -0.14127 0.00098
 H90 H 0.16432 -0.13869 -0.00885
 N91 N 0.22861 -0.13025 0.00532
 C92 C 0.30766 -0.11662 -0.02369
 H93 H 0.30779 -0.09574 -0.02419
 C94 C 0.32915 -0.12997 -0.03272
 H95 H 0.34592 -0.11936 -0.04020
 C96 C 0.28534 -0.15599 -0.01395
 H97 H 0.26805 -0.16602 -0.00701
 C98 C 0.30646 -0.17013 -0.02285
 H99 H 0.30546 -0.19103 -0.02263
 Zn100 Zn 0.25798 -0.10942 -0.00392
 N101 N 0.28640 -0.12971 -0.01441
 C102 C 0.29235 -0.09205 0.03538
 N103 N 0.26782 -0.08983 0.02503
 C104 C 0.24932 -0.07522 0.03625
 C105 C 0.25523 -0.06210 0.05885
 C106 C 0.29906 -0.07924 0.05786
 C107 C 0.24408 -0.10007 -0.05434
 C108 C 0.23656 -0.08606 -0.07600
 C109 C 0.23997 -0.04689 -0.05136
 C110 C 0.24752 -0.06173 -0.03009
 N111 N 0.24894 -0.08787 -0.03189
 H112 H 0.30656 -0.10426 0.02664
 H113 H 0.22981 -0.07422 0.02790
 H114 H 0.24031 -0.05085 0.06791
 H115 H 0.31851 -0.08145 0.06618
 H116 H 0.24565 -0.12084 -0.05523
 H117 H 0.23221 -0.09616 -0.09362
 H118 H 0.23834 -0.02614 -0.04964
 H119 H 0.25193 -0.05238 -0.01217
 C120 C 0.32854 -0.15695 -0.03233
 C121 C 0.18491 -0.15753 0.02237
 C122 C 0.23423 -0.05924 -0.07448
 C123 C 0.28031 -0.06428 0.06979
 C124 C 0.22570 0.16695 0.46607
 H125 H 0.24451 0.16786 0.45671
 C126 C 0.20417 0.17973 0.45532
 H127 H 0.20643 0.19070 0.43774
 C128 C 0.19927 0.15031 0.49957
 H129 H 0.19714 0.13815 0.51631
 C130 C 0.17729 0.16278 0.48949
 H131 H 0.15847 0.16042 0.49870
 N132 N 0.22286 0.15245 0.48772
 C133 C 0.30111 0.13844 0.51956
 H134 H 0.29933 0.11768 0.52157
 C135 C 0.32389 0.15114 0.52797
 H136 H 0.33974 0.14015 0.53650
 C137 C 0.28241 0.17814 0.50634
 H138 H 0.26605 0.18853 0.49814
 C139 C 0.30497 0.19166 0.51457
 H140 H 0.30600 0.21249 0.51263
 Zn141 Zn 0.25129 0.13190 0.49900
 N142 N 0.28104 0.15197 0.50882
 C143 C 0.28451 0.11162 0.46169
 N144 N 0.25997 0.11023 0.47164
 C145 C 0.24094 0.09469 0.46124
 C146 C 0.24641 0.07945 0.44015
 C147 C 0.29079 0.09674 0.44070
 C148 C 0.23694 0.12596 0.54959
 C149 C 0.22955 0.11324 0.57202
 C150 C 0.23236 0.07258 0.55010
 C151 C 0.23974 0.08609 0.52801
 N152 N 0.24148 0.11235 0.52809
 H153 H 0.29916 0.12458 0.46968
 H154 H 0.22144 0.09435 0.46920
 H155 H 0.23118 0.06719 0.43188
 H156 H 0.31034 0.09808 0.43285
 H157 H 0.23884 0.14679 0.54917
 H158 H 0.22557 0.12428 0.58894
 H159 H 0.23060 0.05172 0.54987
 H160 H 0.24397 0.07562 0.51088
 C161 C 0.32588 0.17797 0.52545
 C162 C 0.17968 0.17735 0.46700
 C163 C 0.22709 0.08634 0.57224
 C164 C 0.27159 0.08056 0.42981
 C165 C 0.16441 0.46954 0.21908
 H166 H 0.16423 0.45957 0.23733
 C167 C 0.17886 0.45974 0.19895
 H168 H 0.18999 0.44227 0.20175
 C169 C 0.14884 0.50354 0.19253
 H170 H 0.13648 0.52010 0.18977
 C171 C 0.16301 0.49442 0.17195
 H172 H 0.16167 0.50414 0.15357
 N173 N 0.14964 0.49098 0.21550
 C174 C 0.13105 0.52163 0.29033
 H175 H 0.11012 0.52369 0.28736
 C176 C 0.14266 0.52910 0.31340
 H177 H 0.13066 0.53708 0.32821
 C178 C 0.17222 0.50863 0.27465
 H179 H 0.18362 0.50070 0.25945
 C180 C 0.18466 0.51591 0.29754
 H181 H 0.20565 0.51358 0.29994
 Zn182 Zn 0.12699 0.50092 0.24196
 N183 N 0.14580 0.51131 0.27166
 C184 C 0.10618 0.46189 0.27411
 N185 N 0.10539 0.47189 0.24998
 C186 C 0.09093 0.46025 0.23116
 C187 C 0.07636 0.43770 0.23641
 C188 C 0.09194 0.43952 0.28014
 C189 C 0.12022 0.55202 0.22724
 C190 C 0.10712 0.57402 0.21882
 C191 C 0.06637 0.54942 0.21892
 C192 C 0.08027 0.52780 0.22739
 N193 N 0.10678 0.52942 0.23099
 H194 H 0.11831 0.47085 0.28866
 H195 H 0.09109 0.46827 0.21200
 H196 H 0.06509 0.42838 0.22134
 H197 H 0.09292 0.43162 0.29937
 H198 H 0.14123 0.55281 0.23054
 H199 H 0.11808 0.59183 0.21552
 H200 H 0.04534 0.54797 0.21571
 H201 H 0.06990 0.50978 0.23092
 C202 C 0.16965 0.52606 0.31714
 C203 C 0.17789 0.47215 0.17509
 C204 C 0.08000 0.57269 0.21446
 C205 C 0.07700 0.42723 0.26115
 C206 C -0.16586 0.01902 0.22968
 H207 H -0.16693 0.02894 0.24769
 C208 C -0.18016 0.02798 0.20848
 H209 H -0.19239 0.04477 0.21024
 C210 C -0.14756 -0.01412 0.20498
 H211 H -0.13428 -0.03002 0.20341
 C212 C -0.16151 -0.00583 0.18336
 H213 H -0.15903 -0.01561 0.16538
 N214 N -0.14989 -0.00164 0.22756
 C215 C -0.13439 -0.03192 0.30434
 H216 H -0.11321 -0.03272 0.30343
 C217 C -0.14725 -0.04061 0.32622
 H218 H -0.13595 -0.04816 0.34223
 C219 C -0.17501 -0.02126 0.28450
 H220 H -0.18571 -0.01391 0.26810
 C221 C -0.18869 -0.02980 0.30610
 H222 H -0.20992 -0.02892 0.30634
 Zn223 Zn -0.12824 -0.01095 0.25584
 N224 N -0.14830 -0.02222 0.28417
 C225 C -0.10935 0.02840 0.28872
 N226 N -0.10780 0.01861 0.26479
 C227 C -0.09298 0.03056 0.24656
 C228 C -0.07875 0.05316 0.25222
 C229 C -0.09545 0.05087 0.29516
 C230 C -0.11905 -0.06169 0.24234
 C231 C -0.10488 -0.08286 0.23431
 C232 C -0.06517 -0.05673 0.23664
 C233 C -0.08011 -0.03599 0.24467
 N234 N -0.10664 -0.03869 0.24681
 H235 H -0.12173 0.01913 0.30277
 H236 H -0.09249 0.02267 0.22754
 H237 H -0.06717 0.06268 0.23758
 H238 H -0.09700 0.05861 0.31420
 H239 H -0.14012 -0.06334 0.24444
 H240 H -0.11504 -0.10088 0.23012
 H241 H -0.04416 -0.05430 0.23431
 H242 H -0.07056 -0.01771 0.24877
 C243 C -0.17462 -0.03946 0.32717
 C244 C -0.17778 0.01555 0.18504
 C245 C -0.07775 -0.08027 0.23114
 C246 C -0.08007 0.06340 0.27676
 C247 C 0.33616 0.52271 0.72537
 H248 H 0.33392 0.53278 0.74317
 C249 C 0.32252 0.53092 0.70347
 H250 H 0.30959 0.54727 0.70442
 C251 C 0.35665 0.48989 0.70196
 H252 H 0.37051 0.47439 0.70116
 C253 C 0.34340 0.49746 0.67968
 H254 H 0.34690 0.48755 0.66197
 N255 N 0.35287 0.50252 0.72424
 C256 C 0.36579 0.47341 0.80194
 H257 H 0.38704 0.47326 0.80190
 C258 C 0.35228 0.46432 0.82328
 H259 H 0.36313 0.45713 0.83974
 C260 C 0.32571 0.48269 0.78040
 H261 H 0.31549 0.48962 0.76353
 C262 C 0.31137 0.47371 0.80143
 H263 H 0.29010 0.47383 0.80078
 Zn264 Zn 0.37347 0.49396 0.75351
 N265 N 0.35246 0.48257 0.78116
 C266 C 0.39019 0.53403 0.78656
 N267 N 0.39303 0.52395 0.76289
 C268 C 0.40852 0.53588 0.74518
 C269 C 0.42217 0.55873 0.75116
 C270 C 0.40347 0.55676 0.79329
 C271 C 0.38381 0.44324 0.74119
 C272 C 0.39843 0.42212 0.73384
 C273 C 0.43780 0.44869 0.73677
 C274 C 0.42240 0.46939 0.74414
 N275 N 0.39585 0.46643 0.74564
 H276 H 0.37728 0.52477 0.80015
 H277 H 0.41002 0.52776 0.72633
 H278 H 0.43433 0.56821 0.73694
 H279 H 0.40093 0.56470 0.81213
 H280 H 0.36270 0.44140 0.74276
 H281 H 0.38856 0.40394 0.72963
 H282 H 0.45883 0.45131 0.73489
 H283 H 0.43164 0.48783 0.74817
 C284 C 0.32483 0.46450 0.82308
 C285 C 0.32634 0.51827 0.68038
 C286 C 0.42561 0.42495 0.73129
 C287 C 0.41956 0.56926 0.77546
 C288 C 0.66802 0.97381 0.72509
 H289 H 0.66800 0.96396 0.74341
 C290 C 0.68202 0.96370 0.70483
 H291 H 0.69296 0.94610 0.70758
 C292 C 0.65257 1.00790 0.69858
 H293 H 0.64043 1.02462 0.69593
 C294 C 0.66628 0.99844 0.67786
 H295 H 0.66483 1.00809 0.65944
 N296 N 0.65355 0.99546 0.72161
 C297 C 0.63743 1.02637 0.79688
 H298 H 0.61644 1.02862 0.79458
 C299 C 0.64987 1.03369 0.81960
 H300 H 0.63839 1.04169 0.83480
 C301 C 0.67791 1.01311 0.77985
 H302 H 0.68872 1.00516 0.76426
 C303 C 0.69119 1.02021 0.80235
 H304 H 0.71223 1.01765 0.80403
 Zn305 Zn 0.63168 1.00585 0.74848
 N306 N 0.65143 1.01597 0.77772
 C307 C 0.61063 0.96709 0.78100
 N308 N 0.60976 0.97716 0.75689
 C309 C 0.59487 0.96584 0.73820
 C310 C 0.57990 0.94358 0.74355
 C311 C 0.59600 0.94496 0.78712
 C312 C 0.62519 1.05703 0.73348
 C313 C 0.61211 1.07905 0.72505
 C314 C 0.57115 1.05486 0.72648
 C315 C 0.58503 1.03322 0.73493
 N316 N 0.61164 1.03460 0.73785
 H317 H 0.62309 0.97581 0.79543
 H318 H 0.59495 0.97391 0.71907
 H319 H 0.56826 0.93454 0.72857
 H320 H 0.59702 0.93700 0.80632
 H321 H 0.64629 1.05764 0.73624
 H322 H 0.62315 1.09668 0.72120
 H323 H 0.55005 1.05356 0.72378
 H324 H 0.57457 1.01537 0.73896
 C325 C 0.67696 1.03043 0.82248
 C326 C 0.68089 0.97599 0.68093
 C327 C 0.58488 1.07791 0.72133
 C328 C 0.58059 0.93303 0.76825
 C329 C 0.02211 0.22294 -0.16237
 H330 H 0.03150 0.24180 -0.16354
 C331 C 0.03229 0.20230 -0.17583
 H332 H 0.04948 0.20526 -0.18753
 C333 C -0.01089 0.19559 -0.14466
 H334 H -0.02719 0.19279 -0.13192
 C335 C -0.00136 0.17448 -0.15777
 H336 H -0.01056 0.15563 -0.15528
 N337 N 0.00094 0.21924 -0.14710
 C338 C -0.03255 0.29455 -0.13292
 H339 H -0.03356 0.29311 -0.11233
 C340 C -0.04190 0.31642 -0.14554
 H341 H -0.05019 0.33191 -0.13468
 C342 C -0.02060 0.27601 -0.17223
 H343 H -0.01246 0.26012 -0.18250
 C344 C -0.02978 0.29765 -0.18566
 H345 H -0.02862 0.29844 -0.20629
 Zn346 Zn -0.00977 0.24683 -0.12649
 N347 N -0.02189 0.27505 -0.14629
 C348 C 0.02926 0.28199 -0.10901
 N349 N 0.01977 0.25738 -0.10662
 C350 C 0.03233 0.23961 -0.09173
 C351 C 0.05535 0.24645 -0.07838
 C352 C 0.05212 0.28960 -0.09601
 C353 C -0.06099 0.23032 -0.11842
 C354 C -0.08290 0.22145 -0.10504
 C355 C -0.05750 0.22468 -0.06580
 C356 C -0.03601 0.23355 -0.07999
 N357 N -0.03805 0.23577 -0.10585
 H358 H 0.01953 0.29566 -0.12146
 H359 H 0.02470 0.22003 -0.09060
 H360 H 0.06539 0.23218 -0.06674
 H361 H 0.05963 0.30918 -0.09824
 H362 H -0.06209 0.23254 -0.13896
 H363 H -0.10090 0.21677 -0.11540
 H364 H -0.05557 0.22256 -0.04525
 H365 H -0.01774 0.23842 -0.07036
 C366 C -0.04040 0.31806 -0.17212
 C367 C 0.02056 0.17780 -0.17329
 C368 C -0.08111 0.21839 -0.07851
 C369 C 0.06535 0.27168 -0.08067
 C370 C 0.46891 0.22003 0.17077
 H371 H 0.45894 0.23829 0.17140
 C372 C 0.45923 0.19876 0.18461
 H373 H 0.44185 0.20066 0.19609
 C374 C 0.50285 0.19471 0.15394
 H375 H 0.51931 0.19288 0.14137
 C376 C 0.49385 0.17304 0.16746
 H377 H 0.50363 0.15477 0.16546
 N378 N 0.49029 0.21762 0.15572
 C379 C 0.52236 0.29443 0.13888
 H380 H 0.52400 0.29235 0.11844
 C381 C 0.53074 0.31724 0.15045
 H382 H 0.53899 0.33278 0.13893
 C383 C 0.50956 0.27665 0.17886
 H384 H 0.50138 0.26072 0.18979
 C385 C 0.51776 0.29927 0.19125
 H386 H 0.51588 0.30075 0.21175
 Zn387 Zn 0.50043 0.24565 0.13428
 N388 N 0.51172 0.27485 0.15306
 C389 C 0.46108 0.27869 0.11544
 N390 N 0.47084 0.25447 0.11385
 C391 C 0.45869 0.23613 0.09924
 C392 C 0.43593 0.24204 0.08521
 C393 C 0.43850 0.28537 0.10177
 C394 C 0.55211 0.23205 0.12696
 C395 C 0.57416 0.22383 0.11405
 C396 C 0.54879 0.22461 0.07471
 C397 C 0.52714 0.23287 0.08840
 N398 N 0.52908 0.23591 0.11414
 H399 H 0.47043 0.29280 0.12769
 H400 H 0.46652 0.21686 0.09874
 H401 H 0.42626 0.22738 0.07370
 H402 H 0.43085 0.30467 0.10330
 H403 H 0.55313 0.23487 0.14739
 H404 H 0.59224 0.22022 0.12454
 H405 H 0.54703 0.22163 0.05432
 H406 H 0.50879 0.23648 0.07852
 C407 C 0.52829 0.31978 0.17683
 C408 C 0.47170 0.17500 0.18271
 C409 C 0.57242 0.21982 0.08775
 C410 C 0.42577 0.26692 0.08658
 C411 C 0.97568 0.72252 0.67597
 H412 H 0.96629 0.74109 0.67645
 C413 C 0.96567 0.70184 0.69041
 H414 H 0.94860 0.70448 0.70215
 C415 C 1.00838 0.69585 0.65889
 H416 H 1.02447 0.69330 0.64600
 C417 C 0.99903 0.67471 0.67302
 H418 H 1.00812 0.65608 0.67110
 N419 N 0.99657 0.71916 0.66049
 C420 C 1.03003 0.79501 0.64226
 H421 H 1.03102 0.79297 0.62177
 C422 C 1.03897 0.81774 0.65366
 H423 H 1.04701 0.83325 0.64195
 C424 C 1.01816 0.77733 0.68255
 H425 H 1.01006 0.76150 0.69368
 C426 C 1.02691 0.79983 0.69476
 H427 H 1.02554 0.80133 0.71531
 Zn428 Zn 1.00669 0.74664 0.63842
 N429 N 1.01951 0.77556 0.65669
 C430 C 0.96755 0.78066 0.62083
 N431 N 0.97653 0.75613 0.61922
 C432 C 0.96326 0.73791 0.60538
 C433 C 0.94015 0.74423 0.59215
 C434 C 0.94464 0.78775 0.60793
 C435 C 1.05749 0.73108 0.62845
 C436 C 1.07850 0.72260 0.61414
 C437 C 1.05111 0.72534 0.57618
 C438 C 1.03055 0.73381 0.59123
 N439 N 1.03397 0.73606 0.61694
 H440 H 0.97783 0.79470 0.63246
 H441 H 0.97052 0.71841 0.60486
 H442 H 0.92961 0.72965 0.58123
 H443 H 0.93762 0.80730 0.60944
 H444 H 1.05972 0.73336 0.64887
 H445 H 1.09699 0.71820 0.62355
 H446 H 1.04816 0.72310 0.55580
 H447 H 1.01189 0.73835 0.58238
 C448 C 1.03719 0.82027 0.68010
 C449 C 0.97731 0.67766 0.68868
 C450 C 1.07522 0.71950 0.58781
 C451 C 0.93079 0.76941 0.59352
 C452 C 0.52626 0.72152 0.34307
 H453 H 0.53592 0.74024 0.34190
 C454 C 0.53546 0.70100 0.32875
 H455 H 0.55216 0.70394 0.31640
 C456 C 0.49350 0.69437 0.36146
 H457 H 0.47764 0.69160 0.37472
 C458 C 0.50206 0.67339 0.34749
 H459 H 0.49256 0.65466 0.34988
 N460 N 0.50564 0.71787 0.35904
 C461 C 0.47361 0.79351 0.37495
 H462 H 0.47317 0.79191 0.39555
 C463 C 0.46425 0.81565 0.36278
 H464 H 0.45652 0.83113 0.37407
 C465 C 0.48413 0.77517 0.33515
 H466 H 0.49172 0.75925 0.32451
 C467 C 0.47493 0.79705 0.32215
 H468 H 0.47553 0.79794 0.30149
 Zn469 Zn 0.49595 0.74540 0.38030
 N470 N 0.48357 0.77398 0.36112
 C471 C 0.53574 0.78005 0.39704
 N472 N 0.52613 0.75548 0.39945
 C473 C 0.53875 0.73759 0.41414
 C474 C 0.56182 0.74431 0.42745
 C475 C 0.55865 0.78754 0.40999
 C476 C 0.44487 0.72939 0.38989
 C477 C 0.42332 0.72075 0.40390
 C478 C 0.44991 0.72352 0.44238
 C479 C 0.47105 0.73220 0.42760
 N480 N 0.46825 0.73452 0.40178
 H481 H 0.52597 0.79382 0.38474
 H482 H 0.53100 0.71805 0.41529
 H483 H 0.57182 0.73000 0.43906
 H484 H 0.56617 0.80712 0.40786
 H485 H 0.44314 0.73171 0.36939
 H486 H 0.40492 0.71627 0.39416
 H487 H 0.45232 0.72125 0.46285
 H488 H 0.48965 0.73684 0.43673
 C489 C 0.46502 0.81753 0.33616
 C490 C 0.52334 0.67668 0.33115
 C491 C 0.42590 0.71759 0.43033
 C492 C 0.57182 0.76954 0.42529
 Si493 Si 0.36757 -0.00397 0.25896
 Si494 Si 0.12956 1.00721 0.74967
 Si495 Si 0.62389 0.50590 0.24425
 Si496 Si 0.86410 0.49989 0.75282
 Si497 Si 0.24882 0.36581 0.00190
 Si498 Si 0.74626 0.11559 1.00780
 Si499 Si 0.24421 0.61391 0.50187
 Si500 Si 0.75230 0.86690 0.50957
 Si501 Si -0.00112 0.24947 0.36064
 Si502 Si 1.00599 0.75567 0.11984
 Si503 Si 0.50860 0.25835 0.62350
 Si504 Si 0.49720 0.75426 0.86263
 C505 C 0.42703 -0.05515 0.27803
 C506 C 0.41282 -0.07675 0.28695
 C507 C 0.38538 -0.07614 0.28759
 C508 C 0.37218 -0.05416 0.27924
 C509 C 0.45577 -0.16090 0.32421
 C510 C 0.41377 -0.03307 0.26962
 C511 C 0.42607 -0.09948 0.29600
 C512 C 0.43620 -0.11881 0.30416
 C513 C 0.44711 -0.14156 0.31452
 C514 C 0.38624 -0.03260 0.27001
 H515 H 0.44829 -0.05534 0.27765
 H516 H 0.37419 -0.09265 0.29460
 H517 H 0.35093 -0.05403 0.27986
 H518 H 0.42501 -0.01652 0.26290
 C519 C 0.88117 0.42430 0.77121
 C520 C 0.90797 0.42520 0.77744
 C521 C 0.92193 0.44869 0.77593
 C522 C 0.90904 0.47125 0.76838
 C523 C 0.94990 0.34065 0.81488
 C524 C 0.86831 0.44678 0.76371
 C525 C 0.92066 0.40214 0.78642
 C526 C 0.93052 0.38269 0.79458
 C527 C 0.94128 0.35992 0.80503
 C528 C 0.88212 0.47039 0.76241
 H529 H 0.87015 0.40627 0.77242
 H530 H 0.94266 0.44962 0.78085
 H531 H 0.92002 0.48929 0.76754
 H532 H 0.84751 0.44580 0.75913
 C533 C 0.07685 1.05095 0.78945
 C534 C 0.07816 1.07499 0.77695
 C535 C 0.09401 1.07826 0.75552
 C536 C 0.10881 1.05777 0.74683
 C537 C 0.03191 1.15579 0.81481
 C538 C 0.09166 1.03040 0.78072
 C539 C 0.06446 1.09672 0.78683
 C540 C 0.05368 1.11526 0.79527
 C541 C 0.04172 1.13714 0.80553
 C542 C 0.10778 1.03371 0.75940
 H543 H 0.06481 1.04826 0.80619
 H544 H 0.09538 1.09683 0.74586
 H545 H 0.12149 1.06109 0.73071
 H546 H 0.09094 1.01209 0.79089
 C547 C 0.57405 0.54980 0.28721
 C548 C 0.57538 0.57410 0.27525
 C549 C 0.59015 0.57750 0.25309
 C550 C 0.60393 0.55686 0.24320
 C551 C 0.53354 0.65480 0.31803
 C552 C 0.58784 0.52911 0.27728
 C553 C 0.56291 0.59593 0.28643
 C554 C 0.55315 0.61445 0.29602
 C555 C 0.54236 0.63625 0.30764
 C556 C 0.60297 0.53256 0.25529
 H557 H 0.56286 0.54699 0.30448
 H558 H 0.59152 0.59626 0.24382
 H559 H 0.61585 0.56025 0.22654
 H560 H 0.58721 0.51061 0.28710
 C561 C 0.56430 0.45173 0.23020
 C562 C 0.57824 0.43113 0.22018
 C563 C 0.60538 0.43354 0.21685
 C564 C 0.61861 0.45623 0.22377
 C565 C 0.53698 0.34341 0.18865
 C566 C 0.57760 0.47454 0.23717
 C567 C 0.56508 0.40748 0.21295
 C568 C 0.55525 0.38732 0.20621
 C569 C 0.54495 0.36357 0.19731
 C570 C 0.60489 0.47673 0.23424
 H571 H 0.54325 0.45013 0.23267
 H572 H 0.61635 0.41782 0.20898
 H573 H 0.63967 0.45765 0.22126
 H574 H 0.56660 0.49024 0.24493
 C575 C 0.11320 0.93427 0.72268
 C576 C 0.08592 0.93170 0.72463
 C577 C 0.07127 0.95227 0.73373
 C578 C 0.08399 0.97524 0.74111
 C579 C 0.04601 0.84391 0.69179
 C580 C 0.12585 0.95712 0.73001
 C581 C 0.07331 0.90797 0.71686
 C582 C 0.06386 0.88778 0.70974
 C583 C 0.05387 0.86405 0.70055
 C584 C 0.11140 0.97762 0.73951
 H585 H 0.12471 0.91857 0.71553
 H586 H 0.05011 0.95054 0.73512
 H587 H 0.07244 0.99095 0.74807
 H588 H 0.14702 0.95871 0.72850
 C589 C 0.91996 0.54906 0.72061
 C590 C 0.91844 0.57132 0.73535
 C591 C 0.90208 0.57145 0.75659
 C592 C 0.88663 0.54970 0.76253
 C593 C 0.96575 0.65541 0.70112
 C594 C 0.90450 0.52733 0.72652
 C595 C 0.93236 0.59446 0.72765
 C596 C 0.94340 0.61384 0.72026
 C597 C 0.95569 0.63640 0.71048
 C598 C 0.88715 0.52771 0.74710
 H599 H 0.93264 0.54869 0.70418
 H600 H 0.90085 0.58852 0.76823
 H601 H 0.87410 0.55038 0.77897
 H602 H 0.90581 0.51052 0.71466
 C603 C 0.40102 0.06937 0.25388
 C604 C 0.41746 0.06761 0.23282
 C605 C 0.42001 0.04392 0.22052
 C606 C 0.40577 0.02221 0.22901
 C607 C 0.46091 0.15223 0.19489
 C608 C 0.38679 0.04773 0.26233
 C609 C 0.43039 0.09050 0.22304
 C610 C 0.44050 0.10995 0.21462
 C611 C 0.45169 0.13282 0.20430
 C612 C 0.38896 0.02402 0.24988
 H613 H 0.39871 0.08765 0.26339
 H614 H 0.43252 0.04238 0.20407
 H615 H 0.40738 0.00418 0.21893
 H616 H 0.37360 0.04990 0.27812
 C617 C 0.24921 0.41557 -0.06079
 C618 C 0.27421 0.41213 -0.07095
 C619 C 0.29178 0.39543 -0.05872
 C620 C 0.28443 0.38205 -0.03661
 C621 C 0.31093 0.45473 -0.15497
 C622 C 0.24182 0.40215 -0.03856
 C623 C 0.28204 0.42505 -0.09420
 C624 C 0.28990 0.43508 -0.11361
 C625 C 0.30057 0.44601 -0.13611
 C626 C 0.25943 0.38535 -0.02631
 H627 H 0.23538 0.42834 -0.07016
 H628 H 0.31111 0.39247 -0.06648
 H629 H 0.29821 0.36880 -0.02800
 H630 H 0.22229 0.40461 -0.03112
 C631 C 0.75199 0.91496 0.44570
 C632 C 0.77712 0.91177 0.43576
 C633 C 0.79506 0.89593 0.44860
 C634 C 0.78792 0.88307 0.47106
 C635 C 0.81214 0.95149 0.34977
 C636 C 0.74482 0.90209 0.46828
 C637 C 0.78462 0.92392 0.41202
 C638 C 0.79211 0.93327 0.39218
 C639 C 0.80227 0.94341 0.36914
 C640 C 0.76276 0.88605 0.48110
 H641 H 0.73787 0.92706 0.43585
 H642 H 0.81449 0.89316 0.44100
 H643 H 0.80197 0.87039 0.48012
 H644 H 0.72517 0.90428 0.47552
 C645 C 0.76561 0.05564 1.05785
 C646 C 0.77225 0.06896 1.08025
 C647 C 0.77066 0.09588 1.08067
 C648 C 0.76272 0.10946 1.05884
 C649 C 0.81025 0.02516 1.16360
 C650 C 0.75761 0.06929 1.03590
 C651 C 0.78148 0.05544 1.10272
 C652 C 0.78985 0.04514 1.12186
 C653 C 0.80044 0.03404 1.14442
 C654 C 0.75641 0.09632 1.03627
 H655 H 0.76677 0.03479 1.05730
 H656 H 0.77577 0.10640 1.09785
 H657 H 0.76172 0.13031 1.05951
 H658 H 0.75254 0.05878 1.01875
 C659 C 0.25137 0.58177 0.57440
 C660 C 0.27323 0.56596 0.57240
 C661 C 0.28526 0.56319 0.54870
 C662 C 0.27578 0.57668 0.52724
 C663 C 0.31398 0.52739 0.65715
 C664 C 0.24196 0.59526 0.55304
 C665 C 0.28413 0.55408 0.59509
 C666 C 0.29329 0.54505 0.61451
 C667 C 0.30424 0.53528 0.63751
 C668 C 0.25420 0.59297 0.52933
 H669 H 0.24204 0.58426 0.59266
 H670 H 0.30234 0.55117 0.54696
 H671 H 0.28575 0.57499 0.50922
 H672 H 0.22567 0.60806 0.55545
 C673 C 0.21375 0.59791 0.43043
 C674 C 0.21568 0.57111 0.42846
 C675 C 0.22552 0.55664 0.44916
 C676 C 0.23374 0.56907 0.47160
 C677 C 0.18158 0.53372 0.34103
 C678 C 0.22193 0.61027 0.45273
 C679 C 0.20742 0.55892 0.40504
 C680 C 0.19999 0.54998 0.38499
 C681 C 0.19053 0.54077 0.36126
 C682 C 0.23226 0.59601 0.47333
 H683 H 0.20607 0.60930 0.41462
 H684 H 0.22696 0.53586 0.44789
 H685 H 0.24145 0.55770 0.48736
 H686 H 0.22055 0.63107 0.45377
 C687 C 0.70383 0.08619 0.94639
 C688 C 0.72218 0.07116 0.93394
 C689 C 0.74728 0.06802 0.94471
 C690 C 0.75410 0.08038 0.96759
 C691 C 0.68904 0.03727 0.84485
 C692 C 0.71064 0.09856 0.96911
 C693 C 0.71526 0.06028 0.90952
 C694 C 0.70823 0.05222 0.88898
 C695 C 0.69855 0.04380 0.86503
 C696 C 0.73587 0.09590 0.97981
 H697 H 0.68442 0.08892 0.93815
 H698 H 0.76171 0.05655 0.93518
 H699 H 0.77380 0.07844 0.97534
 H700 H 0.69634 0.11082 0.97772
 C701 C 0.73517 0.92868 0.55629
 C702 C 0.72822 0.91621 0.57917
 C703 C 0.72885 0.88927 0.58095
 C704 C 0.73618 0.87482 0.55996
 C705 C 0.69292 0.96455 0.65916
 C706 C 0.74254 0.91417 0.53521
 C707 C 0.71972 0.93074 0.60074
 C708 C 0.71198 0.94207 0.61909
 C709 C 0.70212 0.95450 0.64073
 C710 C 0.74278 0.88713 0.53690
 H711 H 0.73478 0.94953 0.55471
 H712 H 0.72352 0.87940 0.59852
 H713 H 0.73649 0.85397 0.56166
 H714 H 0.74794 0.92408 0.51773
 C715 C 0.22631 0.38701 0.07394
 C716 C 0.22587 0.41399 0.07269
 C717 C 0.23283 0.42684 0.05001
 C718 C 0.23995 0.41270 0.02860
 C719 C 0.19027 0.46097 0.15336
 C720 C 0.23338 0.37293 0.05262
 C721 C 0.21743 0.42813 0.09455
 C722 C 0.20966 0.43913 0.11309
 C723 C 0.19966 0.45120 0.13488
 C724 C 0.23992 0.38564 0.02975
 H725 H 0.22097 0.37684 0.09135
 H726 H 0.23257 0.44773 0.04884
 H727 H 0.24530 0.42291 0.01127
 H728 H 0.23349 0.35204 0.05391
 C729 C -0.07129 0.28146 0.38115
 C730 C -0.06990 0.28209 0.40783
 C731 C -0.04765 0.27267 0.42068
 C732 C -0.02688 0.26263 0.40683
 C733 C -0.14919 0.32578 0.45265
 C734 C -0.05060 0.27148 0.36736
 C735 C -0.09118 0.29306 0.42166
 C736 C -0.10933 0.30279 0.43227
 C737 C -0.13081 0.31485 0.44368
 C738 C -0.02836 0.26186 0.38008
 H739 H -0.08831 0.28883 0.37100
 H740 H -0.04629 0.27326 0.44132
 H741 H -0.00973 0.25571 0.41701
 H742 H -0.05195 0.27129 0.34671
 C743 C 0.42737 0.78626 0.88423
 C744 C 0.42874 0.78592 0.91092
 C745 C 0.45084 0.77576 0.92344
 C746 C 0.47149 0.76597 0.90924
 C747 C 0.35016 0.82917 0.95734
 C748 C 0.44794 0.77653 0.87009
 C749 C 0.40763 0.79669 0.92514
 C750 C 0.38963 0.80630 0.93612
 C751 C 0.36836 0.81828 0.94798
 C752 C 0.47005 0.76620 0.88247
 H753 H 0.41047 0.79421 0.87433
 H754 H 0.45219 0.77559 0.94409
 H755 H 0.48853 0.75849 0.91919
 H756 H 0.44663 0.77711 0.84944
 C757 C 1.07782 0.78850 0.10187
 C758 C 1.07773 0.78913 0.07516
 C759 C 1.05571 0.77986 0.06153
 C760 C 1.03394 0.76983 0.07463
 C761 C 1.16177 0.82979 0.03229
 C762 C 1.05614 0.77852 0.11491
 C763 C 1.10027 0.79957 0.06206
 C764 C 1.11951 0.80866 0.05198
 C765 C 1.14228 0.81978 0.04104
 C766 C 1.03418 0.76891 0.10141
 H767 H 1.09466 0.79572 0.11262
 H768 H 1.05537 0.78041 0.04085
 H769 H 1.01706 0.76286 0.06385
 H770 H 1.05657 0.77815 0.13559
 C771 C 0.55688 0.28031 0.56333
 C772 C 0.57932 0.28982 0.57611
 C773 C 0.58009 0.29015 0.60281
 C774 C 0.55868 0.28085 0.61669
 C775 C 0.66256 0.32758 0.52958
 C776 C 0.53539 0.27096 0.57726
 C777 C 0.60162 0.29944 0.56210
 C778 C 0.62066 0.30784 0.55117
 C779 C 0.64322 0.31819 0.53920
 C780 C 0.53633 0.27094 0.60404
 H781 H 0.55602 0.28013 0.54265
 H782 H 0.59727 0.29758 0.61290
 H783 H 0.55964 0.28117 0.63735
 H784 H 0.51820 0.26378 0.56710
 C785 C 0.45954 0.21893 0.57302
 C786 C 0.43519 0.23057 0.57635
 C787 C 0.43313 0.25116 0.59322
 C788 C 0.45519 0.25991 0.60691
 C789 C 0.34921 0.19109 0.53472
 C790 C 0.48166 0.22772 0.58672
 C791 C 0.41197 0.22055 0.56368
 C792 C 0.39224 0.21186 0.55384
 C793 C 0.36899 0.20107 0.54316
 C794 C 0.47962 0.24826 0.60376
 H795 H 0.46131 0.20281 0.56020
 H796 H 0.41436 0.26012 0.59617
 H797 H 0.45285 0.27539 0.62030
 H798 H 0.50025 0.21825 0.58432
 C799 C 0.93087 0.74840 0.08886
 C800 C 0.93322 0.72808 0.07173
 C801 C 0.95777 0.71694 0.06813
 C802 C 0.97977 0.72586 0.08193
 C803 C 0.84706 0.68759 0.03142
 C804 C 0.95281 0.75727 0.10267
 C805 C 0.91006 0.71769 0.05926
 C806 C 0.89030 0.70871 0.04971
 C807 C 0.86697 0.69767 0.03947
 C808 C 0.97740 0.74601 0.09938
 H809 H 0.91194 0.75698 0.09203
 H810 H 0.95978 0.70103 0.05510
 H811 H 0.99850 0.71667 0.07943
 H812 H 0.95020 0.77243 0.11636
 C813 C 0.57257 0.74595 0.89239
 C814 C 0.56986 0.72496 0.90922
 C815 C 0.54514 0.71322 0.91257
 C816 C 0.52327 0.72237 0.89897
 C817 C 0.65439 0.68749 0.95404
 C818 C 0.55077 0.75508 0.87880
 C819 C 0.59271 0.71499 0.92224
 C820 C 0.61211 0.70661 0.93262
 C821 C 0.63496 0.69654 0.94431
 C822 C 0.52594 0.74340 0.88204
 H823 H 0.59162 0.75504 0.88947
 H824 H 0.54284 0.69683 0.92541
 H825 H 0.50435 0.71289 0.90143
 H826 H 0.55359 0.77093 0.86549
 C827 C 0.04730 0.21094 0.41212
 C828 C 0.07189 0.22284 0.40837
 C829 C 0.07437 0.24312 0.39067
 C830 C 0.05248 0.25141 0.37668
 C831 C 0.15667 0.18830 0.45513
 C832 C 0.02535 0.21926 0.39811
 C833 C 0.09481 0.21374 0.42191
 C834 C 0.11427 0.20606 0.43275
 C835 C 0.13718 0.19675 0.44497
 C836 C 0.02779 0.23960 0.38036
 H837 H 0.04517 0.19509 0.42563
 H838 H 0.09332 0.25231 0.38743
 H839 H 0.05512 0.26674 0.36274
 H840 H 0.00654 0.20968 0.40093
 C841 C 0.55196 0.19712 0.65198
 C842 C 0.53437 0.18428 0.66821
 C843 C 0.50907 0.19391 0.67130
 C844 C 0.50146 0.21632 0.65813
 C845 C 0.57148 0.10020 0.71140
 C846 C 0.54439 0.21943 0.63885
 C847 C 0.54252 0.16104 0.68117
 C848 C 0.55056 0.14167 0.69134
 C849 C 0.56127 0.11918 0.70249
 C850 C 0.51915 0.22931 0.64196
 H851 H 0.57151 0.18975 0.64929
 H852 H 0.49522 0.18404 0.68369
 H853 H 0.48176 0.22343 0.66043
 H854 H 0.55825 0.22861 0.62608
 C855 C 1.04863 0.69362 0.14752
 C856 C 1.03061 0.68030 0.16294
 C857 C 1.00525 0.68987 0.16573
 C858 C 0.99801 0.71269 0.15308
 C859 C 1.06664 0.59507 0.20469
 C860 C 1.04142 0.71634 0.13491
 C861 C 1.03840 0.65667 0.17539
 C862 C 1.04614 0.63700 0.18520
 C863 C 1.05658 0.61422 0.19600
 C864 C 1.01612 0.72615 0.13772
 H865 H 1.06824 0.68630 0.14507
 H866 H 0.99108 0.67965 0.17749
 H867 H 0.97826 0.71975 0.15513
 H868 H 1.05561 0.72589 0.12274
 C869 C 0.98178 0.82629 0.14540
 C870 C 0.97988 0.82277 0.17184
 C871 C 0.98686 0.79913 0.18306
 C872 C 0.99526 0.77893 0.16778
 C873 C 0.93664 0.89871 0.22075
 C874 C 0.99010 0.80615 0.13018
 C875 C 0.96952 0.84315 0.18698
 C876 C 0.95999 0.86052 0.19863
 C877 C 0.94785 0.88108 0.21108
 C878 C 0.99645 0.78223 0.14120
 H879 H 0.97641 0.84447 0.13651
 H880 H 0.98548 0.79621 0.20351
 H881 H 1.00045 0.76078 0.17673
 H882 H 0.99111 0.80909 0.10971
 C883 C 0.48517 0.32979 0.64757
 C884 C 0.48370 0.32700 0.67411
 C885 C 0.49080 0.30364 0.68584
 C886 C 0.49887 0.28299 0.67097
 C887 C 0.44042 0.40393 0.72144
 C888 C 0.49316 0.30921 0.63275
 C889 C 0.47352 0.34777 0.68885
 C890 C 0.46404 0.36541 0.70015
 C891 C 0.45183 0.38619 0.71218
 C892 C 0.49960 0.28556 0.64429
 H893 H 0.47969 0.34774 0.63828
 H894 H 0.48972 0.30128 0.70637
 H895 H 0.50414 0.26507 0.68032
 H896 H 0.49382 0.31159 0.61220
 C897 C 0.49480 0.69108 0.81464
 C898 C 0.46938 0.68098 0.81813
 C899 C 0.45209 0.69353 0.83418
 C900 C 0.46016 0.71584 0.84696
 C901 C 0.43248 0.59323 0.78212
 C902 C 0.50290 0.71351 0.82744
 C903 C 0.46107 0.65714 0.80642
 C904 C 0.45302 0.63702 0.79770
 C905 C 0.44244 0.61339 0.78874
 C906 C 0.48562 0.72600 0.84370
 H907 H 0.50844 0.68142 0.80243
 H908 H 0.43247 0.68578 0.83722
 H909 H 0.44659 0.72464 0.85980
 H910 H 0.52275 0.72085 0.82501
 C911 C -0.00345 0.18508 0.31422
 C912 C -0.02878 0.17494 0.31811
 C913 C -0.04594 0.18764 0.33417
 C914 C -0.03786 0.21021 0.34647
 C915 C -0.06668 0.08721 0.28311
 C916 C 0.00466 0.20778 0.32653
 C917 C -0.03721 0.15100 0.30668
 C918 C -0.04546 0.13087 0.29819
 C919 C -0.05638 0.10729 0.28949
 C920 C -0.01254 0.22050 0.34271
 H921 H 0.01009 0.17530 0.30199
 H922 H -0.06549 0.17985 0.33753
 H923 H -0.05135 0.21918 0.35927
 H924 H 0.02442 0.21523 0.32372
 C925 C 0.01622 0.29673 0.29806
 C926 C 0.02350 0.31999 0.30982
 C927 C 0.02273 0.32188 0.33642
 C928 C 0.01510 0.30062 0.35124
 C929 C 0.06328 0.40355 0.26740
 C930 C 0.00848 0.27535 0.31297
 C931 C 0.03281 0.34188 0.29521
 C932 C 0.04151 0.36092 0.28469
 C933 C 0.05274 0.38377 0.27442
 C934 C 0.00825 0.27716 0.33967
 H935 H 0.01675 0.29506 0.27748
 H936 H 0.02835 0.33974 0.34574
 H937 H 0.01484 0.30241 0.37182
 H938 H 0.00293 0.25752 0.30365
 C939 C 0.51635 0.80331 0.80190
 C940 C 0.52373 0.82607 0.81453
 C941 C 0.52229 0.82716 0.84114
 C942 C 0.51395 0.80558 0.85513
 C943 C 0.56635 0.90963 0.77449
 C944 C 0.50791 0.78160 0.81597
 C945 C 0.53391 0.84818 0.80079
 C946 C 0.54330 0.86726 0.79092
 C947 C 0.55528 0.89002 0.78122
 C948 C 0.50707 0.78257 0.84270
 H949 H 0.51741 0.80225 0.78130
 H950 H 0.52797 0.84463 0.85113
 H951 H 0.51327 0.80672 0.87575
 H952 H 0.50237 0.76414 0.80600
 C953 C 0.64189 0.52976 0.17107
 C954 C 0.66929 0.53227 0.17155
 C955 C 0.68338 0.52643 0.19398
 C956 C 0.67003 0.51834 0.21593
 C957 C 0.71311 0.57130 0.08920
 C958 C 0.62859 0.52172 0.19295
 C959 C 0.68263 0.54170 0.14919
 C960 C 0.69299 0.55026 0.13029
 C961 C 0.70422 0.56115 0.10809
 C962 C 0.64253 0.51628 0.21558
 H963 H 0.63079 0.53425 0.15383
 H964 H 0.70460 0.52829 0.19455
 H965 H 0.68122 0.51384 0.23305
 H966 H 0.60736 0.51998 0.19229
 C967 C 0.14854 1.03006 0.67655
 C968 C 0.17583 1.03352 0.67757
 C969 C 0.18964 1.02850 0.70036
 C970 C 0.17609 1.02033 0.72216
 C971 C 0.21819 1.07321 0.59492
 C972 C 0.13504 1.02196 0.69827
 C973 C 0.18920 1.04318 0.65534
 C974 C 0.19930 1.05194 0.63640
 C975 C 0.20996 1.06300 0.61404
 C976 C 0.14866 1.01739 0.72127
 H977 H 0.13766 1.03390 0.65904
 H978 H 0.21078 1.03111 0.70132
 H979 H 0.18702 1.01652 0.73960
 H980 H 0.11388 1.01955 0.69721
 C981 C 0.16417 0.96911 0.81095
 C982 C 0.18010 0.98819 0.82217
 C983 C 0.18139 1.01297 0.81123
 C984 C 0.16661 1.01858 0.78916
 C985 C 0.22554 0.95369 0.90567
 C986 C 0.14944 0.97469 0.78903
 C987 C 0.19433 0.98191 0.84525
 C988 C 0.20520 0.97476 0.86456
 C989 C 0.21671 0.96429 0.88693
 C990 C 0.15063 0.99941 0.77788
 H991 H 0.16285 0.94994 0.81938
 H992 H 0.19353 1.02794 0.81987
 H993 H 0.16742 1.03789 0.78104
 H994 H 0.13684 0.95968 0.78123
 C995 C 0.67731 0.51012 0.30462
 C996 C 0.67617 0.48514 0.31512
 C997 C 0.65990 0.46634 0.30388
 C998 C 0.64468 0.47240 0.28240
 C999 C 0.72328 0.45052 0.39781
 C1000 C 0.66204 0.51621 0.28300
 C1001 C 0.69081 0.47847 0.33785
 C1002 C 0.70205 0.47121 0.35693
 C1003 C 0.71402 0.46085 0.37912
 C1004 C 0.64568 0.49734 0.27173
 H1005 H 0.68971 0.52488 0.31328
 H1006 H 0.65870 0.44701 0.31197
 H1007 H 0.63183 0.45760 0.27459
 H1008 H 0.66275 0.53568 0.27524
 C1009 C 0.80814 0.49005 0.69475
 C1010 C 0.82259 0.47799 0.67584
 C1011 C 0.84906 0.47253 0.68027
 C1012 C 0.86113 0.47921 0.70335
 C1013 C 0.78665 0.44461 0.58775
 C1014 C 0.82027 0.49678 0.71796
 C1015 C 0.81053 0.47040 0.65205
 C1016 C 0.80177 0.46316 0.63184
 C1017 C 0.79300 0.45365 0.60804
 C1018 C 0.84698 0.49169 0.72226
 H1019 H 0.78753 0.49409 0.69163
 H1020 H 0.86034 0.46285 0.66594
 H1021 H 0.88144 0.47412 0.70655
 H1022 H 0.80869 0.50577 0.73239
 C1023 C 0.31984 0.00113 0.19442
 C1024 C 0.32187 -0.02339 0.18369
 C1025 C 0.33659 -0.04235 0.19624
 C1026 C 0.34961 -0.03681 0.21917
 C1027 C 0.28666 -0.05262 0.09393
 C1028 C 0.33285 0.00669 0.21749
 C1029 C 0.31023 -0.02914 0.15919
 C1030 C 0.30168 -0.03529 0.13855
 C1031 C 0.29300 -0.04399 0.11441
 C1032 C 0.34788 -0.01224 0.22995
 H1033 H 0.30868 0.01603 0.18475
 H1034 H 0.33850 -0.06131 0.18799
 H1035 H 0.36148 -0.05163 0.22796
 H1036 H 0.33165 0.02588 0.22533
 C1037 C 0.34541 0.01739 0.33087
 C1038 C 0.31837 0.02125 0.32840
 C1039 C 0.30553 0.01628 0.30510
 C1040 C 0.31987 0.00798 0.28417
 C1041 C 0.27798 0.06582 0.40771
 C1042 C 0.35970 0.00922 0.31003
 C1043 C 0.30457 0.03190 0.34950
 C1044 C 0.29462 0.04174 0.36763
 C1045 C 0.28482 0.05427 0.38918
 C1046 C 0.34713 0.00492 0.28646
 H1047 H 0.35557 0.02125 0.34877
 H1048 H 0.28460 0.01926 0.30299
 H1049 H 0.30975 0.00448 0.26623
 H1050 H 0.38071 0.00681 0.31215
 C1051 C 0.80991 0.53818 0.79636
 C1052 C 0.81070 0.52468 0.81967
 C1053 C 0.82588 0.50251 0.82216
 C1054 C 0.84090 0.49433 0.80174
 C1055 C 0.77405 0.56628 0.90251
 C1056 C 0.82490 0.52996 0.77590
 C1057 C 0.79830 0.53501 0.84177
 C1058 C 0.78932 0.54422 0.86071
 C1059 C 0.78037 0.55573 0.88320
 C1060 C 0.84086 0.50824 0.77858
 H1061 H 0.79850 0.55556 0.79431
 H1062 H 0.82688 0.49208 0.84018
 H1063 H 0.85324 0.47773 0.80455
 H1064 H 0.82496 0.54125 0.75837
 C1065 C 0.19774 0.67538 0.52244
 C1066 C 0.17390 0.66299 0.52838
 C1067 C 0.17105 0.63632 0.52513
 C1068 C 0.19209 0.62199 0.51656
 C1069 C 0.09627 0.70926 0.57317
 C1070 C 0.21885 0.66102 0.51381
 C1071 C 0.15277 0.67715 0.53921
 C1072 C 0.13495 0.68810 0.54912
 C1073 C 0.11405 0.69994 0.56166
 C1074 C 0.21625 0.63416 0.51134
 H1075 H 0.20015 0.69603 0.52488
 H1076 H 0.15271 0.62652 0.52969
 H1077 H 0.18969 0.60130 0.51456
 H1078 H 0.23716 0.67087 0.50950
 C1079 C 0.69765 0.17613 1.02629
 C1080 C 0.67556 0.16313 1.03604
 C1081 C 0.67497 0.13613 1.03728
 C1082 C 0.69628 0.12218 1.02874
 C1083 C 0.59452 0.20954 1.07468
 C1084 C 0.71902 0.16214 1.01769
 C1085 C 0.65367 0.17723 1.04544
 C1086 C 0.63509 0.18822 1.05392
 C1087 C 0.61320 0.20014 1.06467
 C1088 C 0.71832 0.13506 1.01871
 H1089 H 0.69840 0.19704 1.02547
 H1090 H 0.65807 0.12587 1.04495
 H1091 H 0.69554 0.10129 1.02990
 H1092 H 0.73599 0.17250 1.01045
 C1093 C 0.79211 0.16653 0.96561
 C1094 C 0.81693 0.16467 0.97727
 C1095 C 0.82031 0.14873 0.99877
 C1096 C 0.79906 0.13447 1.00841
 C1097 C 0.89882 0.20897 0.93402
 C1098 C 0.77083 0.15228 0.97527
 C1099 C 0.83923 0.17788 0.96634
 C1100 C 0.85804 0.18831 0.95674
 C1101 C 0.88009 0.19978 0.94487
 C1102 C 0.77419 0.13615 0.99671
 H1103 H 0.78931 0.17861 0.94881
 H1104 H 0.83949 0.14693 1.00777
 H1105 H 0.80236 0.12179 1.02462
 H1106 H 0.75185 0.15352 0.96578
 C1107 C 0.30685 0.64589 0.46219
 C1108 C 0.31957 0.66140 0.48036
 C1109 C 0.30946 0.66293 0.50503
 C1110 C 0.28666 0.64893 0.51141
 C1111 C 0.40406 0.70728 0.44454
 C1112 C 0.28417 0.63194 0.46853
 C1113 C 0.34312 0.67526 0.47328
 C1114 C 0.36268 0.68611 0.46572
 C1115 C 0.38523 0.69792 0.45508
 C1116 C 0.27377 0.63350 0.49311
 H1117 H 0.31460 0.64441 0.44311
 H1118 H 0.31924 0.67477 0.51931
 H1119 H 0.27916 0.65001 0.53061
 H1120 H 0.27513 0.61977 0.45418
 C1121 C 0.67787 0.83430 0.50078
 C1122 C 0.68082 0.81789 0.48001
 C1123 C 0.70546 0.81555 0.46880
 C1124 C 0.72700 0.82980 0.47817
 C1125 C 0.59575 0.77721 0.43821
 C1126 C 0.69936 0.84856 0.51013
 C1127 C 0.65814 0.80496 0.46921
 C1128 C 0.63875 0.79512 0.45985
 C1129 C 0.61568 0.78485 0.44845
 C1130 C 0.72406 0.84642 0.49886
 H1131 H 0.65882 0.83651 0.50939
 H1132 H 0.70791 0.80312 0.45254
 H1133 H 0.74584 0.82819 0.46902
 H1134 H 0.69639 0.86161 0.52574
 C1135 C 0.20035 0.31586 -0.03897
 C1136 C 0.17590 0.31864 -0.02746
 C1137 C 0.17358 0.33493 -0.00652
 C1138 C 0.19550 0.34863 0.00272
 C1139 C 0.08948 0.27930 -0.06806
 C1140 C 0.22232 0.32956 -0.02969
 C1141 C 0.15281 0.30619 -0.03803
 C1142 C 0.13308 0.29671 -0.04710
 C1143 C 0.10965 0.28677 -0.05813
 C1144 C 0.22001 0.34605 -0.00882
 H1145 H 0.20232 0.30352 -0.05536
 H1146 H 0.15471 0.33747 0.00234
 H1147 H 0.19299 0.36160 0.01849
 H1148 H 0.24101 0.32761 -0.03905
 C1149 C 0.32000 0.34378 0.03272
 C1150 C 0.31880 0.31679 0.03228
 C1151 C 0.29628 0.30417 0.02267
 C1152 C 0.27507 0.31859 0.01342
 C1153 C 0.40207 0.27385 0.07312
 C1154 C 0.29888 0.35813 0.02354
 C1155 C 0.34068 0.30247 0.04229
 C1156 C 0.35963 0.29192 0.05130
 C1157 C 0.38235 0.28132 0.06265
 C1158 C 0.27640 0.34567 0.01364
 H1159 H 0.33724 0.35375 0.04026
 H1160 H 0.29507 0.28328 0.02244
 H1161 H 0.25774 0.30857 0.00627
 H1162 H 0.30013 0.37901 0.02408
 C1163 C 0.82361 0.84631 0.54115
 C1164 C 0.82282 0.81931 0.54095
 C1165 C 0.80053 0.80627 0.53139
 C1166 C 0.77914 0.82027 0.52193
 C1167 C 0.90683 0.77674 0.58076
 C1168 C 0.80231 0.86026 0.53174
 C1169 C 0.84495 0.80535 0.55092
 C1170 C 0.86405 0.79496 0.55976
 C1171 C 0.88695 0.78437 0.57075
 C1172 C 0.78007 0.84736 0.52186
 H1173 H 0.84069 0.85659 0.54863
 H1174 H 0.79966 0.78536 0.53133
 H1175 H 0.76202 0.80991 0.51480
 H1176 H 0.80324 0.88116 0.53205
   
