data_POSCAR
  _audit_creation_date              2014-09-24
  _audit_creation_method            'ToBaCCo'
  _symmetry_space_group_name_H-M    'P1'
  _symmetry_Int_Tables_number       1
  _symmetry_cell_setting            triclinic
  loop_
  _symmetry_equiv_pos_as_xyz
 x,y,z
_cell_length_a 32.3519
_cell_length_b 32.2256
_cell_length_c 48.1648
_cell_angle_alpha 90.052900
_cell_angle_beta 90.051200
_cell_angle_gamma 119.309900
loop_
  _atom_site_label
  _atom_site_type_symbol
  _atom_site_fract_x
  _atom_site_fract_y
  _atom_site_fract_z
C1 C 0.02433 0.51253 1.27563
 C2 C -0.02572 0.48662 1.27565
 C3 C -0.05039 0.47386 1.25035
 C4 C -0.02589 0.48663 1.22505
 C5 C 0.02405 0.51261 1.22504
 C6 C 0.04875 0.52531 1.25030
 H7 H 0.08721 0.54528 1.25019
 H8 H -0.08888 0.45390 1.25034
 C9 C 0.48743 0.51407 1.27561
 C10 C 0.51246 0.48849 1.27562
 C11 C 0.52496 0.47607 1.25035
 C12 C 0.51275 0.48873 1.22508
 C13 C 0.48763 0.51413 1.22506
 C14 C 0.47518 0.52667 1.25030
 H15 H 0.45583 0.54629 1.25019
 H16 H 0.54427 0.45644 1.25036
 C17 C 0.48562 0.97456 1.27615
 C18 C 0.51269 1.02474 1.27628
 C19 C 0.52592 1.04950 1.25104
 C20 C 0.51258 1.02494 1.22574
 C21 C 0.48562 0.97495 1.22561
 C22 C 0.47231 0.95009 1.25077
 H23 H 0.45153 0.91152 1.25055
 H24 H 0.54673 1.08807 1.25103
 C25 C 0.97620 0.48814 0.72504
 C26 C 1.02605 0.51443 0.72508
 C27 C 1.05066 0.52755 0.75035
 C28 C 1.02605 0.51469 0.77561
 C29 C 0.97611 0.48835 0.77556
 C30 C 0.95157 0.47529 0.75026
 H31 H 0.91314 0.45501 0.75019
 H32 H 1.08911 0.54780 0.75030
 C33 C 0.51227 0.48676 0.72480
 C34 C 0.48638 0.51138 0.72474
 C35 C 0.47345 0.52344 0.74997
 C36 C 0.48601 0.51116 0.77525
 C37 C 0.51180 0.48643 0.77532
 C38 C 0.52477 0.47441 0.75009
 H39 H 0.54468 0.45538 0.75013
 H40 H 0.45355 0.54248 0.74992
 C41 C 0.51390 0.02303 0.72465
 C42 C 0.48679 -0.02706 0.72456
 C43 C 0.47341 -0.05174 0.74983
 C44 C 0.48671 -0.02708 0.77516
 C45 C 0.51381 0.02300 0.77521
 C46 C 0.52719 0.04764 0.74996
 H47 H 0.54802 0.08618 0.75000
 H48 H 0.45252 -0.09033 0.74978
 O49 O 0.40024 0.66955 0.96800
 O50 O 0.40199 0.75023 0.97601
 C51 C 0.37191 0.75633 0.96223
 O52 O 0.32813 0.73583 0.96782
 O53 O 0.24845 0.65814 0.97631
 C54 C 0.24261 0.62197 0.96262
 O55 O 0.26357 0.59860 0.96819
 O56 O 0.34167 0.59586 0.97644
 C57 C 0.37736 0.62552 0.96261
 O58 O 0.40277 0.65726 1.02341
 O59 O 0.40031 0.73584 1.03145
 C60 C 0.37713 0.75702 1.03692
 O61 O 0.34120 0.75125 1.02316
 O62 O 0.26362 0.67142 1.03165
 C63 C 0.24302 0.62749 1.03727
 O64 O 0.24906 0.59717 1.02358
 O65 O 0.32925 0.59866 1.03181
 C66 C 0.37309 0.62152 1.03725
 Cr67 Cr 0.39872 0.70193 0.99972
 Cr68 Cr 0.29667 0.70284 0.99974
 Cr69 Cr 0.29718 0.60019 1.00000
 O70 O 0.33086 0.66832 0.99982
 O71 O 0.59697 0.34314 0.97678
 O72 O 0.59987 0.26479 0.96861
 C73 C 0.62326 0.24384 0.96310
 O74 O 0.65926 0.24980 0.97688
 O75 O 0.73671 0.32992 0.96881
 C76 C 0.75710 0.37387 0.96327
 O77 O 0.75075 0.40397 0.97697
 O78 O 0.67040 0.40215 0.96866
 C79 C 0.62661 0.37911 0.96308
 O80 O 0.59912 0.33053 1.03218
 O81 O 0.59787 0.25010 1.02402
 C82 C 0.62794 0.24399 1.03780
 O83 O 0.67175 0.26467 1.03231
 O84 O 0.75131 0.34267 1.02424
 C85 C 0.75696 0.37876 1.03797
 O86 O 0.73591 0.40203 1.03237
 O87 O 0.65761 0.40438 1.02404
 C88 C 0.62183 0.37451 1.03772
 Cr89 Cr 0.60108 0.29845 1.00040
 Cr90 Cr 0.70343 0.29809 1.00056
 Cr91 Cr 0.70238 0.40050 1.00051
 O92 O 0.66896 0.33235 1.00049
 O93 O 0.65817 0.40433 0.52341
 O94 O 0.73658 0.40208 0.53140
 C95 C 0.75779 0.37892 0.53685
 O96 O 0.75211 0.34285 0.52310
 O97 O 0.67275 0.26482 0.53165
 C98 C 0.62901 0.24405 0.53734
 O99 O 0.59871 0.25006 0.52374
 O100 O 0.60000 0.33049 0.53194
 C101 C 0.62266 0.37453 0.53731
 O102 O 0.67027 0.40169 0.46800
 O103 O 0.75078 0.40371 0.47598
 C104 C 0.75697 0.37359 0.46219
 O105 O 0.73662 0.32964 0.46777
 O106 O 0.65936 0.24954 0.47633
 C107 C 0.62317 0.24349 0.46274
 O108 O 0.59984 0.26446 0.46835
 O109 O 0.59696 0.34279 0.47657
 C110 C 0.62639 0.37863 0.46269
 Cr111 Cr 0.70267 0.40033 0.49971
 Cr112 Cr 0.70388 0.29803 0.49972
 Cr113 Cr 0.60148 0.29825 0.50014
 O114 O 0.66934 0.33220 0.49985
 O115 O 0.34255 0.59534 0.52298
 O116 O 0.26426 0.59773 0.53106
 C117 C 0.24322 0.62103 0.53665
 O118 O 0.24890 0.65712 0.52298
 O119 O 0.32839 0.73511 0.53150
 C120 C 0.37215 0.75571 0.53722
 O121 O 0.40232 0.74962 0.52356
 O122 O 0.40094 0.66912 0.53153
 C123 C 0.37819 0.62511 0.53688
 O124 O 0.33016 0.59793 0.46757
 O125 O 0.24975 0.59605 0.47563
 C126 C 0.24346 0.62618 0.46195
 O127 O 0.26386 0.67012 0.46761
 O128 O 0.34129 0.75018 0.47614
 C129 C 0.37739 0.75618 0.46252
 O130 O 0.40078 0.73525 0.46811
 O131 O 0.40355 0.65683 0.47609
 C132 C 0.37400 0.62099 0.46219
 Cr133 Cr 0.29797 0.59939 0.49932
 Cr134 Cr 0.29694 0.70181 0.49956
 Cr135 Cr 0.39928 0.70140 0.49981
 O136 O 0.33140 0.66754 0.49956
 C137 C 0.47475 0.52697 0.29981
 C138 C 0.46334 0.53863 0.32099
 C139 C 0.44932 0.55296 0.34596
 C140 C 0.45025 0.53286 0.37159
 C141 C 0.43588 0.54653 0.39571
 C142 C 0.42056 0.58032 0.39425
 C143 C 0.41986 0.60051 0.36863
 C144 C 0.43420 0.58687 0.34455
 C145 C 0.40486 0.59402 0.41881
 C146 C 0.39111 0.60603 0.43891
 H147 H 0.46184 0.50657 0.37289
 H148 H 0.43650 0.53065 0.41541
 H149 H 0.40803 0.62661 0.36725
 H150 H 0.43331 0.60259 0.32484
 C151 C 0.47203 0.94896 0.30025
 C152 C 0.45998 0.92608 0.32140
 C153 C 0.44537 0.89813 0.34637
 C154 C 0.46626 0.91852 0.37192
 C155 C 0.45250 0.89083 0.39605
 C156 C 0.41781 0.84270 0.39469
 C157 C 0.39678 0.82248 0.36916
 C158 C 0.41053 0.85011 0.34507
 C159 C 0.40417 0.81359 0.41923
 C160 C 0.39223 0.78803 0.43930
 H161 H 0.49329 0.95562 0.37314
 H162 H 0.46904 0.90680 0.41568
 H163 H 0.36999 0.78529 0.36786
 H164 H 0.39419 0.83400 0.32542
 C165 C 0.04992 0.52559 0.29978
 C166 C 0.07295 0.53729 0.32090
 C167 C 0.10124 0.55160 0.34579
 C168 C 0.08057 0.55076 0.37150
 C169 C 0.10848 0.56523 0.39556
 C170 C 0.15712 0.58055 0.39397
 C171 C 0.17766 0.58122 0.36827
 C172 C 0.14981 0.56678 0.34425
 C173 C 0.18629 0.59608 0.41851
 C174 C 0.21181 0.60957 0.43862
 H175 H 0.04305 0.53913 0.37291
 H176 H 0.09222 0.56461 0.41532
 H177 H 0.21523 0.59304 0.36679
 H178 H 0.16615 0.56759 0.32448
 C179 C 0.52566 0.47450 0.30114
 C180 C 0.53691 0.46251 0.32224
 C181 C 0.55078 0.44776 0.34709
 C182 C 0.54997 0.46762 0.37284
 C183 C 0.56429 0.45362 0.39685
 C184 C 0.57942 0.41970 0.39514
 C185 C 0.57998 0.39972 0.36940
 C186 C 0.56570 0.41371 0.34544
 C187 C 0.59519 0.40577 0.41956
 C188 C 0.60907 0.39363 0.43954
 H189 H 0.53854 0.49403 0.37433
 H190 H 0.56379 0.46935 0.41665
 H191 H 0.59169 0.37354 0.36784
 H192 H 0.56650 0.39816 0.32563
 C193 C 0.52648 0.05011 0.30049
 C194 C 0.53880 0.07288 0.32170
 C195 C 0.55381 0.10083 0.34670
 C196 C 0.58998 0.14831 0.34554
 C197 C 0.60407 0.17605 0.36963
 C198 C 0.58207 0.15646 0.39501
 C199 C 0.54608 0.10885 0.39624
 C200 C 0.53196 0.08105 0.37210
 C201 C 0.59598 0.18576 0.41951
 C202 C 0.60812 0.21148 0.43955
 H203 H 0.60705 0.16394 0.32600
 H204 H 0.63187 0.21285 0.36845
 H205 H 0.52877 0.09339 0.41575
 H206 H 0.50390 0.04437 0.37320
 C207 C 0.94892 0.47360 0.29983
 C208 C 0.92609 0.46195 0.32097
 C209 C 0.89805 0.44772 0.34588
 C210 C 0.91918 0.44974 0.37164
 C211 C 0.89152 0.43540 0.39574
 C212 C 0.84267 0.41901 0.39414
 C213 C 0.82165 0.41714 0.36839
 C214 C 0.84926 0.43146 0.34433
 C215 C 0.81375 0.40360 0.41872
 C216 C 0.78843 0.39018 0.43884
 H217 H 0.95688 0.46222 0.37305
 H218 H 0.90812 0.43694 0.41554
 H219 H 0.78391 0.40448 0.36691
 H220 H 0.83257 0.42973 0.32453
 C221 C 0.52639 0.47532 1.19953
 C222 C 0.53812 0.46389 1.17839
 C223 C 0.55263 0.44984 1.15350
 C224 C 0.53061 0.44776 1.12806
 C225 C 0.54445 0.43333 1.10403
 C226 C 0.58035 0.42096 1.10539
 C227 C 0.60246 0.42328 1.13081
 C228 C 0.58864 0.43768 1.15480
 C229 C 0.59427 0.40519 1.08094
 C230 C 0.60652 0.39147 1.06093
 H231 H 0.50268 0.45703 1.12684
 H232 H 0.52708 0.43159 1.08448
 H233 H 0.63020 0.41374 1.13211
 H234 H 0.60586 0.43913 1.17436
 C235 C 0.94882 0.47348 1.20083
 C236 C 0.92610 0.46166 1.17960
 C237 C 0.89824 0.44716 1.15455
 C238 C 0.91832 0.46876 1.12914
 C239 C 0.89073 0.45497 1.10494
 C240 C 0.84301 0.41954 1.10610
 C241 C 0.82307 0.39784 1.13150
 C242 C 0.85061 0.41160 1.15565
 C243 C 0.81401 0.40579 1.08147
 C244 C 0.78859 0.39374 1.06132
 H245 H 0.95511 0.49634 1.12806
 H246 H 0.90649 0.47205 1.08542
 H247 H 0.78620 0.37047 1.13265
 H248 H 0.83471 0.39470 1.17518
 C249 C 0.52700 0.05174 1.20023
 C250 C 0.53928 0.07457 1.17908
 C251 C 0.55437 0.10258 1.15414
 C252 C 0.58709 0.15125 1.15579
 C253 C 0.60162 0.17885 1.13170
 C254 C 0.58351 0.15793 1.10582
 C255 C 0.55085 0.10919 1.10411
 C256 C 0.53629 0.08154 1.12825
 C257 C 0.59837 0.18686 1.08120
 C258 C 0.61150 0.21229 1.06108
 H259 H 0.60126 0.16786 1.17570
 H260 H 0.62686 0.21650 1.13325
 H261 H 0.53660 0.09267 1.08420
 H262 H 0.51093 0.04392 1.12676
 C263 C 0.47408 0.52753 1.19948
 C264 C 0.46233 0.53890 1.17834
 C265 C 0.44768 0.55277 1.15345
 C266 C 0.46293 0.54632 1.12738
 C267 C 0.44844 0.55992 1.10328
 C268 C 0.41868 0.58000 1.10522
 C269 C 0.40349 0.58641 1.13130
 C270 C 0.41794 0.57284 1.15535
 C271 C 0.40351 0.59414 1.08063
 C272 C 0.39003 0.60641 1.06053
 H273 H 0.48595 0.53084 1.12569
 H274 H 0.46039 0.55481 1.08321
 H275 H 0.38047 0.60190 1.13304
 H276 H 0.40595 0.57797 1.17540
 C277 C 0.05081 0.52681 1.19950
 C278 C 0.07363 0.53900 1.17838
 C279 C 0.10168 0.55405 1.15348
 C280 C 0.14995 0.58764 1.15513
 C281 C 0.17758 0.60218 1.13109
 C282 C 0.15710 0.58322 1.10524
 C283 C 0.10877 0.54968 1.10354
 C284 C 0.08108 0.53512 1.12763
 C285 C 0.18606 0.59807 1.08068
 C286 C 0.21145 0.61116 1.06057
 H287 H 0.16623 0.60249 1.17501
 H288 H 0.21491 0.62809 1.13265
 H289 H 0.09258 0.53476 1.08366
 H290 H 0.04378 0.50908 1.12613
 C291 C 0.47137 0.94846 1.19995
 C292 C 0.45937 0.92596 1.17864
 C293 C 0.44477 0.89839 1.15349
 C294 C 0.46827 0.91796 1.12844
 C295 C 0.45458 0.89050 1.10418
 C296 C 0.41736 0.84343 1.10491
 C297 C 0.39371 0.82405 1.12993
 C298 C 0.40738 0.85146 1.15415
 C299 C 0.40386 0.81441 1.08030
 C300 C 0.39199 0.78888 1.06018
 H301 H 0.49730 0.95422 1.12773
 H302 H 0.47317 0.90579 1.08495
 H303 H 0.36495 0.78766 1.13074
 H304 H 0.38903 0.83598 1.17342
 C305 C 0.52640 0.47382 0.69927
 C306 C 0.53847 0.46277 0.67813
 C307 C 0.55327 0.44912 0.65323
 C308 C 0.58720 0.43416 0.65481
 C309 C 0.60123 0.42007 0.63079
 C310 C 0.58140 0.42086 0.60507
 C311 C 0.54761 0.43605 0.60343
 C312 C 0.53356 0.45017 0.62749
 C313 C 0.59538 0.40529 0.58058
 C314 C 0.60758 0.39160 0.56054
 H315 H 0.60263 0.43318 0.67461
 H316 H 0.62732 0.40832 0.63229
 H317 H 0.53200 0.43672 0.58364
 H318 H 0.50725 0.46164 0.62606
 C319 C 0.52848 0.05001 0.69916
 C320 C 0.54089 0.07303 0.67807
 C321 C 0.55610 0.10130 0.65322
 C322 C 0.59145 0.14911 0.65477
 C323 C 0.60598 0.17703 0.63079
 C324 C 0.58524 0.15731 0.60512
 C325 C 0.54999 0.10941 0.60351
 C326 C 0.53544 0.08144 0.62753
 C327 C 0.59996 0.18662 0.58065
 C328 C 0.61289 0.21226 0.56060
 H329 H 0.60763 0.16482 0.67452
 H330 H 0.63322 0.21402 0.63228
 H331 H 0.53368 0.09382 0.58377
 H332 H 0.50802 0.04452 0.62611
 C333 C 0.94963 0.47399 0.69944
 C334 C 0.92702 0.46199 0.67821
 C335 C 0.89927 0.44735 0.65316
 C336 C 0.85168 0.41175 0.65426
 C337 C 0.82418 0.39796 0.63011
 C338 C 0.84414 0.41969 0.60473
 C339 C 0.89185 0.45513 0.60356
 C340 C 0.91940 0.46894 0.62775
 C341 C 0.81514 0.40600 0.58015
 C342 C 0.78962 0.39396 0.56007
 H343 H 0.83577 0.39488 0.67380
 H344 H 0.78731 0.37059 0.63126
 H345 H 0.90760 0.47221 0.58404
 H346 H 0.95618 0.49655 0.62669
 C347 C 0.47272 0.52463 0.69913
 C348 C 0.46101 0.53594 0.67795
 C349 C 0.44659 0.54988 0.65299
 C350 C 0.46687 0.54936 0.62738
 C351 C 0.45314 0.56371 0.60327
 C352 C 0.41910 0.57858 0.60473
 C353 C 0.39873 0.57887 0.63033
 C354 C 0.41243 0.56456 0.65439
 C355 C 0.40534 0.59428 0.58019
 C356 C 0.39325 0.60802 0.56012
 H357 H 0.49336 0.53812 0.62608
 H358 H 0.46917 0.56341 0.58358
 H359 H 0.37243 0.59037 0.63170
 H360 H 0.39656 0.56514 0.67409
 C361 C 0.47307 0.94769 0.70030
 C362 C 0.46071 0.92495 0.67906
 C363 C 0.44550 0.89701 0.65401
 C364 C 0.46566 0.91741 0.62837
 C365 C 0.45106 0.88979 0.60416
 C366 C 0.41626 0.84171 0.60552
 C367 C 0.39605 0.82144 0.63115
 C368 C 0.41062 0.84901 0.65532
 C369 C 0.40146 0.81274 0.58084
 C370 C 0.38843 0.78734 0.56064
 H371 H 0.49270 0.95450 0.62714
 H372 H 0.46697 0.90582 0.58446
 H373 H 0.36916 0.78430 0.63246
 H374 H 0.39483 0.83287 0.67503
 C375 C 0.05263 0.52820 0.69951
 C376 C 0.07521 0.53983 0.67829
 C377 C 0.10286 0.55399 0.65323
 C378 C 0.08199 0.53365 0.62768
 C379 C 0.10935 0.54706 0.60345
 C380 C 0.15764 0.58086 0.60475
 C381 C 0.17837 0.60131 0.63029
 C382 C 0.15106 0.58792 0.65447
 C383 C 0.18637 0.59429 0.58009
 C384 C 0.21165 0.60614 0.55995
 H385 H 0.04473 0.50733 0.62651
 H386 H 0.09298 0.53098 0.58381
 H387 H 0.21569 0.62743 0.63153
 H388 H 0.16756 0.60383 0.67412
 C389 C 0.47219 0.52443 0.80078
 C390 C 0.46044 0.53591 0.82188
 C391 C 0.44609 0.55021 0.84671
 C392 C 0.45862 0.54087 0.87290
 C393 C 0.44485 0.55533 0.89694
 C394 C 0.41851 0.57914 0.89483
 C395 C 0.40593 0.58832 0.86864
 C396 C 0.41969 0.57390 0.84465
 C397 C 0.40454 0.59462 0.91936
 C398 C 0.39238 0.60833 0.93940
 H399 H 0.47905 0.52257 0.87471
 H400 H 0.45479 0.54809 0.91710
 H401 H 0.38561 0.60673 0.86678
 H402 H 0.40984 0.58131 0.82451
 C403 C 0.05120 0.52797 0.79985
 C404 C 0.07377 0.53983 0.82110
 C405 C 0.10144 0.55429 0.84619
 C406 C 0.08160 0.53165 0.87141
 C407 C 0.10910 0.54528 0.89562
 C408 C 0.15647 0.58157 0.89465
 C409 C 0.17614 0.60434 0.86945
 C410 C 0.14870 0.59073 0.84528
 C411 C 0.18543 0.59510 0.91925
 C412 C 0.21088 0.60703 0.93935
 H413 H 0.04509 0.50337 0.87230
 H414 H 0.09357 0.52739 0.91500
 H415 H 0.21275 0.63238 0.86847
 H416 H 0.16438 0.60841 0.82588
 C417 C 0.47297 0.94765 0.79935
 C418 C 0.46063 0.92493 0.82054
 C419 C 0.44549 0.89705 0.84555
 C420 C 0.46402 0.91809 0.87137
 C421 C 0.44944 0.89057 0.89556
 C422 C 0.41628 0.84195 0.89399
 C423 C 0.39771 0.82104 0.86817
 C424 C 0.41227 0.84851 0.84402
 C425 C 0.40141 0.81315 0.91866
 C426 C 0.38831 0.78785 0.93885
 H427 H 0.48978 0.95560 0.87277
 H428 H 0.46406 0.90709 0.91542
 H429 H 0.37209 0.78349 0.86670
 H430 H 0.39774 0.83189 0.82416
 C431 C 0.52526 0.47298 0.80092
 C432 C 0.53671 0.46142 0.82211
 C433 C 0.55075 0.44714 0.84709
 C434 C 0.55969 0.40880 0.84635
 C435 C 0.57418 0.39522 0.87039
 C436 C 0.57982 0.41991 0.89531
 C437 C 0.57064 0.45813 0.89612
 C438 C 0.55612 0.47173 0.87203
 C439 C 0.59577 0.40627 0.91978
 C440 C 0.60960 0.39422 0.93983
 H441 H 0.55570 0.38958 0.82717
 H442 H 0.58125 0.36567 0.86952
 H443 H 0.57496 0.47752 0.91527
 H444 H 0.54936 0.50148 0.87281
 C445 C 0.94925 0.47421 0.80106
 C446 C 0.92641 0.46214 0.82217
 C447 C 0.89838 0.44728 0.84708
 C448 C 0.84995 0.41426 0.84542
 C449 C 0.82236 0.39987 0.86947
 C450 C 0.84305 0.41842 0.89534
 C451 C 0.89154 0.45141 0.89705
 C452 C 0.91918 0.46582 0.87294
 C453 C 0.81414 0.40360 0.91992
 C454 C 0.78875 0.39044 0.94002
 H455 H 0.83353 0.39972 0.82553
 H456 H 0.78491 0.37437 0.86791
 H457 H 0.90788 0.46600 0.91695
 H458 H 0.95661 0.49142 0.87445
 C459 C 0.52818 0.04995 0.80079
 C460 C 0.54031 0.07285 0.82197
 C461 C 0.55507 0.10094 0.84697
 C462 C 0.59197 0.14811 0.84597
 C463 C 0.60582 0.17596 0.87004
 C464 C 0.58285 0.15680 0.89526
 C465 C 0.54611 0.10950 0.89633
 C466 C 0.53225 0.08161 0.87222
 C467 C 0.59656 0.18620 0.91977
 C468 C 0.60849 0.21191 0.93983
 H469 H 0.60982 0.16343 0.82655
 H470 H 0.63420 0.21250 0.86895
 H471 H 0.52804 0.09435 0.91571
 H472 H 0.50361 0.04518 0.87322
   
