data_POSCAR
  _audit_creation_date              2014-09-24
  _audit_creation_method            'ToBaCCo'
  _symmetry_space_group_name_H-M    'P1'
  _symmetry_Int_Tables_number       1
  _symmetry_cell_setting            triclinic
  loop_
  _symmetry_equiv_pos_as_xyz
 x,y,z
_cell_length_a 35.1946
_cell_length_b 34.9382
_cell_length_c 42.3495
_cell_angle_alpha 90.244500
_cell_angle_beta 90.223300
_cell_angle_gamma 90.115600
loop_
  _atom_site_label
  _atom_site_type_symbol
  _atom_site_fract_x
  _atom_site_fract_y
  _atom_site_fract_z
Si1 Si 1.25276 0.25345 0.25078
 Si2 Si 0.74961 -0.25076 0.24971
 Si3 Si 0.75246 0.25049 -0.25051
 Si4 Si 1.25060 -0.24614 -0.24929
 Si5 Si 0.24723 0.24686 0.74921
 Si6 Si 0.74931 0.74926 0.75011
 Si7 Si 0.74654 0.25084 0.25029
 Si8 Si 0.24911 0.74739 0.24912
 O9 O 1.06541 0.01937 0.04214
 O10 O 0.93547 -0.02032 0.04137
 O11 O 0.98058 0.06515 0.04221
 O12 O 1.02055 -0.06572 0.04095
 O13 O 0.92825 0.04419 0.02428
 O14 O 1.07286 -0.04463 0.02369
 O15 O 0.95672 -0.07276 0.02344
 O16 O 1.04441 0.07238 0.02534
 C17 C 1.06086 0.05396 0.04655
 C18 C 0.94056 -0.05492 0.04514
 C19 C 0.94613 0.06068 0.04590
 C20 C 1.05499 -0.06138 0.04497
 O21 O 1.06532 -0.01918 -0.03692
 O22 O 0.93531 0.02036 -0.03685
 O23 O 1.02063 0.06581 -0.03610
 O24 O 0.98038 -0.06496 -0.03758
 O25 O 0.92813 -0.04415 -0.01982
 O26 O 1.07280 0.04473 -0.01839
 O27 O 1.04431 -0.07224 -0.02034
 O28 O 0.95675 0.07295 -0.01900
 Co29 Co 1.06246 0.00006 0.00261
 Co30 Co 0.93844 0.00001 0.00227
 Co31 Co 1.00060 0.06243 0.00303
 Co32 Co 1.00051 -0.06231 0.00170
 O33 O 1.00050 0.00005 0.00240
 C34 C 1.06060 -0.05372 -0.04150
 C35 C 0.93999 0.05505 -0.04053
 C36 C 1.05501 0.06112 -0.03995
 C37 C 0.94593 -0.06046 -0.04144
 O38 O 1.07405 0.54549 0.52138
 O39 O 0.92918 0.45697 0.52097
 O40 O 0.95811 0.57399 0.52125
 O41 O 1.04522 0.42854 0.52183
 O42 O 0.93671 0.52134 0.53847
 O43 O 1.06656 0.48136 0.53923
 O44 O 0.98135 0.43594 0.53886
 O45 O 1.02194 0.56673 0.53891
 C46 C 1.05629 0.56181 0.54298
 C47 C 0.94692 0.44053 0.54256
 C48 C 0.94143 0.55600 0.54252
 C49 C 1.06156 0.44679 0.54335
 O50 O 1.07370 0.45647 0.47843
 O51 O 0.92976 0.54536 0.47751
 O52 O 1.04595 0.57357 0.47771
 O53 O 0.95760 0.42831 0.47763
 O54 O 0.93676 0.48089 0.45993
 O55 O 1.06686 0.52064 0.46049
 O56 O 1.02147 0.43535 0.46053
 O57 O 0.98216 0.56634 0.46023
 Co58 Co 1.06372 0.50100 0.49985
 Co59 Co 0.93974 0.50113 0.49924
 Co60 Co 1.00201 0.56351 0.49955
 Co61 Co 1.00146 0.43867 0.49970
 O62 O 1.00173 0.50108 0.49959
 C63 C 1.05581 0.44035 0.45665
 C64 C 0.94777 0.56167 0.45610
 C65 C 1.06226 0.55525 0.45632
 C66 C 0.94136 0.44621 0.45602
 O67 O 0.57206 0.04232 0.52047
 O68 O 0.42767 -0.04623 0.52092
 O69 O 0.45592 0.07080 0.52086
 O70 O 0.54370 -0.07463 0.52033
 O71 O 0.43480 0.01819 0.53830
 O72 O 0.56479 -0.02185 0.53786
 O73 O 0.48011 -0.06726 0.53828
 O74 O 0.52004 0.06366 0.53830
 C75 C 0.55450 0.05896 0.54206
 C76 C 0.44583 -0.06216 0.54252
 C77 C 0.43965 0.05284 0.54234
 C78 C 0.56020 -0.05649 0.54180
 O79 O 0.57129 -0.04623 0.47671
 O80 O 0.42730 0.04200 0.47729
 O81 O 0.54346 0.07071 0.47717
 O82 O 0.45524 -0.07498 0.47737
 O83 O 0.43419 -0.02252 0.45969
 O84 O 0.56411 0.01801 0.45937
 O85 O 0.51876 -0.06753 0.45948
 O86 O 0.47948 0.06345 0.45984
 Co87 Co 0.56147 -0.00196 0.49863
 Co88 Co 0.43755 -0.00214 0.49902
 Co89 Co 0.49971 0.06048 0.49905
 Co90 Co 0.49947 -0.06445 0.49887
 O91 O 0.49954 -0.00201 0.49890
 C92 C 0.55303 -0.06253 0.45521
 C93 C 0.44511 0.05843 0.45582
 C94 C 0.55941 0.05264 0.45550
 C95 C 0.43891 -0.05720 0.45574
 O96 O 0.57079 0.54510 0.02073
 O97 O 0.42752 0.45492 0.02068
 O98 O 0.45451 0.57228 0.02058
 O99 O 0.54383 0.42784 0.02084
 O100 O 0.43397 0.51956 0.03823
 O101 O 0.56427 0.48087 0.03843
 O102 O 0.48005 0.43433 0.03818
 O103 O 0.51837 0.56573 0.03816
 C104 C 0.55274 0.56115 0.04231
 C105 C 0.44573 0.43913 0.04231
 C106 C 0.43845 0.55429 0.04217
 C107 C 0.55975 0.44623 0.04249
 O108 O 0.57175 0.45625 -0.02258
 O109 O 0.42644 0.54315 -0.02292
 O110 O 0.54228 0.57289 -0.02291
 O111 O 0.45587 0.42646 -0.02285
 O112 O 0.43406 0.47876 -0.04034
 O113 O 0.56370 0.52024 -0.04021
 O114 O 0.51969 0.43437 -0.04033
 O115 O 0.47847 0.56477 -0.04046
 Co116 Co 0.56103 0.50054 -0.00092
 Co117 Co 0.43707 0.49917 -0.00108
 Co118 Co 0.49849 0.56226 -0.00115
 Co119 Co 0.49978 0.43739 -0.00106
 O120 O 0.49908 0.49984 -0.00107
 C121 C 0.55407 0.43938 -0.04413
 C122 C 0.44412 0.55955 -0.04447
 C123 C 0.55877 0.55480 -0.04430
 C124 C 0.43918 0.44416 -0.04433
 C125 C 1.18015 0.17401 0.18546
 C126 C 1.20613 0.19965 0.17225
 C127 C 1.22825 0.22316 0.19172
 C128 C 1.22433 0.22148 0.22462
 C129 C 1.19899 0.19501 0.23785
 C130 C 1.17678 0.17147 0.21832
 C131 C 1.15676 0.15097 0.16496
 C132 C 1.13768 0.13270 0.14665
 C133 C 1.11572 0.11209 0.12347
 C134 C 1.09155 0.13215 0.10315
 C135 C 1.07286 0.11300 0.07858
 C136 C 1.07824 0.07351 0.07401
 C137 C 1.10164 0.05331 0.09516
 C138 C 1.12038 0.07257 0.11970
 H139 H 1.20915 0.20163 0.14685
 H140 H 1.24823 0.24255 0.18087
 H141 H 1.19605 0.19294 0.26323
 H142 H 1.15688 0.15158 0.22879
 H143 H 1.08785 0.16277 0.10583
 H144 H 1.05482 0.12923 0.06279
 H145 H 1.10622 0.02284 0.09225
 H146 H 1.13915 0.05682 0.13525
 C147 C 1.17849 0.67541 0.68403
 C148 C 1.20461 0.70128 0.67130
 C149 C 1.22648 0.72453 0.69117
 C150 C 1.22222 0.72238 0.72404
 C151 C 1.19668 0.69574 0.73678
 C152 C 1.17471 0.67246 0.71684
 C153 C 1.15560 0.65240 0.66309
 C154 C 1.13709 0.63407 0.64439
 C155 C 1.11594 0.61329 0.62076
 C156 C 1.13509 0.58922 0.59971
 C157 C 1.11543 0.57176 0.57480
 C158 C 1.07633 0.57827 0.57058
 C159 C 1.05702 0.60160 0.59239
 C160 C 1.07679 0.61912 0.61729
 H161 H 1.20799 0.70357 0.64595
 H162 H 1.24662 0.74402 0.68067
 H163 H 1.19347 0.69329 0.76212
 H164 H 1.15473 0.65237 0.72695
 H165 H 1.16540 0.58463 0.60212
 H166 H 1.13098 0.55372 0.55851
 H167 H 1.02688 0.60701 0.58978
 H168 H 1.06174 0.63785 0.63338
 C169 C 0.67864 0.17438 0.68162
 C170 C 0.70417 0.20114 0.66931
 C171 C 0.72644 0.22360 0.68955
 C172 C 0.72333 0.21971 0.72241
 C173 C 0.69807 0.19241 0.73466
 C174 C 0.67575 0.16991 0.71437
 C175 C 0.65558 0.15180 0.66041
 C176 C 0.63686 0.13357 0.64174
 C177 C 0.61540 0.11258 0.61835
 C178 C 0.63424 0.08813 0.59740
 C179 C 0.61420 0.07000 0.57301
 C180 C 0.57497 0.07618 0.56920
 C181 C 0.55600 0.09997 0.59088
 C182 C 0.57616 0.11816 0.61525
 H183 H 0.70681 0.20473 0.64400
 H184 H 0.74594 0.24396 0.67930
 H185 H 0.69553 0.18861 0.75993
 H186 H 0.65622 0.14916 0.72419
 H187 H 0.66460 0.08365 0.59952
 H188 H 0.62953 0.05165 0.55682
 H189 H 0.52578 0.10519 0.58857
 H190 H 0.56130 0.13712 0.63128
 C191 C 0.67087 0.67343 0.18651
 C192 C 0.69658 0.65588 0.20718
 C193 C 0.71981 0.67825 0.22680
 C194 C 0.71771 0.71832 0.22558
 C195 C 0.69106 0.73568 0.20558
 C196 C 0.66787 0.71335 0.18602
 C197 C 0.64898 0.65085 0.16456
 C198 C 0.63123 0.63282 0.14519
 C199 C 0.61083 0.61237 0.12096
 C200 C 0.63067 0.58923 0.09964
 C201 C 0.61157 0.57190 0.07438
 C202 C 0.57236 0.57763 0.07009
 C203 C 0.55241 0.60009 0.09211
 C204 C 0.57161 0.61746 0.11735
 H205 H 0.69906 0.62498 0.20777
 H206 H 0.73955 0.66417 0.24250
 H207 H 0.68878 0.76657 0.20460
 H208 H 0.64808 0.72722 0.17011
 H209 H 0.66104 0.58521 0.10218
 H210 H 0.62760 0.55453 0.05792
 H211 H 0.52217 0.60488 0.08945
 H212 H 0.55603 0.63546 0.13367
 C213 C 0.82815 -0.17829 0.18453
 C214 C 0.80273 -0.20476 0.17132
 C215 C 0.77945 -0.22673 0.19076
 C216 C 0.78112 -0.22221 0.22366
 C217 C 0.80729 -0.19631 0.23690
 C218 C 0.83061 -0.17424 0.21739
 C219 C 0.85113 -0.15525 0.16400
 C220 C 0.86938 -0.13659 0.14559
 C221 C 0.88998 -0.11523 0.12227
 C222 C 0.91376 -0.13447 0.10113
 C223 C 0.93095 -0.11461 0.07644
 C224 C 0.92444 -0.07521 0.07254
 C225 C 0.90143 -0.05582 0.09446
 C226 C 0.88418 -0.07580 0.11913
 H227 H 0.80081 -0.20833 0.14593
 H228 H 0.76030 -0.24714 0.17990
 H229 H 0.80936 -0.19290 0.26228
 H230 H 0.85033 -0.15397 0.22787
 H231 H 0.91831 -0.16501 0.10328
 H232 H 0.94875 -0.13023 0.06006
 H233 H 0.89602 -0.02545 0.09209
 H234 H 0.86567 -0.06067 0.13529
 C235 C 0.82710 0.32810 0.68511
 C236 C 0.78839 0.33592 0.68908
 C237 C 0.76641 0.31320 0.70909
 C238 C 0.78293 0.28246 0.72528
 C239 C 0.82185 0.27509 0.72168
 C240 C 0.84384 0.29783 0.70166
 C241 C 0.84905 0.34982 0.66278
 C242 C 0.86691 0.36743 0.64338
 C243 C 0.88757 0.38774 0.61937
 C244 C 0.86802 0.41104 0.59800
 C245 C 0.88748 0.42883 0.57336
 C246 C 0.92683 0.42347 0.56973
 C247 C 0.94645 0.40074 0.59174
 C248 C 0.92688 0.38291 0.61637
 H249 H 0.77507 0.35911 0.67627
 H250 H 0.73636 0.31913 0.71144
 H251 H 0.83510 0.25128 0.73366
 H252 H 0.87369 0.29135 0.69861
 H253 H 0.83759 0.41495 0.60007
 H254 H 0.87165 0.44634 0.55689
 H255 H 0.97676 0.39616 0.58960
 H256 H 0.94230 0.36489 0.63273
 C257 C 0.32666 -0.16802 0.68811
 C258 C 0.34379 -0.19394 0.70886
 C259 C 0.32133 -0.21672 0.72849
 C260 C 0.28159 -0.21401 0.72719
 C261 C 0.26466 -0.18697 0.70724
 C262 C 0.28708 -0.16421 0.68766
 C263 C 0.34928 -0.14702 0.66588
 C264 C 0.36739 -0.13013 0.64626
 C265 C 0.38792 -0.11083 0.62170
 C266 C 0.42693 -0.11695 0.61789
 C267 C 0.44611 -0.10046 0.59245
 C268 C 0.42633 -0.07787 0.57045
 C269 C 0.38734 -0.07116 0.57492
 C270 C 0.36828 -0.08759 0.60037
 H271 H 0.37440 -0.19705 0.70944
 H272 H 0.33512 -0.23674 0.74415
 H273 H 0.23403 -0.18421 0.70619
 H274 H 0.27352 -0.14426 0.67169
 H275 H 0.44237 -0.13502 0.63422
 H276 H 0.47619 -0.10601 0.58966
 H277 H 0.37143 -0.05367 0.55848
 H278 H 0.33806 -0.08274 0.60306
 C279 C 0.32781 0.33179 0.18768
 C280 C 0.28820 0.33509 0.18719
 C281 C 0.26608 0.31215 0.20682
 C282 C 0.28335 0.28544 0.22687
 C283 C 0.32312 0.28316 0.22815
 C284 C 0.34528 0.30613 0.20846
 C285 C 0.35014 0.35310 0.16549
 C286 C 0.36801 0.37026 0.14589
 C287 C 0.38827 0.38984 0.12137
 C288 C 0.36833 0.41267 0.09993
 C289 C 0.38721 0.42931 0.07450
 C290 C 0.42632 0.42322 0.07017
 C291 C 0.44639 0.40105 0.09229
 C292 C 0.42739 0.38435 0.11771
 H293 H 0.27439 0.35483 0.17119
 H294 H 0.23542 0.31456 0.20581
 H295 H 0.33714 0.26338 0.24388
 H296 H 0.37594 0.30342 0.20904
 H297 H 0.33802 0.41700 0.10253
 H298 H 0.37110 0.44648 0.05797
 H299 H 0.47657 0.39600 0.08961
 H300 H 0.44305 0.36661 0.13413
 C301 C 0.82727 0.17622 -0.18275
 C302 C 0.82828 0.21620 -0.18086
 C303 C 0.80637 0.23818 -0.20152
 C304 C 0.78293 0.22050 -0.22418
 C305 C 0.78283 0.18038 -0.22655
 C306 C 0.80475 0.15835 -0.20583
 C307 C 0.84859 0.15378 -0.16040
 C308 C 0.86607 0.13566 -0.14101
 C309 C 0.88645 0.11485 -0.11703
 C310 C 0.90997 0.13456 -0.09574
 C311 C 0.92800 0.11495 -0.07120
 C312 C 0.92266 0.07530 -0.06759
 C313 C 0.89966 0.05553 -0.08952
 C314 C 0.88160 0.07524 -0.11404
 H315 H 0.84579 0.23039 -0.16325
 H316 H 0.80790 0.26897 -0.19968
 H317 H 0.76590 0.16587 -0.24426
 H318 H 0.80391 0.12742 -0.20766
 H319 H 0.91391 0.16521 -0.09780
 H320 H 0.94569 0.13090 -0.05480
 H321 H 0.89508 0.02498 -0.08739
 H322 H 0.86342 0.05969 -0.13035
 C323 C 0.82762 0.67724 0.31595
 C324 C 0.83033 0.67312 0.28313
 C325 C 0.80713 0.69501 0.26330
 C326 C 0.78082 0.72080 0.27618
 C327 C 0.77887 0.72536 0.30906
 C328 C 0.80203 0.70357 0.32881
 C329 C 0.85055 0.65443 0.33678
 C330 C 0.86878 0.63595 0.35539
 C331 C 0.88938 0.61476 0.37890
 C332 C 0.92865 0.61969 0.38240
 C333 C 0.94796 0.60162 0.40709
 C334 C 0.92807 0.57861 0.42867
 C335 C 0.88882 0.57300 0.42444
 C336 C 0.86961 0.59102 0.39972
 H337 H 0.85018 0.65296 0.27291
 H338 H 0.80942 0.69157 0.23795
 H339 H 0.75961 0.74570 0.31966
 H340 H 0.79991 0.70719 0.35417
 H341 H 0.94418 0.63813 0.36647
 H342 H 0.97824 0.60635 0.40972
 H343 H 0.87282 0.55525 0.44056
 H344 H 0.83919 0.58711 0.39727
 C345 C 0.32420 0.17434 0.31651
 C346 C 0.29838 0.20031 0.32956
 C347 C 0.27683 0.22391 0.30997
 C348 C 0.28113 0.22200 0.27709
 C349 C 0.30646 0.19536 0.26402
 C350 C 0.32810 0.17173 0.28368
 C351 C 0.34664 0.15083 0.33714
 C352 C 0.36485 0.13207 0.35556
 C353 C 0.38577 0.11084 0.37883
 C354 C 0.36635 0.08692 0.39973
 C355 C 0.38588 0.06909 0.42436
 C356 C 0.42511 0.07510 0.42844
 C357 C 0.44466 0.09824 0.40675
 C358 C 0.42502 0.11612 0.38214
 H359 H 0.29494 0.20235 0.35493
 H360 H 0.25684 0.24341 0.32069
 H361 H 0.30967 0.19309 0.23866
 H362 H 0.34787 0.15158 0.27332
 H363 H 0.33594 0.08276 0.39744
 H364 H 0.37015 0.05121 0.44057
 H365 H 0.47490 0.10328 0.40926
 H366 H 0.44028 0.13472 0.36616
 C367 C 0.32198 0.67416 -0.18387
 C368 C 0.29602 0.69992 -0.17074
 C369 C 0.27439 0.72357 -0.19024
 C370 C 0.27875 0.72194 -0.22313
 C371 C 0.30413 0.69542 -0.23629
 C372 C 0.32585 0.67174 -0.21672
 C373 C 0.34467 0.65079 -0.16329
 C374 C 0.36309 0.63219 -0.14488
 C375 C 0.38425 0.61119 -0.12159
 C376 C 0.36508 0.58712 -0.10065
 C377 C 0.38480 0.56954 -0.07599
 C378 C 0.42398 0.57594 -0.07192
 C379 C 0.44328 0.59923 -0.09365
 C380 C 0.42346 0.61686 -0.11829
 H381 H 0.29258 0.70183 -0.14536
 H382 H 0.25437 0.74296 -0.17943
 H383 H 0.30740 0.69335 -0.26166
 H384 H 0.34572 0.65175 -0.22715
 H385 H 0.33472 0.58265 -0.10293
 H386 H 0.36925 0.55155 -0.05975
 H387 H 0.47348 0.60458 -0.09114
 H388 H 0.43853 0.63558 -0.13429
 C389 C 1.17476 -0.16854 -0.18579
 C390 C 1.21437 -0.16496 -0.18503
 C391 C 1.23675 -0.18761 -0.20481
 C392 C 1.21974 -0.21430 -0.22528
 C393 C 1.17998 -0.21682 -0.22683
 C394 C 1.15758 -0.19414 -0.20701
 C395 C 1.15210 -0.14740 -0.16360
 C396 C 1.13385 -0.13029 -0.14412
 C397 C 1.11308 -0.11050 -0.11989
 C398 C 1.11738 -0.07094 -0.11596
 C399 C 1.09957 -0.05222 -0.09083
 C400 C 1.07741 -0.07298 -0.06922
 C401 C 1.07246 -0.11256 -0.07383
 C402 C 1.09026 -0.13119 -0.09899
 H403 H 1.22798 -0.14523 -0.16872
 H404 H 1.26740 -0.18500 -0.20357
 H405 H 1.16613 -0.23654 -0.24289
 H406 H 1.12693 -0.19704 -0.20785
 H407 H 1.13508 -0.05469 -0.13194
 H408 H 1.10379 -0.02168 -0.08793
 H409 H 1.05538 -0.12921 -0.05768
 H410 H 1.08683 -0.16184 -0.10179
 C411 C 1.17671 0.33223 0.31298
 C412 C 1.21632 0.33563 0.31401
 C413 C 1.23879 0.31252 0.29468
 C414 C 1.22185 0.28555 0.27443
 C415 C 1.18210 0.28317 0.27262
 C416 C 1.15960 0.30631 0.29198
 C417 C 1.15393 0.35373 0.33480
 C418 C 1.13559 0.37101 0.35409
 C419 C 1.11474 0.39075 0.37826
 C420 C 1.13413 0.41432 0.39972
 C421 C 1.11473 0.43107 0.42491
 C422 C 1.07566 0.42435 0.42897
 C423 C 1.05613 0.40146 0.40681
 C424 C 1.07565 0.38464 0.38163
 H425 H 1.22984 0.35559 0.33018
 H426 H 1.26943 0.31504 0.29608
 H427 H 1.16832 0.26326 0.25668
 H428 H 1.12896 0.30353 0.29097
 H429 H 1.16441 0.41913 0.39735
 H430 H 1.13043 0.44880 0.44147
 H431 H 1.02600 0.39592 0.40930
 H432 H 1.06043 0.36631 0.36519
 C433 C 0.67047 -0.17497 0.31180
 C434 C 0.69636 -0.15742 0.29140
 C435 C 0.71970 -0.17979 0.27210
 C436 C 0.71754 -0.21986 0.27338
 C437 C 0.69070 -0.23723 0.29310
 C438 C 0.66739 -0.21489 0.31234
 C439 C 0.64855 -0.15237 0.33350
 C440 C 0.63082 -0.13428 0.35269
 C441 C 0.61052 -0.11374 0.37674
 C442 C 0.63042 -0.09009 0.39782
 C443 C 0.61150 -0.07272 0.42300
 C444 C 0.57240 -0.07892 0.42743
 C445 C 0.55236 -0.10186 0.40561
 C446 C 0.57139 -0.11927 0.38046
 H447 H 0.69891 -0.12652 0.29078
 H448 H 0.73957 -0.16570 0.25660
 H449 H 0.68837 -0.26812 0.29411
 H450 H 0.64747 -0.22877 0.32805
 H451 H 0.66073 -0.08572 0.39520
 H452 H 0.62759 -0.05499 0.43930
 H453 H 0.52220 -0.10702 0.40839
 H454 H 0.55576 -0.13766 0.36433
 C455 C 0.67630 0.32712 -0.18572
 C456 C 0.71533 0.33419 -0.18812
 C457 C 0.73773 0.31172 -0.20808
 C458 C 0.72146 0.28163 -0.22559
 C459 C 0.68204 0.27563 -0.22397
 C460 C 0.65963 0.29809 -0.20398
 C461 C 0.65372 0.34871 -0.16367
 C462 C 0.63535 0.36626 -0.14449
 C463 C 0.61422 0.38659 -0.12070
 C464 C 0.63329 0.41095 -0.09962
 C465 C 0.61350 0.42874 -0.07510
 C466 C 0.57432 0.42234 -0.07128
 C467 C 0.55514 0.39858 -0.09304
 C468 C 0.57505 0.38073 -0.11756
 H469 H 0.72851 0.35683 -0.17434
 H470 H 0.76772 0.31806 -0.20987
 H471 H 0.66834 0.25352 -0.23778
 H472 H 0.62940 0.29252 -0.20250
 H473 H 0.66360 0.41567 -0.10181
 H474 H 0.62899 0.44707 -0.05884
 H475 H 0.52496 0.39319 -0.09073
 H476 H 0.56001 0.36187 -0.13370
 C477 C 1.17340 0.17022 -0.18475
 C478 C 1.15684 0.20105 -0.20064
 C479 C 1.17861 0.22334 -0.22111
 C480 C 1.21714 0.21488 -0.22605
 C481 C 1.23348 0.18377 -0.21019
 C482 C 1.21170 0.16149 -0.18972
 C483 C 1.15178 0.14900 -0.16196
 C484 C 1.13414 0.13186 -0.14217
 C485 C 1.11371 0.11219 -0.11774
 C486 C 1.07449 0.11738 -0.11446
 C487 C 1.05514 0.10018 -0.08945
 C488 C 1.07491 0.07774 -0.06733
 C489 C 1.11416 0.07205 -0.07120
 C490 C 1.13342 0.08921 -0.09623
 H491 H 1.12734 0.20837 -0.19666
 H492 H 1.16546 0.24777 -0.23226
 H493 H 1.26320 0.17705 -0.21300
 H494 H 1.22493 0.13796 -0.17728
 H495 H 1.05898 0.13518 -0.13094
 H496 H 1.02487 0.10496 -0.08712
 H497 H 1.13008 0.05473 -0.05465
 H498 H 1.16378 0.08506 -0.09853
 C499 C 1.17213 0.67366 0.31148
 C500 C 1.16915 0.71358 0.31175
 C501 C 1.19192 0.73563 0.29188
 C502 C 1.21842 0.71807 0.27174
 C503 C 1.22005 0.67787 0.27053
 C504 C 1.19720 0.65583 0.29048
 C505 C 1.15087 0.65139 0.33393
 C506 C 1.13365 0.63358 0.35362
 C507 C 1.11379 0.61326 0.37812
 C508 C 1.09085 0.63342 0.39936
 C509 C 1.07352 0.61440 0.42448
 C510 C 1.07900 0.57489 0.42876
 C511 C 1.10140 0.55464 0.40689
 C512 C 1.11876 0.57377 0.38179
 H513 H 1.14977 0.72774 0.32781
 H514 H 1.18961 0.76653 0.29299
 H515 H 1.23912 0.66322 0.25465
 H516 H 1.19956 0.62492 0.28990
 H517 H 1.08684 0.66399 0.39680
 H518 H 1.05626 0.63071 0.44080
 H519 H 1.10605 0.52418 0.40952
 H520 H 1.13653 0.55787 0.36555
 C521 C 0.66871 0.17423 0.31279
 C522 C 0.66528 0.21413 0.31352
 C523 C 0.68807 0.23672 0.29410
 C524 C 0.71476 0.21965 0.27400
 C525 C 0.71722 0.17960 0.27251
 C526 C 0.69440 0.15698 0.29197
 C527 C 0.64732 0.15135 0.33461
 C528 C 0.63000 0.13295 0.35383
 C529 C 0.61009 0.11202 0.37784
 C530 C 0.58680 0.13164 0.39913
 C531 C 0.56968 0.11211 0.42404
 C532 C 0.57571 0.07265 0.42801
 C533 C 0.59835 0.05290 0.40602
 C534 C 0.61553 0.07255 0.38113
 H535 H 0.64551 0.22780 0.32952
 H536 H 0.68551 0.26758 0.29530
 H537 H 0.73697 0.16570 0.25674
 H538 H 0.69721 0.12612 0.29116
 H539 H 0.58246 0.16220 0.39684
 H540 H 0.55219 0.12801 0.44047
 H541 H 0.60340 0.02248 0.40844
 H542 H 0.63360 0.05711 0.36482
 C543 C 0.67114 0.67415 -0.18665
 C544 C 0.70121 0.65716 -0.20308
 C545 C 0.72424 0.67932 -0.22272
 C546 C 0.71734 0.71863 -0.22599
 C547 C 0.68679 0.73540 -0.20993
 C548 C 0.66379 0.71325 -0.19032
 C549 C 0.64918 0.65209 -0.16465
 C550 C 0.63140 0.63421 -0.14542
 C551 C 0.61098 0.61362 -0.12151
 C552 C 0.61606 0.57412 -0.11809
 C553 C 0.59836 0.55470 -0.09335
 C554 C 0.57553 0.57467 -0.07165
 C555 C 0.56985 0.61417 -0.07575
 C556 C 0.58752 0.63350 -0.10051
 H557 H 0.70730 0.62699 -0.20024
 H558 H 0.74785 0.66587 -0.23466
 H559 H 0.68121 0.76575 -0.21209
 H560 H 0.64075 0.72674 -0.17758
 H561 H 0.63425 0.55849 -0.13418
 H562 H 0.60316 0.52424 -0.09083
 H563 H 0.55224 0.63024 -0.05952
 H564 H 0.58345 0.66408 -0.10292
 C565 C 0.82457 -0.17669 -0.18183
 C566 C 0.82910 -0.17363 -0.21454
 C567 C 0.80662 -0.19583 -0.23491
 C568 C 0.77933 -0.22112 -0.22273
 C569 C 0.77527 -0.22428 -0.18990
 C570 C 0.79770 -0.20212 -0.16959
 C571 C 0.84730 -0.15395 -0.16055
 C572 C 0.86559 -0.13549 -0.14178
 C573 C 0.88648 -0.11425 -0.11826
 C574 C 0.92579 -0.11903 -0.11513
 C575 C 0.94545 -0.10073 -0.09057
 C576 C 0.92589 -0.07763 -0.06876
 C577 C 0.88657 -0.07219 -0.07261
 C578 C 0.86701 -0.09045 -0.09719
 H579 H 0.84994 -0.15417 -0.22428
 H580 H 0.81059 -0.19337 -0.26016
 H581 H 0.75493 -0.24384 -0.17973
 H582 H 0.79409 -0.20484 -0.14429
 H583 H 0.94110 -0.13750 -0.13126
 H584 H 0.97576 -0.10535 -0.08822
 H585 H 0.87080 -0.05438 -0.05630
 H586 H 0.83657 -0.08662 -0.09937
 C587 C 0.82528 0.32334 0.31647
 C588 C 0.82784 0.32717 0.28363
 C589 C 0.80441 0.30515 0.26385
 C590 C 0.77801 0.27950 0.27677
 C591 C 0.77620 0.27523 0.30965
 C592 C 0.79960 0.29716 0.32937
 C593 C 0.84858 0.34621 0.33724
 C594 C 0.86722 0.36474 0.35575
 C595 C 0.88842 0.38598 0.37910
 C596 C 0.88333 0.42554 0.38231
 C597 C 0.90135 0.44548 0.40688
 C598 C 0.92448 0.42594 0.42865
 C599 C 0.93026 0.38640 0.42469
 C600 C 0.91229 0.36657 0.40010
 H601 H 0.84777 0.34720 0.27337
 H602 H 0.80661 0.30838 0.23850
 H603 H 0.75688 0.25502 0.32029
 H604 H 0.79759 0.29373 0.35473
 H605 H 0.86479 0.44082 0.36625
 H606 H 0.89647 0.47595 0.40930
 H607 H 0.94810 0.37064 0.44095
 H608 H 0.91633 0.33594 0.39789
 C609 C 0.32664 -0.18161 0.31442
 C610 C 0.30169 -0.20859 0.32716
 C611 C 0.27850 -0.23068 0.30739
 C612 C 0.27951 -0.22577 0.27445
 C613 C 0.30572 -0.19965 0.26170
 C614 C 0.32893 -0.17745 0.28160
 C615 C 0.34930 -0.15825 0.33543
 C616 C 0.36726 -0.13941 0.35425
 C617 C 0.38764 -0.11792 0.37805
 C618 C 0.41147 -0.13704 0.39927
 C619 C 0.42875 -0.11707 0.42415
 C620 C 0.42237 -0.07763 0.42823
 C621 C 0.39921 -0.05836 0.40631
 C622 C 0.38185 -0.07845 0.38144
 H623 H 0.30001 -0.21245 0.35249
 H624 H 0.25999 -0.25147 0.31824
 H625 H 0.30779 -0.19590 0.23638
 H626 H 0.34839 -0.15691 0.27141
 H627 H 0.41607 -0.16758 0.39697
 H628 H 0.44664 -0.13265 0.44050
 H629 H 0.39385 -0.02798 0.40879
 H630 H 0.36333 -0.06336 0.36525
 C631 C 0.32426 0.32048 -0.18417
 C632 C 0.29398 0.29939 -0.17179
 C633 C 0.27106 0.27722 -0.19170
 C634 C 0.27819 0.27590 -0.22424
 C635 C 0.30863 0.29696 -0.23663
 C636 C 0.33162 0.31921 -0.21665
 C637 C 0.34739 0.34335 -0.16325
 C638 C 0.36584 0.36196 -0.14466
 C639 C 0.38678 0.38338 -0.12125
 C640 C 0.41095 0.36424 -0.10032
 C641 C 0.42872 0.38424 -0.07572
 C642 C 0.42243 0.42370 -0.07168
 C643 C 0.39897 0.44297 -0.09336
 C644 C 0.38116 0.42286 -0.11795
 H645 H 0.28800 0.30020 -0.14672
 H646 H 0.24762 0.26149 -0.18156
 H647 H 0.31448 0.29629 -0.26171
 H648 H 0.35498 0.33542 -0.22650
 H649 H 0.41541 0.33368 -0.10260
 H650 H 0.44682 0.36869 -0.05952
 H651 H 0.39370 0.47337 -0.09089
 H652 H 0.36238 0.43794 -0.13394
 C653 C 1.17219 -0.17781 0.18734
 C654 C 1.16889 -0.21772 0.18670
 C655 C 1.19169 -0.24012 0.20636
 C656 C 1.21853 -0.22293 0.22663
 C657 C 1.22048 -0.18275 0.22820
 C658 C 1.19762 -0.16036 0.20848
 C659 C 1.15079 -0.15509 0.16523
 C660 C 1.13340 -0.13678 0.14589
 C661 C 1.11324 -0.11579 0.12190
 C662 C 1.07385 -0.11995 0.11855
 C663 C 1.05470 -0.10161 0.09388
 C664 C 1.07479 -0.07901 0.07213
 C665 C 1.11423 -0.07432 0.07609
 C666 C 1.13330 -0.09264 0.10079
 H667 H 1.14922 -0.23157 0.17054
 H668 H 1.18909 -0.27100 0.20500
 H669 H 1.23978 -0.16837 0.24423
 H670 H 1.20021 -0.12947 0.20936
 H671 H 1.05803 -0.13787 0.13468
 H672 H 1.02430 -0.10567 0.09150
 H673 H 1.13042 -0.05694 0.05983
 H674 H 1.16379 -0.08926 0.10310
 C675 C 1.17094 0.32528 0.68645
 C676 C 1.16532 0.28562 0.68667
 C677 C 1.18765 0.26248 0.70606
 C678 C 1.21600 0.27871 0.72531
 C679 C 1.22082 0.31860 0.72571
 C680 C 1.19847 0.34179 0.70625
 C681 C 1.14983 0.34853 0.66463
 C682 C 1.13259 0.36704 0.64539
 C683 C 1.11261 0.38791 0.62131
 C684 C 1.08869 0.36827 0.60030
 C685 C 1.07145 0.38765 0.57530
 C686 C 1.07798 0.42700 0.57096
 C687 C 1.10124 0.44679 0.59267
 C688 C 1.11856 0.42728 0.61766
 H689 H 1.14415 0.27252 0.67142
 H690 H 1.18330 0.23178 0.70562
 H691 H 1.24218 0.33191 0.74055
 H692 H 1.20307 0.37246 0.70624
 H693 H 1.08395 0.33779 0.60288
 H694 H 1.05347 0.37173 0.55909
 H695 H 1.10669 0.47712 0.58996
 H696 H 1.13710 0.44273 0.63374
 C697 C 0.67281 -0.17579 0.68458
 C698 C 0.66585 -0.21502 0.68767
 C699 C 0.68841 -0.23704 0.70780
 C700 C 0.71844 -0.22017 0.72478
 C701 C 0.72441 -0.18053 0.72244
 C702 C 0.70185 -0.15850 0.70226
 C703 C 0.65109 -0.15370 0.66236
 C704 C 0.63341 -0.13581 0.64299
 C705 C 0.61300 -0.11525 0.61899
 C706 C 0.58950 -0.13520 0.59785
 C707 C 0.57168 -0.11589 0.57308
 C708 C 0.57725 -0.07634 0.56911
 C709 C 0.60015 -0.05631 0.59092
 C710 C 0.61801 -0.07572 0.61568
 H711 H 0.64323 -0.22866 0.67431
 H712 H 0.68218 -0.26721 0.71014
 H713 H 0.74653 -0.16641 0.73582
 H714 H 0.70733 -0.12808 0.70020
 H715 H 0.58547 -0.16581 0.60019
 H716 H 0.55402 -0.13202 0.55677
 H717 H 0.60486 -0.02581 0.58850
 H718 H 0.63621 -0.06003 0.63188
 C719 C 0.66869 0.32680 0.18706
 C720 C 0.66518 0.28689 0.18653
 C721 C 0.68794 0.26450 0.20621
 C722 C 0.71467 0.28179 0.22638
 C723 C 0.71717 0.32186 0.22770
 C724 C 0.69438 0.34428 0.20797
 C725 C 0.64741 0.34942 0.16491
 C726 C 0.63019 0.36754 0.14539
 C727 C 0.61037 0.38806 0.12101
 C728 C 0.58725 0.36804 0.09964
 C729 C 0.57018 0.38716 0.07442
 C730 C 0.57612 0.42662 0.07021
 C731 C 0.59862 0.44677 0.09225
 C732 C 0.61574 0.42753 0.11746
 H733 H 0.64540 0.27304 0.17045
 H734 H 0.68535 0.23363 0.20513
 H735 H 0.73696 0.33592 0.24351
 H736 H 0.69726 0.37515 0.20863
 H737 H 0.58297 0.33748 0.10214
 H738 H 0.55280 0.37096 0.05796
 H739 H 0.60358 0.47720 0.08965
 H740 H 0.63368 0.44328 0.13383
 C741 C 0.82501 0.17863 0.18443
 C742 C 0.82770 0.17482 0.21728
 C743 C 0.80440 0.19680 0.23697
 C744 C 0.77799 0.22237 0.22395
 C745 C 0.77608 0.22665 0.19106
 C746 C 0.79935 0.20478 0.17143
 C747 C 0.84803 0.15564 0.16374
 C748 C 0.86635 0.13693 0.14532
 C749 C 0.88711 0.11534 0.12210
 C750 C 0.92645 0.11998 0.11915
 C751 C 0.94596 0.10139 0.09481
 C752 C 0.92622 0.07812 0.07303
 C753 C 0.88687 0.07283 0.07671
 C754 C 0.86747 0.09138 0.10107
 H755 H 0.84761 0.15481 0.22761
 H756 H 0.80667 0.19357 0.26233
 H757 H 0.75675 0.24681 0.18034
 H758 H 0.79722 0.20816 0.14606
 H759 H 0.94191 0.13857 0.13524
 H760 H 0.97629 0.10591 0.09261
 H761 H 0.87097 0.05492 0.06042
 H762 H 0.83700 0.08767 0.10309
 C763 C 0.82496 0.67427 0.68380
 C764 C 0.78537 0.67367 0.68073
 C765 C 0.76291 0.69563 0.70097
 C766 C 0.77976 0.71870 0.72435
 C767 C 0.81946 0.71837 0.72789
 C768 C 0.84196 0.69639 0.70760
 C769 C 0.84791 0.65298 0.66189
 C770 C 0.86641 0.63549 0.64279
 C771 C 0.88752 0.61503 0.61912
 C772 C 0.88322 0.57537 0.61588
 C773 C 0.90150 0.55592 0.59136
 C774 C 0.92415 0.57602 0.56968
 C775 C 0.92906 0.61571 0.57361
 C776 C 0.91080 0.63508 0.59816
 H777 H 0.77187 0.65646 0.66252
 H778 H 0.73243 0.69452 0.69819
 H779 H 0.83328 0.73498 0.74620
 H780 H 0.87258 0.69688 0.71032
 H781 H 0.86519 0.55960 0.63193
 H782 H 0.89728 0.52532 0.58898
 H783 H 0.94650 0.63189 0.55739
 H784 H 0.91425 0.66579 0.60043
 C785 C 0.32491 0.17444 0.68246
 C786 C 0.29470 0.19551 0.66995
 C787 C 0.27162 0.21732 0.68979
 C788 C 0.27820 0.21802 0.72251
 C789 C 0.30909 0.19750 0.73488
 C790 C 0.33225 0.17563 0.71497
 C791 C 0.34819 0.15197 0.66157
 C792 C 0.36669 0.13370 0.64296
 C793 C 0.38762 0.11265 0.61950
 C794 C 0.41123 0.13222 0.59850
 C795 C 0.42890 0.11255 0.57381
 C796 C 0.42305 0.07300 0.56975
 C797 C 0.40016 0.05331 0.59151
 C798 C 0.38245 0.07309 0.61618
 H799 H 0.28898 0.19513 0.64479
 H800 H 0.24882 0.23349 0.67927
 H801 H 0.31566 0.19872 0.75984
 H802 H 0.35587 0.15982 0.72488
 H803 H 0.41532 0.16286 0.60078
 H804 H 0.44656 0.12843 0.55756
 H805 H 0.39524 0.02283 0.58903
 H806 H 0.36410 0.05768 0.63222
 C807 C 0.32573 0.67663 0.18358
 C808 C 0.30076 0.70366 0.17094
 C809 C 0.27773 0.72554 0.19078
 C810 C 0.27893 0.72039 0.22369
 C811 C 0.30507 0.69412 0.23635
 C812 C 0.32812 0.67213 0.21638
 C813 C 0.34843 0.65367 0.16250
 C814 C 0.36644 0.63519 0.14362
 C815 C 0.38690 0.61411 0.11979
 C816 C 0.41020 0.63369 0.09854
 C817 C 0.42759 0.61404 0.07368
 C818 C 0.42183 0.57447 0.06965
 C819 C 0.39918 0.55477 0.09159
 C820 C 0.38173 0.57453 0.11644
 H821 H 0.29900 0.70778 0.14563
 H822 H 0.25927 0.74645 0.18000
 H823 H 0.30731 0.69018 0.26165
 H824 H 0.34761 0.65154 0.22650
 H825 H 0.41433 0.66432 0.10081
 H826 H 0.44506 0.62995 0.05731
 H827 H 0.39430 0.52427 0.08916
 H828 H 0.36363 0.55908 0.13265
   
