data_POSCAR
  _audit_creation_date              2014-09-24
  _audit_creation_method            'ToBaCCo'
  _symmetry_space_group_name_H-M    'P1'
  _symmetry_Int_Tables_number       1
  _symmetry_cell_setting            triclinic
  loop_
  _symmetry_equiv_pos_as_xyz
 x,y,z
_cell_length_a 31.2072
_cell_length_b 31.4487
_cell_length_c 31.4571
_cell_angle_alpha 92.728200
_cell_angle_beta 93.078800
_cell_angle_gamma 92.033000
loop_
  _atom_site_label
  _atom_site_type_symbol
  _atom_site_fract_x
  _atom_site_fract_y
  _atom_site_fract_z
C1 C 0.69790 0.69481 0.94401
 H2 H 0.72919 0.69429 0.93112
 C3 C 0.66481 0.71464 0.92182
 H4 H 0.67095 0.72975 0.89241
 C5 C 0.65045 0.67357 0.99603
 H6 H 0.64440 0.65643 1.02414
 C7 C 0.61673 0.69372 0.97533
 H8 H 0.58519 0.69212 0.98804
 N9 N 0.69010 0.67403 0.98001
 C10 C 0.79945 0.67634 1.06490
 H11 H 0.78169 0.66151 1.08899
 C12 C 0.84019 0.69439 1.07615
 H13 H 0.85251 0.69415 1.10897
 C14 C 0.80714 0.69160 0.99264
 H15 H 0.79537 0.68830 0.95975
 C16 C 0.84805 0.71005 1.00256
 H17 H 0.86692 0.72202 0.97750
 Zn18 Zn 0.73338 0.64119 1.00627
 N19 N 0.78370 0.67498 1.02362
 C20 C 0.78647 0.57772 0.97990
 N21 N 0.75248 0.60023 0.96609
 C22 C 0.73771 0.59736 0.92444
 C23 C 0.75908 0.57294 0.89444
 C24 C 0.80788 0.55210 0.95128
 C25 C 0.70101 0.63781 1.08931
 C26 C 0.69135 0.61835 1.12698
 C27 C 0.70016 0.54989 1.09107
 C28 C 0.70997 0.57057 1.05430
 N29 N 0.71179 0.61387 1.05443
 H30 H 0.79793 0.58101 1.01301
 H31 H 0.71045 0.61513 0.91403
 H32 H 0.74809 0.57195 0.86116
 H33 H 0.83552 0.53505 0.96241
 H34 H 0.70217 0.67219 1.08858
 H35 H 0.68531 0.63776 1.15526
 H36 H 0.70093 0.51547 1.09116
 H37 H 0.71763 0.55195 1.02617
 C38 C 0.86522 0.71077 1.04451
 C39 C 0.62373 0.71392 0.93732
 C40 C 0.69191 0.57396 1.12810
 C41 C 0.79507 0.55067 0.90800
 C42 C 0.71641 0.31908 0.54218
 H43 H 0.74888 0.31837 0.55562
 C44 C 0.68510 0.29165 0.55656
 H45 H 0.69323 0.27064 0.58182
 C46 C 0.66545 0.34844 0.49432
 H47 H 0.65800 0.37094 0.47034
 C48 C 0.63306 0.32100 0.50755
 H49 H 0.60044 0.32320 0.49451
 N50 N 0.70594 0.34768 0.51262
 C51 C 0.83175 0.37429 0.47041
 H52 H 0.83768 0.40668 0.48306
 C53 C 0.86455 0.35222 0.45218
 H54 H 0.89574 0.36799 0.45032
 C55 C 0.78344 0.31455 0.45692
 H56 H 0.75165 0.30021 0.45879
 C57 C 0.81522 0.29153 0.43774
 H58 H 0.80800 0.25948 0.42456
 Zn59 Zn 0.75036 0.38630 0.49978
 N60 N 0.79231 0.35511 0.47276
 C61 C 0.80623 0.38601 0.57028
 N62 N 0.77593 0.41048 0.55210
 C63 C 0.76378 0.44704 0.57247
 C64 C 0.78212 0.45962 0.61312
 C65 C 0.82502 0.39726 0.61033
 C66 C 0.74509 0.42723 0.42272
 C67 C 0.72722 0.45248 0.39173
 C68 C 0.67872 0.47930 0.44305
 C69 C 0.69729 0.45312 0.47313
 N70 N 0.72952 0.42732 0.46233
 H71 H 0.81522 0.35687 0.55414
 H72 H 0.73948 0.46601 0.55779
 H73 H 0.77200 0.48827 0.62953
 H74 H 0.84857 0.37701 0.62464
 H75 H 0.77026 0.40626 0.41435
 H76 H 0.73915 0.45086 0.36003
 H77 H 0.65208 0.49863 0.45132
 H78 H 0.68457 0.45187 0.50436
 C79 C 0.85622 0.31033 0.43561
 C80 C 0.64295 0.29307 0.53985
 C81 C 0.69303 0.47824 0.40163
 C82 C 0.81278 0.43393 0.63227
 C83 C 0.17593 -0.16885 -0.00573
 H84 H 0.19664 -0.18938 -0.02317
 C85 C 0.13994 -0.18621 0.01288
 H86 H 0.13289 -0.22019 0.00957
 C87 C 0.16163 -0.10004 0.02317
 H88 H 0.17128 -0.06672 0.02828
 C89 C 0.12553 -0.11593 0.04198
 H90 H 0.10712 -0.09489 0.06154
 N91 N 0.18624 -0.12652 0.00033
 C92 C 0.31452 -0.14689 -0.01703
 H93 H 0.32263 -0.13101 0.01359
 C94 C 0.34572 -0.17012 -0.03661
 H95 H 0.37690 -0.17228 -0.02019
 C96 C 0.26595 -0.16025 -0.07711
 H97 H 0.23521 -0.15496 -0.09318
 C98 C 0.29677 -0.18323 -0.09829
 H99 H 0.28965 -0.19602 -0.13056
 Zn100 Zn 0.23857 -0.10122 -0.01435
 N101 N 0.27566 -0.14184 -0.03753
 C102 C 0.26597 -0.10861 0.06787
 N103 N 0.26440 -0.07835 0.03838
 C104 C 0.28042 -0.03796 0.04798
 C105 C 0.30059 -0.02756 0.08846
 C106 C 0.28637 -0.09990 0.10781
 C107 C 0.18631 -0.05600 -0.07112
 C108 C 0.17658 -0.04250 -0.11203
 C109 C 0.25238 -0.03884 -0.12391
 C110 C 0.26080 -0.05205 -0.08247
 N111 N 0.22779 -0.06213 -0.05770
 H112 H 0.25275 -0.14036 0.05956
 H113 H 0.27848 -0.01430 0.02416
 H114 H 0.31453 0.00414 0.09568
 H115 H 0.28894 -0.12491 0.13022
 H116 H 0.16029 -0.06522 -0.05192
 H117 H 0.14330 -0.04067 -0.12336
 H118 H 0.27864 -0.03419 -0.14459
 H119 H 0.29336 -0.05848 -0.07178
 C120 C 0.33741 -0.18755 -0.07824
 C121 C 0.11504 -0.15942 0.03780
 C122 C 0.20973 -0.03569 -0.13934
 C123 C 0.30421 -0.05934 0.11839
 C124 C 0.20360 0.17487 0.42258
 H125 H 0.23629 0.17807 0.41336
 C126 C 0.17180 0.19790 0.40183
 H127 H 0.18019 0.21886 0.37700
 C128 C 0.15198 0.14331 0.46505
 H129 H 0.14379 0.12098 0.48861
 C130 C 0.11958 0.16645 0.44598
 H131 H 0.08697 0.16214 0.45557
 N132 N 0.19333 0.14839 0.45389
 C133 C 0.29886 0.15715 0.54126
 H134 H 0.27921 0.14592 0.56587
 C135 C 0.33899 0.17645 0.55285
 H136 H 0.34914 0.18058 0.58629
 C137 C 0.31142 0.16265 0.46808
 H138 H 0.30163 0.15507 0.43506
 C139 C 0.35181 0.18218 0.47831
 H140 H 0.37241 0.19066 0.45317
 Zn141 Zn 0.23562 0.11620 0.48307
 N142 N 0.28580 0.15047 0.49941
 C143 C 0.28818 0.04946 0.45982
 N144 N 0.25504 0.07289 0.44549
 C145 C 0.24336 0.07315 0.40316
 C146 C 0.26770 0.05218 0.37316
 C147 C 0.31279 0.02729 0.43089
 C148 C 0.19622 0.12649 0.55956
 C149 C 0.17725 0.11624 0.59701
 C150 C 0.18980 0.04210 0.58066
 C151 C 0.20846 0.05379 0.54297
 N152 N 0.21143 0.09555 0.53329
 H153 H 0.29756 0.05068 0.49348
 H154 H 0.21724 0.09224 0.39231
 H155 H 0.25954 0.05471 0.33951
 H156 H 0.34048 0.01054 0.44243
 H157 H 0.19875 0.15942 0.55117
 H158 H 0.16526 0.14128 0.61748
 H159 H 0.18763 0.00890 0.58818
 H160 H 0.22046 0.02961 0.52160
 C161 C 0.36619 0.18855 0.52103
 C162 C 0.12948 0.19430 0.41412
 C163 C 0.17394 0.07385 0.60801
 C164 C 0.30381 0.03021 0.38708
 C165 C 0.20113 0.44272 0.20236
 H166 H 0.20869 0.43461 0.23477
 C167 C 0.22066 0.42137 0.16900
 H168 H 0.24354 0.39715 0.17575
 C169 C 0.16085 0.48249 0.15319
 H170 H 0.13619 0.50494 0.14686
 C171 C 0.18024 0.46272 0.11917
 H172 H 0.17086 0.47076 0.08700
 N173 N 0.17172 0.47261 0.19389
 C174 C 0.18023 0.55498 0.30090
 H175 H 0.16777 0.57975 0.28178
 C176 C 0.19928 0.56609 0.34107
 H177 H 0.20196 0.59936 0.35177
 C178 C 0.18915 0.48171 0.31193
 H179 H 0.18303 0.44876 0.30132
 C180 C 0.20857 0.49150 0.35246
 H181 H 0.21834 0.46616 0.37256
 Zn182 Zn 0.14022 0.49842 0.23724
 N183 N 0.17514 0.51334 0.28716
 C184 C 0.07414 0.47057 0.28609
 N185 N 0.09867 0.45859 0.25355
 C186 C 0.09886 0.41727 0.23838
 C187 C 0.07537 0.38567 0.25777
 C188 C 0.04943 0.44020 0.30561
 C189 C 0.14494 0.57614 0.20037
 C190 C 0.13180 0.61415 0.18405
 C191 C 0.05905 0.59564 0.20081
 C192 C 0.07358 0.55738 0.21660
 N193 N 0.11603 0.54859 0.21629
 H194 H 0.07552 0.50338 0.29824
 H195 H 0.11893 0.40836 0.21275
 H196 H 0.07693 0.35268 0.24665
 H197 H 0.03083 0.44971 0.33231
 H198 H 0.17842 0.56835 0.20033
 H199 H 0.15509 0.63560 0.17108
 H200 H 0.02528 0.60240 0.20086
 H201 H 0.05101 0.53487 0.22892
 C202 C 0.21283 0.53400 0.36766
 C203 C 0.21031 0.43156 0.12702
 C204 C 0.08867 0.62428 0.18429
 C205 C 0.05110 0.39727 0.29235
 C206 C -0.20596 -0.00055 0.18816
 H207 H -0.22335 -0.00978 0.21529
 C208 C -0.22835 0.00765 0.14969
 H209 H -0.26306 0.00414 0.14702
 C210 C -0.13956 0.01543 0.15802
 H211 H -0.10490 0.01845 0.16164
 C212 C -0.16049 0.02359 0.11919
 H213 H -0.14182 0.03225 0.09264
 N214 N -0.16230 0.00331 0.19138
 C215 C -0.15449 -0.00538 0.32611
 H216 H -0.13580 0.02417 0.33086
 C217 C -0.17154 -0.02399 0.36129
 H218 H -0.16658 -0.00808 0.39253
 C219 C -0.18092 -0.06376 0.28056
 H220 H -0.18348 -0.07959 0.24921
 C221 C -0.19803 -0.08370 0.31499
 H222 H -0.21422 -0.11471 0.31005
 Zn223 Zn -0.12769 -0.00505 0.24137
 N224 N -0.15915 -0.02553 0.28672
 C225 C -0.13335 0.07798 0.26621
 N226 N -0.10280 0.04960 0.25746
 C227 C -0.06032 0.06177 0.25958
 C228 C -0.04727 0.10335 0.27410
 C229 C -0.12181 0.11947 0.28053
 C230 C -0.10369 -0.07862 0.19931
 C231 C -0.07895 -0.11315 0.18873
 C232 C -0.02226 -0.08358 0.23779
 C233 C -0.04887 -0.05027 0.24875
 N234 N -0.08817 -0.04756 0.22823
 H235 H -0.16690 0.06779 0.26322
 H236 H -0.03654 0.03959 0.25035
 H237 H -0.01343 0.11247 0.27734
 H238 H -0.14642 0.14124 0.28909
 H239 H -0.13559 -0.07672 0.18449
 H240 H -0.09142 -0.13701 0.16486
 H241 H 0.00967 -0.08472 0.25285
 H242 H -0.03816 -0.02696 0.27371
 C243 C -0.19286 -0.06405 0.35587
 C244 C -0.20527 0.01985 0.11491
 C245 C -0.03750 -0.11547 0.20763
 C246 C -0.07853 0.13221 0.28543
 C247 C 0.34232 0.54274 0.71559
 H248 H 0.34560 0.55574 0.74808
 C249 C 0.31925 0.56443 0.68488
 H250 H 0.30415 0.59378 0.69378
 C251 C 0.36079 0.49079 0.66326
 H252 H 0.37824 0.46305 0.65444
 C253 C 0.33757 0.51121 0.63164
 H254 H 0.33703 0.49873 0.59894
 N255 N 0.36262 0.50666 0.70439
 C256 C 0.37582 0.41653 0.79876
 H257 H 0.40385 0.40223 0.78660
 C258 C 0.35361 0.39550 0.82903
 H259 H 0.36407 0.36494 0.83923
 C260 C 0.33023 0.47509 0.80403
 H261 H 0.32163 0.50634 0.79460
 C262 C 0.30806 0.45570 0.83582
 H263 H 0.28246 0.47206 0.85080
 Zn264 Zn 0.39778 0.48283 0.74706
 N265 N 0.36370 0.45543 0.78641
 C266 C 0.42712 0.53295 0.81932
 N267 N 0.43004 0.52848 0.77637
 C268 C 0.44703 0.56045 0.75401
 C269 C 0.45879 0.59999 0.77459
 C270 C 0.43798 0.57188 0.84088
 C271 C 0.40920 0.40587 0.70474
 C272 C 0.43045 0.37113 0.68853
 C273 C 0.49794 0.40977 0.70596
 C274 C 0.47530 0.44367 0.72297
 N275 N 0.43168 0.44100 0.72194
 H276 H 0.41346 0.50731 0.83654
 H277 H 0.44817 0.55640 0.71975
 H278 H 0.46964 0.62608 0.75613
 H279 H 0.43285 0.57598 0.87458
 H280 H 0.37450 0.40454 0.70464
 H281 H 0.41197 0.34354 0.67487
 H282 H 0.53264 0.41208 0.70601
 H283 H 0.49240 0.47187 0.73699
 C284 C 0.32019 0.41548 0.84844
 C285 C 0.31698 0.54875 0.64253
 C286 C 0.47532 0.37294 0.68910
 C287 C 0.45251 0.60621 0.81828
 C288 C 0.69884 0.94216 0.71745
 H289 H 0.70323 0.93176 0.74963
 C290 C 0.72074 0.92238 0.68452
 H291 H 0.74194 0.89677 0.69138
 C292 C 0.66481 0.98681 0.66849
 H293 H 0.64187 1.01075 0.66157
 C294 C 0.68682 0.96884 0.63512
 H295 H 0.68080 0.97961 0.60325
 N296 N 0.67069 0.97321 0.70879
 C297 C 0.64183 1.03692 0.83151
 H298 H 0.60731 1.03378 0.82828
 C299 C 0.66115 1.06119 0.86602
 H300 H 0.64133 1.07597 0.88938
 C301 C 0.70955 1.02476 0.80345
 H302 H 0.72808 1.01186 0.77813
 C303 C 0.73027 1.04925 0.83753
 H304 H 0.76479 1.05470 0.83858
 Zn305 Zn 0.63444 0.99675 0.75067
 N306 N 0.66591 1.01973 0.80070
 C307 C 0.55778 0.96634 0.78614
 N308 N 0.59334 0.95426 0.76612
 C309 C 0.60175 0.91222 0.76009
 C310 C 0.57524 0.88078 0.77626
 C311 C 0.53018 0.93591 0.80232
 C312 C 0.63669 1.07710 0.72184
 C313 C 0.62389 1.11331 0.70169
 C314 C 0.55159 1.08285 0.69351
 C315 C 0.56599 1.04650 0.71334
 N316 N 0.60809 1.04431 0.72677
 H317 H 0.55110 0.99969 0.79037
 H318 H 0.62974 0.90280 0.74397
 H319 H 0.58323 0.84765 0.77239
 H320 H 0.50262 0.94597 0.81917
 H321 H 0.67001 1.07439 0.73234
 H322 H 0.64732 1.13856 0.69668
 H323 H 0.51841 1.08405 0.68184
 H324 H 0.54393 1.01976 0.71666
 C325 C 0.70562 1.06826 0.86868
 C326 C 0.71463 0.93569 0.64282
 C327 C 0.58119 1.11636 0.68713
 C328 C 0.53939 0.89278 0.79835
 C329 C -0.01618 0.18558 -0.18566
 H330 H -0.03403 0.21109 -0.19903
 C331 C -0.00109 0.15326 -0.21257
 H332 H -0.00789 0.15347 -0.24667
 C333 C 0.01695 0.15509 -0.12529
 H334 H 0.02477 0.15673 -0.09131
 C335 C 0.03300 0.12279 -0.15088
 H336 H 0.05249 0.09910 -0.13623
 N337 N -0.00633 0.18610 -0.14295
 C338 C -0.01625 0.31696 -0.13221
 H339 H 0.01583 0.32003 -0.11753
 C340 C -0.03435 0.35257 -0.14977
 H341 H -0.01584 0.38240 -0.14884
 C342 C -0.08013 0.27531 -0.14962
 H343 H -0.09791 0.24522 -0.14886
 C344 C -0.09966 0.31037 -0.16707
 H345 H -0.13252 0.30727 -0.18006
 Zn346 Zn -0.01503 0.23265 -0.10458
 N347 N -0.03915 0.27921 -0.13249
 C348 C 0.06830 0.25336 -0.11515
 N349 N 0.04111 0.25007 -0.08301
 C350 C 0.05461 0.26026 -0.04174
 C351 C 0.09684 0.27640 -0.03210
 C352 C 0.11020 0.26890 -0.10697
 C353 C -0.06393 0.24389 -0.03167
 C354 C -0.09610 0.23325 -0.00421
 C355 C -0.10485 0.16390 -0.04073
 C356 C -0.07258 0.17579 -0.06744
 N357 N -0.05293 0.21528 -0.06267
 H358 H 0.05678 0.24538 -0.14767
 H359 H 0.03246 0.25732 -0.01667
 H360 H 0.10706 0.28627 0.00041
 H361 H 0.13089 0.27291 -0.13316
 H362 H -0.04866 0.27540 -0.02914
 H363 H -0.10510 0.25643 0.01997
 H364 H -0.12072 0.13267 -0.04530
 H365 H -0.06441 0.15386 -0.09294
 C366 C -0.07671 0.34945 -0.16709
 C367 C 0.02484 0.12224 -0.19520
 C368 C -0.11705 0.19301 -0.00911
 C369 C 0.12462 0.28135 -0.06545
 C370 C 0.45624 0.22149 0.20412
 H371 H 0.45902 0.25347 0.21837
 C372 C 0.43307 0.18971 0.22387
 H373 H 0.41881 0.19688 0.25387
 C374 C 0.47136 0.17240 0.14773
 H375 H 0.48566 0.16616 0.11760
 C376 C 0.44940 0.13983 0.16663
 H377 H 0.44751 0.10816 0.15139
 N378 N 0.47494 0.21209 0.16683
 C379 C 0.56185 0.31463 0.17460
 H380 H 0.58635 0.29382 0.16394
 C381 C 0.57373 0.35467 0.19346
 H382 H 0.60745 0.36408 0.19762
 C383 C 0.48815 0.32866 0.18018
 H384 H 0.45481 0.31869 0.17364
 C385 C 0.49864 0.36905 0.19909
 H386 H 0.47341 0.39005 0.20771
 Zn387 Zn 0.50352 0.25236 0.13494
 N388 N 0.51965 0.30260 0.16799
 C389 C 0.47486 0.29930 0.06529
 N390 N 0.46367 0.26835 0.09179
 C391 C 0.42203 0.25418 0.09347
 C392 C 0.38949 0.27264 0.06944
 C393 C 0.44328 0.31806 0.04003
 C394 C 0.57627 0.20475 0.14350
 C395 C 0.61193 0.18223 0.13197
 C396 C 0.60139 0.20593 0.06042
 C397 C 0.56504 0.22731 0.07308
 N398 N 0.55328 0.22636 0.11414
 H399 H 0.50789 0.31099 0.06552
 H400 H 0.41339 0.23029 0.11530
 H401 H 0.35641 0.26212 0.07228
 H402 H 0.45210 0.34357 0.01989
 H403 H 0.56626 0.20434 0.17587
 H404 H 0.62931 0.16438 0.15544
 H405 H 0.61026 0.20649 0.02765
 H406 H 0.54618 0.24425 0.05007
 C407 C 0.54176 0.38261 0.20523
 C408 C 0.43027 0.14830 0.20530
 C409 C 0.62491 0.18273 0.09020
 C410 C 0.40009 0.30561 0.04314
 C411 C 0.94463 0.70317 0.70459
 H412 H 0.94189 0.73672 0.71268
 C413 C 0.92464 0.67270 0.72896
 H414 H 0.90650 0.68284 0.75578
 C415 C 0.97005 0.64849 0.65921
 H416 H 0.98628 0.63891 0.63103
 C417 C 0.95196 0.61725 0.68342
 H418 H 0.95488 0.58397 0.67393
 N419 N 0.96726 0.69060 0.67061
 C420 C 1.06566 0.78391 0.66570
 H421 H 1.08482 0.75967 0.65180
 C422 C 1.08603 0.82235 0.68040
 H423 H 1.12043 0.82681 0.67846
 C424 C 0.99785 0.80954 0.68260
 H425 H 0.96329 0.80498 0.68170
 C426 C 1.01708 0.84878 0.69755
 H427 H 0.99720 0.87390 0.70905
 Zn428 Zn 0.99507 0.73001 0.63529
 N429 N 1.02220 0.77816 0.66647
 C430 C 0.96752 0.78198 0.56988
 N431 N 0.95390 0.75202 0.59639
 C432 C 0.91127 0.74244 0.59941
 C433 C 0.88041 0.76443 0.57612
 C434 C 0.93782 0.80400 0.54543
 C435 C 1.06483 0.67930 0.63530
 C436 C 1.10194 0.66108 0.62186
 C437 C 1.08721 0.68758 0.55196
 C438 C 1.04948 0.70487 0.56661
 N439 N 1.03952 0.70104 0.60799
 H440 H 1.00143 0.79007 0.56907
 H441 H 0.90107 0.71906 0.62123
 H442 H 0.84662 0.75747 0.57976
 H443 H 0.94895 0.82846 0.52511
 H444 H 1.05697 0.67762 0.66826
 H445 H 1.12211 0.64446 0.64418
 H446 H 1.09561 0.69149 0.51940
 H447 H 1.02916 0.72240 0.54539
 C448 C 1.06173 0.85552 0.69560
 C449 C 0.92905 0.62924 0.71884
 C450 C 1.11392 0.66589 0.58029
 C451 C 0.89385 0.79604 0.54922
 C452 C 0.54723 0.72980 0.33140
 H453 H 0.55997 0.76224 0.33579
 C454 C 0.56989 0.69959 0.30883
 H455 H 0.60033 0.70861 0.29621
 C456 C 0.49343 0.67775 0.34481
 H457 H 0.46419 0.66924 0.35983
 C458 C 0.51480 0.64659 0.32175
 H459 H 0.50206 0.61405 0.31951
 N460 N 0.51020 0.71835 0.34953
 C461 C 0.43929 0.83363 0.36930
 H462 H 0.43528 0.83374 0.40325
 C463 C 0.42965 0.86966 0.34690
 H464 H 0.41866 0.89766 0.36384
 C465 C 0.46430 0.79926 0.30712
 H466 H 0.47934 0.77249 0.29210
 C467 C 0.45463 0.83438 0.28347
 H468 H 0.46307 0.83472 0.25050
 Zn469 Zn 0.48640 0.76124 0.38437
 N470 N 0.45910 0.80078 0.34978
 C471 C 0.54215 0.83134 0.40955
 N472 N 0.53358 0.78964 0.41670
 C473 C 0.56157 0.76727 0.44095
 C474 C 0.60044 0.78666 0.45791
 C475 C 0.58032 0.85163 0.42564
 C476 C 0.40613 0.72586 0.40011
 C477 C 0.37337 0.70995 0.42412
 C478 C 0.42086 0.72060 0.48725
 C479 C 0.45252 0.73700 0.46217
 N480 N 0.44487 0.73861 0.41932
 H481 H 0.52084 0.84852 0.38915
 H482 H 0.55484 0.73381 0.44517
 H483 H 0.62339 0.76815 0.47538
 H484 H 0.58757 0.88421 0.41790
 H485 H 0.40080 0.72802 0.36603
 H486 H 0.34305 0.69901 0.40828
 H487 H 0.42754 0.71810 0.52116
 H488 H 0.48323 0.74798 0.47689
 C489 C 0.43963 0.87086 0.30413
 C490 C 0.55398 0.65748 0.30423
 C491 C 0.38092 0.70688 0.46820
 C492 C 0.61024 0.82916 0.44920
 C493 C 0.42302 -0.03119 0.26456
 C494 C 0.39291 -0.04438 0.22577
 C495 C 0.36429 -0.01401 0.21562
 C496 C 0.36803 0.02619 0.24567
 C497 C 0.44354 0.01119 0.25375
 C498 C 0.41528 0.04113 0.24414
 C499 C 0.39378 -0.02041 0.30093
 C500 C 0.36458 0.00936 0.29069
 H501 H 0.39593 -0.07360 0.20673
 H502 H 0.34469 0.05077 0.23747
 H503 H 0.47776 0.01606 0.25062
 H504 H 0.39592 -0.03488 0.33145
 C505 C 0.09567 1.03793 0.76587
 C506 C 0.11268 1.05270 0.72399
 C507 C 0.13200 1.02129 0.70135
 C508 C 0.13256 0.97839 0.72287
 C509 C 0.06583 0.99926 0.75355
 C510 C 0.08513 0.96795 0.73145
 C511 C 0.13444 1.02023 0.79006
 C512 C 0.15394 0.98928 0.76736
 H513 H 0.11015 1.08494 0.71375
 H514 H 0.14852 0.95300 0.70455
 H515 H 0.03309 0.99615 0.76310
 H516 H 0.14577 1.03180 0.82179
 C517 C 0.59686 0.55525 0.26509
 C518 C 0.62866 0.56593 0.23094
 C519 C 0.65665 0.53429 0.22401
 C520 C 0.65023 0.49557 0.25099
 C521 C 0.57467 0.51270 0.24922
 C522 C 0.60306 0.48153 0.24182
 C523 C 0.62451 0.54465 0.30469
 C524 C 0.65224 0.51324 0.29713
 H525 H 0.62951 0.59559 0.21484
 H526 H 0.67301 0.46988 0.24498
 H527 H 0.54022 0.50796 0.24410
 H528 H 0.62016 0.55864 0.33621
 C529 C 0.89888 0.45672 0.79508
 C530 C 0.87066 0.44497 0.75496
 C531 C 0.84839 0.47806 0.73969
 C532 C 0.85590 0.51998 0.76680
 C533 C 0.92761 0.49428 0.78297
 C534 C 0.90510 0.52745 0.76817
 C535 C 0.86892 0.47535 0.82711
 C536 C 0.84641 0.50850 0.81251
 H537 H 0.87102 0.41396 0.73849
 H538 H 0.83744 0.54685 0.75469
 H539 H 0.96224 0.49329 0.78268
 H540 H 0.86697 0.46410 0.85897
 C541 C 0.27159 0.39456 -0.05014
 C542 C 0.23504 0.36146 -0.05948
 C543 C 0.22356 0.34080 -0.02435
 C544 C 0.25086 0.35453 0.01657
 C545 C 0.25658 0.42409 -0.01458
 C546 C 0.24617 0.40318 0.02043
 C547 C 0.30844 0.37063 -0.02987
 C548 C 0.29768 0.34936 0.00477
 H549 H 0.21729 0.35797 -0.09006
 H550 H 0.24193 0.33741 0.04506
 H551 H 0.25385 0.45813 -0.01703
 H552 H 0.34033 0.37098 -0.04186
 C553 C 0.75616 0.07201 1.03041
 C554 C 0.71957 0.09641 1.04965
 C555 C 0.71569 0.13631 1.03495
 C556 C 0.74906 0.14830 1.00287
 C557 C 0.74719 0.07278 0.98206
 C558 C 0.74388 0.11272 0.96770
 C559 C 0.79677 0.10096 1.03999
 C560 C 0.79270 0.14082 1.02570
 H561 H 0.69791 0.08267 1.07147
 H562 H 0.74601 0.18088 0.99115
 H563 H 0.74493 0.04435 0.96113
 H564 H 0.82478 0.09202 1.05873
 C565 C 0.27011 0.58753 0.54181
 C566 C 0.22951 0.60783 0.55637
 C567 C 0.21227 0.63490 0.52822
 C568 C 0.23767 0.63918 0.48794
 C569 C 0.25744 0.56577 0.49811
 C570 C 0.24037 0.59323 0.47002
 C571 C 0.30073 0.62450 0.53283
 C572 C 0.28422 0.65114 0.50380
 H573 H 0.21501 0.60003 0.58567
 H574 H 0.22374 0.66120 0.46480
 H575 H 0.26172 0.53235 0.49028
 H576 H 0.33441 0.62529 0.54324
 C577 C 0.77781 0.90644 0.46410
 C578 C 0.73592 0.88079 0.45347
 C579 C 0.72225 0.85797 0.48624
 C580 C 0.75221 0.86275 0.52691
 C581 C 0.76918 0.93413 0.50379
 C582 C 0.75576 0.91138 0.53667
 C583 C 0.81017 0.87437 0.47923
 C584 C 0.79700 0.85160 0.51230
 H585 H 0.71773 0.88222 0.42331
 H586 H 0.74118 0.84409 0.55363
 H587 H 0.77050 0.96862 0.50472
 H588 H 0.84150 0.87173 0.46636
 C589 C -0.04022 0.28196 0.39140
 C590 C -0.05584 0.24503 0.36043
 C591 C -0.02421 0.22899 0.33670
 C592 C 0.01992 0.25218 0.34553
 C593 C -0.00294 0.26477 0.41798
 C594 C 0.02851 0.24917 0.39406
 C595 C -0.02021 0.31473 0.36398
 C596 C 0.01122 0.29957 0.33985
 H597 H -0.08776 0.23037 0.36023
 H598 H 0.04556 0.23949 0.32590
 H599 H -0.00258 0.26281 0.45227
 H600 H -0.02996 0.34745 0.36432
 C601 C 1.04068 0.76973 0.09323
 C602 C 1.05796 0.73221 0.11657
 C603 C 1.03079 0.71633 0.14483
 C604 C 0.98868 0.74008 0.14739
 C605 C 0.99701 0.75392 0.07260
 C606 C 0.96984 0.73858 0.10135
 C607 C 1.03021 0.80253 0.12857
 C608 C 1.00221 0.78728 0.15638
 H609 H 1.08829 0.71838 0.10977
 H610 H 0.96644 0.72727 0.17048
 H611 H 0.98822 0.75586 0.03901
 H612 H 1.03760 0.83631 0.12712
 C613 C 0.54035 0.24880 0.57432
 C614 C 0.55443 0.21110 0.59988
 C615 C 0.52539 0.19876 0.62810
 C616 C 0.48481 0.22511 0.62787
 C617 C 0.49662 0.23484 0.55269
 C618 C 0.46763 0.22230 0.58115
 C619 C 0.53083 0.28362 0.60743
 C620 C 0.50148 0.27158 0.63519
 H621 H 0.58429 0.19536 0.59548
 H622 H 0.46098 0.21504 0.65075
 H623 H 0.48957 0.23452 0.51861
 H624 H 0.54265 0.31626 0.60568
 C625 C 0.44428 0.77420 0.89451
 C626 C 0.43674 0.73289 0.86715
 C627 C 0.47243 0.72054 0.84730
 C628 C 0.51210 0.75069 0.85658
 C629 C 0.48210 0.76568 0.92534
 C630 C 0.51749 0.75329 0.90563
 C631 C 0.46148 0.80724 0.86499
 C632 C 0.49724 0.79508 0.84533
 H633 H 0.40699 0.71396 0.86572
 H634 H 0.54103 0.74051 0.84034
 H635 H 0.48019 0.76673 0.95965
 H636 H 0.44830 0.83846 0.86247
 N637 N 0.44597 -0.09394 0.28816
 N638 N 0.45672 -0.06036 0.27339
 N639 N 0.90243 0.38560 0.81659
 N640 N 0.92232 0.42082 0.81094
 N641 N 0.04395 1.09141 0.77740
 N642 N 0.07565 1.07072 0.79136
 N643 N 0.58092 0.62567 0.28728
 N644 N 0.56691 0.58831 0.27522
 N645 N 0.55234 0.42524 0.22153
 N646 N 0.59118 0.43898 0.22662
 N647 N 0.08307 0.89588 0.70700
 N648 N 0.06318 0.92794 0.72052
 N649 N 0.90888 0.59746 0.74318
 N650 N 0.92596 0.56168 0.74794
 N651 N 0.41166 0.11402 0.22717
 N652 N 0.43018 0.07875 0.22549
 N653 N 0.30269 0.39587 -0.11623
 N654 N 0.28421 0.41658 -0.08729
 N655 N 0.79251 0.91365 0.39136
 N656 N 0.79209 0.93089 0.42880
 N657 N 0.77591 0.02494 1.07929
 N658 N 0.75867 0.02854 1.04392
 N659 N 0.29640 0.57324 0.61095
 N660 N 0.28881 0.55943 0.57253
 N661 N 0.22818 0.54392 0.41080
 N662 N 0.22634 0.58157 0.42703
 N663 N 0.72238 0.09454 0.89660
 N664 N 0.73734 0.12153 0.92362
 N665 N 0.73460 0.91411 0.60825
 N666 N 0.73962 0.93238 0.57350
 N667 N 0.22932 0.40936 0.09256
 N668 N 0.22972 0.42522 0.05618
 N669 N -0.11189 0.28778 0.41392
 N670 N -0.07283 0.30097 0.41678
 N671 N 0.37115 0.79442 0.89841
 N672 N 0.40743 0.78826 0.91707
 N673 N 1.08245 0.82433 0.06342
 N674 N 1.07074 0.78519 0.06290
 N675 N 0.61030 0.27149 0.56138
 N676 N 0.57213 0.26413 0.54594
 N677 N 0.40913 0.20484 0.53134
 N678 N 0.42465 0.20725 0.56964
 N679 N 0.90863 0.72609 0.05388
 N680 N 0.92650 0.72402 0.09098
 N681 N 0.58911 0.73149 0.91304
 N682 N 0.55364 0.73860 0.92957
 N683 N 0.09682 0.21853 0.39399
 N684 N 0.06318 0.22721 0.41325
 N685 N 0.57034 0.15209 0.66282
 N686 N 0.53226 0.16394 0.65513
 N687 N 1.07636 0.66274 0.16536
 N688 N 1.03949 0.67858 0.16716
 N689 N 0.99055 0.85284 0.19262
 N690 N 0.97625 0.81580 0.17957
 N691 N 0.49782 0.33950 0.66891
 N692 N 0.48087 0.30228 0.66120
 N693 N 0.45526 0.64761 0.83944
 N694 N 0.47444 0.67988 0.82516
 N695 N -0.06809 0.17312 0.30571
 N696 N -0.03030 0.18959 0.31190
 N697 N 0.02900 0.36655 0.31588
 N698 N 0.03519 0.32670 0.31368
 N699 N 0.51345 0.86252 0.81921
 N700 N 0.52279 0.82359 0.82194
 N701 N 0.69014 0.55584 0.16273
 N702 N 0.69094 0.53608 0.19565
 N703 N 0.15437 1.06472 0.64699
 N704 N 0.15185 1.02782 0.66188
 N705 N 0.20088 0.96744 0.82154
 N706 N 0.19140 0.96869 0.78305
 N707 N 0.67031 0.50053 0.36936
 N708 N 0.67628 0.49320 0.33001
 N709 N 0.83181 0.44253 0.67418
 N710 N 0.82628 0.47521 0.69839
 N711 N 0.32882 -0.05313 0.15806
 N712 N 0.33698 -0.01705 0.17734
 N713 N 0.33352 0.01366 0.35779
 N714 N 0.33392 0.02494 0.31943
 N715 N 0.82017 0.52739 0.87889
 N716 N 0.81930 0.53278 0.83899
 N717 N 0.15363 0.64850 0.56895
 N718 N 0.17231 0.65485 0.53470
 N719 N 0.66039 0.15758 1.07870
 N720 N 0.68176 0.16374 1.04603
 N721 N 0.85292 0.18346 1.01417
 N722 N 0.82360 0.17457 1.03734
 N723 N 0.35057 0.68579 0.49328
 N724 N 0.31162 0.67775 0.48036
 N725 N 0.65184 0.84904 0.45830
 N726 N 0.68102 0.83598 0.48382
 N727 N 0.16556 0.30330 -0.06000
 N728 N 0.18473 0.31495 -0.02443
 N729 N 0.36775 0.32802 0.02056
 N730 N 0.32820 0.32590 0.02882
 N731 N 0.86412 0.82202 0.52702
 N732 N 0.82453 0.82363 0.53480
   
