data_POSCAR
  _audit_creation_date              2014-09-24
  _audit_creation_method            'ToBaCCo'
  _symmetry_space_group_name_H-M    'P1'
  _symmetry_Int_Tables_number       1
  _symmetry_cell_setting            triclinic
  loop_
  _symmetry_equiv_pos_as_xyz
 x,y,z
_cell_length_a 41.6073
_cell_length_b 43.2099
_cell_length_c 39.4460
_cell_angle_alpha 90.966400
_cell_angle_beta 91.514600
_cell_angle_gamma 90.567900
loop_
  _atom_site_label
  _atom_site_type_symbol
  _atom_site_fract_x
  _atom_site_fract_y
  _atom_site_fract_z
N1 N 0.19202 0.20194 0.16145
 N2 N -0.22240 0.77017 0.24666
 N3 N -0.22629 0.23483 -0.23187
 N4 N 0.22402 0.78419 -0.19841
 N5 N 0.20083 1.20914 0.83533
 N6 N 0.77694 0.78223 0.75384
 N7 N 0.23050 0.77724 1.21494
 N8 N 0.79984 1.22166 1.20941
 O9 O 0.54080 0.97019 0.93425
 O10 O 0.47925 0.96585 1.06682
 O11 O 0.57841 0.98314 1.03507
 O12 O 0.47911 0.94520 0.96419
 O13 O 0.53928 0.96575 1.06535
 O14 O 0.48231 0.97832 0.92678
 O15 O 0.46963 0.93953 1.02135
 O16 O 0.56375 0.95646 0.98050
 C17 C 0.55807 0.95133 0.94995
 C18 C 0.46929 0.94145 1.05262
 C19 C 0.56845 0.96610 1.05824
 C20 C 0.47658 0.95107 0.93405
 O21 O 0.48845 1.03464 0.95352
 O22 O 0.53952 1.02661 1.06208
 O23 O 0.59220 1.00801 0.97279
 O24 O 0.44352 0.99717 1.02620
 O25 O 0.47772 1.02468 1.05830
 O26 O 0.54809 1.03025 0.95334
 O27 O 0.44930 1.00347 0.96608
 O28 O 0.55851 1.03596 1.01281
 Co29 Co 0.51466 1.00206 0.94743
 Co30 Co 0.50932 0.99544 1.05726
 Co31 Co 0.55787 0.99581 0.99609
 Co32 Co 0.46412 0.97275 0.99440
 O33 O 0.51004 0.99046 1.00158
 C34 C 0.45904 1.02999 0.95748
 C35 C 0.55610 1.04323 1.04334
 C36 C 0.57841 1.02638 0.95054
 C37 C 0.44975 1.01988 1.04638
 O38 O 0.02098 0.48013 0.03771
 O39 O 0.01955 0.53780 -0.05498
 O40 O -0.01993 0.44612 -0.03196
 O41 O -0.00649 0.57279 0.03608
 O42 O 0.01656 0.47853 -0.04767
 O43 O 0.02575 0.53561 0.04267
 O44 O -0.00419 0.57479 -0.02632
 O45 O -0.01716 0.44742 0.02902
 C46 C 0.01208 0.45273 0.03469
 C47 C 0.01794 0.56557 -0.04533
 C48 C 0.00816 0.45136 -0.04183
 C49 C 0.02132 0.56383 0.04250
 O50 O -0.03410 0.53801 0.07077
 O51 O -0.04446 0.48055 -0.07082
 O52 O -0.07356 0.47889 0.03031
 O53 O -0.06629 0.56338 -0.03176
 O54 O -0.04182 0.53776 -0.07187
 O55 O -0.03672 0.48230 0.06857
 O56 O -0.06737 0.55416 0.03191
 O57 O -0.07754 0.47475 -0.03083
 Co58 Co -0.00765 0.50922 0.05032
 Co59 Co -0.01353 0.50858 -0.05544
 Co60 Co -0.04525 0.46582 -0.00072
 Co61 Co -0.03517 0.56096 0.00242
 O62 O -0.02522 0.51131 -0.00121
 C63 C -0.06125 0.54875 0.06231
 C64 C -0.07243 0.47460 -0.06160
 C65 C -0.06553 0.47673 0.06059
 C66 C -0.06363 0.55585 -0.06231
 O67 O 1.07632 0.04064 0.46610
 O68 O 0.97509 0.04652 0.53762
 O69 O 0.98981 0.01787 0.43406
 O70 O 1.03106 0.05211 0.55071
 O71 O 0.97728 0.04964 0.47485
 O72 O 1.07835 0.04318 0.53172
 O73 O 0.99213 0.02453 0.58481
 O74 O 1.04710 0.01199 0.42991
 C75 C 1.06578 0.03494 0.43639
 C76 C 0.97165 0.04315 0.56954
 C77 C 0.98036 0.04425 0.44386
 C78 C 1.06010 0.05932 0.54935
 O79 O 1.08293 -0.01729 0.53242
 O80 O 0.95253 -0.00681 0.46861
 O81 O 1.04320 -0.04521 0.45763
 O82 O 1.00081 -0.02763 0.55501
 O83 O 0.95761 -0.01349 0.53017
 O84 O 1.08543 -0.01802 0.46886
 O85 O 1.05143 -0.00055 0.57208
 O86 O 0.98831 -0.04005 0.46589
 Co87 Co 1.07516 0.01180 0.49998
 Co88 Co 0.97088 0.01770 0.50267
 Co89 Co 1.01694 -0.01237 0.45085
 Co90 Co 1.01529 0.01189 0.54935
 O91 O 1.02240 0.00610 0.49932
 C92 C 1.07421 -0.01724 0.56266
 C93 C 0.95964 -0.03420 0.46331
 C94 C 1.07284 -0.04259 0.45773
 C95 C 0.97211 -0.03280 0.54798
 C96 C 1.14975 0.15545 0.24383
 C97 C 1.15383 0.18781 0.24494
 C98 C 1.16745 0.20314 0.21775
 C99 C 1.17766 0.18632 0.18935
 C100 C 1.17367 0.15405 0.18827
 C101 C 1.15968 0.13878 0.21512
 C102 C 1.13544 0.13893 0.27240
 N103 N 1.12395 0.10959 0.26794
 N104 N 1.11170 0.09429 0.29367
 C105 C 1.11057 0.10761 0.32503
 N106 N 1.12200 0.13700 0.32953
 N107 N 1.13410 0.15240 0.30370
 C108 C 1.09790 0.09000 0.35371
 C109 C 1.10469 0.09949 0.38743
 C110 C 1.09412 0.08174 0.41438
 C111 C 1.07628 0.05435 0.40813
 C112 C 1.06880 0.04536 0.37442
 C113 C 1.07963 0.06288 0.34754
 H114 H 1.14630 0.20128 0.26666
 H115 H 1.17038 0.22806 0.21895
 H116 H 1.18117 0.14073 0.16642
 H117 H 1.15698 0.11384 0.21352
 H118 H 1.11874 0.12027 0.39300
 H119 H 1.10009 0.08938 0.44009
 H120 H 1.05495 0.02447 0.36873
 H121 H 1.07377 0.05506 0.32187
 C122 C 0.82521 -0.18435 0.33075
 C123 C 0.79162 -0.18307 0.32665
 C124 C 0.77593 -0.19928 0.30001
 C125 C 0.79349 -0.21682 0.27672
 C126 C 0.82699 -0.21870 0.28132
 C127 C 0.84264 -0.20291 0.30826
 C128 C 0.84229 -0.16481 0.35672
 N129 N 0.87341 -0.17049 0.36546
 N130 N 0.88972 -0.15146 0.38664
 C131 C 0.87571 -0.12587 0.39987
 N132 N 0.84443 -0.12039 0.39151
 N133 N 0.82802 -0.13954 0.37044
 C134 C 0.89515 -0.10329 0.42054
 C135 C 0.88409 -0.07309 0.42680
 C136 C 0.90453 -0.05068 0.44214
 C137 C 0.93626 -0.05818 0.45146
 C138 C 0.94657 -0.08880 0.44707
 C139 C 0.92628 -0.11107 0.43178
 H140 H 0.77752 -0.16908 0.34364
 H141 H 0.75009 -0.19743 0.29688
 H142 H 0.84120 -0.23139 0.26328
 H143 H 0.86859 -0.20415 0.31055
 H144 H 0.86017 -0.06639 0.41854
 H145 H 0.89596 -0.02726 0.44545
 H146 H 0.97080 -0.09537 0.45441
 H147 H 0.93544 -0.13418 0.42778
 C148 C 0.83580 0.18816 0.70109
 C149 C 0.80256 0.18913 0.69384
 C150 C 0.78228 0.20550 0.71519
 C151 C 0.79496 0.22167 0.74367
 C152 C 0.82827 0.22187 0.75015
 C153 C 0.84852 0.20512 0.72914
 C154 C 0.85677 0.16812 0.68075
 N155 N 0.88539 0.15839 0.69382
 N156 N 0.90357 0.13899 0.67630
 C157 C 0.89394 0.12864 0.64493
 N158 N 0.86547 0.13861 0.63171
 N159 N 0.84718 0.15783 0.64933
 C160 C 0.91380 0.10665 0.62574
 C161 C 0.90950 0.10321 0.59044
 C162 C 0.92834 0.08254 0.57226
 C163 C 0.95146 0.06449 0.58907
 C164 C 0.95556 0.06764 0.62440
 C165 C 0.93709 0.08872 0.64254
 H166 H 0.79204 0.17619 0.67250
 H167 H 0.75657 0.20494 0.71014
 H168 H 0.83834 0.23387 0.77236
 H169 H 0.87404 0.20492 0.73527
 H170 H 0.89186 0.11681 0.57678
 H171 H 0.92478 0.08072 0.54502
 H172 H 0.97331 0.05413 0.63800
 H173 H 0.94082 0.09074 0.66976
 C174 C 1.17752 -0.15690 0.73016
 C175 C 1.16753 -0.18787 0.73296
 C176 C 1.18275 -0.20719 0.75636
 C177 C 1.20776 -0.19570 0.77784
 C178 C 1.21678 -0.16433 0.77580
 C179 C 1.20220 -0.14530 0.75183
 C180 C 1.16246 -0.13668 0.70473
 N181 N 1.17986 -0.11390 0.69028
 N182 N 1.16629 -0.09539 0.66748
 C183 C 1.13471 -0.09873 0.65857
 N184 N 1.11728 -0.12147 0.67308
 N185 N 1.13094 -0.14022 0.69557
 C186 C 1.11947 -0.07773 0.63403
 C187 C 1.08706 -0.06976 0.63709
 C188 C 1.07265 -0.04949 0.61425
 C189 C 1.09016 -0.03750 0.58741
 C190 C 1.12248 -0.04573 0.58406
 C191 C 1.13717 -0.06535 0.60752
 H192 H 1.14850 -0.19732 0.71648
 H193 H 1.17529 -0.23122 0.75746
 H194 H 1.23530 -0.15456 0.79267
 H195 H 1.20995 -0.12135 0.75053
 H196 H 1.07298 -0.07888 0.65743
 H197 H 1.04761 -0.04365 0.61719
 H198 H 1.13641 -0.03676 0.56352
 H199 H 1.16219 -0.07128 0.60461
 C200 C 0.27385 1.15816 1.12091
 C201 C 0.27382 1.16775 1.15515
 C202 C 0.24728 1.18293 1.16818
 C203 C 0.22060 1.18931 1.14713
 C204 C 0.22106 1.18094 1.11264
 C205 C 0.24738 1.16527 1.09966
 C206 C 0.30059 1.13947 1.10804
 N207 N 0.29643 1.12123 1.07984
 N208 N 0.31995 1.10298 1.06941
 C209 C 0.34861 1.10236 1.08665
 N210 N 0.35288 1.12087 1.11460
 N211 N 0.32931 1.13895 1.12516
 C212 C 0.37442 1.08143 1.07585
 C213 C 0.40623 1.08658 1.08751
 C214 C 0.43061 1.06657 1.07792
 C215 C 0.42367 1.04074 1.05676
 C216 C 0.39178 1.03536 1.04542
 C217 C 0.36745 1.05570 1.05456
 H218 H 0.29380 1.16252 1.17218
 H219 H 0.24719 1.18921 1.19487
 H220 H 0.20049 1.18546 1.09614
 H221 H 0.24681 1.15830 1.07315
 H222 H 0.41237 1.10624 1.10389
 H223 H 0.45493 1.07140 1.08711
 H224 H 0.38558 1.01540 1.02954
 H225 H 0.34309 1.05096 1.04545
 C226 C 0.32099 0.80952 0.82593
 C227 C 0.30098 0.79826 0.85122
 C228 C 0.26966 0.78822 0.84303
 C229 C 0.25794 0.78878 0.80932
 C230 C 0.27906 0.79727 0.78370
 C231 C 0.31010 0.80803 0.79197
 C232 C 0.35141 0.82572 0.83551
 N233 N 0.36261 0.84916 0.81636
 N234 N 0.38748 0.86666 0.82728
 C235 C 0.40230 0.86123 0.85766
 N236 N 0.39159 0.83726 0.87631
 N237 N 0.36660 0.81996 0.86555
 C238 C 0.42687 0.88293 0.87237
 C239 C 0.44504 0.87434 0.90111
 C240 C 0.46317 0.89632 0.91962
 C241 C 0.46357 0.92743 0.90987
 C242 C 0.44782 0.93564 0.87948
 C243 C 0.42956 0.91349 0.86081
 H244 H 0.30874 0.79913 0.87764
 H245 H 0.25401 0.78179 0.86329
 H246 H 0.27081 0.79727 0.75744
 H247 H 0.32519 0.81617 0.77195
 H248 H 0.44394 0.85091 0.91038
 H249 H 0.47553 0.88927 0.94270
 H250 H 0.44784 0.95948 0.87142
 H251 H 0.41591 0.92079 0.83865
 C252 C 0.71527 0.82838 1.18956
 C253 C 0.74681 0.83803 1.19831
 C254 C 0.76702 0.81905 1.21736
 C255 C 0.75623 0.78996 1.22781
 C256 C 0.72484 0.78015 1.21914
 C257 C 0.70444 0.79926 1.20031
 C258 C 0.69385 0.84863 1.16944
 N259 N 0.66184 0.84245 1.16638
 N260 N 0.64253 0.86088 1.14863
 C261 C 0.65439 0.88619 1.13305
 N262 N 0.68643 0.89230 1.13594
 N263 N 0.70574 0.87393 1.15382
 C264 C 0.63270 0.90682 1.11373
 C265 C 0.64503 0.92945 1.09221
 C266 C 0.62427 0.94878 1.07402
 C267 C 0.59083 0.94606 1.07733
 C268 C 0.57860 0.92353 1.09896
 C269 C 0.59926 0.90408 1.11681
 H270 H 0.75588 0.86032 1.19056
 H271 H 0.79131 0.82682 1.22368
 H272 H 0.71627 0.75771 1.22701
 H273 H 0.68031 0.79110 1.19392
 H274 H 0.67070 0.93208 1.08922
 H275 H 0.63437 0.96590 1.05751
 H276 H 0.55293 0.92073 1.10197
 H277 H 0.58894 0.88700 1.13323
 C278 C 0.71290 1.17217 0.81963
 C279 C 0.74545 1.16541 0.81487
 C280 C 0.76518 1.18592 0.79795
 C281 C 0.75291 1.21374 0.78539
 C282 C 0.72044 1.22068 0.78999
 C283 C 0.70054 1.20003 0.80693
 C284 C 0.69235 1.15022 0.83801
 N285 N 0.66035 1.15511 0.84114
 N286 N 0.64217 1.13529 0.85793
 C287 C 0.65524 1.10979 0.87231
 N288 N 0.68720 1.10493 0.86912
 N289 N 0.70533 1.12468 0.85232
 C290 C 0.63532 1.08792 0.89151
 C291 C 0.64973 1.06336 0.90905
 C292 C 0.63118 1.04316 0.92791
 C293 C 0.59782 1.04700 0.92956
 C294 C 0.58326 1.07118 0.91163
 C295 C 0.60183 1.09149 0.89287
 H296 H 0.75584 1.14424 0.82428
 H297 H 0.79024 1.18024 0.79495
 H298 H 0.71061 1.24202 0.78040
 H299 H 0.67558 1.20596 0.81021
 H300 H 0.67544 1.05987 0.90854
 H301 H 0.64301 1.02464 0.94136
 H302 H 0.55755 1.07466 0.91243
 H303 H 0.58993 1.11006 0.87957
 C304 C 0.14365 0.27626 0.11293
 C305 C 0.12635 0.25045 0.12419
 C306 C 0.14218 0.22627 0.14032
 C307 C 0.17569 0.22720 0.14526
 C308 C 0.19312 0.25278 0.13377
 C309 C 0.17722 0.27722 0.11794
 C310 C 0.12642 0.30209 0.09660
 N311 N 0.14084 0.33015 0.09287
 N312 N 0.12455 0.35369 0.07964
 C313 C 0.09328 0.35002 0.06941
 N314 N 0.07912 0.32184 0.07273
 N315 N 0.09531 0.29840 0.08605
 C316 C 0.07411 0.37644 0.05704
 C317 C 0.04238 0.37141 0.04501
 C318 C 0.02273 0.39626 0.03700
 C319 C 0.03430 0.42680 0.04057
 C320 C 0.06648 0.43195 0.05097
 C321 C 0.08624 0.40695 0.05917
 H322 H 0.10046 0.24900 0.12086
 H323 H 0.12830 0.20661 0.14862
 H324 H 0.21899 0.25390 0.13737
 H325 H 0.19122 0.29676 0.10950
 H326 H 0.03233 0.34824 0.04260
 H327 H -0.00185 0.39150 0.02859
 H328 H 0.07609 0.45527 0.05369
 H329 H 0.11064 0.41159 0.06820
 C330 C -0.20374 0.32570 -0.19351
 C331 C -0.19900 0.31801 -0.22774
 C332 C -0.20783 0.28874 -0.24066
 C333 C -0.22113 0.26630 -0.21954
 C334 C -0.22717 0.27458 -0.18567
 C335 C -0.21878 0.30397 -0.17290
 C336 C -0.19049 0.35491 -0.17847
 N337 N -0.19868 0.36423 -0.14685
 N338 N -0.18391 0.38830 -0.13154
 C339 C -0.16023 0.40406 -0.14711
 N340 N -0.15256 0.39521 -0.17909
 N341 N -0.16744 0.37119 -0.19448
 C342 C -0.14060 0.42756 -0.12792
 C343 C -0.11128 0.43833 -0.14052
 C344 C -0.08981 0.45555 -0.11963
 C345 C -0.09731 0.46233 -0.08581
 C346 C -0.12774 0.45385 -0.07420
 C347 C -0.14913 0.43664 -0.09501
 H348 H -0.18773 0.33434 -0.24435
 H349 H -0.20333 0.28327 -0.26698
 H350 H -0.23712 0.25797 -0.16850
 H351 H -0.22270 0.30909 -0.14637
 H352 H -0.10405 0.43196 -0.16584
 H353 H -0.06664 0.46201 -0.12936
 H354 H -0.13439 0.45907 -0.04838
 H355 H -0.17170 0.42915 -0.08465
 C356 C 0.16823 0.71911 -0.14413
 C357 C 0.19725 0.71017 -0.15883
 C358 C 0.21578 0.73161 -0.17625
 C359 C 0.20548 0.76224 -0.17960
 C360 C 0.17676 0.77130 -0.16462
 C361 C 0.15838 0.75002 -0.14699
 C362 C 0.14788 0.69628 -0.12664
 N363 N 0.12201 0.70564 -0.10898
 N364 N 0.10302 0.68512 -0.09429
 C365 C 0.10901 0.65433 -0.09668
 N366 N 0.13501 0.64497 -0.11415
 N367 N 0.15407 0.66551 -0.12876
 C368 C 0.08690 0.63142 -0.08175
 C369 C 0.08975 0.59968 -0.08936
 C370 C 0.06769 0.57828 -0.07708
 C371 C 0.04234 0.58807 -0.05674
 C372 C 0.04005 0.61969 -0.04828
 C373 C 0.06201 0.64113 -0.06074
 H374 H 0.20561 0.68660 -0.15701
 H375 H 0.23789 0.72424 -0.18763
 H376 H 0.16859 0.79493 -0.16661
 H377 H 0.13621 0.75773 -0.13601
 H378 H 0.10864 0.59137 -0.10542
 H379 H 0.07026 0.55408 -0.08395
 H380 H 0.02094 0.62800 -0.03249
 H381 H 0.05923 0.66536 -0.05416
 C382 C -0.19026 0.68509 0.20274
 C383 C -0.18876 0.68975 0.23807
 C384 C -0.20042 0.71708 0.25262
 C385 C -0.21288 0.74071 0.23206
 C386 C -0.21493 0.73551 0.19674
 C387 C -0.20407 0.70799 0.18236
 C388 C -0.17589 0.65756 0.18656
 N389 N -0.18539 0.64873 0.15466
 N390 N -0.17026 0.62625 0.13830
 C391 C -0.14486 0.61169 0.15302
 N392 N -0.13573 0.62006 0.18527
 N393 N -0.15104 0.64248 0.20177
 C394 C -0.12551 0.58997 0.13262
 C395 C -0.09469 0.58084 0.14382
 C396 C -0.07424 0.56538 0.12165
 C397 C -0.08428 0.55900 0.08796
 C398 C -0.11595 0.56585 0.07774
 C399 C -0.13634 0.58108 0.09981
 H400 H -0.17845 0.67234 0.25440
 H401 H -0.19911 0.72003 0.27992
 H402 H -0.22411 0.75308 0.17994
 H403 H -0.20535 0.70522 0.15501
 H404 H -0.08568 0.58715 0.16902
 H405 H -0.04998 0.56019 0.13024
 H406 H -0.12454 0.56071 0.05207
 H407 H -0.16010 0.58725 0.09049
 C408 C 1.16274 0.17542 0.74116
 C409 C 1.18232 0.15663 0.76153
 C410 C 1.19515 0.16777 0.79256
 C411 C 1.18941 0.19840 0.80388
 C412 C 1.17058 0.21741 0.78241
 C413 C 1.15708 0.20592 0.75184
 C414 C 1.14781 0.16290 0.70930
 N415 N 1.11865 0.17295 0.69796
 N416 N 1.10459 0.16053 0.67008
 C417 C 1.11937 0.13787 0.65219
 N418 N 1.14867 0.12813 0.66336
 N419 N 1.16254 0.14028 0.69140
 C420 C 1.10340 0.12255 0.62233
 C421 C 1.12204 0.10787 0.59780
 C422 C 1.10753 0.08939 0.57230
 C423 C 1.07402 0.08469 0.57102
 C424 C 1.05512 0.10098 0.59423
 C425 C 1.06970 0.11996 0.61954
 H426 H 1.18682 0.13288 0.75402
 H427 H 1.20856 0.15185 0.80826
 H428 H 1.16627 0.24135 0.78924
 H429 H 1.14242 0.22103 0.73635
 H430 H 1.14802 0.10978 0.59905
 H431 H 1.12284 0.07730 0.55479
 H432 H 1.02926 0.09776 0.59399
 H433 H 1.05474 0.13105 0.63812
 C434 C 0.83748 -0.17160 0.68456
 C435 C 0.80384 -0.17197 0.67954
 C436 C 0.78405 -0.18712 0.70226
 C437 C 0.79745 -0.20244 0.73025
 C438 C 0.83098 -0.20196 0.73543
 C439 C 0.85078 -0.18681 0.71280
 C440 C 0.85852 -0.15485 0.66102
 N441 N 0.89082 -0.15307 0.66691
 N442 N 0.90959 -0.13705 0.64655
 C443 C 0.89689 -0.12218 0.61932
 N444 N 0.86464 -0.12424 0.61322
 N445 N 0.84587 -0.14024 0.63360
 C446 C 0.91740 -0.10243 0.59808
 C447 C 0.90384 -0.08620 0.57071
 C448 C 0.92218 -0.06475 0.55324
 C449 C 0.95452 -0.05905 0.56270
 C450 C 0.96867 -0.07655 0.58870
 C451 C 0.95029 -0.09800 0.60624
 H452 H 0.79274 -0.16038 0.65818
 H453 H 0.75824 -0.18709 0.69797
 H454 H 0.84179 -0.21310 0.75724
 H455 H 0.87651 -0.18685 0.71763
 H456 H 0.87871 -0.08924 0.56346
 H457 H 0.91069 -0.05180 0.53309
 H458 H 0.99356 -0.07269 0.59649
 H459 H 0.96161 -0.11028 0.62699
 C460 C 1.19324 -0.17658 0.30037
 C461 C 1.21318 -0.16083 0.27810
 C462 C 1.22592 -0.17612 0.25010
 C463 C 1.21956 -0.20792 0.24374
 C464 C 1.20024 -0.22374 0.26693
 C465 C 1.18712 -0.20826 0.29464
 C466 C 1.17778 -0.15963 0.32843
 N467 N 1.15113 -0.17127 0.34305
 N468 N 1.13603 -0.15505 0.36675
 C469 C 1.14710 -0.12662 0.37698
 N470 N 1.17401 -0.11523 0.36271
 N471 N 1.18898 -0.13134 0.33890
 C472 C 1.12911 -0.10742 0.40137
 C473 C 1.14341 -0.08068 0.41615
 C474 C 1.12549 -0.06051 0.43600
 C475 C 1.09274 -0.06644 0.44128
 C476 C 1.07879 -0.09393 0.42788
 C477 C 1.09685 -0.11430 0.40825
 H478 H 1.21806 -0.13630 0.28159
 H479 H 1.23960 -0.16259 0.23258
 H480 H 1.19519 -0.24825 0.26356
 H481 H 1.17205 -0.22111 0.31153
 H482 H 1.16829 -0.07485 0.41164
 H483 H 1.13699 -0.03959 0.44605
 H484 H 1.05362 -0.09916 0.43157
 H485 H 1.08512 -0.13473 0.39728
 C486 C 0.85640 0.17200 0.27990
 C487 C 0.84301 0.15719 0.25077
 C488 C 0.82355 0.17340 0.22791
 C489 C 0.81728 0.20514 0.23319
 C490 C 0.83018 0.21967 0.26294
 C491 C 0.84937 0.20331 0.28596
 C492 C 0.87779 0.15490 0.30359
 N493 N 0.88623 0.16698 0.33462
 N494 N 0.90519 0.15139 0.35595
 C495 C 0.91672 0.12317 0.34704
 N496 N 0.90845 0.11122 0.31591
 N497 N 0.88941 0.12673 0.29466
 C498 C 0.93649 0.10502 0.37129
 C499 C 0.95163 0.07775 0.36054
 C500 C 0.96748 0.05889 0.38393
 C501 C 0.96834 0.06672 0.41867
 C502 C 0.95467 0.09479 0.42922
 C503 C 0.93900 0.11378 0.40577
 H504 H 0.84774 0.13302 0.24542
 H505 H 0.81449 0.16137 0.20527
 H506 H 0.82527 0.24377 0.26844
 H507 H 0.85909 0.21538 0.30829
 H508 H 0.95054 0.07050 0.33412
 H509 H 0.97796 0.03754 0.37492
 H510 H 0.95502 0.10155 0.45579
 H511 H 0.92778 0.13472 0.41491
 C512 C 0.14696 0.27650 -0.11318
 C513 C 0.13161 0.25103 -0.12948
 C514 C 0.14946 0.22845 -0.14603
 C515 C 0.18330 0.23052 -0.14666
 C516 C 0.19869 0.25532 -0.12879
 C517 C 0.18072 0.27818 -0.11261
 C518 C 0.12763 0.30167 -0.09818
 N519 N 0.14112 0.32969 -0.09007
 N520 N 0.12320 0.35287 -0.07868
 C521 C 0.09106 0.34896 -0.07479
 N522 N 0.07770 0.32082 -0.08246
 N523 N 0.09557 0.29772 -0.09396
 C524 C 0.07058 0.37514 -0.06419
 C525 C 0.03814 0.36995 -0.05669
 C526 C 0.01809 0.39468 -0.04907
 C527 C 0.02992 0.42525 -0.04885
 C528 C 0.06251 0.43048 -0.05554
 C529 C 0.08267 0.40567 -0.06301
 H530 H 0.10566 0.24884 -0.13020
 H531 H 0.13676 0.20919 -0.15838
 H532 H 0.22462 0.25777 -0.12865
 H533 H 0.19329 0.29739 -0.10004
 H534 H 0.02806 0.34674 -0.05708
 H535 H -0.00685 0.38986 -0.04377
 H536 H 0.07238 0.45377 -0.05521
 H537 H 0.10753 0.41050 -0.06860
 C538 C -0.17060 0.31164 0.18263
 C539 C -0.14803 0.28986 0.19371
 C540 C -0.15778 0.26018 0.20263
 C541 C -0.19061 0.25139 0.20139
 C542 C -0.21323 0.27383 0.19111
 C543 C -0.20331 0.30338 0.18154
 C544 C -0.15963 0.34214 0.17064
 N545 N -0.17790 0.35849 0.14834
 N546 N -0.16658 0.38445 0.13505
 C547 C -0.13666 0.39527 0.14377
 N548 N -0.11877 0.37929 0.16670
 N549 N -0.12998 0.35327 0.17979
 C550 C -0.12213 0.42159 0.12583
 C551 C -0.09278 0.43465 0.13769
 C552 C -0.07558 0.45484 0.11749
 C553 C -0.08724 0.46219 0.08491
 C554 C -0.11791 0.45138 0.07428
 C555 C -0.13525 0.43132 0.09461
 H556 H -0.12257 0.29538 0.19438
 H557 H -0.13933 0.24373 0.20936
 H558 H -0.23874 0.26860 0.19064
 H559 H -0.22128 0.31981 0.17335
 H560 H -0.08225 0.42801 0.16185
 H561 H -0.05217 0.46306 0.12654
 H562 H -0.12762 0.45684 0.04936
 H563 H -0.15791 0.42186 0.08483
 C564 C -0.19193 0.69681 -0.20370
 C565 C -0.21042 0.71755 -0.18476
 C566 C -0.22130 0.74502 -0.19888
 C567 C -0.21436 0.75239 -0.23254
 C568 C -0.19737 0.73078 -0.25208
 C569 C -0.18598 0.70345 -0.23772
 C570 C -0.17728 0.66972 -0.18700
 N571 N -0.15201 0.65477 -0.20077
 N572 N -0.13672 0.63264 -0.18377
 C573 C -0.14615 0.62450 -0.15239
 N574 N -0.17189 0.63895 -0.13911
 N575 N -0.18709 0.66107 -0.15600
 C576 C -0.12708 0.60279 -0.13140
 C577 C -0.13596 0.59722 -0.09790
 C578 C -0.11585 0.58081 -0.07607
 C579 C -0.08648 0.56922 -0.08720
 C580 C -0.07844 0.57285 -0.12128
 C581 C -0.09852 0.58966 -0.14319
 H582 H -0.21543 0.71323 -0.15845
 H583 H -0.23418 0.76097 -0.18289
 H584 H -0.19219 0.73544 -0.27827
 H585 H -0.17207 0.68778 -0.25307
 H586 H -0.15789 0.60663 -0.08797
 H587 H -0.12292 0.57795 -0.05006
 H588 H -0.05596 0.56405 -0.13051
 H589 H -0.09106 0.59336 -0.16890
 C590 C 0.17202 0.71209 0.16094
 C591 C 0.20516 0.70709 0.16536
 C592 C 0.22454 0.72844 0.18370
 C593 C 0.21122 0.75523 0.19845
 C594 C 0.17777 0.75962 0.19459
 C595 C 0.15855 0.73847 0.17598
 C596 C 0.15148 0.69030 0.14039
 N597 N 0.12141 0.69855 0.13016
 N598 N 0.10267 0.67908 0.11193
 C599 C 0.11314 0.65046 0.10314
 N600 N 0.14328 0.64217 0.11327
 N601 N 0.16212 0.66174 0.13141
 C602 C 0.09142 0.62846 0.08429
 C603 C 0.09870 0.59680 0.08181
 C604 C 0.07646 0.57576 0.06701
 C605 C 0.04662 0.58604 0.05432
 C606 C 0.04012 0.61786 0.05521
 C607 C 0.06220 0.63881 0.07009
 H608 H 0.21625 0.68692 0.15418
 H609 H 0.25003 0.72400 0.18652
 H610 H 0.16663 0.78017 0.20484
 H611 H 0.13307 0.74297 0.17319
 H612 H 0.12106 0.58810 0.09236
 H613 H 0.08218 0.55136 0.06652
 H614 H 0.01748 0.62654 0.04530
 H615 H 0.05600 0.66308 0.07113
 C616 C 0.28496 1.17022 0.87816
 C617 C 0.25893 1.17788 0.89854
 C618 C 0.23153 1.19175 0.88457
 C619 C 0.22900 1.19781 0.84953
 C620 C 0.25578 1.19114 0.82947
 C621 C 0.28338 1.17766 0.84363
 C622 C 0.31269 1.15299 0.89255
 N623 N 0.34100 1.15146 0.87617
 N624 N 0.36515 1.13442 0.88827
 C625 C 0.36188 1.11803 0.91710
 N626 N 0.33369 1.11979 0.93359
 N627 N 0.30968 1.13699 0.92165
 C628 C 0.38755 1.09700 0.92918
 C629 C 0.37964 1.07148 0.94901
 C630 C 0.40301 1.05007 0.95832
 C631 C 0.43510 1.05403 0.94894
 C632 C 0.44336 1.08010 0.93004
 C633 C 0.41970 1.10121 0.91991
 H634 H 0.25947 1.17266 0.92530
 H635 H 0.21159 1.19631 0.90096
 H636 H 0.25530 1.19632 0.80270
 H637 H 0.30311 1.17223 0.82727
 H638 H 0.35509 1.06740 0.95637
 H639 H 0.39578 1.03003 0.97241
 H640 H 0.46786 1.08370 0.92226
 H641 H 0.42652 1.12072 0.90470
 C642 C 0.31646 0.80836 1.17153
 C643 C 0.29079 0.79702 1.15097
 C644 C 0.26265 0.78619 1.16533
 C645 C 0.25928 0.78600 1.20089
 C646 C 0.28588 0.79602 1.22142
 C647 C 0.31391 0.80732 1.20692
 C648 C 0.34468 0.82296 1.15585
 N649 N 0.36497 0.84193 1.17428
 N650 N 0.38845 0.85738 1.15934
 C651 C 0.39270 0.85439 1.12540
 N652 N 0.37283 0.83490 1.10718
 N653 N 0.34932 0.81957 1.12205
 C654 C 0.41634 0.87402 1.10796
 C655 C 0.42119 0.86982 1.07305
 C656 C 0.43982 0.89089 1.05541
 C657 C 0.45398 0.91670 1.07225
 C658 C 0.45076 0.91994 1.10750
 C659 C 0.43217 0.89878 1.12520
 H660 H 0.29184 0.79765 1.12359
 H661 H 0.24288 0.77935 1.14835
 H662 H 0.28489 0.79533 1.24880
 H663 H 0.33347 0.81554 1.22346
 H664 H 0.40965 0.85085 1.05901
 H665 H 0.44202 0.88762 1.02829
 H666 H 0.46154 0.93952 1.12121
 H667 H 0.42908 0.90264 1.15210
 C668 C 0.72030 1.17863 1.15847
 C669 C 0.72624 1.17401 1.19325
 C670 C 0.75260 1.18819 1.21007
 C671 C 0.77367 1.20782 1.19274
 C672 C 0.76746 1.21242 1.15781
 C673 C 0.74124 1.19798 1.14096
 C674 C 0.69283 1.16274 1.14052
 N675 N 0.69019 1.16236 1.10609
 N676 N 0.66621 1.14698 1.09002
 C677 C 0.64374 1.13149 1.10770
 N678 N 0.64620 1.13220 1.14212
 N679 N 0.67021 1.14747 1.15817
 C680 C 0.61833 1.11244 1.09002
 C681 C 0.59420 1.09807 1.10865
 C682 C 0.57267 1.07701 1.09294
 C683 C 0.57475 1.06974 1.05822
 C684 C 0.59761 1.08546 1.03910
 C685 C 0.61916 1.10664 1.05484
 H686 H 0.71066 1.15917 1.20754
 H687 H 0.75620 1.18428 1.23695
 H688 H 0.78348 1.22656 1.14322
 H689 H 0.73749 1.20191 1.11412
 H690 H 0.59259 1.10224 1.13569
 H691 H 0.55526 1.06541 1.10838
 H692 H 0.59987 1.08034 1.01230
 H693 H 0.63732 1.11742 1.03968
 C694 C 0.70437 0.82986 0.80712
 C695 C 0.69632 0.80379 0.78671
 C696 C 0.71997 0.78866 0.76820
 C697 C 0.75176 0.79981 0.76921
 C698 C 0.75951 0.82660 0.78835
 C699 C 0.73612 0.84134 0.80737
 C700 C 0.68039 0.84436 0.82926
 N701 N 0.69013 0.85958 0.85818
 N702 N 0.66885 0.87266 0.87839
 C703 C 0.63691 0.87124 0.87050
 N704 N 0.62708 0.85604 0.84153
 N705 N 0.64839 0.84265 0.82144
 C706 C 0.61378 0.88749 0.89228
 C707 C 0.58462 0.89860 0.87867
 C708 C 0.56527 0.91799 0.89812
 C709 C 0.57448 0.92612 0.93167
 C710 C 0.60238 0.91309 0.94600
 C711 C 0.62196 0.89421 0.92642
 H712 H 0.67208 0.79440 0.78613
 H713 H 0.71376 0.76783 0.75375
 H714 H 0.78403 0.83526 0.78967
 H715 H 0.74298 0.86151 0.82265
 H716 H 0.57766 0.89374 0.85246
 H717 H 0.54383 0.92766 0.88647
 H718 H 0.61015 0.91899 0.97175
 H719 H 0.64409 0.88568 0.93772
   
