data_POSCAR
  _audit_creation_date              2014-09-24
  _audit_creation_method            'ToBaCCo'
  _symmetry_space_group_name_H-M    'P1'
  _symmetry_Int_Tables_number       1
  _symmetry_cell_setting            triclinic
  loop_
  _symmetry_equiv_pos_as_xyz
 x,y,z
_cell_length_a 56.3791
_cell_length_b 55.2966
_cell_length_c 55.9988
_cell_angle_alpha 88.586300
_cell_angle_beta 88.830200
_cell_angle_gamma 89.093400
loop_
  _atom_site_label
  _atom_site_type_symbol
  _atom_site_fract_x
  _atom_site_fract_y
  _atom_site_fract_z
N1 N 0.59250 0.65342 0.61454
 N2 N 0.58144 0.64211 0.63232
 C3 C 0.56268 0.65564 0.63948
 C4 C 0.56182 0.67652 0.62531
 C5 C 0.58104 0.67444 0.60965
 H6 H 0.55045 0.65054 0.65378
 H7 H 0.58656 0.68743 0.59599
 Cu8 Cu 0.59229 0.61070 0.64435
 Cu9 Cu 0.62117 0.64030 0.59948
 Cu10 Cu 0.64541 0.58868 0.62599
 N11 N 0.60799 0.58408 0.66126
 N12 N 0.62887 0.57578 0.65427
 C13 C 0.63558 0.55755 0.66912
 C14 C 0.61787 0.55404 0.68646
 C15 C 0.60061 0.57137 0.68075
 H16 H 0.65203 0.54747 0.66705
 H17 H 0.58396 0.57476 0.69004
 N18 N 0.65934 0.60445 0.59718
 N19 N 0.65011 0.62414 0.58706
 C20 C 0.66350 0.63044 0.56778
 C21 C 0.68205 0.61388 0.56557
 C22 C 0.67880 0.59766 0.58455
 H23 H 0.65980 0.64576 0.55602
 H24 H 0.68987 0.58213 0.58896
 H25 H 0.61670 0.60412 0.60854
 H26 H 0.63155 0.62313 0.63087
 N27 N 0.90280 0.34167 0.12299
 N28 N 0.91078 0.35130 0.14241
 C29 C 0.92980 0.33842 0.14990
 C30 C 0.93421 0.31968 0.13422
 C31 C 0.91657 0.32247 0.11733
 H32 H 0.93978 0.34265 0.16547
 H33 H 0.91362 0.31131 0.10215
 Cu34 Cu 0.89577 0.38002 0.15580
 Cu35 Cu 0.87495 0.35448 0.10662
 Cu36 Cu 0.84725 0.40494 0.13076
 N37 N 0.87979 0.40815 0.16934
 N38 N 0.86073 0.41764 0.15950
 C39 C 0.85310 0.43661 0.17228
 C40 C 0.86822 0.43930 0.19118
 C41 C 0.88500 0.42089 0.18871
 H42 H 0.83784 0.44782 0.16792
 H43 H 0.89972 0.41692 0.20031
 N44 N 0.83623 0.38950 0.10178
 N45 N 0.84656 0.37012 0.09271
 C46 C 0.83467 0.36378 0.07324
 C47 C 0.81605 0.38005 0.06982
 C48 C 0.81764 0.39610 0.08826
 H49 H 0.83936 0.34863 0.06217
 H50 H 0.80588 0.41128 0.09176
 H51 H 0.87829 0.38971 0.11716
 H52 H 0.85912 0.36966 0.13637
 N53 N 0.40245 0.16249 -0.12314
 N54 N 0.41097 0.15212 -0.14242
 C55 C 0.43104 0.16327 -0.14957
 C56 C 0.43541 0.18160 -0.13389
 C57 C 0.41685 0.18052 -0.11731
 H58 H 0.44185 0.15825 -0.16487
 H59 H 0.41385 0.19217 -0.10229
 Cu60 Cu 0.39514 0.12491 -0.15621
 Cu61 Cu 0.37324 0.15198 -0.10718
 Cu62 Cu 0.34516 0.10285 -0.13078
 N63 N 0.37946 0.09705 -0.16891
 N64 N 0.35985 0.08860 -0.15901
 C65 C 0.35264 0.06962 -0.17144
 C66 C 0.36866 0.06586 -0.19013
 C67 C 0.38546 0.08364 -0.18791
 H68 H 0.33701 0.05921 -0.16705
 H69 H 0.40072 0.08679 -0.19948
 N70 N 0.33305 0.11976 -0.10233
 N71 N 0.34355 0.13867 -0.09357
 C72 C 0.33083 0.14642 -0.07455
 C73 C 0.31145 0.13161 -0.07106
 C74 C 0.31346 0.11489 -0.08900
 H75 H 0.33548 0.16154 -0.06381
 H76 H 0.30134 0.10046 -0.09231
 H77 H 0.37610 0.11638 -0.11751
 H78 H 0.35798 0.13733 -0.13670
 N79 N 0.09883 0.83733 0.39055
 N80 N 0.08456 0.85157 0.37817
 C81 C 0.06504 0.83928 0.37278
 C82 C 0.06720 0.81583 0.38213
 C83 C 0.08905 0.81538 0.39323
 H84 H 0.05068 0.84687 0.36238
 H85 H 0.09707 0.80048 0.40315
 Cu86 Cu 0.09301 0.88459 0.36952
 Cu87 Cu 0.12820 0.84887 0.40364
 Cu88 Cu 0.14729 0.90466 0.38272
 N89 N 0.10662 0.91275 0.35336
 N90 N 0.12782 0.92046 0.35842
 C91 C 0.13311 0.93949 0.34395
 C92 C 0.11421 0.94398 0.32893
 C93 C 0.09768 0.92662 0.33551
 H94 H 0.14961 0.94914 0.34425
 H95 H 0.08073 0.92372 0.32746
 N96 N 0.16429 0.88546 0.40723
 N97 N 0.15722 0.86395 0.41487
 C98 C 0.17216 0.85551 0.43169
 C99 C 0.18949 0.87255 0.43487
 C100 C 0.18390 0.89131 0.41901
 H101 H 0.17014 0.83853 0.44142
 H102 H 0.19335 0.90803 0.41626
 H103 H 0.12125 0.88582 0.40175
 H104 H 0.13390 0.87151 0.37414
 C105 C 0.10554 0.12645 0.14181
 C106 C 0.08762 0.14431 0.14082
 C107 C 0.08603 0.16029 0.12099
 C108 C 0.10274 0.15844 0.10212
 C109 C 0.12091 0.14084 0.10296
 C110 C 0.12226 0.12468 0.12281
 C111 C 0.10699 0.11033 0.16147
 C112 C 0.12497 0.09242 0.16246
 C113 C 0.14158 0.09079 0.14346
 C114 C 0.14034 0.10676 0.12367
 C115 C 0.15692 0.10513 0.10475
 C116 C 0.15583 0.12133 0.08504
 C117 C 0.13777 0.13913 0.08428
 H118 H 0.07464 0.14556 0.15531
 H119 H 0.10174 0.17092 0.08692
 H120 H 0.09429 0.11188 0.17618
 H121 H 0.15531 0.07685 0.14395
 H122 H 0.17096 0.09152 0.10552
 H123 H 0.13672 0.15149 0.06899
 C124 C 0.40263 0.88176 0.63150
 C125 C 0.41983 0.86319 0.63040
 C126 C 0.41959 0.84628 0.61208
 C127 C 0.40188 0.84804 0.59480
 C128 C 0.38443 0.86636 0.59580
 C129 C 0.38479 0.88332 0.61419
 C130 C 0.40300 0.89881 0.64960
 C131 C 0.38571 0.91737 0.65075
 C132 C 0.36785 0.91868 0.63358
 C133 C 0.36731 0.90183 0.61528
 C134 C 0.34959 0.90320 0.59804
 C135 C 0.34905 0.88628 0.57973
 C136 C 0.36660 0.86795 0.57872
 H137 H 0.43361 0.86205 0.64363
 H138 H 0.40149 0.83489 0.58078
 H139 H 0.41663 0.89753 0.66297
 H140 H 0.35459 0.93309 0.63424
 H141 H 0.33599 0.91723 0.59908
 H142 H 0.36650 0.85504 0.56446
 C143 C 0.89386 0.63176 0.35911
 C144 C 0.91061 0.65027 0.35853
 C145 C 0.90799 0.66997 0.37377
 C146 C 0.88862 0.67098 0.38990
 C147 C 0.87199 0.65238 0.39103
 C148 C 0.87453 0.63275 0.37551
 C149 C 0.89597 0.61242 0.34341
 C150 C 0.87893 0.59411 0.34377
 C151 C 0.85998 0.59499 0.36046
 C152 C 0.85771 0.61412 0.37635
 C153 C 0.83884 0.61494 0.39303
 C154 C 0.83640 0.63426 0.40881
 C155 C 0.85295 0.65303 0.40754
 H156 H 0.92550 0.64961 0.34599
 H157 H 0.88674 0.68611 0.40178
 H158 H 0.91053 0.61194 0.33048
 H159 H 0.84703 0.58069 0.36112
 H160 H 0.82589 0.60064 0.39361
 H161 H 0.85128 0.66789 0.41976
 C162 C 0.61558 0.36162 -0.13853
 C163 C 0.59718 0.34485 -0.13722
 C164 C 0.59629 0.32714 -0.11878
 C165 C 0.61409 0.32634 -0.10153
 C166 C 0.63268 0.34293 -0.10267
 C167 C 0.63344 0.36065 -0.12124
 C168 C 0.61637 0.37937 -0.15684
 C169 C 0.63491 0.39607 -0.15825
 C170 C 0.65272 0.39495 -0.14104
 C171 C 0.65204 0.37745 -0.12249
 C172 C 0.66960 0.37654 -0.10511
 C173 C 0.66892 0.35900 -0.08651
 C174 C 0.65048 0.34216 -0.08549
 H175 H 0.58334 0.34576 -0.15038
 H176 H 0.61362 0.31259 -0.08740
 H177 H 0.60272 0.38003 -0.17022
 H178 H 0.66691 0.40796 -0.14191
 H179 H 0.68394 0.38938 -0.10614
 H180 H 0.64975 0.32875 -0.07106
 C181 C -0.01414 0.28273 0.15580
 C182 C -0.01073 0.26577 0.13749
 C183 C -0.02590 0.26768 0.11765
 C184 C -0.04413 0.28529 0.11679
 C185 C -0.04752 0.30189 0.13523
 C186 C -0.03209 0.30038 0.15462
 C187 C -0.02280 0.25206 0.09864
 C188 C -0.00472 0.23473 0.09862
 C189 C 0.01086 0.23198 0.11795
 C190 C 0.00732 0.24724 0.13805
 C191 C 0.02168 0.24320 0.15818
 C192 C 0.03919 0.22528 0.15854
 C193 C 0.04346 0.21090 0.13878
 C194 C 0.02962 0.21420 0.11804
 C195 C 0.03538 0.19968 0.09817
 C196 C 0.05369 0.18241 0.09918
 C197 C 0.06683 0.17889 0.11994
 C198 C 0.06161 0.19324 0.13968
 H199 H -0.00302 0.28318 0.17118
 H200 H -0.05538 0.28609 0.10135
 H201 H -0.03376 0.31270 0.16926
 H202 H -0.03440 0.25335 0.08344
 H203 H -0.00379 0.22338 0.08327
 H204 H 0.01953 0.25329 0.17430
 H205 H 0.04964 0.22277 0.17448
 H206 H 0.02637 0.20140 0.08144
 H207 H 0.05743 0.17152 0.08369
 H208 H 0.07202 0.19090 0.15567
 C209 C 0.51434 0.71945 0.64892
 C210 C 0.51060 0.73553 0.62922
 C211 C 0.52392 0.73131 0.60793
 C212 C 0.54066 0.71226 0.60687
 C213 C 0.54425 0.69668 0.62662
 C214 C 0.53082 0.70040 0.64755
 C215 C 0.52045 0.74602 0.58771
 C216 C 0.50375 0.76472 0.58790
 C217 C 0.48999 0.76976 0.60858
 C218 C 0.49398 0.75539 0.62980
 C219 C 0.48145 0.76154 0.65094
 C220 C 0.46522 0.78066 0.65130
 C221 C 0.46047 0.79424 0.63061
 C222 C 0.47256 0.78890 0.60886
 C223 C 0.46640 0.80280 0.58824
 C224 C 0.44930 0.82129 0.58938
 C225 C 0.43781 0.82669 0.61102
 C226 C 0.44353 0.81310 0.63159
 H227 H 0.50461 0.72081 0.66559
 H228 H 0.55061 0.70933 0.59041
 H229 H 0.53319 0.68867 0.66311
 H230 H 0.53066 0.74294 0.57142
 H231 H 0.50240 0.77521 0.57152
 H232 H 0.48408 0.75218 0.66778
 H233 H 0.45612 0.78475 0.66800
 H234 H 0.47414 0.79967 0.57083
 H235 H 0.44517 0.83159 0.57325
 H236 H 0.43438 0.81692 0.64833
 C237 C 1.04092 0.75436 0.38724
 C238 C 1.01773 0.75845 0.37870
 C239 C 1.01124 0.78245 0.37185
 C240 C 1.02778 0.80116 0.37248
 C241 C 1.05083 0.79686 0.38091
 C242 C 1.05701 0.77320 0.38845
 C243 C 0.98817 0.78777 0.36464
 C244 C 0.97112 0.76993 0.36471
 C245 C 0.97668 0.74574 0.37134
 C246 C 1.00066 0.73969 0.37725
 C247 C 1.00685 0.71508 0.38108
 C248 C 0.99007 0.69705 0.38000
 C249 C 0.96634 0.70282 0.37580
 C250 C 0.95916 0.72728 0.37183
 C251 C 0.93462 0.73225 0.36907
 C252 C 0.91815 0.71364 0.36978
 C253 C 0.92554 0.68954 0.37291
 C254 C 0.94966 0.68422 0.37580
 H255 H 1.04703 0.73691 0.39376
 H256 H 1.02219 0.81925 0.36704
 H257 H 1.07447 0.76887 0.39512
 H258 H 0.98311 0.80606 0.35922
 H259 H 0.95379 0.77558 0.35878
 H260 H 1.02479 0.70903 0.38429
 H261 H 0.99569 0.67838 0.38287
 H262 H 0.92749 0.75035 0.36702
 H263 H 0.89950 0.71808 0.36773
 H264 H 0.95535 0.66556 0.37869
 C265 C 0.48741 0.21858 -0.15703
 C266 C 0.49388 0.23155 -0.13671
 C267 C 0.48073 0.22728 -0.11519
 C268 C 0.46170 0.21116 -0.11443
 C269 C 0.45547 0.19865 -0.13478
 C270 C 0.46859 0.20246 -0.15599
 C271 C 0.48663 0.23906 -0.09447
 C272 C 0.50543 0.25496 -0.09445
 C273 C 0.51906 0.26001 -0.11537
 C274 C 0.51292 0.24844 -0.13696
 C275 C 0.52582 0.25434 -0.15813
 C276 C 0.54418 0.27075 -0.15827
 C277 C 0.55069 0.28179 -0.13735
 C278 C 0.53846 0.27647 -0.11551
 C279 C 0.54631 0.28784 -0.09473
 C280 C 0.56509 0.30403 -0.09584
 C281 C 0.57670 0.30952 -0.11758
 C282 C 0.56944 0.29822 -0.13825
 H283 H 0.49659 0.22023 -0.17401
 H284 H 0.45195 0.20812 -0.09777
 H285 H 0.46420 0.19316 -0.17205
 H286 H 0.47662 0.23590 -0.07798
 H287 H 0.50857 0.26331 -0.07766
 H288 H 0.52198 0.24687 -0.17516
 H289 H 0.55345 0.27480 -0.17502
 H290 H 0.53849 0.28457 -0.07728
 H291 H 0.57034 0.31258 -0.07962
 H292 H 0.57862 0.30205 -0.15509
 C293 C 0.08891 -0.01473 0.28037
 C294 C 0.10925 -0.00277 0.27104
 C295 C 0.13134 -0.00865 0.28155
 C296 C 0.13277 -0.02571 0.30049
 C297 C 0.11248 -0.03750 0.30936
 C298 C 0.09059 -0.03176 0.29912
 C299 C 0.15200 0.00237 0.27305
 C300 C 0.15142 0.01899 0.25411
 C301 C 0.12998 0.02541 0.24280
 C302 C 0.10848 0.01459 0.25161
 C303 C 0.08696 0.02147 0.24068
 C304 C 0.08640 0.03802 0.22167
 C305 C 0.10718 0.04840 0.21263
 C306 C 0.12931 0.04230 0.22297
 C307 C 0.14984 0.05328 0.21283
 C308 C 0.14832 0.06947 0.19337
 C309 C 0.12640 0.07538 0.18331
 C310 C 0.10588 0.06480 0.19312
 H311 H 0.07139 -0.01157 0.27356
 H312 H 0.14990 -0.03008 0.30801
 H313 H 0.07452 -0.04035 0.30565
 H314 H 0.16892 -0.00200 0.28109
 H315 H 0.16826 0.02653 0.24882
 H316 H 0.07004 0.01445 0.24642
 H317 H 0.06944 0.04268 0.21387
 H318 H 0.16742 0.04974 0.21932
 H319 H 0.16443 0.07759 0.18629
 H320 H 0.08885 0.06900 0.18524
 C321 C 0.59650 0.51666 -0.26121
 C322 C 0.61597 0.50078 -0.25697
 C323 C 0.63651 0.50372 -0.27169
 C324 C 0.63700 0.52121 -0.29032
 C325 C 0.61738 0.53662 -0.29464
 C326 C 0.59726 0.53417 -0.27960
 C327 C 0.65656 0.48920 -0.26780
 C328 C 0.65688 0.47190 -0.24943
 C329 C 0.63687 0.46809 -0.23431
 C330 C 0.61585 0.48231 -0.23856
 C331 C 0.59531 0.47731 -0.22455
 C332 C 0.59534 0.45939 -0.20677
 C333 C 0.61586 0.44595 -0.20188
 C334 C 0.63704 0.45025 -0.21532
 C335 C 0.65755 0.43659 -0.20897
 C336 C 0.65679 0.41921 -0.19047
 C337 C 0.63566 0.41472 -0.17772
 C338 C 0.61526 0.42820 -0.18351
 H339 H 0.58045 0.51633 -0.25047
 H340 H 0.65299 0.52278 -0.30122
 H341 H 0.58172 0.54561 -0.28194
 H342 H 0.67231 0.49130 -0.27905
 H343 H 0.67306 0.46143 -0.24791
 H344 H 0.57863 0.48662 -0.22719
 H345 H 0.57908 0.45611 -0.19661
 H346 H 0.67457 0.43906 -0.21767
 H347 H 0.67279 0.40900 -0.18629
 H348 H 0.59893 0.42512 -0.17339
 C349 C 0.34596 1.01780 0.76931
 C350 C 0.36635 1.01175 0.75533
 C351 C 0.38773 1.02367 0.76024
 C352 C 0.38833 1.04118 0.77795
 C353 C 0.36792 1.04714 0.79138
 C354 C 0.34683 1.03514 0.78697
 C355 C 0.40849 1.01811 0.74749
 C356 C 0.40868 1.00086 0.72992
 C357 C 0.38791 0.98850 0.72415
 C358 C 0.36630 0.99431 0.73681
 C359 C 0.34532 0.98269 0.73033
 C360 C 0.34541 0.96587 0.71234
 C361 C 0.36634 0.95970 0.70017
 C362 C 0.38797 0.97070 0.70597
 C363 C 0.40877 0.96327 0.69334
 C364 C 0.40793 0.94601 0.67562
 C365 C 0.38644 0.93554 0.66977
 C366 C 0.36571 0.94247 0.68217
 H367 H 0.32905 1.00942 0.76722
 H368 H 0.40490 1.04998 0.78142
 H369 H 0.33073 1.03934 0.79699
 H370 H 0.42488 1.02720 0.75115
 H371 H 0.42550 0.99791 0.72095
 H372 H 0.32831 0.98640 0.73862
 H373 H 0.32882 0.95755 0.70795
 H374 H 0.42606 0.97025 0.69673
 H375 H 0.42419 0.94105 0.66620
 H376 H 0.34904 0.93415 0.67801
 C377 C 0.84380 0.48828 0.23133
 C378 C 0.86363 0.49411 0.24509
 C379 C 0.88521 0.48135 0.24054
 C380 C 0.88654 0.46337 0.22323
 C381 C 0.86670 0.45790 0.20980
 C382 C 0.84540 0.47056 0.21405
 C383 C 0.90545 0.48668 0.25317
 C384 C 0.90496 0.50464 0.27006
 C385 C 0.88400 0.51798 0.27526
 C386 C 0.86286 0.51226 0.26293
 C387 C 0.84162 0.52477 0.26894
 C388 C 0.84104 0.54254 0.28598
 C389 C 0.86155 0.54880 0.29765
 C390 C 0.88340 0.53677 0.29247
 C391 C 0.90373 0.54432 0.30461
 C392 C 0.90223 0.56280 0.32118
 C393 C 0.88053 0.57435 0.32632
 C394 C 0.86027 0.56721 0.31446
 H395 H 0.82678 0.49721 0.23319
 H396 H 0.90325 0.45396 0.21993
 H397 H 0.82970 0.46668 0.20411
 H398 H 0.92198 0.47692 0.24984
 H399 H 0.92141 0.50744 0.27894
 H400 H 0.82488 0.52111 0.26098
 H401 H 0.82428 0.55161 0.28998
 H402 H 0.92112 0.53655 0.30161
 H403 H 0.91814 0.56793 0.33019
 H404 H 0.84345 0.57636 0.31800
 C405 C 0.27049 0.15690 -0.02301
 C406 C 0.25654 0.13671 -0.01614
 C407 C 0.26150 0.11455 -0.02760
 C408 C 0.27917 0.11309 -0.04559
 C409 C 0.29265 0.13331 -0.05225
 C410 C 0.28822 0.15513 -0.04069
 C411 C 0.24892 0.09387 -0.02100
 C412 C 0.23170 0.09446 -0.00294
 C413 C 0.22603 0.11601 0.00909
 C414 C 0.23813 0.13766 0.00185
 C415 C 0.23121 0.15957 0.01261
 C416 C 0.21355 0.16029 0.03022
 C417 C 0.20229 0.13925 0.03814
 C418 C 0.20847 0.11673 0.02792
 C419 C 0.19698 0.09583 0.03729
 C420 C 0.17999 0.09742 0.05570
 C421 C 0.17373 0.11978 0.06536
 C422 C 0.18493 0.14064 0.05643
 H423 H 0.26849 0.17426 -0.01487
 H424 H 0.28270 0.09597 -0.05408
 H425 H 0.29832 0.17108 -0.04545
 H426 H 0.25255 0.07691 -0.02977
 H427 H 0.22281 0.07768 0.00085
 H428 H 0.23881 0.17671 0.00753
 H429 H 0.20880 0.17757 0.03788
 H430 H 0.20095 0.07790 0.03112
 H431 H 0.17156 0.08104 0.06233
 H432 H 0.18046 0.15797 0.06413
 C433 C 0.73272 0.59193 0.52573
 C434 C 0.73784 0.61260 0.51119
 C435 C 0.72412 0.63389 0.51520
 C436 C 0.70598 0.63415 0.53278
 C437 C 0.70114 0.61349 0.54693
 C438 C 0.71474 0.59246 0.54322
 C439 C 0.72856 0.65490 0.50171
 C440 C 0.74647 0.65546 0.48436
 C441 C 0.76072 0.63483 0.47960
 C442 C 0.75611 0.61294 0.49301
 C443 C 0.76984 0.59209 0.48772
 C444 C 0.78761 0.59258 0.47023
 C445 C 0.79260 0.61381 0.45733
 C446 C 0.77937 0.63531 0.46180
 C447 C 0.78555 0.65640 0.44832
 C448 C 0.80392 0.65598 0.43122
 C449 C 0.81675 0.63462 0.42685
 C450 C 0.81094 0.61359 0.43999
 H451 H 0.74230 0.57503 0.52424
 H452 H 0.69585 0.65067 0.53561
 H453 H 0.71140 0.57613 0.55372
 H454 H 0.71808 0.67121 0.50466
 H455 H 0.74853 0.67246 0.47483
 H456 H 0.76723 0.57486 0.49666
 H457 H 0.79763 0.57608 0.46682
 H458 H 0.77672 0.67362 0.45057
 H459 H 0.80797 0.67245 0.42117
 H460 H 0.82105 0.59705 0.43701
 C461 C 0.76883 0.40217 0.02703
 C462 C 0.76364 0.38110 0.01435
 C463 C 0.77609 0.35946 0.02064
 C464 C 0.79333 0.35928 0.03843
 C465 C 0.79824 0.38034 0.05071
 C466 C 0.78577 0.40169 0.04486
 C467 C 0.77118 0.33801 0.00927
 C468 C 0.75392 0.33736 -0.00801
 C469 C 0.74098 0.35836 -0.01497
 C470 C 0.74639 0.38073 -0.00407
 C471 C 0.73458 0.40202 -0.01214
 C472 C 0.71775 0.40151 -0.02982
 C473 C 0.71170 0.37979 -0.04003
 C474 C 0.72300 0.35783 -0.03268
 C475 C 0.71556 0.33624 -0.04324
 C476 C 0.69804 0.33668 -0.06054
 C477 C 0.68737 0.35852 -0.06799
 C478 C 0.69429 0.38001 -0.05760
 H479 H 0.75992 0.41928 0.02394
 H480 H 0.80258 0.34254 0.04303
 H481 H 0.78921 0.41828 0.05396
 H482 H 0.78071 0.32142 0.01393
 H483 H 0.75142 0.32004 -0.01588
 H484 H 0.73820 0.41963 -0.00543
 H485 H 0.70925 0.41836 -0.03547
 H486 H 0.72268 0.31866 -0.03839
 H487 H 0.69299 0.31982 -0.06833
 H488 H 0.68578 0.39696 -0.06296
 C489 C 0.23406 0.84779 0.47933
 C490 C 0.24611 0.86877 0.48608
 C491 C 0.23915 0.89114 0.47523
 C492 C 0.22095 0.89222 0.45843
 C493 C 0.20911 0.87128 0.45214
 C494 C 0.21593 0.84911 0.46273
 C495 C 0.25024 0.91242 0.48125
 C496 C 0.26806 0.91217 0.49798
 C497 C 0.27566 0.89046 0.50946
 C498 C 0.26465 0.86835 0.50324
 C499 C 0.27255 0.84657 0.51438
 C500 C 0.29038 0.84630 0.53108
 C501 C 0.30109 0.86764 0.53751
 C502 C 0.29392 0.89008 0.52692
 C503 C 0.30535 0.91118 0.53440
 C504 C 0.32307 0.90987 0.55147
 C505 C 0.33011 0.88762 0.56169
 C506 C 0.31897 0.86657 0.55461
 H507 H 0.23802 0.83001 0.48657
 H508 H 0.21577 0.90956 0.45060
 H509 H 0.20734 0.83255 0.45811
 H510 H 0.24502 0.92957 0.47296
 H511 H 0.27558 0.92947 0.50144
 H512 H 0.26538 0.82920 0.51057
 H513 H 0.29582 0.82910 0.53911
 H514 H 0.30107 0.92902 0.52752
 H515 H 0.33155 0.92639 0.55648
 H516 H 0.32403 0.84928 0.56270
   
