data_POSCAR
  _audit_creation_date              2014-09-24
  _audit_creation_method            'ToBaCCo'
  _symmetry_space_group_name_H-M    'P1'
  _symmetry_Int_Tables_number       1
  _symmetry_cell_setting            triclinic
  loop_
  _symmetry_equiv_pos_as_xyz
 x,y,z
_cell_length_a 53.5476
_cell_length_b 53.4219
_cell_length_c 53.5299
_cell_angle_alpha 90.018800
_cell_angle_beta 89.982000
_cell_angle_gamma 90.039300
loop_
  _atom_site_label
  _atom_site_type_symbol
  _atom_site_fract_x
  _atom_site_fract_y
  _atom_site_fract_z
C1 C 0.33549 0.37467 1.35411
 C2 C 0.35334 0.37593 1.33496
 C3 C 0.37215 0.35825 1.33370
 C4 C 0.37330 0.33903 1.35151
 C5 C 0.35576 0.33785 1.37030
 C6 C 0.33668 0.35578 1.37158
 C7 C 0.31482 0.38889 1.35962
 N8 N 0.30313 0.37917 1.38016
 C9 C 0.31672 0.35879 1.38744
 C10 C 0.36110 0.31708 1.38445
 N11 N 0.38159 0.30529 1.37480
 C12 C 0.38904 0.31892 1.35451
 C13 C 0.38637 0.36372 1.31300
 N14 N 0.37666 0.38428 1.30161
 C15 C 0.35642 0.39184 1.31498
 H16 H 0.30880 0.40482 1.34878
 H17 H 0.31281 0.34670 1.40313
 H18 H 0.35012 0.31103 1.40027
 H19 H 0.40477 0.31495 1.34252
 H20 H 0.40226 0.35308 1.30641
 H21 H 0.34478 0.40780 1.31060
 C22 C 1.16388 0.62788 0.86015
 C23 C 1.14583 0.62669 0.84121
 C24 C 1.12708 0.64442 0.84018
 C25 C 1.12618 0.66362 0.85804
 C26 C 1.14397 0.66480 0.87659
 C27 C 1.16301 0.64677 0.87765
 C28 C 1.18457 0.61359 0.86530
 N29 N 1.19663 0.62326 0.88564
 C30 C 1.18324 0.64369 0.89318
 C31 C 1.13888 0.68565 0.89074
 N32 N 1.11827 0.69746 0.88135
 C33 C 1.11053 0.68375 0.86121
 C34 C 1.11267 0.63904 0.81958
 N35 N 1.12224 0.61849 0.80804
 C36 C 1.14255 0.61084 0.82123
 H37 H 1.19041 0.59771 0.85427
 H38 H 1.18748 0.65574 0.90882
 H39 H 1.14978 0.69144 0.90670
 H40 H 1.09496 0.68798 0.84911
 H41 H 1.09677 0.64975 0.81314
 H42 H 1.15413 0.59487 0.81670
 C43 C 0.66288 -0.12668 0.13904
 C44 C 0.64483 -0.12549 0.15799
 C45 C 0.62603 -0.14320 0.15902
 C46 C 0.62509 -0.16238 0.14115
 C47 C 0.64288 -0.16356 0.12259
 C48 C 0.66196 -0.14556 0.12153
 C49 C 0.68364 -0.11245 0.13391
 N50 N 0.69568 -0.12214 0.11358
 C51 C 0.68222 -0.14253 0.10602
 C52 C 0.63777 -0.18443 0.10846
 N53 N 0.61716 -0.19625 0.11788
 C54 C 0.60943 -0.18253 0.13801
 C55 C 0.61167 -0.13785 0.17965
 N56 N 0.62130 -0.11734 0.19122
 C57 C 0.64162 -0.10967 0.17802
 H58 H 0.68953 -0.09659 0.14495
 H59 H 0.68644 -0.15459 0.09039
 H60 H 0.64870 -0.19024 0.09253
 H61 H 0.59387 -0.18676 0.15013
 H62 H 0.59576 -0.14857 0.18611
 H63 H 0.65325 -0.09374 0.18257
 C64 C -0.16488 1.12495 -0.35401
 C65 C -0.14694 1.12364 -0.33496
 C66 C -0.12811 1.14131 -0.33376
 C67 C -0.12700 1.16058 -0.35153
 C68 C -0.14460 1.16179 -0.37024
 C69 C -0.16369 1.14383 -0.37150
 C70 C -0.18560 1.11076 -0.35945
 N71 N -0.19730 1.12045 -0.37997
 C72 C -0.18368 1.14081 -0.38732
 C73 C -0.13927 1.18258 -0.38439
 N74 N -0.11873 1.19435 -0.37479
 C75 C -0.11124 1.18067 -0.35456
 C76 C -0.11382 1.13583 -0.31313
 N77 N -0.12351 1.11525 -0.30172
 C78 C -0.14382 1.10771 -0.31501
 H79 H -0.19134 1.09452 -0.34888
 H80 H -0.18789 1.15320 -0.40269
 H81 H -0.15026 1.18864 -0.40018
 H82 H -0.09547 1.18462 -0.34261
 H83 H -0.09790 1.14646 -0.30659
 H84 H -0.15547 1.09176 -0.31058
 C85 C 0.66261 0.62774 0.64000
 C86 C 0.64465 0.62677 0.65904
 C87 C 0.62595 0.64455 0.66002
 C88 C 0.62489 0.66352 0.64193
 C89 C 0.64255 0.66448 0.62323
 C90 C 0.66159 0.64648 0.62223
 C91 C 0.68331 0.61340 0.63484
 N92 N 0.69495 0.62300 0.61438
 C93 C 0.68173 0.64326 0.60657
 C94 C 0.63737 0.68518 0.60891
 N95 N 0.61685 0.69712 0.61835
 C96 C 0.60924 0.68364 0.63868
 C97 C 0.61169 0.63949 0.68079
 N98 N 0.62127 0.61904 0.69249
 C99 C 0.64145 0.61115 0.67923
 H100 H 0.68976 0.59755 0.64564
 H101 H 0.68634 0.65485 0.59064
 H102 H 0.64821 0.69082 0.59285
 H103 H 0.59377 0.68799 0.65086
 H104 H 0.59548 0.64994 0.68687
 H105 H 0.65338 0.59558 0.68421
 C106 C 0.83548 0.37439 0.14672
 C107 C 0.85338 0.37559 0.16582
 C108 C 0.87219 0.35791 0.16695
 C109 C 0.87331 0.33876 0.14904
 C110 C 0.85573 0.33765 0.13029
 C111 C 0.83666 0.35562 0.12912
 C112 C 0.81479 0.38862 0.14135
 N113 N 0.80310 0.37904 0.12074
 C114 C 0.81671 0.35873 0.11329
 C115 C 0.86105 0.31695 0.11601
 N116 N 0.88157 0.30513 0.12555
 C117 C 0.88905 0.31868 0.14589
 C118 C 0.88645 0.36329 0.18764
 N119 N 0.87675 0.38380 0.19915
 C120 C 0.85649 0.39142 0.18587
 H121 H 0.80906 0.40479 0.15201
 H122 H 0.81250 0.34643 0.09783
 H123 H 0.85008 0.31101 0.10016
 H124 H 0.90478 0.31465 0.15784
 H125 H 0.90235 0.35263 0.19414
 H126 H 0.84485 0.40735 0.19035
 C127 C 0.33599 0.12502 0.85383
 C128 C 0.35390 0.12359 0.83475
 C129 C 0.37288 0.14110 0.83354
 C130 C 0.37417 0.16033 0.85133
 C131 C 0.35653 0.16167 0.87013
 C132 C 0.33731 0.14386 0.87136
 C133 C 0.31516 0.11097 0.85924
 N134 N 0.30352 0.12073 0.87979
 C135 C 0.31729 0.14097 0.88717
 C136 C 0.36202 0.18243 0.88431
 N137 N 0.38256 0.19380 0.87456
 C138 C 0.39009 0.18033 0.85435
 C139 C 0.38709 0.13553 0.81286
 N140 N 0.37720 0.11506 0.80143
 C141 C 0.35686 0.10766 0.81476
 H142 H 0.30931 0.09481 0.84863
 H143 H 0.31318 0.15336 0.90258
 H144 H 0.35141 0.18910 0.90018
 H145 H 0.40603 0.18467 0.84269
 H146 H 0.40307 0.14605 0.80630
 H147 H 0.34506 0.09181 0.81033
 C148 C 0.16265 0.87255 0.35988
 C149 C 0.14461 0.87383 0.34093
 C150 C 0.12569 0.85626 0.33991
 C151 C 0.12460 0.83710 0.35778
 C152 C 0.14240 0.83586 0.37645
 C153 C 0.16161 0.85373 0.37744
 C154 C 0.18346 0.88670 0.36499
 N155 N 0.19542 0.87703 0.38537
 C156 C 0.18186 0.85672 0.39297
 C157 C 0.13708 0.81508 0.39067
 N158 N 0.11650 0.80364 0.38109
 C159 C 0.10877 0.81706 0.36094
 C160 C 0.11137 0.86168 0.31928
 N161 N 0.12116 0.88211 0.30770
 C162 C 0.14152 0.88964 0.32090
 H163 H 0.18943 0.90251 0.35392
 H164 H 0.18598 0.84471 0.40866
 H165 H 0.14783 0.80846 0.40645
 H166 H 0.09276 0.81266 0.34941
 H167 H 0.09540 0.85107 0.31283
 H168 H 0.15326 0.90550 0.31634
 Zn169 Zn 0.00598 1.03206 -0.01196
 Zn170 Zn -0.01831 0.98182 -0.01672
 Zn171 Zn 0.03130 0.98683 0.00844
 Zn172 Zn -0.01438 1.00667 0.03322
 O173 O 0.00112 1.00183 0.00322
 O174 O -0.00939 1.03409 -0.04151
 O175 O -0.00287 0.95333 -0.02563
 O176 O 0.05701 1.00504 -0.00287
 O177 O -0.02727 0.99696 -0.04529
 O178 O 0.03823 1.03855 -0.01808
 O179 O 0.03371 0.95724 -0.00688
 O180 O 0.00348 0.99534 0.05913
 O181 O -0.04690 0.97257 -0.00180
 O182 O 0.03746 0.98079 0.04075
 O183 O -0.04386 0.99108 0.03503
 O184 O -0.02062 1.03897 0.03962
 O185 O -0.00548 1.05783 0.00614
 C186 C -0.02264 1.01868 -0.05377
 C187 C 0.01871 0.94491 -0.02052
 C188 C 0.05796 1.02614 -0.01372
 C189 C 0.02472 0.98485 0.06033
 C190 C -0.05575 0.97743 0.01968
 C191 C -0.01628 1.05876 0.02723
 Zn192 Zn 0.53075 -0.01360 0.49073
 Zn193 Zn 0.48110 -0.01850 0.51587
 Zn194 Zn 0.50552 0.03167 0.51115
 Zn195 Zn 0.48511 0.00634 0.46595
 O196 O 0.50059 0.00146 0.49595
 O197 O 0.53307 -0.04323 0.50599
 O198 O 0.47215 -0.00335 0.54445
 O199 O 0.53776 0.03808 0.51731
 O200 O 0.49647 -0.04702 0.52475
 O201 O 0.55649 0.00452 0.50210
 O202 O 0.49012 0.03373 0.54070
 O203 O 0.47891 0.03865 0.45960
 O204 O 0.45252 -0.02772 0.50094
 O205 O 0.49413 0.05746 0.49308
 O206 O 0.45561 -0.00924 0.46411
 O207 O 0.50300 -0.00498 0.44003
 O208 O 0.53694 -0.01960 0.45840
 C209 C 0.51803 -0.05550 0.51963
 C210 C 0.47683 0.01835 0.55295
 C211 C 0.55747 0.02562 0.51298
 C212 C 0.48331 0.05843 0.47201
 C213 C 0.44369 -0.02287 0.47945
 C214 C 0.52422 -0.01548 0.43882
 Zn215 Zn 1.00599 0.46786 0.48896
 Zn216 Zn 1.03116 0.51325 0.50925
 Zn217 Zn 0.98144 0.51793 0.48423
 Zn218 Zn 0.98563 0.49317 0.53419
 O219 O 1.00103 0.49808 0.50413
 O220 O 1.03825 0.46154 0.48277
 O221 O 1.03337 0.54286 0.49393
 O222 O 0.97249 0.50271 0.45567
 O223 O 1.05692 0.49520 0.49785
 O224 O 0.99058 0.46571 0.45944
 O225 O 0.99672 0.54651 0.47529
 O226 O 0.95610 0.50862 0.53608
 O227 O 1.03739 0.51935 0.54155
 O228 O 0.95285 0.52702 0.49923
 O229 O 1.00354 0.50461 0.56005
 O230 O 0.97950 0.46085 0.54058
 O231 O 0.99465 0.44205 0.50707
 C232 C 1.05793 0.47408 0.48703
 C233 C 1.01827 0.55508 0.48034
 C234 C 0.97723 0.48101 0.44719
 C235 C 0.94409 0.52216 0.52075
 C236 C 1.02473 0.51521 0.56117
 C237 C 0.98388 0.44108 0.52817
 Zn238 Zn 0.48590 0.49365 0.96675
 Zn239 Zn 0.53147 0.51360 0.99169
 Zn240 Zn 0.48174 0.51845 1.01670
 Zn241 Zn 0.50614 0.46831 1.01199
 O242 O 0.50129 0.49853 0.99681
 O243 O 0.50388 0.50499 0.94090
 O244 O 0.53375 0.54322 1.00699
 O245 O 0.45321 0.52764 1.00169
 O246 O 0.53777 0.51962 0.95940
 O247 O 0.45642 0.50922 0.96484
 O248 O 0.49710 0.54699 1.02564
 O249 O 0.49068 0.46622 1.04150
 O250 O 0.55717 0.49549 1.00313
 O251 O 0.47271 0.50328 1.04526
 O252 O 0.53837 0.46190 1.01821
 O253 O 0.49477 0.44253 0.99386
 O254 O 0.47968 0.46134 0.96036
 C255 C 0.52512 0.51550 0.93977
 C256 C 0.51867 0.55550 1.02057
 C257 C 0.44445 0.52282 0.98017
 C258 C 0.47735 0.48157 1.05374
 C259 C 0.55810 0.47438 1.01396
 C260 C 0.48401 0.44157 0.97276
 C261 C 1.24799 0.41898 0.39382
 C262 C 1.23685 0.40565 0.41328
 C263 C 1.24792 0.38365 0.42191
 C264 C 1.27000 0.37488 0.41106
 C265 C 1.28157 0.38796 0.39115
 C266 C 1.27006 0.41033 0.38287
 C267 C 1.21386 0.41436 0.42417
 C268 C 1.19451 0.42161 0.43310
 C269 C 1.17173 0.43009 0.44330
 C270 C 1.15216 0.43736 0.45175
 C271 C 1.12868 0.44612 0.46147
 C272 C 1.12742 0.46900 0.47414
 C273 C 1.10446 0.47795 0.48280
 C274 C 1.08242 0.46412 0.47885
 C275 C 1.08396 0.44098 0.46636
 C276 C 1.10694 0.43207 0.45773
 H277 H 1.23957 0.43612 0.38702
 H278 H 1.23940 0.37313 0.43697
 H279 H 1.27746 0.35762 0.41834
 H280 H 1.27787 0.42155 0.36805
 H281 H 1.14413 0.48004 0.47712
 H282 H 1.10394 0.49583 0.49233
 H283 H 1.06737 0.42986 0.46300
 H284 H 1.10771 0.41435 0.44791
 C285 C 0.25304 0.61877 0.92573
 C286 C 0.26360 0.59652 0.91705
 C287 C 0.25165 0.58300 0.89821
 C288 C 0.22934 0.59172 0.88788
 C289 C 0.21836 0.61437 0.89616
 C290 C 0.23069 0.62762 0.91550
 C291 C 0.28692 0.58768 0.92709
 C292 C 0.30657 0.58006 0.93501
 C293 C 0.32968 0.57086 0.94371
 C294 C 0.34952 0.56276 0.95063
 C295 C 0.37329 0.55279 0.95825
 C296 C 0.38688 0.53770 0.94177
 C297 C 0.41000 0.52796 0.94891
 C298 C 0.41990 0.53318 0.97271
 C299 C 0.40609 0.54837 0.98918
 C300 C 0.38293 0.55810 0.98197
 H301 H 0.26219 0.62944 0.94032
 H302 H 0.25964 0.56566 0.89139
 H303 H 0.22089 0.58030 0.87357
 H304 H 0.22364 0.64510 0.92269
 H305 H 0.37960 0.53347 0.92336
 H306 H 0.42011 0.51635 0.93577
 H307 H 0.41317 0.55274 1.00762
 H308 H 0.37256 0.56977 0.99487
 C309 C -0.24785 0.88219 0.07351
 C310 C -0.23714 0.90434 0.08228
 C311 C -0.24902 0.91787 0.10116
 C312 C -0.27140 0.90924 0.11144
 C313 C -0.28252 0.88668 0.10309
 C314 C -0.27027 0.87343 0.08370
 C315 C -0.21374 0.91307 0.07229
 C316 C -0.19403 0.92060 0.06441
 C317 C -0.17084 0.92968 0.05576
 C318 C -0.15093 0.93769 0.04890
 C319 C -0.12708 0.94757 0.04137
 C320 C -0.11734 0.94219 0.01769
 C321 C -0.09412 0.95188 0.01056
 C322 C -0.08035 0.96708 0.02706
 C323 C -0.09035 0.97235 0.05081
 C324 C -0.11353 0.96266 0.05788
 H325 H -0.23876 0.87151 0.05889
 H326 H -0.24091 0.93514 0.10804
 H327 H -0.27978 0.92065 0.12580
 H328 H -0.27743 0.85602 0.07643
 H329 H -0.12769 0.93052 0.00477
 H330 H -0.08697 0.94747 -0.00784
 H331 H -0.08027 0.98397 0.06397
 H332 H -0.12088 0.96694 0.07625
 C333 C 0.74537 0.08300 0.60875
 C334 C 0.73633 0.09408 0.58694
 C335 C 0.74954 0.11375 0.57599
 C336 C 0.77164 0.12246 0.58684
 C337 C 0.78111 0.11167 0.60907
 C338 C 0.76746 0.09159 0.61970
 C339 C 0.71334 0.08544 0.57599
 C340 C 0.69399 0.07824 0.56701
 C341 C 0.67121 0.06979 0.55676
 C342 C 0.65166 0.06252 0.54828
 C343 C 0.62819 0.05373 0.53853
 C344 C 0.60643 0.06770 0.54234
 C345 C 0.58345 0.05875 0.53371
 C346 C 0.58195 0.03565 0.52115
 C347 C 0.60401 0.02190 0.51712
 C348 C 0.62696 0.03089 0.52578
 H349 H 0.73523 0.06773 0.61742
 H350 H 0.74273 0.12245 0.55902
 H351 H 0.78109 0.13757 0.57739
 H352 H 0.77331 0.08246 0.63668
 H353 H 0.60717 0.08539 0.55222
 H354 H 0.56685 0.06980 0.53713
 H355 H 0.60351 0.00405 0.50754
 H356 H 0.64369 0.01991 0.52276
 C357 C 0.39475 0.25006 0.41472
 C358 C 0.41390 0.23852 0.40130
 C359 C 0.42254 0.24940 0.37921
 C360 C 0.41199 0.27166 0.37044
 C361 C 0.39236 0.28360 0.38360
 C362 C 0.38410 0.27230 0.40607
 C363 C 0.42439 0.21533 0.41006
 C364 C 0.43286 0.19581 0.41750
 C365 C 0.44242 0.17283 0.42631
 C366 C 0.45027 0.15312 0.43392
 C367 C 0.45926 0.12948 0.44313
 C368 C 0.45512 0.10758 0.42938
 C369 C 0.46316 0.08448 0.43864
 C370 C 0.47545 0.08298 0.46184
 C371 C 0.47973 0.10515 0.47541
 C372 C 0.47167 0.12823 0.46610
 H373 H 0.38796 0.24182 0.43193
 H374 H 0.43736 0.24056 0.36862
 H375 H 0.41920 0.27896 0.35310
 H376 H 0.36955 0.28043 0.41739
 H377 H 0.44551 0.10833 0.41159
 H378 H 0.45957 0.06780 0.42772
 H379 H 0.48912 0.10467 0.49331
 H380 H 0.47493 0.14506 0.47691
 C381 C 0.92250 0.25009 0.62064
 C382 C 0.91372 0.26110 0.59869
 C383 C 0.89437 0.24972 0.58541
 C384 C 0.88366 0.22749 0.59407
 C385 C 0.89208 0.21604 0.61640
 C386 C 0.91189 0.22784 0.62942
 C387 C 0.92430 0.28426 0.58992
 C388 C 0.93286 0.30376 0.58250
 C389 C 0.94254 0.32671 0.57372
 C390 C 0.95050 0.34641 0.56615
 C391 C 0.95963 0.37004 0.55699
 C392 C 0.97204 0.37129 0.53402
 C393 C 0.98019 0.39436 0.52474
 C394 C 0.97599 0.41652 0.53834
 C395 C 0.96371 0.41501 0.56155
 C396 C 0.95558 0.39192 0.57078
 H397 H 0.93748 0.25880 0.63111
 H398 H 0.88747 0.25807 0.56831
 H399 H 0.86894 0.21950 0.58287
 H400 H 0.91924 0.22042 0.64665
 H401 H 0.97523 0.35446 0.52317
 H402 H 0.98957 0.39485 0.50682
 H403 H 0.96017 0.43169 0.57250
 H404 H 0.94596 0.39116 0.58857
 C405 C 0.07498 0.75133 -0.11175
 C406 C 0.08614 0.76433 -0.09208
 C407 C 0.10781 0.75492 -0.08106
 C408 C 0.11843 0.73267 -0.08973
 C409 C 0.10761 0.71920 -0.10980
 C410 C 0.08551 0.72905 -0.12053
 C411 C 0.07560 0.78753 -0.08334
 C412 C 0.06718 0.80708 -0.07590
 C413 C 0.05785 0.83012 -0.06699
 C414 C 0.05040 0.84991 -0.05917
 C415 C 0.04220 0.87368 -0.04952
 C416 C 0.05823 0.88773 -0.03439
 C417 C 0.05057 0.91087 -0.02497
 C418 C 0.02668 0.92033 -0.03057
 C419 C 0.01065 0.90605 -0.04581
 C420 C 0.01839 0.88287 -0.05522
 H421 H 0.05813 0.75844 -0.12040
 H422 H 0.11663 0.76489 -0.06580
 H423 H 0.13530 0.72652 -0.08060
 H424 H 0.07595 0.71980 -0.13567
 H425 H 0.07670 0.88081 -0.02987
 H426 H 0.06338 0.92134 -0.01331
 H427 H -0.00783 0.91279 -0.05046
 H428 H 0.00583 0.87214 -0.06693
 C429 C 0.57402 0.74969 1.11123
 C430 C 0.58514 0.73671 1.09152
 C431 C 0.60672 0.74622 1.08038
 C432 C 0.61730 0.76854 1.08896
 C433 C 0.60652 0.78197 1.10908
 C434 C 0.58449 0.77203 1.11992
 C435 C 0.57469 0.71343 1.08289
 C436 C 0.56636 0.69380 1.07553
 C437 C 0.55715 0.67067 1.06672
 C438 C 0.54982 0.65079 1.05898
 C439 C 0.54177 0.62693 1.04942
 C440 C 0.55792 0.61291 1.03439
 C441 C 0.55039 0.58970 1.02504
 C442 C 0.52652 0.58014 1.03059
 C443 C 0.51038 0.59437 1.04573
 C444 C 0.51798 0.61763 1.05508
 H445 H 0.55723 0.74249 1.11997
 H446 H 0.61551 0.73628 1.06508
 H447 H 0.63409 0.77477 1.07973
 H448 H 0.57498 0.78124 1.13511
 H449 H 0.57638 0.61993 1.02990
 H450 H 0.56329 0.57926 1.01346
 H451 H 0.49190 0.58755 1.05035
 H452 H 0.50533 0.62834 1.06671
 C453 C 0.37846 0.41891 1.24054
 C454 C 0.40373 0.41684 1.23422
 C455 C 0.42014 0.40437 1.25030
 C456 C 0.41130 0.39385 1.27251
 C457 C 0.38588 0.39565 1.27897
 C458 C 0.36958 0.40842 1.26277
 C459 C 0.41276 0.42694 1.21098
 C460 C 0.42048 0.43500 1.19141
 C461 C 0.42970 0.44392 1.16837
 C462 C 0.43778 0.45106 1.14859
 C463 C 0.44769 0.45895 1.12486
 C464 C 0.46254 0.44250 1.11097
 C465 C 0.47218 0.44989 1.08787
 C466 C 0.46711 0.47389 1.07829
 C467 C 0.45217 0.49033 1.09241
 C468 C 0.44253 0.48288 1.11555
 H469 H 0.36557 0.42842 1.22816
 H470 H 0.43975 0.40267 1.24560
 H471 H 0.42439 0.38446 1.28471
 H472 H 0.34988 0.40987 1.26699
 H473 H 0.46664 0.42394 1.11799
 H474 H 0.48360 0.43676 1.07751
 H475 H 0.44791 0.50892 1.08558
 H476 H 0.43104 0.49575 1.12616
 C477 C 0.57773 -0.09751 0.24256
 C478 C 0.59412 -0.08505 0.25869
 C479 C 0.61941 -0.08299 0.25245
 C480 C 0.62833 -0.09344 0.23022
 C481 C 0.61204 -0.10615 0.21393
 C482 C 0.58661 -0.10800 0.22033
 C483 C 0.58509 -0.07476 0.28183
 C484 C 0.57757 -0.06635 0.30133
 C485 C 0.56881 -0.05679 0.32429
 C486 C 0.56133 -0.04888 0.34400
 C487 C 0.55235 -0.03977 0.36766
 C488 C 0.56648 -0.04353 0.38932
 C489 C 0.55748 -0.03538 0.41245
 C490 C 0.53416 -0.02336 0.41422
 C491 C 0.52021 -0.01944 0.39228
 C492 C 0.52926 -0.02762 0.36917
 H493 H 0.55811 -0.09918 0.24719
 H494 H 0.63229 -0.07348 0.26486
 H495 H 0.64804 -0.09198 0.22606
 H496 H 0.57354 -0.11735 0.20806
 H497 H 0.58437 -0.05295 0.38837
 H498 H 0.56868 -0.03870 0.42895
 H499 H 0.50220 -0.01026 0.39297
 H500 H 0.51816 -0.02464 0.35251
 C501 C -0.07992 1.09524 -0.25054
 C502 C -0.09629 1.08281 -0.23438
 C503 C -0.12158 1.08070 -0.24061
 C504 C -0.13051 1.09114 -0.26283
 C505 C -0.11424 1.10390 -0.27911
 C506 C -0.08880 1.10571 -0.27275
 C507 C -0.08721 1.07279 -0.21113
 C508 C -0.07946 1.06481 -0.19155
 C509 C -0.07021 1.05598 -0.16850
 C510 C -0.06211 1.04891 -0.14871
 C511 C -0.05221 1.04110 -0.12497
 C512 C -0.05733 1.01716 -0.11564
 C513 C -0.04771 1.00978 -0.09247
 C514 C -0.03284 1.02629 -0.07836
 C515 C -0.02780 1.05030 -0.08796
 C516 C -0.03742 1.05761 -0.11108
 H517 H -0.06029 1.09696 -0.24591
 H518 H -0.13445 1.07122 -0.22817
 H519 H -0.15023 1.08969 -0.26699
 H520 H -0.07573 1.11508 -0.28501
 H521 H -0.06877 1.00423 -0.12623
 H522 H -0.05195 0.99118 -0.08562
 H523 H -0.01643 1.06348 -0.07761
 H524 H -0.03334 1.07619 -0.11813
 C525 C 1.07852 0.59849 0.75690
 C526 C 1.09485 0.58592 0.74079
 C527 C 1.12015 0.58386 0.74698
 C528 C 1.12913 0.59442 0.76913
 C529 C 1.11291 0.60723 0.78540
 C530 C 1.08747 0.60908 0.77905
 C531 C 1.08574 0.57549 0.71774
 C532 C 1.07818 0.56696 0.69831
 C533 C 1.06939 0.55724 0.67543
 C534 C 1.06189 0.54919 0.65577
 C535 C 1.05291 0.53993 0.63217
 C536 C 1.02986 0.52765 0.63077
 C537 C 1.02079 0.51933 0.60772
 C538 C 1.03470 0.52322 0.58573
 C539 C 1.05798 0.53535 0.58740
 C540 C 1.06699 0.54365 0.61047
 H541 H 1.05889 0.60016 0.75230
 H542 H 1.13297 0.57427 0.73460
 H543 H 1.14885 0.59295 0.77325
 H544 H 1.07445 0.61852 0.79130
 H545 H 1.01879 0.52470 0.64746
 H546 H 1.00281 0.51007 0.60710
 H547 H 1.06915 0.53865 0.57085
 H548 H 1.08485 0.55316 0.61134
 C549 C 0.75651 0.62104 0.58070
 C550 C 0.76279 0.59573 0.58303
 C551 C 0.74652 0.57934 0.59533
 C552 C 0.72415 0.58824 0.60544
 C553 C 0.71773 0.61370 0.60340
 C554 C 0.73413 0.62998 0.59078
 C555 C 0.78618 0.58665 0.57336
 C556 C 0.80587 0.57892 0.56565
 C557 C 0.82905 0.56969 0.55711
 C558 C 0.84892 0.56163 0.55026
 C559 C 0.87275 0.55176 0.54266
 C560 C 0.88639 0.53675 0.55913
 C561 C 0.90957 0.52713 0.55199
 C562 C 0.91948 0.53240 0.52821
 C563 C 0.90561 0.54752 0.51174
 C564 C 0.88239 0.55713 0.51894
 H565 H 0.76903 0.63392 0.57132
 H566 H 0.75118 0.55970 0.59721
 H567 H 0.71181 0.57516 0.61471
 H568 H 0.72993 0.64972 0.58916
 H569 H 0.87911 0.53248 0.57754
 H570 H 0.91973 0.51557 0.56513
 H571 H 0.91269 0.55193 0.49331
 H572 H 0.87198 0.56875 0.50604
 C573 C 0.75000 0.38599 1.07669
 C574 C 0.73680 0.40559 1.08776
 C575 C 0.74583 0.41655 1.10964
 C576 C 0.76790 0.40790 1.12057
 C577 C 0.78154 0.38789 1.10982
 C578 C 0.77209 0.37722 1.08750
 C579 C 0.71383 0.41429 1.07684
 C580 C 0.69449 0.42154 1.06789
 C581 C 0.67173 0.43005 1.05769
 C582 C 0.65219 0.43736 1.04924
 C583 C 0.62874 0.44620 1.03952
 C584 C 0.62756 0.46907 1.02685
 C585 C 0.60463 0.47809 1.01819
 C586 C 0.58255 0.46434 1.02215
 C587 C 0.58400 0.44120 1.03465
 C588 C 0.60695 0.43223 1.04328
 H589 H 0.74320 0.37740 1.05966
 H590 H 0.73570 0.43176 1.11841
 H591 H 0.77374 0.41693 1.13761
 H592 H 0.78153 0.36217 1.07797
 H593 H 0.64432 0.48005 1.02386
 H594 H 0.60418 0.49596 1.00866
 H595 H 0.56738 0.43015 1.03802
 H596 H 0.60766 0.41451 1.05310
 C597 C 0.24598 1.08359 -0.10897
 C598 C 0.23697 1.09475 -0.08718
 C599 C 0.25025 1.11437 -0.07623
 C600 C 0.27241 1.12296 -0.08706
 C601 C 0.28187 1.11208 -0.10928
 C602 C 0.26813 1.09206 -0.11991
 C603 C 0.21394 1.08620 -0.07623
 C604 C 0.19455 1.07904 -0.06729
 C605 C 0.17174 1.07060 -0.05710
 C606 C 0.15217 1.06332 -0.04868
 C607 C 0.12869 1.05447 -0.03901
 C608 C 0.12747 1.03163 -0.02629
 C609 C 0.10451 1.02256 -0.01772
 C610 C 0.08243 1.03625 -0.02181
 C611 C 0.08392 1.05936 -0.03435
 C612 C 0.10690 1.06838 -0.04289
 H613 H 0.23579 1.06836 -0.11764
 H614 H 0.24345 1.12312 -0.05928
 H615 H 0.28192 1.13805 -0.07763
 H616 H 0.27396 1.08287 -0.13687
 H617 H 0.14422 1.02069 -0.02321
 H618 H 0.10404 1.00471 -0.00815
 H619 H 0.06729 1.07035 -0.03781
 H620 H 0.10763 1.08607 -0.05275
 C621 C 0.25184 -0.11867 0.42550
 C622 C 0.26257 -0.09653 0.41674
 C623 C 0.25074 -0.08301 0.39785
 C624 C 0.22837 -0.09163 0.38753
 C625 C 0.21722 -0.11418 0.39588
 C626 C 0.22943 -0.12742 0.41528
 C627 C 0.28594 -0.08777 0.42677
 C628 C 0.30563 -0.08018 0.43466
 C629 C 0.32879 -0.07100 0.44331
 C630 C 0.34865 -0.06290 0.45018
 C631 C 0.37246 -0.05292 0.45772
 C632 C 0.38218 -0.05825 0.48140
 C633 C 0.40536 -0.04849 0.48855
 C634 C 0.41911 -0.03326 0.47206
 C635 C 0.40912 -0.02802 0.44831
 C636 C 0.38598 -0.03779 0.44123
 H637 H 0.26089 -0.12934 0.44013
 H638 H 0.25887 -0.06575 0.39097
 H639 H 0.22003 -0.08022 0.37317
 H640 H 0.22223 -0.14483 0.42252
 H641 H 0.37186 -0.06995 0.49432
 H642 H 0.41251 -0.05288 0.50696
 H643 H 0.41918 -0.01637 0.43516
 H644 H 0.37863 -0.03354 0.42286
 C645 C 0.60610 -0.24591 0.58014
 C646 C 0.58477 -0.23613 0.59149
 C647 C 0.57390 -0.24874 0.61157
 C648 C 0.58439 -0.27099 0.62044
 C649 C 0.60619 -0.28119 0.60939
 C650 C 0.61670 -0.26813 0.58889
 C651 C 0.57430 -0.21294 0.58268
 C652 C 0.56596 -0.19339 0.57518
 C653 C 0.55672 -0.17035 0.56621
 C654 C 0.54935 -0.15055 0.55834
 C655 C 0.54125 -0.12678 0.54865
 C656 C 0.51747 -0.11749 0.55436
 C657 C 0.50982 -0.09430 0.54493
 C658 C 0.52590 -0.08011 0.52967
 C659 C 0.54975 -0.08967 0.52406
 C660 C 0.55733 -0.11282 0.53349
 H661 H 0.61470 -0.23626 0.56455
 H662 H 0.55730 -0.24132 0.62049
 H663 H 0.57509 -0.27989 0.63594
 H664 H 0.63328 -0.27459 0.57946
 H665 H 0.50488 -0.12816 0.56609
 H666 H 0.49136 -0.08748 0.54960
 H667 H 0.56260 -0.07926 0.51238
 H668 H 0.57577 -0.11982 0.52896
 C669 C 1.08184 0.74248 0.38285
 C670 C 1.08406 0.73605 0.40809
 C671 C 1.09670 0.75205 0.42448
 C672 C 1.10723 0.77432 0.41567
 C673 C 1.10525 0.78090 0.39029
 C674 C 1.09233 0.76475 0.37400
 C675 C 1.07386 0.71279 0.41707
 C676 C 1.06568 0.69319 0.42467
 C677 C 1.05659 0.67010 0.43370
 C678 C 1.04931 0.65027 0.44159
 C679 C 1.04128 0.62646 0.45129
 C680 C 1.05742 0.61253 0.46638
 C681 C 1.04991 0.58935 0.47582
 C682 C 1.02608 0.57971 0.47028
 C683 C 1.00993 0.59386 0.45508
 C684 C 1.01751 0.61709 0.44565
 H685 H 1.07220 0.73017 0.36997
 H686 H 1.09851 0.74726 0.44407
 H687 H 1.11674 0.78647 0.42875
 H688 H 1.09076 0.76905 0.35432
 H689 H 1.07586 0.61960 0.47086
 H690 H 1.06281 0.57898 0.48745
 H691 H 0.99147 0.58698 0.45047
 H692 H 1.00486 0.62772 0.43396
 C693 C -0.07715 1.24951 0.12052
 C694 C -0.08606 1.23854 0.09859
 C695 C -0.10550 1.24991 0.08547
 C696 C -0.11617 1.27209 0.09428
 C697 C -0.10764 1.28349 0.11660
 C698 C -0.08773 1.27171 0.12945
 C699 C -0.07553 1.21541 0.08967
 C700 C -0.06702 1.19594 0.08213
 C701 C -0.05743 1.17301 0.07321
 C702 C -0.04954 1.15334 0.06551
 C703 C -0.04050 1.12973 0.05625
 C704 C -0.02813 1.12853 0.03324
 C705 C -0.02002 1.10548 0.02389
 C706 C -0.02421 1.08329 0.03744
 C707 C -0.03646 1.08474 0.06066
 C708 C -0.04455 1.10781 0.06997
 H709 H -0.06209 1.24081 0.13087
 H710 H -0.11250 1.24159 0.06839
 H711 H -0.13099 1.28005 0.08320
 H712 H -0.08027 1.27911 0.14664
 H713 H -0.02493 1.14538 0.02244
 H714 H -0.01065 1.10503 0.00596
 H715 H -0.03999 1.06804 0.07157
 H716 H -0.05414 1.10852 0.08778
 C717 C 0.41722 0.25495 0.87615
 C718 C 0.41515 0.26137 0.90141
 C719 C 0.40265 0.24534 0.91788
 C720 C 0.39211 0.22306 0.90911
 C721 C 0.39392 0.21650 0.88371
 C722 C 0.40671 0.23267 0.86734
 C723 C 0.42543 0.28460 0.91036
 C724 C 0.43376 0.30415 0.91792
 C725 C 0.44320 0.32714 0.92683
 C726 C 0.45099 0.34687 0.93451
 C727 C 0.45994 0.37052 0.94377
 C728 C 0.47229 0.37177 0.96678
 C729 C 0.48035 0.39485 0.97612
 C730 C 0.47613 0.41702 0.96255
 C731 C 0.46390 0.41552 0.93933
 C732 C 0.45586 0.39242 0.93003
 H733 H 0.42677 0.26728 0.86321
 H734 H 0.40098 0.25010 0.93748
 H735 H 0.38271 0.21089 0.92225
 H736 H 0.40815 0.22837 0.84765
 H737 H 0.47551 0.35494 0.97758
 H738 H 0.48970 0.39534 0.99405
 H739 H 0.46035 0.43220 0.92841
 H740 H 0.44629 0.39166 0.91222
 C741 C 0.60697 0.57187 0.74257
 C742 C 0.59457 0.58675 0.76015
 C743 C 0.59082 0.61221 0.75534
 C744 C 0.59948 0.62280 0.73310
 C745 C 0.61206 0.60805 0.71531
 C746 C 0.61567 0.58243 0.72030
 C747 C 0.58582 0.57601 0.78320
 C748 C 0.57848 0.56729 0.80263
 C749 C 0.56984 0.55743 0.82551
 C750 C 0.56241 0.54931 0.84516
 C751 C 0.55344 0.54001 0.86875
 C752 C 0.53036 0.52780 0.87016
 C753 C 0.52125 0.51954 0.89321
 C754 C 0.53514 0.52342 0.91520
 C755 C 0.55847 0.53547 0.91354
 C756 C 0.56752 0.54371 0.89046
 H757 H 0.60992 0.55212 0.74607
 H758 H 0.58132 0.62392 0.76887
 H759 H 0.59671 0.64262 0.73003
 H760 H 0.62498 0.57050 0.70689
 H761 H 0.51929 0.52488 0.85347
 H762 H 0.50324 0.51033 0.89383
 H763 H 0.56963 0.53876 0.93008
 H764 H 0.58541 0.55318 0.88959
 C765 C 0.37867 0.08062 0.74022
 C766 C 0.40396 0.08252 0.73392
 C767 C 0.42049 0.09477 0.75006
 C768 C 0.41175 0.10527 0.77233
 C769 C 0.38632 0.10367 0.77877
 C770 C 0.36989 0.09109 0.76250
 C771 C 0.41289 0.07249 0.71061
 C772 C 0.42051 0.06449 0.69098
 C773 C 0.42964 0.05565 0.66787
 C774 C 0.43763 0.04859 0.64803
 C775 C 0.44743 0.04079 0.62424
 C776 C 0.46222 0.05728 0.61033
 C777 C 0.47177 0.04997 0.58718
 C778 C 0.46667 0.02598 0.57756
 C779 C 0.45179 0.00948 0.59168
 C780 C 0.44224 0.01687 0.61488
 H781 H 0.36569 0.07129 0.72780
 H782 H 0.44011 0.09633 0.74538
 H783 H 0.42493 0.11449 0.78458
 H784 H 0.35017 0.08981 0.76672
 H785 H 0.46635 0.07584 0.61739
 H786 H 0.48315 0.06313 0.57681
 H787 H 0.44751 -0.00910 0.58482
 H788 H 0.43080 0.00395 0.62550
 C789 C 0.07773 0.90224 0.25640
 C790 C 0.09420 0.91460 0.24028
 C791 C 0.11951 0.91648 0.24650
 C792 C 0.12835 0.90596 0.26871
 C793 C 0.11198 0.89336 0.28500
 C794 C 0.08653 0.89168 0.27861
 C795 C 0.08523 0.92498 0.21716
 C796 C 0.07778 0.93347 0.19768
 C797 C 0.06908 0.94314 0.17475
 C798 C 0.06164 0.95113 0.15506
 C799 C 0.05273 0.96034 0.13143
 C800 C 0.06690 0.95667 0.10978
 C801 C 0.05794 0.96490 0.08667
 C802 C 0.03462 0.97692 0.08492
 C803 C 0.02063 0.98075 0.10686
 C804 C 0.02964 0.97250 0.12995
 H805 H 0.05809 0.90071 0.25178
 H806 H 0.13244 0.92591 0.23410
 H807 H 0.14807 0.90728 0.27287
 H808 H 0.07340 0.88241 0.29087
 H809 H 0.08479 0.94725 0.11072
 H810 H 0.06918 0.96164 0.07017
 H811 H 0.00262 0.98993 0.10618
 H812 H 0.01850 0.97541 0.14660
 C813 C 0.87861 0.41821 0.26037
 C814 C 0.90389 0.41613 0.26664
 C815 C 0.92028 0.40371 0.25048
 C816 C 0.91142 0.39326 0.22824
 C817 C 0.88599 0.39507 0.22183
 C818 C 0.86970 0.40779 0.23812
 C819 C 0.91294 0.42620 0.28988
 C820 C 0.92065 0.43425 0.30946
 C821 C 0.92985 0.44319 0.33250
 C822 C 0.93790 0.45035 0.35229
 C823 C 0.94776 0.45827 0.37603
 C824 C 0.96264 0.44188 0.38992
 C825 C 0.97222 0.44931 0.41304
 C826 C 0.96705 0.47329 0.42262
 C827 C 0.95208 0.48968 0.40849
 C828 C 0.94250 0.48219 0.38534
 H829 H 0.86573 0.42768 0.27280
 H830 H 0.93990 0.40201 0.25513
 H831 H 0.92450 0.38392 0.21598
 H832 H 0.85000 0.40923 0.23394
 H833 H 0.96682 0.42333 0.38290
 H834 H 0.98367 0.43623 0.42339
 H835 H 0.94775 0.50825 0.41533
 H836 H 0.93098 0.49502 0.37473
   
