data_POSCAR
  _audit_creation_date              2014-09-24
  _audit_creation_method            'ToBaCCo'
  _symmetry_space_group_name_H-M    'P1'
  _symmetry_Int_Tables_number       1
  _symmetry_cell_setting            triclinic
  loop_
  _symmetry_equiv_pos_as_xyz
 x,y,z
_cell_length_a 41.5137
_cell_length_b 29.6049
_cell_length_c 29.3594
_cell_angle_alpha 89.924300
_cell_angle_beta 90.050800
_cell_angle_gamma 90.160700
loop_
  _atom_site_label
  _atom_site_type_symbol
  _atom_site_fract_x
  _atom_site_fract_y
  _atom_site_fract_z
C1 C 0.22605 0.22396 0.22594
 C2 C 0.22608 0.27161 0.22602
 C3 C 0.25003 0.29508 0.24998
 C4 C 0.27396 0.27165 0.27388
 C5 C 0.27396 0.22399 0.27383
 C6 C 0.25000 0.20048 0.24986
 H7 H 0.24998 0.16379 0.24981
 H8 H 0.25004 0.33173 0.25002
 C9 C 0.77440 0.27520 0.22566
 C10 C 0.77430 0.22753 0.22566
 C11 C 0.75031 0.20404 0.24953
 C12 C 0.72643 0.22749 0.27339
 C13 C 0.72653 0.27507 0.27343
 C14 C 0.75049 0.29863 0.24958
 H15 H 0.75048 0.33530 0.24968
 H16 H 0.75021 0.16739 0.24953
 C17 C 0.72645 0.72786 0.72651
 C18 C 0.72645 0.77544 0.72652
 C19 C 0.75036 0.79901 0.75047
 C20 C 0.77431 0.77558 0.77444
 C21 C 0.77429 0.72792 0.77442
 C22 C 0.75036 0.70442 0.75044
 H23 H 0.75034 0.66777 0.75041
 H24 H 0.75028 0.83567 0.75039
 C25 C 0.27348 0.77258 0.72645
 C26 C 0.27349 0.72501 0.72653
 C27 C 0.24961 0.70141 0.75052
 C28 C 0.22570 0.72480 0.77447
 C29 C 0.22572 0.77247 0.77438
 C30 C 0.24961 0.79600 0.75036
 H31 H 0.24963 0.83264 0.75028
 H32 H 0.24970 0.66474 0.75050
 O33 O 1.03118 -0.05772 -0.00440
 O34 O 0.96867 0.00478 0.05809
 O35 O 0.96844 -0.05739 -0.00460
 O36 O 1.03141 0.00444 0.05830
 O37 O 1.03171 0.05730 0.00501
 O38 O 0.96874 -0.00453 -0.05790
 O39 O 0.96897 0.05764 0.00479
 O40 O 1.03148 -0.00486 -0.05769
 Cu41 Cu 0.99989 -0.03181 0.03223
 Cu42 Cu 1.00026 0.03172 -0.03182
 C43 C 1.04188 -0.04184 -0.04160
 C44 C 0.95827 0.04176 0.04198
 C45 C 0.95797 -0.04140 -0.04186
 C46 C 1.04219 0.04130 0.04227
 O47 O 0.46868 0.49519 0.44208
 O48 O 0.53135 0.55793 0.50466
 O49 O 0.53142 0.49569 0.44203
 O50 O 0.46861 0.55742 0.50471
 O51 O 0.46877 0.50461 0.55806
 O52 O 0.53158 0.44288 0.49538
 O53 O 0.53152 0.50512 0.55800
 O54 O 0.46884 0.44238 0.49543
 Cu55 Cu 0.50000 0.53189 0.46798
 Cu56 Cu 0.50019 0.46842 0.53210
 C57 C 0.45819 0.45820 0.45818
 C58 C 0.54201 0.54211 0.54189
 C59 C 0.54209 0.45887 0.45812
 C60 C 0.45809 0.54143 0.54196
 O61 O 0.03150 0.50451 -0.05783
 O62 O -0.03142 0.44249 0.00499
 O63 O -0.03124 0.50484 -0.05768
 O64 O 0.03132 0.44215 0.00483
 O65 O 0.03167 0.49484 0.05815
 O66 O -0.03089 0.55754 -0.00436
 O67 O -0.03107 0.49519 0.05831
 O68 O 0.03185 0.55721 -0.00451
 Cu69 Cu 0.00001 0.46818 -0.03180
 Cu70 Cu 0.00042 0.53151 0.03228
 C71 C 0.04229 0.54133 -0.04177
 C72 C -0.04186 0.45837 0.04226
 C73 C -0.04162 0.54177 -0.04158
 C74 C 0.04205 0.45791 0.04204
 O75 O 0.53095 1.00514 0.44141
 O76 O 0.46829 0.94251 0.50413
 O77 O 0.46820 1.00471 0.44131
 O78 O 0.53103 0.94294 0.50422
 O79 O 0.53094 0.99577 0.55741
 O80 O 0.46812 1.05754 0.49450
 O81 O 0.46820 0.99534 0.55732
 O82 O 0.53086 1.05797 0.49460
 Cu83 Cu 0.49962 0.96850 0.46740
 Cu84 Cu 0.49952 1.03199 0.53132
 C85 C 0.54149 1.04212 0.45742
 C86 C 0.45768 0.95835 0.54132
 C87 C 0.45755 1.04155 0.45728
 C88 C 0.54159 0.95893 0.54144
 C89 C 1.15805 0.15528 0.15798
 N90 N 1.15799 0.10947 0.15725
 N91 N 1.13522 0.08705 0.13451
 C92 C 1.11184 0.10976 0.11181
 N93 N 1.11190 0.15557 0.11255
 N94 N 1.13467 0.17799 0.13529
 C95 C 1.18254 0.17946 0.18244
 C96 C 1.20300 0.20011 0.20290
 C97 C 1.08732 0.08563 0.08733
 C98 C 1.06672 0.06537 0.06676
 C99 C 0.65736 0.65743 0.65728
 N100 N 0.65752 0.61162 0.65657
 N101 N 0.63485 0.58897 0.63387
 C102 C 0.61133 0.61144 0.61120
 N103 N 0.61117 0.65725 0.61190
 N104 N 0.63384 0.67990 0.63460
 C105 C 0.68174 0.68184 0.68171
 C106 C 0.70215 0.70259 0.70216
 C107 C 0.58692 0.58704 0.58677
 C108 C 0.56642 0.56653 0.56627
 C109 C -0.15760 0.34405 0.15787
 N110 N -0.15771 0.38985 0.15682
 N111 N -0.13496 0.41234 0.13410
 C112 C -0.11143 0.38970 0.11175
 N113 N -0.11132 0.34390 0.11281
 N114 N -0.13407 0.32141 0.13553
 C115 C -0.18207 0.31979 0.18229
 C116 C -0.20254 0.29909 0.20269
 C117 C -0.08694 0.41390 0.08728
 C118 C -0.06636 0.43422 0.06672
 C119 C 0.34248 0.84306 0.65704
 N120 N 0.34223 0.88886 0.65604
 N121 N 0.36487 0.91151 0.63327
 C122 C 0.38843 0.88905 0.61082
 N123 N 0.38868 0.84325 0.61183
 N124 N 0.36605 0.82059 0.63460
 C125 C 0.31813 0.81864 0.68154
 C126 C 0.29775 0.79788 0.70204
 C127 C 0.41281 0.91345 0.58632
 C128 C 0.43329 0.93395 0.56576
 C129 C -0.15675 0.65725 -0.15660
 N130 N -0.13311 0.67967 -0.13402
 N131 N -0.11048 0.65697 -0.11140
 C132 C -0.11081 0.61116 -0.11070
 N133 N -0.13445 0.58874 -0.13329
 N134 N -0.15708 0.61144 -0.15590
 C135 C -0.18109 0.68172 -0.18094
 C136 C -0.20145 0.70253 -0.20131
 C137 C -0.08644 0.58671 -0.08638
 C138 C -0.06597 0.56619 -0.06593
 C139 C 0.34189 1.15540 0.34166
 N140 N 0.36540 1.17814 0.36418
 N141 N 0.38814 1.15574 0.38689
 C142 C 0.38804 1.10994 0.38776
 N143 N 0.36452 1.08720 0.36524
 N144 N 0.34179 1.10959 0.34253
 C145 C 0.31743 1.17955 0.31724
 C146 C 0.29698 1.20017 0.29682
 C147 C 0.41251 1.08583 0.41223
 C148 C 0.43308 1.06560 0.43280
 C149 C 1.15686 -0.15700 -0.15665
 N150 N 1.15695 -0.11119 -0.15645
 N151 N 1.13435 -0.08854 -0.13383
 C152 C 1.11099 -0.11103 -0.11074
 N153 N 1.11091 -0.15684 -0.11094
 N154 N 1.13350 -0.17949 -0.13356
 C155 C 1.18116 -0.18141 -0.18099
 C156 C 1.20150 -0.20218 -0.20136
 C157 C 1.08665 -0.08665 -0.08640
 C158 C 1.06621 -0.06618 -0.06594
 C159 C 0.65748 0.34496 0.34259
 N160 N 0.65757 0.39076 0.34329
 N161 N 0.63490 0.41317 0.36601
 C162 C 0.61146 0.39044 0.38871
 N163 N 0.61137 0.34464 0.38801
 N164 N 0.63404 0.32223 0.36529
 C165 C 0.68186 0.32079 0.31816
 C166 C 0.70226 0.30021 0.29773
 C167 C 0.58705 0.41456 0.41315
 C168 C 0.56653 0.43480 0.43369
 C169 C 0.84222 -0.15558 -0.15760
 N170 N 0.84226 -0.10977 -0.15692
 N171 N 0.86500 -0.08730 -0.13417
 C172 C 0.88838 -0.10996 -0.11143
 N173 N 0.88834 -0.15577 -0.11211
 N174 N 0.86560 -0.17824 -0.13485
 C175 C 0.81777 -0.17982 -0.18206
 C176 C 0.79732 -0.20051 -0.20252
 C177 C 0.91287 -0.08578 -0.08694
 C178 C 0.93346 -0.06550 -0.06636
 C179 C 0.34297 0.34250 0.34294
 N180 N 0.36664 0.32014 0.36539
 N181 N 0.38928 0.34290 0.38805
 C182 C 0.38893 0.38870 0.38893
 N183 N 0.36526 0.41106 0.36648
 N184 N 0.34262 0.38830 0.34382
 C185 C 0.31862 0.31798 0.31857
 C186 C 0.29824 0.29711 0.29817
 C187 C 0.41331 0.41320 0.41331
 C188 C 0.43380 0.43376 0.43380
 C189 C 0.15789 0.65583 -0.15748
 N190 N 0.15779 0.61002 -0.15693
 N191 N 0.13508 0.58749 -0.13418
 C192 C 0.11180 0.61009 -0.11129
 N193 N 0.11190 0.65590 -0.11184
 N194 N 0.13461 0.67843 -0.13459
 C195 C 0.18231 0.68013 -0.18197
 C196 C 0.20272 0.70086 -0.20245
 C197 C 0.08734 0.58584 -0.08681
 C198 C 0.06677 0.56550 -0.06624
 C199 C 0.65710 1.15716 0.34228
 N200 N 0.65711 1.11135 0.34291
 N201 N 0.63437 1.08875 0.36553
 C202 C 0.61093 1.11127 0.38818
 N203 N 0.61092 1.15708 0.38754
 N204 N 0.63367 1.17969 0.36493
 C205 C 0.68157 1.18152 0.31797
 C206 C 0.70205 1.20224 0.29762
 C207 C 0.58646 1.08694 0.41255
 C208 C 0.56592 1.06648 0.43303
 C209 C 0.15713 0.34237 0.15712
 N210 N 0.13354 0.31997 0.13440
 N211 N 0.11093 0.34269 0.11178
 C212 C 0.11122 0.38850 0.11120
 N213 N 0.13480 0.41090 0.13392
 N214 N 0.15742 0.38818 0.15654
 C215 C 0.18146 0.31788 0.18144
 C216 C 0.20182 0.29705 0.20179
 C217 C 0.08688 0.41296 0.08684
 C218 C 0.06641 0.43350 0.06638
 C219 C 0.65723 0.84522 0.65723
 N220 N 0.65715 0.89103 0.65666
 N221 N 0.63441 0.91338 0.63390
 C222 C 0.61109 0.89060 0.61103
 N223 N 0.61118 0.84479 0.61160
 N224 N 0.63391 0.82244 0.63435
 C225 C 0.68168 0.82111 0.68170
 C226 C 0.70213 0.80055 0.70217
 C227 C 0.58661 0.91467 0.58653
 C228 C 0.56605 0.93487 0.56594
 C229 C 0.84321 0.15692 0.15687
 N230 N 0.84283 0.11112 0.15610
 N231 N 0.86545 0.08847 0.13353
 C232 C 0.88911 0.11094 0.11105
 N233 N 0.88949 0.15674 0.11182
 N234 N 0.86687 0.17939 0.13440
 C235 C 0.81888 0.18134 0.18115
 C236 C 0.79853 0.20213 0.20146
 C237 C 0.91345 0.08655 0.08673
 C238 C 0.93391 0.06609 0.06629
 C239 C 0.34259 0.65523 0.65737
 N240 N 0.34241 0.60942 0.65644
 N241 N 0.36511 0.58704 0.63375
 C242 C 0.38866 0.60979 0.61130
 N243 N 0.38883 0.65559 0.61224
 N244 N 0.36614 0.67797 0.63493
 C245 C 0.31819 0.67936 0.68179
 C246 C 0.29777 0.69991 0.70222
 C247 C 0.41310 0.58570 0.58688
 C248 C 0.43364 0.56547 0.56637
   
