data_POSCAR
  _audit_creation_date              2014-09-24
  _audit_creation_method            'ToBaCCo'
  _symmetry_space_group_name_H-M    'P1'
  _symmetry_Int_Tables_number       1
  _symmetry_cell_setting            triclinic
  loop_
  _symmetry_equiv_pos_as_xyz
 x,y,z
_cell_length_a 35.0441
_cell_length_b 34.9936
_cell_length_c 35.0206
_cell_angle_alpha 89.909000
_cell_angle_beta 90.078900
_cell_angle_gamma 89.644800
loop_
  _atom_site_label
  _atom_site_type_symbol
  _atom_site_fract_x
  _atom_site_fract_y
  _atom_site_fract_z
C1 C -0.05262 0.50818 0.26642
 C2 C -0.01645 0.51508 0.25067
 C3 C -0.00880 0.55077 0.23402
 C4 C -0.03716 0.57916 0.23276
 C5 C -0.07303 0.57222 0.24887
 C6 C -0.08074 0.53684 0.26587
 C7 C 0.01329 0.48499 0.25147
 C8 C 0.00584 0.44868 0.23621
 C9 C 0.03428 0.42039 0.23637
 C10 C 0.06999 0.42800 0.25250
 C11 C 0.07749 0.46397 0.26813
 C12 C 0.04934 0.49255 0.26727
 H13 H -0.05854 0.48078 0.27960
 H14 H 0.01896 0.55608 0.22148
 H15 H -0.02175 0.44275 0.22358
 H16 H 0.05523 0.52040 0.27938
 H17 H -0.09492 0.59432 0.24815
 H18 H 0.09193 0.40599 0.25283
 C19 C -0.04963 0.49334 0.73523
 C20 C -0.01400 0.48600 0.75222
 C21 C -0.00690 0.45030 0.76930
 C22 C -0.03537 0.42234 0.76974
 C23 C -0.07069 0.42973 0.75237
 C24 C -0.07776 0.46509 0.73495
 C25 C 0.01585 0.51557 0.75193
 C26 C 0.00855 0.55176 0.76773
 C27 C 0.03696 0.57978 0.76754
 C28 C 0.07245 0.57195 0.75085
 C29 C 0.07973 0.53607 0.73472
 C30 C 0.05165 0.50779 0.73563
 H31 H -0.05515 0.52070 0.72166
 H32 H 0.02048 0.44464 0.78270
 H33 H -0.01897 0.55778 0.78060
 H34 H 0.05732 0.48005 0.72302
 H35 H -0.09267 0.40801 0.75233
 H36 H 0.09438 0.59371 0.75030
 C37 C 0.26648 -0.04984 0.50660
 C38 C 0.24976 -0.01405 0.51415
 C39 C 0.23331 -0.00711 0.55006
 C40 C 0.23319 -0.03583 0.57796
 C41 C 0.25022 -0.07130 0.57039
 C42 C 0.26706 -0.07829 0.53481
 C43 C 0.24944 0.01602 0.48453
 C44 C 0.23374 0.00869 0.44835
 C45 C 0.23316 0.03734 0.42033
 C46 C 0.24898 0.07314 0.42817
 C47 C 0.26502 0.08049 0.46401
 C48 C 0.26490 0.05214 0.49228
 H49 H 0.27953 -0.05520 0.47903
 H50 H 0.22003 0.02031 0.55597
 H51 H 0.22148 -0.01906 0.44234
 H52 H 0.27741 0.05788 0.52000
 H53 H 0.25028 -0.09339 0.59218
 H54 H 0.24888 0.09529 0.40643
 C55 C 0.73500 -0.05365 0.49384
 C56 C 0.75075 -0.01755 0.48649
 C57 C 0.76674 -0.00997 0.45052
 C58 C 0.76732 -0.03830 0.42233
 C59 C 0.75125 -0.07407 0.42969
 C60 C 0.73488 -0.08174 0.46534
 C61 C 0.75045 0.01225 0.51632
 C62 C 0.76608 0.00468 0.55254
 C63 C 0.76623 0.03316 0.58064
 C64 C 0.75005 0.06904 0.57285
 C65 C 0.73409 0.07663 0.53696
 C66 C 0.73462 0.04844 0.50862
 H67 H 0.72227 -0.05951 0.52144
 H68 H 0.77925 0.01770 0.44474
 H69 H 0.77868 -0.02309 0.55851
 H70 H 0.72219 0.05440 0.48086
 H71 H 0.75148 -0.09585 0.40766
 H72 H 0.74987 0.09108 0.59462
 C73 C 0.49063 0.26417 1.05023
 C74 C 0.48343 0.24756 1.01447
 C75 C 0.44748 0.23162 1.00701
 C76 C 0.41915 0.23194 1.03523
 C77 C 0.42642 0.24894 1.07066
 C78 C 0.46203 0.26523 1.07810
 C79 C 0.51332 0.24715 0.98482
 C80 C 0.54910 0.23042 0.99238
 C81 C 0.57739 0.22988 0.96411
 C82 C 0.57024 0.24678 0.92850
 C83 C 0.53479 0.26386 0.92098
 C84 C 0.50624 0.26368 0.94892
 H85 H 0.51817 0.27690 1.05602
 H86 H 0.44189 0.21854 0.97952
 H87 H 0.55458 0.21739 1.01999
 H88 H 0.47884 0.27700 0.94305
 H89 H 0.40441 0.24960 1.09243
 H90 H 0.59219 0.24675 0.90668
 C91 C 0.50954 0.73617 1.05054
 C92 C 0.51632 0.75222 1.01441
 C93 C 0.55189 0.76880 1.00662
 C94 C 0.58025 0.76969 1.03486
 C95 C 0.57341 0.75324 1.07068
 C96 C 0.53818 0.73631 1.07846
 C97 C 0.48629 0.75167 0.98483
 C98 C 0.45027 0.76784 0.99223
 C99 C 0.42187 0.76766 0.96400
 C100 C 0.42916 0.75056 0.92859
 C101 C 0.46487 0.73404 0.92121
 C102 C 0.49352 0.73495 0.94911
 H103 H 0.48228 0.72301 1.05663
 H104 H 0.55712 0.78154 0.97887
 H105 H 0.44469 0.78108 1.01966
 H106 H 0.52114 0.72211 0.94333
 H107 H 0.59542 0.75358 1.09250
 H108 H 0.40713 0.75007 0.90678
 B109 B 1.00004 1.03855 0.02470
 B110 B 1.02448 0.99958 0.03929
 B111 B 0.97643 0.99949 0.03948
 B112 B 0.96117 1.02374 0.00075
 B113 B 0.99979 1.03885 -0.02340
 B114 B 1.03892 1.02392 0.00041
 B115 B 1.00043 0.96098 -0.02371
 B116 B 0.97601 0.99993 -0.03831
 B117 B 1.02406 1.00006 -0.03852
 B118 B 1.03932 0.97578 0.00024
 B119 B 1.00070 0.96069 0.02438
 B120 B 0.96158 0.97562 0.00054
 B121 B 0.53913 0.49980 0.47509
 B122 B 0.50028 0.52442 0.46059
 B123 B 0.50002 0.47629 0.46039
 B124 B 0.52427 0.46092 0.49907
 B125 B 0.53952 0.49955 0.52318
 B126 B 0.52470 0.53878 0.49940
 B127 B 0.46177 0.50047 0.52366
 B128 B 0.50061 0.47587 0.53819
 B129 B 0.50090 0.52399 0.53839
 B130 B 0.47664 0.53937 0.49969
 B131 B 0.46140 0.50074 0.47558
 B132 B 0.47621 0.46150 0.49940
 C133 C 1.02739 1.38381 0.21906
 C134 C 1.02249 1.35319 0.20416
 C135 C 1.01765 1.31671 0.18595
 C136 C 0.98480 1.30924 0.16453
 C137 C 0.98088 1.27425 0.14571
 C138 C 1.00983 1.24628 0.14810
 C139 C 1.04258 1.25397 0.17000
 C140 C 1.04644 1.28896 0.18875
 C141 C 1.00632 1.20954 0.12724
 C142 C 1.01856 1.17507 0.14416
 C143 C 1.01635 1.14069 0.12403
 C144 C 1.00186 1.14031 0.08679
 C145 C 0.98931 1.17435 0.06980
 C146 C 0.99148 1.20876 0.08988
 C147 C 1.00067 1.10516 0.06570
 C148 C 1.00009 1.07583 0.04783
 H149 H 0.96234 1.33054 0.16216
 H150 H 0.95514 1.26901 0.12945
 H151 H 1.06560 1.23328 0.17195
 H152 H 1.07209 1.29453 0.20508
 H153 H 1.02968 1.17466 0.17302
 H154 H 1.02612 1.11445 0.13742
 H155 H 0.97823 1.17435 0.04090
 H156 H 0.98233 1.23487 0.07587
 C157 C 0.96973 0.61319 0.21521
 C158 C 0.97519 0.64325 0.19932
 C159 C 0.98091 0.67904 0.17993
 C160 C 0.97120 0.68262 0.14132
 C161 C 0.97568 0.71758 0.12257
 C162 C 0.98993 0.74951 0.14223
 C163 C 0.99984 0.74556 0.18101
 C164 C 0.99535 0.71053 0.19971
 C165 C 0.99379 0.78687 0.12246
 C166 C 0.98354 0.82106 0.14105
 C167 C 0.98604 0.85609 0.12200
 C168 C 0.99888 0.85741 0.08421
 C169 C 1.00950 0.82366 0.06559
 C170 C 1.00700 0.78860 0.08456
 C171 C 1.00019 0.89323 0.06417
 C172 C 1.00079 0.92303 0.04700
 H173 H 0.95981 0.65847 0.12579
 H174 H 0.96727 0.71983 0.09288
 H175 H 1.01130 0.76948 0.19679
 H176 H 1.00298 0.70806 0.22961
 H177 H 0.97279 0.82063 0.17001
 H178 H 0.97757 0.88208 0.13658
 H179 H 1.01949 0.82441 0.03633
 H180 H 1.01556 0.76286 0.06965
 C181 C 0.97080 1.38826 -0.21240
 C182 C 0.97535 1.35808 -0.19632
 C183 C 0.97965 1.32208 -0.17684
 C184 C 1.00719 1.29555 -0.18876
 C185 C 1.01059 1.26024 -0.17023
 C186 C 0.98637 1.25102 -0.13958
 C187 C 0.95897 1.27803 -0.12768
 C188 C 0.95566 1.31328 -0.14621
 C189 C 0.98938 1.21333 -0.12023
 C190 C 0.95627 1.19360 -0.10927
 C191 C 0.95901 1.15834 -0.09067
 C192 C 0.99483 1.14231 -0.08280
 C193 C 1.02796 1.16157 -0.09371
 C194 C 1.02528 1.19685 -0.11236
 C195 C 0.99741 1.10642 -0.06297
 C196 C 0.99893 1.07656 -0.04594
 H197 H 1.02582 1.30203 -0.21254
 H198 H 1.03166 1.23989 -0.18032
 H199 H 0.94030 1.27203 -0.10383
 H200 H 0.93428 1.33364 -0.13671
 H201 H 0.92822 1.20525 -0.11540
 H202 H 0.93320 1.14361 -0.08237
 H203 H 1.05583 1.14944 -0.08757
 H204 H 1.05127 1.21154 -0.12004
 C205 C 1.03046 0.61441 -0.21592
 C206 C 1.02540 0.64505 -0.20101
 C207 C 1.02021 0.68157 -0.18286
 C208 C 0.99004 0.68737 -0.15735
 C209 C 0.98589 0.72245 -0.13869
 C210 C 1.01192 0.75219 -0.14532
 C211 C 1.04194 0.74617 -0.17132
 C212 C 1.04604 0.71108 -0.18992
 C213 C 1.00832 0.78906 -0.12466
 C214 C 1.01523 0.82389 -0.14351
 C215 C 1.01278 0.85849 -0.12372
 C216 C 1.00338 0.85871 -0.08491
 C217 C 0.99621 0.82428 -0.06595
 C218 C 0.99863 0.78967 -0.08567
 C219 C 1.00181 0.89413 -0.06430
 C220 C 1.00089 0.92363 -0.04671
 H221 H 0.96987 0.66471 -0.15170
 H222 H 0.96223 0.72637 -0.11920
 H223 H 1.06274 0.76829 -0.17664
 H224 H 1.06962 0.70681 -0.20947
 H225 H 1.02230 0.82440 -0.17359
 H226 H 1.01836 0.88503 -0.13864
 H227 H 0.98910 0.82418 -0.03585
 H228 H 0.99369 0.76333 -0.07023
 C229 C 1.21667 1.03081 0.38572
 C230 C 1.20181 1.02582 0.35507
 C231 C 1.18374 1.02083 0.31852
 C232 C 1.16566 0.98643 0.30961
 C233 C 1.14715 0.98213 0.27447
 C234 C 1.14652 1.01226 0.24779
 C235 C 1.16504 1.04662 0.25694
 C236 C 1.18349 1.05084 0.29207
 C237 C 1.12607 1.00820 0.21085
 C238 C 1.14160 1.02329 0.17702
 C239 C 1.12179 1.02045 0.14248
 C240 C 1.08625 1.00249 0.14129
 C241 C 1.07068 0.98711 0.17466
 C242 C 1.09045 0.98990 0.20923
 C243 C 1.06534 1.00073 0.10603
 C244 C 1.04757 0.99980 0.07662
 H245 H 1.16570 0.96300 0.32988
 H246 H 1.13355 0.95519 0.26808
 H247 H 1.16460 1.07052 0.23727
 H248 H 1.19724 1.07766 0.29875
 H249 H 1.16915 1.03712 0.17724
 H250 H 1.13407 1.03244 0.11677
 H251 H 1.04309 0.97331 0.17403
 H252 H 1.07749 0.97848 0.23484
 C253 C 1.21480 0.97054 -0.38587
 C254 C 1.19904 0.97490 -0.35559
 C255 C 1.17983 0.97897 -0.31952
 C256 C 1.17834 1.01445 -0.30115
 C257 C 1.15934 1.01818 -0.26623
 C258 C 1.14153 0.98645 -0.24931
 C259 C 1.14335 0.95091 -0.26798
 C260 C 1.16236 0.94724 -0.30282
 C261 C 1.12103 0.99028 -0.21241
 C262 C 1.08618 0.97139 -0.20655
 C263 C 1.06716 0.97441 -0.17164
 C264 C 1.08266 0.99633 -0.14215
 C265 C 1.11717 1.01545 -0.14770
 C266 C 1.13625 1.01249 -0.18264
 C267 C 1.06325 0.99865 -0.10613
 C268 C 1.04646 0.99983 -0.07620
 H269 H 1.19170 1.03922 -0.31388
 H270 H 1.15807 1.04599 -0.25276
 H271 H 1.13043 0.92584 -0.25542
 H272 H 1.16346 0.91963 -0.31674
 H273 H 1.07346 0.95453 -0.22907
 H274 H 1.04040 0.95958 -0.16763
 H275 H 1.12944 1.03239 -0.12496
 H276 H 1.16322 1.02700 -0.18613
 C277 C 0.78507 0.96893 0.38603
 C278 C 0.80030 0.97432 0.35566
 C279 C 0.81887 0.97999 0.31949
 C280 C 0.85289 1.00063 0.31757
 C281 C 0.87176 1.00485 0.28268
 C282 C 0.85683 0.98843 0.24922
 C283 C 0.82237 0.96810 0.25140
 C284 C 0.80357 0.96389 0.28632
 C285 C 0.87749 0.99179 0.21239
 C286 C 0.85741 0.99809 0.17808
 C287 C 0.87691 1.00042 0.14335
 C288 C 0.91665 0.99648 0.14248
 C289 C 0.93690 0.99041 0.17642
 C290 C 0.91749 0.98809 0.21116
 C291 C 0.93669 0.99806 0.10677
 C292 C 0.95386 0.99898 0.07706
 H293 H 0.86497 1.01322 0.34307
 H294 H 0.89795 1.02108 0.28184
 H295 H 0.81042 0.95470 0.22627
 H296 H 0.77735 0.94768 0.28753
 H297 H 0.82669 1.00149 0.17815
 H298 H 0.86100 1.00518 0.11720
 H299 H 0.96767 0.98717 0.17599
 H300 H 0.93370 0.98268 0.23697
 C301 C 0.78277 1.02646 -0.38475
 C302 C 0.79771 1.02135 -0.35412
 C303 C 0.81589 1.01626 -0.31758
 C304 C 0.84224 0.98656 -0.31198
 C305 C 0.86102 0.98266 -0.27691
 C306 C 0.85368 1.00848 -0.24699
 C307 C 0.82683 1.03799 -0.25282
 C308 C 0.80811 1.04184 -0.28789
 C309 C 0.87452 1.00525 -0.21015
 C310 C 0.85559 1.01182 -0.17533
 C311 C 0.87554 1.00994 -0.14077
 C312 C 0.91460 1.00146 -0.14058
 C313 C 0.93364 0.99455 -0.17498
 C314 C 0.91376 0.99639 -0.20957
 C315 C 0.93534 1.00058 -0.10517
 C316 C 0.95298 1.00014 -0.07567
 H317 H 0.84848 0.96660 -0.33479
 H318 H 0.88118 0.95938 -0.27315
 H319 H 0.82094 1.05864 -0.23056
 H320 H 0.78793 1.06507 -0.29200
 H321 H 0.82533 1.01822 -0.17480
 H322 H 0.86056 1.01527 -0.11424
 H323 H 0.96394 0.98811 -0.17511
 H324 H 0.92925 0.99172 -0.23589
 C325 C 1.38473 1.21531 0.02862
 C326 C 1.35422 1.20038 0.02359
 C327 C 1.31779 1.18231 0.01860
 C328 C 1.28617 1.19522 0.03936
 C329 C 1.25109 1.17677 0.03585
 C330 C 1.24718 1.14507 0.01151
 C331 C 1.27903 1.13258 -0.00960
 C332 C 1.31412 1.15108 -0.00601
 C333 C 1.21024 1.12466 0.00878
 C334 C 1.19672 1.11144 -0.02666
 C335 C 1.16215 1.09182 -0.02899
 C336 C 1.14074 1.08515 0.00402
 C337 C 1.15389 1.09822 0.03936
 C338 C 1.18839 1.11787 0.04176
 C339 C 1.10554 1.06445 0.00189
 C340 C 1.07617 1.04686 0.00076
 H341 H 1.28869 1.21938 0.05849
 H342 H 1.22698 1.18737 0.05207
 H343 H 1.27705 1.10799 -0.02820
 H344 H 1.33848 1.14073 -0.02206
 H345 H 1.21269 1.11659 -0.05258
 H346 H 1.15217 1.08180 -0.05649
 H347 H 1.13758 1.09301 0.06511
 H348 H 1.19830 1.12716 0.06951
 C349 C 0.61160 1.21242 -0.02912
 C350 C 0.64185 1.19669 -0.02379
 C351 C 0.67791 1.17756 -0.01823
 C352 C 0.68144 1.13857 -0.02635
 C353 C 0.71665 1.12007 -0.02211
 C354 C 0.74890 1.14038 -0.00971
 C355 C 0.74500 1.17955 -0.00135
 C356 C 0.70972 1.19799 -0.00559
 C357 C 0.78651 1.12088 -0.00615
 C358 C 0.82008 1.13919 -0.01817
 C359 C 0.85533 1.12040 -0.01580
 C360 C 0.85749 1.08316 -0.00134
 C361 C 0.82436 1.06480 0.01097
 C362 C 0.78908 1.08352 0.00862
 C363 C 0.89351 1.06339 -0.00001
 C364 C 0.92344 1.04635 0.00067
 H365 H 0.65704 1.12253 -0.03634
 H366 H 0.71882 1.09005 -0.02930
 H367 H 0.76917 1.19585 0.00870
 H368 H 0.70730 1.22819 0.00080
 H369 H 0.81899 1.16771 -0.03015
 H370 H 0.88083 1.13476 -0.02559
 H371 H 0.82576 1.03595 0.02221
 H372 H 0.76384 1.06884 0.01854
 C373 C 1.38750 0.78478 -0.02943
 C374 C 1.35715 0.80030 -0.02419
 C375 C 1.32105 0.81930 -0.01866
 C376 C 1.31896 0.85922 -0.01970
 C377 C 1.28381 0.87780 -0.01552
 C378 C 1.25019 0.85665 -0.01027
 C379 C 1.25263 0.81651 -0.00898
 C380 C 1.28785 0.79798 -0.01316
 C381 C 1.21273 0.87643 -0.00686
 C382 C 1.18023 0.86183 -0.02530
 C383 C 1.14524 0.88109 -0.02304
 C384 C 1.14227 0.91510 -0.00228
 C385 C 1.17429 0.92968 0.01646
 C386 C 1.20931 0.91048 0.01423
 C387 C 1.10661 0.93552 -0.00095
 C388 C 1.07692 0.95297 -0.00019
 H389 H 1.34447 0.87599 -0.02415
 H390 H 1.28282 0.90869 -0.01720
 H391 H 1.22734 0.79946 -0.00453
 H392 H 1.28915 0.76704 -0.01229
 H393 H 1.18205 0.83598 -0.04216
 H394 H 1.12063 0.86968 -0.03779
 H395 H 1.17224 0.95599 0.03263
 H396 H 1.23366 0.92218 0.02914
 C397 C 0.61415 0.78720 0.02797
 C398 C 0.64415 0.80303 0.02267
 C399 C 0.67989 0.82230 0.01730
 C400 C 0.71121 0.80280 0.00180
 C401 C 0.74626 0.82129 -0.00215
 C402 C 0.75042 0.85955 0.00940
 C403 C 0.71865 0.87896 0.02467
 C404 C 0.68366 0.86043 0.02860
 C405 C 0.78783 0.87899 0.00620
 C406 C 0.78977 0.91747 -0.00535
 C407 C 0.82490 0.93606 -0.00731
 C408 C 0.85851 0.91646 0.00220
 C409 C 0.85697 0.87812 0.01343
 C410 C 0.82186 0.85946 0.01540
 C411 C 0.89441 0.93601 0.00123
 C412 C 0.92418 0.95294 0.00072
 H413 H 0.70860 0.77328 -0.00704
 H414 H 0.77005 0.80573 -0.01442
 H415 H 0.72105 0.90822 0.03434
 H416 H 0.65965 0.87572 0.04084
 H417 H 0.76415 0.93314 -0.01307
 H418 H 0.82583 0.96575 -0.01607
 H419 H 0.88285 0.86277 0.02103
 H420 H 0.82127 0.83001 0.02490
 C421 C 0.88469 0.53075 0.28246
 C422 C 0.85409 0.52611 0.29742
 C423 C 0.81761 0.52153 0.31562
 C424 C 0.79486 0.55365 0.32307
 C425 C 0.75975 0.54957 0.34145
 C426 C 0.74688 0.51324 0.35266
 C427 C 0.76989 0.48107 0.34488
 C428 C 0.80503 0.48522 0.32646
 C429 C 0.70991 0.50910 0.37291
 C430 C 0.70647 0.48370 0.40390
 C431 C 0.67199 0.48072 0.42370
 C432 C 0.64054 0.50300 0.41274
 C433 C 0.64353 0.52807 0.38175
 C434 C 0.67796 0.53110 0.36192
 C435 C 0.60553 0.50098 0.43391
 C436 C 0.57630 0.49995 0.45187
 H437 H 0.80441 0.58191 0.31496
 H438 H 0.74300 0.57494 0.34753
 H439 H 0.76058 0.45269 0.35276
 H440 H 0.82241 0.46016 0.32080
 H441 H 0.73066 0.46677 0.41338
 H442 H 0.66999 0.46138 0.44780
 H443 H 0.61931 0.54545 0.37307
 H444 H 0.67955 0.55054 0.33790
 C445 C 0.11396 0.47117 0.28554
 C446 C 0.14452 0.47642 0.30041
 C447 C 0.18100 0.48181 0.31846
 C448 C 0.18552 0.51000 0.34638
 C449 C 0.22062 0.51424 0.36490
 C450 C 0.25167 0.49027 0.35571
 C451 C 0.24691 0.46228 0.32733
 C452 C 0.21180 0.45809 0.30888
 C453 C 0.28862 0.49388 0.37617
 C454 C 0.32339 0.49030 0.35638
 C455 C 0.35812 0.49272 0.37590
 C456 C 0.35853 0.49876 0.41537
 C457 C 0.32415 0.50257 0.43530
 C458 C 0.28940 0.50019 0.41585
 C459 C 0.39415 0.50019 0.43564
 C460 C 0.42382 0.50087 0.45295
 H461 H 0.16186 0.52854 0.35401
 H462 H 0.22352 0.53635 0.38628
 H463 H 0.27009 0.44306 0.31999
 H464 H 0.20855 0.43603 0.28746
 H465 H 0.32373 0.48585 0.32580
 H466 H 0.38462 0.48973 0.36024
 H467 H 0.32420 0.50702 0.46592
 H468 H 0.26315 0.50250 0.43197
 C469 C 0.88642 0.47181 0.71590
 C470 C 0.85646 0.47654 0.69956
 C471 C 0.82081 0.48119 0.67962
 C472 C 0.81776 0.46966 0.64151
 C473 C 0.78289 0.47288 0.62233
 C474 C 0.75054 0.48769 0.64106
 C475 C 0.75398 0.49955 0.67929
 C476 C 0.78890 0.49626 0.69844
 C477 C 0.71330 0.49026 0.62091
 C478 C 0.68938 0.52235 0.62565
 C479 C 0.65436 0.52466 0.60656
 C480 C 0.64282 0.49493 0.58259
 C481 C 0.66634 0.46287 0.57775
 C482 C 0.70135 0.46051 0.59677
 C483 C 0.60699 0.49724 0.56273
 C484 C 0.57718 0.49865 0.54568
 H485 H 0.84229 0.45798 0.62667
 H486 H 0.78130 0.46401 0.59277
 H487 H 0.72949 0.51063 0.69461
 H488 H 0.79091 0.50510 0.72801
 H489 H 0.69799 0.54589 0.64368
 H490 H 0.63637 0.54965 0.61038
 H491 H 0.65759 0.43966 0.55932
 H492 H 0.71885 0.43520 0.59296
 C493 C 0.11572 0.52881 0.71630
 C494 C 0.14579 0.52354 0.70042
 C495 C 0.18156 0.51814 0.68100
 C496 C 0.18354 0.52312 0.64140
 C497 C 0.21844 0.51923 0.62251
 C498 C 0.25190 0.51032 0.64302
 C499 C 0.24955 0.50506 0.68280
 C500 C 0.21459 0.50897 0.70164
 C501 C 0.28913 0.50718 0.62302
 C502 C 0.32237 0.52248 0.63943
 C503 C 0.35721 0.52041 0.62013
 C504 C 0.35928 0.50300 0.58426
 C505 C 0.32648 0.48746 0.56779
 C506 C 0.29161 0.48950 0.58702
 C507 C 0.39486 0.50173 0.56399
 C508 C 0.42444 0.50096 0.54661
 H509 H 0.15817 0.53044 0.62517
 H510 H 0.21938 0.52398 0.59197
 H511 H 0.27471 0.49773 0.69931
 H512 H 0.21336 0.50505 0.73231
 H513 H 0.32129 0.53674 0.66683
 H514 H 0.38245 0.53269 0.63301
 H515 H 0.32782 0.47390 0.54002
 H516 H 0.26664 0.47705 0.57385
 C517 C 0.53194 0.71834 0.11488
 C518 C 0.52759 0.70294 0.14536
 C519 C 0.52336 0.68417 0.18168
 C520 C 0.55505 0.66693 0.19907
 C521 C 0.55119 0.64837 0.23419
 C522 C 0.51548 0.64679 0.25244
 C523 C 0.48376 0.66427 0.23475
 C524 C 0.48771 0.68286 0.19960
 C525 C 0.51140 0.62665 0.28955
 C526 C 0.47947 0.60353 0.29675
 C527 C 0.47623 0.58373 0.33129
 C528 C 0.50476 0.58688 0.35906
 C529 C 0.53644 0.61006 0.35236
 C530 C 0.53975 0.62985 0.31785
 C531 C 0.50213 0.56564 0.39408
 C532 C 0.50070 0.54765 0.42334
 H533 H 0.58275 0.66765 0.18537
 H534 H 0.57601 0.63471 0.24677
 H535 H 0.45601 0.66391 0.24829
 H536 H 0.46300 0.69618 0.18641
 H537 H 0.45743 0.60010 0.27535
 H538 H 0.45169 0.56568 0.33618
 H539 H 0.55867 0.61267 0.37373
 H540 H 0.56440 0.64782 0.31338
 C541 C 0.47169 0.71537 0.88525
 C542 C 0.47675 0.69933 0.85523
 C543 C 0.48204 0.67976 0.81950
 C544 C 0.49945 0.69827 0.78872
 C545 C 0.50374 0.67940 0.75379
 C546 C 0.49064 0.64174 0.74924
 C547 C 0.47337 0.62334 0.78045
 C548 C 0.46910 0.64225 0.81531
 C549 C 0.49441 0.62186 0.71199
 C550 C 0.50442 0.58287 0.71056
 C551 C 0.50683 0.56389 0.67555
 C552 C 0.49931 0.58360 0.64156
 C553 C 0.48967 0.62243 0.64259
 C554 C 0.48727 0.64149 0.67757
 C555 C 0.50051 0.56367 0.60575
 C556 C 0.50103 0.54656 0.57598
 H557 H 0.50960 0.72729 0.79168
 H558 H 0.51755 0.69416 0.73044
 H559 H 0.46250 0.59458 0.77770
 H560 H 0.45540 0.62772 0.83890
 H561 H 0.51056 0.56710 0.73649
 H562 H 0.51435 0.53381 0.67502
 H563 H 0.48361 0.63787 0.61641
 H564 H 0.47902 0.67136 0.67776
 C565 C 0.46863 0.28402 0.11401
 C566 C 0.47326 0.30019 0.14401
 C567 C 0.47780 0.31996 0.17970
 C568 C 0.50128 0.30477 0.20838
 C569 C 0.50492 0.32374 0.24331
 C570 C 0.48502 0.35814 0.25001
 C571 C 0.46168 0.37326 0.22088
 C572 C 0.45811 0.35427 0.18600
 C573 C 0.48829 0.37807 0.28726
 C574 C 0.45592 0.39476 0.30435
 C575 C 0.45897 0.41379 0.33925
 C576 C 0.49436 0.41639 0.35755
 C577 C 0.52672 0.39980 0.34092
 C578 C 0.52374 0.38071 0.30600
 C579 C 0.49732 0.43648 0.39316
 C580 C 0.49907 0.45368 0.42283
 H581 H 0.51653 0.27814 0.20384
 H582 H 0.52275 0.31116 0.26532
 H583 H 0.44644 0.39995 0.22494
 H584 H 0.43991 0.36631 0.16397
 H585 H 0.42815 0.39276 0.29093
 H586 H 0.43373 0.42649 0.35196
 H587 H 0.55427 0.40179 0.35484
 H588 H 0.54923 0.36855 0.29335
 C589 C 0.52820 0.28250 0.88488
 C590 C 0.52336 0.29855 0.85477
 C591 C 0.51833 0.31819 0.81896
 C592 C 0.50421 0.29877 0.78709
 C593 C 0.50028 0.31774 0.75210
 C594 C 0.51045 0.35644 0.74859
 C595 C 0.52441 0.37574 0.78089
 C596 C 0.52833 0.35672 0.81580
 C597 C 0.50707 0.37651 0.71133
 C598 C 0.49396 0.41457 0.70961
 C599 C 0.49179 0.43379 0.67466
 C600 C 0.50267 0.41526 0.64099
 C601 C 0.51544 0.37732 0.64230
 C602 C 0.51760 0.35802 0.67723
 C603 C 0.50152 0.43550 0.60529
 C604 C 0.50091 0.45290 0.57563
 H605 H 0.49636 0.26894 0.78923
 H606 H 0.48904 0.30224 0.72788
 H607 H 0.53300 0.40535 0.77899
 H608 H 0.53947 0.37197 0.84026
 H609 H 0.48518 0.42942 0.73528
 H610 H 0.48181 0.46316 0.67391
 H611 H 0.52408 0.36279 0.61638
 H612 H 0.52827 0.32892 0.67766
 C613 C 0.71819 0.88381 0.47185
 C614 C 0.70310 0.85335 0.47688
 C615 C 0.68472 0.81705 0.48201
 C616 C 0.65000 0.81492 0.50156
 C617 C 0.63132 0.77991 0.50514
 C618 C 0.64713 0.74654 0.48910
 C619 C 0.68227 0.74892 0.46986
 C620 C 0.70090 0.78396 0.46634
 C621 C 0.62668 0.70958 0.49175
 C622 C 0.62533 0.68478 0.46018
 C623 C 0.60546 0.65035 0.46238
 C624 C 0.58673 0.64023 0.49613
 C625 C 0.58803 0.66455 0.52776
 C626 C 0.60787 0.69903 0.52562
 C627 C 0.56567 0.60519 0.49798
 C628 C 0.54783 0.57594 0.49902
 H629 H 0.63711 0.84041 0.51360
 H630 H 0.60409 0.77910 0.51968
 H631 H 0.69540 0.72367 0.45765
 H632 H 0.72777 0.78529 0.45114
 H633 H 0.63903 0.69233 0.43355
 H634 H 0.60444 0.63177 0.43767
 H635 H 0.57362 0.65692 0.55402
 H636 H 0.60876 0.71729 0.55053
 C637 C 0.71655 0.11320 0.52961
 C638 C 0.70153 0.14381 0.52419
 C639 C 0.68323 0.18031 0.51853
 C640 C 0.65429 0.18444 0.49125
 C641 C 0.63550 0.21954 0.48683
 C642 C 0.64545 0.25099 0.50970
 C643 C 0.67488 0.24663 0.53677
 C644 C 0.69359 0.21151 0.54115
 C645 C 0.62467 0.28793 0.50600
 C646 C 0.64437 0.32280 0.50807
 C647 C 0.62458 0.35753 0.50564
 C648 C 0.58491 0.35785 0.50112
 C649 C 0.56507 0.32336 0.49875
 C650 C 0.58480 0.28861 0.50114
 C651 C 0.56440 0.39349 0.49976
 C652 C 0.54695 0.42321 0.49910
 H653 H 0.64605 0.16046 0.47359
 H654 H 0.61329 0.22213 0.46544
 H655 H 0.68284 0.27013 0.55515
 H656 H 0.71582 0.20856 0.56251
 H657 H 0.67509 0.32320 0.51135
 H658 H 0.64017 0.38411 0.50745
 H659 H 0.53433 0.32334 0.49543
 H660 H 0.56876 0.26229 0.50000
 C661 C 0.28452 0.88750 0.52805
 C662 C 0.30024 0.85722 0.52276
 C663 C 0.31931 0.82112 0.51728
 C664 C 0.35911 0.81966 0.51431
 C665 C 0.37785 0.78451 0.51044
 C666 C 0.35700 0.75028 0.50956
 C667 C 0.31695 0.75208 0.51222
 C668 C 0.29827 0.78729 0.51606
 C669 C 0.37701 0.71286 0.50661
 C670 C 0.36494 0.68142 0.52852
 C671 C 0.38436 0.64647 0.52645
 C672 C 0.41601 0.64246 0.50245
 C673 C 0.42809 0.67343 0.48035
 C674 C 0.40874 0.70842 0.48239
 C675 C 0.43651 0.60681 0.50106
 C676 C 0.45395 0.57709 0.50021
 H677 H 0.37569 0.84567 0.51543
 H678 H 0.40871 0.78405 0.50898
 H679 H 0.30008 0.72629 0.51115
 H680 H 0.26744 0.78810 0.51834
 H681 H 0.34098 0.68407 0.54783
 H682 H 0.37490 0.62269 0.54382
 H683 H 0.45256 0.67057 0.46166
 H684 H 0.41843 0.73192 0.46483
 C685 C 0.28239 0.11692 0.47125
 C686 C 0.29729 0.14744 0.47637
 C687 C 0.31543 0.18386 0.48142
 C688 C 0.33788 0.19078 0.51372
 C689 C 0.35663 0.22571 0.51778
 C690 C 0.35313 0.25418 0.48952
 C691 C 0.33019 0.24704 0.45734
 C692 C 0.31151 0.21211 0.45334
 C693 C 0.37394 0.29084 0.49311
 C694 C 0.35648 0.32553 0.48222
 C695 C 0.37655 0.35985 0.48444
 C696 C 0.41426 0.35996 0.49757
 C697 C 0.43178 0.32572 0.50882
 C698 C 0.41177 0.29136 0.50664
 C699 C 0.43527 0.39506 0.49871
 C700 C 0.45309 0.42433 0.49926
 H701 H 0.34111 0.16909 0.53563
 H702 H 0.37371 0.23053 0.54308
 H703 H 0.32736 0.26813 0.43484
 H704 H 0.29437 0.20695 0.42811
 H705 H 0.32726 0.32612 0.47214
 H706 H 0.36273 0.38626 0.47572
 H707 H 0.46103 0.32552 0.51889
 H708 H 0.42618 0.26511 0.51473
   
