data_POSCAR
  _audit_creation_date              2014-09-24
  _audit_creation_method            'ToBaCCo'
  _symmetry_space_group_name_H-M    'P1'
  _symmetry_Int_Tables_number       1
  _symmetry_cell_setting            triclinic
  loop_
  _symmetry_equiv_pos_as_xyz
 x,y,z
_cell_length_a 46.4656
_cell_length_b 46.3195
_cell_length_c 46.4568
_cell_angle_alpha 89.909400
_cell_angle_beta 89.999000
_cell_angle_gamma 90.087200
loop_
  _atom_site_label
  _atom_site_type_symbol
  _atom_site_fract_x
  _atom_site_fract_y
  _atom_site_fract_z
N1 N 0.59107 0.67076 0.61323
 N2 N 0.57974 0.65889 0.63636
 C3 C 0.55642 0.67421 0.64432
 C4 C 0.55317 0.69669 0.62511
 C5 C 0.57538 0.69398 0.60566
 H6 H 0.54283 0.66948 0.66263
 H7 H 0.57978 0.70782 0.58741
 Cu8 Cu 0.59686 0.62468 0.65371
 Cu9 Cu 0.62524 0.65526 0.59460
 Cu10 Cu 0.65567 0.59409 0.62516
 N11 N 0.61391 0.59023 0.67068
 N12 N 0.63702 0.57842 0.65937
 C13 C 0.64454 0.55514 0.67506
 C14 C 0.62507 0.55239 0.69727
 C15 C 0.60590 0.57485 0.69403
 H16 H 0.66275 0.54133 0.67064
 H17 H 0.58760 0.57960 0.70762
 N18 N 0.67144 0.61307 0.59052
 N19 N 0.65985 0.63637 0.57889
 C20 C 0.67537 0.64407 0.55559
 C21 C 0.69762 0.62471 0.55259
 C22 C 0.69465 0.60536 0.57492
 H23 H 0.67089 0.66234 0.54178
 H24 H 0.70838 0.58707 0.57938
 H25 H 0.61931 0.61314 0.60782
 H26 H 0.64260 0.63640 0.63093
 N27 N 0.90954 0.32831 0.11309
 N28 N 0.92088 0.34022 0.13617
 C29 C 0.94415 0.32488 0.14426
 C30 C 0.94734 0.30241 0.12514
 C31 C 0.92520 0.30507 0.10562
 H32 H 0.95768 0.32963 0.16260
 H33 H 0.92088 0.29127 0.08735
 Cu34 Cu 0.90383 0.37446 0.15325
 Cu35 Cu 0.87541 0.34383 0.09438
 Cu36 Cu 0.84495 0.40500 0.12487
 N37 N 0.88677 0.40871 0.17031
 N38 N 0.86361 0.42052 0.15905
 C39 C 0.85610 0.44370 0.17479
 C40 C 0.87555 0.44638 0.19700
 C41 C 0.89474 0.42396 0.19368
 H42 H 0.83794 0.45761 0.17036
 H43 H 0.91302 0.41917 0.20727
 N44 N 0.82925 0.38608 0.09024
 N45 N 0.84084 0.36280 0.07864
 C46 C 0.82528 0.35510 0.05540
 C47 C 0.80301 0.37443 0.05243
 C48 C 0.80600 0.39377 0.07469
 H49 H 0.82972 0.33683 0.04165
 H50 H 0.79223 0.41203 0.07915
 H51 H 0.88124 0.38608 0.10733
 H52 H 0.85808 0.36279 0.13057
 N53 N 0.40874 0.17121 -0.11300
 N54 N 0.42006 0.15938 -0.13610
 C55 C 0.44340 0.17472 -0.14407
 C56 C 0.44666 0.19715 -0.12490
 C57 C 0.42444 0.19444 -0.10548
 H58 H 0.45704 0.16999 -0.16232
 H59 H 0.42003 0.20830 -0.08729
 Cu60 Cu 0.40320 0.12498 -0.15312
 Cu61 Cu 0.37458 0.15568 -0.09432
 Cu62 Cu 0.34404 0.09454 -0.12475
 N63 N 0.38582 0.09088 -0.17023
 N64 N 0.36268 0.07903 -0.15891
 C65 C 0.35511 0.05581 -0.17460
 C66 C 0.37460 0.05310 -0.19678
 C67 C 0.39379 0.07556 -0.19353
 H68 H 0.33684 0.04199 -0.17023
 H69 H 0.41213 0.08027 -0.20709
 N70 N 0.32835 0.11344 -0.09017
 N71 N 0.33999 0.13674 -0.07859
 C72 C 0.32441 0.14451 -0.05541
 C73 C 0.30207 0.12520 -0.05245
 C74 C 0.30504 0.10580 -0.07466
 H75 H 0.32887 0.16283 -0.04171
 H76 H 0.29119 0.08756 -0.07914
 H77 H 0.38040 0.11347 -0.10728
 H78 H 0.35736 0.13673 -0.13064
 N79 N 0.09048 0.82860 0.38691
 N80 N 0.07920 0.84047 0.36377
 C81 C 0.05582 0.82518 0.35577
 C82 C 0.05255 0.80265 0.37494
 C83 C 0.07477 0.80530 0.39441
 H84 H 0.04225 0.83001 0.33748
 H85 H 0.07923 0.79137 0.41258
 Cu86 Cu 0.09627 0.87486 0.34672
 Cu87 Cu 0.12472 0.84421 0.40553
 Cu88 Cu 0.15519 0.90561 0.37510
 N89 N 0.11334 0.90923 0.32968
 N90 N 0.13642 0.92116 0.34101
 C91 C 0.14387 0.94448 0.32534
 C92 C 0.12436 0.94719 0.30320
 C93 C 0.10525 0.92464 0.30643
 H94 H 0.16212 0.95834 0.32966
 H95 H 0.08694 0.91989 0.29287
 N96 N 0.17096 0.88659 0.40964
 N97 N 0.15938 0.86322 0.42124
 C98 C 0.17497 0.85553 0.44448
 C99 C 0.19722 0.87496 0.44746
 C100 C 0.19419 0.89435 0.42519
 H101 H 0.17054 0.83721 0.45825
 H102 H 0.20791 0.91270 0.42074
 H103 H 0.11907 0.88655 0.39241
 H104 H 0.14230 0.86344 0.36920
 C105 C 0.11183 0.15014 0.11308
 C106 C 0.13647 0.13780 0.10075
 C107 C 0.14856 0.11350 0.11290
 C108 C 0.13625 0.10113 0.13757
 C109 C 0.11205 0.11325 0.14968
 C110 C 0.09973 0.13796 0.13733
 C111 C 0.09544 0.17375 0.10590
 N112 N 0.07349 0.17639 0.12521
 C113 C 0.07619 0.15435 0.14452
 C114 C 0.10488 0.09681 0.17327
 N115 N 0.12416 0.07480 0.17596
 C116 C 0.14343 0.07751 0.15397
 C117 C 0.17211 0.10630 0.09655
 N118 N 0.17482 0.12563 0.07454
 C119 C 0.15288 0.14499 0.07717
 H120 H 0.09958 0.18779 0.08777
 H121 H 0.06225 0.15015 0.16266
 H122 H 0.08677 0.10095 0.18724
 H123 H 0.16153 0.06352 0.14981
 H124 H 0.18604 0.08813 0.10075
 H125 H 0.14877 0.16315 0.06316
 C126 C 0.38757 0.85053 0.61314
 C127 C 0.36292 0.86289 0.60080
 C128 C 0.35080 0.88716 0.61292
 C129 C 0.36312 0.89949 0.63759
 C130 C 0.38734 0.88735 0.64971
 C131 C 0.39967 0.86266 0.63738
 C132 C 0.40397 0.82693 0.60598
 N133 N 0.42594 0.82424 0.62528
 C134 C 0.42324 0.84624 0.64457
 C135 C 0.39450 0.90377 0.67329
 N136 N 0.37522 0.92578 0.67596
 C137 C 0.35594 0.92310 0.65398
 C138 C 0.32725 0.89437 0.59653
 N139 N 0.32456 0.87507 0.57454
 C140 C 0.34652 0.85573 0.57722
 H141 H 0.39983 0.81293 0.58786
 H142 H 0.43719 0.85039 0.66269
 H143 H 0.41261 0.89962 0.68726
 H144 H 0.33784 0.93709 0.64981
 H145 H 0.31329 0.91252 0.60068
 H146 H 0.35066 0.83760 0.56324
 C147 C 0.88796 0.64950 0.38672
 C148 C 0.86328 0.63709 0.39905
 C149 C 0.85119 0.61275 0.38697
 C150 C 0.86355 0.60039 0.36235
 C151 C 0.88779 0.61258 0.35023
 C152 C 0.90011 0.63735 0.36252
 C153 C 0.90436 0.67318 0.39385
 N154 N 0.92636 0.67590 0.37458
 C155 C 0.92369 0.65384 0.35534
 C156 C 0.89498 0.59612 0.32671
 N157 N 0.87570 0.57404 0.32405
 C158 C 0.85639 0.57673 0.34600
 C159 C 0.82760 0.60552 0.40335
 N160 N 0.82487 0.62487 0.42528
 C161 C 0.84684 0.64426 0.42258
 H162 H 0.90019 0.68721 0.41192
 H163 H 0.93768 0.64970 0.33725
 H164 H 0.91311 0.60029 0.31275
 H165 H 0.83828 0.56268 0.35017
 H166 H 0.81364 0.58732 0.39922
 H167 H 0.85095 0.66244 0.43652
 C168 C 0.61270 0.35059 -0.11324
 C169 C 0.63739 0.36291 -0.10096
 C170 C 0.64956 0.38722 -0.11309
 C171 C 0.63722 0.39965 -0.13775
 C172 C 0.61294 0.38752 -0.14982
 C173 C 0.60058 0.36279 -0.13746
 C174 C 0.59629 0.32696 -0.10602
 N175 N 0.57429 0.32431 -0.12527
 C176 C 0.57698 0.34637 -0.14458
 C177 C 0.60574 0.40398 -0.17339
 N178 N 0.62505 0.42603 -0.17615
 C179 C 0.64439 0.42331 -0.15420
 C180 C 0.67316 0.39433 -0.09669
 N181 N 0.67579 0.37491 -0.07473
 C182 C 0.65376 0.35562 -0.07741
 H183 H 0.60045 0.31292 -0.08791
 H184 H 0.56299 0.35054 -0.16267
 H185 H 0.58759 0.39983 -0.18731
 H186 H 0.66252 0.43733 -0.15011
 H187 H 0.68719 0.41248 -0.10081
 H188 H 0.64955 0.33742 -0.06346
 C189 C 0.00852 0.24171 0.12542
 C190 C 0.02971 0.24167 0.10410
 C191 C 0.05095 0.22034 0.10397
 C192 C -0.03182 0.28187 0.12535
 C193 C 0.02975 0.19892 0.14659
 C194 C 0.00856 0.22029 0.14662
 C195 C -0.01339 0.26360 0.12543
 C196 C 0.05141 0.19853 0.12526
 H197 H 0.02983 0.25814 0.08751
 H198 H 0.06685 0.22124 0.08707
 H199 H 0.02885 0.18286 0.16341
 H200 H -0.00784 0.22008 0.16321
 C201 C 0.49097 0.75886 0.62544
 C202 C 0.46975 0.75898 0.60415
 C203 C 0.44850 0.78032 0.60404
 C204 C 0.53123 0.71852 0.62533
 C205 C 0.46973 0.80161 0.64663
 C206 C 0.49093 0.78022 0.64665
 C207 C 0.51287 0.73689 0.62543
 C208 C 0.44804 0.80208 0.62531
 H209 H 0.46960 0.74256 0.58756
 H210 H 0.43260 0.77948 0.58714
 H211 H 0.47063 0.81762 0.66344
 H212 H 0.50733 0.78038 0.66324
 C213 C 0.99143 0.74150 0.37442
 C214 C 0.97013 0.74136 0.39565
 C215 C 0.94887 0.71996 0.39576
 C216 C 1.03175 0.78194 0.37464
 C217 C 0.97020 0.69863 0.35327
 C218 C 0.99141 0.72009 0.35326
 C219 C 1.01336 0.76353 0.37447
 C220 C 0.94846 0.69815 0.37454
 H221 H 0.96995 0.75781 0.41220
 H222 H 0.93292 0.72080 0.41262
 H223 H 0.97114 0.68259 0.33649
 H224 H 1.00785 0.71993 0.33671
 C225 C 0.50915 0.25897 -0.12523
 C226 C 0.50920 0.28035 -0.14645
 C227 C 0.53045 0.30172 -0.14650
 C228 C 0.46869 0.21886 -0.12507
 C229 C 0.55174 0.28031 -0.10395
 C230 C 0.53044 0.25898 -0.10400
 C231 C 0.48716 0.23712 -0.12515
 C232 C 0.55218 0.30213 -0.12524
 H233 H 0.49276 0.28054 -0.16300
 H234 H 0.52953 0.31778 -0.16332
 H235 H 0.56768 0.27942 -0.08709
 H236 H 0.53057 0.24250 -0.08742
 C237 C 0.12405 0.00933 0.24096
 C238 C 0.14533 0.00948 0.21973
 C239 C 0.14542 0.03086 0.19848
 C240 C 0.12412 -0.03102 0.28123
 C241 C 0.10288 0.05213 0.21978
 C242 C 0.10288 0.03070 0.24098
 C243 C 0.12405 -0.01266 0.26284
 C244 C 0.12416 0.05262 0.19806
 H245 H 0.16190 -0.00695 0.21957
 H246 H 0.16229 0.03004 0.18255
 H247 H 0.08607 0.06815 0.22070
 H248 H 0.08633 0.03083 0.25741
 C249 C 0.62481 0.49150 -0.24133
 C250 C 0.64613 0.49141 -0.22012
 C251 C 0.64627 0.47004 -0.19882
 C252 C 0.62489 0.53176 -0.28184
 C253 C 0.60363 0.44869 -0.21993
 C254 C 0.60359 0.47010 -0.24118
 C255 C 0.62482 0.51343 -0.26336
 C256 C 0.62499 0.44823 -0.19828
 H257 H 0.66273 0.50786 -0.22004
 H258 H 0.66320 0.47090 -0.18294
 H259 H 0.58680 0.43264 -0.22078
 H260 H 0.58697 0.46991 -0.25754
 C261 C 0.37521 0.99107 0.74102
 C262 C 0.35399 0.99098 0.71973
 C263 C 0.35394 0.96968 0.69846
 C264 C 0.37489 1.03130 0.78131
 C265 C 0.39650 0.94839 0.71978
 C266 C 0.39645 0.96975 0.74100
 C267 C 0.37509 1.01297 0.76294
 C268 C 0.37522 0.94793 0.69805
 H269 H 0.33741 1.00741 0.71956
 H270 H 0.33708 0.97054 0.68252
 H271 H 0.41333 0.93240 0.72070
 H272 H 0.41300 0.96960 0.75743
 C273 C 0.87592 0.50852 0.25918
 C274 C 0.85461 0.50861 0.28039
 C275 C 0.85447 0.53000 0.30159
 C276 C 0.87582 0.46817 0.21896
 C277 C 0.89706 0.55138 0.28033
 C278 C 0.89710 0.52995 0.25918
 C279 C 0.87593 0.48653 0.23731
 C280 C 0.87574 0.55183 0.30201
 H281 H 0.83803 0.49213 0.28056
 H282 H 0.83757 0.52913 0.31749
 H283 H 0.91387 0.56745 0.27940
 H284 H 0.91369 0.53014 0.24279
 C285 C 0.23994 0.12548 0.00950
 C286 C 0.23983 0.10421 0.03083
 C287 C 0.21858 0.10422 0.05211
 C288 C 0.28018 0.12530 -0.03068
 C289 C 0.19743 0.14692 0.03070
 C290 C 0.21873 0.14682 0.00947
 C291 C 0.26182 0.12539 -0.01237
 C292 C 0.19693 0.12559 0.05247
 H293 H 0.25619 0.08757 0.03104
 H294 H 0.21942 0.08733 0.06810
 H295 H 0.18153 0.16384 0.02977
 H296 H 0.21864 0.16342 -0.00699
 C297 C 0.75964 0.62477 0.49036
 C298 C 0.75974 0.60346 0.46912
 C299 C 0.78101 0.60344 0.44783
 C300 C 0.71943 0.62471 0.53067
 C301 C 0.80223 0.64620 0.46902
 C302 C 0.78091 0.64612 0.49026
 C303 C 0.73775 0.62472 0.51229
 C304 C 0.80272 0.62484 0.44736
 H305 H 0.74335 0.58680 0.46899
 H306 H 0.78016 0.58653 0.43192
 H307 H 0.81816 0.66314 0.46989
 H308 H 0.78104 0.66276 0.50663
 C309 C 0.74091 0.37455 -0.00961
 C310 C 0.71956 0.35330 -0.00969
 C311 C 0.69826 0.35336 -0.03094
 C312 C 0.78114 0.37443 0.03060
 C313 C 0.71967 0.39609 -0.05215
 C314 C 0.74092 0.39592 -0.03086
 C315 C 0.76280 0.37446 0.01228
 C316 C 0.69789 0.37479 -0.05262
 H317 H 0.71935 0.33662 0.00670
 H318 H 0.68225 0.33649 -0.03006
 H319 H 0.72061 0.41304 -0.06807
 H320 H 0.75738 0.41252 -0.03098
 C321 C 0.25941 0.87511 0.50944
 C322 C 0.28069 0.85385 0.50948
 C323 C 0.30200 0.85379 0.53071
 C324 C 0.21909 0.87501 0.46929
 C325 C 0.28077 0.89644 0.55199
 C326 C 0.25950 0.89639 0.53071
 C327 C 0.23746 0.87507 0.48760
 C328 C 0.30246 0.87510 0.55243
 H329 H 0.28083 0.83725 0.49307
 H330 H 0.31794 0.83691 0.52982
 H331 H 0.27990 0.91332 0.56794
 H332 H 0.24310 0.91300 0.53087
   
