data_POSCAR
  _audit_creation_date              2014-09-24
  _audit_creation_method            'ToBaCCo'
  _symmetry_space_group_name_H-M    'P1'
  _symmetry_Int_Tables_number       1
  _symmetry_cell_setting            triclinic
  loop_
  _symmetry_equiv_pos_as_xyz
 x,y,z
_cell_length_a 28.9692
_cell_length_b 28.9692
_cell_length_c 28.9691
_cell_angle_alpha 95.484700
_cell_angle_beta 84.515000
_cell_angle_gamma 95.483600
loop_
  _atom_site_label
  _atom_site_type_symbol
  _atom_site_fract_x
  _atom_site_fract_y
  _atom_site_fract_z
O1 O 0.55635 0.50986 0.04247
 O2 O 0.42985 0.50320 0.03336
 O3 O 0.48931 0.44346 0.04344
 O4 O 0.49691 0.56959 0.03237
 O5 O 0.50879 0.55647 -0.04413
 O6 O 0.50118 0.43035 -0.03306
 O7 O 0.44173 0.49010 -0.04312
 O8 O 0.56823 0.49675 -0.03401
 Cu9 Cu 0.49192 0.50784 0.04563
 Cu10 Cu 0.50617 0.49210 -0.04630
 C11 C 0.58363 0.50423 0.00582
 C12 C 0.41444 0.49575 -0.00647
 C13 C 0.49419 0.41563 0.00709
 C14 C 0.50392 0.58430 -0.00779
 O15 O -0.04262 0.55816 0.50993
 O16 O -0.03351 0.43166 0.50327
 O17 O -0.03251 0.49871 0.56966
 O18 O -0.04358 0.49111 0.44353
 O19 O 0.03292 0.50298 0.43042
 O20 O 0.04399 0.51059 0.55654
 O21 O 0.04298 0.44353 0.49016
 O22 O 0.03386 0.57004 0.49682
 Cu23 Cu -0.04577 0.49373 0.50791
 Cu24 Cu 0.04615 0.50797 0.49217
 C25 C -0.00597 0.58545 0.50429
 C26 C 0.00632 0.41626 0.49581
 C27 C 0.00765 0.50570 0.58437
 C28 C -0.00723 0.49597 0.41570
 O29 O 0.50338 0.03341 0.56991
 O30 O 0.51004 0.04252 0.44341
 O31 O 0.44365 0.04348 0.51046
 O32 O 0.56979 0.03241 0.50285
 O33 O 0.55667 -0.04408 0.49098
 O34 O 0.43054 -0.03301 0.49858
 O35 O 0.49693 -0.03396 0.43153
 O36 O 0.49027 -0.04307 0.55804
 Cu37 Cu 0.50803 0.04567 0.50785
 Cu38 Cu 0.49229 -0.04625 0.49360
 C39 C 0.49590 -0.00642 0.58532
 C40 C 0.50439 0.00587 0.41614
 C41 C 0.41583 0.00714 0.50558
 C42 C 0.58450 -0.00774 0.49585
 C43 C 0.49812 -0.04358 -0.10175
 C44 C 0.50021 -0.08949 -0.09165
 C45 C 0.50205 -0.10045 -0.04598
 C46 C 0.50185 -0.06481 -0.00908
 C47 C 0.49971 -0.01805 -0.01888
 C48 C 0.49783 -0.00734 -0.06542
 C49 C 0.49571 0.03924 -0.07434
 C50 C 0.49543 0.07465 -0.03826
 C51 C 0.49727 0.06480 0.00812
 C52 C 0.49944 0.01804 0.01791
 C53 C 0.50370 -0.07465 0.03729
 C54 C 0.50347 -0.03925 0.07337
 C55 C 0.50136 0.00734 0.06445
 C56 C 0.50110 0.04358 0.10077
 C57 C 0.49894 0.08948 0.09068
 C58 C 0.49702 0.10043 0.04502
 H59 H 0.49423 0.04874 -0.10939
 H60 H 0.49375 0.10990 -0.04706
 H61 H 0.50536 -0.10991 0.04610
 H62 H 0.50496 -0.04874 0.10841
 H63 H 0.50039 -0.11711 -0.11975
 H64 H 0.49876 0.11709 0.11878
 C65 C 0.04586 0.50290 0.89951
 C66 C 0.09152 0.50099 0.91047
 C67 C 0.10161 0.49884 0.95636
 C68 C 0.06529 0.49857 0.99261
 C69 C 0.01875 0.50048 0.98190
 C70 C 0.00896 0.50265 0.93515
 C71 C -0.03741 0.50450 0.92530
 C72 C -0.07350 0.50422 0.96070
 C73 C -0.06458 0.50210 1.00728
 C74 C -0.01804 0.50022 1.01800
 C75 C 0.07421 0.49646 1.03919
 C76 C 0.03813 0.49623 1.07460
 C77 C -0.00824 0.49808 1.06475
 C78 C -0.04514 0.49787 1.10039
 C79 C -0.09081 0.49972 1.08943
 C80 C -0.10091 0.50181 1.04352
 H81 H -0.04622 0.50618 0.89005
 H82 H -0.10855 0.50570 0.95121
 H83 H 0.10925 0.49497 1.04868
 H84 H 0.04693 0.49456 1.10985
 H85 H 0.11962 0.50118 0.88284
 H86 H -0.11891 0.49954 1.11705
 C87 C -0.04340 -0.10170 0.50187
 C88 C -0.08931 -0.09160 0.49977
 C89 C -0.10027 -0.04594 0.49791
 C90 C -0.06463 -0.00904 0.49813
 C91 C -0.01787 -0.01884 0.50027
 C92 C -0.00716 -0.06537 0.50216
 C93 C 0.03942 -0.07430 0.50428
 C94 C 0.07482 -0.03821 0.50455
 C95 C 0.06498 0.00816 0.50271
 C96 C 0.01822 0.01796 0.50054
 C97 C -0.07448 0.03733 0.49628
 C98 C -0.03907 0.07342 0.49652
 C99 C 0.00751 0.06449 0.49863
 C100 C 0.04376 0.10082 0.49889
 C101 C 0.08965 0.09072 0.50105
 C102 C 0.10061 0.04506 0.50295
 H103 H 0.04892 -0.10934 0.50576
 H104 H 0.11008 -0.04701 0.50623
 H105 H -0.10973 0.04614 0.49461
 H106 H -0.04856 0.10846 0.49503
 H107 H -0.11693 -0.11970 0.49959
 H108 H 0.11727 0.11882 0.50122
 C109 C -0.36722 0.50563 1.00961
 C110 C -0.32605 0.50616 1.01320
 C111 C -0.27800 0.50612 1.01797
 C112 C -0.23715 0.50563 1.02264
 C113 C -0.18953 0.50461 1.02892
 C114 C -0.14909 0.50346 1.03505
 C115 C 0.36794 0.49449 0.98995
 C116 C 0.32676 0.49401 0.98641
 C117 C 0.27870 0.49413 0.98172
 C118 C 0.23784 0.49471 0.97711
 C119 C 0.19023 0.49584 0.97090
 C120 C 0.14978 0.49709 0.96481
 C121 C -0.00956 -0.36805 0.50560
 C122 C -0.01313 -0.32686 0.50616
 C123 C -0.01788 -0.27880 0.50615
 C124 C -0.02254 -0.23795 0.50567
 C125 C -0.02880 -0.19033 0.50467
 C126 C -0.03493 -0.14988 0.50352
 C127 C 0.01010 0.36711 0.49446
 C128 C 0.01366 0.32594 0.49401
 C129 C 0.01838 0.27789 0.49416
 C130 C 0.02299 0.23704 0.49475
 C131 C 0.02921 0.18943 0.49589
 C132 C 0.03530 0.14899 0.49715
 C133 C 0.49457 -0.00999 -0.36817
 C134 C 0.49399 -0.01352 -0.32697
 C135 C 0.49396 -0.01821 -0.27890
 C136 C 0.49441 -0.02282 -0.23803
 C137 C 0.49538 -0.02902 -0.19039
 C138 C 0.49650 -0.03512 -0.14993
 C139 C 0.50571 0.00967 0.36699
 C140 C 0.50613 0.01327 0.32583
 C141 C 0.50595 0.01805 0.27780
 C142 C 0.50533 0.02272 0.23696
 C143 C 0.50416 0.02899 0.18936
 C144 C 0.50287 0.03512 0.14894
 C145 C 0.50564 -0.36669 -0.01229
 C146 C 0.50637 -0.32562 -0.01636
 C147 C 0.50650 -0.27767 -0.02153
 C148 C 0.50607 -0.23687 -0.02636
 C149 C 0.50506 -0.18928 -0.03255
 C150 C 0.50384 -0.14878 -0.03833
 C151 C 0.49255 0.36663 0.01158
 C152 C 0.49193 0.32556 0.01563
 C153 C 0.49197 0.27761 0.02075
 C154 C 0.49254 0.23682 0.02552
 C155 C 0.49373 0.18923 0.03166
 C156 C 0.49509 0.14875 0.03740
 C157 C -0.36650 -0.01224 0.49415
 C158 C -0.32542 -0.01632 0.49344
 C159 C -0.27748 -0.02149 0.49335
 C160 C -0.23668 -0.02632 0.49380
 C161 C -0.18909 -0.03251 0.49486
 C162 C -0.14860 -0.03829 0.49610
 C163 C 0.36682 0.01163 0.50724
 C164 C 0.32575 0.01567 0.50788
 C165 C 0.27780 0.02079 0.50788
 C166 C 0.23701 0.02556 0.50734
 C167 C 0.18942 0.03169 0.50618
 C168 C 0.14893 0.03744 0.50485
 C169 C -0.01172 0.49425 1.36669
 C170 C -0.01575 0.49352 1.32561
 C171 C -0.02087 0.49340 1.27765
 C172 C -0.02564 0.49383 1.23684
 C173 C -0.03176 0.49485 1.18923
 C174 C -0.03751 0.49608 1.14872
 C175 C 0.01216 0.50734 0.63337
 C176 C 0.01624 0.50796 0.67443
 C177 C 0.02142 0.50793 0.72237
 C178 C 0.02625 0.50736 0.76315
 C179 C 0.03245 0.50618 0.81072
 C180 C 0.03822 0.50482 0.85120
   
