data_POSCAR
  _audit_creation_date              2014-09-24
  _audit_creation_method            'ToBaCCo'
  _symmetry_space_group_name_H-M    'P1'
  _symmetry_Int_Tables_number       1
  _symmetry_cell_setting            triclinic
  loop_
  _symmetry_equiv_pos_as_xyz
 x,y,z
_cell_length_a 26.1209
_cell_length_b 26.1199
_cell_length_c 26.0546
_cell_angle_alpha 90.080300
_cell_angle_beta 90.096100
_cell_angle_gamma 89.999000
loop_
  _atom_site_label
  _atom_site_type_symbol
  _atom_site_fract_x
  _atom_site_fract_y
  _atom_site_fract_z
O1 O 0.57230 0.12835 0.00622
 O2 O 0.62952 0.06186 0.00284
 C3 C 0.61859 0.11025 0.00584
 O4 O 0.42825 -0.00464 0.12938
 O5 O 0.37151 -0.00038 0.06229
 C6 C 0.38210 -0.00379 0.11086
 O7 O 0.57098 0.00305 0.13070
 O8 O 0.62891 -0.00045 0.06506
 C9 C 0.61770 0.00203 0.11363
 O10 O 0.42951 0.12856 -0.00320
 O11 O 0.37214 0.06220 0.00009
 C12 C 0.38318 0.11056 -0.00295
 Zr13 Zr 0.50085 0.09084 0.00160
 O14 O 0.49429 0.14766 0.05928
 O15 O 0.50751 0.14843 -0.05511
 Zr16 Zr 0.49995 -0.00040 0.09238
 O17 O 0.49340 0.05684 0.14964
 O18 O 0.50553 -0.05731 0.14992
 O19 O 0.54635 0.05234 0.05474
 O20 O 0.45560 0.05197 0.05332
 O21 O 0.43022 0.00416 -0.12842
 O22 O 0.37252 0.00016 -0.06235
 C23 C 0.38379 0.00344 -0.11072
 O24 O 0.57207 -0.12887 -0.00262
 O25 O 0.62940 -0.06256 0.00210
 C26 C 0.61839 -0.11090 -0.00141
 O27 O 0.42927 -0.12881 0.00412
 O28 O 0.37203 -0.06242 -0.00019
 C29 C 0.38298 -0.11079 0.00305
 O30 O 0.57301 -0.00421 -0.12711
 O31 O 0.62987 -0.00038 -0.06006
 C32 C 0.61919 -0.00360 -0.10864
 Zr33 Zr 0.50140 0.00012 -0.09006
 O34 O 0.49558 -0.05651 -0.14800
 O35 O 0.50817 0.05767 -0.14681
 Zr36 Zr 0.50066 -0.09121 0.00080
 O37 O 0.49485 -0.14812 -0.05690
 O38 O 0.50636 -0.14874 0.05771
 Zr39 Zr 0.57777 -0.00029 0.00196
 Zr40 Zr 0.42370 -0.00012 0.00045
 O41 O 0.45637 -0.05223 -0.05182
 O42 O 0.54700 -0.05280 -0.05146
 O43 O 0.45525 0.05276 -0.05187
 O44 O 0.54493 -0.05262 0.05377
 O45 O 0.54592 0.05213 -0.05050
 O46 O 0.45433 -0.05303 0.05337
 H47 H 0.43251 0.07330 0.07460
 H48 H 0.56758 -0.07414 0.07535
 H49 H 0.43362 -0.07355 -0.07356
 H50 H 0.56903 0.07350 -0.07167
 H51 H 0.47758 -0.08218 0.14402
 H52 H 0.47794 -0.14350 0.08220
 H53 H 0.52381 -0.14328 -0.08081
 H54 H 0.52334 -0.08159 -0.14219
 H55 H 0.47918 0.08162 -0.14238
 H56 H 0.47974 0.14298 -0.08037
 H57 H 0.52288 0.14270 0.08370
 H58 H 0.52237 0.08082 0.14527
 O59 O -0.00394 0.57239 -0.12916
 O60 O 0.00046 0.62904 -0.06199
 C61 C -0.00303 0.61853 -0.11057
 O62 O -0.12793 0.42846 0.00282
 O63 O -0.06169 0.37109 -0.00211
 C64 C -0.11000 0.38213 0.00161
 O65 O -0.12781 0.57126 -0.00386
 O66 O -0.06136 0.62846 0.00041
 C67 C -0.10975 0.61754 -0.00275
 O68 O 0.00377 0.42965 -0.13066
 O69 O 0.00028 0.37163 -0.06509
 C70 C 0.00277 0.38291 -0.11364
 Zr71 Zr 0.00033 0.50062 -0.09226
 O72 O -0.05682 0.49511 -0.14974
 O73 O 0.05732 0.50724 -0.14957
 Zr74 Zr -0.09025 0.49983 -0.00073
 O75 O -0.14774 0.49419 -0.05786
 O76 O -0.14720 0.50563 0.05675
 O77 O -0.05219 0.54621 -0.05323
 O78 O -0.05181 0.45559 -0.05371
 O79 O 0.12928 0.42813 -0.00623
 O80 O 0.06280 0.37091 -0.00281
 C81 C 0.11118 0.38184 -0.00590
 O82 O 0.00517 0.57009 0.12863
 O83 O 0.00131 0.62786 0.06258
 C84 C 0.00442 0.61654 0.11097
 O85 O -0.00326 0.42731 0.12716
 O86 O 0.00066 0.37051 0.06009
 C87 C -0.00272 0.38115 0.10866
 O88 O 0.12954 0.57092 0.00321
 O89 O 0.06317 0.62830 0.00017
 C90 C 0.11154 0.61726 0.00299
 Zr91 Zr 0.09180 0.49957 -0.00141
 O92 O 0.14931 0.49284 0.05555
 O93 O 0.14867 0.50613 -0.05886
 Zr94 Zr 0.00136 0.49895 0.09018
 O95 O 0.05941 0.49207 0.14660
 O96 O -0.05473 0.50468 0.14847
 Zr97 Zr 0.00087 0.57673 -0.00025
 Zr98 Zr 0.00063 0.42266 -0.00190
 O99 O 0.05321 0.45440 0.05062
 O100 O 0.05389 0.54515 0.05207
 O101 O 0.05314 0.45415 -0.05462
 O102 O -0.05111 0.54400 0.05197
 O103 O 0.05281 0.54487 -0.05312
 O104 O -0.05171 0.45344 0.05151
 H105 H -0.07339 0.43294 -0.07530
 H106 H -0.07240 0.56668 0.07372
 H107 H 0.07459 0.43121 0.07175
 H108 H 0.07409 0.56796 -0.07441
 H109 H -0.14214 0.47688 0.08088
 H110 H -0.08041 0.47757 0.14216
 H111 H 0.08283 0.52156 0.14267
 H112 H 0.14415 0.52090 0.08053
 H113 H 0.14337 0.47787 -0.08360
 H114 H 0.08143 0.47838 -0.14513
 H115 H -0.08157 0.52316 -0.14389
 H116 H -0.14279 0.52291 -0.08204
 O117 O 0.12789 -0.00265 0.42800
 O118 O 0.06116 0.00020 0.37077
 C119 C 0.10960 -0.00259 0.38165
 O120 O -0.00276 -0.12710 0.57254
 O121 O 0.00113 -0.06028 0.62956
 C122 C -0.00200 -0.10874 0.61883
 O123 O 0.00452 -0.12841 0.42951
 O124 O -0.00037 -0.06263 0.37155
 C125 C 0.00331 -0.11086 0.38294
 O126 O 0.12879 0.00685 0.57099
 O127 O 0.06280 0.00300 0.62878
 C128 C 0.11108 0.00631 0.61751
 Zr129 Zr 0.09068 0.00207 0.49964
 O130 O 0.14905 -0.05381 0.50597
 O131 O 0.14666 0.06028 0.49266
 Zr132 Zr 0.00088 -0.09009 0.50078
 O133 O 0.05922 -0.14603 0.50727
 O134 O -0.05502 -0.14856 0.49532
 O135 O 0.05276 -0.05159 0.45417
 O136 O 0.05286 -0.05025 0.54509
 O137 O 0.00184 0.13024 0.57048
 O138 O -0.00013 0.06451 0.62862
 C139 C 0.00170 0.11284 0.61712
 O140 O -0.12945 0.00190 0.42927
 O141 O -0.06362 -0.00105 0.37131
 C142 C -0.11197 0.00103 0.38268
 O143 O -0.12834 -0.00425 0.57241
 O144 O -0.06165 0.00123 0.62948
 C145 C -0.11003 -0.00283 0.61874
 O146 O -0.00660 0.12873 0.42736
 O147 O -0.00215 0.06182 0.37046
 C148 C -0.00583 0.11024 0.38108
 Zr149 Zr -0.00141 0.09187 0.49925
 O150 O -0.05873 0.14891 0.50499
 O151 O 0.05545 0.14924 0.49242
 Zr152 Zr -0.09129 -0.00020 0.50060
 O153 O -0.14872 0.05674 0.50653
 O154 O -0.14830 -0.05761 0.49534
 Zr155 Zr -0.00087 0.00013 0.42279
 Zr156 Zr 0.00021 0.00164 0.57735
 O157 O -0.05286 0.05290 0.54474
 O158 O -0.05403 0.05250 0.45382
 O159 O 0.05205 0.05475 0.54548
 O160 O -0.05218 -0.05241 0.45600
 O161 O 0.05096 0.05330 0.45445
 O162 O -0.05204 -0.05203 0.54680
 H163 H 0.07459 -0.07121 0.56812
 H164 H -0.07348 -0.07438 0.43345
 H165 H -0.07445 0.07420 0.56758
 H166 H 0.07191 0.07467 0.43114
 H167 H -0.08020 -0.14281 0.52303
 H168 H -0.14226 -0.08223 0.52350
 H169 H -0.14499 0.07996 0.47683
 H170 H -0.08413 0.14231 0.47759
 H171 H 0.07929 0.14538 0.52169
 H172 H 0.14187 0.08439 0.52156
 H173 H 0.14323 -0.07949 0.47866
 H174 H 0.08252 -0.14182 0.47768
 C175 C -0.26227 0.22288 0.00974
 C176 C -0.31220 0.23597 0.02460
 C177 C -0.35030 0.19849 0.02406
 C178 C -0.33920 0.14800 0.00862
 C179 C -0.28861 0.13506 -0.00527
 C180 C -0.24994 0.17263 -0.00503
 C181 C -0.22243 0.26289 0.00885
 C182 C -0.17249 0.25039 -0.00669
 C183 C -0.13505 0.28917 -0.00841
 C184 C -0.14783 0.34001 0.00482
 C185 C -0.19806 0.35131 0.02085
 C186 C -0.23538 0.31312 0.02289
 C187 C -0.19943 0.16138 -0.01996
 C188 C -0.16139 0.19957 -0.02075
 C189 C -0.32340 0.28652 0.03905
 C190 C -0.28560 0.32448 0.03821
 H191 H -0.18930 0.12282 -0.03149
 H192 H -0.12307 0.18929 -0.03285
 H193 H -0.36183 0.29693 0.05068
 H194 H -0.29589 0.36315 0.04924
 H195 H -0.38884 0.20892 0.03537
 H196 H -0.27966 0.09634 -0.01730
 H197 H -0.09653 0.28002 -0.02084
 H198 H -0.20837 0.39005 0.03170
 C199 C 0.26391 0.77649 0.00821
 C200 C 0.25147 0.82652 -0.00713
 C201 C 0.29015 0.86409 -0.00806
 C202 C 0.34085 0.85135 0.00574
 C203 C 0.35208 0.80104 0.02161
 C204 C 0.31399 0.76359 0.02285
 C205 C 0.22403 0.73652 0.00827
 C206 C 0.23708 0.68651 0.02293
 C207 C 0.19970 0.64832 0.02174
 C208 C 0.14933 0.65943 0.00593
 C209 C 0.13644 0.71007 -0.00785
 C210 C 0.17392 0.74882 -0.00701
 C211 C 0.32532 0.71328 0.03791
 C212 C 0.28747 0.67535 0.03795
 C213 C 0.20080 0.83756 -0.02180
 C214 C 0.16271 0.79940 -0.02174
 H215 H 0.36387 0.70303 0.04938
 H216 H 0.29786 0.63686 0.04944
 H217 H 0.19057 0.87593 -0.03378
 H218 H 0.12427 0.80951 -0.03369
 H219 H 0.28107 0.90266 -0.02039
 H220 H 0.39070 0.79076 0.03288
 H221 H 0.21007 0.60972 0.03296
 H222 H 0.09781 0.71903 -0.02017
 C223 C 0.26383 0.22288 -0.01002
 C224 C 0.25148 0.17291 0.00554
 C225 C 0.29027 0.13550 0.00705
 C226 C 0.34102 0.14832 -0.00634
 C227 C 0.35219 0.19855 -0.02243
 C228 C 0.31395 0.23585 -0.02429
 C229 C 0.22381 0.26271 -0.01062
 C230 C 0.23676 0.31267 -0.02546
 C231 C 0.19928 0.35077 -0.02463
 C232 C 0.14893 0.33964 -0.00892
 C233 C 0.13611 0.28902 0.00495
 C234 C 0.17369 0.25035 0.00443
 C235 C 0.32517 0.28611 -0.03960
 C236 C 0.28718 0.32390 -0.04018
 C237 C 0.20078 0.16178 0.01989
 C238 C 0.16258 0.19982 0.01936
 H239 H 0.36374 0.29643 -0.05081
 H240 H 0.29749 0.36236 -0.05180
 H241 H 0.19063 0.12345 0.03203
 H242 H 0.12413 0.18966 0.03111
 H243 H 0.28125 0.09698 0.01955
 H244 H 0.39086 0.20886 -0.03338
 H245 H 0.20960 0.38934 -0.03593
 H246 H 0.09751 0.28004 0.01718
 C247 C -0.26240 0.77655 -0.00694
 C248 C -0.25002 0.82659 0.00852
 C249 C -0.28876 0.86409 0.00959
 C250 C -0.33946 0.85128 -0.00420
 C251 C -0.35064 0.80095 -0.02018
 C252 C -0.31248 0.76358 -0.02156
 C253 C -0.22244 0.73666 -0.00717
 C254 C -0.23542 0.68666 -0.02201
 C255 C -0.19797 0.64856 -0.02104
 C256 C -0.14758 0.65971 -0.00524
 C257 C -0.13476 0.71034 0.00876
 C258 C -0.17233 0.74903 0.00810
 C259 C -0.32373 0.71325 -0.03678
 C260 C -0.28581 0.67541 -0.03701
 C261 C -0.19935 0.83773 0.02316
 C262 C -0.16119 0.79963 0.02296
 H263 H -0.36227 0.70294 -0.04824
 H264 H -0.29612 0.63691 -0.04863
 H265 H -0.18917 0.87612 0.03521
 H266 H -0.12275 0.80981 0.03487
 H267 H -0.27973 0.90268 0.02201
 H268 H -0.38926 0.79062 -0.03144
 H269 H -0.20832 0.60999 -0.03247
 H270 H -0.09612 0.71935 0.02104
 C271 C 0.00885 -0.26430 0.22408
 C272 C 0.02226 -0.31457 0.23750
 C273 C 0.02128 -0.35279 0.19998
 C274 C 0.00694 -0.34144 0.14912
 C275 C -0.00570 -0.29057 0.13594
 C276 C -0.00502 -0.25180 0.17352
 C277 C 0.00868 -0.22424 0.26402
 C278 C -0.00536 -0.17394 0.25115
 C279 C -0.00638 -0.13625 0.28982
 C280 C 0.00611 -0.14905 0.34095
 C281 C 0.02067 -0.19966 0.35265
 C282 C 0.02195 -0.23727 0.31454
 C283 C -0.01849 -0.20097 0.16191
 C284 C -0.01866 -0.16272 0.20004
 C285 C 0.03588 -0.32590 0.28836
 C286 C 0.03573 -0.28787 0.32627
 H287 H -0.02933 -0.19071 0.12310
 H288 H -0.02960 -0.12413 0.18948
 H289 H 0.04639 -0.36458 0.29904
 H290 H 0.04613 -0.29825 0.36517
 H291 H 0.03156 -0.39157 0.21063
 H292 H -0.01689 -0.28139 0.09694
 H293 H -0.01771 -0.09746 0.28036
 H294 H 0.03086 -0.21005 0.39162
 C295 C 0.00472 0.26734 0.77546
 C296 C 0.00829 0.31877 0.76069
 C297 C 0.00779 0.35693 0.79819
 C298 C 0.00390 0.34470 0.85102
 C299 C 0.00088 0.29234 0.86515
 C300 C 0.00102 0.25362 0.82739
 C301 C 0.00456 0.22719 0.73555
 C302 C 0.00049 0.17550 0.74977
 C303 C -0.00016 0.13757 0.71122
 C304 C 0.00321 0.15148 0.65895
 C305 C 0.00762 0.20365 0.64593
 C306 C 0.00820 0.24145 0.68380
 C307 C -0.00278 0.20144 0.84028
 C308 C -0.00309 0.16310 0.80218
 C309 C 0.01206 0.33141 0.70849
 C310 C 0.01207 0.29337 0.67066
 H311 H -0.00572 0.19012 0.88016
 H312 H -0.00628 0.12343 0.81386
 H313 H 0.01490 0.37109 0.69673
 H314 H 0.01492 0.30472 0.63078
 H315 H 0.01046 0.39640 0.78558
 H316 H -0.00214 0.28152 0.90520
 H317 H -0.00358 0.09761 0.72182
 H318 H 0.01043 0.21520 0.60609
 C319 C -0.01044 0.26177 0.22094
 C320 C 0.00694 0.24967 0.17137
 C321 C 0.00859 0.28840 0.13383
 C322 C -0.00643 0.33883 0.14621
 C323 C -0.02443 0.34968 0.19598
 C324 C -0.02644 0.31153 0.23337
 C325 C -0.01104 0.22192 0.26098
 C326 C -0.02761 0.23469 0.31059
 C327 C -0.02664 0.19747 0.34897
 C328 C -0.00911 0.14756 0.33849
 C329 C 0.00641 0.13485 0.28818
 C330 C 0.00580 0.17219 0.24924
 C331 C -0.04353 0.32253 0.28322
 C332 C -0.04410 0.28472 0.32122
 C333 C 0.02300 0.19933 0.16082
 C334 C 0.02245 0.16128 0.19906
 H335 H -0.05609 0.36083 0.29310
 H336 H -0.05707 0.29487 0.35938
 H337 H 0.03654 0.18935 0.12281
 H338 H 0.03560 0.12313 0.18938
 H339 H 0.02254 0.27965 0.09565
 H340 H -0.03671 0.38809 0.20590
 H341 H -0.03922 0.20763 0.38729
 H342 H 0.02005 0.09657 0.27972
 C343 C -0.00845 -0.26138 0.77782
 C344 C -0.02494 -0.31089 0.76488
 C345 C -0.02373 -0.34930 0.80204
 C346 C -0.00608 -0.33894 0.85208
 C347 C 0.00944 -0.28876 0.86496
 C348 C 0.00860 -0.24978 0.82766
 C349 C -0.00826 -0.22126 0.73806
 C350 C 0.00899 -0.17177 0.75033
 C351 C 0.01018 -0.13413 0.71166
 C352 C -0.00518 -0.14635 0.66115
 C353 C -0.02303 -0.19605 0.65015
 C354 C -0.02457 -0.23353 0.68821
 C355 C 0.02515 -0.19970 0.83875
 C356 C 0.02534 -0.16138 0.80076
 C357 C -0.04169 -0.32138 0.71476
 C358 C -0.04152 -0.28331 0.67703
 H359 H 0.03846 -0.19013 0.87698
 H360 H 0.03878 -0.12344 0.81087
 H361 H -0.05461 -0.35946 0.70447
 H362 H -0.05431 -0.29305 0.63865
 H363 H -0.03633 -0.38752 0.79175
 H364 H 0.02316 -0.28041 0.90335
 H365 H 0.02402 -0.09600 0.72052
 H366 H -0.03558 -0.20585 0.61168
 C367 C 0.26448 0.00994 0.77642
 C368 C 0.25205 -0.00486 0.82669
 C369 C 0.29088 -0.00630 0.86419
 C370 C 0.34174 0.00647 0.85120
 C371 C 0.35304 0.02170 0.80063
 C372 C 0.31474 0.02348 0.76322
 C373 C 0.22434 0.01059 0.73655
 C374 C 0.23731 0.02475 0.68629
 C375 C 0.19967 0.02407 0.64819
 C376 C 0.14913 0.00918 0.65963
 C377 C 0.13635 -0.00408 0.71052
 C378 C 0.17407 -0.00367 0.74918
 C379 C 0.32600 0.03806 0.71265
 C380 C 0.28791 0.03869 0.67480
 C381 C 0.20121 -0.01848 0.83808
 C382 C 0.16291 -0.01791 0.80000
 H383 H 0.36469 0.04869 0.70214
 H384 H 0.29824 0.04977 0.63612
 H385 H 0.19101 -0.03003 0.87666
 H386 H 0.12434 -0.02906 0.81036
 H387 H 0.28175 -0.01815 0.90297
 H388 H 0.39181 0.03212 0.79016
 H389 H 0.20999 0.03485 0.60939
 H390 H 0.09761 -0.01570 0.71975
 C391 C -0.26659 0.00363 0.22441
 C392 C -0.25293 0.00010 0.17245
 C393 C -0.29170 0.00007 0.13472
 C394 C -0.34405 0.00309 0.14892
 C395 C -0.35620 0.00681 0.20178
 C396 C -0.31801 0.00715 0.23925
 C397 C -0.22640 0.00337 0.26429
 C398 C -0.24062 0.00685 0.31606
 C399 C -0.20279 0.00629 0.35389
 C400 C -0.15061 0.00210 0.34083
 C401 C -0.13673 -0.00119 0.28854
 C402 C -0.17472 -0.00058 0.25001
 C403 C -0.33060 0.01074 0.29148
 C404 C -0.29252 0.01063 0.32927
 C405 C -0.20076 -0.00362 0.15950
 C406 C -0.16237 -0.00400 0.19756
 H407 H -0.37027 0.01353 0.30329
 H408 H -0.30384 0.01336 0.36917
 H409 H -0.18949 -0.00644 0.11959
 H410 H -0.12272 -0.00708 0.18583
 H411 H -0.28093 -0.00282 0.09464
 H412 H -0.39565 0.00946 0.21445
 H413 H -0.21435 0.00901 0.39373
 H414 H -0.09676 -0.00441 0.27790
 C415 C 0.26219 -0.00928 0.22264
 C416 C 0.25039 0.00726 0.17272
 C417 C 0.28932 0.00814 0.13539
 C418 C 0.33964 -0.00684 0.14829
 C419 C 0.35021 -0.02398 0.19843
 C420 C 0.31185 -0.02521 0.23563
 C421 C 0.22211 -0.00911 0.26244
 C422 C 0.23456 -0.02487 0.31238
 C423 C 0.19710 -0.02331 0.35047
 C424 C 0.14724 -0.00600 0.33937
 C425 C 0.13485 0.00878 0.28877
 C426 C 0.17246 0.00758 0.25010
 C427 C 0.32253 -0.04143 0.28585
 C428 C 0.28450 -0.04127 0.32361
 C429 C 0.20015 0.02326 0.16158
 C430 C 0.16187 0.02341 0.19958
 H431 H 0.36074 -0.05392 0.29617
 H432 H 0.29440 -0.05363 0.36205
 H433 H 0.19043 0.03616 0.12328
 H434 H 0.12380 0.03644 0.18944
 H435 H 0.28079 0.02146 0.09693
 H436 H 0.38854 -0.03616 0.20876
 H437 H 0.20703 -0.03538 0.38903
 H438 H 0.09660 0.02222 0.27984
 C439 C -0.26158 -0.00930 0.77883
 C440 C -0.24947 0.00742 0.82867
 C441 C -0.28814 0.00832 0.86630
 C442 C -0.33850 -0.00680 0.85374
 C443 C -0.34936 -0.02416 0.80369
 C444 C -0.31127 -0.02541 0.76620
 C445 C -0.22180 -0.00912 0.73872
 C446 C -0.23457 -0.02506 0.68886
 C447 C -0.19739 -0.02351 0.65048
 C448 C -0.14748 -0.00605 0.66122
 C449 C -0.13481 0.00895 0.71173
 C450 C -0.17212 0.00775 0.75069
 C451 C -0.32228 -0.04181 0.71607
 C452 C -0.28454 -0.04164 0.67801
 C453 C -0.19919 0.02357 0.83943
 C454 C -0.16120 0.02372 0.80113
 H455 H -0.36053 -0.05444 0.70603
 H456 H -0.29469 -0.05414 0.63964
 H457 H -0.18922 0.03660 0.87766
 H458 H -0.12309 0.03686 0.81101
 H459 H -0.27939 0.02181 0.90468
 H460 H -0.38772 -0.03649 0.79362
 H461 H -0.20756 -0.03573 0.61201
 H462 H -0.09653 0.02252 0.72041
   
