data_POSCAR
  _audit_creation_date              2014-09-24
  _audit_creation_method            'ToBaCCo'
  _symmetry_space_group_name_H-M    'P1'
  _symmetry_Int_Tables_number       1
  _symmetry_cell_setting            triclinic
  loop_
  _symmetry_equiv_pos_as_xyz
 x,y,z
_cell_length_a 31.7788
_cell_length_b 31.8974
_cell_length_c 31.7657
_cell_angle_alpha 89.870500
_cell_angle_beta 90.053500
_cell_angle_gamma 89.859800
loop_
  _atom_site_label
  _atom_site_type_symbol
  _atom_site_fract_x
  _atom_site_fract_y
  _atom_site_fract_z
C1 C 0.15528 0.18537 0.21492
 C2 C 0.15313 0.21534 0.18255
 C3 C 0.18183 0.21404 0.14982
 C4 C 0.21330 0.18324 0.14921
 C5 C 0.21568 0.15389 0.18126
 C6 C 0.18625 0.15474 0.21415
 C7 C 0.13026 0.17749 0.24942
 N8 N 0.14508 0.14265 0.26915
 C9 C 0.17941 0.12861 0.24797
 C10 C 0.24900 0.12774 0.17223
 N11 N 0.26652 0.14050 0.13543
 C12 C 0.24495 0.17439 0.12106
 C13 C 0.17158 0.24573 0.12225
 N14 N 0.13748 0.26625 0.13751
 C15 C 0.12595 0.24810 0.17439
 H16 H 0.10252 0.19492 0.25873
 H17 H 0.19753 0.10093 0.25591
 H18 H 0.25961 0.10125 0.19084
 H19 H 0.25179 0.19147 0.09241
 H20 H 0.18770 0.25325 0.09321
 H21 H 0.09948 0.25779 0.19349
 C22 C -0.14719 0.82110 0.21270
 C23 C -0.14827 0.79044 0.18107
 C24 C -0.18170 0.78929 0.15316
 C25 C -0.21441 0.81859 0.15641
 C26 C -0.21359 0.84864 0.18774
 C27 C -0.17975 0.84987 0.21612
 C28 C -0.11841 0.83026 0.24378
 N29 N -0.13285 0.86374 0.26584
 C30 C -0.17038 0.87583 0.24936
 C31 C -0.24866 0.87361 0.18239
 N32 N -0.27057 0.85914 0.14873
 C33 C -0.24977 0.82573 0.13247
 C34 C -0.17468 0.75658 0.12593
 N35 N -0.13791 0.73780 0.13673
 C36 C -0.12137 0.75825 0.17028
 H37 H -0.08927 0.81368 0.24991
 H38 H -0.18929 0.90177 0.26063
 H39 H -0.25691 0.90096 0.20076
 H40 H -0.25912 0.80861 0.10460
 H41 H -0.19497 0.74705 0.10033
 H42 H -0.09209 0.75005 0.18573
 C43 C -0.15428 0.17984 -0.21495
 C44 C -0.15447 0.21078 -0.18372
 C45 C -0.18285 0.20850 -0.15080
 C46 C -0.21166 0.17528 -0.14889
 C47 C -0.21163 0.14477 -0.17988
 C48 C -0.18254 0.14694 -0.21305
 C49 C -0.12928 0.17361 -0.24969
 N50 N -0.14168 0.13775 -0.26888
 C51 C -0.17407 0.12102 -0.24668
 C52 C -0.24323 0.11686 -0.17025
 N53 N -0.26204 0.12960 -0.13411
 C54 C -0.24306 0.16530 -0.12084
 C55 C -0.17503 0.24211 -0.12477
 N56 N -0.14279 0.26453 -0.14131
 C57 C -0.12998 0.24568 -0.17732
 H58 H -0.10333 0.19320 -0.25960
 H59 H -0.18978 0.09187 -0.25410
 H60 H -0.25217 0.08955 -0.18834
 H61 H -0.25192 0.18314 -0.09326
 H62 H -0.19116 0.24952 -0.09571
 H63 H -0.10429 0.25615 -0.19701
 C64 C 0.15215 0.81839 -0.21271
 C65 C 0.15332 0.78586 -0.18293
 C66 C 0.18482 0.78484 -0.15277
 C67 C 0.21539 0.81649 -0.15183
 C68 C 0.21388 0.84883 -0.18093
 C69 C 0.18217 0.84973 -0.21160
 C70 C 0.12548 0.82727 -0.24576
 N71 N 0.13885 0.86306 -0.26465
 C72 C 0.17323 0.87726 -0.24381
 C73 C 0.24653 0.87559 -0.17200
 N74 N 0.26780 0.86022 -0.13824
 C75 C 0.24918 0.82402 -0.12574
 C76 C 0.17748 0.75054 -0.12747
 N77 N 0.14231 0.73100 -0.14152
 C78 C 0.12731 0.75224 -0.17539
 H79 H 0.09844 0.80904 -0.25535
 H80 H 0.19059 0.90536 -0.25171
 H81 H 0.25406 0.90417 -0.18877
 H82 H 0.25916 0.80499 -0.09927
 H83 H 0.19578 0.74112 -0.10029
 H84 H 0.09908 0.74418 -0.19265
 C85 C 0.18375 1.15315 0.78796
 C86 C 0.21604 1.15440 0.81804
 C87 C 0.21521 1.18426 0.84963
 C88 C 0.18212 1.21340 0.85142
 C89 C 0.15011 1.21192 0.82188
 C90 C 0.15090 1.18161 0.79001
 C91 C 0.17610 1.12726 0.75418
 N92 N 0.13930 1.13925 0.73605
 C93 C 0.12365 1.17248 0.75765
 C94 C 0.12206 1.24339 0.83143
 N95 N 0.13637 1.26392 0.86596
 C96 C 0.17312 1.24598 0.87839
 C97 C 0.24938 1.17680 0.87529
 N98 N 0.27082 1.14343 0.85980
 C99 C 0.25070 1.12940 0.82494
 H100 H 0.19556 1.10137 0.74377
 H101 H 0.09464 1.18884 0.75044
 H102 H 0.09365 1.25102 0.81421
 H103 H 0.19187 1.25598 0.90500
 H104 H 0.25749 1.19362 0.90371
 H105 H 0.25993 1.10224 0.80674
 C106 C 0.81818 0.85072 0.78408
 C107 C 0.78818 0.85002 0.81631
 C108 C 0.78825 0.81778 0.84554
 C109 C 0.81875 0.78599 0.84310
 C110 C 0.84830 0.78659 0.81107
 C111 C 0.84790 0.81909 0.78129
 C112 C 0.82606 0.87878 0.75215
 N113 N 0.85979 0.86481 0.73008
 C114 C 0.87331 0.82828 0.74746
 C115 C 0.87477 0.75293 0.81723
 N116 N 0.86204 0.73213 0.85228
 C117 C 0.82786 0.75203 0.86834
 C118 C 0.75568 0.82540 0.87310
 N119 N 0.73632 0.86150 0.86125
 C120 C 0.75592 0.87683 0.82664
 H121 H 0.80868 0.90731 0.74571
 H122 H 0.90007 0.81019 0.73665
 H123 H 0.90185 0.74490 0.79823
 H124 H 0.81142 0.74287 0.89675
 H125 H 0.74674 0.80633 0.89985
 H126 H 0.74717 0.90522 0.81006
 C127 C 0.17714 0.84871 1.21169
 C128 C 0.20688 0.84920 1.17913
 C129 C 0.20648 0.81812 1.14877
 C130 C 0.17595 0.78650 1.15027
 C131 C 0.14659 0.78606 1.18242
 C132 C 0.14735 0.81719 1.21343
 C133 C 0.17000 0.87485 1.24535
 N134 N 0.13693 0.85957 1.26754
 C135 C 0.12267 0.82448 1.24820
 C136 C 0.12044 0.75248 1.17560
 N137 N 0.13322 0.73276 1.14007
 C138 C 0.16714 0.75315 1.12435
 C139 C 0.23930 0.82599 1.12168
 N140 N 0.25938 0.86102 1.13496
 C141 C 0.23972 0.87564 1.16983
 H142 H 0.18738 0.90296 1.25309
 H143 H 0.09602 0.80596 1.25832
 H144 H 0.09374 0.74349 1.19467
 H145 H 0.18368 0.74460 1.09583
 H146 H 0.24804 0.80757 1.09447
 H147 H 0.24910 0.90314 1.18739
 C148 C 0.82163 1.15165 1.21412
 C149 C 0.78874 1.15025 1.18475
 C150 C 0.78447 1.18189 1.15516
 C151 C 0.81335 1.21498 1.15418
 C152 C 0.84591 1.21630 1.18312
 C153 C 0.84989 1.18461 1.21350
 C154 C 0.83337 1.12532 1.24640
 N155 N 0.86766 1.14185 1.26558
 C156 C 0.87822 1.17798 1.24563
 C157 C 0.87008 1.25072 1.17354
 N158 N 0.85295 1.27005 1.13954
 C159 C 0.81819 1.24863 1.12750
 C160 C 0.75021 1.17230 1.13060
 N161 N 0.73391 1.13557 1.14447
 C162 C 0.75713 1.12175 1.17754
 H163 H 0.81789 1.09652 1.25564
 H164 H 0.90445 1.19795 1.25383
 H165 H 0.89866 1.26043 1.18927
 H166 H 0.79866 1.25620 1.10059
 H167 H 0.73825 1.19030 1.10422
 H168 H 0.75153 1.09308 1.19492
 O169 O 0.44043 1.07508 1.07410
 O170 O 0.39491 1.03618 1.03391
 C171 C 0.40295 1.06472 1.06161
 O172 O 0.56297 1.06760 0.92638
 O173 O 0.60698 1.02922 0.96902
 C174 C 0.60005 1.05601 0.93917
 O175 O 0.44460 1.07432 0.92708
 O176 O 0.39676 1.03548 0.96464
 C177 C 0.40647 1.06408 0.93739
 O178 O 0.55883 1.07002 1.07999
 O179 O 0.60495 1.02961 1.04191
 C180 C 0.59647 1.05764 1.07000
 Zr181 Zr 0.49982 1.05071 1.05544
 O182 O 0.50523 1.11685 1.05435
 O183 O 0.49389 1.05127 1.12182
 Zr184 Zr 0.50272 1.04967 0.94895
 O185 O 0.50880 1.11575 0.94875
 O186 O 0.49979 1.04927 0.88238
 O187 O 0.46396 1.05919 1.00104
 O188 O 0.53790 1.05704 1.00312
 O189 O 0.55586 0.92405 1.08257
 O190 O 0.60362 0.96057 1.04265
 C191 C 0.59398 0.93418 1.07206
 O192 O 0.44143 0.92056 0.92936
 O193 O 0.39538 0.96280 0.96545
 C194 C 0.40377 0.93309 0.93911
 O195 O 0.56027 0.92229 0.92855
 O196 O 0.60574 0.96044 0.96953
 C197 C 0.59776 0.93333 0.94042
 O198 O 0.43757 0.92226 1.07462
 O199 O 0.39339 0.96430 1.03574
 C200 C 0.40048 0.93477 1.06282
 Zr201 Zr 0.49776 0.94455 1.05657
 O202 O 0.50151 0.87827 1.05713
 O203 O 0.49102 0.94507 1.12286
 Zr204 Zr 0.50064 0.94347 0.95018
 O205 O 0.50424 0.87719 0.95098
 O206 O 0.49762 0.94325 0.88359
 Zr207 Zr 0.43784 0.99849 1.00097
 Zr208 Zr 0.56259 0.99578 1.00458
 O209 O 0.53561 0.93560 1.00451
 O210 O 0.46153 0.93667 1.00242
 O211 O 0.53598 0.99692 1.06534
 O212 O 0.46542 0.99728 0.94079
 O213 O 0.46217 0.99846 1.06264
 O214 O 0.53928 0.99569 0.94240
 H215 H 0.55747 1.08117 1.00326
 H216 H 0.44693 0.99741 0.91566
 H217 H 0.55435 0.91074 1.00534
 H218 H 0.44252 0.99904 1.08684
 H219 H 0.52265 1.03080 0.87223
 H220 H 0.52221 0.95905 0.87305
 H221 H 0.48041 0.86683 0.96804
 H222 H 0.47798 0.86756 1.03987
 H223 H 0.51389 0.96263 1.13437
 H224 H 0.51726 1.03433 1.13351
 H225 H 0.48167 1.12793 1.03723
 H226 H 0.48495 1.12733 0.96503
 O227 O 0.07364 0.55646 -0.07741
 O228 O 0.03366 0.60352 -0.04005
 C229 C 0.06238 0.59431 -0.06740
 O230 O -0.07874 0.44135 -0.07882
 O231 O -0.04153 0.39537 -0.03720
 C232 C -0.06894 0.40382 -0.06619
 O233 O -0.07311 0.55920 -0.08380
 O234 O -0.03645 0.60485 -0.04175
 C235 C -0.06241 0.59663 -0.07203
 O236 O 0.07466 0.43821 -0.07196
 O237 O 0.03089 0.39390 -0.03557
 C238 C 0.06160 0.40113 -0.06125
 Zr239 Zr 0.05120 0.49810 -0.05431
 O240 O 0.05266 0.49268 -0.12072
 O241 O 0.11770 0.50115 -0.05244
 Zr242 Zr -0.05521 0.50020 -0.05846
 O243 O -0.05292 0.49492 -0.12484
 O244 O -0.12156 0.50599 -0.06054
 O245 O -0.00101 0.53644 -0.06516
 O246 O -0.00239 0.46271 -0.06348
 O247 O 0.06878 0.44015 0.07386
 O248 O 0.02956 0.39473 0.03396
 C249 C 0.05774 0.40277 0.06220
 O250 O -0.07865 0.56147 0.07015
 O251 O -0.03755 0.60600 0.03094
 C252 C -0.06599 0.59858 0.05912
 O253 O -0.08452 0.44351 0.06815
 O254 O -0.04286 0.39641 0.03273
 C255 C -0.07290 0.40568 0.05857
 O256 O 0.06695 0.55832 0.07590
 O257 O 0.03214 0.60436 0.03233
 C258 C 0.05750 0.59585 0.06308
 Zr259 Zr 0.04714 0.49945 0.05221
 O260 O 0.04472 0.49564 0.11871
 O261 O 0.11364 0.50279 0.05439
 Zr262 Zr -0.05934 0.50171 0.04797
 O263 O -0.06241 0.49805 0.11444
 O264 O -0.12563 0.50769 0.04456
 Zr265 Zr -0.00290 0.56205 -0.00404
 Zr266 Zr -0.00519 0.43776 -0.00215
 O267 O -0.00702 0.46441 0.05836
 O268 O -0.00569 0.53798 0.05777
 O269 O 0.05671 0.46133 -0.00018
 O270 O -0.06427 0.53749 -0.00605
 O271 O 0.05751 0.53493 -0.00127
 O272 O -0.06619 0.46375 -0.00498
 H273 H -0.00183 0.44338 -0.08785
 H274 H -0.08854 0.55703 -0.00711
 H275 H -0.00810 0.44579 0.08335
 H276 H 0.08256 0.55334 -0.00059
 H277 H -0.13346 0.48244 -0.04416
 H278 H -0.13633 0.48365 0.02814
 H279 H -0.04450 0.52066 0.12583
 H280 H 0.02725 0.51930 0.12872
 H281 H 0.12481 0.47844 0.03870
 H282 H 0.12756 0.47871 -0.03326
 H283 H 0.03804 0.51746 -0.13255
 H284 H -0.03416 0.51730 -0.13536
 O285 O 1.07820 -0.07158 0.56091
 O286 O 1.03776 -0.03249 0.60613
 C287 C 1.06642 -0.06028 0.59832
 O288 O 1.07846 0.07892 0.44236
 O289 O 1.04173 0.03805 0.39568
 C290 C 1.06854 0.06721 0.40450
 O291 O 1.08010 0.07440 0.56120
 O292 O 1.03735 0.03746 0.60613
 C293 C 1.06724 0.06387 0.59856
 O294 O 1.07659 -0.07509 0.44242
 O295 O 1.04002 -0.03376 0.39564
 C296 C 1.06635 -0.06346 0.40457
 Zr297 Zr 1.05643 -0.05085 0.50123
 O298 O 1.12298 -0.05047 0.49790
 O299 O 1.05671 -0.11706 0.50580
 Zr300 Zr 1.05734 0.05532 0.50130
 O301 O 1.12386 0.05466 0.49796
 O302 O 1.05753 0.12150 0.50622
 O303 O 1.06437 0.00202 0.53896
 O304 O 1.06534 0.00219 0.46494
 O305 O 0.93041 -0.07219 0.43909
 O306 O 0.97001 -0.03207 0.39402
 C307 C 0.94235 -0.06080 0.40169
 O308 O 0.92623 0.07625 0.55784
 O309 O 0.96505 0.03709 0.60468
 C310 C 0.93641 0.06462 0.59571
 O311 O 0.93288 0.08070 0.43954
 O312 O 0.97130 0.03971 0.39423
 C313 C 0.94439 0.06914 0.40213
 O314 O 0.92539 -0.06997 0.55765
 O315 O 0.96476 -0.03170 0.60442
 C316 C 0.93592 -0.05879 0.59549
 Zr317 Zr 0.94991 -0.04968 0.49890
 O318 O 0.88352 -0.04869 0.49333
 O319 O 0.94959 -0.11595 0.50302
 Zr320 Zr 0.95099 0.05649 0.49908
 O321 O 0.88466 0.05725 0.49290
 O322 O 0.95160 0.12267 0.50400
 Zr323 Zr 1.00237 0.00258 0.56255
 Zr324 Zr 1.00494 0.00292 0.43769
 O325 O 0.94350 0.00366 0.46239
 O326 O 0.94144 0.00336 0.53625
 O327 O 1.00383 -0.05840 0.46258
 O328 O 1.00346 0.06340 0.53673
 O329 O 1.00236 -0.05804 0.53653
 O330 O 1.00501 0.06415 0.46263
 H331 H 1.09036 0.00181 0.44635
 H332 H 1.00316 0.08792 0.55583
 H333 H 0.91915 0.00418 0.44288
 H334 H 1.00179 -0.08272 0.55552
 H335 H 1.04141 0.13275 0.48204
 H336 H 0.96950 0.13354 0.48100
 H337 H 0.87303 0.03989 0.51593
 H338 H 0.87238 -0.03198 0.51705
 H339 H 0.96593 -0.12687 0.47891
 H340 H 1.03773 -0.12779 0.48365
 H341 H 1.13351 -0.03523 0.52285
 H342 H 1.13421 0.03678 0.52126
 C343 C 1.13699 0.09865 0.36592
 C344 C 1.13848 0.08015 0.32082
 C345 C 1.12646 0.12348 0.30350
 C346 C 1.12557 0.14250 0.34771
 C347 C 1.07945 0.11312 0.30536
 C348 C 1.09100 0.06948 0.32358
 C349 C 1.08981 0.08812 0.36828
 C350 C 1.07808 0.13154 0.35052
 H351 H 1.16029 0.09249 0.39127
 H352 H 1.16320 0.05880 0.30860
 H353 H 1.14017 0.17273 0.35681
 H354 H 1.05628 0.11932 0.27991
 H355 H 1.07658 0.03929 0.31399
 H356 H 1.05299 0.15225 0.36315
 C357 C 0.87601 -0.07566 0.35195
 C358 C 0.88999 -0.07001 0.30550
 C359 C 0.88681 -0.11759 0.29982
 C360 C 0.87226 -0.12368 0.34535
 C361 C 0.93307 -0.12384 0.31210
 C362 C 0.93660 -0.07579 0.31876
 C363 C 0.92237 -0.08163 0.36476
 C364 C 0.91901 -0.12934 0.35855
 H365 H 0.85294 -0.05560 0.36877
 H366 H 0.87785 -0.04602 0.28318
 H367 H 0.84557 -0.14368 0.35546
 H368 H 0.95652 -0.14359 0.29545
 H369 H 0.96319 -0.05586 0.30820
 H370 H 0.93118 -0.15335 0.38082
 C371 C 0.88283 0.12140 0.62878
 C372 C 0.85368 0.09843 0.66046
 C373 C 0.87745 0.11970 0.69651
 C374 C 0.90602 0.14326 0.66566
 C375 C 0.90862 0.08320 0.69997
 C376 C 0.88550 0.06147 0.66298
 C377 C 0.91428 0.08472 0.63176
 C378 C 0.93762 0.10626 0.66825
 H379 H 0.87248 0.13682 0.59916
 H380 H 0.81896 0.09560 0.65796
 H381 H 0.91426 0.17703 0.66683
 H382 H 0.91876 0.06799 0.72978
 H383 H 0.87737 0.02770 0.66125
 H384 H 0.97233 0.10921 0.67093
 C385 C 1.11843 -0.11759 0.63270
 C386 C 1.14584 -0.09533 0.66628
 C387 C 1.12070 -0.11798 0.70060
 C388 C 1.09382 -0.14081 0.66783
 C389 C 1.08904 -0.08188 0.70359
 C390 C 1.11360 -0.05877 0.66832
 C391 C 1.08655 -0.08126 0.63514
 C392 C 1.06174 -0.10415 0.66987
 H393 H 1.13031 -0.13198 0.60322
 H394 H 1.18060 -0.09210 0.66534
 H395 H 1.08595 -0.17469 0.66791
 H396 H 1.07740 -0.06775 0.73329
 H397 H 1.12139 -0.02486 0.66793
 H398 H 1.02697 -0.10743 0.67076
 C399 C 0.36117 1.13372 1.08730
 C400 C 0.31526 1.13066 1.07093
 C401 C 0.30083 1.12199 1.11617
 C402 C 0.34581 1.12566 1.13303
 C403 C 0.30534 1.07455 1.11025
 C404 C 0.32072 1.08274 1.06469
 C405 C 0.36619 1.08614 1.08122
 C406 C 0.35125 1.07777 1.12654
 H407 H 0.38458 1.15764 1.07763
 H408 H 0.30025 1.15229 1.04797
 H409 H 0.35526 1.14361 1.16138
 H410 H 0.28188 1.05068 1.11991
 H411 H 0.31080 1.06495 1.03638
 H412 H 0.36653 1.05578 1.14901
 C413 C 0.36311 0.90630 0.87022
 C414 C 0.34694 0.86106 0.87833
 C415 C 0.30215 0.87864 0.88096
 C416 C 0.31744 0.92338 0.87226
 C417 C 0.30575 0.88479 0.92863
 C418 C 0.35153 0.86782 0.92651
 C419 C 0.36725 0.91265 0.91805
 C420 C 0.32195 0.92985 0.92038
 H421 H 0.38716 0.91533 0.84657
 H422 H 0.35637 0.83258 0.86066
 H423 H 0.30337 0.94644 0.85012
 H424 H 0.28156 0.87572 0.95212
 H425 H 0.36600 0.84541 0.94908
 H426 H 0.31199 0.95828 0.93788
 C427 C 0.66515 0.93745 1.11704
 C428 C 0.66271 0.90563 1.15401
 C429 C 0.69454 0.87796 1.13076
 C430 C 0.69792 0.90933 1.09441
 C431 C 0.65941 0.85373 1.10851
 C432 C 0.62669 0.88199 1.13109
 C433 C 0.62964 0.91357 1.09450
 C434 C 0.66195 0.88566 1.07172
 H435 H 0.66687 0.97203 1.12032
 H436 H 0.66352 0.91350 1.18802
 H437 H 0.72774 0.92010 1.07984
 H438 H 0.65764 0.81913 1.10538
 H439 H 0.59702 0.87104 1.14584
 H440 H 0.66114 0.87777 1.03770
 C441 C 0.68317 1.06936 0.93430
 C442 C 0.69740 1.06320 0.88803
 C443 C 0.70354 1.11073 0.88457
 C444 C 0.69030 1.11729 0.93048
 C445 C 0.65841 1.11713 0.86887
 C446 C 0.65127 1.06916 0.87292
 C447 C 0.63755 1.07553 0.91891
 C448 C 0.64429 1.12316 0.91524
 H449 H 0.69295 1.04953 0.96138
 H450 H 0.71976 1.03894 0.87669
 H451 H 0.70663 1.13697 0.95415
 H452 H 0.64908 1.13709 0.84175
 H453 H 0.63476 1.04913 0.84966
 H454 H 0.62200 1.14746 0.92661
 C455 C 0.07630 0.32094 0.06622
 C456 C 0.12450 0.31644 0.07222
 C457 C 0.11658 0.30190 0.11758
 C458 C 0.06883 0.30553 0.11191
 C459 C 0.11949 0.34683 0.13416
 C460 C 0.12687 0.36218 0.08836
 C461 C 0.07898 0.36630 0.08254
 C462 C 0.07127 0.35138 0.12797
 H463 H 0.05839 0.31069 0.03804
 H464 H 0.14633 0.30183 0.04926
 H465 H 0.04547 0.28167 0.12187
 H466 H 0.13762 0.35664 0.16233
 H467 H 0.15037 0.38592 0.07845
 H468 H 0.04911 0.36621 0.15049
 C469 C -0.11377 0.36828 -0.12904
 C470 C -0.08951 0.32838 -0.14291
 C471 C -0.12386 0.30160 -0.12233
 C472 C -0.14861 0.34066 -0.10903
 C473 C -0.10007 0.30041 -0.08039
 C474 C -0.06536 0.32799 -0.10054
 C475 C -0.08977 0.36747 -0.08694
 C476 C -0.12426 0.34035 -0.06665
 H477 H -0.11920 0.39657 -0.14875
 H478 H -0.07524 0.32335 -0.17437
 H479 H -0.18305 0.34505 -0.11290
 H480 H -0.09478 0.27198 -0.06087
 H481 H -0.03093 0.32326 -0.09687
 H482 H -0.13860 0.34600 -0.03532
 C483 C 0.09628 0.67050 -0.06434
 C484 C 0.14028 0.66932 -0.08527
 C485 C 0.12223 0.69465 -0.12221
 C486 C 0.07871 0.69664 -0.10163
 C487 C 0.11072 0.65463 -0.14615
 C488 C 0.12819 0.62846 -0.10874
 C489 C 0.08447 0.63008 -0.08796
 C490 C 0.06672 0.65578 -0.12501
 H491 H 0.09002 0.67664 -0.03052
 H492 H 0.17063 0.67506 -0.06899
 H493 H 0.05888 0.72522 -0.09904
 H494 H 0.11707 0.64891 -0.18001
 H495 H 0.14821 0.60004 -0.11147
 H496 H 0.03639 0.64961 -0.14119
 C497 C -0.06589 0.65944 0.11721
 C498 C -0.07630 0.70143 0.09475
 C499 C -0.11944 0.70125 0.11620
 C500 C -0.10944 0.66016 0.13921
 C501 C -0.13941 0.67769 0.07921
 C502 C -0.09583 0.67701 0.05737
 C503 C -0.08562 0.63552 0.08010
 C504 C -0.12890 0.63579 0.10177
 H505 H -0.03565 0.65126 0.13272
 H506 H -0.05514 0.72895 0.09226
 H507 H -0.11537 0.65404 0.17309
 H508 H -0.16971 0.68527 0.06354
 H509 H -0.08999 0.68346 0.02351
 H510 H -0.15027 0.60844 0.10445
 C511 C 1.09240 0.13192 0.64087
 C512 C 1.07570 0.12821 0.68657
 C513 C 1.12096 0.12042 0.70145
 C514 C 1.13813 0.12470 0.65663
 C515 C 1.11612 0.07288 0.69677
 C516 C 1.07054 0.08024 0.68095
 C517 C 1.08735 0.08425 0.63563
 C518 C 1.13270 0.07669 0.65096
 H519 H 1.08246 0.15583 0.61741
 H520 H 1.05210 0.14924 0.70131
 H521 H 1.16613 0.14335 0.64749
 H522 H 1.12606 0.04907 0.72032
 H523 H 1.04261 0.06173 0.69062
 H524 H 1.15571 0.05526 0.63585
 C525 C 0.86664 -0.08665 0.63556
 C526 C 0.87582 -0.13202 0.65104
 C527 C 0.87819 -0.11533 0.69611
 C528 C 0.86840 -0.07048 0.68157
 C529 C 0.92566 -0.10801 0.69264
 C530 C 0.92375 -0.12412 0.64665
 C531 C 0.91427 -0.07918 0.63161
 C532 C 0.91636 -0.06284 0.67716
 H533 H 0.84281 -0.07761 0.61162
 H534 H 0.85881 -0.16072 0.64117
 H535 H 0.84573 -0.04832 0.69610
 H536 H 0.94944 -0.11706 0.71664
 H537 H 0.94678 -0.14573 0.63181
 H538 H 0.93320 -0.03417 0.68748
 C539 C 1.11577 -0.12361 0.37055
 C540 C 1.09055 -0.14415 0.33420
 C541 C 1.11946 -0.12193 0.30270
 C542 C 1.14523 -0.10204 0.33817
 C543 C 1.09013 -0.08391 0.30010
 C544 C 1.06083 -0.10557 0.33251
 C545 C 1.08622 -0.08538 0.36839
 C546 C 1.11532 -0.06355 0.33648
 H547 H 1.12603 -0.13959 0.39991
 H548 H 1.08057 -0.17745 0.33302
 H549 H 1.18011 -0.10100 0.33977
 H550 H 1.08001 -0.06814 0.27058
 H551 H 1.02599 -0.10679 0.33086
 H552 H 1.12519 -0.03021 0.33802
 C553 C 0.94777 0.10666 0.32644
 C554 C 0.91476 0.08490 0.29784
 C555 C 0.88776 0.12462 0.30011
 C556 C 0.92031 0.14695 0.32770
 C557 C 0.86400 0.10832 0.33873
 C558 C 0.89158 0.06819 0.33734
 C559 C 0.92427 0.09013 0.36541
 C560 C 0.89704 0.13003 0.36717
 H561 H 0.98241 0.10562 0.32206
 H562 H 0.92154 0.06688 0.26877
 H563 H 0.93197 0.17947 0.32360
 H564 H 0.82935 0.10935 0.34305
 H565 H 0.88018 0.03561 0.34185
 H566 H 0.89004 0.14829 0.39605
 C567 C 0.08659 0.35722 -0.12832
 C568 C 0.13298 0.34326 -0.12176
 C569 C 0.11747 0.29829 -0.11544
 C570 C 0.07156 0.31138 -0.12253
 C571 C 0.11364 0.30446 -0.06777
 C572 C 0.12852 0.35044 -0.07364
 C573 C 0.08251 0.36399 -0.08056
 C574 C 0.06737 0.31851 -0.07447
 H575 H 0.07527 0.37938 -0.15287
 H576 H 0.16018 0.35258 -0.14153
 H577 H 0.04802 0.29513 -0.14247
 H578 H 0.12494 0.28221 -0.04330
 H579 H 0.15151 0.36698 -0.05330
 H580 H 0.04029 0.30866 -0.05475
 C581 C -0.10452 0.32806 0.05856
 C582 C -0.08560 0.30467 0.09698
 C583 C -0.12894 0.30605 0.11795
 C584 C -0.14837 0.32860 0.07992
 C585 C -0.11888 0.34768 0.13961
 C586 C -0.07513 0.34710 0.11805
 C587 C -0.09426 0.37008 0.07990
 C588 C -0.13776 0.37111 0.10109
 H589 H -0.09800 0.32027 0.02517
 H590 H -0.06466 0.27679 0.09576
 H591 H -0.17862 0.32076 0.06436
 H592 H -0.12512 0.35488 0.17320
 H593 H -0.04476 0.35518 0.13330
 H594 H -0.15887 0.39885 0.10247
 C595 C -0.11892 0.65831 -0.07454
 C596 C -0.09619 0.69941 -0.08702
 C597 C -0.11839 0.69771 -0.12977
 C598 C -0.14171 0.65749 -0.11774
 C599 C -0.08202 0.67285 -0.14939
 C600 C -0.05943 0.67361 -0.10608
 C601 C -0.08243 0.63297 -0.09379
 C602 C -0.10488 0.63174 -0.13673
 H603 H -0.13373 0.65181 -0.04357
 H604 H -0.09306 0.72777 -0.06708
 H605 H -0.17575 0.65164 -0.12288
 H606 H -0.06687 0.67884 -0.18028
 H607 H -0.02550 0.67985 -0.10079
 H608 H -0.10817 0.60353 -0.15685
 C609 C 0.05505 0.67346 0.09443
 C610 C 0.07515 0.67311 0.13891
 C611 C 0.11310 0.69658 0.12077
 C612 C 0.09336 0.69779 0.07678
 C613 C 0.13610 0.65548 0.11111
 C614 C 0.09771 0.63115 0.12870
 C615 C 0.07775 0.63196 0.08456
 C616 C 0.11580 0.65583 0.06669
 H617 H 0.02167 0.68054 0.08696
 H618 H 0.05847 0.68038 0.16869
 H619 H 0.09197 0.72576 0.05597
 H620 H 0.16966 0.64894 0.11834
 H621 H 0.09925 0.60334 0.14973
 H622 H 0.13216 0.64819 0.03680
 C623 C 0.33819 1.11326 0.93927
 C624 C 0.34154 1.14657 0.90377
 C625 C 0.30696 1.12330 0.87972
 C626 C 0.30275 1.09056 0.91478
 C627 C 0.33939 1.09645 0.85632
 C628 C 0.37480 1.11917 0.88092
 C629 C 0.37098 1.08620 0.91616
 C630 C 0.33601 1.06329 0.89188
 H631 H 0.33829 1.11986 0.97357
 H632 H 0.34313 1.18103 0.90825
 H633 H 0.27258 1.07930 0.92820
 H634 H 0.33940 1.08991 0.82202
 H635 H 0.40479 1.13066 0.86727
 H636 H 0.33425 1.02883 0.88730
 C637 C 0.36400 0.87446 1.10954
 C638 C 0.33395 0.89620 1.14114
 C639 C 0.29653 0.87966 1.11572
 C640 C 0.32575 0.85738 1.08454
 C641 C 0.29524 0.91929 1.08848
 C642 C 0.33352 0.93625 1.11338
 C643 C 0.36315 0.91426 1.08210
 C644 C 0.32539 0.89751 1.05691
 H645 H 0.39265 0.85630 1.11797
 H646 H 0.33671 0.89529 1.17596
 H647 H 0.32221 0.82480 1.07291
 H648 H 0.26637 0.93719 1.08025
 H649 H 0.33727 0.96888 1.12488
 H650 H 0.32254 0.89842 1.02210
 C651 C 0.63834 1.08441 1.13878
 C652 C 0.68459 1.06914 1.13513
 C653 C 0.69784 1.11440 1.12592
 C654 C 0.65250 1.13019 1.13012
 C655 C 0.69277 1.10805 1.07841
 C656 C 0.67866 1.06244 1.08716
 C657 C 0.63288 1.07793 1.09113
 C658 C 0.64660 1.12330 1.08220
 H659 H 0.61546 1.07443 1.16319
 H660 H 0.70060 1.04700 1.15691
 H661 H 0.64266 1.15834 1.14811
 H662 H 0.71571 1.11805 1.05406
 H663 H 0.68905 1.03441 1.06926
 H664 H 0.63051 1.14518 1.06020
 C665 C 0.63946 0.90926 0.87120
 C666 C 0.68519 0.92563 0.87482
 C667 C 0.70006 0.88040 0.88197
 C668 C 0.65516 0.86359 0.87780
 C669 C 0.69564 0.88471 0.92977
 C670 C 0.67990 0.93026 0.92307
 C671 C 0.63456 0.91371 0.91914
 C672 C 0.64981 0.86841 0.92608
 H673 H 0.61589 0.91956 0.84749
 H674 H 0.70005 0.94915 0.85381
 H675 H 0.64587 0.83594 0.85881
 H676 H 0.71932 0.87439 0.95335
 H677 H 0.68969 0.95792 0.94181
 H678 H 0.63477 0.84528 0.94741
   
