data_POSCAR
  _audit_creation_date              2014-09-24
  _audit_creation_method            'ToBaCCo'
  _symmetry_space_group_name_H-M    'P1'
  _symmetry_Int_Tables_number       1
  _symmetry_cell_setting            triclinic
  loop_
  _symmetry_equiv_pos_as_xyz
 x,y,z
_cell_length_a 42.3305
_cell_length_b 42.3332
_cell_length_c 45.8315
_cell_angle_alpha 89.931900
_cell_angle_beta 90.001100
_cell_angle_gamma 89.798300
loop_
  _atom_site_label
  _atom_site_type_symbol
  _atom_site_fract_x
  _atom_site_fract_y
  _atom_site_fract_z
C1 C -0.08568 0.31955 -0.00006
 C2 C -0.06947 0.32442 0.02607
 C3 C -0.03652 0.32735 0.02600
 C4 C -0.01896 0.32322 0.00000
 C5 C -0.03592 0.31750 -0.02610
 C6 C -0.06902 0.31648 -0.02619
 C7 C 0.01665 0.32336 0.00034
 C8 C 0.03417 0.32762 -0.02567
 C9 C 0.06714 0.32497 -0.02570
 C10 C 0.08340 0.32022 0.00042
 C11 C 0.06679 0.31700 0.02653
 C12 C 0.03371 0.31778 0.02646
 H13 H -0.11124 0.31731 0.00005
 H14 H -0.02494 0.33229 0.04651
 H15 H -0.02382 0.31293 -0.04643
 H16 H 0.02262 0.33240 -0.04623
 H17 H 0.10896 0.31813 0.00032
 H18 H 0.02177 0.31311 0.04683
 C19 C 0.41467 0.82052 0.49941
 C20 C 0.43087 0.82535 0.52552
 C21 C 0.46381 0.82812 0.52549
 C22 C 0.48138 0.82395 0.49950
 C23 C 0.46440 0.81829 0.47339
 C24 C 0.43133 0.81738 0.47332
 C25 C 0.51699 0.82399 0.49985
 C26 C 0.53452 0.82819 0.47385
 C27 C 0.56750 0.82553 0.47384
 C28 C 0.58373 0.82076 0.49997
 C29 C 0.56710 0.81758 0.52607
 C30 C 0.53402 0.81841 0.52598
 H31 H 0.38914 0.81834 0.49951
 H32 H 0.47530 0.83296 0.54604
 H33 H 0.47641 0.81370 0.45304
 H34 H 0.52299 0.83296 0.45328
 H35 H 0.60929 0.81866 0.49988
 H36 H 0.52206 0.81379 0.54635
 C37 C 1.08560 0.68061 -0.00046
 C38 C 1.06940 0.67576 0.02569
 C39 C 1.03644 0.67290 0.02564
 C40 C 1.01887 0.67706 -0.00037
 C41 C 1.03582 0.68276 -0.02649
 C42 C 1.06892 0.68372 -0.02659
 C43 C 0.98327 0.67694 -0.00001
 C44 C 0.96573 0.67262 -0.02599
 C45 C 0.93276 0.67523 -0.02601
 C46 C 0.91651 0.68002 0.00010
 C47 C 0.93314 0.68331 0.02618
 C48 C 0.96623 0.68256 0.02609
 H49 H 1.11116 0.68281 -0.00037
 H50 H 1.02486 0.66798 0.04615
 H51 H 1.02371 0.68735 -0.04682
 H52 H 0.97727 0.66780 -0.04654
 H53 H 0.89096 0.68207 0.00001
 H54 H 0.97818 0.68728 0.04643
 C55 C 0.58520 0.17965 0.50011
 C56 C 0.56900 0.17481 0.52622
 C57 C 0.53606 0.17199 0.52619
 C58 C 0.51849 0.17611 0.50018
 C59 C 0.53548 0.18175 0.47406
 C60 C 0.56855 0.18273 0.47399
 C61 C 0.48289 0.17604 0.50052
 C62 C 0.46536 0.17189 0.47451
 C63 C 0.43239 0.17458 0.47448
 C64 C 0.41614 0.17931 0.50059
 C65 C 0.43275 0.18241 0.52670
 C66 C 0.46584 0.18156 0.52663
 H67 H 0.61073 0.18188 0.50021
 H68 H 0.52457 0.16716 0.54675
 H69 H 0.52349 0.18629 0.45367
 H70 H 0.47690 0.16715 0.45395
 H71 H 0.39059 0.18144 0.50049
 H72 H 0.47778 0.18614 0.54701
 C73 C 0.68085 -0.08425 0.00008
 C74 C 0.67608 -0.06797 0.02619
 C75 C 0.67313 -0.03499 0.02603
 C76 C 0.67713 -0.01751 -0.00006
 C77 C 0.68275 -0.03460 -0.02612
 C78 C 0.68379 -0.06767 -0.02608
 C79 C 0.67697 0.01810 0.00012
 C80 C 0.67280 0.03557 -0.02597
 C81 C 0.67548 0.06856 -0.02613
 C82 C 0.68014 0.08485 -0.00003
 C83 C 0.68325 0.06827 0.02613
 C84 C 0.68248 0.03520 0.02617
 H85 H 0.68311 -0.10981 0.00017
 H86 H 0.66827 -0.02334 0.04652
 H87 H 0.68722 -0.02271 -0.04655
 H88 H 0.66804 0.02393 -0.04646
 H89 H 0.68223 0.11040 -0.00012
 H90 H 0.68709 0.02331 0.04659
 C91 C 0.17897 0.41547 0.49979
 C92 C 0.17415 0.43166 0.52592
 C93 C 0.17159 0.46463 0.52594
 C94 C 0.17596 0.48222 0.49999
 C95 C 0.18159 0.46525 0.47385
 C96 C 0.18231 0.43216 0.47373
 C97 C 0.17613 0.51781 0.50040
 C98 C 0.17196 0.53546 0.47444
 C99 C 0.17481 0.56839 0.47446
 C100 C 0.17973 0.58450 0.50059
 C101 C 0.18287 0.56776 0.52667
 C102 C 0.18187 0.53469 0.52654
 H103 H 0.18100 0.38992 0.49986
 H104 H 0.16679 0.47614 0.54650
 H105 H 0.18633 0.47726 0.45353
 H106 H 0.16706 0.52403 0.45388
 H107 H 0.18197 0.61003 0.50052
 H108 H 0.18645 0.52260 0.54688
 C109 C 0.32043 1.08449 -0.00068
 C110 C 0.32515 1.06802 0.02534
 C111 C 0.32761 1.03504 0.02515
 C112 C 0.32318 1.01771 -0.00092
 C113 C 0.31762 1.03496 -0.02694
 C114 C 0.31704 1.06807 -0.02688
 C115 C 0.32281 0.98211 -0.00073
 C116 C 0.32669 0.96463 -0.02681
 C117 C 0.32360 0.93168 -0.02694
 C118 C 0.31877 0.91542 -0.00081
 C119 C 0.31592 0.93200 0.02534
 C120 C 0.31713 0.96505 0.02535
 H121 H 0.31850 1.11007 -0.00037
 H122 H 0.33239 1.02334 0.04564
 H123 H 0.31281 1.02309 -0.04731
 H124 H 0.33159 0.97626 -0.04731
 H125 H 0.31639 0.88989 -0.00087
 H126 H 0.31274 0.97698 0.04577
 C127 C 0.82035 0.58402 0.49945
 C128 C 0.82531 0.56788 0.52561
 C129 C 0.82820 0.53493 0.52570
 C130 C 0.82405 0.51731 0.49978
 C131 C 0.81828 0.53422 0.47361
 C132 C 0.81722 0.56730 0.47341
 C133 C 0.82424 0.48172 0.50027
 C134 C 0.82859 0.46411 0.47435
 C135 C 0.82603 0.43115 0.47444
 C136 C 0.82125 0.41499 0.50060
 C137 C 0.81794 0.43170 0.52664
 C138 C 0.81865 0.46478 0.52644
 H139 H 0.81807 0.60956 0.49946
 H140 H 0.83311 0.52348 0.54629
 H141 H 0.81370 0.52217 0.45330
 H142 H 0.83337 0.47558 0.45377
 H143 H 0.81921 0.38945 0.50058
 H144 H 0.81393 0.47682 0.54675
 O145 O 0.21995 0.25881 0.28464
 O146 O 0.24994 0.20212 0.23010
 O147 O 0.26268 0.21480 0.28449
 O148 O 0.20584 0.24483 0.23041
 O149 O 0.24082 0.27994 0.21537
 O150 O 0.29775 0.25002 0.26982
 O151 O 0.28500 0.23735 0.21542
 O152 O 0.25489 0.29396 0.26961
 Cu153 Cu 0.23101 0.22665 0.25890
 Cu154 Cu 0.27309 0.26892 0.24106
 C155 C 0.23276 0.28579 0.28662
 C156 C 0.27243 0.21030 0.21343
 C157 C 0.28968 0.22747 0.28648
 C158 C 0.21388 0.26704 0.21342
 O159 O 0.78006 0.74110 0.28434
 O160 O 0.75046 0.79814 0.22981
 O161 O 0.73755 0.78533 0.28418
 O162 O 0.79436 0.75524 0.23016
 O163 O 0.75923 0.72036 0.21502
 O164 O 0.70234 0.75034 0.26940
 O165 O 0.71526 0.76315 0.21503
 O166 O 0.74497 0.70618 0.26920
 Cu167 Cu 0.76921 0.77342 0.25862
 Cu168 Cu 0.72696 0.73142 0.24067
 C169 C 0.76712 0.71417 0.28626
 C170 C 0.72798 0.79013 0.21309
 C171 C 0.71048 0.77279 0.28610
 C172 C 0.78624 0.73313 0.21313
 O173 O 0.79807 0.24958 0.22986
 O174 O 0.74154 0.21980 0.28453
 O175 O 0.75531 0.20587 0.23021
 O176 O 0.78565 0.26213 0.28435
 O177 O 0.75043 0.29759 0.26995
 O178 O 0.72021 0.24125 0.21543
 O179 O 0.70640 0.25513 0.26976
 O180 O 0.76285 0.28503 0.21545
 Cu181 Cu 0.77363 0.23072 0.25870
 Cu182 Cu 0.73136 0.27326 0.24119
 C183 C 0.78986 0.27222 0.21329
 C184 C 0.71458 0.23282 0.28665
 C185 C 0.73306 0.21420 0.21333
 C186 C 0.77303 0.28923 0.28648
 O187 O 0.27947 0.75893 0.21496
 O188 O 0.24963 0.70232 0.26954
 O189 O 0.23705 0.71494 0.21506
 O190 O 0.29347 0.74499 0.26926
 O191 O 0.25819 0.78012 0.28407
 O192 O 0.20169 0.75019 0.22951
 O193 O 0.21428 0.73758 0.28400
 O194 O 0.24423 0.79411 0.22977
 Cu195 Cu 0.26852 0.72680 0.24074
 Cu196 Cu 0.22610 0.76911 0.25831
 C197 C 0.26649 0.78592 0.21286
 C198 C 0.22703 0.71054 0.28611
 C199 C 0.20998 0.72763 0.21293
 C200 C 0.28521 0.76722 0.28615
 O201 O 0.78081 0.25872 0.71625
 O202 O 0.75091 0.20204 0.77077
 O203 O 0.73832 0.21478 0.71633
 O204 O 0.79475 0.24471 0.77058
 O205 O 0.75949 0.27985 0.78542
 O206 O 0.70298 0.25003 0.73082
 O207 O 0.71558 0.23730 0.78527
 O208 O 0.74559 0.29390 0.73109
 Cu209 Cu 0.76982 0.22657 0.74202
 Cu210 Cu 0.72742 0.26888 0.75962
 C211 C 0.76785 0.28571 0.71417
 C212 C 0.72830 0.21023 0.78734
 C213 C 0.71125 0.22748 0.71423
 C214 C 0.78649 0.26692 0.78751
 O215 O 0.29699 0.75017 0.73035
 O216 O 0.24051 0.72024 0.78498
 O217 O 0.25460 0.70607 0.73076
 O218 O 0.28423 0.76296 0.78473
 O219 O 0.24877 0.79802 0.77002
 O220 O 0.21926 0.74105 0.71570
 O221 O 0.20511 0.75517 0.76993
 O222 O 0.26152 0.78522 0.71564
 Cu223 Cu 0.27259 0.73127 0.75920
 Cu224 Cu 0.23003 0.77333 0.74133
 C225 C 0.28865 0.77264 0.71365
 C226 C 0.21343 0.73305 0.78697
 C227 C 0.23235 0.71411 0.71376
 C228 C 0.27138 0.78997 0.78668
 O229 O 0.20220 0.24906 0.77022
 O230 O 0.25909 0.21920 0.71579
 O231 O 0.24515 0.20521 0.77009
 O232 O 0.21484 0.26169 0.71580
 O233 O 0.24985 0.29700 0.73033
 O234 O 0.28005 0.24044 0.78497
 O235 O 0.29403 0.25439 0.73067
 O236 O 0.23722 0.28436 0.78475
 Cu237 Cu 0.22685 0.23017 0.74150
 Cu238 Cu 0.26888 0.27254 0.75915
 C239 C 0.21024 0.27165 0.78680
 C240 C 0.28600 0.23214 0.71376
 C241 C 0.26730 0.21344 0.78704
 C242 C 0.22734 0.28877 0.71373
 O243 O 0.74089 0.78047 0.71510
 O244 O 0.79777 0.75048 0.76954
 O245 O 0.78501 0.73783 0.71517
 O246 O 0.75500 0.79447 0.76933
 O247 O 0.72000 0.75938 0.78437
 O248 O 0.74990 0.70265 0.72986
 O249 O 0.76265 0.71531 0.78424
 O250 O 0.70585 0.74542 0.73014
 Cu251 Cu 0.77313 0.76942 0.74079
 Cu252 Cu 0.73100 0.72721 0.75864
 C253 C 0.71392 0.76761 0.71315
 C254 C 0.78967 0.72794 0.78621
 C255 C 0.77240 0.71080 0.71320
 C256 C 0.73287 0.78633 0.78635
 C257 C 0.31328 0.11867 0.10075
 C258 C 0.34210 0.12683 0.11960
 C259 C 0.33483 0.14472 0.14347
 C260 C 0.29948 0.15261 0.14605
 C261 C 0.28269 0.12055 0.14552
 C262 C 0.28994 0.10270 0.12170
 C263 C 0.29804 0.15059 0.09321
 C264 C 0.29080 0.16839 0.11698
 C265 C 0.32016 0.09979 0.07471
 C266 C 0.32369 0.08494 0.05252
 C267 C 0.29103 0.17220 0.17126
 C268 C 0.28300 0.18914 0.19104
 H269 H 0.36603 0.11922 0.11468
 H270 H 0.35254 0.15244 0.15901
 H271 H 0.26660 0.11252 0.16240
 H272 H 0.28007 0.07938 0.11819
 H273 H 0.29340 0.15855 0.07108
 H274 H 0.27995 0.19160 0.11520
 C275 C 0.81324 0.61896 0.60072
 C276 C 0.84187 0.62614 0.62016
 C277 C 0.83459 0.64408 0.64399
 C278 C 0.79943 0.65300 0.64594
 C279 C 0.78172 0.62146 0.64489
 C280 C 0.78898 0.60356 0.62112
 C281 C 0.79912 0.65135 0.59307
 C282 C 0.79188 0.66922 0.61680
 C283 C 0.82015 0.60001 0.57474
 C284 C 0.82373 0.58504 0.55264
 C285 C 0.79099 0.67263 0.67110
 C286 C 0.78296 0.68961 0.69085
 H287 H 0.86567 0.61786 0.61564
 H288 H 0.85217 0.65118 0.65991
 H289 H 0.76503 0.61380 0.66142
 H290 H 0.77850 0.58056 0.61728
 H291 H 0.79522 0.65959 0.57090
 H292 H 0.78176 0.69274 0.61496
 C293 C 0.68796 0.88213 0.10021
 C294 C 0.67400 0.89517 0.12870
 C295 C 0.68112 0.87723 0.15262
 C296 C 0.70147 0.84810 0.14559
 C297 C 0.73062 0.86113 0.12985
 C298 C 0.72354 0.87899 0.10604
 C299 C 0.67590 0.84807 0.09820
 C300 C 0.68299 0.83018 0.12205
 C301 C 0.68120 0.90105 0.07411
 C302 C 0.67771 0.91592 0.05190
 C303 C 0.70973 0.82843 0.17085
 C304 C 0.71760 0.81141 0.19067
 H305 H 0.65979 0.91652 0.12998
 H306 H 0.67301 0.88321 0.17440
 H307 H 0.75476 0.85676 0.13684
 H308 H 0.74162 0.88993 0.09264
 H309 H 0.66284 0.83883 0.07970
 H310 H 0.67601 0.80561 0.12399
 C311 C 0.18614 0.38055 0.60112
 C312 C 0.20428 0.35016 0.59375
 C313 C 0.21158 0.33229 0.61749
 C314 C 0.20005 0.34650 0.64638
 C315 C 0.16438 0.35164 0.64220
 C316 C 0.15705 0.36959 0.61835
 C317 C 0.20690 0.39771 0.62350
 C318 C 0.21422 0.37980 0.64730
 C319 C 0.17920 0.39952 0.57512
 C320 C 0.17564 0.41450 0.55299
 C321 C 0.20856 0.32686 0.67156
 C322 C 0.21667 0.30991 0.69134
 H323 H 0.21080 0.34324 0.57174
 H324 H 0.22436 0.31008 0.61582
 H325 H 0.14650 0.34211 0.65669
 H326 H 0.13291 0.37545 0.61239
 H327 H 0.21505 0.42184 0.62092
 H328 H 0.22863 0.38857 0.66510
 C329 C 0.88086 0.31256 0.10011
 C330 C 0.87158 0.34159 0.11828
 C331 C 0.85383 0.33442 0.14225
 C332 C 0.84718 0.29893 0.14560
 C333 C 0.87982 0.28305 0.14554
 C334 C 0.89753 0.29022 0.12162
 C335 C 0.84954 0.29624 0.09282
 C336 C 0.83187 0.28909 0.11669
 C337 C 0.89961 0.31936 0.07397
 C338 C 0.91441 0.32284 0.05175
 C339 C 0.82774 0.29060 0.17092
 C340 C 0.81091 0.28266 0.19081
 H341 H 0.87836 0.36559 0.11284
 H342 H 0.84540 0.35228 0.15737
 H343 H 0.88832 0.26762 0.16280
 H344 H 0.92121 0.28092 0.11839
 H345 H 0.84187 0.29081 0.07078
 H346 H 0.80907 0.27753 0.11509
 C347 C 0.38001 0.81333 0.60081
 C348 C 0.36920 0.84246 0.61813
 C349 C 0.35136 0.83521 0.64202
 C350 C 0.34615 0.79958 0.64615
 C351 C 0.37942 0.78509 0.64693
 C352 C 0.39723 0.79233 0.62309
 C353 C 0.34954 0.79550 0.59349
 C354 C 0.33177 0.78828 0.61728
 C355 C 0.39887 0.82022 0.57476
 C356 C 0.41378 0.82378 0.55261
 C357 C 0.32662 0.79117 0.67139
 C358 C 0.30973 0.78317 0.69121
 H359 H 0.37506 0.86657 0.61220
 H360 H 0.34193 0.85312 0.65658
 H361 H 0.38826 0.77053 0.66467
 H362 H 0.42133 0.78397 0.62041
 H363 H 0.34248 0.78914 0.57150
 H364 H 0.30952 0.77573 0.61566
 C365 C 0.11908 0.68745 0.09972
 C366 C 0.14635 0.66417 0.10507
 C367 C 0.16405 0.67128 0.12903
 C368 C 0.15271 0.70097 0.14524
 C369 C 0.11779 0.69479 0.15225
 C370 C 0.10008 0.68768 0.12827
 C371 C 0.13469 0.72007 0.09822
 C372 C 0.15234 0.72716 0.12210
 C373 C 0.10034 0.68071 0.07357
 C374 C 0.08553 0.67729 0.05135
 C375 C 0.17213 0.70925 0.17058
 C376 C 0.18894 0.71717 0.19046
 H377 H 0.15126 0.64387 0.09133
 H378 H 0.18414 0.65706 0.13582
 H379 H 0.10789 0.69583 0.17407
 H380 H 0.07499 0.68262 0.12955
 H381 H 0.13211 0.73623 0.07995
 H382 H 0.16485 0.74938 0.12427
 C383 C 0.61985 0.18690 0.60148
 C384 C 0.60152 0.20478 0.62524
 C385 C 0.61935 0.21200 0.64907
 C386 C 0.65373 0.20064 0.64678
 C387 C 0.66615 0.21507 0.61831
 C388 C 0.64838 0.20786 0.59455
 C389 C 0.63371 0.15777 0.61690
 C390 C 0.65156 0.16501 0.64077
 C391 C 0.60098 0.18002 0.57545
 C392 C 0.58607 0.17643 0.55331
 C393 C 0.67327 0.20903 0.67200
 C394 C 0.69016 0.21699 0.69181
 H395 H 0.57672 0.21111 0.62353
 H396 H 0.60982 0.22453 0.66778
 H397 H 0.68714 0.22967 0.61693
 H398 H 0.65416 0.21629 0.57281
 H399 H 0.62981 0.13366 0.60976
 H400 H 0.66297 0.14708 0.65409
 C401 C 0.68747 0.11847 0.89994
 C402 C 0.65870 0.12658 0.88091
 C403 C 0.66597 0.14451 0.85706
 C404 C 0.70127 0.15247 0.85467
 C405 C 0.71835 0.12045 0.85536
 C406 C 0.71110 0.10257 0.87915
 C407 C 0.70236 0.15041 0.90752
 C408 C 0.70960 0.16825 0.88377
 C409 C 0.68059 0.09955 0.92597
 C410 C 0.67708 0.08467 0.94817
 C411 C 0.70972 0.17210 0.82948
 C412 C 0.71775 0.18906 0.80971
 H413 H 0.63482 0.11892 0.88571
 H414 H 0.64830 0.15220 0.84140
 H415 H 0.73463 0.11247 0.83858
 H416 H 0.72116 0.07926 0.88276
 H417 H 0.70677 0.15837 0.92966
 H418 H 0.72022 0.19148 0.88558
 C419 C 0.18664 0.61927 0.39913
 C420 C 0.20187 0.65109 0.40654
 C421 C 0.20902 0.66883 0.38269
 C422 C 0.20026 0.65306 0.35369
 C423 C 0.16492 0.64540 0.35639
 C424 C 0.15774 0.62759 0.38033
 C425 C 0.20992 0.60313 0.37817
 C426 C 0.21708 0.62090 0.35428
 C427 C 0.17983 0.60044 0.42522
 C428 C 0.17632 0.58553 0.44739
 C429 C 0.20860 0.67256 0.32841
 C430 C 0.21656 0.68944 0.30856
 H431 H 0.20657 0.65905 0.42862
 H432 H 0.21986 0.69197 0.38437
 H433 H 0.14716 0.65322 0.34087
 H434 H 0.13384 0.62014 0.38535
 H435 H 0.21982 0.57975 0.38173
 H436 H 0.23312 0.61275 0.33738
 C437 C 0.31156 0.88186 0.89918
 C438 C 0.32881 0.89231 0.87133
 C439 C 0.32165 0.87439 0.84748
 C440 C 0.29796 0.84786 0.85393
 C441 C 0.26923 0.86450 0.86740
 C442 C 0.27636 0.88235 0.89115
 C443 C 0.31990 0.84677 0.90284
 C444 C 0.31275 0.82891 0.87907
 C445 C 0.31837 0.90076 0.92521
 C446 C 0.32191 0.91561 0.94738
 C447 C 0.28965 0.82822 0.82876
 C448 C 0.28176 0.81122 0.80901
 H449 H 0.34519 0.91197 0.87043
 H450 H 0.33188 0.87870 0.82613
 H451 H 0.24534 0.86251 0.85898
 H452 H 0.25858 0.89564 0.90306
 H453 H 0.33058 0.83685 0.92236
 H454 H 0.31731 0.80367 0.87822
 C455 C 0.81408 0.38029 0.39924
 C456 C 0.80767 0.39998 0.37168
 C457 C 0.80039 0.38221 0.34782
 C458 C 0.80023 0.34654 0.35391
 C459 C 0.77721 0.34222 0.37943
 C460 C 0.78447 0.35993 0.40320
 C461 C 0.84029 0.35699 0.39056
 C462 C 0.83301 0.33922 0.36669
 C463 C 0.82099 0.39911 0.42527
 C464 C 0.82454 0.41402 0.44740
 C465 C 0.79176 0.32707 0.32868
 C466 C 0.78368 0.31025 0.30888
 H467 H 0.80885 0.42558 0.37096
 H468 H 0.79532 0.39257 0.32665
 H469 H 0.75694 0.32659 0.37888
 H470 H 0.77040 0.35945 0.42301
 H471 H 0.86261 0.35472 0.40206
 H472 H 0.84909 0.32170 0.35774
 C473 C 0.11819 0.31273 0.89915
 C474 C 0.12447 0.34107 0.87905
 C475 C 0.14245 0.33372 0.85525
 C476 C 0.15230 0.29878 0.85399
 C477 C 0.12127 0.28025 0.85563
 C478 C 0.10333 0.28758 0.87937
 C479 C 0.15101 0.29968 0.90686
 C480 C 0.16891 0.29236 0.88316
 C481 C 0.09920 0.31972 0.92511
 C482 C 0.08424 0.32336 0.94722
 C483 C 0.17198 0.29026 0.82885
 C484 C 0.18900 0.28220 0.80912
 H485 H 0.11558 0.36474 0.88312
 H486 H 0.14897 0.35110 0.83891
 H487 H 0.11396 0.26296 0.83953
 H488 H 0.08065 0.27658 0.88359
 H489 H 0.15948 0.29652 0.92904
 H490 H 0.19271 0.28292 0.88505
 C491 C 0.61855 0.81353 0.39864
 C492 C 0.62477 0.84194 0.37861
 C493 C 0.64272 0.83468 0.35477
 C494 C 0.65261 0.79975 0.35340
 C495 C 0.62160 0.78118 0.35504
 C496 C 0.60369 0.78842 0.37881
 C497 C 0.65139 0.80049 0.40628
 C498 C 0.66926 0.79326 0.38254
 C499 C 0.59958 0.82041 0.42464
 C500 C 0.58461 0.82397 0.44676
 C501 C 0.67226 0.79133 0.32822
 C502 C 0.68926 0.78332 0.30846
 H503 H 0.61586 0.86559 0.38276
 H504 H 0.64920 0.85212 0.33848
 H505 H 0.61429 0.76393 0.33890
 H506 H 0.58103 0.77738 0.38304
 H507 H 0.65990 0.79729 0.42844
 H508 H 0.69308 0.78386 0.38437
 C509 C 0.88167 0.68717 0.89878
 C510 C 0.90098 0.69928 0.87273
 C511 C 0.88303 0.70653 0.84892
 C512 C 0.84757 0.70095 0.85354
 C513 C 0.83901 0.72021 0.88075
 C514 C 0.85689 0.71298 0.90449
 C515 C 0.86290 0.65900 0.88692
 C516 C 0.84494 0.66626 0.86309
 C517 C 0.90066 0.68028 0.92478
 C518 C 0.91564 0.67674 0.94691
 C519 C 0.82790 0.70938 0.82835
 C520 C 0.81090 0.71739 0.80858
 H521 H 0.92649 0.70182 0.87293
 H522 H 0.89316 0.71530 0.82872
 H523 H 0.82047 0.73799 0.88135
 H524 H 0.85365 0.72457 0.92541
 H525 H 0.86370 0.63547 0.89634
 H526 H 0.83033 0.64894 0.85209
 C527 C 0.38146 0.18673 0.39920
 C528 C 0.35080 0.20444 0.40655
 C529 C 0.33297 0.21168 0.38277
 C530 C 0.34748 0.20053 0.35388
 C531 C 0.35305 0.16490 0.35791
 C532 C 0.37096 0.15763 0.38180
 C533 C 0.39848 0.20787 0.37700
 C534 C 0.38061 0.21512 0.35316
 C535 C 0.40037 0.17982 0.42524
 C536 C 0.41531 0.17621 0.44738
 C537 C 0.32788 0.20896 0.32866
 C538 C 0.31090 0.21696 0.30886
 H539 H 0.34367 0.21072 0.42856
 H540 H 0.31059 0.22416 0.38442
 H541 H 0.34382 0.14701 0.34330
 H542 H 0.37706 0.13352 0.38766
 H543 H 0.42249 0.21630 0.37971
 H544 H 0.38930 0.22978 0.33546
 C545 C 0.69954 0.88026 0.89964
 C546 C 0.70971 0.89891 0.87248
 C547 C 0.71536 0.88035 0.84872
 C548 C 0.71026 0.84499 0.85448
 C549 C 0.67635 0.84252 0.86609
 C550 C 0.67070 0.86107 0.88984
 C551 C 0.72579 0.85573 0.90444
 C552 C 0.73142 0.83722 0.88074
 C553 C 0.69369 0.89986 0.92548
 C554 C 0.68914 0.91513 0.94728
 C555 C 0.71680 0.82470 0.82923
 C556 C 0.72339 0.80745 0.80921
 H557 H 0.71222 0.92442 0.87195
 H558 H 0.72269 0.88996 0.82783
 H559 H 0.65835 0.82757 0.85648
 H560 H 0.64786 0.86202 0.90058
 H561 H 0.73884 0.85313 0.92470
 H562 H 0.74929 0.81875 0.88072
 C563 C 0.19857 0.38006 0.39953
 C564 C 0.21765 0.39663 0.37554
 C565 C 0.22350 0.37799 0.35188
 C566 C 0.20968 0.34462 0.35454
 C567 C 0.17435 0.34968 0.36060
 C568 C 0.16851 0.36832 0.38427
 C569 C 0.21741 0.35002 0.40675
 C570 C 0.22324 0.33142 0.38314
 C571 C 0.19251 0.39973 0.42529
 C572 C 0.18781 0.41502 0.44706
 C573 C 0.21644 0.32424 0.32939
 C574 C 0.22316 0.30694 0.30943
 H575 H 0.22579 0.42087 0.37697
 H576 H 0.23665 0.38628 0.33305
 H577 H 0.15561 0.33956 0.34747
 H578 H 0.14474 0.37417 0.39140
 H579 H 0.22545 0.34387 0.42853
 H580 H 0.23628 0.30935 0.38472
 C581 C 0.30133 0.11946 0.90032
 C582 C 0.29319 0.15379 0.90804
 C583 C 0.28743 0.17235 0.88434
 C584 C 0.29036 0.15480 0.85518
 C585 C 0.26784 0.12658 0.85785
 C586 C 0.27361 0.10800 0.88158
 C587 C 0.32943 0.12169 0.87921
 C588 C 0.32365 0.14029 0.85545
 C589 C 0.30731 0.09982 0.92616
 C590 C 0.31192 0.08450 0.94796
 C591 C 0.28365 0.17510 0.82994
 C592 C 0.27693 0.19235 0.80991
 H593 H 0.29209 0.16278 0.93020
 H594 H 0.28139 0.19721 0.88621
 H595 H 0.24905 0.12158 0.84242
 H596 H 0.25977 0.08711 0.88648
 H597 H 0.35185 0.10971 0.88261
 H598 H 0.34111 0.14425 0.83850
 C599 C 0.80094 0.61943 0.39912
 C600 C 0.78716 0.65191 0.40693
 C601 C 0.78138 0.67058 0.38332
 C602 C 0.78993 0.65500 0.35413
 C603 C 0.77152 0.62380 0.35384
 C604 C 0.77732 0.60510 0.37750
 C605 C 0.83054 0.62656 0.38091
 C606 C 0.82474 0.64528 0.35724
 C607 C 0.80696 0.59969 0.42490
 C608 C 0.81167 0.58440 0.44670
 C609 C 0.78324 0.67547 0.32899
 C610 C 0.77659 0.69288 0.30904
 H611 H 0.78238 0.65960 0.42909
 H612 H 0.77165 0.69425 0.38527
 H613 H 0.75542 0.61697 0.33654
 H614 H 0.76618 0.58225 0.38046
 H615 H 0.85395 0.61766 0.38612
 H616 H 0.84318 0.65242 0.34217
 C617 C 0.11976 0.69939 0.90037
 C618 C 0.15522 0.70029 0.90729
 C619 C 0.17369 0.70599 0.88356
 C620 C 0.15494 0.71025 0.85516
 C621 C 0.13114 0.73678 0.86166
 C622 C 0.11265 0.73107 0.88541
 C623 C 0.11641 0.67450 0.87621
 C624 C 0.13493 0.68021 0.85241
 C625 C 0.10025 0.69347 0.92626
 C626 C 0.08510 0.68886 0.94813
 C627 C 0.17517 0.71688 0.82989
 C628 C 0.19238 0.72352 0.80985
 H629 H 0.16499 0.69671 0.92896
 H630 H 0.19926 0.70729 0.88491
 H631 H 0.12894 0.75816 0.84869
 H632 H 0.09464 0.74754 0.89279
 H633 H 0.10087 0.65421 0.87766
 H634 H 0.13526 0.66483 0.83348
 C635 C 0.62057 0.19886 0.39973
 C636 C 0.60342 0.21666 0.37517
 C637 C 0.62201 0.22246 0.35146
 C638 C 0.65591 0.20988 0.35466
 C639 C 0.65226 0.17460 0.36161
 C640 C 0.63367 0.16880 0.38532
 C641 C 0.64974 0.21893 0.40662
 C642 C 0.66829 0.22471 0.38297
 C643 C 0.60095 0.19285 0.42553
 C644 C 0.58569 0.18819 0.44732
 C645 C 0.67622 0.21659 0.32947
 C646 C 0.69348 0.22327 0.30948
 H647 H 0.57885 0.22400 0.37626
 H648 H 0.61334 0.23477 0.33225
 H649 H 0.66325 0.15585 0.34902
 H650 H 0.62875 0.14507 0.39304
 H651 H 0.65537 0.22780 0.42821
 H652 H 0.68979 0.23855 0.38432
 C653 C 0.88015 0.30068 0.90082
 C654 C 0.84779 0.31713 0.90203
 C655 C 0.82932 0.31139 0.87830
 C656 C 0.84499 0.28975 0.85564
 C657 C 0.85427 0.25983 0.87261
 C658 C 0.87273 0.26558 0.89634
 C659 C 0.89494 0.31159 0.87193
 C660 C 0.87643 0.30583 0.84815
 C661 C 0.89965 0.30665 0.92670
 C662 C 0.91480 0.31130 0.94855
 C663 C 0.82477 0.28309 0.83039
 C664 C 0.80756 0.27644 0.81037
 H665 H 0.84008 0.33204 0.91995
 H666 H 0.80581 0.32137 0.87588
 H667 H 0.84700 0.23618 0.86651
 H668 H 0.88126 0.24685 0.91053
 H669 H 0.91787 0.32285 0.87030
 H670 H 0.88351 0.31216 0.82614
 C671 C 0.37929 0.80127 0.39909
 C672 C 0.34429 0.79666 0.40666
 C673 C 0.32572 0.79088 0.38303
 C674 C 0.34391 0.79025 0.35408
 C675 C 0.37019 0.76562 0.35858
 C676 C 0.38878 0.77141 0.38223
 C677 C 0.37965 0.82794 0.37633
 C678 C 0.36103 0.82214 0.35263
 C679 C 0.39893 0.80727 0.42487
 C680 C 0.41420 0.81192 0.44665
 C681 C 0.32358 0.78353 0.32892
 C682 C 0.30631 0.77682 0.30896
 H683 H 0.33489 0.79789 0.42868
 H684 H 0.30043 0.78716 0.38482
 H685 H 0.37391 0.74544 0.34438
 H686 H 0.40842 0.75620 0.38830
 H687 H 0.39333 0.84944 0.37861
 H688 H 0.35875 0.83866 0.33462
 C689 C 0.30002 0.87993 0.09964
 C690 C 0.30447 0.84451 0.09376
 C691 C 0.29879 0.82596 0.11745
 C692 C 0.28921 0.84460 0.14477
 C693 C 0.26061 0.86453 0.13529
 C694 C 0.26630 0.88310 0.11158
 C695 C 0.32163 0.88708 0.12572
 C696 C 0.31594 0.86848 0.14948
 C697 C 0.30592 0.89955 0.07381
 C698 C 0.31051 0.91482 0.05200
 C699 C 0.28261 0.82429 0.17000
 C700 C 0.27600 0.80702 0.19001
 H701 H 0.31151 0.83484 0.07280
 H702 H 0.30098 0.80040 0.11679
 H703 H 0.23789 0.86414 0.14628
 H704 H 0.24846 0.89860 0.10226
 H705 H 0.33977 0.90515 0.12554
 H706 H 0.32920 0.87060 0.16965
 C707 C 0.80179 0.37975 0.60100
 C708 C 0.78372 0.39681 0.62541
 C709 C 0.77792 0.37823 0.64913
 C710 C 0.79077 0.34442 0.64611
 C711 C 0.82607 0.34832 0.63936
 C712 C 0.83187 0.36691 0.61564
 C713 C 0.78199 0.35041 0.59408
 C714 C 0.77620 0.33187 0.61775
 C715 C 0.80781 0.39936 0.57517
 C716 C 0.81247 0.41460 0.55335
 C717 C 0.78407 0.32411 0.67133
 C718 C 0.77739 0.30684 0.69133
 H719 H 0.77620 0.42132 0.62420
 H720 H 0.76543 0.38683 0.66824
 H721 H 0.84483 0.33750 0.65211
 H722 H 0.85561 0.37200 0.60806
 H723 H 0.77328 0.34468 0.57245
 H724 H 0.76254 0.31027 0.61637
 C725 C 0.69910 0.12038 0.10030
 C726 C 0.72415 0.10671 0.12102
 C727 C 0.72990 0.12527 0.14470
 C728 C 0.71002 0.15569 0.14534
 C729 C 0.67561 0.14460 0.14318
 C730 C 0.66986 0.12601 0.11948
 C731 C 0.71103 0.15351 0.09246
 C732 C 0.71676 0.17204 0.11611
 C733 C 0.69316 0.10076 0.07451
 C734 C 0.68859 0.08547 0.05275
 C735 C 0.71670 0.17597 0.17052
 C736 C 0.72341 0.19319 0.19051
 H737 H 0.73626 0.08440 0.11744
 H738 H 0.74693 0.11885 0.16141
 H739 H 0.65740 0.15076 0.15887
 H740 H 0.64671 0.11626 0.11486
 H741 H 0.71462 0.16172 0.07026
 H742 H 0.72527 0.19612 0.11414
 C743 C 0.19892 0.61971 0.60093
 C744 C 0.22289 0.60543 0.62238
 C745 C 0.22859 0.62406 0.64604
 C746 C 0.20976 0.65514 0.64593
 C747 C 0.17506 0.64520 0.64302
 C748 C 0.16935 0.62656 0.61934
 C749 C 0.21219 0.65232 0.59311
 C750 C 0.21788 0.67091 0.61672
 C751 C 0.19299 0.60006 0.57515
 C752 C 0.18835 0.58482 0.55336
 C753 C 0.21636 0.67552 0.67108
 C754 C 0.22294 0.69287 0.69101
 H755 H 0.23432 0.58268 0.61930
 H756 H 0.24491 0.61725 0.66323
 H757 H 0.15663 0.65214 0.65821
 H758 H 0.14602 0.61753 0.61426
 H759 H 0.21670 0.66016 0.57093
 H760 H 0.22726 0.69466 0.61476
 C761 C 0.88088 0.69932 0.10035
 C762 C 0.86825 0.66921 0.11494
 C763 C 0.84954 0.67495 0.13859
 C764 C 0.84531 0.71023 0.14531
 C765 C 0.83273 0.72481 0.11690
 C766 C 0.85140 0.71908 0.09331
 C767 C 0.89771 0.71740 0.12482
 C768 C 0.87900 0.72314 0.14847
 C769 C 0.90062 0.69336 0.07460
 C770 C 0.91595 0.68874 0.05284
 C771 C 0.82486 0.71689 0.17044
 C772 C 0.80748 0.72356 0.19037
 H773 H 0.87359 0.64548 0.10740
 H774 H 0.83885 0.65616 0.15131
 H775 H 0.81101 0.73845 0.11544
 H776 H 0.84567 0.72782 0.07165
 H777 H 0.92216 0.72496 0.12370
 H778 H 0.88744 0.73562 0.16761
 C779 C 0.38054 0.19833 0.60091
 C780 C 0.34756 0.21086 0.59305
 C781 C 0.32892 0.21660 0.61666
 C782 C 0.34501 0.20926 0.64590
 C783 C 0.37560 0.22866 0.64558
 C784 C 0.39428 0.22292 0.62193
 C785 C 0.37453 0.16896 0.61980
 C786 C 0.35583 0.17471 0.64348
 C787 C 0.40025 0.19238 0.57514
 C788 C 0.41556 0.18779 0.55336
 C789 C 0.32459 0.21592 0.67105
 C790 C 0.30722 0.22259 0.69098
 H791 H 0.33953 0.21485 0.57084
 H792 H 0.30492 0.22550 0.61466
 H793 H 0.38205 0.24539 0.66249
 H794 H 0.41671 0.23472 0.61857
 H795 H 0.38413 0.14572 0.61502
 H796 H 0.34942 0.15641 0.65897
 C797 C 0.11912 0.30097 0.10069
 C798 C 0.10730 0.27380 0.11997
 C799 C 0.12603 0.26803 0.14359
 C800 C 0.15474 0.29000 0.14562
 C801 C 0.14092 0.32357 0.14499
 C802 C 0.12218 0.32935 0.12134
 C803 C 0.15320 0.29198 0.09275
 C804 C 0.17189 0.28622 0.11633
 C805 C 0.09935 0.30694 0.07495
 C806 C 0.08400 0.31158 0.05318
 C807 C 0.17522 0.28331 0.17074
 C808 C 0.19262 0.27662 0.19066
 H809 H 0.08607 0.26033 0.11551
 H810 H 0.12082 0.24962 0.15937
 H811 H 0.14543 0.34122 0.16164
 H812 H 0.11062 0.35195 0.11773
 H813 H 0.16190 0.29031 0.07051
 H814 H 0.19661 0.27963 0.11429
 C815 C 0.61932 0.80157 0.60030
 C816 C 0.61783 0.82767 0.62353
 C817 C 0.63655 0.82189 0.64721
 C818 C 0.65487 0.79060 0.64529
 C819 C 0.67317 0.79246 0.61644
 C820 C 0.65451 0.79822 0.59282
 C821 C 0.61089 0.77105 0.61659
 C822 C 0.62957 0.76528 0.64023
 C823 C 0.59960 0.80754 0.57453
 C824 C 0.58428 0.81217 0.55275
 C825 C 0.67532 0.78390 0.67043
 C826 C 0.69269 0.77721 0.69037
 H827 H 0.60335 0.84878 0.62157
 H828 H 0.63810 0.83805 0.66552
 H829 H 0.69860 0.78957 0.61471
 H830 H 0.66396 0.80025 0.57088
 H831 H 0.59186 0.75539 0.61017
 H832 H 0.62654 0.74467 0.65405
   
