data_POSCAR
  _audit_creation_date              2014-09-24
  _audit_creation_method            'ToBaCCo'
  _symmetry_space_group_name_H-M    'P1'
  _symmetry_Int_Tables_number       1
  _symmetry_cell_setting            triclinic
  loop_
  _symmetry_equiv_pos_as_xyz
 x,y,z
_cell_length_a 36.4549
_cell_length_b 51.3025
_cell_length_c 28.5885
_cell_angle_alpha 90.004700
_cell_angle_beta 90.331800
_cell_angle_gamma 89.707700
loop_
  _atom_site_label
  _atom_site_type_symbol
  _atom_site_fract_x
  _atom_site_fract_y
  _atom_site_fract_z
C1 C 0.73805 0.32074 0.49895
 C2 C 0.74341 0.30861 0.54257
 C3 C 0.75026 0.28157 0.54363
 C4 C 0.74876 0.26633 0.50243
 C5 C 0.74034 0.27901 0.45979
 C6 C 0.73602 0.30617 0.45757
 C7 C 0.75545 0.23736 0.50379
 C8 C 0.76715 0.22384 0.46336
 C9 C 0.77227 0.19661 0.46351
 C10 C 0.76747 0.18304 0.50574
 C11 C 0.75808 0.19611 0.54703
 C12 C 0.75089 0.22297 0.54549
 H13 H 0.73337 0.34158 0.49726
 H14 H 0.75699 0.27264 0.57680
 H15 H 0.73679 0.26791 0.42799
 H16 H 0.77288 0.23448 0.43165
 H17 H 0.77270 0.16226 0.50717
 H18 H 0.74163 0.23233 0.57716
 C19 C 0.23552 0.81825 0.50017
 C20 C 0.24089 0.80592 0.54362
 C21 C 0.24711 0.77879 0.54438
 C22 C 0.24494 0.76368 0.50303
 C23 C 0.23618 0.77663 0.46072
 C24 C 0.23262 0.80383 0.45875
 C25 C 0.25115 0.73460 0.50365
 C26 C 0.26083 0.72123 0.46223
 C27 C 0.26445 0.69402 0.46128
 C28 C 0.26046 0.68000 0.50296
 C29 C 0.25411 0.69275 0.54572
 C30 C 0.24805 0.71991 0.54534
 H31 H 0.23143 0.83915 0.49868
 H32 H 0.25386 0.76973 0.57741
 H33 H 0.23174 0.76573 0.42890
 H34 H 0.26606 0.73184 0.43037
 H35 H 0.26448 0.65908 0.50235
 H36 H 0.24060 0.72928 0.57773
 C37 C 0.26709 0.31623 -0.49517
 C38 C 0.27105 0.30253 -0.53726
 C39 C 0.26576 0.27543 -0.53741
 C40 C 0.25452 0.26204 -0.49672
 C41 C 0.25068 0.27653 -0.45491
 C42 C 0.25811 0.30334 -0.45363
 C43 C 0.24756 0.23313 -0.49798
 C44 C 0.24891 0.21787 -0.45677
 C45 C 0.24202 0.19088 -0.45787
 C46 C 0.23673 0.17880 -0.50151
 C47 C 0.23479 0.19339 -0.54287
 C48 C 0.23911 0.22050 -0.54063
 H49 H 0.27268 0.33694 -0.49428
 H50 H 0.27098 0.26493 -0.56943
 H51 H 0.24178 0.26733 -0.42300
 H52 H 0.25560 0.22672 -0.42356
 H53 H 0.23206 0.15800 -0.50326
 H54 H 0.23558 0.23159 -0.57245
 C55 C -0.23402 0.81895 -0.49514
 C56 C -0.22980 0.80527 -0.53742
 C57 C -0.23547 0.77812 -0.53749
 C58 C -0.24696 0.76485 -0.49682
 C59 C -0.25095 0.77934 -0.45510
 C60 C -0.24333 0.80608 -0.45371
 C61 C -0.25415 0.73602 -0.49781
 C62 C -0.25197 0.72091 -0.45651
 C63 C -0.25980 0.69416 -0.45700
 C64 C -0.26732 0.68194 -0.49978
 C65 C -0.26944 0.69627 -0.54147
 C66 C -0.26384 0.72333 -0.53999
 H67 H -0.22841 0.83964 -0.49379
 H68 H -0.23036 0.76734 -0.56928
 H69 H -0.26012 0.77012 -0.42330
 H70 H -0.24412 0.72966 -0.42361
 H71 H -0.27324 0.66128 -0.50034
 H72 H -0.26745 0.73436 -0.57190
 N73 N 0.03514 0.97152 -0.09074
 N74 N 0.05988 0.96714 -0.12331
 N75 N -0.04088 0.95338 -0.05534
 N76 N -0.06617 0.93562 -0.06415
 N77 N -0.04203 0.97192 -0.08702
 N78 N -0.06828 0.96746 -0.11784
 N79 N 0.03613 0.95304 -0.05896
 N80 N 0.06144 0.93544 -0.06930
 C81 C 0.07623 0.94472 -0.10932
 C82 C -0.08332 0.94493 -0.10292
 N83 N -0.03620 0.97197 0.07741
 N84 N -0.05882 0.96692 0.11198
 N85 N 0.03950 0.95291 0.04219
 N86 N 0.06312 0.93415 0.05286
 N87 N 0.04092 0.97164 0.07347
 N88 N 0.06579 0.96632 0.10575
 N89 N -0.03730 0.95333 0.04592
 N90 N -0.06045 0.93492 0.05867
 Mn91 Mn -0.00065 0.95288 -0.00661
 C92 C -0.07408 0.94398 0.09960
 C93 C 0.07974 0.94311 0.09216
 N94 N -0.04192 1.02793 -0.08710
 N95 N -0.06818 1.03262 -0.11791
 N96 N 0.03631 1.04610 -0.05916
 N97 N 0.06162 1.06348 -0.06971
 N98 N 0.03525 1.02757 -0.09084
 N99 N 0.05990 1.03169 -0.12352
 N100 N -0.04070 1.04647 -0.05544
 N101 N -0.06594 1.06444 -0.06421
 Mn102 Mn -0.00340 0.99973 -0.08933
 C103 C -0.08314 1.05529 -0.10297
 C104 C 0.07632 1.05400 -0.10973
 N105 N 0.04104 1.02760 0.07338
 N106 N 0.06604 1.03270 0.10552
 N107 N -0.03709 1.04660 0.04585
 N108 N -0.06012 1.06525 0.05866
 N109 N -0.03608 1.02795 0.07733
 N110 N -0.05863 1.03322 0.11194
 N111 N 0.03971 1.04628 0.04199
 N112 N 0.06351 1.06479 0.05243
 Mn113 Mn 0.00244 0.99979 0.07566
 Mn114 Mn -0.00046 1.04665 -0.00675
 Cl115 Cl -0.00054 0.99976 -0.00674
 C116 C 0.08016 1.05573 0.09172
 C117 C -0.07377 1.05632 0.09961
 N118 N 0.53458 0.54658 -0.05918
 N119 N 0.55961 0.56422 -0.06935
 N120 N 0.45694 0.52761 -0.08816
 N121 N 0.43079 0.53199 -0.11924
 N122 N 0.45754 0.54617 -0.05652
 N123 N 0.43195 0.56385 -0.06558
 N124 N 0.53413 0.52807 -0.09091
 N125 N 0.55898 0.53246 -0.12325
 C126 C 0.57482 0.55493 -0.10919
 C127 C 0.41522 0.55449 -0.10452
 N128 N 0.45929 0.45307 -0.05640
 N129 N 0.43435 0.43509 -0.06536
 N130 N 0.53518 0.47205 -0.09087
 N131 N 0.56012 0.46793 -0.12327
 N132 N 0.53633 0.45355 -0.05914
 N133 N 0.56198 0.43618 -0.06939
 N134 N 0.45798 0.47158 -0.08811
 N135 N 0.43196 0.46687 -0.11914
 Mn136 Mn 0.49604 0.49983 -0.08991
 C137 C 0.41725 0.44422 -0.10429
 C138 C 0.57680 0.44565 -0.10926
 N139 N 0.46029 0.54627 0.04470
 N140 N 0.43640 0.56453 0.05673
 N141 N 0.53853 0.52812 0.07346
 N142 N 0.56291 0.53356 0.10619
 N143 N 0.53711 0.54680 0.04207
 N144 N 0.56021 0.56566 0.05312
 N145 N 0.46137 0.52766 0.07624
 N146 N 0.43799 0.53256 0.11015
 Mn147 Mn 0.49737 0.54674 -0.00729
 C148 C 0.42232 0.55540 0.09727
 C149 C 0.57656 0.55680 0.09278
 N150 N 0.53890 0.45346 0.04207
 N151 N 0.56296 0.43500 0.05282
 N152 N 0.46246 0.47168 0.07633
 N153 N 0.43967 0.46639 0.11061
 N154 N 0.46209 0.45301 0.04489
 N155 N 0.43928 0.43432 0.05739
 N156 N 0.53962 0.47214 0.07349
 N157 N 0.56444 0.46709 0.10597
 Mn158 Mn 0.49915 0.45299 -0.00720
 Mn159 Mn 0.50051 0.49990 0.07515
 Cl160 Cl 0.49826 0.49986 -0.00729
 C161 C 0.57910 0.44409 0.09235
 C162 C 0.42508 0.44325 0.09809
 C163 C 0.30290 0.34306 0.34195
 N164 N 0.29316 0.35603 0.38132
 N165 N 0.28282 0.34311 0.41931
 C166 C 0.28180 0.31665 0.41963
 N167 N 0.29125 0.30365 0.37997
 N168 N 0.30170 0.31660 0.34187
 C169 C 0.31607 0.35768 0.30124
 N170 N 0.32829 0.34530 0.26225
 N171 N 0.34222 0.35887 0.22677
 C172 C 0.34437 0.38528 0.22909
 N173 N 0.33177 0.39758 0.26785
 N174 N 0.31787 0.38406 0.30319
 C175 C 0.36247 0.40043 0.19231
 N176 N 0.36831 0.42627 0.19880
 N177 N 0.38731 0.43996 0.16783
 C178 C 0.40103 0.42838 0.12901
 N179 N 0.39475 0.40259 0.12196
 N180 N 0.37582 0.38883 0.15315
 C181 C -0.19734 0.84494 0.34413
 N182 N -0.20192 0.81869 0.34283
 N183 N -0.21272 0.80582 0.38087
 C184 C -0.21912 0.81864 0.42176
 N185 N -0.21464 0.84492 0.42255
 N186 N -0.20401 0.85777 0.38464
 C187 C -0.18396 0.85946 0.30343
 N188 N -0.18007 0.88569 0.30632
 N189 N -0.16602 0.89911 0.27095
 C190 C -0.15532 0.88685 0.23124
 N191 N -0.15953 0.86060 0.22799
 N192 N -0.17366 0.84713 0.26349
 C193 C -0.13708 0.90182 0.19436
 N194 N -0.12483 0.89023 0.15460
 N195 N -0.10576 0.90380 0.12329
 C196 C -0.09825 0.92938 0.13078
 N197 N -0.11089 0.94096 0.17018
 N198 N -0.13001 0.92747 0.20129
 C199 C 0.70185 0.65720 0.33456
 N200 N 0.71320 0.64383 0.37295
 N201 N 0.72270 0.65634 0.41187
 C202 C 0.72128 0.68276 0.41414
 N203 N 0.71035 0.69620 0.37544
 N204 N 0.70069 0.68366 0.33640
 C205 C 0.68904 0.64286 0.29315
 N206 N 0.67430 0.65541 0.25557
 N207 N 0.66022 0.64191 0.21988
 C208 C 0.66045 0.61542 0.22055
 N209 N 0.67565 0.60298 0.25783
 N210 N 0.68969 0.61642 0.29338
 C211 C 0.64178 0.60019 0.18408
 N212 N 0.63780 0.57411 0.18977
 N213 N 0.61801 0.56026 0.15957
 C214 C 0.60164 0.57190 0.12230
 N215 N 0.60611 0.59794 0.11595
 N216 N 0.62580 0.61187 0.14641
 C217 C 0.20853 1.15485 0.33177
 N218 N 0.22042 1.14138 0.36977
 N219 N 0.22931 1.15372 0.40910
 C220 C 0.22670 1.18008 0.41216
 N221 N 0.21529 1.19364 0.37381
 N222 N 0.20627 1.18125 0.33437
 C223 C 0.19592 1.14066 0.29012
 N224 N 0.18061 1.15332 0.25305
 N225 N 0.16634 1.13995 0.21734
 C226 C 0.16689 1.11346 0.21752
 N227 N 0.18270 1.10089 0.25425
 N228 N 0.19697 1.11422 0.28981
 C229 C 0.14767 1.09838 0.18135
 N230 N 0.14338 1.07232 0.18704
 N231 N 0.12287 1.05868 0.15732
 C232 C 0.10607 1.07052 0.12056
 N233 N 0.11086 1.09651 0.11418
 N234 N 0.13126 1.11024 0.14416
 C235 C 0.72293 0.35095 -0.33756
 N236 N 0.72924 0.32487 -0.33500
 N237 N 0.73752 0.31128 -0.37336
 C238 C 0.73941 0.32318 -0.41587
 N239 N 0.73396 0.34939 -0.41781
 N240 N 0.72598 0.36297 -0.37956
 C241 C 0.70906 0.36572 -0.29727
 N242 N 0.70278 0.39170 -0.30153
 N243 N 0.68599 0.40490 -0.26774
 C244 C 0.67471 0.39265 -0.22835
 N245 N 0.68159 0.36672 -0.22355
 N246 N 0.69848 0.35348 -0.25744
 C247 C 0.65225 0.40691 -0.19424
 N248 N 0.63872 0.39496 -0.15562
 N249 N 0.61550 0.40750 -0.12744
 C250 C 0.60489 0.43236 -0.13711
 N251 N 0.61877 0.44434 -0.17534
 N252 N 0.64203 0.43188 -0.20331
 C253 C 0.22150 0.84834 -0.33634
 N254 N 0.22514 0.86038 -0.37823
 N255 N 0.23284 0.84674 -0.41650
 C256 C 0.23743 0.82045 -0.41470
 N257 N 0.23502 0.80852 -0.37228
 N258 N 0.22700 0.82217 -0.33389
 C259 C 0.20777 0.86327 -0.29616
 N260 N 0.19663 0.85118 -0.25644
 N261 N 0.17981 0.86463 -0.22277
 C262 C 0.17352 0.89063 -0.22770
 N263 N 0.18534 0.90272 -0.26697
 N264 N 0.20209 0.88931 -0.30053
 C265 C 0.15114 0.90516 -0.19388
 N266 N 0.14122 0.93015 -0.20330
 N267 N 0.11809 0.94288 -0.17553
 C268 C 0.10406 0.93114 -0.13715
 N269 N 0.11436 0.90626 -0.12714
 N270 N 0.13744 0.89346 -0.15512
 C271 C 0.27039 0.65127 -0.33224
 N272 N 0.26697 0.63887 -0.37387
 N273 N 0.26026 0.65224 -0.41285
 C274 C 0.25645 0.67860 -0.41204
 N275 N 0.25858 0.69092 -0.36991
 N276 N 0.26566 0.67754 -0.33080
 C277 C 0.28329 0.63653 -0.29119
 N278 N 0.29558 0.64886 -0.25209
 N279 N 0.31201 0.63542 -0.21784
 C280 C 0.31669 0.60920 -0.22154
 N281 N 0.30363 0.59689 -0.26013
 N282 N 0.28731 0.61029 -0.29428
 C283 C 0.33902 0.59455 -0.18747
 N284 N 0.34733 0.56918 -0.19595
 N285 N 0.37075 0.55630 -0.16848
 C286 C 0.38669 0.56824 -0.13132
 N287 N 0.37794 0.59350 -0.12215
 N288 N 0.35457 0.60646 -0.14985
 C289 C -0.22722 1.15470 -0.32796
 N290 N -0.23602 1.14212 -0.36818
 N291 N -0.24259 1.15540 -0.40734
 C292 C -0.24077 1.18183 -0.40791
 N293 N -0.23306 1.19448 -0.36726
 N294 N -0.22632 1.18117 -0.32803
 C295 C -0.21424 1.13968 -0.28728
 N296 N -0.19977 1.15181 -0.24921
 N297 N -0.18344 1.13803 -0.21535
 C298 C -0.18094 1.11165 -0.21844
 N299 N -0.19611 1.09955 -0.25601
 N300 N -0.21243 1.11329 -0.28976
 C301 C -0.15876 1.09656 -0.18486
 N302 N -0.15149 1.07104 -0.19339
 N303 N -0.12823 1.05776 -0.16627
 C304 C -0.11146 1.06946 -0.12943
 N305 N -0.11918 1.09487 -0.12023
 N306 N -0.14236 1.10822 -0.14758
 C307 C 0.71990 0.65162 -0.33478
 N308 N 0.72780 0.63925 -0.37545
 N309 N 0.73594 0.65277 -0.41369
 C310 C 0.73665 0.67924 -0.41285
 N311 N 0.72970 0.69160 -0.37174
 N312 N 0.72141 0.67806 -0.33344
 C313 C 0.70582 0.63666 -0.29496
 N314 N 0.69306 0.64886 -0.25609
 N315 N 0.67624 0.63537 -0.22265
 C316 C 0.67152 0.60923 -0.22698
 N317 N 0.68490 0.59702 -0.26543
 N318 N 0.70171 0.61047 -0.29876
 C319 C 0.64925 0.59463 -0.19336
 N320 N 0.64021 0.56951 -0.20251
 N321 N 0.61722 0.55674 -0.17484
 C322 C 0.60250 0.56856 -0.13685
 N323 N 0.61194 0.59356 -0.12712
 N324 N 0.63486 0.60641 -0.15500
 C325 C 0.22135 1.14857 -0.33821
 N326 N 0.22455 1.13657 -0.38023
 N327 N 0.23258 1.15014 -0.41840
 C328 C 0.23795 1.17632 -0.41636
 N329 N 0.23591 1.18818 -0.37382
 N330 N 0.22757 1.17461 -0.33554
 C331 C 0.20748 1.13381 -0.29802
 N332 N 0.19683 1.14604 -0.25813
 N333 N 0.18001 1.13282 -0.22431
 C334 C 0.17325 1.10693 -0.22926
 N335 N 0.18458 1.09469 -0.26871
 N336 N 0.20131 1.10787 -0.30243
 C337 C 0.15096 1.09270 -0.19515
 N338 N 0.14091 1.06778 -0.20429
 N339 N 0.11788 1.05533 -0.17623
 C340 C 0.10407 1.06729 -0.13783
 N341 N 0.11450 1.09210 -0.12810
 N342 N 0.13749 1.10462 -0.15637
 C343 C 0.27394 0.34494 -0.32914
 N344 N 0.27470 0.31847 -0.32898
 N345 N 0.26767 0.30511 -0.36802
 C346 C 0.25979 0.31772 -0.40872
 N347 N 0.25815 0.34417 -0.40838
 N348 N 0.26501 0.35750 -0.36940
 C349 C 0.28705 0.35996 -0.28863
 N350 N 0.28880 0.38633 -0.29130
 N351 N 0.30508 0.40005 -0.25765
 C352 C 0.32027 0.38795 -0.21999
 N353 N 0.31786 0.36160 -0.21673
 N354 N 0.30157 0.34784 -0.25049
 C355 C 0.34231 0.40302 -0.18644
 N356 N 0.35870 0.39137 -0.14903
 N357 N 0.38167 0.40469 -0.12163
 C358 C 0.38919 0.43007 -0.13091
 N359 N 0.37245 0.44175 -0.16789
 N360 N 0.34939 0.42850 -0.19507
 C361 C -0.22766 0.84729 -0.32874
 N362 N -0.23623 0.86001 -0.36897
 N363 N -0.24304 0.84682 -0.40813
 C364 C -0.24171 0.82037 -0.40868
 N365 N -0.23421 0.80760 -0.36802
 N366 N -0.22722 0.82081 -0.32881
 C367 C -0.21456 0.86211 -0.28800
 N368 N -0.20025 0.84977 -0.24994
 N369 N -0.18389 0.86331 -0.21596
 C370 C -0.18120 0.88967 -0.21890
 N371 N -0.19620 0.90198 -0.25646
 N372 N -0.21255 0.88847 -0.29033
 C373 C -0.15900 0.90448 -0.18516
 N374 N -0.15165 0.92995 -0.19349
 N375 N -0.12838 0.94297 -0.16624
 C376 C -0.11168 0.93105 -0.12946
 N377 N -0.11948 0.90569 -0.12046
 N378 N -0.14267 0.89259 -0.14795
 C379 C 0.29430 0.65396 0.33892
 N380 N 0.29407 0.68042 0.33976
 N381 N 0.28403 0.69323 0.37827
 C382 C 0.27401 0.68006 0.41744
 N383 N 0.27395 0.65360 0.41615
 N384 N 0.28391 0.64082 0.37775
 C385 C 0.30768 0.63948 0.29806
 N386 N 0.30956 0.61308 0.29955
 N387 N 0.32411 0.59970 0.26433
 C388 C 0.33727 0.61217 0.22616
 N389 N 0.33496 0.63860 0.22426
 N390 N 0.32042 0.65203 0.25963
 C391 C 0.35638 0.59723 0.18980
 N392 N 0.36991 0.60903 0.15103
 N393 N 0.38990 0.59554 0.12036
 C394 C 0.39714 0.56985 0.12758
 N395 N 0.38324 0.55806 0.16599
 N396 N 0.36315 0.57147 0.19643
 C397 C -0.19548 1.15648 0.34519
 N398 N -0.19966 1.18278 0.34392
 N399 N -0.21035 1.19580 0.38194
 C400 C -0.21705 1.18307 0.42278
 N401 N -0.21296 1.15672 0.42356
 N402 N -0.20242 1.14372 0.38567
 C403 C -0.18228 1.14181 0.30443
 N404 N -0.17860 1.11554 0.30721
 N405 N -0.16477 1.10200 0.27172
 C406 C -0.15411 1.11417 0.23198
 N407 N -0.15811 1.14047 0.22886
 N408 N -0.17201 1.15406 0.26448
 C409 C -0.13615 1.09905 0.19490
 N410 N -0.12391 1.11057 0.15515
 N411 N -0.10506 1.09683 0.12364
 C412 C -0.09777 1.07115 0.13094
 N413 N -0.11041 1.05965 0.17033
 N414 N -0.12930 1.07330 0.20163
 C415 C 0.70900 0.34490 0.33248
 N416 N 0.70711 0.31850 0.33496
 N417 N 0.71641 0.30605 0.37429
 C418 C 0.72773 0.31954 0.41266
 N419 N 0.72999 0.34590 0.40972
 N420 N 0.72082 0.35831 0.37050
 C421 C 0.69603 0.35916 0.29098
 N422 N 0.69641 0.38560 0.29095
 N423 N 0.68185 0.39896 0.25550
 C424 C 0.66640 0.38643 0.21861
 N425 N 0.66650 0.35994 0.21817
 N426 N 0.68106 0.34653 0.25377
 C427 C 0.64695 0.40152 0.18246
 N428 N 0.63106 0.38968 0.14500
 N429 N 0.61053 0.40338 0.11492
 C430 C 0.60508 0.42934 0.12147
 N431 N 0.62135 0.44116 0.15851
 N432 N 0.64199 0.42753 0.18833
 C433 C 0.20616 0.84292 0.33380
 N434 N 0.20407 0.81653 0.33612
 N435 N 0.21308 0.80399 0.37545
 C436 C 0.22431 0.81737 0.41399
 N437 N 0.22672 0.84373 0.41124
 N438 N 0.21782 0.85624 0.37201
 C439 C 0.19372 0.85726 0.29213
 N440 N 0.19465 0.88369 0.29194
 N441 N 0.18066 0.89713 0.25622
 C442 C 0.16525 0.88468 0.21920
 N443 N 0.16480 0.85820 0.21892
 N444 N 0.17880 0.84471 0.25478
 C445 C 0.14638 0.89990 0.18273
 N446 N 0.13016 0.88815 0.14541
 N447 N 0.11006 0.90203 0.11511
 C448 C 0.10539 0.92809 0.12130
 N449 N 0.12202 0.93981 0.15819
 N450 N 0.14222 0.92601 0.18822
   
