data_POSCAR
  _audit_creation_date              2014-09-24
  _audit_creation_method            'ToBaCCo'
  _symmetry_space_group_name_H-M    'P1'
  _symmetry_Int_Tables_number       1
  _symmetry_cell_setting            triclinic
  loop_
  _symmetry_equiv_pos_as_xyz
 x,y,z
_cell_length_a 36.5937
_cell_length_b 36.5969
_cell_length_c 36.6123
_cell_angle_alpha 90.166500
_cell_angle_beta 90.217900
_cell_angle_gamma 89.834800
loop_
  _atom_site_label
  _atom_site_type_symbol
  _atom_site_fract_x
  _atom_site_fract_y
  _atom_site_fract_z
N1 N 0.15651 0.15862 0.15613
 N2 N -0.15354 0.84409 0.15812
 N3 N -0.16035 0.15419 -0.15674
 N4 N 0.15634 0.84193 -0.15636
 N5 N 0.15935 1.15731 0.84503
 N6 N 0.84202 0.84442 0.83930
 N7 N 0.15622 0.83992 1.15806
 N8 N 0.84226 1.15858 1.15800
 O9 O 0.44804 0.92902 0.94051
 O10 O 0.40815 0.96425 0.97386
 C11 C 0.41540 0.93883 0.95032
 O12 O 0.55171 0.93305 1.07069
 O13 O 0.59122 0.96627 1.03532
 C14 C 0.58425 0.94284 1.06075
 O15 O 0.44883 0.92930 1.06748
 O16 O 0.40853 0.96439 1.03436
 C17 C 0.41606 0.93905 1.05782
 O18 O 0.55083 0.93278 0.93669
 O19 O 0.59083 0.96613 0.97188
 C20 C 0.58351 0.94263 0.94641
 Zr21 Zr 0.49946 0.94981 0.95765
 O22 O 0.50397 0.89212 0.95803
 O23 O 0.49489 0.94962 0.90000
 Zr24 Zr 0.50006 0.95008 1.05013
 O25 O 0.50453 0.89239 1.04990
 O26 O 0.49626 0.95042 1.10782
 O27 O 0.46725 0.94277 1.00398
 O28 O 0.53152 0.94337 1.00380
 O29 O 0.55015 1.05962 0.93681
 O30 O 0.59049 1.02660 0.97193
 C31 C 0.58291 1.04999 0.94654
 O32 O 0.44820 1.06333 1.06741
 O33 O 0.40823 1.02784 1.03436
 C34 C 0.41553 1.05339 1.05776
 O35 O 0.55107 1.06012 1.07061
 O36 O 0.59092 1.02681 1.03532
 C37 C 0.58371 1.05044 1.06068
 O38 O 0.44736 1.06291 0.94057
 O39 O 0.40781 1.02769 0.97389
 C40 C 0.41481 1.05305 0.95038
 Zr41 Zr 0.49898 1.04235 0.95765
 O42 O 0.50287 1.10006 0.95783
 O43 O 0.49441 1.04199 0.89998
 Zr44 Zr 0.49960 1.04260 1.05015
 O45 O 0.50346 1.10031 1.05017
 O46 O 0.49580 1.04233 1.10784
 Zr47 Zr 0.44530 0.99611 1.00403
 Zr48 Zr 0.55374 0.99634 1.00373
 O49 O 0.53095 1.04920 1.00380
 O50 O 0.46673 1.04954 1.00399
 O51 O 0.53169 0.99614 0.95043
 O52 O 0.46815 0.99630 1.05687
 O53 O 0.46748 0.99600 0.95109
 O54 O 0.53242 0.99644 1.05716
 H55 H 0.54828 0.92207 1.00373
 H56 H 0.45164 0.99633 1.07825
 H57 H 0.54745 1.07061 1.00374
 H58 H 0.45072 0.99592 0.92977
 H59 H 0.51664 0.96543 1.11731
 H60 H 0.51665 1.02791 1.11731
 H61 H 0.48312 1.10980 1.03504
 H62 H 0.48244 1.10963 0.97269
 H63 H 0.51491 1.02721 0.89036
 H64 H 0.51493 0.96484 0.89036
 H65 H 0.48344 0.88257 0.97264
 H66 H 0.48404 0.88276 1.03508
 O67 O 0.06289 0.44744 -0.06773
 O68 O 0.02755 0.40774 -0.03469
 C69 C 0.05303 0.41484 -0.05802
 O70 O 0.05979 0.55087 0.06236
 O71 O 0.02662 0.59084 0.02698
 C72 C 0.05013 0.58354 0.05247
 O73 O 0.06301 0.44801 0.05905
 O74 O 0.02770 0.40805 0.02578
 C75 C 0.05311 0.41535 0.04935
 O76 O 0.05963 0.55028 -0.07147
 O77 O 0.02649 0.59052 -0.03642
 C78 C 0.04998 0.58302 -0.06170
 Zr79 Zr 0.04225 0.49908 -0.05075
 O80 O 0.09996 0.50297 -0.05058
 O81 O 0.04188 0.49464 -0.10841
 Zr82 Zr 0.04247 0.49946 0.04167
 O83 O 0.10018 0.50335 0.04142
 O84 O 0.04255 0.49555 0.09935
 O85 O 0.04942 0.46668 -0.00448
 O86 O 0.04908 0.53095 -0.00457
 O87 O -0.06742 0.55091 -0.07178
 O88 O -0.03405 0.59084 -0.03652
 C89 C -0.05760 0.58358 -0.06197
 O90 O -0.07097 0.44909 0.05931
 O91 O -0.03577 0.40887 0.02644
 C92 C -0.06112 0.41636 0.04985
 O93 O -0.06701 0.55156 0.06219
 O94 O -0.03383 0.59115 0.02689
 C95 C -0.05719 0.58411 0.05234
 O96 O -0.07109 0.44803 -0.06808
 O97 O -0.03584 0.40806 -0.03474
 C98 C -0.06130 0.41537 -0.05826
 Zr99 Zr -0.05028 0.49947 -0.05095
 O100 O -0.10797 0.50393 -0.05081
 O101 O -0.05028 0.49504 -0.10862
 Zr102 Zr -0.05008 0.49997 0.04150
 O103 O -0.10778 0.50448 0.04081
 O104 O -0.04993 0.49615 0.09919
 Zr105 Zr -0.00400 0.44518 -0.00457
 Zr106 Zr -0.00379 0.55371 -0.00472
 O107 O -0.05676 0.53148 -0.00479
 O108 O -0.05734 0.46716 -0.00467
 O109 O -0.00396 0.53177 -0.05803
 O110 O -0.00385 0.46804 0.04825
 O111 O -0.00407 0.46753 -0.05747
 O112 O -0.00371 0.53225 0.04867
 H113 H 0.07048 0.54747 -0.00455
 H114 H -0.00379 0.45163 0.06973
 H115 H -0.07807 0.54825 -0.00484
 H116 H -0.00412 0.45080 -0.07880
 H117 H 0.02764 0.51601 0.10888
 H118 H -0.03468 0.51633 0.10873
 H119 H -0.11738 0.48374 0.02634
 H120 H -0.11754 0.48351 -0.03607
 H121 H -0.03528 0.51529 -0.11818
 H122 H 0.02716 0.51520 -0.11803
 H123 H 0.10953 0.48271 -0.03547
 H124 H 0.10967 0.48257 0.02693
 O125 O 0.93722 0.06770 0.55184
 O126 O 0.97258 0.03453 0.59183
 C127 C 0.94699 0.05789 0.58449
 O128 O 0.94147 -0.06235 0.44852
 O129 O 0.97470 -0.02705 0.40896
 C130 C 0.95126 -0.05247 0.41599
 O131 O 0.93771 -0.05906 0.55125
 O132 O 0.97276 -0.02591 0.59155
 C133 C 0.94742 -0.04938 0.58400
 O134 O 0.94095 0.07146 0.44910
 O135 O 0.97448 0.03636 0.40925
 C136 C 0.95079 0.06167 0.41647
 Zr137 Zr 0.95829 0.05080 0.50050
 O138 O 0.90060 0.05103 0.49598
 O139 O 0.95871 0.10850 0.50500
 Zr140 Zr 0.95852 -0.04175 0.50008
 O141 O 0.90082 -0.04155 0.49553
 O142 O 0.95886 -0.09945 0.50401
 O143 O 0.95119 0.00447 0.53274
 O144 O 0.95182 0.00458 0.46858
 O145 O 1.06808 0.07157 0.44990
 O146 O 1.03504 0.03636 0.40964
 C147 C 1.05844 0.06177 0.41716
 O148 O 1.07154 -0.05925 0.55209
 O149 O 1.03617 -0.02599 0.59192
 C150 C 1.06157 -0.04959 0.58470
 O151 O 1.06829 -0.06253 0.44927
 O152 O 1.03516 -0.02711 0.40932
 C153 C 1.05859 -0.05265 0.41661
 O154 O 1.07135 0.06788 0.55274
 O155 O 1.03607 0.03457 0.59224
 C156 C 1.06145 0.05808 0.58527
 Zr157 Zr 1.05081 0.05077 0.50111
 O158 O 1.10852 0.05056 0.49730
 O159 O 1.05045 0.10846 0.50555
 Zr160 Zr 1.05108 -0.04174 0.50066
 O161 O 1.10879 -0.04119 0.49683
 O162 O 1.05139 -0.09944 0.50454
 Zr163 Zr 1.00451 0.00440 0.55478
 Zr164 Zr 1.00479 0.00459 0.44640
 O165 O 1.05766 0.00456 0.46921
 O166 O 1.05797 0.00444 0.53346
 O167 O 1.00461 0.05795 0.46830
 O168 O 1.00473 -0.04846 0.53201
 O169 O 1.00444 0.05737 0.53255
 O170 O 1.00489 -0.04882 0.46785
 H171 H 0.93048 0.00459 0.45186
 H172 H 1.00471 -0.06988 0.54850
 H173 H 1.07904 0.00456 0.45268
 H174 H 1.00431 0.07867 0.54932
 H175 H 0.97368 -0.10900 0.48354
 H176 H 1.03603 -0.10900 0.48441
 H177 H 1.11823 -0.02694 0.51781
 H178 H 1.11805 0.03557 0.51767
 H179 H 1.03550 0.11804 0.48513
 H180 H 0.97299 0.11806 0.48425
 H181 H 0.89099 0.03550 0.51578
 H182 H 0.89115 -0.02683 0.51604
 C183 C 1.14739 0.15078 0.19198
 C184 C 1.13884 0.14336 0.22286
 C185 C 1.12767 0.13344 0.25913
 C186 C 1.14875 0.10889 0.27966
 C187 C 1.13625 0.09674 0.31356
 C188 C 1.10264 0.10912 0.32707
 C189 C 1.08194 0.13430 0.30691
 C190 C 1.09445 0.14645 0.27302
 C191 C 1.08803 0.09382 0.36007
 C192 C 1.07497 0.07984 0.38675
 H193 H 1.17436 0.09846 0.26906
 H194 H 1.15231 0.07702 0.32878
 H195 H 1.05575 0.14379 0.31694
 H196 H 1.07781 0.16525 0.25726
 C197 C 0.85717 -0.14654 0.19327
 C198 C 0.86699 -0.13786 0.22353
 C199 C 0.87950 -0.12661 0.25910
 C200 C 0.85857 -0.10221 0.27994
 C201 C 0.87200 -0.08913 0.31330
 C202 C 0.90639 -0.10043 0.32594
 C203 C 0.92703 -0.12534 0.30542
 C204 C 0.91360 -0.13842 0.27206
 C205 C 0.92152 -0.08467 0.35867
 C206 C 0.93477 -0.07050 0.38533
 H207 H 0.83226 -0.09273 0.27006
 H208 H 0.85594 -0.06967 0.32883
 H209 H 0.95379 -0.13403 0.31481
 H210 H 0.93010 -0.15711 0.25605
 C211 C 0.84937 0.14498 0.80784
 C212 C 0.85838 0.13643 0.77733
 C213 C 0.87009 0.12534 0.74151
 C214 C 0.85825 0.09198 0.72687
 C215 C 0.87186 0.07974 0.69336
 C216 C 0.89735 0.10083 0.67433
 C217 C 0.90865 0.13453 0.68862
 C218 C 0.89504 0.14677 0.72215
 C219 C 0.91377 0.08669 0.64156
 C220 C 0.92844 0.07401 0.61496
 H221 H 0.83914 0.07509 0.74173
 H222 H 0.86317 0.05350 0.68270
 H223 H 0.92857 0.15091 0.67427
 H224 H 0.90455 0.17250 0.73334
 C225 C 1.14855 -0.14703 0.80826
 C226 C 1.14122 -0.13687 0.77779
 C227 C 1.13149 -0.12392 0.74199
 C228 C 1.10830 -0.14465 0.71959
 C229 C 1.09646 -0.13071 0.68603
 C230 C 1.10777 -0.09600 0.67474
 C231 C 1.13155 -0.07558 0.69680
 C232 C 1.14340 -0.08952 0.73035
 C233 C 1.09290 -0.08028 0.64192
 C234 C 1.07926 -0.06656 0.61526
 H235 H 1.09874 -0.17117 0.72843
 H236 H 1.07783 -0.14660 0.66932
 H237 H 1.14022 -0.04859 0.68847
 H238 H 1.16115 -0.07317 0.74756
 C239 C 0.19196 1.14890 1.14697
 C240 C 0.22249 1.13998 1.13836
 C241 C 0.25834 1.12851 1.12706
 C242 C 0.27755 1.10227 1.14733
 C243 C 0.31111 1.08900 1.13475
 C244 C 0.32559 1.10193 1.10187
 C245 C 0.30672 1.12868 1.08198
 C246 C 0.27317 1.14196 1.09456
 C247 C 0.35839 1.08594 1.08726
 C248 C 0.38502 1.07161 1.07422
 H249 H 0.26621 1.09152 1.17238
 H250 H 0.32534 1.06809 1.15020
 H251 H 0.31752 1.13865 1.05637
 H252 H 0.25843 1.16208 1.07856
 C253 C 0.19174 0.84974 0.85472
 C254 C 0.22224 0.85716 0.86483
 C255 C 0.25808 0.86714 0.87761
 C256 C 0.28049 0.88926 0.85607
 C257 C 0.31407 0.90146 0.86972
 C258 C 0.32535 0.89156 0.90495
 C259 C 0.30327 0.86882 0.92620
 C260 C 0.26970 0.85662 0.91255
 C261 C 0.35819 0.90685 0.92027
 C262 C 0.38485 0.92082 0.93367
 H263 H 0.27166 0.89774 0.82911
 H264 H 0.33080 0.91927 0.85318
 H265 H 0.31159 0.86126 0.95359
 H266 H 0.25247 0.83971 0.92951
 C267 C 0.81060 0.85350 1.15002
 C268 C 0.77971 0.86227 1.14241
 C269 C 0.74340 0.87365 1.13232
 C270 C 0.72266 0.85244 1.10803
 C271 C 0.68864 0.86503 1.09581
 C272 C 0.67521 0.89886 1.10786
 C273 C 0.69561 0.91970 1.13275
 C274 C 0.72962 0.90711 1.14497
 C275 C 0.64198 0.91345 1.09260
 C276 C 0.61504 0.92644 1.07868
 H277 H 0.73317 0.82664 1.09789
 H278 H 0.67323 0.84885 1.07632
 H279 H 0.68563 0.94604 1.14199
 H280 H 0.74554 0.92384 1.16356
 C281 C 0.80450 1.14373 0.85245
 C282 C 0.77424 1.13409 0.86100
 C283 C 0.73872 1.12176 0.87214
 C284 C 0.72569 1.08781 0.86012
 C285 C 0.69246 1.07446 0.87318
 C286 C 0.67213 1.09502 0.89829
 C287 C 0.68481 1.12928 0.90978
 C288 C 0.71805 1.14263 0.89672
 C289 C 0.63962 1.07989 0.91412
 C290 C 0.61322 1.06658 0.92838
 H291 H 0.74157 1.07136 0.84130
 H292 H 0.68303 1.04781 0.86434
 H293 H 0.66944 1.14526 0.92940
 H294 H 0.72800 1.16880 0.90637
 C295 C 0.14699 0.19367 0.14536
 C296 C 0.13823 0.22384 0.13542
 C297 C 0.12695 0.25928 0.12270
 C298 C 0.13966 0.27235 0.08915
 C299 C 0.12662 0.30555 0.07543
 C300 C 0.10085 0.32582 0.09522
 C301 C 0.08865 0.31308 0.12909
 C302 C 0.10168 0.27986 0.14281
 C303 C 0.08519 0.35838 0.07972
 C304 C 0.07109 0.38487 0.06616
 H305 H 0.15903 0.25653 0.07329
 H306 H 0.13602 0.31502 0.04908
 H307 H 0.06852 0.32841 0.14448
 H308 H 0.09151 0.26989 0.16868
 C309 C -0.15218 0.18998 -0.14734
 C310 C -0.14446 0.22082 -0.13861
 C311 C -0.13417 0.25705 -0.12733
 C312 C -0.14660 0.27107 -0.09395
 C313 C -0.13413 0.30496 -0.08142
 C314 C -0.10920 0.32499 -0.10224
 C315 C -0.09737 0.31134 -0.13600
 C316 C -0.10984 0.27743 -0.14852
 C317 C -0.09365 0.35804 -0.08769
 C318 C -0.07950 0.38481 -0.07470
 H319 H -0.16522 0.25542 -0.07723
 H320 H -0.14320 0.31511 -0.05513
 H321 H -0.07785 0.32645 -0.15216
 H322 H -0.09986 0.26673 -0.17426
 C323 C 0.14556 0.80646 -0.14885
 C324 C 0.13566 0.77592 -0.14170
 C325 C 0.12302 0.74004 -0.13208
 C326 C 0.14428 0.71770 -0.10934
 C327 C 0.13065 0.68412 -0.09748
 C328 C 0.09571 0.67276 -0.10832
 C329 C 0.07476 0.69476 -0.13168
 C330 C 0.08839 0.72833 -0.14355
 C331 C 0.08030 0.63998 -0.09332
 C332 C 0.06678 0.61341 -0.07955
 H333 H 0.17099 0.72660 -0.10012
 H334 H 0.14695 0.66745 -0.07917
 H335 H 0.04758 0.68638 -0.13997
 H336 H 0.07163 0.74551 -0.16093
 C337 C -0.14446 0.80857 0.14840
 C338 C -0.13598 0.77798 0.13945
 C339 C -0.12492 0.74203 0.12788
 C340 C -0.09208 0.72703 0.14082
 C341 C -0.07981 0.69336 0.12744
 C342 C -0.10034 0.67455 0.10108
 C343 C -0.13353 0.68921 0.08867
 C344 C -0.14581 0.72289 0.10205
 C345 C -0.08610 0.64158 0.08499
 C346 C -0.07335 0.61481 0.07059
 H347 H -0.07561 0.74172 0.16062
 H348 H -0.05396 0.68241 0.13700
 H349 H -0.14947 0.67502 0.06808
 H350 H -0.17112 0.73436 0.09170
 C351 C 1.15162 0.14836 0.81110
 C352 C 1.14389 0.13951 0.78023
 C353 C 1.13359 0.12798 0.74401
 C354 C 1.10890 0.14891 0.72346
 C355 C 1.09647 0.13613 0.68957
 C356 C 1.10869 0.10238 0.67610
 C357 C 1.13396 0.08181 0.69631
 C358 C 1.14639 0.09459 0.73018
 C359 C 1.09332 0.08764 0.64295
 C360 C 1.07937 0.07456 0.61606
 H361 H 1.09862 0.17464 0.73399
 H362 H 1.07670 0.15213 0.67432
 H363 H 1.14336 0.05554 0.68631
 H364 H 1.16529 0.07806 0.74595
 C365 C 0.85153 -0.14478 0.80434
 C366 C 0.86040 -0.13480 0.77428
 C367 C 0.87196 -0.12204 0.73904
 C368 C 0.86075 -0.08759 0.72662
 C369 C 0.87417 -0.07392 0.69366
 C370 C 0.89884 -0.09467 0.67297
 C371 C 0.90954 -0.12940 0.68506
 C372 C 0.89613 -0.14306 0.71802
 C373 C 0.91489 -0.07939 0.64063
 C374 C 0.92924 -0.06601 0.61430
 H375 H 0.84226 -0.07100 0.74276
 H376 H 0.86592 -0.04693 0.68472
 H377 H 0.92880 -0.14556 0.66940
 H378 H 0.90516 -0.16963 0.72748
 C379 C 1.14712 -0.15025 0.19350
 C380 C 1.13855 -0.14111 0.22398
 C381 C 1.12732 -0.12925 0.25975
 C382 C 1.14783 -0.10305 0.27876
 C383 C 1.13534 -0.08937 0.31220
 C384 C 1.10231 -0.10185 0.32676
 C385 C 1.08216 -0.12856 0.30808
 C386 C 1.09465 -0.14224 0.27466
 C387 C 1.08785 -0.08554 0.35950
 C388 C 1.07495 -0.07101 0.38609
 H389 H 1.17301 -0.09263 0.26737
 H390 H 1.15100 -0.06852 0.32627
 H391 H 1.05643 -0.13820 0.31894
 H392 H 1.07845 -0.16232 0.26007
 C393 C 0.85334 0.15065 0.19338
 C394 C 0.86356 0.14310 0.22381
 C395 C 0.87661 0.13301 0.25953
 C396 C 0.91134 0.14418 0.27123
 C397 C 0.92532 0.13194 0.30466
 C398 C 0.90462 0.10851 0.32653
 C399 C 0.86959 0.09792 0.31516
 C400 C 0.85562 0.11015 0.28173
 C401 C 0.92028 0.09333 0.35928
 C402 C 0.93392 0.07950 0.38591
 H403 H 0.92791 0.16165 0.25418
 H404 H 0.95255 0.14006 0.31303
 H405 H 0.85346 0.07958 0.33172
 H406 H 0.82883 0.10115 0.27284
 C407 C 0.15012 0.19094 -0.14633
 C408 C 0.14106 0.22153 -0.13777
 C409 C 0.12928 0.25740 -0.12656
 C410 C 0.10292 0.27626 -0.14706
 C411 C 0.08931 0.30980 -0.13459
 C412 C 0.10201 0.32460 -0.10157
 C413 C 0.12887 0.30607 -0.08143
 C414 C 0.14248 0.27255 -0.09391
 C415 C 0.08577 0.35746 -0.08714
 C416 C 0.07131 0.38417 -0.07428
 H417 H 0.09234 0.26469 -0.17222
 H418 H 0.06835 0.32375 -0.15024
 H419 H 0.13868 0.31712 -0.05573
 H420 H 0.16267 0.25808 -0.07771
 C421 C -0.14983 0.19393 0.14706
 C422 C -0.14230 0.22434 0.13697
 C423 C -0.13222 0.26002 0.12408
 C424 C -0.10843 0.28185 0.14472
 C425 C -0.09623 0.31521 0.13081
 C426 C -0.10779 0.32687 0.09621
 C427 C -0.13215 0.30538 0.07588
 C428 C -0.14436 0.27203 0.08979
 C429 C -0.09267 0.35950 0.08053
 C430 C -0.07889 0.38599 0.06682
 H431 H -0.09867 0.27272 0.17115
 H432 H -0.07716 0.33147 0.14663
 H433 H -0.14104 0.31398 0.04897
 H434 H -0.16256 0.25526 0.07350
 C435 C -0.14843 0.80864 -0.15257
 C436 C -0.13949 0.77784 -0.14486
 C437 C -0.12783 0.74169 -0.13457
 C438 C -0.14897 0.72096 -0.11048
 C439 C -0.13611 0.68716 -0.09802
 C440 C -0.10208 0.67395 -0.10960
 C441 C -0.08130 0.69434 -0.13428
 C442 C -0.09415 0.72812 -0.14674
 C443 C -0.08728 0.64093 -0.09413
 C444 C -0.07414 0.61417 -0.08007
 H445 H -0.17493 0.73130 -0.10069
 H446 H -0.15227 0.67178 -0.07871
 H447 H -0.05480 0.68454 -0.14317
 H448 H -0.07747 0.74403 -0.16516
 C449 C 0.14550 0.80486 0.14846
 C450 C 0.13559 0.77471 0.13952
 C451 C 0.12290 0.73934 0.12789
 C452 C 0.08887 0.72653 0.13962
 C453 C 0.07522 0.69345 0.12618
 C454 C 0.09555 0.67301 0.10096
 C455 C 0.12988 0.68549 0.08972
 C456 C 0.14353 0.71859 0.10316
 C457 C 0.08023 0.64051 0.08493
 C458 C 0.06680 0.61404 0.07060
 H459 H 0.07259 0.74247 0.15855
 H460 H 0.04853 0.68419 0.13485
 H461 H 0.14571 0.67004 0.07004
 H462 H 0.16976 0.72835 0.09373
 C463 C 0.19262 1.14832 0.85524
 C464 C 0.22287 1.13948 0.86519
 C465 C 0.25832 1.12796 0.87792
 C466 C 0.27920 1.10352 0.85707
 C467 C 0.31240 1.09017 0.87071
 C468 C 0.32485 1.10122 0.90525
 C469 C 0.30427 1.12616 0.92582
 C470 C 0.27108 1.13951 0.91217
 C471 C 0.35749 1.08529 0.92052
 C472 C 0.38411 1.07107 0.93385
 H473 H 0.26948 1.09423 0.83065
 H474 H 0.32796 1.07070 0.85469
 H475 H 0.31350 1.13468 0.95267
 H476 H 0.25505 1.15822 0.92863
 C477 C 0.19192 0.84816 1.14857
 C478 C 0.22263 0.85596 1.13968
 C479 C 0.25868 0.86635 1.12809
 C480 C 0.27234 0.85360 1.09468
 C481 C 0.30600 0.86612 1.08185
 C482 C 0.32616 0.89143 1.10239
 C483 C 0.31286 0.90360 1.13616
 C484 C 0.27919 0.89108 1.14898
 C485 C 0.35903 0.90692 1.08757
 C486 C 0.38564 0.92098 1.07441
 H487 H 0.25659 0.83468 1.07818
 H488 H 0.31586 0.85677 1.05556
 H489 H 0.32808 0.92340 1.15212
 H490 H 0.26878 0.90132 1.17473
 C491 C 0.80687 1.14762 1.14994
 C492 C 0.77644 1.13750 1.14229
 C493 C 0.74071 1.12456 1.13208
 C494 C 0.72887 1.09018 1.14381
 C495 C 0.69544 1.07626 1.13151
 C496 C 0.67370 1.09668 1.10743
 C497 C 0.68521 1.13137 1.09627
 C498 C 0.71864 1.14529 1.10857
 C499 C 0.64094 1.08103 1.09225
 C500 C 0.61430 1.06736 1.07845
 H501 H 0.74582 1.07381 1.16179
 H502 H 0.68695 1.04928 1.14009
 H503 H 0.66875 1.14728 1.07743
 H504 H 0.72764 1.17180 1.09912
 C505 C 0.80658 0.85369 0.84902
 C506 C 0.77610 0.86239 0.85806
 C507 C 0.74033 0.87377 0.86983
 C508 C 0.72117 0.85295 0.89544
 C509 C 0.68774 0.86552 0.90907
 C510 C 0.67334 0.89896 0.89714
 C511 C 0.69217 0.91944 0.87102
 C512 C 0.72558 0.90686 0.85738
 C513 C 0.64061 0.91344 0.91345
 C514 C 0.61402 0.92634 0.92801
 H515 H 0.73243 0.82744 0.90543
 H516 H 0.67355 0.84960 0.92947
 H517 H 0.68143 0.94547 0.86181
 H518 H 0.74028 0.92330 0.83778
   
