data_POSCAR
  _audit_creation_date              2014-09-24
  _audit_creation_method            'ToBaCCo'
  _symmetry_space_group_name_H-M    'P1'
  _symmetry_Int_Tables_number       1
  _symmetry_cell_setting            triclinic
  loop_
  _symmetry_equiv_pos_as_xyz
 x,y,z
_cell_length_a 23.7030
_cell_length_b 23.7031
_cell_length_c 23.7020
_cell_angle_alpha 95.548000
_cell_angle_beta 84.416900
_cell_angle_gamma 95.641700
loop_
  _atom_site_label
  _atom_site_type_symbol
  _atom_site_fract_x
  _atom_site_fract_y
  _atom_site_fract_z
O1 O 0.55872 0.50647 0.05541
 O2 O 0.40540 0.49704 0.03840
 O3 O 0.47672 0.42514 0.05466
 O4 O 0.48705 0.57847 0.03531
 O5 O 0.50531 0.55887 -0.05740
 O6 O 0.49470 0.40605 -0.03820
 O7 O 0.42318 0.47774 -0.05444
 O8 O 0.57700 0.48690 -0.03729
 Cu9 Cu 0.48042 0.50392 0.05531
 Cu10 Cu 0.50204 0.48069 -0.05620
 C11 C 0.59370 0.49741 0.01225
 C12 C 0.38835 0.48571 -0.01083
 C13 C 0.48383 0.38976 0.01138
 C14 C 0.49708 0.59442 -0.01457
 O15 O -0.05377 0.57643 0.52208
 O16 O -0.03655 0.42268 0.51304
 O17 O -0.03741 0.50491 0.59379
 O18 O -0.05668 0.49437 0.44100
 O19 O 0.03604 0.51277 0.42130
 O20 O 0.05545 0.52304 0.57458
 O21 O 0.05616 0.44109 0.49336
 O22 O 0.03907 0.59437 0.50267
 Cu23 Cu -0.05547 0.49758 0.51918
 Cu24 Cu 0.05605 0.51939 0.49582
 C25 C -0.01018 0.61133 0.51406
 C26 C 0.01300 0.40606 0.50251
 C27 C 0.01219 0.51585 0.61001
 C28 C -0.01386 0.50268 0.40540
 O29 O 0.51339 0.03642 0.57913
 O30 O 0.52258 0.05369 0.42533
 O31 O 0.44147 0.05659 0.50737
 O32 O 0.59422 0.03729 0.49688
 O33 O 0.57490 -0.05556 0.47889
 O34 O 0.42165 -0.03611 0.48911
 O35 O 0.50306 -0.03915 0.40753
 O36 O 0.49360 -0.05627 0.56085
 Cu37 Cu 0.51964 0.05537 0.50418
 Cu38 Cu 0.49614 -0.05614 0.48255
 C39 C 0.50277 -0.01313 0.59584
 C40 C 0.51451 0.01010 0.39051
 C41 C 0.40582 0.01379 0.49910
 C42 C 0.61038 -0.01231 0.48600
 C43 C 0.50021 -0.11926 -0.12158
 C44 C 0.50372 -0.06252 -0.13391
 C45 C 0.50519 -0.01878 -0.08972
 C46 C 0.49976 -0.03107 -0.03204
 C47 C 0.49454 -0.08898 -0.02074
 C48 C 0.49646 -0.13247 -0.06511
 C49 C 0.49944 0.01585 0.01574
 C50 C 0.51073 0.00577 0.07136
 C51 C 0.50877 0.04914 0.11589
 C52 C 0.49870 0.10389 0.10528
 C53 C 0.48901 0.11533 0.05066
 C54 C 0.48777 0.07155 0.00656
 H55 H 0.50037 -0.15307 -0.15586
 H56 H 0.51092 0.02450 -0.10131
 H57 H 0.48859 -0.10131 0.02227
 H58 H 0.52138 -0.03530 0.08100
 H59 H 0.49846 0.13770 0.13959
 H60 H 0.47743 0.08183 -0.03440
 C61 C -0.12072 0.49963 1.11906
 C62 C -0.13301 0.49614 1.06233
 C63 C -0.08879 0.49467 1.01859
 C64 C -0.03111 0.50009 1.03088
 C65 C -0.01986 0.50527 1.08879
 C66 C -0.06426 0.50335 1.13228
 C67 C 0.01669 0.50045 0.98395
 C68 C 0.07233 0.48926 0.99405
 C69 C 0.11687 0.49125 0.95065
 C70 C 0.10626 0.50125 0.89587
 C71 C 0.05164 0.51085 0.88442
 C72 C 0.00753 0.51206 0.92822
 H73 H -0.15503 0.49947 1.15288
 H74 H -0.10037 0.48895 0.97532
 H75 H 0.02314 0.51120 1.10112
 H76 H 0.08197 0.47867 1.03514
 H77 H 0.14058 0.50151 0.86205
 H78 H -0.03343 0.52235 0.91791
 C79 C -0.10369 -0.10651 0.49955
 C80 C -0.04887 -0.11716 0.50930
 C81 C -0.00545 -0.07260 0.51131
 C82 C -0.01555 -0.01688 0.50035
 C83 C -0.07134 -0.00768 0.48897
 C84 C -0.11516 -0.05182 0.49019
 C85 C 0.03142 0.03096 0.50072
 C86 C 0.01919 0.08864 0.50597
 C87 C 0.06297 0.13287 0.50451
 C88 C 0.11968 0.12062 0.50122
 C89 C 0.13285 0.06418 0.49767
 C90 C 0.08933 0.01975 0.49571
 H91 H -0.13753 -0.14085 0.49928
 H92 H 0.03566 -0.08232 0.52172
 H93 H -0.08170 0.03332 0.47887
 H94 H -0.02406 0.10022 0.51155
 H95 H 0.15352 0.15494 0.50139
 H96 H 0.10168 -0.02322 0.48990
 C97 C -0.34694 0.49767 1.02011
 C98 C -0.29752 0.49699 1.02811
 C99 C -0.24004 0.49589 1.03889
 C100 C -0.19121 0.49541 1.04910
 C101 C 0.33184 0.48311 0.98297
 C102 C 0.28177 0.48207 0.97732
 C103 C 0.22354 0.48278 0.96988
 C104 C 0.17441 0.48539 0.96216
 C105 C -0.01641 -0.33218 0.51672
 C106 C -0.02209 -0.28211 0.51787
 C107 C -0.02958 -0.22388 0.51733
 C108 C -0.03735 -0.17474 0.51491
 C109 C 0.02088 0.34672 0.50237
 C110 C 0.02888 0.29732 0.50317
 C111 C 0.03963 0.23987 0.50442
 C112 C 0.04979 0.19105 0.50505
 C113 C 0.50249 -0.02057 -0.34799
 C114 C 0.50307 -0.02847 -0.29852
 C115 C 0.50408 -0.03916 -0.24100
 C116 C 0.50450 -0.04932 -0.19213
 C117 C 0.51730 0.01668 0.33079
 C118 C 0.51825 0.02237 0.28074
 C119 C 0.51743 0.02987 0.22253
 C120 C 0.51474 0.03763 0.17341
 C121 C 0.49768 -0.34640 -0.02317
 C122 C 0.49720 -0.29710 -0.03161
 C123 C 0.49623 -0.23971 -0.04260
 C124 C 0.49579 -0.19085 -0.05264
 C125 C 0.48067 0.33022 0.01867
 C126 C 0.47950 0.28026 0.02473
 C127 C 0.48021 0.22212 0.03235
 C128 C 0.48292 0.17298 0.03988
 C129 C -0.33010 -0.01964 0.48276
 C130 C -0.28015 -0.02575 0.48146
 C131 C -0.22201 -0.03343 0.48194
 C132 C -0.17286 -0.04101 0.48442
 C133 C 0.34668 0.02241 0.49959
 C134 C 0.29740 0.03085 0.49898
 C135 C 0.24005 0.04180 0.49783
 C136 C 0.19121 0.05178 0.49721
 C137 C -0.02247 0.50209 1.34623
 C138 C -0.03089 0.50258 1.29693
 C139 C -0.04184 0.50355 1.23954
 C140 C -0.05184 0.50401 1.19066
 C141 C 0.01951 0.51902 0.66953
 C142 C 0.02562 0.52021 0.71948
 C143 C 0.03329 0.51954 0.77762
 C144 C 0.04085 0.51688 0.82675
   
