data_POSCAR
  _audit_creation_date              2014-09-24
  _audit_creation_method            'ToBaCCo'
  _symmetry_space_group_name_H-M    'P1'
  _symmetry_Int_Tables_number       1
  _symmetry_cell_setting            triclinic
  loop_
  _symmetry_equiv_pos_as_xyz
 x,y,z
_cell_length_a 23.5844
_cell_length_b 24.0521
_cell_length_c 23.6487
_cell_angle_alpha 90.116300
_cell_angle_beta 90.295900
_cell_angle_gamma 90.139200
loop_
  _atom_site_label
  _atom_site_type_symbol
  _atom_site_fract_x
  _atom_site_fract_y
  _atom_site_fract_z
C1 C 0.52630 0.96640 -0.50016
 C2 C 0.46899 0.96358 -0.50243
 C3 C 0.43731 0.95390 -0.55551
 C4 C 0.43236 0.97399 -0.45313
 C5 C 0.55783 0.97295 -0.44602
 C6 C 0.56072 0.96583 -0.55250
 C7 C 0.40033 0.90851 -0.55845
 C8 C 0.35878 0.90568 -0.60034
 C9 C 0.35254 0.94904 -0.64028
 C10 C 0.39428 0.99168 -0.64005
 C11 C 0.43556 0.99443 -0.59768
 C12 C 0.39289 1.01741 -0.45673
 C13 C 0.35034 1.02257 -0.41672
 C14 C 0.34679 0.98464 -0.37204
 C15 C 0.38828 0.94310 -0.36632
 C16 C 0.43061 0.93735 -0.40715
 C17 C 0.54726 1.01714 -0.40848
 C18 C 0.58004 1.02348 -0.35931
 C19 C 0.62468 0.98653 -0.34784
 C20 C 0.63504 0.94257 -0.38548
 C21 C 0.60184 0.93574 -0.43388
 C22 C 0.55805 0.92177 -0.59158
 C23 C 0.59043 0.92347 -0.64105
 C24 C 0.62645 0.96895 -0.65160
 C25 C 0.62915 1.01253 -0.61202
 C26 C 0.59665 1.01098 -0.56312
 H27 H 0.40172 0.87655 -0.52623
 H28 H 0.33158 0.86963 -0.59942
 H29 H 0.39325 1.02546 -0.67025
 H30 H 0.46368 1.03007 -0.59569
 H31 H 0.39380 1.04616 -0.49193
 H32 H 0.31972 1.05579 -0.42112
 H33 H 0.46035 0.90323 -0.40420
 H34 H 0.51472 1.04746 -0.41787
 H35 H 0.57204 1.05845 -0.33161
 H36 H 0.66928 0.91360 -0.37765
 H37 H 0.61098 0.90167 -0.46243
 H38 H 0.53125 0.88605 -0.58359
 H39 H 0.58848 0.88863 -0.67002
 H40 H 0.65650 1.04809 -0.61893
 H41 H 0.59924 1.04538 -0.53355
 H42 H 0.38636 0.91370 -0.33175
 C43 C -0.46955 1.50802 -0.00503
 C44 C -0.52683 1.50877 -0.00331
 C45 C -0.56187 1.45789 -0.00874
 C46 C -0.56003 1.56038 0.00407
 C47 C -0.43472 1.55861 -0.01386
 C48 C -0.43631 1.45633 0.00194
 C49 C -0.60000 1.45458 -0.05435
 C50 C -0.64333 1.41516 -0.05476
 C51 C -0.64942 1.37808 -0.00947
 C52 C -0.60895 1.37887 0.03450
 C53 C -0.56568 1.41897 0.03518
 C54 C -0.56550 1.59961 -0.03942
 C55 C -0.60770 1.64049 -0.03640
 C56 C -0.64546 1.64165 0.00948
 C57 C -0.63752 1.60431 0.05427
 C58 C -0.59518 1.56420 0.05159
 C59 C -0.43112 1.60119 0.02653
 C60 C -0.38900 1.64223 0.02207
 C61 C -0.34848 1.64035 -0.02184
 C62 C -0.35526 1.59926 -0.06402
 C63 C -0.39769 1.55919 -0.05994
 C64 C -0.39946 1.45285 0.04850
 C65 C -0.35749 1.41227 0.05053
 C66 C -0.35135 1.37431 0.00584
 C67 C -0.39078 1.37530 -0.03906
 C68 C -0.43279 1.41644 -0.04127
 H69 H -0.59783 1.48450 -0.08846
 H70 H -0.67279 1.41449 -0.09002
 H71 H -0.61255 1.35038 0.06971
 H72 H -0.53729 1.42157 0.07124
 H73 H -0.53943 1.59666 -0.07686
 H74 H -0.61286 1.66919 -0.07127
 H75 H -0.59169 1.53407 0.08542
 H76 H -0.45888 1.60111 0.06286
 H77 H -0.38624 1.67337 0.05512
 H78 H -0.32834 1.59745 -0.10077
 H79 H -0.40026 1.52696 -0.09194
 H80 H -0.40144 1.48350 0.08207
 H81 H -0.32891 1.41154 0.08650
 H82 H -0.38715 1.34620 -0.07385
 H83 H -0.46028 1.41910 -0.07798
 H84 H -0.66501 1.60521 0.09080
 C85 C 0.00708 0.47819 0.50245
 C86 C 0.00807 0.53512 0.50276
 C87 C 0.01076 0.56827 0.55634
 C88 C 0.00596 0.56819 0.44929
 C89 C 0.00853 0.44546 0.44857
 C90 C 0.00405 0.44475 0.55571
 C91 C 0.05133 0.55766 0.59868
 C92 C 0.05422 0.59086 0.64748
 C93 C 0.01762 0.63689 0.65450
 C94 C -0.02237 0.64738 0.61115
 C95 C -0.02598 0.61345 0.56333
 C96 C -0.03703 0.55999 0.40863
 C97 C -0.03976 0.59354 0.36025
 C98 C -0.00025 0.63673 0.35223
 C99 C 0.04241 0.64493 0.39312
 C100 C 0.04563 0.61096 0.44086
 C101 C -0.02998 0.40164 0.44058
 C102 C -0.02738 0.36798 0.39253
 C103 C 0.01326 0.37755 0.34994
 C104 C 0.05155 0.42229 0.35791
 C105 C 0.04971 0.45509 0.40696
 C106 C 0.04009 0.39895 0.56261
 C107 C 0.03551 0.36439 0.60974
 C108 C -0.00461 0.37499 0.65254
 C109 C -0.04042 0.42165 0.64566
 C110 C -0.03670 0.45537 0.59748
 H111 H 0.08147 0.52416 0.59360
 H112 H 0.08705 0.58133 0.67790
 H113 H -0.05177 0.68177 0.61406
 H114 H -0.05752 0.62283 0.53131
 H115 H -0.06908 0.52831 0.41483
 H116 H -0.07393 0.58692 0.33024
 H117 H 0.07892 0.61841 0.47169
 H118 H -0.06203 0.39304 0.47205
 H119 H -0.05804 0.33456 0.38879
 H120 H 0.08497 0.43093 0.32813
 H121 H 0.08121 0.48744 0.41286
 H122 H 0.07167 0.38947 0.53094
 H123 H 0.06428 0.32947 0.61264
 H124 H -0.07343 0.43121 0.67559
 H125 H -0.06647 0.48920 0.59237
 H126 H 0.07339 0.67786 0.38820
 O127 O -0.14312 1.00505 -0.07850
 O128 O 0.14810 1.00595 -0.06857
 O129 O 0.00366 1.08019 -0.14404
 O130 O 0.00473 0.93051 -0.14198
 O131 O 0.00518 0.86227 -0.07338
 O132 O -0.00061 1.15017 -0.07717
 O133 O 0.08169 1.00258 -0.14015
 O134 O -0.07163 1.00612 -0.14462
 Zr135 Zr 0.00344 1.00597 -0.09665
 O136 O 0.05372 0.95646 -0.04682
 O137 O -0.04976 1.05661 -0.05094
 C138 C -0.12453 1.00519 -0.13017
 C139 C 0.13347 1.00227 -0.12116
 C140 C 0.00190 1.13212 -0.12899
 C141 C 0.00498 0.87901 -0.12569
 H142 H 0.07765 1.08131 -0.07171
 O143 O 0.05255 1.05815 -0.04802
 H144 H -0.07224 0.93118 -0.07315
 O145 O -0.04834 0.95545 -0.04905
 O146 O 0.14455 1.01313 0.08140
 O147 O -0.14630 1.00436 0.07563
 O148 O 0.07710 1.15212 0.00442
 O149 O 0.08059 0.86500 0.00274
 O150 O -0.07515 0.86276 0.00442
 O151 O -0.07864 1.14969 -0.00394
 O152 O -0.00200 1.08436 0.14621
 O153 O -0.00182 0.93459 0.14815
 O154 O -0.00044 1.15254 0.07756
 O155 O 0.00005 0.86439 0.08148
 O156 O 0.14521 1.08355 0.00814
 O157 O -0.14573 1.07961 -0.00590
 O158 O -0.14407 0.93087 0.00392
 O159 O 0.14719 0.93543 0.00345
 O160 O 0.07478 1.01114 0.14921
 O161 O -0.07746 1.00657 0.14515
 Zr162 Zr 0.09941 1.00886 0.00494
 Zr163 Zr -0.09852 1.00591 -0.00027
 Zr164 Zr -0.00027 1.10648 0.00079
 Zr165 Zr 0.00208 0.90822 0.00349
 Zr166 Zr -0.00079 1.00877 0.10097
 O167 O -0.05063 0.95660 0.05267
 O168 O 0.05041 1.05995 0.05410
 C169 C 0.12719 1.01321 0.13313
 C170 C -0.12967 1.00487 0.12812
 C171 C 0.12934 1.13502 0.00816
 C172 C 0.13247 0.88356 0.00153
 C173 C -0.12750 0.87959 0.00589
 C174 C -0.13056 1.13140 -0.00725
 C175 C -0.00171 1.13586 0.12984
 C176 C -0.00092 0.88260 0.13335
 H177 H -0.07698 1.08146 0.07401
 O178 O -0.05171 1.05793 0.05092
 H179 H 0.07609 0.93512 0.07969
 O180 O 0.05153 0.95795 0.05499
 C181 C 0.26147 1.00105 0.24898
 C182 C 0.21462 0.96543 0.25258
 N183 N 0.21484 0.92378 0.29095
 C184 C 0.25973 0.91597 0.32625
 C185 C 0.30736 0.95221 0.32368
 N186 N 0.30593 0.99382 0.28450
 N187 N 0.26222 1.04189 0.20953
 C188 C 0.21819 1.04818 0.17292
 C189 C 0.17119 1.01245 0.17648
 N190 N 0.17037 0.97195 0.21646
 H191 H 0.25611 0.88276 0.35648
 H192 H 0.22003 1.08027 0.14099
 C193 C -0.24759 0.99999 0.26140
 C194 C -0.26189 0.97694 0.20864
 N195 N -0.31285 0.95107 0.20212
 C196 C -0.34994 0.94720 0.24603
 C197 C -0.33551 0.97061 0.29887
 N198 N -0.28454 0.99649 0.30470
 N199 N -0.19667 1.02493 0.26900
 C200 C -0.15883 1.02763 0.22625
 C201 C -0.17249 1.00464 0.17312
 N202 N -0.22412 0.97995 0.16536
 H203 H -0.39043 0.92692 0.23943
 H204 H -0.11825 1.04734 0.23390
 C205 C -0.24200 0.99137 -0.26497
 C206 C -0.26056 1.00716 -0.21099
 N207 N -0.31658 1.01741 -0.20269
 C208 C -0.35478 1.01227 -0.24590
 C209 C -0.33617 0.99527 -0.29968
 N210 N -0.28003 0.98543 -0.30754
 N211 N -0.18628 0.98188 -0.27411
 C212 C -0.14791 0.98711 -0.23160
 C213 C -0.16604 1.00186 -0.17692
 N214 N -0.22227 1.01161 -0.16791
 H215 H -0.39921 1.02008 -0.23804
 H216 H -0.10374 0.97892 -0.24044
 C217 C 0.26722 0.98657 -0.23775
 C218 C 0.21159 0.99685 -0.25658
 N219 N 0.20107 1.00235 -0.31270
 C220 C 0.24375 0.99840 -0.35085
 C221 C 0.29948 0.98815 -0.33202
 N222 N 0.30969 0.98211 -0.27578
 N223 N 0.27807 0.98206 -0.18169
 C224 C 0.23582 0.98734 -0.14341
 C225 C 0.17987 0.99719 -0.16199
 N226 N 0.16915 1.00159 -0.21839
 H227 H 0.23420 1.00270 -0.39543
 H228 H 0.24598 0.98367 -0.09892
 C229 C 0.26469 1.25059 0.01387
 C230 C 0.21084 1.26694 -0.00557
 N231 N 0.20336 1.31943 -0.02508
 C232 C 0.24735 1.35609 -0.02655
 C233 C 0.30154 1.33963 -0.00757
 N234 N 0.30851 1.28721 0.01273
 N235 N 0.27270 1.19793 0.03232
 C236 C 0.22950 1.16058 0.03178
 C237 C 0.17541 1.17647 0.01205
 N238 N 0.16733 1.22968 -0.00586
 H239 H 0.23991 1.39779 -0.04191
 H240 H 0.23760 1.11867 0.04618
 C241 C 0.26872 0.76992 -0.00734
 C242 C 0.21524 0.75251 0.01189
 N243 N 0.20812 0.69929 0.02939
 C244 C 0.25210 0.66283 0.02895
 C245 C 0.30581 0.68020 0.00990
 N246 N 0.31251 0.73343 -0.00828
 N247 N 0.27630 0.82330 -0.02381
 C248 C 0.23299 0.86029 -0.02162
 C249 C 0.17926 0.84321 -0.00237
 N250 N 0.17164 0.78936 0.01365
 H251 H 0.24502 0.62053 0.04278
 H252 H 0.24055 0.90266 -0.03488
 C253 C -0.26071 0.76228 0.01089
 C254 C -0.21185 0.75193 -0.02097
 N255 N -0.20880 0.70506 -0.05260
 C256 C -0.25248 0.66814 -0.05439
 C257 C -0.30215 0.67800 -0.02239
 N258 N -0.30407 0.72505 0.00994
 N259 N -0.26452 0.80992 0.04142
 C260 C -0.22176 0.84791 0.04112
 C261 C -0.17257 0.83753 0.00942
 N262 N -0.16868 0.78942 -0.02069
 H263 H -0.24672 0.63074 -0.07894
 H264 H -0.22607 0.88586 0.06542
 C265 C -0.26593 1.24618 -0.01557
 C266 C -0.21247 1.26264 0.00506
 N267 N -0.20511 1.31517 0.02472
 C268 C -0.24886 1.35186 0.02525
 C269 C -0.30275 1.33540 0.00516
 N270 N -0.30962 1.28286 -0.01535
 N271 N -0.27360 1.19344 -0.03445
 C272 C -0.23044 1.15615 -0.03312
 C273 C -0.17685 1.17224 -0.01204
 N274 N -0.16913 1.22549 0.00618
 H275 H -0.24141 1.39364 0.04066
 H276 H -0.23803 1.11427 -0.04825
 C277 C -0.01089 1.25413 0.26212
 C278 C 0.01924 1.26652 0.21282
 N279 N 0.04690 1.31596 0.20912
 C280 C 0.04621 1.35336 0.25257
 C281 C 0.01564 1.34125 0.30251
 N282 N -0.01235 1.29160 0.30493
 N283 N -0.03733 1.20433 0.26711
 C284 C -0.03485 1.16604 0.22499
 C285 C -0.00516 1.17814 0.17504
 N286 N 0.02107 1.22854 0.16997
 H287 H 0.06811 1.39238 0.24684
 H288 H -0.05621 1.12660 0.23034
 C289 C 0.01324 1.24936 -0.26182
 C290 C -0.01560 1.26281 -0.21203
 N291 N -0.04057 1.31341 -0.20744
 C292 C -0.03836 1.35108 -0.25042
 C293 C -0.00887 1.33807 -0.30078
 N294 N 0.01633 1.28713 -0.30419
 N295 N 0.03717 1.19849 -0.26749
 C296 C 0.03355 1.16021 -0.22552
 C297 C 0.00530 1.17349 -0.17499
 N298 N -0.01849 1.22490 -0.16936
 H299 H -0.05803 1.39103 -0.24391
 H300 H 0.05329 1.12002 -0.23130
 C301 C -0.00420 0.76098 -0.25838
 C302 C 0.02544 0.74831 -0.20858
 N303 N 0.05221 0.69854 -0.20442
 C304 C 0.05102 0.66104 -0.24780
 C305 C 0.02084 0.67339 -0.29820
 N306 N -0.00615 0.72344 -0.30112
 N307 N -0.02994 0.81098 -0.26378
 C308 C -0.02725 0.84923 -0.22160
 C309 C 0.00200 0.83689 -0.17116
 N310 N 0.02752 0.78626 -0.16566
 H311 H 0.07222 0.62178 -0.24167
 H312 H -0.04831 0.88877 -0.22721
 C313 C 0.00729 0.76710 0.26832
 C314 C -0.01026 0.74962 0.21433
 N315 N -0.02483 0.69547 0.20614
 C316 C -0.02266 0.65812 0.24944
 C317 C -0.00451 0.67552 0.30355
 N318 N 0.01009 0.72984 0.31120
 N319 N 0.02118 0.82110 0.27720
 C320 C 0.01835 0.85870 0.23458
 C321 C 0.00124 0.84167 0.18002
 N322 N -0.01252 0.78713 0.17120
 H323 H -0.03396 0.61520 0.24141
 H324 H 0.03009 0.90143 0.24321
   
