data_POSCAR
  _audit_creation_date              2014-09-24
  _audit_creation_method            'ToBaCCo'
  _symmetry_space_group_name_H-M    'P1'
  _symmetry_Int_Tables_number       1
  _symmetry_cell_setting            triclinic
  loop_
  _symmetry_equiv_pos_as_xyz
 x,y,z
_cell_length_a 28.7182
_cell_length_b 29.8454
_cell_length_c 36.1833
_cell_angle_alpha 90.624600
_cell_angle_beta 90.860900
_cell_angle_gamma 89.930400
loop_
  _atom_site_label
  _atom_site_type_symbol
  _atom_site_fract_x
  _atom_site_fract_y
  _atom_site_fract_z
C1 C 1.19525 0.27031 0.31245
 H2 H 1.20088 0.23537 0.31877
 C3 C 1.17358 0.29829 0.33811
 H4 H 1.16242 0.28466 0.36415
 C5 C 1.20504 0.33107 0.27166
 H6 H 1.21827 0.34402 0.24614
 C7 C 1.18238 0.36001 0.29618
 H8 H 1.17754 0.39487 0.28904
 N9 N 1.21148 0.28721 0.28036
 C10 C 1.23282 0.18027 0.19908
 H11 H 1.27043 0.17810 0.19980
 C12 C 1.20719 0.15295 0.17482
 H13 H 1.22527 0.12942 0.15709
 C14 C 1.16373 0.21470 0.22051
 H15 H 1.14715 0.23946 0.23795
 C16 C 1.13677 0.18876 0.19587
 H17 H 1.09948 0.19400 0.19422
 Zn18 Zn 1.24869 0.24835 0.25130
 N19 N 1.21089 0.21010 0.22153
 C20 C 1.28380 0.16912 0.28559
 N21 N 1.28589 0.21462 0.28489
 C22 C 1.31082 0.23786 0.31088
 C23 C 1.33332 0.21555 0.33977
 C24 C 1.30625 0.14536 0.31376
 C25 C 1.26347 0.30184 0.19010
 C26 C 1.28807 0.32745 0.16498
 C27 C 1.35882 0.31189 0.19952
 C28 C 1.33285 0.28632 0.22397
 N29 N 1.28593 0.28228 0.21911
 H30 H 1.26301 0.15108 0.26531
 H31 H 1.31202 0.27406 0.30978
 H32 H 1.35375 0.23516 0.35946
 H33 H 1.30160 0.10937 0.31425
 H34 H 1.22628 0.29749 0.18653
 H35 H 1.26980 0.34291 0.14201
 H36 H 1.39613 0.31502 0.20352
 H37 H 1.35024 0.26977 0.24671
 C38 C 1.15853 0.15713 0.17283
 C39 C 1.16802 0.34399 0.33050
 C40 C 1.33618 0.33299 0.16984
 C41 C 1.32964 0.16854 0.34281
 C42 C 0.72351 -0.21689 0.31966
 H43 H 0.74726 -0.24130 0.33098
 C44 C 0.69918 -0.18907 0.34386
 H45 H 0.70531 -0.19198 0.37335
 C46 C 0.68587 -0.18388 0.26808
 H47 H 0.68062 -0.18206 0.23851
 C48 C 0.65976 -0.15614 0.29148
 H49 H 0.63421 -0.13348 0.27971
 N50 N 0.71750 -0.21327 0.28240
 C51 C 0.73950 -0.30821 0.19165
 H52 H 0.77671 -0.30422 0.18889
 C53 C 0.71465 -0.33445 0.16613
 H54 H 0.73268 -0.35078 0.14360
 C55 C 0.67033 -0.29097 0.22396
 H56 H 0.65336 -0.27368 0.24647
 C57 C 0.64408 -0.31722 0.19905
 H58 H 0.60677 -0.32008 0.20225
 Zn59 Zn 0.75486 -0.24989 0.25052
 N60 N 0.71713 -0.28687 0.21967
 C61 C 0.78726 -0.33206 0.27899
 N62 N 0.79444 -0.28696 0.27972
 C63 C 0.82620 -0.26800 0.30343
 C64 C 0.85043 -0.29438 0.32890
 C65 C 0.81084 -0.35964 0.30391
 C66 C 0.76566 -0.19491 0.18994
 C67 C 0.78851 -0.17078 0.16291
 C68 C 0.86143 -0.18471 0.19483
 C69 C 0.83724 -0.20959 0.22089
 N70 N 0.79004 -0.21363 0.21835
 H71 H 0.76157 -0.34656 0.26036
 H72 H 0.83062 -0.23201 0.30411
 H73 H 0.87385 -0.27873 0.34891
 H74 H 0.80337 -0.39520 0.30425
 H75 H 0.72849 -0.20004 0.18756
 H76 H 0.76861 -0.15714 0.13999
 H77 H 0.89889 -0.18139 0.19734
 H78 H 0.85647 -0.22602 0.24268
 C79 C 0.66648 -0.33896 0.16971
 C80 C 0.66731 -0.15768 0.32991
 C81 C 0.83687 -0.16460 0.16559
 C82 C 0.84168 -0.34047 0.32987
 C83 C 0.72823 0.29145 -0.17847
 H84 H 0.75671 0.27221 -0.16735
 C85 C 0.70110 0.31637 -0.15417
 H86 H 0.70998 0.31667 -0.12496
 C87 C 0.68108 0.31382 -0.22920
 H88 H 0.67293 0.31216 -0.25842
 C89 C 0.65195 0.33804 -0.20557
 H90 H 0.62149 0.35480 -0.21678
 N91 N 0.71892 0.29160 -0.21547
 C92 C 0.74658 0.20708 -0.31112
 H93 H 0.78213 0.21716 -0.31590
 C94 C 0.72362 0.17938 -0.33668
 H95 H 0.74141 0.16835 -0.36136
 C96 C 0.67982 0.20959 -0.27330
 H97 H 0.66309 0.22144 -0.24848
 C98 C 0.65549 0.18179 -0.29826
 H99 H 0.61971 0.17277 -0.29293
 Zn100 Zn 0.75924 0.26004 -0.24839
 N101 N 0.72444 0.22182 -0.28032
 C102 C 0.80266 0.17955 -0.22665
 N103 N 0.80284 0.22473 -0.22130
 C104 C 0.83203 0.24430 -0.19588
 C105 C 0.85810 0.21790 -0.17153
 C106 C 0.82962 0.15207 -0.20397
 C107 C 0.76714 0.32750 -0.30195
 C108 C 0.78969 0.35053 -0.32993
 C109 C 0.86241 0.31845 -0.30890
 C110 C 0.83858 0.29646 -0.28124
 N111 N 0.79157 0.30014 -0.27895
 H112 H 0.78019 0.16448 -0.24747
 H113 H 0.83278 0.28041 -0.19296
 H114 H 0.87833 0.23372 -0.14952
 H115 H 0.82785 0.11603 -0.20765
 H116 H 0.72972 0.32942 -0.30015
 H117 H 0.76852 0.36966 -0.34911
 H118 H 0.89995 0.31506 -0.30966
 H119 H 0.85764 0.27465 -0.26285
 C120 C 0.67760 0.16648 -0.33033
 C121 C 0.66283 0.34067 -0.16765
 C122 C 0.83782 0.34389 -0.33544
 C123 C 0.85511 0.17115 -0.17443
 C124 C 1.20140 -0.23615 -0.19342
 H125 H 1.20972 -0.27108 -0.18935
 C126 C 1.17358 -0.21388 -0.16777
 H127 H 1.16033 -0.23185 -0.14431
 C128 C 1.21201 -0.16905 -0.22666
 H129 H 1.22816 -0.15110 -0.24873
 C130 C 1.18365 -0.14570 -0.20204
 H131 H 1.17797 -0.11011 -0.20559
 N132 N 1.22083 -0.21345 -0.22178
 C133 C 1.24506 -0.28566 -0.32024
 H134 H 1.27376 -0.26581 -0.32983
 C135 C 1.21926 -0.31115 -0.34568
 H136 H 1.22752 -0.30996 -0.37476
 C137 C 1.19924 -0.31183 -0.27101
 H138 H 1.19145 -0.31193 -0.24195
 C139 C 1.17282 -0.33825 -0.29549
 H140 H 1.14462 -0.35845 -0.28522
 Zn141 Zn 1.26506 -0.24491 -0.25115
 N142 N 1.23361 -0.28507 -0.28386
 C143 C 1.31505 -0.32115 -0.22681
 N144 N 1.30343 -0.27804 -0.21851
 C145 C 1.31311 -0.25981 -0.18467
 C146 C 1.33219 -0.28617 -0.15666
 C147 C 1.33538 -0.34841 -0.19983
 C148 C 1.27727 -0.18065 -0.30599
 C149 C 1.30150 -0.15443 -0.33085
 C150 C 1.37354 -0.17707 -0.30113
 C151 C 1.34782 -0.20295 -0.27666
 N152 N 1.30055 -0.20463 -0.27978
 H153 H 1.30700 -0.33486 -0.25395
 H154 H 1.30346 -0.22544 -0.17879
 H155 H 1.33751 -0.27183 -0.12930
 H156 H 1.34385 -0.38290 -0.20650
 H157 H 1.23981 -0.18346 -0.30857
 H158 H 1.28255 -0.13646 -0.35215
 H159 H 1.41121 -0.17693 -0.29923
 H160 H 1.36566 -0.22281 -0.25600
 C161 C 1.18179 -0.33662 -0.33342
 C162 C 1.16567 -0.16786 -0.17140
 C163 C 1.35018 -0.15275 -0.32876
 C164 C 1.34199 -0.33149 -0.16378
 C165 C 0.26614 0.17380 0.70397
 H166 H 0.22916 0.16717 0.70502
 C167 C 0.29408 0.14875 0.68031
 H168 H 0.27851 0.12229 0.66356
 C169 C 0.33096 0.21766 0.72342
 H170 H 0.34480 0.24544 0.73950
 C171 C 0.35982 0.19454 0.69903
 H172 H 0.39574 0.20488 0.69636
 N173 N 0.28501 0.20702 0.72534
 C174 C 0.17505 0.22844 0.80587
 H175 H 0.17105 0.26442 0.80428
 C176 C 0.14865 0.20421 0.83087
 H177 H 0.12352 0.22199 0.84757
 C178 C 0.21370 0.16234 0.78661
 H179 H 0.24072 0.14633 0.77082
 C180 C 0.18802 0.13680 0.81114
 H181 H 0.19617 0.10153 0.81380
 Zn182 Zn 0.24454 0.24302 0.75364
 N183 N 0.20642 0.20726 0.78401
 C184 C 0.16198 0.27958 0.71867
 N185 N 0.20936 0.27737 0.71935
 C186 C 0.23500 0.29839 0.69346
 C187 C 0.21329 0.32343 0.66587
 C188 C 0.13879 0.30521 0.69187
 C189 C 0.30579 0.25925 0.81197
 C190 C 0.33031 0.28385 0.83880
 C191 C 0.30191 0.35205 0.81085
 C192 C 0.27773 0.32605 0.78446
 N193 N 0.27985 0.28051 0.78575
 H194 H 0.14209 0.26162 0.73881
 H195 H 0.27254 0.29537 0.69415
 H196 H 0.23428 0.33961 0.64529
 H197 H 0.10115 0.30749 0.69194
 H198 H 0.30654 0.22302 0.81243
 H199 H 0.35000 0.26657 0.86008
 H200 H 0.29926 0.38824 0.81031
 H201 H 0.25646 0.34220 0.76360
 C202 C 0.15434 0.15741 0.83355
 C203 C 0.34152 0.15923 0.67739
 C204 C 0.32786 0.33071 0.83867
 C205 C 0.16468 0.32812 0.66545
 C206 C 0.75254 0.67336 0.69606
 H207 H 0.71487 0.67361 0.69532
 C208 C 0.77692 0.64891 0.66961
 H209 H 0.75796 0.62991 0.64863
 C210 C 0.82319 0.69927 0.72345
 H211 H 0.84107 0.71905 0.74439
 C212 C 0.84899 0.67584 0.69704
 H213 H 0.88663 0.67809 0.69754
 N214 N 0.77580 0.69897 0.72156
 C215 C 0.66039 0.72163 0.79654
 H216 H 0.65252 0.75676 0.79327
 C217 C 0.63308 0.69592 0.81984
 H218 H 0.60359 0.71132 0.83336
 C219 C 0.71147 0.66043 0.78677
 H220 H 0.74254 0.64694 0.77434
 C221 C 0.68666 0.63434 0.81145
 H222 H 0.69851 0.60065 0.81736
 Zn223 Zn 0.73799 0.73814 0.74975
 N224 N 0.69807 0.70327 0.77968
 C225 C 0.65783 0.77996 0.71443
 N226 N 0.70481 0.77355 0.71460
 C227 C 0.73158 0.79163 0.68789
 C228 C 0.71173 0.81852 0.66061
 C229 C 0.63679 0.80815 0.68848
 C230 C 0.76412 0.77899 0.81751
 C231 C 0.78932 0.80696 0.84151
 C232 C 0.83751 0.82840 0.79062
 C233 C 0.81029 0.80110 0.76721
 N234 N 0.77471 0.77653 0.78101
 H235 H 0.63625 0.76342 0.73409
 H236 H 0.76847 0.78452 0.68738
 H237 H 0.73354 0.83182 0.63917
 H238 H 0.59960 0.81397 0.68944
 H239 H 0.73606 0.75932 0.82829
 H240 H 0.78007 0.80859 0.87041
 H241 H 0.86693 0.84619 0.77953
 H242 H 0.81841 0.79875 0.73821
 C243 C 0.64630 0.65170 0.82775
 C244 C 0.82561 0.65178 0.66891
 C245 C 0.82659 0.83212 0.82822
 C246 C 0.66403 0.82857 0.66156
 C247 C 0.75894 0.17871 0.19048
 H248 H 0.72150 0.18275 0.19004
 C249 C 0.78033 0.15284 0.16333
 H250 H 0.75935 0.13655 0.14200
 C251 C 0.83236 0.19737 0.21742
 H252 H 0.85240 0.21580 0.23802
 C253 C 0.85523 0.17195 0.19060
 H254 H 0.89293 0.17070 0.19058
 N255 N 0.78511 0.20082 0.21643
 C256 C 0.69466 0.23659 0.30712
 H257 H 0.70166 0.27215 0.30920
 C258 C 0.66715 0.21601 0.33342
 H259 H 0.65272 0.23569 0.35582
 C260 C 0.70672 0.16696 0.27643
 H261 H 0.72314 0.14777 0.25478
 C262 C 0.67910 0.14509 0.30199
 H263 H 0.67414 0.10917 0.29988
 Zn264 Zn 0.75400 0.24195 0.24716
 N265 N 0.71380 0.21195 0.27937
 C266 C 0.67461 0.29205 0.22257
 N267 N 0.71964 0.28067 0.21577
 C268 C 0.74106 0.29421 0.18456
 C269 C 0.71722 0.32032 0.15875
 C270 C 0.64972 0.31895 0.19777
 C271 C 0.81548 0.25421 0.30704
 C272 C 0.84180 0.27868 0.33300
 C273 C 0.83322 0.34390 0.29447
 C274 C 0.80639 0.31842 0.26955
 N275 N 0.79728 0.27467 0.27664
 H276 H 0.65780 0.28019 0.24709
 H277 H 0.77656 0.28400 0.17943
 H278 H 0.73449 0.33011 0.13369
 H279 H 0.61408 0.32818 0.20362
 H280 H 0.80758 0.21938 0.31200
 H281 H 0.85404 0.26267 0.35806
 H282 H 0.83902 0.37911 0.28923
 H283 H 0.79153 0.33400 0.24527
 C284 C 0.65926 0.16982 0.33084
 C285 C 0.82901 0.15050 0.16268
 C286 C 0.84946 0.32442 0.32738
 C287 C 0.67125 0.33372 0.16557
 C288 C 0.26516 0.67984 0.20559
 H289 H 0.22793 0.67551 0.20786
 C290 C 0.29025 0.65259 0.18145
 H291 H 0.27223 0.62672 0.16565
 C292 C 0.33355 0.72001 0.22237
 H293 H 0.34996 0.74717 0.23763
 C294 C 0.35965 0.69455 0.19756
 H295 H 0.39606 0.70245 0.19379
 N296 N 0.28719 0.71219 0.22596
 C297 C 0.18586 0.74310 0.31160
 H298 H 0.18586 0.77926 0.30982
 C299 C 0.15968 0.72218 0.33862
 H300 H 0.13914 0.74223 0.35747
 C301 C 0.21445 0.67292 0.29056
 H302 H 0.23709 0.65387 0.27277
 C303 C 0.18886 0.65064 0.31728
 H304 H 0.19143 0.61456 0.31952
 Zn305 Zn 0.25093 0.75078 0.25561
 N306 N 0.21243 0.71840 0.28813
 C307 C 0.16850 0.79054 0.22520
 N308 N 0.21561 0.78703 0.22308
 C309 C 0.23957 0.80808 0.19613
 C310 C 0.21597 0.83281 0.16919
 C311 C 0.14363 0.81558 0.19919
 C312 C 0.31752 0.76615 0.31092
 C313 C 0.34203 0.79109 0.33760
 C314 C 0.30946 0.85849 0.31137
 C315 C 0.28589 0.83226 0.28508
 N316 N 0.28951 0.78694 0.28588
 H317 H 0.14997 0.77319 0.24646
 H318 H 0.27703 0.80463 0.19508
 H319 H 0.23523 0.84811 0.14714
 H320 H 0.10604 0.81757 0.20071
 H321 H 0.31938 0.72994 0.31102
 H322 H 0.36198 0.77306 0.35827
 H323 H 0.30675 0.89459 0.30940
 H324 H 0.26361 0.84814 0.26477
 C325 C 0.16175 0.67551 0.34199
 C326 C 0.33815 0.65984 0.17715
 C327 C 0.33636 0.83811 0.33956
 C328 C 0.16736 0.83578 0.17013
 O329 O 1.08570 0.04381 0.03010
 O330 O 0.90927 -0.05656 0.01833
 O331 O 0.94416 0.08068 0.01939
 O332 O 1.05209 -0.09302 0.02274
 O333 O 0.91903 0.01921 0.03907
 O334 O 1.07534 -0.03250 0.04732
 O335 O 0.97179 -0.08418 0.04013
 O336 O 1.01994 0.06992 0.04604
 C337 C 1.06160 0.06397 0.05341
 C338 C 0.92956 -0.07692 0.04387
 C339 C 0.92164 0.06009 0.04279
 C340 C 1.07009 -0.07345 0.05007
 O341 O 1.08956 -0.05781 -0.02509
 O342 O 0.91442 0.04629 -0.03324
 O343 O 1.05642 0.07899 -0.02202
 O344 O 0.94647 -0.09048 -0.03189
 O345 O 0.92301 -0.02897 -0.05286
 O346 O 1.08257 0.01830 -0.04296
 O347 O 1.02679 -0.08171 -0.04960
 O348 O 0.97995 0.07096 -0.04934
 Co349 Co 1.07539 -0.00689 0.00199
 Co350 Co 0.92447 -0.00517 -0.00662
 Co351 Co 1.00007 0.06714 -0.00165
 Co352 Co 0.99933 -0.07939 -0.00467
 O353 O 0.99983 -0.00614 -0.00267
 C354 C 1.06932 -0.07581 -0.05226
 C355 C 0.93820 0.06542 -0.05697
 C356 C 1.07558 0.05853 -0.04767
 C357 C 0.92863 -0.06941 -0.05796
 O358 O 1.07908 0.52918 0.54962
 O359 O 0.92545 0.47169 0.54467
 O360 O 0.96933 0.57136 0.54852
 O361 O 1.03321 0.42311 0.54206
 O362 O 0.90740 0.54642 0.52450
 O363 O 1.09526 0.45450 0.52492
 O364 O 0.95458 0.41228 0.52234
 O365 O 1.04663 0.58955 0.53217
 C366 C 1.07092 0.56936 0.55553
 C367 C 0.93303 0.43117 0.54801
 C368 C 0.92701 0.56684 0.55039
 C369 C 1.07514 0.43032 0.54767
 O370 O 1.08521 0.48729 0.45548
 O371 O 0.92144 0.52004 0.45381
 O372 O 1.02164 0.58249 0.45891
 O373 O 0.98096 0.42699 0.45009
 O374 O 0.91610 0.44383 0.47275
 O375 O 1.08687 0.56193 0.48094
 O376 O 1.06107 0.42286 0.47063
 O377 O 0.94258 0.58304 0.47586
 Co378 Co 1.07804 0.50751 0.50251
 Co379 Co 0.92632 0.49605 0.49929
 Co380 Co 0.99556 0.57373 0.50359
 Co381 Co 1.00681 0.42900 0.49644
 O382 O 1.00187 0.50161 0.50033
 C383 C 1.08223 0.44686 0.44828
 C384 C 0.92414 0.56093 0.45024
 C385 C 1.06443 0.58224 0.45669
 C386 C 0.93809 0.42790 0.44625
 O387 O 0.58924 0.03004 0.54421
 O388 O 0.43078 -0.01670 0.54959
 O389 O 0.48580 0.08344 0.55135
 O390 O 0.53340 -0.07023 0.54234
 O391 O 0.42039 0.05936 0.53247
 O392 O 0.59630 -0.04501 0.52090
 O393 O 0.45326 -0.07737 0.52501
 O394 O 0.56209 0.09232 0.52702
 C395 C 0.58315 0.07016 0.55099
 C396 C 0.43686 -0.05741 0.55231
 C397 C 0.44412 0.07773 0.55742
 C398 C 0.57605 -0.06598 0.54566
 O399 O 0.58140 -0.01382 0.45069
 O400 O 0.42304 0.03508 0.45994
 O401 O 0.52576 0.08758 0.45737
 O402 O 0.47640 -0.06501 0.45289
 O403 O 0.41436 -0.04147 0.47723
 O404 O 0.59141 0.06085 0.47341
 O405 O 0.55644 -0.07554 0.46985
 O406 O 0.45000 0.09599 0.48175
 Co407 Co 0.58153 0.00807 0.49762
 Co408 Co 0.43029 0.00893 0.50447
 Co409 Co 0.50585 0.08187 0.50412
 Co410 Co 0.50491 -0.06420 0.49782
 O411 O 0.50567 0.00862 0.50098
 C412 C 0.57465 -0.05400 0.44448
 C413 C 0.42576 0.07618 0.45786
 C414 C 0.56706 0.08118 0.45013
 C415 C 0.43372 -0.06034 0.45059
 O416 O 0.57948 0.52389 0.04519
 O417 O 0.42185 0.47368 0.05285
 O418 O 0.47586 0.57576 0.05120
 O419 O 0.52814 0.42342 0.04729
 O420 O 0.41041 0.54931 0.03412
 O421 O 0.58944 0.44874 0.02362
 O422 O 0.44775 0.41281 0.03045
 O423 O 0.55158 0.58513 0.02658
 C424 C 0.57266 0.56402 0.05122
 C425 C 0.42890 0.43314 0.05653
 C426 C 0.43444 0.56945 0.05803
 C427 C 0.57071 0.42925 0.04989
 O428 O 0.57167 0.47705 -0.04710
 O429 O 0.41245 0.52211 -0.03831
 O430 O 0.51472 0.57598 -0.04341
 O431 O 0.46926 0.42140 -0.04186
 O432 O 0.40683 0.44632 -0.01842
 O433 O 0.58055 0.55233 -0.02619
 O434 O 0.54988 0.41524 -0.02574
 O435 O 0.43869 0.58383 -0.01796
 Co436 Co 0.57232 0.50040 -0.00079
 Co437 Co 0.42110 0.49801 0.00714
 Co438 Co 0.49549 0.57239 0.00396
 Co439 Co 0.49868 0.42609 0.00266
 O440 O 0.49685 0.49916 0.00327
 C441 C 0.56577 0.43656 -0.05217
 C442 C 0.41622 0.56291 -0.04234
 C443 C 0.55590 0.56931 -0.05096
 C444 C 0.42644 0.42490 -0.04357
 C445 C 1.12395 0.11187 0.07889
 C446 C 1.14703 0.13440 0.10750
 C447 C 1.13171 0.13170 0.14402
 C448 C 1.09201 0.10509 0.15162
 C449 C 1.06778 0.08284 0.12214
 C450 C 1.08410 0.08644 0.08552
 C451 C 1.02899 0.05633 0.13060
 N452 N 1.01556 0.05236 0.16617
 N453 N 1.03855 0.07267 0.19383
 C454 C 1.07642 0.09856 0.18784
 H455 H 1.13694 0.11498 0.05106
 H456 H 1.17710 0.15454 0.10094
 H457 H 1.00961 0.03819 0.10944
 H458 H 1.09430 0.11310 0.21153
 C459 C 1.14392 0.58509 0.58995
 C460 C 1.17077 0.60722 0.61668
 C461 C 1.15116 0.64005 0.63945
 C462 C 1.10361 0.65158 0.63461
 C463 C 1.07592 0.62854 0.60765
 C464 C 1.09629 0.59425 0.58541
 C465 C 1.02889 0.64105 0.60404
 N466 N 1.01119 0.67445 0.62527
 N467 N 1.03741 0.69658 0.64994
 C468 C 1.08300 0.68651 0.65519
 H469 H 1.16109 0.56154 0.57180
 H470 H 1.20742 0.59896 0.61936
 H471 H 1.00598 0.62520 0.58454
 H472 H 1.10263 0.70631 0.67511
 C473 C 0.62178 0.13642 0.57838
 C474 C 0.64474 0.15951 0.60672
 C475 C 0.65204 0.13987 0.64123
 C476 C 0.63548 0.09590 0.64736
 C477 C 0.61147 0.07232 0.61852
 C478 C 0.60545 0.09268 0.58338
 C479 C 0.59352 0.02964 0.62640
 N480 N 0.60110 0.01131 0.66009
 N481 N 0.62511 0.03278 0.68656
 C482 C 0.64257 0.07437 0.68136
 H483 H 0.61752 0.15278 0.55194
 H484 H 0.65711 0.19314 0.60164
 H485 H 0.57294 0.01074 0.60652
 H486 H 0.66184 0.09016 0.70385
 C487 C 0.60802 0.63188 0.07922
 C488 C 0.63077 0.65527 0.10759
 C489 C 0.63973 0.63514 0.14164
 C490 C 0.62473 0.59070 0.14756
 C491 C 0.60109 0.56673 0.11878
 C492 C 0.59373 0.58736 0.08382
 C493 C 0.58487 0.52335 0.12657
 N494 N 0.59359 0.50498 0.16009
 N495 N 0.61705 0.52704 0.18654
 C496 C 0.63284 0.56925 0.18146
 H497 H 0.60266 0.64849 0.05302
 H498 H 0.64214 0.68929 0.10275
 H499 H 0.56453 0.50400 0.10689
 H500 H 0.65140 0.58573 0.20400
 C501 C 0.91933 -0.13846 0.08856
 C502 C 0.89836 -0.15926 0.11829
 C503 C 0.86148 -0.13879 0.13686
 C504 C 0.84629 -0.09583 0.12557
 C505 C 0.86521 -0.07600 0.09352
 C506 C 0.90355 -0.09698 0.07531
 C507 C 0.84482 -0.03577 0.08146
 N508 N 0.81147 -0.01511 0.10157
 N509 N 0.79648 -0.03211 0.13303
 C510 C 0.81279 -0.07168 0.14575
 H511 H 0.94721 -0.15600 0.07491
 H512 H 0.91041 -0.19221 0.12632
 H513 H 0.85368 -0.02082 0.05602
 H514 H 0.79970 -0.08363 0.17169
 C515 C 0.87222 0.42616 0.59549
 C516 C 0.84740 0.40465 0.62277
 C517 C 0.85981 0.36151 0.63483
 C518 C 0.89625 0.33860 0.61572
 C519 C 0.92303 0.36148 0.58903
 C520 C 0.91043 0.40575 0.57833
 C521 C 0.96119 0.33860 0.57382
 N522 N 0.96872 0.29480 0.58124
 N523 N 0.94050 0.27201 0.60287
 C524 C 0.90422 0.29212 0.61979
 H525 H 0.86118 0.45958 0.58786
 H526 H 0.82008 0.42366 0.63607
 H527 H 0.98542 0.35468 0.55635
 H528 H 0.88135 0.27116 0.63551
 C529 C 0.39274 -0.12086 0.57729
 C530 C 0.37138 -0.14341 0.60591
 C531 C 0.37608 -0.12836 0.64260
 C532 C 0.40393 -0.09021 0.65062
 C533 C 0.42604 -0.06738 0.62143
 C534 C 0.41916 -0.08222 0.58435
 C535 C 0.45498 -0.03080 0.63054
 N536 N 0.45982 -0.01715 0.66626
 N537 N 0.43778 -0.03756 0.69344
 C538 C 0.40991 -0.07350 0.68686
 H539 H 0.38731 -0.13291 0.54919
 H540 H 0.35041 -0.17267 0.59932
 H541 H 0.47430 -0.01333 0.60977
 H542 H 0.39279 -0.08861 0.71001
 C543 C 0.38910 0.36610 0.07983
 C544 C 0.36611 0.34228 0.10688
 C545 C 0.36265 0.35937 0.14288
 C546 C 0.38356 0.40111 0.15197
 C547 C 0.40738 0.42532 0.12443
 C548 C 0.40894 0.40812 0.08772
 C549 C 0.42957 0.46554 0.13493
 N550 N 0.42623 0.48127 0.17009
 N551 N 0.40246 0.45939 0.19553
 C552 C 0.38101 0.41990 0.18769
 H553 H 0.39025 0.35197 0.05216
 H554 H 0.35047 0.31031 0.09957
 H555 H 0.45023 0.48423 0.11581
 H556 H 0.36224 0.40362 0.20945
 C557 C 0.94255 0.11945 -0.10865
 C558 C 0.92247 0.14592 -0.13610
 C559 C 0.87504 0.14232 -0.14504
 C560 C 0.84747 0.11067 -0.12631
 C561 C 0.86872 0.08095 -0.10079
 C562 C 0.91624 0.08741 -0.08986
 C563 C 0.84135 0.04557 -0.08774
 N564 N 0.79518 0.04361 -0.09581
 N565 N 0.77435 0.07447 -0.11649
 C566 C 0.79882 0.10802 -0.13187
 H567 H 0.97893 0.12485 -0.10161
 H568 H 0.94405 0.16992 -0.15016
 H569 H 0.85622 0.01822 -0.07288
 H570 H 0.77981 0.13232 -0.14806
 C571 C 0.92835 0.59875 0.39023
 C572 C 0.90858 0.62287 0.36118
 C573 C 0.86084 0.63245 0.36042
 C574 C 0.83246 0.61775 0.38962
 C575 C 0.85263 0.59333 0.41915
 C576 C 0.90092 0.58371 0.41921
 C577 C 0.82384 0.58040 0.44823
 N578 N 0.77793 0.59101 0.44751
 N579 N 0.75894 0.61396 0.41977
 C580 C 0.78459 0.62787 0.39092
 H581 H 0.96541 0.59214 0.39030
 H582 H 0.93068 0.63439 0.33922
 H583 H 0.83746 0.56258 0.47174
 H584 H 0.76734 0.64704 0.36956
 C585 C 0.39383 0.08221 0.39449
 C586 C 0.36961 0.10405 0.36639
 C587 C 0.34846 0.14621 0.37234
 C588 C 0.34820 0.16362 0.40947
 C589 C 0.37378 0.14147 0.43800
 C590 C 0.39791 0.10100 0.42993
 C591 C 0.37165 0.15914 0.47428
 N592 N 0.34474 0.19531 0.48167
 N593 N 0.31891 0.21458 0.45554
 C594 C 0.31896 0.19955 0.42011
 H595 H 0.41100 0.05077 0.38804
 H596 H 0.37076 0.08892 0.33908
 H597 H 0.38949 0.14401 0.49734
 H598 H 0.29452 0.21481 0.40112
 C599 C 0.41448 0.62827 -0.08331
 C600 C 0.39756 0.65332 -0.11268
 C601 C 0.35858 0.63929 -0.13325
 C602 C 0.33543 0.59924 -0.12318
 C603 C 0.35332 0.57282 -0.09355
 C604 C 0.39390 0.58745 -0.07362
 C605 C 0.32848 0.53387 -0.08425
 N606 N 0.28910 0.52244 -0.10316
 N607 N 0.27222 0.54746 -0.13044
 C608 C 0.29370 0.58555 -0.14084
 H609 H 0.44508 0.64058 -0.06857
 H610 H 0.41542 0.68400 -0.11962
 H611 H 0.33867 0.51257 -0.06181
 H612 H 0.27724 0.60505 -0.16232
 C613 C 1.07331 -0.12948 -0.10511
 C614 C 1.09630 -0.15230 -0.13327
 C615 C 1.14252 -0.14231 -0.14147
 C616 C 1.16605 -0.10834 -0.12097
 C617 C 1.14208 -0.08348 -0.09340
 C618 C 1.09546 -0.09543 -0.08419
 C619 C 1.16594 -0.04723 -0.07669
 N620 N 1.21105 -0.03896 -0.08466
 N621 N 1.23427 -0.06431 -0.10853
 C622 C 1.21342 -0.09877 -0.12684
 H623 H 1.03790 -0.13933 -0.09924
 H624 H 1.07793 -0.17832 -0.14866
 H625 H 1.14946 -0.02447 -0.05824
 H626 H 1.23430 -0.11837 -0.14562
 C627 C 1.08353 0.38748 0.40071
 C628 C 1.10372 0.36264 0.37251
 C629 C 1.14716 0.37433 0.35863
 C630 C 1.17031 0.41284 0.37327
 C631 C 1.14891 0.43935 0.40135
 C632 C 1.10523 0.42571 0.41581
 C633 C 1.17331 0.47728 0.41478
 N634 N 1.21596 0.48723 0.40163
 N635 N 1.23637 0.46172 0.37624
 C636 C 1.21527 0.42477 0.36187
 H637 H 1.05060 0.37618 0.41125
 H638 H 1.08553 0.33333 0.36185
 H639 H 1.15970 0.49936 0.43557
 H640 H 1.23435 0.40489 0.34214
 C641 C 0.59492 -0.12471 0.41193
 C642 C 0.61752 -0.14954 0.38484
 C643 C 0.64088 -0.12858 0.35608
 C644 C 0.63929 -0.08109 0.35385
 C645 C 0.61378 -0.05570 0.38039
 C646 C 0.59373 -0.07765 0.41120
 C647 C 0.60931 -0.00927 0.37470
 N648 N 0.63203 0.01061 0.34672
 N649 N 0.65873 -0.01272 0.32374
 C650 C 0.66329 -0.05776 0.32642
 H651 H 0.57923 -0.14284 0.43432
 H652 H 0.61769 -0.18573 0.38690
 H653 H 0.58700 0.01143 0.39123
 H654 H 0.68586 -0.07465 0.30717
 C655 C 0.59396 0.36720 -0.08248
 C656 C 0.61778 0.34438 -0.11004
 C657 C 0.63369 0.36663 -0.14133
 C658 C 0.62262 0.41268 -0.14579
 C659 C 0.59552 0.43524 -0.11874
 C660 C 0.58397 0.41303 -0.08549
 C661 C 0.58078 0.47923 -0.12623
 N662 N 0.59595 0.50046 -0.15669
 N663 N 0.62456 0.48058 -0.18037
 C664 C 0.63857 0.43757 -0.17591
 H665 H 0.58476 0.34894 -0.05793
 H666 H 0.62517 0.30910 -0.10629
 H667 H 0.55630 0.49656 -0.10889
 H668 H 0.66218 0.42356 -0.19588
 C669 C 1.10803 0.12672 -0.07504
 C670 C 1.12602 0.15126 -0.10391
 C671 C 1.13012 0.13259 -0.13958
 C672 C 1.11149 0.08883 -0.14635
 C673 C 1.09313 0.06369 -0.11663
 C674 C 1.09290 0.08254 -0.08040
 C675 C 1.07343 0.02140 -0.12473
 N676 N 1.07207 0.00559 -0.15996
 N677 N 1.08815 0.02944 -0.18783
 C678 C 1.10708 0.07058 -0.18236
 H679 H 1.10731 0.14214 -0.04780
 H680 H 1.13957 0.18432 -0.09742
 H681 H 1.05770 0.00111 -0.10390
 H682 H 1.11697 0.08909 -0.20647
 C683 C 1.07641 0.60234 0.39145
 C684 C 1.10053 0.62407 0.36370
 C685 C 1.13756 0.65299 0.37247
 C686 C 1.15066 0.66007 0.41001
 C687 C 1.12566 0.63854 0.43829
 C688 C 1.08870 0.60883 0.42872
 C689 C 1.13827 0.64814 0.47532
 N690 N 1.17467 0.67570 0.48315
 N691 N 1.19921 0.69451 0.45655
 C692 C 1.18855 0.68761 0.42032
 H693 H 1.04870 0.57936 0.38369
 H694 H 1.09031 0.61823 0.33511
 H695 H 1.11936 0.63462 0.49821
 H696 H 1.20998 0.70358 0.40001
 C697 C 0.63323 0.12063 0.42301
 C698 C 0.65517 0.14266 0.39453
 C699 C 0.63337 0.14690 0.35996
 C700 C 0.58847 0.12853 0.35384
 C701 C 0.56593 0.10591 0.38287
 C702 C 0.58854 0.10252 0.41796
 C703 C 0.52217 0.08637 0.37520
 N704 N 0.50200 0.09085 0.34131
 N705 N 0.52265 0.11320 0.31447
 C706 C 0.56518 0.13214 0.31955
 H707 H 0.65112 0.11836 0.44951
 H708 H 0.68966 0.15640 0.39943
 H709 H 0.50404 0.06685 0.39536
 H710 H 0.58038 0.14981 0.29675
 C711 C 0.62568 0.59131 -0.08563
 C712 C 0.64795 0.61041 -0.11539
 C713 C 0.62237 0.62705 -0.14557
 C714 C 0.57354 0.61931 -0.14745
 C715 C 0.55121 0.59698 -0.11803
 C716 C 0.57713 0.58599 -0.08553
 C717 C 0.50435 0.58433 -0.12325
 N718 N 0.48098 0.59557 -0.15463
 N719 N 0.50139 0.61792 -0.18154
 C720 C 0.54684 0.62987 -0.17918
 H721 H 0.64682 0.58176 -0.06194
 H722 H 0.68534 0.61512 -0.11349
 H723 H 0.48637 0.56400 -0.10363
 H724 H 0.56195 0.64604 -0.20272
 C725 C 0.89754 -0.13883 -0.08662
 C726 C 0.87239 -0.16217 -0.11363
 C727 C 0.85557 -0.14078 -0.14543
 C728 C 0.86672 -0.09494 -0.15077
 C729 C 0.89499 -0.07178 -0.12415
 C730 C 0.90797 -0.09326 -0.09061
 C731 C 0.90953 -0.02804 -0.13246
 N732 N 0.89326 -0.00765 -0.16337
 N733 N 0.86380 -0.02811 -0.18672
 C734 C 0.84983 -0.07090 -0.18142
 H735 H 0.90769 -0.15653 -0.06179
 H736 H 0.86508 -0.19730 -0.10920
 H737 H 0.93427 -0.00999 -0.11525
 H738 H 0.82550 -0.08544 -0.20115
 C739 C 0.93735 0.36898 0.39714
 C740 C 0.91620 0.34351 0.36906
 C741 C 0.87061 0.35257 0.35723
 C742 C 0.84573 0.38806 0.37421
 C743 C 0.86788 0.41538 0.40169
 C744 C 0.91406 0.40493 0.41422
 C745 C 0.84275 0.45250 0.41507
 N746 N 0.79812 0.45968 0.40399
 N747 N 0.77657 0.43234 0.38009
 C748 C 0.79873 0.39673 0.36495
 H749 H 0.97200 0.35957 0.40622
 H750 H 0.93551 0.31617 0.35662
 H751 H 0.85792 0.47655 0.43347
 H752 H 0.77914 0.37550 0.34604
 C753 C 0.42607 -0.12263 0.40555
 C754 C 0.40186 -0.14886 0.37983
 C755 C 0.35677 -0.13714 0.36735
 C756 C 0.33513 -0.09879 0.38397
 C757 C 0.36088 -0.07087 0.40904
 C758 C 0.40658 -0.08359 0.42062
 C759 C 0.33940 -0.03136 0.42184
 N760 N 0.29403 -0.02306 0.41381
 N761 N 0.26843 -0.05173 0.39388
 C762 C 0.28710 -0.08951 0.37930
 H763 H 0.46064 -0.13346 0.41395
 H764 H 0.42022 -0.17727 0.36815
 H765 H 0.35780 -0.00674 0.43793
 H766 H 0.26376 -0.11240 0.36504
 C767 C 0.41547 0.40158 -0.10891
 C768 C 0.39125 0.37992 -0.13761
 C769 C 0.35001 0.35671 -0.13082
 C770 C 0.33231 0.35592 -0.09452
 C771 C 0.35718 0.37735 -0.06511
 C772 C 0.39906 0.40087 -0.07259
 C773 C 0.33978 0.37299 -0.02908
 N774 N 0.29940 0.35075 -0.02351
 N775 N 0.27531 0.33213 -0.05135
 C776 C 0.29036 0.33390 -0.08660
 H777 H 0.44734 0.41920 -0.11514
 H778 H 0.40524 0.38054 -0.16524
 H779 H 0.35788 0.38616 -0.00507
 H780 H 0.26934 0.31811 -0.10809
 C781 C 1.12427 -0.07560 0.10435
 C782 C 1.14855 -0.09730 0.13262
 C783 C 1.14116 -0.14274 0.13946
 C784 C 1.10847 -0.16683 0.11740
 C785 C 1.08176 -0.14426 0.08995
 C786 C 1.09109 -0.09831 0.08210
 C787 C 1.04617 -0.16876 0.07199
 N788 N 1.04061 -0.21306 0.07842
 N789 N 1.06810 -0.23482 0.10203
 C790 C 1.10189 -0.21329 0.12167
 H791 H 1.13218 -0.04067 0.09957
 H792 H 1.17355 -0.07845 0.14923
 H793 H 1.02156 -0.15318 0.05406
 H794 H 1.12333 -0.23285 0.14025
 C795 C 1.08758 0.36168 0.58486
 C796 C 1.10760 0.33737 0.61373
 C797 C 1.14147 0.35663 0.63711
 C798 C 1.15494 0.40165 0.63133
 C799 C 1.13644 0.42562 0.60064
 C800 C 1.10093 0.40600 0.57775
 C801 C 1.15414 0.46862 0.59449
 N802 N 1.18538 0.48742 0.61843
 N803 N 1.20036 0.46604 0.64837
 C804 C 1.18607 0.42392 0.65574
 H805 H 1.06232 0.34500 0.56712
 H806 H 1.09716 0.30285 0.61739
 H807 H 1.14445 0.48719 0.57063
 H808 H 1.19888 0.40852 0.68080
 C809 C 0.58210 -0.13143 0.58649
 C810 C 0.60252 -0.15668 0.61443
 C811 C 0.64238 -0.14154 0.63344
 C812 C 0.66154 -0.09937 0.62417
 C813 C 0.64278 -0.07500 0.59378
 C814 C 0.60165 -0.09078 0.57525
 C815 C 0.66547 -0.03517 0.58404
 N816 N 0.70180 -0.01940 0.60465
 N817 N 0.71732 -0.04079 0.63443
 C818 C 0.69830 -0.08001 0.64501
 H819 H 0.55101 -0.14450 0.57291
 H820 H 0.58718 -0.18873 0.62098
 H821 H 0.65501 -0.01598 0.56062
 H822 H 0.71170 -0.09518 0.66996
 C823 C 0.57961 0.36912 0.09606
 C824 C 0.60306 0.34619 0.12402
 C825 C 0.64557 0.36186 0.13839
 C826 C 0.66382 0.40266 0.12520
 C827 C 0.64123 0.42510 0.09538
 C828 C 0.59823 0.40807 0.08056
 C829 C 0.66229 0.46440 0.08251
 N830 N 0.70133 0.48090 0.09915
 N831 N 0.72119 0.46078 0.12794
 C832 C 0.70370 0.42240 0.14161
 H833 H 0.54702 0.35530 0.08568
 H834 H 0.58833 0.31524 0.13394
 H835 H 0.64832 0.48287 0.05994
 H836 H 0.72077 0.40818 0.16558
 C837 C 0.89854 0.06688 0.10795
 C838 C 0.87707 0.08910 0.13713
 C839 C 0.85233 0.12883 0.13113
 C840 C 0.84922 0.14671 0.09504
 C841 C 0.87023 0.12366 0.06518
 C842 C 0.89601 0.08390 0.07202
 C843 C 0.86362 0.14086 0.02934
 N844 N 0.83988 0.17968 0.02438
 N845 N 0.82199 0.20234 0.05269
 C846 C 0.82587 0.18728 0.08780
 H847 H 0.91782 0.03640 0.11354
 H848 H 0.87956 0.07510 0.16459
 H849 H 0.87623 0.12372 0.00505
 H850 H 0.81074 0.20726 0.10964
 C851 C 0.90983 0.57876 0.61642
 C852 C 0.88554 0.59934 0.64507
 C853 C 0.85160 0.63194 0.63763
 C854 C 0.84318 0.64517 0.60053
 C855 C 0.86732 0.62366 0.57138
 C856 C 0.90045 0.58980 0.57955
 C857 C 0.85863 0.63805 0.53499
 N858 N 0.82788 0.67163 0.52845
 N859 N 0.80560 0.69215 0.55582
 C860 C 0.81240 0.68035 0.59156
 H861 H 0.93568 0.55349 0.62303
 H862 H 0.89286 0.58937 0.67326
 H863 H 0.87641 0.62360 0.51170
 H864 H 0.79425 0.69922 0.61254
 C865 C 0.37614 0.11527 0.58408
 C866 C 0.35148 0.13474 0.61270
 C867 C 0.37003 0.13671 0.64869
 C868 C 0.41487 0.11822 0.65575
 C869 C 0.44089 0.09964 0.62611
 C870 C 0.42099 0.09797 0.58991
 C871 C 0.48528 0.08204 0.63418
 N872 N 0.50209 0.08255 0.66938
 N873 N 0.47729 0.09893 0.69722
 C874 C 0.43417 0.11633 0.69169
 H875 H 0.36006 0.11443 0.55680
 H876 H 0.31752 0.14889 0.60649
 H877 H 0.50646 0.06693 0.61319
 H878 H 0.41526 0.12779 0.71557
 C879 C 0.36796 0.60992 0.08451
 C880 C 0.34481 0.63157 0.11299
 C881 C 0.36425 0.63415 0.14871
 C882 C 0.40805 0.61351 0.15576
 C883 C 0.43254 0.59275 0.12627
 C884 C 0.41206 0.59094 0.09030
 C885 C 0.47604 0.57317 0.13425
 N886 N 0.49334 0.57370 0.16931
 N887 N 0.46990 0.59212 0.19705
 C888 C 0.42776 0.61163 0.19157
 H889 H 0.35165 0.60903 0.05731
 H890 H 0.31154 0.64719 0.10683
 H891 H 0.49596 0.55637 0.11329
 H892 H 0.40986 0.62471 0.21540
   
