data_POSCAR
  _audit_creation_date              2014-09-24
  _audit_creation_method            'ToBaCCo'
  _symmetry_space_group_name_H-M    'P1'
  _symmetry_Int_Tables_number       1
  _symmetry_cell_setting            triclinic
  loop_
  _symmetry_equiv_pos_as_xyz
 x,y,z
_cell_length_a 60.3463
_cell_length_b 61.1069
_cell_length_c 58.1654
_cell_angle_alpha 92.446700
_cell_angle_beta 90.140800
_cell_angle_gamma 90.240100
loop_
  _atom_site_label
  _atom_site_type_symbol
  _atom_site_fract_x
  _atom_site_fract_y
  _atom_site_fract_z
N1 N 0.28121 0.24197 0.22993
 N2 N 0.27292 0.26009 0.22214
 C3 C 0.28570 0.26680 0.20481
 C4 C 0.30277 0.25201 0.20154
 C5 C 0.29943 0.23643 0.21773
 H6 H 0.28281 0.28126 0.19517
 H7 H 0.30959 0.22225 0.22050
 Cu8 Cu 0.24612 0.27298 0.23523
 Cu9 Cu 0.26799 0.22718 0.25559
 Cu10 Cu 0.22008 0.24984 0.27916
 N11 N 0.21892 0.28517 0.24812
 N12 N 0.20903 0.27632 0.26561
 C13 C 0.19097 0.28819 0.27140
 C14 C 0.18942 0.30525 0.25663
 C15 C 0.20736 0.30283 0.24205
 H16 H 0.17970 0.28461 0.28519
 H17 H 0.21167 0.31328 0.22820
 N18 N 0.23385 0.22308 0.29043
 N19 N 0.25223 0.21463 0.28162
 C20 C 0.25768 0.19680 0.29320
 C21 C 0.24192 0.19383 0.30995
 C22 C 0.22703 0.21071 0.30772
 H23 H 0.27201 0.18663 0.28973
 H24 H 0.21245 0.21381 0.31811
 H25 H 0.23592 0.23758 0.24995
 H26 H 0.25298 0.25445 0.27088
 N27 N 0.71558 -0.25113 0.22017
 N28 N 0.72376 -0.26976 0.21189
 C29 C 0.71141 -0.27694 0.19372
 C30 C 0.69472 -0.26191 0.19043
 C31 C 0.69789 -0.24574 0.20750
 H32 H 0.71437 -0.29186 0.18353
 H33 H 0.68797 -0.23120 0.21054
 Cu34 Cu 0.74996 -0.28257 0.22554
 Cu35 Cu 0.72819 -0.23536 0.24696
 Cu36 Cu 0.77500 -0.25757 0.27130
 N37 N 0.77674 -0.29444 0.23896
 N38 N 0.78612 -0.28477 0.25715
 C39 C 0.80392 -0.29639 0.26327
 C40 C 0.80593 -0.31422 0.24798
 C41 C 0.78844 -0.31248 0.23273
 H42 H 0.81473 -0.29210 0.27764
 H43 H 0.78452 -0.32359 0.21831
 N44 N 0.76134 -0.23015 0.28319
 N45 N 0.74332 -0.22182 0.27412
 C46 C 0.73791 -0.20333 0.28625
 C47 C 0.75334 -0.19984 0.30361
 C48 C 0.76796 -0.21709 0.30117
 H49 H 0.72388 -0.19305 0.28270
 H50 H 0.78227 -0.21992 0.31184
 H51 H 0.76017 -0.24652 0.24190
 H52 H 0.74228 -0.26218 0.26162
 N53 N 0.72163 0.25085 0.78509
 N54 N 0.72973 0.26942 0.79381
 C55 C 0.71708 0.27628 0.81179
 C56 C 0.70031 0.26110 0.81441
 C57 C 0.70371 0.24519 0.79723
 H58 H 0.71985 0.29110 0.82225
 H59 H 0.69377 0.23065 0.79376
 Cu60 Cu 0.75610 0.28256 0.78077
 Cu61 Cu 0.73455 0.23545 0.75844
 Cu62 Cu 0.78171 0.25816 0.73521
 N63 N 0.78300 0.29484 0.76793
 N64 N 0.79264 0.28536 0.74988
 C65 C 0.81038 0.29732 0.74407
 C66 C 0.81204 0.31520 0.75937
 C67 C 0.79444 0.31312 0.77435
 H68 H 0.82129 0.29331 0.72979
 H69 H 0.79020 0.32421 0.78864
 N70 N 0.76812 0.23071 0.72281
 N71 N 0.74996 0.22225 0.73149
 C72 C 0.74450 0.20389 0.71910
 C73 C 0.76002 0.20058 0.70192
 C74 C 0.77478 0.21783 0.70476
 H75 H 0.73032 0.19359 0.72229
 H76 H 0.78917 0.22082 0.69428
 H77 H 0.76654 0.24678 0.76416
 H78 H 0.74895 0.26253 0.74429
 N79 N 0.29239 -0.24838 0.75738
 N80 N 0.28516 -0.26799 0.76212
 C81 C 0.29738 -0.27571 0.77939
 C82 C 0.31306 -0.26001 0.78578
 C83 C 0.30946 -0.24290 0.77143
 H84 H 0.29483 -0.29138 0.78696
 H85 H 0.31848 -0.22756 0.77131
 Cu86 Cu 0.25988 -0.28121 0.74592
 Cu87 Cu 0.27926 -0.23184 0.73301
 Cu88 Cu 0.22509 -0.24679 0.72005
 N89 N 0.22958 -0.28948 0.73840
 N90 N 0.21554 -0.27534 0.73023
 C91 C 0.19535 -0.28475 0.72844
 C92 C 0.19699 -0.30603 0.73551
 C93 C 0.21897 -0.30852 0.74164
 H94 H 0.18074 -0.27694 0.72183
 H95 H 0.22654 -0.32289 0.74849
 N96 N 0.23858 -0.21908 0.71054
 N97 N 0.25944 -0.21376 0.71497
 C98 C 0.26445 -0.19519 0.70446
 C99 C 0.24591 -0.18857 0.69271
 C100 C 0.22979 -0.20401 0.69696
 H101 H 0.28060 -0.18744 0.70470
 H102 H 0.21324 -0.20474 0.68977
 H103 H 0.24958 -0.24289 0.74479
 H104 H 0.25784 -0.25435 0.71581
 N105 N 0.71052 -0.24832 0.76109
 N106 N 0.71801 -0.26761 0.76650
 C107 C 0.70416 -0.27628 0.78185
 C108 C 0.68722 -0.26156 0.78628
 C109 C 0.69172 -0.24404 0.77278
 H110 H 0.70673 -0.29160 0.79009
 H111 H 0.68247 -0.22895 0.77223
 Cu112 Cu 0.74653 -0.27814 0.75523
 Cu113 Cu 0.72653 -0.22936 0.74079
 Cu114 Cu 0.77846 -0.24667 0.72252
 N115 N 0.77512 -0.28817 0.74369
 N116 N 0.78825 -0.27502 0.73262
 C117 C 0.80777 -0.28504 0.72862
 C118 C 0.80665 -0.30572 0.73733
 C119 C 0.78567 -0.30724 0.74667
 H120 H 0.82158 -0.27800 0.71965
 H121 H 0.77893 -0.32094 0.75558
 N122 N 0.76529 -0.21875 0.71380
 N123 N 0.74526 -0.21248 0.72025
 C124 C 0.74018 -0.19383 0.70994
 C125 C 0.75784 -0.18814 0.69637
 C126 C 0.77350 -0.20420 0.69924
 H127 H 0.72456 -0.18531 0.71160
 H128 H 0.78929 -0.20563 0.69058
 H129 H 0.74495 -0.25347 0.72349
 H130 H 0.75756 -0.24024 0.74999
 N131 N 0.27757 0.24976 0.78616
 N132 N 0.26954 0.26822 0.79500
 C133 C 0.28248 0.27525 0.81278
 C134 C 0.29937 0.26029 0.81514
 C135 C 0.29574 0.24434 0.79803
 H136 H 0.27983 0.29003 0.82329
 H137 H 0.30570 0.22993 0.79441
 Cu138 Cu 0.24289 0.28102 0.78235
 Cu139 Cu 0.26428 0.23419 0.75972
 Cu140 Cu 0.21648 0.25615 0.73728
 N141 N 0.21566 0.29284 0.76995
 N142 N 0.20565 0.28315 0.75215
 C143 C 0.18778 0.29490 0.74657
 C144 C 0.18646 0.31284 0.76174
 C145 C 0.20435 0.31105 0.77641
 H146 H 0.17661 0.29080 0.73245
 H147 H 0.20891 0.32237 0.79045
 N148 N 0.23006 0.22895 0.72465
 N149 N 0.24847 0.22080 0.73303
 C150 C 0.25396 0.20265 0.72043
 C151 C 0.23821 0.19917 0.70343
 C152 C 0.22326 0.21607 0.70658
 H153 H 0.26837 0.19267 0.72331
 H154 H 0.20871 0.21889 0.69625
 H155 H 0.24940 0.26106 0.74578
 H156 H 0.23235 0.24507 0.76600
 N157 N 0.28408 -0.24864 0.21872
 N158 N 0.27528 -0.26686 0.20990
 C159 C 0.28780 -0.27424 0.19206
 C160 C 0.30520 -0.25976 0.18957
 C161 C 0.30233 -0.24371 0.20672
 H162 H 0.28447 -0.28890 0.18153
 H163 H 0.31280 -0.22955 0.21022
 Cu164 Cu 0.24814 -0.27892 0.22235
 Cu165 Cu 0.27139 -0.23268 0.24516
 Cu166 Cu 0.22393 -0.25446 0.26869
 N167 N 0.22171 -0.29113 0.23615
 N168 N 0.21260 -0.28163 0.25448
 C169 C 0.19497 -0.29349 0.26077
 C170 C 0.19283 -0.31129 0.24550
 C171 C 0.21003 -0.30932 0.23005
 H172 H 0.18437 -0.28942 0.27529
 H173 H 0.21377 -0.32042 0.21561
 N174 N 0.23784 -0.22711 0.28067
 N175 N 0.25611 -0.21894 0.27192
 C176 C 0.26165 -0.20042 0.28405
 C177 C 0.24603 -0.19677 0.30107
 C178 C 0.23118 -0.21393 0.29844
 H179 H 0.27588 -0.19025 0.28072
 H180 H 0.21668 -0.21662 0.30885
 H181 H 0.25650 -0.25966 0.25893
 H182 H 0.23910 -0.24300 0.23969
 N183 N 0.71745 0.24068 0.23259
 N184 N 0.72576 0.25892 0.22500
 C185 C 0.71291 0.26577 0.20779
 C186 C 0.69577 0.25095 0.20440
 C187 C 0.69912 0.23520 0.22037
 H188 H 0.71583 0.28032 0.19828
 H189 H 0.68893 0.22092 0.22297
 Cu190 Cu 0.75273 0.27177 0.23802
 Cu191 Cu 0.73085 0.22564 0.25794
 Cu192 Cu 0.77921 0.24809 0.28137
 N193 N 0.78021 0.28372 0.25077
 N194 N 0.79029 0.27470 0.26803
 C195 C 0.80856 0.28649 0.27371
 C196 C 0.81002 0.30365 0.25907
 C197 C 0.79184 0.30140 0.24471
 H198 H 0.82004 0.28276 0.28729
 H199 H 0.78742 0.31198 0.23100
 N200 N 0.76537 0.22123 0.29241
 N201 N 0.74682 0.21286 0.28365
 C202 C 0.74137 0.19489 0.29505
 C203 C 0.75731 0.19177 0.31163
 C204 C 0.77230 0.20868 0.30950
 H205 H 0.72692 0.18475 0.29158
 H206 H 0.78702 0.21168 0.31980
 H207 H 0.74624 0.25278 0.27345
 H208 H 0.76293 0.23619 0.25212
 O209 O 0.25736 0.02341 0.47930
 O210 O 0.25762 -0.01820 0.52323
 O211 O 0.25804 -0.01911 0.47837
 O212 O 0.25695 0.02432 0.52414
 O213 O 0.22034 0.02380 0.52356
 O214 O 0.22143 -0.02001 0.47807
 O215 O 0.22102 -0.01891 0.52288
 O216 O 0.22075 0.02279 0.47887
 Cu217 Cu 0.26116 0.00266 0.50130
 Cu218 Cu 0.21720 0.00182 0.50078
 C219 C 0.23903 0.03023 0.47166
 C220 C 0.23939 -0.02561 0.53057
 C221 C 0.23993 -0.02698 0.47046
 C222 C 0.23849 0.03149 0.53159
 O223 O 0.74264 0.02261 0.52539
 O224 O 0.74170 -0.02144 0.48020
 O225 O 0.74242 -0.01989 0.52511
 O226 O 0.74223 0.02110 0.48056
 O227 O 0.77884 0.02098 0.48022
 O228 O 0.77903 -0.02006 0.52475
 O229 O 0.77830 -0.02181 0.47995
 O230 O 0.77925 0.02265 0.52490
 Cu231 Cu 0.73857 0.00059 0.50284
 Cu232 Cu 0.78254 0.00039 0.50240
 C233 C 0.76108 0.03017 0.53279
 C234 C 0.75982 -0.02915 0.47241
 C235 C 0.76075 -0.02691 0.53254
 C236 C 0.76051 0.02807 0.47288
 O237 O 0.47875 0.27739 0.03062
 O238 O 0.52233 0.27888 -0.01361
 O239 O 0.47895 0.27895 -0.01393
 O240 O 0.52198 0.27730 0.03098
 O241 O 0.52163 0.24112 0.02808
 O242 O 0.47887 0.24278 -0.01694
 O243 O 0.52201 0.24272 -0.01661
 O244 O 0.47867 0.24121 0.02773
 Cu245 Cu 0.50053 0.28177 0.00879
 Cu246 Cu 0.50028 0.23833 0.00522
 C247 C 0.47132 0.25904 0.03670
 C248 C 0.52963 0.26102 -0.02257
 C249 C 0.47153 0.26111 -0.02299
 C250 C 0.52907 0.25892 0.03720
 O251 O 0.52227 0.71527 0.01337
 O252 O 0.47854 0.71563 -0.03113
 O253 O 0.52169 0.71526 -0.03144
 O254 O 0.47886 0.71549 0.01365
 O255 O 0.47943 0.75168 0.01540
 O256 O 0.52197 0.75145 -0.02976
 O257 O 0.47906 0.75182 -0.02940
 O258 O 0.52248 0.75145 0.01511
 Cu259 Cu 0.50031 0.71177 -0.00900
 Cu260 Cu 0.50079 0.75522 -0.00695
 C261 C 0.52980 0.73334 0.02180
 C262 C 0.47147 0.73383 -0.03791
 C263 C 0.52898 0.73334 -0.03838
 C264 C 0.47184 0.73365 0.02216
 O265 O 0.02117 0.47823 0.27156
 O266 O -0.02201 0.52059 0.27018
 O267 O -0.02175 0.47795 0.27193
 O268 O 0.02111 0.52084 0.26984
 O269 O 0.02080 0.51792 0.23185
 O270 O -0.02221 0.47516 0.23393
 O271 O -0.02254 0.51757 0.23220
 O272 O 0.02096 0.47550 0.23356
 Cu273 Cu -0.00033 0.49974 0.27470
 Cu274 Cu -0.00079 0.49628 0.22906
 C275 C 0.02837 0.46962 0.25279
 C276 C -0.02969 0.52622 0.25097
 C277 C -0.02921 0.46921 0.25327
 C278 C 0.02831 0.52662 0.25051
 O279 O 0.02278 0.52677 0.72794
 O280 O -0.02075 0.48479 0.73230
 O281 O -0.02088 0.52683 0.72760
 O282 O 0.02199 0.48471 0.73265
 O283 O 0.02213 0.49026 0.77043
 O284 O -0.02047 0.53282 0.76535
 O285 O -0.02130 0.49046 0.77007
 O286 O 0.02222 0.53264 0.76569
 Cu287 Cu 0.00081 0.50535 0.72631
 Cu288 Cu 0.00063 0.51202 0.77171
 C289 C 0.02989 0.53684 0.74605
 C290 C -0.02838 0.48041 0.75191
 C291 C -0.02794 0.53699 0.74560
 C292 C 0.02926 0.48022 0.75237
 C293 C 0.35360 0.25421 0.15293
 N294 N 0.35093 0.23636 0.16580
 N295 N 0.33478 0.23568 0.18135
 C296 C 0.32065 0.25277 0.18450
 N297 N 0.32329 0.27058 0.17160
 N298 N 0.33950 0.27132 0.15614
 C299 C 0.37137 0.25498 0.13578
 N300 N 0.37576 0.27377 0.12497
 N301 N 0.39186 0.27447 0.10938
 C302 C 0.40407 0.25639 0.10393
 N303 N 0.39965 0.23758 0.11471
 N304 N 0.38363 0.23691 0.13040
 C305 C 0.42167 0.25711 0.08658
 N306 N 0.43187 0.23845 0.07891
 N307 N 0.44769 0.23907 0.06301
 C308 C 0.45397 0.25840 0.05430
 N309 N 0.44382 0.27708 0.06203
 N310 N 0.42792 0.27644 0.07784
 C311 C 0.64607 0.73577 0.14078
 N312 N 0.64780 0.75321 0.15594
 N313 N 0.66353 0.75390 0.17207
 C314 C 0.67822 0.73724 0.17358
 N315 N 0.67651 0.71981 0.15836
 N316 N 0.66069 0.71906 0.14231
 C317 C 0.62869 0.73513 0.12300
 N318 N 0.62493 0.71668 0.10968
 N319 N 0.60912 0.71619 0.09361
 C320 C 0.59659 0.73419 0.09018
 N321 N 0.60040 0.75263 0.10346
 N322 N 0.61611 0.75307 0.11961
 C323 C 0.57924 0.73383 0.07238
 N324 N 0.56891 0.75262 0.06696
 N325 N 0.55321 0.75243 0.05081
 C326 C 0.54716 0.73341 0.03956
 N327 N 0.55743 0.71458 0.04501
 N328 N 0.57323 0.71480 0.06108
 C329 C 0.64942 0.26208 -0.13684
 N330 N 0.65248 0.24434 -0.15131
 N331 N 0.66869 0.24409 -0.16681
 C332 C 0.68252 0.26153 -0.16837
 N333 N 0.67953 0.27928 -0.15386
 N334 N 0.66323 0.27957 -0.13841
 C335 C 0.63146 0.26222 -0.11983
 N336 N 0.62669 0.28062 -0.10691
 N337 N 0.61030 0.28063 -0.09157
 C338 C 0.59817 0.26220 -0.08854
 N339 N 0.60298 0.24381 -0.10144
 N340 N 0.61928 0.24383 -0.11683
 C341 C 0.58021 0.26204 -0.07153
 N342 N 0.56984 0.24299 -0.06682
 N343 N 0.55369 0.24270 -0.05127
 C344 C 0.54722 0.26147 -0.03994
 N345 N 0.55753 0.28055 -0.04470
 N346 N 0.57376 0.28082 -0.06019
 C347 C 0.36006 0.73748 -0.16141
 N348 N 0.34730 0.71971 -0.16716
 N349 N 0.33233 0.72049 -0.18399
 C350 C 0.32964 0.73902 -0.19574
 N351 N 0.34244 0.75676 -0.19003
 N352 N 0.35734 0.75601 -0.17315
 C353 C 0.37650 0.73675 -0.14277
 N354 N 0.38771 0.75514 -0.13569
 N355 N 0.40261 0.75456 -0.11880
 C356 C 0.40694 0.73556 -0.10841
 N357 N 0.39576 0.71715 -0.11551
 N358 N 0.38077 0.71774 -0.13235
 C359 C 0.42351 0.73501 -0.08989
 N360 N 0.42956 0.71575 -0.08093
 N361 N 0.44480 0.71534 -0.06431
 C362 C 0.45445 0.73418 -0.05599
 N363 N 0.44833 0.75342 -0.06490
 N364 N 0.43318 0.75383 -0.08156
 C365 C 0.14119 0.35416 0.25576
 N366 N 0.15597 0.35164 0.23831
 N367 N 0.17135 0.33608 0.23863
 C368 C 0.17241 0.32236 0.25635
 N369 N 0.15758 0.32481 0.27377
 N370 N 0.14229 0.34047 0.27352
 C371 C 0.12435 0.37142 0.25541
 N372 N 0.11176 0.37624 0.27425
 N373 N 0.09659 0.39201 0.27391
 C374 C 0.09336 0.40343 0.25468
 N375 N 0.10589 0.39856 0.23582
 N376 N 0.12116 0.38290 0.23620
 C377 C 0.07655 0.42073 0.25423
 N378 N 0.07096 0.42979 0.23412
 N379 N 0.05560 0.44537 0.23366
 C380 C 0.04540 0.45257 0.25332
 N381 N 0.05106 0.44358 0.27345
 N382 N 0.06631 0.42790 0.27388
 C383 C 0.14736 0.64788 0.73746
 N384 N 0.14259 0.66904 0.73333
 N385 N 0.15870 0.68396 0.73250
 C386 C 0.18014 0.67834 0.73618
 N387 N 0.18486 0.65719 0.74052
 N388 N 0.16878 0.64220 0.74094
 C389 C 0.12965 0.63142 0.73826
 N390 N 0.13359 0.61021 0.73170
 N391 N 0.11750 0.59526 0.73243
 C392 C 0.09701 0.60092 0.74015
 N393 N 0.09312 0.62210 0.74687
 N394 N 0.10910 0.63713 0.74575
 C395 C 0.07945 0.58437 0.74149
 N396 N 0.06376 0.58618 0.75813
 N397 N 0.04803 0.57094 0.75965
 C398 C 0.04720 0.55358 0.74432
 N399 N 0.06275 0.55188 0.72753
 N400 N 0.07872 0.56691 0.72626
 C401 C -0.14601 0.63834 0.24839
 N402 N -0.14676 0.65438 0.26524
 N403 N -0.16231 0.66977 0.26504
 C404 C -0.17781 0.66964 0.24806
 N405 N -0.17711 0.65354 0.23124
 N406 N -0.16145 0.63821 0.23136
 C407 C -0.12875 0.62146 0.24867
 N408 N -0.12569 0.60741 0.23024
 N409 N -0.10990 0.59223 0.23052
 C410 C -0.09670 0.59047 0.24928
 N411 N -0.09982 0.60447 0.26773
 N412 N -0.11551 0.61973 0.26739
 C413 C -0.07930 0.57374 0.24967
 N414 N -0.06839 0.56986 0.26953
 N415 N -0.05263 0.55468 0.26994
 C416 C -0.04708 0.54293 0.25049
 N417 N -0.05793 0.54685 0.23061
 N418 N -0.07380 0.56194 0.23023
 C419 C -0.14109 0.36417 0.75885
 N420 N -0.15658 0.36400 0.77575
 N421 N -0.17182 0.34814 0.77596
 C422 C -0.17204 0.33180 0.75935
 N423 N -0.15647 0.33196 0.74254
 N424 N -0.14134 0.34787 0.74226
 C425 C -0.12441 0.38172 0.75826
 N426 N -0.11120 0.38343 0.73956
 N427 N -0.09609 0.39931 0.73880
 C428 C -0.09350 0.41403 0.75676
 N429 N -0.10665 0.41231 0.77552
 N430 N -0.12189 0.39648 0.77623
 C431 C -0.07673 0.43147 0.75570
 N432 N -0.07160 0.44439 0.77457
 N433 N -0.05618 0.46001 0.77345
 C434 C -0.04546 0.46334 0.75338
 N435 N -0.05068 0.45048 0.73453
 N436 N -0.06597 0.43480 0.73568
 C437 C 0.24039 0.14450 0.35764
 N438 N 0.22296 0.15828 0.35564
 N439 N 0.22344 0.17403 0.34048
 C440 C 0.24132 0.17648 0.32669
 N441 N 0.25871 0.16266 0.32864
 N442 N 0.25828 0.14700 0.34388
 C443 C 0.23999 0.12724 0.37446
 N444 N 0.25845 0.11536 0.37847
 N445 N 0.25819 0.09980 0.39383
 C446 C 0.23942 0.09545 0.40565
 N447 N 0.22093 0.10728 0.40159
 N448 N 0.22122 0.12293 0.38631
 C449 C 0.23923 0.07836 0.42266
 N450 N 0.21997 0.07215 0.43256
 N451 N 0.21986 0.05671 0.44807
 C452 C 0.23903 0.04700 0.45432
 N453 N 0.25828 0.05323 0.44444
 N454 N 0.25837 0.06858 0.42885
 C455 C 0.76111 0.14948 0.65173
 N456 N 0.74346 0.15220 0.66598
 N457 N 0.74318 0.16843 0.68201
 C458 C 0.76048 0.18263 0.68430
 N459 N 0.77812 0.17996 0.67002
 N460 N 0.77846 0.16364 0.65406
 C461 C 0.76132 0.13158 0.63405
 N462 N 0.77988 0.12711 0.62158
 N463 N 0.77999 0.11085 0.60556
 C464 C 0.76151 0.09855 0.60134
 N465 N 0.74296 0.10305 0.61378
 N466 N 0.74288 0.11923 0.62988
 C467 C 0.76150 0.08072 0.58357
 N468 N 0.74232 0.07033 0.57743
 N469 N 0.74221 0.05424 0.56123
 C470 C 0.76130 0.04786 0.55068
 N471 N 0.78050 0.05819 0.55687
 N472 N 0.78059 0.07437 0.57298
 C473 C 0.24252 -0.13768 0.64696
 N474 N 0.22422 -0.14978 0.65146
 N475 N 0.22520 -0.16583 0.66625
 C476 C 0.24448 -0.17031 0.67713
 N477 N 0.26272 -0.15811 0.67274
 N478 N 0.26176 -0.14211 0.65793
 C479 C 0.24173 -0.12046 0.63010
 N480 N 0.26051 -0.10974 0.62427
 N481 N 0.25999 -0.09447 0.60861
 C482 C 0.24065 -0.08931 0.59822
 N483 N 0.22184 -0.09996 0.60410
 N484 N 0.22237 -0.11529 0.61972
 C485 C 0.24022 -0.07265 0.58073
 N486 N 0.22077 -0.06644 0.57124
 N487 N 0.22047 -0.05141 0.55528
 C488 C 0.23962 -0.04212 0.54819
 N489 N 0.25905 -0.04835 0.55767
 N490 N 0.25934 -0.06332 0.57366
 C491 C 0.75552 -0.14832 0.35332
 N492 N 0.77260 -0.16264 0.35105
 N493 N 0.77188 -0.17905 0.33524
 C494 C 0.75410 -0.18169 0.32103
 N495 N 0.73705 -0.16734 0.32323
 N496 N 0.73772 -0.15099 0.33914
 C497 C 0.75627 -0.13033 0.37091
 N498 N 0.73813 -0.11778 0.37527
 N499 N 0.73875 -0.10159 0.39136
 C500 C 0.75758 -0.09728 0.40358
 N501 N 0.77575 -0.10978 0.39916
 N502 N 0.77509 -0.12605 0.38316
 C503 C 0.75823 -0.07949 0.42139
 N504 N 0.77765 -0.07339 0.43168
 N505 N 0.77820 -0.05728 0.44787
 C506 C 0.75932 -0.04678 0.45444
 N507 N 0.73990 -0.05291 0.44419
 N508 N 0.73937 -0.06892 0.42791
 C509 C 0.63825 0.73523 -0.16327
 N510 N 0.65141 0.71769 -0.16825
 N511 N 0.66686 0.71859 -0.18452
 C512 C 0.66962 0.73701 -0.19646
 N513 N 0.65634 0.75446 -0.19160
 N514 N 0.64097 0.75360 -0.17528
 C515 C 0.62171 0.73461 -0.14485
 N516 N 0.61055 0.75302 -0.13814
 N517 N 0.59585 0.75268 -0.12112
 C518 C 0.59170 0.73389 -0.11024
 N519 N 0.60279 0.71544 -0.11700
 N520 N 0.61759 0.71580 -0.13396
 C521 C 0.57555 0.73365 -0.09143
 N522 N 0.56956 0.71456 -0.08201
 N523 N 0.55476 0.71443 -0.06504
 C524 C 0.54553 0.73341 -0.05680
 N525 N 0.55159 0.75250 -0.06616
 N526 N 0.56630 0.75261 -0.08319
 C527 C 0.35113 0.26183 -0.13693
 N528 N 0.34787 0.24407 -0.15135
 N529 N 0.33138 0.24365 -0.16661
 C530 C 0.31747 0.26094 -0.16793
 N531 N 0.32066 0.27871 -0.15348
 N532 N 0.33724 0.27917 -0.13827
 C533 C 0.36934 0.26211 -0.12016
 N534 N 0.37427 0.28053 -0.10723
 N535 N 0.39085 0.28062 -0.09203
 C536 C 0.40300 0.26228 -0.08916
 N537 N 0.39804 0.24388 -0.10207
 N538 N 0.38156 0.24382 -0.11733
 C539 C 0.42105 0.26216 -0.07222
 N540 N 0.43132 0.24313 -0.06755
 N541 N 0.44748 0.24284 -0.05193
 C542 C 0.45405 0.26159 -0.04052
 N543 N 0.44386 0.28066 -0.04526
 N544 N 0.42762 0.28093 -0.06080
 C545 C 0.35545 0.73725 0.14017
 N546 N 0.34109 0.72026 0.14207
 N547 N 0.32505 0.72119 0.15780
 C548 C 0.32287 0.73909 0.17224
 N549 N 0.33727 0.75604 0.17038
 N550 N 0.35323 0.75516 0.15459
 C551 C 0.37300 0.73643 0.12272
 N552 N 0.38555 0.75443 0.11908
 N553 N 0.40138 0.75383 0.10316
 C554 C 0.40534 0.73515 0.09037
 N555 N 0.39286 0.71711 0.09406
 N556 N 0.37693 0.71775 0.10992
 C557 C 0.42273 0.73463 0.07275
 N558 N 0.42853 0.71550 0.06166
 N559 N 0.44427 0.71513 0.04562
 C560 C 0.45469 0.73390 0.04001
 N561 N 0.44887 0.75301 0.05107
 N562 N 0.43323 0.75336 0.06719
 C563 C 0.64504 0.25348 0.15556
 N564 N 0.65921 0.27061 0.15907
 N565 N 0.67538 0.26978 0.17463
 C566 C 0.67788 0.25183 0.18733
 N567 N 0.66367 0.23472 0.18390
 N568 N 0.64757 0.23551 0.16824
 C569 C 0.62741 0.25436 0.13823
 N570 N 0.61507 0.23631 0.13251
 N571 N 0.59925 0.23708 0.11656
 C572 C 0.59512 0.25595 0.10584
 N573 N 0.60740 0.27402 0.11164
 N574 N 0.62330 0.27323 0.12750
 C575 C 0.57782 0.25676 0.08815
 N576 N 0.57196 0.27613 0.07932
 N577 N 0.55634 0.27684 0.06315
 C578 C 0.54612 0.25820 0.05514
 N579 N 0.55200 0.23884 0.06395
 N580 N 0.56753 0.23814 0.08020
 C581 C -0.14435 0.64789 0.73702
 N582 N -0.13990 0.66853 0.73059
 N583 N -0.15587 0.68350 0.73039
 C584 C -0.17678 0.67849 0.73706
 N585 N -0.18117 0.65786 0.74363
 N586 N -0.16529 0.64277 0.74342
 C587 C -0.12676 0.63149 0.73745
 N588 N -0.13130 0.61003 0.73251
 N589 N -0.11531 0.59509 0.73310
 C590 C -0.09432 0.60107 0.73909
 N591 N -0.08981 0.62250 0.74420
 N592 N -0.10572 0.63749 0.74318
 C593 C -0.07689 0.58457 0.74049
 N594 N -0.06070 0.58686 0.75665
 N595 N -0.04513 0.57162 0.75833
 C596 C -0.04498 0.55377 0.74363
 N597 N -0.06103 0.55160 0.72729
 N598 N -0.07684 0.56664 0.72589
 C599 C -0.14146 0.35258 0.25773
 N600 N -0.14230 0.33883 0.27545
 N601 N -0.15768 0.32313 0.27586
 C602 C -0.17283 0.32073 0.25863
 N603 N -0.17200 0.33451 0.24096
 N604 N -0.15655 0.35010 0.24047
 C605 C -0.12459 0.36990 0.25718
 N606 N -0.12176 0.38142 0.23795
 N607 N -0.10652 0.39721 0.23738
 C608 C -0.09367 0.40217 0.25608
 N609 N -0.09653 0.39070 0.27534
 N610 N -0.11168 0.37480 0.27586
 C611 C -0.07696 0.41964 0.25541
 N612 N -0.06642 0.42696 0.27493
 N613 N -0.05130 0.44286 0.27427
 C614 C -0.04607 0.45192 0.25406
 N615 N -0.05657 0.44456 0.23455
 N616 N -0.07179 0.42877 0.23523
 C617 C 0.13944 0.36286 0.76086
 N618 N 0.14026 0.34720 0.74362
 N619 N 0.15516 0.33122 0.74404
 C620 C 0.16988 0.33036 0.76164
 N621 N 0.16910 0.34602 0.77890
 N622 N 0.15410 0.36196 0.77855
 C623 C 0.12309 0.38053 0.76009
 N624 N 0.12018 0.39483 0.77835
 N625 N 0.10529 0.41083 0.77744
 C626 C 0.09289 0.41316 0.75819
 N627 N 0.09585 0.39889 0.73995
 N628 N 0.11062 0.38284 0.74091
 C629 C 0.07653 0.43078 0.75689
 N630 N 0.06637 0.43452 0.73661
 N631 N 0.05142 0.45037 0.73523
 C632 C 0.04599 0.46301 0.75411
 N633 N 0.05611 0.45928 0.77444
 N634 N 0.07118 0.44347 0.77580
 C635 C 0.14420 0.63984 0.24652
 N636 N 0.14624 0.65488 0.26426
 N637 N 0.16173 0.67045 0.26387
 C638 C 0.17583 0.67147 0.24581
 N639 N 0.17385 0.65639 0.22808
 N640 N 0.15827 0.64089 0.22840
 C641 C 0.12700 0.62281 0.24698
 N642 N 0.12287 0.60951 0.22815
 N643 N 0.10712 0.59419 0.22860
 C644 C 0.09501 0.59155 0.24795
 N645 N 0.09920 0.60480 0.26679
 N646 N 0.11486 0.62019 0.26629
 C647 C 0.07767 0.57467 0.24854
 N648 N 0.06757 0.57024 0.26866
 N649 N 0.05185 0.55491 0.26928
 C650 C 0.04557 0.54354 0.24977
 N651 N 0.05562 0.54800 0.22963
 N652 N 0.07143 0.56325 0.22904
 C653 C 0.76003 -0.13760 0.65020
 N654 N 0.74135 -0.14145 0.66237
 N655 N 0.74078 -0.15735 0.67733
 C656 C 0.75883 -0.17003 0.68060
 N657 N 0.77754 -0.16614 0.66850
 N658 N 0.77814 -0.15018 0.65360
 C659 C 0.76040 -0.12051 0.63322
 N660 N 0.77940 -0.11567 0.62204
 N661 N 0.77958 -0.10047 0.60628
 C662 C 0.76075 -0.08965 0.60106
 N663 N 0.74176 -0.09448 0.61227
 N664 N 0.74159 -0.10961 0.62808
 C665 C 0.76081 -0.07321 0.58339
 N666 N 0.74157 -0.06399 0.57662
 N667 N 0.74156 -0.04925 0.56039
 C668 C 0.76079 -0.04315 0.55040
 N669 N 0.78005 -0.05232 0.55721
 N670 N 0.78005 -0.06712 0.57338
 C671 C 0.24397 -0.14521 0.35062
 N672 N 0.26188 -0.14792 0.33671
 N673 N 0.26251 -0.16429 0.32084
 C674 C 0.24531 -0.17859 0.31839
 N675 N 0.22743 -0.17590 0.33232
 N676 N 0.22674 -0.15947 0.34811
 C677 C 0.24328 -0.12727 0.36821
 N678 N 0.22443 -0.12307 0.38027
 N679 N 0.22381 -0.10688 0.39634
 C680 C 0.24206 -0.09440 0.40102
 N681 N 0.26092 -0.09862 0.38898
 N682 N 0.26150 -0.11473 0.37282
 C683 C 0.24146 -0.07675 0.41893
 N684 N 0.26034 -0.06612 0.42566
 N685 N 0.25984 -0.05027 0.44210
 C686 C 0.24042 -0.04438 0.45231
 N687 N 0.22153 -0.05495 0.44552
 N688 N 0.22204 -0.07089 0.42917
 C689 C 0.75894 0.14206 0.35878
 N690 N 0.74095 0.14460 0.34510
 N691 N 0.74050 0.16039 0.33001
 C692 C 0.75795 0.17427 0.32814
 N693 N 0.77593 0.17176 0.34184
 N694 N 0.77643 0.15590 0.35686
 C695 C 0.75935 0.12473 0.37548
 N696 N 0.77815 0.12048 0.38732
 N697 N 0.77845 0.10481 0.40255
 C698 C 0.75993 0.09290 0.40658
 N699 N 0.74112 0.09717 0.39476
 N700 N 0.74085 0.11276 0.37944
 C701 C 0.76014 0.07584 0.42359
 N702 N 0.74101 0.06596 0.42978
 N703 N 0.74114 0.05069 0.44546
 C704 C 0.76042 0.04467 0.45540
 N705 N 0.77957 0.05448 0.44913
 N706 N 0.77943 0.06983 0.43354
 C707 C 0.23745 0.14884 0.65246
 N708 N 0.21990 0.16254 0.65508
 N709 N 0.22011 0.17861 0.67131
 C710 C 0.23783 0.18146 0.68557
 N711 N 0.25533 0.16771 0.68299
 N712 N 0.25517 0.15173 0.66669
 C713 C 0.23740 0.13124 0.63447
 N714 N 0.25599 0.11937 0.63011
 N715 N 0.25607 0.10347 0.61372
 C716 C 0.23752 0.09877 0.60119
 N717 N 0.21889 0.11060 0.60560
 N718 N 0.21885 0.12659 0.62191
 C719 C 0.23769 0.08125 0.58314
 N720 N 0.21864 0.07470 0.57240
 N721 N 0.21886 0.05878 0.55602
 C722 C 0.23816 0.04891 0.54972
 N723 N 0.25721 0.05549 0.56042
 N724 N 0.25697 0.07133 0.57688
   
