data_POSCAR
  _audit_creation_date              2014-09-24
  _audit_creation_method            'ToBaCCo'
  _symmetry_space_group_name_H-M    'P1'
  _symmetry_Int_Tables_number       1
  _symmetry_cell_setting            triclinic
  loop_
  _symmetry_equiv_pos_as_xyz
 x,y,z
_cell_length_a 48.2360
_cell_length_b 50.5481
_cell_length_c 21.5257
_cell_angle_alpha 90.228200
_cell_angle_beta 89.835200
_cell_angle_gamma 119.175200
loop_
  _atom_site_label
  _atom_site_type_symbol
  _atom_site_fract_x
  _atom_site_fract_y
  _atom_site_fract_z
C1 C 0.30207 0.43030 0.46953
 C2 C 0.30295 0.43080 0.53322
 C3 C 0.27172 0.41803 0.55352
 N4 N 0.25187 0.41021 0.50418
 C5 C 0.27041 0.41767 0.45288
 C6 C 0.26153 0.41385 0.61642
 C7 C 0.23108 0.41002 0.63138
 C8 C 0.21398 0.39639 0.68483
 C9 C 0.18768 0.40030 0.68463
 C10 C 0.18928 0.41600 0.63083
 N11 N 0.21543 0.42128 0.59795
 C12 C 0.16811 0.42686 0.61502
 C13 C 0.16465 0.43363 0.55265
 C14 C 0.15246 0.45216 0.53382
 C15 C 0.15163 0.45128 0.47016
 C16 C 0.16356 0.43245 0.45218
 N17 N 0.17164 0.42179 0.50262
 C18 C 0.16603 0.42439 0.39031
 C19 C 0.18621 0.41239 0.37534
 C20 C 0.18625 0.39853 0.31965
 C21 C 0.21288 0.39510 0.32011
 C22 C 0.22799 0.40662 0.37637
 N23 N 0.21137 0.41662 0.41008
 C24 C 0.25890 0.41260 0.39124
 H25 H 0.32250 0.43894 0.43906
 H26 H 0.32429 0.44033 0.56112
 H27 H 0.21971 0.43007 0.44976
 H28 H 0.22008 0.38519 0.72072
 H29 H 0.16958 0.39270 0.72032
 H30 H 0.14527 0.46529 0.56287
 H31 H 0.14369 0.46353 0.44060
 H32 H 0.22101 0.38641 0.28232
 H33 H 0.22404 0.43502 0.55879
 H34 H 0.16967 0.39275 0.28157
 C35 C 0.49909 -0.33453 0.51019
 C36 C 0.50258 -0.33219 0.44710
 C37 C 0.52134 -0.30164 0.43424
 N38 N 0.52922 -0.28511 0.48730
 C39 C 0.51601 -0.30533 0.53389
 C40 C 0.53194 -0.28946 0.37431
 C41 C 0.53923 -0.25932 0.36124
 C42 C 0.55561 -0.24263 0.30955
 C43 C 0.55521 -0.21563 0.31271
 C44 C 0.53938 -0.21630 0.36702
 N45 N 0.52981 -0.24287 0.39641
 C46 C 0.53188 -0.19378 0.38555
 C47 C 0.52475 -0.18996 0.44749
 C48 C 0.51516 -0.16947 0.46679
 C49 C 0.51311 -0.17126 0.53044
 C50 C 0.52138 -0.19287 0.54779
 N51 N 0.52864 -0.20416 0.49704
 C52 C 0.52429 -0.20037 0.60971
 C53 C 0.52855 -0.22534 0.62471
 C54 C 0.53978 -0.22933 0.68107
 C55 C 0.53939 -0.25672 0.67761
 C56 C 0.52724 -0.26902 0.61964
 N57 N 0.52098 -0.24957 0.58755
 C58 C 0.52100 -0.29795 0.59786
 H59 H 0.48568 -0.35537 0.53587
 H60 H 0.49230 -0.35081 0.41430
 H61 H 0.50925 -0.25405 0.54505
 H62 H 0.56650 -0.24921 0.27305
 H63 H 0.56542 -0.19753 0.27893
 H64 H 0.51057 -0.15450 0.43811
 H65 H 0.50652 -0.15802 0.56052
 H66 H 0.54722 -0.26637 0.71375
 H67 H 0.51453 -0.25063 0.43445
 H68 H 0.54772 -0.21397 0.72036
 C69 C 1.14121 0.70857 0.47930
 C70 C 1.14086 0.70897 0.54287
 C71 C 1.16809 0.73494 0.56176
 N72 N 1.18519 0.75012 0.51107
 C73 C 1.16875 0.73407 0.46066
 C74 C 1.17919 0.74183 0.62418
 C75 C 1.20706 0.76926 0.64033
 C76 C 1.22342 0.77499 0.69622
 C77 C 1.24849 0.80394 0.69330
 C78 C 1.24619 0.81595 0.63700
 N79 N 1.22075 0.79473 0.60528
 C80 C 1.26722 0.84568 0.61542
 C81 C 1.26638 0.85405 0.55352
 C82 C 1.27866 0.88370 0.53328
 C83 C 1.28001 0.88283 0.46991
 C84 C 1.26838 0.85268 0.45396
 N85 N 1.25972 0.83503 0.50499
 C86 C 1.26973 0.84217 0.39406
 C87 C 1.24806 0.81186 0.37671
 C88 C 1.25026 0.79707 0.32407
 C89 C 1.22468 0.76830 0.32523
 C90 C 1.20807 0.76585 0.37963
 N91 N 1.22212 0.79260 0.41013
 C92 C 1.18012 0.73966 0.39868
 H93 H 1.12385 0.69062 0.45035
 H94 H 1.12318 0.69111 0.57128
 H95 H 1.21304 0.79790 0.44929
 H96 H 1.21831 0.76018 0.73566
 H97 H 1.26633 0.81457 0.72897
 H98 H 1.28724 0.90391 0.56167
 H99 H 1.28951 0.90216 0.43907
 H100 H 1.21948 0.75105 0.29037
 H101 H 1.21192 0.79835 0.56401
 H102 H 1.26854 0.80569 0.28876
 C103 C 0.86660 0.56674 0.53252
 C104 C 0.86730 0.56788 0.46890
 C105 C 0.85037 0.58230 0.45176
 N106 N 0.83940 0.59006 0.50273
 C107 C 0.84949 0.58076 0.55226
 C108 C 0.84551 0.58858 0.39008
 C109 C 0.82105 0.59522 0.37548
 C110 C 0.81778 0.60681 0.31935
 C111 C 0.78782 0.60374 0.31914
 C112 C 0.77400 0.59086 0.37553
 N113 N 0.79453 0.58623 0.40996
 C114 C 0.74179 0.57951 0.39049
 C115 C 0.73041 0.57342 0.45213
 C116 C 0.69870 0.55769 0.46892
 C117 C 0.69792 0.55719 0.53266
 C118 C 0.72922 0.57308 0.55276
 N119 N 0.74903 0.58290 0.50329
 C120 C 0.73939 0.57841 0.61564
 C121 C 0.77136 0.58724 0.63126
 C122 C 0.78635 0.60180 0.68587
 C123 C 0.81582 0.60380 0.68561
 C124 C 0.81812 0.59044 0.63082
 N125 N 0.79117 0.58097 0.59731
 C126 C 0.84361 0.58518 0.61499
 H127 H 0.87689 0.55611 0.56082
 H128 H 0.87829 0.55843 0.43884
 H129 H 0.78521 0.56763 0.55731
 H130 H 0.83455 0.61507 0.28123
 H131 H 0.77693 0.60916 0.28093
 H132 H 0.67830 0.54722 0.43847
 H133 H 0.67669 0.54579 0.56073
 H134 H 0.83343 0.61360 0.72201
 H135 H 0.78866 0.57298 0.44981
 H136 H 0.77688 0.60985 0.72246
 C137 C 0.40208 0.11682 0.47240
 C138 C 0.40373 0.11831 0.53595
 C139 C 0.41989 0.14885 0.55145
 N140 N 0.42737 0.16604 0.49982
 C141 C 0.41682 0.14645 0.45153
 C142 C 0.43212 0.16060 0.61090
 C143 C 0.44029 0.19084 0.62670
 C144 C 0.46080 0.20790 0.67400
 C145 C 0.46316 0.23613 0.67189
 C146 C 0.44400 0.23565 0.62341
 N147 N 0.43021 0.20798 0.59608
 C148 C 0.44006 0.26048 0.60417
 C149 C 0.42970 0.26145 0.54315
 C150 C 0.41701 0.27952 0.52399
 C151 C 0.41567 0.27796 0.46039
 C152 C 0.42697 0.25856 0.44302
 N153 N 0.43519 0.24817 0.49360
 C154 C 0.43458 0.25457 0.38167
 C155 C 0.43771 0.22916 0.36506
 C156 C 0.45244 0.22630 0.31202
 C157 C 0.44997 0.19796 0.31433
 C158 C 0.43378 0.18447 0.36866
 N159 N 0.42611 0.20348 0.39878
 C160 C 0.42591 0.15525 0.38964
 H161 H 0.39251 0.09639 0.44451
 H162 H 0.39551 0.09920 0.56715
 H163 H 0.41188 0.19843 0.43830
 H164 H 0.47380 0.20124 0.70528
 H165 H 0.47828 0.25513 0.70130
 H166 H 0.41061 0.29332 0.55278
 H167 H 0.40825 0.29041 0.43015
 H168 H 0.45944 0.18862 0.28038
 H169 H 0.41347 0.20070 0.56041
 H170 H 0.46420 0.24299 0.27601
 C171 C 0.68923 0.16189 0.53531
 C172 C 0.68972 0.16161 0.47160
 C173 C 0.72015 0.18281 0.45379
 N174 N 0.73841 0.19582 0.50453
 C175 C 0.71953 0.18307 0.55457
 C176 C 0.73077 0.18934 0.39152
 C177 C 0.76010 0.21450 0.37467
 C178 C 0.77427 0.21861 0.31674
 C179 C 0.80051 0.24702 0.31703
 C180 C 0.80161 0.25946 0.37511
 N181 N 0.77695 0.23947 0.40999
 C182 C 0.82352 0.28945 0.39273
 C183 C 0.82778 0.29986 0.45475
 C184 C 0.84533 0.32993 0.47287
 C185 C 0.84501 0.33018 0.53659
 C186 C 0.82746 0.30024 0.55520
 N187 N 0.81698 0.28175 0.50511
 C188 C 0.82309 0.29008 0.61731
 C189 C 0.80088 0.26005 0.63395
 C190 C 0.80066 0.24677 0.69027
 C191 C 0.77413 0.21867 0.69043
 C192 C 0.75880 0.21552 0.63416
 N193 N 0.77540 0.24076 0.59972
 C194 C 0.72939 0.19022 0.61742
 H195 H 0.66870 0.14836 0.56403
 H196 H 0.66977 0.14771 0.44181
 H197 H 0.76770 0.24586 0.55865
 H198 H 0.76618 0.20298 0.27790
 H199 H 0.81659 0.25755 0.27846
 H200 H 0.85715 0.34962 0.44328
 H201 H 0.85650 0.35013 0.56578
 H202 H 0.76688 0.20239 0.72786
 H203 H 0.76971 0.24410 0.45221
 H204 H 0.81774 0.25639 0.72761
 O205 O 0.99586 0.53911 -0.10290
 O206 O 1.03139 0.55325 0.10839
 O207 O 0.95944 0.52615 0.03161
 O208 O 1.06923 0.56881 -0.02540
 O209 O 0.97695 0.52013 0.11825
 O210 O 1.04831 0.54753 -0.11185
 O211 O 1.07306 0.55317 0.07913
 O212 O 0.95127 0.50511 -0.07167
 C213 C 0.96707 0.52954 -0.09916
 C214 C 1.06054 0.56628 0.10681
 C215 C 0.96376 0.53186 0.08774
 C216 C 1.06504 0.57114 -0.08141
 O217 O 1.02599 0.48623 -0.10230
 O218 O 0.98790 0.47137 0.10800
 O219 O 0.95242 0.45618 -0.02706
 O220 O 1.06160 0.49888 0.03505
 O221 O 1.04243 0.50477 0.12019
 O222 O 0.97390 0.47743 -0.11306
 O223 O 1.07067 0.51953 -0.06900
 O224 O 0.94694 0.47183 0.07641
 Co225 Co 1.01094 0.51259 -0.09707
 Co226 Co 1.00973 0.51236 0.10324
 Co227 Co 0.95850 0.49215 0.00248
 Co228 Co 1.06267 0.53278 0.00478
 O229 O 1.01048 0.51244 0.00332
 C230 C 1.05470 0.49553 -0.09822
 C231 C 0.95875 0.45832 0.10450
 C232 C 0.95656 0.45384 -0.08314
 C233 C 1.05639 0.49323 0.09113
 O234 O 0.50953 0.46537 -0.13806
 O235 O 0.45909 0.46650 0.11470
 O236 O 0.49390 0.43065 0.04245
 O237 O 0.44044 0.48449 -0.05210
 O238 O 0.50599 0.45745 0.12347
 O239 O 0.45730 0.45727 -0.09640
 O240 O 0.44757 0.49627 0.05914
 O241 O 0.49434 0.43602 -0.06265
 C242 C 0.50018 0.43933 -0.11892
 C243 C 0.43979 0.47513 0.09876
 C244 C 0.49467 0.43207 0.09951
 C245 C 0.43495 0.46216 -0.08535
 O246 O 0.49048 0.50552 -0.15859
 O247 O 0.54386 0.51366 0.10814
 O248 O 0.55382 0.48801 -0.05933
 O249 O 0.50525 0.54627 0.03000
 O250 O 0.49804 0.52391 0.11662
 O251 O 0.53871 0.51908 -0.09547
 O252 O 0.49694 0.53432 -0.07774
 O253 O 0.55376 0.48210 0.05423
 Co254 Co 0.49765 0.48872 -0.09138
 Co255 Co 0.50136 0.48998 0.10477
 Co256 Co 0.52226 0.46142 -0.00595
 Co257 Co 0.47468 0.51272 -0.00896
 O258 O 0.49917 0.48693 0.00281
 C259 C 0.49149 0.52980 -0.13568
 C260 C 0.56274 0.50466 0.09115
 C261 C 0.56017 0.51217 -0.08818
 C262 C 0.50826 0.54789 0.08704
 O263 O 0.56192 0.02782 -0.07923
 O264 O 0.53346 -0.02725 0.08354
 O265 O 0.55099 0.06248 0.06310
 O266 O 0.48766 -0.06327 -0.05266
 O267 O 0.56150 0.02679 0.07656
 O268 O 0.52948 -0.02828 -0.10019
 O269 O 0.48644 -0.06206 0.06314
 O270 O 0.55366 0.06418 -0.04941
 C271 C 0.57174 0.05541 -0.07342
 C272 C 0.51360 -0.05443 0.08329
 C273 C 0.57026 0.05415 0.08003
 C274 C 0.51096 -0.05557 -0.08893
 O275 O 0.48037 -0.02126 -0.12973
 O276 O 0.51106 0.02868 0.13023
 O277 O 0.48888 0.04130 -0.05128
 O278 O 0.44674 -0.03966 0.05842
 O279 O 0.48160 -0.02624 0.13150
 O280 O 0.51404 0.03429 -0.12407
 O281 O 0.44472 -0.04616 -0.05790
 O282 O 0.48662 0.03690 0.05761
 Co283 Co 0.52040 0.00312 -0.09741
 Co284 Co 0.52075 0.00063 0.09667
 Co285 Co 0.51923 0.04702 0.00474
 Co286 Co 0.47041 -0.04753 0.00325
 O287 O 0.50772 0.00044 0.00129
 C288 C 0.45181 -0.03729 -0.11260
 C289 C 0.49081 0.03585 0.11378
 C290 C 0.49452 0.04231 -0.10715
 C291 C 0.45310 -0.03645 0.11461
 C292 C 1.11585 0.44501 0.25062
 C293 C 1.09973 0.42911 0.30419
 C294 C 1.11575 0.42095 0.34781
 C295 C 1.14817 0.42996 0.33993
 C296 C 1.16391 0.44574 0.28558
 C297 C 1.14772 0.45295 0.24036
 C298 C 1.09947 0.45470 0.20580
 C299 C 1.11560 0.47083 0.15236
 C300 C 1.10040 0.48140 0.11161
 C301 C 1.06999 0.47714 0.12599
 C302 C 1.05417 0.46071 0.17943
 C303 C 1.06854 0.44901 0.21895
 C304 C 1.16296 0.46870 0.18594
 C305 C 1.14709 0.47723 0.14244
 C306 C 1.06825 0.42265 0.31418
 C307 C 1.05305 0.43275 0.27266
 H308 H 1.18748 0.47479 0.17724
 H309 H 1.15986 0.48968 0.10154
 H310 H 1.05557 0.41045 0.35538
 H311 H 1.02913 0.42815 0.28313
 H312 H 1.10341 0.40862 0.38918
 H313 H 1.18891 0.45303 0.27930
 H314 H 1.11296 0.49461 0.07123
 H315 H 1.03113 0.45799 0.19135
 C316 C 0.53398 0.64968 0.24122
 C317 C 0.54642 0.65125 0.30077
 C318 C 0.54709 0.67253 0.34333
 C319 C 0.53470 0.69188 0.32777
 C320 C 0.52338 0.69068 0.26667
 C321 C 0.52284 0.66952 0.22341
 C322 C 0.53099 0.62572 0.19792
 C323 C 0.51725 0.62320 0.13919
 C324 C 0.51209 0.59883 0.10023
 C325 C 0.51965 0.57672 0.12092
 C326 C 0.53454 0.58028 0.17880
 C327 C 0.54030 0.60474 0.21750
 C328 C 0.51016 0.66691 0.16352
 C329 C 0.50748 0.64421 0.12209
 C330 C 0.55687 0.63073 0.31752
 C331 C 0.55377 0.60779 0.27663
 H332 H 0.50159 0.68214 0.14901
 H333 H 0.49690 0.64258 0.07693
 H334 H 0.56669 0.63187 0.36330
 H335 H 0.56125 0.59186 0.29200
 H336 H 0.55674 0.67366 0.38933
 H337 H 0.51308 0.70475 0.25393
 H338 H 0.50030 0.59595 0.05591
 H339 H 0.54046 0.56330 0.19469
 C340 C 0.34692 -0.10047 0.27860
 C341 C 0.35221 -0.10343 0.34148
 C342 C 0.32638 -0.12213 0.37929
 C343 C 0.29526 -0.13846 0.35468
 C344 C 0.29049 -0.13495 0.29129
 C345 C 0.31620 -0.11591 0.25319
 C346 C 0.37420 -0.08145 0.23820
 C347 C 0.36890 -0.07884 0.17514
 C348 C 0.39493 -0.06220 0.13620
 C349 C 0.42628 -0.04890 0.15928
 C350 C 0.43117 -0.05078 0.22319
 C351 C 0.40512 -0.06712 0.26292
 C352 C 0.31188 -0.11218 0.18999
 C353 C 0.33777 -0.09388 0.15166
 C354 C 0.38332 -0.08809 0.36510
 C355 C 0.40934 -0.07035 0.32644
 H356 H 0.28833 -0.12376 0.16981
 H357 H 0.33344 -0.09197 0.10295
 H358 H 0.38766 -0.09020 0.41371
 H359 H 0.43297 -0.05939 0.34628
 H360 H 0.33071 -0.12490 0.42763
 H361 H 0.26673 -0.14653 0.27197
 H362 H 0.39072 -0.06086 0.08715
 H363 H 0.45512 -0.04065 0.24143
 C364 C 0.89899 0.57442 0.24662
 C365 C 0.91506 0.59292 0.29768
 C366 C 0.89775 0.59892 0.34273
 C367 C 0.86443 0.58528 0.33858
 C368 C 0.84880 0.56692 0.28675
 C369 C 0.86599 0.56180 0.24019
 C370 C 0.91676 0.56677 0.20074
 C371 C 0.90056 0.54785 0.15020
 C372 C 0.91709 0.53886 0.10922
 C373 C 0.94905 0.54738 0.12067
 C374 C 0.96515 0.56687 0.17058
 C375 C 0.94921 0.57702 0.21036
 C376 C 0.85073 0.54353 0.18834
 C377 C 0.86778 0.53690 0.14378
 C378 C 0.94791 0.60408 0.30384
 C379 C 0.96464 0.59600 0.26126
 H380 H 0.82530 0.53389 0.18266
 H381 H 0.85501 0.52228 0.10507
 H382 H 0.96059 0.61840 0.34296
 H383 H 0.98974 0.60426 0.26882
 H384 H 0.90993 0.61316 0.38233
 H385 H 0.82314 0.55602 0.28354
 H386 H 0.90454 0.52333 0.07151
 H387 H 0.98966 0.57309 0.17977
 C388 C 0.46101 0.32925 0.25736
 C389 C 0.47489 0.33415 0.31648
 C390 C 0.46659 0.30945 0.35566
 C391 C 0.44388 0.28001 0.33713
 C392 C 0.43020 0.27534 0.27754
 C393 C 0.43891 0.29998 0.23716
 C394 C 0.46966 0.35535 0.21609
 C395 C 0.45623 0.35063 0.15646
 C396 C 0.46469 0.37570 0.11743
 C397 C 0.48579 0.40521 0.13868
 C398 C 0.49880 0.40938 0.19870
 C399 C 0.49109 0.38460 0.23731
 C400 C 0.42588 0.29611 0.17727
 C401 C 0.43452 0.32096 0.13751
 C402 C 0.49658 0.36371 0.33563
 C403 C 0.50442 0.38855 0.29680
 H404 H 0.40887 0.27367 0.16097
 H405 H 0.42393 0.31695 0.09172
 H406 H 0.50737 0.36770 0.38124
 H407 H 0.52108 0.41103 0.31348
 H408 H 0.47749 0.31309 0.40116
 H409 H 0.41274 0.25270 0.26311
 H410 H 0.45454 0.37239 0.07131
 H411 H 0.51530 0.43199 0.21517
 C412 C 0.66875 0.13303 0.24697
 C413 C 0.67654 0.16363 0.25077
 C414 C 0.69715 0.18193 0.29773
 C415 C 0.70969 0.16975 0.34093
 C416 C 0.70195 0.13912 0.33621
 C417 C 0.68141 0.12061 0.28921
 C418 C 0.64612 0.11340 0.19907
 C419 C 0.63758 0.08260 0.19638
 C420 C 0.61442 0.06359 0.15352
 C421 C 0.59932 0.07511 0.11468
 C422 C 0.60918 0.10634 0.11629
 C423 C 0.63246 0.12556 0.15859
 C424 C 0.67284 0.08983 0.28411
 C425 C 0.65133 0.07116 0.23849
 C426 C 0.66309 0.17516 0.20825
 C427 C 0.64138 0.15643 0.16303
 H428 H 0.68251 0.07998 0.31622
 H429 H 0.64495 0.04744 0.23693
 H430 H 0.66900 0.19875 0.21059
 H431 H 0.63108 0.16610 0.13197
 H432 H 0.70311 0.20551 0.30150
 H433 H 0.71172 0.12981 0.36941
 H434 H 0.60685 0.03957 0.15305
 H435 H 0.59771 0.11540 0.08665
 C436 C 0.45524 0.10766 -0.27024
 C437 C 0.44048 0.12338 -0.24518
 C438 C 0.43296 0.14113 -0.28442
 C439 C 0.43978 0.14296 -0.34860
 C440 C 0.45476 0.12694 -0.37243
 C441 C 0.46250 0.10937 -0.33366
 C442 C 0.46372 0.08942 -0.22914
 C443 C 0.47926 0.07439 -0.25401
 C444 C 0.48840 0.05806 -0.21427
 C445 C 0.48209 0.05677 -0.15016
 C446 C 0.46566 0.07130 -0.12636
 C447 C 0.45668 0.08788 -0.16556
 C448 C 0.47765 0.09369 -0.35708
 C449 C 0.48594 0.07653 -0.31790
 C450 C 0.43357 0.12102 -0.18133
 C451 C 0.44148 0.10353 -0.14222
 H452 H 0.48336 0.09486 -0.40607
 H453 H 0.49787 0.06503 -0.33772
 H454 H 0.42209 0.13292 -0.16136
 H455 H 0.43594 0.10251 -0.09317
 H456 H 0.42109 0.15287 -0.26537
 H457 H 0.46126 0.12885 -0.42113
 H458 H 0.50097 0.04693 -0.23296
 H459 H 0.46076 0.07054 -0.07703
 C460 C 0.67006 0.56060 -0.24532
 C461 C 0.69288 0.55138 -0.23626
 C462 C 0.71652 0.55839 -0.28135
 C463 C 0.71723 0.57405 -0.33621
 C464 C 0.69461 0.58402 -0.34305
 C465 C 0.67092 0.57717 -0.29812
 C466 C 0.64389 0.55150 -0.20007
 C467 C 0.62031 0.55965 -0.21048
 C468 C 0.59409 0.54881 -0.17021
 C469 C 0.59099 0.52928 -0.12082
 C470 C 0.61564 0.52254 -0.10941
 C471 C 0.64206 0.53346 -0.14910
 C472 C 0.64749 0.58580 -0.30581
 C473 C 0.62262 0.57719 -0.26277
 C474 C 0.69090 0.53431 -0.18339
 C475 C 0.66590 0.52546 -0.14062
 H476 H 0.64797 0.59874 -0.34620
 H477 H 0.60462 0.58368 -0.27133
 H478 H 0.70842 0.52713 -0.17573
 H479 H 0.66484 0.51165 -0.10135
 H480 H 0.73321 0.55004 -0.27537
 H481 H 0.69534 0.59696 -0.38366
 H482 H 0.57516 0.55394 -0.17980
 H483 H 0.61349 0.50756 -0.07158
 C484 C 0.88112 0.35366 -0.24287
 C485 C 0.89557 0.34812 -0.29431
 C486 C 0.87655 0.32659 -0.33870
 C487 C 0.84324 0.31147 -0.33314
 C488 C 0.82912 0.31705 -0.28095
 C489 C 0.84800 0.33800 -0.23536
 C490 C 0.90096 0.37714 -0.19730
 C491 C 0.88654 0.38309 -0.14630
 C492 C 0.90539 0.40681 -0.10531
 C493 C 0.93807 0.42509 -0.11687
 C494 C 0.95218 0.41829 -0.16716
 C495 C 0.93382 0.39419 -0.20728
 C496 C 0.83445 0.34412 -0.18313
 C497 C 0.85341 0.36616 -0.13918
 C498 C 0.92870 0.36480 -0.30119
 C499 C 0.94748 0.38762 -0.25864
 H500 H 0.80895 0.33205 -0.17659
 H501 H 0.84196 0.37051 -0.10014
 H502 H 0.94012 0.36070 -0.34062
 H503 H 0.97283 0.40053 -0.26651
 H504 H 0.88748 0.32209 -0.37846
 H505 H 0.80348 0.30539 -0.27651
 H506 H 0.89437 0.41236 -0.06717
 H507 H 0.97725 0.43247 -0.17617
 C508 C 0.52279 -0.14122 -0.24837
 C509 C 0.49809 -0.17135 -0.25102
 C510 C 0.49913 -0.19095 -0.29641
 C511 C 0.52437 -0.18033 -0.33930
 C512 C 0.54919 -0.15024 -0.33528
 C513 C 0.54851 -0.13056 -0.28992
 C514 C 0.52115 -0.12011 -0.20268
 C515 C 0.54539 -0.08980 -0.20147
 C516 C 0.54281 -0.06936 -0.16090
 C517 C 0.51592 -0.07875 -0.12233
 C518 C 0.49235 -0.10957 -0.12241
 C519 C 0.49480 -0.13032 -0.16284
 C520 C 0.57267 -0.10023 -0.28616
 C521 C 0.57116 -0.08022 -0.24265
 C522 C 0.47253 -0.18097 -0.20924
 C523 C 0.47088 -0.16082 -0.16604
 H524 H 0.59269 -0.09177 -0.31777
 H525 H 0.59004 -0.05687 -0.24207
 H526 H 0.45334 -0.20416 -0.21065
 H527 H 0.45044 -0.16907 -0.13556
 H528 H 0.48000 -0.21413 -0.29964
 H529 H 0.56865 -0.14214 -0.36824
 H530 H 0.56115 -0.04578 -0.16144
 H531 H 0.47149 -0.11708 -0.09332
 C532 C 0.32671 0.42156 -0.24280
 C533 C 0.30574 0.43290 -0.23209
 C534 C 0.28373 0.42956 -0.27813
 C535 C 0.28221 0.41480 -0.33510
 C536 C 0.30266 0.40230 -0.34334
 C537 C 0.32527 0.40612 -0.29801
 C538 C 0.35176 0.42742 -0.19676
 C539 C 0.37423 0.41801 -0.20940
 C540 C 0.40013 0.42672 -0.16888
 C541 C 0.40373 0.44508 -0.11666
 C542 C 0.37963 0.45231 -0.10247
 C543 C 0.35396 0.44405 -0.14289
 C544 C 0.34719 0.39570 -0.30763
 C545 C 0.37134 0.40169 -0.26429
 C546 C 0.30801 0.44848 -0.17648
 C547 C 0.33163 0.45386 -0.13253
 H548 H 0.34628 0.38361 -0.34992
 H549 H 0.38837 0.39414 -0.27461
 H550 H 0.29183 0.45719 -0.16746
 H551 H 0.33305 0.46667 -0.09104
 H552 H 0.26906 0.44008 -0.27079
 H553 H 0.30124 0.38982 -0.38537
 H554 H 0.41862 0.42122 -0.18055
 H555 H 0.38210 0.46642 -0.06250
 C556 C 1.13213 0.67361 -0.24069
 C557 C 1.16406 0.68325 -0.25490
 C558 C 1.17946 0.70574 -0.30001
 C559 C 1.16358 0.71945 -0.32951
 C560 C 1.13156 0.70967 -0.31391
 C561 C 1.11561 0.68646 -0.27024
 C562 C 1.11542 0.64896 -0.19530
 C563 C 1.08295 0.63805 -0.18381
 C564 C 1.06674 0.61331 -0.14363
 C565 C 1.08296 0.60003 -0.11439
 C566 C 1.11567 0.61183 -0.12466
 C567 C 1.13196 0.63605 -0.16592
 C568 C 1.08335 0.67548 -0.25624
 C569 C 1.06724 0.65153 -0.21416
 C570 C 1.17984 0.66990 -0.22430
 C571 C 1.16413 0.64686 -0.18028
 H572 H 1.07028 0.68513 -0.27879
 H573 H 1.04221 0.64335 -0.20568
 H574 H 1.20452 0.67723 -0.23469
 H575 H 1.17713 0.63704 -0.15814
 H576 H 1.20371 0.71230 -0.31296
 H577 H 1.11907 0.71998 -0.33629
 H578 H 1.04145 0.60393 -0.13607
 H579 H 1.12792 0.60106 -0.10321
 C580 C 0.89906 0.57195 -0.24995
 C581 C 0.86640 0.56024 -0.23970
 C582 C 0.84843 0.56610 -0.28299
 C583 C 0.86269 0.58300 -0.33725
 C584 C 0.89591 0.59581 -0.34483
 C585 C 0.91410 0.59009 -0.30178
 C586 C 0.91753 0.56373 -0.20735
 C587 C 0.94991 0.57428 -0.21916
 C588 C 0.96673 0.56441 -0.18137
 C589 C 0.95114 0.54375 -0.13290
 C590 C 0.91902 0.53442 -0.12019
 C591 C 0.90205 0.54419 -0.15748
 C592 C 0.94680 0.60120 -0.31077
 C593 C 0.96441 0.59343 -0.27015
 C594 C 0.85205 0.54172 -0.18785
 C595 C 0.86957 0.53381 -0.14743
 H596 H 0.95872 0.61539 -0.35043
 H597 H 0.98940 0.60187 -0.27961
 H598 H 0.82688 0.53264 -0.17931
 H599 H 0.85743 0.51886 -0.10886
 H600 H 0.82294 0.55565 -0.27654
 H601 H 0.90750 0.60972 -0.38507
 H602 H 0.99136 0.57150 -0.19173
 H603 H 0.90693 0.51868 -0.08266
 C604 C 0.46696 0.33647 -0.27793
 C605 C 0.45053 0.30717 -0.25283
 C606 C 0.44163 0.28202 -0.29189
 C607 C 0.44917 0.28589 -0.35587
 C608 C 0.46622 0.31573 -0.37959
 C609 C 0.47487 0.34095 -0.34112
 C610 C 0.47600 0.36298 -0.23727
 C611 C 0.49211 0.39230 -0.26253
 C612 C 0.50024 0.41743 -0.22373
 C613 C 0.49254 0.41326 -0.16013
 C614 C 0.47669 0.38369 -0.13555
 C615 C 0.46820 0.35848 -0.17395
 C616 C 0.49127 0.37060 -0.36470
 C617 C 0.49965 0.39584 -0.32611
 C618 C 0.44313 0.30362 -0.18917
 C619 C 0.45189 0.32885 -0.15036
 H620 H 0.49752 0.37432 -0.41350
 H621 H 0.51211 0.41829 -0.34622
 H622 H 0.43047 0.28116 -0.16917
 H623 H 0.44573 0.32512 -0.10153
 H624 H 0.42810 0.25941 -0.27279
 H625 H 0.47342 0.31942 -0.42795
 H626 H 0.51247 0.44011 -0.24288
 H627 H 0.47059 0.38027 -0.08662
 C628 C 0.66973 0.13449 -0.23957
 C629 C 0.67849 0.12145 -0.28826
 C630 C 0.69803 0.13996 -0.33599
 C631 C 0.70957 0.17149 -0.33452
 C632 C 0.70140 0.18430 -0.28398
 C633 C 0.68092 0.16581 -0.23714
 C634 C 0.64758 0.11483 -0.19133
 C635 C 0.63688 0.12748 -0.14516
 C636 C 0.61339 0.10820 -0.10304
 C637 C 0.60110 0.07661 -0.10678
 C638 C 0.61388 0.06469 -0.15073
 C639 C 0.63644 0.08354 -0.19403
 C640 C 0.67079 0.17788 -0.18876
 C641 C 0.64890 0.15901 -0.14390
 C642 C 0.66723 0.09008 -0.28863
 C643 C 0.64674 0.07146 -0.24200
 H644 H 0.67927 0.20204 -0.18639
 H645 H 0.64103 0.16914 -0.10844
 H646 H 0.67403 0.07978 -0.32562
 H647 H 0.63820 0.04729 -0.24449
 H648 H 0.70481 0.12997 -0.37369
 H649 H 0.70997 0.20851 -0.28261
 H650 H 0.60374 0.11757 -0.06941
 H651 H 0.60461 0.04042 -0.15441
 C652 C 1.11702 0.44728 -0.25174
 C653 C 1.10145 0.43082 -0.30520
 C654 C 1.11807 0.42274 -0.34759
 C655 C 1.15033 0.43144 -0.33777
 C656 C 1.16505 0.44660 -0.28201
 C657 C 1.14862 0.45495 -0.23933
 C658 C 1.10034 0.45786 -0.20949
 C659 C 1.11638 0.47570 -0.15765
 C660 C 1.10102 0.48733 -0.11991
 C661 C 1.06993 0.48114 -0.13399
 C662 C 1.05402 0.46261 -0.18523
 C663 C 1.06914 0.45106 -0.22334
 C664 C 1.16355 0.47199 -0.18587
 C665 C 1.14772 0.48223 -0.14577
 C666 C 1.06992 0.42373 -0.31652
 C667 C 1.05404 0.43373 -0.27628
 H668 H 1.18792 0.47802 -0.17567
 H669 H 1.16032 0.49583 -0.10577
 H670 H 1.05767 0.41096 -0.35759
 H671 H 1.03000 0.42841 -0.28745
 H672 H 1.10608 0.41017 -0.38910
 H673 H 1.18989 0.45376 -0.27388
 H674 H 1.11338 0.50161 -0.08047
 H675 H 1.03044 0.45835 -0.19721
 C676 C 0.51139 0.63113 -0.28530
 C677 C 0.49936 0.65005 -0.26532
 C678 C 0.50342 0.67426 -0.30304
 C679 C 0.51965 0.67978 -0.36033
 C680 C 0.53292 0.66127 -0.37760
 C681 C 0.52832 0.63666 -0.34111
 C682 C 0.50572 0.60472 -0.24758
 C683 C 0.51688 0.58524 -0.26867
 C684 C 0.51104 0.55992 -0.23298
 C685 C 0.49499 0.55463 -0.17592
 C686 C 0.48426 0.57449 -0.15514
 C687 C 0.48919 0.59940 -0.19122
 C688 C 0.53971 0.61708 -0.36012
 C689 C 0.53394 0.59169 -0.32465
 C690 C 0.48280 0.64390 -0.20873
 C691 C 0.47800 0.61912 -0.17205
 H692 H 0.55283 0.62119 -0.40322
 H693 H 0.54290 0.57699 -0.34114
 H694 H 0.47343 0.65833 -0.19269
 H695 H 0.46520 0.61521 -0.12861
 H696 H 0.49244 0.68767 -0.28931
 H697 H 0.54642 0.66574 -0.42034
 H698 H 0.51988 0.54497 -0.24848
 H699 H 0.47201 0.57053 -0.11110
 C700 C 0.34528 -0.09495 -0.27464
 C701 C 0.31459 -0.10806 -0.24893
 C702 C 0.28844 -0.12728 -0.28564
 C703 C 0.29289 -0.13366 -0.34746
 C704 C 0.32394 -0.11944 -0.37270
 C705 C 0.35012 -0.10028 -0.33655
 C706 C 0.37299 -0.07647 -0.23518
 C707 C 0.40378 -0.06473 -0.26000
 C708 C 0.43009 -0.04965 -0.22064
 C709 C 0.42547 -0.04701 -0.15695
 C710 C 0.39453 -0.05728 -0.13376
 C711 C 0.36819 -0.07235 -0.17246
 C712 C 0.38112 -0.08723 -0.36058
 C713 C 0.40754 -0.06974 -0.32287
 C714 C 0.31077 -0.10233 -0.18653
 C715 C 0.33717 -0.08474 -0.14887
 H716 H 0.38502 -0.09114 -0.40855
 H717 H 0.43109 -0.06074 -0.34268
 H718 H 0.28725 -0.11211 -0.16625
 H719 H 0.33329 -0.08152 -0.10047
 H720 H 0.26469 -0.13730 -0.26624
 H721 H 0.32791 -0.12446 -0.41990
 H722 H 0.45384 -0.04178 -0.23862
 H723 H 0.39085 -0.05491 -0.08477
 C724 C 0.52867 -0.13595 0.24519
 C725 C 0.50461 -0.16634 0.24799
 C726 C 0.50611 -0.18517 0.29381
 C727 C 0.53111 -0.17359 0.33696
 C728 C 0.55521 -0.14324 0.33348
 C729 C 0.55413 -0.12425 0.28741
 C730 C 0.52663 -0.11577 0.19846
 C731 C 0.55024 -0.08521 0.19668
 C732 C 0.54708 -0.06564 0.15506
 C733 C 0.52007 -0.07627 0.11671
 C734 C 0.49729 -0.10725 0.11722
 C735 C 0.50040 -0.12710 0.15823
 C736 C 0.57768 -0.09372 0.28320
 C737 C 0.57580 -0.07453 0.23849
 C738 C 0.47928 -0.17711 0.20567
 C739 C 0.47716 -0.15779 0.16165
 H740 H 0.59749 -0.08448 0.31526
 H741 H 0.59417 -0.05098 0.23748
 H742 H 0.46065 -0.20054 0.20733
 H743 H 0.45688 -0.16681 0.13073
 H744 H 0.48768 -0.20866 0.29678
 H745 H 0.57453 -0.13458 0.36672
 H746 H 0.56469 -0.04180 0.15521
 H747 H 0.47647 -0.11560 0.08780
 C748 C 0.32831 0.43190 0.24983
 C749 C 0.31179 0.44831 0.25189
 C750 C 0.28811 0.44091 0.29675
 C751 C 0.28118 0.41750 0.33948
 C752 C 0.29709 0.40052 0.33552
 C753 C 0.32093 0.40780 0.29095
 C754 C 0.35491 0.44112 0.20600
 C755 C 0.37247 0.42571 0.20627
 C756 C 0.39926 0.43605 0.16821
 C757 C 0.40884 0.46188 0.13074
 C758 C 0.39015 0.47625 0.12876
 C759 C 0.36328 0.46611 0.16691
 C760 C 0.33834 0.39224 0.28818
 C761 C 0.36371 0.40106 0.24650
 C762 C 0.32010 0.47252 0.21066
 C763 C 0.34542 0.48126 0.16880
 H764 H 0.33279 0.37356 0.31945
 H765 H 0.37706 0.38895 0.24682
 H766 H 0.30738 0.48524 0.21170
 H767 H 0.35154 0.50049 0.13876
 H768 H 0.27590 0.45407 0.30021
 H769 H 0.29164 0.38249 0.36855
 H770 H 0.41334 0.42465 0.16958
 H771 H 0.39737 0.49613 0.10005
 C772 C 1.13085 0.66818 0.26749
 C773 C 1.11790 0.68675 0.28459
 C774 C 1.13449 0.71060 0.32659
 C775 C 1.16332 0.71529 0.35224
 C776 C 1.17576 0.69627 0.33541
 C777 C 1.15983 0.67289 0.29227
 C778 C 1.11347 0.64298 0.22366
 C779 C 1.12654 0.62455 0.20634
 C780 C 1.10962 0.60022 0.16572
 C781 C 1.07950 0.59380 0.14395
 C782 C 1.06684 0.61265 0.16118
 C783 C 1.08384 0.63742 0.20088
 C784 C 1.17216 0.65402 0.27375
 C785 C 1.15587 0.63035 0.23119
 C786 C 1.08847 0.68083 0.25996
 C787 C 1.07163 0.65646 0.21908
 H788 H 1.19455 0.65754 0.29240
 H789 H 1.16613 0.61622 0.21826
 H790 H 1.07820 0.69494 0.27293
 H791 H 1.04880 0.65240 0.20179
 H792 H 1.12488 0.72517 0.34032
 H793 H 1.19787 0.69988 0.35580
 H794 H 1.11933 0.58559 0.15299
 H795 H 1.04377 0.60790 0.14400
 C796 C 0.44705 0.09751 0.27654
 C797 C 0.46087 0.10645 0.33554
 C798 C 0.45370 0.12529 0.37183
 C799 C 0.43262 0.13495 0.34993
 C800 C 0.41858 0.12553 0.29107
 C801 C 0.42591 0.10689 0.25388
 C802 C 0.45572 0.07882 0.23700
 C803 C 0.44304 0.07100 0.17691
 C804 C 0.45318 0.05515 0.13787
 C805 C 0.47607 0.04747 0.15843
 C806 C 0.48734 0.05417 0.21983
 C807 C 0.47753 0.07020 0.25912
 C808 C 0.41299 0.09782 0.19415
 C809 C 0.42147 0.08023 0.15623
 C810 C 0.48199 0.09680 0.35669
 C811 C 0.49015 0.07890 0.31913
 H812 H 0.39660 0.10480 0.17617
 H813 H 0.41148 0.07424 0.10997
 H814 H 0.49263 0.10346 0.40234
 H815 H 0.50695 0.07236 0.33672
 H816 H 0.46473 0.13276 0.41703
 H817 H 0.40232 0.13295 0.27432
 H818 H 0.44428 0.04994 0.09068
 H819 H 0.50499 0.04838 0.23592
 C820 C 0.67294 0.55328 0.24561
 C821 C 0.68885 0.53663 0.25505
 C822 C 0.71208 0.54597 0.30149
 C823 C 0.71884 0.57132 0.33883
 C824 C 0.70313 0.58805 0.32835
 C825 C 0.68012 0.57915 0.28156
 C826 C 0.64730 0.54267 0.19915
 C827 C 0.63073 0.55877 0.19145
 C828 C 0.60476 0.54733 0.15123
 C829 C 0.59450 0.51943 0.12029
 C830 C 0.61233 0.50431 0.12583
 C831 C 0.63876 0.51581 0.16572
 C832 C 0.66357 0.59511 0.27105
 C833 C 0.63932 0.58513 0.22659
 C834 C 0.68053 0.51054 0.21913
 C835 C 0.65583 0.50024 0.17537
 H836 H 0.66899 0.61515 0.29820
 H837 H 0.62661 0.59769 0.22088
 H838 H 0.69272 0.49757 0.22590
 H839 H 0.64962 0.47958 0.14985
 H840 H 0.72429 0.53313 0.31000
 H841 H 0.70851 0.60759 0.35725
 H842 H 0.59136 0.55932 0.14684
 H843 H 0.60453 0.48280 0.10242
 C844 C 0.88041 0.35586 0.25801
 C845 C 0.84741 0.34461 0.25879
 C846 C 0.82874 0.32206 0.30166
 C847 C 0.84300 0.31119 0.34383
 C848 C 0.87596 0.32219 0.34178
 C849 C 0.89485 0.34461 0.29885
 C850 C 0.90035 0.38060 0.21511
 C851 C 0.93341 0.39239 0.21545
 C852 C 0.95239 0.41697 0.17688
 C853 C 0.93859 0.43011 0.13917
 C854 C 0.90529 0.41735 0.13796
 C855 C 0.88606 0.39266 0.17604
 C856 C 0.92793 0.35653 0.29687
 C857 C 0.94688 0.37996 0.25573
 C858 C 0.83390 0.35672 0.21783
 C859 C 0.85291 0.38037 0.17719
 H860 H 0.93932 0.34795 0.32794
 H861 H 0.97234 0.38877 0.25622
 H862 H 0.80848 0.34819 0.21791
 H863 H 0.84161 0.38943 0.14711
 H864 H 0.80333 0.31356 0.30368
 H865 H 0.88680 0.31371 0.37449
 H866 H 0.97787 0.42639 0.17766
 H867 H 0.89439 0.42718 0.10884
   
