data_POSCAR
  _audit_creation_date              2014-09-24
  _audit_creation_method            'ToBaCCo'
  _symmetry_space_group_name_H-M    'P1'
  _symmetry_Int_Tables_number       1
  _symmetry_cell_setting            triclinic
  loop_
  _symmetry_equiv_pos_as_xyz
 x,y,z
_cell_length_a 35.7192
_cell_length_b 36.0086
_cell_length_c 36.2713
_cell_angle_alpha 89.990000
_cell_angle_beta 90.179100
_cell_angle_gamma 89.470700
loop_
  _atom_site_label
  _atom_site_type_symbol
  _atom_site_fract_x
  _atom_site_fract_y
  _atom_site_fract_z
C1 C 0.18115 0.12901 0.17951
 C2 C 0.16164 0.11094 0.20762
 C3 C 0.13648 0.13060 0.23050
 C4 C 0.12977 0.16860 0.22324
 C5 C 0.14764 0.18651 0.19379
 C6 C 0.17460 0.16700 0.17285
 C7 C 0.20780 0.10963 0.15857
 C8 C 0.22946 0.12798 0.13181
 C9 C 0.22298 0.16623 0.12577
 C10 C 0.19498 0.18547 0.14524
 C11 C 0.18641 0.22265 0.13693
 C12 C 0.15729 0.24122 0.15545
 C13 C 0.13862 0.22337 0.18444
 H14 H 0.16833 0.08207 0.21306
 H15 H 0.10984 0.18407 0.23987
 H16 H 0.21308 0.08072 0.16510
 H17 H 0.23888 0.18086 0.10499
 H18 H 0.20085 0.23644 0.11461
 H19 H 0.11653 0.23796 0.19908
 C20 C -0.17995 0.86596 0.19450
 C21 C -0.16117 0.87830 0.22619
 C22 C -0.12647 0.86256 0.23683
 C23 C -0.11155 0.83315 0.21564
 C24 C -0.13097 0.81942 0.18499
 C25 C -0.16517 0.83601 0.17413
 C26 C -0.21330 0.88325 0.18298
 C27 C -0.23304 0.87042 0.15175
 C28 C -0.21886 0.83907 0.13273
 C29 C -0.18473 0.82236 0.14318
 C30 C -0.16977 0.79220 0.12324
 C31 C -0.13596 0.77528 0.13446
 C32 C -0.11685 0.78897 0.16532
 H33 H -0.17306 0.90117 0.24183
 H34 H -0.08579 0.81936 0.22387
 H35 H -0.22437 0.90586 0.19945
 H36 H -0.23353 0.82848 0.10878
 H37 H -0.18471 0.78138 0.09956
 H38 H -0.09074 0.77592 0.17387
 C39 C -0.19615 0.14855 -0.18470
 C40 C -0.17968 0.13055 -0.21490
 C41 C -0.15132 0.14785 -0.23513
 C42 C -0.14016 0.18393 -0.22577
 C43 C -0.15580 0.20202 -0.19509
 C44 C -0.18356 0.18398 -0.17417
 C45 C -0.22462 0.13137 -0.16459
 C46 C -0.23973 0.14814 -0.13270
 C47 C -0.22593 0.18312 -0.12178
 C48 C -0.19842 0.20118 -0.14250
 C49 C -0.18536 0.23615 -0.13180
 C50 C -0.15787 0.25442 -0.15246
 C51 C -0.14340 0.23730 -0.18431
 H52 H -0.18878 0.10298 -0.22268
 H53 H -0.11837 0.19730 -0.24158
 H54 H -0.23420 0.10426 -0.17334
 H55 H -0.23761 0.19753 -0.09826
 H56 H -0.19648 0.24919 -0.10715
 H57 H -0.12145 0.25071 -0.19984
 C58 C 0.17957 0.85484 -0.19222
 C59 C 0.16058 0.86872 -0.22318
 C60 C 0.12670 0.85285 -0.23531
 C61 C 0.11303 0.82147 -0.21636
 C62 C 0.13243 0.80661 -0.18598
 C63 C 0.16564 0.82355 -0.17364
 C64 C 0.21195 0.87224 -0.17912
 C65 C 0.23086 0.85828 -0.14804
 C66 C 0.21757 0.82651 -0.13021
 C67 C 0.18480 0.80936 -0.14249
 C68 C 0.17046 0.77870 -0.12372
 C69 C 0.13764 0.76166 -0.13608
 C70 C 0.11894 0.77528 -0.16740
 H71 H 0.17171 0.89293 -0.23697
 H72 H 0.08806 0.80750 -0.22568
 H73 H 0.22250 0.89666 -0.19299
 H74 H 0.23215 0.81590 -0.10608
 H75 H 0.18477 0.76797 -0.09949
 H76 H 0.09341 0.76206 -0.17660
 C77 C 0.15337 1.20160 0.80940
 C78 C 0.13056 1.18348 0.78359
 C79 C 0.14484 1.15414 0.76172
 C80 C 0.18209 1.14208 0.76778
 C81 C 0.20455 1.15876 0.79483
 C82 C 0.19062 1.18960 0.81463
 C83 C 0.13949 1.23184 0.82980
 C84 C 0.16280 1.25162 0.85425
 C85 C 0.20012 1.23923 0.85909
 C86 C 0.21380 1.20807 0.84010
 C87 C 0.24995 1.19431 0.84720
 C88 C 0.26287 1.16190 0.82975
 C89 C 0.24041 1.14463 0.80305
 H90 H 0.10246 1.19410 0.77918
 H91 H 0.19344 1.11895 0.75212
 H92 H 0.11073 1.24075 0.82549
 H93 H 0.21828 1.25232 0.87907
 H94 H 0.26724 1.20751 0.86795
 H95 H 0.25057 1.11974 0.78939
 C96 C 0.85679 0.80001 0.80396
 C97 C 0.87834 0.81887 0.77762
 C98 C 0.86343 0.84975 0.75807
 C99 C 0.82660 0.86172 0.76629
 C100 C 0.80539 0.84413 0.79347
 C101 C 0.82022 0.81271 0.81178
 C102 C 0.87107 0.76845 0.82243
 C103 C 0.84851 0.74829 0.84717
 C104 C 0.81236 0.76201 0.85517
 C105 C 0.79859 0.79431 0.83841
 C106 C 0.76376 0.80900 0.84868
 C107 C 0.74969 0.84125 0.83190
 C108 C 0.76993 0.85809 0.80342
 H109 H 0.90592 0.80801 0.77137
 H110 H 0.81461 0.88570 0.75236
 H111 H 0.89918 0.75871 0.81626
 H112 H 0.79531 0.74877 0.87593
 H113 H 0.74778 0.79580 0.87035
 H114 H 0.75898 0.88309 0.79048
 C115 C 0.14343 0.80896 1.20248
 C116 C 0.12757 0.83075 1.23055
 C117 C 0.14481 0.86363 1.24207
 C118 C 0.17816 0.87492 1.22513
 C119 C 0.19505 0.85272 1.19786
 C120 C 0.17787 0.81928 1.18688
 C121 C 0.12509 0.77723 1.18961
 C122 C 0.14093 0.75481 1.16164
 C123 C 0.17692 0.76383 1.14845
 C124 C 0.19503 0.79629 1.16020
 C125 C 0.22947 0.80675 1.14489
 C126 C 0.24616 0.84050 1.15495
 C127 C 0.22874 0.86338 1.18131
 H128 H 0.10147 0.82245 1.24320
 H129 H 0.19144 0.90037 1.23397
 H130 H 0.09881 0.76982 1.20227
 H131 H 0.19004 0.74686 1.12736
 H132 H 0.24261 0.78941 1.12411
 H133 H 0.24168 0.88936 1.18912
 C134 C 0.85525 1.19113 1.18351
 C135 C 0.87536 1.17862 1.21431
 C136 C 0.86472 1.14625 1.23333
 C137 C 0.83298 1.12673 1.22080
 C138 C 0.81348 1.13817 1.18897
 C139 C 0.82452 1.17069 1.17040
 C140 C 0.86568 1.22381 1.16548
 C141 C 0.84662 1.23567 1.13375
 C142 C 0.81635 1.21508 1.12027
 C143 C 0.80489 1.18283 1.13868
 C144 C 0.77439 1.16234 1.12576
 C145 C 0.76375 1.12949 1.14357
 C146 C 0.78332 1.11751 1.17517
 H147 H 0.89832 1.19535 1.22420
 H148 H 0.82423 1.10175 1.23494
 H149 H 0.88935 1.23957 1.17551
 H150 H 0.80168 1.22432 1.09566
 H151 H 0.75929 1.17153 1.10138
 H152 H 0.77480 1.09235 1.18912
 O153 O 0.55558 0.92255 0.93489
 O154 O 0.59443 0.95664 0.97219
 C155 C 0.58849 0.93204 0.94680
 O156 O 0.45038 1.05338 0.92279
 O157 O 0.40759 1.02024 0.95611
 C158 C 0.41632 1.04387 0.93071
 O159 O 0.55581 1.04754 0.92530
 O160 O 0.59457 1.01870 0.96734
 C161 C 0.58862 1.03938 0.93865
 O162 O 0.45022 0.91765 0.93468
 O163 O 0.40745 0.95720 0.96155
 C164 C 0.41620 0.92911 0.94089
 Zr165 Zr 0.50175 0.94002 0.95301
 O166 O 0.50162 0.93331 0.89508
 O167 O 0.50411 0.88198 0.96150
 Zr168 Zr 0.50204 1.03348 0.94508
 O169 O 0.50325 1.02572 0.88733
 O170 O 0.50661 1.09182 0.93967
 O171 O 0.53560 0.98597 0.94416
 O172 O 0.46981 0.98642 0.94033
 O173 O 0.44232 0.92831 1.06155
 O174 O 0.40393 0.96284 1.02371
 C175 C 0.40944 0.93901 1.04998
 O176 O 0.54800 1.06114 1.05933
 O177 O 0.59098 1.02297 1.03109
 C178 C 0.58206 1.04992 1.05317
 O179 O 0.44373 1.06583 1.04865
 O180 O 0.40437 1.02631 1.01799
 C181 C 0.41069 1.05478 1.03884
 O182 O 0.54752 0.92896 1.06915
 O183 O 0.59052 0.96141 1.03523
 C184 C 0.58160 0.93803 1.06078
 Zr185 Zr 0.49608 0.94761 1.04559
 O186 O 0.48950 0.95426 1.10322
 O187 O 0.49819 0.88915 1.05121
 Zr188 Zr 0.49666 1.04135 1.03792
 O189 O 0.48880 1.04394 1.09572
 O190 O 0.50091 1.09985 1.03576
 Zr191 Zr 0.55466 0.99033 0.99900
 Zr192 Zr 0.44357 0.99121 0.99194
 O193 O 0.46351 0.99544 1.04644
 O194 O 0.52929 0.99478 1.05118
 O195 O 0.46545 0.93701 0.99777
 O196 O 0.53178 1.04401 0.99288
 O197 O 0.53147 0.93687 1.00167
 O198 O 0.46613 1.04501 0.98883
 H199 H 0.45432 0.98456 0.91770
 H200 H 0.54872 1.06562 0.99194
 H201 H 0.44527 0.99766 1.06686
 H202 H 0.54827 0.91492 1.00380
 H203 H 0.48461 1.10318 0.95190
 H204 H 0.48619 1.10827 1.01416
 H205 H 0.51081 1.03194 1.10750
 H206 H 0.51200 0.96702 1.11264
 H207 H 0.48367 0.87869 1.03045
 H208 H 0.50577 0.87069 0.93665
 H209 H 0.51531 0.95467 0.88475
 H210 H 0.50418 1.05089 0.87634
 O211 O 0.06354 0.43966 -0.05595
 O212 O 0.02337 0.40287 -0.02315
 C213 C 0.05005 0.40761 -0.04679
 O214 O 0.07270 0.54533 0.07190
 O215 O 0.03920 0.58872 0.03865
 C216 C 0.06432 0.57934 0.06286
 O217 O 0.06650 0.44080 0.07080
 O218 O 0.02519 0.40371 0.03954
 C219 C 0.05238 0.40865 0.06271
 O220 O 0.06604 0.54394 -0.06307
 O221 O 0.03832 0.58770 -0.02578
 C222 C 0.05965 0.57806 -0.05303
 Zr223 Zr 0.04615 0.49371 -0.03999
 O224 O 0.10531 0.49229 -0.04268
 O225 O 0.04114 0.49067 -0.09799
 Zr226 Zr 0.04943 0.49465 0.05294
 O227 O 0.10821 0.49060 0.04758
 O228 O 0.05241 0.49189 0.11119
 O229 O 0.05209 0.46043 0.00677
 O230 O 0.05719 0.52591 0.00585
 O231 O -0.06109 0.55567 -0.05942
 O232 O -0.02207 0.59340 -0.02597
 C233 C -0.04722 0.58789 -0.05118
 O234 O -0.06916 0.45336 0.07531
 O235 O -0.03895 0.40946 0.04009
 C236 C -0.06281 0.41928 0.06515
 O237 O -0.05692 0.55673 0.07722
 O238 O -0.02311 0.59412 0.03868
 C239 C -0.04603 0.58901 0.06580
 O240 O -0.07327 0.45175 -0.05512
 O241 O -0.04098 0.40893 -0.02010
 C242 C -0.06640 0.41799 -0.04409
 Zr243 Zr -0.04823 0.50230 -0.03766
 O244 O -0.10678 0.51154 -0.03470
 O245 O -0.05109 0.49886 -0.09582
 Zr246 Zr -0.04532 0.50335 0.05553
 O247 O -0.10391 0.51295 0.05480
 O248 O -0.04595 0.50022 0.11376
 Zr249 Zr -0.00423 0.44369 0.00854
 Zr250 Zr 0.00503 0.55342 0.00717
 O251 O -0.05089 0.53570 0.00864
 O252 O -0.05687 0.47054 0.00961
 O253 O 0.00153 0.53070 -0.04624
 O254 O -0.00043 0.46722 0.06150
 O255 O -0.00385 0.46578 -0.04513
 O256 O 0.00503 0.53188 0.06118
 H257 H 0.08034 0.54082 0.00477
 H258 H -0.00115 0.45096 0.08352
 H259 H -0.07109 0.55474 0.00871
 H260 H -0.00578 0.44879 -0.06653
 H261 H 0.03879 0.51378 0.12098
 H262 H -0.02494 0.51540 0.12288
 H263 H -0.11571 0.49108 0.04324
 H264 H -0.11761 0.49053 -0.02091
 H265 H -0.02870 0.51150 -0.10552
 H266 H 0.06702 0.48842 -0.10757
 H267 H 0.11414 0.47628 -0.02219
 H268 H 0.11839 0.48993 0.07302
 O269 O 0.93318 0.07550 0.44868
 O270 O 0.96790 0.03876 0.40950
 C271 C 0.94285 0.06412 0.41605
 O272 O 1.07010 0.07142 0.55287
 O273 O 1.03163 0.04254 0.59432
 C274 C 1.05956 0.06372 0.58621
 O275 O 1.06292 0.07625 0.44965
 O276 O 1.03075 0.03810 0.41034
 C277 C 1.05365 0.06496 0.41690
 O278 O 0.93144 0.07799 0.55173
 O279 O 0.96546 0.04389 0.59378
 C280 C 0.94055 0.06893 0.58522
 Zr281 Zr 0.95201 0.05709 0.50121
 O282 O 0.95252 0.11586 0.50126
 O283 O 0.89288 0.05527 0.50030
 Zr284 Zr 1.04629 0.05536 0.50172
 O285 O 1.04257 0.11396 0.50343
 O286 O 1.10528 0.05680 0.49693
 O287 O 0.99926 0.06221 0.46825
 O288 O 0.99928 0.06393 0.53365
 O289 O 0.92809 -0.05069 0.55615
 O290 O 0.96603 -0.01885 0.59624
 C291 C 0.93891 -0.04146 0.58910
 O292 O 1.06205 -0.06248 0.45375
 O293 O 1.03052 -0.02606 0.41178
 C294 C 1.05338 -0.05293 0.42023
 O295 O 1.06680 -0.05443 0.55685
 O296 O 1.03016 -0.02004 0.59631
 C297 C 1.05640 -0.04409 0.58954
 O298 O 0.93132 -0.05710 0.45274
 O299 O 0.96797 -0.02552 0.41148
 C300 C 0.94216 -0.04917 0.41951
 Zr301 Zr 0.95084 -0.03655 0.50417
 O302 O 0.95215 -0.09509 0.50985
 O303 O 0.89172 -0.03712 0.50100
 Zr304 Zr 1.04542 -0.03852 0.50458
 O305 O 1.04539 -0.09694 0.51096
 O306 O 1.10453 -0.03924 0.50003
 Zr307 Zr 0.99891 0.00740 0.44804
 Zr308 Zr 0.99845 0.01095 0.55805
 O309 O 0.99795 -0.04340 0.53665
 O310 O 0.99807 -0.04602 0.47173
 O311 O 0.94401 0.01153 0.53558
 O312 O 1.05295 0.00731 0.47115
 O313 O 0.94473 0.00938 0.47064
 O314 O 1.05306 0.00922 0.53599
 H315 H 0.99984 0.08611 0.54982
 H316 H 1.07490 0.00657 0.45451
 H317 H 0.99759 -0.06468 0.55397
 H318 H 0.92247 0.00925 0.45427
 H319 H 1.11547 0.03715 0.51323
 H320 H 1.11476 -0.02513 0.52111
 H321 H 1.02747 -0.10695 0.49275
 H322 H 0.96304 -0.10557 0.48702
 H323 H 0.88261 -0.01441 0.51357
 H324 H 0.88407 0.08142 0.49908
 H325 H 0.97202 0.12363 0.48362
 H326 H 1.06869 0.12298 0.50353
 C327 C 1.09673 0.11772 0.32239
 C328 C 1.09044 0.07936 0.32288
 N329 N 1.09856 0.05870 0.29270
 C330 C 1.11327 0.07450 0.26205
 C331 C 1.11966 0.11319 0.26107
 N332 N 1.11053 0.13377 0.29144
 N333 N 1.08993 0.13810 0.35322
 C334 C 1.07698 0.12177 0.38450
 C335 C 1.06983 0.08346 0.38469
 N336 N 1.07662 0.06325 0.35369
 H337 H 1.11862 0.05695 0.23843
 H338 H 1.07150 0.13862 0.40863
 C339 C 0.88832 -0.09454 0.32692
 C340 C 0.92735 -0.09678 0.33062
 N341 N 0.94797 -0.11300 0.30366
 C342 C 0.93138 -0.12722 0.27305
 C343 C 0.89213 -0.12415 0.26850
 N344 N 0.87183 -0.10755 0.29584
 N345 N 0.86752 -0.07948 0.35450
 C346 C 0.88414 -0.06617 0.38552
 C347 C 0.92332 -0.06708 0.38857
 N348 N 0.94405 -0.08234 0.36096
 H349 H 0.94911 -0.13900 0.25191
 H350 H 0.86710 -0.05379 0.40696
 C351 C 0.88761 0.12653 0.67243
 C352 C 0.90222 0.09055 0.67774
 N353 N 0.89880 0.07393 0.71112
 C354 C 0.88140 0.09165 0.73948
 C355 C 0.86720 0.12786 0.73441
 N356 N 0.87082 0.14450 0.70092
 N357 N 0.89011 0.14274 0.63878
 C358 C 0.90660 0.12464 0.61013
 C359 C 0.92184 0.08886 0.61549
 N360 N 0.91931 0.07272 0.64933
 H361 H 0.87912 0.07786 0.76589
 H362 H 0.90829 0.13829 0.58361
 C363 C 1.11030 -0.09337 0.68061
 C364 C 1.07195 -0.09855 0.67453
 N365 N 1.05224 -0.12021 0.69794
 C366 C 1.06911 -0.13708 0.72723
 C367 C 1.10768 -0.13148 0.73408
 N368 N 1.12694 -0.10941 0.71028
 N369 N 1.13040 -0.07268 0.65660
 C370 C 1.11373 -0.05680 0.62668
 C371 C 1.07517 -0.06125 0.62105
 N372 N 1.05509 -0.08200 0.64517
 H373 H 1.05186 -0.15316 0.74557
 H374 H 1.13022 -0.04042 0.60781
 C375 C 0.31760 1.11162 1.08335
 C376 C 0.31724 1.07301 1.07848
 N377 N 0.28743 1.05329 1.09019
 C378 C 0.25812 1.07027 1.10724
 C379 C 0.25823 1.10919 1.11258
 N380 N 0.28802 1.12876 1.09970
 N381 N 0.34821 1.13115 1.07308
 C382 C 0.37861 1.11366 1.05838
 C383 C 0.37811 1.07500 1.05321
 N384 N 0.34722 1.05566 1.06317
 H385 H 0.23469 1.05341 1.11542
 H386 H 0.40284 1.12973 1.05070
 C387 C 0.32550 0.87458 0.89054
 C388 C 0.32372 0.91269 0.89853
 N389 N 0.29238 0.93249 0.89000
 C390 C 0.26250 0.91581 0.87401
 C391 C 0.26377 0.87747 0.86684
 N392 N 0.29534 0.85772 0.87535
 N393 N 0.35730 0.85507 0.89826
 C394 C 0.38738 0.87195 0.91385
 C395 C 0.38521 0.90988 0.92279
 N396 N 0.35334 0.92929 0.91482
 H397 H 0.23761 0.93208 0.86786
 H398 H 0.41236 0.85580 0.91989
 C399 C 0.67611 0.88475 1.10661
 C400 C 0.66924 0.92255 1.11331
 N401 N 0.69421 0.94229 1.13334
 C402 C 0.72581 0.92605 1.14707
 C403 C 0.73366 0.88819 1.13955
 N404 N 0.70827 0.86875 1.11919
 N405 N 0.65063 0.86469 1.08740
 C406 C 0.61876 0.88092 1.07420
 C407 C 0.61257 0.91907 1.07966
 N408 N 0.63809 0.93908 1.09904
 H409 H 0.74529 0.94333 1.16193
 H410 H 0.59919 0.86459 1.05829
 C411 C 0.68087 1.08758 0.88571
 C412 C 0.67291 1.09571 0.92266
 N413 N 0.69418 1.12067 0.94101
 C414 C 0.72287 1.13832 0.92402
 C415 C 0.73126 1.13030 0.88674
 N416 N 0.70995 1.10457 0.86894
 N417 N 0.65873 1.06368 0.86684
 C418 C 0.62880 1.04763 0.88332
 C419 C 0.62114 1.05535 0.92046
 N420 N 0.64350 1.07914 0.93937
 H421 H 0.73947 1.15729 0.94016
 H422 H 0.61129 1.02890 0.86772
 C423 C 0.09282 0.31238 0.11686
 C424 C 0.11703 0.34196 0.10946
 N425 N 0.15389 0.33860 0.11838
 C426 C 0.16765 0.30689 0.13405
 C427 C 0.14337 0.27733 0.14158
 N428 N 0.10644 0.28101 0.13289
 N429 N 0.05633 0.31490 0.10672
 C430 C 0.04287 0.34562 0.08929
 C431 C 0.06686 0.37547 0.08191
 N432 N 0.10347 0.37304 0.09249
 H433 H 0.19722 0.30464 0.14038
 H434 H 0.01358 0.34684 0.08151
 C435 C -0.12279 0.32534 -0.08721
 C436 C -0.11135 0.35397 -0.11082
 N437 N -0.11598 0.35000 -0.14781
 C438 C -0.13118 0.31859 -0.16223
 C439 C -0.14243 0.28979 -0.13856
 N440 N -0.13811 0.29425 -0.10155
 N441 N -0.11719 0.32842 -0.05040
 C442 C -0.10017 0.35868 -0.03605
 C443 C -0.08841 0.38737 -0.05940
 N444 N -0.09452 0.38452 -0.09642
 H445 H -0.13459 0.31623 -0.19178
 H446 H -0.09544 0.36020 -0.00670
 C447 C 0.10546 0.66694 -0.11316
 C448 C 0.09425 0.67150 -0.07636
 N449 N 0.09767 0.70508 -0.05981
 C450 C 0.11180 0.73446 -0.07847
 C451 C 0.12239 0.73020 -0.11548
 N452 N 0.11894 0.69647 -0.13205
 N453 N 0.10282 0.63303 -0.12930
 C454 C 0.08921 0.60348 -0.11035
 C455 C 0.07715 0.60824 -0.07377
 N456 N 0.08003 0.64226 -0.05775
 H457 H 0.11437 0.76102 -0.06475
 H458 H 0.08700 0.57685 -0.12398
 C459 C -0.09294 0.68259 0.11886
 C460 C -0.08821 0.68223 0.08047
 N461 N -0.10022 0.71177 0.06018
 C462 C -0.11661 0.74176 0.07660
 C463 C -0.12060 0.74250 0.11514
 N464 N -0.10853 0.71278 0.13528
 N465 N -0.08217 0.65263 0.13911
 C466 C -0.06689 0.62217 0.12267
 C467 C -0.06148 0.62193 0.08433
 N468 N -0.07223 0.65211 0.06409
 H469 H -0.12561 0.76512 0.05989
 H470 H -0.05873 0.59851 0.13938
 C471 C 1.12163 0.10745 0.67513
 C472 C 1.08239 0.10770 0.67584
 N473 N 1.06432 0.12288 0.70508
 C474 C 1.08362 0.13826 0.73355
 C475 C 1.12324 0.13786 0.73334
 N476 N 1.14096 0.12187 0.70396
 N477 N 1.13978 0.09369 0.64520
 C478 C 1.12039 0.08009 0.61590
 C479 C 1.08108 0.07950 0.61690
 N480 N 1.06299 0.09320 0.64704
 H481 H 1.06791 0.14930 0.75654
 H482 H 1.13549 0.06918 0.59238
 C483 C 0.88243 -0.09293 0.67698
 C484 C 0.92153 -0.09494 0.67455
 N485 N 0.94104 -0.11519 0.69978
 C486 C 0.92329 -0.13381 0.72724
 C487 C 0.88381 -0.13170 0.73019
 N488 N 0.86477 -0.11079 0.70476
 N489 N 0.86262 -0.07396 0.65099
 C490 C 0.88021 -0.05695 0.62250
 C491 C 0.91942 -0.05837 0.62030
 N492 N 0.93925 -0.07729 0.64654
 H493 H 0.94026 -0.14880 0.74704
 H494 H 0.86383 -0.04229 0.60188
 C495 C 1.10305 -0.11328 0.33291
 C496 C 1.09524 -0.07518 0.32915
 N497 N 1.10453 -0.05753 0.29740
 C498 C 1.12115 -0.07631 0.26916
 C499 C 1.12817 -0.11465 0.27252
 N500 N 1.11884 -0.13216 0.30445
 N501 N 1.09499 -0.13073 0.36504
 C502 C 1.07938 -0.11184 0.39367
 C503 C 1.07075 -0.07387 0.38981
 N504 N 1.07887 -0.05644 0.35746
 H505 H 1.12815 -0.06166 0.24408
 H506 H 1.07320 -0.12645 0.41899
 C507 C 0.88490 0.10193 0.32199
 C508 C 0.92292 0.11011 0.32695
 N509 N 0.94110 0.12996 0.30095
 C510 C 0.92300 0.14239 0.27028
 C511 C 0.88477 0.13392 0.26470
 N512 N 0.86702 0.11339 0.29088
 N513 N 0.86634 0.08308 0.34858
 C514 C 0.88423 0.07187 0.37986
 C515 C 0.92250 0.07917 0.38436
 N516 N 0.94109 0.09798 0.35766
 H517 H 0.93901 0.15729 0.24994
 H518 H 0.86904 0.05648 0.40055
 C519 C 0.09533 0.31489 -0.10245
 C520 C 0.11859 0.34295 -0.08899
 N521 N 0.15609 0.34029 -0.09405
 C522 C 0.17157 0.31075 -0.11188
 C523 C 0.14835 0.28258 -0.12627
 N524 N 0.11060 0.28589 -0.12117
 N525 N 0.05787 0.31693 -0.09636
 C526 C 0.04261 0.34601 -0.07755
 C527 C 0.06580 0.37472 -0.06501
 N528 N 0.10332 0.37249 -0.07114
 H529 H 0.20150 0.31053 -0.11602
 H530 H 0.01263 0.34721 -0.07331
 C531 C -0.11857 0.33077 0.11695
 C532 C -0.10735 0.32830 0.08001
 N533 N -0.11374 0.29671 0.06067
 C534 C -0.13038 0.26710 0.07684
 C535 C -0.14017 0.26887 0.11428
 N536 N -0.13411 0.30082 0.13344
 N537 N -0.11292 0.36277 0.13592
 C538 C -0.09615 0.39234 0.11967
 C539 C -0.08360 0.38936 0.08311
 N540 N -0.08963 0.35731 0.06424
 H541 H -0.13453 0.24194 0.06109
 H542 H -0.09164 0.41742 0.13545
 C543 C -0.08670 0.68098 -0.11099
 C544 C -0.11129 0.65321 -0.09930
 N545 N -0.14842 0.65692 -0.10613
 C546 C -0.16233 0.68742 -0.12362
 C547 C -0.13790 0.71565 -0.13561
 N548 N -0.10041 0.71110 -0.12937
 N549 N -0.04969 0.67795 -0.10268
 C550 C -0.03625 0.64841 -0.08312
 C551 C -0.06081 0.62028 -0.07198
 N552 N -0.09779 0.62331 -0.08060
 H553 H -0.19208 0.68870 -0.12912
 H554 H -0.00665 0.64663 -0.07677
 C555 C 0.12252 0.66727 0.11342
 C556 C 0.08329 0.66624 0.11380
 N557 N 0.06383 0.69377 0.13076
 C558 C 0.08168 0.72242 0.14744
 C559 C 0.12125 0.72441 0.14645
 N560 N 0.14043 0.69649 0.12905
 N561 N 0.14203 0.63897 0.09754
 C562 C 0.12400 0.60978 0.08183
 C563 C 0.08468 0.60938 0.08113
 N564 N 0.06525 0.63774 0.09715
 H565 H 0.06469 0.74419 0.15947
 H566 H 0.14011 0.58759 0.06923
 C567 C 0.32559 1.09134 0.87182
 C568 C 0.35897 1.11115 0.87650
 N569 N 0.36098 1.14664 0.86400
 C570 C 0.33097 1.16337 0.84750
 C571 C 0.29747 1.14363 0.84303
 N572 N 0.29580 1.10792 0.85513
 N573 N 0.32284 1.05649 0.88561
 C574 C 0.35184 1.04056 0.90426
 C575 C 0.38532 1.06026 0.90920
 N576 N 0.38819 1.09510 0.89483
 H577 H 0.33298 1.19194 0.83847
 H578 H 0.34875 1.01277 0.91514
 C579 C 0.31255 0.90043 1.10430
 C580 C 0.34459 0.87764 1.10190
 N581 N 0.34381 0.84293 1.11660
 C582 C 0.31251 0.83004 1.13357
 C583 C 0.28066 0.85312 1.13656
 N584 N 0.28164 0.88786 1.12183
 N585 N 0.31266 0.93462 1.08868
 C586 C 0.34334 0.94719 1.07074
 C587 C 0.37582 0.92485 1.06872
 N588 N 0.37570 0.89048 1.08457
 H589 H 0.31261 0.80230 1.14507
 H590 H 0.34255 0.97468 1.05866
 C591 C 0.67043 1.10777 1.10441
 C592 C 0.67392 1.06965 1.09687
 N593 N 0.70608 1.05143 1.10610
 C594 C 0.73503 1.06969 1.12224
 C595 C 0.73200 1.10810 1.12879
 N596 N 0.69961 1.12615 1.11966
 N597 N 0.63800 1.12587 1.09613
 C598 C 0.60889 1.10764 1.08041
 C599 C 0.61259 1.06972 1.07180
 N600 N 0.64516 1.05158 1.08029
 H601 H 0.76054 1.05465 1.12893
 H602 H 0.58342 1.12283 1.07389
 C603 C 0.68374 0.88123 0.89978
 C604 C 0.65273 0.89066 0.87772
 N605 N 0.65414 0.88446 0.84077
 C606 C 0.68516 0.86911 0.82493
 C607 C 0.71584 0.85892 0.84717
 N608 N 0.71425 0.86527 0.88411
 N609 N 0.68307 0.88855 0.93645
 C610 C 0.65271 0.90496 0.95220
 C611 C 0.62131 0.91385 0.93039
 N612 N 0.62202 0.90639 0.89356
 H613 H 0.68565 0.86431 0.79548
 H614 H 0.65289 0.91063 0.98152
   
