data_POSCAR
  _audit_creation_date              2014-09-24
  _audit_creation_method            'ToBaCCo'
  _symmetry_space_group_name_H-M    'P1'
  _symmetry_Int_Tables_number       1
  _symmetry_cell_setting            triclinic
  loop_
  _symmetry_equiv_pos_as_xyz
 x,y,z
_cell_length_a 14.0683
_cell_length_b 14.3146
_cell_length_c 14.6248
_cell_angle_alpha 89.606200
_cell_angle_beta 88.626100
_cell_angle_gamma 88.680200
loop_
  _atom_site_label
  _atom_site_type_symbol
  _atom_site_fract_x
  _atom_site_fract_y
  _atom_site_fract_z
C1 C 0.01472 0.51565 0.27003
 C2 C -0.01080 0.51513 0.74270
 C3 C 0.24519 0.00954 0.50465
 C4 C 0.75700 -0.00144 0.50381
 C5 C 0.49359 0.26723 1.00646
 C6 C 0.51059 0.73970 1.00181
 B7 B 0.99422 1.11010 0.06439
 B8 B 0.99018 1.11092 -0.05654
 B9 B 1.09437 1.07638 0.00243
 B10 B 1.06191 1.00866 0.10044
 B11 B 0.93836 1.00439 0.10363
 B12 B 0.89243 1.06563 0.00597
 B13 B 1.00192 0.90812 -0.05732
 B14 B 1.00403 0.90854 0.06190
 B15 B 0.90048 0.94613 0.00590
 B16 B 0.93560 1.00890 -0.09460
 B17 B 1.05825 1.01505 -0.09604
 B18 B 1.10470 0.95292 -0.00076
 B19 B 0.60434 0.50916 0.44047
 B20 B 0.60602 0.49480 0.55625
 B21 B 0.56713 0.60306 0.50745
 B22 B 0.50303 0.57501 0.40943
 B23 B 0.50297 0.45514 0.39970
 B24 B 0.56142 0.40318 0.49020
 B25 B 0.40474 0.50619 0.56793
 B26 B 0.40280 0.51888 0.44805
 B27 B 0.43845 0.40961 0.49829
 B28 B 0.50651 0.43451 0.59570
 B29 B 0.50713 0.55669 0.60579
 B30 B 0.44450 0.60935 0.51392
 C31 C 1.07705 1.33046 0.23163
 C32 C 1.02924 1.41755 0.20665
 C33 C 0.97053 1.39902 0.13114
 C34 C 0.96146 1.30821 0.08791
 C35 C 1.00759 1.22142 0.11546
 C36 C 1.06491 1.23964 0.19221
 C37 C 1.16363 1.20901 0.21378
 C38 C 1.18166 1.30552 0.23997
 H39 H 0.92218 1.45342 0.11109
 H40 H 0.91230 1.30879 0.03479
 H41 H 1.21596 1.18898 0.16412
 H42 H 1.17015 1.16348 0.27384
 H43 H 1.22830 1.34441 0.19244
 H44 H 1.21195 1.29830 0.30689
 C45 C 0.92986 0.65856 0.18664
 C46 C 1.01211 0.61023 0.21203
 C47 C 1.09185 0.66566 0.19057
 C48 C 1.08508 0.76323 0.16192
 C49 C 1.00391 0.80328 0.11976
 C50 C 0.92597 0.74409 0.13925
 C51 C 0.82352 0.72991 0.12819
 C52 C 0.83073 0.63711 0.17578
 H53 H 1.15901 0.63367 0.19621
 H54 H 1.14598 0.80478 0.17002
 H55 H 0.80499 0.71669 0.05718
 H56 H 0.78120 0.77892 0.17168
 H57 H 0.82162 0.57733 0.12946
 H58 H 0.79037 0.63691 0.24083
 C59 C 1.05458 1.34824 -0.20644
 C60 C 0.98174 1.41480 -0.20332
 C61 C 0.89917 1.37301 -0.15916
 C62 C 0.89842 1.27754 -0.12192
 C63 C 0.98061 1.21566 -0.11929
 C64 C 1.05208 1.25555 -0.17589
 C65 C 1.15224 1.24241 -0.20687
 C66 C 1.15467 1.34516 -0.23144
 H67 H 0.83393 1.41269 -0.14984
 H68 H 0.83315 1.25563 -0.08978
 H69 H 1.16884 1.20608 -0.27124
 H70 H 1.19159 1.21257 -0.15189
 H71 H 1.16466 1.35765 -0.30435
 H72 H 1.19668 1.38979 -0.18704
 C73 C 0.94817 0.61991 -0.11296
 C74 C 0.97468 0.61014 -0.20440
 C75 C 0.97952 0.69612 -0.25052
 C76 C 0.97725 0.78166 -0.20263
 C77 C 0.99425 0.79346 -0.10858
 C78 C 0.97231 0.70404 -0.06420
 C79 C 1.03131 0.62521 -0.01810
 C80 C 0.97244 0.55003 -0.04726
 H81 H 0.97865 0.69730 -0.32449
 H82 H 0.92039 0.82072 -0.22773
 H83 H 1.03088 0.62145 0.05238
 H84 H 1.10293 0.60928 -0.05012
 H85 H 0.90794 0.53739 -0.00495
 H86 H 1.01798 0.48844 -0.06360
 C87 C 1.24213 0.96965 0.32713
 C88 C 1.19109 0.99835 0.40784
 C89 C 1.09720 1.02705 0.38446
 C90 C 1.06599 1.03466 0.29072
 C91 C 1.11606 1.00135 0.20926
 C92 C 1.20768 0.96514 0.23703
 C93 C 1.30299 0.92015 0.20797
 C94 C 1.33984 0.93723 0.30244
 H95 H 1.04791 1.05230 0.43612
 H96 H 1.00448 1.07777 0.28294
 H97 H 1.35121 0.95399 0.15806
 H98 H 1.29839 0.84405 0.19684
 H99 H 1.38978 0.99592 0.30360
 H100 H 1.36634 0.87240 0.33529
 C101 C 1.24510 0.98859 -0.31015
 C102 C 1.19615 1.01588 -0.39276
 C103 C 1.10583 1.05681 -0.37009
 C104 C 1.07438 1.07662 -0.27819
 C105 C 1.11226 1.02942 -0.20036
 C106 C 1.19363 0.98105 -0.22464
 C107 C 1.20317 0.88049 -0.21972
 C108 C 1.28415 0.89312 -0.28186
 H109 H 1.05317 1.06889 -0.42038
 H110 H 1.00983 1.11816 -0.27171
 H111 H 1.14258 0.84865 -0.25371
 H112 H 1.22123 0.84716 -0.15762
 H113 H 1.28936 0.83484 -0.32605
 H114 H 1.35048 0.89894 -0.24205
 C115 C 0.80637 1.06059 0.34657
 C116 C 0.82161 0.99330 0.41208
 C117 C 0.87051 0.91447 0.37297
 C118 C 0.90480 0.91415 0.27813
 C119 C 0.88454 0.98785 0.21101
 C120 C 0.82546 1.05619 0.25199
 C121 C 0.83261 1.15768 0.25354
 C122 C 0.82898 1.15738 0.35423
 H123 H 0.88592 0.85436 0.41589
 H124 H 0.95591 0.86021 0.26517
 H125 H 0.76614 1.19128 0.22969
 H126 H 0.89944 1.18308 0.22995
 H127 H 0.76897 1.19747 0.37915
 H128 H 0.89826 1.16819 0.38743
 C129 C 0.75673 1.03827 -0.31726
 C130 C 0.80553 1.00597 -0.39850
 C131 C 0.89761 0.97370 -0.37856
 C132 C 0.92878 0.96602 -0.28532
 C133 C 0.88527 1.01049 -0.20482
 C134 C 0.80531 1.06129 -0.23716
 C135 C 0.74135 1.14486 -0.22261
 C136 C 0.67476 1.10194 -0.29092
 H137 H 0.94197 0.94392 -0.43295
 H138 H 0.99597 0.92997 -0.28038
 H139 H 0.77547 1.20763 -0.25275
 H140 H 0.71077 1.16415 -0.15710
 H141 H 0.63579 1.15497 -0.32937
 H142 H 0.61882 1.05438 -0.26726
 C143 C 1.30585 1.27511 0.00867
 C144 C 1.39193 1.22145 0.01133
 C145 C 1.37329 1.12965 0.04004
 C146 C 1.27844 1.09578 0.04416
 C147 C 1.19623 1.14024 0.00892
 C148 C 1.21455 1.23809 0.00419
 C149 C 1.17252 1.33562 0.00524
 C150 C 1.27235 1.37388 0.00699
 H151 H 1.42960 1.08666 0.06820
 H152 H 1.26577 1.03646 0.08338
 H153 H 1.13585 1.35516 0.06797
 H154 H 1.13180 1.35751 -0.05354
 H155 H 1.28770 1.41137 0.07039
 H156 H 1.29037 1.41250 -0.05559
 C157 C 0.60306 1.12174 -0.02315
 C158 C 0.58307 1.20201 0.02515
 C159 C 0.66290 1.22835 0.07624
 C160 C 0.75614 1.18922 0.06170
 C161 C 0.77736 1.10896 0.00976
 C162 C 0.68992 1.07152 -0.02406
 C163 C 0.64220 1.00854 -0.09246
 C164 C 0.55657 1.07411 -0.09580
 H165 H 0.65643 1.28010 0.12805
 H166 H 0.81188 1.22176 0.09493
 H167 H 0.61195 0.94632 -0.06625
 H168 H 0.68113 0.98691 -0.15362
 H169 H 0.48812 1.04848 -0.07183
 H170 H 0.55141 1.11819 -0.15652
 C171 C 1.33062 0.76646 0.02418
 C172 C 1.41686 0.80625 0.00180
 C173 C 1.40054 0.88998 -0.04802
 C174 C 1.30765 0.93696 -0.05112
 C175 C 1.22222 0.90454 -0.00284
 C176 C 1.24121 0.81645 0.03410
 C177 C 1.19659 0.74001 -0.00878
 C178 C 1.28693 0.70567 -0.04352
 H179 H 1.45627 0.91229 -0.09323
 H180 H 1.30349 0.99831 -0.09405
 H181 H 1.14852 0.76104 -0.06111
 H182 H 1.17372 0.69005 0.04275
 H183 H 1.30406 0.73592 -0.11027
 H184 H 1.28196 0.62999 -0.04356
 C185 C 0.62996 0.85895 0.06888
 C186 C 0.60708 0.79491 0.00114
 C187 C 0.68581 0.77800 -0.06170
 C188 C 0.77058 0.83090 -0.06244
 C189 C 0.79497 0.89165 0.00918
 C190 C 0.71768 0.90212 0.07500
 C191 C 0.67892 0.95158 0.15920
 C192 C 0.58296 0.90694 0.14690
 H193 H 0.68508 0.72359 -0.11223
 H194 H 0.81732 0.82071 -0.11945
 H195 H 0.71093 0.92405 0.22268
 H196 H 0.67398 1.02863 0.15267
 H197 H 0.52679 0.95716 0.12455
 H198 H 0.56199 0.86009 0.20426
 C199 C 0.84341 0.45644 0.29282
 C200 C 0.91570 0.51292 0.32204
 C201 C 0.88318 0.58165 0.38486
 C202 C 0.78631 0.58620 0.41687
 C203 C 0.71431 0.52186 0.39196
 C204 C 0.75030 0.45857 0.32999
 C205 C 0.74642 0.35822 0.33528
 C206 C 0.84386 0.35476 0.29237
 H207 H 0.93171 0.63309 0.40882
 H208 H 0.77532 0.63512 0.46803
 H209 H 0.68992 0.32580 0.29565
 H210 H 0.74860 0.34024 0.40623
 H211 H 0.84026 0.32990 0.22184
 H212 H 0.90070 0.32474 0.33592
 C213 C 0.13166 0.60954 0.38603
 C214 C 0.09453 0.52819 0.34438
 C215 C 0.15132 0.45275 0.36323
 C216 C 0.25134 0.45828 0.36742
 C217 C 0.29630 0.53704 0.39785
 C218 C 0.23163 0.61561 0.40021
 C219 C 0.22613 0.71119 0.35407
 C220 C 0.11992 0.71247 0.37621
 H221 H 0.11496 0.38948 0.37409
 H222 H 0.29490 0.39950 0.35829
 H223 H 0.24271 0.71076 0.28055
 H224 H 0.26738 0.76830 0.37690
 H225 H 0.06858 0.74428 0.33000
 H226 H 0.10175 0.74096 0.44466
 C227 C 0.89340 0.47502 0.59671
 C228 C 0.89966 0.51577 0.68327
 C229 C 0.81144 0.53423 0.72950
 C230 C 0.72431 0.52277 0.69003
 C231 C 0.71414 0.48391 0.60419
 C232 C 0.80262 0.45062 0.56223
 C233 C 0.84850 0.35209 0.56185
 C234 C 0.94333 0.38695 0.57302
 H235 H 0.80731 0.55989 0.79872
 H236 H 0.66471 0.54353 0.73126
 H237 H 0.84982 0.31116 0.49855
 H238 H 0.83086 0.31221 0.62548
 H239 H 0.98116 0.38989 0.50542
 H240 H 0.98298 0.35041 0.62759
 C241 C 0.17223 0.56201 0.74018
 C242 C 0.09287 0.52747 0.69352
 C243 C 0.11956 0.50233 0.60413
 C244 C 0.21626 0.48489 0.57839
 C245 C 0.29664 0.51052 0.62402
 C246 C 0.26943 0.55412 0.70592
 C247 C 0.29313 0.64851 0.73228
 C248 C 0.18958 0.66350 0.75164
 H249 H 0.06913 0.49681 0.55186
 H250 H 0.23064 0.44945 0.52077
 H251 H 0.32812 0.69014 0.68148
 H252 H 0.33750 0.64879 0.79078
 H253 H 0.15628 0.70533 0.69628
 H254 H 0.17016 0.68487 0.82051
 C255 C 0.42527 0.65573 0.14857
 C256 C 0.50857 0.68254 0.10005
 C257 C 0.58613 0.68164 0.16078
 C258 C 0.58144 0.65856 0.25662
 C259 C 0.49835 0.62836 0.30323
 C260 C 0.41928 0.63170 0.24383
 C261 C 0.35108 0.55806 0.22042
 C262 C 0.36279 0.57844 0.12482
 H263 H 0.65441 0.69471 0.13278
 H264 H 0.64635 0.65989 0.29350
 H265 H 0.27784 0.57157 0.23839
 H266 H 0.36969 0.48675 0.23599
 H267 H 0.29339 0.59665 0.09614
 H268 H 0.40040 0.51717 0.09753
 C269 C 0.51174 0.58800 0.88796
 C270 C 0.51184 0.68516 0.90483
 C271 C 0.52514 0.73576 0.82102
 C272 C 0.53428 0.69093 0.73404
 C273 C 0.50497 0.60102 0.71514
 C274 C 0.49293 0.55197 0.79913
 C275 C 0.41577 0.49446 0.83928
 C276 C 0.44990 0.51923 0.92960
 H277 H 0.54005 0.80935 0.82267
 H278 H 0.56846 0.72574 0.68125
 H279 H 0.41814 0.42363 0.82614
 H280 H 0.34122 0.51551 0.84131
 H281 H 0.48726 0.46149 0.96162
 H282 H 0.39554 0.55207 0.96783
 C283 C 0.53858 0.41305 0.11483
 C284 C 0.48524 0.33378 0.09571
 C285 C 0.43750 0.30040 0.17781
 C286 C 0.44607 0.33889 0.26670
 C287 C 0.51023 0.40852 0.28922
 C288 C 0.55621 0.44326 0.20556
 C289 C 0.65401 0.46787 0.16664
 C290 C 0.62419 0.45296 0.07114
 H291 H 0.39445 0.23921 0.17748
 H292 H 0.40354 0.30881 0.31981
 H293 H 0.71028 0.41480 0.17554
 H294 H 0.67879 0.53718 0.17922
 H295 H 0.67213 0.40463 0.03264
 H296 H 0.61076 0.52066 0.03612
 C297 C 0.45760 0.26306 0.82350
 C298 C 0.51028 0.29863 0.89808
 C299 C 0.59231 0.34133 0.85790
 C300 C 0.59921 0.36832 0.76134
 C301 C 0.52259 0.36462 0.69646
 C302 C 0.46171 0.29464 0.73020
 C303 C 0.35973 0.28106 0.71875
 C304 C 0.35709 0.24606 0.81458
 H305 H 0.65433 0.34953 0.89838
 H306 H 0.66969 0.37934 0.73823
 H307 H 0.33383 0.22406 0.67781
 H308 H 0.32442 0.34931 0.70677
 H309 H 0.34180 0.17037 0.82270
 H310 H 0.31516 0.29738 0.85159
 C311 C 0.72912 0.82845 0.56425
 C312 C 0.70516 0.90187 0.50427
 C313 C 0.64857 0.86894 0.43255
 C314 C 0.60953 0.77693 0.43243
 C315 C 0.62476 0.70723 0.50255
 C316 C 0.69155 0.73978 0.56464
 C317 C 0.75517 0.71036 0.63905
 C318 C 0.79395 0.80610 0.63917
 H319 H 0.63500 0.91234 0.37439
 H320 H 0.55649 0.76803 0.38264
 H321 H 0.81099 0.66143 0.61300
 H322 H 0.72014 0.69655 0.70605
 H323 H 0.86947 0.80402 0.61581
 H324 H 0.77467 0.84443 0.70306
 C325 C 0.61940 0.11862 0.44045
 C326 C 0.69393 0.09427 0.49914
 C327 C 0.72784 0.17757 0.53960
 C328 C 0.67309 0.26273 0.54527
 C329 C 0.60744 0.29114 0.48050
 C330 C 0.58600 0.21157 0.42410
 C331 C 0.53249 0.17451 0.34466
 C332 C 0.57135 0.07728 0.36345
 H333 H 0.79292 0.17483 0.57666
 H334 H 0.68375 0.30758 0.60150
 H335 H 0.56116 0.20024 0.27800
 H336 H 0.45431 0.17451 0.35475
 H337 H 0.62072 0.05296 0.30834
 H338 H 0.51658 0.02761 0.38698
 C339 C 0.39756 0.89752 0.50969
 C340 C 0.29923 0.91203 0.50906
 C341 C 0.24606 0.82975 0.52400
 C342 C 0.28986 0.73846 0.53450
 C343 C 0.38935 0.72030 0.52288
 C344 C 0.43910 0.80581 0.52194
 C345 C 0.48714 0.84633 0.60253
 C346 C 0.45738 0.93993 0.57832
 H347 H 0.17003 0.83731 0.53495
 H348 H 0.24340 0.68200 0.55173
 H349 H 0.56303 0.84824 0.60609
 H350 H 0.45191 0.82444 0.66688
 H351 H 0.51501 0.98233 0.54711
 H352 H 0.42426 0.96841 0.64086
 C353 C 0.25974 0.18448 0.44651
 C354 C 0.30287 0.10497 0.48950
 C355 C 0.38143 0.13182 0.54060
 C356 C 0.42281 0.22101 0.53732
 C357 C 0.37951 0.30215 0.50007
 C358 C 0.28882 0.27903 0.46549
 C359 C 0.19274 0.28856 0.51442
 C360 C 0.15898 0.20890 0.46500
 H361 H 0.40063 0.09615 0.60004
 H362 H 0.48450 0.22652 0.57783
 H363 H 0.14007 0.34426 0.50469
 H364 H 0.20028 0.27035 0.58734
 H365 H 0.11723 0.22778 0.40431
 H366 H 0.11842 0.16785 0.51036
   
