data_POSCAR
  _audit_creation_date              2014-09-24
  _audit_creation_method            'ToBaCCo'
  _symmetry_space_group_name_H-M    'P1'
  _symmetry_Int_Tables_number       1
  _symmetry_cell_setting            triclinic
  loop_
  _symmetry_equiv_pos_as_xyz
 x,y,z
_cell_length_a 17.7861
_cell_length_b 17.2248
_cell_length_c 17.4194
_cell_angle_alpha 89.264500
_cell_angle_beta 90.850900
_cell_angle_gamma 76.690100
loop_
  _atom_site_label
  _atom_site_type_symbol
  _atom_site_fract_x
  _atom_site_fract_y
  _atom_site_fract_z
O1 O -0.05640 0.60456 0.95219
 O2 O -0.10046 0.47887 1.10108
 O3 O -0.02387 0.59741 1.09681
 O4 O -0.06894 0.45775 0.94962
 O5 O 0.05453 0.39574 0.95465
 O6 O 0.09107 0.51607 1.10999
 O7 O 0.01441 0.39713 1.09589
 O8 O 0.06702 0.54238 0.95658
 Cu9 Cu -0.07302 0.53900 1.02622
 Cu10 Cu 0.06730 0.45843 1.03160
 C11 C 0.01133 0.59698 0.92846
 C12 C -0.05513 0.41370 1.12000
 C13 C 0.04433 0.58009 1.12661
 C14 C -0.01194 0.40426 0.92516
 O15 O 0.59623 -0.07132 0.56358
 O16 O 0.44062 -0.07690 0.42487
 O17 O 0.58269 -0.05749 0.41505
 O18 O 0.44630 -0.05682 0.57293
 O19 O 0.40815 0.07425 0.56031
 O20 O 0.55773 0.07416 0.41830
 O21 O 0.41583 0.05439 0.41238
 O22 O 0.55775 0.05995 0.56743
 Cu23 Cu 0.51942 -0.07851 0.49448
 Cu24 Cu 0.48178 0.07849 0.48916
 C25 C 0.60314 -0.00514 0.58998
 C26 C 0.40278 -0.01269 0.39379
 C27 C 0.59505 0.00883 0.39170
 C28 C 0.40252 0.00940 0.59198
 C29 C -0.10788 0.00623 0.25803
 C30 C -0.03931 0.02761 0.23824
 C31 C -0.04178 0.10769 0.21971
 C32 C -0.11089 0.16645 0.22340
 C33 C -0.17954 0.14330 0.24339
 C34 C -0.17818 0.06258 0.25887
 C35 C 0.03485 -0.03355 0.23880
 C36 C 0.03639 -0.11336 0.22229
 C37 C 0.10506 -0.17266 0.22850
 C38 C 0.17453 -0.15056 0.24864
 C39 C 0.17423 -0.06987 0.26126
 C40 C 0.10423 -0.01283 0.25809
 H41 H -0.10711 -0.05457 0.27502
 H42 H 0.01043 0.12421 0.20242
 H43 H -0.01643 -0.12978 0.20548
 H44 H 0.10441 0.04792 0.27297
 H45 H -0.23390 0.18717 0.24497
 H46 H 0.22848 -0.19512 0.25223
 C47 C 0.01223 -0.10633 0.75792
 C48 C -0.01914 -0.02740 0.73386
 C49 C -0.09740 -0.00486 0.71330
 C50 C -0.14547 -0.05831 0.71945
 C51 C -0.11358 -0.13763 0.74361
 C52 C -0.03395 -0.16193 0.76308
 C53 C 0.02835 0.03289 0.73472
 C54 C 0.10707 0.01112 0.71857
 C55 C 0.15367 0.06603 0.72435
 C56 C 0.12049 0.14524 0.74487
 C57 C 0.04081 0.16828 0.76090
 C58 C -0.00420 0.11174 0.75552
 H59 H 0.07202 -0.12390 0.77698
 H60 H -0.12178 0.05524 0.69233
 H61 H 0.13282 -0.04902 0.70081
 H62 H -0.06416 0.12863 0.77186
 H63 H -0.15059 -0.17920 0.74879
 H64 H 0.15658 0.18772 0.74997
 N65 N 0.15814 -0.31682 0.23805
 N66 N 0.14186 -0.38403 0.21445
 C67 C 0.07367 -0.36412 0.17568
 C68 C 0.04920 -0.28226 0.17537
 N69 N 0.10351 -0.25470 0.21481
 H70 H -0.00009 -0.24659 0.14420
 N71 N -0.17260 0.30850 0.21471
 N72 N -0.15862 0.37622 0.18860
 C73 C -0.08560 0.35944 0.16267
 C74 C -0.05509 0.27890 0.17394
 N75 N -0.11159 0.24885 0.20596
 H76 H 0.00040 0.24541 0.15495
 N77 N 0.27456 -0.03361 0.73203
 N78 N 0.34131 -0.05215 0.69630
 C79 C 0.34365 0.01045 0.65013
 C80 C 0.27644 0.06858 0.65923
 N81 N 0.23476 0.03853 0.71081
 H82 H 0.25652 0.12321 0.62601
 N83 N -0.26213 0.04701 0.71299
 N84 N -0.32994 0.06445 0.67685
 C85 C -0.33779 -0.00272 0.64231
 C86 C -0.27284 -0.06273 0.65950
 N87 N -0.22654 -0.02864 0.70307
 H88 H -0.25724 -0.12199 0.63586
 N89 N 0.07489 -0.27397 0.79548
 N90 N 0.09046 -0.33887 0.84027
 C91 C 0.02252 -0.34572 0.86923
 C92 C -0.03500 -0.28380 0.84028
 N93 N -0.00019 -0.24014 0.79459
 H94 H -0.09530 -0.26875 0.85575
 N95 N -0.06926 0.27964 0.78493
 N96 N -0.08685 0.34313 0.82933
 C97 C -0.02027 0.34931 0.86371
 C98 C 0.03855 0.28849 0.83838
 N99 N 0.00583 0.24612 0.78940
 H100 H 0.09807 0.27285 0.85860
 N101 N -0.25526 -0.03665 0.25603
 N102 N -0.31479 -0.05405 0.29132
 C103 C -0.34535 0.00915 0.33460
 C104 C -0.30294 0.06648 0.32434
 N105 N -0.24686 0.03520 0.27504
 H106 H -0.30768 0.12150 0.35522
 N107 N 0.25274 0.02756 0.25253
 N108 N 0.31247 0.04604 0.28781
 C109 C 0.34236 -0.01503 0.33632
 C110 C 0.29937 -0.07228 0.32923
 N111 N 0.24365 -0.04302 0.27643
 H112 H 0.30357 -0.12568 0.36406
   
