data_POSCAR
  _audit_creation_date              2014-09-24
  _audit_creation_method            'ToBaCCo'
  _symmetry_space_group_name_H-M    'P1'
  _symmetry_Int_Tables_number       1
  _symmetry_cell_setting            triclinic
  loop_
  _symmetry_equiv_pos_as_xyz
 x,y,z
_cell_length_a 38.1202
_cell_length_b 40.1279
_cell_length_c 39.8533
_cell_angle_alpha 89.546600
_cell_angle_beta 89.585500
_cell_angle_gamma 89.831300
loop_
  _atom_site_label
  _atom_site_type_symbol
  _atom_site_fract_x
  _atom_site_fract_y
  _atom_site_fract_z
O1 O 0.34083 0.38003 0.00549
 O2 O 0.37026 0.31675 -0.05455
 O3 O 0.32536 0.36480 -0.05560
 O4 O 0.38728 0.33245 0.00609
 O5 O 0.34714 0.29784 0.02605
 O6 O 0.28430 0.33064 -0.03687
 O7 O 0.33079 0.28147 -0.03445
 O8 O 0.29953 0.34615 0.02448
 Cu9 Cu 0.35994 0.35194 -0.02648
 Cu10 Cu 0.31128 0.31054 -0.00322
 C11 C 0.31480 0.37427 0.02468
 C12 C 0.35610 0.28819 -0.05427
 C13 C 0.29419 0.35384 -0.05668
 C14 C 0.37824 0.30928 0.02608
 O15 O 0.66384 0.62967 0.00431
 O16 O 0.63642 0.69368 -0.05602
 O17 O 0.68074 0.64426 -0.05658
 O18 O 0.62076 0.67869 0.00593
 O19 O 0.66264 0.71141 0.02479
 O20 O 0.72307 0.67746 -0.03994
 O21 O 0.67690 0.72790 -0.03707
 O22 O 0.70712 0.66164 0.02161
 Cu23 Cu 0.64627 0.65848 -0.02763
 Cu24 Cu 0.69678 0.69814 -0.00616
 C25 C 0.69013 0.63440 0.02296
 C26 C 0.65111 0.72195 -0.05615
 C27 C 0.71240 0.65388 -0.05835
 C28 C 0.63138 0.70049 0.02629
 O29 O 0.62452 0.31801 1.05260
 O30 O 0.64797 0.37795 0.98628
 O31 O 0.60310 0.32988 0.99234
 O32 O 0.66881 0.36664 1.04725
 O33 O 0.70883 0.33141 1.02863
 O34 O 0.64267 0.29505 0.97187
 O35 O 0.68875 0.34369 0.96710
 O36 O 0.66280 0.28193 1.03203
 Cu37 Cu 0.63227 0.35168 1.02158
 Cu38 Cu 0.68000 0.30957 0.99802
 C39 C 0.63869 0.28939 1.05286
 C40 C 0.67244 0.37133 0.96563
 C41 C 0.61133 0.30598 0.97318
 C42 C 0.70009 0.35566 1.04732
 O43 O 0.41339 0.65074 1.04492
 O44 O 0.37233 0.60587 0.97590
 O45 O 0.41802 0.65287 0.98054
 O46 O 0.37063 0.60085 1.04083
 O47 O 0.32633 0.63642 1.04165
 O48 O 0.37460 0.68949 0.97993
 O49 O 0.32777 0.64119 0.97625
 O50 O 0.37015 0.68755 1.04466
 Cu51 Cu 0.39779 0.62392 1.01062
 Cu52 Cu 0.34513 0.66724 1.01068
 C53 C 0.39944 0.67733 1.05581
 C54 C 0.34304 0.61561 0.96445
 C55 C 0.40503 0.68018 0.97038
 C56 C 0.34045 0.60919 1.05132
 O57 O -0.05788 0.36524 0.31194
 O58 O 0.00125 0.33510 0.37769
 O59 O 0.00491 0.37998 0.33126
 O60 O -0.06197 0.32121 0.35996
 O61 O -0.04127 0.28270 0.32589
 O62 O 0.02625 0.34272 0.29601
 O63 O 0.02219 0.29670 0.34345
 O64 O -0.03704 0.32781 0.27670
 Cu65 Cu -0.03067 0.35413 0.34851
 Cu66 Cu -0.00549 0.30866 0.30684
 C67 C -0.05724 0.35224 0.28298
 C68 C 0.02148 0.31060 0.37202
 C69 C 0.02686 0.37168 0.30882
 C70 C -0.06246 0.29162 0.34895
 O71 O 0.01738 0.64249 0.61125
 O72 O -0.04863 0.61839 0.67458
 O73 O -0.04822 0.65536 0.62098
 O74 O 0.01676 0.60324 0.66279
 O75 O 0.03225 0.64491 0.69537
 O76 O -0.03132 0.69904 0.65002
 O77 O -0.03365 0.66132 0.70562
 O78 O 0.03404 0.68433 0.64307
 Cu79 Cu -0.01736 0.62559 0.63949
 Cu80 Cu 0.00157 0.67668 0.67699
 C81 C 0.03678 0.66762 0.61623
 C82 C -0.05228 0.63561 0.70100
 C83 C -0.04989 0.68625 0.62701
 C84 C 0.03561 0.61482 0.68595
 O85 O 1.02260 0.59062 0.35469
 O86 O 0.96276 0.63993 0.40641
 O87 O 0.95495 0.59535 0.36075
 O88 O 1.02994 0.63573 0.39979
 O89 O 1.02852 0.67624 0.36198
 O90 O 0.95439 0.63351 0.32051
 O91 O 0.96094 0.67933 0.36741
 O92 O 1.02297 0.62958 0.31523
 Cu93 Cu 0.99264 0.61147 0.38415
 Cu94 Cu 0.99163 0.65855 0.33712
 C95 C 1.03308 0.60135 0.32638
 C96 C 0.95204 0.66813 0.39621
 C97 C 0.94205 0.60714 0.33394
 C98 C 1.04139 0.66326 0.38843
 O99 O 0.97628 0.36466 0.60340
 O100 O 1.04377 0.40880 0.64996
 O101 O 1.04393 0.36643 0.60108
 O102 O 0.97576 0.40784 0.65002
 O103 O 0.97655 0.36766 0.68826
 O104 O 1.04500 0.32474 0.63756
 O105 O 1.04514 0.36847 0.68797
 O106 O 0.97712 0.32337 0.64045
 Cu107 Cu 1.01011 0.39105 0.62251
 Cu108 Cu 1.01149 0.34194 0.66751
 C109 C 0.96512 0.33667 0.61382
 C110 C 1.05544 0.39669 0.67715
 C111 C 1.05517 0.33802 0.61003
 C112 C 0.96417 0.39498 0.67699
 O113 O 0.40661 0.03511 0.35774
 O114 O 0.36429 -0.03123 0.40647
 O115 O 0.41101 -0.02922 0.35929
 O116 O 0.36054 0.03313 0.40539
 O117 O 0.31816 0.03105 0.36794
 O118 O 0.36945 -0.03232 0.32108
 O119 O 0.32184 -0.03420 0.36918
 O120 O 0.36538 0.03236 0.31918
 Cu121 Cu 0.38975 0.00221 0.38597
 Cu122 Cu 0.33934 -0.00105 0.34054
 C123 C 0.39369 0.04480 0.33011
 C124 C 0.33585 -0.04390 0.39645
 C125 C 0.39926 -0.04116 0.33229
 C126 C 0.33086 0.04266 0.39487
 O127 O 0.59415 0.03505 0.64781
 O128 O 0.64178 -0.02602 0.59735
 O129 O 0.59553 -0.02941 0.64498
 O130 O 0.64064 0.03819 0.60049
 O131 O 0.68320 0.03739 0.63783
 O132 O 0.63728 -0.03105 0.68312
 O133 O 0.68450 -0.02751 0.63450
 O134 O 0.63555 0.03373 0.68633
 Cu135 Cu 0.61383 0.00458 0.61897
 Cu136 Cu 0.66445 0.00301 0.66430
 C137 C 0.60624 0.04456 0.67567
 C138 C 0.67135 -0.03685 0.60688
 C139 C 0.60830 -0.04154 0.67170
 C140 C 0.66967 0.04908 0.61111
 O141 O 0.34487 1.02651 0.60489
 O142 O 0.39253 0.96507 0.65500
 O143 O 0.34706 0.96220 0.60773
 O144 O 0.39117 1.02951 0.65138
 O145 O 0.34930 1.03059 0.68999
 O146 O 0.30372 0.96254 0.64485
 O147 O 0.35076 0.96555 0.69372
 O148 O 0.30173 1.02740 0.64221
 Cu149 Cu 0.37310 0.99575 0.62604
 Cu150 Cu 0.32204 0.99653 0.67163
 C151 C 0.31522 1.03723 0.61459
 C152 C 0.38022 0.95503 0.68290
 C153 C 0.31788 0.95114 0.61826
 C154 C 0.37822 1.04142 0.67809
 O155 O 0.65358 1.03566 0.39970
 O156 O 0.61072 0.97464 0.34673
 O157 O 0.65664 0.97183 0.39359
 O158 O 0.60749 1.03888 0.35293
 O159 O 0.64938 1.04490 0.31478
 O160 O 0.69954 0.97693 0.35631
 O161 O 0.65217 0.98010 0.30805
 O162 O 0.69680 1.04094 0.36283
 Cu163 Cu 0.62785 1.00472 0.37688
 Cu164 Cu 0.67872 1.01131 0.33149
 C165 C 0.68274 1.04818 0.39092
 C166 C 0.62372 0.96701 0.31848
 C167 C 0.68654 0.96329 0.38248
 C168 C 0.61973 1.05324 0.32699
 C169 C 0.91119 0.78152 0.50538
 C170 C 0.89679 0.79107 0.47451
 C171 C 0.87487 0.81912 0.47304
 C172 C 0.86763 0.83822 0.50203
 C173 C 0.88386 0.82874 0.53248
 C174 C 0.90411 0.79967 0.53453
 C175 C 0.84117 0.86604 0.50106
 C176 C 0.82239 0.87512 0.53042
 C177 C 0.79539 0.89881 0.52924
 C178 C 0.78655 0.91331 0.49839
 C179 C 0.80414 0.90439 0.46886
 C180 C 0.83236 0.88205 0.47044
 H181 H 0.92843 0.76004 0.50683
 H182 H 0.86253 0.82483 0.44935
 H183 H 0.88003 0.84303 0.55509
 H184 H 0.82732 0.86298 0.55423
 H185 H 0.76593 0.93192 0.49720
 H186 H 0.84641 0.87661 0.44747
 C187 C 0.09586 0.23131 0.49934
 C188 C 0.10124 0.21398 0.46927
 C189 C 0.12223 0.18518 0.46959
 C190 C 0.14001 0.17489 0.49893
 C191 C 0.13493 0.19358 0.52850
 C192 C 0.11274 0.22140 0.52894
 C193 C 0.16483 0.14576 0.49850
 C194 C 0.17337 0.12855 0.52856
 C195 C 0.19975 0.10424 0.52893
 C196 C 0.21542 0.09462 0.49868
 C197 C 0.20710 0.11060 0.46844
 C198 C 0.18198 0.13615 0.46841
 H199 H 0.07748 0.25189 0.50015
 H200 H 0.12464 0.17109 0.44667
 H201 H 0.14874 0.18737 0.55131
 H202 H 0.16051 0.13447 0.55203
 H203 H 0.23448 0.07452 0.49877
 H204 H 0.17724 0.14922 0.44505
 C205 C 0.10646 0.75558 0.49539
 C206 C 0.12026 0.76604 0.52598
 C207 C 0.14294 0.79340 0.52626
 C208 C 0.15098 0.81148 0.49656
 C209 C 0.13606 0.80054 0.46608
 C210 C 0.11519 0.77183 0.46524
 C211 C 0.17566 0.84070 0.49746
 C212 C 0.19423 0.85106 0.46828
 C213 C 0.21892 0.87682 0.46954
 C214 C 0.22570 0.89208 0.50027
 C215 C 0.20844 0.88196 0.52966
 C216 C 0.18235 0.85757 0.52792
 H217 H 0.08770 0.73542 0.49490
 H218 H 0.15445 0.79995 0.54999
 H219 H 0.14059 0.81384 0.44278
 H220 H 0.19076 0.83866 0.44458
 H221 H 0.24430 0.91241 0.50141
 H222 H 0.16816 0.85157 0.55072
 C223 C 0.88788 0.24988 0.50304
 C224 C 0.88774 0.23001 0.53214
 C225 C 0.87040 0.19923 0.53181
 C226 C 0.85112 0.18929 0.50340
 C227 C 0.85154 0.21008 0.47456
 C228 C 0.87032 0.23997 0.47427
 C229 C 0.82881 0.15866 0.50440
 C230 C 0.82007 0.14215 0.47439
 C231 C 0.79494 0.11685 0.47445
 C232 C 0.78088 0.10565 0.50504
 C233 C 0.78954 0.12100 0.53526
 C234 C 0.81351 0.14741 0.53491
 H235 H 0.90257 0.27296 0.50233
 H236 H 0.87148 0.18356 0.55400
 H237 H 0.83628 0.20408 0.45267
 H238 H 0.83161 0.14962 0.45063
 H239 H 0.76272 0.08491 0.50527
 H240 H 0.81861 0.16003 0.55825
 C241 C 0.50035 0.90506 0.78046
 C242 C 0.46938 0.89819 0.79824
 C243 C 0.47122 0.88035 0.82855
 C244 C 0.50350 0.86688 0.83988
 C245 C 0.53418 0.87354 0.82076
 C246 C 0.53277 0.89281 0.79136
 C247 C 0.50501 0.84518 0.87075
 C248 C 0.53667 0.84084 0.88867
 C249 C 0.53837 0.81917 0.91639
 C250 C 0.50821 0.80251 0.92719
 C251 C 0.47668 0.80582 0.90962
 C252 C 0.47511 0.82720 0.88172
 H253 H 0.49922 0.92101 0.75843
 H254 H 0.44726 0.87683 0.84281
 H255 H 0.55930 0.86328 0.82791
 H256 H 0.56018 0.85423 0.88160
 H257 H 0.50965 0.78590 0.94874
 H258 H 0.45085 0.82829 0.86786
 C259 C 0.50516 0.10554 0.22766
 C260 C 0.47279 0.11092 0.21216
 C261 C 0.47162 0.12906 0.18201
 C262 C 0.50222 0.14418 0.16857
 C263 C 0.53438 0.13910 0.18548
 C264 C 0.53602 0.11953 0.21464
 C265 C 0.50058 0.16550 0.13748
 C266 C 0.53080 0.17085 0.11739
 C267 C 0.52962 0.19177 0.08913
 C268 C 0.49793 0.20651 0.07979
 C269 C 0.46763 0.20217 0.09950
 C270 C 0.46906 0.18166 0.12810
 H271 H 0.50646 0.08926 0.24943
 H272 H 0.44668 0.13132 0.16942
 H273 H 0.55834 0.15067 0.17669
 H274 H 0.55541 0.15871 0.12310
 H275 H 0.49717 0.22211 0.05747
 H276 H 0.44568 0.17954 0.14349
 C277 C 0.48996 0.09549 0.77937
 C278 C 0.52202 0.10287 0.79444
 C279 C 0.52220 0.12153 0.82400
 C280 C 0.49078 0.13539 0.83714
 C281 C 0.45888 0.12822 0.82064
 C282 C 0.45834 0.10805 0.79214
 C283 C 0.49139 0.15769 0.86733
 C284 C 0.46078 0.16309 0.88687
 C285 C 0.46111 0.18477 0.91424
 C286 C 0.49228 0.20027 0.92334
 C287 C 0.52288 0.19610 0.90409
 C288 C 0.52231 0.17484 0.87633
 H289 H 0.48960 0.07896 0.75802
 H290 H 0.54707 0.12526 0.83624
 H291 H 0.43425 0.13870 0.82906
 H292 H 0.43647 0.15055 0.88142
 H293 H 0.49229 0.21639 0.94503
 H294 H 0.54591 0.17294 0.86126
 C295 C 0.50821 0.91464 0.21969
 C296 C 0.53957 0.90767 0.20278
 C297 C 0.53942 0.88556 0.17579
 C298 C 0.50866 0.86757 0.16759
 C299 C 0.47753 0.87460 0.18600
 C300 C 0.47720 0.89814 0.21169
 C301 C 0.50951 0.84009 0.14197
 C302 C 0.47807 0.82664 0.12901
 C303 C 0.47869 0.79834 0.10875
 C304 C 0.51088 0.78528 0.09818
 C305 C 0.54255 0.79854 0.10949
 C306 C 0.54171 0.82549 0.13161
 H307 H 0.50812 0.93304 0.23947
 H308 H 0.56379 0.88202 0.16233
 H309 H 0.45353 0.86110 0.18190
 H310 H 0.45274 0.83724 0.13491
 H311 H 0.51097 0.76505 0.08035
 H312 H 0.56653 0.83398 0.14110
 C313 C 0.74789 0.49426 0.88703
 C314 C 0.76413 0.46474 0.87648
 C315 C 0.79190 0.46669 0.85326
 C316 C 0.80413 0.49784 0.84095
 C317 C 0.78782 0.52716 0.85307
 C318 C 0.75906 0.52529 0.87512
 C319 C 0.83214 0.49960 0.81420
 C320 C 0.83435 0.52752 0.79222
 C321 C 0.85901 0.52827 0.76605
 C322 C 0.88057 0.50082 0.76056
 C323 C 0.87844 0.47249 0.78115
 C324 C 0.85555 0.47257 0.80883
 H325 H 0.72673 0.49347 0.90528
 H326 H 0.80290 0.44356 0.84425
 H327 H 0.79655 0.55149 0.84488
 H328 H 0.81638 0.54828 0.79420
 H329 H 0.89908 0.50149 0.73975
 H330 H 0.85555 0.45101 0.82524
 C331 C 0.23077 0.49904 0.09812
 C332 C 0.21411 0.46867 0.10504
 C333 C 0.18578 0.46815 0.12768
 C334 C 0.17584 0.49693 0.14591
 C335 C 0.19408 0.52695 0.13905
 C336 C 0.22113 0.52818 0.11506
 C337 C 0.14757 0.49529 0.17258
 C338 C 0.13044 0.52449 0.18425
 C339 C 0.10599 0.52296 0.21072
 C340 C 0.09613 0.49178 0.22365
 C341 C 0.11223 0.46244 0.21253
 C342 C 0.13813 0.46440 0.18751
 H343 H 0.25065 0.50032 0.07863
 H344 H 0.17190 0.44491 0.13091
 H345 H 0.18828 0.54948 0.15268
 H346 H 0.13605 0.54865 0.17339
 H347 H 0.07511 0.49044 0.24202
 H348 H 0.15115 0.44150 0.18060
 C349 C 0.75591 0.50472 0.10119
 C350 C 0.77730 0.53232 0.10727
 C351 C 0.80380 0.52957 0.13139
 C352 C 0.80687 0.50075 0.15204
 C353 C 0.78436 0.47353 0.14547
 C354 C 0.75951 0.47541 0.11980
 C355 C 0.83100 0.50020 0.18189
 C356 C 0.84034 0.46980 0.19800
 C357 C 0.85856 0.46989 0.22845
 C358 C 0.86967 0.49995 0.24192
 C359 C 0.86251 0.53032 0.22587
 C360 C 0.84299 0.53036 0.19621
 H361 H 0.73629 0.50579 0.08167
 H362 H 0.82105 0.55061 0.13439
 H363 H 0.78444 0.45137 0.16101
 H364 H 0.83282 0.44601 0.18787
 H365 H 0.88486 0.49940 0.26481
 H366 H 0.83631 0.55431 0.18551
 C367 C 0.25419 0.50499 0.88829
 C368 C 0.23355 0.53391 0.88709
 C369 C 0.20161 0.53330 0.86979
 C370 C 0.19150 0.50480 0.85146
 C371 C 0.21319 0.47615 0.85302
 C372 C 0.24396 0.47613 0.87188
 C373 C 0.15991 0.50545 0.82917
 C374 C 0.14365 0.47544 0.81923
 C375 C 0.11782 0.47561 0.79449
 C376 C 0.10544 0.50603 0.78198
 C377 C 0.12034 0.53625 0.79182
 C378 C 0.14753 0.53587 0.81529
 H379 H 0.27798 0.50441 0.90302
 H380 H 0.18524 0.55534 0.87030
 H381 H 0.20736 0.45409 0.83877
 H382 H 0.15165 0.45164 0.82956
 H383 H 0.08407 0.50598 0.76420
 H384 H 0.15983 0.55930 0.82125
 C385 C 0.30252 0.40126 0.04666
 C386 C 0.27025 0.40249 0.06008
 C387 C 0.25893 0.43248 0.07847
 C388 C 0.22561 0.43743 0.08832
 H389 H 0.25183 0.38242 0.05600
 H390 H 0.27853 0.45124 0.08354
 H391 H 0.31999 0.42228 0.04980
 H392 H 0.20651 0.41784 0.08474
 C393 C 0.70001 0.60739 0.04612
 C394 C 0.73185 0.60377 0.05956
 C395 C 0.73906 0.57376 0.07996
 C396 C 0.77137 0.56432 0.08912
 H397 H 0.75250 0.62158 0.05419
 H398 H 0.71684 0.55838 0.08702
 H399 H 0.68044 0.58826 0.05059
 H400 H 0.79351 0.58045 0.08386
 C401 C 0.68164 0.39684 0.94041
 C402 C 0.71174 0.39692 0.92292
 C403 C 0.72076 0.42641 0.90235
 C404 C 0.75331 0.43194 0.89070
 H405 H 0.73060 0.37688 0.92594
 H406 H 0.70056 0.44506 0.89857
 H407 H 0.66391 0.41792 0.93810
 H408 H 0.77299 0.41253 0.89304
 C409 C 0.32722 0.59608 0.93754
 C410 C 0.29300 0.59664 0.93035
 C411 C 0.27927 0.57168 0.90701
 C412 C 0.24513 0.56427 0.90485
 H413 H 0.27517 0.61305 0.94367
 H414 H 0.29819 0.55700 0.89299
 H415 H 0.34416 0.57816 0.92512
 H416 H 0.22572 0.57967 0.91734
 C417 C 0.04375 0.29864 0.39960
 C418 C 0.05720 0.26785 0.40117
 C419 C 0.07596 0.25703 0.43161
 C420 C 0.08444 0.22510 0.43751
 H421 H 0.05274 0.25034 0.38108
 H422 H 0.08232 0.27587 0.44989
 H423 H 0.04701 0.31520 0.42072
 H424 H 0.07949 0.20670 0.41835
 C425 C 0.06149 0.67788 0.58965
 C426 C 0.07887 0.70676 0.59045
 C427 C 0.09730 0.71904 0.56027
 C428 C 0.10904 0.75040 0.55815
 H429 H 0.07676 0.72273 0.61219
 H430 H 0.09894 0.70282 0.53871
 H431 H 0.06306 0.66255 0.56739
 H432 H 0.10872 0.76579 0.58039
 C433 C 0.93029 0.68775 0.41945
 C434 C 0.92395 0.72034 0.41576
 C435 C 0.90920 0.73902 0.44432
 C436 C 0.90509 0.77213 0.44363
 H437 H 0.93251 0.73353 0.39333
 H438 H 0.90354 0.72545 0.46735
 H439 H 0.92221 0.67537 0.44253
 H440 H 0.90875 0.78575 0.42028
 C441 C 0.93802 0.32030 0.59397
 C442 C 0.93144 0.28761 0.59507
 C443 C 0.90739 0.27378 0.57009
 C444 C 0.90635 0.24137 0.56250
 H445 H 0.94570 0.27126 0.61195
 H446 H 0.89187 0.29126 0.55550
 H447 H 0.92476 0.33574 0.57550
 H448 H 0.92028 0.22330 0.57778
 C449 C 0.41304 0.07030 0.31104
 C450 C 0.40995 0.07517 0.27796
 C451 C 0.43634 0.09593 0.26066
 C452 C 0.44058 0.09644 0.22729
 H453 H 0.39080 0.06144 0.26366
 H454 H 0.45513 0.10904 0.27602
 H455 H 0.43360 0.08317 0.32441
 H456 H 0.42135 0.08495 0.21122
 C457 C 0.58475 0.06792 0.69521
 C458 C 0.58722 0.07188 0.72840
 C459 C 0.55909 0.09030 0.74583
 C460 C 0.55508 0.09033 0.77923
 H461 H 0.60741 0.05910 0.74260
 H462 H 0.53914 0.10218 0.73053
 H463 H 0.56326 0.07981 0.68196
 H464 H 0.57536 0.08018 0.79527
 C465 C 0.40163 0.93127 0.70213
 C466 C 0.40058 0.92801 0.73556
 C467 C 0.42914 0.90932 0.75200
 C468 C 0.43542 0.91048 0.78498
 H469 H 0.38153 0.94167 0.75039
 H470 H 0.44781 0.89643 0.73598
 H471 H 0.42223 0.91866 0.68819
 H472 H 0.41655 0.92173 0.80193
 C473 C 0.60435 0.94279 0.29850
 C474 C 0.60586 0.94081 0.26505
 C475 C 0.57902 0.92069 0.24828
 C476 C 0.57254 0.92219 0.21536
 H477 H 0.62379 0.95622 0.25056
 H478 H 0.56138 0.90619 0.26413
 H479 H 0.58482 0.92827 0.31206
 H480 H 0.59016 0.93512 0.19828
 C481 C 0.37072 0.26268 0.92348
 C482 C 0.37896 0.23235 0.93506
 C483 C 0.40384 0.21155 0.91603
 C484 C 0.42864 0.19418 0.93205
 H485 H 0.37216 0.22536 0.96063
 H486 H 0.40593 0.21514 0.88908
 H487 H 0.38095 0.27082 0.89932
 H488 H 0.42879 0.19374 0.95926
 C489 C 0.63636 0.74803 0.92207
 C490 C 0.62426 0.77650 0.93498
 C491 C 0.59775 0.79611 0.91655
 C492 C 0.57174 0.81127 0.93321
 H493 H 0.62910 0.78209 0.96113
 H494 H 0.59591 0.79331 0.88956
 H495 H 0.62822 0.74080 0.89716
 H496 H 0.57181 0.81090 0.96043
 C497 C 0.41914 0.69676 0.08030
 C498 C 0.41572 0.72979 0.08324
 C499 C 0.44357 0.74853 0.10006
 C500 C 0.44588 0.78178 0.09856
 H501 H 0.39528 0.74309 0.06985
 H502 H 0.46484 0.73448 0.11140
 H503 H 0.44086 0.68422 0.09257
 H504 H 0.42444 0.79664 0.08878
 C505 C 0.62493 0.26438 0.07644
 C506 C 0.61384 0.23496 0.06530
 C507 C 0.58839 0.21557 0.08528
 C508 C 0.56158 0.20064 0.07012
 H509 H 0.61849 0.22823 0.03932
 H510 H 0.58804 0.21828 0.11234
 H511 H 0.61681 0.27271 0.10113
 H512 H 0.56009 0.20128 0.04296
 C513 C 0.29709 0.06086 0.59239
 C514 C 0.26263 0.06709 0.59343
 C515 C 0.24717 0.08621 0.56550
 C516 C 0.21262 0.08978 0.56087
 H517 H 0.24603 0.05600 0.61265
 H518 H 0.26495 0.09611 0.54652
 H519 H 0.31270 0.07131 0.57202
 H520 H 0.19408 0.08190 0.58005
 C521 C 0.69900 0.06918 0.41355
 C522 C 0.73201 0.08014 0.41057
 C523 C 0.74720 0.09781 0.43919
 C524 C 0.78155 0.10337 0.44256
 H525 H 0.74816 0.07389 0.38901
 H526 H 0.72958 0.10490 0.45944
 H527 H 0.68439 0.07488 0.43630
 H528 H 0.79961 0.09825 0.42211
 C529 C 0.69027 0.94054 0.58423
 C530 C 0.72387 0.93178 0.58797
 C531 C 0.74215 0.91530 0.55993
 C532 C 0.77655 0.90870 0.56026
 H533 H 0.73838 0.93931 0.60992
 H534 H 0.72740 0.91046 0.53732
 H535 H 0.67661 0.93321 0.56168
 H536 H 0.79131 0.91160 0.58318
 C537 C 0.31925 0.93075 0.41802
 C538 C 0.28736 0.91812 0.41283
 C539 C 0.27069 0.89837 0.43981
 C540 C 0.23722 0.88858 0.43875
 H541 H 0.27267 0.92477 0.39057
 H542 H 0.28549 0.89410 0.46261
 H543 H 0.33308 0.92409 0.44082
 H544 H 0.22251 0.89096 0.41568
 C545 C 0.08032 0.41701 0.69599
 C546 C 0.08497 0.41444 0.72914
 C547 C 0.10331 0.44161 0.74631
 C548 C 0.10504 0.44423 0.77971
 H549 H 0.07240 0.39476 0.74357
 H550 H 0.11365 0.46182 0.73094
 H551 H 0.09200 0.43783 0.68248
 H552 H 0.09665 0.42394 0.79594
 C553 C 0.05693 0.57960 0.30728
 C554 C 0.06458 0.58278 0.27458
 C555 C 0.08464 0.55571 0.25834
 C556 C 0.09045 0.55373 0.22520
 H557 H 0.05431 0.60341 0.25991
 H558 H 0.09370 0.53544 0.27427
 H559 H 0.06685 0.55802 0.32083
 H560 H 0.08364 0.57438 0.20881
 C561 C 0.92135 0.36720 0.25601
 C562 C 0.89660 0.38976 0.26325
 C563 C 0.88224 0.41306 0.23798
 C564 C 0.86436 0.43961 0.24880
 H565 H 0.88966 0.39388 0.28935
 H566 H 0.89005 0.41116 0.21186
 H567 H 0.92834 0.36223 0.23012
 H568 H 0.85908 0.44191 0.27548
 C569 C 0.92320 0.62446 0.72753
 C570 C 0.89889 0.60132 0.72166
 C571 C 0.88211 0.58246 0.74928
 C572 C 0.86184 0.55636 0.74234
 H573 H 0.89437 0.59334 0.69611
 H574 H 0.89079 0.58636 0.77480
 H575 H 0.92735 0.63314 0.75287
 H576 H 0.85508 0.55144 0.71647
 C577 C 0.73607 0.63679 0.92090
 C578 C 0.72562 0.61027 0.90336
 C579 C 0.75012 0.58526 0.88973
 C580 C 0.73775 0.55458 0.88449
 H581 H 0.69789 0.60432 0.90240
 H582 H 0.77781 0.59073 0.88709
 H583 H 0.76369 0.64303 0.92182
 H584 H 0.71025 0.54976 0.88984
 C585 C 0.27014 0.36888 0.92157
 C586 C 0.28002 0.39346 0.90060
 C587 C 0.25476 0.41729 0.88620
 C588 C 0.26669 0.44662 0.87491
 H589 H 0.30769 0.39915 0.89755
 H590 H 0.22683 0.41329 0.88959
 H591 H 0.24262 0.36249 0.92397
 H592 H 0.29477 0.45099 0.87425
 C593 C 0.32314 0.58684 0.07257
 C594 C 0.28988 0.59005 0.08306
 C595 C 0.27288 0.56110 0.09929
 C596 C 0.23861 0.56017 0.10664
 H597 H 0.27462 0.61210 0.07697
 H598 H 0.28845 0.53870 0.10292
 H599 H 0.33721 0.56410 0.07893
 H600 H 0.22289 0.58265 0.10493
 C601 C 0.72538 0.37128 0.06703
 C602 C 0.71718 0.39725 0.08662
 C603 C 0.74404 0.41882 0.10157
 C604 C 0.73434 0.44847 0.11362
 H605 H 0.68998 0.40491 0.08923
 H606 H 0.77161 0.41247 0.09925
 H607 H 0.75252 0.36338 0.06475
 H608 H 0.70681 0.45539 0.11337
 C609 C 0.92873 0.70550 0.60633
 C610 C 0.92958 0.73880 0.60431
 C611 C 0.91255 0.75496 0.57533
 C612 C 0.91674 0.78712 0.56731
 H613 H 0.94563 0.75329 0.62112
 H614 H 0.89800 0.73930 0.55828
 H615 H 0.91326 0.69205 0.58812
 H616 H 0.92957 0.80396 0.58440
 C617 C 0.91534 0.26812 0.36410
 C618 C 0.89414 0.27652 0.38969
 C619 C 0.88120 0.25174 0.41423
 C620 C 0.87173 0.26224 0.44475
 H621 H 0.89059 0.30262 0.39586
 H622 H 0.88458 0.22536 0.40945
 H623 H 0.91839 0.24211 0.35747
 H624 H 0.87129 0.28880 0.44965
 C625 C 0.07730 0.32136 0.58777
 C626 C 0.08643 0.28928 0.59090
 C627 C 0.10128 0.27209 0.56147
 C628 C 0.10586 0.23909 0.56081
 H629 H 0.07927 0.27502 0.61312
 H630 H 0.10579 0.28649 0.53870
 H631 H 0.08433 0.33452 0.56479
 H632 H 0.10315 0.22456 0.58372
 C633 C 0.06742 0.67907 0.40671
 C634 C 0.07723 0.71087 0.40233
 C635 C 0.09925 0.72603 0.42832
 C636 C 0.10122 0.75895 0.43322
 H637 H 0.06608 0.72619 0.38256
 H638 H 0.11131 0.70943 0.44655
 H639 H 0.07782 0.66531 0.42803
 H640 H 0.09074 0.77627 0.41484
 C641 C 0.58774 0.93291 0.68956
 C642 C 0.59312 0.92417 0.72155
 C643 C 0.56554 0.90551 0.73960
 C644 C 0.56532 0.90201 0.77300
 H645 H 0.61528 0.93398 0.73516
 H646 H 0.54286 0.89751 0.72552
 H647 H 0.56465 0.92373 0.67688
 H648 H 0.58837 0.90840 0.78731
 C649 C 0.42191 0.93556 0.31390
 C650 C 0.41657 0.92669 0.28211
 C651 C 0.44540 0.91051 0.26361
 C652 C 0.44457 0.90571 0.23049
 H653 H 0.39308 0.93449 0.26901
 H654 H 0.46951 0.90525 0.27700
 H655 H 0.44612 0.92820 0.32608
 H656 H 0.42037 0.90920 0.21678
 C657 C 0.59783 0.07899 0.31116
 C658 C 0.60171 0.08921 0.27937
 C659 C 0.57271 0.10778 0.26362
 C660 C 0.57016 0.11155 0.23037
 H661 H 0.62357 0.08050 0.26424
 H662 H 0.55069 0.11503 0.27937
 H663 H 0.57486 0.08693 0.32525
 H664 H 0.59238 0.10584 0.21428
 C665 C 0.39851 0.06736 0.69496
 C666 C 0.39447 0.07558 0.72719
 C667 C 0.42242 0.09499 0.74324
 C668 C 0.42474 0.09835 0.77651
 H669 H 0.37344 0.06492 0.74221
 H670 H 0.44400 0.10365 0.72758
 H671 H 0.42065 0.07742 0.68097
 H672 H 0.40291 0.09133 0.79261
 C673 C 0.60624 0.71267 0.05139
 C674 C 0.60983 0.74125 0.06796
 C675 C 0.58009 0.75327 0.08829
 C676 C 0.57653 0.78521 0.09705
 H677 H 0.63275 0.75677 0.06408
 H678 H 0.55900 0.73593 0.09368
 H679 H 0.58216 0.69855 0.05434
 H680 H 0.59814 0.80234 0.09315
 C681 C 0.40536 0.29521 0.04808
 C682 C 0.40270 0.26544 0.06311
 C683 C 0.43431 0.25000 0.07762
 C684 C 0.43443 0.21902 0.09023
 H685 H 0.37851 0.25137 0.06191
 H686 H 0.45873 0.26376 0.07623
 H687 H 0.43019 0.30833 0.04876
 H688 H 0.40995 0.20568 0.09353
 C689 C 0.58321 0.29059 0.95364
 C690 C 0.58637 0.26102 0.93866
 C691 C 0.55483 0.24468 0.92547
 C692 C 0.55557 0.21387 0.91287
 H693 H 0.61129 0.24793 0.93849
 H694 H 0.53000 0.25776 0.92749
 H695 H 0.55779 0.30279 0.95427
 H696 H 0.58051 0.20139 0.90897
 C697 C 0.42723 0.70110 0.94860
 C698 C 0.42096 0.73322 0.94192
 C699 C 0.44936 0.75347 0.92709
 C700 C 0.44578 0.78583 0.91975
 H701 H 0.39670 0.74495 0.94995
 H702 H 0.47484 0.74181 0.92354
 H703 H 0.45201 0.69027 0.94064
 H704 H 0.42023 0.79767 0.92109
 C705 C 0.70584 0.93797 0.40168
 C706 C 0.74084 0.93593 0.40236
 C707 C 0.75719 0.91665 0.42970
 C708 C 0.79149 0.91763 0.43639
 H709 H 0.75683 0.95127 0.38583
 H710 H 0.73998 0.90349 0.44710
 H711 H 0.69058 0.92351 0.41966
 H712 H 0.80981 0.92920 0.41900
 C713 C 0.30117 0.92527 0.59807
 C714 C 0.26658 0.91993 0.59687
 C715 C 0.25301 0.89958 0.56919
 C716 C 0.21890 0.89657 0.56211
 H717 H 0.24872 0.93306 0.61344
 H718 H 0.27201 0.88868 0.55204
 H719 H 0.31810 0.91284 0.58006
 H720 H 0.19900 0.90559 0.57934
 C721 C 0.31147 0.06667 0.41561
 C722 C 0.27807 0.07558 0.41073
 C723 C 0.25975 0.09385 0.43760
 C724 C 0.22536 0.10048 0.43719
 H725 H 0.26378 0.06689 0.38910
 H726 H 0.27443 0.09956 0.46007
 H727 H 0.32481 0.07534 0.43785
 H728 H 0.21026 0.09674 0.41461
 C729 C 0.68750 0.07458 0.59063
 C730 C 0.72098 0.08356 0.59447
 C731 C 0.73816 0.10271 0.56730
 C732 C 0.77247 0.10964 0.56681
 H733 H 0.73625 0.07407 0.61532
 H734 H 0.72269 0.10890 0.54534
 H735 H 0.67318 0.08392 0.56906
 H736 H 0.78833 0.10539 0.58889
 C737 C 0.91304 0.58870 0.31877
 C738 C 0.90381 0.59154 0.28657
 C739 C 0.88044 0.56612 0.27245
 C740 C 0.87689 0.56176 0.23940
 H741 H 0.91632 0.60976 0.27025
 H742 H 0.86866 0.54822 0.28962
 H743 H 0.90130 0.56919 0.33410
 H744 H 0.88705 0.58024 0.22193
 C745 C 0.93550 0.41260 0.69397
 C746 C 0.92808 0.41048 0.72674
 C747 C 0.90143 0.43353 0.74010
 C748 C 0.89935 0.44262 0.77227
 H749 H 0.94321 0.39453 0.74330
 H750 H 0.88491 0.44636 0.72203
 H751 H 0.92128 0.43049 0.67862
 H752 H 0.91421 0.42961 0.79140
 C753 C 0.06118 0.59205 0.70125
 C754 C 0.07705 0.59704 0.73057
 C755 C 0.09779 0.56944 0.74489
 C756 C 0.10750 0.56802 0.77706
 H757 H 0.07240 0.61958 0.74474
 H758 H 0.10281 0.54806 0.72906
 H759 H 0.06521 0.56854 0.68849
 H760 H 0.10446 0.58959 0.79300
 C761 C 0.05233 0.39696 0.29781
 C762 C 0.07002 0.39583 0.26877
 C763 C 0.08901 0.42581 0.25731
 C764 C 0.10080 0.42952 0.22581
 H765 H 0.06766 0.37453 0.25239
 H766 H 0.09097 0.44649 0.27453
 H767 H 0.05393 0.41922 0.31300
 H768 H 0.10055 0.40848 0.20892
   
