data_POSCAR
  _audit_creation_date              2014-09-24
  _audit_creation_method            'ToBaCCo'
  _symmetry_space_group_name_H-M    'P1'
  _symmetry_Int_Tables_number       1
  _symmetry_cell_setting            triclinic
  loop_
  _symmetry_equiv_pos_as_xyz
 x,y,z
_cell_length_a 31.2593
_cell_length_b 31.2656
_cell_length_c 31.2638
_cell_angle_alpha 90.091100
_cell_angle_beta 89.906700
_cell_angle_gamma 90.105900
loop_
  _atom_site_label
  _atom_site_type_symbol
  _atom_site_fract_x
  _atom_site_fract_y
  _atom_site_fract_z
N1 N 0.20567 1.20748 0.20467
 N2 N 0.79618 0.79423 0.20570
 N3 N 0.79533 1.20141 -0.20182
 N4 N 0.20472 0.79562 -0.20681
 C5 C 0.56507 1.05730 -0.01114
 H6 H 0.56561 1.05760 0.02346
 C7 C 0.59486 1.08139 -0.03412
 H8 H 0.61837 1.10048 -0.01722
 C9 C 0.53491 1.03071 -0.07553
 H10 H 0.51220 1.01013 -0.09151
 C11 C 0.56420 1.05432 -0.09975
 H12 H 0.56372 1.05215 -0.13433
 N13 N 0.53586 1.03266 -0.03202
 C14 C 0.43460 1.01059 0.06144
 H15 H 0.43407 0.97599 0.06146
 C16 C 0.40494 1.03334 0.08588
 H17 H 0.38154 1.01626 0.10495
 C18 C 0.46470 1.07520 0.03531
 H19 H 0.48737 1.09136 0.01480
 C20 C 0.43553 1.09921 0.05927
 H21 H 0.43605 1.13380 0.05745
 Zn22 Zn 0.49979 0.99788 0.00196
 N23 N 0.46374 1.03169 0.03688
 C24 C 0.53510 0.96519 0.07923
 N25 N 0.53594 0.96322 0.03573
 C26 C 0.56509 0.93867 0.01469
 C27 C 0.59496 0.91471 0.03751
 C28 C 0.56447 0.94170 0.10329
 C29 C 0.43445 0.98495 -0.05715
 C30 C 0.40472 0.96211 -0.08142
 C31 C 0.43532 0.89634 -0.05498
 C32 C 0.46457 0.92043 -0.03118
 N33 N 0.46363 0.96394 -0.03276
 H34 H 0.51244 0.98570 0.09533
 H35 H 0.56554 0.93836 -0.01991
 H36 H 0.61842 0.89570 0.02048
 H37 H 0.56408 0.94390 0.13788
 H38 H 0.43395 1.01955 -0.05718
 H39 H 0.38129 0.97912 -0.10036
 H40 H 0.43583 0.86175 -0.05315
 H41 H 0.48727 0.90435 -0.01080
 C42 C 0.40528 1.07803 0.08461
 C43 C 0.59457 1.07969 -0.07881
 C44 C 0.40503 0.91742 -0.08015
 C45 C 0.59479 0.91644 0.08219
 C46 C -0.01244 0.56526 1.05668
 H47 H 0.02215 0.56615 1.05602
 C48 C -0.03504 0.59500 1.08117
 H49 H -0.01785 0.61883 1.09959
 C50 C -0.07724 0.53421 1.03215
 H51 H -0.09357 0.51118 1.01220
 C52 C -0.10109 0.56343 1.05618
 H53 H -0.13572 0.56257 1.05498
 N54 N -0.03371 0.53563 1.03287
 C55 C 0.05974 0.43500 1.00916
 H56 H 0.05896 0.43418 0.97457
 C57 C 0.08476 0.40567 1.03151
 H58 H 0.10348 0.38223 1.01413
 C59 C 0.03499 0.46545 1.07419
 H60 H 0.01477 0.48810 1.09068
 C61 C 0.05956 0.43661 1.09780
 H62 H 0.05849 0.43738 1.13243
 Zn63 Zn -0.00038 0.49957 0.99748
 N64 N 0.03557 0.46413 1.03065
 C65 C 0.07586 0.53523 0.96228
 N66 N 0.03231 0.53568 0.96155
 C67 C 0.01051 0.56442 0.93733
 C68 C 0.03256 0.59425 0.91246
 C69 C 0.09917 0.56457 0.93785
 C70 C -0.05935 0.43357 0.98692
 C71 C -0.08403 0.40340 0.96510
 C72 C -0.05959 0.43364 0.89826
 C73 C -0.03533 0.46333 0.92135
 N74 N -0.03573 0.46278 0.96490
 H75 H 0.09260 0.51289 0.98253
 H76 H -0.02410 0.56456 0.93800
 H77 H 0.01493 0.61739 0.89373
 H78 H 0.13381 0.56450 0.93907
 H79 H -0.05844 0.43339 1.02151
 H80 H -0.10236 0.37995 0.98290
 H81 H -0.05871 0.43383 0.86362
 H82 H -0.01555 0.48608 0.90445
 C83 C 0.08448 0.40633 1.07622
 C84 C -0.07976 0.59422 1.08072
 C85 C -0.08398 0.40330 0.92039
 C86 C 0.07728 0.59448 0.91293
 C87 C 1.05961 -0.00856 0.56509
 H88 H 1.05892 0.02603 0.56574
 C89 C 1.08441 -0.03083 0.59468
 H90 H 1.10304 -0.01339 0.61815
 C91 C 1.03488 -0.07367 0.53480
 H92 H 1.01475 -0.09024 0.51211
 C93 C 1.05923 -0.09720 0.56388
 H94 H 1.05808 -0.13183 0.56326
 N95 N 1.03557 -0.03013 0.53590
 C96 C 1.01115 0.06253 0.43485
 H97 H 0.97655 0.06170 0.43442
 C98 C 1.03332 0.08741 0.40513
 H99 H 1.01579 0.10597 0.38177
 C100 C 1.07637 0.03808 0.46475
 H101 H 1.09301 0.01803 0.48735
 C102 C 1.09981 0.06252 0.43551
 H103 H 1.13445 0.06152 0.43591
 Zn104 Zn 0.99990 0.00284 0.50000
 N105 N 1.03283 0.03858 0.46391
 C106 C 0.96525 0.07926 0.53557
 N107 N 0.96434 0.03573 0.53630
 C108 C 0.94034 0.01411 0.56551
 C109 C 0.91591 0.03635 0.59558
 C110 C 0.94127 0.10275 0.56515
 C111 C 0.98867 -0.05664 0.43458
 C112 C 0.96655 -0.08160 0.40488
 C113 C 0.90001 -0.05707 0.43574
 C114 C 0.92339 -0.03254 0.46495
 N115 N 0.96694 -0.03284 0.46387
 H116 H 0.98534 0.09585 0.51286
 H117 H 0.94088 -0.02049 0.56586
 H118 H 0.89739 0.01887 0.61912
 H119 H 0.94267 0.13738 0.56488
 H120 H 1.02326 -0.05565 0.43397
 H121 H 0.98412 -0.10007 0.38136
 H122 H 0.86536 -0.05627 0.43635
 H123 H 0.90672 -0.01262 0.48775
 C124 C 1.07804 0.08722 0.40532
 C125 C 1.08402 -0.07554 0.59421
 C126 C 0.92183 -0.08165 0.40533
 C127 C 0.91661 0.08106 0.59556
 C128 C 0.14894 0.31297 1.14037
 C129 C 0.15261 0.31334 1.18500
 C130 C 0.17196 0.27905 1.20610
 C131 C 0.18780 0.24397 1.18278
 C132 C 0.18447 0.24417 1.13792
 C133 C 0.16517 0.27846 1.11689
 C134 C 0.12702 0.34698 1.11860
 C135 C 0.10797 0.37456 1.09965
 H136 H 0.14004 0.33984 1.20349
 H137 H 0.17430 0.27959 1.24064
 H138 H 0.19592 0.21732 1.11928
 H139 H 0.16228 0.27773 1.08237
 C140 C -0.14518 0.68837 1.14325
 C141 C -0.14904 0.68884 1.18787
 C142 C -0.16898 0.72326 1.20838
 C143 C -0.18522 0.75763 1.18445
 C144 C -0.18166 0.75660 1.13962
 C145 C -0.16178 0.72218 1.11918
 C146 C -0.12282 0.65416 1.12205
 C147 C -0.10349 0.62636 1.10359
 H148 H -0.13621 0.66288 1.20681
 H149 H -0.17148 0.72336 1.24292
 H150 H -0.19343 0.78291 1.12052
 H151 H -0.15876 0.72226 1.08465
 C152 C -0.14815 0.30791 0.85831
 C153 C -0.14893 0.30521 0.81368
 C154 C -0.16830 0.27020 0.79359
 C155 C -0.18723 0.23702 0.81786
 C156 C -0.18669 0.24078 0.86294
 C157 C -0.16732 0.27581 0.88283
 C158 C -0.12623 0.34261 0.87922
 C159 C -0.10727 0.37079 0.89755
 H160 H -0.13421 0.32996 0.79438
 H161 H -0.16873 0.26913 0.75897
 H162 H -0.19982 0.21574 0.88296
 H163 H -0.16660 0.27744 0.91745
 C164 C 0.14082 0.68919 0.84925
 C165 C 0.11721 0.72365 0.83336
 C166 C 0.13811 0.75827 0.81432
 C167 C 0.18298 0.75886 0.81092
 C168 C 0.20644 0.72386 0.82645
 C169 C 0.18546 0.68923 0.84554
 C170 C 0.11917 0.65477 0.87086
 C171 C 0.10040 0.62680 0.88966
 H172 H 0.08267 0.72406 0.83629
 H173 H 0.11936 0.78506 0.80309
 H174 H 0.24100 0.72360 0.82405
 H175 H 0.20406 0.66277 0.85785
 C176 C 1.14176 0.15130 0.31101
 C177 C 1.18641 0.15495 0.31097
 C178 C 1.20739 0.17414 0.27639
 C179 C 1.18392 0.18982 0.24145
 C180 C 1.13905 0.18651 0.24207
 C181 C 1.11814 0.16738 0.27664
 C182 C 1.12011 0.12952 0.34532
 C183 C 1.10129 0.11059 0.37318
 H184 H 1.20501 0.14249 0.33736
 H185 H 1.24195 0.17645 0.27660
 H186 H 1.12029 0.19786 0.21533
 H187 H 1.08360 0.16450 0.27624
 C188 C 1.14795 -0.13979 0.68789
 C189 C 1.16426 -0.11641 0.72244
 C190 C 1.18352 -0.13754 0.75668
 C191 C 1.18672 -0.18240 0.75682
 C192 C 1.17076 -0.20563 0.72173
 C193 C 1.15145 -0.18443 0.68748
 C194 C 1.12620 -0.11790 0.65384
 C195 C 1.10732 -0.09892 0.62617
 H196 H 1.16151 -0.08187 0.72320
 H197 H 1.19509 -0.11897 0.78355
 H198 H 1.17300 -0.24018 0.72113
 H199 H 1.13882 -0.20284 0.66095
 C200 C 0.85879 -0.14685 0.31134
 C201 C 0.88278 -0.16311 0.27718
 C202 C 0.86230 -0.18303 0.24282
 C203 C 0.81749 -0.18699 0.24219
 C204 C 0.79363 -0.17104 0.27688
 C205 C 0.81419 -0.15105 0.31125
 C206 C 0.88006 -0.12454 0.34555
 C207 C 0.89867 -0.10528 0.37331
 H208 H 0.91729 -0.15982 0.27682
 H209 H 0.88135 -0.19457 0.21626
 H210 H 0.75911 -0.17385 0.27709
 H211 H 0.79530 -0.13849 0.33749
 C212 C 0.85504 0.14523 0.69128
 C213 C 0.87968 0.16459 0.72317
 C214 C 0.85992 0.18387 0.75833
 C215 C 0.81486 0.18412 0.76242
 C216 C 0.79046 0.16501 0.72943
 C217 C 0.81041 0.14574 0.69430
 C218 C 0.87581 0.12334 0.65647
 C219 C 0.89398 0.10438 0.62820
 H220 H 0.91429 0.16407 0.72130
 H221 H 0.88005 0.19713 0.78320
 H222 H 0.75585 0.16523 0.73074
 H223 H 0.79102 0.13088 0.66971
 C224 C 0.31134 1.14291 0.14802
 C225 C 0.27686 1.11951 0.16449
 C226 C 0.24250 1.14064 0.18371
 C227 C 0.24218 1.18553 0.18671
 C228 C 0.27719 1.20878 0.17058
 C229 C 0.31157 1.18758 0.15131
 C230 C 0.34553 1.12096 0.12636
 C231 C 0.37328 1.10180 0.10763
 H232 H 0.27625 1.08495 0.16190
 H233 H 0.21568 1.12205 0.19540
 H234 H 0.27764 1.24335 0.17266
 H235 H 0.33805 1.20600 0.13856
 C236 C 0.68917 1.14119 -0.14473
 C237 C 0.72103 1.11670 -0.16433
 C238 C 0.75591 1.13662 -0.18397
 C239 C 0.75975 1.18170 -0.18433
 C240 C 0.72675 1.20593 -0.16505
 C241 C 0.69191 1.18582 -0.14542
 C242 C 0.65476 1.12030 -0.12232
 C243 C 0.62682 1.10215 -0.10284
 H244 H 0.71938 1.08208 -0.16368
 H245 H 0.78081 1.11662 -0.19738
 H246 H 0.72787 1.24055 -0.16534
 H247 H 0.66734 1.20510 -0.13037
 C248 C 0.31098 0.85223 -0.14315
 C249 C 0.27672 0.83576 -0.11944
 C250 C 0.24219 0.81646 -0.14027
 C251 C 0.24149 0.81340 -0.18514
 C252 C 0.27634 0.82945 -0.20870
 C253 C 0.31088 0.84880 -0.18781
 C254 C 0.34519 0.87430 -0.12161
 C255 C 0.37297 0.89355 -0.10301
 H256 H 0.27636 0.83848 -0.08489
 H257 H 0.21552 0.80483 -0.12144
 H258 H 0.27651 0.82732 -0.24327
 H259 H 0.33717 0.86156 -0.20648
 C260 C 0.68950 0.85540 0.14774
 C261 C 0.72338 0.87986 0.16390
 C262 C 0.75805 0.85986 0.18360
 C263 C 0.75928 0.81507 0.18741
 C264 C 0.72483 0.79076 0.17165
 C265 C 0.69015 0.81083 0.15189
 C266 C 0.65508 0.87612 0.12542
 C267 C 0.62710 0.89414 0.10606
 H268 H 0.72332 0.91436 0.16064
 H269 H 0.78441 0.87925 0.19500
 H270 H 0.72508 0.75624 0.17436
 H271 H 0.66415 0.79158 0.13939
   
