data_POSCAR
  _audit_creation_date              2014-09-24
  _audit_creation_method            'ToBaCCo'
  _symmetry_space_group_name_H-M    'P1'
  _symmetry_Int_Tables_number       1
  _symmetry_cell_setting            triclinic
  loop_
  _symmetry_equiv_pos_as_xyz
 x,y,z
_cell_length_a 37.8037
_cell_length_b 37.4169
_cell_length_c 37.6652
_cell_angle_alpha 91.187300
_cell_angle_beta 91.052100
_cell_angle_gamma 89.146000
loop_
  _atom_site_label
  _atom_site_type_symbol
  _atom_site_fract_x
  _atom_site_fract_y
  _atom_site_fract_z
C1 C 0.18992 0.18995 0.23506
 N2 N 0.16818 0.20619 0.21084
 C3 C 0.18040 0.21344 0.17790
 N4 N 0.21395 0.20344 0.16898
 C5 C 0.23592 0.18771 0.19307
 N6 N 0.22366 0.18173 0.22593
 C7 C -0.13079 0.87758 0.18061
 N8 N -0.16582 0.87959 0.17105
 C9 C -0.17893 0.85723 0.14494
 N10 N -0.15703 0.83224 0.12995
 C11 C -0.12240 0.83006 0.13919
 N12 N -0.10952 0.85312 0.16405
 C13 C -0.17097 0.16795 -0.20132
 N14 N -0.19976 0.14769 -0.19583
 C15 C -0.22123 0.15458 -0.16785
 N16 N -0.21343 0.18227 -0.14512
 C17 C -0.18464 0.20278 -0.15020
 N18 N -0.16365 0.19544 -0.17840
 C19 C 0.15659 0.83948 -0.20293
 N20 N 0.13813 0.80917 -0.19785
 C21 C 0.14635 0.78740 -0.17039
 N22 N 0.17342 0.79618 -0.14781
 C23 C 0.19237 0.82627 -0.15249
 N24 N 0.18372 0.84768 -0.18014
 C25 C 0.12790 1.12315 0.81473
 N26 N 0.16371 1.12147 0.81978
 C27 C 0.17944 1.14249 0.84535
 N28 N 0.15950 1.16609 0.86464
 C29 C 0.12389 1.16780 0.86002
 N30 N 0.10853 1.14574 0.83557
 C31 C 0.81740 0.82670 0.78050
 N32 N 0.79328 0.84531 0.80032
 C33 C 0.78727 0.83539 0.83443
 N34 N 0.80621 0.80766 0.84875
 C35 C 0.83116 0.78999 0.82952
 N36 N 0.83592 0.79953 0.79556
 C37 C 0.16259 0.83141 1.20605
 N38 N 0.15576 0.80365 1.18310
 C39 C 0.17749 0.79599 1.15550
 N40 N 0.20641 0.81640 1.15100
 C41 C 0.21376 0.84416 1.17364
 N42 N 0.19174 0.85146 1.20105
 C43 C 0.84717 1.15105 1.18764
 N44 N 0.82045 1.14286 1.16455
 C45 C 0.81131 1.16494 1.13767
 N46 N 0.82933 1.19579 1.13384
 C47 C 0.85636 1.20444 1.15669
 N48 N 0.86492 1.18187 1.18344
 N49 N 0.52470 1.05404 0.94944
 N50 N 0.55227 1.07239 0.93960
 N51 N 0.44704 1.02929 0.94235
 N52 N 0.41851 1.03471 0.92216
 N53 N 0.45219 1.05677 0.96403
 N54 N 0.42772 1.08163 0.95894
 N55 N 0.51998 1.02613 0.92827
 N56 N 0.54411 1.02492 0.90336
 C57 C 0.56394 1.05410 0.91064
 C58 C 0.40663 1.06744 0.93309
 N59 N 0.45193 0.93231 0.97882
 N60 N 0.42522 0.91042 0.98185
 N61 N 0.52084 0.94957 0.93751
 N62 N 0.54896 0.94683 0.91698
 N63 N 0.52449 0.92801 0.96452
 N64 N 0.55474 0.91030 0.96288
 N65 N 0.44710 0.95293 0.95135
 N66 N 0.41670 0.94574 0.93504
 Mn67 Mn 0.48365 0.98934 0.93934
 C68 C 0.40333 0.91915 0.95448
 C69 C 0.56959 0.92168 0.93298
 N70 N 0.46872 1.06677 1.03914
 N71 N 0.44474 1.09132 1.04826
 N72 N 0.54808 1.04240 1.04956
 N73 N 0.57973 1.04872 1.06363
 N74 N 0.54128 1.06408 1.02326
 N75 N 0.56803 1.08551 1.01855
 N76 N 0.47601 1.04583 1.06593
 N77 N 0.45752 1.05548 1.09384
 Mn78 Mn 0.49651 1.06081 0.99395
 C79 C 0.43801 1.08372 1.08257
 C80 C 0.59183 1.07574 1.04385
 N81 N 0.54076 0.93788 1.03843
 N82 N 0.56644 0.91387 1.04050
 N83 N 0.47494 0.97000 1.07472
 N84 N 0.45127 0.97193 1.10011
 N85 N 0.46843 0.94274 1.05319
 N86 N 0.44045 0.92532 1.06342
 N87 N 0.54775 0.96568 1.05900
 N88 N 0.57858 0.96122 1.07575
 Mn89 Mn 0.49620 0.93495 1.00875
 Mn90 Mn 0.51200 1.00602 1.06271
 Cl91 Cl 0.49703 0.99783 1.00118
 C92 C 0.58995 0.92865 1.06370
 C93 C 0.43014 0.94363 1.09290
 N94 N -0.05217 0.47262 0.05541
 N95 N -0.07237 0.44605 0.06500
 N96 N -0.01581 0.54607 0.06519
 N97 N -0.00942 0.57740 0.08037
 N98 N -0.04565 0.54717 0.04677
 N99 N -0.06040 0.57936 0.04921
 N100 N -0.02213 0.47215 0.07350
 N101 N -0.02130 0.44577 0.09611
 C102 C -0.05285 0.42986 0.09077
 C103 C -0.03754 0.59781 0.07051
 N104 N 0.07452 0.53217 0.01883
 N105 N 0.09715 0.55842 0.01502
 N106 N 0.05165 0.46207 0.05628
 N107 N 0.05606 0.43408 0.07694
 N108 N 0.06961 0.45757 0.02696
 N109 N 0.08637 0.42646 0.02679
 N110 N 0.05721 0.53661 0.04853
 N111 N 0.06742 0.56587 0.06560
 Mn112 Mn 0.01778 0.50413 0.06131
 C113 C 0.09240 0.57922 0.04458
 C114 C 0.07803 0.41217 0.05814
 N115 N -0.06493 0.53889 -0.02780
 N116 N -0.07981 0.57120 -0.02986
 N117 N -0.05343 0.45757 -0.04708
 N118 N -0.06430 0.42811 -0.06335
 N119 N -0.07166 0.46413 -0.01831
 N120 N -0.09538 0.43898 -0.01412
 N121 N -0.04768 0.53110 -0.05698
 N122 N -0.05038 0.55741 -0.07939
 Mn123 Mn -0.05919 0.50591 0.01420
 C124 C -0.07057 0.58218 -0.06257
 C125 C -0.09048 0.41673 -0.04257
 N126 N 0.05041 0.44856 -0.04653
 N127 N 0.06558 0.41648 -0.04774
 N128 N 0.02534 0.52187 -0.07405
 N129 N 0.02409 0.54708 -0.09793
 N130 N 0.05500 0.52335 -0.05546
 N131 N 0.07462 0.54995 -0.06609
 N132 N 0.01995 0.44811 -0.06385
 N133 N 0.01358 0.41595 -0.07708
 Mn134 Mn 0.06291 0.49056 -0.01420
 Mn135 Mn -0.01402 0.48948 -0.06076
 Cl136 Cl 0.00186 0.49755 0.00016
 C137 C 0.04238 0.39656 -0.06718
 C138 C 0.05500 0.56428 -0.09291
 N139 N 0.92590 -0.03737 0.46874
 N140 N 0.90921 -0.03745 0.43754
 N141 N 0.95680 -0.05513 0.54356
 N142 N 0.94979 -0.07974 0.56677
 N143 N 0.93200 -0.03016 0.54356
 N144 N 0.90751 -0.03732 0.56704
 N145 N 0.95069 -0.06245 0.46914
 N146 N 0.95130 -0.07965 0.43826
 C147 C 0.92494 -0.06435 0.41897
 C148 C 0.91942 -0.06810 0.58175
 N149 N 1.05746 -0.03288 0.53399
 N150 N 1.08047 -0.03280 0.56063
 N151 N 1.02653 -0.06476 0.46434
 N152 N 1.02730 -0.08914 0.43861
 N153 N 1.05080 -0.04067 0.45969
 N154 N 1.06869 -0.04804 0.43050
 N155 N 1.03284 -0.05656 0.53881
 N156 N 1.03852 -0.07323 0.56909
 Mn157 Mn 0.99168 -0.06005 0.50411
 C158 C 1.06854 -0.05806 0.58230
 C159 C 1.05368 -0.07852 0.41767
 N160 N 0.93312 0.04681 0.53714
 N161 N 0.91575 0.05396 0.56668
 N162 N 0.95119 0.06252 0.45789
 N163 N 0.94721 0.07721 0.42643
 N164 N 0.92626 0.03913 0.46286
 N165 N 0.90467 0.03750 0.43506
 N166 N 0.95727 0.07099 0.53219
 N167 N 0.95689 0.09520 0.55808
 Mn168 Mn 0.92890 0.00467 0.50328
 C169 C 0.93089 0.08440 0.57938
 C170 C 0.91783 0.06145 0.41267
 N171 N 1.05169 0.03596 0.45364
 N172 N 1.07733 0.04275 0.43168
 N173 N 1.03310 0.06873 0.52753
 N174 N 1.03283 0.08633 0.55822
 N175 N 1.05768 0.04345 0.52809
 N176 N 1.07466 0.04377 0.55911
 N177 N 1.02749 0.06152 0.45282
 N178 N 1.03626 0.08625 0.43001
 Mn179 Mn 1.05470 0.00144 0.49372
 Mn180 Mn 0.99222 0.06632 0.49242
 Cl181 Cl 0.99187 0.00310 0.49837
 C182 C 1.06710 0.07369 0.41648
 C183 C 1.05927 0.07104 0.57742
 C184 C 1.13195 0.16055 0.30782
 C185 C 1.15760 0.14860 0.33122
 C186 C 1.19346 0.15213 0.32572
 C187 C 1.20365 0.16764 0.29421
 C188 C 1.17812 0.17944 0.26852
 C189 C 1.14151 0.17695 0.27623
 O190 O 1.09945 0.15175 0.31726
 C191 C 1.10498 0.13371 0.34707
 C192 C 1.14022 0.13114 0.35649
 C193 C 1.15279 0.11110 0.38475
 C194 C 1.12806 0.09270 0.40420
 C195 C 1.09146 0.09482 0.39547
 C196 C 1.07956 0.11609 0.36675
 H197 H 1.21304 0.14210 0.34449
 H198 H 1.23176 0.16954 0.28965
 H199 H 1.12120 0.18492 0.25723
 H200 H 1.18078 0.10899 0.39106
 H201 H 1.13750 0.07665 0.42613
 H202 H 1.05182 0.11754 0.35916
 C203 C 0.87967 -0.07915 0.26974
 C204 C 0.91603 -0.07873 0.27196
 C205 C 0.93756 -0.08803 0.24382
 C206 C 0.92117 -0.10003 0.21241
 C207 C 0.88366 -0.10263 0.20938
 C208 C 0.86251 -0.09007 0.23802
 O209 O 0.86463 -0.07310 0.30105
 C210 C 0.89216 -0.06923 0.32333
 C211 C 0.92412 -0.07256 0.30662
 C212 C 0.95639 -0.07362 0.32476
 C213 C 0.95586 -0.07104 0.36178
 C214 C 0.92346 -0.06731 0.37995
 C215 C 0.89106 -0.06575 0.36046
 H216 H 0.96611 -0.08796 0.24654
 H217 H 0.93805 -0.10877 0.19087
 H218 H 0.83400 -0.09253 0.23720
 H219 H 0.98110 -0.07725 0.31096
 H220 H 0.98082 -0.07177 0.37634
 H221 H 0.86599 -0.06342 0.37381
 C222 C 0.86490 0.12754 0.71342
 C223 C 0.89320 0.14933 0.70817
 C224 C 0.90234 0.17704 0.73155
 C225 C 0.88130 0.18269 0.76152
 C226 C 0.85168 0.16080 0.76752
 C227 C 0.84361 0.13265 0.74303
 O228 O 0.86050 0.10305 0.68774
 C229 C 0.88658 0.10961 0.66574
 C230 C 0.90729 0.13770 0.67705
 C231 C 0.93563 0.14963 0.65780
 C232 C 0.94291 0.13193 0.62554
 C233 C 0.92210 0.10272 0.61327
 C234 C 0.89352 0.09139 0.63380
 H235 H 0.92473 0.19387 0.72678
 H236 H 0.88801 0.20434 0.77981
 H237 H 0.82122 0.11547 0.74659
 H238 H 0.95146 0.17188 0.66719
 H239 H 0.96491 0.14095 0.61022
 H240 H 0.87710 0.06930 0.62513
 C241 C 1.11379 -0.12510 0.71506
 C242 C 1.13276 -0.09444 0.71120
 C243 C 1.15948 -0.08400 0.73481
 C244 C 1.16714 -0.10615 0.76361
 C245 C 1.14809 -0.13822 0.76841
 C246 C 1.12078 -0.14748 0.74359
 O247 O 1.09014 -0.13059 0.68905
 C248 C 1.09436 -0.10277 0.66829
 C249 C 1.12011 -0.07987 0.68075
 C250 C 1.12959 -0.04950 0.66287
 C251 C 1.11204 -0.04257 0.63061
 C252 C 1.08554 -0.06588 0.61691
 C253 C 1.07633 -0.09627 0.63627
 H254 H 1.17416 -0.05980 0.73102
 H255 H 1.18808 -0.09818 0.78198
 H256 H 1.10565 -0.17164 0.74592
 H257 H 1.14999 -0.03193 0.67319
 H258 H 1.11924 -0.01903 0.61629
 H259 H 1.05637 -0.11460 0.62641
 C260 C 0.31584 1.16102 1.14165
 C261 C 0.33730 1.14913 1.16890
 C262 C 0.32747 1.15044 1.20417
 C263 C 0.29382 1.16414 1.21186
 C264 C 0.27051 1.17654 1.18444
 C265 C 0.28227 1.17558 1.14874
 O266 O 0.32957 1.15464 1.10978
 C267 C 0.36027 1.13832 1.11727
 C268 C 0.36610 1.13451 1.15315
 C269 C 0.39514 1.11629 1.16725
 C270 C 0.41905 1.10080 1.14341
 C271 C 0.41369 1.10372 1.10618
 C272 C 0.38414 1.12335 1.09285
 H273 H 0.34475 1.14036 1.22501
 H274 H 0.28599 1.16462 1.23938
 H275 H 0.26527 1.18409 1.12696
 H276 H 0.39878 1.11329 1.19561
 H277 H 0.44149 1.08592 1.15405
 H278 H 0.37903 1.12535 1.06458
 C279 C 0.27154 0.87125 0.88632
 C280 C 0.27860 0.84999 0.91497
 C281 C 0.25802 0.82088 0.92297
 C282 C 0.22904 0.81322 0.90041
 C283 C 0.22096 0.83475 0.87048
 C284 C 0.24266 0.86446 0.86377
 O285 O 0.29511 0.89682 0.88265
 C286 C 0.31755 0.89156 0.90960
 C287 C 0.30856 0.86332 0.93027
 C288 C 0.32876 0.85267 0.95947
 C289 C 0.35965 0.87174 0.96755
 C290 C 0.36982 0.90068 0.94635
 C291 C 0.34822 0.91086 0.91709
 H292 H 0.26430 0.80435 0.94555
 H293 H 0.21308 0.79039 0.90638
 H294 H 0.23787 0.88148 0.84123
 H295 H 0.32121 0.83028 0.97528
 H296 H 0.37585 0.86360 0.99006
 H297 H 0.35530 0.93271 0.90034
 C298 C 0.72936 0.89080 1.12513
 C299 C 0.71837 0.86410 1.10209
 C300 C 0.73898 0.83441 1.09356
 C301 C 0.77280 0.83221 1.10886
 C302 C 0.78569 0.85944 1.13261
 C303 C 0.76303 0.88892 1.14142
 O304 O 0.70567 0.91740 1.12808
 C305 C 0.67937 0.90703 1.10635
 C306 C 0.68608 0.87453 1.08999
 C307 C 0.66311 0.85869 1.06546
 C308 C 0.63162 0.87698 1.05743
 C309 C 0.62361 0.91063 1.07373
 C310 C 0.64793 0.92594 1.09864
 H311 H 0.72961 0.81391 1.07514
 H312 H 0.78894 0.80912 1.10169
 H313 H 0.77179 0.91044 1.15897
 H314 H 0.66932 0.83321 1.05277
 H315 H 0.61356 0.86485 1.03823
 H316 H 0.64268 0.95167 1.11130
 C317 C 0.69530 1.12066 0.86882
 C318 C 0.68851 1.09283 0.84542
 C319 C 0.71058 1.08390 0.81744
 C320 C 0.74083 1.10459 0.81328
 C321 C 0.74862 1.13371 0.83704
 C322 C 0.72526 1.14152 0.86536
 O323 O 0.67087 1.12485 0.89347
 C324 C 0.64816 1.09909 0.88543
 C325 C 0.65772 1.07869 0.85627
 C326 C 0.63769 1.05020 0.84335
 C327 C 0.60658 1.04240 0.86129
 C328 C 0.59616 1.06311 0.89142
 C329 C 0.61734 1.09191 0.90355
 H330 H 0.70466 1.06186 0.79934
 H331 H 0.75802 1.09778 0.79140
 H332 H 0.72991 1.16335 0.88411
 H333 H 0.64578 1.03448 0.82038
 H334 H 0.59073 1.02019 0.85178
 H335 H 0.61026 1.10809 0.92658
 C336 C 0.12369 0.28671 0.13837
 C337 C 0.12839 0.27951 0.10278
 C338 C 0.14718 0.24978 0.09025
 C339 C 0.16257 0.22696 0.11543
 C340 C 0.15875 0.23404 0.15231
 C341 C 0.13820 0.26388 0.16392
 O342 O 0.10780 0.31811 0.14462
 C343 C 0.10253 0.33104 0.11230
 C344 C 0.11465 0.30834 0.08584
 C345 C 0.11453 0.31753 0.05030
 C346 C 0.10171 0.35162 0.04163
 C347 C 0.08929 0.37578 0.06835
 C348 C 0.08915 0.36506 0.10418
 H349 H 0.15112 0.24512 0.06213
 H350 H 0.17850 0.20443 0.10624
 H351 H 0.13590 0.27060 0.19189
 H352 H 0.12477 0.29944 0.03004
 H353 H 0.10186 0.35933 0.01408
 H354 H 0.08042 0.38314 0.12517
 C355 C -0.14153 0.28534 -0.11081
 C356 C -0.16163 0.29168 -0.08121
 C357 C -0.18945 0.26978 -0.07239
 C358 C -0.19685 0.24034 -0.09506
 C359 C -0.17645 0.23336 -0.12586
 C360 C -0.14828 0.25632 -0.13352
 O361 O -0.11675 0.30949 -0.11504
 C362 C -0.12124 0.33164 -0.08753
 C363 C -0.14828 0.32206 -0.06588
 C364 C -0.15754 0.34212 -0.03579
 C365 C -0.13824 0.37329 -0.02791
 C366 C -0.11046 0.38372 -0.05015
 C367 C -0.10187 0.36233 -0.08025
 H368 H -0.20506 0.27527 -0.04904
 H369 H -0.21851 0.22315 -0.08865
 H370 H -0.13220 0.25212 -0.15677
 H371 H -0.17894 0.33417 -0.01910
 H372 H -0.14507 0.38935 -0.00471
 H373 H -0.08084 0.36945 -0.09780
 C374 C 0.11734 0.69880 -0.13504
 C375 C 0.08938 0.69136 -0.15771
 C376 C 0.07851 0.71406 -0.18466
 C377 C 0.09735 0.74572 -0.18855
 C378 C 0.12644 0.75411 -0.16558
 C379 C 0.13641 0.73014 -0.13836
 O380 O 0.12317 0.67376 -0.11106
 C381 C 0.09833 0.64998 -0.11879
 C382 C 0.07698 0.65954 -0.14712
 C383 C 0.04901 0.63882 -0.15951
 C384 C 0.04261 0.60704 -0.14182
 C385 C 0.06400 0.59667 -0.11229
 C386 C 0.09249 0.61839 -0.10082
 H387 H 0.05633 0.70763 -0.20210
 H388 H 0.08920 0.76361 -0.20949
 H389 H 0.15840 0.73556 -0.12033
 H390 H 0.03253 0.64695 -0.18180
 H391 H 0.02074 0.59070 -0.15097
 H392 H 0.10907 0.61136 -0.07820
 C393 C -0.09379 0.74163 0.09842
 C394 C -0.05838 0.74128 0.10747
 C395 C -0.04187 0.76995 0.12456
 C396 C -0.06289 0.79992 0.13342
 C397 C -0.09974 0.80061 0.12525
 C398 C -0.11512 0.77122 0.10671
 O399 O -0.10476 0.71086 0.08430
 C400 C -0.07569 0.69056 0.08463
 C401 C -0.04659 0.70792 0.09859
 C402 C -0.01396 0.69100 0.10362
 C403 C -0.01127 0.65468 0.09400
 C404 C -0.04092 0.63617 0.07958
 C405 C -0.07349 0.65455 0.07447
 H406 H -0.01403 0.76887 0.13177
 H407 H -0.05060 0.82207 0.14761
 H408 H -0.14320 0.77048 0.10060
 H409 H 0.00843 0.70506 0.11513
 H410 H 0.01387 0.64097 0.09796
 H411 H -0.09666 0.64100 0.06398
 C412 C 1.11064 0.08409 0.72473
 C413 C 1.07430 0.08644 0.72398
 C414 C 1.05459 0.09624 0.75332
 C415 C 1.07302 0.10576 0.78446
 C416 C 1.11074 0.10576 0.78590
 C417 C 1.12975 0.09287 0.75589
 O418 O 1.12406 0.07720 0.69284
 C419 C 1.09552 0.07564 0.67165
 C420 C 1.06450 0.08133 0.68957
 C421 C 1.03172 0.08455 0.67261
 C422 C 1.03074 0.08157 0.63556
 C423 C 1.06215 0.07525 0.61627
 C424 C 1.09504 0.07172 0.63458
 H425 H 1.02600 0.09815 0.75184
 H426 H 1.05760 0.11474 0.80700
 H427 H 1.15838 0.09307 0.75552
 H428 H 1.00782 0.08989 0.68732
 H429 H 1.00540 0.08373 0.62188
 H430 H 1.11939 0.06726 0.62036
 C431 C 0.83666 -0.12369 0.69839
 C432 C 0.85037 -0.15156 0.67834
 C433 C 0.85120 -0.18661 0.68932
 C434 C 0.83850 -0.19337 0.72296
 C435 C 0.82452 -0.16541 0.74504
 C436 C 0.82214 -0.13009 0.73179
 O437 O 0.84273 -0.09195 0.68437
 C438 C 0.86073 -0.10024 0.65511
 C439 C 0.86578 -0.13648 0.65041
 C440 C 0.88653 -0.15154 0.62390
 C441 C 0.90321 -0.12835 0.60124
 C442 C 0.89895 -0.09078 0.60525
 C443 C 0.87681 -0.07638 0.63222
 H444 H 0.86289 -0.20785 0.67326
 H445 H 0.84024 -0.22065 0.73204
 H446 H 0.81278 -0.10795 0.74822
 H447 H 0.89062 -0.18016 0.62139
 H448 H 0.91989 -0.13977 0.58073
 H449 H 0.87380 -0.04779 0.63632
 C450 C 1.12490 -0.12609 0.28758
 C451 C 1.09578 -0.14698 0.29186
 C452 C 1.08716 -0.17503 0.26870
 C453 C 1.10952 -0.18198 0.23995
 C454 C 1.14005 -0.16096 0.23474
 C455 C 1.14751 -0.13242 0.25916
 O456 O 1.12863 -0.10109 0.31291
 C457 C 1.10125 -0.10639 0.33368
 C458 C 1.08035 -0.13416 0.32193
 C459 C 1.05064 -0.14476 0.33991
 C460 C 1.04221 -0.12612 0.37139
 C461 C 1.06332 -0.09736 0.38423
 C462 C 1.09322 -0.08727 0.36489
 H463 H 1.06410 -0.19117 0.27273
 H464 H 1.10294 -0.20391 0.22193
 H465 H 1.17040 -0.11569 0.25649
 H466 H 1.03463 -0.16675 0.33017
 H467 H 1.01916 -0.13414 0.38571
 H468 H 1.10989 -0.06555 0.37401
 C469 C 0.88576 0.11809 0.27229
 C470 C 0.86675 0.08743 0.27602
 C471 C 0.84203 0.07563 0.25087
 C472 C 0.83624 0.09661 0.22084
 C473 C 0.85507 0.12889 0.21647
 C474 C 0.88074 0.13920 0.24256
 O475 O 0.90672 0.12549 0.30003
 C476 C 0.90068 0.09897 0.32183
 C477 C 0.87645 0.07494 0.30836
 C478 C 0.86504 0.04598 0.32736
 C479 C 0.87901 0.04179 0.36177
 C480 C 0.90390 0.06635 0.37633
 C481 C 0.91514 0.09515 0.35587
 H482 H 0.82719 0.05152 0.25458
 H483 H 0.81657 0.08785 0.20142
 H484 H 0.89554 0.16362 0.24065
 H485 H 0.84578 0.02755 0.31628
 H486 H 0.87037 0.01941 0.37702
 H487 H 0.93392 0.11440 0.36638
 C488 C 0.09858 0.25239 -0.09335
 C489 C 0.06257 0.25209 -0.09911
 C490 C 0.04519 0.22354 -0.11529
 C491 C 0.06585 0.19447 -0.12715
 C492 C 0.10338 0.19437 -0.12280
 C493 C 0.11967 0.22338 -0.10425
 O494 O 0.11012 0.28359 -0.08069
 C495 C 0.08077 0.30344 -0.07872
 C496 C 0.05097 0.28531 -0.08966
 C497 C 0.01788 0.30166 -0.09293
 C498 C 0.01539 0.33829 -0.08487
 C499 C 0.04574 0.35774 -0.07377
 C500 C 0.07881 0.33989 -0.07006
 H501 H 0.01686 0.22424 -0.12001
 H502 H 0.05248 0.17267 -0.14087
 H503 H 0.14813 0.22486 -0.10092
 H504 H -0.00503 0.28696 -0.10231
 H505 H -0.01013 0.35155 -0.08770
 H506 H 0.10249 0.35420 -0.06224
 C507 C -0.11599 0.29340 0.12555
 C508 C -0.08897 0.30041 0.14945
 C509 C -0.07861 0.27694 0.17582
 C510 C -0.09699 0.24486 0.17787
 C511 C -0.12526 0.23662 0.15362
 C512 C -0.13465 0.26153 0.12693
 O513 O -0.12128 0.31933 0.10237
 C514 C -0.09700 0.34316 0.11194
 C515 C -0.07658 0.33274 0.14060
 C516 C -0.04911 0.35310 0.15471
 C517 C -0.04211 0.38545 0.13837
 C518 C -0.06260 0.39685 0.10863
 C519 C -0.09070 0.37549 0.09541
 H520 H -0.05713 0.28310 0.19422
 H521 H -0.08898 0.22658 0.19852
 H522 H -0.15588 0.25651 0.10787
 H523 H -0.03334 0.34419 0.17720
 H524 H -0.02048 0.40145 0.14874
 H525 H -0.10648 0.38327 0.07249
 C526 C -0.13346 0.71675 -0.11316
 C527 C -0.10272 0.70899 -0.13081
 C528 C -0.09265 0.72652 -0.16091
 C529 C -0.11523 0.75327 -0.17374
 C530 C -0.14703 0.76297 -0.15598
 C531 C -0.15589 0.74466 -0.12463
 O532 O -0.13937 0.69393 -0.08722
 C533 C -0.11163 0.67151 -0.08872
 C534 C -0.08840 0.68016 -0.11477
 C535 C -0.05852 0.65995 -0.12276
 C536 C -0.05259 0.62881 -0.10378
 C537 C -0.07655 0.61800 -0.07759
 C538 C -0.10617 0.64018 -0.06919
 H539 H -0.06868 0.71915 -0.17471
 H540 H -0.10740 0.76668 -0.19751
 H541 H -0.18021 0.75060 -0.11081
 H542 H -0.04082 0.66739 -0.14355
 H543 H -0.02961 0.61255 -0.11029
 H544 H -0.12513 0.63234 -0.04972
 C545 C 0.13772 0.71172 0.11546
 C546 C 0.15767 0.70700 0.08550
 C547 C 0.18416 0.73048 0.07671
 C548 C 0.19038 0.75985 0.09977
 C549 C 0.17013 0.76531 0.13094
 C550 C 0.14327 0.74078 0.13860
 O551 O 0.11435 0.68611 0.11949
 C552 C 0.11962 0.66473 0.09148
 C553 C 0.14576 0.67623 0.06972
 C554 C 0.15559 0.65740 0.03905
 C555 C 0.13781 0.62544 0.03062
 C556 C 0.11096 0.61298 0.05290
 C557 C 0.10180 0.63315 0.08369
 H558 H 0.19966 0.72622 0.05308
 H559 H 0.21103 0.77823 0.09330
 H560 H 0.12743 0.74382 0.16216
 H561 H 0.17626 0.66691 0.02230
 H562 H 0.14507 0.61036 0.00694
 H563 H 0.08147 0.62446 0.10132
 C564 C 0.27136 1.10606 0.86453
 C565 C 0.28737 1.13670 0.87711
 C566 C 0.27056 1.16994 0.87747
 C567 C 0.23544 1.17165 0.86515
 C568 C 0.21788 1.14043 0.85270
 C569 C 0.23642 1.10724 0.85157
 O570 O 0.29133 1.07687 0.86907
 C571 C 0.32042 1.08943 0.88501
 C572 C 0.31916 1.12589 0.89050
 C573 C 0.34540 1.14450 0.90894
 C574 C 0.37418 1.12477 0.92244
 C575 C 0.37636 1.08714 0.91721
 C576 C 0.34922 1.06922 0.89783
 H577 H 0.28362 1.19353 0.88801
 H578 H 0.22157 1.19717 0.86626
 H579 H 0.22337 1.08286 0.84313
 H580 H 0.34343 1.17312 0.91342
 H581 H 0.39469 1.13889 0.93717
 H582 H 0.34989 1.04046 0.89400
 C583 C 0.29916 0.87814 1.13709
 C584 C 0.30610 0.90623 1.16018
 C585 C 0.28392 0.91558 1.18803
 C586 C 0.25347 0.89510 1.19227
 C587 C 0.24575 0.86589 1.16877
 C588 C 0.26913 0.85750 1.14075
 O589 O 0.32343 0.87360 1.11236
 C590 C 0.34622 0.89937 1.11997
 C591 C 0.33693 0.92015 1.14897
 C592 C 0.35719 0.94876 1.16130
 C593 C 0.38817 0.95626 1.14288
 C594 C 0.39817 0.93518 1.11285
 C595 C 0.37680 0.90628 1.10140
 H596 H 0.28986 0.93781 1.20589
 H597 H 0.23601 0.90204 1.21389
 H598 H 0.26425 0.83549 1.12228
 H599 H 0.34936 0.96481 1.18414
 H600 H 0.40419 0.97853 1.15190
 H601 H 0.38355 0.88976 1.07850
 C602 C 0.72857 1.12085 1.10220
 C603 C 0.72103 1.14102 1.07286
 C604 C 0.74232 1.16893 1.06267
 C605 C 0.77245 1.17648 1.08379
 C606 C 0.78065 1.15608 1.11432
 C607 C 0.75837 1.12765 1.12327
 O608 O 0.70437 1.09653 1.10827
 C609 C 0.68091 1.10140 1.08219
 C610 C 0.68987 1.12823 1.05970
 C611 C 0.66844 1.13845 1.03121
 C612 C 0.63639 1.12049 1.02590
 C613 C 0.62638 1.09303 1.04905
 C614 C 0.64923 1.08318 1.07739
 H615 H 0.73569 1.18466 1.03962
 H616 H 0.78911 1.19835 1.07652
 H617 H 0.76342 1.11174 1.14655
 H618 H 0.67591 1.15974 1.01395
 H619 H 0.61923 1.12831 1.00398
 H620 H 0.64227 1.06252 1.09561
 C621 C 0.70271 0.88231 0.86343
 C622 C 0.70774 0.88180 0.89966
 C623 C 0.73833 0.86847 0.91584
 C624 C 0.76477 0.85445 0.89383
 C625 C 0.76034 0.85402 0.85632
 C626 C 0.72905 0.86885 0.84085
 O627 O 0.67053 0.89396 0.85384
 C628 C 0.65498 0.90077 0.88474
 C629 C 0.67681 0.89369 0.91347
 C630 C 0.66567 0.89634 0.94831
 C631 C 0.63042 0.90632 0.95392
 C632 C 0.60700 0.91363 0.92497
 C633 C 0.61962 0.91146 0.88978
 H634 H 0.74135 0.86795 0.94446
 H635 H 0.78848 0.84329 0.90609
 H636 H 0.72458 0.86818 0.81238
 H637 H 0.68326 0.89009 0.97040
 H638 H 0.62127 0.90809 0.98099
 H639 H 0.60217 0.91630 0.86723
   
