data_POSCAR
  _audit_creation_date              2014-09-24
  _audit_creation_method            'ToBaCCo'
  _symmetry_space_group_name_H-M    'P1'
  _symmetry_Int_Tables_number       1
  _symmetry_cell_setting            triclinic
  loop_
  _symmetry_equiv_pos_as_xyz
 x,y,z
_cell_length_a 25.0323
_cell_length_b 25.1070
_cell_length_c 28.6019
_cell_angle_alpha 90.000800
_cell_angle_beta 90.166800
_cell_angle_gamma 120.109000
loop_
  _atom_site_label
  _atom_site_type_symbol
  _atom_site_fract_x
  _atom_site_fract_y
  _atom_site_fract_z
O1 O 0.32891 0.57418 0.30468
 O2 O 0.22477 0.57146 0.29045
 C3 C 0.21621 0.60985 0.31353
 O4 O 0.24425 0.66690 0.30441
 O5 O 0.34580 0.77084 0.29049
 C6 C 0.39293 0.77959 0.31376
 O7 O 0.42210 0.75167 0.30482
 O8 O 0.42467 0.65046 0.29097
 C9 C 0.38616 0.60339 0.31395
 O10 O 0.34556 0.57151 0.21162
 O11 O 0.24410 0.57406 0.19737
 C12 C 0.21578 0.60284 0.18796
 O13 O 0.22473 0.64988 0.21129
 O14 O 0.32897 0.75121 0.19739
 C15 C 0.38623 0.77928 0.18844
 O16 O 0.42473 0.77080 0.21170
 O17 O 0.42206 0.66697 0.19784
 C18 C 0.39277 0.60990 0.18866
 Cr19 Cr 0.28755 0.57624 0.25104
 Cr20 Cr 0.28766 0.70799 0.25090
 Cr21 Cr 0.41995 0.70825 0.25132
 O22 O 0.33174 0.66417 0.25112
 O23 O 0.57575 0.32855 0.69826
 O24 O 0.57320 0.22477 0.71206
 C25 C 0.61168 0.21617 0.68909
 O26 O 0.66891 0.24416 0.69838
 O27 O 0.77308 0.34559 0.71246
 C28 C 0.78176 0.39264 0.68948
 O29 O 0.75385 0.42176 0.69868
 O30 O 0.65223 0.42404 0.71237
 C31 C 0.60500 0.38562 0.68921
 O32 O 0.57317 0.34498 0.79139
 O33 O 0.57586 0.24382 0.80519
 C34 C 0.60519 0.21608 0.81439
 O35 O 0.65245 0.22498 0.79147
 O36 O 0.75406 0.32900 0.80555
 C37 C 0.78193 0.38604 0.81483
 O38 O 0.77308 0.42434 0.79186
 O39 O 0.66886 0.42142 0.80552
 C40 C 0.61163 0.39210 0.81454
 Cr41 Cr 0.57796 0.28727 0.75173
 Cr42 Cr 0.71039 0.28765 0.75196
 Cr43 Cr 0.71028 0.41943 0.75210
 O44 O 0.66621 0.33145 0.75195
 C45 C 0.45784 -0.08887 0.42683
 C46 C 0.49243 -0.11577 0.41193
 C47 C 0.47129 -0.15851 0.37538
 C48 C 0.41519 -0.17514 0.35261
 C49 C 0.38061 -0.14818 0.36743
 C50 C 0.40161 -0.10568 0.40420
 C51 C 0.48040 -0.04357 0.46569
 N52 N 0.44436 -0.02241 0.48372
 N53 N 0.46471 0.01823 0.51867
 C54 C 0.52204 0.03956 0.53701
 N55 N 0.55808 0.01844 0.51892
 N56 N 0.53768 -0.02228 0.48407
 C57 C 0.54486 0.08483 0.57588
 C58 C 0.60650 0.11188 0.59111
 C59 C 0.62815 0.15456 0.62770
 C60 C 0.58861 0.17099 0.65018
 C61 C 0.52693 0.14390 0.63501
 C62 C 0.50536 0.10145 0.59820
 H63 H 0.53587 -0.10404 0.42862
 H64 H 0.49912 -0.17833 0.36486
 H65 H 0.33711 -0.16010 0.35077
 H66 H 0.37382 -0.08582 0.41473
 H67 H 0.63826 0.10030 0.57466
 H68 H 0.67592 0.17450 0.63849
 H69 H 0.49528 0.15566 0.65145
 H70 H 0.45760 0.08147 0.58741
 C71 C 1.08525 0.54348 0.42675
 C72 C 1.11220 0.60487 0.41164
 C73 C 1.15471 0.62637 0.37501
 C74 C 1.17107 0.58691 0.35238
 C75 C 1.14404 0.52546 0.36741
 C76 C 1.10176 0.50405 0.40425
 C77 C 1.04025 0.52085 0.46572
 N78 N 1.01906 0.46375 0.48392
 N79 N 0.97870 0.44358 0.51897
 C80 C 0.95768 0.47957 0.53726
 N81 N 0.97882 0.53662 0.51902
 N82 N 1.01927 0.55684 0.48405
 C83 C 0.91268 0.45720 0.57623
 C84 C 0.88591 0.49176 0.59145
 C85 C 0.84340 0.47075 0.62809
 C86 C 0.82689 0.41484 0.65062
 C87 C 0.85375 0.38031 0.63549
 C88 C 0.89602 0.40117 0.59865
 H89 H 1.10069 0.63657 0.42822
 H90 H 1.17461 0.67396 0.36433
 H91 H 1.15575 0.49388 0.35085
 H92 H 1.08185 0.45647 0.41494
 H93 H 0.89754 0.53505 0.57494
 H94 H 0.82364 0.49854 0.63884
 H95 H 0.84191 0.33694 0.65197
 H96 H 0.91579 0.37342 0.58788
 C97 C 0.45296 0.53881 0.42712
 C98 C 0.39130 0.50425 0.41193
 C99 C 0.36965 0.52530 0.37535
 C100 C 0.40921 0.58126 0.35285
 C101 C 0.47091 0.61582 0.36799
 C102 C 0.49248 0.59492 0.40478
 C103 C 0.47578 0.51634 0.46597
 N104 N 0.53315 0.55232 0.48426
 N105 N 0.55352 0.53204 0.51919
 C106 C 0.51746 0.47485 0.53726
 N107 N 0.46014 0.43888 0.51893
 N108 N 0.43972 0.45920 0.48409
 C109 C 0.54004 0.45213 0.57610
 C110 C 0.50541 0.39066 0.59107
 C111 C 0.52657 0.36910 0.62763
 C112 C 0.58272 0.40857 0.65034
 C113 C 0.61735 0.47008 0.63543
 C114 C 0.59633 0.49155 0.59866
 H115 H 0.35952 0.46091 0.42839
 H116 H 0.32186 0.49749 0.36458
 H117 H 0.50258 0.65922 0.35154
 H118 H 0.54025 0.62268 0.41554
 H119 H 0.46193 0.35896 0.57444
 H120 H 0.49870 0.32146 0.63822
 H121 H 0.66090 0.50167 0.65204
 H122 H 0.62415 0.53918 0.58807
 C123 C 0.45310 -0.08937 1.07558
 C124 C 0.39143 -0.11652 1.09042
 C125 C 0.36975 -0.15922 1.12689
 C126 C 0.40930 -0.17557 1.14964
 C127 C 0.47102 -0.14840 1.13486
 C128 C 0.49262 -0.10593 1.09817
 C129 C 0.47596 -0.04406 1.03686
 N130 N 0.53335 -0.02261 1.01890
 N131 N 0.55375 0.01808 0.98409
 C132 C 0.51767 0.03917 0.96582
 N133 N 0.46033 0.01776 0.98382
 N134 N 0.43989 -0.02301 1.01853
 C135 C 0.54027 0.08452 0.92711
 C136 C 0.50561 0.11132 0.91197
 C137 C 0.52677 0.15408 0.87554
 C138 C 0.58295 0.17083 0.85313
 C139 C 0.61760 0.14399 0.86822
 C140 C 0.59659 0.10146 0.90486
 H141 H 0.35965 -0.10499 1.07375
 H142 H 0.32195 -0.17921 1.13738
 H143 H 0.50268 -0.16010 1.15151
 H144 H 0.54041 -0.08588 1.08769
 H145 H 0.46211 0.09948 0.92837
 H146 H 0.49888 0.17381 0.86481
 H147 H 0.66117 0.15600 0.85183
 H148 H 0.62443 0.08168 0.91559
 C149 C 1.08775 0.53987 1.07751
 C150 C 1.09999 0.59264 1.10300
 C151 C 1.14246 0.61361 1.13992
 C152 C 1.17441 0.58256 1.15229
 C153 C 1.16202 0.52971 1.12626
 C154 C 1.11922 0.50867 1.08962
 C155 C 1.04238 0.51733 1.03856
 N156 N 1.02412 0.46186 1.01829
 N157 N 0.98330 0.44145 0.98336
 C158 C 0.95908 0.47569 0.96710
 N159 N 0.97739 0.53123 0.98732
 N160 N 1.01810 0.55157 1.02235
 C161 C 0.91369 0.45287 0.92817
 C162 C 0.89526 0.49155 0.90681
 C163 C 0.85271 0.47000 0.86992
 C164 C 0.82728 0.40912 0.85377
 C165 C 0.84549 0.37037 0.87529
 C166 C 0.88834 0.39206 0.91191
 H167 H 1.07644 0.61772 1.09464
 H168 H 1.15016 0.65445 1.15858
 H169 H 1.18517 0.50405 1.13409
 H170 H 1.11107 0.46795 1.07061
 H171 H 0.91393 0.53867 0.91840
 H172 H 0.83952 0.50099 0.85424
 H173 H 0.82687 0.32325 0.86370
 H174 H 0.90134 0.36094 0.92763
 C175 C 0.45762 0.54329 1.07587
 C176 C 0.40127 0.50391 1.09810
 C177 C 0.38029 0.52541 1.13477
 C178 C 0.41499 0.58690 1.14990
 C179 C 0.47118 0.62632 1.12751
 C180 C 0.49231 0.60474 1.09105
 C181 C 0.48019 0.52055 1.03715
 N182 N 0.53753 0.55650 1.01914
 N183 N 0.55796 0.53618 0.98442
 C184 C 0.52189 0.47905 0.96610
 N185 N 0.46450 0.44308 0.98406
 N186 N 0.44412 0.46337 1.01889
 C187 C 0.54474 0.45659 0.92737
 C188 C 0.50525 0.40047 0.90483
 C189 C 0.52685 0.37960 0.86815
 C190 C 0.58854 0.41419 0.85333
 C191 C 0.62808 0.47016 0.87603
 C192 C 0.60640 0.49118 0.91250
 H193 H 0.37340 0.45630 1.08735
 H194 H 0.33670 0.49386 1.15114
 H195 H 0.49911 0.67394 1.13826
 H196 H 0.53583 0.63640 1.07468
 H197 H 0.45748 0.37269 0.91535
 H198 H 0.49520 0.33619 0.85153
 H199 H 0.67586 0.49800 0.86552
 H200 H 0.63816 0.53453 0.92912
   
