data_POSCAR
  _audit_creation_date              2014-09-24
  _audit_creation_method            'ToBaCCo'
  _symmetry_space_group_name_H-M    'P1'
  _symmetry_Int_Tables_number       1
  _symmetry_cell_setting            triclinic
  loop_
  _symmetry_equiv_pos_as_xyz
 x,y,z
_cell_length_a 24.2680
_cell_length_b 26.4972
_cell_length_c 26.5194
_cell_angle_alpha 87.726500
_cell_angle_beta 86.297400
_cell_angle_gamma 88.672100
loop_
  _atom_site_label
  _atom_site_type_symbol
  _atom_site_fract_x
  _atom_site_fract_y
  _atom_site_fract_z
C1 C 0.14971 1.22149 0.17036
 C2 C 0.14021 1.18621 0.21097
 C3 C 0.17499 1.14336 0.21710
 C4 C 0.21982 1.13618 0.18157
 C5 C 0.22997 1.17085 0.14080
 C6 C 0.19497 1.21331 0.13555
 H7 H 0.10559 1.19249 0.23788
 H8 H 0.24731 1.10375 0.18587
 H9 H 0.20340 1.23974 0.10403
 C10 C 0.79139 0.75379 0.22964
 C11 C 0.79840 0.77897 0.27456
 C12 C 0.75804 0.81278 0.29426
 C13 C 0.70905 0.82019 0.26965
 C14 C 0.70168 0.79662 0.22422
 C15 C 0.74292 0.76375 0.20403
 H16 H 0.83561 0.77234 0.29445
 H17 H 0.67771 0.84648 0.28438
 H18 H 0.73665 0.74602 0.16884
 C19 C 0.84165 1.29302 -0.19128
 C20 C 0.81853 1.25878 -0.15440
 C21 C 0.80586 1.20954 -0.16680
 C22 C 0.81928 1.19334 -0.21595
 C23 C 0.84390 1.22645 -0.25322
 C24 C 0.85251 1.27675 -0.24088
 H25 H 0.80857 1.27065 -0.11625
 H26 H 0.81079 1.15486 -0.22468
 H27 H 0.87092 1.30270 -0.26942
 C28 C 0.22192 0.74708 -0.18422
 C29 C 0.18375 0.75817 -0.22079
 C30 C 0.19026 0.79994 -0.25493
 C31 C 0.23697 0.83018 -0.25255
 C32 C 0.27623 0.81906 -0.21664
 C33 C 0.26851 0.77710 -0.18295
 H34 H 0.14821 0.73445 -0.22215
 H35 H 0.24283 0.86269 -0.27815
 H36 H 0.29798 0.76827 -0.15483
 C37 C 0.61633 1.04527 -0.01346
 H38 H 0.60119 1.03975 0.02560
 C39 C 0.66132 1.07615 -0.02568
 H40 H 0.68063 1.09418 0.00436
 C41 C 0.60826 1.02913 -0.09986
 H42 H 0.58737 1.01070 -0.12859
 C43 C 0.65326 1.05988 -0.11386
 H44 H 0.66624 1.06464 -0.15348
 N45 N 0.58992 1.02357 -0.05043
 C46 C 0.42090 1.01414 0.01374
 H47 H 0.41411 0.97407 0.01184
 C48 C 0.37917 1.04566 0.03436
 H49 H 0.34016 1.02963 0.04803
 C50 C 0.47981 1.08377 -0.00281
 H51 H 0.51883 1.09861 -0.01778
 C52 C 0.43886 1.11677 0.01673
 H53 H 0.44698 1.15674 0.01726
 Zn54 Zn 0.52570 0.98758 -0.02863
 N55 N 0.47058 1.03332 -0.00301
 C56 C 0.51937 0.94253 0.07015
 N57 N 0.54505 0.94012 0.02315
 C58 C 0.58695 0.90616 0.01332
 C59 C 0.60482 0.87321 0.05179
 C60 C 0.53528 0.90993 0.10931
 C61 C 0.47545 0.98512 -0.12022
 C62 C 0.44367 0.96468 -0.15611
 C63 C 0.45306 0.88297 -0.11342
 C64 C 0.48511 0.90489 -0.07858
 N65 N 0.49479 0.95529 -0.08208
 H66 H 0.48740 0.97056 0.07796
 H67 H 0.60715 0.90538 -0.02423
 H68 H 0.63859 0.84683 0.04350
 H69 H 0.51485 0.91313 0.14659
 H70 H 0.48261 1.02531 -0.12138
 H71 H 0.42697 0.98930 -0.18517
 H72 H 0.44466 0.84306 -0.10931
 H73 H 0.49992 0.88204 -0.04742
 C74 C 0.38821 1.09763 0.03643
 C75 C 0.67969 1.08482 -0.07652
 C76 C 0.43071 0.91330 -0.15204
 C77 C 0.57905 0.87524 0.10067
 C78 C -0.01301 0.58628 1.09501
 H79 H 0.03073 0.57722 1.09417
 C80 C -0.03600 0.61999 1.12967
 H81 H -0.00954 0.63676 1.15547
 C82 C -0.10013 0.57522 1.06183
 H83 H -0.12464 0.55756 1.03509
 C84 C -0.12501 0.60933 1.09598
 H85 H -0.16891 0.61723 1.09565
 N86 N -0.04510 0.56422 1.06244
 C87 C 0.05427 0.42866 1.03226
 H88 H 0.06451 0.43344 0.99207
 C89 C 0.07273 0.38552 1.05875
 H90 H 0.09724 0.35733 1.03853
 C91 C 0.00728 0.45853 1.10669
 H92 H -0.01937 0.48635 1.12510
 C93 C 0.02438 0.41586 1.13446
 H94 H 0.01148 0.41175 1.17423
 Zn95 Zn -0.00545 0.52006 1.01854
 N96 N 0.02261 0.46432 1.05657
 C97 C 0.10654 0.54544 0.98695
 N98 N 0.05206 0.55849 0.98563
 C99 C 0.03548 0.60171 0.96121
 C100 C 0.07393 0.63268 0.93488
 C101 C 0.14663 0.57564 0.96121
 C102 C -0.08935 0.46005 0.98538
 C103 C -0.11533 0.43260 0.94997
 C104 C -0.06128 0.47695 0.88335
 C105 C -0.03597 0.50298 0.91987
 N106 N -0.04960 0.49363 0.96986
 H107 H 0.11906 0.51171 1.00778
 H108 H -0.00802 0.61175 0.96180
 H109 H 0.05945 0.66679 0.91580
 H110 H 0.18980 0.56457 0.96192
 H111 H -0.09888 0.45278 1.02539
 H112 H -0.14561 0.40498 0.96313
 H113 H -0.04824 0.48373 0.84390
 H114 H -0.00345 0.52871 0.90801
 C115 C 0.05756 0.37870 1.11058
 C116 C -0.09264 0.63193 1.13069
 C117 C -0.10016 0.44001 0.89817
 C118 C 0.13034 0.61947 0.93408
 C119 C 1.06308 -0.03743 0.57486
 H120 H 1.07585 0.00127 0.56843
 C121 C 1.09032 -0.06945 0.60881
 H122 H 1.12383 -0.05482 0.62845
 C123 C 1.00231 -0.10255 0.55820
 H124 H 0.96731 -0.11515 0.53931
 C125 C 1.02813 -0.13567 0.59183
 H126 H 1.01297 -0.17367 0.59789
 N127 N 1.02024 -0.05451 0.55007
 C128 C 1.00906 0.04640 0.41684
 H129 H 0.96575 0.05704 0.42118
 C130 C 1.04139 0.06459 0.37493
 H131 H 1.02241 0.08908 0.34713
 C132 C 1.08533 -0.00038 0.44712
 H133 H 1.10203 -0.02645 0.47483
 C134 C 1.11910 0.01656 0.40546
 H135 H 1.16185 0.00391 0.40183
 Zn136 Zn 0.98291 -0.00930 0.50606
 N137 N 1.03148 0.01508 0.45223
 C138 C 0.96892 0.09293 0.53283
 N139 N 0.95318 0.04477 0.54463
 C140 C 0.91769 0.03403 0.58527
 C141 C 0.89603 0.07267 0.61558
 C142 C 0.94819 0.13263 0.56192
 C143 C 0.94336 -0.08079 0.44473
 C144 C 0.90522 -0.10623 0.41855
 C145 C 0.83266 -0.05325 0.45616
 C146 C 0.87232 -0.02886 0.48183
 N147 N 0.92649 -0.04306 0.47573
 H148 H 0.99824 0.10073 0.50130
 H149 H 0.90636 -0.00471 0.59420
 H150 H 0.86770 0.06317 0.64750
 H151 H 0.96163 0.17061 0.55201
 H152 H 0.98680 -0.09087 0.44015
 H153 H 0.92009 -0.13619 0.39445
 H154 H 0.78982 -0.04109 0.46095
 H155 H 0.85985 0.00195 0.50580
 C156 C 1.09727 0.04971 0.36886
 C157 C 1.07272 -0.11937 0.61774
 C158 C 0.84895 -0.09222 0.42361
 C159 C 0.91150 0.12284 0.60413
 N160 N 0.04828 0.31765 1.18182
 N161 N 0.07189 0.27529 1.19874
 C162 C 0.11430 0.26400 1.16530
 C163 C 0.11561 0.30124 1.12704
 N164 N 0.07376 0.33383 1.13875
 H165 H 0.14417 0.30473 1.09416
 N166 N -0.08992 0.67811 1.20774
 N167 N -0.11976 0.71071 1.23495
 C168 C -0.16689 0.72009 1.21156
 C169 C -0.16481 0.69147 1.16866
 N170 N -0.11600 0.66591 1.16778
 H171 H -0.19504 0.68999 1.14057
 N172 N -0.11136 0.41688 0.81146
 N173 N -0.12570 0.37764 0.78626
 C174 C -0.14419 0.34214 0.82077
 C175 C -0.14120 0.36157 0.86829
 N176 N -0.12009 0.40812 0.86080
 H177 H -0.14906 0.34228 0.90465
 N178 N 0.22392 0.65068 0.91439
 N179 N 0.24983 0.68426 0.88348
 C180 C 0.21159 0.70571 0.85418
 C181 C 0.16143 0.68434 0.86842
 N182 N 0.17067 0.65036 0.90612
 H183 H 0.12192 0.69319 0.85323
 N184 N 1.17735 0.04368 0.30840
 N185 N 1.19902 0.06780 0.26737
 C186 C 1.16572 0.10816 0.25784
 C187 C 1.12265 0.10770 0.29478
 N188 N 1.13136 0.06690 0.32539
 H189 H 1.08847 0.13434 0.29934
 N190 N 1.07498 -0.19578 0.67172
 N191 N 1.10536 -0.21824 0.70601
 C192 C 1.14942 -0.18899 0.71064
 C193 C 1.14479 -0.14745 0.67751
 N194 N 1.09763 -0.15310 0.65415
 H195 H 1.17240 -0.11605 0.67150
 N196 N 0.75491 -0.10672 0.39974
 N197 N 0.72913 -0.13146 0.36603
 C198 C 0.76817 -0.15765 0.33886
 C199 C 0.81872 -0.14792 0.35701
 N200 N 0.80886 -0.11600 0.39499
 H201 H 0.85883 -0.16081 0.34205
 N202 N 0.90147 0.21188 0.62345
 N203 N 0.88391 0.24074 0.66103
 C204 C 0.86227 0.20997 0.69861
 C205 C 0.86697 0.16088 0.68230
 N206 N 0.89202 0.16372 0.63537
 H207 H 0.85660 0.12642 0.70362
 N208 N 0.34197 1.17983 0.04650
 N209 N 0.30011 1.20056 0.07344
 C210 C 0.27746 1.16346 0.10378
 C211 C 0.30668 1.11916 0.09426
 N212 N 0.34646 1.13094 0.05829
 H213 H 0.30006 1.08215 0.11202
 N214 N 0.74674 1.14659 -0.05542
 N215 N 0.78047 1.18035 -0.07783
 C216 C 0.77822 1.17555 -0.12804
 C217 C 0.74188 1.13762 -0.13567
 N218 N 0.72286 1.12053 -0.08934
 H219 H 0.72856 1.12592 -0.17146
 N220 N 0.37806 0.91527 -0.22777
 N221 N 0.33678 0.89131 -0.24600
 C222 C 0.32372 0.85268 -0.21301
 C223 C 0.35875 0.85377 -0.17401
 N224 N 0.39201 0.89326 -0.18458
 H225 H 0.35776 0.83033 -0.13966
 N226 N 0.57011 0.83838 0.18633
 N227 N 0.60153 0.81703 0.22049
 C228 C 0.65182 0.80922 0.19718
 C229 C 0.65029 0.82662 0.14753
 N230 N 0.59855 0.84481 0.14228
 H231 H 0.68487 0.83058 0.11987
   
