data_POSCAR
  _audit_creation_date              2014-09-24
  _audit_creation_method            'ToBaCCo'
  _symmetry_space_group_name_H-M    'P1'
  _symmetry_Int_Tables_number       1
  _symmetry_cell_setting            triclinic
  loop_
  _symmetry_equiv_pos_as_xyz
 x,y,z
_cell_length_a 20.3975
_cell_length_b 20.3850
_cell_length_c 46.6312
_cell_angle_alpha 91.168300
_cell_angle_beta 91.336000
_cell_angle_gamma 119.468600
loop_
  _atom_site_label
  _atom_site_type_symbol
  _atom_site_fract_x
  _atom_site_fract_y
  _atom_site_fract_z
Si1 Si 0.02371 0.01148 0.49917
 Si2 Si 0.98732 -0.02304 0.16739
 Si3 Si -0.00707 1.01087 0.83347
 O4 O 0.57953 0.04985 -0.02557
 O5 O 0.44779 0.04073 0.02947
 O6 O 0.57910 0.04872 0.03011
 O7 O 0.45786 0.06277 -0.02526
 O8 O 0.39469 -0.06099 -0.03175
 O9 O 0.51722 -0.07537 0.02501
 O10 O 0.38476 -0.08305 0.02334
 O11 O 0.51617 -0.07427 -0.03047
 Cu12 Cu 0.52214 0.06266 0.00266
 Cu13 Cu 0.44684 -0.08563 -0.00400
 C14 C 0.57088 -0.01141 -0.03697
 C15 C 0.39321 -0.02322 0.03563
 C16 C 0.56990 -0.01495 0.03700
 C17 C 0.40516 0.00413 -0.03777
 O18 O 0.07677 0.48096 0.64179
 O19 O 0.06263 0.60360 0.69842
 O20 O 0.07602 0.48211 0.69729
 O21 O 0.08441 0.61345 0.64334
 O22 O -0.03933 0.55036 0.63724
 O23 O -0.04803 0.41859 0.69239
 O24 O -0.06110 0.54026 0.69198
 O25 O -0.04727 0.41901 0.63670
 Cu26 Cu 0.08716 0.55140 0.67074
 Cu27 Cu -0.06107 0.47597 0.66411
 C28 C 0.01634 0.42826 0.62982
 C29 C -0.00244 0.59308 0.70444
 C30 C 0.01327 0.42733 0.70382
 C31 C 0.02454 0.60497 0.63105
 O32 O 0.41050 0.46714 0.36132
 O33 O 0.53253 0.58949 0.30527
 O34 O 0.40012 0.46721 0.30577
 O35 O 0.53278 0.59956 0.36081
 O36 O 0.59696 0.53852 0.36060
 O37 O 0.46100 0.40287 0.30595
 O38 O 0.59262 0.52434 0.30489
 O39 O 0.47548 0.40689 0.36165
 Cu40 Cu 0.46282 0.53703 0.33330
 Cu41 Cu 0.53766 0.46200 0.33327
 C42 C 0.42222 0.41555 0.37089
 C43 C 0.58399 0.57774 0.29567
 C44 C 0.40673 0.41180 0.29671
 C45 C 0.58816 0.59282 0.36986
 C46 C 0.01312 0.19829 0.55464
 C47 C 0.04083 0.15360 0.56655
 C48 C 0.03948 0.09465 0.55037
 C49 C 0.01024 0.07909 0.52202
 C50 C -0.01822 0.12293 0.51006
 C51 C -0.01759 0.18170 0.52637
 C52 C 0.01651 0.26183 0.57188
 C53 C -0.04673 0.27173 0.57302
 C54 C -0.04573 0.32752 0.59120
 C55 C 0.01884 0.37515 0.60838
 C56 C 0.08327 0.36742 0.60630
 C57 C 0.08195 0.31097 0.58833
 H58 H 0.06386 0.06313 0.55983
 H59 H -0.03906 0.11300 0.48793
 H60 H -0.09620 0.33232 0.59225
 H61 H 0.13374 0.40319 0.61929
 H62 H -0.03883 0.21568 0.51664
 H63 H -0.09792 0.23446 0.56066
 H64 H 0.06403 0.16462 0.58836
 H65 H 0.13183 0.30508 0.58753
 C66 C 0.81182 0.78696 0.22246
 C67 C 0.82532 0.76936 0.19467
 C68 C 0.88168 0.82508 0.17859
 C69 C 0.92626 0.89829 0.19038
 C70 C 0.91445 0.91502 0.21844
 C71 C 0.85786 0.85991 0.23434
 C72 C 0.74889 0.73064 0.23899
 C73 C 0.70057 0.75065 0.25296
 C74 C 0.64463 0.69974 0.27040
 C75 C 0.63654 0.62813 0.27448
 C76 C 0.68332 0.60728 0.25974
 C77 C 0.73862 0.65789 0.24199
 H78 H 0.88861 0.81180 0.15665
 H79 H 0.94644 0.97160 0.22776
 H80 H 0.60956 0.71745 0.28149
 H81 H 0.67822 0.55233 0.26239
 H82 H 0.84909 0.87468 0.25580
 H83 H 0.70682 0.80619 0.25067
 H84 H 0.79023 0.71355 0.18501
 H85 H 0.77522 0.64123 0.23147
 C86 C 0.19460 0.03385 -0.11349
 C87 C 0.13606 0.03767 -0.09981
 C88 C 0.07631 0.03527 -0.11589
 C89 C 0.07516 0.03121 -0.14602
 C90 C 0.13597 0.03148 -0.15973
 C91 C 0.19478 0.03169 -0.14356
 C92 C 0.25309 0.02868 -0.09608
 C93 C 0.26138 -0.03566 -0.09835
 C94 C 0.31121 -0.04400 -0.07955
 C95 C 0.35455 0.01273 -0.05869
 C96 C 0.34765 0.07807 -0.05717
 C97 C 0.29680 0.08554 -0.07546
 H98 H 0.03010 0.03344 -0.10443
 H99 H 0.13618 0.02755 -0.18293
 H100 H 0.31555 -0.09479 -0.08121
 H101 H 0.37998 0.12258 -0.04120
 H102 H 0.23972 0.02894 -0.15447
 H103 H 0.22742 -0.08047 -0.11399
 H104 H 0.13486 0.03892 -0.07660
 H105 H 0.29082 0.13534 -0.07332
 C106 C 0.03792 0.83285 0.55582
 C107 C -0.02110 0.84926 0.55780
 C108 C -0.02226 0.90477 0.54133
 C109 C 0.03587 0.94590 0.52274
 C110 C 0.09607 0.93147 0.52096
 C111 C 0.09725 0.87527 0.53752
 C112 C 0.03639 0.77156 0.57297
 C113 C 0.10189 0.78076 0.58725
 C114 C 0.09838 0.72565 0.60553
 C115 C 0.02927 0.66026 0.60993
 C116 C -0.03565 0.64985 0.59482
 C117 C -0.03207 0.70472 0.57648
 H118 H -0.06946 0.91495 0.54285
 H119 H 0.14076 0.96194 0.50633
 H120 H 0.14952 0.73532 0.61684
 H121 H -0.08955 0.59982 0.59749
 H122 H 0.14331 0.86359 0.53545
 H123 H 0.15530 0.83176 0.58512
 H124 H -0.06668 0.81902 0.57213
 H125 H -0.08327 0.69524 0.56528
 C126 C 0.17113 0.17948 0.22314
 C127 C 0.15782 0.10559 0.22632
 C128 C 0.10079 0.04583 0.21010
 C129 C 0.05486 0.05815 0.19072
 C130 C 0.06630 0.13121 0.18773
 C131 C 0.12412 0.19164 0.20390
 C132 C 0.23392 0.24279 0.24002
 C133 C 0.22507 0.30150 0.25210
 C134 C 0.28220 0.35765 0.26982
 C135 C 0.34930 0.35611 0.27597
 C136 C 0.35915 0.29881 0.26317
 C137 C 0.30231 0.24305 0.24529
 H138 H 0.09310 -0.01026 0.21249
 H139 H 0.03229 0.14186 0.17240
 H140 H 0.27280 0.40102 0.27940
 H141 H 0.41043 0.29646 0.26726
 H142 H 0.13334 0.24800 0.20079
 H143 H 0.17297 0.30266 0.24868
 H144 H 0.19161 0.09381 0.24136
 H145 H 0.31169 0.19961 0.23577
 C146 C 0.79833 -0.00567 -0.11062
 C147 C 0.86897 0.06026 -0.11039
 C148 C 0.92665 0.06348 -0.12677
 C149 C 0.91601 0.00041 -0.14315
 C150 C 0.84624 -0.06588 -0.14343
 C151 C 0.78768 -0.06889 -0.12735
 C152 C 0.73692 -0.00816 -0.09316
 C153 C 0.68640 -0.07463 -0.07983
 C154 C 0.63132 -0.07587 -0.06226
 C155 C 0.62601 -0.01043 -0.05723
 C156 C 0.67553 0.05577 -0.07081
 C157 C 0.72986 0.05671 -0.08881
 H158 H 0.97995 0.11561 -0.12665
 H159 H 0.83645 -0.11459 -0.15649
 H160 H 0.59428 -0.12767 -0.05188
 H161 H 0.67228 0.10683 -0.06752
 H162 H 0.73372 -0.12022 -0.12847
 H163 H 0.69070 -0.12528 -0.08223
 H164 H 0.88014 0.10950 -0.09738
 H165 H 0.76646 0.10848 -0.09926
 C166 C 0.16547 -0.03709 0.11071
 C167 C 0.12316 -0.09653 0.12901
 C168 C 0.06708 -0.09541 0.14557
 C169 C 0.05265 -0.03516 0.14379
 C170 C 0.09365 0.02307 0.12519
 C171 C 0.14905 0.02197 0.10872
 C172 C 0.22670 -0.03544 0.09358
 C173 C 0.29348 0.03309 0.09010
 C174 C 0.34832 0.03678 0.07180
 C175 C 0.33794 -0.02809 0.05670
 C176 C 0.27259 -0.09728 0.06106
 C177 C 0.21751 -0.10091 0.07931
 H178 H 0.03671 -0.14017 0.16021
 H179 H 0.08347 0.07031 0.12366
 H180 H 0.39831 0.09074 0.06915
 H181 H 0.26294 -0.14838 0.04976
 H182 H 0.17920 0.06763 0.09439
 H183 H 0.30296 0.08426 0.10130
 H184 H 0.13485 -0.14262 0.13108
 H185 H 0.16655 -0.15437 0.08142
 C186 C 0.82091 0.82802 0.44342
 C187 C 0.80892 0.87497 0.46269
 C188 C 0.86944 0.93270 0.47886
 C189 C 0.94241 0.94409 0.47584
 C190 C 0.95455 0.89821 0.45643
 C191 C 0.89470 0.84128 0.44022
 C192 C 0.75751 0.76532 0.42654
 C193 C 0.75714 0.69689 0.42125
 C194 C 0.70128 0.64014 0.40337
 C195 C 0.64398 0.65014 0.39060
 C196 C 0.64255 0.71728 0.39678
 C197 C 0.69880 0.77432 0.41450
 H198 H 0.85893 0.96667 0.49422
 H199 H 1.01058 0.90587 0.45403
 H200 H 0.70354 0.58882 0.39926
 H201 H 0.59918 0.72680 0.38722
 H202 H 0.90635 0.80754 0.42515
 H203 H 0.80057 0.68739 0.43074
 H204 H 0.75264 0.86578 0.46583
 H205 H 0.69772 0.82646 0.41794
 C206 C 0.00854 0.20042 0.77789
 C207 C 0.07144 0.21189 0.79504
 C208 C 0.06873 0.15371 0.81138
 C209 C 0.00295 0.08327 0.81094
 C210 C -0.05981 0.07190 0.79403
 C211 C -0.05677 0.12930 0.77743
 C212 C 0.01067 0.26158 0.76028
 C213 C -0.05455 0.26781 0.75558
 C214 C -0.05384 0.32205 0.73750
 C215 C 0.01247 0.37225 0.72416
 C216 C 0.07821 0.36770 0.72952
 C217 C 0.07722 0.31275 0.74719
 H218 H 0.11739 0.16463 0.82475
 H219 H -0.11175 0.01832 0.79364
 H220 H -0.10514 0.32468 0.73395
 H221 H 0.13011 0.40527 0.71934
 H222 H -0.10573 0.11756 0.76409
 H223 H -0.10641 0.23065 0.76583
 H224 H 0.12229 0.26627 0.79633
 H225 H 0.12816 0.30910 0.74988
 C226 C 0.80027 -0.01202 0.11206
 C227 C 0.84484 -0.03967 0.10010
 C228 C 0.90387 -0.03843 0.11624
 C229 C 0.91963 -0.00935 0.14460
 C230 C 0.87593 0.01909 0.15660
 C231 C 0.81708 0.01856 0.14033
 C232 C 0.73662 -0.01535 0.09487
 C233 C 0.72669 0.04792 0.09376
 C234 C 0.67078 0.04698 0.07561
 C235 C 0.62308 -0.01755 0.05843
 C236 C 0.63083 -0.08202 0.06049
 C237 C 0.68738 -0.08077 0.07844
 H238 H 0.93529 -0.06279 0.10674
 H239 H 0.88603 0.03980 0.17873
 H240 H 0.66597 0.09749 0.07457
 H241 H 0.59500 -0.13246 0.04751
 H242 H 0.78320 0.03976 0.15010
 H243 H 0.76401 0.09909 0.10611
 H244 H 0.83365 -0.06277 0.07828
 H245 H 0.69330 -0.13068 0.07921
 C246 C 0.21338 0.18730 0.44411
 C247 C 0.14040 0.14136 0.43224
 C248 C 0.08538 0.08468 0.44813
 C249 C 0.10223 0.07267 0.47619
 C250 C 0.17548 0.11715 0.48797
 C251 C 0.23110 0.17361 0.47188
 C252 C 0.26962 0.25034 0.42758
 C253 C 0.34227 0.26054 0.42456
 C254 C 0.39279 0.31594 0.40681
 C255 C 0.37194 0.36288 0.39208
 C256 C 0.30043 0.35486 0.39619
 C257 C 0.24962 0.29881 0.41363
 H258 H 0.02878 0.05277 0.43882
 H259 H 0.18886 0.11007 0.50990
 H260 H 0.44766 0.32098 0.40413
 H261 H 0.28273 0.39005 0.38512
 H262 H 0.28694 0.20862 0.48154
 H263 H 0.35892 0.22381 0.43506
 H264 H 0.12554 0.15028 0.41078
 H265 H 0.19415 0.29262 0.41594
 C266 C -0.03175 0.80422 0.77970
 C267 C -0.03005 0.80397 0.80978
 C268 C -0.02970 0.86298 0.82581
 C269 C -0.02892 0.92385 0.81195
 C270 C -0.03235 0.92297 0.78185
 C271 C -0.03489 0.86308 0.76587
 C272 C -0.02671 0.74554 0.76243
 C273 C -0.08365 0.70168 0.74185
 C274 C -0.07628 0.65067 0.72368
 C275 C -0.01097 0.64379 0.72527
 C276 C 0.04584 0.68729 0.74609
 C277 C 0.03760 0.73726 0.76478
 H278 H -0.02593 0.86311 0.84901
 H279 H -0.02978 0.96969 0.77044
 H280 H -0.12084 0.61823 0.70773
 H281 H 0.09662 0.68297 0.74780
 H282 H -0.03568 0.86441 0.74266
 H283 H -0.13342 0.70767 0.73965
 H284 H -0.02770 0.75885 0.82080
 H285 H 0.08247 0.77136 0.78039
   
