data_POSCAR
  _audit_creation_date              2014-09-24
  _audit_creation_method            'ToBaCCo'
  _symmetry_space_group_name_H-M    'P1'
  _symmetry_Int_Tables_number       1
  _symmetry_cell_setting            triclinic
  loop_
  _symmetry_equiv_pos_as_xyz
 x,y,z
_cell_length_a 18.3202
_cell_length_b 18.3105
_cell_length_c 18.3230
_cell_angle_alpha 89.961500
_cell_angle_beta 89.990300
_cell_angle_gamma 89.984200
loop_
  _atom_site_label
  _atom_site_type_symbol
  _atom_site_fract_x
  _atom_site_fract_y
  _atom_site_fract_z
O1 O 0.60153 0.49986 0.05982
 O2 O 0.39582 0.50014 0.06014
 O3 O 0.49953 0.39974 0.05830
 O4 O 0.50070 0.60382 0.05908
 O5 O 0.50073 0.60788 -0.05910
 O6 O 0.49965 0.39571 -0.06105
 O7 O 0.39587 0.50024 -0.06008
 O8 O 0.60157 0.49994 -0.05976
 Cu9 Cu 0.49908 0.50028 0.06757
 Cu10 Cu 0.49919 0.50067 -0.06842
 C11 C 0.63658 0.49996 0.00020
 C12 C 0.35937 0.50005 0.00002
 C13 C 0.50067 0.36235 0.00033
 C14 C 0.49727 0.64227 0.00120
 O15 O -0.06014 0.60453 0.50017
 O16 O -0.05971 0.39884 0.50046
 O17 O -0.05894 0.50150 0.60892
 O18 O -0.05998 0.50091 0.39837
 O19 O 0.05956 0.50026 0.39785
 O20 O 0.05921 0.50128 0.60286
 O21 O 0.05976 0.39881 0.49992
 O22 O 0.06018 0.60451 0.49968
 Cu23 Cu -0.06830 0.50197 0.50165
 Cu24 Cu 0.06768 0.50196 0.49961
 C25 C 0.00002 0.64082 0.49996
 C26 C 0.00002 0.36362 0.50004
 C27 C 0.00164 0.49728 0.64226
 C28 C 0.00248 0.49773 0.36324
 O29 O 0.49974 0.06020 0.60451
 O30 O 0.50000 0.05977 0.39881
 O31 O 0.39792 0.05968 0.50055
 O32 O 0.60371 0.05915 0.50159
 O33 O 0.60805 -0.05911 0.50171
 O34 O 0.39828 -0.05991 0.50057
 O35 O 0.50040 -0.05973 0.39885
 O36 O 0.50009 -0.06017 0.60454
 Cu37 Cu 0.49986 0.06774 0.50203
 Cu38 Cu 0.50132 -0.06820 0.50201
 C39 C 0.49995 0.00002 0.64083
 C40 C 0.50004 0.00002 0.36361
 C41 C 0.36323 0.00001 0.50000
 C42 C 0.64224 0.00125 0.49723
 O43 O 0.44019 -0.00025 -0.10413
 O44 O 0.44019 -0.00028 0.10203
 O45 O 0.44014 0.10207 -0.00040
 O46 O 0.44150 -0.11024 0.00017
 O47 O 0.55943 -0.10061 -0.00062
 O48 O 0.55976 0.10229 -0.00061
 O49 O 0.55984 0.00013 0.10196
 O50 O 0.55987 0.00033 -0.10422
 Cu51 Cu 0.43165 -0.00171 -0.00050
 Cu52 Cu 0.56760 0.00095 -0.00073
 C53 C 0.50003 0.00002 -0.14010
 C54 C 0.50002 -0.00003 0.13683
 C55 C 0.50025 0.13746 0.00118
 C56 C 0.50306 -0.14227 -0.00120
 O57 O -0.10185 0.55986 1.00027
 O58 O 0.10432 0.55990 1.00016
 O59 O -0.00046 0.55939 0.89915
 O60 O -0.00024 0.55982 1.10217
 O61 O 0.00048 0.44017 1.10166
 O62 O 0.00046 0.44144 0.88965
 O63 O 0.10440 0.44013 0.99976
 O64 O -0.10175 0.44021 0.99965
 Cu65 Cu 0.00092 0.56762 1.00082
 Cu66 Cu 0.00113 0.43164 0.99809
 C67 C -0.13672 0.50003 1.00000
 C68 C 0.14021 0.50003 1.00000
 C69 C -0.00173 0.50293 0.85770
 C70 C 0.00213 0.49788 1.13676
 O71 O -0.00034 -0.10423 0.44017
 O72 O -0.00025 0.10193 0.44020
 O73 O 0.10165 -0.00010 0.44012
 O74 O -0.11028 0.00016 0.44151
 O75 O -0.10063 -0.00064 0.55944
 O76 O 0.10220 -0.00004 0.55974
 O77 O 0.00016 0.10185 0.55983
 O78 O 0.00028 -0.10433 0.55988
 Cu79 Cu -0.00187 -0.00072 0.43164
 Cu80 Cu 0.00087 -0.00091 0.56764
 C81 C 0.00000 -0.14014 0.50003
 C82 C -0.00001 0.13677 0.50003
 C83 C 0.13677 0.00002 0.49991
 C84 C -0.14228 -0.00120 0.50306
 N85 N -0.28484 0.49996 0.99967
 N86 N -0.21515 0.50001 1.00020
 N87 N 0.28661 0.50000 1.00000
 N88 N 0.21826 0.50001 1.00001
 N89 N 0.00002 -0.28654 0.49999
 N90 N 0.00001 -0.21822 0.50001
 N91 N -0.00000 0.28490 0.50000
 N92 N 0.00001 0.21518 0.50000
 N93 N 0.50001 -0.00001 -0.28654
 N94 N 0.49998 0.00001 -0.21821
 N95 N 0.50001 0.00001 0.28490
 N96 N 0.50001 0.00001 0.21520
 N97 N 0.48019 -0.28107 0.00598
 N98 N 0.51490 -0.22011 -0.00537
 N99 N 0.49859 0.28326 0.01635
 N100 N 0.50047 0.21711 -0.01501
 N101 N -0.28107 0.00600 0.48013
 N102 N -0.22013 -0.00535 0.51488
 N103 N 0.28483 -0.00004 0.49996
 N104 N 0.21516 -0.00002 0.49993
 N105 N -0.00276 0.50255 1.28482
 N106 N -0.00180 0.50143 1.21518
 N107 N 0.00859 0.48147 0.71904
 N108 N -0.00813 0.51442 0.78007
   
