data_POSCAR
  _audit_creation_date              2014-09-24
  _audit_creation_method            'ToBaCCo'
  _symmetry_space_group_name_H-M    'P1'
  _symmetry_Int_Tables_number       1
  _symmetry_cell_setting            triclinic
  loop_
  _symmetry_equiv_pos_as_xyz
 x,y,z
_cell_length_a 51.4659
_cell_length_b 49.2956
_cell_length_c 48.3653
_cell_angle_alpha 88.849500
_cell_angle_beta 89.868200
_cell_angle_gamma 91.343900
loop_
  _atom_site_label
  _atom_site_type_symbol
  _atom_site_fract_x
  _atom_site_fract_y
  _atom_site_fract_z
C1 C 0.28376 0.29004 0.24051
 H2 H 0.28361 0.29135 0.26282
 C3 C 0.30003 0.30737 0.22477
 H4 H 0.31246 0.32201 0.23507
 C5 C 0.26808 0.26892 0.20002
 H6 H 0.25576 0.25376 0.19049
 C7 C 0.28430 0.28563 0.18350
 H8 H 0.28403 0.28346 0.16127
 N9 N 0.26791 0.27160 0.22797
 C10 C 0.20626 0.25630 0.28888
 H11 H 0.20667 0.23441 0.29077
 C12 C 0.18876 0.27072 0.30471
 H13 H 0.17603 0.25973 0.31908
 C14 C 0.22272 0.29709 0.26806
 H15 H 0.23560 0.30730 0.25336
 C16 C 0.20547 0.31229 0.28336
 H17 H 0.20535 0.33409 0.28021
 Zn18 Zn 0.24654 0.24878 0.25079
 N19 N 0.22315 0.26965 0.27141
 C20 C 0.26687 0.23097 0.30261
 N21 N 0.26881 0.22917 0.27466
 C22 C 0.28734 0.21391 0.26286
 C23 C 0.30415 0.19875 0.27932
 C24 C 0.28335 0.21623 0.31986
 C25 C 0.20777 0.23614 0.21263
 C26 C 0.19206 0.21983 0.19596
 C27 C 0.21477 0.18059 0.21307
 C28 C 0.22981 0.19761 0.22971
 N29 N 0.22635 0.22490 0.22888
 H30 H 0.25268 0.24393 0.31166
 H31 H 0.28881 0.21325 0.24057
 H32 H 0.31822 0.18611 0.26946
 H33 H 0.28155 0.21805 0.34204
 H34 H 0.20526 0.25787 0.21258
 H35 H 0.17756 0.22912 0.18290
 H36 H 0.21779 0.15892 0.21388
 H37 H 0.24418 0.18893 0.24324
 C38 C 0.18833 0.29915 0.30221
 C39 C 0.30038 0.30528 0.19588
 C40 C 0.19564 0.19170 0.19591
 C41 C 0.30215 0.19962 0.30826
 C42 C 0.78658 0.78978 0.24416
 H43 H 0.78729 0.79007 0.26651
 C44 C 0.80296 0.80712 0.22857
 H45 H 0.81653 0.81993 0.23965
 C46 C 0.76890 0.77099 0.20353
 H47 H 0.75564 0.75681 0.19383
 C48 C 0.78503 0.78784 0.18706
 H49 H 0.78284 0.78669 0.16490
 N50 N 0.76977 0.77245 0.23152
 C51 C 0.70803 0.75717 0.29223
 H52 H 0.70806 0.73524 0.29380
 C53 C 0.69059 0.77167 0.30805
 H54 H 0.67754 0.76071 0.32211
 C55 C 0.72536 0.79795 0.27218
 H56 H 0.73859 0.80813 0.25783
 C57 C 0.70817 0.81324 0.28748
 H58 H 0.70843 0.83508 0.28462
 Zn59 Zn 0.74844 0.74955 0.25430
 N60 N 0.72526 0.77045 0.27510
 C61 C 0.76845 0.73094 0.30596
 N62 N 0.77070 0.72973 0.27799
 C63 C 0.78949 0.71489 0.26608
 C64 C 0.80630 0.69961 0.28242
 C65 C 0.78487 0.71601 0.32309
 C66 C 0.70924 0.73693 0.21645
 C67 C 0.69352 0.72057 0.19983
 C68 C 0.71670 0.68147 0.21647
 C69 C 0.73177 0.69853 0.23302
 N70 N 0.72809 0.72577 0.23240
 H71 H 0.75402 0.74353 0.31513
 H72 H 0.79117 0.71468 0.24378
 H73 H 0.82063 0.68734 0.27248
 H74 H 0.78280 0.71730 0.34530
 H75 H 0.70654 0.75863 0.21658
 H76 H 0.67884 0.72982 0.18696
 H77 H 0.71991 0.65983 0.21713
 H78 H 0.74636 0.68990 0.24632
 C79 C 0.69061 0.80014 0.30591
 C80 C 0.80248 0.80657 0.19936
 C81 C 0.69734 0.69249 0.19955
 C82 C 0.80396 0.69986 0.31136
 C83 C 0.78461 0.29091 0.74164
 H84 H 0.78458 0.29221 0.76394
 C85 C 0.80086 0.30820 0.72581
 H86 H 0.81339 0.32279 0.73604
 C87 C 0.76865 0.26987 0.70123
 H88 H 0.75624 0.25475 0.69176
 C89 C 0.78484 0.28652 0.68463
 H90 H 0.78445 0.28435 0.66239
 N91 N 0.76865 0.27252 0.72918
 C92 C 0.70678 0.25699 0.78982
 H93 H 0.70706 0.23508 0.79151
 C94 C 0.68922 0.27135 0.80563
 H95 H 0.67633 0.26030 0.81979
 C96 C 0.72358 0.29788 0.76951
 H97 H 0.73661 0.30815 0.75502
 C98 C 0.70627 0.31302 0.78480
 H99 H 0.70627 0.33485 0.78185
 Zn100 Zn 0.74736 0.24964 0.75202
 N101 N 0.72386 0.27040 0.77262
 C102 C 0.76716 0.23099 0.80377
 N103 N 0.76967 0.23006 0.77588
 C104 C 0.78883 0.21575 0.76414
 C105 C 0.80587 0.20078 0.78050
 C106 C 0.78365 0.21628 0.82101
 C107 C 0.70838 0.23675 0.71421
 C108 C 0.69269 0.22034 0.69762
 C109 C 0.71620 0.18135 0.71403
 C110 C 0.73123 0.19847 0.73058
 N111 N 0.72731 0.22567 0.73010
 H112 H 0.75254 0.24340 0.81286
 H113 H 0.79062 0.21561 0.74184
 H114 H 0.81963 0.18866 0.76966
 H115 H 0.78122 0.21883 0.84297
 H116 H 0.70556 0.25843 0.71440
 H117 H 0.67789 0.22951 0.68487
 H118 H 0.71956 0.15974 0.71458
 H119 H 0.74595 0.18993 0.74377
 C120 C 0.68894 0.29980 0.80340
 C121 C 0.80107 0.30610 0.69691
 C122 C 0.69666 0.19228 0.69728
 C123 C 0.80355 0.20036 0.80975
 C124 C 0.28720 0.78836 0.74374
 H125 H 0.28819 0.78828 0.76609
 C126 C 0.30358 0.80572 0.72817
 H127 H 0.31733 0.81883 0.73872
 C128 C 0.26849 0.77069 0.70296
 H129 H 0.25495 0.75685 0.69320
 C130 C 0.28452 0.78772 0.68657
 H131 H 0.28276 0.78711 0.66429
 N132 N 0.26991 0.77152 0.73100
 C133 C 0.20806 0.75611 0.79150
 H134 H 0.20796 0.73417 0.79289
 C135 C 0.19059 0.77060 0.80729
 H136 H 0.17738 0.75961 0.82116
 C137 C 0.22577 0.79694 0.77193
 H138 H 0.23919 0.80714 0.75778
 C139 C 0.20855 0.81222 0.78720
 H140 H 0.20896 0.83408 0.78452
 Zn141 Zn 0.24860 0.74855 0.75373
 N142 N 0.22547 0.76942 0.77460
 C143 C 0.26847 0.72976 0.80535
 N144 N 0.27084 0.72865 0.77738
 C145 C 0.28971 0.71390 0.76550
 C146 C 0.30650 0.69863 0.78188
 C147 C 0.28486 0.71484 0.82250
 C148 C 0.20921 0.73603 0.71607
 C149 C 0.19347 0.71974 0.69940
 C150 C 0.21697 0.68064 0.71551
 C151 C 0.23206 0.69764 0.73211
 N152 N 0.22823 0.72486 0.73177
 H153 H 0.25396 0.74228 0.81449
 H154 H 0.29149 0.71377 0.74321
 H155 H 0.32092 0.68644 0.77197
 H156 H 0.28270 0.71606 0.84471
 H157 H 0.20638 0.75770 0.71642
 H158 H 0.17866 0.72900 0.68672
 H159 H 0.22031 0.65903 0.71594
 H160 H 0.24678 0.68899 0.74521
 C161 C 0.19077 0.79909 0.80537
 C162 C 0.30231 0.80563 0.69916
 C163 C 0.19745 0.69169 0.69882
 C164 C 0.30405 0.69879 0.81081
 C165 C 0.03609 0.04183 0.00832
 H166 H 0.03731 0.04447 -0.01391
 C167 C 0.05103 0.05847 0.02542
 H168 H 0.06370 0.07405 0.01626
 C169 C 0.01790 0.01838 0.04731
 H170 H 0.00514 0.00255 0.05572
 C171 C 0.03221 0.03483 0.06518
 H172 H 0.03042 0.03150 0.08731
 N173 N 0.02014 0.02210 0.01945
 C174 C 0.01328 -0.03891 -0.04459
 H175 H -0.00755 -0.04044 -0.04732
 C176 C 0.02953 -0.05485 -0.06036
 H177 H 0.02100 -0.06813 -0.07560
 C178 C 0.04955 -0.01966 -0.02143
 H179 H 0.05733 -0.00629 -0.00594
 C180 C 0.06649 -0.03533 -0.03664
 H181 H 0.08713 -0.03378 -0.03253
 Zn182 Zn 0.00063 0.00015 -0.00496
 N183 N 0.02347 -0.02140 -0.02587
 C184 C -0.01859 0.02088 -0.05656
 N185 N -0.01840 0.02373 -0.02862
 C186 C -0.03131 0.04420 -0.01660
 C187 C -0.04597 0.06205 -0.03261
 C188 C -0.03307 0.03823 -0.07335
 C189 C -0.01830 -0.05023 0.01701
 C190 C -0.03488 -0.06768 0.03226
 C191 C -0.05987 -0.02905 0.04513
 C192 C -0.04288 -0.01234 0.02954
 N193 N -0.02260 -0.02309 0.01573
 H194 H -0.00765 0.00517 -0.06603
 H195 H -0.02993 0.04697 0.00545
 H196 H -0.05597 0.07826 -0.02258
 H197 H -0.03350 0.03510 -0.09543
 H198 H -0.00175 -0.05842 0.00657
 H199 H -0.03091 -0.08915 0.03328
 H200 H -0.07602 -0.02010 0.05574
 H201 H -0.04585 0.00923 0.02869
 C202 C 0.05657 -0.05308 -0.05659
 C203 C 0.04915 0.05506 0.05423
 C204 C -0.05600 -0.05713 0.04659
 C205 C -0.04722 0.05902 -0.06138
 C206 C 0.03997 0.54021 0.51071
 H207 H 0.04228 0.54188 0.48850
 C208 C 0.05488 0.55682 0.52786
 H209 H 0.06865 0.57136 0.51874
 C210 C 0.01878 0.51955 0.54956
 H211 H 0.00452 0.50518 0.55792
 C212 C 0.03306 0.53601 0.56747
 H213 H 0.02995 0.53386 0.58956
 N214 N 0.02267 0.52172 0.52176
 C215 C 0.01441 0.46159 0.45703
 H216 H -0.00648 0.46088 0.45451
 C217 C 0.03002 0.44549 0.44069
 H218 H 0.02097 0.43275 0.42530
 C219 C 0.05146 0.47941 0.47998
 H220 H 0.05976 0.49220 0.49567
 C221 C 0.06777 0.46358 0.46419
 H222 H 0.08849 0.46448 0.46799
 Zn223 Zn 0.00308 0.50009 0.49710
 N224 N 0.02533 0.47853 0.47582
 C225 C -0.01335 0.52410 0.44609
 N226 N -0.01586 0.52407 0.47410
 C227 C -0.03157 0.54185 0.48675
 C228 C -0.04636 0.55986 0.47111
 C229 C -0.02774 0.54183 0.42963
 C230 C -0.00888 0.45636 0.53287
 C231 C -0.02454 0.43819 0.54836
 C232 C -0.06237 0.46104 0.53098
 C233 C -0.04600 0.47857 0.51557
 N234 N -0.01975 0.47623 0.51713
 H235 H -0.00024 0.51038 0.43638
 H236 H -0.03275 0.54183 0.50909
 H237 H -0.05881 0.57379 0.48159
 H238 H -0.02594 0.54110 0.40735
 H239 H 0.01205 0.45479 0.53352
 H240 H -0.01556 0.42275 0.56112
 H241 H -0.08322 0.46323 0.52962
 H242 H -0.05435 0.49402 0.50245
 C243 C 0.05714 0.44653 0.44401
 C244 C 0.05151 0.55479 0.55664
 C245 C -0.05165 0.44060 0.54771
 C246 C -0.04472 0.55985 0.44212
 C247 C 0.53676 0.04302 0.50971
 H248 H 0.53811 0.04568 0.48749
 C249 C 0.55170 0.05954 0.52692
 H250 H 0.56450 0.07506 0.51785
 C251 C 0.51824 0.01961 0.54855
 H252 H 0.50532 0.00387 0.55685
 C253 C 0.53256 0.03595 0.56654
 H254 H 0.53064 0.03258 0.58865
 N255 N 0.52068 0.02334 0.52072
 C256 C 0.51393 -0.03752 0.45660
 H257 H 0.49307 -0.03903 0.45398
 C258 C 0.53010 -0.05349 0.44078
 H259 H 0.52150 -0.06680 0.42561
 C260 C 0.55030 -0.01820 0.47952
 H261 H 0.55814 -0.00481 0.49496
 C262 C 0.56717 -0.03389 0.46425
 H263 H 0.58784 -0.03234 0.46824
 Zn264 Zn 0.50132 0.00142 0.49620
 N265 N 0.52421 -0.01997 0.47522
 C266 C 0.48272 0.02262 0.44456
 N267 N 0.48225 0.02499 0.47256
 C268 C 0.46874 0.04501 0.48462
 C269 C 0.45396 0.06271 0.46859
 C270 C 0.46827 0.03997 0.42773
 C271 C 0.48385 -0.04895 0.51917
 C272 C 0.46765 -0.06675 0.53447
 C273 C 0.44031 -0.02915 0.54492
 C274 C 0.45704 -0.01207 0.52943
 N275 N 0.47828 -0.02215 0.51676
 H276 H 0.49419 0.00732 0.43510
 H277 H 0.46970 0.04750 0.50674
 H278 H 0.44333 0.07848 0.47863
 H279 H 0.46840 0.03733 0.40556
 H280 H 0.50114 -0.05655 0.50962
 H281 H 0.47269 -0.08789 0.53645
 H282 H 0.42335 -0.02074 0.55451
 H283 H 0.45300 0.00924 0.52769
 C284 C 0.55716 -0.05170 0.44440
 C285 C 0.54968 0.05607 0.55572
 C286 C 0.44552 -0.05691 0.54761
 C287 C 0.45339 0.06014 0.43976
 C288 C 0.54003 0.54056 0.01171
 H289 H 0.54240 0.54217 -0.01050
 C290 C 0.55491 0.55719 0.02887
 H291 H 0.56872 0.57170 0.01975
 C292 C 0.51872 0.52001 0.05055
 H293 H 0.50443 0.50567 0.05890
 C294 C 0.53296 0.53651 0.06846
 H295 H 0.52980 0.53441 0.09055
 N296 N 0.52268 0.52211 0.02276
 C297 C 0.51468 0.46189 -0.04189
 H298 H 0.49380 0.46118 -0.04451
 C299 C 0.53035 0.44578 -0.05817
 H300 H 0.52135 0.43305 -0.07359
 C301 C 0.55165 0.47970 -0.01879
 H302 H 0.55989 0.49249 -0.00306
 C303 C 0.56801 0.46386 -0.03450
 H304 H 0.58872 0.46475 -0.03060
 Zn305 Zn 0.50319 0.50042 -0.00193
 N306 N 0.52553 0.47883 -0.02307
 C307 C 0.48701 0.52433 -0.05308
 N308 N 0.48433 0.52433 -0.02508
 C309 C 0.46848 0.54207 -0.01256
 C310 C 0.45370 0.55999 -0.02834
 C311 C 0.47264 0.54197 -0.06965
 C312 C 0.49113 0.45674 0.03388
 C313 C 0.47541 0.43850 0.04923
 C314 C 0.43763 0.46120 0.03151
 C315 C 0.45406 0.47880 0.01625
 N316 N 0.48031 0.47656 0.01803
 H317 H 0.50022 0.51066 -0.06267
 H318 H 0.46717 0.54208 0.00977
 H319 H 0.44113 0.57388 -0.01796
 H320 H 0.47456 0.54121 -0.09192
 H321 H 0.51206 0.45525 0.03469
 H322 H 0.48435 0.42309 0.06206
 H323 H 0.41678 0.46329 0.02995
 H324 H 0.44575 0.49420 0.00303
 C325 C 0.55745 0.44681 -0.05473
 C326 C 0.55146 0.55523 0.05763
 C327 C 0.44830 0.44080 0.04832
 C328 C 0.45551 0.55993 -0.05731
 C329 C 0.14695 -0.19438 -0.17285
 C330 C 0.12993 -0.17928 -0.15705
 C331 C 0.13811 -0.15447 -0.14608
 C332 C 0.16370 -0.14495 -0.15092
 C333 C 0.18077 -0.16008 -0.16656
 C334 C 0.17259 -0.18495 -0.17781
 N335 N 0.12017 -0.13940 -0.13012
 N336 N 0.12589 -0.11584 -0.12134
 C337 C 0.10820 -0.10064 -0.10522
 C338 C 0.11519 -0.07409 -0.09819
 C339 C 0.09843 -0.05862 -0.08250
 C340 C 0.07434 -0.06957 -0.07336
 C341 C 0.06741 -0.09634 -0.08041
 C342 C 0.08415 -0.11173 -0.09625
 H343 H 0.13989 -0.21324 -0.18150
 H344 H 0.11025 -0.18681 -0.15351
 H345 H 0.17055 -0.12591 -0.14249
 H346 H 0.20049 -0.15245 -0.16955
 H347 H 0.13364 -0.06530 -0.10505
 H348 H 0.10421 -0.03796 -0.07785
 H349 H 0.04921 -0.10554 -0.07337
 H350 H 0.07839 -0.13229 -0.10130
 C351 C 0.14492 0.30534 0.32506
 C352 C 0.12811 0.32039 0.34117
 C353 C 0.13627 0.34541 0.35167
 C354 C 0.16160 0.35524 0.34597
 C355 C 0.17846 0.34019 0.32998
 C356 C 0.17032 0.31507 0.31926
 N357 N 0.11860 0.36038 0.36809
 N358 N 0.12448 0.38392 0.37680
 C359 C 0.10718 0.39910 0.39342
 C360 C 0.11462 0.42544 0.40075
 C361 C 0.09835 0.44086 0.41705
 C362 C 0.07429 0.43009 0.42649
 C363 C 0.06686 0.40357 0.41905
 C364 C 0.08313 0.38821 0.40262
 H365 H 0.13792 0.28626 0.31684
 H366 H 0.10862 0.31261 0.34538
 H367 H 0.16845 0.37446 0.35399
 H368 H 0.19801 0.34806 0.32633
 H369 H 0.13307 0.43408 0.39371
 H370 H 0.10450 0.46135 0.42199
 H371 H 0.04864 0.39454 0.42626
 H372 H 0.07701 0.36781 0.39731
 C373 C 0.64695 -0.19337 0.32809
 C374 C 0.63003 -0.17823 0.34396
 C375 C 0.63822 -0.15333 0.35470
 C376 C 0.66373 -0.14373 0.34954
 C377 C 0.68071 -0.15889 0.33381
 C378 C 0.67252 -0.18387 0.32280
 N379 N 0.62037 -0.13822 0.37075
 N380 N 0.62612 -0.11461 0.37938
 C381 C 0.60852 -0.09938 0.39558
 C382 C 0.61554 -0.07280 0.40249
 C383 C 0.59887 -0.05730 0.41825
 C384 C 0.57484 -0.06823 0.42758
 C385 C 0.56788 -0.09502 0.42065
 C386 C 0.58454 -0.11045 0.40475
 H387 H 0.63989 -0.21231 0.31963
 H388 H 0.61040 -0.18582 0.34775
 H389 H 0.67059 -0.12461 0.35777
 H390 H 0.70038 -0.15120 0.33057
 H391 H 0.63395 -0.06403 0.39548
 H392 H 0.60467 -0.03662 0.42281
 H393 H 0.54972 -0.10421 0.42784
 H394 H 0.57874 -0.13104 0.39979
 C395 C 0.64542 0.30601 -0.17401
 C396 C 0.62858 0.32101 -0.15788
 C397 C 0.63678 0.34590 -0.14712
 C398 C 0.66219 0.35565 -0.15256
 C399 C 0.67907 0.34065 -0.16855
 C400 C 0.67089 0.31567 -0.17955
 N401 N 0.61907 0.36084 -0.13071
 N402 N 0.62498 0.38431 -0.12182
 C403 C 0.60764 0.39945 -0.10522
 C404 C 0.61508 0.42576 -0.09777
 C405 C 0.59878 0.44115 -0.08150
 C406 C 0.57467 0.43039 -0.07219
 C407 C 0.56724 0.40390 -0.07973
 C408 C 0.58356 0.38856 -0.09614
 H409 H 0.63838 0.28704 -0.18244
 H410 H 0.60903 0.31330 -0.15388
 H411 H 0.66907 0.37477 -0.14432
 H412 H 0.69868 0.34845 -0.17199
 H413 H 0.63357 0.43440 -0.10473
 H414 H 0.60492 0.46162 -0.07649
 H415 H 0.54899 0.39486 -0.07261
 H416 H 0.57744 0.36819 -0.10153
 C417 C -0.18719 0.17809 -0.14596
 C418 C -0.17103 0.16231 -0.12933
 C419 C -0.14751 0.15318 -0.13949
 C420 C -0.14012 0.16009 -0.16666
 C421 C -0.15621 0.17578 -0.18348
 C422 C -0.18035 0.18524 -0.17368
 N423 N -0.13173 0.13665 -0.12192
 N424 N -0.10976 0.12811 -0.12959
 C425 C -0.09427 0.11126 -0.11203
 C426 C -0.06998 0.10320 -0.12145
 C427 C -0.05457 0.08641 -0.10499
 C428 C -0.06329 0.07730 -0.07874
 C429 C -0.08770 0.08555 -0.06930
 C430 C -0.10304 0.10238 -0.08576
 H431 H -0.20565 0.18314 -0.13700
 H432 H -0.17708 0.15685 -0.10845
 H433 H -0.12181 0.15346 -0.17492
 H434 H -0.14866 0.18127 -0.20372
 H435 H -0.06298 0.10996 -0.14163
 H436 H -0.03574 0.08075 -0.11271
 H437 H -0.09515 0.07858 -0.04938
 H438 H -0.12182 0.10822 -0.07805
 C439 C -0.18897 0.66954 0.35285
 C440 C -0.17301 0.65348 0.36942
 C441 C -0.14678 0.65068 0.36271
 C442 C -0.13653 0.66430 0.33917
 C443 C -0.15248 0.68040 0.32257
 C444 C -0.17891 0.68315 0.32918
 N445 N -0.13114 0.63371 0.37998
 N446 N -0.10729 0.62970 0.37485
 C447 C -0.09189 0.61251 0.39217
 C448 C -0.06594 0.60841 0.38501
 C449 C -0.05053 0.59141 0.40125
 C450 C -0.06087 0.57826 0.42504
 C451 C -0.08691 0.58257 0.43226
 C452 C -0.10230 0.59951 0.41598
 H453 H -0.20931 0.67090 0.35830
 H454 H -0.18114 0.64301 0.38746
 H455 H -0.11627 0.66251 0.33361
 H456 H -0.14406 0.69091 0.30470
 H457 H -0.05767 0.61836 0.36675
 H458 H -0.03046 0.58875 0.39534
 H459 H -0.09553 0.57245 0.45024
 H460 H -0.12233 0.60230 0.42192
 C461 C 0.30954 0.17041 0.35054
 C462 C 0.32555 0.15455 0.36726
 C463 C 0.35155 0.15094 0.36003
 C464 C 0.36153 0.16362 0.33586
 C465 C 0.34556 0.17958 0.31914
 C466 C 0.31933 0.18309 0.32624
 N467 N 0.36723 0.13419 0.37747
 N468 N 0.39066 0.12891 0.37153
 C469 C 0.40614 0.11202 0.38907
 C470 C 0.43128 0.10578 0.38062
 C471 C 0.44672 0.08900 0.39706
 C472 C 0.43724 0.07827 0.42239
 C473 C 0.41204 0.08475 0.43092
 C474 C 0.39659 0.10142 0.41441
 H475 H 0.28936 0.17233 0.35640
 H476 H 0.31762 0.14481 0.38580
 H477 H 0.38162 0.16124 0.32990
 H478 H 0.35382 0.18938 0.30080
 H479 H 0.43889 0.11388 0.36117
 H480 H 0.46616 0.08462 0.39009
 H481 H 0.40409 0.07653 0.45016
 H482 H 0.37720 0.10592 0.42140
 C483 C 0.31106 0.66842 -0.14773
 C484 C 0.32703 0.65246 -0.13107
 C485 C 0.35332 0.64983 -0.13762
 C486 C 0.36360 0.66352 -0.16110
 C487 C 0.34765 0.67952 -0.17780
 C488 C 0.32117 0.68211 -0.17133
 N489 N 0.36897 0.63302 -0.12022
 N490 N 0.39289 0.62918 -0.12517
 C491 C 0.40830 0.61215 -0.10771
 C492 C 0.43432 0.60821 -0.11468
 C493 C 0.44975 0.59136 -0.09829
 C494 C 0.43935 0.57820 -0.07453
 C495 C 0.41324 0.58236 -0.06750
 C496 C 0.39784 0.59915 -0.08393
 H497 H 0.29069 0.66966 -0.14239
 H498 H 0.31887 0.64194 -0.11307
 H499 H 0.38391 0.66186 -0.16654
 H500 H 0.35610 0.69008 -0.19561
 H501 H 0.44263 0.61817 -0.13291
 H502 H 0.46987 0.58882 -0.10407
 H503 H 0.40457 0.57223 -0.04954
 H504 H 0.37775 0.60181 -0.07812
 C505 C -0.17133 -0.15099 0.19342
 C506 C -0.15518 -0.13377 0.17736
 C507 C -0.14811 -0.14080 0.15062
 C508 C -0.15749 -0.16536 0.13991
 C509 C -0.17376 -0.18261 0.15582
 C510 C -0.18104 -0.17587 0.18303
 N511 N -0.13140 -0.12268 0.13486
 N512 N -0.12358 -0.12818 0.11068
 C513 C -0.10686 -0.11001 0.09498
 C514 C -0.09822 -0.11784 0.06895
 C515 C -0.08173 -0.10069 0.05318
 C516 C -0.07367 -0.07528 0.06321
 C517 C -0.08249 -0.06741 0.08933
 C518 C -0.09891 -0.08462 0.10511
 H519 H -0.17688 -0.14397 0.21358
 H520 H -0.14823 -0.11474 0.18577
 H521 H -0.15213 -0.17134 0.11929
 H522 H -0.17960 -0.20172 0.14689
 H523 H -0.10428 -0.13732 0.06088
 H524 H -0.07550 -0.10718 0.03301
 H525 H -0.07637 -0.04811 0.09775
 H526 H -0.10530 -0.07812 0.12521
 C527 C -0.18030 0.35222 0.68476
 C528 C -0.16431 0.36938 0.66844
 C529 C -0.14939 0.35890 0.64711
 C530 C -0.15080 0.33093 0.64203
 C531 C -0.16703 0.31378 0.65811
 C532 C -0.18186 0.32425 0.67971
 N533 N -0.13314 0.37708 0.63089
 N534 N -0.11671 0.36867 0.61352
 C535 C -0.10076 0.38699 0.59713
 C536 C -0.08052 0.37662 0.58144
 C537 C -0.06445 0.39402 0.56544
 C538 C -0.06866 0.42209 0.56459
 C539 C -0.08916 0.43242 0.58013
 C540 C -0.10501 0.41506 0.59639
 H541 H -0.19172 0.36083 0.70109
 H542 H -0.16345 0.39091 0.67249
 H543 H -0.13949 0.32237 0.62559
 H544 H -0.16775 0.29227 0.65394
 H545 H -0.07711 0.35503 0.58177
 H546 H -0.04892 0.38552 0.55346
 H547 H -0.09268 0.45400 0.58002
 H548 H -0.12058 0.42355 0.60827
 C549 C 0.32456 -0.14912 0.69042
 C550 C 0.34067 -0.13175 0.67446
 C551 C 0.35189 -0.14074 0.65004
 C552 C 0.34683 -0.16747 0.64164
 C553 C 0.33073 -0.18489 0.65759
 C554 C 0.31941 -0.17591 0.68217
 N555 N 0.36833 -0.12238 0.63425
 N556 N 0.37887 -0.12907 0.61162
 C557 C 0.39537 -0.11067 0.59595
 C558 C 0.40598 -0.11924 0.57104
 C559 C 0.42223 -0.10182 0.55529
 C560 C 0.42816 -0.07542 0.56425
 C561 C 0.41744 -0.06687 0.58931
 C562 C 0.40119 -0.08431 0.60502
 H563 H 0.31586 -0.14146 0.70902
 H564 H 0.34437 -0.11117 0.68110
 H565 H 0.35536 -0.17494 0.62287
 H566 H 0.32744 -0.20550 0.65087
 H567 H 0.40159 -0.13948 0.56380
 H568 H 0.42990 -0.10889 0.53593
 H569 H 0.42192 -0.04682 0.59699
 H570 H 0.39330 -0.07724 0.62428
 C571 C 0.31883 0.35151 0.18386
 C572 C 0.33484 0.36877 0.16770
 C573 C 0.34999 0.35840 0.14649
 C574 C 0.34875 0.33043 0.14136
 C575 C 0.33248 0.31318 0.15729
 C576 C 0.31745 0.32354 0.17878
 N577 N 0.36629 0.37668 0.13046
 N578 N 0.38294 0.36838 0.11326
 C579 C 0.39897 0.38682 0.09708
 C580 C 0.41942 0.37660 0.08160
 C581 C 0.43557 0.39411 0.06582
 C582 C 0.43123 0.42216 0.06499
 C583 C 0.41052 0.43235 0.08032
 C584 C 0.39459 0.41486 0.09636
 H585 H 0.30724 0.36004 0.20011
 H586 H 0.33557 0.39030 0.17178
 H587 H 0.36023 0.32195 0.12501
 H588 H 0.33190 0.29167 0.15309
 H589 H 0.42293 0.35502 0.08192
 H590 H 0.45125 0.38572 0.05399
 H591 H 0.40689 0.45391 0.08022
 H592 H 0.37885 0.42325 0.10809
 C593 C 0.19130 0.15428 0.16186
 C594 C 0.17623 0.13785 0.14463
 C595 C 0.14925 0.14058 0.14352
 C596 C 0.13742 0.16020 0.15971
 C597 C 0.15253 0.17692 0.17666
 C598 C 0.17960 0.17405 0.17796
 N599 N 0.13441 0.12342 0.12561
 N600 N 0.10970 0.12199 0.12647
 C601 C 0.09494 0.10517 0.10817
 C602 C 0.06836 0.10083 0.11318
 C603 C 0.05346 0.08438 0.09578
 C604 C 0.06490 0.07238 0.07277
 C605 C 0.09153 0.07699 0.06760
 C606 C 0.10649 0.09311 0.08524
 H607 H 0.21216 0.15185 0.16230
 H608 H 0.18557 0.12287 0.13216
 H609 H 0.11660 0.16276 0.15911
 H610 H 0.14304 0.19190 0.18901
 H611 H 0.05923 0.11009 0.13072
 H612 H 0.03292 0.08132 0.10006
 H613 H 0.10083 0.06781 0.05011
 H614 H 0.12699 0.09626 0.08088
 C615 C 0.19320 0.65437 0.66462
 C616 C 0.17817 0.63789 0.64740
 C617 C 0.15118 0.64050 0.64633
 C618 C 0.13929 0.66005 0.66258
 C619 C 0.15434 0.67678 0.67956
 C620 C 0.18144 0.67404 0.68081
 N621 N 0.13640 0.62327 0.62845
 N622 N 0.11167 0.62218 0.62886
 C623 C 0.09702 0.60519 0.61061
 C624 C 0.07019 0.60195 0.61466
 C625 C 0.05537 0.58543 0.59726
 C626 C 0.06718 0.57217 0.57523
 C627 C 0.09409 0.57563 0.57105
 C628 C 0.10893 0.59188 0.58867
 H629 H 0.21407 0.65204 0.66498
 H630 H 0.18755 0.62297 0.63490
 H631 H 0.11845 0.66249 0.66202
 H632 H 0.14479 0.69165 0.69198
 H633 H 0.06078 0.61217 0.63143
 H634 H 0.03462 0.58330 0.60076
 H635 H 0.10369 0.56546 0.55436
 H636 H 0.12965 0.59413 0.58506
 C637 C 0.69226 0.15499 0.66308
 C638 C 0.67713 0.13853 0.64592
 C639 C 0.65011 0.14103 0.64515
 C640 C 0.63830 0.16042 0.66165
 C641 C 0.65345 0.17715 0.67854
 C642 C 0.68057 0.17454 0.67946
 N643 N 0.63522 0.12393 0.62724
 N644 N 0.61052 0.12244 0.62824
 C645 C 0.59569 0.10570 0.60991
 C646 C 0.56910 0.10145 0.61491
 C647 C 0.55412 0.08516 0.59743
 C648 C 0.56551 0.07321 0.57436
 C649 C 0.59216 0.07771 0.56922
 C650 C 0.60719 0.09369 0.58693
 H651 H 0.71314 0.15276 0.66322
 H652 H 0.68646 0.12374 0.63322
 H653 H 0.61744 0.16279 0.66133
 H654 H 0.64397 0.19194 0.69112
 H655 H 0.56001 0.11069 0.63249
 H656 H 0.53358 0.08219 0.60170
 H657 H 0.60142 0.06855 0.55169
 H658 H 0.62769 0.09677 0.58256
 C659 C 0.69307 0.65490 0.16566
 C660 C 0.67804 0.63835 0.14850
 C661 C 0.65107 0.64109 0.14726
 C662 C 0.63920 0.66084 0.16326
 C663 C 0.65425 0.67765 0.18018
 C664 C 0.68133 0.67477 0.18160
 N665 N 0.63630 0.62379 0.12944
 N666 N 0.61157 0.62278 0.12976
 C667 C 0.59693 0.60573 0.11155
 C668 C 0.57009 0.60256 0.11554
 C669 C 0.55528 0.58600 0.09817
 C670 C 0.56712 0.57263 0.07622
 C671 C 0.59405 0.57601 0.07212
 C672 C 0.60888 0.59230 0.08971
 H673 H 0.71392 0.65246 0.16616
 H674 H 0.68741 0.62328 0.13619
 H675 H 0.61838 0.66339 0.16257
 H676 H 0.64472 0.69268 0.19241
 H677 H 0.56065 0.61288 0.13224
 H678 H 0.53452 0.58393 0.10161
 H679 H 0.60367 0.56576 0.05549
 H680 H 0.62960 0.59450 0.08615
   
