data_POSCAR
  _audit_creation_date              2014-09-24
  _audit_creation_method            'ToBaCCo'
  _symmetry_space_group_name_H-M    'P1'
  _symmetry_Int_Tables_number       1
  _symmetry_cell_setting            triclinic
  loop_
  _symmetry_equiv_pos_as_xyz
 x,y,z
_cell_length_a 46.9398
_cell_length_b 46.8711
_cell_length_c 28.5972
_cell_angle_alpha 89.997000
_cell_angle_beta 89.797800
_cell_angle_gamma 90.015200
loop_
  _atom_site_label
  _atom_site_type_symbol
  _atom_site_fract_x
  _atom_site_fract_y
  _atom_site_fract_z
C1 C -0.00118 0.26673 -0.02242
 C2 C -0.00024 0.26672 0.02526
 C3 C -0.02663 0.26760 0.05404
 C4 C 0.02717 0.26492 0.05098
 C5 C 0.02521 0.26758 -0.05120
 C6 C -0.02857 0.26500 -0.04817
 C7 C -0.04693 0.28931 0.04793
 C8 C -0.07241 0.28890 0.07340
 C9 C -0.07770 0.26696 0.10563
 C10 C -0.05711 0.24577 0.11286
 C11 C -0.03168 0.24617 0.08735
 C12 C 0.03405 0.28579 0.08432
 C13 C 0.05997 0.28457 0.10818
 C14 C 0.07916 0.26235 0.09923
 C15 C 0.07218 0.24117 0.06667
 C16 C 0.04626 0.24235 0.04284
 C17 C 0.03022 0.24614 -0.08452
 C18 C 0.05564 0.24575 -0.11006
 C19 C 0.07621 0.26690 -0.10283
 C20 C 0.07102 0.28882 -0.07063
 C21 C 0.04556 0.28926 -0.04510
 C22 C -0.04773 0.24246 -0.04007
 C23 C -0.07359 0.24128 -0.06411
 C24 C -0.08044 0.26241 -0.09681
 C25 C -0.06120 0.28461 -0.10567
 C26 C -0.03534 0.28584 -0.08162
 H27 H -0.04319 0.30629 0.02297
 H28 H -0.08805 0.30553 0.06747
 H29 H -0.06082 0.22865 0.13767
 H30 H -0.01623 0.22932 0.09269
 H31 H 0.01951 0.30323 0.09132
 H32 H 0.06510 0.30101 0.13342
 H33 H 0.04110 0.22573 0.01796
 H34 H 0.01476 0.22931 -0.08986
 H35 H 0.05944 0.22870 -0.13490
 H36 H 0.08676 0.30534 -0.06488
 H37 H 0.04188 0.30625 -0.02013
 H38 H -0.04265 0.22586 -0.01512
 H39 H -0.08824 0.22390 -0.05718
 H40 H -0.06622 0.30101 -0.13103
 H41 H -0.02075 0.30324 -0.08860
 H42 H 0.08679 0.22378 0.05968
 C43 C 0.49968 0.76824 0.47673
 C44 C 0.50036 0.76826 0.52441
 C45 C 0.47383 0.76918 0.55285
 C46 C 0.52760 0.76635 0.55047
 C47 C 0.52621 0.76914 0.44827
 C48 C 0.47243 0.76631 0.45068
 C49 C 0.45351 0.79084 0.54635
 C50 C 0.42797 0.79051 0.57167
 C51 C 0.42265 0.76872 0.60406
 C52 C 0.44317 0.74757 0.61165
 C53 C 0.46867 0.74786 0.58633
 C54 C 0.53439 0.78716 0.58395
 C55 C 0.56017 0.78579 0.60816
 C56 C 0.57929 0.76348 0.59942
 C57 C 0.57240 0.74236 0.56673
 C58 C 0.54662 0.74368 0.54254
 C59 C 0.53132 0.74782 0.41479
 C60 C 0.55680 0.74754 0.38940
 C61 C 0.57733 0.76869 0.39693
 C62 C 0.57205 0.79048 0.42934
 C63 C 0.54653 0.79081 0.45472
 C64 C 0.45341 0.74365 0.45863
 C65 C 0.42763 0.74230 0.43443
 C66 C 0.42075 0.76340 0.40171
 C67 C 0.43987 0.78572 0.39295
 C68 C 0.46565 0.78711 0.41717
 H69 H 0.45730 0.80775 0.52127
 H70 H 0.41227 0.80702 0.56563
 H71 H 0.43928 0.73063 0.63664
 H72 H 0.48410 0.73104 0.59199
 H73 H 0.51989 0.80465 0.59079
 H74 H 0.56526 0.80219 0.63350
 H75 H 0.54150 0.72711 0.51756
 H76 H 0.51588 0.73100 0.40917
 H77 H 0.56066 0.73060 0.36440
 H78 H 0.58776 0.80700 0.43533
 H79 H 0.54277 0.80771 0.47981
 H80 H 0.45852 0.72709 0.48364
 H81 H 0.41306 0.72485 0.44129
 H82 H 0.43479 0.80210 0.36759
 H83 H 0.48015 0.80461 0.41032
 H84 H 0.58697 0.72491 0.55989
 C85 C 1.00060 0.73332 -0.02461
 C86 C 1.00032 0.73321 0.02309
 C87 C 1.02704 0.73527 0.05049
 C88 C 0.97325 0.73212 0.05019
 C89 C 0.97387 0.73553 -0.05196
 C90 C 1.02766 0.73231 -0.05172
 C91 C 1.03334 0.71451 0.08430
 C92 C 1.05869 0.71603 0.10970
 C93 C 1.07782 0.73846 0.10181
 C94 C 1.07137 0.75955 0.06883
 C95 C 1.04604 0.75807 0.04346
 C96 C 0.95307 0.71048 0.04236
 C97 C 0.92716 0.71052 0.06668
 C98 C 0.92132 0.73200 0.09938
 C99 C 0.94165 0.75316 0.10820
 C100 C 0.96752 0.75316 0.08388
 C101 C 0.95492 0.75832 -0.04466
 C102 C 0.92954 0.75989 -0.06987
 C103 C 0.92300 0.73890 -0.10298
 C104 C 0.94210 0.71650 -0.11117
 C105 C 0.96749 0.71489 -0.08592
 C106 C 1.03343 0.75349 -0.08518
 C107 C 1.05930 0.75358 -0.10950
 C108 C 1.07963 0.73236 -0.10091
 C109 C 1.07373 0.71074 -0.06842
 C110 C 1.04781 0.71062 -0.04413
 H111 H 1.01883 0.69692 0.09044
 H112 H 1.06344 0.69966 0.13524
 H113 H 1.08596 0.77707 0.06264
 H114 H 1.04127 0.77460 0.01822
 H115 H 0.95729 0.69377 0.01711
 H116 H 0.91162 0.69399 0.05970
 H117 H 0.98282 0.76997 0.09057
 H118 H 0.95975 0.77476 -0.01929
 H119 H 0.91497 0.77739 -0.06344
 H120 H 0.93727 0.70020 -0.13680
 H121 H 0.98197 0.69730 -0.09227
 H122 H 1.01815 0.77033 -0.09169
 H123 H 1.06354 0.77042 -0.13455
 H124 H 1.08921 0.69412 -0.06152
 H125 H 1.04356 0.69382 -0.01906
 H126 H 0.93737 0.76986 0.13345
 C127 C 0.50050 0.23235 0.47522
 C128 C 0.49963 0.23226 0.52292
 C129 C 0.52605 0.23140 0.55136
 C130 C 0.47226 0.23395 0.54902
 C131 C 0.47408 0.23152 0.44678
 C132 C 0.52787 0.23419 0.44915
 C133 C 0.54643 0.20977 0.54491
 C134 C 0.57184 0.21014 0.57030
 C135 C 0.57696 0.23193 0.60271
 C136 C 0.55638 0.25306 0.61023
 C137 C 0.53101 0.25273 0.58484
 C138 C 0.46545 0.21301 0.58236
 C139 C 0.43958 0.21416 0.60664
 C140 C 0.42036 0.23640 0.59812
 C141 C 0.42726 0.25764 0.56557
 C142 C 0.45314 0.25653 0.54130
 C143 C 0.46908 0.25296 0.41349
 C144 C 0.44369 0.25332 0.38816
 C145 C 0.42313 0.23214 0.39552
 C146 C 0.42831 0.21024 0.42772
 C147 C 0.45374 0.20983 0.45306
 C148 C 0.54695 0.25678 0.45709
 C149 C 0.57287 0.25799 0.43293
 C150 C 0.57984 0.23683 0.40027
 C151 C 0.56065 0.21460 0.39152
 C152 C 0.53474 0.21334 0.41569
 H153 H 0.54279 0.19286 0.51983
 H154 H 0.58759 0.19364 0.56431
 H155 H 0.56011 0.27000 0.63524
 H156 H 0.51552 0.26953 0.59047
 H157 H 0.48002 0.19557 0.58904
 H158 H 0.43450 0.19767 0.63188
 H159 H 0.45825 0.27321 0.51644
 H160 H 0.48454 0.26980 0.40800
 H161 H 0.43991 0.27035 0.36331
 H162 H 0.41258 0.19369 0.43359
 H163 H 0.45741 0.19284 0.47798
 H164 H 0.54179 0.27337 0.48206
 H165 H 0.58747 0.27538 0.43978
 H166 H 0.56578 0.19818 0.36619
 H167 H 0.52020 0.19590 0.40885
 H168 H 0.41263 0.27504 0.55891
 C169 C 0.73291 -0.00055 -0.02365
 C170 C 0.73330 -0.00043 0.02405
 C171 C 0.73256 -0.02734 0.05152
 C172 C 0.73546 0.02657 0.05102
 C173 C 0.73183 0.02634 -0.05111
 C174 C 0.73456 -0.02752 -0.05077
 C175 C 0.71084 -0.04757 0.04484
 C176 C 0.71130 -0.07345 0.06917
 C177 C 0.73331 -0.07922 0.10080
 C178 C 0.75454 -0.05877 0.10857
 C179 C 0.75410 -0.03293 0.08421
 C180 C 0.71491 0.03307 0.08519
 C181 C 0.71641 0.05872 0.11003
 C182 C 0.73860 0.07798 0.10123
 C183 C 0.75949 0.07133 0.06790
 C184 C 0.75803 0.04569 0.04308
 C185 C 0.75282 0.03178 -0.08505
 C186 C 0.75288 0.05751 -0.10970
 C187 C 0.73181 0.07800 -0.10097
 C188 C 0.71035 0.07240 -0.06802
 C189 C 0.71026 0.04662 -0.04339
 C190 C 0.75725 -0.04665 -0.04421
 C191 C 0.75843 -0.07212 -0.06955
 C192 C 0.73712 -0.07860 -0.10206
 C193 C 0.71475 -0.05934 -0.10940
 C194 C 0.71355 -0.03387 -0.08402
 H195 H 0.69377 -0.04345 0.02037
 H196 H 0.69467 -0.08902 0.06294
 H197 H 0.77167 -0.06290 0.13297
 H198 H 0.77097 -0.01757 0.08999
 H199 H 0.69749 0.01849 0.09203
 H200 H 0.70019 0.06361 0.13586
 H201 H 0.77441 0.04080 0.01754
 H202 H 0.76955 0.01637 -0.09164
 H203 H 0.76960 0.06153 -0.13511
 H204 H 0.69385 0.08802 -0.06101
 H205 H 0.69360 0.04260 -0.01794
 H206 H 0.77397 -0.04186 -0.01944
 H207 H 0.77595 -0.08674 -0.06369
 H208 H 0.69816 -0.06401 -0.13454
 H209 H 0.69604 -0.01926 -0.08980
 H210 H 0.77684 0.08601 0.06100
 C211 C 0.23213 0.49959 0.47537
 C212 C 0.23237 0.50005 0.52307
 C213 C 0.23149 0.47335 0.55101
 C214 C 0.23444 0.52722 0.54964
 C215 C 0.23089 0.52630 0.44749
 C216 C 0.23406 0.47241 0.44877
 C217 C 0.20974 0.45312 0.54447
 C218 C 0.21002 0.42747 0.56941
 C219 C 0.23184 0.42195 0.60144
 C220 C 0.25308 0.44236 0.60904
 C221 C 0.25285 0.46799 0.58411
 C222 C 0.21397 0.53375 0.58394
 C223 C 0.21556 0.55937 0.60882
 C224 C 0.23777 0.57860 0.59995
 C225 C 0.25853 0.57198 0.56639
 C226 C 0.25698 0.54636 0.54152
 C227 C 0.25196 0.53180 0.41370
 C228 C 0.25200 0.55754 0.38906
 C229 C 0.23085 0.57794 0.39767
 C230 C 0.20929 0.57226 0.43033
 C231 C 0.20920 0.54649 0.45496
 C232 C 0.25675 0.45338 0.45614
 C233 C 0.25810 0.42767 0.43149
 C234 C 0.23699 0.42084 0.39887
 C235 C 0.21465 0.43998 0.39068
 C236 C 0.21326 0.46570 0.41536
 H237 H 0.19281 0.45708 0.51969
 H238 H 0.19343 0.41184 0.56337
 H239 H 0.27004 0.43831 0.63377
 H240 H 0.26973 0.48336 0.58978
 H241 H 0.19657 0.51916 0.59095
 H242 H 0.19944 0.56423 0.63483
 H243 H 0.27330 0.54145 0.51591
 H244 H 0.26880 0.51647 0.40730
 H245 H 0.26877 0.56171 0.36384
 H246 H 0.19277 0.58787 0.43716
 H247 H 0.19249 0.54243 0.48031
 H248 H 0.27332 0.45843 0.48105
 H249 H 0.27557 0.41310 0.43791
 H250 H 0.19826 0.43496 0.36540
 H251 H 0.19574 0.48020 0.40893
 H252 H 0.27589 0.58663 0.55942
 C253 C 0.26672 1.00030 -0.02571
 C254 C 0.26708 1.00021 0.02199
 C255 C 0.26805 1.02711 0.04943
 C256 C 0.26551 0.97325 0.04917
 C257 C 0.26747 0.97337 -0.05311
 C258 C 0.26460 1.02727 -0.05274
 C259 C 0.28956 1.04746 0.04180
 C260 C 0.28940 1.07322 0.06651
 C261 C 0.26790 1.07872 0.09944
 C262 C 0.24686 1.05816 0.10804
 C263 C 0.24700 1.03247 0.08332
 C264 C 0.28657 0.96699 0.08238
 C265 C 0.28544 0.94154 0.10781
 C266 C 0.26313 0.92223 0.10055
 C267 C 0.24179 0.92859 0.06810
 C268 C 0.24287 0.95404 0.04269
 C269 C 0.24588 0.96770 -0.08569
 C270 C 0.24539 0.94181 -0.10988
 C271 C 0.26662 0.92138 -0.10206
 C272 C 0.28868 0.92722 -0.07058
 C273 C 0.28920 0.95316 -0.04640
 C274 C 0.24202 1.04639 -0.04494
 C275 C 0.24060 1.07202 -0.06978
 C276 C 0.26156 1.07869 -0.10304
 C277 C 0.28377 1.05940 -0.11171
 C278 C 0.28521 1.03377 -0.08682
 H279 H 0.30626 1.04351 0.01639
 H280 H 0.30587 1.08888 0.05959
 H281 H 0.23012 1.06210 0.13344
 H282 H 0.23030 1.01700 0.08985
 H283 H 0.30405 0.98165 0.08810
 H284 H 0.30201 0.93686 0.13295
 H285 H 0.22611 0.95876 0.01794
 H286 H 0.22901 0.98305 -0.09148
 H287 H 0.22822 0.93762 -0.13418
 H288 H 0.30532 0.91167 -0.06430
 H289 H 0.30629 0.95733 -0.02202
 H290 H 0.22560 1.04149 -0.01947
 H291 H 0.22320 1.08665 -0.06288
 H292 H 0.30009 1.06422 -0.13745
 H293 H 0.30264 1.01918 -0.09355
 H294 H 0.22434 0.91387 0.06240
 C295 C 0.76767 0.50024 0.47806
 C296 C 0.76787 0.49976 0.52576
 C297 C 0.76914 0.52648 0.55363
 C298 C 0.76587 0.47259 0.55235
 C299 C 0.76860 0.47354 0.45010
 C300 C 0.76560 0.52740 0.45149
 C301 C 0.79087 0.54664 0.54616
 C302 C 0.79080 0.57243 0.57073
 C303 C 0.76922 0.57815 0.60334
 C304 C 0.74804 0.55777 0.61196
 C305 C 0.74806 0.53201 0.58738
 C306 C 0.78661 0.46585 0.58586
 C307 C 0.78515 0.44012 0.61052
 C308 C 0.76281 0.42099 0.60220
 C309 C 0.74176 0.42784 0.56948
 C310 C 0.74318 0.45356 0.54485
 C311 C 0.74732 0.46819 0.41685
 C312 C 0.74718 0.44261 0.39180
 C313 C 0.76843 0.42222 0.39944
 C314 C 0.79015 0.42771 0.43165
 C315 C 0.79034 0.45333 0.45670
 C316 C 0.74305 0.54652 0.45960
 C317 C 0.74147 0.57213 0.43470
 C318 C 0.76222 0.57876 0.40112
 C319 C 0.78445 0.55956 0.39228
 C320 C 0.78607 0.53395 0.41720
 H321 H 0.80758 0.54256 0.52084
 H322 H 0.80734 0.58802 0.56390
 H323 H 0.73126 0.56198 0.63714
 H324 H 0.73120 0.51671 0.59377
 H325 H 0.80412 0.48035 0.59238
 H326 H 0.80149 0.43509 0.63587
 H327 H 0.72666 0.45863 0.51986
 H328 H 0.73045 0.48355 0.41111
 H329 H 0.73028 0.43858 0.36693
 H330 H 0.80675 0.41210 0.43773
 H331 H 0.80722 0.45728 0.48160
 H332 H 0.72672 0.54159 0.48520
 H333 H 0.72409 0.58675 0.44163
 H334 H 0.80057 0.56443 0.36627
 H335 H 0.80348 0.51938 0.41020
 H336 H 0.72429 0.41328 0.56296
 O337 O 0.24553 0.20388 0.24790
 O338 O 0.23646 0.27336 0.30637
 O339 O 0.20602 0.24277 0.24865
 O340 O 0.27560 0.23406 0.30600
 O341 O 0.29668 0.25548 0.24628
 O342 O 0.22703 0.26418 0.18886
 O343 O 0.25749 0.29476 0.24660
 O344 O 0.26658 0.22532 0.18817
 Cu345 Cu 0.23874 0.23640 0.28326
 Cu346 Cu 0.26403 0.26214 0.21146
 C347 C 0.25759 0.20288 0.20815
 C348 C 0.24562 0.29577 0.28648
 C349 C 0.20479 0.25474 0.20893
 C350 C 0.29788 0.24328 0.28583
 O351 O 0.75575 0.79490 0.24732
 O352 O 0.76342 0.72553 0.30648
 O353 O 0.79435 0.75497 0.24775
 O354 O 0.72503 0.76550 0.30596
 O355 O 0.70347 0.74427 0.24677
 O356 O 0.77282 0.73373 0.18855
 O357 O 0.74187 0.70428 0.24730
 O358 O 0.73420 0.77368 0.18812
 Cu359 Cu 0.76185 0.76235 0.28282
 Cu360 Cu 0.73595 0.73683 0.21169
 C361 C 0.74363 0.79601 0.20778
 C362 C 0.75379 0.70322 0.28701
 C363 C 0.79529 0.74266 0.20828
 C364 C 0.70256 0.75662 0.28623
 O365 O 0.79769 0.24385 0.25265
 O366 O 0.72782 0.23517 0.31007
 O367 O 0.75859 0.20447 0.25268
 O368 O 0.76723 0.27418 0.31029
 O369 O 0.74640 0.29530 0.25029
 O370 O 0.73778 0.22556 0.19265
 O371 O 0.70702 0.25627 0.25003
 O372 O 0.77683 0.26496 0.19266
 Cu373 Cu 0.76490 0.23724 0.28747
 Cu374 Cu 0.73986 0.26260 0.21535
 C375 C 0.79904 0.25590 0.21297
 C376 C 0.70565 0.24445 0.28989
 C377 C 0.74690 0.20326 0.21281
 C378 C 0.75827 0.29650 0.29003
 O379 O 0.25412 0.70568 0.25119
 O380 O 0.26406 0.77546 0.19432
 O381 O 0.29404 0.74422 0.25159
 O382 O 0.22437 0.73691 0.19408
 O383 O 0.20357 0.75809 0.25430
 O384 O 0.27327 0.76540 0.31181
 O385 O 0.24327 0.79666 0.25452
 O386 O 0.23333 0.72684 0.31142
 Cu387 Cu 0.26129 0.73844 0.21675
 Cu388 Cu 0.23631 0.76390 0.28914
 C389 C 0.24205 0.70447 0.29090
 C390 C 0.25510 0.79781 0.21461
 C391 C 0.29539 0.75593 0.29151
 C392 C 0.20224 0.74636 0.21439
 O393 O 0.76330 0.27339 0.69396
 O394 O 0.75418 0.20369 0.75174
 O395 O 0.72427 0.23395 0.69354
 O396 O 0.79354 0.24276 0.75189
 O397 O 0.77216 0.26390 0.81157
 O398 O 0.70283 0.25510 0.75317
 O399 O 0.73277 0.22486 0.81138
 O400 O 0.74190 0.29452 0.75363
 Cu401 Cu 0.76102 0.23636 0.71676
 Cu402 Cu 0.73529 0.26177 0.78844
 C403 C 0.75396 0.29570 0.71391
 C404 C 0.74195 0.20252 0.79133
 C405 C 0.70186 0.24302 0.71349
 C406 C 0.79453 0.25461 0.79172
 O407 O 0.29623 0.74442 0.75371
 O408 O 0.22678 0.73403 0.81168
 O409 O 0.25782 0.70443 0.75328
 O410 O 0.26542 0.77399 0.81198
 O411 O 0.24398 0.79505 0.75251
 O412 O 0.23638 0.72551 0.69384
 O413 O 0.20536 0.75510 0.75222
 O414 O 0.27478 0.76549 0.69426
 Cu415 Cu 0.26368 0.73707 0.78869
 Cu416 Cu 0.23792 0.76240 0.71725
 C417 C 0.29722 0.75667 0.71418
 C418 C 0.20435 0.74290 0.79179
 C419 C 0.24598 0.70326 0.71351
 C420 C 0.25604 0.79627 0.79209
 O421 O 0.25435 0.29468 0.74961
 O422 O 0.26294 0.22484 0.80692
 O423 O 0.29363 0.25556 0.74941
 O424 O 0.22400 0.26432 0.80730
 O425 O 0.20293 0.24335 0.74738
 O426 O 0.27262 0.23460 0.68944
 O427 O 0.24191 0.20388 0.74696
 O428 O 0.23331 0.27369 0.68968
 Cu429 Cu 0.26090 0.26191 0.78436
 Cu430 Cu 0.23561 0.23671 0.71232
 C431 C 0.24237 0.29597 0.70997
 C432 C 0.25368 0.20259 0.78675
 C433 C 0.29487 0.24382 0.70950
 C434 C 0.20171 0.25535 0.78711
 O435 O 0.74621 0.70609 0.74942
 O436 O 0.73638 0.77595 0.80607
 O437 O 0.70628 0.74460 0.74911
 O438 O 0.77611 0.73745 0.80614
 O439 O 0.79674 0.75856 0.74569
 O440 O 0.72688 0.76571 0.68867
 O441 O 0.75699 0.79708 0.74564
 O442 O 0.76682 0.72719 0.68895
 Cu443 Cu 0.73912 0.73890 0.78375
 Cu444 Cu 0.76389 0.76428 0.71109
 C445 C 0.75818 0.70484 0.70963
 C446 C 0.74526 0.79828 0.78562
 C447 C 0.70481 0.75624 0.70916
 C448 C 0.79819 0.74689 0.78563
 C449 C 0.26694 0.10421 0.12226
 C450 C 0.26551 0.12679 0.14229
 C451 C 0.26322 0.15326 0.16551
 C452 C 0.26083 0.17589 0.18512
 C453 C 0.76815 0.60526 0.62686
 C454 C 0.76664 0.62806 0.64620
 C455 C 0.76422 0.65479 0.66852
 C456 C 0.76168 0.67765 0.68738
 C457 C 0.73453 0.89514 0.12314
 C458 C 0.73608 0.87241 0.14271
 C459 C 0.73839 0.84578 0.16545
 C460 C 0.74066 0.82305 0.18479
 C461 C 0.23300 0.39503 0.62553
 C462 C 0.23453 0.37241 0.64536
 C463 C 0.23687 0.34585 0.66822
 C464 C 0.23922 0.32310 0.68744
 C465 C 0.89795 0.26570 0.12785
 C466 C 0.87539 0.26405 0.14797
 C467 C 0.84889 0.26158 0.17105
 C468 C 0.82618 0.25912 0.19039
 C469 C 0.39583 0.76742 0.62847
 C470 C 0.37329 0.76569 0.64859
 C471 C 0.34684 0.76304 0.67178
 C472 C 0.32421 0.76033 0.69129
 C473 C 0.10420 0.73974 0.12713
 C474 C 0.12646 0.74092 0.14788
 C475 C 0.15269 0.74251 0.17162
 C476 C 0.17524 0.74411 0.19142
 C477 C 0.60364 0.23321 0.62729
 C478 C 0.62605 0.23485 0.64754
 C479 C 0.65238 0.23732 0.67090
 C480 C 0.67493 0.23978 0.69052
 C481 C 0.73273 0.10355 0.87636
 C482 C 0.73411 0.12619 0.85650
 C483 C 0.73636 0.15274 0.83351
 C484 C 0.73872 0.17545 0.81411
 C485 C 0.23193 0.60502 0.37406
 C486 C 0.23348 0.62779 0.35463
 C487 C 0.23593 0.65449 0.33219
 C488 C 0.23850 0.67731 0.31325
 C489 C 0.26534 0.89567 0.87582
 C490 C 0.26372 0.87287 0.85646
 C491 C 0.26135 0.84617 0.83398
 C492 C 0.25904 0.82337 0.81485
 C493 C 0.76737 0.39536 0.37518
 C494 C 0.76592 0.37279 0.35518
 C495 C 0.76368 0.34628 0.33212
 C496 C 0.76138 0.32358 0.31274
 C497 C 0.10298 0.26549 0.87262
 C498 C 0.12550 0.26374 0.85246
 C499 C 0.15196 0.26117 0.82929
 C500 C 0.17463 0.25864 0.80985
 C501 C 0.60411 0.76741 0.37241
 C502 C 0.62661 0.76569 0.35219
 C503 C 0.65302 0.76304 0.32886
 C504 C 0.67561 0.76031 0.30923
 C505 C 0.89654 0.74023 0.87194
 C506 C 0.87420 0.74145 0.85141
 C507 C 0.84788 0.74306 0.82795
 C508 C 0.82526 0.74466 0.80836
 C509 C 0.39642 0.23347 0.37106
 C510 C 0.37396 0.23514 0.35095
 C511 C 0.34756 0.23762 0.32783
 C512 C 0.32493 0.24007 0.30845
 C513 C 0.73812 0.89639 0.87376
 C514 C 0.73918 0.87412 0.85274
 C515 C 0.74078 0.84788 0.82868
 C516 C 0.74254 0.82532 0.80868
 C517 C 0.23823 0.39415 0.37401
 C518 C 0.23944 0.37171 0.35350
 C519 C 0.24115 0.34533 0.32981
 C520 C 0.24295 0.32273 0.30987
 C521 C 0.26044 0.10394 0.87344
 C522 C 0.25933 0.12641 0.85298
 C523 C 0.25779 0.15284 0.82948
 C524 C 0.25614 0.17551 0.80977
 C525 C 0.76075 0.60530 0.37590
 C526 C 0.75944 0.62761 0.35503
 C527 C 0.75775 0.65383 0.33093
 C528 C 0.75609 0.67633 0.31067
 C529 C 0.10529 0.73326 0.87668
 C530 C 0.12801 0.73464 0.85700
 C531 C 0.15462 0.73693 0.83412
 C532 C 0.17733 0.73940 0.81472
 C533 C 0.60671 0.23791 0.37593
 C534 C 0.62930 0.23893 0.35580
 C535 C 0.65583 0.24040 0.33253
 C536 C 0.67855 0.24200 0.31291
 C537 C 0.89280 0.26130 0.87878
 C538 C 0.87034 0.26024 0.85852
 C539 C 0.84397 0.25874 0.83500
 C540 C 0.82142 0.25711 0.81512
 C541 C 0.39400 0.76221 0.37735
 C542 C 0.37151 0.76111 0.35723
 C543 C 0.34508 0.75964 0.33399
 C544 C 0.32243 0.75813 0.31443
 C545 C 0.26215 0.89583 0.12618
 C546 C 0.26112 0.87358 0.14724
 C547 C 0.25957 0.84736 0.17137
 C548 C 0.25782 0.82482 0.19145
 C549 C 0.76151 0.39428 0.62699
 C550 C 0.76025 0.37181 0.64742
 C551 C 0.75849 0.34539 0.67097
 C552 C 0.75665 0.32274 0.69076
 C553 C 0.73986 0.10466 0.12606
 C554 C 0.74104 0.12712 0.14649
 C555 C 0.74267 0.15355 0.16999
 C556 C 0.74438 0.17621 0.18973
 C557 C 0.23920 0.60516 0.62510
 C558 C 0.24047 0.62750 0.64589
 C559 C 0.24211 0.65377 0.66988
 C560 C 0.24372 0.67631 0.69002
 C561 C 0.89423 0.73289 0.12310
 C562 C 0.87153 0.73429 0.14283
 C563 C 0.84495 0.73661 0.16577
 C564 C 0.82226 0.73911 0.18524
 C565 C 0.39355 0.23740 0.62265
 C566 C 0.37101 0.23837 0.64295
 C567 C 0.34455 0.23980 0.66643
 C568 C 0.32189 0.24137 0.68625
 C569 C 0.10603 0.26128 0.12332
 C570 C 0.12860 0.26026 0.14327
 C571 C 0.15510 0.25880 0.16639
 C572 C 0.17777 0.25720 0.18593
 C573 C 0.60605 0.76232 0.62374
 C574 C 0.62857 0.76126 0.64380
 C575 C 0.65503 0.75984 0.66694
 C576 C 0.67772 0.75837 0.68640
   
