data_POSCAR
  _audit_creation_date              2014-09-24
  _audit_creation_method            'ToBaCCo'
  _symmetry_space_group_name_H-M    'P1'
  _symmetry_Int_Tables_number       1
  _symmetry_cell_setting            triclinic
  loop_
  _symmetry_equiv_pos_as_xyz
 x,y,z
_cell_length_a 25.7771
_cell_length_b 29.5226
_cell_length_c 22.3991
_cell_angle_alpha 90.493700
_cell_angle_beta 90.730300
_cell_angle_gamma 87.688300
loop_
  _atom_site_label
  _atom_site_type_symbol
  _atom_site_fract_x
  _atom_site_fract_y
  _atom_site_fract_z
C1 C 1.22108 0.22069 0.18585
 C2 C 1.24243 0.26186 0.15498
 C3 C 1.26811 0.29038 0.19183
 C4 C 1.27041 0.27429 0.25752
 C5 C 1.26839 0.19768 0.21773
 C6 C 1.29364 0.22525 0.25615
 C7 C 1.18847 0.23971 0.23755
 C8 C 1.21311 0.26920 0.27371
 H9 H 1.23815 0.26709 0.10737
 H10 H 1.29135 0.29666 0.28880
 H11 H 1.27608 0.16151 0.21952
 H12 H 1.14916 0.23050 0.24388
 C13 C 0.73203 -0.30264 0.20252
 C14 C 0.76315 -0.27094 0.16402
 C15 C 0.78332 -0.23507 0.19416
 C16 C 0.76715 -0.23315 0.26072
 C17 C 0.76853 -0.31484 0.25439
 C18 C 0.78580 -0.27901 0.28540
 C19 C 0.68919 -0.27120 0.22971
 C20 C 0.70732 -0.23521 0.26116
 H21 H 0.76702 -0.27566 0.11670
 H22 H 0.78181 -0.20454 0.28717
 H23 H 0.78061 -0.34946 0.26526
 H24 H 0.64821 -0.27640 0.22369
 C25 C 0.71290 0.23143 -0.31972
 C26 C 0.75190 0.25475 -0.35303
 C27 C 0.79072 0.27597 -0.31620
 C28 C 0.78178 0.26934 -0.25198
 C29 C 0.74216 0.20007 -0.28176
 C30 C 0.78005 0.22000 -0.24355
 C31 C 0.69111 0.26585 -0.27934
 C32 C 0.72866 0.28641 -0.24138
 H33 H 0.74822 0.25882 -0.40078
 H34 H 0.80928 0.28591 -0.22169
 H35 H 0.73778 0.16416 -0.28616
 H36 H 0.65098 0.27801 -0.28016
 C37 C 1.21966 -0.27084 -0.30268
 C38 C 1.26885 -0.25203 -0.32795
 C39 C 1.30124 -0.23414 -0.28641
 C40 C 1.28081 -0.23805 -0.22123
 C41 C 1.23803 -0.30520 -0.25530
 C42 C 1.27064 -0.28888 -0.21306
 C43 C 1.19518 -0.23124 -0.26718
 C44 C 1.22534 -0.21623 -0.22200
 H45 H 1.27511 -0.24976 -0.37555
 H46 H 1.30630 -0.22325 -0.18656
 H47 H 1.22549 -0.33971 -0.25559
 H48 H 1.15683 -0.21647 -0.27484
 C49 C 0.20367 0.22664 0.79897
 C50 C 0.22823 0.26329 0.83067
 C51 C 0.26379 0.28794 0.79582
 C52 C 0.26854 0.26971 0.73438
 C53 C 0.17900 0.24909 0.74368
 C54 C 0.21268 0.27069 0.70906
 C55 C 0.24862 0.19647 0.77449
 C56 C 0.28294 0.21865 0.74048
 H57 H 0.22035 0.27046 0.87716
 H58 H 0.29494 0.28756 0.70502
 H59 H 0.13782 0.25354 0.73619
 H60 H 0.25092 0.16012 0.78083
 C61 C 0.73036 0.70092 0.79072
 C62 C 0.76435 0.73012 0.82529
 C63 C 0.78701 0.76504 0.79095
 C64 C 0.77041 0.76392 0.72762
 C65 C 0.69155 0.73160 0.76243
 C66 C 0.71284 0.76683 0.72659
 C67 C 0.76280 0.68405 0.74260
 C68 C 0.78350 0.71802 0.70686
 H69 H 0.77293 0.72556 0.87229
 H70 H 0.78981 0.78823 0.69942
 H71 H 0.65056 0.72589 0.76521
 H72 H 0.77486 0.64862 0.73690
 C73 C 0.70887 0.22648 0.30547
 C74 C 0.75422 0.24684 0.34044
 C75 C 0.78897 0.26755 0.30545
 C76 C 0.77614 0.26470 0.23847
 C77 C 0.68602 0.26656 0.26858
 C78 C 0.72149 0.28596 0.23343
 C79 C 0.73474 0.19460 0.25944
 C80 C 0.76975 0.21444 0.22420
 H81 H 0.75432 0.25045 0.38862
 H82 H 0.80437 0.28119 0.20956
 H83 H 0.64627 0.27925 0.27053
 H84 H 0.72565 0.15921 0.25553
 C85 C 0.20656 0.72354 0.28529
 C86 C 0.24887 0.74875 0.31919
 C87 C 0.28586 0.76555 0.28337
 C88 C 0.27569 0.75614 0.21573
 C89 C 0.18452 0.75795 0.24088
 C90 C 0.21986 0.77410 0.20362
 C91 C 0.23611 0.68760 0.24816
 C92 C 0.27082 0.70431 0.21011
 H93 H 0.24641 0.75740 0.36573
 H94 H 0.30441 0.77059 0.18552
 H95 H 0.14391 0.76915 0.23947
 H96 H 0.22868 0.65184 0.25098
 O97 O 1.08630 -0.06076 0.10901
 O98 O 1.05028 -0.11393 0.04764
 C99 C 1.08316 -0.10168 0.08891
 O100 O 0.88566 0.05780 0.08850
 O101 O 0.93504 0.11070 0.04389
 C102 C 0.89593 0.09919 0.07573
 O103 O 0.90394 -0.06596 0.10038
 O104 O 0.95526 -0.11658 0.04640
 C105 C 0.91926 -0.10671 0.08552
 O106 O 1.08297 0.06186 0.10186
 O107 O 1.03382 0.11279 0.04636
 C108 C 1.07261 0.10218 0.08210
 Zr109 Zr 1.05300 -0.00007 0.07701
 O110 O 1.03665 0.00183 0.16919
 O111 O 1.13360 -0.00101 0.09577
 Zr112 Zr 0.92580 -0.00357 0.06735
 O113 O 0.92883 0.00044 0.16157
 O114 O 0.84438 -0.01010 0.06640
 O115 O 0.99268 -0.04366 0.08316
 O116 O 0.98578 0.03945 0.08342
 O117 O 1.09179 0.06399 -0.09072
 O118 O 1.03185 0.11349 -0.04793
 C119 C 1.07360 0.10446 -0.07802
 O120 O 0.91313 -0.06719 -0.11923
 O121 O 0.95872 -0.11765 -0.05898
 C122 C 0.92600 -0.10805 -0.10254
 O123 O 0.89659 0.05793 -0.11031
 O124 O 0.93949 0.11102 -0.05526
 C125 C 0.90497 0.09942 -0.09468
 O126 O 1.09669 -0.06090 -0.10155
 O127 O 1.05286 -0.11445 -0.05067
 C128 C 1.08983 -0.10222 -0.08555
 Zr129 Zr 1.06003 0.00041 -0.07465
 O130 O 1.05350 0.00505 -0.16880
 O131 O 1.14155 0.00021 -0.08344
 Zr132 Zr 0.93199 -0.00403 -0.08296
 O133 O 0.93650 -0.00575 -0.17744
 O134 O 0.85028 -0.00808 -0.08451
 Zr135 Zr 0.99925 -0.07081 -0.00405
 Zr136 Zr 0.98756 0.06671 -0.00276
 O137 O 0.99307 0.03889 -0.08933
 O138 O 1.00034 -0.04339 -0.09071
 O139 O 1.06420 0.03947 0.00227
 O140 O 0.92260 -0.04377 -0.00871
 O141 O 1.07023 -0.03786 0.00152
 O142 O 0.91524 0.03607 -0.00846
 H143 H 0.98316 0.06119 0.11736
 H144 H 0.89327 -0.06444 -0.01068
 H145 H 0.99338 0.06049 -0.12291
 H146 H 1.10432 -0.05447 0.00382
 H147 H 0.83151 0.00132 0.02733
 H148 H 0.83985 -0.01169 -0.12696
 H149 H 0.94650 0.02431 -0.19148
 H150 H 1.04590 -0.02549 -0.18438
 H151 H 1.15598 0.00481 -0.04284
 H152 H 1.15088 0.00434 0.05747
 H153 H 1.07055 0.00485 0.18985
 H154 H 0.89232 0.00078 0.17494
 O155 O 1.10759 0.43943 0.58975
 O156 O 1.05724 0.38965 0.53828
 C157 C 1.09613 0.39893 0.57324
 O158 O 0.91052 0.56711 0.60261
 O159 O 0.95845 0.61798 0.55226
 C160 C 0.92129 0.60812 0.58725
 O161 O 0.92378 0.43992 0.61035
 O162 O 0.96555 0.39023 0.54547
 C163 C 0.93442 0.39951 0.58961
 O164 O 1.10819 0.56367 0.58807
 O165 O 1.04979 0.61524 0.54658
 C166 C 1.09145 0.60458 0.57692
 Zr167 Zr 1.07392 0.50246 0.56582
 O168 O 1.07064 0.50239 0.66000
 O169 O 1.15596 0.49959 0.56953
 Zr170 Zr 0.94524 0.50322 0.57792
 O171 O 0.96024 0.50527 0.67081
 O172 O 0.86467 0.49978 0.59271
 O173 O 1.01215 0.46123 0.58135
 O174 O 1.00902 0.54302 0.58486
 O175 O 1.08452 0.56985 0.38587
 O176 O 1.04039 0.61858 0.44946
 C177 C 1.07150 0.61005 0.40582
 O178 O 0.90793 0.44347 0.39307
 O179 O 0.96030 0.39134 0.44327
 C180 C 0.92297 0.40213 0.40589
 O181 O 0.89750 0.57124 0.40825
 O182 O 0.95179 0.61925 0.45748
 C183 C 0.91216 0.61138 0.42391
 O184 O 1.09104 0.44366 0.37999
 O185 O 1.05082 0.39176 0.43734
 C186 C 1.08370 0.40257 0.39680
 Zr187 Zr 1.06162 0.50575 0.41459
 O188 O 1.04908 0.51071 0.32117
 O189 O 1.14301 0.50363 0.40267
 Zr190 Zr 0.93219 0.50616 0.42749
 O191 O 0.92270 0.51337 0.33400
 O192 O 0.85107 0.50380 0.43896
 Zr193 Zr 1.00618 0.43620 0.49307
 Zr194 Zr 1.00132 0.57163 0.49958
 O195 O 0.99445 0.54580 0.41211
 O196 O 0.99767 0.46512 0.40747
 O197 O 1.07716 0.54377 0.49087
 O198 O 0.93069 0.46533 0.50164
 O199 O 1.07916 0.46545 0.48761
 O200 O 0.92721 0.54449 0.50525
 H201 H 1.01069 0.56402 0.61956
 H202 H 0.90046 0.44571 0.50310
 H203 H 0.99021 0.56706 0.37823
 H204 H 1.11178 0.44677 0.48423
 H205 H 0.84714 0.50910 0.55496
 H206 H 0.83536 0.50560 0.39840
 H207 H 0.94594 0.49021 0.31491
 H208 H 1.03588 0.48150 0.30676
 H209 H 1.15769 0.52563 0.43118
 H210 H 1.16782 0.50219 0.52797
 H211 H 1.10706 0.50381 0.67430
 H212 H 0.92577 0.50810 0.68984
 O213 O 0.59699 -0.06645 0.59869
 O214 O 0.54866 -0.11777 0.54653
 C215 C 0.58529 -0.10757 0.58457
 O216 O 0.40439 0.05777 0.61086
 O217 O 0.44659 0.11015 0.55604
 C218 C 0.41488 0.09923 0.59796
 O219 O 0.41678 -0.06795 0.61274
 O220 O 0.46004 -0.11842 0.55061
 C221 C 0.43027 -0.10890 0.59623
 O222 O 0.59708 0.05988 0.58911
 O223 O 0.53711 0.11038 0.54768
 C224 C 0.57946 0.10082 0.57745
 Zr225 Zr 0.56389 -0.00354 0.56991
 O226 O 0.55750 -0.00194 0.66387
 O227 O 0.64574 -0.00443 0.57859
 Zr228 Zr 0.43453 -0.00484 0.57659
 O229 O 0.44436 -0.00392 0.67047
 O230 O 0.35299 -0.00960 0.58148
 O231 O 0.50234 -0.04536 0.58317
 O232 O 0.49772 0.03592 0.58539
 O233 O 0.58621 0.06170 0.39832
 O234 O 0.53321 0.11155 0.45091
 C235 C 0.57174 0.10228 0.41553
 O236 O 0.40456 -0.06497 0.38843
 O237 O 0.45440 -0.11686 0.44222
 C238 C 0.41977 -0.10627 0.40099
 O239 O 0.39312 0.06096 0.39808
 O240 O 0.44168 0.11107 0.45175
 C241 C 0.40574 0.10186 0.41282
 O242 O 0.58570 -0.06341 0.38318
 O243 O 0.54515 -0.11628 0.43868
 C244 C 0.57736 -0.10495 0.39728
 Zr245 Zr 0.55624 -0.00180 0.41960
 O246 O 0.54466 0.00260 0.32625
 O247 O 0.63781 -0.00489 0.40958
 Zr248 Zr 0.42605 -0.00276 0.42670
 O249 O 0.41664 0.00152 0.33296
 O250 O 0.34525 -0.00547 0.44008
 Zr251 Zr 0.49956 -0.07228 0.49561
 Zr252 Zr 0.49086 0.06496 0.50012
 O253 O 0.48867 0.03769 0.41316
 O254 O 0.49309 -0.04300 0.41006
 O255 O 0.56755 0.03727 0.49544
 O256 O 0.42331 -0.04412 0.50074
 O257 O 0.57213 -0.04228 0.49295
 O258 O 0.41722 0.03693 0.50356
 H259 H 0.49959 0.05642 0.62056
 H260 H 0.39422 -0.06504 0.50186
 H261 H 0.48700 0.05872 0.37888
 H262 H 0.60411 -0.06192 0.49069
 H263 H 0.33726 0.01371 0.55457
 H264 H 0.32903 -0.00475 0.39974
 H265 H 0.44841 -0.01258 0.31531
 H266 H 0.57966 0.00490 0.30906
 H267 H 0.65277 0.01003 0.44519
 H268 H 0.66006 -0.01509 0.54002
 H269 H 0.59298 0.00281 0.67953
 H270 H 0.40902 -0.00337 0.68749
 O271 O 0.58286 0.56357 0.10691
 O272 O 0.64081 0.52372 0.04757
 C273 C 0.62947 0.55168 0.09106
 O274 O 0.43779 0.41144 0.09609
 O275 O 0.37827 0.45674 0.04483
 C276 C 0.39070 0.42464 0.08311
 O277 O 0.58014 0.40913 0.10099
 O278 O 0.63938 0.44613 0.04516
 C279 C 0.62713 0.41789 0.08624
 O280 O 0.44235 0.58208 0.09152
 O281 O 0.38017 0.54221 0.04200
 C282 C 0.39482 0.57552 0.07633
 Zr283 Zr 0.51113 0.54634 0.07060
 O284 O 0.50649 0.53680 0.16379
 O285 O 0.52012 0.61666 0.08292
 Zr286 Zr 0.50835 0.43496 0.06716
 O287 O 0.50710 0.44117 0.16120
 O288 O 0.51048 0.36327 0.06878
 O289 O 0.55717 0.48807 0.08033
 O290 O 0.46271 0.49338 0.07928
 O291 O 0.44108 0.58536 -0.09771
 O292 O 0.37931 0.54311 -0.05414
 C293 C 0.39352 0.57797 -0.08475
 O294 O 0.57833 0.40913 -0.11507
 O295 O 0.63909 0.44487 -0.05768
 C296 C 0.62561 0.41478 -0.09712
 O297 O 0.43644 0.41338 -0.11458
 O298 O 0.37757 0.45569 -0.05911
 C299 C 0.38953 0.42455 -0.09933
 O300 O 0.58106 0.57104 -0.10951
 O301 O 0.63996 0.52766 -0.05471
 C302 C 0.62776 0.55942 -0.09298
 Zr303 Zr 0.51009 0.54809 -0.08044
 O304 O 0.50177 0.54082 -0.17425
 O305 O 0.51732 0.61832 -0.09295
 Zr306 Zr 0.50730 0.43627 -0.08314
 O307 O 0.50274 0.43752 -0.17759
 O308 O 0.50674 0.36472 -0.07939
 Zr309 Zr 0.58805 0.48778 -0.00643
 Zr310 Zr 0.42970 0.49585 -0.00702
 O311 O 0.46165 0.49505 -0.09295
 O312 O 0.55639 0.48986 -0.09368
 O313 O 0.46567 0.55886 -0.00484
 O314 O 0.55283 0.42467 -0.00786
 O315 O 0.55548 0.55407 -0.00410
 O316 O 0.46102 0.42890 -0.00851
 H317 H 0.43886 0.49536 0.11366
 H318 H 0.57446 0.39616 -0.00743
 H319 H 0.43692 0.49730 -0.12715
 H320 H 0.57797 0.58047 -0.00168
 H321 H 0.49097 0.35313 0.03311
 H322 H 0.50993 0.35338 -0.12100
 H323 H 0.53270 0.45411 -0.19194
 H324 H 0.53684 0.53499 -0.19084
 H325 H 0.51528 0.63260 -0.05296
 H326 H 0.50787 0.63146 0.04564
 H327 H 0.50001 0.56733 0.18147
 H328 H 0.50911 0.40986 0.17688
 C329 C 1.14376 0.20972 0.11431
 C330 C 1.18916 0.19221 0.14351
 C331 C 1.20116 0.14577 0.13403
 C332 C 1.16345 0.11740 0.11120
 C333 C 1.11307 0.13462 0.09585
 C334 C 1.10692 0.18150 0.09074
 C335 C 1.06309 0.21448 0.10217
 C336 C 1.10344 0.24659 0.12632
 H337 H 1.23778 0.12993 0.14746
 H338 H 1.17331 0.08147 0.10890
 H339 H 1.03712 0.20243 0.13733
 H340 H 1.04368 0.22645 0.06029
 H341 H 1.09708 0.25529 0.17386
 H342 H 1.10816 0.27637 0.09712
 C343 C 1.20681 0.67222 0.61483
 C344 C 1.18571 0.70688 0.65143
 C345 C 1.13072 0.71295 0.65071
 C346 C 1.09956 0.68061 0.62330
 C347 C 1.12261 0.64118 0.59825
 C348 C 1.17620 0.63959 0.59144
 C349 C 1.21816 0.60360 0.59153
 C350 C 1.25313 0.63972 0.61722
 H351 H 1.11064 0.73970 0.67515
 H352 H 1.05777 0.68445 0.62640
 H353 H 1.22886 0.59238 0.54567
 H354 H 1.21101 0.57607 0.62360
 H355 H 1.28372 0.64932 0.58571
 H356 H 1.26764 0.63157 0.66281
 C357 C 0.62226 0.20621 0.65694
 C358 C 0.67575 0.20727 0.64371
 C359 C 0.69397 0.17605 0.59931
 C360 C 0.66218 0.14211 0.57643
 C361 C 0.61089 0.13898 0.59596
 C362 C 0.59054 0.17361 0.63242
 C363 C 0.56000 0.16970 0.68796
 C364 C 0.59467 0.20478 0.71546
 H365 H 0.73438 0.17498 0.58652
 H366 H 0.67856 0.11687 0.54595
 H367 H 0.56504 0.13572 0.70882
 H368 H 0.51904 0.18221 0.68181
 H369 H 0.62000 0.19112 0.75222
 H370 H 0.57309 0.23716 0.72598
 C371 C 0.68755 0.62273 0.20842
 C372 C 0.71379 0.65372 0.17393
 C373 C 0.72833 0.63813 0.11603
 C374 C 0.70718 0.59862 0.09110
 C375 C 0.67081 0.57460 0.12312
 C376 C 0.66673 0.58456 0.18407
 C377 C 0.62458 0.58447 0.22936
 C378 C 0.64824 0.62642 0.25676
 H379 H 0.75366 0.65672 0.08822
 H380 H 0.71465 0.59011 0.04479
 H381 H 0.62810 0.55438 0.25885
 H382 H 0.58517 0.59203 0.21074
 H383 H 0.66573 0.62018 0.30166
 H384 H 0.62150 0.65669 0.25353
 C385 C 0.83650 -0.16474 0.19681
 C386 C 0.81922 -0.20293 0.16580
 C387 C 0.83670 -0.20878 0.10608
 C388 C 0.87158 -0.17904 0.08072
 C389 C 0.89058 -0.14275 0.11399
 C390 C 0.87056 -0.13528 0.17117
 C391 C 0.89993 -0.12874 0.22802
 C392 C 0.86341 -0.16106 0.25626
 H393 H 0.82470 -0.23648 0.07819
 H394 H 0.88277 -0.18384 0.03472
 H395 H 0.89517 -0.09344 0.24533
 H396 H 0.94073 -0.14236 0.22584
 H397 H 0.83850 -0.14413 0.29062
 H398 H 0.88302 -0.19347 0.27046
 C399 C 0.86084 0.33014 0.69804
 C400 C 0.82962 0.30355 0.66051
 C401 C 0.83613 0.30885 0.59813
 C402 C 0.87240 0.33830 0.57555
 C403 C 0.90410 0.36310 0.61390
 C404 C 0.89615 0.36002 0.67516
 C405 C 0.93608 0.34876 0.72180
 C406 C 0.89858 0.31574 0.74638
 H407 H 0.81394 0.29045 0.56556
 H408 H 0.87452 0.34282 0.52784
 H409 H 0.94275 0.37799 0.75217
 H410 H 0.97188 0.33203 0.70326
 H411 H 0.88491 0.32572 0.79167
 H412 H 0.91247 0.27977 0.74139
 C413 C 0.36065 -0.16813 0.72059
 C414 C 0.34768 -0.20930 0.69431
 C415 C 0.37496 -0.22201 0.64161
 C416 C 0.40601 -0.19092 0.61167
 C417 C 0.40977 -0.14609 0.63305
 C418 C 0.39004 -0.13726 0.69046
 C419 C 0.35933 -0.09761 0.71515
 C420 C 0.32734 -0.13134 0.74786
 H421 H 0.36887 -0.25460 0.62072
 H422 H 0.42306 -0.20077 0.56944
 H423 H 0.33646 -0.07854 0.68050
 H424 H 0.38292 -0.07656 0.74565
 H425 H 0.28644 -0.13175 0.73152
 H426 H 0.33296 -0.12963 0.79708
 C427 C 0.33209 0.35192 0.20074
 C428 C 0.29062 0.33298 0.17032
 C429 C 0.27356 0.35486 0.11686
 C430 C 0.30309 0.38880 0.09053
 C431 C 0.35056 0.40102 0.11668
 C432 C 0.36178 0.38410 0.17426
 C433 C 0.41059 0.36495 0.20302
 C434 C 0.37774 0.33000 0.23214
 H435 H 0.23932 0.34396 0.09324
 H436 H 0.29133 0.40205 0.04736
 H437 H 0.42750 0.38897 0.23567
 H438 H 0.43848 0.34915 0.17083
 H439 H 0.37561 0.33423 0.28141
 H440 H 0.38649 0.29475 0.21624
 C441 C 0.79667 0.14954 -0.18773
 C442 C 0.81001 0.19370 -0.20207
 C443 C 0.85570 0.20881 -0.17252
 C444 C 0.88672 0.17928 -0.13507
 C445 C 0.87217 0.13432 -0.12500
 C446 C 0.82547 0.12235 -0.15064
 C447 C 0.79136 0.08322 -0.15647
 C448 C 0.75796 0.11344 -0.19803
 H449 H 0.86940 0.24228 -0.17979
 H450 H 0.92263 0.19109 -0.11608
 H451 H 0.77221 0.07532 -0.11384
 H452 H 0.81052 0.05400 -0.18014
 H453 H 0.71914 0.12310 -0.17973
 H454 H 0.75781 0.09951 -0.24428
 C455 C 0.80269 0.69439 0.38850
 C456 C 0.82094 0.71390 0.33625
 C457 C 0.87446 0.70934 0.32482
 C458 C 0.90590 0.67813 0.35746
 C459 C 0.88355 0.65106 0.40080
 C460 C 0.83353 0.66308 0.41982
 C461 C 0.78899 0.63475 0.43458
 C462 C 0.75471 0.66913 0.40076
 H463 H 0.89016 0.72421 0.28524
 H464 H 0.94571 0.67135 0.34401
 H465 H 0.78102 0.63463 0.48313
 H466 H 0.79137 0.60080 0.41269
 H467 H 0.72755 0.68884 0.43020
 H468 H 0.73622 0.65454 0.36040
 C469 C 0.30712 0.19221 0.35842
 C470 C 0.32777 0.20509 0.30367
 C471 C 0.37844 0.18861 0.29043
 C472 C 0.40478 0.15677 0.32804
 C473 C 0.38094 0.14024 0.37937
 C474 C 0.33299 0.16052 0.39533
 C475 C 0.28355 0.13911 0.41119
 C476 C 0.25536 0.17390 0.37152
 H477 H 0.39592 0.19742 0.24860
 H478 H 0.44208 0.14233 0.31446
 H479 H 0.27387 0.14352 0.45907
 H480 H 0.28153 0.10379 0.39389
 H481 H 0.23031 0.19866 0.39681
 H482 H 0.23648 0.15862 0.33169
 C483 C 0.34212 0.69178 -0.14043
 C484 C 0.29417 0.68184 -0.16543
 C485 C 0.27289 0.64019 -0.14855
 C486 C 0.30341 0.60678 -0.11756
 C487 C 0.35568 0.61442 -0.10349
 C488 C 0.37232 0.65887 -0.11127
 C489 C 0.42127 0.67678 -0.13564
 C490 C 0.38791 0.71280 -0.16728
 H491 H 0.23415 0.63186 -0.16279
 H492 H 0.28767 0.57392 -0.10977
 H493 H 0.44124 0.65309 -0.16753
 H494 H 0.44640 0.69098 -0.10001
 H495 H 0.38858 0.70948 -0.21677
 H496 H 0.39379 0.74753 -0.14957
 C497 C 1.15797 -0.20987 -0.14074
 C498 C 1.20066 -0.19251 -0.17080
 C499 C 1.21364 -0.14811 -0.15639
 C500 C 1.17891 -0.11968 -0.12419
 C501 C 1.13058 -0.13532 -0.10529
 C502 C 1.12425 -0.18196 -0.10793
 C503 C 1.07853 -0.20952 -0.12206
 C504 C 1.11536 -0.24087 -0.15751
 H505 H 1.24730 -0.13362 -0.17518
 H506 H 1.18822 -0.08445 -0.11864
 H507 H 1.04908 -0.19098 -0.15032
 H508 H 1.06304 -0.22575 -0.08181
 H509 H 1.10492 -0.24156 -0.20560
 H510 H 1.12136 -0.27486 -0.13700
 C511 C 1.14405 0.28866 0.35139
 C512 C 1.18499 0.30085 0.31455
 C513 C 1.19710 0.34693 0.31427
 C514 C 1.16462 0.37972 0.34210
 C515 C 1.11957 0.36728 0.37213
 C516 C 1.11346 0.32109 0.38121
 C517 C 1.06641 0.29375 0.37756
 C518 C 1.09919 0.25826 0.34390
 H519 H 1.22904 0.35842 0.28822
 H520 H 1.17374 0.41499 0.33755
 H521 H 1.03515 0.31024 0.34969
 H522 H 1.05444 0.28228 0.42229
 H523 H 1.08485 0.25484 0.29726
 H524 H 1.10516 0.22598 0.36870
 C525 C 0.68858 -0.15952 0.30911
 C526 C 0.67376 -0.20376 0.29798
 C527 C 0.62863 -0.21764 0.32729
 C528 C 0.59742 -0.18639 0.36139
 C529 C 0.61006 -0.14035 0.36587
 C530 C 0.65747 -0.12877 0.34105
 C531 C 0.67067 -0.09047 0.30154
 C532 C 0.70480 -0.12425 0.26669
 H533 H 0.61703 -0.25238 0.32330
 H534 H 0.56249 -0.19781 0.38186
 H535 H 0.69318 -0.06455 0.32569
 H536 H 0.63669 -0.07690 0.27526
 H537 H 0.74681 -0.11767 0.27095
 H538 H 0.69065 -0.13032 0.22031
 C539 C 0.73774 0.35434 -0.17739
 C540 C 0.71353 0.31389 -0.19282
 C541 C 0.66931 0.30312 -0.16051
 C542 C 0.64534 0.33499 -0.12251
 C543 C 0.66317 0.37938 -0.11811
 C544 C 0.71222 0.38712 -0.14147
 C545 C 0.72990 0.42525 -0.17822
 C546 C 0.75793 0.38983 -0.21717
 H547 H 0.65123 0.27093 -0.16736
 H548 H 0.60936 0.32634 -0.10175
 H549 H 0.75677 0.44708 -0.15295
 H550 H 0.69729 0.44373 -0.20168
 H551 H 0.80091 0.39128 -0.21413
 H552 H 0.74189 0.38794 -0.26341
 C553 C 1.11272 0.19935 -0.17415
 C554 C 1.16667 0.20076 -0.16261
 C555 C 1.18631 0.17656 -0.11246
 C556 C 1.15490 0.14709 -0.08139
 C557 C 1.10279 0.14240 -0.09866
 C558 C 1.08159 0.17121 -0.14207
 C559 C 1.04876 0.15957 -0.19460
 C560 C 1.08263 0.18964 -0.23051
 H561 H 1.22699 0.17790 -0.10016
 H562 H 1.17210 0.12594 -0.04651
 H563 H 1.00817 0.17326 -0.19013
 H564 H 1.05273 0.12314 -0.20748
 H565 H 1.06048 0.22002 -0.24766
 H566 H 1.10632 0.17069 -0.26435
 C567 C 1.15598 0.70699 0.37983
 C568 C 1.16297 0.70315 0.31820
 C569 C 1.12670 0.67810 0.28495
 C570 C 1.09276 0.65011 0.31380
 C571 C 1.09305 0.64839 0.37619
 C572 C 1.12058 0.68060 0.40816
 C573 C 1.15469 0.67463 0.46163
 C574 C 1.19398 0.70260 0.43053
 H575 H 1.12841 0.67654 0.23666
 H576 H 1.06979 0.62710 0.28756
 H577 H 1.16798 0.63872 0.46835
 H578 H 1.13740 0.69256 0.50077
 H579 H 1.22998 0.68275 0.41846
 H580 H 1.20020 0.73551 0.45348
 C581 C 0.61728 0.20834 0.34244
 C582 C 0.67170 0.20141 0.34448
 C583 C 0.69171 0.16589 0.38099
 C584 C 0.65862 0.13498 0.40663
 C585 C 0.60454 0.13932 0.39772
 C586 C 0.58451 0.17832 0.36945
 C587 C 0.54499 0.18242 0.32057
 C588 C 0.58062 0.21467 0.29052
 H589 H 0.73327 0.15968 0.38549
 H590 H 0.67555 0.10607 0.43039
 H591 H 0.50827 0.19937 0.33612
 H592 H 0.54044 0.15014 0.29543
 H593 H 0.56350 0.24978 0.28807
 H594 H 0.59704 0.20102 0.24802
 C595 C 0.70637 0.66150 -0.11515
 C596 C 0.70848 0.66336 -0.17776
 C597 C 0.69047 0.62512 -0.20974
 C598 C 0.67199 0.58742 -0.18040
 C599 C 0.66759 0.58720 -0.11811
 C600 C 0.68527 0.62481 -0.08617
 C601 C 0.65579 0.65564 -0.04408
 C602 C 0.67954 0.69512 -0.07470
 H603 H 0.68951 0.62467 -0.25811
 H604 H 0.65616 0.56026 -0.20693
 H605 H 0.66890 0.65225 0.00292
 H606 H 0.61304 0.65491 -0.05082
 H607 H 0.70738 0.71317 -0.04562
 H608 H 0.65054 0.71751 -0.09857
 C609 C 0.84851 -0.21334 -0.12903
 C610 C 0.82293 -0.20454 -0.18410
 C611 C 0.83410 -0.16352 -0.21229
 C612 C 0.87024 -0.13411 -0.18749
 C613 C 0.89730 -0.14429 -0.13366
 C614 C 0.88499 -0.18415 -0.10463
 C615 C 0.92092 -0.22285 -0.08713
 C616 C 0.88091 -0.25442 -0.11191
 H617 H 0.81408 -0.15271 -0.25268
 H618 H 0.87633 -0.10263 -0.21039
 H619 H 0.92647 -0.22565 -0.03808
 H620 H 0.95755 -0.22393 -0.11290
 H621 H 0.86235 -0.27433 -0.07672
 H622 H 0.89479 -0.27465 -0.15103
 C623 C 0.85129 0.29355 0.38446
 C624 C 0.82510 0.30070 0.33005
 C625 C 0.83011 0.34279 0.30200
 C626 C 0.86329 0.37501 0.32577
 C627 C 0.89304 0.36590 0.37783
 C628 C 0.88502 0.32520 0.40750
 C629 C 0.92342 0.28884 0.42684
 C630 C 0.88618 0.25447 0.40250
 H631 H 0.80821 0.35117 0.26180
 H632 H 0.86590 0.40702 0.30296
 H633 H 0.92851 0.28735 0.47610
 H634 H 0.96000 0.28930 0.40150
 H635 H 0.86880 0.23396 0.43790
 H636 H 0.90159 0.23473 0.36362
 C637 C 0.35843 -0.21722 0.35810
 C638 C 0.32803 -0.20573 0.30727
 C639 C 0.33831 -0.16404 0.28043
 C640 C 0.37072 -0.13269 0.30924
 C641 C 0.39532 -0.14267 0.36487
 C642 C 0.39209 -0.18720 0.38486
 C643 C 0.38505 -0.20624 0.44538
 C644 C 0.34790 -0.23909 0.41651
 H645 H 0.31800 -0.15394 0.23980
 H646 H 0.37400 -0.09959 0.28950
 H647 H 0.36576 -0.18147 0.47646
 H648 H 0.42133 -0.22328 0.46275
 H649 H 0.30775 -0.23298 0.43273
 H650 H 0.36268 -0.27496 0.41793
 C651 C 0.32891 0.34652 -0.21342
 C652 C 0.28875 0.32712 -0.18214
 C653 C 0.27416 0.34979 -0.12795
 C654 C 0.30365 0.38518 -0.10321
 C655 C 0.34903 0.39863 -0.13121
 C656 C 0.35846 0.38023 -0.18842
 C657 C 0.40676 0.36234 -0.21827
 C658 C 0.37437 0.32565 -0.24579
 H659 H 0.24100 0.33980 -0.10298
 H660 H 0.29327 0.39917 -0.06001
 H661 H 0.43659 0.34810 -0.18677
 H662 H 0.42112 0.38633 -0.25166
 H663 H 0.38540 0.29099 -0.22971
 H664 H 0.37032 0.32891 -0.29505
 C665 C 1.17114 -0.20651 0.10983
 C666 C 1.20310 -0.19347 0.15786
 C667 C 1.20189 -0.14756 0.17405
 C668 C 1.16311 -0.11789 0.15083
 C669 C 1.12482 -0.13347 0.11042
 C670 C 1.13322 -0.17685 0.08614
 C671 C 1.09647 -0.21366 0.07444
 C672 C 1.13791 -0.24641 0.10006
 H673 H 1.22610 -0.13590 0.21049
 H674 H 1.16134 -0.08348 0.16800
 H675 H 1.08921 -0.21890 0.02593
 H676 H 1.06105 -0.21019 0.10221
 H677 H 1.15448 -0.27033 0.06607
 H678 H 1.12578 -0.26262 0.14188
 C679 C 1.21204 0.34034 0.64702
 C680 C 1.19396 0.29727 0.65716
 C681 C 1.15002 0.28404 0.62369
 C682 C 1.11928 0.31642 0.59190
 C683 C 1.13228 0.36222 0.59352
 C684 C 1.18156 0.37223 0.61638
 C685 C 1.19873 0.41005 0.65579
 C686 C 1.23188 0.37504 0.68949
 H687 H 1.13631 0.24999 0.62739
 H688 H 1.08318 0.30640 0.57143
 H689 H 1.16689 0.42539 0.68332
 H690 H 1.22200 0.43460 0.63132
 H691 H 1.21867 0.37029 0.73597
 H692 H 1.27416 0.37959 0.68442
 C693 C 0.62783 -0.20950 0.67898
 C694 C 0.68175 -0.20409 0.68800
 C695 C 0.70343 -0.16957 0.65335
 C696 C 0.67220 -0.14027 0.61713
 C697 C 0.61804 -0.14430 0.61273
 C698 C 0.59722 -0.18092 0.64192
 C699 C 0.55159 -0.18149 0.68188
 C700 C 0.58450 -0.21215 0.72269
 H701 H 0.74402 -0.16241 0.65580
 H702 H 0.69033 -0.11281 0.59459
 H703 H 0.51849 -0.19882 0.66072
 H704 H 0.54163 -0.14770 0.70193
 H705 H 0.56941 -0.24681 0.72536
 H706 H 0.59379 -0.19611 0.76644
 C707 C 0.69719 0.36749 0.21616
 C708 C 0.70941 0.32414 0.19379
 C709 C 0.71071 0.31821 0.13138
 C710 C 0.68977 0.35247 0.09368
 C711 C 0.66841 0.39298 0.11838
 C712 C 0.67702 0.40124 0.17924
 C713 C 0.64279 0.42069 0.22717
 C714 C 0.66521 0.38354 0.26780
 H715 H 0.72294 0.28574 0.11227
 H716 H 0.68479 0.34519 0.04650
 H717 H 0.60080 0.41734 0.21733
 H718 H 0.65404 0.45521 0.24110
 H719 H 0.63591 0.35910 0.28113
 H720 H 0.68948 0.39668 0.30495
 C721 C 0.84520 0.20440 0.15477
 C722 C 0.79715 0.19047 0.17488
 C723 C 0.77657 0.15200 0.14702
 C724 C 0.80766 0.12412 0.10973
 C725 C 0.85959 0.13452 0.09887
 C726 C 0.87569 0.17715 0.11715
 C727 C 0.92470 0.19051 0.14722
 C728 C 0.89140 0.22002 0.18888
 H729 H 0.73788 0.14158 0.15697
 H730 H 0.79235 0.09266 0.09332
 H731 H 0.94845 0.21057 0.11694
 H732 H 0.94568 0.16173 0.16994
 H733 H 0.89708 0.25685 0.18326
 H734 H 0.89242 0.20815 0.23589
 C735 C 0.86308 0.71816 0.64914
 C736 C 0.81163 0.70557 0.65624
 C737 C 0.79506 0.66796 0.62281
 C738 C 0.83135 0.63731 0.59795
 C739 C 0.88447 0.64482 0.60383
 C740 C 0.89923 0.68791 0.62281
 C741 C 0.94128 0.70037 0.66544
 C742 C 0.90195 0.73286 0.69474
 H743 H 0.75486 0.65854 0.62381
 H744 H 0.81811 0.60592 0.57881
 H745 H 0.97269 0.71807 0.64287
 H746 H 0.95453 0.67177 0.69461
 H747 H 0.91120 0.76907 0.68973
 H748 H 0.89206 0.72288 0.74079
 C749 C 0.34330 0.20717 0.65226
 C750 C 0.32666 0.19433 0.70897
 C751 C 0.35020 0.15442 0.73300
 C752 C 0.38169 0.12515 0.69760
 C753 C 0.39123 0.13506 0.63727
 C754 C 0.37513 0.17834 0.61731
 C755 C 0.34721 0.19204 0.56122
 C756 C 0.31253 0.22339 0.59919
 H757 H 0.34146 0.14406 0.77789
 H758 H 0.39588 0.09328 0.71650
 H759 H 0.32645 0.16357 0.54048
 H760 H 0.37237 0.21048 0.53053
 H761 H 0.27147 0.21324 0.60023
 H762 H 0.31779 0.25991 0.59047
 C763 C 0.34434 0.68643 0.14192
 C764 C 0.29636 0.67546 0.16391
 C765 C 0.27487 0.63476 0.14241
 C766 C 0.30523 0.60278 0.10923
 C767 C 0.35744 0.61102 0.09770
 C768 C 0.37447 0.65485 0.11064
 C769 C 0.42332 0.67128 0.13906
 C770 C 0.38986 0.70593 0.17300
 H771 H 0.23592 0.62619 0.15421
 H772 H 0.28937 0.57044 0.09751
 H773 H 0.44885 0.68705 0.10618
 H774 H 0.44297 0.64598 0.16909
 H775 H 0.39599 0.74138 0.15926
 H776 H 0.38988 0.70030 0.22204
   
