data_POSCAR
  _audit_creation_date              2014-09-24
  _audit_creation_method            'ToBaCCo'
  _symmetry_space_group_name_H-M    'P1'
  _symmetry_Int_Tables_number       1
  _symmetry_cell_setting            triclinic
  loop_
  _symmetry_equiv_pos_as_xyz
 x,y,z
_cell_length_a 23.0609
_cell_length_b 22.8355
_cell_length_c 23.4506
_cell_angle_alpha 89.943800
_cell_angle_beta 93.842300
_cell_angle_gamma 91.504000
loop_
  _atom_site_label
  _atom_site_type_symbol
  _atom_site_fract_x
  _atom_site_fract_y
  _atom_site_fract_z
C1 C 0.22770 0.57352 1.10494
 H2 H 0.25822 0.60830 1.09573
 C3 C 0.19581 0.57796 1.15301
 H4 H 0.20283 0.61555 1.18105
 C5 C 0.17847 0.48411 1.07850
 H6 H 0.17118 0.44842 1.04835
 C7 C 0.14525 0.48702 1.12629
 H8 H 0.11267 0.45322 1.13342
 N9 N 0.21866 0.52715 1.06876
 C10 C 0.30448 0.63604 0.95809
 H11 H 0.26850 0.63542 0.92609
 C12 C 0.34833 0.67940 0.95627
 H13 H 0.34604 0.71222 0.92288
 C14 C 0.35425 0.59203 1.03821
 H15 H 0.35676 0.55691 1.06922
 C16 C 0.39873 0.63443 1.03802
 H17 H 0.43550 0.63167 1.06902
 Zn18 Zn 0.25673 0.52792 0.99966
 N19 N 0.30858 0.59325 0.99846
 C20 C 0.16165 0.57505 0.93706
 N21 N 0.19864 0.52962 0.93936
 C22 C 0.19097 0.48353 0.90260
 C23 C 0.14444 0.48200 0.86139
 C24 C 0.11468 0.57534 0.89636
 C25 C 0.33446 0.46280 0.94420
 C26 C 0.37451 0.41945 0.93611
 C27 C 0.34963 0.37559 1.02542
 C28 C 0.30969 0.41976 1.03173
 N29 N 0.30325 0.46233 0.99143
 H30 H 0.16805 0.61043 0.96767
 H31 H 0.21976 0.44699 0.90622
 H32 H 0.13832 0.44469 0.83298
 H33 H 0.08490 0.61127 0.89511
 H34 H 0.32898 0.49783 0.91336
 H35 H 0.39996 0.42080 0.89894
 H36 H 0.35533 0.34259 1.05834
 H37 H 0.28520 0.42098 1.06941
 C38 C 0.39645 0.67815 0.99593
 C39 C 0.15390 0.53476 1.16355
 C40 C 0.38298 0.37583 0.97727
 C41 C 0.10553 0.52823 0.85852
 C42 C 0.81586 0.51272 -0.09477
 H43 H 0.79325 0.55311 -0.09034
 C44 C 0.85172 0.50632 -0.13989
 H45 H 0.85607 0.54178 -0.17010
 C46 C 0.84171 0.41933 -0.05835
 H47 H 0.83892 0.38654 -0.02524
 C48 C 0.87796 0.41114 -0.10280
 H49 H 0.90318 0.37188 -0.10414
 N50 N 0.81234 0.46989 -0.05466
 C51 C 0.75510 0.59912 0.05006
 H52 H 0.79056 0.59230 0.08164
 C53 C 0.72234 0.64950 0.05258
 H54 H 0.73270 0.68141 0.08610
 C55 C 0.69462 0.56401 -0.02904
 H56 H 0.68315 0.52946 -0.05960
 C57 C 0.66065 0.61363 -0.02791
 H58 H 0.62297 0.61709 -0.05770
 Zn59 Zn 0.77465 0.48313 0.01284
 N60 N 0.74007 0.55717 0.01028
 C61 C 0.82624 0.43933 0.11800
 N62 N 0.83171 0.47830 0.07457
 C63 C 0.87992 0.51358 0.07229
 C64 C 0.92445 0.51161 0.11554
 C65 C 0.86970 0.43615 0.16235
 C66 C 0.68101 0.43614 0.06730
 C67 C 0.63144 0.40121 0.07408
 C68 C 0.64923 0.35068 -0.01333
 C69 C 0.69872 0.38642 -0.01834
 N70 N 0.71342 0.42824 0.02167
 H71 H 0.78835 0.41057 0.11836
 H72 H 0.88361 0.54342 0.03678
 H73 H 0.96214 0.54059 0.11335
 H74 H 0.86471 0.40571 0.19723
 H75 H 0.69310 0.47060 0.09777
 H76 H 0.60539 0.40831 0.11006
 H77 H 0.63745 0.31819 -0.04594
 H78 H 0.72428 0.38186 -0.05496
 C79 C 0.67375 0.65625 0.01436
 C80 C 0.88426 0.45548 -0.14321
 C81 C 0.61480 0.35853 0.03320
 C82 C 0.91925 0.47266 0.16146
 C83 C -0.02123 0.33799 0.40413
 H84 H -0.06152 0.33979 0.42511
 C85 C -0.00867 0.37994 0.36253
 H86 H -0.03963 0.41349 0.35086
 C87 C 0.06975 0.29400 0.39554
 H88 H 0.10138 0.26231 0.40996
 C89 C 0.08385 0.33470 0.35396
 H90 H 0.12568 0.33292 0.33562
 N91 N 0.01792 0.29615 0.41982
 C92 C -0.08218 0.17184 0.52031
 H93 H -0.05619 0.17549 0.56036
 C94 C -0.12985 0.13287 0.51556
 H95 H -0.14053 0.10701 0.55232
 C96 C -0.09705 0.19815 0.42271
 H97 H -0.08296 0.22252 0.38636
 C98 C -0.14439 0.15842 0.41575
 H99 H -0.16706 0.15263 0.37412
 Zn100 Zn 0.00444 0.24706 0.48381
 N101 N -0.06676 0.20363 0.47438
 C102 C -0.03946 0.30531 0.58033
 N103 N 0.00633 0.29763 0.54761
 C104 C 0.05727 0.32833 0.55782
 C105 C 0.06381 0.36870 0.60239
 C106 C -0.03466 0.34534 0.62566
 C107 C 0.07732 0.15526 0.45366
 C108 C 0.11766 0.11108 0.46379
 C109 C 0.12632 0.13862 0.56343
 C110 C 0.08701 0.18315 0.55122
 N111 N 0.06349 0.19088 0.49698
 H112 H -0.08006 0.28157 0.57065
 H113 H 0.09269 0.32176 0.53070
 H114 H 0.10412 0.39385 0.60942
 H115 H -0.07169 0.35218 0.65065
 H116 H 0.05653 0.16080 0.41133
 H117 H 0.12803 0.08288 0.42902
 H118 H 0.14387 0.13208 0.60690
 H119 H 0.07385 0.21019 0.58560
 C120 C -0.16095 0.12514 0.46247
 C121 C 0.04476 0.37845 0.33761
 C122 C 0.14221 0.10233 0.51949
 C123 C 0.01757 0.37772 0.63653
 C124 C 0.91913 0.69428 0.59927
 H125 H 0.88124 0.71792 0.58377
 C126 C 0.91557 0.65668 0.64597
 H127 H 0.87511 0.65156 0.66658
 C128 C 1.01674 0.66816 0.58881
 H129 H 1.05529 0.67129 0.56502
 C130 C 1.01492 0.62991 0.63494
 H131 H 1.05269 0.60434 0.64688
 N132 N 0.96877 0.69821 0.57101
 C133 C 0.86231 0.80005 0.46236
 H134 H 0.85379 0.76781 0.42896
 C135 C 0.82556 0.84782 0.46587
 H136 H 0.78889 0.85224 0.43500
 C137 C 0.92004 0.83440 0.54359
 H138 H 0.95729 0.82918 0.57353
 C139 C 0.88440 0.88191 0.54896
 H140 H 0.89401 0.91328 0.58312
 Zn141 Zn 0.96773 0.73856 0.50067
 N142 N 0.90902 0.79492 0.50064
 C143 C 0.97418 0.62578 0.45143
 N144 N 0.95890 0.68218 0.43999
 C145 C 0.94651 0.69998 0.38525
 C146 C 0.95426 0.66227 0.33972
 C147 C 0.98323 0.58688 0.40703
 C148 C 1.07405 0.79696 0.54074
 C149 C 1.12028 0.83725 0.53606
 C150 C 1.09207 0.84715 0.43560
 C151 C 1.04649 0.80700 0.44212
 N152 N 1.03794 0.78293 0.49408
 H153 H 0.98320 0.61160 0.49485
 H154 H 0.93411 0.74455 0.37654
 H155 H 0.94811 0.67820 0.29628
 H156 H 0.99954 0.54374 0.41683
 H157 H 1.06536 0.77944 0.58220
 H158 H 1.14745 0.84954 0.57381
 H159 H 1.09732 0.86733 0.39438
 H160 H 1.01656 0.79708 0.40599
 C161 C 0.83724 0.88946 0.50958
 C162 C 0.96313 0.62263 0.66284
 C163 C 1.12876 0.86339 0.48293
 C164 C 0.97537 0.60618 0.35047
 C165 C 0.39655 -0.05699 0.32883
 H166 H 0.42859 -0.09074 0.32995
 C167 C 0.35675 -0.05528 0.37146
 H168 H 0.35775 -0.08840 0.40454
 C169 C 0.35925 0.03031 0.28795
 H170 H 0.36182 0.06571 0.25783
 C171 C 0.31849 0.03314 0.32900
 H172 H 0.28947 0.06967 0.32900
 N173 N 0.39752 -0.01418 0.28834
 C174 C 0.46588 -0.12891 0.20435
 H175 H 0.45932 -0.13925 0.24844
 C176 C 0.48477 -0.17236 0.16829
 H177 H 0.49244 -0.21596 0.18494
 C178 C 0.47226 -0.05836 0.13071
 H179 H 0.47144 -0.01350 0.11657
 C180 C 0.49062 -0.10041 0.09337
 H181 H 0.50291 -0.08731 0.05130
 Zn182 Zn 0.46004 -0.00898 0.23880
 N183 N 0.46237 -0.07249 0.18585
 C184 C 0.57399 -0.04369 0.27500
 N185 N 0.53052 -0.00671 0.28531
 C186 C 0.53525 0.03065 0.33062
 C187 C 0.58439 0.03033 0.36887
 C188 C 0.62367 -0.04568 0.31237
 C189 C 0.40553 0.06535 0.15929
 C190 C 0.40203 0.11017 0.11919
 C191 C 0.49810 0.14448 0.15371
 C192 C 0.49953 0.09930 0.19392
 N193 N 0.45405 0.06023 0.19509
 H194 H 0.56987 -0.07252 0.23840
 H195 H 0.50005 0.05958 0.33783
 H196 H 0.58668 0.05906 0.40568
 H197 H 0.65721 -0.07653 0.30489
 H198 H 0.37077 0.03266 0.16007
 H199 H 0.36421 0.11266 0.08940
 H200 H 0.53543 0.17392 0.15135
 H201 H 0.53808 0.09366 0.22201
 C202 C 0.49944 -0.15729 0.11300
 C203 C 0.31776 -0.00904 0.37193
 C204 C 0.44919 0.14905 0.11513
 C205 C 0.62882 -0.00905 0.36023
 C206 C 0.61206 -0.02242 0.69670
 H207 H 0.61870 -0.05875 0.72578
 C208 C 0.64703 -0.01550 0.65039
 H209 H 0.68108 -0.04622 0.64445
 C210 C 0.55734 0.05981 0.66632
 H211 H 0.52113 0.08795 0.67193
 C212 C 0.59169 0.06885 0.62037
 H213 H 0.58228 0.10421 0.59065
 N214 N 0.56803 0.01498 0.70345
 C215 C 0.58397 -0.05167 0.84186
 H216 H 0.61504 -0.01747 0.83193
 C217 C 0.59764 -0.09129 0.88602
 H218 H 0.63957 -0.08810 0.90967
 C219 C 0.49058 -0.09648 0.82470
 H220 H 0.44831 -0.09735 0.80182
 C221 C 0.50225 -0.13653 0.86885
 H222 H 0.46911 -0.16875 0.87865
 Zn223 Zn 0.51196 0.00460 0.75801
 N224 N 0.53128 -0.05510 0.81203
 C225 C 0.44155 -0.06612 0.68506
 N226 N 0.44240 -0.01448 0.71397
 C227 C 0.40021 0.02543 0.70334
 C228 C 0.35583 0.01466 0.66065
 C229 C 0.39772 -0.07888 0.64269
 C230 C 0.54742 0.11780 0.79748
 C231 C 0.54765 0.16589 0.83414
 C232 C 0.46155 0.12519 0.87415
 C233 C 0.46293 0.07776 0.83672
 N234 N 0.50581 0.07464 0.79982
 H235 H 0.47661 -0.09622 0.69313
 H236 H 0.40284 0.06704 0.72544
 H237 H 0.32384 0.04770 0.65095
 H238 H 0.39852 -0.11925 0.61860
 H239 H 0.58229 0.11365 0.76935
 H240 H 0.58237 0.19872 0.83379
 H241 H 0.42855 0.12591 0.90485
 H242 H 0.43113 0.04224 0.83850
 C243 C 0.55634 -0.13386 0.90030
 C244 C 0.63629 0.03049 0.61148
 C245 C 0.50519 0.16926 0.87369
 C246 C 0.35532 -0.03766 0.62906
 C247 C 0.24366 -0.02099 0.50857
 C248 C 0.72972 0.00750 0.49075
 C249 C 0.48769 0.25659 1.00517
 C250 C 0.54364 0.74983 0.01130
 C251 C 1.05098 0.50587 0.25779
 C252 C -0.01024 0.48704 0.74745
 N253 N 0.18019 0.05488 0.53299
 N254 N 0.20815 0.03014 0.49513
 N255 N 0.63428 0.70171 0.02478
 N256 N 0.58703 0.70870 -0.00555
 N257 N 0.80275 -0.06011 0.51573
 N258 N 0.76219 -0.04501 0.47971
 N259 N 0.42783 0.33464 0.97096
 N260 N 0.44031 0.29698 1.00945
 N261 N 0.79465 0.08013 0.45443
 N262 N 0.77007 0.05790 0.49673
 N263 N 0.44503 0.71720 -0.01109
 N264 N 0.49123 0.71512 0.02172
 N265 N 0.17050 -0.09004 0.47653
 N266 N 0.20520 -0.07144 0.51736
 N267 N 0.56182 0.32555 1.03861
 N268 N 0.54240 0.28932 1.00040
 N269 N 0.44802 0.18876 1.06817
 N270 N 0.49168 0.22049 1.05627
 N271 N -0.04374 0.57669 0.70354
 N272 N -0.00558 0.53765 0.70994
 N273 N 0.56982 0.82663 -0.05326
 N274 N 0.53128 0.79177 -0.03498
 N275 N 1.05918 0.41599 0.30157
 N276 N 1.07831 0.44935 0.26620
 N277 N 0.53110 0.80993 0.08643
 N278 N 0.56563 0.77981 0.06334
 N279 N 0.02306 0.42406 0.67761
 N280 N -0.01592 0.43475 0.71177
 N281 N 0.51215 0.21289 0.91753
 N282 N 0.47605 0.21780 0.95587
 N283 N 0.99719 0.57493 0.30397
 N284 N 1.02285 0.52614 0.30817
 N285 N 1.12355 0.54052 0.20549
 N286 N 1.09581 0.54952 0.24699
 N287 N 0.66728 0.03758 0.56096
 N288 N 0.70130 -0.00073 0.54402
 N289 N -0.07124 0.45081 0.81753
 N290 N -0.06049 0.49096 0.78178
 N291 N 0.28020 -0.00074 0.41731
 N292 N 0.28051 -0.03308 0.46155
 N293 N 0.05542 0.52757 0.81925
 N294 N 0.04232 0.48497 0.78544
 N295 N 0.67663 -0.01617 0.40170
 N296 N 0.68488 0.01752 0.44484
 N297 N 0.96228 0.47143 0.20846
 N298 N 1.00841 0.50325 0.20872
 N299 N 0.31571 -0.04807 0.58022
 N300 N 0.28086 -0.00961 0.56040
   
