data_POSCAR
  _audit_creation_date              2014-09-24
  _audit_creation_method            'ToBaCCo'
  _symmetry_space_group_name_H-M    'P1'
  _symmetry_Int_Tables_number       1
  _symmetry_cell_setting            triclinic
  loop_
  _symmetry_equiv_pos_as_xyz
 x,y,z
_cell_length_a 46.6406
_cell_length_b 46.5673
_cell_length_c 47.0980
_cell_angle_alpha 89.982200
_cell_angle_beta 89.944600
_cell_angle_gamma 89.968600
loop_
  _atom_site_label
  _atom_site_type_symbol
  _atom_site_fract_x
  _atom_site_fract_y
  _atom_site_fract_z
N1 N 0.30011 0.37918 1.36046
 N2 N 0.30202 0.35921 1.38005
 C3 C 0.28005 0.36218 1.39839
 C4 C 0.26331 0.38537 1.38992
 C5 C 0.27693 0.39556 1.36565
 H6 H 0.27654 0.34829 1.41642
 H7 H 0.27054 0.41344 1.35248
 Cu8 Cu 0.33274 0.33089 1.37955
 Cu9 Cu 0.32751 0.38225 1.32943
 Cu10 Cu 0.38149 0.33120 1.32672
 N11 N 0.36264 0.30182 1.37695
 N12 N 0.38158 0.30203 1.35632
 C13 C 0.39940 0.27951 1.35943
 C14 C 0.39125 0.26410 1.38340
 C15 C 0.36773 0.27911 1.39391
 H16 H 0.41684 0.27478 1.34508
 H17 H 0.35502 0.27390 1.41237
 N18 N 0.37782 0.36241 1.29870
 N19 N 0.35723 0.38181 1.29969
 C20 C 0.36033 0.39994 1.27761
 C21 C 0.38405 0.39162 1.26191
 C22 C 0.39457 0.36772 1.27600
 H23 H 0.34639 0.41797 1.27336
 H24 H 0.41287 0.35486 1.26997
 H25 H 0.33785 0.33902 1.32865
 H26 H 0.36153 0.36300 1.35010
 N27 N 1.19948 0.62195 0.86192
 N28 N 1.19809 0.64254 0.88094
 C29 C 1.21998 0.63950 0.89934
 C30 C 1.23597 0.61568 0.89146
 C31 C 1.22221 0.60512 0.86758
 H32 H 1.22393 0.65355 0.91716
 H33 H 1.22847 0.58682 0.85490
 Cu34 Cu 1.16798 0.67145 0.87944
 Cu35 Cu 1.17210 0.61873 0.83089
 Cu36 Cu 1.11830 0.67007 0.82782
 N37 N 1.13766 0.70013 0.87749
 N38 N 1.11833 0.69945 0.85726
 C39 C 1.10018 0.72167 0.86059
 C40 C 1.10850 0.73736 0.88430
 C41 C 1.13247 0.72283 0.89443
 H42 H 1.08238 0.72599 0.84657
 H43 H 1.14539 0.72834 0.91264
 N44 N 1.12192 0.63864 0.80002
 N45 N 1.14241 0.61914 0.80115
 C46 C 1.13931 0.60091 0.77917
 C47 C 1.11570 0.60929 0.76337
 C48 C 1.10524 0.63331 0.77730
 H49 H 1.15320 0.58282 0.77503
 H50 H 1.08705 0.64624 0.77114
 H51 H 1.16185 0.66188 0.82892
 H52 H 1.13850 0.63873 0.85157
 N53 N 0.69842 -0.12127 0.13757
 N54 N 0.69654 -0.14128 0.11801
 C55 C 0.71851 -0.13829 0.09965
 C56 C 0.73504 -0.11507 0.10810
 C57 C 0.72154 -0.10484 0.13230
 H58 H 0.72216 -0.15197 0.08148
 H59 H 0.72822 -0.08705 0.14543
 Cu60 Cu 0.66585 -0.16960 0.11863
 Cu61 Cu 0.67118 -0.11826 0.16872
 Cu62 Cu 0.61730 -0.16933 0.17163
 N63 N 0.63594 -0.19863 0.12127
 N64 N 0.61708 -0.19842 0.14198
 C65 C 0.59922 -0.22089 0.13892
 C66 C 0.60726 -0.23628 0.11491
 C67 C 0.63075 -0.22131 0.10432
 H68 H 0.58184 -0.22560 0.15335
 H69 H 0.64338 -0.22652 0.08580
 N70 N 0.62108 -0.13819 0.19968
 N71 N 0.64162 -0.11877 0.19860
 C72 C 0.63863 -0.10069 0.22073
 C73 C 0.61503 -0.10908 0.23657
 C74 C 0.60446 -0.13296 0.22250
 H75 H 0.65257 -0.08267 0.22492
 H76 H 0.58623 -0.14585 0.22862
 H77 H 0.66093 -0.16148 0.16954
 H78 H 0.63713 -0.13751 0.14816
 N79 N -0.19939 1.12072 -0.36017
 N80 N -0.19743 1.14074 -0.37973
 C81 C -0.21934 1.13779 -0.39810
 C82 C -0.23595 1.11461 -0.38967
 C83 C -0.22252 1.10433 -0.36547
 H84 H -0.22290 1.15149 -0.41628
 H85 H -0.22925 1.08651 -0.35236
 Cu86 Cu -0.16674 1.16903 -0.37916
 Cu87 Cu -0.17213 1.11764 -0.32907
 Cu88 Cu -0.11818 1.16865 -0.32631
 N89 N -0.13684 1.19804 -0.37657
 N90 N -0.11796 1.19781 -0.35592
 C91 C -0.10011 1.22028 -0.35902
 C92 C -0.10818 1.23569 -0.38301
 C93 C -0.13168 1.22073 -0.39353
 H94 H -0.08271 1.22499 -0.34465
 H95 H -0.14434 1.22596 -0.41201
 N96 N -0.12194 1.13747 -0.29827
 N97 N -0.14253 1.11809 -0.29927
 C98 C -0.13951 1.09998 -0.27716
 C99 C -0.11585 1.10832 -0.26143
 C100 C -0.10528 1.13219 -0.27553
 H101 H -0.15346 1.08198 -0.27291
 H102 H -0.08702 1.14505 -0.26948
 H103 H -0.16182 1.16084 -0.32827
 H104 H -0.13807 1.13686 -0.34971
 N105 N 0.69933 0.62121 0.63861
 N106 N 0.69755 0.64119 0.61900
 C107 C 0.71953 0.63806 0.60068
 C108 C 0.73597 0.61478 0.60921
 C109 C 0.72239 0.60466 0.63341
 H110 H 0.72324 0.65169 0.58248
 H111 H 0.72898 0.58685 0.64659
 Cu112 Cu 0.66697 0.66965 0.61952
 Cu113 Cu 0.67200 0.61838 0.66972
 Cu114 Cu 0.61822 0.66964 0.67234
 N115 N 0.63712 0.69878 0.62197
 N116 N 0.61815 0.69865 0.64259
 C117 C 0.60033 0.72116 0.63937
 C118 C 0.60856 0.73638 0.61541
 C119 C 0.63205 0.72146 0.60495
 H120 H 0.58295 0.72624 0.65370
 H121 H 0.64453 0.72667 0.58632
 N122 N 0.62186 0.63857 0.70050
 N123 N 0.64237 0.61908 0.69954
 C124 C 0.63928 0.60108 0.72173
 C125 C 0.61566 0.60960 0.73748
 C126 C 0.60518 0.63347 0.72330
 H127 H 0.65316 0.58302 0.72601
 H128 H 0.58696 0.64644 0.72933
 H129 H 0.63806 0.63771 0.64902
 H130 H 0.66183 0.66163 0.67042
 N131 N 0.80071 0.37976 0.14073
 N132 N 0.80253 0.35973 0.12118
 C133 C 0.78062 0.36282 0.10283
 C134 C 0.76415 0.38610 0.11127
 C135 C 0.77765 0.39630 0.13545
 H136 H 0.77697 0.34914 0.08467
 H137 H 0.77103 0.41415 0.14856
 Cu138 Cu 0.83303 0.33121 0.12176
 Cu139 Cu 0.82802 0.38262 0.17182
 Cu140 Cu 0.88170 0.33124 0.17454
 N141 N 0.86276 0.30201 0.12431
 N142 N 0.88172 0.30212 0.14491
 C143 C 0.89945 0.27952 0.14173
 C144 C 0.89115 0.26427 0.11784
 C145 C 0.86775 0.27927 0.10735
 H146 H 0.91680 0.27440 0.15605
 H147 H 0.85526 0.27406 0.08876
 N148 N 0.87812 0.36243 0.20258
 N149 N 0.85764 0.38195 0.20160
 C150 C 0.86077 0.40002 0.22371
 C151 C 0.88440 0.39152 0.23942
 C152 C 0.89483 0.36759 0.22531
 H153 H 0.84692 0.41811 0.22796
 H154 H 0.91303 0.35461 0.23135
 H155 H 0.86196 0.36317 0.15114
 H156 H 0.83811 0.33935 0.17264
 N157 N 0.29987 0.12158 0.85949
 N158 N 0.30135 0.14203 0.87864
 C159 C 0.27944 0.13900 0.89705
 C160 C 0.26333 0.11534 0.88905
 C161 C 0.27704 0.10485 0.86507
 H162 H 0.27557 0.15294 0.91498
 H163 H 0.27073 0.08664 0.85231
 Cu164 Cu 0.33161 0.17075 0.87735
 Cu165 Cu 0.32736 0.11834 0.82850
 Cu166 Cu 0.38146 0.16935 0.82580
 N167 N 0.36207 0.19923 0.87561
 N168 N 0.38146 0.19859 0.85537
 C169 C 0.39966 0.22071 0.85885
 C170 C 0.39130 0.23616 0.88262
 C171 C 0.36732 0.22180 0.89269
 H172 H 0.41767 0.22513 0.84508
 H173 H 0.35438 0.22758 0.91085
 N174 N 0.37780 0.13806 0.79784
 N175 N 0.35719 0.11870 0.79882
 C176 C 0.36029 0.10055 0.77676
 C177 C 0.38404 0.10883 0.76108
 C178 C 0.39457 0.13271 0.77516
 H179 H 0.34633 0.08257 0.77250
 H180 H 0.41287 0.14555 0.76912
 H181 H 0.36102 0.13799 0.84934
 H182 H 0.33787 0.16143 0.82678
 N183 N 0.20076 0.87704 0.36000
 N184 N 0.19959 0.85642 0.37901
 C185 C 0.22157 0.85953 0.39729
 C186 C 0.23745 0.88338 0.38929
 C187 C 0.22348 0.89392 0.36550
 H188 H 0.22590 0.84526 0.41486
 H189 H 0.22929 0.91251 0.35304
 Cu190 Cu 0.16966 0.82734 0.37764
 Cu191 Cu 0.17305 0.88035 0.32927
 Cu192 Cu 0.11893 0.82940 0.32699
 N193 N 0.13883 0.79921 0.37641
 N194 N 0.11912 0.80012 0.35652
 C195 C 0.10073 0.77820 0.36028
 C196 C 0.10929 0.76259 0.38386
 C197 C 0.13359 0.77665 0.39354
 H198 H 0.08245 0.77402 0.34682
 H199 H 0.14674 0.77069 0.41147
 N200 N 0.12241 0.86070 0.29903
 N201 N 0.14303 0.88006 0.29986
 C202 C 0.13982 0.89820 0.27781
 C203 C 0.11600 0.88993 0.26230
 C204 C 0.10553 0.86605 0.27646
 H205 H 0.15378 0.91617 0.27343
 H206 H 0.08721 0.85320 0.27054
 H207 H 0.13979 0.86043 0.35058
 H208 H 0.16253 0.83729 0.32728
 Zn209 Zn 0.00424 1.03552 -0.01560
 Zn210 Zn -0.02263 0.97738 -0.02181
 Zn211 Zn 0.03537 0.98346 0.00490
 Zn212 Zn -0.01661 1.00419 0.03572
 O213 O 0.00007 1.00011 0.00077
 O214 O -0.01457 1.03848 -0.04853
 O215 O -0.00456 0.94545 -0.03361
 O216 O 0.06393 1.00544 -0.00834
 O217 O -0.03445 0.99552 -0.05337
 O218 O 0.04082 1.04407 -0.02357
 O219 O 0.03825 0.95016 -0.01373
 O220 O 0.00528 0.99073 0.06399
 O221 O -0.05457 0.96547 -0.00402
 O222 O 0.04392 0.97544 0.04112
 O223 O -0.04992 0.98542 0.03847
 O224 O -0.02453 1.04081 0.04433
 O225 O -0.00904 1.06409 0.00625
 C226 C -0.02984 1.02080 -0.06227
 C227 C 0.02064 0.93635 -0.02897
 C228 C 0.06380 1.03004 -0.01985
 C229 C 0.02988 0.97917 0.06387
 C230 C -0.06370 0.97011 0.02093
 C231 C -0.02065 1.06389 0.03059
 Zn232 Zn 0.48363 0.00511 0.46392
 Zn233 Zn 0.47758 -0.02198 0.52136
 Zn234 Zn 0.53559 -0.01577 0.49459
 Zn235 Zn 0.50446 0.03620 0.51531
 O236 O 0.50029 0.00086 0.49882
 O237 O 0.45039 -0.01376 0.46112
 O238 O 0.49568 -0.05391 0.53309
 O239 O 0.54415 -0.02367 0.45832
 O240 O 0.44571 -0.03392 0.50352
 O241 O 0.50555 -0.00819 0.43557
 O242 O 0.53849 -0.04914 0.51313
 O243 O 0.54104 0.04472 0.52326
 O244 O 0.46568 -0.00394 0.55296
 O245 O 0.56415 0.00615 0.50785
 O246 O 0.48563 0.03901 0.54826
 O247 O 0.49115 0.06487 0.49361
 O248 O 0.47562 0.04176 0.45548
 C249 C 0.43663 -0.02922 0.47858
 C250 C 0.52089 -0.06299 0.52839
 C251 C 0.53013 -0.01981 0.43561
 C252 C 0.56402 0.03069 0.51945
 C253 C 0.47031 0.02130 0.56195
 C254 C 0.47950 0.06477 0.46931
 Zn255 Zn 1.00501 0.46357 0.48514
 Zn256 Zn 1.03606 0.51554 0.50585
 Zn257 Zn 0.97804 0.52172 0.47917
 Zn258 Zn 0.98410 0.49464 0.53660
 O259 O 1.00077 0.49889 0.50166
 O260 O 1.04161 0.45507 0.47712
 O261 O 1.03890 0.54892 0.48733
 O262 O 0.96621 0.50371 0.44755
 O263 O 1.06466 0.49364 0.49253
 O264 O 0.98619 0.46075 0.45221
 O265 O 0.99608 0.55369 0.46747
 O266 O 0.95078 0.51342 0.53943
 O267 O 1.04458 0.52343 0.54210
 O268 O 0.94611 0.53358 0.49703
 O269 O 1.00597 0.50798 0.56491
 O270 O 0.97620 0.45798 0.54504
 O271 O 0.99175 0.43490 0.50686
 C272 C 1.06457 0.46910 0.48090
 C273 C 1.02127 0.56277 0.47214
 C274 C 0.97087 0.47847 0.43855
 C275 C 0.93698 0.52883 0.52196
 C276 C 1.03054 0.51959 0.56484
 C277 C 0.98011 0.43497 0.53119
 Zn278 Zn 0.50461 0.46465 1.01619
 Zn279 Zn 0.47745 0.52270 1.02224
 Zn280 Zn 0.53551 0.51675 0.99549
 Zn281 Zn 0.48367 0.49573 0.96477
 O282 O 0.50028 0.49998 0.99970
 O283 O 0.48577 0.46172 1.04913
 O284 O 0.49536 0.55474 1.03392
 O285 O 0.56415 0.49495 1.00881
 O286 O 0.46567 0.50462 1.05387
 O287 O 0.54122 0.45627 1.02417
 O288 O 0.53820 0.55014 1.01400
 O289 O 0.50555 0.50915 0.93644
 O290 O 0.44549 0.53446 1.00442
 O291 O 0.54408 0.52468 0.95924
 O292 O 0.45030 0.51441 0.96198
 O293 O 0.47589 0.45905 0.95631
 O294 O 0.49147 0.43595 0.99445
 C295 C 0.47039 0.47937 1.06284
 C296 C 0.52051 0.56393 1.02921
 C297 C 0.56413 0.47039 1.02041
 C298 C 0.53009 0.52081 0.93650
 C299 C 0.43643 0.52973 0.97947
 C300 C 0.47986 0.43604 0.97013
 C301 C 1.19831 0.43015 0.40393
 C302 C 1.18729 0.41693 0.42823
 C303 C 1.20154 0.39336 0.43999
 C304 C 1.22669 0.38296 0.42747
 C305 C 1.23807 0.39597 0.40281
 C306 C 1.22342 0.41985 0.39132
 C307 C 1.16120 0.42747 0.44083
 C308 C 1.13923 0.43655 0.45091
 C309 C 1.11336 0.44751 0.46210
 C310 C 1.09114 0.45718 0.47105
 H311 H 1.18743 0.44844 0.39463
 H312 H 1.19317 0.38294 0.45883
 H313 H 1.23693 0.36466 0.43727
 H314 H 1.23106 0.43076 0.37254
 C315 C 0.29823 0.56661 0.91006
 C316 C 0.31290 0.58305 0.93019
 C317 C 0.30226 0.61001 0.93800
 C318 C 0.27713 0.62058 0.92561
 C319 C 0.26232 0.60430 0.90514
 C320 C 0.27313 0.57711 0.89762
 C321 C 0.33915 0.57239 0.94230
 C322 C 0.36127 0.56314 0.95186
 C323 C 0.38732 0.55193 0.96233
 C324 C 0.40969 0.54200 0.97057
 H325 H 0.30626 0.54569 0.90386
 H326 H 0.31351 0.62297 0.95351
 H327 H 0.26965 0.64164 0.93183
 H328 H 0.26227 0.56381 0.88220
 C329 C -0.20176 0.93314 0.09053
 C330 C -0.18750 0.91697 0.06986
 C331 C -0.19869 0.89047 0.06137
 C332 C -0.22398 0.88009 0.07363
 C333 C -0.23840 0.89609 0.09463
 C334 C -0.22701 0.92281 0.10283
 C335 C -0.16114 0.92749 0.05783
 C336 C -0.13894 0.93667 0.04834
 C337 C -0.11284 0.94785 0.03796
 C338 C -0.09045 0.95779 0.02978
 H339 H -0.19329 0.95370 0.09725
 H340 H -0.18777 0.87773 0.04543
 H341 H -0.23192 0.85938 0.06687
 H342 H -0.23755 0.93590 0.11867
 C343 C 0.70080 0.06661 0.59247
 C344 C 0.68690 0.08272 0.57153
 C345 C 0.69830 0.10914 0.56304
 C346 C 0.72345 0.11948 0.57553
 C347 C 0.73755 0.10352 0.59675
 C348 C 0.72593 0.07690 0.60500
 C349 C 0.66073 0.07223 0.55912
 C350 C 0.63871 0.06319 0.54917
 C351 C 0.61281 0.05228 0.53811
 C352 C 0.59058 0.04262 0.52924
 H353 H 0.69217 0.04610 0.59919
 H354 H 0.68766 0.12183 0.54689
 H355 H 0.73156 0.14012 0.56872
 H356 H 0.73621 0.06385 0.62102
 C357 C 0.40487 0.20040 0.42977
 C358 C 0.42837 0.18787 0.41614
 C359 C 0.43974 0.20068 0.39178
 C360 C 0.42761 0.22590 0.38099
 C361 C 0.40376 0.23880 0.39441
 C362 C 0.39267 0.22559 0.41908
 C363 C 0.44052 0.16168 0.42706
 C364 C 0.45026 0.13963 0.43640
 C365 C 0.46110 0.11369 0.44759
 C366 C 0.46982 0.09142 0.45737
 H367 H 0.39588 0.19064 0.44867
 H368 H 0.45795 0.19113 0.38103
 H369 H 0.43708 0.23499 0.36207
 H370 H 0.37450 0.23443 0.43034
 C371 C 0.94036 0.29904 0.60866
 C372 C 0.92907 0.31186 0.58428
 C373 C 0.90563 0.29934 0.57061
 C374 C 0.89338 0.27417 0.58129
 C375 C 0.90438 0.26097 0.60599
 C376 C 0.92819 0.27384 0.61944
 C377 C 0.94123 0.33805 0.57340
 C378 C 0.95097 0.36009 0.56408
 C379 C 0.96179 0.38605 0.55291
 C380 C 0.97049 0.40832 0.54313
 H381 H 0.95852 0.30858 0.61944
 H382 H 0.89670 0.30911 0.55170
 H383 H 0.87526 0.26535 0.57001
 H384 H 0.93759 0.26474 0.63838
 C385 C 0.09468 0.80115 -0.06955
 C386 C 0.07077 0.81323 -0.08283
 C387 C 0.05916 0.80006 -0.10686
 C388 C 0.07147 0.77494 -0.11768
 C389 C 0.09576 0.76251 -0.10462
 C390 C 0.10707 0.77606 -0.08026
 C391 C 0.05851 0.83937 -0.07193
 C392 C 0.04879 0.86141 -0.06255
 C393 C 0.03812 0.88737 -0.05123
 C394 C 0.02971 0.90967 -0.04126
 H395 H 0.10387 0.81120 -0.05091
 H396 H 0.04064 0.80927 -0.11734
 H397 H 0.06181 0.76556 -0.13634
 H398 H 0.12556 0.76759 -0.06929
 C399 C 0.55873 0.70035 1.10683
 C400 C 0.56999 0.68751 1.08244
 C401 C 0.59341 0.70003 1.06867
 C402 C 0.60565 0.72522 1.07926
 C403 C 0.59468 0.73844 1.10397
 C404 C 0.57089 0.72557 1.11752
 C405 C 0.55789 0.66125 1.07167
 C406 C 0.54829 0.63913 1.06241
 C407 C 0.53775 0.61308 1.05124
 C408 C 0.52945 0.59070 1.04138
 H409 H 0.54059 0.69081 1.11768
 H410 H 0.60232 0.69023 1.04975
 H411 H 0.62376 0.73404 1.06791
 H412 H 0.56151 0.73469 1.13647
 C413 C 0.38984 0.43778 1.19557
 C414 C 0.41682 0.42979 1.18524
 C415 C 0.43320 0.40959 1.20007
 C416 C 0.42264 0.39730 1.22505
 C417 C 0.39545 0.40503 1.23559
 C418 C 0.37922 0.42553 1.22058
 C419 C 0.42758 0.44185 1.15918
 C420 C 0.43688 0.45143 1.13725
 C421 C 0.44813 0.46197 1.11144
 C422 C 0.45808 0.47032 1.08930
 H423 H 0.37694 0.45334 1.18421
 H424 H 0.45413 0.40325 1.19227
 H425 H 0.43590 0.38185 1.23607
 H426 H 0.35816 0.43190 1.22784
 C427 C 0.56630 -0.09132 0.29878
 C428 C 0.58268 -0.07101 0.31343
 C429 C 0.60952 -0.06291 0.30287
 C430 C 0.62002 -0.07515 0.27782
 C431 C 0.60378 -0.09574 0.26297
 C432 C 0.57674 -0.10360 0.27375
 C433 C 0.57203 -0.05886 0.33948
 C434 C 0.56287 -0.04911 0.36139
 C435 C 0.55184 -0.03824 0.38715
 C436 C 0.54211 -0.02950 0.40923
 H437 H 0.54547 -0.09773 0.30676
 H438 H 0.62242 -0.04725 0.31409
 H439 H 0.64098 -0.06867 0.27038
 H440 H 0.56347 -0.11913 0.26287
 C441 C -0.06688 1.09041 -0.19953
 C442 C -0.08331 1.07029 -0.18465
 C443 C -0.11027 1.06232 -0.19498
 C444 C -0.12082 1.07453 -0.22003
 C445 C -0.10453 1.09495 -0.23508
 C446 C -0.07736 1.10266 -0.22454
 C447 C -0.07261 1.05827 -0.15857
 C448 C -0.06334 1.04872 -0.13663
 C449 C -0.05210 1.03821 -0.11083
 C450 C -0.04215 1.02987 -0.08870
 H451 H -0.04596 1.09673 -0.19173
 H452 H -0.12322 1.04682 -0.18358
 H453 H -0.14187 1.06817 -0.22729
 H454 H -0.06405 1.11805 -0.23559
 C455 C 1.06683 0.59134 0.70142
 C456 C 1.08316 0.57093 0.68680
 C457 C 1.11001 0.56281 0.69730
 C458 C 1.12056 0.57513 0.72227
 C459 C 1.10438 0.59583 0.73708
 C460 C 1.07732 0.60370 0.72637
 C461 C 1.07247 0.55873 0.66082
 C462 C 1.06329 0.54894 0.63895
 C463 C 1.05224 0.53805 0.61324
 C464 C 1.04251 0.52928 0.59119
 H465 H 1.04599 0.59777 0.69349
 H466 H 1.12288 0.54708 0.68610
 H467 H 1.14153 0.56864 0.72966
 H468 H 1.06409 0.61930 0.73723
 C469 C 0.79905 0.56627 0.59182
 C470 C 0.81333 0.58230 0.57106
 C471 C 0.80220 0.60881 0.56247
 C472 C 0.77695 0.61934 0.57470
 C473 C 0.76250 0.60347 0.59578
 C474 C 0.77384 0.57674 0.60409
 C475 C 0.83966 0.57164 0.55904
 C476 C 0.86182 0.56238 0.54953
 C477 C 0.88789 0.55114 0.53911
 C478 C 0.91026 0.54116 0.53088
 H479 H 0.80747 0.54570 0.59862
 H480 H 0.81313 0.62144 0.54646
 H481 H 0.76906 0.64005 0.56785
 H482 H 0.76327 0.56375 0.62000
 C483 C 0.70105 0.43442 1.09347
 C484 C 0.68706 0.41837 1.07255
 C485 C 0.69835 0.39190 1.06407
 C486 C 0.72348 0.38144 1.07653
 C487 C 0.73767 0.39733 1.09772
 C488 C 0.72616 0.42401 1.10597
 C489 C 0.66091 0.42896 1.06017
 C490 C 0.63889 0.43804 1.05021
 C491 C 0.61298 0.44895 1.03913
 C492 C 0.59074 0.45856 1.03023
 H493 H 0.69249 0.45497 1.10018
 H494 H 0.68764 0.37925 1.04795
 H495 H 0.73149 0.36076 1.06973
 H496 H 0.73651 0.43701 1.12197
 C497 C 0.20084 1.06653 -0.09243
 C498 C 0.18653 1.08276 -0.07184
 C499 C 0.19744 1.10950 -0.06376
 C500 C 0.22249 1.12006 -0.07632
 C501 C 0.23698 1.10399 -0.09722
 C502 C 0.22587 1.07703 -0.10504
 C503 C 0.16042 1.07208 -0.05942
 C504 C 0.13844 1.06289 -0.04948
 C505 C 0.11257 1.05181 -0.03845
 C506 C 0.09036 1.04205 -0.02960
 H507 H 0.19259 1.04577 -0.09884
 H508 H 0.18648 1.12229 -0.04788
 H509 H 0.23020 1.14095 -0.06985
 H510 H 0.23646 1.06389 -0.12080
 C511 C 0.29807 -0.10479 0.44193
 C512 C 0.31419 -0.08366 0.42809
 C513 C 0.30518 -0.07321 0.40173
 C514 C 0.28023 -0.08384 0.38917
 C515 C 0.26384 -0.10517 0.40281
 C516 C 0.27307 -0.11549 0.42940
 C517 C 0.34012 -0.07277 0.44065
 C518 C 0.36201 -0.06332 0.45050
 C519 C 0.38783 -0.05185 0.46122
 C520 C 0.41003 -0.04171 0.46960
 H521 H 0.30484 -0.11303 0.46237
 H522 H 0.31754 -0.05690 0.39079
 H523 H 0.27406 -0.07547 0.36865
 H524 H 0.26100 -0.13171 0.44068
 C525 C 0.59721 -0.19607 0.57161
 C526 C 0.57097 -0.18618 0.58217
 C527 C 0.55687 -0.20165 0.60347
 C528 C 0.56901 -0.22687 0.61424
 C529 C 0.59547 -0.23699 0.60383
 C530 C 0.60939 -0.22127 0.58232
 C531 C 0.55876 -0.16002 0.57125
 C532 C 0.54907 -0.13798 0.56187
 C533 C 0.53840 -0.11201 0.55057
 C534 C 0.52998 -0.08969 0.54063
 H535 H 0.60835 -0.18422 0.55515
 H536 H 0.53652 -0.19420 0.61179
 H537 H 0.55751 -0.23841 0.63060
 H538 H 0.62983 -0.22814 0.57387
 C539 C 1.09178 0.70074 0.43351
 C540 C 1.07095 0.68594 0.41798
 C541 C 1.06236 0.69634 0.39145
 C542 C 1.07465 0.72135 0.38041
 C543 C 1.09580 0.73632 0.39577
 C544 C 1.10413 0.72573 0.42253
 C545 C 1.05888 0.65981 0.42909
 C546 C 1.04927 0.63778 0.43857
 C547 C 1.03868 0.61181 0.44993
 C548 C 1.03032 0.58949 0.45990
 H549 H 1.09860 0.69288 0.45408
 H550 H 1.04630 0.68500 0.37920
 H551 H 1.06779 0.72865 0.35971
 H552 H 1.12010 0.73671 0.43512
 C553 C -0.09780 1.19667 0.07407
 C554 C -0.07155 1.18672 0.08451
 C555 C -0.05737 1.20213 0.10577
 C556 C -0.06943 1.22737 0.11659
 C557 C -0.09588 1.23757 0.10627
 C558 C -0.10989 1.22188 0.08483
 C559 C -0.05939 1.16059 0.07347
 C560 C -0.04968 1.13860 0.06399
 C561 C -0.03890 1.11271 0.05263
 C562 C -0.03024 1.09048 0.04269
 H563 H -0.10900 1.18487 0.05765
 H564 H -0.03701 1.19463 0.11399
 H565 H -0.05787 1.23889 0.13290
 H566 H -0.13033 1.22881 0.07646
 C567 C 0.40890 0.29793 0.93225
 C568 C 0.42936 0.31302 0.91646
 C569 C 0.43766 0.30286 0.88974
 C570 C 0.42545 0.27778 0.87878
 C571 C 0.40468 0.26252 0.89440
 C572 C 0.39665 0.27288 0.92134
 C573 C 0.44140 0.33916 0.92755
 C574 C 0.45103 0.36118 0.93701
 C575 C 0.46174 0.38711 0.94831
 C576 C 0.47034 0.40938 0.95815
 H577 H 0.40233 0.30560 0.95298
 H578 H 0.45343 0.31442 0.87729
 H579 H 0.43208 0.27067 0.85792
 H580 H 0.38099 0.26167 0.93415
 C581 C 0.56671 0.59218 0.79963
 C582 C 0.58300 0.57185 0.81438
 C583 C 0.60986 0.56363 0.80393
 C584 C 0.62045 0.57577 0.77886
 C585 C 0.60431 0.59637 0.76390
 C586 C 0.57725 0.60436 0.77458
 C587 C 0.57223 0.55978 0.84043
 C588 C 0.56299 0.55008 0.86233
 C589 C 0.55187 0.53925 0.88807
 C590 C 0.54209 0.53052 0.91014
 H591 H 0.54587 0.59869 0.80752
 H592 H 0.62268 0.54796 0.81523
 H593 H 0.64142 0.56919 0.77150
 H594 H 0.56406 0.61990 0.76362
 C595 C 0.38975 0.06277 0.69471
 C596 C 0.41674 0.07070 0.68439
 C597 C 0.43316 0.09082 0.69924
 C598 C 0.42262 0.10310 0.72424
 C599 C 0.39542 0.09543 0.73477
 C600 C 0.37915 0.07500 0.71973
 C601 C 0.42747 0.05867 0.65831
 C602 C 0.43675 0.04911 0.63637
 C603 C 0.44800 0.03860 0.61055
 C604 C 0.45797 0.03029 0.58841
 H605 H 0.37681 0.04727 0.68332
 H606 H 0.45410 0.09712 0.69144
 H607 H 0.43591 0.11848 0.73527
 H608 H 0.35808 0.06867 0.72698
 C609 C 0.06665 0.90788 0.20070
 C610 C 0.08300 0.92803 0.18577
 C611 C 0.11001 0.93600 0.19595
 C612 C 0.12070 0.92376 0.22091
 C613 C 0.10451 0.90331 0.23604
 C614 C 0.07729 0.89560 0.22564
 C615 C 0.07216 0.94013 0.15978
 C616 C 0.06287 0.94985 0.13793
 C617 C 0.05171 0.96069 0.11223
 C618 C 0.04191 0.96944 0.09019
 H619 H 0.04569 0.90157 0.19302
 H620 H 0.12288 0.95153 0.18451
 H621 H 0.14179 0.93012 0.22806
 H622 H 0.06406 0.88019 0.23674
 C623 C 0.93350 0.40910 0.30129
 C624 C 0.91719 0.42934 0.31616
 C625 C 0.89028 0.43750 0.30583
 C626 C 0.87965 0.42536 0.28080
 C627 C 0.89581 0.40481 0.26576
 C628 C 0.92293 0.39692 0.27629
 C629 C 0.92796 0.44130 0.34223
 C630 C 0.93728 0.45079 0.36417
 C631 C 0.94856 0.46123 0.38997
 C632 C 0.95854 0.46950 0.41211
 H633 H 0.95438 0.40263 0.30909
 H634 H 0.87742 0.45310 0.31722
 H635 H 0.85863 0.43186 0.27354
 H636 H 0.93614 0.38143 0.26526
   
