data_POSCAR
  _audit_creation_date              2014-09-24
  _audit_creation_method            'ToBaCCo'
  _symmetry_space_group_name_H-M    'P1'
  _symmetry_Int_Tables_number       1
  _symmetry_cell_setting            triclinic
  loop_
  _symmetry_equiv_pos_as_xyz
 x,y,z
_cell_length_a 59.6313
_cell_length_b 59.3877
_cell_length_c 35.6337
_cell_angle_alpha 90.030200
_cell_angle_beta 90.356100
_cell_angle_gamma 92.844300
loop_
  _atom_site_label
  _atom_site_type_symbol
  _atom_site_fract_x
  _atom_site_fract_y
  _atom_site_fract_z
O1 O -0.02758 0.27667 0.02862
 O2 O 0.01718 0.27346 -0.04215
 O3 O -0.02674 0.27107 -0.04351
 O4 O 0.01656 0.27863 0.03070
 O5 O 0.01605 0.24176 0.03841
 O6 O -0.02640 0.23423 -0.03585
 O7 O 0.01721 0.23670 -0.03394
 O8 O -0.02751 0.23980 0.03603
 Cu9 Cu -0.00506 0.27869 -0.00729
 Cu10 Cu -0.00511 0.23447 0.00193
 C11 C -0.03543 0.25867 0.04399
 C12 C 0.02491 0.25448 -0.05018
 C13 C -0.03411 0.25126 -0.05207
 C14 C 0.02372 0.26138 0.04719
 O15 O 0.52715 0.77744 0.47619
 O16 O 0.48359 0.77445 0.54953
 O17 O 0.52753 0.77465 0.54900
 O18 O 0.48309 0.77667 0.47641
 O19 O 0.48211 0.73956 0.47287
 O20 O 0.52564 0.73751 0.54583
 O21 O 0.48211 0.73735 0.54550
 O22 O 0.52585 0.74030 0.47347
 Cu23 Cu 0.50544 0.77955 0.51310
 Cu24 Cu 0.50374 0.73499 0.50899
 C25 C 0.53426 0.75929 0.46285
 C26 C 0.47530 0.75533 0.55986
 C27 C 0.53428 0.75567 0.55961
 C28 C 0.47492 0.75833 0.46239
 O29 O 0.98188 0.71459 -0.02679
 O30 O 1.02492 0.71898 0.04822
 O31 O 0.98075 0.71852 0.04550
 O32 O 1.02611 0.71543 -0.02453
 O33 O 1.02704 0.75243 -0.02954
 O34 O 0.98267 0.75557 0.04035
 O35 O 1.02625 0.75602 0.04285
 O36 O 0.98326 0.75163 -0.03144
 Cu37 Cu 1.00334 0.71314 0.01111
 Cu38 Cu 1.00501 0.75757 0.00497
 C39 C 0.97471 0.73247 -0.04123
 C40 C 1.03313 0.73827 0.05804
 C41 C 0.97369 0.73767 0.05427
 C42 C 1.03457 0.73357 -0.03866
 O43 O 0.51297 0.22107 0.53142
 O44 O 0.47070 0.21964 0.45512
 O45 O 0.51478 0.22067 0.45796
 O46 O 0.46886 0.22089 0.52751
 O47 O 0.47079 0.25807 0.52646
 O48 O 0.51568 0.25783 0.45692
 O49 O 0.47215 0.25682 0.45446
 O50 O 0.51441 0.25823 0.52979
 Cu51 Cu 0.49183 0.21680 0.49317
 Cu52 Cu 0.49352 0.26142 0.49184
 C53 C 0.52101 0.23995 0.54351
 C54 C 0.46382 0.23807 0.44240
 C55 C 0.52301 0.23935 0.44549
 C56 C 0.46165 0.23965 0.53816
 O57 O 0.71652 0.00864 -0.03027
 O58 O 0.71941 -0.03541 0.04214
 O59 O 0.71598 0.00838 0.04284
 O60 O 0.72124 -0.03493 -0.03094
 O61 O 0.75806 -0.02932 -0.02860
 O62 O 0.75289 0.01313 0.04487
 O63 O 0.75624 -0.03025 0.04414
 O64 O 0.75339 0.01383 -0.02819
 Cu65 Cu 0.71457 -0.01386 0.00575
 Cu66 Cu 0.75880 -0.00761 0.00829
 C67 C 0.73446 0.01879 -0.04161
 C68 C 0.73832 -0.04052 0.05548
 C69 C 0.73368 0.01815 0.05642
 C70 C 0.74068 -0.03950 -0.04230
 O71 O 0.22638 0.53469 0.43722
 O72 O 0.21787 0.49172 0.51151
 O73 O 0.21864 0.53602 0.50898
 O74 O 0.22511 0.49071 0.43943
 O75 O 0.26154 0.49190 0.45080
 O76 O 0.25511 0.53691 0.52006
 O77 O 0.25435 0.49319 0.52245
 O78 O 0.26281 0.53569 0.44859
 Cu79 Cu 0.21831 0.51315 0.47326
 Cu80 Cu 0.26207 0.51453 0.48659
 C81 C 0.24613 0.54260 0.43037
 C82 C 0.23477 0.48499 0.52948
 C83 C 0.23586 0.54435 0.52617
 C84 C 0.24447 0.48352 0.43331
 O85 O 0.28525 0.99430 -0.06428
 O86 O 0.28365 1.03810 0.00906
 O87 O 0.28283 0.99391 0.00874
 O88 O 0.28521 1.03873 -0.06357
 O89 O 0.24827 1.03654 -0.06707
 O90 O 0.24586 0.99284 0.00528
 O91 O 0.24668 1.03665 0.00530
 O92 O 0.24830 0.99279 -0.06734
 Cu93 Cu 0.28797 1.01635 -0.02729
 Cu94 Cu 0.24362 1.01451 -0.03132
 C95 C 0.26702 0.98577 -0.07805
 C96 C 0.26485 1.04511 0.01931
 C97 C 0.26379 0.98571 0.01929
 C98 C 0.26699 1.04560 -0.07720
 O99 O 0.78481 0.51142 0.54203
 O100 O 0.79111 0.46912 0.46704
 O101 O 0.79284 0.51370 0.47055
 O102 O 0.78304 0.46721 0.53850
 O103 O 0.74671 0.46732 0.52651
 O104 O 0.75639 0.51351 0.45961
 O105 O 0.75475 0.46948 0.45555
 O106 O 0.74841 0.51088 0.53046
 Cu107 Cu 0.79166 0.49037 0.50554
 Cu108 Cu 0.74798 0.49029 0.49167
 C109 C 0.76546 0.51847 0.54883
 C110 C 0.77379 0.46167 0.44913
 C111 C 0.77608 0.52198 0.45433
 C112 C 0.76313 0.45920 0.54380
 C113 C 0.20180 0.21631 0.20734
 C114 C 0.22451 0.21137 0.20940
 C115 C 0.24010 0.22745 0.22461
 C116 C 0.23298 0.24793 0.23953
 C117 C 0.20991 0.25214 0.23791
 C118 C 0.19439 0.23676 0.22095
 C119 C 0.24940 0.26485 0.25688
 C120 C 0.24495 0.28799 0.25723
 C121 C 0.25949 0.30380 0.27543
 C122 C 0.27923 0.29661 0.29197
 C123 C 0.28424 0.27381 0.29172
 C124 C 0.26925 0.25800 0.27437
 H125 H 0.18997 0.20447 0.19369
 H126 H 0.25770 0.22382 0.22476
 H127 H 0.20373 0.26728 0.25014
 H128 H 0.23020 0.29399 0.24336
 H129 H 0.29052 0.30880 0.30597
 H130 H 0.27278 0.24034 0.27594
 C131 C 0.79405 0.78368 0.21864
 C132 C 0.77668 0.79362 0.23792
 C133 C 0.76400 0.78076 0.26402
 C134 C 0.76803 0.75779 0.27007
 C135 C 0.78504 0.74804 0.24902
 C136 C 0.79846 0.76096 0.22411
 C137 C 0.75488 0.74401 0.29841
 C138 C 0.76431 0.72516 0.31554
 C139 C 0.75205 0.71167 0.34117
 C140 C 0.73049 0.71764 0.35116
 C141 C 0.72102 0.73680 0.33609
 C142 C 0.73298 0.74952 0.30889
 H143 H 0.80417 0.79373 0.19915
 H144 H 0.75142 0.78901 0.28000
 H145 H 0.78785 0.73025 0.25138
 H146 H 0.78137 0.72097 0.30965
 H147 H 0.72073 0.70697 0.37029
 H148 H 0.72512 0.76371 0.29629
 C149 C 0.78795 0.19699 0.22420
 C150 C 0.79431 0.21992 0.22776
 C151 C 0.77913 0.23465 0.24323
 C152 C 0.75813 0.22645 0.25711
 C153 C 0.75249 0.20314 0.25403
 C154 C 0.76699 0.18849 0.23671
 C155 C 0.74216 0.24203 0.27470
 C156 C 0.71881 0.23658 0.27474
 C157 C 0.70386 0.25062 0.29236
 C158 C 0.71212 0.27080 0.30873
 C159 C 0.73516 0.27677 0.30896
 C160 C 0.75009 0.26225 0.29229
 H161 H 0.79913 0.18583 0.21033
 H162 H 0.78390 0.25244 0.24443
 H163 H 0.73692 0.19606 0.26540
 H164 H 0.71195 0.22157 0.26085
 H165 H 0.70053 0.28176 0.32201
 H166 H 0.76789 0.26654 0.29426
 C167 C 0.21896 0.80648 0.20250
 C168 C 0.21020 0.78606 0.21738
 C169 C 0.22490 0.77144 0.23470
 C170 C 0.24834 0.77620 0.23500
 C171 C 0.25671 0.79655 0.21870
 C172 C 0.24208 0.81195 0.20341
 C173 C 0.26394 0.75977 0.25150
 C174 C 0.28500 0.76712 0.26662
 C175 C 0.29986 0.75157 0.28089
 C176 C 0.29321 0.72863 0.28181
 C177 C 0.27205 0.72101 0.26845
 C178 C 0.25783 0.73650 0.25237
 H179 H 0.20789 0.81782 0.18862
 H180 H 0.21784 0.75636 0.24800
 H181 H 0.27458 0.80057 0.21764
 H182 H 0.29003 0.78486 0.26748
 H183 H 0.30421 0.71681 0.29467
 H184 H 0.24205 0.73014 0.24039
 C185 C 0.70591 0.27021 0.69878
 C186 C 0.69775 0.24914 0.71186
 C187 C 0.71269 0.23445 0.72837
 C188 C 0.73595 0.24017 0.73036
 C189 C 0.74379 0.26103 0.71503
 C190 C 0.72886 0.27631 0.70033
 C191 C 0.75205 0.22470 0.74836
 C192 C 0.77272 0.23337 0.76327
 C193 C 0.78839 0.21907 0.77848
 C194 C 0.78289 0.19598 0.78116
 C195 C 0.76206 0.18694 0.76846
 C196 C 0.74698 0.20124 0.75120
 H197 H 0.69447 0.28155 0.68580
 H198 H 0.70585 0.21877 0.73994
 H199 H 0.76152 0.26572 0.71450
 H200 H 0.77695 0.25128 0.76323
 H201 H 0.79457 0.18518 0.79486
 H202 H 0.73148 0.19380 0.73986
 C203 C 0.28873 0.72111 0.71085
 C204 C 0.29692 0.74259 0.72197
 C205 C 0.28221 0.75747 0.73812
 C206 C 0.25918 0.75136 0.74216
 C207 C 0.25120 0.72985 0.72960
 C208 C 0.26597 0.71453 0.71465
 C209 C 0.24371 0.76723 0.76002
 C210 C 0.22509 0.75895 0.78103
 C211 C 0.21106 0.77376 0.79908
 C212 C 0.21575 0.79705 0.79634
 C213 C 0.23422 0.80573 0.77597
 C214 C 0.24792 0.79079 0.75742
 H215 H 0.30001 0.70971 0.69781
 H216 H 0.28900 0.77363 0.74808
 H217 H 0.23355 0.72485 0.73153
 H218 H 0.22186 0.74100 0.78470
 H219 H 0.20516 0.80850 0.81082
 H220 H 0.26175 0.79770 0.74084
 C221 C 0.27596 0.30470 0.67833
 C222 C 0.25698 0.31221 0.69655
 C223 C 0.24292 0.29667 0.71607
 C224 C 0.24703 0.27343 0.71616
 C225 C 0.26589 0.26630 0.69631
 C226 C 0.28063 0.28183 0.67816
 C227 C 0.23173 0.25667 0.73644
 C228 C 0.23940 0.23553 0.74763
 C229 C 0.22494 0.21931 0.76472
 C230 C 0.20294 0.22471 0.77305
 C231 C 0.19510 0.24586 0.76388
 C232 C 0.20930 0.26149 0.74476
 H233 H 0.28703 0.31675 0.66380
 H234 H 0.22903 0.30308 0.73144
 H235 H 0.26909 0.24862 0.69387
 H236 H 0.25658 0.23134 0.74301
 H237 H 0.19211 0.21263 0.78801
 H238 H 0.20246 0.27719 0.73612
 C239 C 0.71543 0.69643 0.71770
 C240 C 0.73822 0.69240 0.72263
 C241 C 0.75250 0.70885 0.73994
 C242 C 0.74393 0.72877 0.75449
 C243 C 0.72074 0.73198 0.75032
 C244 C 0.70659 0.71639 0.73076
 C245 C 0.75898 0.74624 0.77369
 C246 C 0.75323 0.76902 0.77439
 C247 C 0.76642 0.78534 0.79396
 C248 C 0.78627 0.77915 0.81141
 C249 C 0.79271 0.75677 0.81067
 C250 C 0.77891 0.74037 0.79215
 H251 H 0.70479 0.68428 0.70233
 H252 H 0.77022 0.70591 0.74200
 H253 H 0.71339 0.74656 0.76244
 H254 H 0.73853 0.77438 0.75961
 H255 H 0.79659 0.79181 0.82627
 H256 H 0.78350 0.72299 0.79336
 C257 C 0.28385 0.07485 0.06031
 C258 C 0.28288 0.09351 0.08416
 C259 C 0.26212 0.10131 0.09542
 C260 C 0.24229 0.09003 0.08221
 C261 C 0.24326 0.07144 0.05838
 C262 C 0.26402 0.06374 0.04687
 C263 C 0.26164 0.12205 0.11863
 C264 C 0.24419 0.12658 0.14051
 C265 C 0.24162 0.14817 0.16076
 C266 C 0.22404 0.14918 0.18662
 C267 C 0.21908 0.16956 0.20337
 C268 C 0.23161 0.18949 0.19470
 C269 C 0.24980 0.18847 0.17003
 C270 C 0.25471 0.16804 0.15300
 H271 H 0.30013 0.06943 0.05177
 H272 H 0.29840 0.10202 0.09357
 H273 H 0.22594 0.09594 0.08905
 H274 H 0.22766 0.06342 0.04827
 H275 H 0.27619 0.13364 0.11758
 H276 H 0.23072 0.11383 0.14373
 H277 H 0.21367 0.13422 0.19318
 H278 H 0.20511 0.16984 0.22263
 H279 H 0.25956 0.20366 0.16260
 H280 H 0.26814 0.16823 0.13278
 C281 C 0.74088 0.54216 0.58726
 C282 C 0.73784 0.55999 0.61186
 C283 C 0.75634 0.57245 0.62702
 C284 C 0.77812 0.56598 0.61834
 C285 C 0.78118 0.54799 0.59374
 C286 C 0.76256 0.53615 0.57745
 C287 C 0.75186 0.59205 0.65119
 C288 C 0.76665 0.60942 0.65776
 C289 C 0.76043 0.63017 0.67768
 C290 C 0.77253 0.65059 0.67032
 C291 C 0.76584 0.67083 0.68585
 C292 C 0.74688 0.67097 0.70899
 C293 C 0.73547 0.65045 0.71789
 C294 C 0.74229 0.63024 0.70278
 H295 H 0.72617 0.53330 0.57546
 H296 H 0.72088 0.56443 0.61833
 H297 H 0.79282 0.57470 0.63033
 H298 H 0.79810 0.54365 0.58688
 H299 H 0.73482 0.59300 0.66103
 H300 H 0.78313 0.60953 0.64523
 H301 H 0.78673 0.65099 0.65147
 H302 H 0.77494 0.68645 0.67866
 H303 H 0.72112 0.65012 0.73641
 H304 H 0.73315 0.61481 0.71070
 C305 C 0.71993 0.92997 0.09416
 C306 C 0.72129 0.91205 0.11939
 C307 C 0.74208 0.90613 0.13400
 C308 C 0.76160 0.91858 0.12282
 C309 C 0.76030 0.93641 0.09746
 C310 C 0.73947 0.94225 0.08241
 C311 C 0.74300 0.88577 0.15797
 C312 C 0.75982 0.88231 0.18219
 C313 C 0.76292 0.86044 0.20118
 C314 C 0.78475 0.85520 0.21184
 C315 C 0.78907 0.83383 0.22558
 C316 C 0.77158 0.81727 0.22938
 C317 C 0.74949 0.82296 0.22130
 C318 C 0.74516 0.84435 0.20731
 H319 H 0.70356 0.93386 0.08332
 H320 H 0.70603 0.90260 0.12723
 H321 H 0.77804 0.91412 0.13238
 H322 H 0.77576 0.94532 0.08912
 H323 H 0.72970 0.87291 0.15407
 H324 H 0.77295 0.89536 0.18612
 H325 H 0.79869 0.86736 0.20796
 H326 H 0.80622 0.83000 0.23221
 H327 H 0.73569 0.81052 0.22411
 H328 H 0.72798 0.84799 0.20077
 C329 C 0.21152 0.45436 0.56165
 C330 C 0.20981 0.43587 0.58604
 C331 C 0.22832 0.42986 0.60774
 C332 C 0.24855 0.44300 0.60498
 C333 C 0.25029 0.46135 0.58054
 C334 C 0.23195 0.46701 0.55810
 C335 C 0.22682 0.40848 0.62937
 C336 C 0.24075 0.40399 0.65787
 C337 C 0.24311 0.38100 0.67316
 C338 C 0.26409 0.37558 0.68772
 C339 C 0.26827 0.35338 0.69729
 C340 C 0.25143 0.33618 0.69302
 C341 C 0.22990 0.34185 0.68126
 C342 C 0.22575 0.36407 0.67135
 H343 H 0.19711 0.45823 0.54464
 H344 H 0.19411 0.42591 0.58730
 H345 H 0.26347 0.43861 0.62014
 H346 H 0.26629 0.47071 0.57841
 H347 H 0.21479 0.39557 0.61944
 H348 H 0.25262 0.41703 0.66789
 H349 H 0.27766 0.38834 0.68986
 H350 H 0.28493 0.34948 0.70680
 H351 H 0.21662 0.32889 0.67783
 H352 H 0.20914 0.36775 0.66150
 C353 C 0.93318 0.27880 0.07388
 C354 C 0.91401 0.27860 0.09641
 C355 C 0.90712 0.25917 0.11652
 C356 C 0.91984 0.23991 0.11368
 C357 C 0.93885 0.24005 0.09101
 C358 C 0.94560 0.25939 0.07052
 C359 C 0.88566 0.25871 0.13741
 C360 C 0.88168 0.24514 0.16698
 C361 C 0.85938 0.24087 0.18471
 C362 C 0.85668 0.22219 0.20866
 C363 C 0.83570 0.21586 0.22338
 C364 C 0.81684 0.22816 0.21475
 C365 C 0.81961 0.24753 0.19232
 C366 C 0.84067 0.25385 0.17736
 H367 H 0.93786 0.29391 0.05821
 H368 H 0.90436 0.29355 0.09776
 H369 H 0.91468 0.22434 0.12762
 H370 H 0.94796 0.22478 0.08886
 H371 H 0.87280 0.26930 0.12695
 H372 H 0.89524 0.23540 0.17759
 H373 H 0.87076 0.21198 0.21514
 H374 H 0.83413 0.20108 0.24115
 H375 H 0.80533 0.25734 0.18529
 H376 H 0.84198 0.26868 0.15982
 C377 C 0.44756 0.73269 0.59842
 C378 C 0.42957 0.73109 0.62326
 C379 C 0.42070 0.75053 0.63847
 C380 C 0.43091 0.77172 0.62938
 C381 C 0.44895 0.77332 0.60437
 C382 C 0.45723 0.75382 0.58819
 C383 C 0.40050 0.74761 0.66249
 C384 C 0.38695 0.76417 0.67145
 C385 C 0.36482 0.75976 0.68966
 C386 C 0.34790 0.77500 0.68360
 C387 C 0.32600 0.77001 0.69594
 C388 C 0.32064 0.74966 0.71460
 C389 C 0.33785 0.73514 0.72299
 C390 C 0.35977 0.74022 0.71101
 H391 H 0.45359 0.71731 0.58669
 H392 H 0.42221 0.71454 0.62991
 H393 H 0.42512 0.78713 0.64120
 H394 H 0.45621 0.78984 0.59734
 H395 H 0.39556 0.73044 0.67005
 H396 H 0.39077 0.78114 0.66167
 H397 H 0.35137 0.79031 0.66770
 H398 H 0.31301 0.78148 0.68913
 H399 H 0.33419 0.71957 0.73808
 H400 H 0.37251 0.72856 0.71797
 C401 C 0.06229 0.72097 0.09844
 C402 C 0.08124 0.72311 0.12174
 C403 C 0.08963 0.74443 0.13380
 C404 C 0.07837 0.76361 0.12258
 C405 C 0.05951 0.76148 0.09913
 C406 C 0.05149 0.74018 0.08625
 C407 C 0.11136 0.74621 0.15439
 C408 C 0.11779 0.76386 0.17621
 C409 C 0.14095 0.76802 0.19130
 C410 C 0.14731 0.78981 0.20402
 C411 C 0.16955 0.79545 0.21423
 C412 C 0.18601 0.77937 0.21207
 C413 C 0.17940 0.75719 0.20159
 C414 C 0.15714 0.75151 0.19149
 H415 H 0.05659 0.70433 0.08889
 H416 H 0.08971 0.70809 0.12967
 H417 H 0.08463 0.78040 0.13022
 H418 H 0.05164 0.77663 0.09014
 H419 H 0.12261 0.73281 0.14963
 H420 H 0.10603 0.77681 0.18131
 H421 H 0.13519 0.80281 0.20473
 H422 H 0.17398 0.81257 0.22296
 H423 H 0.19165 0.74438 0.19957
 H424 H 0.15300 0.73431 0.18320
 C425 C 0.54799 0.26174 0.58534
 C426 C 0.56564 0.26281 0.61125
 C427 C 0.57446 0.24306 0.62562
 C428 C 0.56448 0.22207 0.61449
 C429 C 0.54678 0.22102 0.58840
 C430 C 0.53860 0.24084 0.57310
 C431 C 0.59448 0.24555 0.65065
 C432 C 0.60735 0.22866 0.66106
 C433 C 0.62944 0.23268 0.68008
 C434 C 0.64598 0.21692 0.67513
 C435 C 0.66798 0.22162 0.68772
 C436 C 0.67383 0.24218 0.70553
 C437 C 0.65695 0.25717 0.71312
 C438 C 0.63492 0.25239 0.70089
 H439 H 0.54203 0.27737 0.57433
 H440 H 0.57281 0.27922 0.61940
 H441 H 0.57025 0.20640 0.62536
 H442 H 0.53975 0.20465 0.57978
 H443 H 0.59988 0.26265 0.65795
 H444 H 0.60306 0.21163 0.65197
 H445 H 0.64217 0.20146 0.65970
 H446 H 0.68071 0.20979 0.68149
 H447 H 0.66099 0.27294 0.72751
 H448 H 0.62247 0.26447 0.70704
 C449 C 0.71271 0.04578 0.92017
 C450 C 0.71186 0.06353 0.89450
 C451 C 0.73150 0.07229 0.87723
 C452 C 0.75209 0.06298 0.88629
 C453 C 0.75298 0.04540 0.91225
 C454 C 0.73333 0.03671 0.92966
 C455 C 0.73032 0.09241 0.85283
 C456 C 0.74503 0.09711 0.82522
 C457 C 0.74709 0.11909 0.80531
 C458 C 0.76729 0.12471 0.78674
 C459 C 0.77160 0.14637 0.77246
 C460 C 0.75573 0.16292 0.77626
 C461 C 0.73477 0.15682 0.79204
 C462 C 0.73043 0.13512 0.80637
 H463 H 0.69729 0.03952 0.93325
 H464 H 0.69585 0.07061 0.88837
 H465 H 0.76769 0.06977 0.87455
 H466 H 0.76913 0.03884 0.91906
 H467 H 0.71741 0.10392 0.85927
 H468 H 0.75745 0.08498 0.81884
 H469 H 0.78028 0.11265 0.78491
 H470 H 0.78775 0.15048 0.75979
 H471 H 0.72218 0.16921 0.79525
 H472 H 0.71429 0.13133 0.81910
 C473 C 0.27161 0.56973 0.39529
 C474 C 0.27516 0.58750 0.37011
 C475 C 0.25712 0.59648 0.35068
 C476 C 0.23541 0.58653 0.35582
 C477 C 0.23184 0.56871 0.38116
 C478 C 0.24987 0.56037 0.40162
 C479 C 0.26189 0.61658 0.32669
 C480 C 0.24629 0.63057 0.31491
 C481 C 0.25210 0.65279 0.29746
 C482 C 0.23699 0.67004 0.30111
 C483 C 0.24301 0.69202 0.28973
 C484 C 0.26428 0.69717 0.27433
 C485 C 0.27879 0.67964 0.26820
 C486 C 0.27272 0.65762 0.27934
 H487 H 0.28592 0.56362 0.41037
 H488 H 0.29209 0.59466 0.36655
 H489 H 0.22108 0.59238 0.34062
 H490 H 0.21492 0.56168 0.38510
 H491 H 0.27942 0.62115 0.32190
 H492 H 0.22886 0.62709 0.32201
 H493 H 0.22091 0.66675 0.31453
 H494 H 0.23151 0.70521 0.29490
 H495 H 0.29508 0.68309 0.25561
 H496 H 0.28442 0.64463 0.27434
 C497 C 0.28774 0.95861 0.88574
 C498 C 0.28776 0.93951 0.86271
 C499 C 0.26757 0.92967 0.84851
 C500 C 0.24731 0.93957 0.85731
 C501 C 0.24724 0.95852 0.88052
 C502 C 0.26741 0.96807 0.89574
 C503 C 0.26792 0.90778 0.82847
 C504 C 0.25163 0.90038 0.80467
 C505 C 0.24878 0.87667 0.79153
 C506 C 0.22722 0.86861 0.78043
 C507 C 0.22275 0.84571 0.77325
 C508 C 0.23981 0.83036 0.77666
 C509 C 0.26179 0.83862 0.78485
 C510 C 0.26627 0.86157 0.79219
 H511 H 0.30364 0.96542 0.89674
 H512 H 0.30357 0.93209 0.85663
 H513 H 0.23132 0.93214 0.84796
 H514 H 0.23121 0.96523 0.88743
 H515 H 0.28140 0.89705 0.83574
 H516 H 0.23847 0.91152 0.79724
 H517 H 0.21349 0.87988 0.77915
 H518 H 0.20573 0.83986 0.76632
 H519 H 0.27528 0.82717 0.78754
 H520 H 0.28330 0.86718 0.79923
 C521 C 0.79516 0.43121 0.41850
 C522 C 0.79517 0.41096 0.39825
 C523 C 0.77522 0.40182 0.38210
 C524 C 0.75577 0.41418 0.38362
 C525 C 0.75577 0.43439 0.40352
 C526 C 0.77523 0.44272 0.42236
 C527 C 0.77441 0.37888 0.36576
 C528 C 0.75686 0.36448 0.37248
 C529 C 0.75420 0.34121 0.35773
 C530 C 0.73922 0.32608 0.37617
 C531 C 0.73394 0.30478 0.36122
 C532 C 0.74330 0.29817 0.32711
 C533 C 0.75908 0.31290 0.30935
 C534 C 0.76449 0.33430 0.32449
 H535 H 0.81045 0.43726 0.43253
 H536 H 0.81042 0.40182 0.39698
 H537 H 0.74032 0.40786 0.37034
 H538 H 0.74021 0.44297 0.40545
 H539 H 0.78888 0.37340 0.35070
 H540 H 0.74374 0.36984 0.39091
 H541 H 0.73115 0.33095 0.40188
 H542 H 0.72207 0.29363 0.37595
 H543 H 0.76641 0.30830 0.28287
 H544 H 0.77583 0.34568 0.30921
 C545 C 0.05102 0.23210 0.91487
 C546 C 0.06852 0.23060 0.88931
 C547 C 0.07775 0.24990 0.87132
 C548 C 0.06858 0.27083 0.87885
 C549 C 0.05105 0.27237 0.90459
 C550 C 0.04214 0.25303 0.92322
 C551 C 0.09689 0.24710 0.84544
 C552 C 0.11042 0.26405 0.83237
 C553 C 0.13100 0.26015 0.81044
 C554 C 0.14891 0.27641 0.81177
 C555 C 0.16945 0.27228 0.79494
 C556 C 0.17243 0.25180 0.77633
 C557 C 0.15408 0.23616 0.77286
 C558 C 0.13353 0.24034 0.78946
 H559 H 0.04464 0.21675 0.92832
 H560 H 0.07509 0.21423 0.88395
 H561 H 0.07469 0.28608 0.86500
 H562 H 0.04456 0.28878 0.90989
 H563 H 0.10087 0.22993 0.83921
 H564 H 0.10776 0.28121 0.84068
 H565 H 0.14735 0.29194 0.82728
 H566 H 0.18333 0.28461 0.79811
 H567 H 0.15580 0.22046 0.75792
 H568 H 0.11984 0.22785 0.78616
 C569 C 0.56275 0.78068 0.42298
 C570 C 0.58244 0.78125 0.40164
 C571 C 0.59308 0.76126 0.39382
 C572 C 0.58285 0.74056 0.40510
 C573 C 0.56313 0.73996 0.42595
 C574 C 0.55323 0.76003 0.43617
 C575 C 0.61551 0.76212 0.37624
 C576 C 0.63169 0.74961 0.39010
 C577 C 0.65485 0.74959 0.37564
 C578 C 0.67188 0.74392 0.40062
 C579 C 0.69354 0.74096 0.38784
 C580 C 0.69864 0.74310 0.34952
 C581 C 0.68183 0.74975 0.32455
 C582 C 0.66005 0.75300 0.33753
 H583 H 0.55541 0.79642 0.43015
 H584 H 0.58997 0.79736 0.39291
 H585 H 0.59046 0.72485 0.39860
 H586 H 0.55615 0.72375 0.43532
 H587 H 0.61919 0.77427 0.35419
 H588 H 0.62810 0.73940 0.41477
 H589 H 0.66830 0.74131 0.43012
 H590 H 0.70624 0.73638 0.40792
 H591 H 0.68524 0.75139 0.29484
 H592 H 0.64714 0.75706 0.31752
 C593 C 0.94573 0.71039 0.92354
 C594 C 0.92585 0.70959 0.90233
 C595 C 0.91622 0.72956 0.89093
 C596 C 0.92774 0.75029 0.89850
 C597 C 0.94763 0.75114 0.91937
 C598 C 0.95653 0.73125 0.93336
 C599 C 0.89389 0.72862 0.87239
 C600 C 0.87885 0.74401 0.88004
 C601 C 0.85610 0.74447 0.86322
 C602 C 0.84019 0.75712 0.88151
 C603 C 0.81926 0.76018 0.86520
 C604 C 0.81378 0.75086 0.82990
 C605 C 0.82929 0.73740 0.81212
 C606 C 0.85033 0.73426 0.82857
 H607 H 0.95216 0.69467 0.93331
 H608 H 0.91743 0.69340 0.89627
 H609 H 0.92115 0.76595 0.88883
 H610 H 0.95555 0.76754 0.92561
 H611 H 0.88935 0.71433 0.85457
 H612 H 0.88316 0.75683 0.90091
 H613 H 0.84414 0.76508 0.90827
 H614 H 0.80750 0.77030 0.87989
 H615 H 0.82555 0.73018 0.78474
 H616 H 0.86229 0.72471 0.81331
 C617 C 0.43335 0.21773 0.40464
 C618 C 0.41369 0.21818 0.38296
 C619 C 0.40539 0.23881 0.37162
 C620 C 0.41800 0.25887 0.37970
 C621 C 0.43760 0.25844 0.40114
 C622 C 0.44513 0.23795 0.41486
 C623 C 0.38319 0.23931 0.35290
 C624 C 0.36918 0.25562 0.36074
 C625 C 0.34662 0.25763 0.34388
 C626 C 0.33172 0.27150 0.36205
 C627 C 0.31111 0.27594 0.34578
 C628 C 0.30495 0.26676 0.31067
 C629 C 0.31941 0.25214 0.29298
 C630 C 0.34015 0.24765 0.30936
 H631 H 0.43880 0.20166 0.41460
 H632 H 0.40440 0.20249 0.37658
 H633 H 0.41245 0.27499 0.37012
 H634 H 0.44644 0.27429 0.40801
 H635 H 0.37785 0.22537 0.33486
 H636 H 0.37422 0.26807 0.38182
 H637 H 0.33624 0.27933 0.38870
 H638 H 0.30012 0.28694 0.36037
 H639 H 0.31511 0.24499 0.26575
 H640 H 0.35134 0.23718 0.29419
 C641 C 0.76483 0.93951 0.91423
 C642 C 0.76811 0.92185 0.88941
 C643 C 0.75015 0.90710 0.87846
 C644 C 0.72853 0.91086 0.89220
 C645 C 0.72523 0.92866 0.91709
 C646 C 0.74345 0.94290 0.92889
 C647 C 0.75538 0.88716 0.85560
 C648 C 0.74011 0.87326 0.83848
 C649 C 0.74625 0.85170 0.82118
 C650 C 0.73049 0.83335 0.82129
 C651 C 0.73669 0.81193 0.81034
 C652 C 0.75878 0.80852 0.79891
 C653 C 0.77405 0.82719 0.79604
 C654 C 0.76783 0.84861 0.80678
 H655 H 0.77922 0.95025 0.92255
 H656 H 0.78493 0.91939 0.87938
 H657 H 0.71424 0.89974 0.88515
 H658 H 0.70856 0.93081 0.92800
 H659 H 0.77290 0.88324 0.85466
 H660 H 0.72247 0.87654 0.83980
 H661 H 0.71369 0.83533 0.83179
 H662 H 0.72459 0.79781 0.81287
 H663 H 0.79102 0.82509 0.78644
 H664 H 0.78012 0.86255 0.80451
 C665 C 0.26837 0.45594 0.40140
 C666 C 0.27093 0.43772 0.37733
 C667 C 0.25251 0.42800 0.35739
 C668 C 0.23146 0.43755 0.36113
 C669 C 0.22888 0.45578 0.38540
 C670 C 0.24725 0.46499 0.40614
 C671 C 0.25619 0.40771 0.33422
 C672 C 0.23975 0.39375 0.32035
 C673 C 0.24420 0.37165 0.30306
 C674 C 0.22748 0.35419 0.30484
 C675 C 0.23201 0.33232 0.29365
 C676 C 0.25337 0.32752 0.28035
 C677 C 0.26957 0.34528 0.27590
 C678 C 0.26500 0.36717 0.28684
 H679 H 0.28291 0.46267 0.41680
 H680 H 0.28737 0.43088 0.37489
 H681 H 0.21689 0.43111 0.34565
 H682 H 0.21243 0.46255 0.38813
 H683 H 0.27343 0.40312 0.33144
 H684 H 0.22239 0.39719 0.32524
 H685 H 0.21122 0.35722 0.31673
 H686 H 0.21924 0.31892 0.29746
 H687 H 0.28601 0.34208 0.26495
 H688 H 0.27798 0.38035 0.28323
 C689 C 0.28732 0.07609 0.88866
 C690 C 0.28688 0.09574 0.86696
 C691 C 0.26648 0.10327 0.85308
 C692 C 0.24652 0.09061 0.86096
 C693 C 0.24690 0.07116 0.88273
 C694 C 0.26723 0.06382 0.89759
 C695 C 0.26604 0.12541 0.83389
 C696 C 0.24978 0.13024 0.80938
 C697 C 0.24535 0.15319 0.79550
 C698 C 0.22499 0.15604 0.77651
 C699 C 0.21865 0.17743 0.76600
 C700 C 0.23260 0.19657 0.77399
 C701 C 0.25343 0.19379 0.79158
 C702 C 0.25978 0.17232 0.80231
 H703 H 0.30331 0.07104 0.89954
 H704 H 0.30245 0.10533 0.86159
 H705 H 0.23036 0.09620 0.85194
 H706 H 0.23103 0.06230 0.88886
 H707 H 0.27884 0.13803 0.84185
 H708 H 0.23793 0.11681 0.80070
 H709 H 0.21358 0.14168 0.77064
 H710 H 0.20268 0.17904 0.75185
 H711 H 0.26451 0.20829 0.79806
 H712 H 0.27577 0.17103 0.81629
 C713 C 0.80047 0.55279 0.42452
 C714 C 0.80267 0.57400 0.40729
 C715 C 0.78350 0.58539 0.39709
 C716 C 0.76223 0.57458 0.40160
 C717 C 0.76003 0.55337 0.41823
 C718 C 0.77905 0.54253 0.43102
 C719 C 0.78550 0.60890 0.38346
 C720 C 0.77214 0.62430 0.39740
 C721 C 0.77120 0.64777 0.38387
 C722 C 0.76203 0.66364 0.40772
 C723 C 0.75717 0.68493 0.39444
 C724 C 0.76108 0.69075 0.35676
 C725 C 0.77150 0.67537 0.33336
 C726 C 0.77652 0.65401 0.34677
 H727 H 0.81544 0.54481 0.43392
 H728 H 0.81923 0.58199 0.40364
 H729 H 0.74721 0.58282 0.39306
 H730 H 0.74329 0.54593 0.42249
 H731 H 0.79841 0.61360 0.36331
 H732 H 0.76096 0.61940 0.42020
 H733 H 0.75784 0.65925 0.43643
 H734 H 0.74955 0.69659 0.41333
 H735 H 0.77453 0.67933 0.30410
 H736 H 0.78324 0.64205 0.32745
 C737 C 0.06284 0.71280 0.92757
 C738 C 0.08253 0.71302 0.90624
 C739 C 0.09271 0.73349 0.89403
 C740 C 0.08205 0.75360 0.90114
 C741 C 0.06244 0.75344 0.92218
 C742 C 0.05287 0.73313 0.93669
 C743 C 0.11458 0.73388 0.87450
 C744 C 0.13012 0.75058 0.88079
 C745 C 0.15189 0.75352 0.86117
 C746 C 0.16804 0.76898 0.87633
 C747 C 0.18769 0.77474 0.85687
 C748 C 0.19163 0.76524 0.82161
 C749 C 0.17605 0.74894 0.80705
 C750 C 0.15625 0.74317 0.82657
 H751 H 0.05587 0.69679 0.93780
 H752 H 0.09028 0.69727 0.90050
 H753 H 0.08901 0.76958 0.89077
 H754 H 0.05515 0.76944 0.92781
 H755 H 0.11811 0.71991 0.85634
 H756 H 0.12676 0.76308 0.90194
 H757 H 0.16517 0.77716 0.90294
 H758 H 0.19960 0.78709 0.86901
 H759 H 0.17866 0.74149 0.77977
 H760 H 0.14408 0.73145 0.81364
 C761 C 0.54893 0.26057 0.40190
 C762 C 0.56752 0.26184 0.37834
 C763 C 0.57933 0.24260 0.37019
 C764 C 0.57162 0.22174 0.38545
 C765 C 0.55288 0.22046 0.40907
 C766 C 0.54160 0.23996 0.41806
 C767 C 0.60036 0.24578 0.34828
 C768 C 0.61239 0.22916 0.33455
 C769 C 0.63489 0.23368 0.31769
 C770 C 0.65106 0.21739 0.32122
 C771 C 0.67333 0.22238 0.31071
 C772 C 0.67977 0.24374 0.29637
 C773 C 0.66326 0.25937 0.29004
 C774 C 0.64100 0.25434 0.30027
 H775 H 0.54056 0.27592 0.40801
 H776 H 0.57300 0.27813 0.36707
 H777 H 0.58030 0.20649 0.38046
 H778 H 0.54764 0.20434 0.42118
 H779 H 0.60675 0.26304 0.34507
 H780 H 0.60676 0.21174 0.33836
 H781 H 0.64673 0.20123 0.33404
 H782 H 0.68576 0.21004 0.31588
 H783 H 0.66774 0.27578 0.27825
 H784 H 0.62881 0.26691 0.29528
 C785 C 0.94060 0.22585 0.90888
 C786 C 0.92237 0.22225 0.88457
 C787 C 0.91070 0.24045 0.87071
 C788 C 0.91835 0.26253 0.88031
 C789 C 0.93670 0.26614 0.90465
 C790 C 0.94775 0.24780 0.91970
 C791 C 0.89057 0.23539 0.84698
 C792 C 0.87387 0.24949 0.84230
 C793 C 0.85248 0.24268 0.82295
 C794 C 0.83299 0.25380 0.83203
 C795 C 0.81216 0.24659 0.81685
 C796 C 0.81050 0.22809 0.79230
 C797 C 0.83009 0.21762 0.78182
 C798 C 0.85090 0.22495 0.79665
 H799 H 0.94884 0.21134 0.91973
 H800 H 0.91700 0.20509 0.87734
 H801 H 0.91028 0.27704 0.86925
 H802 H 0.94195 0.28327 0.91223
 H803 H 0.88863 0.21843 0.83596
 H804 H 0.87481 0.26575 0.85607
 H805 H 0.83376 0.26765 0.85187
 H806 H 0.79727 0.25495 0.82530
 H807 H 0.82926 0.20365 0.76222
 H808 H 0.86560 0.21658 0.78748
 C809 C 0.44804 0.73826 0.41823
 C810 C 0.42994 0.73804 0.39325
 C811 C 0.41973 0.75806 0.38371
 C812 C 0.42860 0.77856 0.39884
 C813 C 0.44681 0.77878 0.42393
 C814 C 0.45654 0.75857 0.43422
 C815 C 0.39994 0.75640 0.35818
 C816 C 0.38496 0.77240 0.35412
 C817 C 0.36393 0.76868 0.33187
 C818 C 0.34508 0.78079 0.34119
 C819 C 0.32435 0.77600 0.32348
 C820 C 0.32217 0.75898 0.29616
 C821 C 0.34127 0.74782 0.28526
 C822 C 0.36198 0.75276 0.30259
 H823 H 0.45518 0.72239 0.42536
 H824 H 0.42362 0.72203 0.38184
 H825 H 0.42167 0.79445 0.39147
 H826 H 0.45309 0.79473 0.43557
 H827 H 0.39673 0.74031 0.34444
 H828 H 0.38690 0.78784 0.37016
 H829 H 0.34616 0.79335 0.36326
 H830 H 0.30983 0.78485 0.33232
 H831 H 0.34006 0.73496 0.26366
 H832 H 0.37629 0.74383 0.29320
 C833 C 0.24101 0.95987 0.06099
 C834 C 0.23899 0.94190 0.08607
 C835 C 0.25798 0.93085 0.09820
 C836 C 0.27929 0.93873 0.08558
 C837 C 0.28134 0.95686 0.06044
 C838 C 0.26216 0.96743 0.04753
 C839 C 0.25443 0.91130 0.12375
 C840 C 0.26920 0.89526 0.12921
 C841 C 0.26362 0.87457 0.15136
 C842 C 0.27453 0.85473 0.14318
 C843 C 0.26814 0.83443 0.16099
 C844 C 0.25069 0.83365 0.18731
 C845 C 0.24060 0.85368 0.19696
 C846 C 0.24713 0.87396 0.17952
 H847 H 0.22590 0.96769 0.05185
 H848 H 0.22239 0.93635 0.09553
 H849 H 0.29441 0.93110 0.09504
 H850 H 0.29788 0.96241 0.05075
 H851 H 0.23794 0.90920 0.13614
 H852 H 0.28498 0.89611 0.11436
 H853 H 0.28747 0.85477 0.12197
 H854 H 0.27620 0.81919 0.15314
 H855 H 0.22746 0.85356 0.21783
 H856 H 0.23905 0.88903 0.18804
 C857 C 0.73669 0.43220 0.57710
 C858 C 0.73238 0.41301 0.59891
 C859 C 0.75005 0.40082 0.61328
 C860 C 0.77231 0.40885 0.60669
 C861 C 0.77664 0.42818 0.58489
 C862 C 0.75886 0.43985 0.56938
 C863 C 0.74433 0.37992 0.63466
 C864 C 0.75823 0.36302 0.63912
 C865 C 0.75117 0.34122 0.65693
 C866 C 0.76268 0.32189 0.64790
 C867 C 0.75573 0.30082 0.66239
 C868 C 0.73710 0.29868 0.68627
 C869 C 0.72606 0.31810 0.69638
 C870 C 0.73310 0.33916 0.68217
 H871 H 0.72259 0.44087 0.56581
 H872 H 0.71509 0.40736 0.60386
 H873 H 0.78640 0.40035 0.61827
 H874 H 0.79390 0.43375 0.57965
 H875 H 0.72718 0.37774 0.64423
 H876 H 0.77474 0.36428 0.62663
 H877 H 0.77678 0.32301 0.62883
 H878 H 0.76452 0.28610 0.65413
 H879 H 0.71198 0.31696 0.71547
 H880 H 0.72436 0.35371 0.69123
 C881 C 0.71194 0.04609 0.09248
 C882 C 0.71134 0.06418 0.11765
 C883 C 0.73087 0.07203 0.13675
 C884 C 0.75102 0.06133 0.13036
 C885 C 0.75166 0.04345 0.10506
 C886 C 0.73223 0.03583 0.08545
 C887 C 0.73040 0.09282 0.15974
 C888 C 0.74512 0.09752 0.18767
 C889 C 0.74874 0.12017 0.20490
 C890 C 0.76961 0.12557 0.22192
 C891 C 0.77518 0.14753 0.23393
 C892 C 0.75989 0.16457 0.22946
 C893 C 0.73840 0.15888 0.21486
 C894 C 0.73283 0.13689 0.20273
 H895 H 0.69672 0.04066 0.07762
 H896 H 0.69568 0.07233 0.12170
 H897 H 0.76661 0.06733 0.14344
 H898 H 0.76757 0.03593 0.10022
 H899 H 0.71845 0.10500 0.15143
 H900 H 0.75661 0.08485 0.19599
 H901 H 0.78208 0.11298 0.22442
 H902 H 0.79172 0.15134 0.24574
 H903 H 0.72625 0.17167 0.21117
 H904 H 0.71627 0.13331 0.19103
 C905 C 0.21417 0.57540 0.55407
 C906 C 0.21311 0.59439 0.57719
 C907 C 0.23143 0.60131 0.60005
 C908 C 0.25089 0.58884 0.59933
 C909 C 0.25201 0.57003 0.57605
 C910 C 0.23378 0.56322 0.55288
 C911 C 0.23072 0.62263 0.62162
 C912 C 0.24276 0.62640 0.65314
 C913 C 0.24630 0.64876 0.67152
 C914 C 0.26455 0.65179 0.69638
 C915 C 0.27037 0.67298 0.71137
 C916 C 0.25796 0.69169 0.70214
 C917 C 0.23889 0.68854 0.67904
 C918 C 0.23308 0.66727 0.66379
 H919 H 0.19989 0.57066 0.53632
 H920 H 0.19806 0.60388 0.57687
 H921 H 0.26566 0.59405 0.61550
 H922 H 0.26740 0.56109 0.57566
 H923 H 0.22075 0.63566 0.60993
 H924 H 0.25201 0.61276 0.66473
 H925 H 0.27489 0.63784 0.70320
 H926 H 0.28494 0.67487 0.72964
 H927 H 0.22899 0.70270 0.67159
 H928 H 0.21851 0.66563 0.64566
 C929 C 0.94688 0.76079 0.08906
 C930 C 0.92677 0.76291 0.10810
 C931 C 0.91345 0.74378 0.11814
 C932 C 0.92102 0.72228 0.10974
 C933 C 0.94123 0.72014 0.09047
 C934 C 0.95411 0.73942 0.07923
 C935 C 0.89115 0.74728 0.13452
 C936 C 0.87929 0.73197 0.15486
 C937 C 0.85729 0.73724 0.17075
 C938 C 0.85161 0.72995 0.20702
 C939 C 0.83202 0.73696 0.22399
 C940 C 0.81765 0.75112 0.20466
 C941 C 0.82265 0.75708 0.16738
 C942 C 0.84226 0.75024 0.15060
 H943 H 0.95639 0.77599 0.08093
 H944 H 0.92132 0.77965 0.11425
 H945 H 0.91100 0.70716 0.11646
 H946 H 0.94628 0.70346 0.08306
 H947 H 0.88452 0.76380 0.13063
 H948 H 0.88641 0.71618 0.16245
 H949 H 0.86285 0.71973 0.22288
 H950 H 0.82867 0.73212 0.25278
 H951 H 0.81158 0.76740 0.15137
 H952 H 0.84581 0.75540 0.12203
 C953 C 0.42917 0.22057 0.57241
 C954 C 0.40880 0.22182 0.59154
 C955 C 0.40057 0.24283 0.60086
 C956 C 0.41381 0.26249 0.59313
 C957 C 0.43412 0.26127 0.57425
 C958 C 0.44177 0.24036 0.56277
 C959 C 0.37809 0.24405 0.61804
 C960 C 0.36474 0.26094 0.60985
 C961 C 0.34231 0.26384 0.62636
 C962 C 0.32799 0.27854 0.60839
 C963 C 0.30761 0.28369 0.62448
 C964 C 0.30110 0.27438 0.65919
 C965 C 0.31503 0.25906 0.67671
 C966 C 0.33550 0.25387 0.66054
 H967 H 0.43466 0.20420 0.56410
 H968 H 0.39903 0.20642 0.59774
 H969 H 0.40837 0.27891 0.60128
 H970 H 0.44353 0.27683 0.56776
 H971 H 0.37213 0.23027 0.63578
 H972 H 0.37032 0.27329 0.58910
 H973 H 0.33280 0.28644 0.58204
 H974 H 0.29706 0.29527 0.61002
 H975 H 0.31055 0.25183 0.70371
 H976 H 0.34624 0.24283 0.67569
 C977 C 0.05397 0.28438 0.08111
 C978 C 0.07229 0.28582 0.10590
 C979 C 0.07833 0.26691 0.12662
 C980 C 0.06542 0.24657 0.12246
 C981 C 0.04724 0.24510 0.09760
 C982 C 0.04155 0.26385 0.07616
 C983 C 0.09950 0.26816 0.14872
 C984 C 0.10371 0.25398 0.17696
 C985 C 0.12644 0.25140 0.19301
 C986 C 0.13126 0.23054 0.20889
 C987 C 0.15316 0.22609 0.21963
 C988 C 0.17069 0.24251 0.21506
 C989 C 0.16562 0.26394 0.20166
 C990 C 0.14370 0.26838 0.19080
 H991 H 0.05005 0.29909 0.06488
 H992 H 0.08211 0.30160 0.10826
 H993 H 0.06988 0.23139 0.13685
 H994 H 0.03804 0.22903 0.09438
 H995 H 0.11244 0.28024 0.13937
 H996 H 0.09053 0.24216 0.18635
 H997 H 0.11823 0.21726 0.21139
 H998 H 0.15650 0.20957 0.23056
 H999 H 0.17878 0.27695 0.19791
 H1000 H 0.14055 0.28495 0.18002
 C1001 C 0.56526 0.77416 0.59852
 C1002 C 0.58406 0.77272 0.62194
 C1003 C 0.59065 0.75174 0.63507
 C1004 C 0.57784 0.73217 0.62459
 C1005 C 0.55914 0.73360 0.60106
 C1006 C 0.55282 0.75456 0.58732
 C1007 C 0.61202 0.75069 0.65641
 C1008 C 0.61677 0.73353 0.67922
 C1009 C 0.63930 0.73044 0.69601
 C1010 C 0.64424 0.70891 0.70903
 C1011 C 0.66582 0.70448 0.72167
 C1012 C 0.68300 0.72156 0.72174
 C1013 C 0.67778 0.74341 0.71058
 C1014 C 0.65619 0.74785 0.69804
 H1015 H 0.56089 0.79055 0.58828
 H1016 H 0.59375 0.78802 0.62928
 H1017 H 0.58269 0.71561 0.63302
 H1018 H 0.54998 0.71817 0.59283
 H1019 H 0.62439 0.76428 0.65163
 H1020 H 0.60402 0.72029 0.68420
 H1021 H 0.63153 0.69523 0.70830
 H1022 H 0.66915 0.68758 0.73080
 H1023 H 0.69062 0.75695 0.71019
 H1024 H 0.65307 0.76489 0.68960
   
