data_POSCAR
  _audit_creation_date              2014-09-24
  _audit_creation_method            'ToBaCCo'
  _symmetry_space_group_name_H-M    'P1'
  _symmetry_Int_Tables_number       1
  _symmetry_cell_setting            triclinic
  loop_
  _symmetry_equiv_pos_as_xyz
 x,y,z
_cell_length_a 46.4919
_cell_length_b 46.5090
_cell_length_c 38.2345
_cell_angle_alpha 89.959800
_cell_angle_beta 89.964600
_cell_angle_gamma 89.955900
loop_
  _atom_site_label
  _atom_site_type_symbol
  _atom_site_fract_x
  _atom_site_fract_y
  _atom_site_fract_z
O1 O 0.02748 0.31063 -0.03334
 O2 O -0.02881 0.31027 0.03480
 O3 O 0.02742 0.31058 0.03478
 O4 O -0.02876 0.31042 -0.03333
 O5 O -0.02840 0.26287 -0.03328
 O6 O 0.02756 0.26302 0.03458
 O7 O -0.02844 0.26272 0.03460
 O8 O 0.02761 0.26308 -0.03327
 Cu9 Cu -0.00069 0.31529 0.00073
 Cu10 Cu -0.00039 0.25815 0.00065
 C11 C 0.03714 0.28685 -0.04465
 C12 C -0.03820 0.28637 0.04607
 C13 C 0.03706 0.28677 0.04602
 C14 C -0.03815 0.28657 -0.04465
 O15 O 0.52805 0.80992 0.46578
 O16 O 0.47181 0.81011 0.53389
 O17 O 0.52805 0.80987 0.53391
 O18 O 0.47181 0.80997 0.46576
 O19 O 0.47186 0.76242 0.46598
 O20 O 0.52783 0.76232 0.53386
 O21 O 0.47182 0.76256 0.53387
 O22 O 0.52787 0.76237 0.46599
 Cu23 Cu 0.49994 0.81479 0.49983
 Cu24 Cu 0.49983 0.75764 0.49993
 C25 C 0.53754 0.78606 0.45454
 C26 C 0.46224 0.78632 0.54524
 C27 C 0.53751 0.78602 0.54524
 C28 C 0.46227 0.78615 0.45451
 O29 O 1.02916 0.69053 0.03405
 O30 O 0.97301 0.69048 -0.03419
 O31 O 1.02925 0.69042 -0.03409
 O32 O 0.97292 0.69044 0.03393
 O33 O 0.97298 0.73799 0.03374
 O34 O 1.02910 0.73796 -0.03405
 O35 O 0.97309 0.73803 -0.03414
 O36 O 1.02899 0.73807 0.03384
 Cu37 Cu 1.00109 0.68565 -0.00007
 Cu38 Cu 1.00104 0.74279 -0.00016
 C39 C 1.03863 0.71437 0.04534
 C40 C 0.96349 0.71431 -0.04554
 C41 C 1.03876 0.71424 -0.04542
 C42 C 0.96336 0.71427 0.04517
 O43 O 0.47193 0.18872 0.46584
 O44 O 0.52806 0.18884 0.53401
 O45 O 0.47181 0.18866 0.53397
 O46 O 0.52816 0.18906 0.46589
 O47 O 0.52778 0.23661 0.46613
 O48 O 0.47169 0.23621 0.53394
 O49 O 0.52770 0.23639 0.53400
 O50 O 0.47178 0.23627 0.46607
 Cu51 Cu 0.50002 0.18400 0.49992
 Cu52 Cu 0.49971 0.24115 0.50005
 C53 C 0.46231 0.21253 0.45459
 C54 C 0.53744 0.21268 0.54536
 C55 C 0.46216 0.21243 0.54530
 C56 C 0.53755 0.21297 0.45466
 O57 O 0.68989 -0.02777 0.03346
 O58 O 0.68996 0.02841 -0.03480
 O59 O 0.68987 -0.02781 -0.03467
 O60 O 0.68983 0.02844 0.03332
 O61 O 0.73740 0.02829 0.03322
 O62 O 0.73744 -0.02775 -0.03453
 O63 O 0.73752 0.02824 -0.03465
 O64 O 0.73746 -0.02769 0.03334
 Cu65 Cu 0.68507 0.00032 -0.00068
 Cu66 Cu 0.74223 0.00027 -0.00066
 C67 C 0.71373 -0.03729 0.04478
 C68 C 0.71381 0.03789 -0.04610
 C69 C 0.71372 -0.03735 -0.04593
 C70 C 0.71366 0.03793 0.04460
 O71 O 0.19011 0.52810 0.46610
 O72 O 0.19051 0.47197 0.53435
 O73 O 0.19029 0.52818 0.53424
 O74 O 0.19048 0.47188 0.46621
 O75 O 0.23804 0.47221 0.46619
 O76 O 0.23786 0.52826 0.53396
 O77 O 0.23808 0.47229 0.53408
 O78 O 0.23768 0.52821 0.46607
 Cu79 Cu 0.18553 0.50001 0.50024
 Cu80 Cu 0.24269 0.50027 0.50006
 C81 C 0.21388 0.53771 0.45471
 C82 C 0.21442 0.46258 0.54560
 C83 C 0.21410 0.53779 0.54546
 C84 C 0.21435 0.46246 0.45486
 O85 O 0.30895 1.02916 0.03413
 O86 O 0.30904 0.97294 -0.03400
 O87 O 0.30890 1.02915 -0.03403
 O88 O 0.30919 0.97293 0.03412
 O89 O 0.26162 0.97292 0.03414
 O90 O 0.26134 1.02892 -0.03377
 O91 O 0.26147 0.97294 -0.03373
 O92 O 0.26139 1.02892 0.03414
 Cu93 Cu 0.31384 1.00106 0.00005
 Cu94 Cu 0.25668 1.00092 0.00021
 C95 C 0.28509 1.03861 0.04550
 C96 C 0.28521 0.96338 -0.04522
 C97 C 0.28502 1.03859 -0.04528
 C98 C 0.28540 0.96335 0.04547
 O99 O 0.81071 0.52779 0.53408
 O100 O 0.81063 0.47160 0.46603
 O101 O 0.81070 0.52781 0.46595
 O102 O 0.81044 0.47157 0.53416
 O103 O 0.76287 0.47188 0.53397
 O104 O 0.76313 0.52785 0.46604
 O105 O 0.76306 0.47187 0.46610
 O106 O 0.76314 0.52787 0.53391
 Cu107 Cu 0.81544 0.49968 0.50006
 Cu108 Cu 0.75827 0.49989 0.50000
 C109 C 0.78689 0.53739 0.54534
 C110 C 0.78678 0.46217 0.45472
 C111 C 0.78689 0.53740 0.45463
 C112 C 0.78655 0.46216 0.54543
 C113 C 0.20160 0.22295 0.16110
 C114 C 0.22160 0.20131 0.16184
 C115 C 0.23958 0.20686 0.18999
 N116 N 0.23108 0.23116 0.20639
 C117 C 0.20787 0.24108 0.18887
 C118 C 0.26375 0.18995 0.19911
 C119 C 0.28282 0.19600 0.22704
 C120 C 0.30862 0.18171 0.23264
 C121 C 0.32114 0.19399 0.26153
 C122 C 0.30271 0.21551 0.27297
 N123 N 0.27917 0.21623 0.25214
 C124 C 0.30831 0.23363 0.30195
 C125 C 0.29203 0.25826 0.31096
 C126 C 0.29833 0.27643 0.33867
 C127 C 0.27836 0.29810 0.33789
 C128 C 0.26036 0.29252 0.30978
 N129 N 0.26881 0.26818 0.29343
 C130 C 0.23619 0.30943 0.30066
 C131 C 0.21708 0.30333 0.27279
 C132 C 0.19123 0.31756 0.26726
 C133 C 0.17869 0.30526 0.23841
 C134 C 0.19714 0.28378 0.22692
 N135 N 0.22072 0.28311 0.24769
 C136 C 0.19154 0.26567 0.19794
 H137 H 0.18430 0.22496 0.14232
 H138 H 0.22282 0.18360 0.14356
 H139 H 0.23911 0.27105 0.24344
 H140 H 0.31774 0.16445 0.21722
 H141 H 0.34172 0.18796 0.27255
 H142 H 0.31564 0.27444 0.35744
 H143 H 0.27718 0.31585 0.35613
 H144 H 0.15807 0.31125 0.22745
 H145 H 0.26081 0.22834 0.25632
 H146 H 0.18210 0.33480 0.28271
 C147 C 0.79845 0.77752 0.16091
 C148 C 0.77829 0.79900 0.16181
 C149 C 0.76038 0.79320 0.18998
 N150 N 0.76908 0.76890 0.20625
 C151 C 0.79235 0.75922 0.18862
 C152 C 0.73607 0.80987 0.19923
 C153 C 0.71706 0.80356 0.22717
 C154 C 0.69113 0.81760 0.23285
 C155 C 0.67873 0.80512 0.26172
 C156 C 0.69735 0.78373 0.27306
 N157 N 0.72089 0.78328 0.25219
 C158 C 0.69192 0.76548 0.30201
 C159 C 0.70843 0.74098 0.31091
 C160 C 0.70232 0.72268 0.33861
 C161 C 0.72248 0.70119 0.33771
 C162 C 0.74040 0.70700 0.30955
 N163 N 0.73171 0.73131 0.29328
 C164 C 0.76470 0.69033 0.30030
 C165 C 0.78372 0.69665 0.27237
 C166 C 0.80966 0.68262 0.26670
 C167 C 0.82206 0.69510 0.23783
 C168 C 0.80344 0.71648 0.22648
 N169 N 0.77989 0.71692 0.24734
 C170 C 0.80886 0.73472 0.19753
 H171 H 0.81575 0.77572 0.14208
 H172 H 0.77692 0.81678 0.14360
 H173 H 0.76140 0.72885 0.24321
 H174 H 0.68185 0.83482 0.21749
 H175 H 0.65809 0.81094 0.27279
 H176 H 0.68502 0.72447 0.35744
 H177 H 0.72385 0.68341 0.35591
 H178 H 0.84270 0.68929 0.22677
 H179 H 0.73937 0.77134 0.25631
 H180 H 0.81894 0.66540 0.28206
 C181 C 0.77734 0.20214 0.16062
 C182 C 0.79893 0.22216 0.16154
 C183 C 0.79324 0.23999 0.18979
 N184 N 0.76892 0.23139 0.20609
 C185 C 0.75912 0.20825 0.18839
 C186 C 0.81005 0.26415 0.19910
 C187 C 0.80385 0.28309 0.22712
 C188 C 0.81801 0.30892 0.23285
 C189 C 0.80561 0.32130 0.26178
 C190 C 0.78414 0.30277 0.27310
 N191 N 0.78358 0.27930 0.25216
 C192 C 0.76594 0.30820 0.30209
 C193 C 0.74138 0.29180 0.31100
 C194 C 0.72314 0.29792 0.33876
 C195 C 0.70157 0.27787 0.33786
 C196 C 0.70728 0.26002 0.30963
 N197 N 0.73160 0.26863 0.29333
 C198 C 0.69050 0.23584 0.30035
 C199 C 0.69670 0.21690 0.27233
 C200 C 0.68257 0.19106 0.26662
 C201 C 0.69495 0.17870 0.23766
 C202 C 0.71638 0.19725 0.22631
 N203 N 0.71694 0.22072 0.24726
 C204 C 0.73456 0.19185 0.19730
 H205 H 0.77544 0.18493 0.14172
 H206 H 0.81669 0.22349 0.14330
 H207 H 0.72893 0.23915 0.24316
 H208 H 0.83526 0.31814 0.21750
 H209 H 0.81152 0.34185 0.27291
 H210 H 0.72502 0.31514 0.35763
 H211 H 0.68381 0.27654 0.35609
 H212 H 0.68905 0.15814 0.22654
 H213 H 0.77156 0.26088 0.25624
 H214 H 0.66535 0.18181 0.28199
 C215 C 0.29831 0.72208 0.33759
 C216 C 0.27677 0.70201 0.33844
 C217 C 0.25851 0.70821 0.31075
 N218 N 0.26825 0.73147 0.29317
 C219 C 0.29256 0.74005 0.30946
 C220 C 0.23397 0.69181 0.30181
 C221 C 0.21577 0.69731 0.27285
 C222 C 0.19435 0.67878 0.26148
 C223 C 0.18196 0.69124 0.23258
 C224 C 0.19608 0.71710 0.22693
 N225 N 0.21631 0.72085 0.25198
 C226 C 0.18986 0.73614 0.19898
 C227 C 0.20660 0.76040 0.18979
 C228 C 0.20089 0.77834 0.16164
 C229 C 0.22239 0.79845 0.16083
 C230 C 0.24061 0.79228 0.18857
 N231 N 0.23087 0.76902 0.20614
 C232 C 0.26511 0.80873 0.19757
 C233 C 0.28330 0.80322 0.22652
 C234 C 0.30469 0.82177 0.23794
 C235 C 0.31711 0.80928 0.26679
 C236 C 0.30305 0.78337 0.27238
 N237 N 0.28280 0.77964 0.24733
 C238 C 0.30931 0.76430 0.30027
 H239 H 0.31607 0.72336 0.35580
 H240 H 0.27491 0.68470 0.35724
 H241 H 0.27086 0.76120 0.24313
 H242 H 0.18847 0.65818 0.27253
 H243 H 0.16474 0.68203 0.21720
 H244 H 0.18315 0.77703 0.14338
 H245 H 0.22425 0.81576 0.14202
 H246 H 0.33432 0.81849 0.28219
 H247 H 0.22831 0.73927 0.25612
 H248 H 0.31053 0.84240 0.22694
 C249 C 0.77765 0.20080 0.83845
 C250 C 0.79766 0.22240 0.83938
 C251 C 0.79152 0.24063 0.81161
 N252 N 0.76838 0.23080 0.79391
 C253 C 0.75980 0.20647 0.81020
 C254 C 0.80789 0.26520 0.80271
 C255 C 0.80245 0.28337 0.77369
 C256 C 0.82099 0.30481 0.76234
 C257 C 0.80860 0.31718 0.73340
 C258 C 0.78277 0.30303 0.72769
 N259 N 0.77897 0.28278 0.75276
 C260 C 0.76380 0.30922 0.69968
 C261 C 0.73962 0.29243 0.69041
 C262 C 0.72174 0.29813 0.66220
 C263 C 0.70171 0.27655 0.66130
 C264 C 0.70787 0.25831 0.68904
 N265 N 0.73104 0.26810 0.70670
 C266 C 0.69149 0.23374 0.69795
 C267 C 0.69696 0.21553 0.72693
 C268 C 0.67845 0.19405 0.73824
 C269 C 0.69086 0.18166 0.76716
 C270 C 0.71668 0.19584 0.77289
 N271 N 0.72044 0.21612 0.74786
 C272 C 0.73565 0.18965 0.80089
 H273 H 0.77634 0.18304 0.85668
 H274 H 0.81487 0.22432 0.85827
 H275 H 0.73885 0.22816 0.74377
 H276 H 0.84156 0.31072 0.77346
 H277 H 0.81783 0.33441 0.71802
 H278 H 0.72305 0.31589 0.64397
 H279 H 0.68447 0.27465 0.64243
 H280 H 0.68166 0.16439 0.78250
 H281 H 0.76055 0.27078 0.75687
 H282 H 0.65789 0.18812 0.72712
 C283 C 0.27780 0.70168 0.66239
 C284 C 0.29783 0.72326 0.66144
 C285 C 0.29165 0.74151 0.68914
 N286 N 0.26845 0.73173 0.70682
 C287 C 0.25988 0.70740 0.69057
 C288 C 0.30803 0.76608 0.69800
 C289 C 0.30251 0.78431 0.72691
 C290 C 0.32100 0.80580 0.73819
 C291 C 0.30853 0.81823 0.76704
 C292 C 0.28270 0.80407 0.77278
 N293 N 0.27898 0.78376 0.74781
 C294 C 0.26367 0.81030 0.80073
 C295 C 0.23950 0.79347 0.81007
 C296 C 0.22159 0.79918 0.83826
 C297 C 0.20159 0.77758 0.83925
 C298 C 0.20779 0.75931 0.81157
 N299 N 0.23097 0.76911 0.79387
 C300 C 0.19145 0.73471 0.80275
 C301 C 0.19694 0.71649 0.77382
 C302 C 0.17845 0.69500 0.76255
 C303 C 0.19088 0.68261 0.73365
 C304 C 0.21670 0.69679 0.72788
 N305 N 0.22044 0.71708 0.75287
 C306 C 0.23570 0.69060 0.69988
 H307 H 0.27652 0.68391 0.64420
 H308 H 0.31510 0.72514 0.64258
 H309 H 0.23884 0.72912 0.75693
 H310 H 0.34159 0.81171 0.72708
 H311 H 0.31771 0.83551 0.78235
 H312 H 0.22285 0.81698 0.85642
 H313 H 0.18434 0.77569 0.85812
 H314 H 0.18169 0.66534 0.71834
 H315 H 0.26058 0.77173 0.74374
 H316 H 0.15788 0.68908 0.77369
 C317 C 0.27813 0.29835 0.66254
 C318 C 0.29805 0.27664 0.66157
 C319 C 0.29179 0.25841 0.68927
 N320 N 0.26866 0.26833 0.70698
 C321 C 0.26021 0.29274 0.69075
 C322 C 0.30804 0.23371 0.69812
 C323 C 0.30246 0.21555 0.72709
 C324 C 0.32086 0.19396 0.73842
 C325 C 0.30837 0.18167 0.76736
 C326 C 0.28261 0.19600 0.77309
 N327 N 0.27896 0.21628 0.74803
 C328 C 0.26358 0.18993 0.80109
 C329 C 0.23945 0.20685 0.81038
 C330 C 0.22153 0.20124 0.83859
 C331 C 0.20157 0.22292 0.83951
 C332 C 0.20781 0.24113 0.81179
 N333 N 0.23097 0.23123 0.79410
 C334 C 0.19154 0.26579 0.80290
 C335 C 0.19714 0.28398 0.77395
 C336 C 0.17874 0.30556 0.76261
 C337 C 0.19126 0.31789 0.73372
 C338 C 0.21704 0.30358 0.72802
 N339 N 0.22067 0.28327 0.75305
 C340 C 0.23610 0.30968 0.70006
 H341 H 0.27693 0.31615 0.64434
 H342 H 0.31529 0.27466 0.64268
 H343 H 0.23903 0.27114 0.75715
 H344 H 0.34140 0.18791 0.72730
 H345 H 0.31749 0.16436 0.78272
 H346 H 0.22275 0.18346 0.85681
 H347 H 0.18433 0.22489 0.85839
 H348 H 0.18216 0.33521 0.71836
 H349 H 0.26060 0.22842 0.74396
 H350 H 0.15818 0.31159 0.77369
 C351 C 0.77764 0.79821 0.83851
 C352 C 0.79926 0.77820 0.83763
 C353 C 0.79357 0.76025 0.80950
 N354 N 0.76921 0.76879 0.79324
 C355 C 0.75939 0.79199 0.81084
 C356 C 0.81042 0.73606 0.80027
 C357 C 0.80421 0.71701 0.77238
 C358 C 0.81841 0.69118 0.76673
 C359 C 0.80600 0.67868 0.73791
 C360 C 0.78448 0.69716 0.72658
 N361 N 0.78389 0.72070 0.74739
 C362 C 0.76624 0.69161 0.69769
 C363 C 0.74163 0.70796 0.68878
 C364 C 0.72335 0.70172 0.66113
 C365 C 0.70174 0.72175 0.66201
 C366 C 0.70745 0.73971 0.69010
 N367 N 0.73182 0.73118 0.70636
 C368 C 0.69063 0.76392 0.69931
 C369 C 0.69684 0.78297 0.72719
 C370 C 0.68266 0.80883 0.73282
 C371 C 0.69507 0.82131 0.76164
 C372 C 0.71656 0.80281 0.77301
 N373 N 0.71714 0.77926 0.75220
 C374 C 0.73478 0.80835 0.80192
 H375 H 0.77573 0.81550 0.85731
 H376 H 0.81705 0.77694 0.85581
 H377 H 0.72918 0.76086 0.75637
 H378 H 0.83571 0.68202 0.78206
 H379 H 0.81193 0.65809 0.72688
 H380 H 0.72525 0.68442 0.64235
 H381 H 0.68394 0.72299 0.64383
 H382 H 0.68915 0.84191 0.77267
 H383 H 0.77182 0.73909 0.74326
 H384 H 0.66539 0.81800 0.71746
 C385 C 0.28475 0.05982 0.06988
 C386 C 0.28366 0.07898 0.09107
 C387 C 0.28140 0.10179 0.11527
 C388 C 0.27865 0.12155 0.13538
 C389 C 0.27445 0.14501 0.15824
 C390 C 0.27004 0.16529 0.17714
 C391 C 0.78661 0.55987 0.57099
 C392 C 0.78557 0.57917 0.59197
 C393 C 0.78342 0.60219 0.61584
 C394 C 0.78077 0.62219 0.63560
 C395 C 0.77670 0.64597 0.65796
 C396 C 0.77239 0.66655 0.67637
 C397 C 0.71408 0.94029 0.07057
 C398 C 0.71526 0.92109 0.09171
 C399 C 0.71767 0.89822 0.11583
 C400 C 0.72058 0.87840 0.13585
 C401 C 0.72498 0.85489 0.15859
 C402 C 0.72958 0.83457 0.17738
 C403 C 0.21489 0.44019 0.57140
 C404 C 0.21609 0.42100 0.59255
 C405 C 0.21842 0.39814 0.61668
 C406 C 0.22122 0.37832 0.63671
 C407 C 0.22543 0.35479 0.65945
 C408 C 0.22985 0.33443 0.67823
 C409 C 0.94054 0.28592 0.07042
 C410 C 0.92133 0.28472 0.09156
 C411 C 0.89845 0.28233 0.11568
 C412 C 0.87862 0.27945 0.13570
 C413 C 0.85510 0.27511 0.15845
 C414 C 0.83477 0.27057 0.17724
 C415 C 0.43975 0.78609 0.57092
 C416 C 0.42045 0.78510 0.59194
 C417 C 0.39743 0.78302 0.61588
 C418 C 0.37743 0.78043 0.63569
 C419 C 0.35366 0.77643 0.65813
 C420 C 0.33308 0.77217 0.67660
 C421 C 0.05982 0.71471 0.06975
 C422 C 0.07896 0.71581 0.09097
 C423 C 0.10176 0.71811 0.11519
 C424 C 0.12151 0.72093 0.13531
 C425 C 0.14495 0.72521 0.15816
 C426 C 0.16522 0.72972 0.17704
 C427 C 0.55991 0.21305 0.57103
 C428 C 0.57920 0.21416 0.59203
 C429 C 0.60221 0.21641 0.61591
 C430 C 0.62219 0.21913 0.63569
 C431 C 0.64593 0.22325 0.65808
 C432 C 0.66649 0.22759 0.67654
 C433 C 0.71416 0.05913 0.92953
 C434 C 0.71529 0.07834 0.90838
 C435 C 0.71762 0.10122 0.88426
 C436 C 0.72045 0.12104 0.86425
 C437 C 0.72476 0.14458 0.84152
 C438 C 0.72927 0.16492 0.82273
 C439 C 0.21404 0.56017 0.42898
 C440 C 0.21499 0.57944 0.40792
 C441 C 0.21704 0.60244 0.38395
 C442 C 0.21962 0.62241 0.36411
 C443 C 0.22361 0.64617 0.34166
 C444 C 0.22787 0.66675 0.32319
 C445 C 0.28489 0.94093 0.92905
 C446 C 0.28377 0.92171 0.90796
 C447 C 0.28147 0.89881 0.88390
 C448 C 0.27869 0.87896 0.86393
 C449 C 0.27445 0.85541 0.84124
 C450 C 0.27000 0.83505 0.82251
 C451 C 0.78644 0.43970 0.42907
 C452 C 0.78535 0.42042 0.40808
 C453 C 0.78315 0.39742 0.38418
 C454 C 0.78046 0.37746 0.36439
 C455 C 0.77637 0.35373 0.34198
 C456 C 0.77206 0.33319 0.32351
 C457 C 0.05968 0.28663 0.92971
 C458 C 0.07903 0.28558 0.90874
 C459 C 0.10211 0.28336 0.88488
 C460 C 0.12213 0.28062 0.86513
 C461 C 0.14592 0.27645 0.84274
 C462 C 0.16650 0.27205 0.82429
 C463 C 0.56005 0.78568 0.42887
 C464 C 0.57937 0.78459 0.40789
 C465 C 0.60242 0.78240 0.38400
 C466 C 0.62244 0.77976 0.36423
 C467 C 0.64623 0.77574 0.34184
 C468 C 0.66684 0.77150 0.32339
 C469 C 0.94106 0.71465 0.92871
 C470 C 0.92183 0.71581 0.90761
 C471 C 0.89893 0.71815 0.88354
 C472 C 0.87908 0.72098 0.86355
 C473 C 0.85553 0.72525 0.84085
 C474 C 0.83517 0.72973 0.82209
 C475 C 0.43987 0.21280 0.42888
 C476 C 0.42061 0.21386 0.40784
 C477 C 0.39762 0.21606 0.38390
 C478 C 0.37765 0.21877 0.36409
 C479 C 0.35391 0.22293 0.34169
 C480 C 0.33334 0.22734 0.32326
 C481 C 0.71405 0.94014 0.92846
 C482 C 0.71516 0.92082 0.90752
 C483 C 0.71739 0.89778 0.88369
 C484 C 0.72012 0.87776 0.86397
 C485 C 0.72426 0.85398 0.84164
 C486 C 0.72861 0.83339 0.82325
 C487 C 0.21478 0.43999 0.42918
 C488 C 0.21599 0.42074 0.40812
 C489 C 0.21838 0.39784 0.38408
 C490 C 0.22122 0.37800 0.36410
 C491 C 0.22549 0.35447 0.34137
 C492 C 0.22993 0.33413 0.32257
 C493 C 0.28463 0.05977 0.93030
 C494 C 0.28352 0.07891 0.90906
 C495 C 0.28126 0.10170 0.88483
 C496 C 0.27851 0.12146 0.86470
 C497 C 0.27431 0.14492 0.84185
 C498 C 0.26988 0.16523 0.82299
 C499 C 0.78661 0.55984 0.42886
 C500 C 0.78546 0.57906 0.40774
 C501 C 0.78308 0.60195 0.38365
 C502 C 0.78018 0.62177 0.36364
 C503 C 0.77579 0.64530 0.34092
 C504 C 0.77120 0.66563 0.32214
 C505 C 0.06005 0.71451 0.93028
 C506 C 0.07931 0.71549 0.90920
 C507 C 0.10228 0.71760 0.88519
 C508 C 0.12222 0.72021 0.86530
 C509 C 0.14592 0.72425 0.84278
 C510 C 0.16645 0.72855 0.82423
 C511 C 0.56003 0.21349 0.42893
 C512 C 0.57926 0.21481 0.40784
 C513 C 0.60216 0.21734 0.38377
 C514 C 0.62198 0.22032 0.36377
 C515 C 0.64550 0.22477 0.34104
 C516 C 0.66582 0.22938 0.32224
 C517 C 0.93938 0.28618 0.92969
 C518 C 0.92009 0.28503 0.90870
 C519 C 0.89708 0.28273 0.88482
 C520 C 0.87711 0.27995 0.86504
 C521 C 0.85339 0.27576 0.84263
 C522 C 0.83286 0.27138 0.82415
 C523 C 0.43982 0.78582 0.42878
 C524 C 0.42059 0.78467 0.40769
 C525 C 0.39770 0.78232 0.38361
 C526 C 0.37787 0.77948 0.36362
 C527 C 0.35434 0.77518 0.34091
 C528 C 0.33401 0.77067 0.32212
 C529 C 0.28518 0.94082 0.07110
 C530 C 0.28418 0.92147 0.09205
 C531 C 0.28207 0.89838 0.11588
 C532 C 0.27945 0.87832 0.13559
 C533 C 0.27542 0.85448 0.15790
 C534 C 0.27117 0.83384 0.17627
 C535 C 0.78607 0.43971 0.57117
 C536 C 0.78478 0.42047 0.59226
 C537 C 0.78226 0.39758 0.61632
 C538 C 0.77928 0.37775 0.63631
 C539 C 0.77483 0.35423 0.65902
 C540 C 0.77024 0.33391 0.67780
 C541 C 0.71397 0.06041 0.07025
 C542 C 0.71504 0.07969 0.09124
 C543 C 0.71725 0.10269 0.11514
 C544 C 0.71995 0.12264 0.13494
 C545 C 0.72407 0.14636 0.15736
 C546 C 0.72841 0.16688 0.17585
 C547 C 0.21439 0.56023 0.57120
 C548 C 0.21549 0.57943 0.59232
 C549 C 0.21778 0.60228 0.61645
 C550 C 0.22058 0.62208 0.63648
 C551 C 0.22483 0.64558 0.65924
 C552 C 0.22932 0.66589 0.67804
 C553 C 0.94082 0.71459 0.07079
 C554 C 0.92148 0.71565 0.09175
 C555 C 0.89841 0.71782 0.11560
 C556 C 0.87837 0.72045 0.13535
 C557 C 0.85456 0.72447 0.15772
 C558 C 0.83395 0.72871 0.17615
 C559 C 0.43963 0.21264 0.57096
 C560 C 0.42031 0.21371 0.59195
 C561 C 0.39727 0.21596 0.61587
 C562 C 0.37729 0.21873 0.63568
 C563 C 0.35355 0.22296 0.65814
 C564 C 0.33302 0.22741 0.67665
 C565 C 0.05956 0.28650 0.07165
 C566 C 0.07889 0.28543 0.09260
 C567 C 0.10197 0.28322 0.11641
 C568 C 0.12201 0.28049 0.13610
 C569 C 0.14583 0.27632 0.15837
 C570 C 0.16645 0.27192 0.17670
 C571 C 0.55997 0.78561 0.57096
 C572 C 0.57921 0.78440 0.59203
 C573 C 0.60213 0.78199 0.61608
 C574 C 0.62198 0.77911 0.63604
 C575 C 0.64553 0.77478 0.65872
 C576 C 0.66589 0.77027 0.67748
   
