data_POSCAR
  _audit_creation_date              2014-09-24
  _audit_creation_method            'ToBaCCo'
  _symmetry_space_group_name_H-M    'P1'
  _symmetry_Int_Tables_number       1
  _symmetry_cell_setting            triclinic
  loop_
  _symmetry_equiv_pos_as_xyz
 x,y,z
_cell_length_a 40.3714
_cell_length_b 40.4982
_cell_length_c 36.7151
_cell_angle_alpha 89.952800
_cell_angle_beta 89.967200
_cell_angle_gamma 91.155700
loop_
  _atom_site_label
  _atom_site_type_symbol
  _atom_site_fract_x
  _atom_site_fract_y
  _atom_site_fract_z
C1 C -0.10375 0.33279 -0.02623
 C2 C -0.10469 0.33402 0.01109
 C3 C -0.07768 0.31651 0.02335
 N4 N -0.05987 0.30543 -0.00500
 C5 C -0.07597 0.31502 -0.03522
 C6 C -0.07257 0.30592 0.05950
 C7 C -0.03985 0.29899 0.07134
 C8 C -0.03112 0.28216 0.10280
 C9 C 0.00298 0.28181 0.10384
 C10 C 0.01420 0.29708 0.07224
 N11 N -0.01192 0.30775 0.05287
 C12 C 0.04770 0.30274 0.06260
 C13 C 0.05777 0.30812 0.02613
 C14 C 0.08893 0.31928 0.01541
 C15 C 0.08965 0.31760 -0.02189
 C16 C 0.05931 0.30431 -0.03284
 N17 N 0.03962 0.29906 -0.00338
 C18 C 0.05059 0.29524 -0.06911
 C19 C 0.01689 0.28939 -0.07850
 C20 C 0.00550 0.26982 -0.10713
 C21 C -0.02852 0.27176 -0.10742
 C22 C -0.03692 0.29229 -0.07886
 N23 N -0.00918 0.30276 -0.06129
 C24 C -0.06927 0.30187 -0.06970
 H25 H -0.12219 0.34234 -0.04464
 H26 H -0.12396 0.34487 0.02742
 H27 H -0.00792 0.32031 -0.04052
 H28 H -0.04729 0.27073 0.12282
 H29 H 0.01761 0.27086 0.12515
 H30 H 0.10924 0.32757 0.03252
 H31 H 0.11041 0.32501 -0.03888
 H32 H -0.04507 0.25917 -0.12622
 H33 H -0.01040 0.32254 0.02964
 H34 H 0.02013 0.25527 -0.12562
 C35 C 0.60545 0.78823 0.48470
 C36 C 0.60618 0.78745 0.52198
 C37 C 0.57551 0.79792 0.53379
 N38 N 0.55614 0.80524 0.50504
 C39 C 0.57437 0.79921 0.47499
 C40 C 0.56631 0.80192 0.57057
 C41 C 0.53312 0.80586 0.58164
 C42 C 0.52326 0.81575 0.61605
 C43 C 0.48921 0.81306 0.61683
 C44 C 0.47926 0.80154 0.58289
 N45 N 0.50617 0.79739 0.56159
 C46 C 0.44646 0.79199 0.57356
 C47 C 0.43613 0.78680 0.53717
 C48 C 0.40639 0.77188 0.52681
 C49 C 0.40570 0.77236 0.48945
 C50 C 0.43502 0.78759 0.47821
 N51 N 0.45348 0.79658 0.50742
 C52 C 0.44403 0.79376 0.44158
 C53 C 0.47624 0.80441 0.43126
 C54 C 0.48469 0.81740 0.39745
 C55 C 0.51870 0.82047 0.39668
 C56 C 0.53002 0.80925 0.43002
 N57 N 0.50398 0.79975 0.45100
 C58 C 0.56363 0.80464 0.43896
 H59 H 0.62543 0.78118 0.46685
 H60 H 0.62686 0.77973 0.53847
 H61 H 0.50531 0.78631 0.47505
 H62 H 0.53901 0.82339 0.63848
 H63 H 0.47360 0.81824 0.64002
 H64 H 0.38733 0.76135 0.54428
 H65 H 0.38600 0.76230 0.47256
 H66 H 0.53348 0.82907 0.37383
 H67 H 0.50643 0.78514 0.53675
 H68 H 0.46811 0.82318 0.37529
 C69 C 1.09969 0.73331 -0.01432
 C70 C 1.09988 0.73459 0.02299
 C71 C 1.07092 0.71895 0.03469
 N72 N 1.05298 0.70824 0.00567
 C73 C 1.07069 0.71677 -0.02439
 C74 C 1.06093 0.71534 0.07158
 C75 C 1.02745 0.70812 0.08071
 C76 C 1.01665 0.69493 0.11369
 C77 C 0.98268 0.69646 0.11381
 C78 C 0.97369 0.70999 0.08070
 N79 N 1.00104 0.71657 0.06042
 C80 C 0.94119 0.71856 0.07109
 C81 C 0.93164 0.72268 0.03451
 C82 C 0.90171 0.73503 0.02276
 C83 C 0.90145 0.73199 -0.01448
 C84 C 0.93130 0.71804 -0.02404
 N85 N 0.94965 0.71236 0.00590
 C86 C 0.94046 0.70850 -0.05946
 C87 C 0.97336 0.70053 -0.06838
 C88 C 0.98280 0.68420 -0.09975
 C89 C 1.01685 0.68441 -0.09999
 C90 C 1.02726 0.70109 -0.06887
 N91 N 1.00059 0.71034 -0.04943
 C92 C 1.06054 0.71014 -0.06076
 H93 H 1.11833 0.74438 -0.03193
 H94 H 1.11865 0.74679 0.03946
 H95 H 1.00113 0.72624 -0.02715
 H96 H 1.03178 0.68605 0.13582
 H97 H 0.96648 0.68896 0.13594
 H98 H 0.88202 0.74491 0.03925
 H99 H 0.88156 0.73911 -0.03241
 H100 H 1.03227 0.67413 -0.12109
 H101 H 1.00191 0.73024 0.03638
 H102 H 0.96682 0.67378 -0.12061
 C103 C 0.58812 0.23825 0.47534
 C104 C 0.58867 0.23799 0.51277
 C105 C 0.55830 0.22507 0.52404
 N106 N 0.53936 0.21724 0.49480
 C107 C 0.55742 0.22551 0.46500
 C108 C 0.54884 0.21962 0.56069
 C109 C 0.51628 0.21015 0.57101
 C110 C 0.50755 0.19723 0.60476
 C111 C 0.47354 0.19459 0.60539
 C112 C 0.46244 0.20608 0.57206
 N113 N 0.48866 0.21533 0.55119
 C114 C 0.42881 0.21049 0.56292
 C115 C 0.41811 0.21555 0.52676
 C116 C 0.38665 0.22518 0.51674
 C117 C 0.38607 0.22562 0.47938
 C118 C 0.41721 0.21627 0.46785
 N119 N 0.43671 0.21001 0.49685
 C120 C 0.42672 0.21200 0.43115
 C121 C 0.46001 0.20798 0.42038
 C122 C 0.46995 0.19728 0.38629
 C123 C 0.50397 0.19971 0.38560
 C124 C 0.51388 0.21179 0.41931
 N125 N 0.48694 0.21666 0.44038
 C126 C 0.54687 0.22063 0.42862
 H127 H 0.60799 0.24698 0.45780
 H128 H 0.60906 0.24647 0.52970
 H129 H 0.48672 0.22924 0.46503
 H130 H 0.52397 0.19092 0.62688
 H131 H 0.45866 0.18585 0.62810
 H132 H 0.36625 0.23137 0.53443
 H133 H 0.36514 0.23218 0.46265
 H134 H 0.51962 0.19377 0.36267
 H135 H 0.48760 0.22860 0.52699
 H136 H 0.45429 0.18909 0.36401
 C137 C 0.73978 -0.10713 -0.02310
 C138 C 0.73770 -0.10695 0.01402
 C139 C 0.72328 -0.07740 0.02359
 N140 N 0.71681 -0.05926 -0.00642
 C141 C 0.72646 -0.07773 -0.03503
 C142 C 0.71515 -0.06815 0.05957
 C143 C 0.71244 -0.03442 0.06918
 C144 C 0.69849 -0.02265 0.10107
 C145 C 0.70294 0.01112 0.10074
 C146 C 0.71890 0.01908 0.06837
 N147 N 0.72450 -0.00873 0.04923
 C148 C 0.73007 0.05109 0.05849
 C149 C 0.73756 0.06010 0.02214
 C150 C 0.75294 0.08950 0.01178
 C151 C 0.75393 0.08948 -0.02558
 C152 C 0.73872 0.06021 -0.03695
 N153 N 0.72889 0.04218 -0.00763
 C154 C 0.73335 0.05080 -0.07381
 C155 C 0.72402 0.01792 -0.08328
 C156 C 0.70838 0.00871 -0.11551
 C157 C 0.70508 -0.02510 -0.11505
 C158 C 0.71872 -0.03572 -0.08256
 N159 N 0.72983 -0.00934 -0.06309
 C160 C 0.72158 -0.06915 -0.07191
 H161 H 0.75004 -0.12662 -0.03950
 H162 H 0.74613 -0.12624 0.03200
 H163 H 0.74353 -0.01021 -0.03907
 H164 H 0.68654 -0.03687 0.12250
 H165 H 0.69533 0.02791 0.12194
 H166 H 0.76259 0.10888 0.02932
 H167 H 0.76486 0.10876 -0.04239
 H168 H 0.69367 -0.04012 -0.13614
 H169 H 0.73898 -0.01028 0.02584
 H170 H 0.69994 0.02473 -0.13705
 C171 C 0.23164 0.39433 0.48612
 C172 C 0.23275 0.39439 0.52356
 C173 C 0.22117 0.42475 0.53470
 N174 N 0.21275 0.44304 0.50545
 C175 C 0.21942 0.42465 0.47572
 C176 C 0.21791 0.43513 0.57124
 C177 C 0.21074 0.46802 0.58078
 C178 C 0.19980 0.47794 0.61480
 C179 C 0.20073 0.51190 0.61486
 C180 C 0.21224 0.52175 0.58088
 N181 N 0.21792 0.49486 0.56014
 C182 C 0.22069 0.55461 0.57120
 C183 C 0.22514 0.56468 0.53467
 C184 C 0.23827 0.59493 0.52355
 C185 C 0.23754 0.59488 0.48615
 C186 C 0.22395 0.56462 0.47576
 N187 N 0.21617 0.54634 0.50545
 C188 C 0.21794 0.55452 0.43951
 C189 C 0.20876 0.52174 0.43029
 C190 C 0.19561 0.51206 0.39701
 C191 C 0.19432 0.47810 0.39709
 C192 C 0.20679 0.46799 0.43040
 N193 N 0.21517 0.49476 0.45063
 C194 C 0.21412 0.43499 0.43945
 H195 H 0.23939 0.37442 0.46864
 H196 H 0.24150 0.37452 0.54052
 H197 H 0.22922 0.49455 0.47434
 H198 H 0.19292 0.46229 0.63761
 H199 H 0.19465 0.52755 0.63769
 H200 H 0.24769 0.61482 0.54053
 H201 H 0.24629 0.61475 0.46867
 H202 H 0.18621 0.46256 0.37470
 H203 H 0.23083 0.49475 0.53564
 H204 H 0.18862 0.52782 0.37459
 C205 C 0.28875 0.89732 0.02415
 C206 C 0.28900 0.89710 -0.01317
 C207 C 0.28619 0.92970 -0.02443
 N208 N 0.28400 0.94962 0.00497
 C209 C 0.28561 0.92995 0.03462
 C210 C 0.28004 0.94020 -0.06060
 C211 C 0.27787 0.97420 -0.06978
 C212 C 0.26408 0.98665 -0.10150
 C213 C 0.26911 1.02021 -0.10093
 C214 C 0.28726 1.02754 -0.06980
 N215 N 0.29201 0.99943 -0.05067
 C216 C 0.30031 1.05924 -0.06028
 C217 C 0.30901 1.06629 -0.02371
 C218 C 0.33001 1.09179 -0.01236
 C219 C 0.32876 1.09211 0.02496
 C220 C 0.30723 1.06666 0.03514
 N221 N 0.29557 1.05054 0.00540
 C222 C 0.29673 1.05974 0.07116
 C223 C 0.28458 1.02763 0.08035
 C224 C 0.26536 1.01962 0.11060
 C225 C 0.26129 0.98591 0.11085
 C226 C 0.27691 0.97421 0.07995
 N227 N 0.29103 0.99976 0.06147
 C228 C 0.27932 0.94055 0.07049
 H229 H 0.28907 0.87568 0.04143
 H230 H 0.28931 0.87508 -0.02978
 H231 H 0.30695 0.99794 0.03923
 H232 H 0.25189 0.97335 -0.12333
 H233 H 0.26052 1.03713 -0.12152
 H234 H 0.34444 1.10860 -0.02928
 H235 H 0.34205 1.10915 0.04263
 H236 H 0.24798 0.97186 0.13141
 H237 H 0.30728 0.99726 -0.02795
 H238 H 0.25514 1.03619 0.13056
 C239 C 0.78447 0.39350 0.51165
 C240 C 0.78351 0.39360 0.47438
 C241 C 0.79433 0.42474 0.46334
 N242 N 0.80202 0.44362 0.49259
 C243 C 0.79589 0.42457 0.52217
 C244 C 0.79841 0.43468 0.42673
 C245 C 0.80307 0.46799 0.41609
 C246 C 0.81272 0.47840 0.38163
 C247 C 0.81174 0.51238 0.38166
 C248 C 0.80150 0.52172 0.41614
 N249 N 0.79618 0.49452 0.43688
 C250 C 0.79533 0.55450 0.42701
 C251 C 0.79134 0.56380 0.46383
 C252 C 0.78024 0.59423 0.47537
 C253 C 0.78203 0.59417 0.51264
 C254 C 0.79416 0.56370 0.52269
 N255 N 0.79991 0.54520 0.49280
 C256 C 0.80148 0.55421 0.55883
 C257 C 0.80788 0.52124 0.56894
 C258 C 0.82036 0.51152 0.60239
 C259 C 0.82038 0.47750 0.60235
 C260 C 0.80809 0.46745 0.56881
 N261 N 0.80045 0.49421 0.54871
 C262 C 0.80197 0.43429 0.55851
 H263 H 0.77743 0.37290 0.52898
 H264 H 0.77558 0.37311 0.45738
 H265 H 0.78716 0.49391 0.52448
 H266 H 0.81937 0.46309 0.35871
 H267 H 0.81756 0.52835 0.35879
 H268 H 0.77177 0.61442 0.45868
 H269 H 0.77515 0.61428 0.53030
 H270 H 0.82820 0.46194 0.62459
 H271 H 0.78471 0.49390 0.46221
 H272 H 0.82818 0.52726 0.62472
 O273 O 0.24346 0.20310 0.22389
 O274 O 0.21329 0.26323 0.29104
 O275 O 0.19057 0.23838 0.22907
 O276 O 0.26536 0.22737 0.28460
 O277 O 0.29122 0.26639 0.25294
 O278 O 0.21465 0.28062 0.20086
 O279 O 0.24033 0.30300 0.26177
 O280 O 0.26601 0.24388 0.19179
 Cu281 Cu 0.22540 0.22906 0.26015
 Cu282 Cu 0.25549 0.27753 0.22374
 C283 C 0.25940 0.21334 0.19613
 C284 C 0.22288 0.29325 0.28863
 C285 C 0.18989 0.26119 0.20532
 C286 C 0.29114 0.24493 0.27825
 O287 O 0.75056 0.79491 0.23800
 O288 O 0.76470 0.71910 0.28985
 O289 O 0.79084 0.74619 0.23180
 O290 O 0.72131 0.76618 0.29283
 O291 O 0.68712 0.73849 0.25666
 O292 O 0.75617 0.71794 0.19671
 O293 O 0.72970 0.69134 0.25470
 O294 O 0.71640 0.76754 0.20154
 Cu295 Cu 0.76028 0.75925 0.26682
 Cu296 Cu 0.71889 0.72611 0.22381
 C297 C 0.73137 0.79425 0.21067
 C298 C 0.74973 0.69233 0.28143
 C299 C 0.78522 0.72864 0.20366
 C300 C 0.69226 0.75568 0.28501
 O301 O 0.79215 0.24759 0.23095
 O302 O 0.72285 0.21821 0.28765
 O303 O 0.74887 0.19908 0.22494
 O304 O 0.76314 0.26957 0.28775
 O305 O 0.72928 0.29936 0.25458
 O306 O 0.71281 0.22878 0.19482
 O307 O 0.68849 0.24968 0.25728
 O308 O 0.75757 0.27603 0.19707
 Cu309 Cu 0.75991 0.23026 0.26107
 Cu310 Cu 0.71847 0.26611 0.22259
 C311 C 0.78678 0.26695 0.20460
 C312 C 0.69419 0.22990 0.28339
 C313 C 0.72854 0.20224 0.19868
 C314 C 0.74893 0.29675 0.28129
 O315 O 0.28166 0.76884 0.21578
 O316 O 0.25515 0.70092 0.27675
 O317 O 0.23748 0.72150 0.21188
 O318 O 0.29993 0.74771 0.27936
 O319 O 0.26403 0.78102 0.30466
 O320 O 0.20084 0.75317 0.23849
 O321 O 0.21939 0.73371 0.30311
 O322 O 0.24401 0.80067 0.24059
 Cu323 Cu 0.27215 0.73137 0.24340
 Cu324 Cu 0.22843 0.77034 0.27442
 C325 C 0.26679 0.79614 0.21738
 C326 C 0.23313 0.70587 0.30079
 C327 C 0.20857 0.73325 0.21329
 C328 C 0.29279 0.76886 0.30349
 O329 O 0.69261 0.24944 0.72927
 O330 O 0.76183 0.27565 0.78908
 O331 O 0.73367 0.29910 0.73146
 O332 O 0.71715 0.22887 0.79182
 O333 O 0.75275 0.19878 0.76153
 O334 O 0.76752 0.26920 0.69844
 O335 O 0.79624 0.24681 0.75537
 O336 O 0.72681 0.21798 0.69870
 Cu337 Cu 0.72273 0.26598 0.76365
 Cu338 Cu 0.76392 0.22985 0.72518
 C339 C 0.69818 0.22966 0.70315
 C340 C 0.79092 0.26610 0.78177
 C341 C 0.75341 0.29646 0.70482
 C342 C 0.73286 0.20230 0.78815
 O343 O 0.30225 0.74583 0.73591
 O344 O 0.23869 0.71810 0.80149
 O345 O 0.25754 0.69897 0.73648
 O346 O 0.28255 0.76590 0.79946
 O347 O 0.24541 0.79808 0.77434
 O348 O 0.22193 0.73205 0.71028
 O349 O 0.20233 0.75014 0.77495
 O350 O 0.26658 0.77932 0.71046
 Cu351 Cu 0.27381 0.72882 0.77091
 Cu352 Cu 0.23046 0.76814 0.73984
 C353 C 0.29539 0.76728 0.71197
 C354 C 0.20973 0.72968 0.79978
 C355 C 0.23582 0.70426 0.71219
 C356 C 0.26779 0.79329 0.79794
 O357 O 0.25435 0.30281 0.74677
 O358 O 0.28361 0.24252 0.81378
 O359 O 0.30508 0.26494 0.75086
 O360 O 0.23371 0.28031 0.81033
 O361 O 0.20493 0.24099 0.78211
 O362 O 0.27637 0.22616 0.72197
 O363 O 0.25612 0.20291 0.78460
 O364 O 0.22519 0.26373 0.71889
 Cu365 Cu 0.27205 0.27669 0.78312
 Cu366 Cu 0.23774 0.22951 0.74907
 C367 C 0.23522 0.29358 0.72109
 C368 C 0.27441 0.21250 0.81082
 C369 C 0.30285 0.24330 0.72589
 C370 C 0.20755 0.26271 0.80694
 O371 O 0.73566 0.76435 0.69887
 O372 O 0.81079 0.74912 0.75285
 O373 O 0.78104 0.71889 0.69844
 O374 O 0.76697 0.79472 0.75073
 O375 O 0.73675 0.76595 0.79004
 O376 O 0.75075 0.69001 0.73757
 O377 O 0.78068 0.71994 0.79188
 O378 O 0.70585 0.73490 0.73801
 Cu379 Cu 0.77668 0.75942 0.72108
 Cu380 Cu 0.74061 0.72472 0.76834
 C381 C 0.70787 0.75247 0.70944
 C382 C 0.80840 0.73239 0.78208
 C383 C 0.76816 0.69158 0.70876
 C384 C 0.74945 0.79331 0.77942
 C385 C 0.30414 0.07955 0.13436
 C386 C 0.29636 0.08559 0.09750
 C387 C 0.28650 0.11768 0.08770
 C388 C 0.28239 0.14220 0.11420
 C389 C 0.28780 0.13475 0.15129
 C390 C 0.29946 0.10364 0.16097
 C391 C 0.28081 0.15833 0.17808
 C392 C 0.26937 0.18956 0.16810
 C393 C 0.26578 0.19740 0.13109
 C394 C 0.27189 0.17378 0.10433
 H395 H 0.27999 0.12317 0.05974
 H396 H 0.30456 0.09777 0.18918
 H397 H 0.28398 0.15236 0.20665
 H398 H 0.26787 0.18003 0.07600
 H399 H 0.31351 0.05586 0.14280
 H400 H 0.25695 0.22139 0.12297
 C401 C 0.82495 0.60713 0.58400
 C402 C 0.80252 0.58033 0.58724
 C403 C 0.77957 0.57966 0.61600
 C404 C 0.77811 0.60623 0.64045
 C405 C 0.79991 0.63373 0.63606
 C406 C 0.82363 0.63366 0.60816
 C407 C 0.79708 0.66119 0.65904
 C408 C 0.77282 0.66157 0.68651
 C409 C 0.75207 0.63362 0.69148
 C410 C 0.75462 0.60623 0.66858
 H411 H 0.76222 0.55899 0.61849
 H412 H 0.84067 0.65442 0.60456
 H413 H 0.81343 0.68247 0.65513
 H414 H 0.73782 0.58531 0.67245
 H415 H 0.84287 0.60786 0.56202
 H416 H 0.73320 0.63327 0.71246
 C417 C 0.69191 0.87771 0.07722
 C418 C 0.71036 0.90659 0.08601
 C419 C 0.72595 0.90848 0.12030
 C420 C 0.72506 0.88127 0.14407
 C421 C 0.70760 0.85206 0.13406
 C422 C 0.69045 0.85086 0.10099
 C423 C 0.70859 0.82409 0.15661
 C424 C 0.72732 0.82468 0.18885
 C425 C 0.74375 0.85422 0.19912
 C426 C 0.74253 0.88226 0.17702
 H427 H 0.74079 0.93014 0.12742
 H428 H 0.67666 0.82880 0.09301
 H429 H 0.69575 0.80155 0.14835
 H430 H 0.75599 0.90444 0.18524
 H431 H 0.67890 0.87576 0.05148
 H432 H 0.75820 0.85549 0.22393
 C433 C 0.25031 0.41872 0.62589
 C434 C 0.22454 0.41156 0.60129
 C435 C 0.20513 0.38268 0.60593
 C436 C 0.21156 0.36107 0.63495
 C437 C 0.23745 0.36871 0.65968
 C438 C 0.25664 0.39758 0.65492
 C439 C 0.24414 0.34712 0.68848
 C440 C 0.22581 0.31750 0.69263
 C441 C 0.20004 0.31011 0.66800
 C442 C 0.19282 0.33183 0.63956
 H443 H 0.18515 0.37718 0.58703
 H444 H 0.27665 0.40373 0.67353
 H445 H 0.26432 0.35296 0.70701
 H446 H 0.17290 0.32553 0.62089
 H447 H 0.26551 0.44088 0.62258
 H448 H 0.18561 0.28740 0.67059
 C449 C 0.87047 0.28416 0.06570
 C450 C 0.89913 0.29880 0.08158
 C451 C 0.89862 0.30549 0.11929
 C452 C 0.87066 0.29705 0.14048
 C453 C 0.84214 0.28311 0.12366
 C454 C 0.84229 0.27695 0.08628
 C455 C 0.81419 0.27469 0.14462
 C456 C 0.81492 0.27862 0.18246
 C457 C 0.84338 0.29202 0.19924
 C458 C 0.87087 0.30175 0.17833
 H459 H 0.91971 0.31766 0.13215
 H460 H 0.82086 0.26577 0.07305
 H461 H 0.79238 0.26383 0.13177
 H462 H 0.89250 0.31221 0.19183
 H463 H 0.87000 0.27732 0.03719
 H464 H 0.84423 0.29506 0.22854
 C465 C 0.42870 0.76100 0.62938
 C466 C 0.42231 0.78554 0.60345
 C467 C 0.39255 0.80287 0.60528
 C468 C 0.36897 0.79512 0.63226
 C469 C 0.37553 0.77012 0.65802
 C470 C 0.40559 0.75344 0.65656
 C471 C 0.35170 0.76175 0.68441
 C472 C 0.32107 0.77768 0.68527
 C473 C 0.31492 0.80274 0.65976
 C474 C 0.33870 0.81147 0.63357
 H475 H 0.38760 0.82186 0.58529
 H476 H 0.41099 0.73420 0.67607
 H477 H 0.35681 0.74232 0.70382
 H478 H 0.33325 0.83069 0.61406
 H479 H 0.45148 0.74734 0.62820
 H480 H 0.29158 0.81546 0.65984
 C481 C 0.07553 0.73991 0.13065
 C482 C 0.08413 0.72068 0.10016
 C483 C 0.11602 0.70707 0.09896
 C484 C 0.13859 0.71243 0.12759
 C485 C 0.12943 0.73189 0.15774
 C486 C 0.09787 0.74545 0.15901
 C487 C 0.15208 0.73784 0.18601
 C488 C 0.18400 0.72468 0.18469
 C489 C 0.19272 0.70484 0.15488
 C490 C 0.17022 0.69877 0.12659
 H491 H 0.12297 0.69163 0.07619
 H492 H 0.09051 0.76059 0.18183
 H493 H 0.14495 0.75318 0.20878
 H494 H 0.17768 0.68368 0.10377
 H495 H 0.05161 0.75151 0.13215
 H496 H 0.21717 0.69444 0.15309
 C497 C 0.56886 0.24967 0.61612
 C498 C 0.57370 0.22484 0.59010
 C499 C 0.60155 0.20477 0.59273
 C500 C 0.62459 0.20971 0.62098
 C501 C 0.61958 0.23489 0.64698
 C502 C 0.59157 0.25465 0.64435
 C503 C 0.64296 0.24033 0.67476
 C504 C 0.67168 0.22133 0.67659
 C505 C 0.67614 0.19603 0.65091
 C506 C 0.65275 0.19016 0.62349
 H507 H 0.60518 0.18544 0.57279
 H508 H 0.58733 0.27408 0.66398
 H509 H 0.63932 0.26010 0.69415
 H510 H 0.65698 0.17072 0.60388
 H511 H 0.54741 0.26524 0.61447
 H512 H 0.69804 0.18104 0.65167
 C513 C 0.75381 0.06777 0.86568
 C514 C 0.73639 0.07479 0.89800
 C515 C 0.72129 0.10573 0.90118
 C516 C 0.72346 0.12899 0.87284
 C517 C 0.74142 0.12176 0.84086
 C518 C 0.75650 0.09104 0.83760
 C519 C 0.74407 0.14540 0.81280
 C520 C 0.72864 0.17611 0.81622
 C521 C 0.71027 0.18259 0.84794
 C522 C 0.70779 0.15936 0.87595
 H523 H 0.70690 0.11133 0.92528
 H524 H 0.77038 0.08497 0.81333
 H525 H 0.75829 0.14000 0.78856
 H526 H 0.69377 0.16529 0.90018
 H527 H 0.76603 0.04438 0.86243
 H528 H 0.69819 0.20600 0.85151
 C529 C 0.24734 0.57353 0.38316
 C530 C 0.22287 0.57884 0.40958
 C531 C 0.20391 0.60748 0.40790
 C532 C 0.20993 0.63107 0.38053
 C533 C 0.23497 0.62575 0.35434
 C534 C 0.25331 0.59675 0.35569
 C535 C 0.24174 0.64980 0.32769
 C536 C 0.22411 0.67939 0.32704
 C537 C 0.19888 0.68415 0.35285
 C538 C 0.19179 0.66018 0.37928
 H539 H 0.18493 0.61151 0.42823
 H540 H 0.27257 0.59225 0.33585
 H541 H 0.26131 0.64579 0.30804
 H542 H 0.17248 0.66465 0.39907
 H543 H 0.26215 0.55154 0.38418
 H544 H 0.18486 0.70667 0.35296
 C545 C 0.24139 0.91296 0.89723
 C546 C 0.27322 0.91605 0.91258
 C547 C 0.29779 0.89383 0.90193
 C548 C 0.29076 0.86916 0.87607
 C549 C 0.25894 0.86703 0.86010
 C550 C 0.23445 0.88900 0.87088
 C551 C 0.25195 0.84263 0.83402
 C552 C 0.27601 0.81964 0.82436
 C553 C 0.30740 0.82154 0.84079
 C554 C 0.31485 0.84634 0.86616
 H555 H 0.32232 0.89578 0.91388
 H556 H 0.20978 0.88737 0.85932
 H557 H 0.22748 0.84102 0.82188
 H558 H 0.33931 0.84748 0.87827
 H559 H 0.22171 0.92895 0.90598
 H560 H 0.32628 0.80402 0.83374
 C561 C 0.81958 0.38320 0.39790
 C562 C 0.79660 0.40876 0.39824
 C563 C 0.76995 0.40795 0.37379
 C564 C 0.76546 0.38112 0.35012
 C565 C 0.78802 0.35483 0.35076
 C566 C 0.81534 0.35640 0.37431
 C567 C 0.78258 0.32723 0.32828
 C568 C 0.75502 0.32573 0.30493
 C569 C 0.73320 0.35235 0.30399
 C570 C 0.73829 0.37973 0.32647
 H571 H 0.75212 0.42762 0.37425
 H572 H 0.83299 0.33661 0.37505
 H573 H 0.79975 0.30700 0.32894
 H574 H 0.72081 0.39967 0.32559
 H575 H 0.84022 0.38358 0.41674
 H576 H 0.71181 0.35182 0.28619
 C577 C 0.07064 0.30125 0.86763
 C578 C 0.07562 0.29094 0.90397
 C579 C 0.10597 0.27611 0.91268
 C580 C 0.13089 0.27271 0.88640
 C581 C 0.12527 0.28293 0.85013
 C582 C 0.09499 0.29703 0.84105
 C583 C 0.15018 0.27912 0.82374
 C584 C 0.18086 0.26623 0.83368
 C585 C 0.18643 0.25662 0.86981
 C586 C 0.16150 0.25943 0.89591
 H587 H 0.11010 0.26658 0.93986
 H588 H 0.09032 0.30530 0.81348
 H589 H 0.14603 0.28672 0.79582
 H590 H 0.16629 0.25158 0.92360
 H591 H 0.04808 0.31343 0.85983
 H592 H 0.21004 0.24659 0.87771
 C593 C 0.61635 0.82463 0.40927
 C594 C 0.58847 0.80331 0.40919
 C595 C 0.58567 0.77857 0.38260
 C596 C 0.61117 0.77411 0.35729
 C597 C 0.63988 0.79469 0.35854
 C598 C 0.64194 0.82030 0.38418
 C599 C 0.66628 0.78885 0.33464
 C600 C 0.66415 0.76292 0.30927
 C601 C 0.63503 0.74335 0.30753
 C602 C 0.60884 0.74880 0.33143
 H603 H 0.56421 0.76203 0.38260
 H604 H 0.66361 0.83648 0.38537
 H605 H 0.68850 0.80429 0.33594
 H606 H 0.58696 0.73290 0.33002
 H607 H 0.61874 0.84388 0.42961
 H608 H 0.63277 0.72326 0.28819
 C609 C 0.88628 0.68602 0.91711
 C610 C 0.91446 0.70637 0.91194
 C611 C 0.91721 0.72573 0.88028
 C612 C 0.89145 0.72569 0.85463
 C613 C 0.86266 0.70600 0.86071
 C614 C 0.86054 0.68587 0.89174
 C615 C 0.83610 0.70740 0.83619
 C616 C 0.83778 0.72834 0.80564
 C617 C 0.86699 0.74695 0.79918
 C618 C 0.89358 0.74566 0.82347
 H619 H 0.93897 0.74144 0.87624
 H620 H 0.83874 0.67047 0.89672
 H621 H 0.81382 0.69276 0.84142
 H622 H 0.91552 0.76079 0.81829
 H623 H 0.88398 0.67074 0.94124
 H624 H 0.86896 0.76326 0.77587
 C625 C 0.37475 0.18792 0.40381
 C626 C 0.40052 0.21170 0.40271
 C627 C 0.40070 0.23595 0.37533
 C628 C 0.37480 0.23708 0.34990
 C629 C 0.34845 0.21361 0.35188
 C630 C 0.34889 0.18888 0.37863
 C631 C 0.32174 0.21569 0.32764
 C632 C 0.32083 0.24103 0.30143
 C633 C 0.34763 0.26365 0.29902
 C634 C 0.37437 0.26170 0.32305
 H635 H 0.42060 0.25432 0.37446
 H636 H 0.32898 0.17060 0.38042
 H637 H 0.30133 0.19798 0.32973
 H638 H 0.39442 0.27980 0.32106
 H639 H 0.37445 0.16896 0.42463
 H640 H 0.34758 0.28339 0.27911
 C641 C 0.70089 0.87606 0.90931
 C642 C 0.71934 0.90524 0.90179
 C643 C 0.73713 0.90739 0.86878
 C644 C 0.73839 0.88011 0.84524
 C645 C 0.72094 0.85060 0.85416
 C646 C 0.70163 0.84913 0.88577
 C647 C 0.72384 0.82268 0.83196
 C648 C 0.74433 0.82361 0.80103
 C649 C 0.76084 0.85336 0.79175
 C650 C 0.75786 0.88138 0.81362
 H651 H 0.75180 0.92940 0.86257
 H652 H 0.68775 0.82684 0.89280
 H653 H 0.71080 0.79998 0.83935
 H654 H 0.77137 0.90380 0.80625
 H655 H 0.68604 0.87397 0.93384
 H656 H 0.77667 0.85483 0.76796
 C657 C 0.24304 0.41849 0.38246
 C658 C 0.21891 0.41129 0.40902
 C659 C 0.19949 0.38220 0.40603
 C660 C 0.20426 0.36048 0.37668
 C661 C 0.22843 0.36827 0.34996
 C662 C 0.24766 0.39729 0.35310
 C663 C 0.23342 0.34669 0.32075
 C664 C 0.21513 0.31690 0.31803
 C665 C 0.19115 0.30928 0.34469
 C666 C 0.18558 0.33101 0.37362
 H667 H 0.18080 0.37661 0.42646
 H668 H 0.26639 0.40352 0.33296
 H669 H 0.25229 0.35273 0.30066
 H670 H 0.16698 0.32457 0.39384
 H671 H 0.25829 0.44073 0.38448
 H672 H 0.17681 0.28643 0.34327
 C673 C 0.31176 0.07795 0.87674
 C674 C 0.30233 0.08475 0.91297
 C675 C 0.29322 0.11733 0.92159
 C676 C 0.29172 0.14171 0.89457
 C677 C 0.29861 0.13359 0.85796
 C678 C 0.30938 0.10187 0.84949
 C679 C 0.29380 0.15710 0.83044
 C680 C 0.28328 0.18889 0.83939
 C681 C 0.27851 0.19738 0.87602
 C682 C 0.28229 0.17385 0.90341
 H683 H 0.28528 0.12341 0.94894
 H684 H 0.31561 0.09543 0.82171
 H685 H 0.29774 0.15063 0.80213
 H686 H 0.27722 0.18060 0.93139
 H687 H 0.32055 0.05378 0.86928
 H688 H 0.27031 0.22182 0.88329
 C689 C 0.81655 0.60722 0.39925
 C690 C 0.79363 0.58070 0.39875
 C691 C 0.76791 0.58032 0.37299
 C692 C 0.76432 0.60696 0.34886
 C693 C 0.78685 0.63411 0.35050
 C694 C 0.81319 0.63374 0.37535
 C695 C 0.78227 0.66153 0.32786
 C696 C 0.75549 0.66232 0.30342
 C697 C 0.73382 0.63478 0.30116
 C698 C 0.73815 0.60737 0.32376
 H699 H 0.75019 0.55985 0.37262
 H700 H 0.83079 0.65426 0.37680
 H701 H 0.79937 0.68246 0.32965
 H702 H 0.72072 0.58673 0.32201
 H703 H 0.83657 0.60771 0.41889
 H704 H 0.71304 0.63476 0.28252
 C705 C 0.07409 0.73078 0.87805
 C706 C 0.08342 0.71401 0.91005
 C707 C 0.11586 0.70186 0.91236
 C708 C 0.13860 0.70709 0.88386
 C709 C 0.12897 0.72470 0.85249
 C710 C 0.09659 0.73612 0.84972
 C711 C 0.15202 0.73114 0.82466
 C712 C 0.18474 0.72024 0.82765
 C713 C 0.19382 0.70190 0.85850
 C714 C 0.17097 0.69541 0.88636
 H715 H 0.12331 0.68803 0.93619
 H716 H 0.08879 0.74967 0.82586
 H717 H 0.14458 0.74518 0.80098
 H718 H 0.17878 0.68172 0.91011
 H719 H 0.04960 0.74098 0.87546
 H720 H 0.21886 0.69321 0.86155
 C721 C 0.56617 0.25063 0.37269
 C722 C 0.57112 0.22560 0.39849
 C723 C 0.59866 0.20519 0.39515
 C724 C 0.62133 0.21003 0.36648
 C725 C 0.61624 0.23544 0.34073
 C726 C 0.58850 0.25550 0.34402
 C727 C 0.63933 0.24084 0.31260
 C728 C 0.66785 0.22157 0.31019
 C729 C 0.67234 0.19603 0.33561
 C730 C 0.64923 0.19019 0.36335
 H731 H 0.60240 0.18572 0.41493
 H732 H 0.58420 0.27511 0.32460
 H733 H 0.63568 0.26080 0.29342
 H734 H 0.65350 0.17057 0.38276
 H735 H 0.54497 0.26648 0.37490
 H736 H 0.69407 0.18082 0.33440
 C737 C 0.87451 0.27614 0.92128
 C738 C 0.90205 0.29323 0.90638
 C739 C 0.90176 0.30201 0.86936
 C740 C 0.87419 0.29386 0.84757
 C741 C 0.84623 0.27770 0.86332
 C742 C 0.84670 0.26890 0.90013
 C743 C 0.81848 0.26996 0.84184
 C744 C 0.81887 0.27687 0.80451
 C745 C 0.84684 0.29222 0.78872
 C746 C 0.87414 0.30118 0.81022
 H747 H 0.92293 0.31504 0.85765
 H748 H 0.82570 0.25609 0.91249
 H749 H 0.79706 0.25750 0.85380
 H750 H 0.89538 0.31330 0.79757
 H751 H 0.87446 0.26857 0.94959
 H752 H 0.84741 0.29741 0.75977
 C753 C 0.42607 0.76287 0.38596
 C754 C 0.41940 0.78691 0.41234
 C755 C 0.38924 0.80361 0.41117
 C756 C 0.36567 0.79587 0.38420
 C757 C 0.37260 0.77145 0.35791
 C758 C 0.40293 0.75527 0.35889
 C759 C 0.34893 0.76325 0.33134
 C760 C 0.31812 0.77884 0.33073
 C761 C 0.31154 0.80326 0.35682
 C762 C 0.33515 0.81177 0.38326
 H763 H 0.38409 0.82223 0.43149
 H764 H 0.40862 0.73647 0.33898
 H765 H 0.35437 0.74432 0.31148
 H766 H 0.32940 0.83054 0.40317
 H767 H 0.44917 0.74973 0.38662
 H768 H 0.28804 0.81568 0.35695
 C769 C 0.23894 0.90892 0.10941
 C770 C 0.27181 0.91518 0.09860
 C771 C 0.29741 0.89667 0.11372
 C772 C 0.29022 0.87203 0.13960
 C773 C 0.25713 0.86664 0.15121
 C774 C 0.23168 0.88518 0.13594
 C775 C 0.24994 0.84239 0.17744
 C776 C 0.27516 0.82259 0.19125
 C777 C 0.30783 0.82751 0.17902
 C778 C 0.31540 0.85239 0.15375
 H779 H 0.32273 0.90118 0.10485
 H780 H 0.20616 0.88106 0.14421
 H781 H 0.22457 0.83824 0.18632
 H782 H 0.34084 0.85601 0.14495
 H783 H 0.21896 0.92271 0.09744
 H784 H 0.32752 0.81233 0.18935
 C785 C 0.82309 0.38232 0.58652
 C786 C 0.80068 0.40838 0.58711
 C787 C 0.77477 0.40802 0.61252
 C788 C 0.77030 0.38109 0.63615
 C789 C 0.79223 0.35430 0.63459
 C790 C 0.81893 0.35546 0.61012
 C791 C 0.78672 0.32662 0.65703
 C792 C 0.75969 0.32551 0.68119
 C793 C 0.73852 0.35263 0.68298
 C794 C 0.74371 0.38010 0.66062
 H795 H 0.75736 0.42806 0.61278
 H796 H 0.83609 0.33528 0.60864
 H797 H 0.80339 0.30600 0.65566
 H798 H 0.72672 0.40043 0.66220
 H799 H 0.84315 0.38233 0.56690
 H800 H 0.71755 0.35245 0.70140
 C801 C 0.75678 0.07207 0.11580
 C802 C 0.73361 0.07630 0.08776
 C803 C 0.71340 0.10406 0.08804
 C804 C 0.71642 0.12757 0.11600
 C805 C 0.74003 0.12336 0.14401
 C806 C 0.76004 0.09544 0.14367
 C807 C 0.74342 0.14729 0.17162
 C808 C 0.72360 0.17549 0.17146
 C809 C 0.69989 0.17901 0.14369
 C810 C 0.69632 0.15532 0.11630
 H811 H 0.69530 0.10719 0.06656
 H812 H 0.77824 0.09171 0.16488
 H813 H 0.76187 0.14425 0.19273
 H814 H 0.67803 0.15890 0.09514
 H815 H 0.77243 0.05066 0.11598
 H816 H 0.68424 0.20039 0.14280
 C817 C 0.25165 0.57393 0.62641
 C818 C 0.22640 0.57903 0.60085
 C819 C 0.20706 0.60736 0.60341
 C820 C 0.21325 0.63070 0.63096
 C821 C 0.23891 0.62548 0.65642
 C822 C 0.25782 0.59691 0.65403
 C823 C 0.24559 0.64914 0.68349
 C824 C 0.22723 0.67824 0.68527
 C825 C 0.20152 0.68296 0.66006
 C826 C 0.19453 0.65938 0.63324
 H827 H 0.18748 0.61125 0.58376
 H828 H 0.27759 0.59251 0.67327
 H829 H 0.26556 0.64519 0.70263
 H830 H 0.17475 0.66378 0.61400
 H831 H 0.26678 0.55219 0.62472
 H832 H 0.18695 0.70511 0.66081
 C833 C 0.92155 0.74606 0.12799
 C834 C 0.91620 0.72258 0.10038
 C835 C 0.88679 0.70350 0.10027
 C836 C 0.86237 0.70865 0.12669
 C837 C 0.86770 0.73269 0.15412
 C838 C 0.89755 0.75100 0.15475
 C839 C 0.84283 0.73848 0.17993
 C840 C 0.81243 0.72097 0.17826
 C841 C 0.80763 0.69687 0.15111
 C842 C 0.83243 0.69063 0.12570
 H843 H 0.88275 0.68516 0.07915
 H844 H 0.90209 0.76951 0.17555
 H845 H 0.84679 0.75722 0.20062
 H846 H 0.82796 0.67211 0.10490
 H847 H 0.94418 0.76090 0.12844
 H848 H 0.78451 0.68292 0.14933
 C849 C 0.37720 0.18741 0.59247
 C850 C 0.40377 0.21032 0.59268
 C851 C 0.40610 0.23377 0.62076
 C852 C 0.38170 0.23490 0.64791
 C853 C 0.35453 0.21234 0.64696
 C854 C 0.35271 0.18845 0.61934
 C855 C 0.32932 0.21449 0.67318
 C856 C 0.33084 0.23898 0.70033
 C857 C 0.35849 0.26065 0.70156
 C858 C 0.38366 0.25865 0.67559
 H859 H 0.42661 0.25148 0.62097
 H860 H 0.33216 0.17085 0.61827
 H861 H 0.30822 0.19754 0.67193
 H862 H 0.40438 0.27603 0.67681
 H863 H 0.37522 0.16902 0.57113
 H864 H 0.36034 0.27974 0.72214
 C865 C 0.08988 0.32972 0.10353
 C866 C 0.07356 0.30089 0.09127
 C867 C 0.08266 0.27016 0.10540
 C868 C 0.10795 0.26818 0.13149
 C869 C 0.12518 0.29721 0.14265
 C870 C 0.11575 0.32789 0.12871
 C871 C 0.15173 0.29496 0.16722
 C872 C 0.16059 0.26418 0.18157
 C873 C 0.14239 0.23572 0.17144
 C874 C 0.11653 0.23764 0.14633
 H875 H 0.07010 0.24787 0.09591
 H876 H 0.12846 0.35042 0.13716
 H877 H 0.16551 0.31706 0.17513
 H878 H 0.10343 0.21519 0.13829
 H879 H 0.08301 0.35358 0.09290
 H880 H 0.14894 0.21175 0.18203
 C881 C 0.61950 0.82328 0.59751
 C882 C 0.59274 0.80060 0.59858
 C883 C 0.59298 0.77448 0.62369
 C884 C 0.62052 0.76999 0.64628
 C885 C 0.64808 0.79203 0.64381
 C886 C 0.64701 0.81901 0.61992
 C887 C 0.67649 0.78629 0.66466
 C888 C 0.67762 0.75903 0.68828
 C889 C 0.64970 0.73792 0.69144
 C890 C 0.62145 0.74325 0.67047
 H891 H 0.57237 0.75689 0.62440
 H892 H 0.66777 0.83628 0.61789
 H893 H 0.69775 0.80296 0.66240
 H894 H 0.60052 0.72620 0.67282
 H895 H 0.61957 0.84354 0.57823
 H896 H 0.64998 0.71682 0.70956
   
