data_POSCAR
  _audit_creation_date              2014-09-24
  _audit_creation_method            'ToBaCCo'
  _symmetry_space_group_name_H-M    'P1'
  _symmetry_Int_Tables_number       1
  _symmetry_cell_setting            triclinic
  loop_
  _symmetry_equiv_pos_as_xyz
 x,y,z
_cell_length_a 24.9180
_cell_length_b 24.9164
_cell_length_c 24.9180
_cell_angle_alpha 89.916200
_cell_angle_beta 90.001300
_cell_angle_gamma 89.891100
loop_
  _atom_site_label
  _atom_site_type_symbol
  _atom_site_fract_x
  _atom_site_fract_y
  _atom_site_fract_z
Zn1 Zn 0.79293 0.70855 0.79374
 Zn2 Zn 0.79224 0.79192 0.70736
 Zn3 Zn 0.70796 0.70667 0.70910
 Zn4 Zn 0.70760 0.79288 0.79233
 O5 O 0.75018 0.75000 0.75061
 O6 O 0.86289 0.71995 0.78270
 O7 O 0.78009 0.78084 0.63749
 O8 O 0.71945 0.63686 0.72135
 O9 O 0.86256 0.78038 0.71736
 O10 O 0.78271 0.63807 0.78383
 O11 O 0.71884 0.71647 0.63870
 O12 O 0.63763 0.78292 0.78013
 O13 O 0.78193 0.86221 0.71821
 O14 O 0.63765 0.71768 0.71980
 O15 O 0.71945 0.86288 0.78148
 O16 O 0.71715 0.78156 0.86272
 O17 O 0.78166 0.72024 0.86364
 C18 C 0.88745 0.75012 0.74992
 C19 C 0.74926 0.74844 0.61337
 C20 C 0.75128 0.61274 0.75294
 C21 C 0.61292 0.75065 0.74965
 C22 C 0.75096 0.88727 0.74987
 C23 C 0.74902 0.75081 0.88791
 Zn24 Zn 0.20820 0.70842 0.70740
 Zn25 Zn 0.20741 0.79275 0.79246
 Zn26 Zn 0.29333 0.70892 0.79196
 Zn27 Zn 0.29188 0.79421 0.70740
 O28 O 0.25022 0.75107 0.74980
 O29 O 0.13782 0.71977 0.71733
 O30 O 0.21860 0.78142 0.86242
 O31 O 0.28223 0.63868 0.78178
 O32 O 0.13750 0.78109 0.78164
 O33 O 0.21895 0.63838 0.71930
 O34 O 0.28343 0.72043 0.86228
 O35 O 0.36225 0.78412 0.71832
 O36 O 0.21739 0.86318 0.78184
 O37 O 0.36323 0.71972 0.77976
 O38 O 0.27987 0.86409 0.71858
 O39 O 0.28111 0.78318 0.63716
 O40 O 0.22024 0.71846 0.63737
 C41 C 0.11293 0.75042 0.74944
 C42 C 0.25113 0.75097 0.88708
 C43 C 0.25050 0.61381 0.75083
 C44 C 0.38746 0.75203 0.74883
 C45 C 0.24834 0.88837 0.75028
 C46 C 0.25099 0.75047 0.61254
 Zn47 Zn 0.70647 0.20757 0.79233
 Zn48 Zn 0.79088 0.20766 0.70713
 Zn49 Zn 0.70676 0.29337 0.70840
 Zn50 Zn 0.79199 0.29143 0.79279
 O51 O 0.74902 0.25001 0.75015
 O52 O 0.71813 0.13746 0.78189
 O53 O 0.77849 0.21839 0.63723
 O54 O 0.63648 0.28264 0.71922
 O55 O 0.78063 0.13747 0.71863
 O56 O 0.63646 0.21788 0.78027
 O57 O 0.71759 0.28330 0.63803
 O58 O 0.78147 0.36191 0.78276
 O59 O 0.86121 0.21914 0.71656
 O60 O 0.71820 0.36318 0.72028
 O61 O 0.86194 0.28007 0.78125
 O62 O 0.78129 0.27969 0.86277
 O63 O 0.71648 0.21893 0.86264
 C64 C 0.74962 0.11273 0.75048
 C65 C 0.74782 0.25096 0.61291
 C66 C 0.61174 0.25001 0.74944
 C67 C 0.74997 0.38728 0.75180
 C68 C 0.88630 0.24976 0.74845
 C69 C 0.74883 0.24929 0.88744
 Zn70 Zn 0.29064 0.20752 0.70729
 Zn71 Zn 0.20608 0.20986 0.79243
 Zn72 Zn 0.29220 0.29319 0.79113
 Zn73 Zn 0.20715 0.29374 0.70664
 O74 O 0.24903 0.25106 0.74937
 O75 O 0.27852 0.13777 0.71904
 O76 O 0.21748 0.22130 0.86238
 O77 O 0.36206 0.28219 0.77881
 O78 O 0.21603 0.13934 0.78231
 O79 O 0.36105 0.21730 0.71810
 O80 O 0.28267 0.28167 0.86146
 O81 O 0.21768 0.36380 0.71826
 O82 O 0.13611 0.22164 0.78128
 O83 O 0.28094 0.36344 0.78076
 O84 O 0.13682 0.28242 0.71627
 O85 O 0.21936 0.28351 0.63671
 O86 O 0.27989 0.21824 0.63694
 C87 C 0.24696 0.11384 0.75094
 C88 C 0.25052 0.25133 0.88664
 C89 C 0.38628 0.24953 0.74824
 C90 C 0.24916 0.38835 0.74972
 C91 C 0.11174 0.25194 0.74839
 C92 C 0.24993 0.25113 0.61210
 Zn93 Zn 0.70780 0.70681 0.20887
 Zn94 Zn 0.79392 0.79014 0.20757
 Zn95 Zn 0.70935 0.79248 0.29271
 Zn96 Zn 0.79285 0.70626 0.29336
 O97 O 0.75097 0.74894 0.25063
 O98 O 0.71733 0.71833 0.13854
 O99 O 0.78396 0.86067 0.21769
 O100 O 0.63895 0.78270 0.28190
 O101 O 0.78252 0.77870 0.13762
 O102 O 0.63794 0.71781 0.22119
 O103 O 0.72147 0.86223 0.28096
 O104 O 0.78064 0.71649 0.36329
 O105 O 0.86389 0.77836 0.21872
 O106 O 0.72011 0.78176 0.36306
 O107 O 0.86317 0.71759 0.28373
 O108 O 0.78231 0.63620 0.28174
 O109 O 0.71906 0.63656 0.21924
 C110 C 0.74948 0.74867 0.11336
 C111 C 0.75304 0.88617 0.24906
 C112 C 0.61372 0.75047 0.25176
 C113 C 0.75007 0.74887 0.38790
 C114 C 0.88826 0.74806 0.25161
 C115 C 0.75084 0.61165 0.25028
 Zn116 Zn 0.29353 0.79243 0.20767
 Zn117 Zn 0.20801 0.70857 0.20721
 Zn118 Zn 0.29323 0.70663 0.29160
 Zn119 Zn 0.20912 0.79234 0.29287
 O120 O 0.25098 0.74999 0.24985
 O121 O 0.28352 0.78108 0.13736
 O122 O 0.21853 0.63809 0.21724
 O123 O 0.36352 0.71736 0.28078
 O124 O 0.21871 0.72031 0.13723
 O125 O 0.36353 0.78212 0.21973
 O126 O 0.28180 0.63682 0.27972
 O127 O 0.22150 0.78161 0.36277
 O128 O 0.13806 0.71993 0.21876
 O129 O 0.28241 0.71670 0.36197
 O130 O 0.13879 0.78086 0.28344
 O131 O 0.21937 0.86253 0.28137
 O132 O 0.28187 0.86254 0.21811
 C133 C 0.25117 0.75071 0.11256
 C134 C 0.25003 0.61272 0.24821
 C135 C 0.38825 0.74999 0.25056
 C136 C 0.25218 0.74904 0.38709
 C137 C 0.11370 0.75024 0.25155
 C138 C 0.25038 0.88727 0.24952
 Zn139 Zn 0.70667 0.29108 0.20804
 Zn140 Zn 0.79259 0.20725 0.20754
 Zn141 Zn 0.79180 0.29157 0.29260
 Zn142 Zn 0.70812 0.20579 0.29260
 O143 O 0.74977 0.24893 0.25020
 O144 O 0.71657 0.27957 0.13772
 O145 O 0.86250 0.21891 0.21836
 O146 O 0.78105 0.36162 0.28070
 O147 O 0.78140 0.21858 0.13758
 O148 O 0.71777 0.36132 0.21822
 O149 O 0.86218 0.28023 0.28267
 O150 O 0.71889 0.21682 0.36284
 O151 O 0.78260 0.13682 0.21816
 O152 O 0.77976 0.28154 0.36263
 O153 O 0.72013 0.13591 0.28142
 O154 O 0.63775 0.21588 0.28168
 O155 O 0.63677 0.28028 0.22024
 C156 C 0.74887 0.24903 0.11292
 C157 C 0.88707 0.24958 0.25056
 C158 C 0.74950 0.38619 0.24917
 C159 C 0.74901 0.24953 0.38746
 C160 C 0.75166 0.11163 0.24972
 C161 C 0.61254 0.24796 0.25117
 Zn162 Zn 0.20707 0.29145 0.20626
 Zn163 Zn 0.29240 0.20712 0.20767
 Zn164 Zn 0.29204 0.29333 0.29090
 Zn165 Zn 0.20776 0.20808 0.29264
 O166 O 0.24982 0.25000 0.24939
 O167 O 0.21834 0.27976 0.13636
 O168 O 0.36236 0.21708 0.21987
 O169 O 0.28055 0.36314 0.27865
 O170 O 0.28285 0.21844 0.13728
 O171 O 0.21729 0.36193 0.21617
 O172 O 0.36235 0.28232 0.28020
 O173 O 0.21991 0.21916 0.36251
 O174 O 0.28055 0.13712 0.21851
 O175 O 0.28115 0.28353 0.36130
 O176 O 0.21807 0.13779 0.28179
 O177 O 0.13744 0.21962 0.28264
 O178 O 0.13711 0.28005 0.21730
 C179 C 0.25098 0.24919 0.11209
 C180 C 0.38708 0.24935 0.25035
 C181 C 0.24872 0.38726 0.24707
 C182 C 0.25074 0.25156 0.38663
 C183 C 0.24904 0.11273 0.25013
 C184 C 0.11255 0.24988 0.25008
 C185 C 0.01828 0.69941 0.74988
 C186 C -0.01745 0.72488 0.79384
 C187 C -0.05268 0.75011 0.74979
 C188 C -0.01772 0.72463 0.70580
 C189 C -0.01790 0.80100 0.74948
 C190 C 0.01804 0.77582 0.79351
 C191 C 0.05306 0.75031 0.74952
 C192 C 0.01789 0.77550 0.70547
 H193 H 0.03377 0.65761 0.75003
 H194 H -0.03244 0.70405 0.83028
 H195 H -0.03309 0.70356 0.66972
 H196 H -0.03338 0.84281 0.74932
 H197 H 0.03320 0.79689 0.82967
 H198 H 0.03307 0.79633 0.66912
 C199 C 0.73697 0.01822 0.70139
 C200 C 0.78655 -0.01720 0.71393
 C201 C 0.75120 -0.05287 0.74983
 C202 C 0.70165 -0.01821 0.73727
 C203 C 0.76427 -0.01823 0.79912
 C204 C 0.79959 0.01823 0.76324
 C205 C 0.75002 0.05287 0.75067
 C206 C 0.71469 0.01718 0.78657
 H207 H 0.72569 0.03385 0.66119
 H208 H 0.81615 -0.03182 0.68401
 H209 H 0.66136 -0.03382 0.72654
 H210 H 0.77553 -0.03386 0.83932
 H211 H 0.83987 0.03387 0.77396
 H212 H 0.68508 0.03178 0.81649
 C213 C 0.74888 0.80040 0.01907
 C214 C 0.79263 0.77497 -0.01707
 C215 C 0.74832 0.75049 -0.05223
 C216 C 0.70457 0.77592 -0.01686
 C217 C 0.74794 0.69922 -0.01780
 C218 C 0.79229 0.72374 0.01813
 C219 C 0.74857 0.74912 0.05350
 C220 C 0.70423 0.72460 0.01833
 H221 H 0.74928 0.84203 0.03486
 H222 H 0.82897 0.79573 -0.03226
 H223 H 0.66844 0.79741 -0.03176
 H224 H 0.74756 0.65758 -0.03359
 H225 H 0.82835 0.70224 0.03314
 H226 H 0.66783 0.70385 0.03340
 C227 C 0.48207 0.75319 0.79951
 C228 C 0.51770 0.70828 0.77539
 C229 C 0.55305 0.75141 0.74908
 C230 C 0.51816 0.79631 0.77320
 C231 C 0.51834 0.75051 0.69808
 C232 C 0.48217 0.70734 0.72444
 C233 C 0.44732 0.75222 0.74853
 C234 C 0.48268 0.79538 0.72217
 H235 H 0.46655 0.75431 0.84125
 H236 H 0.53273 0.67246 0.79730
 H237 H 0.53343 0.83297 0.79329
 H238 H 0.53388 0.74937 0.65635
 H239 H 0.46672 0.67076 0.70435
 H240 H 0.46778 0.83126 0.70027
 C241 C 0.23344 0.01934 0.70213
 C242 C 0.28303 -0.01603 0.71466
 C243 C 0.24771 -0.05176 0.75054
 C244 C 0.19813 -0.01714 0.73799
 C245 C 0.26075 -0.01714 0.79984
 C246 C 0.29605 0.01932 0.76397
 C247 C 0.24650 0.05398 0.75141
 C248 C 0.21116 0.01831 0.78731
 H249 H 0.22217 0.03497 0.66193
 H250 H 0.31265 -0.03057 0.68472
 H251 H 0.15785 -0.03278 0.72726
 H252 H 0.27203 -0.03278 0.84003
 H253 H 0.33634 0.03494 0.77470
 H254 H 0.18156 0.03294 0.81723
 C255 C 0.25121 0.80168 0.01773
 C256 C 0.29524 0.77618 -0.01807
 C257 C 0.25119 0.75097 -0.05305
 C258 C 0.20719 0.77648 -0.01802
 C259 C 0.25110 0.70008 -0.01808
 C260 C 0.29517 0.72531 0.01772
 C261 C 0.25117 0.75079 0.05269
 C262 C 0.20713 0.72555 0.01765
 H263 H 0.25126 0.84349 0.03307
 H264 H 0.33148 0.79701 -0.03341
 H265 H 0.17092 0.79753 -0.03318
 H266 H 0.25107 0.65827 -0.03342
 H267 H 0.33136 0.70426 0.03308
 H268 H 0.17080 0.70471 0.03279
 C269 C 0.01763 0.20031 0.74762
 C270 C -0.01849 0.22525 0.79164
 C271 C -0.05385 0.25019 0.74760
 C272 C -0.01849 0.22525 0.70358
 C273 C -0.01960 0.30148 0.74752
 C274 C 0.01653 0.27649 0.79160
 C275 C 0.05188 0.25159 0.74761
 C276 C 0.01652 0.27657 0.70353
 H277 H 0.03357 0.15867 0.74768
 H278 H -0.03352 0.20410 0.82787
 H279 H -0.03339 0.20414 0.66734
 H280 H -0.03555 0.34311 0.74748
 H281 H 0.03155 0.29761 0.82778
 H282 H 0.03143 0.29772 0.66725
 C283 C 0.79981 0.48164 0.73929
 C284 C 0.76405 0.51830 0.70394
 C285 C 0.75159 0.55288 0.75346
 C286 C 0.78738 0.51701 0.78885
 C287 C 0.70220 0.51837 0.76654
 C288 C 0.71464 0.48308 0.71700
 C289 C 0.75040 0.44715 0.75236
 C290 C 0.73795 0.48170 0.80191
 H291 H 0.83996 0.46588 0.72804
 H292 H 0.77483 0.53397 0.66364
 H293 H 0.81733 0.53148 0.81843
 H294 H 0.66204 0.53411 0.77779
 H295 H 0.68466 0.46870 0.68739
 H296 H 0.72716 0.46600 0.84219
 C297 C 0.74891 0.29992 0.01808
 C298 C 0.79287 0.27445 -0.01765
 C299 C 0.74883 0.24921 -0.05269
 C300 C 0.70483 0.27469 -0.01772
 C301 C 0.74878 0.19832 -0.01773
 C302 C 0.79280 0.22352 0.01802
 C303 C 0.74881 0.24903 0.05305
 C304 C 0.70476 0.22383 0.01807
 H305 H 0.74895 0.34173 0.03342
 H306 H 0.82920 0.29527 -0.03279
 H307 H 0.66865 0.29576 -0.03308
 H308 H 0.74872 0.15651 -0.03307
 H309 H 0.82907 0.20245 0.03318
 H310 H 0.66851 0.20300 0.03341
 C311 C 0.48078 0.24841 0.79909
 C312 C 0.51691 0.20492 0.77335
 C313 C 0.55188 0.24947 0.74882
 C314 C 0.51648 0.29296 0.77455
 C315 C 0.51728 0.25008 0.69772
 C316 C 0.48155 0.20556 0.72223
 C317 C 0.44614 0.24908 0.74801
 C318 C 0.48107 0.29362 0.72350
 H319 H 0.46516 0.24770 0.84080
 H320 H 0.53214 0.16837 0.79390
 H321 H 0.53146 0.32890 0.79609
 H322 H 0.53292 0.25080 0.65601
 H323 H 0.46669 0.16956 0.70070
 H324 H 0.46567 0.33009 0.70296
 C325 C 0.29856 0.48271 0.73698
 C326 C 0.26281 0.51936 0.70162
 C327 C 0.25035 0.55394 0.75114
 C328 C 0.28613 0.51806 0.78653
 C329 C 0.20095 0.51946 0.76422
 C330 C 0.21339 0.48412 0.71468
 C331 C 0.24915 0.44822 0.75006
 C332 C 0.23670 0.48278 0.79959
 H333 H 0.33871 0.46696 0.72574
 H334 H 0.27360 0.53503 0.66132
 H335 H 0.31609 0.53250 0.81612
 H336 H 0.16080 0.53523 0.77546
 H337 H 0.18342 0.46971 0.68508
 H338 H 0.22591 0.46709 0.83988
 C339 C 0.25205 0.30078 0.01780
 C340 C 0.29577 0.27540 -0.01833
 C341 C 0.25143 0.25088 -0.05350
 C342 C 0.20771 0.27626 -0.01813
 C343 C 0.25113 0.19960 -0.01907
 C344 C 0.29543 0.22408 0.01686
 C345 C 0.25168 0.24951 0.05223
 C346 C 0.20737 0.22503 0.01707
 H347 H 0.25243 0.34242 0.03359
 H348 H 0.33217 0.29616 -0.03340
 H349 H 0.17164 0.29776 -0.03314
 H350 H 0.25073 0.15797 -0.03486
 H351 H 0.33156 0.20259 0.03176
 H352 H 0.17103 0.20426 0.03226
 C353 C 0.01960 0.69852 0.25249
 C354 C -0.01652 0.72343 0.29647
 C355 C -0.05188 0.74841 0.25239
 C356 C -0.01653 0.72350 0.20841
 C357 C -0.01763 0.79969 0.25237
 C358 C 0.01849 0.77476 0.29642
 C359 C 0.05385 0.74981 0.25240
 C360 C 0.01849 0.77474 0.20836
 H361 H 0.03554 0.65689 0.25253
 H362 H -0.03143 0.70229 0.33276
 H363 H -0.03155 0.70238 0.17222
 H364 H -0.03357 0.84133 0.25231
 H365 H 0.03339 0.79587 0.33266
 H366 H 0.03352 0.79589 0.17213
 C367 C 0.73925 0.01714 0.20016
 C368 C 0.78884 -0.01831 0.21269
 C369 C 0.75350 -0.05398 0.24859
 C370 C 0.70394 -0.01932 0.23603
 C371 C 0.76656 -0.01934 0.29788
 C372 C 0.80187 0.01714 0.26201
 C373 C 0.75229 0.05176 0.24946
 C374 C 0.71697 0.01603 0.28534
 H375 H 0.72797 0.03278 0.15997
 H376 H 0.81844 -0.03294 0.18277
 H377 H 0.66366 -0.03494 0.22530
 H378 H 0.77783 -0.03497 0.33807
 H379 H 0.84214 0.03278 0.27274
 H380 H 0.68735 0.03057 0.31528
 C381 C 0.77385 0.70365 0.48284
 C382 C 0.79996 0.74696 0.51876
 C383 C 0.74897 0.74800 0.55351
 C384 C 0.72281 0.70466 0.51831
 C385 C 0.72467 0.79270 0.51848
 C386 C 0.77563 0.79168 0.48296
 C387 C 0.74952 0.74836 0.44777
 C388 C 0.69851 0.74935 0.48249
 H389 H 0.79410 0.66695 0.46771
 H390 H 0.84171 0.74596 0.53429
 H391 H 0.70108 0.66882 0.53335
 H392 H 0.70441 0.82932 0.53379
 H393 H 0.79736 0.82747 0.46779
 H394 H 0.65677 0.75036 0.46694
 C395 C 0.48272 0.74992 0.30228
 C396 C 0.51893 0.70639 0.27650
 C397 C 0.55385 0.75092 0.25199
 C398 C 0.51845 0.79444 0.27776
 C399 C 0.51922 0.75159 0.20091
 C400 C 0.48352 0.70704 0.22546
 C401 C 0.44812 0.75053 0.25118
 C402 C 0.48308 0.79508 0.22664
 H403 H 0.46708 0.74921 0.34399
 H404 H 0.53433 0.66992 0.29705
 H405 H 0.53331 0.83045 0.29929
 H406 H 0.53484 0.75228 0.15920
 H407 H 0.46854 0.67109 0.20392
 H408 H 0.46786 0.83162 0.20609
 C409 C 0.23573 0.01823 0.20088
 C410 C 0.28531 -0.01718 0.21343
 C411 C 0.24998 -0.05287 0.24933
 C412 C 0.20041 -0.01823 0.23676
 C413 C 0.26303 -0.01822 0.29861
 C414 C 0.29835 0.01821 0.26273
 C415 C 0.24880 0.05287 0.25017
 C416 C 0.21345 0.01720 0.28607
 H417 H 0.22447 0.03386 0.16068
 H418 H 0.31492 -0.03178 0.18351
 H419 H 0.16013 -0.03387 0.22604
 H420 H 0.27430 -0.03384 0.33881
 H421 H 0.33863 0.03382 0.27346
 H422 H 0.18385 0.03182 0.31599
 C423 C 0.27840 0.70550 0.48253
 C424 C 0.30271 0.75020 0.51808
 C425 C 0.25162 0.74967 0.55268
 C426 C 0.22728 0.70494 0.51789
 C427 C 0.22569 0.79299 0.51712
 C428 C 0.27673 0.79355 0.48170
 C429 C 0.25242 0.74884 0.44695
 C430 C 0.20135 0.74825 0.48159
 H431 H 0.30010 0.66946 0.46780
 H432 H 0.34442 0.75104 0.53372
 H433 H 0.20691 0.66844 0.53325
 H434 H 0.20399 0.82897 0.53196
 H435 H 0.29711 0.82998 0.46617
 H436 H 0.15964 0.74743 0.46597
 C437 C 0.01789 0.19900 0.25051
 C438 C -0.01789 0.22449 0.29453
 C439 C -0.05306 0.24969 0.25048
 C440 C -0.01804 0.22419 0.20649
 C441 C -0.01828 0.30059 0.25013
 C442 C 0.01772 0.27537 0.29421
 C443 C 0.05268 0.24989 0.25021
 C444 C 0.01745 0.27512 0.20616
 H445 H 0.03338 0.15719 0.25067
 H446 H -0.03307 0.20366 0.33087
 H447 H -0.03320 0.20312 0.17032
 H448 H -0.03377 0.34239 0.24998
 H449 H 0.03309 0.29643 0.33028
 H450 H 0.03244 0.29596 0.16973
 C451 C 0.79905 0.48054 0.23577
 C452 C 0.76330 0.51722 0.20041
 C453 C 0.75084 0.55178 0.24994
 C454 C 0.78661 0.51588 0.28532
 C455 C 0.70144 0.51729 0.26302
 C456 C 0.71387 0.48194 0.21347
 C457 C 0.74964 0.44606 0.24886
 C458 C 0.73719 0.48064 0.29838
 H459 H 0.83920 0.46477 0.22453
 H460 H 0.77408 0.53291 0.16011
 H461 H 0.81658 0.53029 0.31491
 H462 H 0.66129 0.53304 0.27427
 H463 H 0.68391 0.46750 0.18388
 H464 H 0.72641 0.46497 0.33868
 C465 C 0.77431 0.20701 0.48288
 C466 C 0.79864 0.25175 0.51841
 C467 C 0.74757 0.25116 0.55305
 C468 C 0.72327 0.20645 0.51830
 C469 C 0.72159 0.29450 0.51747
 C470 C 0.77271 0.29506 0.48211
 C471 C 0.74838 0.25032 0.44732
 C472 C 0.69728 0.24979 0.48192
 H473 H 0.79602 0.17104 0.46804
 H474 H 0.84036 0.25258 0.53403
 H475 H 0.70290 0.17001 0.53383
 H476 H 0.69989 0.33053 0.53220
 H477 H 0.79308 0.33156 0.46675
 H478 H 0.65558 0.24895 0.46628
 C479 C 0.48166 0.24948 0.30192
 C480 C 0.51732 0.20462 0.27783
 C481 C 0.55268 0.24778 0.25147
 C482 C 0.51782 0.29265 0.27557
 C483 C 0.51793 0.24682 0.20049
 C484 C 0.48184 0.20369 0.22679
 C485 C 0.44694 0.24859 0.25092
 C486 C 0.48230 0.29172 0.22461
 H487 H 0.46612 0.25061 0.34365
 H488 H 0.53222 0.16873 0.29972
 H489 H 0.53328 0.32923 0.29566
 H490 H 0.53345 0.24571 0.15875
 H491 H 0.46657 0.16704 0.20670
 H492 H 0.46727 0.32755 0.20271
 C493 C 0.29780 0.48163 0.23346
 C494 C 0.26205 0.51830 0.19810
 C495 C 0.24960 0.55285 0.24764
 C496 C 0.28536 0.51692 0.28300
 C497 C 0.20019 0.51836 0.26071
 C498 C 0.21262 0.48299 0.21115
 C499 C 0.24841 0.44712 0.24654
 C500 C 0.23595 0.48170 0.29606
 H501 H 0.33796 0.46589 0.22221
 H502 H 0.27283 0.53400 0.15781
 H503 H 0.31534 0.53130 0.31261
 H504 H 0.16004 0.53412 0.27196
 H505 H 0.18267 0.46852 0.18157
 H506 H 0.22517 0.46603 0.33636
 C507 C 0.27533 0.20730 0.48152
 C508 C 0.30149 0.25066 0.51751
 C509 C 0.25048 0.25164 0.55223
 C510 C 0.22438 0.20832 0.51704
 C511 C 0.22615 0.29635 0.51716
 C512 C 0.27718 0.29534 0.48169
 C513 C 0.25103 0.25200 0.44649
 C514 C 0.20004 0.25303 0.48124
 H515 H 0.29560 0.17068 0.46621
 H516 H 0.34323 0.24965 0.53306
 H517 H 0.20264 0.17253 0.53221
 H518 H 0.20588 0.33304 0.53229
 H519 H 0.29891 0.33119 0.46665
 H520 H 0.15829 0.25403 0.46571
   
