data_POSCAR
  _audit_creation_date              2014-09-24
  _audit_creation_method            'ToBaCCo'
  _symmetry_space_group_name_H-M    'P1'
  _symmetry_Int_Tables_number       1
  _symmetry_cell_setting            triclinic
  loop_
  _symmetry_equiv_pos_as_xyz
 x,y,z
_cell_length_a 27.0144
_cell_length_b 27.0900
_cell_length_c 27.0555
_cell_angle_alpha 83.481900
_cell_angle_beta 96.547100
_cell_angle_gamma 95.268700
loop_
  _atom_site_label
  _atom_site_type_symbol
  _atom_site_fract_x
  _atom_site_fract_y
  _atom_site_fract_z
C1 C 0.60825 0.54819 -0.00251
 C2 C 0.59694 0.59710 0.00001
 C3 C 0.54791 0.60843 0.00255
 C4 C 0.50869 0.56997 0.00262
 C5 C 0.51968 0.52012 0.00004
 C6 C 0.56965 0.50912 -0.00256
 C7 C 0.57960 0.45941 -0.00512
 C8 C 0.54132 0.42132 -0.00516
 C9 C 0.49160 0.43138 -0.00262
 C10 C 0.48061 0.48119 0.00005
 C11 C 0.45887 0.57993 0.00519
 C12 C 0.42064 0.54180 0.00526
 C13 C 0.43064 0.49212 0.00272
 C14 C 0.39209 0.45297 0.00275
 C15 C 0.40348 0.40411 0.00006
 C16 C 0.45249 0.39295 -0.00264
 H17 H 0.61721 0.44954 -0.00714
 H18 H 0.55111 0.38379 -0.00721
 H19 H 0.44901 0.61745 0.00720
 H20 H 0.38303 0.55163 0.00732
 H21 H 0.62681 0.62687 0.00000
 H22 H 0.37379 0.37421 0.00005
 C23 C -0.00245 0.60827 0.45043
 C24 C 0.00036 0.59736 0.40166
 C25 C 0.00296 0.54841 0.39108
 C26 C 0.00274 0.50896 0.43018
 C27 C -0.00008 0.51969 0.47989
 C28 C -0.00267 0.56956 0.49009
 C29 C -0.00539 0.57938 0.53961
 C30 C -0.00559 0.54095 0.57843
 C31 C -0.00310 0.49125 0.56918
 C32 C -0.00031 0.48050 0.51949
 C33 C 0.00522 0.45916 0.42103
 C34 C 0.00497 0.42075 0.45986
 C35 C 0.00224 0.43062 0.50935
 C36 C 0.00196 0.39195 0.54907
 C37 C -0.00078 0.40297 0.59782
 C38 C -0.00329 0.45193 0.60827
 H39 H -0.00740 0.61696 0.54881
 H40 H -0.00774 0.55058 0.61584
 H41 H 0.00740 0.44946 0.38364
 H42 H 0.00695 0.38315 0.45070
 H43 H 0.00050 0.62751 0.37154
 H44 H -0.00095 0.37300 0.62807
 C45 C 0.54888 0.00279 0.60886
 C46 C 0.59800 0.00027 0.59836
 C47 C 0.60904 -0.00245 0.54957
 C48 C 0.57017 -0.00270 0.50981
 C49 C 0.52014 -0.00015 0.52000
 C50 C 0.50936 0.00261 0.56971
 C51 C 0.45942 0.00509 0.57885
 C52 C 0.42090 0.00489 0.54001
 C53 C 0.43078 0.00219 0.49052
 C54 C 0.48080 -0.00038 0.48039
 C55 C 0.57991 -0.00540 0.46019
 C56 C 0.54133 -0.00563 0.42141
 C57 C 0.49152 -0.00316 0.43069
 C58 C 0.45206 -0.00337 0.39161
 C59 C 0.40298 -0.00080 0.40206
 C60 C 0.39197 0.00197 0.45081
 H61 H 0.44969 0.00723 0.61624
 H62 H 0.38320 0.00688 0.54917
 H63 H 0.61757 -0.00739 0.45090
 H64 H 0.55094 -0.00778 0.38398
 H65 H 0.62812 0.00043 0.62865
 H66 H 0.37290 -0.00096 0.37181
 O67 O 0.46681 -0.00283 -0.07678
 O68 O 0.45263 -0.01249 0.05781
 O69 O 0.45286 0.05978 -0.01405
 O70 O 0.46653 -0.07511 -0.00489
 O71 O 0.54809 -0.06086 0.01178
 O72 O 0.53442 0.07402 0.00263
 O73 O 0.53420 0.00176 0.07446
 O74 O 0.54837 0.01143 -0.06011
 Cu75 Cu 0.45154 -0.00907 -0.01114
 Cu76 Cu 0.54944 0.00800 0.00883
 C77 C 0.51010 0.00563 -0.09148
 C78 C 0.49092 -0.00669 0.08917
 C79 C 0.49121 0.08999 -0.00693
 C80 C 0.50972 -0.09107 0.00472
 O81 O -0.06018 0.54797 0.98818
 O82 O 0.07506 0.53424 0.99736
 O83 O 0.00256 0.53402 0.92550
 O84 O 0.01230 0.54813 1.06010
 O85 O -0.00205 0.46681 1.07670
 O86 O -0.01180 0.45270 0.94210
 O87 O 0.06072 0.45291 1.01396
 O88 O -0.07453 0.46665 1.00479
 Cu89 Cu 0.00886 0.54924 0.99115
 Cu90 Cu -0.00833 0.45162 1.01104
 C91 C -0.09051 0.50974 0.99520
 C92 C 0.09104 0.49115 1.00688
 C93 C -0.00597 0.49087 0.91076
 C94 C 0.00645 0.50996 1.09144
 O95 O -0.01369 -0.05850 0.45181
 O96 O -0.00530 0.07542 0.46677
 O97 O 0.05765 0.01260 0.45183
 O98 O -0.07664 0.00428 0.46691
 O99 O -0.05946 -0.01273 0.54841
 O100 O 0.07480 -0.00438 0.53334
 O101 O 0.01185 0.05844 0.54827
 O102 O 0.00348 -0.07551 0.53331
 Cu103 Cu -0.01122 0.01015 0.45115
 Cu104 Cu 0.00937 -0.01024 0.54902
 C105 C -0.00624 -0.08993 0.48993
 C106 C 0.00445 0.08987 0.51013
 C107 C 0.08921 0.00526 0.48995
 C108 C -0.09104 -0.00537 0.51031
 C109 C -0.24732 0.52730 0.99245
 C110 C -0.21379 0.56892 0.98293
 C111 C -0.16287 0.56317 0.98316
 C112 C -0.34284 0.53999 0.99540
 C113 C -0.17885 0.47386 1.00197
 C114 C -0.22980 0.47974 1.00172
 C115 C -0.29943 0.53373 0.99383
 C116 C -0.14474 0.51558 0.99299
 H117 H -0.22695 0.60592 0.97576
 H118 H -0.13766 0.59604 0.97613
 H119 H -0.16613 0.43674 1.00970
 H120 H -0.25543 0.44727 1.00919
 C121 C 0.24776 0.47363 1.00875
 C122 C 0.23023 0.52119 0.99971
 C123 C 0.17932 0.52705 0.99979
 C124 C 0.34320 0.46105 1.00514
 C125 C 0.16341 0.43773 1.01852
 C126 C 0.21430 0.43199 1.01842
 C127 C 0.29983 0.46724 1.00700
 C128 C 0.14526 0.48531 1.00888
 H129 H 0.25582 0.55368 0.99214
 H130 H 0.16658 0.56417 0.99221
 H131 H 0.13824 0.40485 1.02562
 H132 H 0.22747 0.39499 1.02542
 C133 C -0.00813 -0.24535 0.47113
 C134 C -0.01788 -0.21063 0.42956
 C135 C -0.01793 -0.16011 0.43572
 C136 C -0.00484 -0.34022 0.45836
 C137 C 0.00109 -0.17897 0.52528
 C138 C 0.00110 -0.22950 0.51901
 C139 C -0.00656 -0.29706 0.46443
 C140 C -0.00813 -0.14366 0.48364
 H141 H -0.02503 -0.22254 0.39233
 H142 H -0.02514 -0.13391 0.40291
 H143 H 0.00877 -0.16754 0.56264
 H144 H 0.00873 -0.25611 0.55142
 C145 C 0.00697 0.24541 0.52866
 C146 C -0.00231 0.22947 0.48083
 C147 C -0.00254 0.17890 0.47465
 C148 C 0.00415 0.34039 0.54122
 C149 C 0.01632 0.16013 0.56424
 C150 C 0.01652 0.21070 0.57030
 C151 C 0.00567 0.29717 0.53525
 C152 C 0.00649 0.14362 0.51636
 H153 H -0.00978 0.25607 0.44836
 H154 H -0.01024 0.16742 0.43731
 H155 H 0.02339 0.13396 0.59710
 H156 H 0.02370 0.22267 0.60750
 C157 C 0.52813 0.00832 -0.24747
 C158 C 0.48036 0.00040 -0.23135
 C159 C 0.47433 0.00022 -0.18066
 C160 C 0.54089 0.00508 -0.34247
 C161 C 0.56391 0.01643 -0.16217
 C162 C 0.56982 0.01660 -0.21284
 C163 C 0.53467 0.00680 -0.29929
 C164 C 0.51611 0.00791 -0.14544
 H165 H 0.44784 -0.00609 -0.25787
 H166 H 0.43704 -0.00647 -0.16902
 H167 H 0.59683 0.02245 -0.13606
 H168 H 0.60697 0.02271 -0.22493
 C169 C 0.47301 -0.00923 0.24517
 C170 C 0.43129 -0.01749 0.21058
 C171 C 0.43715 -0.01738 0.15990
 C172 C 0.46041 -0.00588 0.34018
 C173 C 0.52675 -0.00126 0.17832
 C174 C 0.52077 -0.00139 0.22901
 C175 C 0.46654 -0.00765 0.29700
 C176 C 0.48494 -0.00893 0.14313
 H177 H 0.39414 -0.02355 0.22270
 H178 H 0.40421 -0.02338 0.13382
 H179 H 0.56403 0.00538 0.16665
 H180 H 0.55332 0.00509 0.25551
 C181 C 0.52714 -0.24749 0.00752
 C182 C 0.47947 -0.22996 -0.00176
 C183 C 0.47364 -0.17914 -0.00203
 C184 C 0.53974 -0.34278 0.00462
 C185 C 0.56322 -0.16330 0.01679
 C186 C 0.56893 -0.21410 0.01705
 C187 C 0.53352 -0.29948 0.00617
 C188 C 0.51552 -0.14517 0.00694
 H189 H 0.44687 -0.25549 -0.00924
 H190 H 0.43643 -0.16641 -0.00977
 H191 H 0.59621 -0.13820 0.02383
 H192 H 0.60601 -0.22727 0.02422
 C193 C 0.47370 0.24628 -0.00878
 C194 C 0.43193 0.21292 -0.01853
 C195 C 0.43768 0.16217 -0.01863
 C196 C 0.46110 0.34145 -0.00518
 C197 C 0.52725 0.17800 0.00025
 C198 C 0.52139 0.22877 0.00033
 C199 C 0.46730 0.29820 -0.00704
 C200 C 0.48539 0.14406 -0.00892
 H201 H 0.39484 0.22607 -0.02559
 H202 H 0.40470 0.13709 -0.02580
 H203 H 0.56447 0.16528 0.00789
 H204 H 0.55397 0.25427 0.00797
 C205 C -0.24689 -0.00758 0.52922
 C206 C -0.23106 0.00161 0.48133
 C207 C -0.18039 0.00172 0.47502
 C208 C -0.34205 -0.00456 0.54206
 C209 C -0.16133 -0.01706 0.56459
 C210 C -0.21199 -0.01715 0.57078
 C211 C -0.29875 -0.00616 0.53596
 C212 C -0.14491 -0.00733 0.51665
 H213 H -0.25781 0.00910 0.44893
 H214 H -0.16898 0.00936 0.43764
 H215 H -0.13501 -0.02414 0.59739
 H216 H -0.22389 -0.02425 0.60802
 C217 C 0.24511 0.00738 0.47127
 C218 C 0.21026 0.01690 0.42966
 C219 C 0.15958 0.01685 0.43576
 C220 C 0.34029 0.00428 0.45865
 C221 C 0.17852 -0.00180 0.52536
 C222 C 0.22920 -0.00172 0.51913
 C223 C 0.29698 0.00592 0.46464
 C224 C 0.14310 0.00720 0.48367
 H225 H 0.22221 0.02395 0.39243
 H226 H 0.13329 0.02389 0.40292
 H227 H 0.16706 -0.00938 0.56272
 H228 H 0.25591 -0.00918 0.55159
 C229 C 0.00887 0.52786 1.24743
 C230 C 0.01723 0.56945 1.21286
 C231 C 0.01717 0.56358 1.16219
 C232 C 0.00537 0.54051 1.34241
 C233 C 0.00092 0.47425 1.18057
 C234 C 0.00100 0.48023 1.23125
 C235 C 0.00721 0.53435 1.29924
 C236 C 0.00868 0.51593 1.14540
 H237 H 0.02332 0.60649 1.22500
 H238 H 0.02324 0.59642 1.13613
 H239 H -0.00576 0.43708 1.16888
 H240 H -0.00556 0.44779 1.25772
 C241 C -0.00885 0.47296 0.75472
 C242 C -0.01714 0.43138 0.78932
 C243 C -0.01691 0.43725 0.84001
 C244 C -0.00570 0.46032 0.65970
 C245 C -0.00061 0.52657 0.82160
 C246 C -0.00085 0.52058 0.77090
 C247 C -0.00739 0.46647 0.70289
 C248 C -0.00831 0.48490 0.85679
 H249 H -0.02332 0.39434 0.77718
 H250 H -0.02294 0.40441 0.86608
 H251 H 0.00615 0.56374 0.83329
 H252 H 0.00565 0.55302 0.74441
   
