data_POSCAR
  _audit_creation_date              2014-09-24
  _audit_creation_method            'ToBaCCo'
  _symmetry_space_group_name_H-M    'P1'
  _symmetry_Int_Tables_number       1
  _symmetry_cell_setting            triclinic
  loop_
  _symmetry_equiv_pos_as_xyz
 x,y,z
_cell_length_a 18.0710
_cell_length_b 18.0655
_cell_length_c 18.1223
_cell_angle_alpha 94.513000
_cell_angle_beta 87.614800
_cell_angle_gamma 90.084300
loop_
  _atom_site_label
  _atom_site_type_symbol
  _atom_site_fract_x
  _atom_site_fract_y
  _atom_site_fract_z
C1 C 0.00866 0.51993 0.25153
 C2 C -0.00930 0.48159 0.74902
 C3 C 0.24841 -0.00116 0.48723
 C4 C 0.75105 0.00139 0.50827
 C5 C 0.50290 0.24890 0.98218
 C6 C 0.49824 0.74903 1.02198
 B7 B 1.00277 1.08018 0.04081
 B8 B 1.00180 1.06897 -0.05209
 B9 B 1.07680 1.04346 -0.00819
 B10 B 1.04717 1.00700 0.07061
 B11 B 0.95427 1.01014 0.07538
 B12 B 0.92604 1.04796 -0.00083
 B13 B 0.99774 0.91839 -0.04565
 B14 B 0.99845 0.92999 0.04719
 B15 B 0.92333 0.95539 0.00355
 B16 B 0.95310 0.99152 -0.07556
 B17 B 1.04612 0.98878 -0.08027
 B18 B 1.07444 0.95089 -0.00418
 B19 B 0.57676 0.50439 0.45733
 B20 B 0.57190 0.50204 0.54980
 B21 B 0.54241 0.57782 0.51087
 B22 B 0.50134 0.54880 0.43204
 B23 B 0.50470 0.45574 0.42248
 B24 B 0.54824 0.42650 0.49520
 B25 B 0.42082 0.49689 0.54735
 B26 B 0.42607 0.49903 0.45480
 B27 B 0.45538 0.42339 0.49393
 B28 B 0.49667 0.45234 0.57260
 B29 B 0.49289 0.54544 0.58226
 B30 B 0.44957 0.57468 0.50927
 C31 C 1.01438 1.29695 0.13836
 C32 C 0.98387 1.31005 0.20974
 C33 C 0.98300 1.38131 0.24414
 C34 C 1.01036 1.44291 0.20739
 C35 C 1.04586 1.42814 0.13691
 C36 C 1.04645 1.35570 0.10197
 C37 C 1.01187 1.22245 0.10441
 C38 C 1.00758 1.15938 0.07812
 H39 H 0.96060 1.26490 0.23919
 H40 H 0.96005 1.38812 0.30038
 H41 H 1.07378 1.47180 0.10921
 H42 H 1.07226 1.34546 0.04708
 C43 C 0.99955 0.72990 0.14775
 C44 C 0.98354 0.66393 0.10523
 C45 C 0.98681 0.59520 0.13628
 C46 C 1.00816 0.59157 0.20994
 C47 C 1.02135 0.65940 0.25210
 C48 C 1.01805 0.72727 0.22121
 C49 C 0.99750 0.80071 0.11677
 C50 C 0.99722 0.85951 0.08975
 H51 H 0.96768 0.66572 0.04841
 H52 H 0.97047 0.54602 0.10320
 H53 H 1.03419 0.65974 0.30998
 H54 H 1.02957 0.77787 0.25496
 C55 C 0.99209 1.27508 -0.14100
 C56 C 0.92534 1.30014 -0.16649
 C57 C 0.92163 1.36962 -0.19533
 C58 C 0.98596 1.41359 -0.20317
 C59 C 1.04904 1.39258 -0.16594
 C60 C 1.05277 1.32312 -0.13708
 C61 C 0.99753 1.20118 -0.11676
 C62 C 1.00100 1.14063 -0.09327
 H63 H 0.87639 1.26546 -0.16526
 H64 H 0.86853 1.38721 -0.21288
 H65 H 1.09792 1.42733 -0.16500
 H66 H 1.10371 1.30606 -0.11381
 C67 C 0.99945 0.69451 -0.12346
 C68 C 0.93612 0.65031 -0.11745
 C69 C 0.93656 0.57742 -0.15024
 C70 C 0.99868 0.55009 -0.19406
 C71 C 1.06569 0.59008 -0.18629
 C72 C 1.06545 0.66257 -0.15335
 C73 C 0.99693 0.77270 -0.10081
 C74 C 0.99628 0.83791 -0.08066
 H75 H 0.88551 0.67322 -0.09079
 H76 H 0.88572 0.54565 -0.14884
 H77 H 1.11781 0.56764 -0.20935
 H78 H 1.11615 0.69467 -0.15398
 C79 C 1.14363 1.00800 0.27561
 C80 C 1.21959 0.99814 0.27933
 C81 C 1.25077 0.99378 0.34753
 C82 C 1.20682 0.99855 0.41438
 C83 C 1.12988 1.00897 0.41010
 C84 C 1.09855 1.01296 0.34084
 C85 C 1.11291 1.01129 0.20413
 C86 C 1.08712 1.01165 0.14401
 H87 H 1.25497 0.99399 0.22937
 H88 H 1.31026 0.98695 0.34856
 H89 H 1.09417 1.01569 0.45950
 H90 H 1.03939 1.02039 0.33814
 C91 C 1.13954 0.98441 -0.29464
 C92 C 1.11612 0.93835 -0.35515
 C93 C 1.14692 0.94627 -0.42666
 C94 C 1.20132 1.00079 -0.43891
 C95 C 1.22372 1.04601 -0.37598
 C96 C 1.19251 1.03858 -0.30574
 C97 C 1.10975 0.97885 -0.22047
 C98 C 1.08482 0.98018 -0.15770
 H99 H 1.07528 0.89553 -0.34691
 H100 H 1.13068 0.90775 -0.47188
 H101 H 1.26851 1.08546 -0.37897
 H102 H 1.21151 1.07414 -0.25934
 C103 C 0.85952 1.01551 0.28967
 C104 C 0.88475 1.05980 0.35058
 C105 C 0.85372 1.05217 0.42209
 C106 C 0.79733 0.99957 0.43395
 C107 C 0.77260 0.95662 0.37061
 C108 C 0.80403 0.96370 0.30034
 C109 C 0.89003 1.02048 0.21558
 C110 C 0.91543 1.01892 0.15291
 H111 H 0.92735 1.10102 0.34270
 H112 H 0.87166 1.08929 0.46766
 H113 H 0.72611 0.91913 0.37360
 H114 H 0.78344 0.92966 0.25365
 C115 C 0.85666 0.99010 -0.28071
 C116 C 0.90126 0.98329 -0.34626
 C117 C 0.86971 0.98791 -0.41538
 C118 C 0.79310 1.00074 -0.41919
 C119 C 0.74963 1.00705 -0.35203
 C120 C 0.78100 1.00218 -0.28401
 C121 C 0.88753 0.98673 -0.20926
 C122 C 0.91327 0.98653 -0.14908
 H123 H 0.96019 0.97399 -0.34393
 H124 H 0.90492 0.97978 -0.46502
 H125 H 0.69034 1.01558 -0.35264
 H126 H 0.74597 1.00773 -0.23383
 C127 C 1.28592 1.14039 -0.01218
 C128 C 1.29655 1.20852 0.02688
 C129 C 1.36648 1.24072 0.02733
 C130 C 1.42948 1.20421 -0.00822
 C131 C 1.41717 1.13380 -0.04590
 C132 C 1.34600 1.10348 -0.04937
 C133 C 1.21301 1.10911 -0.01380
 C134 C 1.15210 1.08235 -0.01275
 H135 H 1.25011 1.23822 0.05507
 H136 H 1.36925 1.29586 0.05405
 H137 H 1.46073 1.10465 -0.07887
 H138 H 1.33746 1.05265 -0.08352
 C139 C 0.71959 1.14273 -0.02352
 C140 C 0.71182 1.21374 -0.04646
 C141 C 0.64157 1.24417 -0.05042
 C142 C 0.57642 1.20432 -0.03211
 C143 C 0.58591 1.13090 -0.01186
 C144 C 0.65674 1.10046 -0.00860
 C145 C 0.79209 1.11470 -0.01213
 C146 C 0.85233 1.08917 -0.00409
 H147 H 0.76022 1.24706 -0.05819
 H148 H 0.63944 1.30138 -0.06294
 H149 H 0.54029 1.09920 0.00943
 H150 H 0.66259 1.04523 0.00926
 C151 C 1.28238 0.85344 0.00805
 C152 C 1.34639 0.89396 -0.00842
 C153 C 1.41696 0.86333 -0.00207
 C154 C 1.42428 0.79206 0.02321
 C155 C 1.35846 0.75221 0.03894
 C156 C 1.28880 0.78271 0.03215
 C157 C 1.20971 0.88364 0.00062
 C158 C 1.14890 0.90983 -0.00343
 H159 H 1.34167 0.94861 -0.02743
 H160 H 1.46489 0.89433 -0.01952
 H161 H 1.36093 0.69586 0.05509
 H162 H 1.23986 0.75048 0.04466
 C163 C 0.71480 0.85703 0.02638
 C164 C 0.65314 0.89561 0.05985
 C165 C 0.58247 0.86277 0.05913
 C166 C 0.57293 0.79100 0.02436
 C167 C 0.63744 0.75119 -0.00243
 C168 C 0.70673 0.78431 -0.00313
 C169 C 0.78672 0.89077 0.02005
 C170 C 0.84745 0.91742 0.01228
 H171 H 0.65967 0.95071 0.08671
 H172 H 0.53611 0.89303 0.08637
 H173 H 0.63414 0.69394 -0.02465
 H174 H 0.75416 0.75299 -0.02715
 C175 C 0.78889 0.52450 0.36107
 C176 C 0.79878 0.51037 0.28489
 C177 C 0.86926 0.51186 0.25191
 C178 C 0.93269 0.52593 0.29427
 C179 C 0.92156 0.54569 0.37077
 C180 C 0.84993 0.54372 0.40416
 C181 C 0.71559 0.51758 0.39343
 C182 C 0.65371 0.51079 0.41910
 H183 H 0.75197 0.49678 0.25084
 H184 H 0.87472 0.49919 0.19254
 H185 H 0.96722 0.56266 0.40477
 H186 H 0.84222 0.55668 0.46338
 C187 C 0.22130 0.50447 0.35636
 C188 C 0.15736 0.47767 0.39188
 C189 C 0.08800 0.48363 0.36044
 C190 C 0.08113 0.51921 0.29436
 C191 C 0.14739 0.54268 0.25844
 C192 C 0.21590 0.53661 0.28958
 C193 C 0.29299 0.49972 0.38741
 C194 C 0.35298 0.49819 0.41391
 H195 H 0.16129 0.45115 0.44317
 H196 H 0.04064 0.45851 0.38691
 H197 H 0.14679 0.56492 0.20474
 H198 H 0.26502 0.55625 0.26080
 C199 C 0.78268 0.49720 0.63625
 C200 C 0.82353 0.43101 0.62839
 C201 C 0.89364 0.42795 0.65847
 C202 C 0.92169 0.48967 0.70134
 C203 C 0.88526 0.55855 0.69699
 C204 C 0.81555 0.56176 0.66689
 C205 C 0.70783 0.49958 0.61184
 C206 C 0.64609 0.50157 0.58907
 H207 H 0.80043 0.38133 0.60091
 H208 H 0.92332 0.37565 0.65340
 H209 H 0.90904 0.61025 0.71874
 H210 H 0.78672 0.61449 0.66888
 C211 C 0.20098 0.48023 0.62485
 C212 C 0.15331 0.54110 0.62413
 C213 C 0.08138 0.53772 0.65553
 C214 C 0.05804 0.47503 0.69239
 C215 C 0.10152 0.40985 0.67911
 C216 C 0.17331 0.41314 0.64771
 C217 C 0.27825 0.48680 0.60350
 C218 C 0.34244 0.49196 0.58359
 H219 H 0.17286 0.59235 0.60291
 H220 H 0.04726 0.58717 0.65878
 H221 H 0.08246 0.35704 0.69664
 H222 H 0.20813 0.36409 0.64400
 C223 C 0.50720 0.64663 0.23130
 C224 C 0.53438 0.60668 0.16623
 C225 C 0.53079 0.63731 0.09755
 C226 C 0.49869 0.70786 0.09334
 C227 C 0.47578 0.74828 0.16064
 C228 C 0.47861 0.71755 0.22819
 C229 C 0.50707 0.61575 0.30183
 C230 C 0.50480 0.58961 0.36087
 H231 H 0.55894 0.55235 0.16871
 H232 H 0.55452 0.60663 0.04864
 H233 H 0.45543 0.80466 0.16118
 H234 H 0.45879 0.74953 0.27824
 C235 C 0.48539 0.64017 0.79949
 C236 C 0.46274 0.60037 0.86002
 C237 C 0.46758 0.63286 0.93279
 C238 C 0.49639 0.70515 0.94538
 C239 C 0.51530 0.74475 0.88276
 C240 C 0.51104 0.71237 0.81129
 C241 C 0.48453 0.60830 0.72453
 C242 C 0.48702 0.58311 0.66109
 H243 H 0.44074 0.54477 0.85097
 H244 H 0.44713 0.60227 0.97830
 H245 H 0.53366 0.80188 0.88919
 H246 H 0.52761 0.74407 0.76499
 C247 C 0.51387 0.36159 0.20490
 C248 C 0.53976 0.28961 0.18941
 C249 C 0.53781 0.25612 0.11795
 C250 C 0.51279 0.29436 0.05807
 C251 C 0.48582 0.36755 0.07545
 C252 C 0.48661 0.40070 0.14808
 C253 C 0.51134 0.39240 0.28034
 C254 C 0.50909 0.41764 0.34377
 H255 H 0.55904 0.25802 0.23333
 H256 H 0.55356 0.19850 0.11125
 H257 H 0.45784 0.39717 0.03525
 H258 H 0.46311 0.45560 0.16043
 C259 C 0.49414 0.35642 0.77378
 C260 C 0.46961 0.28433 0.77893
 C261 C 0.47125 0.25229 0.84587
 C262 C 0.49440 0.29204 0.91166
 C263 C 0.52082 0.36517 0.90449
 C264 C 0.52024 0.39700 0.83634
 C265 C 0.49516 0.38642 0.70294
 C266 C 0.49550 0.41186 0.64368
 H267 H 0.45134 0.25162 0.73031
 H268 H 0.45685 0.19467 0.84342
 H269 H 0.54734 0.39637 0.94922
 H270 H 0.54248 0.45225 0.83192
 C271 C 0.63872 0.78815 0.51808
 C272 C 0.59573 0.85323 0.52550
 C273 C 0.62960 0.92309 0.52235
 C274 C 0.70694 0.92810 0.51021
 C275 C 0.74877 0.86141 0.50400
 C276 C 0.71513 0.79269 0.50754
 C277 C 0.60581 0.71580 0.51897
 C278 C 0.57983 0.65436 0.51725
 H279 H 0.53626 0.84997 0.53381
 H280 H 0.59542 0.97232 0.53046
 H281 H 0.80846 0.86288 0.49585
 H282 H 0.74895 0.74288 0.50171
 C283 C 0.64700 0.21780 0.49374
 C284 C 0.62274 0.15592 0.44969
 C285 C 0.65235 0.08518 0.45746
 C286 C 0.70657 0.07501 0.50977
 C287 C 0.73093 0.13936 0.55213
 C288 C 0.70061 0.20895 0.54511
 C289 C 0.61667 0.29076 0.48883
 C290 C 0.59009 0.35194 0.48935
 H291 H 0.58199 0.16250 0.40854
 H292 H 0.63498 0.03888 0.42068
 H293 H 0.77607 0.13768 0.58924
 H294 H 0.72047 0.25646 0.57892
 C295 C 0.35250 0.78338 0.50607
 C296 C 0.37477 0.84550 0.55093
 C297 C 0.34555 0.91601 0.54155
 C298 C 0.29371 0.92577 0.48678
 C299 C 0.27200 0.86129 0.44292
 C300 C 0.30188 0.79189 0.45171
 C301 C 0.38190 0.71048 0.51320
 C302 C 0.40795 0.64926 0.51419
 H303 H 0.41349 0.83924 0.59405
 H304 H 0.36099 0.96242 0.57919
 H305 H 0.22892 0.86250 0.40346
 H306 H 0.28379 0.74417 0.41703
 C307 C 0.35966 0.21294 0.48228
 C308 C 0.28297 0.20773 0.48801
 C309 C 0.24961 0.13869 0.48926
 C310 C 0.29199 0.07241 0.48544
 C311 C 0.36966 0.07810 0.47759
 C312 C 0.40321 0.14828 0.47690
 C313 C 0.39223 0.28548 0.48389
 C314 C 0.41804 0.34696 0.48703
 H315 H 0.24874 0.25725 0.49221
 H316 H 0.18972 0.13668 0.49442
 H317 H 0.40446 0.02924 0.47155
 H318 H 0.46289 0.15213 0.47239
   
