data_POSCAR
  _audit_creation_date              2014-09-24
  _audit_creation_method            'ToBaCCo'
  _symmetry_space_group_name_H-M    'P1'
  _symmetry_Int_Tables_number       1
  _symmetry_cell_setting            triclinic
  loop_
  _symmetry_equiv_pos_as_xyz
 x,y,z
_cell_length_a 29.2775
_cell_length_b 29.0590
_cell_length_c 8.1568
_cell_angle_alpha 89.668000
_cell_angle_beta 90.111600
_cell_angle_gamma 90.104400
loop_
  _atom_site_label
  _atom_site_type_symbol
  _atom_site_fract_x
  _atom_site_fract_y
  _atom_site_fract_z
O1 O 0.21749 0.28979 0.04790
 O2 O 0.30318 0.20353 0.16275
 O3 O 0.21760 0.20115 0.07789
 O4 O 0.30263 0.29305 0.13813
 O5 O 0.28365 0.29770 0.39933
 O6 O 0.19847 0.20644 0.33860
 O7 O 0.28417 0.20863 0.42367
 O8 O 0.19832 0.29587 0.30850
 Cu9 Cu 0.26248 0.24630 0.08111
 Cu10 Cu 0.23895 0.25278 0.39321
 C11 C 0.19303 0.30747 0.15924
 C12 C 0.30839 0.19112 0.31100
 C13 C 0.19350 0.18797 0.19893
 C14 C 0.30765 0.31104 0.27860
 O15 O 0.80215 0.29664 0.32568
 O16 O 0.71671 0.21043 0.45170
 O17 O 0.80222 0.20739 0.36462
 O18 O 0.71678 0.29899 0.41304
 O19 O 0.69681 0.29145 0.15339
 O20 O 0.78225 0.19998 0.10492
 O21 O 0.69677 0.20216 0.19250
 O22 O 0.78208 0.28837 0.06643
 Cu23 Cu 0.76168 0.25421 0.41446
 Cu24 Cu 0.73721 0.24456 0.10373
 C25 C 0.80685 0.30713 0.17527
 C26 C 0.69188 0.19164 0.34291
 C27 C 0.80686 0.18812 0.22633
 C28 C 0.69236 0.31098 0.29127
 O29 O 0.78369 0.78796 0.95373
 O30 O 0.69797 0.70219 0.82852
 O31 O 0.78353 0.69944 0.91616
 O32 O 0.69802 0.79129 0.86890
 O33 O 0.71739 0.79948 0.60884
 O34 O 0.80288 0.70791 0.65640
 O35 O 0.71754 0.71132 0.56905
 O36 O 0.80295 0.79704 0.69393
 Cu37 Cu 0.73864 0.74424 0.91757
 Cu38 Cu 0.76240 0.75490 0.60645
 C39 C 0.80805 0.80712 0.84409
 C40 C 0.69295 0.69224 0.67810
 C41 C 0.80775 0.68782 0.79411
 C42 C 0.69314 0.81105 0.73073
 O43 O 0.19660 0.79585 0.66536
 O44 O 0.28245 0.70850 0.55936
 O45 O 0.19653 0.70617 0.64060
 O46 O 0.28243 0.79747 0.58248
 O47 O 0.29988 0.79270 0.84539
 O48 O 0.21402 0.70142 0.90329
 O49 O 0.29994 0.70326 0.82204
 O50 O 0.21422 0.79044 0.92792
 Cu51 Cu 0.23732 0.75262 0.58638
 Cu52 Cu 0.25911 0.74630 0.90019
 C53 C 0.19077 0.80825 0.81289
 C54 C 0.30602 0.69093 0.67464
 C55 C 0.19063 0.68801 0.78104
 C56 C 0.30579 0.81073 0.70485
 O57 O 1.04607 -0.05545 0.11619
 O58 O 0.95824 0.02997 0.22548
 O59 O 0.95703 -0.05585 0.13468
 O60 O 1.04676 0.02975 0.21418
 O61 O 1.04374 0.05193 -0.04496
 O62 O 0.95430 -0.03420 -0.12511
 O63 O 0.95474 0.05132 -0.03452
 O64 O 1.04238 -0.03306 -0.14261
 Cu65 Cu 1.00240 -0.01530 0.19847
 Cu66 Cu 0.99845 0.01145 -0.11245
 C67 C 1.05897 -0.05898 -0.03192
 C68 C 0.94159 0.05531 0.11283
 C69 C 0.94039 -0.05973 -0.00841
 C70 C 1.06041 0.05564 0.09828
 O71 O 0.54468 0.44977 0.54135
 O72 O 0.45645 0.53436 0.63967
 O73 O 0.45582 0.44972 0.53988
 O74 O 0.54480 0.53521 0.63336
 O75 O 0.54423 0.55741 0.37403
 O76 O 0.45544 0.47194 0.28052
 O77 O 0.45483 0.55692 0.38084
 O78 O 0.54378 0.47165 0.28162
 Cu79 Cu 0.50052 0.48986 0.61426
 Cu80 Cu 0.49950 0.51704 0.30347
 C81 C 0.55912 0.44591 0.39553
 C82 C 0.44060 0.56023 0.52745
 C83 C 0.44073 0.44595 0.39441
 C84 C 0.55978 0.56087 0.51884
 O85 O 0.04308 0.52970 -0.22588
 O86 O -0.04565 0.44385 -0.13006
 O87 O -0.04527 0.52976 -0.22273
 O88 O 0.04364 0.44389 -0.13291
 O89 O 0.04417 0.46399 0.12767
 O90 O -0.04472 0.54985 0.03790
 O91 O -0.04446 0.46400 0.13043
 O92 O 0.04431 0.54975 0.03477
 Cu93 Cu -0.00115 0.48440 -0.20347
 Cu94 Cu -0.00010 0.50917 0.10834
 C95 C 0.05866 0.55463 -0.11113
 C96 C -0.06029 0.43927 0.01557
 C97 C -0.05996 0.55473 -0.10701
 C98 C 0.05921 0.43933 0.01168
 O99 O 0.54657 1.03524 0.37676
 O100 O 0.45712 0.94925 0.46064
 O101 O 0.45836 1.03427 0.36204
 O102 O 0.54603 0.94968 0.47083
 O103 O 0.54311 0.97059 0.73046
 O104 O 0.45505 1.05624 0.62035
 O105 O 0.45461 0.97085 0.71956
 O106 O 0.54436 1.05656 0.63598
 Cu107 Cu 0.50233 0.98973 0.39205
 Cu108 Cu 0.49902 1.01600 0.70233
 C109 C 0.56078 1.06058 0.49261
 C110 C 0.44072 0.94522 0.60409
 C111 C 0.44181 1.05989 0.47237
 C112 C 0.55939 0.94534 0.61816
 C113 C 1.15963 0.15323 0.17621
 C114 C 1.17479 0.11331 0.06565
 C115 C 1.14177 0.08099 0.04084
 C116 C 1.09670 0.09118 0.12946
 C117 C 1.11026 0.09711 0.31058
 C118 C 1.14315 0.12948 0.33515
 C119 C 1.11598 0.17206 0.09558
 C120 C 1.08304 0.13967 0.07165
 H121 H 1.20868 0.11036 0.01288
 H122 H 1.14745 0.05058 -0.03304
 H123 H 1.09559 0.07750 0.41122
 H124 H 1.15643 0.13691 0.45656
 H125 H 1.11117 0.20793 0.06156
 H126 H 1.05014 0.14789 0.01734
 C127 C 0.65750 0.65729 0.63061
 C128 C 0.61000 0.66765 0.70119
 C129 C 0.57781 0.63558 0.66309
 C130 C 0.59583 0.59614 0.55692
 C131 C 0.61720 0.62009 0.40645
 C132 C 0.64948 0.65204 0.44500
 C133 C 0.66891 0.60853 0.69159
 C134 C 0.63673 0.57650 0.65262
 H135 H 0.60226 0.69784 0.77378
 H136 H 0.54258 0.63834 0.70316
 H137 H 0.60804 0.61256 0.28040
 H138 H 0.66746 0.67166 0.35160
 H139 H 0.69991 0.59985 0.75808
 H140 H 0.64025 0.54044 0.68581
 C141 C -0.15783 0.34234 0.12762
 C142 C -0.16920 0.39090 0.18868
 C143 C -0.13709 0.42310 0.14972
 C144 C -0.09629 0.40384 0.05390
 C145 C -0.07814 0.36405 0.16005
 C146 C -0.11024 0.33181 0.19811
 C147 C -0.15005 0.34822 -0.05796
 C148 C -0.11784 0.38034 -0.09653
 H149 H -0.20013 0.39932 0.25532
 H150 H -0.14058 0.45904 0.18306
 H151 H -0.04294 0.36129 0.20079
 H152 H -0.10240 0.30146 0.27105
 H153 H -0.16811 0.32888 -0.15134
 H154 H -0.10885 0.38827 -0.22261
 C155 C 0.34161 0.84735 0.68169
 C156 C 0.35924 0.86934 0.84123
 C157 C 0.39209 0.90189 0.81714
 C158 C 0.40447 0.90958 0.63563
 C159 C 0.41752 0.86162 0.57288
 C160 C 0.38458 0.82918 0.59640
 C161 C 0.32589 0.88830 0.57566
 C162 C 0.35884 0.92076 0.55114
 H163 H 0.34683 0.86045 0.96269
 H164 H 0.40764 0.92034 0.91829
 H165 H 0.45002 0.85377 0.51568
 H166 H 0.38894 0.79368 0.55917
 H167 H 0.29169 0.89167 0.52533
 H168 H 0.35280 0.95186 0.47991
 C169 C -0.15843 0.65297 -0.18554
 C170 C -0.17482 0.61107 -0.08515
 C171 C -0.14203 0.57858 -0.06055
 C172 C -0.09590 0.59053 -0.13943
 C173 C -0.10708 0.59952 -0.32133
 C174 C -0.13977 0.63217 -0.34563
 C175 C -0.11595 0.67060 -0.09444
 C176 C -0.08322 0.63804 -0.07092
 H177 H -0.20937 0.60698 -0.03896
 H178 H -0.14856 0.54689 0.00668
 H179 H -0.09090 0.58180 -0.42254
 H180 H -0.15139 0.64178 -0.46757
 H181 H -0.11168 0.70587 -0.05369
 H182 H -0.05104 0.64554 -0.01021
 C183 C 0.34400 1.15566 0.35311
 C184 C 0.32594 1.11514 0.45638
 C185 C 0.35848 1.08342 0.49574
 C186 C 0.40609 1.09492 0.42760
 C187 C 0.39872 1.10131 0.24197
 C188 C 0.36636 1.13298 0.20310
 C189 C 0.38412 1.17521 0.45252
 C190 C 0.41670 1.14350 0.49097
 H191 H 0.29061 1.11162 0.49466
 H192 H 0.35096 1.05277 0.56759
 H193 H 0.41732 1.08272 0.14838
 H194 H 0.35755 1.14085 0.07670
 H195 H 0.38672 1.21092 0.48941
 H196 H 0.44719 1.15222 0.56018
 C197 C 1.15550 -0.15587 -0.14795
 C198 C 1.13347 -0.13279 -0.29902
 C199 C 1.10151 -0.10068 -0.26150
 C200 C 1.09423 -0.09436 -0.07608
 C201 C 1.08299 -0.14286 -0.01150
 C202 C 1.11512 -0.17496 -0.04856
 C203 C 1.17407 -0.11567 -0.04565
 C204 C 1.14197 -0.08356 -0.00767
 H205 H 1.14218 -0.14076 -0.42498
 H206 H 1.08315 -0.08174 -0.35581
 H207 H 1.05236 -0.15124 0.05740
 H208 H 1.11201 -0.21068 -0.01078
 H209 H 1.20945 -0.11262 -0.00707
 H210 H 1.14991 -0.05306 0.06325
 C211 C 0.65692 0.34775 0.31331
 C212 C 0.67353 0.38873 0.41600
 C213 C 0.64100 0.42130 0.44124
 C214 C 0.59483 0.41024 0.36073
 C215 C 0.60607 0.40243 0.17868
 C216 C 0.63857 0.36967 0.15383
 C217 C 0.61433 0.32975 0.40250
 C218 C 0.58180 0.36233 0.42672
 H219 H 0.70806 0.39210 0.46336
 H220 H 0.64770 0.45245 0.51022
 H221 H 0.59004 0.42094 0.07800
 H222 H 0.65025 0.36057 0.03206
 H223 H 0.60989 0.29421 0.44128
 H224 H 0.54950 0.35459 0.48615
 C225 C 0.84324 -0.15751 -0.11032
 C226 C 0.83110 -0.10908 -0.17280
 C227 C 0.86306 -0.07658 -0.13681
 C228 C 0.90451 -0.09546 -0.04232
 C229 C 0.88395 -0.11912 0.11026
 C230 C 0.85184 -0.15157 0.07465
 C231 C 0.89058 -0.16761 -0.18265
 C232 C 0.92255 -0.13508 -0.14756
 H233 H 0.79973 -0.10094 -0.23796
 H234 H 0.85900 -0.04067 -0.17121
 H235 H 0.89350 -0.11102 0.23548
 H236 H 0.83438 -0.17107 0.16960
 H237 H 0.89841 -0.19800 -0.25407
 H238 H 0.95767 -0.13763 -0.18905
 C239 C 0.34309 0.34773 0.30466
 C240 C 0.36352 0.36867 0.14710
 C241 C 0.39593 0.40138 0.17522
 C242 C 0.40508 0.41017 0.35843
 C243 C 0.35812 0.42189 0.43043
 C244 C 0.32562 0.38932 0.40177
 C245 C 0.38443 0.33006 0.40224
 C246 C 0.41694 0.36260 0.42978
 H247 H 0.35332 0.35895 0.02404
 H248 H 0.41335 0.41914 0.07593
 H249 H 0.35092 0.45339 0.49639
 H250 H 0.29060 0.39302 0.44320
 H251 H 0.38804 0.29481 0.44472
 H252 H 0.44835 0.35508 0.49559
 C253 C 0.15682 0.65309 -0.19627
 C254 C 0.11488 0.67060 -0.10268
 C255 C 0.08228 0.63797 -0.07696
 C256 C 0.09451 0.59047 -0.14594
 C257 C 0.10462 0.59940 -0.32851
 C258 C 0.13717 0.63214 -0.35505
 C259 C 0.17376 0.61132 -0.09660
 C260 C 0.14110 0.57872 -0.06981
 H261 H 0.11090 0.70580 -0.06148
 H262 H 0.05050 0.64539 -0.01407
 H263 H 0.08782 0.58159 -0.42859
 H264 H 0.14801 0.64172 -0.47781
 H265 H 0.20855 0.60745 -0.05219
 H266 H 0.14798 0.54711 -0.00258
 C267 C 0.65835 1.15815 0.38738
 C268 C 0.61078 1.16866 0.31593
 C269 C 0.57874 1.13620 0.35200
 C270 C 0.59680 1.09623 0.45738
 C271 C 0.63793 1.07734 0.36239
 C272 C 0.67002 1.10971 0.32538
 C273 C 0.65006 1.15176 0.57288
 C274 C 0.61785 1.11940 0.60927
 H275 H 0.60282 1.19928 0.24447
 H276 H 0.54352 1.13906 0.31127
 H277 H 0.64169 1.04148 0.32844
 H278 H 0.70116 1.10142 0.25979
 H279 H 0.66771 1.17088 0.66784
 H280 H 0.60851 1.11108 0.73472
 C281 C 0.15739 0.34264 0.11554
 C282 C 0.14867 0.34905 -0.06942
 C283 C 0.11624 0.38110 -0.10512
 C284 C 0.09541 0.40400 0.04725
 C285 C 0.07784 0.36380 0.15276
 C286 C 0.11017 0.33162 0.18798
 C287 C 0.16899 0.39106 0.17799
 C288 C 0.13665 0.42320 0.14182
 H289 H 0.16626 0.33010 -0.16453
 H290 H 0.10662 0.38936 -0.23044
 H291 H 0.04285 0.36072 0.19513
 H292 H 0.10275 0.30101 0.26016
 H293 H 0.20022 0.39942 0.24350
 H294 H 0.14024 0.45905 0.17641
 C295 C 0.65745 0.84760 0.70772
 C296 C 0.63739 0.86793 0.86612
 C297 C 0.60475 0.90057 0.83908
 C298 C 0.59510 0.90978 0.65616
 C299 C 0.64185 0.92202 0.58260
 C300 C 0.67451 0.88963 0.61005
 C301 C 0.61591 0.82991 0.61184
 C302 C 0.58323 0.86230 0.58548
 H303 H 0.64803 0.85787 0.98871
 H304 H 0.58755 0.91803 0.93866
 H305 H 0.64883 0.95384 0.51671
 H306 H 0.70941 0.89379 0.56767
 H307 H 0.61219 0.79465 0.57036
 H308 H 0.55157 0.85469 0.52151
 C309 C 0.84280 0.15192 0.20271
 C310 C 0.88407 0.17031 0.10671
 C311 C 0.91698 0.13829 0.08008
 C312 C 0.90563 0.09048 0.15070
 C313 C 0.89614 0.09898 0.33367
 C314 C 0.86326 0.13122 0.36093
 C315 C 0.82597 0.11010 0.10495
 C316 C 0.85888 0.07808 0.07728
 H317 H 0.88741 0.20574 0.06528
 H318 H 0.94848 0.14640 0.01594
 H319 H 0.91362 0.08133 0.43317
 H320 H 0.85270 0.14074 0.48361
 H321 H 0.79105 0.10580 0.06261
 H322 H 0.85208 0.04645 0.01121
 C323 C 0.34192 0.65559 0.63652
 C324 C 0.32443 0.61497 0.53395
 C325 C 0.35726 0.58340 0.49792
 C326 C 0.40456 0.59513 0.56842
 C327 C 0.41518 0.64374 0.50357
 C328 C 0.38232 0.67529 0.53864
 C329 C 0.36384 0.63306 0.78886
 C330 C 0.39649 0.60153 0.75333
 H331 H 0.28926 0.61128 0.49365
 H332 H 0.35014 0.55271 0.42690
 H333 H 0.44585 0.65258 0.43567
 H334 H 0.38485 0.71099 0.50005
 H335 H 0.35455 0.64095 0.91435
 H336 H 0.41486 0.58308 0.84886
   
