data_POSCAR
  _audit_creation_date              2014-09-24
  _audit_creation_method            'ToBaCCo'
  _symmetry_space_group_name_H-M    'P1'
  _symmetry_Int_Tables_number       1
  _symmetry_cell_setting            triclinic
  loop_
  _symmetry_equiv_pos_as_xyz
 x,y,z
_cell_length_a 60.6261
_cell_length_b 60.0466
_cell_length_c 61.8702
_cell_angle_alpha 94.734900
_cell_angle_beta 83.840000
_cell_angle_gamma 90.302100
loop_
  _atom_site_label
  _atom_site_type_symbol
  _atom_site_fract_x
  _atom_site_fract_y
  _atom_site_fract_z
C1 C 0.27026 0.47883 1.00100
 C2 C 0.26173 0.49818 0.99370
 C3 C 0.27605 0.51588 0.98843
 C4 C 0.29899 0.51462 0.99051
 C5 C 0.30703 0.49493 0.99801
 C6 C 0.29291 0.47712 1.00320
 C7 C 0.23768 0.50011 0.99195
 C8 C 0.22229 0.49687 1.01008
 C9 C 0.19928 0.49966 1.00919
 C10 C 0.19227 0.50510 0.98922
 C11 C 0.20746 0.50838 0.97101
 C12 C 0.23018 0.50588 0.97248
 H13 H 0.25925 0.46516 1.00508
 H14 H 0.26909 0.53035 0.98229
 H15 H 0.22867 0.49350 1.02516
 H16 H 0.24203 0.50848 0.95852
 H17 H 0.32430 0.49341 1.00061
 H18 H 0.17480 0.50581 0.98718
 C19 C 0.73156 0.47924 0.00648
 C20 C 0.74314 0.49877 0.00144
 C21 C 0.73162 0.51724 -0.00435
 C22 C 0.70852 0.51639 -0.00504
 C23 C 0.69731 0.49647 -0.00049
 C24 C 0.70857 0.47800 0.00558
 C25 C 0.76717 0.50026 0.00319
 C26 C 0.78205 0.50342 -0.01531
 C27 C 0.80517 0.50457 -0.01398
 C28 C 0.81263 0.50365 0.00683
 C29 C 0.79785 0.50068 0.02541
 C30 C 0.77516 0.49853 0.02340
 H31 H 0.74041 0.46517 0.01137
 H32 H 0.74061 0.53249 -0.00743
 H33 H 0.77535 0.50365 -0.03080
 H34 H 0.76361 0.49630 0.03768
 H35 H 0.67967 0.49518 -0.00178
 H36 H 0.83000 0.50578 0.00899
 C37 C 0.01735 0.22576 0.50049
 C38 C -0.00062 0.23806 0.49508
 C39 C -0.01962 0.22683 0.48889
 C40 C -0.02085 0.20344 0.48841
 C41 C -0.00286 0.19143 0.49418
 C42 C 0.01650 0.20233 0.49994
 C43 C 0.00066 0.26269 0.49577
 C44 C -0.00255 0.27380 0.47721
 C45 C 0.00010 0.29720 0.47719
 C46 C 0.00499 0.30911 0.49676
 C47 C 0.00819 0.29823 0.51539
 C48 C 0.00607 0.27497 0.51474
 H49 H 0.03222 0.23451 0.50453
 H50 H -0.03340 0.23629 0.48450
 H51 H -0.00564 0.26377 0.46251
 H52 H 0.00878 0.26635 0.52895
 H53 H -0.00419 0.17348 0.49459
 H54 H 0.00543 0.32718 0.49807
 C55 C 1.01540 0.77396 0.50530
 C56 C 0.99752 0.76002 0.50077
 C57 C 0.97785 0.76931 0.49550
 C58 C 0.97602 0.79242 0.49453
 C59 C 0.99408 0.80620 0.49875
 C60 C 1.01410 0.79734 0.50425
 C61 C 0.99981 0.73557 0.50079
 C62 C 1.00472 0.72599 0.51965
 C63 C 1.00832 0.70275 0.51950
 C64 C 1.00714 0.68951 0.49969
 C65 C 1.00204 0.69893 0.48079
 C66 C 0.99814 0.72196 0.48155
 H67 H 1.03008 0.76629 0.50997
 H68 H 0.96405 0.75854 0.49199
 H69 H 1.00643 0.73696 0.53416
 H70 H 0.99461 0.72946 0.46694
 H71 H 0.99241 0.82386 0.49698
 H72 H 1.00889 0.67153 0.49902
 C73 C 0.49540 0.01438 0.23080
 C74 C 0.49878 -0.00627 0.23899
 C75 C 0.50004 -0.02586 0.22489
 C76 C 0.49725 -0.02497 0.20274
 C77 C 0.49387 -0.00418 0.19474
 C78 C 0.49313 0.01560 0.20859
 C79 C 0.49982 -0.00747 0.26253
 C80 C 0.48081 -0.00260 0.27715
 C81 C 0.48142 -0.00372 0.29964
 C82 C 0.50138 -0.00961 0.30731
 C83 C 0.52060 -0.01433 0.29289
 C84 C 0.51967 -0.01334 0.27040
 H85 H 0.49435 0.02946 0.24177
 H86 H 0.50231 -0.04183 0.23135
 H87 H 0.46560 0.00213 0.27096
 H88 H 0.53433 -0.01704 0.25906
 H89 H 0.49234 -0.00335 0.17753
 H90 H 0.50201 -0.01042 0.32466
 C91 C 0.49343 0.02755 0.77717
 C92 C 0.49494 0.00693 0.76476
 C93 C 0.49428 -0.01302 0.77513
 C94 C 0.49196 -0.01271 0.79813
 C95 C 0.49034 0.00834 0.81022
 C96 C 0.49082 0.02835 0.79997
 C97 C 0.49557 0.00622 0.74089
 C98 C 0.51545 0.01023 0.72802
 C99 C 0.51590 0.00993 0.70526
 C100 C 0.49621 0.00553 0.69561
 C101 C 0.47622 0.00149 0.70832
 C102 C 0.47604 0.00186 0.73104
 H103 H 0.49349 0.04289 0.76907
 H104 H 0.49460 -0.02865 0.76505
 H105 H 0.53044 0.01377 0.73576
 H106 H 0.46077 -0.00130 0.74111
 H107 H 0.48968 0.00955 0.82782
 H108 H 0.49646 0.00530 0.67806
 C109 C 0.28227 0.02357 0.50214
 H110 H 0.28204 0.03530 0.51640
 C111 C 0.29850 0.02527 0.48460
 H112 H 0.31046 0.03869 0.48537
 C113 C 0.26690 -0.00822 0.48406
 H114 H 0.25487 -0.02155 0.48415
 C115 C 0.28297 -0.00723 0.46619
 H116 H 0.28311 -0.01992 0.45269
 N117 N 0.26686 0.00708 0.50155
 C118 C 0.21207 0.03061 0.54904
 H119 H 0.21086 0.01687 0.55937
 C120 C 0.19567 0.04715 0.55177
 H121 H 0.18198 0.04622 0.56442
 C122 C 0.23061 0.04771 0.51903
 H123 H 0.24368 0.04738 0.50570
 C124 C 0.21473 0.06474 0.52136
 H125 H 0.21584 0.07744 0.50984
 Zn126 Zn 0.24690 0.00508 0.52696
 N127 N 0.22882 0.03092 0.53259
 C128 C 0.26462 0.01701 0.56720
 N129 N 0.26436 0.00151 0.54991
 C130 C 0.27829 -0.01638 0.54729
 C131 C 0.29339 -0.01920 0.56231
 C132 C 0.27968 0.01496 0.58256
 C133 C 0.21297 -0.01802 0.50822
 C134 C 0.19654 -0.03414 0.50602
 C135 C 0.21026 -0.05294 0.53498
 C136 C 0.22637 -0.03634 0.53673
 N137 N 0.22739 -0.01931 0.52345
 H138 H 0.25371 0.03136 0.56869
 H139 H 0.27792 -0.02827 0.53321
 H140 H 0.30424 -0.03365 0.55988
 H141 H 0.28022 0.02790 0.59575
 H142 H 0.21396 -0.00411 0.49810
 H143 H 0.18510 -0.03273 0.49391
 H144 H 0.20928 -0.06606 0.54604
 H145 H 0.23756 -0.03676 0.54915
 C146 C 0.19666 0.06421 0.53750
 C147 C 0.29918 0.00960 0.46638
 C148 C 0.19488 -0.05175 0.51968
 C149 C 0.29458 -0.00318 0.58002
 C150 C 0.71493 0.01866 0.50497
 H151 H 0.71625 0.03041 0.49255
 C152 C 0.69935 0.02224 0.52321
 H153 H 0.68902 0.03706 0.52485
 C154 C 0.72693 -0.01490 0.51771
 H155 H 0.73729 -0.02966 0.51522
 C156 C 0.71141 -0.01208 0.53615
 H157 H 0.71006 -0.02478 0.54765
 N158 N 0.72844 0.00044 0.50263
 C159 C 0.78073 0.02168 0.45471
 H160 H 0.78005 0.00833 0.44194
 C161 C 0.79623 0.03879 0.45212
 H162 H 0.80718 0.03866 0.43708
 C163 C 0.76740 0.03775 0.48992
 H164 H 0.75663 0.03692 0.50490
 C165 C 0.78275 0.05511 0.48807
 H166 H 0.78351 0.06746 0.50173
 Zn167 Zn 0.74783 -0.00353 0.47649
 N168 N 0.76668 0.02148 0.47335
 C169 C 0.72878 0.00776 0.43846
 N170 N 0.72959 -0.00741 0.45353
 C171 C 0.71608 -0.02553 0.45368
 C172 C 0.70115 -0.02915 0.43813
 C173 C 0.71387 0.00491 0.42271
 C174 C 0.77923 -0.02928 0.49325
 C175 C 0.79383 -0.04706 0.49388
 C176 C 0.78231 -0.06312 0.45979
 C177 C 0.76773 -0.04516 0.45994
 N178 N 0.76636 -0.02878 0.47660
 H179 H 0.73921 0.02239 0.43900
 H180 H 0.71687 -0.03716 0.46604
 H181 H 0.69081 -0.04389 0.43844
 H182 H 0.71301 0.01750 0.41127
 H183 H 0.77819 -0.01577 0.50601
 H184 H 0.80407 -0.04711 0.50717
 H185 H 0.78323 -0.07603 0.44642
 H186 H 0.75788 -0.04413 0.44651
 C187 C 0.79758 0.05569 0.46905
 C188 C 0.69726 0.00665 0.53904
 C189 C 0.79555 -0.06422 0.47695
 C190 C 0.69966 -0.01368 0.42250
 C191 C 0.47525 0.23409 1.06778
 H192 H 0.46145 0.24484 1.06602
 C193 C 0.47360 0.21974 1.08453
 H194 H 0.45849 0.21959 1.09557
 C195 C 0.51172 0.22116 1.05568
 H196 H 0.52641 0.22165 1.04414
 C197 C 0.51084 0.20668 1.07227
 H198 H 0.52488 0.19590 1.07328
 N199 N 0.49393 0.23416 1.05348
 C200 C 0.47465 0.29396 1.03388
 H201 H 0.49109 0.30063 1.03498
 C202 C 0.45674 0.30861 1.03491
 H203 H 0.45968 0.32644 1.03677
 C204 C 0.45099 0.26282 1.02907
 H205 H 0.44897 0.24490 1.02664
 C206 C 0.43258 0.27692 1.02991
 H207 H 0.41635 0.26973 1.02837
 Zn208 Zn 0.49605 0.25177 1.02932
 N209 N 0.47148 0.27150 1.03125
 C210 C 0.49602 0.24211 0.98377
 N211 N 0.49573 0.23294 1.00320
 C212 C 0.49361 0.21051 1.00444
 C213 C 0.49179 0.19636 0.98571
 C214 C 0.49447 0.22849 0.96453
 C215 C 0.52603 0.28010 1.04875
 C216 C 0.54415 0.29438 1.04992
 C217 C 0.55574 0.28358 1.01194
 C218 C 0.53742 0.26938 1.01153
 N219 N 0.52266 0.26844 1.02961
 H220 H 0.49715 0.26005 0.98328
 H221 H 0.49286 0.20351 1.02002
 H222 H 0.49011 0.17855 0.98706
 H223 H 0.49449 0.23602 0.94921
 H224 H 0.51420 0.27878 1.06297
 H225 H 0.54630 0.30378 1.06525
 H226 H 0.56671 0.28491 0.99710
 H227 H 0.53472 0.25967 0.99658
 C228 C 0.43535 0.30016 1.03298
 C229 C 0.49144 0.20557 1.08673
 C230 C 0.55901 0.29672 1.03121
 C231 C 0.49208 0.20532 0.96545
 C232 C 0.48905 0.78074 -0.04491
 H233 H 0.47675 0.77917 -0.03110
 C234 C 0.48665 0.79719 -0.05911
 H235 H 0.47218 0.80794 -0.05631
 C236 C 0.52292 0.76859 -0.06504
 H237 H 0.53724 0.75768 -0.06696
 C238 C 0.52125 0.78497 -0.07963
 H239 H 0.53442 0.78654 -0.09268
 N240 N 0.50696 0.76690 -0.04805
 C241 C 0.48632 0.71019 -0.01139
 H242 H 0.49955 0.71012 -0.00096
 C243 C 0.47030 0.69344 -0.01071
 H244 H 0.47111 0.68064 0.00052
 C245 C 0.46947 0.72685 -0.03895
 H246 H 0.46953 0.73955 -0.05033
 C247 C 0.45300 0.71047 -0.03870
 H248 H 0.44045 0.71078 -0.04989
 Zn249 Zn 0.50942 0.74706 -0.02630
 N250 N 0.48566 0.72645 -0.02536
 C251 C 0.49238 0.76249 0.01695
 N252 N 0.50884 0.76477 0.00053
 C253 C 0.52447 0.78097 0.00216
 C254 C 0.52405 0.79560 0.02094
 C255 C 0.49123 0.77689 0.03597
 C256 C 0.53723 0.71454 -0.04942
 C257 C 0.55435 0.69877 -0.05257
 C258 C 0.56897 0.71568 -0.02030
 C259 C 0.55141 0.73098 -0.01761
 N260 N 0.53582 0.72993 -0.03192
 H261 H 0.47981 0.74985 0.01516
 H262 H 0.53708 0.78273 -0.01135
 H263 H 0.53639 0.80866 0.02177
 H264 H 0.47796 0.77494 0.04884
 H265 H 0.52442 0.71389 -0.06036
 H266 H 0.55481 0.68613 -0.06615
 H267 H 0.58069 0.71611 -0.00824
 H268 H 0.54974 0.74294 -0.00351
 C269 C 0.45343 0.69336 -0.02459
 C270 C 0.50306 0.79974 -0.07657
 C271 C 0.57022 0.69895 -0.03762
 C272 C 0.50714 0.79379 0.03807
 C273 C 1.01719 0.46271 0.22099
 H274 H 1.01630 0.44918 0.23152
 C275 C 1.03388 0.46265 0.20353
 H276 H 1.04571 0.44900 0.20080
 C277 C 1.00228 0.49633 0.21104
 H278 H 0.98979 0.50934 0.21407
 C279 C 1.01865 0.49696 0.19348
 H280 H 1.01882 0.51075 0.18325
 N281 N 1.00195 0.47953 0.22450
 C282 C 0.96341 0.44152 0.26854
 H283 H 0.94858 0.44266 0.26042
 C284 C 0.96456 0.42593 0.28403
 H285 H 0.95055 0.41511 0.28767
 C286 C 0.99898 0.45541 0.27500
 H287 H 1.01209 0.46737 0.27176
 C288 C 1.00089 0.44009 0.29040
 H289 H 1.01580 0.44007 0.29859
 Zn290 Zn 0.97855 0.48033 0.24739
 N291 N 0.98040 0.45603 0.26460
 C292 C 0.94829 0.46293 0.21936
 N293 N 0.95180 0.48021 0.23421
 C294 C 0.93806 0.49829 0.23742
 C295 C 0.92036 0.49978 0.22492
 C296 C 0.93080 0.46375 0.20646
 C297 C 0.99791 0.52073 0.26381
 C298 C 0.99994 0.53890 0.27908
 C299 C 0.96619 0.52735 0.29949
 C300 C 0.96489 0.50933 0.28393
 N301 N 0.98054 0.50641 0.26647
 H302 H 0.95974 0.44896 0.21684
 H303 H 0.94137 0.51209 0.24892
 H304 H 0.90992 0.51454 0.22738
 H305 H 0.92896 0.45033 0.19400
 H306 H 1.01052 0.51782 0.25018
 H307 H 1.01390 0.55009 0.27677
 H308 H 0.95378 0.52916 0.31348
 H309 H 0.95154 0.49739 0.28590
 C310 C 0.98331 0.42547 0.29554
 C311 C 1.03474 0.47994 0.18947
 C312 C 0.98400 0.54231 0.29726
 C313 C 0.91691 0.48265 0.20877
 C314 C -0.00075 0.50093 0.78060
 H315 H 0.01209 0.48825 0.77806
 C316 C -0.01774 0.49986 0.79752
 H317 H -0.01806 0.48602 0.80772
 C318 C -0.01559 0.53448 0.77041
 H319 H -0.01431 0.54828 0.76020
 C320 C -0.03294 0.53408 0.78724
 H321 H -0.04492 0.54760 0.78975
 N322 N 0.00006 0.51803 0.76746
 C323 C 0.04553 0.48947 0.71309
 H324 H 0.05877 0.50160 0.71341
 C325 C 0.04714 0.47131 0.69739
 H326 H 0.06194 0.46940 0.68593
 C327 C 0.01010 0.47752 0.72764
 H328 H -0.00458 0.48036 0.73906
 C329 C 0.01094 0.45921 0.71209
 H330 H -0.00320 0.44815 0.71178
 Zn331 Zn 0.02545 0.51857 0.74688
 N332 N 0.02724 0.49222 0.72781
 C333 C 0.06448 0.50380 0.76356
 N334 N 0.05002 0.52100 0.76333
 C335 C 0.05126 0.54001 0.77667
 C336 C 0.06750 0.54230 0.79102
 C337 C 0.08086 0.50527 0.77790
 C338 C 0.00678 0.54449 0.71792
 C339 C 0.00605 0.56096 0.70335
 C340 C 0.04232 0.57334 0.71196
 C341 C 0.04223 0.55681 0.72658
 N342 N 0.02461 0.54280 0.72929
 H343 H 0.06278 0.48857 0.75331
 H344 H 0.03932 0.55327 0.77639
 H345 H 0.06819 0.55765 0.80139
 H346 H 0.09161 0.49105 0.77846
 H347 H -0.00673 0.53274 0.71993
 H348 H -0.00811 0.56183 0.69417
 H349 H 0.05656 0.58419 0.70979
 H350 H 0.05656 0.55475 0.73522
 C351 C 0.02956 0.45602 0.69653
 C352 C -0.03398 0.51673 0.80123
 C353 C 0.02410 0.57547 0.70006
 C354 C 0.08232 0.52461 0.79213
 C355 C 0.07144 0.16313 0.51522
 C356 C 0.06707 0.18442 0.52596
 C357 C 0.04928 0.19721 0.52106
 C358 C 0.03574 0.18910 0.50505
 C359 C 0.04059 0.16800 0.49397
 C360 C 0.05805 0.15510 0.49915
 C361 C 0.08967 0.14909 0.52071
 N362 N 0.08888 0.12653 0.51687
 N363 N 0.10535 0.11373 0.52139
 C364 C 0.12339 0.12294 0.52982
 N365 N 0.12422 0.14553 0.53370
 N366 N 0.10761 0.15835 0.52935
 C367 C 0.14198 0.10854 0.53388
 C368 C 0.16361 0.11706 0.53411
 C369 C 0.18142 0.10280 0.53586
 C370 C 0.17782 0.07989 0.53785
 C371 C 0.15609 0.07159 0.53850
 C372 C 0.13839 0.08572 0.53639
 H373 H 0.07708 0.19098 0.53849
 H374 H 0.04590 0.21323 0.53014
 H375 H 0.03100 0.16143 0.48112
 H376 H 0.06122 0.13888 0.49036
 H377 H 0.16687 0.13456 0.53215
 H378 H 0.19803 0.10958 0.53536
 H379 H 0.15289 0.05395 0.53975
 H380 H 0.12190 0.07869 0.53639
 C381 C 0.67040 0.57303 -0.01900
 C382 C 0.69213 0.56961 -0.02911
 C383 C 0.70464 0.55130 -0.02461
 C384 C 0.69576 0.53630 -0.00965
 C385 C 0.67427 0.54034 0.00094
 C386 C 0.66169 0.55828 -0.00386
 C387 C 0.65650 0.59160 -0.02422
 N388 N 0.63406 0.58983 -0.02169
 N389 N 0.62127 0.60656 -0.02582
 C390 C 0.63036 0.62586 -0.03252
 N391 N 0.65283 0.62768 -0.03511
 N392 N 0.66567 0.61081 -0.03116
 C393 C 0.61583 0.64466 -0.03603
 C394 C 0.62334 0.66685 -0.03415
 C395 C 0.60871 0.68460 -0.03524
 C396 C 0.58646 0.68043 -0.03864
 C397 C 0.57925 0.65823 -0.04142
 C398 C 0.59372 0.64055 -0.03999
 H399 H 0.69922 0.58073 -0.04090
 H400 H 0.72105 0.54865 -0.03320
 H401 H 0.66710 0.52967 0.01311
 H402 H 0.64513 0.56073 0.00449
 H403 H 0.64027 0.67051 -0.03103
 H404 H 0.61467 0.70159 -0.03310
 H405 H 0.56213 0.65453 -0.04380
 H406 H 0.58748 0.62363 -0.04161
 C407 C 0.91650 -0.17442 0.48240
 C408 C 0.93668 -0.17094 0.46969
 C409 C 0.95588 -0.18225 0.47319
 C410 C 0.95524 -0.19750 0.48926
 C411 C 0.93492 -0.20182 0.50128
 C412 C 0.91574 -0.19026 0.49799
 C413 C 0.89681 -0.16060 0.48027
 N414 N 0.87955 -0.15895 0.49624
 N415 N 0.86260 -0.14521 0.49511
 C416 C 0.86217 -0.13260 0.47790
 N417 N 0.87927 -0.13452 0.46177
 N418 N 0.89625 -0.14817 0.46296
 C419 C 0.84409 -0.11623 0.47728
 C420 C 0.84163 -0.10599 0.45803
 C421 C 0.82550 -0.08950 0.45780
 C422 C 0.81165 -0.08272 0.47686
 C423 C 0.81382 -0.09320 0.49599
 C424 C 0.82978 -0.10988 0.49617
 H425 H 0.93786 -0.15888 0.45754
 H426 H 0.97136 -0.17880 0.46362
 H427 H 0.93409 -0.21346 0.51381
 H428 H 0.90043 -0.19341 0.50796
 H429 H 0.85234 -0.11054 0.44319
 H430 H 0.82428 -0.08157 0.44288
 H431 H 0.80320 -0.08842 0.51085
 H432 H 0.83125 -0.11740 0.51127
 C433 C 0.32419 0.41864 1.02188
 C434 C 0.32751 0.43976 1.03262
 C435 C 0.31670 0.45860 1.02708
 C436 C 0.30219 0.45675 1.01081
 C437 C 0.29793 0.43554 1.00083
 C438 C 0.30891 0.41665 1.00624
 C439 C 0.33776 0.39925 1.02598
 N440 N 0.33749 0.37969 1.01327
 N441 N 0.35111 0.36298 1.01582
 C442 C 0.36558 0.36511 1.03120
 N443 N 0.36556 0.38452 1.04412
 N444 N 0.35197 0.40121 1.04156
 C445 C 0.38208 0.34736 1.03291
 C446 C 0.39756 0.35031 1.04827
 C447 C 0.41445 0.33468 1.04864
 C448 C 0.41627 0.31569 1.03370
 C449 C 0.40032 0.31224 1.01888
 C450 C 0.38341 0.32793 1.01847
 H451 H 0.33904 0.44193 1.04483
 H452 H 0.32002 0.47476 1.03520
 H453 H 0.28685 0.43372 0.98819
 H454 H 0.30588 0.40062 0.99774
 H455 H 0.39697 0.36496 1.05976
 H456 H 0.42626 0.33757 1.06050
 H457 H 0.40138 0.29783 1.00708
 H458 H 0.37176 0.32511 1.00644
 C459 C 0.92162 0.16528 0.47341
 C460 C 0.94295 0.15864 0.46400
 C461 C 0.96147 0.17145 0.46834
 C462 C 0.95915 0.19125 0.48215
 C463 C 0.93778 0.19848 0.49083
 C464 C 0.91918 0.18559 0.48654
 C465 C 0.90235 0.15043 0.47043
 N466 N 0.88174 0.15604 0.48016
 N467 N 0.86481 0.14195 0.47856
 C468 C 0.86779 0.12164 0.46719
 N469 N 0.88833 0.11617 0.45727
 N470 N 0.90523 0.13024 0.45886
 C471 C 0.84939 0.10530 0.46649
 C472 C 0.85346 0.08340 0.45706
 C473 C 0.83657 0.06749 0.45757
 C474 C 0.81512 0.07308 0.46740
 C475 C 0.81088 0.09513 0.47637
 C476 C 0.82783 0.11105 0.47595
 H477 H 0.94548 0.14323 0.45366
 H478 H 0.97773 0.16568 0.46114
 H479 H 0.93554 0.21363 0.50161
 H480 H 0.90299 0.19124 0.49400
 H481 H 0.86986 0.07832 0.44970
 H482 H 0.84055 0.05060 0.45083
 H483 H 0.79446 0.10008 0.48378
 H484 H 0.82408 0.12780 0.48325
 C485 C 0.34352 0.56873 -0.02089
 C486 C 0.32070 0.57274 -0.01567
 C487 C 0.30593 0.55501 -0.01247
 C488 C 0.31358 0.53265 -0.01427
 C489 C 0.33647 0.52885 -0.02041
 C490 C 0.35113 0.54655 -0.02359
 C491 C 0.35952 0.58742 -0.02280
 N492 N 0.38169 0.58329 -0.02532
 N493 N 0.39621 0.59997 -0.02619
 C494 C 0.38923 0.62155 -0.02462
 N495 N 0.36704 0.62572 -0.02226
 N496 N 0.35249 0.60900 -0.02133
 C497 C 0.40555 0.64003 -0.02498
 C498 C 0.39876 0.66230 -0.02569
 C499 C 0.41429 0.67964 -0.02571
 C500 C 0.43687 0.67509 -0.02481
 C501 C 0.44364 0.65285 -0.02418
 C502 C 0.42820 0.63553 -0.02433
 H503 H 0.31427 0.58966 -0.01344
 H504 H 0.28875 0.55922 -0.00734
 H505 H 0.34330 0.51215 -0.02336
 H506 H 0.36854 0.54276 -0.02806
 H507 H 0.38146 0.66636 -0.02622
 H508 H 0.40860 0.69666 -0.02607
 H509 H 0.46098 0.64880 -0.02381
 H510 H 0.43405 0.61860 -0.02378
 C511 C 0.06893 -0.15930 0.51353
 C512 C 0.04707 -0.15130 0.51769
 C513 C 0.02914 -0.16558 0.51514
 C514 C 0.03241 -0.18845 0.50814
 C515 C 0.05451 -0.19648 0.50465
 C516 C 0.07244 -0.18211 0.50730
 C517 C 0.08783 -0.14370 0.51512
 N518 N 0.10905 -0.15135 0.51348
 N519 N 0.12598 -0.13716 0.51440
 C520 C 0.12238 -0.11472 0.51689
 N521 N 0.10116 -0.10712 0.51858
 N522 N 0.08427 -0.12129 0.51774
 C523 C 0.14109 -0.09879 0.51752
 C524 C 0.13737 -0.07582 0.51653
 C525 C 0.15488 -0.06067 0.51705
 C526 C 0.17652 -0.06808 0.51870
 C527 C 0.18030 -0.09101 0.51978
 C528 C 0.16278 -0.10623 0.51908
 H529 H 0.04371 -0.13388 0.52296
 H530 H 0.01273 -0.15851 0.51933
 H531 H 0.05833 -0.21360 0.49869
 H532 H 0.08911 -0.18882 0.50387
 H533 H 0.12091 -0.06948 0.51531
 H534 H 0.15141 -0.04306 0.51651
 H535 H 0.19685 -0.09717 0.52094
 H536 H 0.16622 -0.12381 0.51988
 C537 C 0.66966 0.41997 1.02043
 C538 C 0.66296 0.44139 1.02961
 C539 C 0.67590 0.46006 1.02514
 C540 C 0.69593 0.45780 1.01147
 C541 C 0.70314 0.43636 1.00291
 C542 C 0.69007 0.41761 1.00727
 C543 C 0.65483 0.40057 1.02390
 N544 N 0.65966 0.38017 1.01327
 N545 N 0.64555 0.36320 1.01552
 C546 C 0.62602 0.36593 1.02849
 N547 N 0.62136 0.38625 1.03928
 N548 N 0.63543 0.40317 1.03703
 C549 C 0.60958 0.34759 1.03012
 C550 C 0.58884 0.35141 1.04236
 C551 C 0.57270 0.33477 1.04297
 C552 C 0.57687 0.31379 1.03145
 C553 C 0.59776 0.30975 1.01956
 C554 C 0.61395 0.32648 1.01890
 H555 H 0.64743 0.44388 1.03992
 H556 H 0.67013 0.47637 1.03222
 H557 H 0.71851 0.43421 0.99229
 H558 H 0.69576 0.40135 1.00001
 H559 H 0.58482 0.36746 1.05116
 H560 H 0.55668 0.33862 1.05196
 H561 H 0.60158 0.29368 1.01072
 H562 H 0.62977 0.32294 1.00938
 C563 C 0.48692 0.07807 1.18026
 C564 C 0.47275 0.06012 1.17551
 C565 C 0.47449 0.04000 1.18503
 C566 C 0.49028 0.03744 1.19967
 C567 C 0.50396 0.05557 1.20501
 C568 C 0.50237 0.07566 1.19532
 C569 C 0.48621 0.09875 1.16882
 N570 N 0.50263 0.11417 1.16977
 N571 N 0.50267 0.13210 1.15843
 C572 C 0.48623 0.13541 1.14573
 N573 N 0.46967 0.12014 1.14501
 N574 N 0.46967 0.10218 1.15628
 C575 C 0.48693 0.15458 1.13203
 C576 C 0.46887 0.15912 1.12058
 C577 C 0.47012 0.17612 1.10639
 C578 C 0.48950 0.18890 1.10323
 C579 C 0.50734 0.18479 1.11510
 C580 C 0.50605 0.16788 1.12942
 H581 H 0.46064 0.06140 1.16402
 H582 H 0.46358 0.02635 1.18083
 H583 H 0.51636 0.05397 1.21616
 H584 H 0.51347 0.08917 1.19941
 H585 H 0.45387 0.14926 1.12225
 H586 H 0.45618 0.17876 1.09731
 H587 H 0.52239 0.19455 1.11315
 H588 H 0.52025 0.16489 1.13801
 C589 C 0.01899 0.67129 0.57676
 C590 C 0.02845 0.66246 0.55619
 C591 C 0.02521 0.67292 0.53744
 C592 C 0.01263 0.69281 0.53869
 C593 C 0.00395 0.70208 0.55959
 C594 C 0.00688 0.69132 0.57830
 C595 C 0.02110 0.65915 0.59632
 N596 N 0.00662 0.66298 0.61459
 N597 N 0.00776 0.65110 0.63171
 C598 C 0.02350 0.63501 0.63132
 N599 N 0.03814 0.63140 0.61316
 N600 N 0.03692 0.64317 0.59601
 C601 C 0.02414 0.62097 0.64983
 C602 C 0.04303 0.60805 0.65162
 C603 C 0.04320 0.59375 0.66831
 C604 C 0.02440 0.59186 0.68340
 C605 C 0.00563 0.60502 0.68187
 C606 C 0.00556 0.61957 0.66534
 H607 H 0.03804 0.64713 0.55445
 H608 H 0.03316 0.66554 0.52205
 H609 H -0.00625 0.71699 0.56161
 H610 H -0.00059 0.69857 0.59397
 H611 H 0.05763 0.60880 0.63998
 H612 H 0.05780 0.58364 0.66901
 H613 H -0.00901 0.60397 0.69340
 H614 H -0.00926 0.62926 0.66439
 C615 C 0.49169 0.92815 -0.16804
 C616 C 0.48061 0.94754 -0.15848
 C617 C 0.48032 0.96668 -0.16974
 C618 C 0.49122 0.96724 -0.19105
 C619 C 0.50161 0.94735 -0.20091
 C620 C 0.50191 0.92814 -0.18952
 C621 C 0.49295 0.90844 -0.15526
 N622 N 0.50290 0.88910 -0.16422
 N623 N 0.50445 0.87176 -0.15230
 C624 C 0.49618 0.87307 -0.13092
 N625 N 0.48618 0.89236 -0.12205
 N626 N 0.48459 0.90963 -0.13394
 C627 C 0.49815 0.85413 -0.11729
 C628 C 0.49186 0.85698 -0.09470
 C629 C 0.49360 0.83938 -0.08162
 C630 C 0.50153 0.81836 -0.09076
 C631 C 0.50799 0.81547 -0.11334
 C632 C 0.50633 0.83318 -0.12648
 H633 H 0.47213 0.94807 -0.14212
 H634 H 0.47090 0.98082 -0.16168
 H635 H 0.51063 0.94673 -0.21701
 H636 H 0.51061 0.91345 -0.19739
 H637 H 0.48569 0.87291 -0.08699
 H638 H 0.48896 0.84236 -0.06424
 H639 H 0.51402 0.79943 -0.12090
 H640 H 0.51130 0.83042 -0.14383
 C641 C 0.99462 0.33238 0.42074
 C642 C 0.98379 0.31184 0.42304
 C643 C 0.98568 0.30006 0.44142
 C644 C 0.99838 0.30859 0.45812
 C645 C 1.00957 0.32901 0.45524
 C646 C 1.00766 0.34065 0.43698
 C647 C 0.99238 0.34550 0.40178
 N648 N 1.00133 0.36623 0.40122
 N649 N 0.99940 0.37836 0.38449
 C650 C 0.98844 0.37033 0.36751
 N651 N 0.97947 0.34955 0.36797
 N652 N 0.98137 0.33738 0.38480
 C653 C 0.98652 0.38420 0.34902
 C654 C 0.97727 0.37571 0.33013
 C655 C 0.97606 0.38904 0.31270
 C656 C 0.98411 0.41107 0.31386
 C657 C 0.99298 0.41957 0.33291
 C658 C 0.99423 0.40634 0.35019
 H659 H 0.97356 0.30501 0.41081
 H660 H 0.97628 0.28479 0.44278
 H661 H 1.02063 0.33591 0.46664
 H662 H 1.01662 0.35621 0.43561
 H663 H 0.97117 0.35873 0.32870
 H664 H 0.96919 0.38200 0.29821
 H665 H 0.99880 0.43665 0.33459
 H666 H 1.00123 0.41357 0.36453
 C667 C 0.49834 0.91590 0.15825
 C668 C 0.48138 0.93191 0.15903
 C669 C 0.48099 0.95096 0.17361
 C670 C 0.49740 0.95435 0.18791
 C671 C 0.51407 0.93814 0.18756
 C672 C 0.51463 0.91916 0.17276
 C673 C 0.49924 0.89630 0.14196
 N674 N 0.51785 0.88352 0.13747
 N675 N 0.51890 0.86650 0.12213
 C676 C 0.50134 0.86149 0.11070
 N677 N 0.48267 0.87414 0.11536
 N678 N 0.48165 0.89119 0.13062
 C679 C 0.50271 0.84320 0.09298
 C680 C 0.48360 0.83609 0.08339
 C681 C 0.48500 0.81969 0.06592
 C682 C 0.50555 0.81012 0.05752
 C683 C 0.52462 0.81693 0.06730
 C684 C 0.52321 0.83321 0.08492
 H685 H 0.46858 0.92996 0.14810
 H686 H 0.46781 0.96310 0.17373
 H687 H 0.52696 0.94042 0.19838
 H688 H 0.52787 0.90710 0.17263
 H689 H 0.46754 0.84338 0.08922
 H690 H 0.47006 0.81495 0.05856
 H691 H 0.54065 0.80968 0.06127
 H692 H 0.53825 0.83828 0.09193
 C693 C 0.02184 0.33942 0.57277
 C694 C 0.00717 0.32125 0.57455
 C695 C 0.00318 0.30741 0.55604
 C696 C 0.01374 0.31149 0.53540
 C697 C 0.02900 0.32910 0.53379
 C698 C 0.03300 0.34289 0.55222
 C699 C 0.02478 0.35535 0.59188
 N700 N 0.03716 0.37405 0.58938
 N701 N 0.03893 0.38908 0.60616
 C702 C 0.02842 0.38606 0.62620
 N703 N 0.01622 0.36723 0.62880
 N704 N 0.01441 0.35220 0.61198
 C705 C 0.02958 0.40345 0.64452
 C706 C 0.02053 0.39974 0.66581
 C707 C 0.02085 0.41661 0.68279
 C708 C 0.03014 0.43760 0.67884
 C709 C 0.03940 0.44116 0.65759
 C710 C 0.03921 0.42429 0.64069
 H711 H -0.00167 0.31807 0.59013
 H712 H -0.00874 0.29400 0.55775
 H713 H 0.03770 0.33238 0.51815
 H714 H 0.04457 0.35655 0.55023
 H715 H 0.01309 0.38383 0.66935
 H716 H 0.01386 0.41320 0.69902
 H717 H 0.04631 0.45723 0.65384
 H718 H 0.04622 0.42781 0.62449
 C719 C 0.48476 0.08922 0.84204
 C720 C 0.46963 0.07164 0.84508
 C721 C 0.47132 0.05222 0.83101
 C722 C 0.48806 0.04991 0.81347
 C723 C 0.50262 0.06779 0.80974
 C724 C 0.50105 0.08726 0.82397
 C725 C 0.48414 0.10874 0.85844
 N726 N 0.49997 0.12485 0.85726
 N727 N 0.50016 0.14142 0.87298
 C728 C 0.48456 0.14254 0.89055
 N729 N 0.46859 0.12662 0.89152
 N730 N 0.46838 0.11011 0.87583
 C731 C 0.48558 0.15983 0.90898
 C732 C 0.47118 0.15862 0.92823
 C733 C 0.47309 0.17367 0.94634
 C734 C 0.48933 0.19041 0.94562
 C735 C 0.50324 0.19223 0.92617
 C736 C 0.50146 0.17699 0.90803
 H737 H 0.45677 0.07256 0.85870
 H738 H 0.45968 0.03879 0.83403
 H739 H 0.51569 0.06637 0.79631
 H740 H 0.51291 0.10052 0.82110
 H741 H 0.45868 0.14572 0.92956
 H742 H 0.46192 0.17213 0.96101
 H743 H 0.51593 0.20497 0.92523
 H744 H 0.51276 0.17844 0.89344
 C745 C 0.99821 0.65612 0.42194
 C746 C 0.98185 0.67250 0.42868
 C747 C 0.98324 0.68665 0.44761
 C748 C 1.00089 0.68456 0.46028
 C749 C 1.01733 0.66836 0.45344
 C750 C 1.01607 0.65436 0.43445
 C751 C 0.99649 0.64059 0.40229
 N752 N 1.01364 0.62683 0.39419
 N753 N 1.01192 0.61237 0.37696
 C754 C 0.99294 0.61098 0.36710
 N755 N 0.97580 0.62482 0.37512
 N756 N 0.97756 0.63935 0.39233
 C757 C 0.99080 0.59423 0.34846
 C758 C 0.97011 0.59004 0.34063
 C759 C 0.96794 0.57339 0.32381
 C760 C 0.98643 0.56073 0.31433
 C761 C 1.00719 0.56525 0.32181
 C762 C 1.00934 0.58176 0.33872
 H763 H 0.96791 0.67433 0.41940
 H764 H 0.97027 0.69892 0.45260
 H765 H 1.03125 0.66657 0.46279
 H766 H 1.02896 0.64195 0.42975
 H767 H 0.95549 0.59934 0.34775
 H768 H 0.95178 0.57040 0.31822
 H769 H 1.02169 0.55559 0.31498
 H770 H 1.02553 0.58457 0.34430
 C771 C 1.15145 0.49225 0.06405
 C772 C 1.14699 0.50562 0.04749
 C773 C 1.16272 0.50821 0.02974
 C774 C 1.18356 0.49732 0.02770
 C775 C 1.18805 0.48416 0.04468
 C776 C 1.17222 0.48168 0.06255
 C777 C 1.13433 0.48942 0.08261
 N778 N 1.13910 0.47924 0.10038
 N779 N 1.12357 0.47696 0.11702
 C780 C 1.10260 0.48469 0.11652
 N781 N 1.09786 0.49477 0.09871
 N782 N 1.11337 0.49710 0.08215
 C783 C 1.08524 0.48256 0.13503
 C784 C 1.06316 0.48847 0.13315
 C785 C 1.04681 0.48727 0.15068
 C786 C 1.05210 0.48025 0.17062
 C787 C 1.07410 0.47397 0.17243
 C788 C 1.09049 0.47509 0.15481
 H789 H 1.13132 0.51438 0.04830
 H790 H 1.15855 0.51955 0.01810
 H791 H 1.20336 0.47485 0.04394
 H792 H 1.17615 0.47115 0.07501
 H793 H 1.05844 0.49409 0.11810
 H794 H 1.02995 0.49178 0.14858
 H795 H 1.07875 0.46868 0.18763
 H796 H 1.10734 0.47045 0.15683
 C797 C 0.57501 0.01760 0.66140
 C798 C 0.55541 0.02909 0.65895
 C799 C 0.53653 0.02726 0.67370
 C800 C 0.53675 0.01388 0.69125
 C801 C 0.55660 0.00322 0.69436
 C802 C 0.57556 0.00504 0.67955
 C803 C 0.59420 0.01779 0.64438
 N804 N 0.61351 0.00724 0.64657
 N805 N 0.63019 0.00639 0.63061
 C806 C 0.62821 0.01597 0.61176
 N807 N 0.60898 0.02668 0.60968
 N808 N 0.59236 0.02757 0.62563
 C809 C 0.64621 0.01415 0.59347
 C810 C 0.64236 0.02058 0.57287
 C811 C 0.65892 0.01820 0.55533
 C812 C 0.67986 0.00951 0.55795
 C813 C 0.68382 0.00327 0.57862
 C814 C 0.66716 0.00551 0.59617
 H815 H 0.55442 0.03914 0.64534
 H816 H 0.52157 0.03602 0.67115
 H817 H 0.55720 -0.00727 0.70771
 H818 H 0.59041 -0.00397 0.68197
 H819 H 0.62638 0.02712 0.57012
 H820 H 0.65510 0.02275 0.53957
 H821 H 0.69985 -0.00320 0.58129
 H822 H 0.67071 0.00049 0.61185
 C823 C -0.14818 0.50958 0.92975
 C824 C -0.14211 0.50014 0.94825
 C825 C -0.15738 0.49847 0.96655
 C826 C -0.17942 0.50628 0.96715
 C827 C -0.18546 0.51556 0.94833
 C828 C -0.17006 0.51720 0.92995
 C829 C -0.13160 0.51132 0.91050
 N830 N -0.13728 0.51904 0.89180
 N831 N -0.12219 0.52040 0.87460
 C832 C -0.10080 0.51413 0.87542
 N833 N -0.09517 0.50648 0.89414
 N834 N -0.11022 0.50510 0.91127
 C835 C -0.08384 0.51536 0.85639
 C836 C -0.06167 0.50963 0.85810
 C837 C -0.04561 0.51026 0.84026
 C838 C -0.05124 0.51658 0.82018
 C839 C -0.07333 0.52261 0.81847
 C840 C -0.08948 0.52198 0.83640
 H841 H -0.12549 0.49376 0.94861
 H842 H -0.15184 0.49009 0.97981
 H843 H -0.20181 0.52247 0.94785
 H844 H -0.17527 0.52468 0.91599
 H845 H -0.05664 0.50462 0.87325
 H846 H -0.02866 0.50598 0.84226
 H847 H -0.07820 0.52742 0.80318
 H848 H -0.10639 0.52650 0.83452
 C849 C 0.42385 0.00714 0.34656
 C850 C 0.42199 -0.00448 0.32616
 C851 C 0.44053 -0.00753 0.31066
 C852 C 0.46131 0.00100 0.31525
 C853 C 0.46298 0.01328 0.33534
 C854 C 0.44450 0.01628 0.35081
 C855 C 0.40474 0.00899 0.36371
 N856 N 0.40747 0.01771 0.38420
 N857 N 0.39065 0.01852 0.39995
 C858 C 0.37032 0.01067 0.39590
 N859 N 0.36750 0.00212 0.37536
 N860 N 0.38437 0.00126 0.35960
 C861 C 0.35190 0.01089 0.41373
 C862 C 0.33021 0.00514 0.40938
 C863 C 0.31303 0.00490 0.42639
 C864 C 0.31720 0.01032 0.44813
 C865 C 0.33889 0.01611 0.45242
 C866 C 0.35599 0.01648 0.43545
 H867 H 0.40634 -0.01173 0.32234
 H868 H 0.43878 -0.01719 0.29538
 H869 H 0.47866 0.02043 0.33918
 H870 H 0.44651 0.02553 0.36625
 H871 H 0.32646 0.00083 0.39283
 H872 H 0.29646 0.00064 0.42249
 H873 H 0.34281 0.01994 0.46898
 H874 H 0.37251 0.02082 0.43944
 C875 C 0.17914 0.52195 0.91260
 C876 C 0.17247 0.53418 0.93258
 C877 C 0.18231 0.53032 0.95129
 C878 C 0.19912 0.51420 0.95051
 C879 C 0.20666 0.50275 0.93038
 C880 C 0.19672 0.50655 0.91158
 C881 C 0.16677 0.52435 0.89349
 N882 N 0.17245 0.51232 0.87411
 N883 N 0.16024 0.51344 0.85754
 C884 C 0.14180 0.52657 0.85969
 N885 N 0.13634 0.53878 0.87896
 N886 N 0.14854 0.53770 0.89547
 C887 C 0.12725 0.52684 0.84192
 C888 C 0.10621 0.53697 0.84604
 C889 C 0.09185 0.53637 0.82984
 C890 C 0.09818 0.52583 0.80897
 C891 C 0.11938 0.51598 0.80470
 C892 C 0.13373 0.51642 0.82103
 H893 H 0.15916 0.54634 0.93398
 H894 H 0.17644 0.53964 0.96655
 H895 H 0.21956 0.49018 0.92937
 H896 H 0.20233 0.49690 0.89645
 H897 H 0.10055 0.54498 0.86198
 H898 H 0.07550 0.54368 0.83393
 H899 H 0.12490 0.50797 0.78874
 H900 H 0.14986 0.50853 0.81729
 C901 C 0.57998 -0.02454 0.32308
 C902 C 0.58046 -0.01124 0.30534
 C903 C 0.56144 -0.00876 0.29476
 C904 C 0.54161 -0.01949 0.30174
 C905 C 0.54151 -0.03373 0.31863
 C906 C 0.56045 -0.03624 0.32917
 C907 C 0.59903 -0.02505 0.33621
 N908 N 0.59708 -0.03529 0.35508
 N909 N 0.61343 -0.03443 0.36785
 C910 C 0.63249 -0.02332 0.36232
 N911 N 0.63462 -0.01332 0.34328
 N912 N 0.61821 -0.01412 0.33052
 C913 C 0.65005 -0.02139 0.37730
 C914 C 0.67107 -0.01273 0.37070
 C915 C 0.68728 -0.01040 0.38523
 C916 C 0.68276 -0.01653 0.40673
 C917 C 0.66172 -0.02517 0.41324
 C918 C 0.64564 -0.02768 0.39871
 H919 H 0.59525 -0.00206 0.30017
 H920 H 0.56194 0.00240 0.28183
 H921 H 0.52654 -0.04251 0.32408
 H922 H 0.55953 -0.04685 0.34256
 H923 H 0.67503 -0.00780 0.35429
 H924 H 0.70339 -0.00395 0.37958
 H925 H 0.65744 -0.02960 0.42978
 H926 H 0.62957 -0.03419 0.40444
 C927 C 0.82498 0.49808 0.08666
 C928 C 0.80971 0.48183 0.08006
 C929 C 0.80037 0.48297 0.06044
 C930 C 0.80635 0.50020 0.04694
 C931 C 0.82121 0.51666 0.05374
 C932 C 0.83034 0.51568 0.07340
 C933 C 0.83599 0.49638 0.10673
 N934 N 0.84848 0.51352 0.11435
 N935 N 0.85943 0.51171 0.13164
 C936 C 0.85845 0.49264 0.14208
 N937 N 0.84579 0.47554 0.13461
 N938 N 0.83475 0.47738 0.11731
 C939 C 0.87187 0.49032 0.16046
 C940 C 0.87364 0.46968 0.16939
 C941 C 0.88780 0.46725 0.18551
 C942 C 0.90036 0.48542 0.19312
 C943 C 0.89805 0.50619 0.18464
 C944 C 0.88400 0.50860 0.16854
 H945 H 0.80517 0.46811 0.08993
 H946 H 0.78898 0.47005 0.05549
 H947 H 0.82587 0.53026 0.04373
 H948 H 0.84200 0.52850 0.07795
 H949 H 0.86450 0.45526 0.16358
 H950 H 0.88907 0.45109 0.19188
 H951 H 0.90774 0.52044 0.18987
 H952 H 0.88305 0.52475 0.16209
 C953 C 0.41754 -0.00737 0.67504
 C954 C 0.41672 0.00558 0.69512
 C955 C 0.43558 0.00791 0.70634
 C956 C 0.45561 -0.00264 0.69768
 C957 C 0.45615 -0.01628 0.67807
 C958 C 0.43737 -0.01861 0.66688
 C959 C 0.39834 -0.00833 0.66203
 N960 N 0.40036 -0.01848 0.64148
 N961 N 0.38365 -0.01840 0.62920
 C962 C 0.36413 -0.00818 0.63692
 N963 N 0.36196 0.00178 0.65758
 N964 N 0.37874 0.00174 0.66987
 C965 C 0.34600 -0.00733 0.62272
 C966 C 0.32473 0.00055 0.63111
 C967 C 0.30793 0.00174 0.61737
 C968 C 0.31207 -0.00484 0.59495
 C969 C 0.33336 -0.01269 0.58665
 C970 C 0.35004 -0.01403 0.60035
 H971 H 0.40172 0.01443 0.70189
 H972 H 0.43471 0.01864 0.72136
 H973 H 0.47123 -0.02496 0.67121
 H974 H 0.43856 -0.02892 0.65159
 H975 H 0.32105 0.00578 0.64828
 H976 H 0.29165 0.00764 0.62434
 H977 H 0.33734 -0.01740 0.56941
 H978 H 0.36627 -0.01998 0.59327
   
