data_POSCAR
  _audit_creation_date              2014-09-24
  _audit_creation_method            'ToBaCCo'
  _symmetry_space_group_name_H-M    'P1'
  _symmetry_Int_Tables_number       1
  _symmetry_cell_setting            triclinic
  loop_
  _symmetry_equiv_pos_as_xyz
 x,y,z
_cell_length_a 53.5310
_cell_length_b 52.8721
_cell_length_c 53.5673
_cell_angle_alpha 89.980100
_cell_angle_beta 90.012900
_cell_angle_gamma 89.998800
loop_
  _atom_site_label
  _atom_site_type_symbol
  _atom_site_fract_x
  _atom_site_fract_y
  _atom_site_fract_z
N1 N 0.59657 0.66498 0.61392
 N2 N 0.58677 0.65463 0.63400
 C3 C 0.56647 0.66802 0.64085
 C4 C 0.56358 0.68764 0.62417
 C5 C 0.58287 0.68527 0.60732
 H6 H 0.55468 0.66387 0.65672
 H7 H 0.58664 0.69738 0.59148
 Cu8 Cu 0.60154 0.62469 0.64911
 Cu9 Cu 0.62630 0.65139 0.59782
 Cu10 Cu 0.65291 0.59800 0.62449
 N11 N 0.61662 0.59475 0.66391
 N12 N 0.63674 0.58440 0.65416
 C13 C 0.64332 0.56409 0.66785
 C14 C 0.62639 0.56174 0.68708
 C15 C 0.60969 0.58136 0.68418
 H16 H 0.65917 0.55199 0.66410
 H17 H 0.59377 0.58551 0.69592
 N18 N 0.66652 0.61453 0.59444
 N19 N 0.65639 0.63487 0.58429
 C20 C 0.66988 0.64160 0.56411
 C21 C 0.68928 0.62470 0.56160
 C22 C 0.68673 0.60780 0.58099
 H23 H 0.66595 0.65757 0.55212
 H24 H 0.69872 0.59182 0.58494
 H25 H 0.62131 0.61443 0.60937
 H26 H 0.64135 0.63496 0.62944
 N27 N 0.90395 0.33425 0.11382
 N28 N 0.91341 0.34424 0.13425
 C29 C 0.93364 0.33078 0.14120
 C30 C 0.93681 0.31150 0.12421
 C31 C 0.91780 0.31411 0.10707
 H32 H 0.94517 0.33468 0.15733
 H33 H 0.91430 0.30230 0.09096
 Cu34 Cu 0.89837 0.37385 0.14971
 Cu35 Cu 0.87446 0.34807 0.09750
 Cu36 Cu 0.84787 0.40145 0.12409
 N37 N 0.88356 0.40413 0.16408
 N38 N 0.86381 0.41483 0.15396
 C39 C 0.85742 0.43531 0.16746
 C40 C 0.87407 0.43745 0.18696
 C41 C 0.89042 0.41749 0.18438
 H42 H 0.84186 0.44772 0.16342
 H43 H 0.90608 0.41311 0.19638
 N44 N 0.83445 0.38513 0.09386
 N45 N 0.84458 0.36479 0.08373
 C46 C 0.83121 0.35817 0.06344
 C47 C 0.81189 0.37516 0.06083
 C48 C 0.81436 0.39198 0.08028
 H49 H 0.83514 0.34221 0.05146
 H50 H 0.80238 0.40796 0.08421
 H51 H 0.87970 0.38482 0.10963
 H52 H 0.85890 0.36431 0.12896
 N53 N 0.40370 0.16554 -0.11371
 N54 N 0.41347 0.15517 -0.13379
 C55 C 0.43379 0.16851 -0.14066
 C56 C 0.43674 0.18813 -0.12399
 C57 C 0.41744 0.18580 -0.10713
 H58 H 0.44556 0.16435 -0.15654
 H59 H 0.41370 0.19793 -0.09131
 Cu60 Cu 0.39860 0.12529 -0.14889
 Cu61 Cu 0.37392 0.15205 -0.09761
 Cu62 Cu 0.34713 0.09877 -0.12428
 N63 N 0.38342 0.09541 -0.16369
 N64 N 0.36327 0.08513 -0.15395
 C65 C 0.35665 0.06485 -0.16763
 C66 C 0.37357 0.06241 -0.18685
 C67 C 0.39032 0.08198 -0.18393
 H68 H 0.34077 0.05279 -0.16390
 H69 H 0.40625 0.08605 -0.19566
 N70 N 0.33357 0.11533 -0.09424
 N71 N 0.34378 0.13562 -0.08408
 C72 C 0.33031 0.14238 -0.06390
 C73 C 0.31085 0.12554 -0.06139
 C74 C 0.31334 0.10865 -0.08079
 H75 H 0.33430 0.15831 -0.05190
 H76 H 0.30130 0.09272 -0.08474
 H77 H 0.37879 0.11508 -0.10916
 H78 H 0.35882 0.13569 -0.12923
 N79 N 0.09546 0.83454 0.38645
 N80 N 0.08570 0.84488 0.36633
 C81 C 0.06540 0.83150 0.35943
 C82 C 0.06250 0.81191 0.37615
 C83 C 0.08175 0.81425 0.39306
 H84 H 0.05366 0.83564 0.34351
 H85 H 0.08550 0.80215 0.40891
 Cu86 Cu 0.10055 0.87476 0.35120
 Cu87 Cu 0.12520 0.84808 0.40257
 Cu88 Cu 0.15197 0.90137 0.37586
 N89 N 0.11572 0.90465 0.33638
 N90 N 0.13584 0.91496 0.34614
 C91 C 0.14246 0.93523 0.33243
 C92 C 0.12557 0.93763 0.31317
 C93 C 0.10884 0.91804 0.31610
 H94 H 0.15833 0.94732 0.33618
 H95 H 0.09292 0.91394 0.30434
 N96 N 0.16552 0.88485 0.40594
 N97 N 0.15532 0.86455 0.41612
 C98 C 0.16880 0.85781 0.43631
 C99 C 0.18824 0.87466 0.43881
 C100 C 0.18574 0.89154 0.41939
 H101 H 0.16482 0.84187 0.44832
 H102 H 0.19778 0.90747 0.41542
 H103 H 0.12031 0.88503 0.39095
 H104 H 0.14032 0.86443 0.37094
 C105 C 0.11343 0.14674 0.11459
 C106 C 0.13490 0.13602 0.10396
 C107 C 0.14564 0.11476 0.11464
 C108 C 0.13503 0.10396 0.13608
 C109 C 0.11382 0.11455 0.14658
 C110 C 0.10295 0.13606 0.13578
 C111 C 0.09903 0.16733 0.10822
 N112 N 0.08023 0.16925 0.12503
 C113 C 0.08234 0.15034 0.14195
 C114 C 0.10767 0.10019 0.16713
 N115 N 0.12464 0.08131 0.16919
 C116 C 0.14145 0.08333 0.15041
 C117 C 0.16617 0.10850 0.10044
 N118 N 0.16798 0.12545 0.08157
 C119 C 0.14907 0.14235 0.08344
 H120 H 0.10195 0.17997 0.09258
 H121 H 0.06982 0.14724 0.15753
 H122 H 0.09207 0.10320 0.17965
 H123 H 0.15712 0.07073 0.14745
 H124 H 0.17883 0.09284 0.10355
 H125 H 0.14591 0.15802 0.07081
 C126 C 0.38592 0.85341 0.61460
 C127 C 0.36443 0.86411 0.60399
 C128 C 0.35368 0.88535 0.61468
 C129 C 0.36429 0.89613 0.63612
 C130 C 0.38553 0.88555 0.64661
 C131 C 0.39641 0.86406 0.63579
 C132 C 0.40034 0.83283 0.60822
 N133 N 0.41915 0.83091 0.62501
 C134 C 0.41703 0.84980 0.64195
 C135 C 0.39167 0.89988 0.66718
 N136 N 0.37468 0.91874 0.66925
 C137 C 0.35786 0.91673 0.65047
 C138 C 0.33313 0.89160 0.60050
 N139 N 0.33131 0.87467 0.58162
 C140 C 0.35025 0.85779 0.58347
 H141 H 0.39741 0.82021 0.59257
 H142 H 0.42956 0.85288 0.65753
 H143 H 0.40728 0.89687 0.67969
 H144 H 0.34217 0.92931 0.64753
 H145 H 0.32045 0.90724 0.60363
 H146 H 0.35341 0.84213 0.57084
 C147 C 0.88655 0.64643 0.38555
 C148 C 0.86515 0.63560 0.39621
 C149 C 0.85447 0.61432 0.38552
 C150 C 0.86507 0.60362 0.36404
 C151 C 0.88622 0.61432 0.35351
 C152 C 0.89702 0.63585 0.36432
 C153 C 0.90087 0.66708 0.39191
 N154 N 0.91962 0.66912 0.37507
 C155 C 0.91755 0.65024 0.35812
 C156 C 0.89236 0.60004 0.33290
 N157 N 0.87546 0.58111 0.33085
 C158 C 0.85869 0.58301 0.34968
 C159 C 0.83399 0.60796 0.39975
 N160 N 0.83214 0.62486 0.41864
 C161 C 0.85099 0.64184 0.41676
 H162 H 0.89793 0.67967 0.40758
 H163 H 0.93005 0.64724 0.34250
 H164 H 0.90791 0.60316 0.32034
 H165 H 0.84307 0.57035 0.35265
 H166 H 0.82137 0.59227 0.39663
 H167 H 0.85410 0.65751 0.42940
 C168 C 0.61438 0.35394 -0.11504
 C169 C 0.63588 0.36469 -0.10449
 C170 C 0.64657 0.38594 -0.11523
 C171 C 0.63590 0.39669 -0.13666
 C172 C 0.61465 0.38607 -0.14709
 C173 C 0.60383 0.36457 -0.13622
 C174 C 0.60001 0.33335 -0.10859
 N175 N 0.58116 0.33139 -0.12534
 C176 C 0.58321 0.35027 -0.14231
 C177 C 0.60844 0.40038 -0.16766
 N178 N 0.62539 0.41926 -0.16980
 C179 C 0.64226 0.41729 -0.15106
 C180 C 0.66714 0.39223 -0.10110
 N181 N 0.66903 0.37532 -0.08220
 C182 C 0.65012 0.35841 -0.08399
 H183 H 0.60299 0.32075 -0.09293
 H184 H 0.57064 0.35333 -0.15786
 H185 H 0.59280 0.39733 -0.18013
 H186 H 0.65794 0.42990 -0.14816
 H187 H 0.67979 0.40790 -0.10427
 H188 H 0.64700 0.34276 -0.07132
 C189 C -0.00976 0.25861 0.12454
 N190 N 0.01469 0.26532 0.12436
 N191 N 0.03247 0.24768 0.12445
 C192 C 0.02634 0.22279 0.12473
 N193 N 0.00189 0.21608 0.12492
 N194 N -0.01590 0.23372 0.12482
 C195 C -0.02891 0.27760 0.12443
 C196 C -0.04501 0.29354 0.12433
 C197 C 0.04548 0.20379 0.12483
 C198 C 0.06155 0.18782 0.12492
 C199 C 0.50916 0.74157 0.62450
 N200 N 0.51529 0.76646 0.62486
 N201 N 0.49751 0.78410 0.62495
 C202 C 0.47306 0.77739 0.62469
 N203 N 0.46692 0.75250 0.62433
 N204 N 0.48471 0.73486 0.62424
 C205 C 0.52831 0.72258 0.62439
 C206 C 0.54440 0.70663 0.62429
 C207 C 0.45391 0.79638 0.62479
 C208 C 0.43784 0.81234 0.62489
 C209 C 1.00921 0.75889 0.37567
 N210 N 0.99681 0.75295 0.39696
 N211 N 0.97910 0.73524 0.39683
 C212 C 0.97325 0.72292 0.37540
 N213 N 0.98565 0.72886 0.35411
 N214 N 1.00336 0.74657 0.35424
 C215 C 1.02831 0.77793 0.37582
 C216 C 1.04437 0.79391 0.37597
 C217 C 0.95421 0.70383 0.37527
 C218 C 0.93821 0.68778 0.37517
 C219 C 0.49119 0.24202 -0.12448
 N220 N 0.51384 0.23707 -0.13471
 N221 N 0.53162 0.25472 -0.13487
 C222 C 0.52729 0.27784 -0.12480
 N223 N 0.50464 0.28278 -0.11456
 N224 N 0.48686 0.26514 -0.11440
 C225 C 0.47203 0.22304 -0.12431
 C226 C 0.45593 0.20710 -0.12417
 C227 C 0.54643 0.29684 -0.12498
 C228 C 0.56249 0.31281 -0.12515
 C229 C 0.12518 -0.00836 0.25885
 N230 N 0.14336 -0.00788 0.24122
 N231 N 0.14325 0.00982 0.22349
 C232 C 0.12497 0.02756 0.22286
 N233 N 0.10679 0.02708 0.24049
 N234 N 0.10689 0.00939 0.25821
 C235 C 0.12530 -0.02739 0.27795
 C236 C 0.12542 -0.04336 0.29402
 C237 C 0.12487 0.04663 0.20380
 C238 C 0.12477 0.06266 0.18779
 C239 C 0.62592 0.50877 -0.25961
 N240 N 0.60990 0.48895 -0.26098
 N241 N 0.60978 0.47127 -0.24323
 C242 C 0.62568 0.47289 -0.22358
 N243 N 0.64170 0.49272 -0.22220
 N244 N 0.64182 0.51039 -0.23995
 C245 C 0.62607 0.52778 -0.27873
 C246 C 0.62621 0.54375 -0.29480
 C247 C 0.62556 0.45386 -0.20448
 C248 C 0.62548 0.43786 -0.18844
 C249 C 0.37400 1.00833 0.75892
 N250 N 0.35818 0.98835 0.76026
 N251 N 0.35830 0.97065 0.74254
 C252 C 0.37426 0.97242 0.72296
 N253 N 0.39009 0.99240 0.72162
 N254 N 0.38996 1.01010 0.73933
 C255 C 0.37386 1.02738 0.77800
 C256 C 0.37373 1.04337 0.79403
 C257 C 0.37440 0.95337 0.70389
 C258 C 0.37452 0.93735 0.68787
 C259 C 0.87469 0.49158 0.24112
 N260 N 0.89310 0.49202 0.25851
 N261 N 0.89327 0.50971 0.27623
 C262 C 0.87503 0.52750 0.27709
 N263 N 0.85662 0.52706 0.25969
 N264 N 0.85646 0.50937 0.24197
 C265 C 0.87450 0.47253 0.22205
 C266 C 0.87432 0.45652 0.20604
 C267 C 0.87519 0.54653 0.29617
 C268 C 0.87531 0.56253 0.31220
 C269 C 0.25704 0.12557 -0.00756
 N270 N 0.26070 0.11297 0.01420
 N271 N 0.24311 0.11295 0.03180
 C272 C 0.22132 0.12554 0.02818
 N273 N 0.21766 0.13814 0.00642
 N274 N 0.23526 0.13815 -0.01118
 C275 C 0.27597 0.12557 -0.02651
 C276 C 0.29188 0.12556 -0.04243
 C277 C 0.20238 0.12550 0.04712
 C278 C 0.18647 0.12547 0.06305
 C279 C 0.74313 0.62472 0.50780
 N280 N 0.75227 0.64685 0.49884
 N281 N 0.76986 0.64687 0.48123
 C282 C 0.77883 0.62476 0.47206
 N283 N 0.76969 0.60262 0.48102
 N284 N 0.75210 0.60260 0.49863
 C285 C 0.72418 0.62470 0.52675
 C286 C 0.70826 0.62469 0.54265
 C287 C 0.79776 0.62478 0.45310
 C288 C 0.81366 0.62481 0.43717
 C289 C 0.75818 0.37534 0.00687
 N290 N 0.76189 0.36289 -0.01495
 N291 N 0.74429 0.36290 -0.03256
 C292 C 0.72246 0.37537 -0.02888
 N293 N 0.71875 0.38783 -0.00707
 N294 N 0.73635 0.38782 0.01054
 C295 C 0.77710 0.37529 0.02584
 C296 C 0.79298 0.37524 0.04180
 C297 C 0.70350 0.37536 -0.04782
 C298 C 0.68757 0.37534 -0.06373
 C299 C 0.24213 0.87460 0.49258
 N300 N 0.23691 0.86624 0.51595
 N301 N 0.25453 0.86625 0.53353
 C302 C 0.27790 0.87461 0.52828
 N303 N 0.28312 0.88297 0.50492
 N304 N 0.26550 0.88297 0.48733
 C305 C 0.22317 0.87461 0.47365
 C306 C 0.20723 0.87462 0.45775
 C307 C 0.29686 0.87461 0.54722
 C308 C 0.31279 0.87463 0.56313
   
