data_POSCAR
  _audit_creation_date              2014-09-24
  _audit_creation_method            'ToBaCCo'
  _symmetry_space_group_name_H-M    'P1'
  _symmetry_Int_Tables_number       1
  _symmetry_cell_setting            triclinic
  loop_
  _symmetry_equiv_pos_as_xyz
 x,y,z
_cell_length_a 33.0599
_cell_length_b 32.8995
_cell_length_c 32.5607
_cell_angle_alpha 90.614100
_cell_angle_beta 90.127700
_cell_angle_gamma 89.752500
loop_
  _atom_site_label
  _atom_site_type_symbol
  _atom_site_fract_x
  _atom_site_fract_y
  _atom_site_fract_z
C1 C 0.39486 0.22273 -0.02304
 C2 C 0.39457 0.22175 0.01876
 C3 C 0.37757 0.25812 0.03210
 N4 N 0.36773 0.28142 -0.00061
 C5 C 0.38003 0.26052 -0.03447
 C6 C 0.37160 0.26866 0.07398
 C7 C 0.35033 0.30354 0.08748
 C8 C 0.33439 0.30858 0.12659
 C9 C 0.31527 0.34569 0.12740
 C10 C 0.32020 0.36226 0.08878
 N11 N 0.34200 0.33663 0.06478
 C12 C 0.30500 0.40031 0.07668
 C13 C 0.30461 0.41307 0.03543
 C14 C 0.29729 0.45262 0.02322
 C15 C 0.29316 0.45132 -0.01858
 C16 C 0.29819 0.41099 -0.03058
 N17 N 0.30550 0.38765 0.00251
 C18 C 0.29201 0.39596 -0.07098
 C19 C 0.30916 0.35828 -0.08439
 C20 C 0.29925 0.33701 -0.12013
 C21 C 0.32391 0.30322 -0.12190
 C22 C 0.34707 0.30365 -0.08643
 N23 N 0.33806 0.33721 -0.06383
 C24 C 0.37618 0.27394 -0.07584
 H25 H 0.40407 0.19764 -0.04267
 H26 H 0.40501 0.19639 0.03682
 H27 H 0.35356 0.34678 -0.03761
 H28 H 0.33556 0.28729 0.15169
 H29 H 0.29916 0.35866 0.15334
 H30 H 0.29426 0.47942 0.04256
 H31 H 0.28678 0.47704 -0.03799
 H32 H 0.32330 0.27996 -0.14564
 H33 H 0.35332 0.34294 0.03582
 H34 H 0.27600 0.34400 -0.14235
 C35 C 0.73415 0.55753 0.02446
 C36 C 0.74057 0.56258 -0.01667
 C37 C 0.72478 0.60039 -0.02645
 N38 N 0.70915 0.61870 0.00729
 C39 C 0.71514 0.59264 0.03855
 C40 C 0.72879 0.61896 -0.06501
 C41 C 0.70482 0.65252 -0.07723
 C42 C 0.71150 0.67569 -0.11180
 C43 C 0.68096 0.70435 -0.11312
 C44 C 0.65640 0.69798 -0.07922
 N45 N 0.67105 0.66607 -0.05778
 C46 C 0.62118 0.72089 -0.06906
 C47 C 0.60286 0.71829 -0.02958
 C48 C 0.56287 0.72809 -0.02069
 C49 C 0.55817 0.72419 0.02083
 C50 C 0.59500 0.71106 0.03604
 N51 N 0.62234 0.70719 0.00525
 C52 C 0.60350 0.70540 0.07821
 C53 C 0.63530 0.68044 0.09196
 C54 C 0.64939 0.67871 0.13205
 C55 C 0.67904 0.64918 0.13270
 C56 C 0.68201 0.63381 0.09300
 N57 N 0.65499 0.65274 0.06851
 C58 C 0.70825 0.60229 0.08036
 H59 H 0.74337 0.53142 0.04220
 H60 H 0.75560 0.54111 -0.03700
 H61 H 0.64765 0.64470 0.03842
 H62 H 0.73590 0.67243 -0.13370
 H63 H 0.67768 0.72761 -0.13616
 H64 H 0.53925 0.73683 -0.04191
 H65 H 0.53065 0.72985 0.03790
 H66 H 0.69636 0.64007 0.15933
 H67 H 0.65680 0.65221 -0.03319
 H68 H 0.63934 0.69674 0.15811
 C69 C 0.55996 0.26285 0.98679
 C70 C 0.56263 0.25989 1.02855
 C71 C 0.59406 0.28501 1.04122
 N72 N 0.60961 0.30435 1.00834
 C73 C 0.58902 0.29055 0.97498
 C74 C 0.60577 0.29207 1.08275
 C75 C 0.63738 0.31895 1.09415
 C76 C 0.64204 0.33657 1.13271
 C77 C 0.67682 0.35941 1.13166
 C78 C 0.69332 0.35445 1.09265
 N79 N 0.66892 0.32962 1.07013
 C80 C 0.73065 0.37095 1.07875
 C81 C 0.74171 0.36623 1.03693
 C82 C 0.78075 0.36169 1.02191
 C83 C 0.77812 0.36412 0.97990
 C84 C 0.73749 0.36890 0.97078
 N85 N 0.71523 0.36976 1.00553
 C86 C 0.72128 0.37619 0.93142
 C87 C 0.68159 0.36434 0.92152
 C88 C 0.66070 0.37470 0.88614
 C89 C 0.62488 0.35362 0.88687
 C90 C 0.62491 0.33143 0.92284
 N91 N 0.65948 0.33814 0.94376
 C92 C 0.59482 0.30366 0.93414
 H93 H 0.53836 0.24685 0.96764
 H94 H 0.54256 0.24187 1.04702
 H95 H 0.66953 0.32200 0.96916
 H96 H 0.62227 0.33376 1.15894
 H97 H 0.68822 0.37728 1.15716
 H98 H 0.80829 0.35789 1.03953
 H99 H 0.80309 0.36266 0.95850
 H100 H 0.60155 0.35432 0.86351
 H101 H 0.67533 0.31752 1.04120
 H102 H 0.67036 0.39476 0.86198
 C103 C 0.25416 0.56728 1.00401
 C104 C 0.25849 0.56615 0.96228
 C105 C 0.27354 0.60364 0.95105
 N106 N 0.27897 0.62764 0.98470
 C107 C 0.26678 0.60550 1.01717
 C108 C 0.27995 0.61595 0.91005
 C109 C 0.30577 0.64833 0.90025
 C110 C 0.30896 0.66602 0.86193
 C111 C 0.33992 0.69385 0.86463
 C112 C 0.35466 0.69214 0.90448
 N113 N 0.33374 0.66434 0.92590
 C114 C 0.38842 0.71352 0.91961
 C115 C 0.39813 0.71493 0.96187
 C116 C 0.43600 0.72395 0.97758
 C117 C 0.43203 0.72516 1.01943
 C118 C 0.39159 0.71776 1.02792
 N119 N 0.37101 0.71081 0.99261
 C120 C 0.37358 0.71946 1.06746
 C121 C 0.33754 0.69788 1.07587
 C122 C 0.31238 0.70501 1.10925
 C123 C 0.28138 0.67731 1.10647
 C124 C 0.28870 0.65342 1.07187
 N125 N 0.32275 0.66654 1.05314
 C126 C 0.26489 0.61998 1.05831
 H127 H 0.24342 0.54245 1.02255
 H128 H 0.25156 0.54046 0.94253
 H129 H 0.33705 0.65255 1.02821
 H130 H 0.29126 0.65919 0.83474
 H131 H 0.35073 0.71265 0.83993
 H132 H 0.46362 0.72882 0.96061
 H133 H 0.45623 0.73076 1.04112
 H134 H 0.25596 0.67566 1.12724
 H135 H 0.34122 0.65359 0.95489
 H136 H 0.31548 0.72835 1.13271
 C137 C -0.00404 0.20976 0.36957
 C138 C 0.03733 0.21209 0.37117
 C139 C 0.04706 0.25263 0.36582
 N140 N 0.01296 0.27520 0.36193
 C141 C -0.01839 0.24914 0.36510
 C142 C 0.08637 0.26916 0.36852
 C143 C 0.09631 0.30617 0.34945
 C144 C 0.13258 0.32707 0.35318
 C145 C 0.13102 0.35860 0.32572
 C146 C 0.09426 0.35557 0.30542
 N147 N 0.07351 0.32358 0.31999
 C148 C 0.08265 0.37835 0.27091
 C149 C 0.04323 0.37561 0.25423
 C150 C 0.03200 0.38520 0.21448
 C151 C -0.00906 0.38018 0.21225
 C152 C -0.02207 0.37035 0.25137
 N153 N 0.01011 0.36651 0.27670
 C154 C -0.06292 0.36920 0.26482
 C155 C -0.07408 0.34413 0.29818
 C156 C -0.11015 0.34655 0.31986
 C157 C -0.10917 0.31627 0.34874
 C158 C -0.07254 0.29595 0.34407
 N159 N -0.05141 0.31322 0.31319
 C160 C -0.05955 0.26160 0.36681
 H161 H -0.02158 0.18217 0.37185
 H162 H 0.05766 0.18663 0.37531
 H163 H -0.02434 0.30244 0.30077
 H164 H 0.15850 0.31967 0.37196
 H165 H 0.15517 0.37985 0.31984
 H166 H 0.05076 0.39442 0.18922
 H167 H -0.02740 0.38449 0.18506
 H168 H -0.13267 0.31056 0.37098
 H169 H 0.04761 0.31105 0.30689
 H170 H -0.13451 0.36824 0.31598
 C171 C -0.02391 0.61132 0.77629
 C172 C 0.01747 0.60802 0.77401
 C173 C 0.02750 0.61312 0.73315
 N174 N -0.00626 0.61980 0.71046
 C175 C -0.03781 0.61791 0.73664
 C176 C 0.06684 0.61040 0.71627
 C177 C 0.07601 0.63131 0.67990
 C178 C 0.11024 0.62558 0.65593
 C179 C 0.10980 0.65577 0.62689
 C180 C 0.07527 0.67888 0.63399
 N181 N 0.05482 0.66361 0.66608
 C182 C 0.06597 0.71607 0.61510
 C183 C 0.02748 0.73477 0.61855
 C184 C 0.01819 0.77466 0.60862
 C185 C -0.02275 0.77916 0.61358
 C186 C -0.03751 0.74147 0.62446
 N187 N -0.00669 0.71459 0.62811
 C188 C -0.07881 0.73054 0.62663
 C189 C -0.09092 0.69548 0.64815
 C190 C -0.12825 0.67669 0.64458
 C191 C -0.12830 0.64510 0.67199
 C192 C -0.09103 0.64553 0.69178
 N193 N -0.06847 0.67626 0.67694
 C194 C -0.07900 0.61963 0.72415
 H195 H -0.04179 0.60922 0.80399
 H196 H 0.03779 0.60325 0.79962
 H197 H -0.04071 0.68586 0.68866
 H198 H 0.13364 0.60280 0.65957
 H199 H 0.13300 0.66096 0.60416
 H200 H 0.03827 0.79836 0.59860
 H201 H -0.03971 0.80692 0.60882
 H202 H -0.15304 0.62421 0.67649
 H203 H 0.03087 0.67781 0.68132
 H204 H -0.15286 0.68458 0.62417
 C205 C 1.03138 0.60903 0.22879
 C206 C 0.99036 0.60367 0.22861
 C207 C 0.97667 0.61656 0.26675
 N208 N 1.00824 0.62801 0.29076
 C209 C 1.04191 0.62256 0.26790
 C210 C 0.93611 0.61557 0.28022
 C211 C 0.92217 0.64077 0.31243
 C212 C 0.88350 0.64010 0.32866
 C213 C 0.88002 0.67383 0.35377
 C214 C 0.91705 0.69367 0.35289
 N215 N 0.94229 0.67337 0.32740
 C216 C 0.92576 0.73212 0.37044
 C217 C 0.96553 0.74794 0.37206
 C218 C 0.97531 0.78848 0.37839
 C219 C 1.01666 0.79030 0.38116
 C220 C 1.03090 0.75070 0.37804
 N221 N 0.99960 0.72492 0.37174
 C222 C 1.07179 0.73802 0.38279
 C223 C 1.08605 0.70266 0.36166
 C224 C 1.12253 0.68280 0.36899
 C225 C 1.12556 0.65166 0.34060
 C226 C 1.09076 0.65288 0.31679
 N227 N 1.06688 0.68399 0.32980
 C228 C 1.08197 0.62621 0.28348
 H229 H 1.05126 0.60279 0.20311
 H230 H 0.97307 0.59215 0.20287
 H231 H 1.04056 0.69396 0.31534
 H232 H 0.85947 0.61901 0.32125
 H233 H 0.85245 0.68331 0.36888
 H234 H 0.95507 0.81432 0.38040
 H235 H 1.03421 0.81779 0.38490
 H236 H 1.15031 0.63012 0.33839
 H237 H 0.96954 0.68450 0.31642
 H238 H 1.14470 0.68938 0.39258
 C239 C 0.97903 0.25330 0.56805
 C240 C 1.02034 0.25117 0.56975
 C241 C 1.03140 0.26455 0.60865
 N242 N 0.99828 0.27453 0.63092
 C243 C 0.96616 0.26737 0.60620
 C244 C 1.07122 0.26409 0.62416
 C245 C 1.08249 0.28711 0.65927
 C246 C 1.11774 0.28202 0.68177
 C247 C 1.11750 0.31151 0.71219
 C248 C 1.08212 0.33385 0.70733
 N249 N 1.06100 0.31872 0.67509
 C250 C 1.06982 0.36753 0.73185
 C251 C 1.02918 0.38126 0.73324
 C252 C 1.01718 0.41972 0.74657
 C253 C 0.97588 0.42027 0.74598
 C254 C 0.96379 0.38213 0.73254
 N255 N 0.99643 0.35831 0.72435
 C256 C 0.92315 0.36926 0.72946
 C257 C 0.91174 0.33649 0.70369
 C258 C 0.87391 0.31844 0.70288
 C259 C 0.87447 0.29023 0.67126
 C260 C 0.91262 0.29194 0.65376
 N261 N 0.93500 0.32027 0.67355
 C262 C 0.92531 0.26954 0.61891
 H263 H 0.96057 0.24490 0.54183
 H264 H 1.03999 0.24089 0.54517
 H265 H 0.96289 0.33112 0.66398
 H266 H 1.14100 0.25921 0.67712
 H267 H 1.14045 0.31549 0.73561
 H268 H 1.03627 0.44505 0.75531
 H269 H 0.95703 0.44613 0.75394
 H270 H 0.84952 0.27100 0.66195
 H271 H 1.03504 0.33165 0.66251
 H272 H 0.84843 0.32522 0.72265
 C273 C 0.20399 -0.01524 0.38925
 C274 C 0.20450 0.02608 0.38641
 C275 C 0.24160 0.03630 0.36981
 N276 N 0.26386 0.00222 0.36289
 C277 C 0.24163 -0.02936 0.37664
 C278 C 0.25406 0.07670 0.36221
 C279 C 0.28625 0.08698 0.33582
 C280 C 0.29002 0.12425 0.31680
 C281 C 0.32303 0.12136 0.29126
 C282 C 0.33912 0.08268 0.29608
 N283 N 0.31656 0.06206 0.32352
 C284 C 0.37423 0.06760 0.27612
 C285 C 0.38735 0.02680 0.27870
 C286 C 0.42556 0.01327 0.26748
 C287 C 0.42553 -0.02807 0.27173
 C288 C 0.38708 -0.03863 0.28477
 N289 N 0.36386 -0.00496 0.28928
 C290 C 0.37308 -0.07907 0.28851
 C291 C 0.33730 -0.08943 0.30967
 C292 C 0.32067 -0.12797 0.31016
 C293 C 0.28742 -0.12597 0.33540
 C294 C 0.28424 -0.08603 0.34956
 N295 N 0.31503 -0.06413 0.33379
 C296 C 0.25419 -0.07099 0.37711
 H297 H 0.17812 -0.03281 0.39874
 H298 H 0.17946 0.04581 0.39443
 H299 H 0.32297 -0.03482 0.34250
 H300 H 0.27006 0.15028 0.31976
 H301 H 0.33355 0.14506 0.27121
 H302 H 0.45085 0.03135 0.25732
 H303 H 0.45085 -0.04811 0.26540
 H304 H 0.26744 -0.15115 0.34130
 H305 H 0.32320 0.03385 0.33571
 H306 H 0.33133 -0.15486 0.29402
 C307 C 0.78131 0.01913 0.62643
 C308 C 0.78030 -0.02250 0.62864
 C309 C 0.73989 -0.03345 0.62663
 N310 N 0.71616 -0.00005 0.62430
 C311 C 0.74148 0.03205 0.62357
 C312 C 0.72487 -0.07358 0.62377
 C313 C 0.68769 -0.08341 0.64299
 C314 C 0.66725 -0.12013 0.63938
 C315 C 0.63447 -0.11777 0.66520
 C316 C 0.63501 -0.07939 0.68314
 N317 N 0.66760 -0.05878 0.66972
 C318 C 0.60729 -0.06525 0.71300
 C319 C 0.59952 -0.02332 0.72031
 C320 C 0.57083 -0.00801 0.74747
 C321 C 0.57069 0.03338 0.74325
 C322 C 0.59916 0.04232 0.71351
 N323 N 0.61625 0.00752 0.69907
 C324 C 0.60703 0.08193 0.69870
 C325 C 0.63620 0.09033 0.66848
 C326 C 0.63860 0.12616 0.64660
 C327 C 0.67292 0.12341 0.62273
 C328 C 0.69077 0.08619 0.63126
 N329 N 0.66813 0.06631 0.65909
 C330 C 0.72855 0.07232 0.61642
 H331 H 0.80820 0.03779 0.62659
 H332 H 0.80625 -0.04252 0.63098
 H333 H 0.67665 0.04007 0.67444
 H334 H 0.67473 -0.14629 0.62048
 H335 H 0.61258 -0.14162 0.66979
 H336 H 0.55087 -0.02469 0.76736
 H337 H 0.55094 0.05428 0.75954
 H338 H 0.68371 0.14655 0.60216
 H339 H 0.67778 -0.03107 0.68138
 H340 H 0.61795 0.15176 0.64795
 C341 C 0.23194 0.98536 0.60996
 C342 C 0.23170 1.02696 0.61066
 C343 C 0.26942 1.03919 0.62467
 N344 N 0.29178 1.00619 0.63494
 C345 C 0.26890 0.97320 0.62599
 C346 C 0.28397 1.07984 0.62635
 C347 C 0.31595 1.09034 0.65338
 C348 C 0.33977 1.12484 0.65054
 C349 C 0.36560 1.12460 0.68366
 C350 C 0.35686 1.09002 0.70592
 N351 N 0.32670 1.06920 0.68716
 C352 C 0.37482 1.07964 0.74382
 C353 C 0.37125 1.04031 0.76032
 C354 C 0.37862 1.02994 0.80078
 C355 C 0.37804 0.98829 0.80220
 C356 C 0.36932 0.97462 0.76271
 N357 N 0.36519 1.00655 0.73726
 C358 C 0.37011 0.93364 0.74933
 C359 C 0.35205 0.92098 0.71171
 C360 C 0.35427 0.88226 0.69438
 C361 C 0.32987 0.88229 0.65995
 C362 C 0.31298 0.92080 0.65744
 N363 N 0.32635 0.94393 0.68916
 C364 C 0.28226 0.93242 0.62968
 H365 H 0.20706 0.96675 0.59958
 H366 H 0.20627 1.04585 0.60203
 H367 H 0.31467 0.97219 0.69756
 H368 H 0.33902 1.14771 0.62692
 H369 H 0.38823 1.14738 0.69039
 H370 H 0.38471 1.05021 0.82643
 H371 H 0.38380 0.97040 0.82927
 H372 H 0.32392 0.85639 0.64011
 H373 H 0.31149 1.04426 0.69898
 H374 H 0.37028 0.85604 0.70592
 C375 C 0.74917 1.01248 0.42268
 C376 C 0.74741 0.97101 0.42024
 C377 C 0.72819 0.96161 0.38353
 N378 N 0.71853 0.99595 0.36312
 C379 C 0.73195 1.02720 0.38682
 C380 C 0.72327 0.92174 0.36798
 C381 C 0.69602 0.91200 0.33599
 C382 C 0.69590 0.87623 0.31311
 C383 C 0.66393 0.87903 0.28582
 C384 C 0.64530 0.91623 0.29329
 N385 N 0.66486 0.93583 0.32414
 C386 C 0.61026 0.93106 0.27336
 C387 C 0.59653 0.97130 0.27874
 C388 C 0.55726 0.98404 0.27142
 C389 C 0.55705 1.02537 0.27658
 C390 C 0.59660 1.03669 0.28539
 N391 N 0.62061 1.00340 0.28747
 C392 C 0.61083 1.07730 0.28801
 C393 C 0.64723 1.08720 0.30859
 C394 C 0.66777 1.12367 0.30476
 C395 C 0.70147 1.12113 0.32926
 C396 C 0.70068 1.08319 0.34752
 N397 N 0.66742 1.06274 0.33483
 C398 C 0.72982 1.06882 0.37579
 H399 H 0.76147 1.02972 0.44826
 H400 H 0.75875 0.95011 0.44303
 H401 H 0.65729 1.03506 0.34598
 H402 H 0.71677 0.85094 0.31567
 H403 H 0.65535 0.85623 0.26328
 H404 H 0.53148 0.96538 0.26334
 H405 H 0.53083 1.04492 0.27348
 H406 H 0.72431 1.14440 0.33257
 H407 H 0.65556 0.96255 0.33876
 H408 H 0.65994 1.14921 0.28561
 O409 O 0.82018 0.88237 0.52206
 O410 O 0.86106 0.81130 0.44613
 O411 O 0.80307 0.86290 0.44598
 O412 O 0.87491 0.82291 0.52176
 O413 O 0.82921 0.77938 0.54361
 O414 O 0.75814 0.81734 0.46475
 O415 O 0.81868 0.76397 0.46684
 O416 O 0.77479 0.83743 0.54134
 Cu417 Cu 0.84394 0.84994 0.48264
 Cu418 Cu 0.79033 0.79517 0.50591
 C419 C 0.79030 0.87268 0.54409
 C420 C 0.84805 0.77518 0.44449
 C421 C 0.76847 0.84661 0.44200
 C422 C 0.86490 0.79340 0.54443
 O423 O 0.14229 0.19965 0.45977
 O424 O 0.19301 0.12828 0.52697
 O425 O 0.14384 0.19385 0.54153
 O426 O 0.19333 0.14503 0.45242
 O427 O 0.24541 0.18611 0.46121
 O428 O 0.19443 0.23680 0.54863
 O429 O 0.24188 0.17223 0.53994
 O430 O 0.19118 0.24444 0.46934
 Cu431 Cu 0.16243 0.16334 0.49647
 Cu432 Cu 0.22337 0.21418 0.50573
 C433 C 0.15817 0.23372 0.45225
 C434 C 0.22638 0.13710 0.54386
 C435 C 0.15982 0.22450 0.55931
 C436 C 0.22819 0.15726 0.44184
 O437 O 0.11745 0.83083 0.56230
 O438 O 0.16604 0.89481 0.48588
 O439 O 0.10518 0.83763 0.48626
 O440 O 0.16727 0.88441 0.56647
 O441 O 0.21717 0.84154 0.55221
 O442 O 0.15314 0.79291 0.47154
 O443 O 0.21152 0.84738 0.47199
 O444 O 0.16338 0.78307 0.55014
 Cu445 Cu 0.13492 0.86747 0.52400
 Cu446 Cu 0.19115 0.81161 0.51009
 C447 C 0.13258 0.79619 0.56956
 C448 C 0.19730 0.88277 0.46669
 C449 C 0.11742 0.80656 0.46642
 C450 C 0.20239 0.87069 0.57363
 O451 O 0.84953 0.10268 0.44887
 O452 O 0.89326 0.15269 0.53959
 O453 O 0.83847 0.09831 0.52599
 O454 O 0.90500 0.15895 0.46134
 O455 O 0.85719 0.20540 0.45386
 O456 O 0.79350 0.14826 0.52715
 O457 O 0.84954 0.20332 0.53398
 O458 O 0.80063 0.14864 0.44816
 Cu459 Cu 0.87651 0.12360 0.49397
 Cu460 Cu 0.82063 0.18152 0.49014
 C461 C 0.81613 0.11562 0.43487
 C462 C 0.87946 0.18672 0.55182
 C463 C 0.80484 0.11289 0.53777
 C464 C 0.89273 0.19231 0.44653
 O465 O 0.54065 0.83461 0.88961
 O466 O 0.46285 0.88102 0.82340
 O467 O 0.46305 0.83221 0.88508
 O468 O 0.54099 0.88984 0.83201
 O469 O 0.54744 0.84080 0.78556
 O470 O 0.47023 0.78127 0.84088
 O471 O 0.47065 0.83105 0.77816
 O472 O 0.54905 0.78505 0.84412
 Cu473 Cu 0.50143 0.86452 0.86182
 Cu474 Cu 0.51031 0.80442 0.80778
 C475 C 0.55731 0.80135 0.87865
 C476 C 0.45369 0.86396 0.78938
 C477 C 0.45369 0.79690 0.87269
 C478 C 0.55656 0.87598 0.79922
 O479 O 0.52718 0.18302 0.13139
 O480 O 0.44897 0.13640 0.19555
 O481 O 0.44891 0.19179 0.13894
 O482 O 0.52432 0.12381 0.18244
 O483 O 0.53697 0.16847 0.23198
 O484 O 0.46090 0.23794 0.18713
 O485 O 0.46055 0.18187 0.24448
 O486 O 0.53867 0.22916 0.17978
 Cu487 Cu 0.48593 0.15454 0.15704
 Cu488 Cu 0.50047 0.20899 0.21578
 C489 C 0.54614 0.21407 0.14455
 C490 C 0.44216 0.15050 0.23141
 C491 C 0.44216 0.22642 0.15496
 C492 C 0.54291 0.13394 0.21491
 O493 O 0.55951 0.14067 0.81808
 O494 O 0.48201 0.18829 0.88200
 O495 O 0.48382 0.12563 0.83075
 O496 O 0.55595 0.20122 0.86851
 O497 O 0.53980 0.24199 0.81732
 O498 O 0.46407 0.16750 0.78193
 O499 O 0.46414 0.22980 0.83209
 O500 O 0.54051 0.17845 0.76568
 Cu501 Cu 0.52173 0.15954 0.85476
 Cu502 Cu 0.50064 0.20842 0.79374
 C503 C 0.56275 0.15067 0.78083
 C504 C 0.46126 0.21800 0.86900
 C505 C 0.46171 0.13359 0.79999
 C506 C 0.55934 0.23473 0.85007
 O507 O 0.45718 0.82806 0.11610
 O508 O 0.53176 0.87169 0.18798
 O509 O 0.53446 0.82514 0.12326
 O510 O 0.45411 0.88063 0.17623
 O511 O 0.44618 0.83062 0.22018
 O512 O 0.52475 0.77208 0.16304
 O513 O 0.52423 0.81946 0.22916
 O514 O 0.44646 0.77758 0.15886
 Cu515 Cu 0.49514 0.85665 0.14704
 Cu516 Cu 0.48456 0.79482 0.19715
 C517 C 0.43958 0.79504 0.12492
 C518 C 0.54097 0.85298 0.22075
 C519 C 0.54248 0.78886 0.13294
 C520 C 0.43678 0.86582 0.20724
 O521 O 0.88195 0.53530 0.82789
 O522 O 0.82292 0.47169 0.89501
 O523 O 0.87810 0.45805 0.83896
 O524 O 0.81688 0.54643 0.87363
 O525 O 0.77293 0.53381 0.82405
 O526 O 0.83581 0.44887 0.78711
 O527 O 0.78062 0.45718 0.84434
 O528 O 0.83826 0.52686 0.77704
 Cu529 Cu 0.85415 0.50413 0.86365
 Cu530 Cu 0.80246 0.49082 0.80326
 C531 C 0.87124 0.54131 0.79122
 C532 C 0.79210 0.45334 0.88157
 C533 C 0.86779 0.43915 0.80624
 C534 C 0.78350 0.55411 0.85549
 O535 O 0.12553 0.53720 0.18480
 O536 O 0.18857 0.47604 0.11649
 O537 O 0.13427 0.46043 0.16833
 O538 O 0.18414 0.55219 0.13055
 O539 O 0.23083 0.54775 0.17888
 O540 O 0.17704 0.45901 0.22062
 O541 O 0.23415 0.47008 0.16592
 O542 O 0.17239 0.53724 0.23330
 Cu543 Cu 0.15314 0.50788 0.14548
 Cu544 Cu 0.20818 0.50331 0.20481
 C545 C 0.13737 0.54692 0.22057
 C546 C 0.22187 0.46218 0.12961
 C547 C 0.14697 0.44433 0.20114
 C548 C 0.21735 0.56394 0.14638
 O549 O 0.83134 0.53974 0.11541
 O550 O 0.89634 0.46791 0.16923
 O551 O 0.83819 0.46414 0.10891
 O552 O 0.88667 0.54748 0.16470
 O553 O 0.84588 0.53746 0.21737
 O554 O 0.79403 0.45518 0.15878
 O555 O 0.85020 0.45800 0.21691
 O556 O 0.78561 0.53375 0.16443
 Cu557 Cu 0.86853 0.50332 0.13547
 Cu558 Cu 0.81444 0.49524 0.19449
 C559 C 0.79749 0.54935 0.13099
 C560 C 0.88523 0.45159 0.20243
 C561 C 0.80689 0.44694 0.12281
 C562 C 0.87463 0.55682 0.20045
 O563 O 0.17683 0.52804 0.86464
 O564 O 0.14282 0.43800 0.80831
 O565 O 0.20004 0.45271 0.86089
 O566 O 0.11962 0.51225 0.81179
 O567 O 0.16232 0.53002 0.76315
 O568 O 0.24096 0.46314 0.80861
 O569 O 0.18185 0.45306 0.75576
 O570 O 0.22200 0.53992 0.81639
 Cu571 Cu 0.15587 0.48134 0.84155
 Cu572 Cu 0.20603 0.49813 0.78080
 C573 C 0.20606 0.54858 0.85093
 C574 C 0.15494 0.43098 0.77195
 C575 C 0.23393 0.44732 0.84328
 C576 C 0.12721 0.53140 0.77914
 C577 C 0.28386 0.42576 0.10786
 C578 C 0.24560 0.43704 0.10122
 H579 H 0.29868 0.43279 0.13677
 H580 H 0.23096 0.42824 0.07264
 C581 C 0.73211 0.58032 0.11183
 C582 C 0.77229 0.57792 0.10813
 H583 H 0.71658 0.56507 0.13651
 H584 H 0.78690 0.59409 0.08341
 C585 C 0.74542 0.39809 0.90015
 C586 C 0.76944 0.42893 0.91092
 H587 H 0.74139 0.39066 0.86791
 H588 H 0.77306 0.43701 0.94306
 C589 C 0.26102 0.59249 0.87579
 C590 C 0.22228 0.58110 0.87726
 H591 H 0.28000 0.58263 0.85045
 H592 H 0.20358 0.59146 0.90264
 C593 C 0.11722 0.24577 0.39153
 C594 C 0.13706 0.26104 0.42405
 H595 H 0.11986 0.21352 0.38497
 H596 H 0.13485 0.29295 0.43220
 C597 C 0.09724 0.73534 0.58959
 C598 C 0.11270 0.77126 0.60014
 H599 H 0.10496 0.72124 0.56038
 H600 H 0.10345 0.78577 0.62868
 C601 C 0.89283 0.75769 0.38766
 C602 C 0.86980 0.74547 0.41890
 H603 H 0.89149 0.78924 0.37860
 H604 H 0.87114 0.71437 0.42938
 C605 C 0.89475 0.24684 0.59456
 C606 C 0.90067 0.20754 0.58544
 H607 H 0.86933 0.26336 0.58179
 H608 H 0.92591 0.19159 0.59938
 C609 C 0.39726 0.09384 0.24769
 C610 C 0.41389 0.12931 0.25884
 H611 H 0.40429 0.08089 0.21777
 H612 H 0.40900 0.14141 0.28951
 C613 C 0.58415 0.11650 0.71694
 C614 C 0.59178 0.12763 0.75574
 H615 H 0.55854 0.12896 0.70043
 H616 H 0.61644 0.11282 0.77186
 C617 C 0.39278 0.90448 0.77548
 C618 C 0.42490 0.88378 0.76147
 H619 H 0.38674 0.90446 0.80815
 H620 H 0.43207 0.88364 0.72903
 C621 C 0.58828 0.90643 0.24211
 C622 C 0.57026 0.87105 0.25007
 H623 H 0.58199 0.92129 0.21322
 H624 H 0.57478 0.85676 0.27956
 C625 C 0.39974 0.25590 0.89217
 C626 C 0.43654 0.23995 0.89919
 H627 H 0.38977 0.25774 0.86054
 H628 H 0.45023 0.24227 0.92932
 C629 C 0.60333 0.74542 0.90006
 C630 C 0.58386 0.78056 0.90830
 H631 H 0.60645 0.73610 0.86820
 H632 H 0.58504 0.79351 0.93902
 C633 C 0.39212 0.74194 0.09981
 C634 C 0.41335 0.77608 0.09360
 H635 H 0.38788 0.73201 0.13114
 H636 H 0.41340 0.78988 0.06354
 C637 C 0.58175 0.27302 0.11612
 C638 C 0.57631 0.23272 0.11759
 H639 H 0.56706 0.29259 0.13856
 H640 H 0.59071 0.21333 0.09476
 C641 C 0.26696 0.11123 0.60190
 C642 C 0.24729 0.10485 0.56640
 H643 H 0.27083 0.14256 0.61173
 H644 H 0.24529 0.07479 0.55291
 C645 C 0.75563 0.09774 0.39466
 C646 C 0.79384 0.08957 0.40586
 H647 H 0.74425 0.12835 0.39959
 H648 H 0.80776 0.06086 0.39720
 C649 C 0.74581 0.89596 0.60082
 C650 C 0.77283 0.90404 0.57126
 H651 H 0.73784 0.86443 0.60478
 H652 H 0.78073 0.93494 0.56387
 C653 C 0.23544 0.90085 0.40410
 C654 C 0.21763 0.91160 0.43971
 H655 H 0.23794 0.86858 0.39806
 H656 H 0.21781 0.94270 0.45067
 C657 C 0.09708 0.38821 0.75781
 C658 C 0.13477 0.39900 0.74747
 H659 H 0.08431 0.40208 0.78527
 H660 H 0.14752 0.39001 0.71812
 C661 C 0.11404 0.60306 0.26583
 C662 C 0.10802 0.56692 0.24749
 H663 H 0.14471 0.61448 0.26761
 H664 H 0.07872 0.55247 0.24859
 C665 C 0.90684 0.39358 0.24572
 C666 C 0.91521 0.42749 0.22477
 H667 H 0.87530 0.38553 0.24907
 H668 H 0.94562 0.43925 0.22346
 C669 C 0.89112 0.59629 0.74437
 C670 C 0.89996 0.56246 0.76508
 H671 H 0.85962 0.60530 0.74255
 H672 H 0.93045 0.55046 0.76568
 C673 C 0.76202 0.60310 0.90859
 C674 C 0.75486 0.58442 0.87270
 H675 H 0.79120 0.59893 0.92326
 H676 H 0.72505 0.58662 0.85896
 C677 C 0.26444 0.41847 0.90476
 C678 C 0.26544 0.42286 0.86385
 H679 H 0.24187 0.43628 0.92122
 H680 H 0.29049 0.41113 0.84589
 C681 C 0.23722 0.60013 0.08450
 C682 C 0.24234 0.59421 0.12497
 H683 H 0.21246 0.58401 0.06989
 H684 H 0.26889 0.60566 0.14069
 C685 C 0.75561 0.39348 0.10666
 C686 C 0.78434 0.41979 0.09479
 H687 H 0.74990 0.39191 0.13925
 H688 H 0.79014 0.42502 0.06268
 C689 C 0.88945 0.75453 0.60439
 C690 C 0.89649 0.77339 0.56881
 H691 H 0.85891 0.75474 0.61638
 H692 H 0.92625 0.77260 0.55514
 C693 C 0.91169 0.24029 0.39106
 C694 C 0.92177 0.21607 0.42255
 H695 H 0.87975 0.24447 0.38498
 H696 H 0.95287 0.21295 0.43223
 C697 C 0.10032 0.23633 0.60295
 C698 C 0.13707 0.24789 0.59070
 H699 H 0.08855 0.20753 0.59181
 H700 H 0.14877 0.27721 0.60028
 C701 C 0.09938 0.76000 0.40844
 C702 C 0.08840 0.78557 0.43905
 H703 H 0.13149 0.75470 0.40473
 H704 H 0.05693 0.79039 0.44650
 C705 C 0.58357 0.90388 0.73552
 C706 C 0.58422 0.90223 0.77653
 H707 H 0.56522 0.88257 0.71813
 H708 H 0.60188 0.92420 0.79386
 C709 C 0.39655 0.88793 0.26763
 C710 C 0.40649 0.89140 0.22802
 H711 H 0.40662 0.86197 0.28516
 H712 H 0.39550 0.91751 0.21119
 C713 C 0.58906 0.10902 0.26891
 C714 C 0.56980 0.10362 0.23308
 H715 H 0.59015 0.13939 0.28210
 H716 H 0.57256 0.07496 0.21658
 C717 C 0.39983 0.11102 0.76510
 C718 C 0.43464 0.10207 0.78406
 H719 H 0.39104 0.14264 0.76233
 H720 H 0.44474 0.07089 0.78679
 C721 C 0.57796 0.72655 0.10933
 C722 C 0.57147 0.76656 0.10700
 H723 H 0.56495 0.70918 0.13407
 H724 H 0.58597 0.78343 0.08270
 C725 C 0.38872 0.24092 0.10525
 C726 C 0.41432 0.25440 0.13422
 H727 H 0.38504 0.20849 0.10080
 H728 H 0.41829 0.28674 0.13935
 C729 C 0.56837 0.28631 0.90172
 C730 C 0.58396 0.26609 0.86957
 H731 H 0.53632 0.28350 0.90810
 H732 H 0.61629 0.26579 0.86420
 C733 C 0.41455 0.73547 0.89019
 C734 C 0.42441 0.77427 0.89727
 H735 H 0.42511 0.71981 0.86278
 H736 H 0.41206 0.78974 0.92406
 C737 C 0.75122 0.89070 0.38447
 C738 C 0.73927 0.86378 0.41242
 H739 H 0.78322 0.89682 0.38102
 H740 H 0.70731 0.85832 0.41703
 C741 C 0.26395 0.90095 0.60250
 C742 C 0.22541 0.89007 0.60700
 H743 H 0.28116 0.89020 0.57624
 H744 H 0.20837 0.90243 0.63269
 C745 C 0.23122 0.10990 0.38319
 C746 C 0.25008 0.13580 0.40873
 H747 H 0.19853 0.10876 0.38352
 H748 H 0.28281 0.13747 0.40873
 C749 C 0.75456 0.10043 0.59236
 C750 C 0.77859 0.08676 0.56212
 H751 H 0.75310 0.13280 0.59863
 H752 H 0.78008 0.05458 0.55498
 C753 C 0.90741 0.58647 0.26099
 C754 C 0.89549 0.59000 0.22204
 H755 H 0.89730 0.56098 0.27906
 H756 H 0.90628 0.61521 0.20400
 C757 C 0.89077 0.39310 0.75072
 C758 C 0.89486 0.40748 0.78927
 H759 H 0.86383 0.40044 0.73323
 H760 H 0.92132 0.39925 0.80710
 C761 C 0.10014 0.58735 0.73699
 C762 C 0.09401 0.55417 0.75958
 H763 H 0.13098 0.59733 0.73236
 H764 H 0.06365 0.54308 0.76442
 C765 C 0.11114 0.40929 0.25533
 C766 C 0.12530 0.40907 0.21699
 H767 H 0.11977 0.43364 0.27623
 H768 H 0.11710 0.38497 0.19573
   
