data_POSCAR
  _audit_creation_date              2014-09-24
  _audit_creation_method            'ToBaCCo'
  _symmetry_space_group_name_H-M    'P1'
  _symmetry_Int_Tables_number       1
  _symmetry_cell_setting            triclinic
  loop_
  _symmetry_equiv_pos_as_xyz
 x,y,z
_cell_length_a 35.9923
_cell_length_b 35.5318
_cell_length_c 13.7784
_cell_angle_alpha 90.527300
_cell_angle_beta 89.630300
_cell_angle_gamma 119.822400
loop_
  _atom_site_label
  _atom_site_type_symbol
  _atom_site_fract_x
  _atom_site_fract_y
  _atom_site_fract_z
O1 O 0.21899 0.41494 0.59463
 O2 O 0.16060 0.44463 0.41822
 O3 O 0.21800 0.41877 0.40099
 O4 O 0.16119 0.43755 0.60332
 O5 O 0.21559 0.50465 0.61405
 O6 O 0.27148 0.48621 0.41000
 O7 O 0.21510 0.51159 0.42594
 O8 O 0.27261 0.48252 0.59933
 Cu9 Cu 0.18483 0.42179 0.50201
 Cu10 Cu 0.24883 0.50306 0.51211
 C11 C 0.25470 0.44387 0.62949
 C12 C 0.17838 0.48420 0.39370
 C13 C 0.25393 0.44890 0.37061
 C14 C 0.17963 0.47452 0.64419
 O15 O 0.52908 -0.29381 0.39996
 O16 O 0.57630 -0.20944 0.59045
 O17 O 0.52947 -0.29481 0.59063
 O18 O 0.57447 -0.20854 0.40464
 O19 O 0.51427 -0.20620 0.40679
 O20 O 0.46992 -0.29137 0.59463
 O21 O 0.51632 -0.20671 0.59569
 O22 O 0.46934 -0.29071 0.40336
 Cu23 Cu 0.55801 -0.25248 0.49598
 Cu24 Cu 0.48644 -0.24861 0.50069
 C25 C 0.49153 -0.30642 0.36848
 C26 C 0.55454 -0.19306 0.62390
 C27 C 0.49216 -0.30760 0.62485
 C28 C 0.55216 -0.19222 0.37542
 O29 O 1.32501 0.78805 0.41337
 O30 O 1.23894 0.72726 0.59424
 O31 O 1.32118 0.78406 0.60337
 O32 O 1.24309 0.74534 0.41162
 O33 O 1.24998 0.68738 0.38998
 O34 O 1.33533 0.73091 0.57981
 O35 O 1.25402 0.67445 0.57731
 O36 O 1.33275 0.73066 0.39044
 Cu37 Cu 1.28143 0.76679 0.50838
 Cu38 Cu 1.29364 0.70012 0.48305
 C39 C 1.34247 0.76896 0.36963
 C40 C 1.23294 0.69003 0.61759
 C41 C 1.34235 0.76557 0.62378
 C42 C 1.23325 0.71047 0.36712
 O43 O 0.71884 0.55491 0.59504
 O44 O 0.80162 0.59043 0.40367
 O45 O 0.71896 0.55697 0.40862
 O46 O 0.80322 0.58956 0.59376
 O47 O 0.79663 0.52433 0.58855
 O48 O 0.71346 0.49213 0.40463
 O49 O 0.79505 0.52519 0.39948
 O50 O 0.71437 0.49060 0.59231
 Cu51 Cu 0.76172 0.57983 0.50157
 Cu52 Cu 0.75419 0.50149 0.49616
 C53 C 0.70209 0.51614 0.62501
 C54 C 0.81179 0.56366 0.36799
 C55 C 0.70211 0.51861 0.37512
 C56 C 0.81434 0.56266 0.62211
 O57 O 0.45181 0.24962 0.40779
 O58 O 0.43106 0.16547 0.58891
 O59 O 0.45133 0.24700 0.59495
 O60 O 0.43001 0.16783 0.39984
 O61 O 0.49830 0.18580 0.39813
 O62 O 0.51954 0.26456 0.59332
 O63 O 0.49951 0.18419 0.58764
 O64 O 0.51988 0.26678 0.40539
 Cu65 Cu 0.43403 0.20542 0.49817
 Cu66 Cu 0.51621 0.22714 0.49578
 C67 C 0.48974 0.27252 0.37603
 C68 C 0.46174 0.16076 0.61965
 C69 C 0.48921 0.26931 0.62686
 C70 C 0.46050 0.16353 0.36555
 O71 O 0.72016 0.23363 0.40167
 O72 O 0.79083 0.31346 0.58931
 O73 O 0.72237 0.23414 0.59151
 O74 O 0.78694 0.31367 0.39997
 O75 O 0.74321 0.34048 0.40706
 O76 O 0.68063 0.26331 0.59610
 O77 O 0.74672 0.33976 0.59469
 O78 O 0.67862 0.26298 0.40824
 Cu79 Cu 0.75945 0.27086 0.49491
 Cu80 Cu 0.70807 0.30429 0.50226
 C81 C 0.68736 0.23514 0.37328
 C82 C 0.78042 0.34035 0.62354
 C83 C 0.69028 0.23566 0.62605
 C84 C 0.77582 0.34064 0.37159
 O85 O 0.92492 0.44768 0.18582
 O86 O 0.88976 0.46998 0.08318
 C87 C 0.89056 0.44710 0.15521
 O88 O 1.07656 0.63147 0.16233
 O89 O 1.11380 0.60198 0.09003
 C90 C 1.11149 0.63057 0.14481
 O91 O 0.95951 0.59302 0.16226
 O92 O 0.90533 0.53811 0.07484
 C93 C 0.91966 0.56963 0.13788
 O94 O 1.04302 0.48214 0.19493
 O95 O 1.09727 0.53184 0.09924
 C96 C 1.08340 0.50534 0.17104
 Zr97 Zr 0.98877 0.48339 0.13354
 O98 O 0.98816 0.48371 0.28703
 O99 O 0.97302 0.41767 0.12827
 Zr100 Zr 1.01347 0.58888 0.11662
 O101 O 1.01606 0.59606 0.26954
 O102 O 1.02714 0.65343 0.09587
 O103 O 0.96403 0.52568 0.14048
 O104 O 1.03647 0.54748 0.14724
 O105 O 1.04601 0.47176 -0.15207
 O106 O 1.09822 0.52565 -0.05887
 C107 C 1.08551 0.49482 -0.12249
 O108 O 0.96570 0.58683 -0.18659
 O109 O 0.90888 0.53613 -0.09761
 C110 C 0.92534 0.56554 -0.16461
 O111 O 1.08266 0.61991 -0.17551
 O112 O 1.11573 0.59634 -0.07039
 C113 C 1.11604 0.61844 -0.14442
 O114 O 0.92846 0.44031 -0.17249
 O115 O 0.89163 0.46725 -0.08746
 C116 C 0.89375 0.44184 -0.15256
 Zr117 Zr 0.99116 0.47692 -0.11092
 O118 O 0.99580 0.47026 -0.26247
 O119 O 0.97124 0.41042 -0.09275
 Zr120 Zr 1.01756 0.58295 -0.12705
 O121 O 1.02223 0.57991 -0.27989
 O122 O 1.03181 0.64830 -0.13379
 Zr123 Zr 0.94092 0.51504 -0.00305
 Zr124 Zr 1.06392 0.55124 0.01012
 O125 O 1.04009 0.53976 -0.13281
 O126 O 0.96774 0.51886 -0.14175
 O127 O 1.02537 0.48324 0.01629
 O128 O 0.98096 0.58265 -0.00994
 O129 O 0.95166 0.46214 0.00881
 O130 O 1.05463 0.60486 -0.00222
 H131 H 1.05427 0.55522 0.20655
 H132 H 0.96806 0.60155 -0.01421
 H133 H 1.05896 0.54335 -0.18876
 H134 H 0.92657 0.43243 0.00963
 H135 H 1.02881 0.66578 0.16156
 H136 H 1.05608 0.66541 -0.08932
 H137 H 0.99432 0.55654 -0.30401
 H138 H 0.98601 0.48874 -0.29362
 H139 H 0.99362 0.40883 -0.05461
 H140 H 0.97001 0.40828 0.19672
 H141 H 0.97604 0.50213 0.30749
 H142 H 0.98955 0.57150 0.29599
 O143 O 0.57152 0.52224 0.17617
 O144 O 0.56819 0.46722 0.08205
 C145 C 0.58489 0.49555 0.15070
 O146 O 0.37722 0.42685 0.16632
 O147 O 0.38068 0.48339 0.07952
 C148 C 0.36229 0.45189 0.14155
 O149 O 0.45534 0.38550 0.18079
 O150 O 0.51412 0.40332 0.08568
 C151 C 0.48828 0.38180 0.15534
 O152 O 0.50263 0.57434 0.16321
 O153 O 0.44056 0.55355 0.07859
 C154 C 0.46986 0.57840 0.14080
 Zr155 Zr 0.51965 0.52819 0.11769
 O156 O 0.52028 0.53494 0.27049
 O157 O 0.57466 0.58999 0.10268
 Zr158 Zr 0.43359 0.42674 0.12310
 O159 O 0.43120 0.43143 0.27611
 O160 O 0.38363 0.36133 0.12751
 O161 O 0.49965 0.46299 0.14035
 O162 O 0.45387 0.49214 0.13717
 O163 O 0.50188 0.57083 -0.17549
 O164 O 0.44056 0.55229 -0.08851
 C165 C 0.46957 0.57583 -0.15255
 O166 O 0.45430 0.38107 -0.17517
 O167 O 0.51380 0.40134 -0.08209
 C168 C 0.48744 0.37807 -0.14937
 O169 O 0.37539 0.42081 -0.16231
 O170 O 0.37962 0.48025 -0.08433
 C171 C 0.36064 0.44651 -0.14153
 O172 O 0.57088 0.51872 -0.18310
 O173 O 0.56775 0.46520 -0.08606
 C174 C 0.58421 0.49234 -0.15654
 Zr175 Zr 0.51876 0.52518 -0.12687
 O176 O 0.51582 0.52585 -0.28017
 O177 O 0.57517 0.58663 -0.12649
 Zr178 Zr 0.43295 0.42372 -0.12226
 O179 O 0.43032 0.42614 -0.27548
 O180 O 0.38329 0.35822 -0.12546
 Zr181 Zr 0.51445 0.45133 -0.00086
 Zr182 Zr 0.43682 0.50082 -0.00352
 O183 O 0.45280 0.48867 -0.14312
 O184 O 0.49881 0.45950 -0.14310
 O185 O 0.50204 0.54921 -0.00553
 O186 O 0.44953 0.40332 0.00153
 O187 O 0.54821 0.51942 -0.00410
 O188 O 0.40340 0.43228 0.00000
 H189 H 0.44214 0.50010 0.19399
 H190 H 0.44194 0.37243 0.00296
 H191 H 0.44036 0.49533 -0.19990
 H192 H 0.57994 0.53457 -0.00468
 H193 H 0.35968 0.35901 0.08816
 H194 H 0.36250 0.35495 -0.07439
 H195 H 0.45727 0.42909 -0.30178
 H196 H 0.51404 0.49872 -0.30444
 H197 H 0.57042 0.60540 -0.08055
 H198 H 0.58428 0.60079 0.16956
 H199 H 0.51396 0.50679 0.29813
 H200 H 0.45910 0.43705 0.30193
 O201 O 0.45637 0.02300 0.16281
 O202 O 0.50419 0.08228 0.07535
 C203 C 0.47385 0.06348 0.13914
 O204 O 0.58845 -0.03546 0.17287
 O205 O 0.54149 -0.09487 0.08333
 C206 C 0.56997 -0.07657 0.15081
 O207 O 0.60442 0.07815 0.17767
 O208 O 0.57399 0.10738 0.08016
 C209 C 0.59883 0.11002 0.15071
 O210 O 0.43648 -0.09012 0.16065
 O211 O 0.47021 -0.12065 0.07659
 C212 C 0.44213 -0.12244 0.13871
 Zr213 Zr 0.46937 -0.02559 0.11289
 O214 O 0.46552 -0.02880 0.26631
 O215 O 0.40288 -0.04933 0.09928
 Zr216 Zr 0.57684 0.01397 0.11930
 O217 O 0.57876 0.01258 0.27249
 O218 O 0.64434 0.04252 0.11270
 O219 O 0.52848 0.03002 0.13485
 O220 O 0.51718 -0.04051 0.13516
 O221 O 0.43978 -0.09243 -0.17550
 O222 O 0.47275 -0.12173 -0.08694
 C223 C 0.44534 -0.12454 -0.15125
 O224 O 0.60836 0.07824 -0.18134
 O225 O 0.57547 0.10739 -0.08910
 C226 C 0.60209 0.11012 -0.15588
 O227 O 0.59297 -0.03547 -0.17388
 O228 O 0.54469 -0.09412 -0.08548
 C229 C 0.57421 -0.07633 -0.15105
 O230 O 0.45919 0.02073 -0.18606
 O231 O 0.50519 0.08065 -0.09677
 C232 C 0.47610 0.06138 -0.16307
 Zr233 Zr 0.47210 -0.02672 -0.13080
 O234 O 0.47426 -0.03068 -0.28404
 O235 O 0.40563 -0.04875 -0.13572
 Zr236 Zr 0.57960 0.01366 -0.12495
 O237 O 0.58370 0.01102 -0.27782
 O238 O 0.64695 0.04242 -0.11333
 Zr239 Zr 0.53358 0.05383 -0.00693
 Zr240 Zr 0.51460 -0.06657 -0.00419
 O241 O 0.52040 -0.04146 -0.14497
 O242 O 0.53153 0.02929 -0.14788
 O243 O 0.45673 -0.06548 -0.00829
 O244 O 0.59118 0.05205 -0.00294
 O245 O 0.46851 0.00622 -0.01021
 O246 O 0.58046 -0.01988 -0.00163
 H247 H 0.51320 -0.05798 0.19395
 H248 H 0.61862 0.07988 -0.00172
 H249 H 0.51763 -0.05956 -0.20257
 H250 H 0.44634 0.01498 -0.01199
 H251 H 0.65089 0.02009 0.08899
 H252 H 0.65304 0.02094 -0.08298
 H253 H 0.56496 0.02127 -0.30498
 H254 H 0.49346 -0.00107 -0.30850
 H255 H 0.39192 -0.07048 -0.08375
 H256 H 0.39144 -0.05304 0.16628
 H257 H 0.48654 0.00016 0.29195
 H258 H 0.55681 0.01928 0.29695
 N259 N 1.15375 0.54395 0.23688
 N260 N 1.18005 0.53994 0.29622
 C261 C 1.15895 0.49919 0.33023
 C262 C 1.11798 0.47802 0.29017
 N263 N 1.11645 0.50760 0.23205
 H264 H 1.09250 0.44501 0.30118
 N265 N 0.43098 0.61572 0.19171
 N266 N 0.43567 0.64641 0.25446
 C267 C 0.47461 0.66194 0.29559
 C268 C 0.49367 0.64003 0.25569
 N269 N 0.46552 0.61148 0.19147
 H270 H 0.52441 0.64343 0.27409
 N271 N 0.41965 -0.19735 0.18002
 N272 N 0.39363 -0.22705 0.24252
 C273 C 0.37396 -0.20917 0.29309
 C274 C 0.38826 -0.16802 0.25985
 N275 N 0.41664 -0.16189 0.18942
 H276 H 0.37947 -0.14457 0.28531
 N277 N 0.89736 0.61927 0.20074
 N278 N 0.86928 0.61912 0.26365
 C279 C 0.84389 0.57753 0.29034
 C280 C 0.85680 0.55204 0.24074
 N281 N 0.89004 0.57933 0.18527
 H282 H 0.84543 0.51776 0.24973
 N283 N 0.53500 0.35381 0.19603
 N284 N 0.53684 0.32539 0.25402
 C285 C 0.49965 0.30601 0.30358
 C286 C 0.47475 0.32352 0.27456
 N287 N 0.49818 0.35329 0.20725
 H288 H 0.44325 0.31579 0.30012
 N289 N 0.60978 0.18122 0.18882
 N290 N 0.63248 0.21479 0.24655
 C291 C 0.65867 0.20561 0.29787
 C292 C 0.65108 0.16473 0.26996
 N293 N 0.62015 0.15073 0.20168
 H294 H 0.66565 0.14675 0.29781
 N295 N 0.41940 0.07322 -0.22188
 N296 N 0.41428 0.09947 -0.28105
 C297 C 0.45373 0.12919 -0.31168
 C298 C 0.48338 0.12083 -0.26820
 N299 N 0.46054 0.08579 -0.21269
 H300 H 0.51772 0.13718 -0.27914
 N301 N 0.62289 0.45634 -0.20622
 N302 N 0.65415 0.46131 -0.26483
 C303 C 0.66957 0.50047 -0.30631
 C304 C 0.64652 0.51953 -0.27164
 N305 N 0.61761 0.49062 -0.20946
 H306 H 0.64968 0.55045 -0.29105
 N307 N 0.82278 0.42320 -0.20380
 N308 N 0.79208 0.39698 -0.26363
 C309 C 0.80520 0.37139 -0.30668
 C310 C 0.84565 0.38304 -0.27100
 N311 N 0.85529 0.41570 -0.20697
 H312 H 0.86616 0.36998 -0.29092
 N313 N 0.62077 -0.09559 -0.24395
 N314 N 0.61644 -0.12701 -0.30387
 C315 C 0.57426 -0.15665 -0.30687
 C316 C 0.55297 -0.14264 -0.24654
 N317 N 0.58299 -0.10474 -0.20831
 H318 H 0.51872 -0.15711 -0.23625
 N319 N 0.28862 0.39545 -0.19290
 N320 N 0.26011 0.39278 -0.25693
 C321 C 0.27533 0.43290 -0.29297
 C322 C 0.31372 0.46053 -0.24756
 N323 N 0.32068 0.43586 -0.18518
 H324 H 0.33580 0.49429 -0.26341
 N325 N 1.17612 0.61486 -0.20491
 N326 N 1.20674 0.63198 -0.27038
 C327 C 1.20451 0.66521 -0.31025
 C328 C 1.17088 0.66796 -0.26709
 N329 N 1.15411 0.63555 -0.20163
 H330 H 1.15902 0.68982 -0.28359
 N331 N 0.90791 0.61740 -0.23337
 N332 N 0.87849 0.61805 -0.28944
 C333 C 0.84916 0.57634 -0.30785
 C334 C 0.86121 0.54996 -0.26074
 N335 N 0.89794 0.57692 -0.21518
 H336 H 0.84623 0.51495 -0.26381
 N337 N 0.53300 0.34779 -0.18524
 N338 N 0.53500 0.31936 -0.24435
 C339 C 0.49861 0.30123 -0.29648
 C340 C 0.47407 0.31934 -0.26803
 N341 N 0.49685 0.34831 -0.19849
 H342 H 0.44357 0.31309 -0.29671
 N343 N 0.61669 0.18293 -0.18293
 N344 N 0.63949 0.21675 -0.23885
 C345 C 0.66347 0.20652 -0.29670
 C346 C 0.65450 0.16474 -0.27468
 N347 N 0.62488 0.15129 -0.20315
 H348 H 0.66679 0.14568 -0.30929
 N349 N 1.15860 0.51086 -0.13342
 N350 N 1.18505 0.50763 -0.19528
 C351 C 1.16096 0.48261 -0.26919
 C352 C 1.11850 0.47012 -0.25057
 N353 N 1.11860 0.48878 -0.16487
 H354 H 1.09116 0.45248 -0.29780
 N355 N 0.43172 0.61415 -0.20032
 N356 N 0.43675 0.64521 -0.26095
 C357 C 0.47529 0.66009 -0.30426
 C358 C 0.49375 0.63715 -0.26788
 N359 N 0.46560 0.60881 -0.20343
 H360 H 0.52421 0.64005 -0.28796
 N361 N 0.42674 -0.19845 -0.20202
 N362 N 0.39986 -0.22889 -0.26329
 C363 C 0.37562 -0.21361 -0.30191
 C364 C 0.38828 -0.17337 -0.26277
 N365 N 0.42008 -0.16494 -0.20107
 H366 H 0.37626 -0.15165 -0.27979
 N367 N 0.61678 -0.09529 0.24161
 N368 N 0.61305 -0.12629 0.30082
 C369 C 0.57087 -0.15562 0.30721
 C370 C 0.54890 -0.14178 0.24958
 N371 N 0.57862 -0.10429 0.20966
 H372 H 0.51457 -0.15637 0.24114
 N373 N 0.28803 0.40355 0.18213
 N374 N 0.25867 0.40107 0.24422
 C375 C 0.27526 0.43991 0.28925
 C376 C 0.31584 0.46665 0.25161
 N377 N 0.32234 0.44271 0.18442
 H378 H 0.33933 0.49895 0.27558
 N379 N 1.15731 0.70416 0.19686
 N380 N 1.18953 0.72626 0.25689
 C381 C 1.20222 0.69865 0.28862
 C382 C 1.17709 0.65877 0.24505
 N383 N 1.14950 0.66380 0.18847
 H384 H 1.17625 0.62853 0.25980
 N385 N 0.41689 0.07443 0.20148
 N386 N 0.41196 0.10051 0.26287
 C387 C 0.45163 0.13156 0.28880
 C388 C 0.48112 0.12420 0.24062
 N389 N 0.45808 0.08841 0.18671
 H390 H 0.51557 0.14107 0.24947
 N391 N 0.62862 0.46397 0.18608
 N392 N 0.65933 0.46852 0.24496
 C393 C 0.66965 0.50389 0.29967
 C394 C 0.64422 0.52115 0.27286
 N395 N 0.61900 0.49497 0.20155
 H396 H 0.64344 0.54897 0.30314
 N397 N 0.81587 0.42243 0.19089
 N398 N 0.78461 0.39445 0.24740
 C399 C 0.80032 0.37291 0.29703
 C400 C 0.84248 0.38877 0.26974
 N401 N 0.85087 0.41970 0.20350
 H402 H 0.86500 0.37958 0.29681
   
