data_POSCAR
  _audit_creation_date              2014-09-24
  _audit_creation_method            'ToBaCCo'
  _symmetry_space_group_name_H-M    'P1'
  _symmetry_Int_Tables_number       1
  _symmetry_cell_setting            triclinic
  loop_
  _symmetry_equiv_pos_as_xyz
 x,y,z
_cell_length_a 35.4813
_cell_length_b 34.3572
_cell_length_c 40.7344
_cell_angle_alpha 90.318900
_cell_angle_beta 90.043100
_cell_angle_gamma 90.022600
loop_
  _atom_site_label
  _atom_site_type_symbol
  _atom_site_fract_x
  _atom_site_fract_y
  _atom_site_fract_z
C1 C 1.25243 0.25163 0.24954
 C2 C 0.74963 -0.25082 0.25061
 C3 C 0.75340 0.24991 -0.25056
 C4 C 1.25194 -0.24875 -0.24953
 C5 C 0.24642 0.24916 0.75075
 C6 C 0.74788 0.74930 0.74903
 C7 C 0.74708 0.25133 0.25083
 C8 C 0.24958 0.74930 0.24910
 O9 O 1.06337 0.01851 0.04243
 O10 O 0.93476 -0.02257 0.04179
 O11 O 0.97910 0.06450 0.04330
 O12 O 1.01949 -0.06831 0.04080
 O13 O 0.92722 0.04317 0.02469
 O14 O 1.07116 -0.04629 0.02284
 O15 O 0.95619 -0.07563 0.02270
 O16 O 1.04238 0.07260 0.02557
 C17 C 1.05934 0.05371 0.04713
 C18 C 0.93997 -0.05778 0.04542
 C19 C 0.94491 0.06002 0.04714
 C20 C 1.05361 -0.06364 0.04490
 O21 O 1.06345 -0.01995 -0.03993
 O22 O 0.93439 0.01963 -0.03918
 O23 O 1.01855 0.06626 -0.03825
 O24 O 0.97966 -0.06699 -0.04072
 O25 O 0.92765 -0.04620 -0.02204
 O26 O 1.07050 0.04490 -0.02033
 O27 O 1.04312 -0.07427 -0.02306
 O28 O 0.95527 0.07295 -0.02012
 Co29 Co 1.06052 -0.00075 0.00126
 Co30 Co 0.93760 -0.00145 0.00131
 Co31 Co 0.99889 0.06230 0.00249
 Co32 Co 0.99959 -0.06454 0.00007
 O33 O 0.99914 -0.00111 0.00129
 C34 C 1.05955 -0.05514 -0.04475
 C35 C 0.93910 0.05492 -0.04280
 C36 C 1.05266 0.06182 -0.04245
 C37 C 0.94544 -0.06269 -0.04459
 O38 O 1.07457 0.54585 0.52132
 O39 O 0.93085 0.45585 0.52203
 O40 O 0.95972 0.57483 0.52296
 O41 O 1.04597 0.42700 0.52184
 O42 O 0.93834 0.52130 0.54074
 O43 O 1.06722 0.48062 0.54000
 O44 O 0.98280 0.43421 0.53990
 O45 O 1.02328 0.56722 0.54061
 C46 C 1.05739 0.56198 0.54430
 C47 C 0.94867 0.43883 0.54412
 C48 C 0.94328 0.55651 0.54511
 C49 C 1.06209 0.44548 0.54427
 O50 O 1.07393 0.45550 0.47681
 O51 O 0.93089 0.54620 0.47761
 O52 O 1.04612 0.57458 0.47655
 O53 O 0.95889 0.42712 0.47643
 O54 O 0.93762 0.48070 0.45875
 O55 O 1.06676 0.52079 0.45821
 O56 O 1.02221 0.43436 0.45810
 O57 O 0.98267 0.56761 0.45923
 Co58 Co 1.06410 0.50070 0.49912
 Co59 Co 0.94105 0.50100 0.49974
 Co60 Co 1.00294 0.56431 0.49984
 Co61 Co 1.00251 0.43739 0.49907
 O62 O 1.00263 0.50085 0.49944
 C63 C 1.05629 0.43949 0.45401
 C64 C 0.94850 0.56303 0.45531
 C65 C 1.06208 0.55603 0.45408
 C66 C 0.94237 0.44548 0.45435
 O67 O 0.56997 0.04556 0.52238
 O68 O 0.42703 -0.04540 0.52218
 O69 O 0.45467 0.07374 0.52290
 O70 O 0.54211 -0.07354 0.52269
 O71 O 0.43386 0.02008 0.54087
 O72 O 0.56303 -0.01978 0.54081
 O73 O 0.47877 -0.06629 0.54086
 O74 O 0.51812 0.06705 0.54072
 C75 C 0.55231 0.06260 0.54469
 C76 C 0.44468 -0.06123 0.54492
 C77 C 0.43853 0.05533 0.54517
 C78 C 0.55833 -0.05499 0.54501
 O79 O 0.57014 -0.04494 0.47741
 O80 O 0.42653 0.04454 0.47777
 O81 O 0.54144 0.07392 0.47712
 O82 O 0.45514 -0.07431 0.47707
 O83 O 0.43400 -0.02089 0.45896
 O84 O 0.56281 0.02035 0.45903
 O85 O 0.51832 -0.06674 0.45918
 O86 O 0.47800 0.06621 0.45911
 Co87 Co 0.55990 0.00025 0.49991
 Co88 Co 0.43688 -0.00039 0.49993
 Co89 Co 0.49807 0.06348 0.49994
 Co90 Co 0.49854 -0.06347 0.49998
 O91 O 0.49835 -0.00003 0.49994
 C92 C 0.55241 -0.06186 0.45505
 C93 C 0.44393 0.06085 0.45513
 C94 C 0.55782 0.05551 0.45483
 C95 C 0.43885 -0.05613 0.45473
 O96 O 0.57132 0.54551 0.02121
 O97 O 0.42847 0.45477 0.02207
 O98 O 0.45613 0.57388 0.02191
 O99 O 0.54357 0.42647 0.02226
 O100 O 0.43551 0.52043 0.04042
 O101 O 0.56462 0.48032 0.04002
 O102 O 0.48026 0.43375 0.04060
 O103 O 0.51950 0.56704 0.03953
 C104 C 0.55361 0.56229 0.04363
 C105 C 0.44621 0.43897 0.04478
 C106 C 0.44016 0.55574 0.04444
 C107 C 0.55974 0.44520 0.04450
 O108 O 0.57149 0.45466 -0.02328
 O109 O 0.42784 0.54431 -0.02289
 O110 O 0.54273 0.57349 -0.02413
 O111 O 0.45640 0.42546 -0.02300
 O112 O 0.43508 0.47877 -0.04123
 O113 O 0.56394 0.51976 -0.04199
 O114 O 0.51961 0.43262 -0.04122
 O115 O 0.47925 0.56560 -0.04195
 Co116 Co 0.56127 0.50004 -0.00098
 Co117 Co 0.43825 0.49959 -0.00043
 Co118 Co 0.49942 0.56326 -0.00115
 Co119 Co 0.49992 0.43631 -0.00036
 O120 O 0.49972 0.49980 -0.00074
 C121 C 0.55372 0.43737 -0.04543
 C122 C 0.44515 0.56028 -0.04575
 C123 C 0.55891 0.55486 -0.04641
 C124 C 0.44007 0.44354 -0.04536
 C125 C 1.18645 0.17275 0.18753
 C126 C 1.21712 0.19256 0.17411
 C127 C 1.23904 0.21713 0.19374
 C128 C 1.22984 0.22353 0.22712
 C129 C 1.20074 0.20060 0.24078
 C130 C 1.17880 0.17609 0.22105
 C131 C 1.16236 0.15003 0.16650
 C132 C 1.14234 0.13208 0.14793
 C133 C 1.11899 0.11179 0.12462
 C134 C 1.09491 0.13286 0.10410
 C135 C 1.07456 0.11378 0.07944
 C136 C 1.07817 0.07336 0.07499
 C137 C 1.10150 0.05221 0.09641
 C138 C 1.12188 0.07138 0.12103
 H139 H 1.22394 0.18927 0.14832
 H140 H 1.26314 0.23086 0.18248
 H141 H 1.19419 0.20278 0.26668
 H142 H 1.15558 0.16020 0.23187
 H143 H 1.09254 0.16417 0.10667
 H144 H 1.05668 0.13076 0.06342
 H145 H 1.10477 0.02102 0.09360
 H146 H 1.14050 0.05483 0.13675
 C147 C 1.18512 0.67308 0.68846
 C148 C 1.21578 0.69286 0.67500
 C149 C 1.23790 0.71724 0.69462
 C150 C 1.22893 0.72349 0.72806
 C151 C 1.19979 0.70064 0.74175
 C152 C 1.17763 0.67632 0.72202
 C153 C 1.16112 0.65028 0.66740
 C154 C 1.14155 0.63223 0.64852
 C155 C 1.11929 0.61179 0.62450
 C156 C 1.13700 0.58637 0.60248
 C157 C 1.11652 0.56945 0.57687
 C158 C 1.07799 0.57780 0.57290
 C159 C 1.06003 0.60236 0.59577
 C160 C 1.08067 0.61940 0.62138
 H161 H 1.22251 0.68962 0.64918
 H162 H 1.26201 0.73089 0.68331
 H163 H 1.19342 0.70268 0.76769
 H164 H 1.15443 0.66043 0.73287
 H165 H 1.16689 0.58040 0.60461
 H166 H 1.13102 0.55038 0.55980
 H167 H 1.03036 0.60919 0.59334
 H168 H 1.06675 0.63921 0.63823
 C169 C 0.67540 0.18306 0.68753
 C170 C 0.69531 0.21429 0.67426
 C171 C 0.71996 0.23603 0.69379
 C172 C 0.72638 0.22617 0.72703
 C173 C 0.70390 0.19626 0.74055
 C174 C 0.67924 0.17446 0.72087
 C175 C 0.65165 0.15979 0.66648
 C176 C 0.63286 0.14081 0.64758
 C177 C 0.61176 0.11880 0.62360
 C178 C 0.63076 0.09361 0.60217
 C179 C 0.61119 0.07462 0.57697
 C180 C 0.57228 0.08064 0.57281
 C181 C 0.55314 0.10513 0.59502
 C182 C 0.57283 0.12420 0.62021
 H183 H 0.69178 0.22192 0.64866
 H184 H 0.73350 0.26079 0.68260
 H185 H 0.70608 0.18925 0.76636
 H186 H 0.66336 0.15082 0.73164
 H187 H 0.66089 0.08928 0.60449
 H188 H 0.62665 0.05576 0.56039
 H189 H 0.52316 0.11025 0.59247
 H190 H 0.55785 0.14373 0.63658
 C191 C 0.67280 0.67846 0.19107
 C192 C 0.69216 0.66112 0.21706
 C193 C 0.71628 0.68336 0.23686
 C194 C 0.72252 0.72323 0.23022
 C195 C 0.70045 0.74063 0.20540
 C196 C 0.67640 0.71839 0.18574
 C197 C 0.65038 0.65533 0.16893
 C198 C 0.63240 0.63677 0.14921
 C199 C 0.61190 0.61561 0.12441
 C200 C 0.63137 0.59159 0.10236
 C201 C 0.61222 0.57357 0.07643
 C202 C 0.57331 0.57947 0.07219
 C203 C 0.55374 0.60281 0.09498
 C204 C 0.57299 0.62087 0.12088
 H205 H 0.68884 0.63034 0.22190
 H206 H 0.72969 0.66905 0.25731
 H207 H 0.70280 0.77151 0.20061
 H208 H 0.66105 0.73230 0.16601
 H209 H 0.66151 0.58742 0.10481
 H210 H 0.62797 0.55555 0.05940
 H211 H 0.52373 0.60776 0.09239
 H212 H 0.55768 0.63954 0.13774
 C213 C 0.82729 -0.18421 0.18917
 C214 C 0.80799 -0.21600 0.17585
 C215 C 0.78354 -0.23776 0.19530
 C216 C 0.77673 -0.22734 0.22842
 C217 C 0.79876 -0.19695 0.24204
 C218 C 0.82320 -0.17512 0.22246
 C219 C 0.85056 -0.16080 0.16815
 C220 C 0.86892 -0.14179 0.14920
 C221 C 0.88954 -0.11990 0.12515
 C222 C 0.91306 -0.13932 0.10290
 C223 C 0.93021 -0.11889 0.07738
 C224 C 0.92391 -0.07873 0.07374
 C225 C 0.90114 -0.05919 0.09679
 C226 C 0.88396 -0.07973 0.12228
 H227 H 0.81176 -0.22399 0.15029
 H228 H 0.77035 -0.26290 0.18411
 H229 H 0.79628 -0.18953 0.26782
 H230 H 0.83865 -0.15103 0.23324
 H231 H 0.91744 -0.17043 0.10481
 H232 H 0.94781 -0.13465 0.06014
 H233 H 0.89589 -0.02825 0.09466
 H234 H 0.86564 -0.06445 0.13927
 C235 C 0.83000 0.32035 0.68996
 C236 C 0.81032 0.33795 0.71580
 C237 C 0.78637 0.31581 0.73563
 C238 C 0.78058 0.27573 0.72920
 C239 C 0.80300 0.25810 0.70458
 C240 C 0.82688 0.28025 0.68487
 C241 C 0.85227 0.34341 0.66779
 C242 C 0.87014 0.36209 0.64820
 C243 C 0.89053 0.38360 0.62368
 C244 C 0.87096 0.40785 0.60207
 C245 C 0.89005 0.42650 0.57659
 C246 C 0.92903 0.42104 0.57234
 C247 C 0.94869 0.39742 0.59468
 C248 C 0.92950 0.37873 0.62013
 H249 H 0.81325 0.36887 0.72050
 H250 H 0.77270 0.33041 0.75592
 H251 H 0.80099 0.22711 0.69993
 H252 H 0.84247 0.26612 0.66529
 H253 H 0.84079 0.41177 0.60452
 H254 H 0.87420 0.44468 0.55991
 H255 H 0.97874 0.39275 0.59208
 H256 H 0.94492 0.35993 0.63665
 C257 C 0.32170 -0.16992 0.69246
 C258 C 0.33785 -0.18978 0.71877
 C259 C 0.31579 -0.21432 0.73813
 C260 C 0.27729 -0.22068 0.73068
 C261 C 0.26096 -0.19770 0.70576
 C262 C 0.28306 -0.17320 0.68648
 C263 C 0.34487 -0.14768 0.67054
 C264 C 0.36367 -0.13006 0.65099
 C265 C 0.38502 -0.11012 0.62628
 C266 C 0.42370 -0.11707 0.62275
 C267 C 0.44355 -0.10040 0.59669
 C268 C 0.42474 -0.07686 0.57378
 C269 C 0.38612 -0.06921 0.57809
 C270 C 0.36642 -0.08579 0.60415
 H271 H 0.36761 -0.18662 0.72415
 H272 H 0.32922 -0.22811 0.75883
 H273 H 0.23112 -0.19986 0.70047
 H274 H 0.27009 -0.15737 0.66651
 H275 H 0.43832 -0.13603 0.63969
 H276 H 0.47331 -0.10666 0.59402
 H277 H 0.37097 -0.05094 0.56098
 H278 H 0.33647 -0.08033 0.60660
 C279 C 0.32279 0.33023 0.19186
 C280 C 0.28425 0.32679 0.18548
 C281 C 0.26196 0.30232 0.20461
 C282 C 0.27800 0.27955 0.22981
 C283 C 0.31639 0.28602 0.23761
 C284 C 0.33865 0.31053 0.21839
 C285 C 0.34618 0.35250 0.17015
 C286 C 0.36512 0.37017 0.15075
 C287 C 0.38658 0.39020 0.12616
 C288 C 0.36809 0.41489 0.10425
 C289 C 0.38782 0.43146 0.07821
 C290 C 0.42634 0.42346 0.07371
 C291 C 0.44506 0.39961 0.09645
 C292 C 0.42519 0.38292 0.12248
 H293 H 0.27151 0.34249 0.16532
 H294 H 0.23219 0.30006 0.19904
 H295 H 0.32959 0.27240 0.25850
 H296 H 0.36833 0.31381 0.22406
 H297 H 0.33820 0.42060 0.10682
 H298 H 0.37275 0.44999 0.06125
 H299 H 0.47475 0.39307 0.09362
 H300 H 0.43970 0.36368 0.13925
 C301 C 0.82909 0.17923 -0.19039
 C302 C 0.82631 0.21939 -0.18550
 C303 C 0.80278 0.24161 -0.20549
 C304 C 0.78039 0.22402 -0.23018
 C305 C 0.78591 0.18386 -0.23642
 C306 C 0.80950 0.16165 -0.21632
 C307 C 0.85087 0.15613 -0.16787
 C308 C 0.86832 0.13751 -0.14796
 C309 C 0.88825 0.11612 -0.12306
 C310 C 0.91114 0.13600 -0.10053
 C311 C 0.92828 0.11592 -0.07477
 C312 C 0.92265 0.07565 -0.07114
 C313 C 0.90034 0.05570 -0.09435
 C314 C 0.88317 0.07588 -0.12009
 H315 H 0.84183 0.23350 -0.16585
 H316 H 0.80096 0.27264 -0.20095
 H317 H 0.77226 0.16927 -0.25675
 H318 H 0.81220 0.13067 -0.22085
 H319 H 0.91519 0.16715 -0.10253
 H320 H 0.94548 0.13202 -0.05741
 H321 H 0.89559 0.02467 -0.09224
 H322 H 0.86541 0.06021 -0.13731
 C323 C 0.82684 0.68240 0.31242
 C324 C 0.82287 0.67334 0.27910
 C325 C 0.79852 0.69517 0.25943
 C326 C 0.77647 0.72557 0.27296
 C327 C 0.78309 0.73591 0.30615
 C328 C 0.80745 0.71413 0.32568
 C329 C 0.85017 0.65907 0.33347
 C330 C 0.86866 0.64010 0.35238
 C331 C 0.88948 0.61824 0.37635
 C332 C 0.92846 0.62327 0.37961
 C333 C 0.94797 0.60451 0.40485
 C334 C 0.92859 0.58071 0.42722
 C335 C 0.88961 0.57503 0.42318
 C336 C 0.87021 0.59373 0.39793
 H337 H 0.83839 0.64929 0.26837
 H338 H 0.79617 0.68779 0.23364
 H339 H 0.76987 0.76103 0.31729
 H340 H 0.81112 0.72209 0.35127
 H341 H 0.94362 0.64230 0.36312
 H342 H 0.97802 0.60933 0.40730
 H343 H 0.87400 0.55668 0.43990
 H344 H 0.84003 0.58972 0.39568
 C345 C 0.31834 0.17337 0.31143
 C346 C 0.28760 0.19325 0.32481
 C347 C 0.26584 0.21775 0.30524
 C348 C 0.27522 0.22401 0.27195
 C349 C 0.30452 0.20116 0.25832
 C350 C 0.32632 0.17671 0.27799
 C351 C 0.34188 0.15030 0.33244
 C352 C 0.36107 0.13201 0.35125
 C353 C 0.38296 0.11131 0.37517
 C354 C 0.36489 0.08594 0.39679
 C355 C 0.38506 0.06877 0.42231
 C356 C 0.42362 0.07684 0.42659
 C357 C 0.44192 0.10136 0.40411
 C358 C 0.42161 0.11863 0.37860
 H359 H 0.28051 0.18995 0.35052
 H360 H 0.24161 0.23142 0.31646
 H361 H 0.31122 0.20322 0.23245
 H362 H 0.34959 0.16076 0.26719
 H363 H 0.33498 0.08020 0.39442
 H364 H 0.37030 0.04976 0.43908
 H365 H 0.47163 0.10798 0.40678
 H366 H 0.43581 0.13839 0.36206
 C367 C 0.31849 0.67214 -0.18894
 C368 C 0.28779 0.69171 -0.17518
 C369 C 0.26582 0.71643 -0.19435
 C370 C 0.27496 0.72326 -0.22762
 C371 C 0.30416 0.70065 -0.24168
 C372 C 0.32619 0.67597 -0.22239
 C373 C 0.34232 0.64896 -0.16826
 C374 C 0.36171 0.63065 -0.14962
 C375 C 0.38378 0.60999 -0.12580
 C376 C 0.36585 0.58477 -0.10399
 C377 C 0.38615 0.56782 -0.07844
 C378 C 0.42472 0.57597 -0.07435
 C379 C 0.44290 0.60029 -0.09704
 C380 C 0.42244 0.61735 -0.12258
 H381 H 0.28091 0.68801 -0.14947
 H382 H 0.24165 0.72987 -0.18284
 H383 H 0.31064 0.70311 -0.26756
 H384 H 0.34942 0.66026 -0.23350
 H385 H 0.33592 0.57901 -0.10619
 H386 H 0.37148 0.54894 -0.06150
 H387 H 0.47261 0.60696 -0.09452
 H388 H 0.43654 0.63702 -0.13926
 C389 C 1.18187 -0.17101 -0.19011
 C390 C 1.22048 -0.17428 -0.18406
 C391 C 1.24271 -0.19841 -0.20378
 C392 C 1.22652 -0.22102 -0.22923
 C393 C 1.18805 -0.21463 -0.23668
 C394 C 1.16587 -0.19046 -0.21690
 C395 C 1.15848 -0.14908 -0.16796
 C396 C 1.13918 -0.13169 -0.14849
 C397 C 1.11679 -0.11193 -0.12420
 C398 C 1.11963 -0.07155 -0.12029
 C399 C 1.10014 -0.05284 -0.09493
 C400 C 1.07773 -0.07441 -0.07308
 C401 C 1.07422 -0.11481 -0.07777
 C402 C 1.09370 -0.13344 -0.10317
 H403 H 1.23333 -0.15872 -0.16372
 H404 H 1.27254 -0.20057 -0.19845
 H405 H 1.17473 -0.22810 -0.25772
 H406 H 1.13614 -0.18727 -0.22234
 H407 H 1.13750 -0.05467 -0.13640
 H408 H 1.10329 -0.02165 -0.09196
 H409 H 1.05703 -0.13211 -0.06143
 H410 H 1.09138 -0.16473 -0.10598
 C411 C 1.18116 0.33007 0.30723
 C412 C 1.21971 0.32708 0.31372
 C413 C 1.24230 0.30267 0.29458
 C414 C 1.22656 0.27951 0.26927
 C415 C 1.18815 0.28555 0.26137
 C416 C 1.16560 0.31000 0.28058
 C417 C 1.15747 0.35231 0.32891
 C418 C 1.13825 0.37000 0.34825
 C419 C 1.11652 0.39013 0.37278
 C420 C 1.13471 0.41533 0.39470
 C421 C 1.11477 0.43207 0.42068
 C422 C 1.07631 0.42375 0.42511
 C423 C 1.05786 0.39938 0.40237
 C424 C 1.07796 0.38251 0.37639
 H425 H 1.23223 0.34309 0.33397
 H426 H 1.27207 0.30076 0.30024
 H427 H 1.17516 0.27162 0.24039
 H428 H 1.13592 0.31293 0.27482
 H429 H 1.16456 0.42131 0.39219
 H430 H 1.12964 0.45100 0.43765
 H431 H 1.02822 0.39259 0.40515
 H432 H 1.06366 0.36288 0.35960
 C433 C 0.67244 -0.17969 0.30930
 C434 C 0.69212 -0.16251 0.28344
 C435 C 0.71640 -0.18488 0.26396
 C436 C 0.72251 -0.22472 0.27079
 C437 C 0.70016 -0.24196 0.29549
 C438 C 0.67594 -0.21959 0.31485
 C439 C 0.64978 -0.15639 0.33110
 C440 C 0.63162 -0.13758 0.35049
 C441 C 0.61096 -0.11606 0.37493
 C442 C 0.63028 -0.09148 0.39668
 C443 C 0.61101 -0.07312 0.42234
 C444 C 0.57214 -0.07921 0.42660
 C445 C 0.55270 -0.10307 0.40407
 C446 C 0.57207 -0.12149 0.37844
 H447 H 0.68889 -0.13175 0.27843
 H448 H 0.73002 -0.17069 0.24356
 H449 H 0.70238 -0.27282 0.30040
 H450 H 0.66036 -0.23336 0.33448
 H451 H 0.66039 -0.08717 0.39424
 H452 H 0.62667 -0.05471 0.43917
 H453 H 0.52273 -0.10820 0.40670
 H454 H 0.55688 -0.14057 0.36181
 C455 C 0.67566 0.31710 -0.18882
 C456 C 0.69529 0.28569 -0.17554
 C457 C 0.71982 0.26383 -0.19504
 C458 C 0.72642 0.27374 -0.22823
 C459 C 0.70417 0.30382 -0.24178
 C460 C 0.67963 0.32575 -0.22214
 C461 C 0.65210 0.34050 -0.16776
 C462 C 0.63347 0.35952 -0.14881
 C463 C 0.61256 0.38150 -0.12474
 C464 C 0.63170 0.40677 -0.10343
 C465 C 0.61233 0.42565 -0.07809
 C466 C 0.57349 0.41943 -0.07366
 C467 C 0.55421 0.39485 -0.09575
 C468 C 0.57369 0.37590 -0.12108
 H469 H 0.69165 0.27803 -0.14997
 H470 H 0.73315 0.23894 -0.18384
 H471 H 0.70648 0.31087 -0.26757
 H472 H 0.66396 0.34953 -0.23291
 H473 H 0.66178 0.41125 -0.10596
 H474 H 0.62789 0.44459 -0.06161
 H475 H 0.52428 0.38958 -0.09300
 H476 H 0.55862 0.35628 -0.13734
 C477 C 1.16994 0.17945 -0.18925
 C478 C 1.17359 0.21946 -0.18398
 C479 C 1.19743 0.24143 -0.20385
 C480 C 1.21926 0.22365 -0.22878
 C481 C 1.21284 0.18371 -0.23538
 C482 C 1.18895 0.16176 -0.21540
 C483 C 1.14789 0.15652 -0.16691
 C484 C 1.13025 0.13794 -0.14715
 C485 C 1.11015 0.11658 -0.12243
 C486 C 1.07118 0.12126 -0.11883
 C487 C 1.05223 0.10276 -0.09318
 C488 C 1.07215 0.07954 -0.07072
 C489 C 1.11113 0.07427 -0.07501
 C490 C 1.12999 0.09274 -0.10069
 H491 H 1.15849 0.23364 -0.16414
 H492 H 1.19987 0.27237 -0.19908
 H493 H 1.22599 0.16909 -0.25593
 H494 H 1.18556 0.13091 -0.22022
 H495 H 1.05558 0.13976 -0.13546
 H496 H 1.02216 0.10725 -0.09054
 H497 H 1.12715 0.05637 -0.05823
 H498 H 1.16017 0.08899 -0.10322
 C499 C 1.17351 0.68004 0.30748
 C500 C 1.17958 0.71925 0.31488
 C501 C 1.20353 0.74158 0.29539
 C502 C 1.22362 0.72487 0.26865
 C503 C 1.21400 0.68602 0.25984
 C504 C 1.19001 0.66373 0.27949
 C505 C 1.15129 0.65657 0.32938
 C506 C 1.13350 0.63773 0.34890
 C507 C 1.11317 0.61633 0.37352
 C508 C 1.08956 0.63622 0.39541
 C509 C 1.07227 0.61637 0.42118
 C510 C 1.07844 0.57628 0.42547
 C511 C 1.10136 0.55623 0.40283
 C512 C 1.11872 0.57622 0.37707
 H513 H 1.16618 0.73254 0.33604
 H514 H 1.20737 0.77192 0.30190
 H515 H 1.22497 0.67245 0.23783
 H516 H 1.18452 0.63366 0.27291
 H517 H 1.08514 0.66728 0.39297
 H518 H 1.05458 0.63253 0.43808
 H519 H 1.10655 0.52534 0.40546
 H520 H 1.13706 0.56054 0.36035
 C521 C 0.67054 0.18022 0.30965
 C522 C 0.67387 0.22019 0.31534
 C523 C 0.69782 0.24260 0.29591
 C524 C 0.72008 0.22532 0.27103
 C525 C 0.71406 0.18540 0.26404
 C526 C 0.69006 0.16301 0.28357
 C527 C 0.64815 0.15685 0.33143
 C528 C 0.63018 0.13794 0.35074
 C529 C 0.60960 0.11635 0.37503
 C530 C 0.58543 0.13599 0.39659
 C531 C 0.56787 0.11593 0.42209
 C532 C 0.57436 0.07591 0.42642
 C533 C 0.59784 0.05610 0.40408
 C534 C 0.61545 0.07628 0.37858
 H535 H 0.65837 0.23400 0.33513
 H536 H 0.69993 0.27351 0.30094
 H537 H 0.72754 0.17113 0.24349
 H538 H 0.68692 0.13221 0.27842
 H539 H 0.58078 0.16700 0.39411
 H540 H 0.54975 0.13190 0.43877
 H541 H 0.60327 0.02526 0.40676
 H542 H 0.63422 0.06082 0.36209
 C543 C 0.67072 0.67817 -0.19281
 C544 C 0.69042 0.66097 -0.21880
 C545 C 0.71458 0.68337 -0.23819
 C546 C 0.72056 0.72328 -0.23112
 C547 C 0.69809 0.74055 -0.20638
 C548 C 0.67399 0.71815 -0.18711
 C549 C 0.64834 0.65483 -0.17102
 C550 C 0.63040 0.63606 -0.15160
 C551 C 0.60993 0.61474 -0.12708
 C552 C 0.61580 0.57472 -0.12324
 C553 C 0.59842 0.55485 -0.09745
 C554 C 0.57518 0.57494 -0.07510
 C555 C 0.56865 0.61490 -0.07972
 C556 C 0.58597 0.63465 -0.10552
 H557 H 0.68735 0.63016 -0.22395
 H558 H 0.72827 0.66912 -0.25864
 H559 H 0.70021 0.77145 -0.20128
 H560 H 0.65837 0.73195 -0.16739
 H561 H 0.63443 0.55906 -0.13972
 H562 H 0.60387 0.52404 -0.09455
 H563 H 0.55070 0.63107 -0.06303
 H564 H 0.58133 0.66564 -0.10820
 C565 C 0.82482 -0.18370 -0.18837
 C566 C 0.82134 -0.17506 -0.22172
 C567 C 0.79713 -0.19703 -0.24163
 C568 C 0.77474 -0.22715 -0.22833
 C569 C 0.78090 -0.23713 -0.19510
 C570 C 0.80513 -0.21521 -0.17531
 C571 C 0.84793 -0.16012 -0.16709
 C572 C 0.86623 -0.14088 -0.14805
 C573 C 0.88686 -0.11866 -0.12397
 C574 C 0.92591 -0.12313 -0.12084
 C575 C 0.94528 -0.10404 -0.09551
 C576 C 0.92569 -0.08047 -0.07289
 C577 C 0.88664 -0.07531 -0.07680
 C578 C 0.86738 -0.09434 -0.10216
 H579 H 0.83709 -0.15120 -0.23229
 H580 H 0.79510 -0.18992 -0.26744
 H581 H 0.76742 -0.26205 -0.18410
 H582 H 0.80843 -0.22285 -0.14970
 H583 H 0.94125 -0.14200 -0.13752
 H584 H 0.97538 -0.10849 -0.09315
 H585 H 0.87085 -0.05717 -0.05989
 H586 H 0.83714 -0.09075 -0.10430
 C587 C 0.82467 0.31921 0.31213
 C588 C 0.82080 0.32738 0.27873
 C589 C 0.79636 0.30514 0.25926
 C590 C 0.77413 0.27519 0.27304
 C591 C 0.78064 0.26572 0.30633
 C592 C 0.80509 0.28791 0.32568
 C593 C 0.84829 0.34289 0.33290
 C594 C 0.86718 0.36209 0.35153
 C595 C 0.88871 0.38400 0.37521
 C596 C 0.88296 0.42410 0.37898
 C597 C 0.90126 0.44453 0.40419
 C598 C 0.92531 0.42493 0.42604
 C599 C 0.93175 0.38488 0.42142
 C600 C 0.91353 0.36458 0.39620
 H601 H 0.83647 0.35105 0.26777
 H602 H 0.79405 0.31188 0.23340
 H603 H 0.76728 0.24096 0.31770
 H604 H 0.80872 0.28061 0.35134
 H605 H 0.86368 0.43939 0.36295
 H606 H 0.89584 0.47538 0.40711
 H607 H 0.95031 0.36906 0.43771
 H608 H 0.91809 0.33354 0.39358
 C609 C 0.32563 -0.18298 0.30963
 C610 C 0.30975 -0.21715 0.32178
 C611 C 0.28569 -0.23952 0.30220
 C612 C 0.27525 -0.22739 0.27015
 C613 C 0.29471 -0.19463 0.25740
 C614 C 0.31877 -0.17222 0.27715
 C615 C 0.34841 -0.15904 0.33099
 C616 C 0.36655 -0.13977 0.35018
 C617 C 0.38721 -0.11785 0.37451
 C618 C 0.41133 -0.13724 0.39614
 C619 C 0.42882 -0.11691 0.42177
 C620 C 0.42233 -0.07684 0.42619
 C621 C 0.39892 -0.05728 0.40379
 C622 C 0.38136 -0.07774 0.37817
 H623 H 0.31588 -0.22653 0.34657
 H624 H 0.27526 -0.26639 0.31253
 H625 H 0.29052 -0.18569 0.23221
 H626 H 0.33182 -0.14638 0.26711
 H627 H 0.41598 -0.16829 0.39364
 H628 H 0.44689 -0.13272 0.43848
 H629 H 0.39347 -0.02642 0.40652
 H630 H 0.36261 -0.06244 0.36167
 C631 C 0.32490 0.31638 -0.18836
 C632 C 0.30526 0.28517 -0.17474
 C633 C 0.28058 0.26314 -0.19399
 C634 C 0.27390 0.27273 -0.22722
 C635 C 0.29628 0.30247 -0.24112
 C636 C 0.32094 0.32456 -0.22175
 C637 C 0.34845 0.34010 -0.16759
 C638 C 0.36713 0.35938 -0.14887
 C639 C 0.38824 0.38145 -0.12504
 C640 C 0.41259 0.36219 -0.10354
 C641 C 0.43022 0.38267 -0.07811
 C642 C 0.42360 0.42272 -0.07379
 C643 C 0.40004 0.44216 -0.09613
 C644 C 0.38234 0.42156 -0.12155
 H645 H 0.30895 0.27787 -0.14909
 H646 H 0.26713 0.23847 -0.18257
 H647 H 0.29386 0.30924 -0.26697
 H648 H 0.33665 0.34817 -0.23275
 H649 H 0.41723 0.33113 -0.10594
 H650 H 0.44843 0.36699 -0.06143
 H651 H 0.39452 0.47302 -0.09346
 H652 H 0.36339 0.43671 -0.13796
 C653 C 1.17309 -0.18269 0.19002
 C654 C 1.17981 -0.22179 0.18268
 C655 C 1.20390 -0.24371 0.20238
 C656 C 1.22349 -0.22668 0.22929
 C657 C 1.21325 -0.18798 0.23799
 C658 C 1.18911 -0.16610 0.21814
 C659 C 1.15067 -0.15957 0.16799
 C660 C 1.13274 -0.14083 0.14848
 C661 C 1.11225 -0.11926 0.12404
 C662 C 1.07326 -0.12414 0.12060
 C663 C 1.05394 -0.10536 0.09525
 C664 C 1.07348 -0.08163 0.07292
 C665 C 1.11249 -0.07619 0.07705
 C666 C 1.13171 -0.09494 0.10242
 H667 H 1.16679 -0.23530 0.16141
 H668 H 1.20823 -0.27399 0.19591
 H669 H 1.22383 -0.17423 0.26009
 H670 H 1.18312 -0.13612 0.22467
 H671 H 1.05792 -0.14299 0.13711
 H672 H 1.02388 -0.11002 0.09275
 H673 H 1.12824 -0.05793 0.06037
 H674 H 1.16190 -0.09101 0.10480
 C675 C 1.17050 0.32095 0.69193
 C676 C 1.17310 0.28087 0.68651
 C677 C 1.19675 0.25823 0.70603
 C678 C 1.21945 0.27538 0.73071
 C679 C 1.21405 0.31543 0.73753
 C680 C 1.19035 0.33805 0.71791
 C681 C 1.14875 0.34452 0.66984
 C682 C 1.13137 0.36350 0.65018
 C683 C 1.11156 0.38505 0.62539
 C684 C 1.08769 0.36540 0.60354
 C685 C 1.07096 0.38532 0.57755
 C686 C 1.07797 0.42522 0.57302
 C687 C 1.10114 0.44506 0.59563
 C688 C 1.11795 0.42500 0.62161
 H689 H 1.15734 0.26716 0.66680
 H690 H 1.19839 0.22726 0.70115
 H691 H 1.22788 0.32964 0.75796
 H692 H 1.18778 0.36895 0.72285
 H693 H 1.08264 0.33446 0.60618
 H694 H 1.05302 0.36935 0.56068
 H695 H 1.10694 0.47581 0.59280
 H696 H 1.13651 0.44045 0.63832
 C697 C 0.67166 -0.17915 0.69022
 C698 C 0.67502 -0.21908 0.68434
 C699 C 0.69889 -0.24161 0.70375
 C700 C 0.72105 -0.22450 0.72882
 C701 C 0.71505 -0.18462 0.73596
 C702 C 0.69112 -0.16210 0.71645
 C703 C 0.64927 -0.15570 0.66850
 C704 C 0.63123 -0.13682 0.64921
 C705 C 0.61053 -0.11536 0.62490
 C706 C 0.58642 -0.13518 0.60336
 C707 C 0.56874 -0.11528 0.57782
 C708 C 0.57503 -0.07523 0.57344
 C709 C 0.59844 -0.05524 0.59576
 C710 C 0.61619 -0.07527 0.62129
 H711 H 0.65957 -0.23276 0.66444
 H712 H 0.70100 -0.27248 0.69857
 H713 H 0.72849 -0.17049 0.75664
 H714 H 0.68798 -0.13134 0.72174
 H715 H 0.58191 -0.16622 0.60587
 H716 H 0.55066 -0.13138 0.56115
 H717 H 0.60372 -0.02437 0.59304
 H718 H 0.63491 -0.05968 0.63776
 C719 C 0.67057 0.32231 0.19186
 C720 C 0.67370 0.28229 0.18636
 C721 C 0.69756 0.25991 0.20590
 C722 C 0.71995 0.27728 0.23069
 C723 C 0.71406 0.31725 0.23755
 C724 C 0.69014 0.33960 0.21790
 C725 C 0.64847 0.34562 0.16981
 C726 C 0.63075 0.36436 0.15020
 C727 C 0.61052 0.38561 0.12548
 C728 C 0.58659 0.36564 0.10388
 C729 C 0.56941 0.38529 0.07795
 C730 C 0.57603 0.42523 0.07324
 C731 C 0.59926 0.44538 0.09560
 C732 C 0.61651 0.42560 0.12152
 H733 H 0.65815 0.26842 0.16660
 H734 H 0.69958 0.22898 0.20097
 H735 H 0.72765 0.33159 0.25803
 H736 H 0.68717 0.37046 0.22289
 H737 H 0.58185 0.33467 0.10666
 H738 H 0.55146 0.36907 0.06127
 H739 H 0.60476 0.47617 0.09263
 H740 H 0.63510 0.44130 0.13803
 C741 C 0.82401 0.18339 0.18909
 C742 C 0.82043 0.17522 0.22252
 C743 C 0.79626 0.19753 0.24215
 C744 C 0.77400 0.22752 0.22849
 C745 C 0.78029 0.23706 0.19519
 C746 C 0.80447 0.21480 0.17568
 C747 C 0.84707 0.15942 0.16812
 C748 C 0.86536 0.13982 0.14937
 C749 C 0.88605 0.11716 0.12566
 C750 C 0.92512 0.12152 0.12269
 C751 C 0.94458 0.10202 0.09768
 C752 C 0.92506 0.07811 0.07522
 C753 C 0.88599 0.07303 0.07901
 C754 C 0.86663 0.09249 0.10404
 H755 H 0.83606 0.15145 0.23336
 H756 H 0.79413 0.19075 0.26801
 H757 H 0.76692 0.26187 0.18391
 H758 H 0.80787 0.22208 0.15000
 H759 H 0.94041 0.14065 0.13922
 H760 H 0.97470 0.10642 0.09541
 H761 H 0.87025 0.05465 0.06221
 H762 H 0.83637 0.08898 0.10607
 C763 C 0.82582 0.68208 0.68769
 C764 C 0.80638 0.71355 0.67429
 C765 C 0.78179 0.73550 0.69365
 C766 C 0.77499 0.72560 0.72680
 C767 C 0.79705 0.69545 0.74047
 C768 C 0.82163 0.67345 0.72098
 C769 C 0.84955 0.65864 0.66687
 C770 C 0.86850 0.63963 0.64818
 C771 C 0.89002 0.61785 0.62444
 C772 C 0.88454 0.57769 0.62081
 C773 C 0.90273 0.55734 0.59555
 C774 C 0.92642 0.57706 0.57349
 C775 C 0.93263 0.61717 0.57797
 C776 C 0.91449 0.63741 0.60325
 H777 H 0.81024 0.72119 0.64873
 H778 H 0.76857 0.76042 0.68241
 H779 H 0.79452 0.68838 0.76625
 H780 H 0.83717 0.64963 0.73183
 H781 H 0.86552 0.56230 0.63699
 H782 H 0.89750 0.52643 0.59274
 H783 H 0.95090 0.63308 0.56151
 H784 H 0.91884 0.66850 0.60577
 C785 C 0.32280 0.18077 0.68886
 C786 C 0.30336 0.21226 0.67550
 C787 C 0.27923 0.23454 0.69504
 C788 C 0.27290 0.22497 0.72832
 C789 C 0.29496 0.19476 0.74190
 C790 C 0.31908 0.17243 0.72224
 C791 C 0.34618 0.15714 0.66789
 C792 C 0.36484 0.13807 0.64903
 C793 C 0.38605 0.11636 0.62505
 C794 C 0.41024 0.13601 0.60368
 C795 C 0.42808 0.11589 0.57819
 C796 C 0.42185 0.07579 0.57367
 C797 C 0.39844 0.05596 0.59588
 C798 C 0.38053 0.07621 0.62136
 H799 H 0.30688 0.21969 0.64987
 H800 H 0.26603 0.25948 0.68381
 H801 H 0.29282 0.18794 0.76775
 H802 H 0.33466 0.14860 0.73305
 H803 H 0.41461 0.16710 0.60624
 H804 H 0.44616 0.13187 0.56162
 H805 H 0.39321 0.02506 0.59306
 H806 H 0.36172 0.06075 0.63768
 C807 C 0.32688 0.68256 0.18920
 C808 C 0.31077 0.71654 0.17692
 C809 C 0.28635 0.73865 0.19632
 C810 C 0.27578 0.72640 0.22829
 C811 C 0.29552 0.69391 0.24122
 C812 C 0.31994 0.67176 0.22165
 C813 C 0.34986 0.65875 0.16796
 C814 C 0.36810 0.63952 0.14885
 C815 C 0.38879 0.61760 0.12458
 C816 C 0.41255 0.63705 0.10271
 C817 C 0.42996 0.61668 0.07710
 C818 C 0.42376 0.57652 0.07295
 C819 C 0.40074 0.55692 0.09561
 C820 C 0.38325 0.57741 0.12120
 H821 H 0.31697 0.72596 0.15216
 H822 H 0.27571 0.76538 0.18590
 H823 H 0.29122 0.68495 0.26638
 H824 H 0.33315 0.64607 0.23178
 H825 H 0.41694 0.66816 0.10500
 H826 H 0.44774 0.63252 0.06019
 H827 H 0.39552 0.52598 0.09308
 H828 H 0.36478 0.56207 0.13789
   
