data_POSCAR
  _audit_creation_date              2014-09-24
  _audit_creation_method            'ToBaCCo'
  _symmetry_space_group_name_H-M    'P1'
  _symmetry_Int_Tables_number       1
  _symmetry_cell_setting            triclinic
  loop_
  _symmetry_equiv_pos_as_xyz
 x,y,z
_cell_length_a 19.9033
_cell_length_b 19.5017
_cell_length_c 26.4990
_cell_angle_alpha 87.653200
_cell_angle_beta 93.220400
_cell_angle_gamma 81.011500
loop_
  _atom_site_label
  _atom_site_type_symbol
  _atom_site_fract_x
  _atom_site_fract_y
  _atom_site_fract_z
C1 C 0.02240 0.55695 1.01837
 C2 C 0.00905 0.55653 0.96475
 C3 C 0.00048 0.49278 0.94341
 C4 C 0.00781 0.42927 0.97247
 C5 C 0.01349 0.43271 1.02558
 C6 C 0.02537 0.49435 1.04727
 H7 H 0.02790 0.49565 1.08821
 H8 H -0.00763 0.49161 0.90282
 C9 C 0.44431 -0.00046 0.52334
 C10 C 0.43899 -0.00508 0.47016
 C11 C 0.49724 -0.00082 0.44291
 C12 C 0.56095 0.00701 0.46702
 C13 C 0.56422 0.01415 0.52049
 C14 C 0.50590 0.01025 0.54703
 H15 H 0.50830 0.01572 0.58762
 H16 H 0.49305 -0.00651 0.40246
 C17 C 0.12707 -0.01906 0.27009
 H18 H 0.12720 -0.01528 0.22925
 C19 C 0.18796 -0.02141 0.29949
 H20 H 0.23490 -0.01943 0.28111
 C21 C 0.06522 -0.02406 0.34365
 H22 H 0.01725 -0.02433 0.36073
 C23 C 0.12470 -0.02507 0.37448
 H24 H 0.12210 -0.02694 0.41522
 N25 N 0.06753 -0.02190 0.29242
 C26 C -0.06207 -0.10456 0.17867
 H27 H -0.10876 -0.06785 0.17916
 C28 C -0.05863 -0.16015 0.14669
 H29 H -0.10362 -0.16504 0.12350
 C30 C 0.05221 -0.14141 0.20943
 H31 H 0.09539 -0.13469 0.23408
 C32 C 0.05825 -0.19684 0.17761
 H33 H 0.10734 -0.22957 0.17760
 Zn34 Zn -0.01298 -0.01761 0.24958
 N35 N -0.00684 -0.09576 0.20879
 C36 C -0.02802 0.06548 0.15720
 N37 N -0.02036 0.06504 0.20857
 C38 C -0.01409 0.12397 0.23288
 C39 C -0.01537 0.18670 0.20541
 C40 C -0.03021 0.12737 0.12823
 C41 C -0.09712 -0.07167 0.31836
 C42 C -0.15409 -0.07156 0.34700
 C43 C -0.19827 0.04372 0.31167
 C44 C -0.14064 0.04138 0.28373
 N45 N -0.09104 -0.01539 0.28794
 H46 H -0.03151 0.01788 0.13853
 H47 H -0.00742 0.12191 0.27374
 H48 H -0.01029 0.23315 0.22538
 H49 H -0.03506 0.12679 0.08738
 H50 H -0.05747 -0.11666 0.32045
 H51 H -0.15746 -0.11717 0.37052
 H52 H -0.23593 0.09041 0.30863
 H53 H -0.13563 0.08526 0.25882
 C54 C 0.00229 -0.20770 0.14562
 C55 C 0.18714 -0.02442 0.35239
 C56 C -0.20578 -0.01316 0.34405
 C57 C -0.02331 0.18878 0.15242
 C58 C 0.00672 0.14441 0.76347
 H59 H -0.00348 0.15463 0.72311
 C60 C 0.00927 0.19956 0.79515
 H61 H -0.00009 0.25222 0.77883
 C62 C 0.02992 0.06303 0.83352
 H63 H 0.03798 0.00984 0.84840
 C64 C 0.03401 0.11653 0.86645
 H65 H 0.04692 0.10330 0.90619
 N66 N 0.01729 0.07773 0.78297
 C67 C 0.09951 -0.03967 0.65791
 H68 H 0.05963 -0.06918 0.64737
 C69 C 0.15716 -0.04325 0.62975
 H70 H 0.15947 -0.07414 0.59677
 C71 C 0.14319 0.03700 0.71344
 H72 H 0.13819 0.06735 0.74661
 C73 C 0.20255 0.03295 0.68762
 H74 H 0.24243 0.05995 0.70208
 Zn75 Zn 0.01527 0.00666 0.73649
 N76 N 0.09284 0.00149 0.69808
 C77 C -0.06808 0.03746 0.64365
 N78 N -0.06659 0.02997 0.69506
 C79 C -0.12506 0.03774 0.71979
 C80 C -0.18808 0.04687 0.69275
 C81 C -0.13030 0.04720 0.61497
 C82 C 0.07553 -0.10880 0.79959
 C83 C 0.07867 -0.17128 0.82812
 C84 C -0.03611 -0.17729 0.79656
 C85 C -0.03666 -0.11532 0.76817
 N86 N 0.01788 -0.08121 0.77127
 H87 H -0.02129 0.03427 0.62460
 H88 H -0.12247 0.03363 0.76072
 H89 H -0.23403 0.04993 0.71313
 H90 H -0.13067 0.04962 0.57406
 H91 H 0.11883 -0.08143 0.80076
 H92 H 0.12514 -0.19068 0.85045
 H93 H -0.08219 -0.20016 0.79513
 H94 H -0.08154 -0.09409 0.74453
 C95 C 0.21015 -0.00673 0.64453
 C96 C 0.02343 0.18601 0.84747
 C97 C 0.02193 -0.20645 0.82767
 C98 C -0.19108 0.04966 0.63965
 C99 C -0.02068 -0.31974 0.03244
 C100 C 0.02397 -0.38182 0.04541
 C101 C 0.06616 -0.38269 0.09024
 C102 C 0.05873 -0.32689 0.12238
 C103 C 0.00927 -0.26700 0.11102
 C104 C -0.02808 -0.26413 0.06408
 C105 C -0.10329 -0.24905 0.05054
 C106 C -0.09425 -0.30883 0.01545
 H107 H 0.10389 -0.42777 0.10156
 H108 H 0.08992 -0.33309 0.15748
 H109 H -0.11881 -0.19763 0.03003
 H110 H -0.13435 -0.25935 0.08280
 H111 H -0.10315 -0.29159 -0.02520
 H112 H -0.12006 -0.35292 0.02736
 C113 C -0.06011 0.35147 0.04717
 C114 C -0.00230 0.38024 0.05757
 C115 C 0.03667 0.35673 0.10337
 C116 C 0.02690 0.29785 0.13424
 C117 C -0.02204 0.25427 0.12278
 C118 C -0.06683 0.27559 0.08152
 C119 C -0.13308 0.23960 0.03227
 C120 C -0.12805 0.33565 -0.01360
 H121 H 0.07988 0.38164 0.11431
 H122 H 0.06256 0.28341 0.16672
 H123 H -0.18401 0.23877 0.04796
 H124 H -0.11799 0.18577 0.02015
 H125 H -0.17641 0.37407 -0.01583
 H126 H -0.11381 0.33274 -0.05364
 C127 C 0.37328 0.03940 0.59446
 C128 C 0.38808 -0.00746 0.55666
 C129 C 0.35159 -0.06384 0.55499
 C130 C 0.29485 -0.06537 0.58450
 C131 C 0.27353 -0.01057 0.61647
 C132 C 0.31731 0.03869 0.62269
 C133 C 0.30484 0.11629 0.62398
 C134 C 0.36805 0.11647 0.59417
 H135 H 0.36512 -0.10506 0.52949
 H136 H 0.26735 -0.10870 0.58103
 H137 H 0.31163 0.13466 0.66281
 H138 H 0.25686 0.14016 0.60229
 H139 H 0.41132 0.13250 0.61665
 H140 H 0.35774 0.14230 0.55582
 C141 C -0.36005 -0.00090 0.60000
 C142 C -0.37541 0.02988 0.55122
 C143 C -0.33584 0.08043 0.53593
 C144 C -0.27609 0.08899 0.56498
 C145 C -0.25699 0.04965 0.61096
 C146 C -0.30300 0.00877 0.62893
 C147 C -0.29231 -0.06401 0.65118
 C148 C -0.35603 -0.07430 0.61970
 H149 H -0.34892 0.11050 0.50053
 H150 H -0.24409 0.12460 0.55085
 H151 H -0.29890 -0.06591 0.69256
 H152 H -0.24490 -0.09565 0.63932
 H153 H -0.39941 -0.08116 0.64304
 H154 H -0.34605 -0.11266 0.59009
 C155 C 0.05462 -0.33658 0.94141
 C156 C 0.01034 -0.38445 0.93155
 C157 C -0.03122 -0.37197 0.88600
 C158 C -0.02598 -0.31610 0.85183
 C159 C 0.02076 -0.26972 0.86165
 C160 C 0.05958 -0.28088 0.90805
 C161 C 0.13525 -0.29002 0.91926
 C162 C 0.12893 -0.34983 0.95608
 H163 H -0.06857 -0.40498 0.87653
 H164 H -0.05787 -0.31091 0.81709
 H165 H 0.15122 -0.24488 0.93830
 H166 H 0.16444 -0.30691 0.88614
 H167 H 0.14015 -0.33847 0.99616
 H168 H 0.15440 -0.40107 0.94438
 C169 C 0.00847 0.29446 0.96395
 C170 C 0.02073 0.36115 0.94580
 C171 C 0.05036 0.36125 0.89799
 C172 C 0.05353 0.30418 0.86664
 C173 C 0.02806 0.24377 0.88183
 C174 C 0.00858 0.24109 0.93137
 C175 C -0.03770 0.20386 0.95929
 C176 C -0.03441 0.25764 1.00121
 H177 H 0.07032 0.40617 0.88359
 H178 H 0.07444 0.30839 0.83000
 H179 H -0.01444 0.14992 0.97202
 H180 H -0.08802 0.20818 0.93793
 H181 H 0.00834 0.22808 1.02725
 H182 H -0.14784 0.32978 1.05322
 C183 C -0.31522 -0.02386 0.45667
 C184 C -0.38122 0.00553 0.43757
 C185 C -0.38719 0.03249 0.38674
 C186 C -0.33072 0.02574 0.35649
 C187 C -0.26613 -0.00928 0.37537
 C188 C -0.25972 -0.03157 0.42661
 C189 C -0.23110 -0.10059 0.45216
 C190 C -0.29082 -0.09111 0.48566
 H191 H -0.43541 0.05954 0.37000
 H192 H -0.33837 0.04635 0.31768
 H193 H -0.18129 -0.09984 0.47315
 H194 H -0.23267 -0.14468 0.42706
 H195 H -0.27468 -0.08364 0.52557
 H196 H -0.32585 -0.12975 0.48021
 C197 C 0.31061 0.02044 0.45462
 C198 C 0.37403 -0.01486 0.44227
 C199 C 0.37350 -0.06182 0.40302
 C200 C 0.31262 -0.06670 0.37430
 C201 C 0.25058 -0.02546 0.38462
 C202 C 0.25075 0.01471 0.42700
 C203 C 0.22200 0.08920 0.43213
 C204 C 0.28739 0.09544 0.46283
 H205 H 0.42039 -0.09334 0.39352
 H206 H 0.31442 -0.10126 0.34328
 H207 H 0.17636 0.09532 0.45485
 H208 H 0.21574 0.11979 0.39534
 H209 H 0.27815 0.10470 0.50304
 H210 H 0.31902 0.13018 0.44434
   
