data_POSCAR
  _audit_creation_date              2014-09-24
  _audit_creation_method            'ToBaCCo'
  _symmetry_space_group_name_H-M    'P1'
  _symmetry_Int_Tables_number       1
  _symmetry_cell_setting            triclinic
  loop_
  _symmetry_equiv_pos_as_xyz
 x,y,z
_cell_length_a 26.4467
_cell_length_b 26.4239
_cell_length_c 26.4153
_cell_angle_alpha 90.055300
_cell_angle_beta 90.004600
_cell_angle_gamma 89.993100
loop_
  _atom_site_label
  _atom_site_type_symbol
  _atom_site_fract_x
  _atom_site_fract_y
  _atom_site_fract_z
C1 C 0.34860 0.96873 -0.47506
 C2 C 0.34867 0.96792 -0.52695
 C3 C 0.39399 0.98952 -0.54232
 N4 N 0.42200 1.00251 -0.50155
 C5 C 0.39418 0.98998 -0.46047
 C6 C 0.40823 0.99930 -0.59309
 C7 C 0.45938 1.00937 -0.60592
 C8 C 0.47504 1.03498 -0.64900
 C9 C 0.52694 1.03442 -0.64886
 C10 C 0.54180 1.00858 -0.60565
 N11 N 0.50037 0.99416 -0.57915
 C12 C 0.59267 0.99769 -0.59241
 C13 C 0.60650 0.98876 -0.54136
 C14 C 0.65165 0.96734 -0.52520
 C15 C 0.65138 0.96929 -0.47334
 C16 C 0.60571 0.99083 -0.45953
 N17 N 0.57821 1.00260 -0.50105
 C18 C 0.59119 1.00211 -0.40944
 C19 C 0.54068 1.01295 -0.39613
 C20 C 0.52525 1.03358 -0.35037
 C21 C 0.47322 1.03300 -0.35050
 C22 C 0.45849 1.01212 -0.39637
 N23 N 0.49979 1.00024 -0.42403
 C24 C 0.40829 1.00044 -0.41007
 H25 H 0.31859 0.95503 -0.45083
 H26 H 0.31875 0.95303 -0.55060
 H27 H 0.50007 0.97889 -0.45716
 H28 H 0.45152 1.05265 -0.67747
 H29 H 0.55102 1.05157 -0.67718
 H30 H 0.68170 0.95185 -0.54829
 H31 H 0.68118 0.95601 -0.44861
 H32 H 0.44902 1.04567 -0.31997
 H33 H 0.50009 0.97086 -0.54731
 H34 H 0.54898 1.04676 -0.31969
 C35 C -0.65065 1.52656 0.03279
 C36 C -0.65075 1.47476 0.03338
 C37 C -0.60667 1.45931 0.00949
 N38 N -0.57922 1.50005 -0.00502
 C39 C -0.60647 1.54124 0.00866
 C40 C -0.59286 1.40830 0.00011
 C41 C -0.54188 1.39506 -0.01005
 C42 C -0.52605 1.35081 -0.03363
 C43 C -0.47410 1.35081 -0.03244
 C44 C -0.45958 1.39538 -0.00891
 N45 N -0.50104 1.42238 0.00426
 C46 C -0.40916 1.40866 0.00259
 C47 C -0.39461 1.45880 0.01340
 C48 C -0.34764 1.47344 0.03151
 C49 C -0.34756 1.52539 0.03203
 C50 C -0.39445 1.54052 0.01414
 N51 N -0.42315 1.49981 0.00286
 C52 C -0.40877 1.59088 0.00408
 C53 C -0.45891 1.60436 -0.00825
 C54 C -0.47283 1.64887 -0.03213
 C55 C -0.52474 1.64898 -0.03444
 C56 C -0.54118 1.60492 -0.01098
 N57 N -0.50070 1.57754 0.00419
 C58 C -0.59239 1.59196 -0.00161
 H59 H -0.67945 1.55069 0.04908
 H60 H -0.67965 1.45118 0.05022
 H61 H -0.50175 1.54523 0.02674
 H62 H -0.54946 1.32138 -0.04983
 H63 H -0.44978 1.32134 -0.04719
 H64 H -0.31650 1.44927 0.04252
 H65 H -0.31633 1.54924 0.04350
 H66 H -0.54772 1.67838 -0.05126
 H67 H -0.50164 1.45479 0.02675
 H68 H -0.44812 1.67818 -0.04649
 C69 C 0.02916 0.52775 0.34885
 C70 C 0.03166 0.47594 0.34852
 C71 C 0.01056 0.45956 0.39376
 N72 N -0.00368 0.49970 0.42213
 C73 C 0.00756 0.54133 0.39463
 C74 C 0.00237 0.40845 0.40766
 C75 C -0.00800 0.39527 0.45869
 C76 C -0.03345 0.35195 0.47381
 C77 C -0.03375 0.35203 0.52575
 C78 C -0.00837 0.39535 0.54121
 N79 N 0.00647 0.42205 0.50002
 C80 C 0.00175 0.40839 0.59239
 C81 C 0.01156 0.45918 0.60676
 C82 C 0.03178 0.47449 0.65273
 C83 C 0.03070 0.52633 0.65305
 C84 C 0.01126 0.54129 0.60661
 N85 N -0.00058 0.50006 0.57854
 C86 C -0.00075 0.59170 0.59265
 C87 C -0.01432 0.60482 0.54237
 C88 C -0.03382 0.65123 0.52703
 C89 C -0.03480 0.65087 0.47500
 C90 C -0.01522 0.60469 0.45979
 N91 N -0.00313 0.57681 0.50093
 C92 C -0.00404 0.59132 0.40925
 H93 H 0.04213 0.55261 0.31901
 H94 H 0.04736 0.45302 0.31841
 H95 H 0.01812 0.54369 0.50052
 H96 H -0.05055 0.32344 0.44986
 H97 H -0.05114 0.32354 0.54945
 H98 H 0.04541 0.45086 0.68325
 H99 H 0.04223 0.54988 0.68447
 H100 H -0.04681 0.68188 0.45111
 H101 H 0.02953 0.45404 0.50008
 H102 H -0.04446 0.68308 0.55040
 O103 O -0.13015 1.00170 -0.06870
 O104 O 0.13017 0.99814 -0.06904
 O105 O -0.00173 1.06832 -0.13073
 O106 O 0.00159 0.93134 -0.13076
 O107 O 0.00164 0.86956 -0.06895
 O108 O -0.00164 1.13021 -0.06891
 O109 O 0.06835 0.99812 -0.13081
 O110 O -0.06851 1.00162 -0.13063
 Zr111 Zr -0.00002 0.99987 -0.08952
 O112 O 0.04589 0.95394 -0.04640
 O113 O -0.04581 1.04588 -0.04625
 C114 C -0.11510 1.00249 -0.11539
 C115 C 0.11498 0.99733 -0.11569
 C116 C -0.00249 1.11500 -0.11560
 C117 C 0.00238 0.88468 -0.11562
 H118 H 0.06726 1.06717 -0.06776
 O119 O 0.04569 1.04560 -0.04614
 H120 H -0.06727 0.93262 -0.06764
 O121 O -0.04563 0.95421 -0.04606
 O122 O 0.13039 1.00162 0.06787
 O123 O -0.12999 0.99834 0.06821
 O124 O 0.06860 1.13023 0.00127
 O125 O 0.06850 0.86958 -0.00221
 O126 O -0.06842 0.86967 0.00140
 O127 O -0.06832 1.13030 -0.00192
 O128 O 0.00201 1.06846 0.13004
 O129 O -0.00149 0.93154 0.12997
 O130 O 0.00195 1.13029 0.06827
 O131 O -0.00161 0.86967 0.06814
 O132 O 0.13030 1.06835 0.00116
 O133 O -0.13005 1.06846 -0.00187
 O134 O -0.13010 0.93156 0.00148
 O135 O 0.13024 0.93141 -0.00231
 O136 O 0.06878 1.00168 0.12984
 O137 O -0.06821 0.99834 0.13002
 Zr138 Zr 0.08909 0.99989 -0.00051
 Zr139 Zr -0.08888 0.99999 -0.00028
 Zr140 Zr 0.00013 1.08910 -0.00034
 Zr141 Zr 0.00006 0.91079 -0.00040
 Zr142 Zr 0.00023 0.99999 0.08877
 O143 O -0.04572 0.95407 0.04559
 O144 O 0.04605 1.04588 0.04551
 C145 C 0.11537 1.00246 0.11457
 C146 C -0.11484 0.99754 0.11487
 C147 C 0.11521 1.11502 0.00200
 C148 C 0.11512 0.88474 -0.00310
 C149 C -0.11502 0.88489 0.00228
 C150 C -0.11494 1.11512 -0.00265
 C151 C 0.00281 1.11512 0.11494
 C152 C -0.00239 0.88487 0.11482
 H153 H -0.06701 1.06731 0.06706
 O154 O -0.04546 1.04570 0.04541
 H155 H 0.06740 0.93263 0.06684
 O156 O 0.04580 0.95423 0.04527
 C157 C 0.28675 1.02625 0.33923
 C158 C 0.29562 1.00311 0.29246
 C159 C 0.34188 0.97916 0.28331
 C160 C 0.37910 0.97808 0.32088
 C161 C 0.37059 1.00081 0.36851
 C162 C 0.32383 1.02523 0.37688
 C163 C 0.25702 1.00359 0.25407
 C164 C 0.22452 1.00381 0.22208
 C165 C 0.18639 1.00376 0.18473
 C166 C 0.15387 1.00338 0.15277
 H167 H 0.25118 1.04523 0.34658
 H168 H 0.34907 0.96097 0.24724
 H169 H 0.41408 0.95820 0.31313
 H170 H 0.31629 1.04461 0.41223
 C171 C -0.34128 0.97395 0.28450
 C172 C -0.29456 0.99715 0.29325
 C173 C -0.28529 1.02101 0.33957
 C174 C -0.32240 1.02143 0.37720
 C175 C -0.36959 0.99773 0.36927
 C176 C -0.37853 0.97431 0.32205
 C177 C -0.25609 0.99658 0.25474
 C178 C -0.22368 0.99631 0.22267
 C179 C -0.18566 0.99632 0.18521
 C180 C -0.15323 0.99666 0.15317
 H181 H -0.34883 0.95530 0.24874
 H182 H -0.24940 1.03953 0.34656
 H183 H -0.31454 1.04143 0.41214
 H184 H -0.41392 0.95505 0.31461
 C185 C -0.29124 1.03701 -0.33515
 C186 C -0.29461 1.00388 -0.29395
 C187 C -0.33541 0.97030 -0.29037
 C188 C -0.37267 0.96976 -0.32790
 C189 C -0.36945 1.00286 -0.36934
 C190 C -0.32849 1.03653 -0.37268
 C191 C -0.25607 1.00414 -0.25552
 C192 C -0.22373 1.00419 -0.22338
 C193 C -0.18584 1.00397 -0.18578
 C194 C -0.15351 1.00349 -0.15366
 H195 H -0.25983 1.06313 -0.33828
 H196 H -0.33833 0.94447 -0.25868
 H197 H -0.40391 0.94343 -0.32484
 H198 H -0.32550 1.06239 -0.40433
 C199 C 0.33535 0.96494 -0.29179
 C200 C 0.29391 0.99779 -0.29480
 C201 C 0.28994 1.03163 -0.33537
 C202 C 0.32723 1.03259 -0.37285
 C203 C 0.36882 0.99965 -0.37009
 C204 C 0.37265 0.96583 -0.32928
 C205 C 0.25551 0.99691 -0.25624
 C206 C 0.22328 0.99643 -0.22401
 C207 C 0.18552 0.99625 -0.18629
 C208 C 0.15328 0.99648 -0.15407
 H209 H 0.33878 0.93862 -0.26055
 H210 H 0.25807 1.05725 -0.33801
 H211 H 0.32378 1.05901 -0.40398
 H212 H 0.40441 0.94009 -0.32666
 C213 C 0.28477 1.34041 -0.02178
 C214 C 0.29423 1.29410 0.00196
 C215 C 0.34107 1.28544 0.02493
 C216 C 0.37834 1.32294 0.02426
 C217 C 0.36939 1.36999 0.00059
 C218 C 0.32191 1.37801 -0.02250
 C219 C 0.25588 1.25548 0.00264
 C220 C 0.22366 1.22322 0.00299
 C221 C 0.18588 1.18551 0.00309
 C222 C 0.15360 1.15333 0.00282
 H223 H 0.24872 1.34740 -0.03997
 H224 H 0.34872 1.24976 0.04362
 H225 H 0.41375 1.31558 0.04350
 H226 H 0.31386 1.41300 -0.04226
 C227 C 0.34093 0.71526 0.01954
 C228 C 0.29455 0.70603 -0.00413
 C229 C 0.28558 0.65919 -0.02709
 C230 C 0.32279 0.62164 -0.02636
 C231 C 0.36985 0.63027 -0.00260
 C232 C 0.37826 0.67782 0.02033
 C233 C 0.25601 0.74448 -0.00454
 C234 C 0.22368 0.77663 -0.00468
 C235 C 0.18581 0.81426 -0.00455
 C236 C 0.15349 0.84642 -0.00410
 H237 H 0.34815 0.75131 0.03774
 H238 H 0.24985 0.65172 -0.04572
 H239 H 0.31513 0.58618 -0.04547
 H240 H 0.41325 0.68563 0.04016
 C241 C -0.33540 0.70949 0.03752
 C242 C -0.29456 0.70636 0.00391
 C243 C -0.29122 0.66565 -0.02991
 C244 C -0.32845 0.62811 -0.03001
 C245 C -0.36930 0.63087 0.00387
 C246 C -0.37265 0.67195 0.03748
 C247 C -0.25605 0.74483 0.00411
 C248 C -0.22371 0.77696 0.00411
 C249 C -0.18579 0.81452 0.00384
 C250 C -0.15343 0.84662 0.00332
 H251 H -0.33838 0.74087 0.06379
 H252 H -0.25986 0.66293 -0.05615
 H253 H -0.32550 0.59689 -0.05644
 H254 H -0.40395 0.67469 0.06378
 C255 C -0.33512 1.28955 0.03249
 C256 C -0.29489 1.29329 -0.00178
 C257 C -0.29218 1.33457 -0.03487
 C258 C -0.32945 1.37207 -0.03359
 C259 C -0.36970 1.36868 0.00094
 C260 C -0.37239 1.32705 0.03383
 C261 C -0.25621 1.25499 -0.00273
 C262 C -0.22375 1.22297 -0.00327
 C263 C -0.18575 1.18549 -0.00354
 C264 C -0.15335 1.15342 -0.00339
 H265 H -0.33757 1.25777 0.05825
 H266 H -0.26126 1.33780 -0.06158
 H267 H -0.32698 1.40375 -0.05945
 H268 H -0.40320 1.32385 0.06065
 C269 C 0.02665 1.28536 0.34159
 C270 C 0.00327 1.29381 0.29488
 C271 C -0.02087 1.33995 0.28560
 C272 C -0.02138 1.37767 0.32270
 C273 C 0.00248 1.37004 0.36991
 C274 C 0.02619 1.32300 0.37883
 C275 C 0.00388 1.25518 0.25640
 C276 C 0.00415 1.22303 0.22399
 C277 C 0.00413 1.18549 0.18593
 C278 C 0.00376 1.15342 0.15345
 H279 H 0.04551 1.24976 0.34916
 H280 H -0.03953 1.34672 0.24972
 H281 H -0.04162 1.41242 0.31483
 H282 H 0.04560 1.31579 0.41421
 C283 C -0.02636 1.34011 -0.28660
 C284 C -0.00252 1.29367 -0.29524
 C285 C 0.02231 1.28498 -0.34118
 C286 C 0.02357 1.32266 -0.37828
 C287 C 0.00016 1.36996 -0.36998
 C288 C -0.02515 1.37788 -0.32358
 C289 C -0.00322 1.25510 -0.25677
 C290 C -0.00358 1.22295 -0.22442
 C291 C -0.00366 1.18538 -0.18646
 C292 C -0.00336 1.15329 -0.15405
 H293 H -0.04603 1.34711 -0.25131
 H294 H 0.04102 1.24917 -0.34821
 H295 H 0.04403 1.31525 -0.41303
 H296 H -0.04508 1.41295 -0.31628
 C297 C 0.04704 0.68246 -0.31062
 C298 C 0.00196 0.70537 -0.29491
 C299 C -0.04401 0.69059 -0.31665
 C300 C -0.04496 0.65301 -0.35393
 C301 C 0.00016 0.62977 -0.36996
 C302 C 0.04619 0.64487 -0.34790
 C303 C 0.00279 0.74395 -0.25641
 C304 C 0.00324 0.77624 -0.22413
 C305 C 0.00340 0.81403 -0.18632
 C306 C 0.00317 0.84629 -0.15404
 H307 H 0.08282 0.69366 -0.29409
 H308 H -0.07913 0.70799 -0.30467
 H309 H -0.08094 0.64165 -0.36993
 H310 H 0.08148 0.62780 -0.35988
 C311 C -0.03861 0.66587 0.29169
 C312 C -0.00484 0.70657 0.29473
 C313 C 0.02906 0.70974 0.33536
 C314 C 0.02926 0.67232 0.37274
 C315 C -0.00451 0.63140 0.36984
 C316 C -0.03847 0.62845 0.32906
 C317 C -0.00476 0.74490 0.25605
 C318 C -0.00456 0.77696 0.22361
 C319 C -0.00411 0.81449 0.18563
 C320 C -0.00348 0.84658 0.15325
 H321 H -0.06498 0.66304 0.26042
 H322 H 0.05539 0.74103 0.33805
 H323 H 0.05584 0.67505 0.40382
 H324 H -0.06480 0.59717 0.32628
   
