data_POSCAR
  _audit_creation_date              2014-09-24
  _audit_creation_method            'ToBaCCo'
  _symmetry_space_group_name_H-M    'P1'
  _symmetry_Int_Tables_number       1
  _symmetry_cell_setting            triclinic
  loop_
  _symmetry_equiv_pos_as_xyz
 x,y,z
_cell_length_a 48.3283
_cell_length_b 48.3558
_cell_length_c 27.5281
_cell_angle_alpha 89.887900
_cell_angle_beta 90.009000
_cell_angle_gamma 88.473600
loop_
  _atom_site_label
  _atom_site_type_symbol
  _atom_site_fract_x
  _atom_site_fract_y
  _atom_site_fract_z
C1 C -0.02443 0.26457 0.02690
 C2 C -0.02374 0.26292 -0.02501
 C3 C 0.00226 0.26269 -0.04861
 C4 C 0.02755 0.26147 -0.02283
 C5 C 0.02646 0.26226 0.02886
 C6 C 0.00079 0.26396 0.05233
 H7 H 0.00070 0.26635 0.09150
 H8 H 0.00284 0.25995 -0.08763
 C9 C 0.47042 0.78077 0.52634
 C10 C 0.47060 0.77840 0.47525
 C11 C 0.49596 0.77569 0.45079
 C12 C 0.52121 0.77507 0.47620
 C13 C 0.52097 0.77808 0.52755
 C14 C 0.49548 0.78092 0.55176
 H15 H 0.49508 0.78257 0.59104
 H16 H 0.49595 0.77305 0.41169
 C17 C 1.02336 0.72642 0.02630
 C18 C 1.02301 0.72751 -0.02540
 C19 C 0.99756 0.72952 -0.05000
 C20 C 0.97208 0.73192 -0.02520
 C21 C 0.97249 0.73071 0.02656
 C22 C 0.99789 0.72800 0.05100
 H23 H 0.99760 0.72598 0.09024
 H24 H 0.99800 0.73183 -0.08916
 C25 C 0.52883 0.22002 0.52622
 C26 C 0.52832 0.21932 0.47489
 C27 C 0.50286 0.21983 0.45055
 C28 C 0.47787 0.22123 0.47630
 C29 C 0.47827 0.22203 0.52768
 C30 C 0.50380 0.22138 0.55202
 H31 H 0.50421 0.22246 0.59135
 H32 H 0.50251 0.22015 0.41115
 C33 C 0.72792 -0.02417 0.02997
 C34 C 0.72751 -0.02469 -0.02191
 C35 C 0.72830 0.00035 -0.04783
 C36 C 0.73024 0.02590 -0.02434
 C37 C 0.73062 0.02662 0.02702
 C38 C 0.72938 0.00175 0.05313
 H39 H 0.72860 0.00291 0.09243
 H40 H 0.72895 -0.00017 -0.08721
 C41 C 0.22483 0.47552 0.53058
 C42 C 0.22176 0.47491 0.47947
 C43 C 0.22003 0.49981 0.45335
 C44 C 0.22166 0.52534 0.47708
 C45 C 0.22476 0.52606 0.52815
 C46 C 0.22616 0.50112 0.55423
 H47 H 0.22865 0.50162 0.59337
 H48 H 0.21854 0.49930 0.41405
 C49 C 0.27095 1.02569 0.03049
 C50 C 0.26807 1.02512 -0.02150
 C51 C 0.26542 0.99930 -0.04461
 C52 C 0.26641 0.97438 -0.01887
 C53 C 0.27051 0.97480 0.03171
 C54 C 0.27298 1.00013 0.05563
 H55 H 0.27424 0.99969 0.09493
 H56 H 0.26391 0.99819 -0.08385
 C57 C 0.77810 0.52543 0.53038
 C58 C 0.77447 0.52545 0.47939
 C59 C 0.77298 0.50018 0.45479
 C60 C 0.77476 0.47493 0.47982
 C61 C 0.77851 0.47499 0.53077
 C62 C 0.78027 0.50020 0.55546
 H63 H 0.78222 0.50022 0.59471
 H64 H 0.77004 0.50017 0.41573
 O65 O 0.22602 0.26547 0.19989
 O66 O 0.29453 0.25573 0.25664
 O67 O 0.26466 0.22724 0.19537
 O68 O 0.25545 0.29304 0.26161
 O69 O 0.23478 0.27088 0.32115
 O70 O 0.24755 0.20471 0.25800
 O71 O 0.27548 0.23394 0.31828
 O72 O 0.20742 0.24153 0.25926
 Cu73 Cu 0.26213 0.26255 0.22220
 Cu74 Cu 0.23940 0.23560 0.29541
 C75 C 0.20504 0.25482 0.21955
 C76 C 0.29662 0.24348 0.29737
 C77 C 0.25778 0.20479 0.21556
 C78 C 0.24325 0.29316 0.30246
 O79 O 0.75085 0.79387 0.25494
 O80 O 0.76304 0.72558 0.31106
 O81 O 0.79016 0.75635 0.25156
 O82 O 0.72367 0.76261 0.31543
 O83 O 0.70236 0.74534 0.25169
 O84 O 0.76990 0.73524 0.19071
 O85 O 0.74027 0.70628 0.25102
 O86 O 0.73138 0.77432 0.19169
 Cu87 Cu 0.75898 0.76168 0.28939
 Cu88 Cu 0.73395 0.73832 0.21491
 C89 C 0.73943 0.79580 0.21344
 C90 C 0.75322 0.70432 0.29111
 C91 C 0.79155 0.74443 0.21055
 C92 C 0.70174 0.75506 0.29449
 O93 O 0.79527 0.24761 0.24856
 O94 O 0.72966 0.23482 0.31105
 O95 O 0.75982 0.20852 0.24746
 O96 O 0.76546 0.27451 0.31223
 O97 O 0.74257 0.29593 0.25315
 O98 O 0.73627 0.22960 0.18887
 O99 O 0.70678 0.25715 0.25290
 O100 O 0.77259 0.26882 0.18911
 Cu101 Cu 0.76481 0.23929 0.28584
 Cu102 Cu 0.73730 0.26501 0.21496
 C103 C 0.79522 0.26014 0.20798
 C104 C 0.70704 0.24388 0.29277
 C105 C 0.74708 0.20771 0.20717
 C106 C 0.75498 0.29649 0.29380
 O107 O 0.26381 0.77056 0.19024
 O108 O 0.25426 0.70478 0.25533
 O109 O 0.22630 0.73206 0.18861
 O110 O 0.29110 0.74237 0.25597
 O111 O 0.26769 0.76569 0.31208
 O112 O 0.20286 0.75417 0.24601
 O113 O 0.23040 0.72715 0.31208
 O114 O 0.23898 0.79262 0.24609
 Cu115 Cu 0.26114 0.73525 0.21658
 Cu116 Cu 0.23273 0.76215 0.28493
 C117 C 0.25294 0.79277 0.20705
 C118 C 0.24073 0.70483 0.29486
 C119 C 0.20345 0.74117 0.20598
 C120 C 0.29043 0.75585 0.29549
 O121 O 0.77718 0.26051 0.80489
 O122 O 0.71153 0.25342 0.73891
 O123 O 0.73960 0.22401 0.80248
 O124 O 0.74890 0.29092 0.74190
 O125 O 0.77176 0.26994 0.68238
 O126 O 0.76209 0.20279 0.74266
 O127 O 0.73396 0.23184 0.67958
 O128 O 0.79983 0.24014 0.74442
 Cu129 Cu 0.74204 0.25948 0.77792
 Cu130 Cu 0.76910 0.23414 0.70604
 C131 C 0.79957 0.25122 0.78617
 C132 C 0.71152 0.24109 0.69822
 C133 C 0.74946 0.20212 0.78306
 C134 C 0.76195 0.29185 0.70194
 O135 O 0.29046 0.74690 0.74531
 O136 O 0.22493 0.73708 0.81044
 O137 O 0.25456 0.70830 0.74759
 O138 O 0.26178 0.77510 0.80909
 O139 O 0.23679 0.79562 0.75165
 O140 O 0.23267 0.72921 0.68683
 O141 O 0.20184 0.75583 0.74876
 O142 O 0.26768 0.76971 0.68760
 Cu143 Cu 0.26020 0.73971 0.78413
 Cu144 Cu 0.23253 0.76471 0.71258
 C145 C 0.29023 0.76029 0.70557
 C146 C 0.20227 0.74461 0.79043
 C147 C 0.24272 0.70736 0.70646
 C148 C 0.25014 0.79670 0.79137
 O149 O 0.25826 0.29412 0.75850
 O150 O 0.27041 0.22522 0.81322
 O151 O 0.29726 0.25651 0.75335
 O152 O 0.23094 0.26231 0.81879
 O153 O 0.20930 0.24504 0.75545
 O154 O 0.27627 0.23610 0.69243
 O155 O 0.24774 0.20651 0.75254
 O156 O 0.23762 0.27492 0.69599
 Cu157 Cu 0.26628 0.26157 0.79219
 Cu158 Cu 0.24065 0.23876 0.71780
 C159 C 0.24622 0.29622 0.71756
 C160 C 0.26074 0.20410 0.79251
 C161 C 0.29814 0.24503 0.71191
 C162 C 0.20888 0.25456 0.79839
 O163 O 0.74375 0.70815 0.74743
 O164 O 0.73343 0.77501 0.80932
 O165 O 0.70481 0.74635 0.74777
 O166 O 0.77191 0.73775 0.80931
 O167 O 0.79243 0.75865 0.74812
 O168 O 0.72501 0.76683 0.68605
 O169 O 0.75285 0.79618 0.74726
 O170 O 0.76505 0.72900 0.68715
 Cu171 Cu 0.73637 0.73955 0.78439
 Cu172 Cu 0.76080 0.76471 0.71081
 C173 C 0.75637 0.70716 0.70699
 C174 C 0.74163 0.79688 0.78895
 C175 C 0.70333 0.75812 0.70654
 C176 C 0.79345 0.74726 0.78971
 C177 C 0.26696 0.10029 0.11352
 C178 C 0.25109 0.09781 0.07072
 C179 C 0.25123 0.07270 0.04522
 C180 C 0.26917 0.05046 0.05850
 C181 C 0.28518 0.05335 0.10094
 C182 C 0.28400 0.07773 0.12810
 C183 C 0.26536 0.12712 0.14076
 C184 C 0.27729 0.13054 0.18705
 C185 C 0.27484 0.15587 0.21122
 C186 C 0.26115 0.17850 0.18928
 C187 C 0.24917 0.17542 0.14336
 C188 C 0.25044 0.14971 0.11966
 C189 C 0.23578 0.12063 0.05277
 C190 C 0.23608 0.14622 0.07599
 H191 H 0.22395 0.11887 0.01951
 H192 H 0.22435 0.16339 0.06010
 H193 H 0.23739 0.07071 0.01454
 H194 H 0.29966 0.03714 0.11237
 H195 H 0.28381 0.15789 0.24708
 H196 H 0.23785 0.19276 0.12709
 H197 H 0.29727 0.07881 0.15953
 H198 H 0.28799 0.11375 0.20564
 C199 C 0.77266 0.60193 0.60934
 C200 C 0.74901 0.58561 0.60333
 C201 C 0.75100 0.56074 0.57721
 C202 C 0.77651 0.55128 0.55877
 C203 C 0.80032 0.56624 0.56801
 C204 C 0.79843 0.59153 0.59239
 C205 C 0.76927 0.62925 0.63450
 C206 C 0.79037 0.64881 0.63598
 C207 C 0.78602 0.67420 0.65928
 C208 C 0.76085 0.68037 0.68255
 C209 C 0.73965 0.66118 0.68112
 C210 C 0.74338 0.63610 0.65602
 C211 C 0.72369 0.59400 0.62404
 C212 C 0.72113 0.61834 0.65095
 H213 H 0.70568 0.58132 0.62007
 H214 H 0.70121 0.62372 0.66690
 H215 H 0.73276 0.54858 0.57135
 H216 H 0.82032 0.55856 0.55550
 H217 H 0.80250 0.68895 0.65964
 H218 H 0.71989 0.66628 0.69800
 H219 H 0.81733 0.60245 0.59815
 H220 H 0.81009 0.64513 0.61848
 C221 C 0.73005 0.90228 0.11585
 C222 C 0.71313 0.90405 0.07397
 C223 C 0.71130 0.92877 0.04707
 C224 C 0.72743 0.95160 0.05932
 C225 C 0.74377 0.94969 0.10166
 C226 C 0.74504 0.92557 0.12943
 C227 C 0.73188 0.87541 0.14311
 C228 C 0.74738 0.87190 0.18616
 C229 C 0.74934 0.84620 0.20918
 C230 C 0.73599 0.82326 0.18998
 C231 C 0.71988 0.82669 0.14780
 C232 C 0.71757 0.85256 0.12453
 C233 C 0.69870 0.88092 0.05844
 C234 C 0.70114 0.85565 0.08283
 H235 H 0.68582 0.88219 0.02624
 H236 H 0.68999 0.83824 0.06877
 H237 H 0.69730 0.93009 0.01637
 H238 H 0.75693 0.96642 0.11232
 H239 H 0.76177 0.84422 0.24181
 H240 H 0.70917 0.80921 0.13294
 H241 H 0.75857 0.92542 0.16056
 H242 H 0.75824 0.88864 0.20268
 C243 C 0.23513 0.40112 0.61600
 C244 C 0.21157 0.40511 0.58598
 C245 C 0.20788 0.42975 0.55950
 C246 C 0.22819 0.44989 0.55993
 C247 C 0.25175 0.44575 0.58896
 C248 C 0.25520 0.42174 0.61684
 C249 C 0.23795 0.37476 0.64457
 C250 C 0.25919 0.36980 0.67887
 C251 C 0.26136 0.34455 0.70351
 C252 C 0.24266 0.32356 0.69414
 C253 C 0.22100 0.32854 0.66111
 C254 C 0.21821 0.35409 0.63705
 C255 C 0.19214 0.38429 0.58173
 C256 C 0.19569 0.35909 0.60593
 H257 H 0.17422 0.38725 0.55842
 H258 H 0.18040 0.34339 0.60058
 H259 H 0.18918 0.43326 0.53851
 H260 H 0.26766 0.46111 0.58974
 H261 H 0.27815 0.34119 0.72910
 H262 H 0.20613 0.31257 0.65444
 H263 H 0.27391 0.41953 0.63802
 H264 H 0.27426 0.38513 0.68728
 C265 C 0.89965 0.27061 0.10545
 C266 C 0.92237 0.25475 0.12377
 C267 C 0.94752 0.25362 0.09840
 C268 C 0.95076 0.26799 0.05429
 C269 C 0.92870 0.28529 0.03818
 C270 C 0.90347 0.28643 0.06306
 C271 C 0.87250 0.26946 0.13182
 C272 C 0.84798 0.28265 0.11473
 C273 C 0.82298 0.27991 0.13967
 C274 C 0.82180 0.26411 0.18240
 C275 C 0.84618 0.25126 0.20001
 C276 C 0.87126 0.25351 0.17492
 C277 C 0.91978 0.23961 0.16685
 C278 C 0.89486 0.23924 0.19213
 H279 H 0.93727 0.22768 0.18112
 H280 H 0.89391 0.22704 0.22515
 H281 H 0.96406 0.24006 0.11178
 H282 H 0.93085 0.29788 0.00588
 H283 H 0.80448 0.29003 0.12522
 H284 H 0.84555 0.23882 0.23278
 H285 H 0.88724 0.29970 0.04838
 H286 H 0.84756 0.29476 0.08178
 C287 C 0.39395 0.77601 0.60503
 C288 C 0.41213 0.75265 0.60142
 C289 C 0.43696 0.75447 0.57540
 C290 C 0.44448 0.77956 0.55446
 C291 C 0.42761 0.80319 0.56112
 C292 C 0.40238 0.80143 0.58556
 C293 C 0.36686 0.77273 0.63053
 C294 C 0.34574 0.79342 0.63035
 C295 C 0.32073 0.78923 0.65436
 C296 C 0.31646 0.76462 0.67986
 C297 C 0.33718 0.74380 0.67991
 C298 C 0.36195 0.74736 0.65436
 C299 C 0.40563 0.72780 0.62441
 C300 C 0.38139 0.72543 0.65136
 H301 H 0.41972 0.71003 0.62220
 H302 H 0.37750 0.70589 0.66913
 H303 H 0.45057 0.73641 0.57149
 H304 H 0.43386 0.82298 0.54704
 H305 H 0.30480 0.80542 0.65356
 H306 H 0.33361 0.72444 0.69856
 H307 H 0.39000 0.82019 0.58944
 H308 H 0.34796 0.81271 0.61116
 C309 C 0.09958 0.72564 0.10405
 C310 C 0.07631 0.74104 0.12129
 C311 C 0.05100 0.74027 0.09647
 C312 C 0.04819 0.72449 0.05388
 C313 C 0.07086 0.70762 0.03915
 C314 C 0.09620 0.70833 0.06350
 C315 C 0.12675 0.72867 0.12970
 C316 C 0.15165 0.71592 0.11349
 C317 C 0.17652 0.71997 0.13816
 C318 C 0.17719 0.73673 0.17967
 C319 C 0.15249 0.74947 0.19605
 C320 C 0.12751 0.74582 0.17127
 C321 C 0.07849 0.75759 0.16272
 C322 C 0.10346 0.75970 0.18745
 H323 H 0.06060 0.76922 0.17615
 H324 H 0.10406 0.77284 0.21927
 H325 H 0.03397 0.75349 0.10888
 H326 H 0.06907 0.69382 0.00845
 H327 H 0.19527 0.70993 0.12465
 H328 H 0.15273 0.76266 0.22784
 H329 H 0.11287 0.69526 0.04988
 H330 H 0.15245 0.70303 0.08157
 C331 C 0.60665 0.22553 0.60095
 C332 C 0.58695 0.24771 0.60287
 C333 C 0.56156 0.24570 0.57849
 C334 C 0.55514 0.22152 0.55344
 C335 C 0.57373 0.19885 0.55469
 C336 C 0.59936 0.20086 0.57761
 C337 C 0.63415 0.22908 0.62498
 C338 C 0.65634 0.20980 0.61992
 C339 C 0.68156 0.21401 0.64315
 C340 C 0.68513 0.23727 0.67253
 C341 C 0.66335 0.25683 0.67722
 C342 C 0.63820 0.25326 0.65273
 C343 C 0.59258 0.27153 0.62960
 C344 C 0.61740 0.27396 0.65493
 H345 H 0.57739 0.28838 0.63159
 H346 H 0.62059 0.29262 0.67573
 H347 H 0.54677 0.26297 0.57875
 H348 H 0.56841 0.17951 0.53782
 H349 H 0.69821 0.19877 0.63879
 H350 H 0.66624 0.27519 0.69901
 H351 H 0.61295 0.18280 0.57727
 H352 H 0.65476 0.19156 0.59769
 C353 C 0.73735 0.09949 0.88799
 C354 C 0.75598 0.09421 0.92681
 C355 C 0.75426 0.06975 0.95400
 C356 C 0.73303 0.05115 0.94530
 C357 C 0.71427 0.05665 0.90743
 C358 C 0.71643 0.08041 0.87894
 C359 C 0.74033 0.12555 0.85908
 C360 C 0.72460 0.13155 0.81697
 C361 C 0.72791 0.15635 0.79178
 C362 C 0.74664 0.17572 0.80838
 C363 C 0.76273 0.16992 0.84956
 C364 C 0.76012 0.14478 0.87446
 C365 C 0.77577 0.11365 0.93907
 C366 C 0.77742 0.13864 0.91406
 H367 H 0.78982 0.10974 0.96914
 H368 H 0.79274 0.15324 0.92552
 H369 H 0.76914 0.06542 0.98266
 H370 H 0.69765 0.04263 0.90024
 H371 H 0.71556 0.16062 0.75964
 H372 H 0.77755 0.18488 0.86173
 H373 H 0.70120 0.08371 0.85074
 H374 H 0.70986 0.11731 0.80270
 C375 C 0.22635 0.60097 0.39585
 C376 C 0.25051 0.58456 0.40491
 C377 C 0.24876 0.55989 0.43154
 C378 C 0.22307 0.55071 0.44740
 C379 C 0.19893 0.56573 0.43513
 C380 C 0.20050 0.59084 0.41022
 C381 C 0.22935 0.62811 0.37031
 C382 C 0.20744 0.64780 0.36603
 C383 C 0.21134 0.67289 0.34209
 C384 C 0.23692 0.67863 0.32100
 C385 C 0.25897 0.65939 0.32551
 C386 C 0.25560 0.63461 0.35126
 C387 C 0.27612 0.59266 0.38672
 C388 C 0.27847 0.61677 0.35930
 H389 H 0.29455 0.57991 0.39304
 H390 H 0.29865 0.62190 0.34528
 H391 H 0.26733 0.54771 0.43989
 H392 H 0.17889 0.55834 0.44599
 H393 H 0.19419 0.68770 0.33934
 H394 H 0.27899 0.66417 0.31029
 H395 H 0.18133 0.60184 0.40212
 H396 H 0.18734 0.64440 0.38168
 C397 C 0.25659 0.89949 0.89887
 C398 C 0.28020 0.90275 0.92858
 C399 C 0.28348 0.92732 0.95473
 C400 C 0.26291 0.94828 0.95383
 C401 C 0.23923 0.94479 0.92537
 C402 C 0.23606 0.92076 0.89812
 C403 C 0.25446 0.87341 0.86989
 C404 C 0.23317 0.86915 0.83590
 C405 C 0.23207 0.84442 0.80993
 C406 C 0.25194 0.82321 0.81758
 C407 C 0.27341 0.82736 0.85084
 C408 C 0.27509 0.85238 0.87630
 C409 C 0.30025 0.88143 0.93236
 C410 C 0.29750 0.85659 0.90746
 H411 H 0.31818 0.88382 0.95548
 H412 H 0.31340 0.84057 0.91210
 H413 H 0.30223 0.93027 0.97539
 H414 H 0.22313 0.96080 0.92424
 H415 H 0.21535 0.84172 0.78431
 H416 H 0.28913 0.81123 0.85636
 H417 H 0.21733 0.91916 0.87715
 H418 H 0.21732 0.88471 0.82851
 C419 C 0.76374 0.39991 0.39857
 C420 C 0.78762 0.40309 0.42759
 C421 C 0.79148 0.42784 0.45292
 C422 C 0.77112 0.44901 0.45212
 C423 C 0.74720 0.44563 0.42426
 C424 C 0.74352 0.42146 0.39766
 C425 C 0.76093 0.37356 0.37060
 C426 C 0.73938 0.36939 0.33710
 C427 C 0.73769 0.34447 0.31192
 C428 C 0.75717 0.32296 0.31995
 C429 C 0.77885 0.32695 0.35286
 C430 C 0.78118 0.35220 0.37742
 C431 C 0.80732 0.38144 0.43172
 C432 C 0.80389 0.35635 0.40791
 H433 H 0.82546 0.38377 0.45436
 H434 H 0.81952 0.34009 0.41283
 H435 H 0.81040 0.43068 0.47311
 H436 H 0.73121 0.46177 0.42331
 H437 H 0.72085 0.34188 0.28649
 H438 H 0.79430 0.31058 0.35855
 H439 H 0.72458 0.41994 0.37724
 H440 H 0.72382 0.38519 0.32938
 C441 C 0.10462 0.25494 0.90197
 C442 C 0.08199 0.26973 0.88106
 C443 C 0.05657 0.27171 0.90584
 C444 C 0.05283 0.25823 0.95084
 C445 C 0.07467 0.24099 0.96812
 C446 C 0.10029 0.23981 0.94479
 C447 C 0.13201 0.25521 0.87660
 C448 C 0.15669 0.24515 0.89836
 C449 C 0.18173 0.24572 0.87314
 C450 C 0.18263 0.25577 0.82545
 C451 C 0.15835 0.26640 0.80374
 C452 C 0.13325 0.26704 0.82961
 C453 C 0.08482 0.28214 0.83532
 C454 C 0.10966 0.28007 0.80948
 H455 H 0.06739 0.29315 0.81878
 H456 H 0.11063 0.28950 0.77379
 H457 H 0.04009 0.28467 0.89065
 H458 H 0.07199 0.22792 0.99961
 H459 H 0.20039 0.23766 0.89053
 H460 H 0.15920 0.27481 0.76723
 H461 H 0.11627 0.22646 0.96020
 H462 H 0.15709 0.23718 0.93501
 C463 C 0.59789 0.76228 0.39841
 C464 C 0.57764 0.78152 0.38106
 C465 C 0.55276 0.78564 0.40667
 C466 C 0.54718 0.76993 0.44830
 C467 C 0.56623 0.74909 0.46264
 C468 C 0.59148 0.74558 0.43860
 C469 C 0.62503 0.76006 0.37241
 C470 C 0.64800 0.74502 0.39124
 C471 C 0.67299 0.74378 0.36588
 C472 C 0.67542 0.75696 0.32086
 C473 C 0.65290 0.77224 0.30187
 C474 C 0.62802 0.77463 0.32811
 C475 C 0.58222 0.79617 0.33797
 C476 C 0.60655 0.79218 0.31129
 H477 H 0.56654 0.81059 0.32419
 H478 H 0.60892 0.80363 0.27774
 H479 H 0.53776 0.80120 0.39441
 H480 H 0.56174 0.73573 0.49309
 H481 H 0.69042 0.73219 0.38114
 H482 H 0.65513 0.78302 0.26756
 H483 H 0.60551 0.72947 0.45154
 H484 H 0.64724 0.73460 0.42590
 C485 C 0.89671 0.74317 0.89593
 C486 C 0.91877 0.72712 0.87610
 C487 C 0.94362 0.72355 0.90215
 C488 C 0.94739 0.73660 0.94744
 C489 C 0.92630 0.75497 0.96384
 C490 C 0.90121 0.75782 0.93913
 C491 C 0.86972 0.74447 0.86930
 C492 C 0.84534 0.75590 0.88996
 C493 C 0.82056 0.75633 0.86399
 C494 C 0.81966 0.74596 0.81661
 C495 C 0.84364 0.73425 0.79573
 C496 C 0.86844 0.73259 0.82240
 C497 C 0.91595 0.71494 0.83025
 C498 C 0.89159 0.71833 0.80333
 H499 H 0.93298 0.70298 0.81456
 H500 H 0.89058 0.70891 0.76771
 H501 H 0.95956 0.70968 0.88773
 H502 H 0.92922 0.76763 0.99569
 H503 H 0.80205 0.76518 0.88068
 H504 H 0.84269 0.72559 0.75946
 H505 H 0.88578 0.77200 0.95387
 H506 H 0.84489 0.76403 0.92644
 C507 C 0.40212 0.23292 0.39628
 C508 C 0.40972 0.20649 0.41498
 C509 C 0.43508 0.20251 0.43916
 C510 C 0.45194 0.22498 0.44849
 C511 C 0.44411 0.25128 0.43132
 C512 C 0.41958 0.25525 0.40518
 C513 C 0.37537 0.23609 0.36912
 C514 C 0.36761 0.26042 0.34374
 C515 C 0.34223 0.26250 0.31960
 C516 C 0.32384 0.24062 0.32101
 C517 C 0.33152 0.21611 0.34528
 C518 C 0.35743 0.21341 0.36812
 C519 C 0.39163 0.18448 0.41075
 C520 C 0.36572 0.18807 0.38899
 H521 H 0.39727 0.16435 0.42568
 H522 H 0.35216 0.17059 0.38767
 H523 H 0.44143 0.18207 0.45184
 H524 H 0.45705 0.26879 0.43835
 H525 H 0.33667 0.28150 0.30062
 H526 H 0.31756 0.19891 0.34535
 H527 H 0.41435 0.27600 0.39325
 H528 H 0.38095 0.27792 0.34164
 C529 C 0.73183 0.90034 0.89319
 C530 C 0.74992 0.90380 0.93304
 C531 C 0.74927 0.92867 0.95925
 C532 C 0.72922 0.94940 0.94901
 C533 C 0.71076 0.94557 0.91045
 C534 C 0.71212 0.92148 0.88262
 C535 C 0.73398 0.87396 0.86485
 C536 C 0.71961 0.86991 0.82091
 C537 C 0.72232 0.84486 0.79593
 C538 C 0.73886 0.82325 0.81477
 C539 C 0.75352 0.82706 0.85797
 C540 C 0.75181 0.85249 0.88240
 C541 C 0.76795 0.88214 0.94737
 C542 C 0.76834 0.85677 0.92336
 H543 H 0.78149 0.88461 0.97836
 H544 H 0.78224 0.84044 0.93645
 H545 H 0.76381 0.93159 0.98867
 H546 H 0.69503 0.96124 0.90209
 H547 H 0.71122 0.84220 0.76212
 H548 H 0.76689 0.81045 0.87172
 H549 H 0.69718 0.91953 0.85380
 H550 H 0.70662 0.88596 0.80488
 C551 C 0.22747 0.39770 0.40255
 C552 C 0.25122 0.41379 0.40931
 C553 C 0.24916 0.43882 0.43495
 C554 C 0.22349 0.44870 0.45206
 C555 C 0.19965 0.43392 0.44213
 C556 C 0.20159 0.40845 0.41833
 C557 C 0.23085 0.37033 0.37752
 C558 C 0.20956 0.35099 0.37522
 C559 C 0.21379 0.32572 0.35144
 C560 C 0.23905 0.31947 0.32853
 C561 C 0.26051 0.33833 0.33116
 C562 C 0.25687 0.36327 0.35670
 C563 C 0.27669 0.40508 0.38957
 C564 C 0.27927 0.38074 0.36268
 H565 H 0.29480 0.41757 0.39415
 H566 H 0.29930 0.37517 0.34732
 H567 H 0.26744 0.45083 0.44129
 H568 H 0.17955 0.44192 0.45360
 H569 H 0.19712 0.31120 0.35019
 H570 H 0.28032 0.33315 0.31456
 H571 H 0.18265 0.39771 0.41195
 H572 H 0.18972 0.35483 0.39226
 C573 C 0.26790 0.09780 0.89062
 C574 C 0.28608 0.09523 0.93074
 C575 C 0.28720 0.07067 0.95815
 C576 C 0.26907 0.04901 0.94838
 C577 C 0.25138 0.05171 0.90787
 C578 C 0.25083 0.07558 0.87947
 C579 C 0.26686 0.12450 0.86285
 C580 C 0.25033 0.12861 0.82115
 C581 C 0.24895 0.15425 0.79795
 C582 C 0.26395 0.17653 0.81559
 C583 C 0.28124 0.17242 0.85614
 C584 C 0.28296 0.14657 0.87956
 C585 C 0.30238 0.11749 0.94422
 C586 C 0.30056 0.14273 0.91961
 H587 H 0.31622 0.11562 0.97509
 H588 H 0.31312 0.15952 0.93218
 H589 H 0.30188 0.06869 0.98781
 H590 H 0.23669 0.03590 0.89932
 H591 H 0.23562 0.15674 0.76653
 H592 H 0.29324 0.18938 0.86970
 H593 H 0.23618 0.07648 0.84995
 H594 H 0.23820 0.11238 0.80588
 C595 C 0.76355 0.60020 0.39528
 C596 C 0.78744 0.59600 0.42443
 C597 C 0.79119 0.57135 0.45086
 C598 C 0.77073 0.55138 0.45106
 C599 C 0.74680 0.55579 0.42309
 C600 C 0.74322 0.57983 0.39539
 C601 C 0.76078 0.62642 0.36634
 C602 C 0.73922 0.63148 0.33272
 C603 C 0.73723 0.65652 0.30743
 C604 C 0.75646 0.67721 0.31545
 C605 C 0.77838 0.67215 0.34793
 C606 C 0.78097 0.64680 0.37264
 C607 C 0.80720 0.61657 0.42767
 C608 C 0.80375 0.64165 0.40311
 H609 H 0.82536 0.61345 0.45035
 H610 H 0.81935 0.65714 0.40755
 H611 H 0.81014 0.56763 0.47108
 H612 H 0.73077 0.54055 0.42283
 H613 H 0.72021 0.65995 0.28234
 H614 H 0.79362 0.68788 0.35359
 H615 H 0.72427 0.58223 0.37494
 H616 H 0.72377 0.61637 0.32526
 C617 C 0.09808 0.73346 0.89076
 C618 C 0.09347 0.75067 0.93165
 C619 C 0.06835 0.74976 0.95697
 C620 C 0.04857 0.73016 0.94497
 C621 C 0.05335 0.71278 0.90498
 C622 C 0.07769 0.71449 0.87793
 C623 C 0.12487 0.73567 0.86385
 C624 C 0.13009 0.72219 0.81926
 C625 C 0.15537 0.72510 0.79546
 C626 C 0.17612 0.74088 0.81617
 C627 C 0.17123 0.75450 0.86024
 C628 C 0.14550 0.75266 0.88349
 C629 C 0.11431 0.76793 0.94808
 C630 C 0.14003 0.76836 0.92526
 H631 H 0.11092 0.78078 0.97986
 H632 H 0.15568 0.78164 0.93994
 H633 H 0.06462 0.76355 0.98741
 H634 H 0.03836 0.69749 0.89516
 H635 H 0.15883 0.71489 0.76091
 H636 H 0.18712 0.76737 0.87538
 H637 H 0.08047 0.70030 0.84805
 H638 H 0.11475 0.70985 0.80172
 C639 C 0.60392 0.22587 0.39400
 C640 C 0.58520 0.24879 0.39776
 C641 C 0.56061 0.24642 0.42438
 C642 C 0.55390 0.22121 0.44586
 C643 C 0.57131 0.19798 0.43892
 C644 C 0.59626 0.20029 0.41386
 C645 C 0.63078 0.22975 0.36805
 C646 C 0.65238 0.20958 0.36818
 C647 C 0.67719 0.21434 0.34396
 C648 C 0.68083 0.23901 0.31829
 C649 C 0.65959 0.25932 0.31815
 C650 C 0.63497 0.25519 0.34394
 C651 C 0.59095 0.27374 0.37439
 C652 C 0.61499 0.27664 0.34703
 H653 H 0.57645 0.29117 0.37668
 H654 H 0.61831 0.29623 0.32904
 H655 H 0.54659 0.26417 0.42845
 H656 H 0.56564 0.17804 0.45319
 H657 H 0.69351 0.19854 0.34483
 H658 H 0.66265 0.27873 0.29934
 H659 H 0.60904 0.18181 0.40981
 H660 H 0.65071 0.19028 0.38755
 C661 C 0.90212 0.25300 0.89413
 C662 C 0.92409 0.26797 0.87402
 C663 C 0.94871 0.27096 0.90048
 C664 C 0.95221 0.25848 0.94653
 C665 C 0.93141 0.24088 0.96310
 C666 C 0.90658 0.23858 0.93790
 C667 C 0.87524 0.25258 0.86729
 C668 C 0.85086 0.24252 0.88820
 C669 C 0.82619 0.24275 0.86190
 C670 C 0.82541 0.25245 0.81399
 C671 C 0.84937 0.26294 0.79295
 C672 C 0.87403 0.26393 0.81988
 C673 C 0.92133 0.27970 0.82761
 C674 C 0.89712 0.27697 0.80049
 H675 H 0.93829 0.29080 0.81168
 H676 H 0.89616 0.28600 0.76444
 H677 H 0.96459 0.28403 0.88590
 H678 H 0.93422 0.22884 0.99601
 H679 H 0.80773 0.23480 0.87867
 H680 H 0.84853 0.27105 0.75620
 H681 H 0.89127 0.22514 0.95290
 H682 H 0.85035 0.23490 0.92505
 C683 C 0.39374 0.77234 0.39746
 C684 C 0.41356 0.75024 0.39651
 C685 C 0.43862 0.75242 0.42188
 C686 C 0.44460 0.77668 0.44708
 C687 C 0.42587 0.79923 0.44508
 C688 C 0.40057 0.79706 0.42109
 C689 C 0.36663 0.76864 0.37216
 C690 C 0.34433 0.78793 0.37579
 C691 C 0.31948 0.78354 0.35140
 C692 C 0.31642 0.76008 0.32229
 C693 C 0.33831 0.74054 0.31902
 C694 C 0.36307 0.74432 0.34456
 C695 C 0.40840 0.72631 0.36980
 C696 C 0.38395 0.72368 0.34350
 H697 H 0.42369 0.70951 0.36859
 H698 H 0.38112 0.70492 0.32279
 H699 H 0.45348 0.73522 0.42229
 H700 H 0.43084 0.81862 0.46210
 H701 H 0.30274 0.79876 0.35472
 H702 H 0.33582 0.72203 0.29746
 H703 H 0.38687 0.81504 0.42088
 H704 H 0.34553 0.80630 0.39775
 C705 C 0.26650 0.89799 0.10979
 C706 C 0.24222 0.91437 0.10156
 C707 C 0.24376 0.93950 0.07622
 C708 C 0.26936 0.94917 0.06086
 C709 C 0.29361 0.93410 0.07231
 C710 C 0.29225 0.90857 0.09594
 C711 C 0.26371 0.87039 0.13394
 C712 C 0.28576 0.85080 0.13741
 C713 C 0.28206 0.82533 0.16032
 C714 C 0.25653 0.81911 0.18114
 C715 C 0.23432 0.83822 0.17723
 C716 C 0.23750 0.86339 0.15257
 C717 C 0.21667 0.90575 0.11922
 C718 C 0.21450 0.88117 0.14535
 H719 H 0.19814 0.91846 0.11351
 H720 H 0.19436 0.87566 0.15906
 H721 H 0.22508 0.95163 0.06838
 H722 H 0.31357 0.94176 0.06161
 H723 H 0.29935 0.81067 0.16265
 H724 H 0.21435 0.83313 0.19226
 H725 H 0.31149 0.89755 0.10340
 H726 H 0.30585 0.85461 0.12204
 C727 C 0.77514 0.39800 0.60814
 C728 C 0.75085 0.41455 0.60115
 C729 C 0.75219 0.43972 0.57592
 C730 C 0.77761 0.44921 0.55941
 C731 C 0.80194 0.43402 0.56976
 C732 C 0.80076 0.40846 0.59328
 C733 C 0.77252 0.37033 0.63200
 C734 C 0.79448 0.35058 0.63402
 C735 C 0.79088 0.32493 0.65626
 C736 C 0.76557 0.31869 0.67788
 C737 C 0.74350 0.33803 0.67570
 C738 C 0.74653 0.36339 0.65165
 C739 C 0.72551 0.40605 0.61991
 C740 C 0.72356 0.38137 0.64581
 H741 H 0.70699 0.41890 0.61519
 H742 H 0.70358 0.37591 0.66031
 H743 H 0.73348 0.45201 0.56905
 H744 H 0.82180 0.44163 0.55838
 H745 H 0.80804 0.31005 0.65722
 H746 H 0.72368 0.33288 0.69131
 H747 H 0.82005 0.39733 0.59987
 H748 H 0.81436 0.35435 0.61783
 C749 C 0.73891 0.10257 0.10709
 C750 C 0.71831 0.10060 0.07075
 C751 C 0.71503 0.07560 0.04570
 C752 C 0.73280 0.05276 0.05491
 C753 C 0.75334 0.05489 0.09052
 C754 C 0.75637 0.07937 0.11637
 C755 C 0.74144 0.12942 0.13363
 C756 C 0.76014 0.13292 0.17227
 C757 C 0.76178 0.15829 0.19589
 C758 C 0.74500 0.18096 0.18158
 C759 C 0.72619 0.17772 0.14325
 C760 C 0.72407 0.15210 0.11964
 C761 C 0.70144 0.12368 0.05915
 C762 C 0.70447 0.14896 0.08267
 H763 H 0.68583 0.12227 0.03106
 H764 H 0.69106 0.16625 0.07206
 H765 H 0.69897 0.07402 0.01843
 H766 H 0.76744 0.03759 0.09785
 H767 H 0.77643 0.16017 0.22541
 H768 H 0.71287 0.19502 0.13226
 H769 H 0.77278 0.07973 0.14286
 H770 H 0.77353 0.11632 0.18520
 C771 C 0.23495 0.60234 0.60623
 C772 C 0.21146 0.59878 0.57638
 C773 C 0.20785 0.57362 0.55216
 C774 C 0.22807 0.55237 0.55492
 C775 C 0.25159 0.55609 0.58367
 C776 C 0.25501 0.58069 0.60917
 C777 C 0.23751 0.62916 0.63291
 C778 C 0.25864 0.63381 0.66700
 C779 C 0.26009 0.65912 0.69100
 C780 C 0.24079 0.68057 0.68121
 C781 C 0.21956 0.67614 0.64761
 C782 C 0.21746 0.65049 0.62420
 C783 C 0.19195 0.62044 0.57032
 C784 C 0.19516 0.64591 0.59300
 H785 H 0.17412 0.61781 0.54704
 H786 H 0.17968 0.66214 0.58661
 H787 H 0.18922 0.57054 0.53126
 H788 H 0.26747 0.53991 0.58614
 H789 H 0.27660 0.66205 0.71697
 H790 H 0.20426 0.69246 0.64054
 H791 H 0.27366 0.58246 0.63033
 H792 H 0.27403 0.61810 0.67611
 C793 C 0.89765 0.73530 0.11193
 C794 C 0.90028 0.71583 0.07374
 C795 C 0.92517 0.71335 0.04747
 C796 C 0.94704 0.73109 0.05702
 C797 C 0.94440 0.75024 0.09498
 C798 C 0.92014 0.75230 0.12222
 C799 C 0.87071 0.73755 0.13880
 C800 C 0.86658 0.75526 0.17886
 C801 C 0.84097 0.75717 0.20201
 C802 C 0.81868 0.74163 0.18588
 C803 C 0.82265 0.72355 0.14647
 C804 C 0.84854 0.72118 0.12325
 C805 C 0.87781 0.69961 0.06107
 C806 C 0.85240 0.70248 0.08487
 H807 H 0.87973 0.68483 0.03162
 H808 H 0.83552 0.68976 0.07314
 H809 H 0.92719 0.69837 0.01834
 H810 H 0.96098 0.76420 0.10278
 H811 H 0.83855 0.77118 0.23247
 H812 H 0.80568 0.71113 0.13414
 H813 H 0.91926 0.76781 0.15027
 H814 H 0.88281 0.76776 0.19311
 C815 C 0.40294 0.23384 0.60978
 C816 C 0.40698 0.21006 0.58043
 C817 C 0.43203 0.20575 0.55544
 C818 C 0.45253 0.22568 0.55653
 C819 C 0.44842 0.24940 0.58498
 C820 C 0.42401 0.25345 0.61149
 C821 C 0.37620 0.23724 0.63703
 C822 C 0.37117 0.25867 0.67077
 C823 C 0.34590 0.26096 0.69520
 C824 C 0.32487 0.24224 0.68615
 C825 C 0.32969 0.22069 0.65293
 C826 C 0.35532 0.21772 0.62917
 C827 C 0.38582 0.19104 0.57538
 C828 C 0.36036 0.19508 0.59845
 H829 H 0.38880 0.17301 0.55244
 H830 H 0.34449 0.17999 0.59275
 H831 H 0.43553 0.18691 0.53496
 H832 H 0.46409 0.26500 0.58624
 H833 H 0.34268 0.27767 0.72090
 H834 H 0.31370 0.20582 0.64648
 H835 H 0.42185 0.27226 0.63228
 H836 H 0.38656 0.27366 0.67927
 C837 C 0.09968 0.26090 0.11846
 C838 C 0.09671 0.28056 0.08048
 C839 C 0.07232 0.28189 0.05269
 C840 C 0.05138 0.26284 0.06050
 C841 C 0.05434 0.24347 0.09819
 C842 C 0.07807 0.24252 0.12693
 C843 C 0.12614 0.25983 0.14685
 C844 C 0.13054 0.24195 0.18675
 C845 C 0.15596 0.24083 0.21073
 C846 C 0.17770 0.25741 0.19559
 C847 C 0.17329 0.27591 0.15680
 C848 C 0.14766 0.27742 0.13271
 C849 C 0.11843 0.29814 0.06950
 C850 C 0.14349 0.29635 0.09462
 H851 H 0.11625 0.31309 0.04028
 H852 H 0.15986 0.31001 0.08406
 H853 H 0.07001 0.29703 0.02376
 H854 H 0.03843 0.22853 0.10467
 H855 H 0.15872 0.22651 0.24076
 H856 H 0.18983 0.28914 0.14526
 H857 H 0.07929 0.22678 0.15469
 H858 H 0.11471 0.22860 0.20006
 C859 C 0.59658 0.77056 0.61048
 C860 C 0.59449 0.78961 0.57142
 C861 C 0.56943 0.79305 0.54592
 C862 C 0.54667 0.77679 0.55727
 C863 C 0.54879 0.75804 0.59606
 C864 C 0.57330 0.75500 0.62247
 C865 C 0.62374 0.76728 0.63653
 C866 C 0.62755 0.74977 0.67710
 C867 C 0.65332 0.74703 0.69964
 C868 C 0.67607 0.76152 0.68236
 C869 C 0.67247 0.77927 0.64228
 C870 C 0.64648 0.78245 0.61964
 C871 C 0.61761 0.80452 0.55725
 C872 C 0.64311 0.80081 0.58049
 H873 H 0.61609 0.81897 0.52715
 H874 H 0.66044 0.81257 0.56769
 H875 H 0.56785 0.80774 0.51618
 H876 H 0.53157 0.74512 0.60520
 H877 H 0.65545 0.73328 0.73059
 H878 H 0.68982 0.79086 0.62897
 H879 H 0.57369 0.73990 0.65132
 H880 H 0.61093 0.73808 0.69222
   
