data_POSCAR
  _audit_creation_date              2014-09-24
  _audit_creation_method            'ToBaCCo'
  _symmetry_space_group_name_H-M    'P1'
  _symmetry_Int_Tables_number       1
  _symmetry_cell_setting            triclinic
  loop_
  _symmetry_equiv_pos_as_xyz
 x,y,z
_cell_length_a 18.7404
_cell_length_b 19.0653
_cell_length_c 26.7822
_cell_angle_alpha 90.000000
_cell_angle_beta 89.748800
_cell_angle_gamma 90.000000
loop_
  _atom_site_label
  _atom_site_type_symbol
  _atom_site_fract_x
  _atom_site_fract_y
  _atom_site_fract_z
O1 O 0.12196 0.03880 0.06142
 O2 O -0.12194 -0.03504 0.06221
 O3 O -0.03679 0.12199 0.06223
 O4 O 0.03657 -0.11802 0.06206
 O5 O -0.13570 0.08289 0.03564
 O6 O 0.13557 -0.07898 0.03493
 O7 O -0.08314 -0.13168 0.03403
 O8 O 0.08308 0.13558 0.03375
 C9 C 0.11350 0.10219 0.06757
 C10 C -0.11352 -0.09849 0.06813
 C11 C -0.10144 0.11400 0.06895
 C12 C 0.10108 -0.10964 0.06847
 O13 O 0.12195 -0.03505 -0.06221
 O14 O -0.12194 0.03881 -0.06142
 O15 O 0.03681 0.12198 -0.06223
 O16 O -0.03656 -0.11802 -0.06206
 O17 O -0.13555 -0.07897 -0.03493
 O18 O 0.13572 0.08288 -0.03564
 O19 O 0.08315 -0.13168 -0.03404
 O20 O -0.08306 0.13559 -0.03375
 Co21 Co 0.11638 0.00191 -0.00036
 Co22 Co -0.11637 0.00192 0.00036
 Co23 Co 0.00001 0.11651 -0.00000
 Co24 Co 0.00001 -0.11258 -0.00000
 O25 O 0.00001 0.00195 -0.00000
 C26 C 0.11353 -0.09850 -0.06813
 C27 C -0.11349 0.10220 -0.06757
 C28 C 0.10146 0.11400 -0.06895
 C29 C -0.10107 -0.10964 -0.06847
 O30 O 0.41675 0.36473 0.46651
 O31 O 0.58337 0.63239 0.46630
 O32 O 0.36466 0.57930 0.46472
 O33 O 0.63551 0.41788 0.46412
 O34 O 0.46377 0.61855 0.43784
 O35 O 0.53660 0.37836 0.43770
 O36 O 0.62195 0.53587 0.43791
 O37 O 0.37813 0.46145 0.43862
 C38 C 0.38638 0.39801 0.43263
 C39 C 0.61372 0.59935 0.43214
 C40 C 0.39931 0.61003 0.43127
 C41 C 0.60107 0.38707 0.43082
 O42 O 0.58327 0.36474 0.53349
 O43 O 0.41664 0.63239 0.53370
 O44 O 0.36451 0.41788 0.53587
 O45 O 0.63536 0.57931 0.53528
 O46 O 0.53624 0.61855 0.56215
 O47 O 0.46341 0.37835 0.56230
 O48 O 0.62188 0.46146 0.56138
 O49 O 0.37807 0.53587 0.56209
 Co50 Co 0.50001 0.38387 0.50000
 Co51 Co 0.50001 0.61315 0.50000
 Co52 Co 0.38369 0.49863 0.50031
 Co53 Co 0.61632 0.49863 0.49969
 O54 O 0.50001 0.49855 0.50000
 C55 C 0.61363 0.39802 0.56737
 C56 C 0.38629 0.59935 0.56785
 C57 C 0.39895 0.38706 0.56917
 C58 C 0.60071 0.61003 0.56873
 N59 N 0.16792 0.23959 0.15603
 C60 C 0.20398 0.20179 0.19062
 N61 N 0.20977 0.13141 0.18491
 N62 N 0.18052 0.09974 0.14570
 C63 C 0.14455 0.13740 0.11092
 N64 N 0.13864 0.20790 0.11677
 C65 C 0.23617 0.23575 0.23258
 C66 C 0.26341 0.26408 0.26787
 C67 C 0.29561 0.29811 0.30980
 N68 N 0.33156 0.26036 0.34448
 N69 N 0.36092 0.29214 0.38367
 C70 C 0.35521 0.36268 0.38937
 N71 N 0.31935 0.40029 0.35450
 N72 N 0.29003 0.36853 0.31536
 N73 N 0.79000 0.87047 0.18577
 C74 C 0.79603 0.80002 0.19093
 N75 N 0.83234 0.76287 0.15591
 N76 N 0.86161 0.79525 0.11677
 C77 C 0.85546 0.86580 0.11145
 N78 N 0.81924 0.90284 0.14666
 C79 C 0.76384 0.76523 0.23272
 C80 C 0.73663 0.73608 0.26784
 C81 C 0.70443 0.70120 0.30959
 N82 N 0.71031 0.63071 0.31459
 N83 N 0.68100 0.59824 0.35363
 C84 C 0.64486 0.63520 0.38892
 N85 N 0.63887 0.70579 0.38376
 N86 N 0.66821 0.73827 0.34469
 N87 N 0.79023 0.13142 0.81510
 C88 C 0.79601 0.20180 0.80939
 N89 N 0.83208 0.23960 0.84397
 N90 N 0.86137 0.20791 0.88323
 C91 C 0.85546 0.13741 0.88909
 N92 N 0.81948 0.09975 0.85430
 C93 C 0.76383 0.23577 0.76742
 C94 C 0.73659 0.26409 0.73214
 C95 C 0.70438 0.29812 0.69021
 N96 N 0.70996 0.36854 0.68465
 N97 N 0.68065 0.40030 0.64551
 C98 C 0.64479 0.36269 0.61063
 N99 N 0.63909 0.29215 0.61633
 N100 N 0.66845 0.26037 0.65553
 N101 N 0.16767 0.76287 0.84409
 C102 C 0.20398 0.80002 0.80907
 N103 N 0.21001 0.87047 0.81422
 N104 N 0.18077 0.90284 0.85333
 C105 C 0.14455 0.86580 0.88855
 N106 N 0.13840 0.79524 0.88323
 C107 C 0.23616 0.76522 0.76728
 C108 C 0.26338 0.73607 0.73216
 C109 C 0.29557 0.70120 0.69041
 N110 N 0.33180 0.73827 0.65531
 N111 N 0.36114 0.70579 0.61624
 C112 C 0.35515 0.63520 0.61107
 N113 N 0.31901 0.59823 0.64637
 N114 N 0.28970 0.63071 0.68541
 N115 N 0.23806 0.16561 0.84559
 C116 C 0.19976 0.20196 0.81138
 N117 N 0.12818 0.20779 0.81750
 N118 N 0.09590 0.17847 0.85670
 C119 C 0.13402 0.14225 0.89127
 N120 N 0.20579 0.13624 0.88483
 C121 C 0.23451 0.23457 0.76943
 C122 C 0.26343 0.26223 0.73421
 C123 C 0.29801 0.29505 0.69228
 N124 N 0.25955 0.33173 0.65833
 N125 N 0.29167 0.36153 0.61918
 C126 C 0.36334 0.35564 0.61272
 N127 N 0.40169 0.31905 0.64687
 N128 N 0.36958 0.28928 0.68597
 N129 N 0.86995 0.79219 0.81508
 C130 C 0.79833 0.79745 0.80931
 N131 N 0.75969 0.83397 0.84349
 N132 N 0.79169 0.86409 0.88235
 C133 C 0.86342 0.85869 0.88828
 N134 N 0.90194 0.82228 0.85390
 C135 C 0.76390 0.76419 0.76773
 C136 C 0.73524 0.73607 0.73279
 C137 C 0.70091 0.70280 0.69117
 N138 N 0.62933 0.70820 0.68523
 N139 N 0.59745 0.67814 0.64635
 C140 C 0.63605 0.64163 0.61207
 N141 N 0.70774 0.63609 0.61817
 N142 N 0.73963 0.66618 0.65709
 N143 N 0.24033 0.83396 0.15651
 C144 C 0.20169 0.79745 0.19069
 N145 N 0.13007 0.79219 0.18492
 N146 N 0.09807 0.82228 0.14610
 C147 C 0.13659 0.85869 0.11172
 N148 N 0.20832 0.86408 0.11765
 C149 C 0.23611 0.76419 0.23227
 C150 C 0.26477 0.73606 0.26721
 C151 C 0.29910 0.70280 0.30883
 N152 N 0.26038 0.66617 0.34291
 N153 N 0.29227 0.63608 0.38183
 C154 C 0.36396 0.64162 0.38793
 N155 N 0.40256 0.67814 0.35365
 N156 N 0.37068 0.70820 0.31477
 N157 N 0.87184 0.20780 0.18250
 C158 C 0.80026 0.20197 0.18861
 N159 N 0.76196 0.16562 0.15441
 N160 N 0.79423 0.13625 0.11516
 C161 C 0.86599 0.14226 0.10873
 N162 N 0.90412 0.17848 0.14330
 C163 C 0.76551 0.23458 0.23056
 C164 C 0.73659 0.26224 0.26578
 C165 C 0.70201 0.29506 0.30772
 N166 N 0.63044 0.28929 0.31402
 N167 N 0.59833 0.31906 0.35313
 C168 C 0.63668 0.35565 0.38728
 N169 N 0.70835 0.36154 0.38082
 N170 N 0.74047 0.33174 0.34167
   
