data_POSCAR
  _audit_creation_date              2014-09-24
  _audit_creation_method            'ToBaCCo'
  _symmetry_space_group_name_H-M    'P1'
  _symmetry_Int_Tables_number       1
  _symmetry_cell_setting            triclinic
  loop_
  _symmetry_equiv_pos_as_xyz
 x,y,z
_cell_length_a 48.3421
_cell_length_b 24.9782
_cell_length_c 19.2663
_cell_angle_alpha 90.057200
_cell_angle_beta 89.909500
_cell_angle_gamma 90.052600
loop_
  _atom_site_label
  _atom_site_type_symbol
  _atom_site_fract_x
  _atom_site_fract_y
  _atom_site_fract_z
O1 O 0.73429 0.30855 0.56631
 O2 O 0.78348 0.26526 0.43150
 O3 O 0.73429 0.30842 0.43136
 O4 O 0.78346 0.26540 0.56597
 O5 O 0.76466 0.18491 0.56601
 O6 O 0.71550 0.22794 0.43134
 O7 O 0.76471 0.18484 0.43163
 O8 O 0.71549 0.22807 0.56645
 Cu9 Cu 0.76073 0.29499 0.49876
 Cu10 Cu 0.73815 0.19844 0.49885
 C11 C 0.71635 0.27580 0.58922
 C12 C 0.78284 0.21739 0.40906
 C13 C 0.71636 0.27564 0.40858
 C14 C 0.78272 0.21761 0.58842
 O15 O 0.28285 0.76589 0.43449
 O16 O 0.23350 0.80938 0.56897
 O17 O 0.28269 0.76612 0.56893
 O18 O 0.23371 0.80920 0.43400
 O19 O 0.21483 0.72880 0.43400
 O20 O 0.26383 0.68569 0.56889
 O21 O 0.21469 0.72901 0.56914
 O22 O 0.26396 0.68548 0.43454
 Cu23 Cu 0.26004 0.79573 0.50162
 Cu24 Cu 0.23737 0.69926 0.50166
 C25 C 0.28209 0.71804 0.41212
 C26 C 0.21547 0.77678 0.59193
 C27 C 0.28191 0.71831 0.59131
 C28 C 0.21578 0.77646 0.41112
 O29 O 0.23376 0.19124 -0.56987
 O30 O 0.28309 0.23433 -0.43544
 O31 O 0.23391 0.19118 -0.43490
 O32 O 0.28309 0.23418 -0.56987
 O33 O 0.26444 0.31464 -0.56963
 O34 O 0.21521 0.27168 -0.43469
 O35 O 0.26438 0.31483 -0.43529
 O36 O 0.21513 0.27170 -0.56984
 Cu37 Cu 0.26029 0.20465 -0.50259
 Cu38 Cu 0.23786 0.30120 -0.50240
 C39 C 0.21580 0.22393 -0.59267
 C40 C 0.28240 0.28215 -0.41293
 C41 C 0.21605 0.22400 -0.41187
 C42 C 0.28254 0.28204 -0.59221
 O43 O -0.21667 0.73482 -0.43382
 O44 O -0.26563 0.69171 -0.56899
 O45 O -0.21642 0.73502 -0.56825
 O46 O -0.26580 0.69137 -0.43403
 O47 O -0.28462 0.77176 -0.43370
 O48 O -0.23521 0.81536 -0.56796
 O49 O -0.28444 0.77211 -0.56883
 O50 O -0.23550 0.81521 -0.43361
 Cu51 Cu -0.23929 0.70515 -0.50133
 Cu52 Cu -0.26189 0.80160 -0.50103
 C53 C -0.21747 0.78259 -0.41119
 C54 C -0.28355 0.72444 -0.59177
 C55 C -0.21703 0.78292 -0.59049
 C56 C -0.28377 0.72401 -0.41109
 O57 O -0.03827 0.90858 0.12924
 O58 O -0.06868 0.95599 0.06215
 C59 C -0.06316 0.92250 0.11157
 O60 O 0.03915 1.09735 0.12269
 O61 O 0.06958 1.04663 0.05929
 C62 C 0.06406 1.08306 0.10528
 O63 O -0.03869 1.09191 0.12830
 O64 O -0.06920 1.04430 0.06106
 C65 C -0.06363 1.07793 0.11043
 O66 O 0.03909 0.90347 0.12212
 O67 O 0.06956 0.95432 0.05910
 C68 C 0.06401 0.91781 0.10486
 Zr69 Zr 0.00035 0.93256 0.08748
 O70 O 0.00331 0.92910 0.19693
 O71 O -0.00290 0.84807 0.08256
 Zr72 Zr 0.00036 1.06816 0.08806
 O73 O 0.00327 1.07047 0.19763
 O74 O -0.00275 1.15269 0.08518
 O75 O -0.02418 1.00036 0.10172
 O76 O 0.02425 1.00036 0.10063
 O77 O 0.03924 0.90382 -0.12159
 O78 O 0.06973 0.95446 -0.05826
 C79 C 0.06417 0.91808 -0.10429
 O80 O -0.03811 1.09254 -0.12776
 O81 O -0.06860 1.04510 -0.06059
 C82 C -0.06302 1.07860 -0.11001
 O83 O 0.03925 1.09748 -0.12121
 O84 O 0.06963 1.04656 -0.05844
 C85 C 0.06414 1.08310 -0.10413
 O86 O -0.03826 0.90855 -0.12823
 O87 O -0.06864 0.95598 -0.06074
 C88 C -0.06313 0.92249 -0.11029
 Zr89 Zr 0.00035 0.93270 -0.08694
 O90 O 0.00337 0.92988 -0.19648
 O91 O -0.00286 0.84819 -0.08292
 Zr92 Zr 0.00047 1.06836 -0.08641
 O93 O 0.00351 1.07156 -0.19591
 O94 O -0.00265 1.15287 -0.08179
 Zr95 Zr -0.04095 1.00054 0.00070
 Zr96 Zr 0.04168 1.00044 0.00040
 O97 O 0.02429 1.00053 -0.09972
 O98 O -0.02414 1.00059 -0.10040
 O99 O 0.02525 0.92219 0.00016
 O100 O -0.02384 1.07802 0.00088
 O101 O -0.02397 0.92301 0.00036
 O102 O 0.02532 1.07869 0.00080
 H103 H 0.03645 1.00032 0.14190
 H104 H -0.03658 1.10909 0.00093
 H105 H 0.03651 1.00057 -0.14104
 H106 H -0.03675 0.89197 0.00038
 H107 H 0.01387 1.16649 0.06105
 H108 H 0.01431 1.16659 -0.05928
 H109 H -0.00999 1.04562 -0.21481
 H110 H -0.01028 0.95551 -0.21519
 H111 H 0.01409 0.83442 -0.06046
 H112 H 0.01412 0.83433 0.06022
 H113 H -0.00962 0.95607 0.21586
 H114 H -0.01116 1.04639 0.21632
 O115 O 0.46150 0.40752 0.12841
 O116 O 0.43106 0.45491 0.06132
 C117 C 0.43660 0.42140 0.11068
 O118 O 0.53906 0.59651 0.12159
 O119 O 0.56947 0.54579 0.05813
 C120 C 0.56396 0.58226 0.10407
 O121 O 0.46155 0.59147 0.12874
 O122 O 0.43107 0.54400 0.06162
 C123 C 0.43664 0.57752 0.11107
 O124 O 0.53902 0.40277 0.12143
 O125 O 0.56945 0.45356 0.05813
 C126 C 0.56393 0.41710 0.10401
 Zr127 Zr 0.50017 0.43176 0.08705
 O128 O 0.50317 0.42887 0.19656
 O129 O 0.49701 0.34724 0.08285
 Zr130 Zr 0.50020 0.56740 0.08721
 O131 O 0.50322 0.57034 0.19671
 O132 O 0.49705 0.65191 0.08321
 O133 O 0.47562 0.49955 0.10102
 O134 O 0.52406 0.49961 0.10007
 O135 O 0.53904 0.40284 -0.12212
 O136 O 0.56945 0.45387 -0.05918
 C137 C 0.56394 0.41731 -0.10497
 O138 O 0.46156 0.59159 -0.12824
 O139 O 0.43109 0.54410 -0.06100
 C140 C 0.43665 0.57767 -0.11036
 O141 O 0.53905 0.59641 -0.12191
 O142 O 0.56946 0.54549 -0.05910
 C143 C 0.56396 0.58201 -0.10485
 O144 O 0.46157 0.40767 -0.12873
 O145 O 0.43107 0.45502 -0.06138
 C146 C 0.43665 0.42156 -0.11092
 Zr147 Zr 0.50020 0.43178 -0.08737
 O148 O 0.50323 0.42867 -0.19689
 O149 O 0.49701 0.34726 -0.08316
 Zr150 Zr 0.50021 0.56737 -0.08720
 O151 O 0.50322 0.57023 -0.19673
 O152 O 0.49709 0.65189 -0.08300
 Zr153 Zr 0.45877 0.49953 0.00006
 Zr154 Zr 0.54143 0.49963 -0.00017
 O155 O 0.52407 0.49961 -0.10032
 O156 O 0.47564 0.49955 -0.10102
 O157 O 0.52508 0.42134 -0.00025
 O158 O 0.47590 0.57702 0.00011
 O159 O 0.47587 0.42208 -0.00011
 O160 O 0.52510 0.57787 -0.00007
 H161 H 0.53632 0.49964 0.14124
 H162 H 0.46318 0.60811 0.00023
 H163 H 0.53627 0.49962 -0.14168
 H164 H 0.46312 0.39098 -0.00015
 H165 H 0.51393 0.66570 0.06030
 H166 H 0.51399 0.66565 -0.06020
 H167 H 0.48944 0.54482 -0.21552
 H168 H 0.48978 0.45466 -0.21569
 H169 H 0.51396 0.33353 -0.06065
 H170 H 0.51390 0.33350 0.05991
 H171 H 0.48947 0.45439 0.21547
 H172 H 0.48960 0.54460 0.21553
 C173 C 0.34495 0.33625 0.27020
 C174 C 0.32384 0.37099 0.29219
 C175 C 0.30284 0.35282 0.33619
 C176 C 0.30244 0.29936 0.35947
 C177 C 0.32318 0.26426 0.33556
 C178 C 0.34416 0.28253 0.29158
 C179 C 0.36826 0.35648 0.22730
 C180 C 0.39551 0.34020 0.24127
 C181 C 0.41764 0.36073 0.20291
 C182 C 0.41304 0.39802 0.14958
 C183 C 0.38573 0.41382 0.13503
 C184 C 0.36360 0.39332 0.17351
 H185 H 0.28729 0.38118 0.35316
 H186 H 0.32358 0.22274 0.35171
 H187 H 0.43839 0.34780 0.21569
 H188 H 0.38140 0.44245 0.09429
 H189 H 0.35989 0.25459 0.27454
 H190 H 0.39982 0.31250 0.28307
 H191 H 0.32403 0.41275 0.27715
 H192 H 0.34282 0.40619 0.16102
 C193 C -0.15468 0.83752 0.27189
 C194 C -0.15541 0.78378 0.29325
 C195 C -0.17634 0.76541 0.33730
 C196 C -0.19712 0.80041 0.36129
 C197 C -0.19678 0.85389 0.33807
 C198 C -0.17581 0.87217 0.29402
 C199 C -0.13141 0.85782 0.22885
 C200 C -0.10415 0.84146 0.24254
 C201 C -0.08207 0.86192 0.20396
 C202 C -0.08670 0.89924 0.15068
 C203 C -0.11402 0.91516 0.13643
 C204 C -0.13611 0.89472 0.17513
 H205 H -0.17590 0.72388 0.35338
 H206 H -0.21235 0.88218 0.35512
 H207 H -0.06131 0.84890 0.21653
 H208 H -0.11838 0.94382 0.09576
 H209 H -0.17567 0.91394 0.27901
 H210 H -0.09980 0.81373 0.28427
 H211 H -0.13967 0.75590 0.27611
 H212 H -0.15691 0.90767 0.16286
 C213 C 0.65476 0.67054 0.26302
 C214 C 0.65569 0.72440 0.28414
 C215 C 0.67608 0.74218 0.33006
 C216 C 0.69604 0.70651 0.35586
 C217 C 0.69558 0.65300 0.33325
 C218 C 0.67516 0.63521 0.28739
 C219 C 0.63184 0.65063 0.21863
 C220 C 0.63675 0.61250 0.16634
 C221 C 0.61482 0.59131 0.12781
 C222 C 0.58747 0.60775 0.14080
 C223 C 0.58268 0.64687 0.19192
 C224 C 0.60459 0.66802 0.23035
 H225 H 0.67594 0.78373 0.34615
 H226 H 0.71063 0.62447 0.35222
 H227 H 0.61929 0.56133 0.08874
 H228 H 0.56190 0.66041 0.20345
 H229 H 0.67483 0.59334 0.27282
 H230 H 0.65756 0.59880 0.15549
 H231 H 0.64050 0.75276 0.26548
 H232 H 0.60005 0.69678 0.27088
 C233 C 0.15485 1.17102 0.26485
 C234 C 0.15554 1.22462 0.28699
 C235 C 0.17596 1.24239 0.33285
 C236 C 0.19628 1.20694 0.35786
 C237 C 0.19603 1.15362 0.33389
 C238 C 0.17556 1.13593 0.28810
 C239 C 0.13191 1.15113 0.22042
 C240 C 0.13687 1.11358 0.16744
 C241 C 0.11495 1.09249 0.12876
 C242 C 0.08755 1.10845 0.14225
 C243 C 0.08271 1.14698 0.19411
 C244 C 0.10461 1.16802 0.23271
 H245 H 0.17549 1.28383 0.34941
 H246 H 0.21128 1.12500 0.35163
 H247 H 0.11946 1.06298 0.08912
 H248 H 0.06191 1.16012 0.20608
 H249 H 0.17544 1.09423 0.27267
 H250 H 0.15770 1.10029 0.15611
 H251 H 0.14013 1.25285 0.26913
 H252 H 0.10003 1.19629 0.27377
 C253 C 0.65463 0.32960 -0.26523
 C254 C 0.67498 0.36503 -0.28997
 C255 C 0.69539 0.34730 -0.33599
 C256 C 0.69590 0.29373 -0.35840
 C257 C 0.67599 0.25798 -0.33226
 C258 C 0.65560 0.27571 -0.28618
 C259 C 0.63175 0.34940 -0.22054
 C260 C 0.60451 0.33175 -0.23175
 C261 C 0.58262 0.35275 -0.19298
 C262 C 0.58743 0.39199 -0.14204
 C263 C 0.61478 0.40869 -0.12956
 C264 C 0.63668 0.38766 -0.16843
 H265 H 0.71041 0.37589 -0.35520
 H266 H 0.67589 0.21638 -0.34816
 H267 H 0.56185 0.33900 -0.20411
 H268 H 0.61926 0.43877 -0.09063
 H269 H 0.64046 0.24726 -0.26722
 H270 H 0.59995 0.30288 -0.27212
 H271 H 0.67461 0.40693 -0.27553
 H272 H 0.65748 0.40155 -0.15796
 C273 C 0.15474 0.82994 -0.26485
 C274 C 0.15532 0.77633 -0.28694
 C275 C 0.17565 0.75849 -0.33309
 C276 C 0.19601 0.79387 -0.35842
 C277 C 0.19587 0.84721 -0.33449
 C278 C 0.17548 0.86498 -0.28842
 C279 C 0.13187 0.84991 -0.22015
 C280 C 0.13690 0.88753 -0.16731
 C281 C 0.11503 0.90866 -0.12837
 C282 C 0.08762 0.89267 -0.14148
 C283 C 0.08270 0.85409 -0.19319
 C284 C 0.10454 0.83302 -0.23205
 H285 H 0.17511 0.71703 -0.34959
 H286 H 0.21116 0.87577 -0.35245
 H287 H 0.11960 0.93822 -0.08884
 H288 H 0.06188 0.84092 -0.20488
 H289 H 0.17544 0.90668 -0.27302
 H290 H 0.15776 0.90084 -0.15627
 H291 H 0.13990 0.74813 -0.26880
 H292 H 0.09989 0.80470 -0.27300
 C293 C 0.34517 0.66301 -0.26920
 C294 C 0.32411 0.62820 -0.29151
 C295 C 0.30315 0.64650 -0.33532
 C296 C 0.30277 0.70002 -0.35780
 C297 C 0.32341 0.73516 -0.33397
 C298 C 0.34437 0.71685 -0.29017
 C299 C 0.36843 0.64272 -0.22646
 C300 C 0.39569 0.65923 -0.24030
 C301 C 0.41778 0.63865 -0.20210
 C302 C 0.41314 0.60108 -0.14907
 C303 C 0.38582 0.58505 -0.13464
 C304 C 0.36373 0.60561 -0.17296
 H305 H 0.28760 0.61836 -0.35286
 H306 H 0.32366 0.77668 -0.35010
 H307 H 0.43854 0.65177 -0.21477
 H308 H 0.38146 0.55621 -0.09413
 H309 H 0.36006 0.74481 -0.27297
 H310 H 0.40003 0.68716 -0.28188
 H311 H 0.32432 0.58636 -0.27688
 H312 H 0.34293 0.59255 -0.16059
 C313 C -0.15424 1.16290 -0.27094
 C314 C -0.17516 1.12790 -0.29357
 C315 C -0.19603 1.14597 -0.33785
 C316 C -0.19645 1.19945 -0.36049
 C317 C -0.17594 1.23477 -0.33642
 C318 C -0.15507 1.21669 -0.29215
 C319 C -0.13107 1.14289 -0.22761
 C320 C -0.10381 1.15966 -0.24087
 C321 C -0.08180 1.13937 -0.20213
 C322 C -0.08651 1.10182 -0.14910
 C323 C -0.11383 1.08555 -0.13521
 C324 C -0.13585 1.10581 -0.17409
 H325 H -0.21149 1.11770 -0.35555
 H326 H -0.17572 1.27627 -0.35264
 H327 H -0.06103 1.15268 -0.21441
 H328 H -0.11824 1.05670 -0.09474
 H329 H -0.13949 1.24481 -0.27474
 H330 H -0.09940 1.18756 -0.28242
 H331 H -0.17492 1.08610 -0.27878
 H332 H -0.15665 1.09255 -0.16214
 C333 C 0.65453 0.66990 -0.26558
 C334 C 0.65549 0.72381 -0.28637
 C335 C 0.67586 0.74163 -0.33248
 C336 C 0.69576 0.70596 -0.35880
 C337 C 0.69525 0.65237 -0.33658
 C338 C 0.67486 0.63455 -0.29054
 C339 C 0.63168 0.65002 -0.22077
 C340 C 0.63665 0.61171 -0.16887
 C341 C 0.61478 0.59064 -0.12987
 C342 C 0.58743 0.60737 -0.14200
 C343 C 0.58259 0.64666 -0.19275
 C344 C 0.60444 0.66770 -0.23164
 H345 H 0.67577 0.78323 -0.34821
 H346 H 0.71026 0.62385 -0.35592
 H347 H 0.61928 0.56051 -0.09113
 H348 H 0.56182 0.66043 -0.20362
 H349 H 0.67450 0.59265 -0.27623
 H350 H 0.65745 0.59779 -0.15864
 H351 H 0.64038 0.75221 -0.26724
 H352 H 0.59986 0.69661 -0.27184
 C353 C 0.15463 1.17065 -0.26524
 C354 C 0.15562 1.22450 -0.28624
 C355 C 0.17590 1.24208 -0.33272
 C356 C 0.19568 1.20621 -0.35921
 C357 C 0.19514 1.15269 -0.33675
 C358 C 0.17484 1.13511 -0.29034
 C359 C 0.13182 1.15098 -0.22017
 C360 C 0.13681 1.11273 -0.16821
 C361 C 0.11496 1.09172 -0.12912
 C362 C 0.08761 1.10846 -0.14124
 C363 C 0.08276 1.14773 -0.19199
 C364 C 0.10459 1.16870 -0.23097
 H365 H 0.17584 1.28365 -0.34863
 H366 H 0.21006 1.12403 -0.35620
 H367 H 0.11947 1.06162 -0.09034
 H368 H 0.06198 1.16152 -0.20283
 H369 H 0.17444 1.09324 -0.27587
 H370 H 0.15761 1.09878 -0.15805
 H371 H 0.14059 1.25303 -0.26702
 H372 H 0.09999 1.19756 -0.27122
 C373 C 0.34545 0.33701 -0.27214
 C374 C 0.34460 0.28320 -0.29347
 C375 C 0.32375 0.26507 -0.33781
 C376 C 0.30325 0.30034 -0.36182
 C377 C 0.30369 0.35383 -0.33906
 C378 C 0.32455 0.37195 -0.29471
 C379 C 0.36862 0.35709 -0.22874
 C380 C 0.36383 0.39417 -0.17515
 C381 C 0.38585 0.41450 -0.13621
 C382 C 0.41317 0.39830 -0.15010
 C383 C 0.41788 0.36075 -0.20321
 C384 C 0.39587 0.34039 -0.24202
 H385 H 0.32395 0.22358 -0.35413
 H386 H 0.28824 0.38206 -0.35671
 H387 H 0.38144 0.44334 -0.09567
 H388 H 0.43864 0.34749 -0.21550
 H389 H 0.32480 0.41376 -0.27982
 H390 H 0.34303 0.40737 -0.16319
 H391 H 0.36017 0.25513 -0.27610
 H392 H 0.40029 0.31249 -0.28363
 C393 C -0.15452 0.83762 -0.27036
 C394 C -0.15538 0.78377 -0.29148
 C395 C -0.17623 0.76557 -0.33577
 C396 C -0.19670 0.80082 -0.35993
 C397 C -0.19628 0.85433 -0.33729
 C398 C -0.17542 0.87253 -0.29300
 C399 C -0.13131 0.85780 -0.22724
 C400 C -0.10408 0.84110 -0.24076
 C401 C -0.08201 0.86156 -0.20225
 C402 C -0.08666 0.89920 -0.14922
 C403 C -0.11396 0.91541 -0.13510
 C404 C -0.13603 0.89498 -0.17374
 H405 H -0.17602 0.72405 -0.35199
 H406 H -0.21172 0.88255 -0.35506
 H407 H -0.06127 0.84829 -0.21470
 H408 H -0.11831 0.94432 -0.09461
 H409 H -0.17516 0.91437 -0.27825
 H410 H -0.09972 0.81313 -0.28233
 H411 H -0.13981 0.75573 -0.27403
 H412 H -0.15681 0.90819 -0.16164
 C413 C 0.34530 0.66258 0.27183
 C414 C 0.34452 0.71644 0.29293
 C415 C 0.32360 0.73477 0.33707
 C416 C 0.30298 0.69965 0.36113
 C417 C 0.30335 0.64611 0.33858
 C418 C 0.32428 0.62778 0.29442
 C419 C 0.36851 0.64230 0.22862
 C420 C 0.39578 0.65892 0.24196
 C421 C 0.41782 0.63843 0.20328
 C422 C 0.41314 0.60083 0.15025
 C423 C 0.38581 0.58466 0.13634
 C424 C 0.36376 0.60512 0.17514
 H425 H 0.32386 0.77630 0.35323
 H426 H 0.28781 0.61798 0.35627
 H427 H 0.43858 0.65166 0.21559
 H428 H 0.38143 0.55576 0.09587
 H429 H 0.32447 0.58593 0.27971
 H430 H 0.40016 0.68689 0.28350
 H431 H 0.36018 0.74440 0.27553
 H432 H 0.34296 0.59196 0.16315
 C433 C -0.15504 1.16314 0.27065
 C434 C -0.17614 1.12839 0.29281
 C435 C -0.19704 1.14657 0.33712
 C436 C -0.19733 1.20003 0.36056
 C437 C -0.17661 1.23513 0.33649
 C438 C -0.15574 1.21686 0.29218
 C439 C -0.13182 1.14290 0.22749
 C440 C -0.13656 1.10600 0.17369
 C441 C -0.11449 1.08549 0.13502
 C442 C -0.08715 1.10135 0.14939
 C443 C -0.08248 1.13871 0.20270
 C444 C -0.10454 1.15924 0.24125
 H445 H -0.21259 1.11821 0.35421
 H446 H -0.17614 1.27665 0.35274
 H447 H -0.11887 1.05681 0.09430
 H448 H -0.06171 1.15170 0.21536
 H449 H -0.14002 1.24480 0.27502
 H450 H -0.15737 1.09308 0.16137
 H451 H -0.17603 1.08664 0.27766
 H452 H -0.10017 1.18698 0.28305
 C453 C 0.65461 0.32935 0.26353
 C454 C 0.65553 0.27551 0.28459
 C455 C 0.67592 0.25780 0.33049
 C456 C 0.69589 0.29352 0.35635
 C457 C 0.69543 0.34704 0.33386
 C458 C 0.67502 0.36475 0.28801
 C459 C 0.63173 0.34915 0.21900
 C460 C 0.63668 0.38731 0.16683
 C461 C 0.61478 0.40834 0.12814
 C462 C 0.58742 0.39174 0.14084
 C463 C 0.58260 0.35261 0.19186
 C464 C 0.60447 0.33160 0.23045
 H465 H 0.67578 0.21625 0.34647
 H466 H 0.71049 0.37561 0.35286
 H467 H 0.61928 0.43835 0.08917
 H468 H 0.56181 0.33895 0.20319
 H469 H 0.67470 0.40661 0.27350
 H470 H 0.65749 0.40113 0.15617
 H471 H 0.64034 0.24709 0.26586
 H472 H 0.59989 0.30283 0.27087
 C473 C 0.15443 0.83003 0.26507
 C474 C 0.15532 0.77619 0.28609
 C475 C 0.17559 0.75852 0.33234
 C476 C 0.19546 0.79430 0.35858
 C477 C 0.19503 0.84782 0.33610
 C478 C 0.17474 0.86548 0.28990
 C479 C 0.13163 0.84978 0.22028
 C480 C 0.13666 0.88797 0.16820
 C481 C 0.11482 0.90903 0.12935
 C482 C 0.08745 0.89241 0.14180
 C483 C 0.08255 0.85320 0.19268
 C484 C 0.10437 0.83218 0.23143
 H485 H 0.17544 0.71696 0.34828
 H486 H 0.21002 0.87642 0.35538
 H487 H 0.11937 0.93908 0.09047
 H488 H 0.06175 0.83952 0.20380
 H489 H 0.17442 0.90735 0.27541
 H490 H 0.15748 0.90182 0.15777
 H491 H 0.14021 0.74772 0.26708
 H492 H 0.09974 0.80336 0.27177
   
