data_POSCAR
  _audit_creation_date              2014-09-24
  _audit_creation_method            'ToBaCCo'
  _symmetry_space_group_name_H-M    'P1'
  _symmetry_Int_Tables_number       1
  _symmetry_cell_setting            triclinic
  loop_
  _symmetry_equiv_pos_as_xyz
 x,y,z
_cell_length_a 29.5709
_cell_length_b 29.5709
_cell_length_c 29.5708
_cell_angle_alpha 76.632000
_cell_angle_beta 103.367100
_cell_angle_gamma 76.632200
loop_
  _atom_site_label
  _atom_site_type_symbol
  _atom_site_fract_x
  _atom_site_fract_y
  _atom_site_fract_z
O1 O 0.57302 0.48335 0.04502
 O2 O 0.44340 0.49926 0.03469
 O3 O 0.51737 0.42623 0.04561
 O4 O 0.49895 0.55632 0.03404
 O5 O 0.48143 0.57339 -0.04583
 O6 O 0.49989 0.44331 -0.03426
 O7 O 0.42581 0.51624 -0.04511
 O8 O 0.55543 0.50036 -0.03485
 Cu9 Cu 0.50992 0.48961 0.04783
 Cu10 Cu 0.48889 0.51001 -0.04800
 C11 C 0.58634 0.48972 0.00673
 C12 C 0.41236 0.50987 -0.00686
 C13 C 0.51120 0.41257 0.00753
 C14 C 0.48765 0.58705 -0.00776
 O15 O -0.04500 0.57449 0.48335
 O16 O -0.03474 0.44487 0.49924
 O17 O -0.03407 0.50042 0.55629
 O18 O -0.04564 0.51885 0.42619
 O19 O 0.03423 0.50137 0.44327
 O20 O 0.04581 0.48291 0.57335
 O21 O 0.04513 0.42728 0.51623
 O22 O 0.03480 0.55691 0.50034
 Cu23 Cu -0.04785 0.51140 0.48957
 Cu24 Cu 0.04798 0.49038 0.50997
 C25 C -0.00675 0.58793 0.48975
 C26 C 0.00685 0.41396 0.50990
 C27 C 0.00773 0.48911 0.58702
 C28 C -0.00756 0.51267 0.41253
 O29 O 0.49947 0.03449 0.55687
 O30 O 0.48356 0.04482 0.42725
 O31 O 0.42645 0.04544 0.48289
 O32 O 0.55654 0.03387 0.50132
 O33 O 0.57361 -0.04600 0.51882
 O34 O 0.44353 -0.03444 0.50038
 O35 O 0.50057 -0.03505 0.44483
 O36 O 0.51645 -0.04531 0.57445
 Cu37 Cu 0.48983 0.04764 0.49035
 Cu38 Cu 0.51023 -0.04819 0.51137
 C39 C 0.51006 -0.00706 0.58790
 C40 C 0.48991 0.00654 0.41392
 C41 C 0.41279 0.00736 0.48906
 C42 C 0.58727 -0.00793 0.51261
 C43 C 0.50350 -0.00838 -0.04457
 C44 C 0.49579 -0.04413 -0.00904
 C45 C 0.49250 -0.03583 0.03503
 C46 C 0.49672 0.00767 0.04416
 C47 C 0.50441 0.04343 0.00862
 C48 C 0.50771 0.03513 -0.03544
 H49 H 0.51350 0.06277 -0.06288
 H50 H 0.48671 -0.06347 0.06247
 C51 C -0.00857 0.50505 1.04362
 C52 C -0.04410 0.49733 1.00787
 C53 C -0.03498 0.49313 0.96437
 C54 C 0.00909 0.49642 0.95607
 C55 C 0.04463 0.50411 0.99183
 C56 C 0.03550 0.50834 1.03533
 H57 H 0.06293 0.51412 1.06297
 H58 H -0.06241 0.48733 0.93673
 C59 C 0.04358 0.00861 0.49570
 C60 C 0.00782 0.04415 0.50338
 C61 C -0.03568 0.03502 0.50760
 C62 C -0.04397 -0.00905 0.50432
 C63 C -0.00823 -0.04458 0.49660
 C64 C 0.03528 -0.03545 0.49240
 H65 H 0.06293 -0.06289 0.48661
 H66 H -0.06332 0.06246 0.51339
 C67 C -0.27967 0.47661 1.05869
 C68 C -0.26531 0.48488 1.01636
 C69 C -0.29897 0.49296 0.97121
 C70 C -0.34698 0.49355 0.96819
 C71 C -0.36204 0.48606 1.01040
 C72 C -0.32772 0.47714 1.05578
 C73 C -0.21650 0.48633 1.01870
 C74 C -0.17614 0.48828 1.01910
 C75 C -0.12950 0.49117 1.01755
 C76 C -0.09027 0.49393 1.01430
 H77 H -0.25392 0.47033 1.09383
 H78 H -0.28826 0.49941 0.93821
 H79 H -0.37244 0.50054 0.93272
 H80 H -0.33815 0.47133 1.08893
 C81 C 0.30009 0.50632 1.02881
 C82 C 0.26621 0.51541 0.98355
 C83 C 0.28042 0.52438 0.94120
 C84 C 0.32855 0.52352 0.94414
 C85 C 0.36333 0.51346 0.98968
 C86 C 0.34819 0.50538 1.03194
 C87 C 0.21729 0.51431 0.98112
 C88 C 0.17684 0.51262 0.98068
 C89 C 0.13013 0.50998 0.98220
 C90 C 0.09084 0.50739 0.98544
 H91 H 0.28946 0.49937 1.06184
 H92 H 0.25445 0.53150 0.90596
 H93 H 0.33855 0.53001 0.91074
 H94 H 0.37358 0.49762 1.06765
 C95 C -0.05875 -0.28021 0.47554
 C96 C -0.01640 -0.26599 0.48462
 C97 C 0.02886 -0.29982 0.49363
 C98 C 0.03201 -0.34789 0.49441
 C99 C -0.01024 -0.36305 0.48625
 C100 C -0.05579 -0.32830 0.47625
 C101 C -0.01887 -0.21711 0.48590
 C102 C -0.01934 -0.17670 0.48774
 C103 C -0.01785 -0.13002 0.49054
 C104 C -0.01463 -0.09076 0.49324
 H105 H -0.09400 -0.25428 0.46848
 H106 H 0.06188 -0.28918 0.50066
 H107 H 0.06773 -0.37325 0.50213
 H108 H -0.08918 -0.33831 0.46970
 C109 C 0.05874 0.27988 0.52329
 C110 C 0.01641 0.26553 0.51516
 C111 C -0.02872 0.29923 0.50703
 C112 C -0.03172 0.34727 0.50629
 C113 C 0.01049 0.36232 0.51366
 C114 C 0.05586 0.32797 0.52260
 C115 C 0.01872 0.21667 0.51389
 C116 C 0.01909 0.17627 0.51209
 C117 C 0.01750 0.12960 0.50935
 C118 C 0.01423 0.09034 0.50671
 H119 H 0.09388 0.25410 0.52960
 H120 H -0.06173 0.28852 0.50068
 H121 H -0.06718 0.37275 0.49928
 H122 H 0.08902 0.33839 0.52832
 C123 C 0.52435 -0.05902 -0.28021
 C124 C 0.51531 -0.01667 -0.26601
 C125 C 0.50628 0.02859 -0.29986
 C126 C 0.50546 0.03172 -0.34793
 C127 C 0.51359 -0.01054 -0.36308
 C128 C 0.52360 -0.05608 -0.32831
 C129 C 0.51408 -0.01910 -0.21712
 C130 C 0.51228 -0.01955 -0.17670
 C131 C 0.50952 -0.01803 -0.13002
 C132 C 0.50685 -0.01479 -0.09076
 H133 H 0.53143 -0.09426 -0.25427
 H134 H 0.49929 0.06162 -0.28923
 H135 H 0.49773 0.06744 -0.37331
 H136 H 0.53013 -0.08947 -0.33832
 C137 C 0.47657 0.05848 0.27987
 C138 C 0.48476 0.01616 0.26551
 C139 C 0.49289 -0.02899 0.29919
 C140 C 0.49359 -0.03201 0.34722
 C141 C 0.48617 0.01020 0.36229
 C142 C 0.47721 0.05557 0.32795
 C143 C 0.48608 0.01850 0.21666
 C144 C 0.48792 0.01889 0.17627
 C145 C 0.49070 0.01733 0.12960
 C146 C 0.49337 0.01408 0.09035
 H147 H 0.47025 0.09362 0.25410
 H148 H 0.49929 -0.06199 0.28847
 H149 H 0.50062 -0.06748 0.37270
 H150 H 0.47145 0.08873 0.33838
 C151 C 0.48923 -0.29754 0.02665
 C152 C 0.48114 -0.26416 -0.01865
 C153 C 0.47314 -0.27886 -0.06077
 C154 C 0.47407 -0.32706 -0.05747
 C155 C 0.48314 -0.36114 -0.01191
 C156 C 0.49022 -0.34568 0.03006
 C157 C 0.48265 -0.21536 -0.02127
 C158 C 0.48486 -0.17509 -0.02168
 C159 C 0.48825 -0.12871 -0.01987
 C160 C 0.49157 -0.08978 -0.01619
 H161 H 0.49548 -0.28652 0.05949
 H162 H 0.46689 -0.25331 -0.09602
 H163 H 0.46857 -0.33782 -0.09044
 H164 H 0.49731 -0.37096 0.06566
 C165 C 0.51004 0.29712 -0.02694
 C166 C 0.51818 0.26369 0.01834
 C167 C 0.52601 0.27839 0.06047
 C168 C 0.52490 0.32662 0.05720
 C169 C 0.51580 0.36074 0.01165
 C170 C 0.50887 0.34530 -0.03032
 C171 C 0.51689 0.21483 0.02092
 C172 C 0.51488 0.17452 0.02129
 C173 C 0.51169 0.12809 0.01944
 C174 C 0.50851 0.08913 0.01575
 H175 H 0.50391 0.28611 -0.05979
 H176 H 0.53230 0.25279 0.09570
 H177 H 0.53030 0.33737 0.09018
 H178 H 0.50176 0.37061 -0.06591
 C179 C -0.29734 0.02652 0.51102
 C180 C -0.26396 -0.01877 0.51906
 C181 C -0.27866 -0.06090 0.52704
 C182 C -0.32684 -0.05762 0.52613
 C183 C -0.36092 -0.01207 0.51710
 C184 C -0.34547 0.02991 0.51005
 C185 C -0.21517 -0.02137 0.51752
 C186 C -0.17491 -0.02175 0.51530
 C187 C -0.12854 -0.01992 0.51189
 C188 C -0.08962 -0.01621 0.50855
 H189 H -0.28633 0.05936 0.50478
 H190 H -0.25310 -0.09614 0.53326
 H191 H -0.33760 -0.09059 0.53161
 H192 H -0.37075 0.06550 0.50299
 C193 C 0.27860 0.06034 0.47418
 C194 C 0.26389 0.01822 0.48203
 C195 C 0.29732 -0.02707 0.49020
 C196 C 0.34550 -0.03047 0.49139
 C197 C 0.36096 0.01150 0.48444
 C198 C 0.32684 0.05705 0.47531
 C199 C 0.21503 0.02083 0.48329
 C200 C 0.17470 0.02122 0.48528
 C201 C 0.12826 0.01940 0.48845
 C202 C 0.08929 0.01572 0.49161
 H203 H 0.25301 0.09559 0.46787
 H204 H 0.28630 -0.05991 0.49634
 H205 H 0.37081 -0.06607 0.49852
 H206 H 0.33760 0.09003 0.46991
 C207 C -0.06049 0.52726 1.27841
 C208 C -0.01836 0.51937 1.26371
 C209 C 0.02691 0.51130 1.29712
 C210 C 0.03029 0.51024 1.34527
 C211 C -0.01169 0.51722 1.36071
 C212 C -0.05723 0.52626 1.32661
 C213 C -0.02094 0.51794 1.21490
 C214 C -0.02130 0.51581 1.17462
 C215 C -0.01944 0.51249 1.12822
 C216 C -0.01573 0.50922 1.08929
 H217 H -0.09572 0.53349 1.25283
 H218 H 0.05976 0.50513 1.28611
 H219 H 0.06587 0.50318 1.37056
 H220 H -0.09021 0.53168 1.33736
 C221 C 0.06076 0.47439 0.72115
 C222 C 0.01864 0.48231 0.73588
 C223 C -0.02666 0.49046 0.70248
 C224 C -0.03008 0.49156 0.65430
 C225 C 0.01189 0.48454 0.63884
 C226 C 0.05745 0.47542 0.67293
 C227 C 0.02127 0.48368 0.78471
 C228 C 0.02169 0.48577 0.82501
 C229 C 0.01989 0.48904 0.87144
 C230 C 0.01622 0.49227 0.91039
 H231 H 0.09601 0.46809 0.74672
 H232 H -0.05949 0.49666 0.71350
 H233 H -0.06568 0.49868 0.62902
 H234 H 0.09042 0.46997 0.66217
   
