data_POSCAR
  _audit_creation_date              2014-09-24
  _audit_creation_method            'ToBaCCo'
  _symmetry_space_group_name_H-M    'P1'
  _symmetry_Int_Tables_number       1
  _symmetry_cell_setting            triclinic
  loop_
  _symmetry_equiv_pos_as_xyz
 x,y,z
_cell_length_a 21.1352
_cell_length_b 21.3964
_cell_length_c 33.5882
_cell_angle_alpha 84.891400
_cell_angle_beta 93.335700
_cell_angle_gamma 102.371500
loop_
  _atom_site_label
  _atom_site_type_symbol
  _atom_site_fract_x
  _atom_site_fract_y
  _atom_site_fract_z
C1 C -0.00327 0.65356 1.00714
 C2 C -0.01110 0.61233 1.04252
 C3 C -0.00042 0.54980 1.04168
 C4 C 0.01902 0.52860 1.00666
 C5 C 0.02859 0.57192 0.97232
 C6 C 0.01516 0.63344 0.97154
 C7 C 0.02835 0.46130 1.00532
 C8 C 0.01823 0.43157 0.96895
 C9 C 0.02963 0.37005 0.96651
 C10 C 0.04694 0.33556 1.00139
 C11 C 0.05492 0.36277 1.03839
 C12 C 0.04655 0.42586 1.04001
 H13 H -0.00625 0.70292 1.00815
 H14 H -0.00876 0.51734 1.06836
 H15 H 0.04632 0.55777 0.94563
 H16 H 0.00116 0.45583 0.94212
 H17 H 0.05045 0.28611 0.99991
 H18 H 0.05458 0.44688 1.06848
 C19 C 0.33564 -0.00293 0.49994
 C20 C 0.37265 0.01157 0.53526
 C21 C 0.44068 0.02495 0.53447
 C22 C 0.47194 0.01891 0.49932
 C23 C 0.43292 0.00104 0.46487
 C24 C 0.36544 -0.00820 0.46457
 C25 C 0.54441 0.02830 0.49820
 C26 C 0.57501 0.04364 0.46128
 C27 C 0.63914 0.03813 0.45762
 C28 C 0.67659 0.02811 0.49262
 C29 C 0.65005 0.02015 0.53059
 C30 C 0.58293 0.01752 0.53295
 H31 H 0.28359 -0.00811 0.50004
 H32 H 0.46851 0.03911 0.56144
 H33 H 0.45428 -0.00705 0.43782
 H34 H 0.54795 0.05605 0.43449
 H35 H 0.72778 0.02919 0.49059
 H36 H 0.56026 0.00544 0.56131
 C37 C 0.09276 -0.04883 0.27991
 H38 H 0.10701 -0.04378 0.24918
 C39 C 0.13797 -0.05705 0.31112
 H40 H 0.18670 -0.05909 0.30399
 C41 C 0.01188 -0.05232 0.32648
 H42 H -0.03648 -0.04874 0.33289
 C43 C 0.05492 -0.06131 0.35830
 H44 H 0.03861 -0.06530 0.38859
 N45 N 0.03081 -0.04720 0.28808
 C46 C -0.09627 -0.10369 0.18432
 H47 H -0.12432 -0.06673 0.18304
 C48 C -0.10753 -0.14831 0.15555
 H49 H -0.14441 -0.14535 0.13208
 C50 C -0.01212 -0.15032 0.21550
 H51 H 0.02550 -0.15042 0.23865
 C52 C -0.02188 -0.19616 0.18728
 H53 H 0.00958 -0.23011 0.18888
 Zn54 Zn -0.03100 -0.03512 0.24621
 N55 N -0.04785 -0.10411 0.21273
 C56 C 0.01057 0.04070 0.17575
 N57 N 0.00171 0.04296 0.21534
 C58 C 0.01630 0.09971 0.23270
 C59 C 0.03656 0.15749 0.20945
 C60 C 0.03155 0.09695 0.15162
 C61 C -0.14037 -0.08998 0.28830
 C62 C -0.18637 -0.09103 0.31655
 C63 C -0.17480 0.02355 0.30279
 C64 C -0.12862 0.02243 0.27484
 N65 N -0.10975 -0.03326 0.26995
 H66 H 0.00068 -0.00470 0.16251
 H67 H 0.01087 0.10026 0.26449
 H68 H 0.04578 0.20251 0.22336
 H69 H 0.03533 0.09371 0.11991
 H70 H -0.12440 -0.13355 0.28388
 H71 H -0.20630 -0.13586 0.33334
 H72 H -0.18488 0.06924 0.30872
 H73 H -0.10472 0.06686 0.25946
 C74 C -0.06930 -0.19450 0.15622
 C75 C 0.11886 -0.06331 0.35097
 C76 C -0.20176 -0.03342 0.32545
 C77 C 0.04426 0.15649 0.16834
 C78 C 0.00969 0.14759 0.77825
 H79 H -0.03104 0.14634 0.75713
 C80 C 0.02190 0.19330 0.80659
 H81 H -0.00905 0.22755 0.80588
 C82 C 0.09734 0.10242 0.80543
 H83 H 0.12528 0.06554 0.80547
 C84 C 0.11128 0.14707 0.83414
 H85 H 0.15066 0.14461 0.85597
 N86 N 0.04682 0.10288 0.77857
 C87 C 0.08347 -0.02036 0.68971
 H88 H 0.03849 -0.05584 0.69063
 C89 C 0.13069 -0.02468 0.66331
 H90 H 0.12040 -0.06325 0.64365
 C91 C 0.14826 0.07521 0.71265
 H92 H 0.15435 0.11478 0.73137
 C93 C 0.19686 0.07280 0.68661
 H94 H 0.24026 0.11045 0.68572
 Zn95 Zn 0.02470 0.03168 0.74731
 N96 N 0.09309 0.02871 0.71390
 C97 C -0.04730 0.08472 0.68576
 N98 N -0.05068 0.03522 0.71440
 C99 C -0.10509 -0.01198 0.71790
 C100 C -0.15915 -0.01024 0.69209
 C101 C -0.10009 0.08827 0.65930
 C102 C 0.04563 -0.08645 0.78738
 C103 C 0.03737 -0.13467 0.81879
 C104 C -0.04588 -0.08819 0.84347
 C105 C -0.03596 -0.04104 0.81179
 N106 N 0.00927 -0.04079 0.78463
 H107 H -0.00311 0.12106 0.68320
 H108 H -0.10626 -0.05195 0.74007
 H109 H -0.20094 -0.04940 0.69481
 H110 H -0.09617 0.12768 0.63635
 H111 H 0.08268 -0.08426 0.76615
 H112 H 0.06840 -0.16901 0.82089
 H113 H -0.08143 -0.08676 0.86516
 H114 H -0.06317 -0.00332 0.80936
 C115 C 0.18877 0.02215 0.66173
 C116 C 0.07243 0.19226 0.83577
 C117 C -0.00864 -0.13547 0.84764
 C118 C -0.15699 0.04050 0.66221
 C119 C -0.02548 -0.36693 0.07912
 C120 C -0.04857 -0.31378 0.08202
 C121 C -0.05096 -0.28667 0.12062
 C122 C -0.07550 -0.23409 0.12160
 H123 H -0.06457 -0.28783 0.05558
 H124 H -0.02921 -0.30723 0.14719
 H125 H -0.01697 -0.39529 0.10655
 H126 H -0.09910 -0.21682 0.09454
 C127 C 0.06494 0.32339 0.07595
 C128 C 0.09603 0.27469 0.07690
 C129 C 0.09228 0.22225 0.10908
 C130 C 0.05981 0.21747 0.14277
 H131 H 0.12129 0.26874 0.05082
 H132 H 0.11375 0.18281 0.10267
 H133 H 0.04241 0.33268 0.10226
 H134 H 0.04158 0.25760 0.15136
 C135 C 0.33956 0.01334 0.57273
 C136 C 0.28632 -0.03119 0.58212
 C137 C 0.24533 -0.03111 0.61620
 C138 C 0.23918 0.02204 0.63265
 H139 H 0.27108 -0.07120 0.56365
 H140 H 0.21470 -0.07684 0.62529
 H141 H 0.35978 0.05019 0.59272
 H142 H 0.27036 0.06763 0.62364
 C143 C -0.30711 0.01535 0.56404
 C144 C -0.32186 0.01084 0.60275
 C145 C -0.27160 0.00976 0.63536
 C146 C -0.21027 0.04297 0.63172
 H147 H -0.37111 0.00571 0.61159
 H148 H -0.28675 -0.01689 0.66329
 H149 H -0.25712 0.01638 0.55781
 H150 H -0.19813 0.07464 0.60500
 C151 C 0.02202 -0.32701 0.93536
 C152 C -0.00012 -0.27256 0.92850
 C153 C 0.00921 -0.23306 0.89019
 C154 C -0.01704 -0.18120 0.88377
 H155 H -0.02723 -0.25675 0.95052
 H156 H 0.03751 -0.24655 0.86785
 H157 H 0.04440 -0.34281 0.91087
 H158 H -0.04650 -0.17102 0.90681
 C159 C 0.02001 0.34115 0.92761
 C160 C 0.05726 0.30247 0.91727
 C161 C 0.04487 0.27051 0.87967
 C162 C 0.08470 0.23404 0.86960
 H163 H 0.09712 0.29339 0.93717
 H164 H 0.00152 0.27453 0.86181
 H165 H -0.01727 0.35336 0.90665
 H166 H 0.12709 0.23132 0.88898
 C167 C -0.33669 0.04097 0.41911
 C168 C -0.28823 0.01291 0.41150
 C169 C -0.26591 0.01299 0.37082
 C170 C -0.23649 -0.03344 0.36241
 H171 H -0.26678 -0.01475 0.43507
 H172 H -0.27248 0.05107 0.34852
 H173 H -0.36241 0.06086 0.39385
 H174 H -0.23505 -0.07287 0.38490
 C175 C 0.32792 -0.01902 0.42620
 C176 C 0.26552 -0.04862 0.42412
 C177 C 0.22732 -0.04929 0.38601
 C178 C 0.16316 -0.07103 0.38594
 H179 H 0.24118 -0.07012 0.45105
 H180 H 0.25081 -0.02700 0.35898
 H181 H 0.35227 -0.00044 0.39874
 H182 H 0.14110 -0.09006 0.41408
   
