data_POSCAR
  _audit_creation_date              2014-09-24
  _audit_creation_method            'ToBaCCo'
  _symmetry_space_group_name_H-M    'P1'
  _symmetry_Int_Tables_number       1
  _symmetry_cell_setting            triclinic
  loop_
  _symmetry_equiv_pos_as_xyz
 x,y,z
_cell_length_a 29.4052
_cell_length_b 20.6190
_cell_length_c 20.5796
_cell_angle_alpha 89.865900
_cell_angle_beta 90.114600
_cell_angle_gamma 89.891100
loop_
  _atom_site_label
  _atom_site_type_symbol
  _atom_site_fract_x
  _atom_site_fract_y
  _atom_site_fract_z
O1 O 0.06386 0.11020 0.12051
 O2 O 0.11392 0.05298 0.05748
 C3 C 0.10481 0.09383 0.10344
 O4 O -0.06308 -0.12073 0.11177
 O5 O -0.11316 -0.05780 0.05390
 C6 C -0.10405 -0.10360 0.09516
 O7 O 0.06436 -0.11459 0.11810
 O8 O 0.11407 -0.05581 0.05636
 C9 C 0.10543 -0.09802 0.10157
 O10 O -0.06334 0.11743 0.11345
 O11 O -0.11333 0.05545 0.05491
 C12 C -0.10430 0.10057 0.09678
 Zr13 Zr 0.00024 0.08042 0.08233
 O14 O -0.00440 0.08239 0.18494
 O15 O 0.00254 0.18271 0.07643
 Zr16 Zr 0.00053 -0.08326 0.08128
 O17 O -0.00463 -0.08363 0.18391
 O18 O 0.00589 -0.18567 0.08048
 O19 O 0.04102 -0.00157 0.09469
 O20 O -0.03922 -0.00153 0.09374
 O21 O -0.06341 0.12034 -0.11102
 O22 O -0.11335 0.05675 -0.05409
 C23 C -0.10433 0.10300 -0.09485
 O24 O 0.06394 -0.11189 -0.12015
 O25 O 0.11395 -0.05450 -0.05717
 C26 C 0.10487 -0.09548 -0.10303
 O27 O -0.06330 -0.11842 -0.11399
 O28 O -0.11332 -0.05677 -0.05524
 C29 C -0.10425 -0.10173 -0.09724
 O30 O 0.06377 0.11363 -0.11791
 O31 O 0.11388 0.05440 -0.05628
 C32 C 0.10475 0.09664 -0.10125
 Zr33 Zr 0.00020 0.08201 -0.08124
 O34 O -0.00517 0.08220 -0.18387
 O35 O 0.00444 0.18445 -0.08024
 Zr36 Zr 0.00032 -0.08156 -0.08268
 O37 O -0.00507 -0.08010 -0.18528
 O38 O 0.00574 -0.18397 -0.08320
 Zr39 Zr 0.06836 -0.00069 0.00003
 Zr40 Zr -0.06769 -0.00072 -0.00012
 O41 O -0.03943 0.00041 -0.09396
 O42 O 0.04092 0.00035 -0.09473
 O43 O -0.04050 0.09371 0.00066
 O44 O 0.04007 -0.09435 -0.00077
 O45 O 0.04003 0.09305 0.00078
 O46 O -0.04020 -0.09526 -0.00083
 H47 H -0.05965 -0.00180 0.13197
 H48 H 0.06066 -0.13245 -0.00106
 H49 H -0.06007 0.00093 -0.13208
 H50 H 0.06057 0.13110 0.00118
 H51 H -0.01941 -0.20250 0.05368
 H52 H -0.01970 -0.20134 -0.05709
 H53 H 0.02026 -0.05348 -0.20214
 H54 H 0.02085 0.05718 -0.20114
 H55 H -0.01638 0.20001 -0.04591
 H56 H 0.00258 0.19861 0.12184
 H57 H 0.01845 0.05150 0.20205
 H58 H 0.02139 -0.05870 0.20126
 O59 O 0.56386 0.61304 0.61671
 O60 O 0.61396 0.55476 0.55438
 C61 C 0.60487 0.59644 0.59971
 O62 O 0.43625 0.38270 0.61303
 O63 O 0.38616 0.44451 0.55404
 C64 C 0.39528 0.39945 0.59616
 O65 O 0.56336 0.38967 0.62008
 O66 O 0.61325 0.44673 0.55661
 C67 C 0.60426 0.40591 0.60281
 O68 O 0.43621 0.62106 0.60976
 O69 O 0.38614 0.55815 0.55228
 C70 C 0.39526 0.60402 0.59329
 Zr71 Zr 0.49975 0.58340 0.57944
 O72 O 0.49611 0.58697 0.68204
 O73 O 0.50211 0.68558 0.57198
 Zr74 Zr 0.49981 0.42008 0.58215
 O75 O 0.49744 0.42818 0.68445
 O76 O 0.50463 0.31772 0.58674
 O77 O 0.54041 0.50177 0.59345
 O78 O 0.45997 0.50189 0.59262
 O79 O 0.43594 0.61921 0.38504
 O80 O 0.38604 0.55686 0.44335
 C81 C 0.39500 0.60224 0.40158
 O82 O 0.56337 0.38621 0.38132
 O83 O 0.61324 0.44515 0.44300
 C84 C 0.60428 0.40302 0.39812
 O85 O 0.43615 0.38032 0.38769
 O86 O 0.38610 0.44328 0.44502
 C87 C 0.39521 0.39739 0.40410
 O88 O 0.56315 0.61221 0.37851
 O89 O 0.61314 0.55425 0.44150
 C90 C 0.60409 0.59550 0.39565
 Zr91 Zr 0.49956 0.58143 0.41576
 O92 O 0.49421 0.57927 0.31316
 O93 O 0.50377 0.68387 0.41445
 Zr94 Zr 0.49980 0.41776 0.41797
 O95 O 0.49445 0.41715 0.31536
 O96 O 0.50518 0.31534 0.41975
 Zr97 Zr 0.56762 0.50053 0.49889
 Zr98 Zr 0.43169 0.50055 0.49872
 O99 O 0.45999 0.49949 0.40488
 O100 O 0.54032 0.49944 0.40409
 O101 O 0.45896 0.59494 0.49746
 O102 O 0.53937 0.40690 0.50036
 O103 O 0.53940 0.59431 0.49757
 O104 O 0.45925 0.40607 0.50017
 H105 H 0.43946 0.50243 0.63077
 H106 H 0.55989 0.36873 0.50109
 H107 H 0.43934 0.49920 0.36678
 H108 H 0.55999 0.63230 0.49722
 H109 H 0.48173 0.30004 0.55636
 H110 H 0.47962 0.29856 0.44599
 H111 H 0.51996 0.44307 0.29797
 H112 H 0.52023 0.55385 0.29649
 H113 H 0.48332 0.70013 0.44891
 H114 H 0.50266 0.70209 0.61715
 H115 H 0.51502 0.55086 0.69880
 H116 H 0.49752 0.38321 0.70157
 C117 C 0.22509 0.13628 0.15387
 C118 C 0.21829 0.18427 0.20209
 C119 C 0.17280 0.20089 0.21780
 C120 C 0.13614 0.17097 0.18605
 C121 C 0.14357 0.12416 0.13795
 C122 C 0.18838 0.10700 0.12254
 C123 C 0.16394 0.24761 0.26489
 C124 C 0.19916 0.27905 0.29666
 C125 C 0.24513 0.26505 0.28256
 C126 C 0.25488 0.21651 0.23480
 C127 C 0.30084 0.20211 0.22111
 C128 C 0.33607 0.23427 0.25215
 C129 C 0.32720 0.28208 0.29812
 C130 C 0.28171 0.29817 0.31437
 C131 C 0.27492 0.34714 0.36159
 C132 C 0.31162 0.37874 0.39056
 C133 C 0.35644 0.36288 0.37383
 C134 C 0.36386 0.31413 0.32770
 H135 H 0.25824 0.12023 0.13872
 H136 H 0.10166 0.18473 0.19864
 H137 H 0.19532 0.07080 0.08578
 H138 H 0.12922 0.26032 0.27723
 H139 H 0.18896 0.31444 0.33211
 H140 H 0.31105 0.16610 0.18628
 H141 H 0.37079 0.22165 0.23971
 H142 H 0.24176 0.36266 0.37728
 H143 H 0.30468 0.41602 0.42622
 H144 H 0.39834 0.30117 0.31430
 C145 C 0.77551 0.84696 0.13712
 C146 C 0.78206 0.79833 0.18501
 C147 C 0.82748 0.78213 0.20193
 C148 C 0.86431 0.81377 0.17232
 C149 C 0.85710 0.86219 0.12551
 C150 C 0.81235 0.87813 0.10814
 C151 C 0.83610 0.73462 0.24858
 C152 C 0.80070 0.70285 0.27959
 C153 C 0.75480 0.71737 0.26520
 C154 C 0.74530 0.76566 0.21682
 C155 C 0.69941 0.77987 0.20212
 C156 C 0.66401 0.74878 0.23380
 C157 C 0.67262 0.70222 0.28140
 C158 C 0.71804 0.68547 0.29779
 C159 C 0.72458 0.63765 0.34649
 C160 C 0.68772 0.60860 0.37758
 C161 C 0.64297 0.62584 0.36148
 C162 C 0.63578 0.67256 0.31296
 H163 H 0.74243 0.86251 0.12086
 H164 H 0.89873 0.80077 0.18623
 H165 H 0.80555 0.91515 0.07195
 H166 H 0.87075 0.72191 0.26155
 H167 H 0.81072 0.66705 0.31496
 H168 H 0.68938 0.81516 0.16623
 H169 H 0.62935 0.76163 0.22096
 H170 H 0.75766 0.62151 0.36216
 H171 H 0.69450 0.57249 0.41469
 H172 H 0.60136 0.68635 0.29982
 C173 C 0.77524 0.15343 0.86271
 C174 C 0.78187 0.20224 0.81509
 C175 C 0.82730 0.21822 0.79859
 C176 C 0.86407 0.18623 0.82835
 C177 C 0.85681 0.13762 0.87485
 C178 C 0.81204 0.12187 0.89182
 C179 C 0.83601 0.26585 0.75219
 C180 C 0.80068 0.29788 0.72091
 C181 C 0.75476 0.28354 0.73481
 C182 C 0.74518 0.23526 0.78307
 C183 C 0.69926 0.22140 0.79745
 C184 C 0.66392 0.25274 0.76549
 C185 C 0.67263 0.29917 0.71788
 C186 C 0.71807 0.31562 0.70186
 C187 C 0.72470 0.36327 0.65307
 C188 C 0.68789 0.39246 0.62158
 C189 C 0.64313 0.37553 0.63736
 C190 C 0.63586 0.32900 0.68596
 H191 H 0.74213 0.13798 0.87858
 H192 H 0.89851 0.19908 0.81473
 H193 H 0.80522 0.08470 0.92777
 H194 H 0.87069 0.27840 0.73958
 H195 H 0.81076 0.33375 0.68577
 H196 H 0.68917 0.18624 0.83332
 H197 H 0.62925 0.24016 0.77808
 H198 H 0.75780 0.37912 0.63759
 H199 H 0.69471 0.42843 0.58441
 H200 H 0.60142 0.31542 0.69884
 C201 C 0.22517 0.86163 0.84710
 C202 C 0.21838 0.81462 0.79793
 C203 C 0.17289 0.79857 0.78163
 C204 C 0.13622 0.82820 0.81363
 C205 C 0.14365 0.87417 0.86254
 C206 C 0.18846 0.89066 0.87865
 C207 C 0.16401 0.75276 0.73366
 C208 C 0.19923 0.72169 0.70153
 C209 C 0.24520 0.73520 0.71611
 C210 C 0.25495 0.78281 0.76480
 C211 C 0.30092 0.79679 0.77893
 C212 C 0.33614 0.76505 0.74745
 C213 C 0.32727 0.71810 0.70060
 C214 C 0.28178 0.70249 0.68387
 C215 C 0.27498 0.65437 0.63578
 C216 C 0.31168 0.62307 0.60647
 C217 C 0.35650 0.63842 0.62370
 C218 C 0.36392 0.68639 0.67064
 H219 H 0.25833 0.87711 0.86283
 H220 H 0.10174 0.81497 0.80049
 H221 H 0.19541 0.92616 0.91609
 H222 H 0.12929 0.74048 0.72088
 H223 H 0.18902 0.68701 0.66537
 H224 H 0.31113 0.83215 0.81441
 H225 H 0.37086 0.77731 0.76024
 H226 H 0.24182 0.63927 0.61968
 H227 H 0.30474 0.58640 0.57018
 H228 H 0.39840 0.69892 0.68446
 C229 C 0.22511 0.14054 0.84974
 C230 C 0.21832 0.18862 0.80132
 C231 C 0.17281 0.20508 0.78521
 C232 C 0.13613 0.17489 0.81675
 C233 C 0.14355 0.12782 0.86491
 C234 C 0.18840 0.11092 0.88076
 C235 C 0.16394 0.25178 0.73782
 C236 C 0.19916 0.28313 0.70592
 C237 C 0.24515 0.26910 0.72021
 C238 C 0.25491 0.22094 0.76864
 C239 C 0.30089 0.20696 0.78298
 C240 C 0.33611 0.23890 0.75167
 C241 C 0.32724 0.28603 0.70469
 C242 C 0.28173 0.30182 0.68793
 C243 C 0.27494 0.34999 0.63960
 C244 C 0.31164 0.38108 0.61004
 C245 C 0.35649 0.36554 0.62724
 C246 C 0.36392 0.31762 0.67456
 H247 H 0.25829 0.12453 0.86510
 H248 H 0.10164 0.18844 0.80375
 H249 H 0.19538 0.07457 0.91757
 H250 H 0.12921 0.26447 0.72524
 H251 H 0.18894 0.31852 0.67024
 H252 H 0.31111 0.17150 0.81858
 H253 H 0.37084 0.22655 0.76459
 H254 H 0.24176 0.36510 0.62334
 H255 H 0.30466 0.41768 0.57349
 H256 H 0.39841 0.30488 0.68837
 C257 C 0.77534 0.84910 0.85887
 C258 C 0.78209 0.80084 0.81088
 C259 C 0.82758 0.78491 0.79448
 C260 C 0.86429 0.81644 0.82465
 C261 C 0.85692 0.86444 0.87163
 C262 C 0.81208 0.88013 0.88846
 C263 C 0.83640 0.73770 0.74784
 C264 C 0.80114 0.70585 0.71647
 C265 C 0.75517 0.71999 0.73043
 C266 C 0.74546 0.76818 0.77858
 C267 C 0.69949 0.78228 0.79257
 C268 C 0.66424 0.75102 0.76061
 C269 C 0.67305 0.70434 0.71344
 C270 C 0.71854 0.68779 0.69765
 C271 C 0.72528 0.63978 0.64942
 C272 C 0.68854 0.61033 0.61824
 C273 C 0.64370 0.62732 0.63377
 C274 C 0.63634 0.67431 0.68178
 H275 H 0.74218 0.86435 0.87481
 H276 H 0.89876 0.80358 0.81113
 H277 H 0.80515 0.91682 0.92474
 H278 H 0.87111 0.72524 0.73520
 H279 H 0.81132 0.67032 0.68114
 H280 H 0.68932 0.81765 0.82807
 H281 H 0.62952 0.76377 0.77296
 H282 H 0.75844 0.62372 0.63428
 H283 H 0.69547 0.57404 0.58156
 H284 H 0.60187 0.68797 0.69450
 C285 C 0.22302 0.86007 0.14747
 C286 C 0.21656 0.81270 0.19648
 C287 C 0.17119 0.79679 0.21318
 C288 C 0.13425 0.82687 0.18169
 C289 C 0.14107 0.87354 0.13255
 C290 C 0.18618 0.88964 0.11637
 C291 C 0.16268 0.75063 0.26119
 C292 C 0.19812 0.71930 0.29300
 C293 C 0.24401 0.73282 0.27808
 C294 C 0.25341 0.78053 0.22918
 C295 C 0.29930 0.79425 0.21444
 C296 C 0.33475 0.76241 0.24574
 C297 C 0.32622 0.71557 0.29303
 C298 C 0.28083 0.70006 0.31022
 C299 C 0.27437 0.65210 0.35875
 C300 C 0.31128 0.62096 0.38815
 C301 C 0.35603 0.63627 0.37061
 C302 C 0.36312 0.68398 0.32306
 H303 H 0.25611 0.87556 0.13157
 H304 H 0.10002 0.81325 0.19575
 H305 H 0.19355 0.92537 0.07914
 H306 H 0.12805 0.73833 0.27431
 H307 H 0.18816 0.68440 0.32920
 H308 H 0.30928 0.82948 0.17860
 H309 H 0.36938 0.77456 0.23250
 H310 H 0.24131 0.63710 0.37523
 H311 H 0.30454 0.58451 0.42487
 H312 H 0.39752 0.69650 0.30895
 C313 C 0.77523 0.14979 0.14022
 C314 C 0.78189 0.19798 0.18829
 C315 C 0.82735 0.21385 0.20493
 C316 C 0.86412 0.18233 0.17488
 C317 C 0.85683 0.13440 0.12780
 C318 C 0.81202 0.11876 0.11076
 C319 C 0.83609 0.26098 0.25168
 C320 C 0.80077 0.29284 0.28290
 C321 C 0.75482 0.27880 0.26867
 C322 C 0.74521 0.23066 0.22043
 C323 C 0.69926 0.21664 0.20618
 C324 C 0.66395 0.24797 0.23792
 C325 C 0.67268 0.29463 0.28515
 C326 C 0.71814 0.31107 0.30124
 C327 C 0.72479 0.35906 0.34952
 C328 C 0.68799 0.38866 0.38040
 C329 C 0.64318 0.37182 0.36452
 C330 C 0.63591 0.32480 0.31652
 H331 H 0.74210 0.13458 0.12410
 H332 H 0.89857 0.19513 0.18858
 H333 H 0.80514 0.08213 0.07440
 H334 H 0.87078 0.27338 0.26451
 H335 H 0.81088 0.32833 0.31832
 H336 H 0.68915 0.18131 0.17061
 H337 H 0.62926 0.23530 0.22536
 H338 H 0.75792 0.37501 0.36490
 H339 H 0.69485 0.42495 0.41709
 H340 H 0.60146 0.31128 0.30352
   
