data_POSCAR
  _audit_creation_date              2014-09-24
  _audit_creation_method            'ToBaCCo'
  _symmetry_space_group_name_H-M    'P1'
  _symmetry_Int_Tables_number       1
  _symmetry_cell_setting            triclinic
  loop_
  _symmetry_equiv_pos_as_xyz
 x,y,z
_cell_length_a 44.7581
_cell_length_b 44.7996
_cell_length_c 44.7701
_cell_angle_alpha 104.736900
_cell_angle_beta 74.182700
_cell_angle_gamma 74.299600
loop_
  _atom_site_label
  _atom_site_type_symbol
  _atom_site_fract_x
  _atom_site_fract_y
  _atom_site_fract_z
C1 C 0.49938 0.49869 0.00890
 C2 C 0.47611 0.52218 0.00450
 C3 C 0.44409 0.51898 0.00380
 C4 C 0.48132 0.55250 0.00042
 C5 C 0.52999 0.50325 0.01273
 C6 C 0.49573 0.46695 0.00994
 C7 C 0.43457 0.52155 -0.02296
 C8 C 0.40435 0.51914 -0.02385
 C9 C 0.38216 0.51433 0.00235
 C10 C 0.39232 0.51206 0.02940
 C11 C 0.42262 0.51449 0.03008
 C12 C 0.50953 0.55039 -0.02465
 C13 C 0.51407 0.57919 -0.02807
 C14 C 0.49037 0.61061 -0.00660
 C15 C 0.46190 0.61256 0.01811
 C16 C 0.45738 0.58379 0.02149
 C17 C 0.52807 0.53091 0.03763
 C18 C 0.55711 0.53421 0.04152
 C19 C 0.58854 0.50970 0.02084
 C20 C 0.59030 0.48205 -0.00400
 C21 C 0.56132 0.47883 -0.00793
 C22 C 0.49820 0.45714 0.03680
 C23 C 0.49641 0.42669 0.03750
 C24 C 0.49236 0.40529 0.01118
 C25 C 0.48971 0.41524 -0.01566
 C26 C 0.49155 0.44573 -0.01636
 H27 H 0.45060 0.52560 -0.04329
 H28 H 0.39818 0.52296 -0.04461
 H29 H 0.37799 0.50689 0.04976
 H30 H 0.42938 0.51275 0.05121
 H31 H 0.52802 0.52644 -0.04152
 H32 H 0.53632 0.57690 -0.04723
 H33 H 0.43529 0.58592 0.04077
 H34 H 0.50407 0.54969 0.05430
 H35 H 0.55495 0.55555 0.06116
 H36 H 0.61415 0.46300 -0.02062
 H37 H 0.56332 0.45728 -0.02723
 H38 H 0.50151 0.47314 0.05728
 H39 H 0.49808 0.41994 0.05871
 H40 H 0.48709 0.39907 -0.03652
 H41 H 0.49029 0.45254 -0.03765
 H42 H 0.44291 0.63637 0.03463
 C43 C 0.00147 0.50703 0.51713
 C44 C -0.00361 0.48383 0.49477
 C45 C -0.00385 0.45196 0.49880
 C46 C -0.00872 0.48891 0.46471
 C47 C 0.00573 0.53694 0.51089
 C48 C 0.00254 0.50412 0.54920
 C49 C 0.02310 0.43082 0.50283
 C50 C 0.02335 0.40009 0.50475
 C51 C -0.00325 0.38982 0.50244
 C52 C -0.03024 0.41113 0.49853
 C53 C -0.03045 0.44181 0.49661
 C54 C 0.01140 0.46480 0.43328
 C55 C 0.00676 0.46905 0.40482
 C56 C -0.01827 0.49744 0.40723
 C57 C -0.03861 0.52146 0.43879
 C58 C -0.03401 0.51713 0.46728
 C59 C -0.01488 0.56854 0.53435
 C60 C -0.01114 0.59687 0.52890
 C61 C 0.01348 0.59417 0.49997
 C62 C 0.03443 0.56245 0.47669
 C63 C 0.03065 0.53408 0.48216
 C64 C -0.02374 0.49993 0.57122
 C65 C -0.02318 0.49894 0.60204
 C66 C 0.00352 0.50247 0.61155
 C67 C 0.02983 0.50651 0.58936
 C68 C 0.02927 0.50745 0.55857
 H69 H 0.04417 0.43791 0.50398
 H70 H 0.04437 0.38433 0.50799
 H71 H -0.05083 0.40374 0.49613
 H72 H -0.05133 0.45761 0.49318
 H73 H 0.03098 0.44282 0.43077
 H74 H 0.02308 0.45032 0.38085
 H75 H -0.05028 0.53568 0.49137
 H76 H -0.03404 0.57125 0.55682
 H77 H -0.02727 0.62093 0.54757
 H78 H 0.05350 0.55958 0.45409
 H79 H 0.04718 0.50988 0.46400
 H80 H -0.04497 0.49806 0.56480
 H81 H -0.04406 0.49632 0.61879
 H82 H 0.05095 0.50886 0.59576
 H83 H 0.04974 0.51080 0.54199
 H84 H -0.05842 0.54332 0.44147
 C85 C 0.52450 -0.00532 0.47737
 C86 C 0.50134 -0.00997 0.50083
 C87 C 0.50508 -0.01116 0.53252
 C88 C 0.47079 -0.01397 0.49628
 C89 C 0.51924 -0.00119 0.44708
 C90 C 0.55645 -0.00443 0.48059
 C91 C 0.50292 -0.03812 0.54210
 C92 C 0.50486 -0.03906 0.57245
 C93 C 0.50878 -0.01278 0.59443
 C94 C 0.51118 0.01420 0.58425
 C95 C 0.50915 0.01504 0.55384
 C96 C 0.47279 -0.03879 0.46851
 C97 C 0.44379 -0.04282 0.46521
 C98 C 0.41235 -0.02235 0.48982
 C99 C 0.41051 0.00240 0.51759
 C100 C 0.43944 0.00646 0.52082
 C101 C 0.49092 0.02374 0.44930
 C102 C 0.48634 0.02720 0.42052
 C103 C 0.51010 0.00593 0.38902
 C104 C 0.53867 -0.01863 0.38697
 C105 C 0.54323 -0.02205 0.41572
 C106 C 0.56573 0.02255 0.47824
 C107 C 0.59587 0.02363 0.48074
 C108 C 0.61794 -0.00254 0.48538
 C109 C 0.60830 -0.02978 0.48739
 C110 C 0.57808 -0.03071 0.48490
 H111 H 0.49993 -0.05869 0.52587
 H112 H 0.50435 -0.06114 0.57784
 H113 H 0.51291 0.03572 0.60025
 H114 H 0.51004 0.03651 0.54725
 H115 H 0.49681 -0.05529 0.44964
 H116 H 0.44601 -0.06239 0.44377
 H117 H 0.43739 0.02570 0.54246
 H118 H 0.47239 0.04046 0.47331
 H119 H 0.46402 0.04624 0.42289
 H120 H 0.55770 -0.03499 0.36310
 H121 H 0.56540 -0.04122 0.41350
 H122 H 0.54957 0.04289 0.47440
 H123 H 0.60216 0.04456 0.47754
 H124 H 0.62330 -0.05013 0.49206
 H125 H 0.57154 -0.05201 0.48639
 H126 H 0.38664 0.01884 0.53673
 O127 O 0.47480 0.00643 -0.03799
 O128 O 0.47117 0.01835 0.04762
 O129 O 0.47105 0.05509 0.01077
 O130 O 0.47456 -0.03030 -0.00117
 O131 O 0.52950 -0.04817 -0.01892
 O132 O 0.52600 0.03731 -0.00716
 O133 O 0.52610 0.00063 0.02971
 O134 O 0.52975 -0.01147 -0.05579
 Cu135 Cu 0.46739 0.01415 0.00661
 Cu136 Cu 0.53334 -0.00723 -0.01480
 C137 C 0.50290 -0.00429 -0.06151
 C138 C 0.49806 0.01138 0.05330
 C139 C 0.49793 0.06080 0.00355
 C140 C 0.50258 -0.05385 -0.01191
 O141 O -0.06793 0.54298 1.03118
 O142 O 0.01773 0.54005 1.01865
 O143 O -0.01881 0.53994 0.98197
 O144 O -0.03127 0.54251 1.06761
 O145 O -0.01307 0.48787 1.04973
 O146 O -0.00042 0.48530 0.96429
 O147 O 0.03606 0.48542 1.00097
 O148 O -0.04964 0.48834 1.01333
 Cu149 Cu -0.02688 0.54685 1.02661
 Cu150 Cu -0.00491 0.48127 1.00528
 C151 C -0.07344 0.51616 1.02421
 C152 C 0.04152 0.51227 1.00798
 C153 C -0.00774 0.51216 0.95850
 C154 C -0.02413 0.51556 1.07328
 O155 O 0.03128 -0.06680 0.45694
 O156 O 0.01943 0.01906 0.46095
 O157 O 0.06836 -0.03076 0.45702
 O158 O -0.01748 -0.01726 0.46023
 O159 O -0.03564 -0.00047 0.51489
 O160 O 0.05025 -0.01376 0.51169
 O161 O 0.00120 0.03587 0.51562
 O162 O 0.01327 -0.04978 0.51161
 Cu163 Cu 0.02719 -0.02560 0.45331
 Cu164 Cu 0.00544 -0.00532 0.51892
 C165 C 0.02410 -0.07294 0.48366
 C166 C 0.00853 0.04213 0.48900
 C167 C 0.07399 -0.02438 0.48381
 C168 C -0.04121 -0.00689 0.48806
 C169 C -0.32538 0.48702 1.02575
 C170 C -0.32100 0.51745 1.03155
 C171 C -0.34648 0.54560 1.03457
 C172 C -0.37612 0.54326 1.03149
 C173 C -0.38054 0.51264 1.02522
 C174 C -0.35492 0.48460 1.02262
 C175 C -0.28995 0.51937 1.03345
 C176 C -0.26353 0.52025 1.03439
 C177 C -0.23218 0.52053 1.03475
 C178 C -0.20509 0.52024 1.03443
 C179 C -0.17240 0.51936 1.03327
 C180 C -0.16635 0.54885 1.04182
 C181 C -0.13425 0.54787 1.03937
 C182 C -0.10774 0.51731 1.02825
 C183 C -0.11419 0.48782 1.02013
 C184 C -0.14631 0.48888 1.02262
 H185 H -0.30585 0.46508 1.02343
 H186 H -0.34328 0.56926 1.03894
 H187 H -0.39526 0.56519 1.03328
 H188 H -0.35779 0.46081 1.01831
 H189 H -0.18636 0.57259 1.05004
 H190 H -0.13013 0.57102 1.04579
 H191 H -0.09436 0.46391 1.01150
 H192 H -0.15071 0.46589 1.01588
 C193 C 0.29511 0.51638 1.03026
 C194 C 0.28984 0.50940 1.00036
 C195 C 0.31541 0.50354 0.97106
 C196 C 0.34610 0.50490 0.97157
 C197 C 0.35222 0.51230 1.00167
 C198 C 0.32574 0.51777 1.03102
 C199 C 0.25801 0.50874 0.99982
 C200 C 0.23123 0.50848 0.99949
 C201 C 0.19972 0.50851 0.99938
 C202 C 0.17263 0.50883 0.99961
 C203 C 0.14007 0.50955 1.00040
 C204 C 0.13418 0.47997 0.99172
 C205 C 0.10224 0.48078 0.99364
 C206 C 0.07572 0.51125 1.00434
 C207 C 0.08202 0.54082 1.01259
 C208 C 0.11398 0.53994 1.01063
 H209 H 0.27529 0.52129 1.05322
 H210 H 0.31172 0.49769 0.94763
 H211 H 0.36517 0.49852 0.94774
 H212 H 0.32730 0.52504 1.05529
 H213 H 0.15420 0.45631 0.98379
 H214 H 0.09823 0.45758 0.98715
 H215 H 0.06219 0.56468 1.02093
 H216 H 0.11825 0.56299 1.01744
 C217 C 0.05267 -0.34536 0.47744
 C218 C 0.02435 -0.31736 0.48590
 C219 C -0.00743 -0.31854 0.49819
 C220 C -0.01095 -0.34742 0.50238
 C221 C 0.01733 -0.37558 0.49436
 C222 C 0.04921 -0.37433 0.48158
 C223 C 0.02767 -0.28706 0.48294
 C224 C 0.02974 -0.26123 0.48122
 C225 C 0.03130 -0.23048 0.48006
 C226 C 0.03186 -0.20379 0.47982
 C227 C 0.03156 -0.17143 0.48043
 C228 C 0.02175 -0.14603 0.51085
 C229 C 0.01986 -0.11413 0.51185
 C230 C 0.02774 -0.10715 0.48236
 C231 C 0.03808 -0.13297 0.45183
 C232 C 0.03993 -0.16490 0.45091
 H233 H 0.07739 -0.34467 0.46804
 H234 H -0.02953 -0.29703 0.50477
 H235 H -0.03580 -0.34777 0.51181
 H236 H 0.07143 -0.39547 0.47552
 H237 H 0.01516 -0.15079 0.53386
 H238 H 0.01183 -0.09485 0.53575
 H239 H 0.04429 -0.12841 0.42870
 H240 H 0.04748 -0.18436 0.42722
 C241 C -0.03124 0.32100 0.51948
 C242 C -0.00168 0.29327 0.50191
 C243 C 0.02755 0.29719 0.48523
 C244 C 0.02718 0.32864 0.48580
 C245 C -0.00251 0.35663 0.50305
 C246 C -0.03168 0.35248 0.52006
 C247 C -0.00145 0.26075 0.50054
 C248 C -0.00119 0.23344 0.49917
 C249 C -0.00074 0.20140 0.49741
 C250 C -0.00016 0.17397 0.49588
 C251 C 0.00087 0.14115 0.49412
 C252 C -0.00858 0.13420 0.52328
 C253 C -0.00658 0.10210 0.52164
 C254 C 0.00495 0.07646 0.49073
 C255 C 0.01400 0.08379 0.46155
 C256 C 0.01198 0.11593 0.46327
 H257 H -0.05400 0.31827 0.53256
 H258 H 0.05056 0.27588 0.47147
 H259 H 0.04993 0.33094 0.47209
 H260 H -0.05481 0.37359 0.53390
 H261 H -0.01720 0.15352 0.54730
 H262 H -0.01372 0.09730 0.54457
 H263 H 0.02300 0.06463 0.43738
 H264 H 0.01938 0.12103 0.44053
 C265 C 0.52596 0.00467 -0.32657
 C266 C 0.51075 -0.01375 -0.31129
 C267 C 0.49515 -0.03203 -0.32718
 C268 C 0.49463 -0.03188 -0.35819
 C269 C 0.50974 -0.01330 -0.37417
 C270 C 0.52549 0.00497 -0.35760
 C271 C 0.51067 -0.01361 -0.27910
 C272 C 0.51024 -0.01348 -0.25203
 C273 C 0.50938 -0.01318 -0.22022
 C274 C 0.50843 -0.01271 -0.19294
 C275 C 0.50710 -0.01177 -0.16023
 C276 C 0.47627 -0.00112 -0.13447
 C277 C 0.47487 0.00083 -0.10242
 C278 C 0.50437 -0.00784 -0.09573
 C279 C 0.53527 -0.01892 -0.12191
 C280 C 0.53659 -0.02085 -0.15393
 H281 H 0.53834 0.01876 -0.31454
 H282 H 0.48298 -0.04614 -0.31539
 H283 H 0.48094 -0.04531 -0.36863
 H284 H 0.53863 0.01869 -0.36883
 H285 H 0.45329 0.00597 -0.13908
 H286 H 0.45070 0.00948 -0.08284
 H287 H 0.55842 -0.02575 -0.11760
 H288 H 0.56059 -0.02911 -0.17370
 C289 C 0.51004 -0.01607 0.30145
 C290 C 0.49838 0.01531 0.29930
 C291 C 0.48982 0.04374 0.32672
 C292 C 0.49322 0.04077 0.35610
 C293 C 0.50534 0.00929 0.35833
 C294 C 0.51349 -0.01909 0.33074
 C295 C 0.49605 0.01809 0.26862
 C296 C 0.49479 0.01967 0.24249
 C297 C 0.49407 0.02064 0.21143
 C298 C 0.49408 0.02073 0.18452
 C299 C 0.49481 0.01991 0.15198
 C300 C 0.46514 0.02817 0.14586
 C301 C 0.46610 0.02591 0.11384
 C302 C 0.49681 0.01526 0.08752
 C303 C 0.52645 0.00744 0.09405
 C304 C 0.52541 0.00974 0.12606
 H305 H 0.51667 -0.03823 0.28040
 H306 H 0.48088 0.06815 0.32527
 H307 H 0.48708 0.06305 0.37679
 H308 H 0.52242 -0.04363 0.33186
 H309 H 0.44132 0.03599 0.16574
 H310 H 0.44285 0.03208 0.10964
 H311 H 0.55048 -0.00083 0.07437
 H312 H 0.54853 0.00322 0.13051
 C313 C 0.51041 -0.32694 -0.04434
 C314 C 0.50200 -0.29963 -0.01586
 C315 C 0.49051 -0.30190 0.01553
 C316 C 0.48707 -0.33120 0.01851
 C317 C 0.49508 -0.35868 -0.00992
 C318 C 0.50704 -0.35632 -0.04142
 C319 C 0.50432 -0.26895 -0.01860
 C320 C 0.50559 -0.24283 -0.02015
 C321 C 0.50633 -0.21179 -0.02110
 C322 C 0.50636 -0.18491 -0.02117
 C323 C 0.50567 -0.15240 -0.02036
 C324 C 0.47509 -0.12652 -0.01017
 C325 C 0.47411 -0.09455 -0.00789
 C326 C 0.50378 -0.08802 -0.01575
 C327 C 0.53446 -0.11430 -0.02642
 C328 C 0.53536 -0.14628 -0.02866
 H329 H 0.51923 -0.32540 -0.06876
 H330 H 0.48399 -0.28094 0.03774
 H331 H 0.47828 -0.33242 0.04306
 H332 H 0.51306 -0.37693 -0.06374
 H333 H 0.45196 -0.13097 -0.00361
 H334 H 0.45009 -0.07490 0.00039
 H335 H 0.55773 -0.11010 -0.03263
 H336 H 0.55917 -0.16613 -0.03651
 C337 C 0.46892 0.32891 0.00089
 C338 C 0.49087 0.30994 0.01194
 C339 C 0.51323 0.32210 0.02273
 C340 C 0.51367 0.35311 0.02251
 C341 C 0.49170 0.37241 0.01147
 C342 C 0.46932 0.35996 0.00062
 C343 C 0.49076 0.27787 0.01199
 C344 C 0.49107 0.25089 0.01200
 C345 C 0.49180 0.21918 0.01187
 C346 C 0.49267 0.19197 0.01153
 C347 C 0.49392 0.15933 0.01072
 C348 C 0.52472 0.13362 0.00012
 C349 C 0.52605 0.10163 -0.00172
 C350 C 0.49652 0.09496 0.00700
 C351 C 0.46566 0.12109 0.01804
 C352 C 0.46440 0.15305 0.01985
 H353 H 0.45148 0.31973 -0.00750
 H354 H 0.53043 0.30755 0.03119
 H355 H 0.53153 0.36177 0.03052
 H356 H 0.45189 0.37439 -0.00769
 H357 H 0.54773 0.13822 -0.00702
 H358 H 0.55020 0.08208 -0.01034
 H359 H 0.44248 0.11679 0.02491
 H360 H 0.44043 0.17278 0.02808
 C361 C -0.29327 -0.03007 0.48059
 C362 C -0.28924 0.00028 0.49062
 C363 C -0.31593 0.02972 0.49941
 C364 C -0.34650 0.02888 0.49794
 C365 C -0.35114 -0.00159 0.48756
 C366 C -0.32379 -0.03109 0.47911
 C367 C -0.25755 0.00117 0.49142
 C368 C -0.23087 0.00173 0.49178
 C369 C -0.19944 0.00205 0.49184
 C370 C -0.17241 0.00194 0.49158
 C371 C -0.13987 0.00120 0.49088
 C372 C -0.13388 0.00930 0.52046
 C373 C -0.10191 0.00727 0.51964
 C374 C -0.07547 -0.00297 0.48914
 C375 C -0.08188 -0.01058 0.45958
 C376 C -0.11386 -0.00852 0.46048
 H377 H -0.27262 -0.05308 0.47346
 H378 H -0.31317 0.05342 0.50752
 H379 H -0.36664 0.05243 0.50615
 H380 H -0.32504 -0.05529 0.46981
 H381 H -0.15383 0.01682 0.54414
 H382 H -0.09781 0.01327 0.54283
 H383 H -0.06210 -0.01856 0.43570
 H384 H -0.11821 -0.01488 0.43743
 C385 C 0.32639 -0.02769 0.51247
 C386 C 0.32198 -0.03327 0.48205
 C387 C 0.34740 -0.03606 0.45390
 C388 C 0.37703 -0.03293 0.45625
 C389 C 0.38148 -0.02685 0.48686
 C390 C 0.35592 -0.02451 0.51488
 C391 C 0.29091 -0.03512 0.48015
 C392 C 0.26446 -0.03599 0.47931
 C393 C 0.23307 -0.03623 0.47908
 C394 C 0.20593 -0.03576 0.47941
 C395 C 0.17318 -0.03440 0.48035
 C396 C 0.16699 -0.04235 0.45088
 C397 C 0.13481 -0.03960 0.45194
 C398 C 0.10837 -0.02879 0.48256
 C399 C 0.11497 -0.02129 0.51202
 C400 C 0.14716 -0.02407 0.51088
 H401 H 0.30690 -0.02553 0.53440
 H402 H 0.34417 -0.04025 0.43025
 H403 H 0.39612 -0.03452 0.43433
 H404 H 0.35882 -0.02035 0.53866
 H405 H 0.18695 -0.05030 0.42711
 H406 H 0.13058 -0.04555 0.42881
 H407 H 0.09519 -0.01290 0.53598
 H408 H 0.15167 -0.01779 0.53385
 C409 C -0.02427 0.47860 1.32198
 C410 C -0.03009 0.50956 1.31839
 C411 C -0.03277 0.53679 1.34411
 C412 C -0.02933 0.53300 1.37322
 C413 C -0.02305 0.50185 1.37687
 C414 C -0.02078 0.47475 1.35100
 C415 C -0.03235 0.51297 1.28788
 C416 C -0.03358 0.51509 1.26190
 C417 C -0.03423 0.51670 1.23099
 C418 C -0.03410 0.51734 1.20420
 C419 C -0.03305 0.51721 1.17174
 C420 C -0.04134 0.54698 1.16570
 C421 C -0.03895 0.54656 1.13376
 C422 C -0.02815 0.51630 1.10745
 C423 C -0.02030 0.48656 1.11392
 C424 C -0.02272 0.48706 1.14583
 H425 H -0.02219 0.45737 1.30224
 H426 H -0.03713 0.56083 1.34153
 H427 H -0.03084 0.55423 1.39254
 H428 H -0.01644 0.45059 1.35326
 H429 H -0.04930 0.57047 1.18558
 H430 H -0.04516 0.56987 1.12961
 H431 H -0.01191 0.46285 1.09425
 H432 H -0.01619 0.46386 1.15022
 C433 C 0.01421 0.52563 0.69461
 C434 C 0.00343 0.50367 0.70796
 C435 C -0.00724 0.48118 0.68978
 C436 C -0.00718 0.48069 0.65840
 C437 C 0.00361 0.50270 0.64477
 C438 C 0.01431 0.52517 0.66325
 C439 C 0.00312 0.50444 0.74039
 C440 C 0.00279 0.50531 0.76762
 C441 C 0.00225 0.50649 0.79959
 C442 C 0.00157 0.50753 0.82695
 C443 C 0.00042 0.50872 0.85971
 C444 C 0.00987 0.47930 0.86615
 C445 C 0.00772 0.48040 0.89818
 C446 C -0.00397 0.51101 0.92426
 C447 C -0.01300 0.54046 0.91744
 C448 C -0.01083 0.53929 0.88537
 H449 H 0.02239 0.54323 0.70851
 H450 H -0.01559 0.46403 0.69986
 H451 H -0.01522 0.46287 0.64464
 H452 H 0.02228 0.54277 0.65368
 H453 H 0.01860 0.45551 0.84648
 H454 H 0.01486 0.45728 0.90257
 H455 H -0.02213 0.56441 0.93695
 H456 H -0.01824 0.56222 0.88066
   
