data_POSCAR
  _audit_creation_date              2014-09-24
  _audit_creation_method            'ToBaCCo'
  _symmetry_space_group_name_H-M    'P1'
  _symmetry_Int_Tables_number       1
  _symmetry_cell_setting            triclinic
  loop_
  _symmetry_equiv_pos_as_xyz
 x,y,z
_cell_length_a 44.1776
_cell_length_b 24.7737
_cell_length_c 15.2013
_cell_angle_alpha 90.043400
_cell_angle_beta 89.933600
_cell_angle_gamma 90.003700
loop_
  _atom_site_label
  _atom_site_type_symbol
  _atom_site_fract_x
  _atom_site_fract_y
  _atom_site_fract_z
C1 C 0.75108 0.25054 0.45645
 C2 C 0.75373 0.25569 0.54541
 C3 C 0.73021 0.28267 0.60003
 C4 C 0.78010 0.23312 0.59339
 C5 C 0.77497 0.22432 0.40260
 C6 C 0.72456 0.27158 0.40763
 C7 C 0.73849 0.32494 0.65638
 C8 C 0.71692 0.35015 0.70974
 C9 C 0.68637 0.33368 0.70870
 C10 C 0.67833 0.29035 0.65234
 C11 C 0.70005 0.26518 0.59927
 C12 C 0.80979 0.24929 0.57360
 C13 C 0.83435 0.22574 0.61705
 C14 C 0.82955 0.18587 0.68164
 C15 C 0.79975 0.17151 0.70353
 C16 C 0.77527 0.19479 0.65973
 C17 C 0.78245 0.16971 0.41410
 C18 C 0.80587 0.14641 0.36493
 C19 C 0.82209 0.17743 0.30312
 C20 C 0.81433 0.23189 0.29159
 C21 C 0.79079 0.25496 0.34014
 C22 C 0.70657 0.23580 0.35885
 C23 C 0.68168 0.25476 0.31149
 C24 C 0.67474 0.31000 0.31029
 C25 C 0.69276 0.34590 0.35956
 C26 C 0.71752 0.32679 0.40767
 H27 H 0.76175 0.33871 0.65868
 H28 H 0.72431 0.38292 0.75188
 H29 H 0.65561 0.27470 0.64815
 H30 H 0.69333 0.23162 0.55798
 H31 H 0.81392 0.27997 0.52432
 H32 H 0.85689 0.23951 0.60073
 H33 H 0.75251 0.18220 0.67653
 H34 H 0.77040 0.14544 0.46193
 H35 H 0.81170 0.10467 0.37712
 H36 H 0.82655 0.25668 0.24484
 H37 H 0.78533 0.29717 0.33047
 H38 H 0.71171 0.19305 0.35809
 H39 H 0.66804 0.22631 0.27465
 H40 H 0.68758 0.38856 0.36201
 H41 H 0.73125 0.35501 0.44466
 H42 H 0.79541 0.14148 0.75376
 C43 C 0.25555 0.76588 0.46139
 C44 C 0.25795 0.77063 0.55032
 C45 C 0.23559 0.80115 0.60323
 C46 C 0.28283 0.74426 0.59970
 C47 C 0.28074 0.74256 0.40904
 C48 C 0.22778 0.78281 0.41334
 C49 C 0.22915 0.85542 0.58444
 C50 C 0.20828 0.88388 0.63574
 C51 C 0.19337 0.85831 0.70578
 C52 C 0.20051 0.80439 0.72588
 C53 C 0.22150 0.77617 0.67512
 C54 C 0.30181 0.77513 0.65382
 C55 C 0.32473 0.75031 0.70235
 C56 C 0.32859 0.69412 0.69921
 C57 C 0.30955 0.66321 0.64471
 C58 C 0.28681 0.68812 0.59559
 C59 C 0.27587 0.69669 0.35703
 C60 C 0.30003 0.67212 0.31306
 C61 C 0.32950 0.69376 0.31911
 C62 C 0.33405 0.74041 0.36990
 C63 C 0.30991 0.76476 0.41404
 C64 C 0.19904 0.76480 0.44001
 C65 C 0.17302 0.78118 0.39495
 C66 C 0.17526 0.81575 0.32171
 C67 C 0.20415 0.83228 0.29375
 C68 C 0.23012 0.81601 0.33900
 H69 H 0.24035 0.87567 0.53030
 H70 H 0.20335 0.92557 0.61979
 H71 H 0.19008 0.78410 0.78119
 H72 H 0.22655 0.73457 0.69137
 H73 H 0.29896 0.81849 0.65795
 H74 H 0.33929 0.77498 0.74325
 H75 H 0.27216 0.66363 0.55474
 H76 H 0.25353 0.67882 0.35301
 H77 H 0.29549 0.63542 0.27698
 H78 H 0.35643 0.75789 0.37598
 H79 H 0.31404 0.80048 0.45338
 H80 H 0.19676 0.73771 0.49550
 H81 H 0.15141 0.76579 0.41699
 H82 H 0.20663 0.85842 0.23709
 H83 H 0.25206 0.82991 0.31660
 H84 H 0.31243 0.61998 0.63887
 C85 C 0.24882 0.23348 -0.46250
 C86 C 0.24836 0.24099 -0.55128
 C87 C 0.27470 0.26459 -0.59826
 C88 C 0.22171 0.22617 -0.60538
 C89 C 0.22294 0.20898 -0.41512
 C90 C 0.27527 0.25037 -0.40953
 C91 C 0.27145 0.31346 -0.64339
 C92 C 0.29657 0.33837 -0.68175
 C93 C 0.32559 0.31500 -0.67614
 C94 C 0.32839 0.26453 -0.63342
 C95 C 0.30317 0.23969 -0.59534
 C96 C 0.19286 0.24683 -0.58659
 C97 C 0.16770 0.23015 -0.63515
 C98 C 0.17102 0.19296 -0.70510
 C99 C 0.20036 0.17476 -0.72609
 C100 C 0.22535 0.19104 -0.67673
 C101 C 0.21520 0.15475 -0.42830
 C102 C 0.18949 0.13306 -0.38778
 C103 C 0.17050 0.16551 -0.33523
 C104 C 0.17897 0.21979 -0.32063
 C105 C 0.20510 0.24094 -0.35950
 C106 C 0.29366 0.21136 -0.36955
 C107 C 0.32103 0.22637 -0.33031
 C108 C 0.33009 0.28068 -0.32900
 C109 C 0.31111 0.31984 -0.36728
 C110 C 0.28387 0.30480 -0.40661
 H111 H 0.24958 0.33310 -0.64676
 H112 H 0.29328 0.37670 -0.71471
 H113 H 0.34967 0.24342 -0.62855
 H114 H 0.30593 0.20130 -0.56228
 H115 H 0.18978 0.27565 -0.53376
 H116 H 0.14607 0.24694 -0.61679
 H117 H 0.24752 0.17521 -0.69306
 H118 H 0.22889 0.12946 -0.47074
 H119 H 0.18399 0.09105 -0.39975
 H120 H 0.16606 0.24613 -0.27814
 H121 H 0.21097 0.28284 -0.34822
 H122 H 0.28744 0.16910 -0.37204
 H123 H 0.33530 0.19550 -0.30167
 H124 H 0.31768 0.36188 -0.36993
 H125 H 0.26999 0.33531 -0.43782
 H126 H 0.20401 0.14664 -0.77973
 C127 C -0.25647 0.75818 -0.45315
 C128 C -0.25415 0.75547 -0.54235
 C129 C -0.22771 0.77818 -0.58984
 C130 C -0.27872 0.73151 -0.59631
 C131 C -0.28132 0.73040 -0.40576
 C132 C -0.23502 0.79024 -0.39932
 C133 C -0.23216 0.81576 -0.65732
 C134 C -0.20749 0.83846 -0.70130
 C135 C -0.17753 0.82356 -0.67911
 C136 C -0.17342 0.78488 -0.61226
 C137 C -0.19817 0.76243 -0.56829
 C138 C -0.30810 0.75250 -0.59168
 C139 C -0.33161 0.72895 -0.63939
 C140 C -0.32627 0.68346 -0.69370
 C141 C -0.29639 0.66377 -0.69980
 C142 C -0.27288 0.68767 -0.65200
 C143 C -0.28492 0.67435 -0.41236
 C144 C -0.30935 0.64882 -0.37143
 C145 C -0.33099 0.67885 -0.32409
 C146 C -0.32655 0.73514 -0.31535
 C147 C -0.30187 0.76039 -0.35548
 C148 C -0.21855 0.76519 -0.33201
 C149 C -0.19795 0.79486 -0.28182
 C150 C -0.19376 0.85035 -0.29754
 C151 C -0.21115 0.87575 -0.36264
 C152 C -0.23149 0.84588 -0.41361
 H153 H -0.25485 0.82821 -0.67513
 H154 H -0.21257 0.86733 -0.75222
 H155 H -0.15090 0.77197 -0.59343
 H156 H -0.19428 0.73273 -0.51729
 H157 H -0.31287 0.78711 -0.55031
 H158 H -0.35364 0.74706 -0.63182
 H159 H -0.25022 0.67123 -0.65694
 H160 H -0.26896 0.65048 -0.45004
 H161 H -0.31169 0.60550 -0.37872
 H162 H -0.34155 0.76024 -0.27695
 H163 H -0.29917 0.80367 -0.34893
 H164 H -0.22135 0.72247 -0.31924
 H165 H -0.18552 0.77445 -0.23033
 H166 H -0.20853 0.91853 -0.37523
 H167 H -0.24449 0.86607 -0.46419
 H168 H -0.29117 0.62928 -0.74100
 O169 O -0.04311 0.90676 0.17308
 O170 O -0.07607 0.95091 0.08144
 C171 C -0.07021 0.91933 0.14721
 O172 O 0.04161 1.09870 0.14428
 O173 O 0.07513 1.04360 0.07166
 C174 C 0.06888 1.08337 0.12392
 O175 O -0.04332 1.09296 0.15336
 O176 O -0.07626 1.04050 0.07403
 C177 C -0.07040 1.07707 0.13269
 O178 O 0.04219 0.90257 0.16766
 O179 O 0.07533 0.95064 0.08169
 C180 C 0.06939 0.91608 0.14313
 Zr181 Zr -0.00051 0.93030 0.12097
 O182 O 0.00244 0.93612 0.25966
 O183 O -0.00375 0.84515 0.12906
 Zr184 Zr -0.00080 1.06648 0.10493
 O185 O 0.00236 1.07411 0.24329
 O186 O -0.00462 1.15133 0.09217
 O187 O -0.02769 0.99890 0.12934
 O188 O 0.02553 0.99931 0.12966
 O189 O 0.04239 0.88722 -0.13565
 O190 O 0.07543 0.94407 -0.06522
 C191 C 0.06943 0.90336 -0.11595
 O192 O -0.04253 1.08040 -0.16908
 O193 O -0.07613 1.03500 -0.08049
 C194 C -0.06982 1.06744 -0.14487
 O195 O 0.04267 1.08650 -0.15942
 O196 O 0.07560 1.03738 -0.07451
 C197 C 0.06980 1.07284 -0.13468
 O198 O -0.04168 0.89125 -0.14716
 O199 O -0.07560 0.94435 -0.07234
 C200 C -0.06897 0.90627 -0.12783
 Zr201 Zr 0.00016 0.92091 -0.10076
 O202 O 0.00413 0.91762 -0.23954
 O203 O -0.00300 0.83577 -0.09462
 Zr204 Zr -0.00007 1.05686 -0.11653
 O205 O 0.00379 1.04981 -0.25491
 O206 O -0.00360 1.14179 -0.12745
 Zr207 Zr -0.04557 0.99326 0.00091
 Zr208 Zr 0.04472 0.99387 0.00315
 O209 O 0.02643 0.98832 -0.12422
 O210 O -0.02699 0.98791 -0.12665
 O211 O 0.02683 0.91517 0.01195
 O212 O -0.02689 1.07127 -0.00736
 O213 O -0.02650 0.91561 0.01060
 O214 O 0.02657 1.07239 -0.00631
 H215 H 0.03902 1.00170 0.18156
 H216 H -0.04075 1.10266 -0.01056
 H217 H 0.04040 0.98615 -0.17517
 H218 H -0.04003 0.88379 0.01400
 H219 H 0.01342 1.16427 0.05984
 H220 H 0.01241 1.15773 -0.09019
 H221 H -0.01356 1.02806 -0.27573
 H222 H -0.01397 0.93527 -0.26477
 H223 H 0.01124 0.82349 -0.04872
 H224 H 0.01439 0.82975 0.10025
 H225 H -0.01458 0.95889 0.27993
 H226 H -0.01311 1.05009 0.26931
 O227 O 0.45556 0.40515 0.16728
 O228 O 0.42288 0.45712 0.08602
 C229 C 0.42855 0.42151 0.14622
 O230 O 0.54614 0.58942 0.14633
 O231 O 0.57704 0.53392 0.06531
 C232 C 0.57265 0.57269 0.12140
 O233 O 0.46148 0.59319 0.16450
 O234 O 0.42590 0.54704 0.08466
 C235 C 0.43366 0.58181 0.14414
 O236 O 0.54034 0.39310 0.15358
 O237 O 0.57399 0.44013 0.06782
 C238 C 0.56763 0.40500 0.12824
 Zr239 Zr 0.49827 0.42647 0.11340
 O240 O 0.50295 0.42679 0.25199
 O241 O 0.49248 0.34161 0.11341
 Zr242 Zr 0.50247 0.56275 0.11045
 O243 O 0.50768 0.56307 0.24889
 O244 O 0.50172 0.64821 0.10887
 O245 O 0.47366 0.49750 0.13240
 O246 O 0.52682 0.49214 0.12497
 O247 O 0.53532 0.38866 -0.15329
 O248 O 0.57183 0.43835 -0.08268
 C249 C 0.56332 0.40051 -0.13668
 O250 O 0.45813 0.59094 -0.15826
 O251 O 0.42432 0.54663 -0.06929
 C252 C 0.43085 0.57982 -0.13253
 O253 O 0.54292 0.58772 -0.15564
 O254 O 0.57550 0.53197 -0.08104
 C255 C 0.56991 0.57083 -0.13564
 O256 O 0.45064 0.40376 -0.15204
 O257 O 0.42079 0.45828 -0.06598
 C258 C 0.42448 0.42231 -0.12659
 Zr259 Zr 0.49499 0.42502 -0.10848
 O260 O 0.49665 0.42510 -0.24771
 O261 O 0.48855 0.34036 -0.10815
 Zr262 Zr 0.49992 0.56107 -0.11145
 O263 O 0.50196 0.55892 -0.25058
 O264 O 0.49909 0.64650 -0.11385
 Zr265 Zr 0.45403 0.49873 0.00612
 Zr266 Zr 0.54407 0.48901 -0.00417
 O267 O 0.52357 0.49005 -0.12910
 O268 O 0.47035 0.49592 -0.12418
 O269 O 0.52337 0.41228 -0.00048
 O270 O 0.47526 0.57465 0.00204
 O271 O 0.47007 0.41874 0.00570
 O272 O 0.52849 0.56955 -0.00353
 H273 H 0.54102 0.49149 0.17535
 H274 H 0.46261 0.60767 0.00274
 H275 H 0.53663 0.48846 -0.18206
 H276 H 0.45536 0.38857 0.00740
 H277 H 0.51864 0.66045 0.07117
 H278 H 0.51628 0.65945 -0.07798
 H279 H 0.48414 0.53844 -0.27145
 H280 H 0.47920 0.44640 -0.26906
 H281 H 0.50397 0.32476 -0.06853
 H282 H 0.50970 0.32567 0.08084
 H283 H 0.48714 0.45092 0.27605
 H284 H 0.49037 0.54307 0.27421
 C285 C 0.35021 0.34320 0.28628
 C286 C 0.37941 0.32773 0.29065
 C287 C 0.40501 0.35705 0.24940
 C288 C 0.40222 0.39718 0.19069
 H289 H 0.38593 0.29229 0.32708
 H290 H 0.42742 0.34260 0.26613
 H291 H 0.34488 0.38058 0.25314
 H292 H 0.38020 0.41137 0.17039
 C293 C -0.15155 0.84516 0.27959
 C294 C -0.15187 0.88335 0.21662
 C295 C -0.12468 0.90552 0.17258
 C296 C -0.09587 0.89555 0.19562
 H297 H -0.17287 0.90001 0.19300
 H298 H -0.12914 0.93234 0.11786
 H299 H -0.12997 0.82933 0.30075
 H300 H -0.09052 0.86989 0.25083
 C301 C 0.65066 0.65639 0.25910
 C302 C 0.62120 0.67031 0.26055
 C303 C 0.59644 0.64108 0.21565
 C304 C 0.59948 0.59918 0.16015
 H305 H 0.61346 0.70436 0.29846
 H306 H 0.57395 0.65601 0.23044
 H307 H 0.65732 0.62157 0.22077
 H308 H 0.62155 0.58384 0.14230
 C309 C 0.14655 1.17198 0.24613
 C310 C 0.11707 1.18137 0.26285
 C311 C 0.09175 1.15473 0.21585
 C312 C 0.09481 1.11133 0.16376
 H313 H 0.11019 1.20888 0.31410
 H314 H 0.06930 1.17042 0.22899
 H315 H 0.15237 1.14529 0.19252
 H316 H 0.11676 1.09374 0.15127
 C317 C 0.66636 0.36009 -0.23872
 C318 C 0.63523 0.34957 -0.23386
 C319 C 0.61597 0.38010 -0.18037
 C320 C 0.58487 0.37037 -0.18236
 H321 H 0.62508 0.31817 -0.27323
 H322 H 0.62504 0.41224 -0.13974
 H323 H 0.67481 0.39266 -0.19765
 H324 H 0.57651 0.33857 -0.22511
 C325 C 0.17038 0.88837 -0.24348
 C326 C 0.14574 0.86413 -0.21133
 C327 C 0.12199 0.89487 -0.16609
 C328 C 0.09459 0.87324 -0.15518
 H329 H 0.14215 0.82140 -0.22262
 H330 H 0.12648 0.93598 -0.14527
 H331 H 0.17263 0.93183 -0.23795
 H332 H 0.08991 0.83323 -0.18079
 C333 C 0.35331 0.66936 -0.24918
 C334 C 0.35211 0.61867 -0.21842
 C335 C 0.37697 0.59344 -0.16829
 C336 C 0.40608 0.60718 -0.17905
 H337 H 0.33169 0.59506 -0.22650
 H338 H 0.37109 0.56011 -0.12546
 H339 H 0.37245 0.69476 -0.23285
 H340 H 0.41230 0.63779 -0.22655
 C341 C -0.14527 1.15930 -0.27078
 C342 C -0.11722 1.15424 -0.30378
 C343 C -0.09198 1.12753 -0.25700
 C344 C -0.09562 1.09175 -0.19161
 H345 H -0.11184 1.17118 -0.36742
 H346 H -0.06937 1.13725 -0.27965
 H347 H -0.15057 1.14242 -0.20702
 H348 H -0.11802 1.07957 -0.17087
 C349 C 0.64409 0.65133 -0.28733
 C350 C 0.61943 0.67554 -0.25360
 C351 C 0.59350 0.64555 -0.21678
 C352 C 0.59608 0.59766 -0.17654
 H353 H 0.61647 0.71870 -0.25782
 H354 H 0.57178 0.66584 -0.21795
 H355 H 0.64431 0.60761 -0.29026
 H356 H 0.61809 0.57904 -0.16875
 C357 C 0.14422 1.14220 -0.29853
 C358 C 0.12124 1.17025 -0.26240
 C359 C 0.09433 1.14387 -0.22373
 C360 C 0.09616 1.09801 -0.17756
 H361 H 0.12059 1.21378 -0.26582
 H362 H 0.07294 1.16509 -0.22787
 H363 H 0.14179 1.09872 -0.30325
 H364 H 0.11805 1.07936 -0.16708
 C365 C 0.35979 0.29518 -0.29041
 C366 C 0.36492 0.34342 -0.25411
 C367 C 0.39445 0.35818 -0.21618
 C368 C 0.39655 0.40316 -0.16834
 H369 H 0.34670 0.37256 -0.24972
 H370 H 0.41400 0.33245 -0.22614
 H371 H 0.37748 0.26485 -0.28911
 H372 H 0.37632 0.42698 -0.15668
 C373 C -0.17143 0.88237 -0.24713
 C374 C -0.14493 0.86154 -0.22182
 C375 C -0.12197 0.89418 -0.17599
 C376 C -0.09350 0.87632 -0.17110
 H377 H -0.13937 0.82019 -0.23873
 H378 H -0.12810 0.93306 -0.14846
 H379 H -0.17592 0.92487 -0.23610
 H380 H -0.08757 0.83851 -0.20277
 C381 C 0.35620 0.66797 0.27708
 C382 C 0.35420 0.63253 0.21056
 C383 C 0.38019 0.60528 0.16804
 C384 C 0.40939 0.61088 0.19106
 H385 H 0.33233 0.62269 0.18319
 H386 H 0.37440 0.57867 0.11402
 H387 H 0.37815 0.67991 0.30156
 H388 H 0.41605 0.63729 0.24415
 C389 C -0.15202 1.15526 0.25251
 C390 C -0.14943 1.10294 0.23109
 C391 C -0.12379 1.08077 0.17982
 C392 C -0.09588 1.10220 0.18015
 H393 H -0.16751 1.07517 0.24716
 H394 H -0.12783 1.04328 0.14504
 H395 H -0.13535 1.18374 0.22850
 H396 H -0.09101 1.13727 0.22022
 C397 C 0.64829 0.32859 0.25866
 C398 C 0.64710 0.37753 0.22133
 C399 C 0.62134 0.39757 0.16865
 C400 C 0.59294 0.37858 0.17448
 H401 H 0.66646 0.40414 0.22593
 H402 H 0.62590 0.43249 0.12788
 H403 H 0.63026 0.29986 0.24715
 H404 H 0.58754 0.34607 0.21930
 C405 C 0.14846 0.83479 0.27147
 C406 C 0.12003 0.83544 0.30327
 C407 C 0.09357 0.85728 0.25479
 C408 C 0.09580 0.89212 0.18761
 H409 H 0.11533 0.81966 0.36810
 H410 H 0.07138 0.84619 0.27913
 H411 H 0.15287 0.85011 0.20614
 H412 H 0.11775 0.90580 0.16542
   
