data_POSCAR
  _audit_creation_date              2014-09-24
  _audit_creation_method            'ToBaCCo'
  _symmetry_space_group_name_H-M    'P1'
  _symmetry_Int_Tables_number       1
  _symmetry_cell_setting            triclinic
  loop_
  _symmetry_equiv_pos_as_xyz
 x,y,z
_cell_length_a 22.6038
_cell_length_b 22.2638
_cell_length_c 21.7765
_cell_angle_alpha 95.389300
_cell_angle_beta 90.319900
_cell_angle_gamma 90.507000
loop_
  _atom_site_label
  _atom_site_type_symbol
  _atom_site_fract_x
  _atom_site_fract_y
  _atom_site_fract_z
N1 N 0.18500 0.15132 0.20306
 N2 N -0.23047 0.77889 0.17627
 N3 N -0.23556 0.24913 -0.21058
 N4 N 0.16452 0.80945 -0.20057
 N5 N 0.21150 1.19410 0.77835
 N6 N 0.83391 0.79552 0.84595
 N7 N 0.22525 0.82369 1.20195
 N8 N 0.81068 1.19833 1.18940
 O9 O 0.56362 0.95381 0.84864
 O10 O 0.47110 0.94981 1.06673
 O11 O 0.57844 0.93955 1.03776
 O12 O 0.38224 0.98492 0.91579
 O13 O 0.56058 1.00487 1.11024
 O14 O 0.45211 0.94099 0.85796
 O15 O 0.38958 0.97492 1.02733
 O16 O 0.58638 0.91885 0.93267
 C17 C 0.59080 0.91621 0.87626
 C18 C 0.41781 0.93965 1.05773
 C19 C 0.58552 0.95706 1.09309
 C20 C 0.39909 0.94438 0.87461
 O21 O 0.44070 1.05566 0.85381
 O22 O 0.53219 1.10171 1.06290
 O23 O 0.62224 1.03525 0.91829
 O24 O 0.42540 1.09170 1.04710
 O25 O 0.45543 1.05213 1.12816
 O26 O 0.55234 1.06844 0.85934
 O27 O 0.41934 1.10303 0.94020
 O28 O 0.61298 1.05797 1.02997
 Co29 Co 0.50223 1.00531 0.86607
 Co30 Co 0.49921 1.02569 1.06131
 Co31 Co 0.59270 0.98995 0.97907
 Co32 Co 0.41230 1.03630 0.98136
 O33 O 0.50397 1.01206 0.96808
 C34 C 0.41560 1.09873 0.88349
 C35 C 0.58726 1.10375 1.05600
 C36 C 0.60480 1.07001 0.87887
 C37 C 0.41602 1.08391 1.10289
 O38 O 0.09269 0.43356 0.13482
 O39 O 0.05755 0.56120 -0.09142
 O40 O 0.07203 0.38114 -0.04098
 O41 O 0.11890 0.57764 0.09091
 O42 O 0.10654 0.46529 -0.06417
 O43 O 0.07718 0.54463 0.16778
 O44 O 0.11179 0.57504 -0.01388
 O45 O 0.05190 0.36638 0.06664
 C46 C 0.09157 0.38184 0.10687
 C47 C 0.10155 0.58705 -0.06697
 C48 C 0.11238 0.40991 -0.06455
 C49 C 0.11545 0.57730 0.14711
 O50 O -0.03370 0.53140 0.15281
 O51 O 0.01063 0.45490 -0.12973
 O52 O -0.06150 0.40684 0.04806
 O53 O -0.00663 0.60859 -0.00601
 O54 O -0.04277 0.52709 -0.05492
 O55 O -0.02134 0.41775 0.13684
 O56 O 0.00212 0.60864 0.10691
 O57 O -0.04053 0.41792 -0.05723
 Co58 Co 0.02926 0.48252 0.13698
 Co59 Co 0.03132 0.49399 -0.05608
 Co60 Co 0.00793 0.40153 0.00699
 Co61 Co 0.05447 0.58502 0.04352
 O62 O 0.03248 0.49325 0.03696
 C63 C -0.03470 0.58616 0.14283
 C64 C -0.02949 0.41709 -0.11451
 C65 C -0.06313 0.39785 0.10301
 C66 C -0.04747 0.58215 -0.03836
 O67 O 1.04530 0.06489 0.46911
 O68 O 0.84025 0.03625 0.57319
 O69 O 0.89893 0.00867 0.38018
 O70 O 1.02036 0.07391 0.58158
 O71 O 0.84267 0.04488 0.45753
 O72 O 1.09204 0.01864 0.55800
 O73 O 0.92115 0.08302 0.59238
 O74 O 1.00514 0.02911 0.38462
 C75 C 1.03502 0.06957 0.41400
 C76 C 0.86722 0.08111 0.59772
 C77 C 0.85861 0.04412 0.40214
 C78 C 1.07360 0.06425 0.58879
 O79 O 1.04745 -0.08507 0.52266
 O80 O 0.84167 -0.06955 0.43804
 O81 O 1.02786 -0.08443 0.41116
 O82 O 0.90961 -0.03309 0.62622
 O83 O 0.85368 -0.07906 0.55317
 O84 O 1.10462 -0.03167 0.44433
 O85 O 1.01610 -0.04406 0.61088
 O86 O 0.92405 -0.10698 0.40807
 Co87 Co 1.04271 -0.01070 0.49414
 Co88 Co 0.85525 -0.01626 0.50537
 Co89 Co 0.96298 -0.03602 0.40494
 Co90 Co 0.96599 0.01750 0.59531
 O91 O 0.95316 -0.00989 0.50232
 C92 C 1.04112 -0.08720 0.57949
 C93 C 0.86968 -0.10807 0.40526
 C94 C 1.08158 -0.07035 0.40264
 C95 C 0.87378 -0.07522 0.60720
 C96 C 1.15887 0.11467 0.24652
 C97 C 1.12201 0.13789 0.29007
 C98 C 1.08989 0.09730 0.32735
 C99 C 1.06413 0.11559 0.38084
 H100 H 1.11435 0.18605 0.29644
 H101 H 1.08824 0.04976 0.31065
 H102 H 1.16877 0.06687 0.24295
 H103 H 1.06912 0.16151 0.40162
 C104 C 0.77508 -0.20138 0.24111
 C105 C 0.78025 -0.14285 0.26035
 C106 C 0.79633 -0.12048 0.32378
 C107 C 0.84000 -0.14491 0.35474
 H108 H 0.77448 -0.10933 0.22792
 H109 H 0.78008 -0.07617 0.33999
 H110 H 0.78048 -0.23440 0.27408
 H111 H 0.86166 -0.18542 0.33504
 C112 C 0.78896 0.22350 0.73198
 C113 C 0.84377 0.20149 0.73042
 C114 C 0.86898 0.16573 0.67711
 C115 C 0.83721 0.12691 0.63902
 H116 H 0.87171 0.20846 0.77105
 H117 H 0.91686 0.16520 0.67512
 H118 H 0.76081 0.21678 0.69153
 H119 H 0.78962 0.12372 0.64346
 C120 C 1.13877 -0.15004 0.75947
 C121 C 1.11223 -0.16912 0.70607
 C122 C 1.08282 -0.12483 0.67085
 C123 C 1.06773 -0.13576 0.61137
 H124 H 1.11193 -0.21647 0.68916
 H125 H 1.07488 -0.08053 0.69447
 H126 H 1.14162 -0.10195 0.77327
 H127 H 1.07849 -0.17830 0.58576
 C128 C 0.24281 1.13730 1.17857
 C129 C 0.28482 1.11199 1.21143
 C130 C 0.34260 1.09201 1.18562
 C131 C 0.36620 1.11324 1.13573
 H132 H 0.27531 1.10150 1.25792
 H133 H 0.36497 1.05657 1.20724
 H134 H 0.25128 1.14659 1.13156
 H135 H 0.34530 1.14932 1.11400
 C136 C 0.21010 0.83374 0.84136
 C137 C 0.25822 0.85996 0.82017
 C138 C 0.30198 0.89257 0.86153
 C139 C 0.35588 0.90406 0.84051
 H140 H 0.26453 0.85873 0.77073
 H141 H 0.28945 0.90907 0.90803
 H142 H 0.20466 0.83142 0.89051
 H143 H 0.36855 0.88443 0.79507
 C144 C 0.72888 0.80660 1.13633
 C145 C 0.68311 0.83996 1.15750
 C146 C 0.64807 0.87308 1.11521
 C147 C 0.61678 0.92128 1.13595
 H148 H 0.67336 0.84578 1.20630
 H149 H 0.65083 0.86010 1.06603
 H150 H 0.73648 0.80123 1.08695
 H151 H 0.61596 0.93600 1.18482
 C152 C 0.71683 1.21720 0.81607
 C153 C 0.67663 1.18463 0.78159
 C154 C 0.63362 1.14453 0.80809
 C155 C 0.64710 1.11260 0.85542
 H156 H 0.67427 1.18748 0.73236
 H157 H 0.59150 1.13745 0.78442
 H158 H 0.71456 1.21812 0.86587
 H159 H 0.69079 1.11620 0.87623
 C160 C 0.14629 0.18900 0.17123
 C161 C 0.16559 0.23939 0.14922
 C162 C 0.12375 0.27969 0.12219
 C163 C 0.13537 0.33855 0.12471
 H164 H 0.21154 0.25309 0.15549
 H165 H 0.08120 0.26214 0.10520
 H166 H 0.09935 0.17826 0.16893
 H167 H 0.17611 0.35627 0.14619
 C168 C -0.20227 0.29174 -0.16962
 C169 C -0.15792 0.32529 -0.18903
 C170 C -0.11912 0.35961 -0.14399
 C171 C -0.06941 0.38628 -0.16096
 H172 H -0.14784 0.32436 -0.23768
 H173 H -0.13031 0.36093 -0.09551
 H174 H -0.21211 0.29503 -0.12071
 H175 H -0.05792 0.38550 -0.20927
 C176 C 0.13248 0.75537 -0.18934
 C177 C 0.15622 0.71278 -0.15801
 C178 C 0.12017 0.66192 -0.14031
 C179 C 0.13975 0.62915 -0.09645
 H180 H 0.20161 0.71748 -0.14185
 H181 H 0.07559 0.65503 -0.15844
 H182 H 0.08717 0.74972 -0.20572
 H183 H 0.18301 0.63892 -0.07592
 C184 C -0.18577 0.74066 0.14681
 C185 C -0.15182 0.70480 0.17771
 C186 C -0.10430 0.66953 0.14670
 C187 C -0.08033 0.62404 0.17335
 H188 H -0.15902 0.70044 0.22612
 H189 H -0.09001 0.67959 0.10127
 H190 H -0.17908 0.74116 0.09755
 H191 H -0.09755 0.61156 0.21681
 C192 C 1.18062 0.15907 0.73328
 C193 C 1.20268 0.13954 0.67439
 C194 C 1.16965 0.10372 0.62977
 C195 C 1.10788 0.10345 0.62805
 H196 H 1.24758 0.15040 0.66233
 H197 H 1.19328 0.07900 0.59248
 H198 H 1.13420 0.15040 0.74118
 H199 H 1.08411 0.13786 0.65610
 C200 C 0.85751 -0.16090 0.80751
 C201 C 0.84541 -0.16395 0.74716
 C202 C 0.86909 -0.11864 0.70798
 C203 C 0.85309 -0.11983 0.64861
 H204 H 0.81698 -0.19999 0.72674
 H205 H 0.89893 -0.08368 0.72804
 H206 H 0.88732 -0.12613 0.82803
 H207 H 0.82279 -0.15479 0.62938
 C208 C 1.19234 -0.15801 0.25325
 C209 C 1.20616 -0.10547 0.29209
 C210 C 1.17212 -0.08144 0.34200
 C211 C 1.11441 -0.09962 0.35484
 H212 H 1.24741 -0.08207 0.28500
 H213 H 1.19132 -0.04340 0.37019
 H214 H 1.15618 -0.18598 0.26640
 H215 H 1.09216 -0.13436 0.32498
 C216 C 0.84467 0.17153 0.23142
 C217 C 0.81957 0.13436 0.27293
 C218 C 0.85381 0.10139 0.31110
 C219 C 0.82948 0.08195 0.36467
 H220 H 0.77183 0.13365 0.27767
 H221 H 0.90020 0.09368 0.30095
 H222 H 0.89137 0.18269 0.23659
 H223 H 0.78753 0.10073 0.38061
 C224 C 0.17729 0.23006 -0.18159
 C225 C 0.19575 0.28510 -0.15003
 C226 C 0.15546 0.31723 -0.11130
 C227 C 0.15975 0.37950 -0.09437
 H228 H 0.23795 0.30529 -0.16002
 H229 H 0.11566 0.29364 -0.09896
 H230 H 0.13032 0.21968 -0.17881
 H231 H 0.19600 0.40525 -0.11149
 C232 C -0.17351 0.25350 0.17067
 C233 C -0.13520 0.29369 0.20573
 C234 C -0.10536 0.34319 0.18470
 C235 C -0.10651 0.35971 0.12418
 H236 H -0.12502 0.28490 0.25267
 H237 H -0.07515 0.36706 0.21748
 H238 H -0.19113 0.26665 0.12766
 H239 H -0.13808 0.33910 0.09094
 C240 C -0.12333 0.76150 -0.12267
 C241 C -0.13679 0.70916 -0.09994
 C242 C -0.09067 0.67534 -0.06972
 C243 C -0.09695 0.61669 -0.06158
 H244 H -0.18111 0.69043 -0.10552
 H245 H -0.04916 0.69817 -0.05712
 H246 H -0.07776 0.77735 -0.12013
 H247 H -0.13676 0.59257 -0.07773
 C248 C 0.22162 0.76558 0.17433
 C249 C 0.19630 0.71665 0.20115
 C250 C 0.18199 0.66380 0.16425
 C251 C 0.14842 0.61777 0.18678
 H252 H 0.18441 0.72030 0.24941
 H253 H 0.19113 0.66169 0.11523
 H254 H 0.23725 0.75643 0.12733
 H255 H 0.14058 0.61879 0.23596
 C256 C 0.27096 1.18798 0.79093
 C257 C 0.30448 1.13747 0.76885
 C258 C 0.35772 1.11941 0.79398
 C259 C 0.37706 1.13599 0.85445
 H260 H 0.28766 1.10505 0.73325
 H261 H 0.37885 1.08143 0.76833
 H262 H 0.29133 1.21849 0.82661
 H263 H 0.35482 1.17120 0.88291
 C264 C 0.25514 0.86607 1.17186
 C265 C 0.30541 0.85285 1.13592
 C266 C 0.33105 0.89636 1.10224
 C267 C 0.39014 0.89249 1.08429
 H268 H 0.32717 0.80987 1.13786
 H269 H 0.30647 0.93689 1.09543
 H270 H 0.24177 0.91295 1.17848
 H271 H 0.41738 0.85747 1.10089
 C272 C 0.76783 1.16338 1.15849
 C273 C 0.71807 1.18526 1.12920
 C274 C 0.68142 1.14340 1.09523
 C275 C 0.62137 1.15236 1.08266
 H276 H 0.70595 1.23233 1.13664
 H277 H 0.69945 1.09880 1.08338
 H278 H 0.77017 1.11471 1.15967
 H279 H 0.59998 1.19345 1.10118
 C280 C 0.77537 0.80383 0.87167
 C281 C 0.73064 0.82677 0.84088
 C282 C 0.67618 0.84800 0.87282
 C283 C 0.63441 0.87657 0.84308
 H284 H 0.73592 0.83492 0.79305
 H285 H 0.67374 0.84686 0.92242
 H286 H 0.76837 0.79436 0.91907
 H287 H 0.63785 0.87849 0.79367
   
