data_POSCAR
  _audit_creation_date              2014-09-24
  _audit_creation_method            'ToBaCCo'
  _symmetry_space_group_name_H-M    'P1'
  _symmetry_Int_Tables_number       1
  _symmetry_cell_setting            triclinic
  loop_
  _symmetry_equiv_pos_as_xyz
 x,y,z
_cell_length_a 26.1658
_cell_length_b 26.1658
_cell_length_c 26.1658
_cell_angle_alpha 78.173700
_cell_angle_beta 101.826100
_cell_angle_gamma 78.171900
loop_
  _atom_site_label
  _atom_site_type_symbol
  _atom_site_fract_x
  _atom_site_fract_y
  _atom_site_fract_z
O1 O 0.57851 0.48600 0.05188
 O2 O 0.43235 0.50246 0.03580
 O3 O 0.51477 0.42091 0.05308
 O4 O 0.49606 0.56751 0.03450
 O5 O 0.48346 0.57899 -0.05373
 O6 O 0.50219 0.43241 -0.03515
 O7 O 0.41972 0.51390 -0.05241
 O8 O 0.56590 0.49747 -0.03634
 Cu9 Cu 0.50665 0.49311 0.05270
 Cu10 Cu 0.49158 0.50680 -0.05329
 C11 C 0.59678 0.48958 0.01033
 C12 C 0.40144 0.51037 -0.01085
 C13 C 0.51104 0.40202 0.01192
 C14 C 0.48724 0.59789 -0.01258
 O15 O -0.05204 0.58042 0.48585
 O16 O -0.03597 0.43425 0.50230
 O17 O -0.03467 0.49795 0.56734
 O18 O -0.05325 0.51667 0.42075
 O19 O 0.03497 0.50408 0.43225
 O20 O 0.05356 0.48535 0.57882
 O21 O 0.05225 0.42163 0.51375
 O22 O 0.03618 0.56780 0.49731
 Cu23 Cu -0.05287 0.50856 0.49294
 Cu24 Cu 0.05313 0.49349 0.50663
 C25 C -0.01048 0.59869 0.48943
 C26 C 0.01070 0.40336 0.51022
 C27 C 0.01241 0.48910 0.59773
 C28 C -0.01210 0.51290 0.40186
 O29 O 0.50258 0.03567 0.56780
 O30 O 0.48614 0.05175 0.42164
 O31 O 0.42106 0.05297 0.48537
 O32 O 0.56766 0.03439 0.50408
 O33 O 0.57914 -0.05384 0.51668
 O34 O 0.43256 -0.03526 0.49796
 O35 O 0.49760 -0.03647 0.43425
 O36 O 0.51404 -0.05254 0.58043
 Cu37 Cu 0.49326 0.05258 0.49350
 Cu38 Cu 0.50695 -0.05342 0.50857
 C39 C 0.51047 -0.01098 0.59870
 C40 C 0.48968 0.01019 0.40337
 C41 C 0.40217 0.01182 0.48910
 C42 C 0.59804 -0.01269 0.51290
 C43 C 0.50349 -0.00952 -0.05091
 C44 C 0.49512 -0.04981 -0.01111
 C45 C 0.49153 -0.04014 0.03893
 C46 C 0.49605 0.00920 0.04983
 C47 C 0.50438 0.04951 0.01001
 C48 C 0.50800 0.03983 -0.04002
 H49 H 0.51422 0.07100 -0.07076
 H50 H 0.48530 -0.07130 0.06967
 C51 C -0.01009 0.50523 1.04960
 C52 C -0.04990 0.49686 1.00931
 C53 C -0.03900 0.49236 0.95996
 C54 C 0.01102 0.49597 0.95028
 C55 C 0.05084 0.50430 0.99058
 C56 C 0.03994 0.50882 1.03993
 H57 H 0.07068 0.51505 1.07109
 H58 H -0.06974 0.48613 0.92879
 C59 C 0.04961 0.01005 0.49565
 C60 C 0.00931 0.04986 0.50398
 C61 C -0.04003 0.03897 0.50850
 C62 C -0.04970 -0.01107 0.50491
 C63 C -0.00941 -0.05088 0.49653
 C64 C 0.03994 -0.03998 0.49203
 H65 H 0.07111 -0.07072 0.48580
 H66 H -0.07120 0.06970 0.51473
 C67 C -0.34687 0.48641 1.01582
 C68 C -0.30000 0.48549 1.01931
 C69 C -0.24569 0.48608 1.02180
 C70 C -0.19987 0.48764 1.02225
 C71 C -0.14690 0.49040 1.02052
 C72 C -0.10233 0.49323 1.01679
 C73 C 0.34810 0.51347 0.98397
 C74 C 0.30117 0.51462 0.98046
 C75 C 0.24681 0.51433 0.97799
 C76 C 0.20094 0.51299 0.97758
 C77 C 0.14792 0.51047 0.97937
 C78 C 0.10331 0.50780 0.98312
 C79 C -0.01568 -0.34799 0.48645
 C80 C -0.01925 -0.30108 0.48543
 C81 C -0.02180 -0.24674 0.48592
 C82 C -0.02230 -0.20090 0.48742
 C83 C -0.02060 -0.14790 0.49013
 C84 C -0.01689 -0.10332 0.49293
 C85 C 0.01618 0.34698 0.51351
 C86 C 0.01961 0.30009 0.51456
 C87 C 0.02200 0.24576 0.51417
 C88 C 0.02237 0.19992 0.51277
 C89 C 0.02055 0.14691 0.51020
 C90 C 0.01678 0.10232 0.50750
 C91 C 0.51347 -0.01616 -0.34798
 C92 C 0.51451 -0.01967 -0.30107
 C93 C 0.51404 -0.02214 -0.24674
 C94 C 0.51256 -0.02256 -0.20091
 C95 C 0.50987 -0.02077 -0.14792
 C96 C 0.50709 -0.01701 -0.10335
 C97 C 0.48641 0.01570 0.34699
 C98 C 0.48538 0.01918 0.30010
 C99 C 0.48579 0.02167 0.24576
 C100 C 0.48721 0.02212 0.19991
 C101 C 0.48981 0.02038 0.14689
 C102 C 0.49252 0.01666 0.10229
 C103 C 0.48339 -0.34560 -0.01899
 C104 C 0.48213 -0.29863 -0.02303
 C105 C 0.48258 -0.24431 -0.02584
 C106 C 0.48426 -0.19857 -0.02625
 C107 C 0.48740 -0.14585 -0.02409
 C108 C 0.49073 -0.10163 -0.01969
 C109 C 0.51502 0.34548 0.01831
 C110 C 0.51644 0.29849 0.02228
 C111 C 0.51621 0.24414 0.02498
 C112 C 0.51473 0.19837 0.02529
 C113 C 0.51180 0.14562 0.02303
 C114 C 0.50864 0.10137 0.01858
 C115 C -0.34545 -0.01909 0.51674
 C116 C -0.29849 -0.02311 0.51798
 C117 C -0.24417 -0.02589 0.51751
 C118 C -0.19844 -0.02627 0.51581
 C119 C -0.14573 -0.02408 0.51265
 C120 C -0.10152 -0.01967 0.50931
 C121 C 0.34563 0.01821 0.48511
 C122 C 0.29863 0.02220 0.48367
 C123 C 0.24427 0.02493 0.48388
 C124 C 0.19850 0.02527 0.48535
 C125 C 0.14573 0.02303 0.48825
 C126 C 0.10148 0.01860 0.49140
 C127 C -0.01848 0.51678 1.34534
 C128 C -0.02244 0.51807 1.29837
 C129 C -0.02513 0.51766 1.24406
 C130 C -0.02544 0.51601 1.19833
 C131 C -0.02316 0.51290 1.14563
 C132 C -0.01870 0.50960 1.10142
 C133 C 0.01883 0.48515 0.65426
 C134 C 0.02287 0.48376 0.70125
 C135 C 0.02569 0.48402 0.75561
 C136 C 0.02611 0.48554 0.80140
 C137 C 0.02396 0.48850 0.85416
 C138 C 0.01958 0.49169 0.89842
   
