data_POSCAR
  _audit_creation_date              2014-09-24
  _audit_creation_method            'ToBaCCo'
  _symmetry_space_group_name_H-M    'P1'
  _symmetry_Int_Tables_number       1
  _symmetry_cell_setting            triclinic
  loop_
  _symmetry_equiv_pos_as_xyz
 x,y,z
_cell_length_a 43.5478
_cell_length_b 43.4986
_cell_length_c 43.4744
_cell_angle_alpha 90.032700
_cell_angle_beta 89.962400
_cell_angle_gamma 89.964700
loop_
  _atom_site_label
  _atom_site_type_symbol
  _atom_site_fract_x
  _atom_site_fract_y
  _atom_site_fract_z
O1 O 0.87548 0.16697 0.79468
 O2 O 0.91116 0.12551 0.78765
 O3 O 0.79591 0.12340 0.83228
 O4 O 0.78410 0.09376 0.87279
 O5 O 0.83335 0.20515 0.87494
 O6 O 0.87355 0.21233 0.91025
 O7 O 0.87661 0.04428 0.91626
 O8 O 0.84093 0.03669 0.87743
 O9 O 0.95519 0.08251 0.87611
 O10 O 0.96332 0.12194 0.84009
 O11 O 0.91797 0.12331 0.95412
 O12 O 0.87473 0.15720 0.96473
 O13 O 0.87665 0.08129 0.95342
 O14 O 0.84095 0.12585 0.96306
 O15 O 0.95503 0.12377 0.91715
 O16 O 0.96281 0.16003 0.87738
 O17 O 0.91833 0.04540 0.87682
 O18 O 0.87814 0.03985 0.83672
 O19 O 0.87612 0.20399 0.83185
 O20 O 0.91176 0.21129 0.87540
 O21 O 0.79637 0.16807 0.87557
 O22 O 0.78913 0.12405 0.91122
 O23 O 0.83270 0.12513 0.79496
 O24 O 0.87379 0.08602 0.79085
 Zr25 Zr 0.87428 0.12553 0.81966
 O26 O 0.90325 0.09730 0.84618
 Zr27 Zr 0.82042 0.12595 0.87399
 O28 O 0.84688 0.09677 0.90217
 Zr29 Zr 0.87453 0.17986 0.87390
 O30 O 0.90299 0.15329 0.90261
 Zr31 Zr 0.87654 0.06975 0.87530
 O32 O 0.84706 0.09600 0.84680
 Zr33 Zr 0.93028 0.12397 0.87571
 O34 O 0.90401 0.15283 0.84656
 Zr35 Zr 0.87625 0.12350 0.92963
 O36 O 0.84744 0.15289 0.90360
 O37 O 0.84604 0.15419 0.84554
 O38 O 0.90509 0.09501 0.90427
 C39 C 0.87651 0.19508 0.80368
 C40 C 0.80468 0.12359 0.80404
 C41 C 0.80525 0.19624 0.87597
 C42 C 0.87673 0.05315 0.94443
 C43 C 0.94642 0.05433 0.87670
 C44 C 0.94610 0.12347 0.94527
 H45 H 0.91621 0.08470 0.83234
 H46 H 0.91586 0.16716 0.91521
 H47 H 0.83287 0.16730 0.83243
 H48 H 0.83308 0.08371 0.91462
 H49 H 0.82697 0.04109 0.86001
 H50 H 0.79239 0.07420 0.88083
 H51 H 0.95579 0.17581 0.86258
 H52 H 0.90429 0.23188 0.86901
 H53 H 0.88234 0.01877 0.84432
 H54 H 0.86729 0.09206 0.76985
 H55 H 0.88966 0.17344 0.95929
 H56 H 0.85939 0.20422 0.92610
 H57 H 0.90291 0.12939 0.76675
 H58 H 0.95571 0.13545 0.82345
 H59 H 0.79497 0.14064 0.92566
 H60 H 0.82690 0.10834 0.95954
 O61 O 0.83275 0.70483 0.37464
 O62 O 0.87406 0.71199 0.41045
 O63 O 0.87666 0.66696 0.29521
 O64 O 0.90632 0.62639 0.28359
 O65 O 0.79489 0.62446 0.33266
 O66 O 0.78762 0.58930 0.37303
 O67 O 0.95547 0.58333 0.37660
 O68 O 0.96313 0.62192 0.34065
 O69 O 0.91687 0.62405 0.45498
 O70 O 0.87735 0.65998 0.46282
 O71 O 0.87647 0.54577 0.41804
 O72 O 0.84273 0.53492 0.37467
 O73 O 0.91854 0.54620 0.37667
 O74 O 0.87417 0.53638 0.34093
 O75 O 0.87586 0.58294 0.45494
 O76 O 0.83948 0.62255 0.46245
 O77 O 0.95410 0.62309 0.41815
 O78 O 0.95979 0.66285 0.37762
 O79 O 0.79583 0.66768 0.37536
 O80 O 0.78843 0.62425 0.41116
 O81 O 0.83207 0.62369 0.29571
 O82 O 0.87606 0.58801 0.28870
 O83 O 0.87468 0.70439 0.33191
 O84 O 0.91358 0.70871 0.37305
 Zr85 Zr 0.87418 0.67987 0.37361
 O86 O 0.90232 0.65352 0.40277
 Zr87 Zr 0.87404 0.62535 0.31990
 O88 O 0.90311 0.59729 0.34658
 Zr89 Zr 0.81999 0.62565 0.37396
 O90 O 0.84646 0.59711 0.40267
 Zr91 Zr 0.92997 0.62428 0.37622
 O92 O 0.90382 0.65264 0.34653
 Zr93 Zr 0.87559 0.62417 0.42992
 O94 O 0.84680 0.65314 0.40342
 Zr95 Zr 0.87636 0.56999 0.37610
 O96 O 0.84708 0.59587 0.34704
 O97 O 0.84570 0.65389 0.34536
 O98 O 0.90466 0.59550 0.40492
 C99 C 0.80469 0.69584 0.37568
 C100 C 0.87637 0.69521 0.30389
 C101 C 0.80391 0.62333 0.30455
 C102 C 0.94664 0.55518 0.37681
 C103 C 0.94504 0.62345 0.44624
 C104 C 0.87624 0.55480 0.44615
 H105 H 0.91484 0.66744 0.41571
 H106 H 0.83259 0.58459 0.41560
 H107 H 0.83263 0.66693 0.33210
 H108 H 0.91623 0.58478 0.33285
 H109 H 0.95876 0.63924 0.32653
 H110 H 0.92582 0.61831 0.29194
 H111 H 0.82365 0.63723 0.45530
 H112 H 0.76788 0.63062 0.40360
 H113 H 0.98084 0.65529 0.38194
 H114 H 0.90752 0.72968 0.36651
 H115 H 0.82649 0.54039 0.38962
 H116 H 0.79582 0.57340 0.35894
 H117 H 0.87014 0.73285 0.40212
 H118 H 0.86369 0.67646 0.45515
 H119 H 0.85951 0.57359 0.29462
 H120 H 0.89163 0.53989 0.32681
 O121 O 0.37444 0.16630 0.29518
 O122 O 0.41016 0.12473 0.28828
 O123 O 0.29506 0.12272 0.33330
 O124 O 0.28351 0.09318 0.37397
 O125 O 0.33255 0.20470 0.37540
 O126 O 0.37282 0.21215 0.41054
 O127 O 0.37605 0.04414 0.41757
 O128 O 0.34024 0.03636 0.37886
 O129 O 0.45447 0.08229 0.37660
 O130 O 0.46240 0.12154 0.34042
 O131 O 0.41768 0.12337 0.45466
 O132 O 0.37440 0.15737 0.46528
 O133 O 0.37622 0.08136 0.45449
 O134 O 0.34069 0.12599 0.46402
 O135 O 0.45452 0.12370 0.41747
 O136 O 0.46205 0.15978 0.37759
 O137 O 0.41764 0.04514 0.37780
 O138 O 0.37730 0.03924 0.33801
 O139 O 0.37518 0.20347 0.33219
 O140 O 0.41095 0.21098 0.37559
 O141 O 0.29563 0.16755 0.37634
 O142 O 0.28851 0.12386 0.41223
 O143 O 0.33170 0.12436 0.29583
 O144 O 0.37279 0.08530 0.29173
 Zr145 Zr 0.37336 0.12492 0.32038
 O146 O 0.40239 0.09683 0.34697
 Zr147 Zr 0.31972 0.12550 0.37492
 O148 O 0.34629 0.09655 0.40322
 Zr149 Zr 0.37376 0.17950 0.37435
 O150 O 0.40236 0.15312 0.40309
 Zr151 Zr 0.37584 0.06940 0.37640
 O152 O 0.34629 0.09546 0.34779
 Zr153 Zr 0.42953 0.12370 0.37620
 O154 O 0.40315 0.15240 0.34701
 Zr155 Zr 0.37580 0.12343 0.43040
 O156 O 0.34684 0.15262 0.40429
 O157 O 0.34518 0.15365 0.34623
 O158 O 0.40453 0.09484 0.40506
 C159 C 0.37549 0.19447 0.30404
 C160 C 0.30372 0.12281 0.30502
 C161 C 0.30448 0.19572 0.37655
 C162 C 0.37624 0.05314 0.44571
 C163 C 0.44570 0.05413 0.37739
 C164 C 0.44576 0.12352 0.44564
 H165 H 0.41529 0.08416 0.33314
 H166 H 0.41528 0.16706 0.41555
 H167 H 0.33197 0.16668 0.33309
 H168 H 0.33255 0.08356 0.41582
 H169 H 0.32621 0.04066 0.36147
 H170 H 0.29175 0.07379 0.38246
 H171 H 0.45497 0.17551 0.36277
 H172 H 0.40344 0.23154 0.36913
 H173 H 0.38151 0.01821 0.34573
 H174 H 0.36626 0.09125 0.27072
 H175 H 0.38938 0.17352 0.45973
 H176 H 0.35878 0.20406 0.42650
 H177 H 0.40186 0.12859 0.26739
 H178 H 0.45478 0.13509 0.32382
 H179 H 0.29449 0.14044 0.42663
 H180 H 0.32651 0.10857 0.46056
 O181 O 0.12482 0.33268 0.29503
 O182 O 0.08907 0.37422 0.28823
 O183 O 0.20439 0.37620 0.33254
 O184 O 0.21635 0.40574 0.37305
 O185 O 0.16685 0.29448 0.37522
 O186 O 0.12663 0.28733 0.41053
 O187 O 0.12403 0.45540 0.41689
 O188 O 0.15977 0.46288 0.37800
 O189 O 0.04538 0.41736 0.37657
 O190 O 0.03709 0.37789 0.34068
 O191 O 0.08250 0.37652 0.45462
 O192 O 0.12562 0.34245 0.46511
 O193 O 0.12398 0.41836 0.45397
 O194 O 0.15952 0.37364 0.46341
 O195 O 0.04543 0.37621 0.41770
 O196 O 0.03749 0.33991 0.37804
 O197 O 0.08235 0.45438 0.37734
 O198 O 0.12257 0.45988 0.33732
 O199 O 0.12413 0.29567 0.33216
 O200 O 0.08842 0.28849 0.37575
 O201 O 0.20389 0.33151 0.37577
 O202 O 0.21131 0.37542 0.41144
 O203 O 0.16758 0.37452 0.29529
 O204 O 0.12656 0.41360 0.29125
 Zr205 Zr 0.12605 0.37414 0.32008
 O206 O 0.09724 0.40246 0.34672
 Zr207 Zr 0.17995 0.37364 0.37430
 O208 O 0.15363 0.40285 0.40261
 Zr209 Zr 0.12573 0.31982 0.37424
 O210 O 0.09737 0.34646 0.40306
 Zr211 Zr 0.12405 0.42995 0.37584
 O212 O 0.15337 0.40363 0.34720
 Zr213 Zr 0.07015 0.37585 0.37624
 O214 O 0.09628 0.34690 0.34699
 Zr215 Zr 0.12420 0.37618 0.43007
 O216 O 0.15289 0.34673 0.40391
 O217 O 0.15426 0.34545 0.34586
 O218 O 0.09542 0.40474 0.40480
 C219 C 0.12377 0.30456 0.30398
 C220 C 0.19560 0.37605 0.30432
 C221 C 0.19494 0.30337 0.37619
 C222 C 0.12394 0.44651 0.44504
 C223 C 0.05427 0.44549 0.37714
 C224 C 0.05437 0.37649 0.44580
 H225 H 0.08431 0.41510 0.33291
 H226 H 0.08446 0.33263 0.41566
 H227 H 0.16740 0.33232 0.33271
 H228 H 0.16748 0.41586 0.41506
 H229 H 0.17371 0.45846 0.36054
 H230 H 0.20817 0.42528 0.38128
 H231 H 0.04444 0.32406 0.36326
 H232 H 0.09582 0.26788 0.36929
 H233 H 0.11847 0.48098 0.34495
 H234 H 0.13294 0.40751 0.27021
 H235 H 0.11060 0.32629 0.45970
 H236 H 0.14076 0.29543 0.42640
 H237 H 0.09724 0.37024 0.26730
 H238 H 0.04457 0.36423 0.32409
 H239 H 0.20541 0.35886 0.42590
 H240 H 0.17362 0.39113 0.45992
 O241 O 0.62494 0.83255 0.29466
 O242 O 0.58918 0.87399 0.28773
 O243 O 0.70443 0.87622 0.33220
 O244 O 0.71612 0.90601 0.37268
 O245 O 0.66707 0.79450 0.37484
 O246 O 0.62692 0.78718 0.41015
 O247 O 0.62361 0.95526 0.41646
 O248 O 0.65932 0.96286 0.37759
 O249 O 0.54512 0.91685 0.37628
 O250 O 0.53700 0.87744 0.34028
 O251 O 0.58232 0.87621 0.45425
 O252 O 0.62565 0.84230 0.46474
 O253 O 0.62362 0.91825 0.45357
 O254 O 0.65935 0.87372 0.46310
 O255 O 0.54528 0.87568 0.41731
 O256 O 0.53761 0.83932 0.37753
 O257 O 0.58194 0.95403 0.37702
 O258 O 0.62210 0.95970 0.33693
 O259 O 0.62434 0.79554 0.33179
 O260 O 0.58866 0.78823 0.37539
 O261 O 0.70399 0.83165 0.37546
 O262 O 0.71124 0.87560 0.41111
 O263 O 0.66765 0.87445 0.29492
 O264 O 0.62649 0.91352 0.29093
 Zr265 Zr 0.62606 0.87401 0.31969
 O266 O 0.59707 0.90218 0.34632
 Zr267 Zr 0.67990 0.87370 0.37395
 O268 O 0.65342 0.90280 0.40225
 Zr269 Zr 0.62587 0.81969 0.37388
 O270 O 0.59738 0.84619 0.40269
 Zr271 Zr 0.62374 0.92977 0.37545
 O272 O 0.65323 0.90360 0.34683
 Zr273 Zr 0.57007 0.87546 0.37585
 O274 O 0.59636 0.84666 0.34659
 Zr275 Zr 0.62406 0.87604 0.42971
 O276 O 0.65291 0.84671 0.40356
 O277 O 0.65433 0.84541 0.34551
 O278 O 0.59520 0.90447 0.40440
 C279 C 0.62395 0.80443 0.30362
 C280 C 0.69568 0.87600 0.30396
 C281 C 0.69513 0.80348 0.37583
 C282 C 0.62349 0.94639 0.44462
 C283 C 0.55389 0.94502 0.37689
 C284 C 0.55419 0.87603 0.44543
 H285 H 0.58409 0.91476 0.33251
 H286 H 0.58453 0.83231 0.41528
 H287 H 0.66751 0.83231 0.33237
 H288 H 0.66720 0.91588 0.41471
 H289 H 0.67328 0.95850 0.36013
 H290 H 0.70786 0.92548 0.38101
 H291 H 0.54459 0.82360 0.36262
 H292 H 0.59614 0.76765 0.36894
 H293 H 0.61791 0.98078 0.34457
 H294 H 0.63301 0.90750 0.26992
 H295 H 0.61065 0.82611 0.45935
 H296 H 0.64098 0.79537 0.42605
 H297 H 0.59743 0.87010 0.26682
 H298 H 0.54464 0.86398 0.32360
 H299 H 0.70534 0.85907 0.42560
 H300 H 0.67340 0.89122 0.45958
 O301 O 0.62518 0.66662 0.20468
 O302 O 0.58942 0.62522 0.21164
 O303 O 0.70465 0.62278 0.16699
 O304 O 0.71635 0.59303 0.12647
 O305 O 0.66739 0.70462 0.12445
 O306 O 0.62721 0.71198 0.08918
 O307 O 0.62372 0.54393 0.08285
 O308 O 0.65946 0.53622 0.12162
 O309 O 0.54530 0.58245 0.12330
 O310 O 0.53728 0.62193 0.15928
 O311 O 0.58251 0.62313 0.04521
 O312 O 0.62585 0.65687 0.03462
 O313 O 0.62376 0.58094 0.04578
 O314 O 0.65953 0.62539 0.03619
 O315 O 0.54550 0.62368 0.08223
 O316 O 0.53783 0.65997 0.12199
 O317 O 0.58209 0.54520 0.12248
 O318 O 0.62235 0.53947 0.16241
 O319 O 0.62461 0.70364 0.16756
 O320 O 0.58899 0.71106 0.12401
 O321 O 0.70428 0.66740 0.12374
 O322 O 0.71143 0.62342 0.08805
 O323 O 0.66789 0.62465 0.20432
 O324 O 0.62676 0.58566 0.20841
 Zr325 Zr 0.62631 0.62516 0.17964
 O326 O 0.59730 0.59703 0.15308
 Zr327 Zr 0.68013 0.62538 0.12529
 O328 O 0.65361 0.59632 0.09705
 Zr329 Zr 0.62615 0.67949 0.12547
 O330 O 0.59762 0.65303 0.09674
 Zr331 Zr 0.62392 0.56939 0.12389
 O332 O 0.65345 0.59553 0.15244
 Zr333 Zr 0.57030 0.62381 0.12362
 O334 O 0.59663 0.65258 0.15280
 Zr335 Zr 0.62426 0.62314 0.06965
 O336 O 0.65315 0.65242 0.09573
 O337 O 0.65460 0.65372 0.15379
 O338 O 0.59538 0.59476 0.09500
 C339 C 0.62420 0.69474 0.19573
 C340 C 0.69590 0.62302 0.19523
 C341 C 0.69546 0.69559 0.12339
 C342 C 0.62361 0.55279 0.05469
 C343 C 0.55403 0.55426 0.12272
 C344 C 0.55440 0.62338 0.05410
 H345 H 0.58433 0.58447 0.16693
 H346 H 0.58477 0.66695 0.08417
 H347 H 0.66779 0.66679 0.16690
 H348 H 0.66737 0.58322 0.08456
 H349 H 0.67347 0.54057 0.13903
 H350 H 0.70807 0.57356 0.11820
 H351 H 0.54489 0.67575 0.13678
 H352 H 0.59650 0.73162 0.13044
 H353 H 0.61812 0.51840 0.15479
 H354 H 0.63325 0.59168 0.22942
 H355 H 0.61095 0.67314 0.04008
 H356 H 0.64132 0.70380 0.07330
 H357 H 0.59767 0.62910 0.23255
 H358 H 0.54490 0.63546 0.17590
 H359 H 0.70556 0.63999 0.07359
 H360 H 0.67356 0.60785 0.03968
 O361 O 0.37473 0.83371 0.70518
 O362 O 0.41065 0.87505 0.71194
 O363 O 0.29530 0.87767 0.66774
 O364 O 0.28366 0.90747 0.62727
 O365 O 0.33227 0.79569 0.62508
 O366 O 0.37237 0.78813 0.58972
 O367 O 0.37624 0.95618 0.58311
 O368 O 0.34066 0.96406 0.62203
 O369 O 0.45471 0.91750 0.62349
 O370 O 0.46270 0.87805 0.65936
 O371 O 0.41721 0.87683 0.54545
 O372 O 0.37375 0.84308 0.53510
 O373 O 0.37596 0.91905 0.54608
 O374 O 0.34016 0.87464 0.53672
 O375 O 0.45430 0.87626 0.58233
 O376 O 0.46192 0.83995 0.62207
 O377 O 0.41803 0.95486 0.62269
 O378 O 0.37785 0.96082 0.66269
 O379 O 0.37510 0.79662 0.66809
 O380 O 0.41066 0.78904 0.62444
 O381 O 0.29549 0.83302 0.62448
 O382 O 0.28833 0.87693 0.58884
 O383 O 0.33215 0.87581 0.70495
 O384 O 0.37340 0.91471 0.70881
 Zr385 Zr 0.37368 0.87514 0.68009
 O386 O 0.40270 0.90313 0.65336
 Zr387 Zr 0.31974 0.87497 0.62593
 O388 O 0.34628 0.90387 0.59754
 Zr389 Zr 0.37358 0.82070 0.62597
 O390 O 0.40211 0.84702 0.59708
 Zr391 Zr 0.37611 0.93080 0.62421
 O392 O 0.34659 0.90481 0.65294
 Zr393 Zr 0.42958 0.87623 0.62383
 O394 O 0.40324 0.84760 0.65316
 Zr395 Zr 0.37550 0.87692 0.57005
 O396 O 0.34659 0.84779 0.59630
 O397 O 0.34526 0.84661 0.65436
 O398 O 0.40452 0.90529 0.59525
 C399 C 0.37559 0.80556 0.69626
 C400 C 0.30410 0.87747 0.69596
 C401 C 0.30423 0.80480 0.62410
 C402 C 0.37620 0.94723 0.55495
 C403 C 0.44606 0.94571 0.62291
 C404 C 0.44535 0.87655 0.55423
 H405 H 0.41573 0.91568 0.66715
 H406 H 0.41491 0.83304 0.58449
 H407 H 0.33205 0.83360 0.66753
 H408 H 0.33252 0.91698 0.58508
 H409 H 0.32667 0.95979 0.63949
 H410 H 0.29194 0.92685 0.61881
 H411 H 0.45489 0.82425 0.63695
 H412 H 0.40311 0.76851 0.63091
 H413 H 0.38211 0.98186 0.65503
 H414 H 0.36696 0.90874 0.72986
 H415 H 0.38872 0.82685 0.54047
 H416 H 0.35830 0.79634 0.57385
 H417 H 0.40245 0.87122 0.73288
 H418 H 0.45506 0.86459 0.67602
 H419 H 0.29415 0.86035 0.57434
 H420 H 0.32612 0.89217 0.54029
 O421 O 0.87534 0.33287 0.70514
 O422 O 0.91106 0.37427 0.71216
 O423 O 0.79576 0.37670 0.66784
 O424 O 0.78382 0.40631 0.62740
 O425 O 0.83316 0.29494 0.62490
 O426 O 0.87330 0.28779 0.58949
 O427 O 0.87622 0.45588 0.58388
 O428 O 0.84062 0.46338 0.62283
 O429 O 0.95491 0.41745 0.62379
 O430 O 0.96311 0.37791 0.65964
 O431 O 0.91762 0.37694 0.54573
 O432 O 0.87444 0.34312 0.53509
 O433 O 0.87622 0.41896 0.54663
 O434 O 0.84057 0.37438 0.53699
 O435 O 0.95472 0.37635 0.58261
 O436 O 0.96257 0.33995 0.62221
 O437 O 0.91802 0.45460 0.62323
 O438 O 0.87787 0.46010 0.66342
 O439 O 0.87598 0.29595 0.66788
 O440 O 0.91157 0.28873 0.62421
 O441 O 0.79617 0.33207 0.62448
 O442 O 0.78886 0.37615 0.58892
 O443 O 0.83259 0.37480 0.70506
 O444 O 0.87368 0.41379 0.70921
 Zr445 Zr 0.87412 0.37438 0.68027
 O446 O 0.90302 0.40265 0.65375
 Zr447 Zr 0.82020 0.37414 0.62607
 O448 O 0.84658 0.40337 0.59790
 Zr449 Zr 0.87432 0.32018 0.62590
 O450 O 0.90272 0.34680 0.59718
 Zr451 Zr 0.87625 0.43030 0.62477
 O452 O 0.84684 0.40400 0.65328
 Zr453 Zr 0.93002 0.37603 0.62409
 O454 O 0.90382 0.34710 0.65323
 Zr455 Zr 0.87593 0.37669 0.57031
 O456 O 0.84719 0.34724 0.59634
 O457 O 0.84585 0.34581 0.65440
 O458 O 0.90478 0.40509 0.59567
 C459 C 0.87639 0.30479 0.69608
 C460 C 0.80457 0.37644 0.69605
 C461 C 0.80507 0.30390 0.62398
 C462 C 0.87628 0.44707 0.55569
 C463 C 0.94610 0.44562 0.62330
 C464 C 0.94575 0.37673 0.55452
 H465 H 0.91599 0.41521 0.66760
 H466 H 0.91558 0.33296 0.58451
 H467 H 0.83270 0.33269 0.66751
 H468 H 0.83275 0.41647 0.58552
 H469 H 0.82668 0.45895 0.64027
 H470 H 0.79211 0.42592 0.61948
 H471 H 0.95560 0.32413 0.63698
 H472 H 0.90413 0.26813 0.63060
 H473 H 0.88205 0.48120 0.65587
 H474 H 0.86724 0.40770 0.73022
 H475 H 0.88932 0.32681 0.54049
 H476 H 0.85915 0.29597 0.57367
 H477 H 0.90286 0.37032 0.73308
 H478 H 0.95556 0.36431 0.67623
 H479 H 0.79467 0.35955 0.57445
 H480 H 0.82653 0.39191 0.54055
 O481 O 0.79519 0.87452 0.16662
 O482 O 0.78824 0.91021 0.12508
 O483 O 0.83290 0.79487 0.12302
 O484 O 0.87335 0.78307 0.09330
 O485 O 0.87539 0.83254 0.20474
 O486 O 0.91051 0.87282 0.21197
 O487 O 0.91675 0.87561 0.04373
 O488 O 0.87809 0.83972 0.03626
 O489 O 0.87627 0.95421 0.08203
 O490 O 0.84043 0.96240 0.12155
 O491 O 0.95436 0.91729 0.12267
 O492 O 0.96505 0.87410 0.15668
 O493 O 0.95381 0.87576 0.08071
 O494 O 0.96343 0.84016 0.12542
 O495 O 0.91735 0.95429 0.12311
 O496 O 0.87777 0.96204 0.15954
 O497 O 0.87715 0.91722 0.04492
 O498 O 0.83733 0.87686 0.03936
 O499 O 0.83225 0.87530 0.20365
 O500 O 0.87575 0.91107 0.21086
 O501 O 0.87610 0.79547 0.16763
 O502 O 0.91171 0.78815 0.12370
 O503 O 0.79559 0.83165 0.12478
 O504 O 0.79142 0.87267 0.08565
 Zr505 Zr 0.82019 0.87329 0.12514
 O506 O 0.84667 0.90221 0.09684
 Zr507 Zr 0.87451 0.81946 0.12552
 O508 O 0.90268 0.84590 0.09632
 Zr509 Zr 0.87429 0.87373 0.17946
 O510 O 0.90296 0.90219 0.15283
 Zr511 Zr 0.87582 0.87546 0.06928
 O512 O 0.84734 0.84601 0.09558
 Zr513 Zr 0.87607 0.92939 0.12350
 O514 O 0.84697 0.90314 0.15243
 Zr515 Zr 0.93001 0.87545 0.12299
 O516 O 0.90401 0.84663 0.15244
 O517 O 0.84605 0.84510 0.15380
 O518 O 0.90464 0.90419 0.09450
 C519 C 0.80411 0.87563 0.19475
 C520 C 0.80469 0.80361 0.12323
 C521 C 0.87646 0.80441 0.19580
 C522 C 0.94489 0.87580 0.05254
 C523 C 0.87686 0.94533 0.05387
 C524 C 0.94545 0.94543 0.12276
 H525 H 0.83282 0.91513 0.08424
 H526 H 0.91551 0.91514 0.16667
 H527 H 0.83297 0.83194 0.16694
 H528 H 0.91515 0.83208 0.08325
 H529 H 0.86072 0.82571 0.04068
 H530 H 0.88166 0.79126 0.07380
 H531 H 0.86301 0.95507 0.17537
 H532 H 0.86929 0.90366 0.23146
 H533 H 0.84493 0.88100 0.01825
 H534 H 0.77046 0.86620 0.09173
 H535 H 0.95958 0.88908 0.17291
 H536 H 0.92645 0.85880 0.20377
 H537 H 0.76738 0.90198 0.12903
 H538 H 0.82390 0.95484 0.13520
 H539 H 0.92616 0.79414 0.14021
 H540 H 0.96000 0.82607 0.10790
 O541 O 0.37478 0.33247 0.20520
 O542 O 0.41051 0.37401 0.21217
 O543 O 0.29543 0.37609 0.16722
 O544 O 0.28370 0.40554 0.12658
 O545 O 0.33318 0.29420 0.12489
 O546 O 0.37356 0.28697 0.08969
 O547 O 0.37617 0.45504 0.08323
 O548 O 0.34033 0.46263 0.12203
 O549 O 0.45471 0.41693 0.12395
 O550 O 0.46272 0.37758 0.16008
 O551 O 0.41806 0.37606 0.04587
 O552 O 0.37502 0.34201 0.03508
 O553 O 0.37646 0.41793 0.04618
 O554 O 0.34105 0.37319 0.03659
 O555 O 0.45489 0.37567 0.08302
 O556 O 0.46256 0.33947 0.12274
 O557 O 0.41778 0.45401 0.12287
 O558 O 0.37740 0.45966 0.16281
 O559 O 0.37569 0.29540 0.16808
 O560 O 0.41162 0.28812 0.12467
 O561 O 0.29615 0.33127 0.12411
 O562 O 0.28896 0.37510 0.08826
 O563 O 0.33204 0.37440 0.20467
 O564 O 0.37302 0.41342 0.20894
 Zr565 Zr 0.37370 0.37392 0.18012
 O566 O 0.40266 0.40218 0.15363
 Zr567 Zr 0.32010 0.37339 0.12559
 O568 O 0.34659 0.40252 0.09741
 Zr569 Zr 0.37430 0.31950 0.12599
 O570 O 0.40283 0.34607 0.09733
 Zr571 Zr 0.37604 0.42965 0.12431
 O572 O 0.34655 0.40340 0.15281
 Zr573 Zr 0.42990 0.37546 0.12430
 O574 O 0.40360 0.34658 0.15339
 Zr575 Zr 0.37618 0.37578 0.07013
 O576 O 0.34732 0.34640 0.09614
 O577 O 0.34563 0.34522 0.15420
 O578 O 0.40481 0.40434 0.09555
 C579 C 0.37589 0.30432 0.19626
 C580 C 0.30407 0.37596 0.19548
 C581 C 0.30508 0.30311 0.12381
 C582 C 0.37639 0.44611 0.05507
 C583 C 0.44587 0.44508 0.12319
 C584 C 0.44612 0.37597 0.05487
 H585 H 0.41552 0.41483 0.16749
 H586 H 0.41581 0.33220 0.08482
 H587 H 0.33243 0.33214 0.16729
 H588 H 0.33281 0.41553 0.08488
 H589 H 0.32631 0.45823 0.13942
 H590 H 0.29195 0.42507 0.11843
 H591 H 0.45551 0.32366 0.13750
 H592 H 0.40417 0.26753 0.13107
 H593 H 0.38158 0.48072 0.15517
 H594 H 0.36654 0.40737 0.22994
 H595 H 0.38995 0.32580 0.04065
 H596 H 0.35947 0.29506 0.07377
 H597 H 0.40222 0.37005 0.23306
 H598 H 0.45519 0.36387 0.17660
 H599 H 0.29491 0.35846 0.07390
 H600 H 0.32688 0.39064 0.04003
 O601 O 0.37474 0.66764 0.79512
 O602 O 0.41066 0.62627 0.78817
 O603 O 0.29536 0.62366 0.83267
 O604 O 0.28366 0.59393 0.87313
 O605 O 0.33240 0.70554 0.87538
 O606 O 0.37255 0.71287 0.91073
 O607 O 0.37627 0.54479 0.91679
 O608 O 0.34067 0.53709 0.87788
 O609 O 0.45477 0.58342 0.87639
 O610 O 0.46270 0.62297 0.84053
 O611 O 0.41736 0.62388 0.95457
 O612 O 0.37406 0.65769 0.96521
 O613 O 0.37605 0.58181 0.95393
 O614 O 0.34029 0.62634 0.96347
 O615 O 0.45441 0.62449 0.91760
 O616 O 0.46205 0.66093 0.87799
 O617 O 0.41807 0.54613 0.87720
 O618 O 0.37785 0.54040 0.83718
 O619 O 0.37520 0.70463 0.83231
 O620 O 0.41080 0.71202 0.87591
 O621 O 0.29559 0.66829 0.87595
 O622 O 0.28850 0.62428 0.91160
 O623 O 0.33215 0.62559 0.79537
 O624 O 0.37336 0.58668 0.79123
 Zr625 Zr 0.37371 0.62614 0.82010
 O626 O 0.40273 0.59798 0.84664
 Zr627 Zr 0.31983 0.62628 0.87440
 O628 O 0.34637 0.59720 0.90260
 Zr629 Zr 0.37370 0.68043 0.87436
 O630 O 0.40224 0.65394 0.90308
 Zr631 Zr 0.37615 0.57029 0.87577
 O632 O 0.34662 0.59646 0.84723
 Zr633 Zr 0.42966 0.62475 0.87617
 O634 O 0.40331 0.65355 0.84703
 Zr635 Zr 0.37564 0.62402 0.93009
 O636 O 0.34673 0.65332 0.90404
 O637 O 0.34533 0.65465 0.84597
 O638 O 0.40460 0.59566 0.90473
 C639 C 0.37565 0.69576 0.80411
 C640 C 0.30414 0.62393 0.80443
 C641 C 0.30434 0.69650 0.87636
 C642 C 0.37626 0.55366 0.94497
 C643 C 0.44612 0.55521 0.87697
 C644 C 0.44548 0.62409 0.94571
 H645 H 0.41575 0.58544 0.83278
 H646 H 0.41507 0.66784 0.91569
 H647 H 0.33213 0.66772 0.83286
 H648 H 0.33261 0.58409 0.91505
 H649 H 0.32668 0.54146 0.86048
 H650 H 0.29199 0.57443 0.88130
 H651 H 0.45499 0.67673 0.86324
 H652 H 0.40326 0.73258 0.86952
 H653 H 0.38214 0.51933 0.84477
 H654 H 0.36693 0.59274 0.77021
 H655 H 0.38892 0.67399 0.95976
 H656 H 0.35845 0.70467 0.92658
 H657 H 0.40244 0.63019 0.76726
 H658 H 0.45510 0.63659 0.82398
 H659 H 0.29427 0.64090 0.92604
 H660 H 0.32627 0.60880 0.95994
 O661 O 0.12474 0.66778 0.70518
 O662 O 0.08908 0.62624 0.71213
 O663 O 0.20430 0.62419 0.66739
 O664 O 0.21617 0.59473 0.62675
 O665 O 0.16656 0.70601 0.62495
 O666 O 0.12630 0.71313 0.58967
 O667 O 0.12385 0.54509 0.58329
 O668 O 0.15958 0.53757 0.62210
 O669 O 0.04515 0.58316 0.62386
 O670 O 0.03696 0.62260 0.65987
 O671 O 0.08205 0.62393 0.54574
 O672 O 0.12510 0.65807 0.53510
 O673 O 0.12368 0.58215 0.54622
 O674 O 0.15906 0.62688 0.53666
 O675 O 0.04507 0.62429 0.58280
 O676 O 0.03725 0.66063 0.62251
 O677 O 0.08214 0.54611 0.62289
 O678 O 0.12242 0.54058 0.66286
 O679 O 0.12389 0.70479 0.66806
 O680 O 0.08814 0.71202 0.62459
 O681 O 0.20365 0.66898 0.62426
 O682 O 0.21100 0.62510 0.58844
 O683 O 0.16757 0.62589 0.70477
 O684 O 0.12657 0.58683 0.70893
 Zr685 Zr 0.12597 0.62631 0.68013
 O686 O 0.09710 0.59801 0.65358
 Zr687 Zr 0.17974 0.62683 0.62572
 O688 O 0.15336 0.59765 0.59749
 Zr689 Zr 0.12547 0.68065 0.62597
 O690 O 0.09705 0.65404 0.59726
 Zr691 Zr 0.12385 0.57053 0.62434
 O692 O 0.15323 0.59683 0.65289
 Zr693 Zr 0.06992 0.62465 0.62416
 O694 O 0.09611 0.65357 0.65332
 Zr695 Zr 0.12383 0.62432 0.57014
 O696 O 0.15259 0.65375 0.59619
 O697 O 0.15409 0.65501 0.65426
 O698 O 0.09514 0.59576 0.59550
 C699 C 0.12361 0.69590 0.69623
 C700 C 0.19558 0.62433 0.69564
 C701 C 0.19468 0.69713 0.62392
 C702 C 0.12372 0.55400 0.55514
 C703 C 0.05404 0.55501 0.62318
 C704 C 0.05394 0.62397 0.55466
 H705 H 0.08421 0.58537 0.66743
 H706 H 0.08409 0.66788 0.58471
 H707 H 0.16724 0.66812 0.66738
 H708 H 0.16719 0.58464 0.58499
 H709 H 0.17355 0.54200 0.63951
 H710 H 0.20795 0.57517 0.61863
 H711 H 0.04423 0.67645 0.63729
 H712 H 0.09556 0.73263 0.63098
 H713 H 0.11830 0.51950 0.65522
 H714 H 0.13301 0.59290 0.72994
 H715 H 0.11007 0.67422 0.54059
 H716 H 0.14045 0.70503 0.57378
 H717 H 0.09731 0.63020 0.73303
 H718 H 0.04448 0.63625 0.67643
 H719 H 0.20508 0.64171 0.57406
 H720 H 0.17325 0.60947 0.54016
 O721 O 0.12478 0.16665 0.20507
 O722 O 0.08884 0.12534 0.21180
 O723 O 0.20429 0.12262 0.16774
 O724 O 0.21613 0.09289 0.12726
 O725 O 0.16742 0.20459 0.12502
 O726 O 0.12740 0.21206 0.08960
 O727 O 0.12357 0.04404 0.08310
 O728 O 0.15913 0.03621 0.12203
 O729 O 0.04506 0.08271 0.12332
 O730 O 0.03696 0.12222 0.15920
 O731 O 0.08277 0.12327 0.04535
 O732 O 0.12621 0.15703 0.03502
 O733 O 0.12394 0.08110 0.04607
 O734 O 0.15982 0.12548 0.03672
 O735 O 0.04557 0.12384 0.08218
 O736 O 0.03779 0.16024 0.12187
 O737 O 0.08177 0.04537 0.12261
 O738 O 0.12186 0.03950 0.16268
 O739 O 0.12448 0.20369 0.16797
 O740 O 0.08904 0.21121 0.12428
 O741 O 0.20423 0.16728 0.12449
 O742 O 0.21147 0.12330 0.08884
 O743 O 0.16736 0.12454 0.20490
 O744 O 0.12610 0.08568 0.20876
 Zr745 Zr 0.12590 0.12520 0.18000
 O746 O 0.09697 0.09714 0.15328
 Zr747 Zr 0.17999 0.12532 0.12592
 O748 O 0.15355 0.09635 0.09752
 Zr749 Zr 0.12612 0.17956 0.12587
 O750 O 0.09767 0.15318 0.09698
 Zr751 Zr 0.12366 0.06946 0.12418
 O752 O 0.15310 0.09551 0.15291
 Zr753 Zr 0.07016 0.12400 0.12371
 O754 O 0.09641 0.15270 0.15304
 Zr755 Zr 0.12439 0.12326 0.07000
 O756 O 0.15321 0.15245 0.09625
 O757 O 0.15439 0.15370 0.15431
 O758 O 0.09532 0.09491 0.09518
 C759 C 0.12392 0.19478 0.19614
 C760 C 0.19541 0.12284 0.19595
 C761 C 0.19547 0.19550 0.12408
 C762 C 0.12364 0.05293 0.05494
 C763 C 0.05373 0.05449 0.12276
 C764 C 0.05461 0.12351 0.05409
 H765 H 0.08390 0.08461 0.16705
 H766 H 0.08491 0.16712 0.08435
 H767 H 0.16755 0.16673 0.16749
 H768 H 0.16733 0.08322 0.08508
 H769 H 0.17307 0.04050 0.13950
 H770 H 0.20785 0.07345 0.11893
 H771 H 0.04479 0.17599 0.13671
 H772 H 0.09657 0.23176 0.13075
 H773 H 0.11762 0.01845 0.15502
 H774 H 0.13248 0.09169 0.22981
 H775 H 0.11122 0.17327 0.04037
 H776 H 0.14154 0.20385 0.07376
 H777 H 0.09698 0.12921 0.23275
 H778 H 0.04453 0.13576 0.17584
 H779 H 0.20571 0.13988 0.07436
 H780 H 0.17381 0.10791 0.04026
 O781 O 0.70532 0.37554 0.83331
 O782 O 0.71222 0.41120 0.87486
 O783 O 0.66787 0.29581 0.87671
 O784 O 0.62744 0.28401 0.90651
 O785 O 0.62528 0.33340 0.79507
 O786 O 0.58999 0.37367 0.78794
 O787 O 0.58380 0.37638 0.95606
 O788 O 0.62256 0.34066 0.96356
 O789 O 0.62402 0.45515 0.91796
 O790 O 0.65985 0.46339 0.87841
 O791 O 0.54603 0.41810 0.87715
 O792 O 0.53555 0.37487 0.84306
 O793 O 0.54674 0.37649 0.91905
 O794 O 0.53716 0.34100 0.87433
 O795 O 0.58292 0.45517 0.87679
 O796 O 0.62257 0.46298 0.84042
 O797 O 0.62325 0.41815 0.95501
 O798 O 0.66319 0.37788 0.96049
 O799 O 0.66826 0.37624 0.79627
 O800 O 0.62475 0.41191 0.78899
 O801 O 0.62468 0.29634 0.83214
 O802 O 0.58909 0.28897 0.87607
 O803 O 0.70507 0.33265 0.87505
 O804 O 0.70906 0.37369 0.91428
 Zr805 Zr 0.68034 0.37426 0.87476
 O806 O 0.65379 0.40319 0.90305
 Zr807 Zr 0.62618 0.32035 0.87428
 O808 O 0.59795 0.34679 0.90347
 Zr809 Zr 0.62624 0.37461 0.82041
 O810 O 0.59752 0.40309 0.84704
 Zr811 Zr 0.62472 0.37639 0.93057
 O812 O 0.65327 0.34695 0.90428
 Zr813 Zr 0.62430 0.43033 0.87643
 O814 O 0.65347 0.40408 0.84750
 Zr815 Zr 0.57053 0.37629 0.87681
 O816 O 0.59661 0.34747 0.84738
 O817 O 0.65457 0.34604 0.84605
 O818 O 0.59580 0.40507 0.90537
 C819 C 0.69638 0.37661 0.80519
 C820 C 0.69606 0.30458 0.87652
 C821 C 0.62429 0.30527 0.80398
 C822 C 0.55570 0.37648 0.94719
 C823 C 0.62346 0.44627 0.94612
 C824 C 0.55484 0.44627 0.87709
 H825 H 0.66759 0.41613 0.91568
 H826 H 0.58495 0.41601 0.83320
 H827 H 0.66768 0.33289 0.83290
 H828 H 0.58551 0.33295 0.91650
 H829 H 0.63997 0.32668 0.95913
 H830 H 0.61907 0.29220 0.92599
 H831 H 0.63729 0.45596 0.82456
 H832 H 0.63115 0.40444 0.76838
 H833 H 0.65559 0.38199 0.98161
 H834 H 0.73005 0.36721 0.90822
 H835 H 0.54096 0.38991 0.82689
 H836 H 0.57416 0.35951 0.79606
 H837 H 0.73311 0.40297 0.87095
 H838 H 0.67644 0.45580 0.86481
 H839 H 0.57462 0.29493 0.85956
 H840 H 0.54074 0.32681 0.89173
 O841 O 0.12469 0.83385 0.79521
 O842 O 0.08905 0.87542 0.78833
 O843 O 0.20410 0.87730 0.83331
 O844 O 0.21566 0.90679 0.87406
 O845 O 0.16646 0.79533 0.87536
 O846 O 0.12609 0.78804 0.91057
 O847 O 0.12313 0.95600 0.91765
 O848 O 0.15892 0.96376 0.87896
 O849 O 0.04462 0.91802 0.87668
 O850 O 0.03670 0.87870 0.84050
 O851 O 0.08132 0.87681 0.95474
 O852 O 0.12454 0.84277 0.96528
 O853 O 0.12290 0.91879 0.95455
 O854 O 0.15827 0.87413 0.96406
 O855 O 0.04449 0.87657 0.91759
 O856 O 0.03694 0.84052 0.87764
 O857 O 0.08150 0.95512 0.87787
 O858 O 0.12195 0.96087 0.83809
 O859 O 0.12385 0.79668 0.83218
 O860 O 0.08806 0.78918 0.87555
 O861 O 0.20343 0.83242 0.87631
 O862 O 0.21054 0.87616 0.91227
 O863 O 0.16749 0.87573 0.79586
 O864 O 0.12645 0.91484 0.79184
 Zr865 Zr 0.12580 0.87521 0.82044
 O866 O 0.09675 0.90334 0.84704
 Zr867 Zr 0.17939 0.87454 0.87494
 O868 O 0.15279 0.90354 0.90325
 Zr869 Zr 0.12528 0.82064 0.87437
 O870 O 0.09665 0.84708 0.90311
 Zr871 Zr 0.12329 0.93075 0.87648
 O872 O 0.15287 0.90463 0.84787
 Zr873 Zr 0.06952 0.87655 0.87629
 O874 O 0.09593 0.84780 0.84708
 Zr875 Zr 0.12322 0.87672 0.93044
 O876 O 0.15220 0.84748 0.90432
 O877 O 0.15391 0.84643 0.84624
 O878 O 0.09454 0.90537 0.90516
 C879 C 0.12359 0.80569 0.80405
 C880 C 0.19548 0.87724 0.80502
 C881 C 0.19455 0.80425 0.87651
 C882 C 0.12295 0.94698 0.94577
 C883 C 0.05342 0.94618 0.87745
 C884 C 0.05323 0.87670 0.94576
 H885 H 0.08387 0.91602 0.83322
 H886 H 0.08369 0.83315 0.91556
 H887 H 0.16713 0.83338 0.83309
 H888 H 0.16654 0.91651 0.91585
 H889 H 0.17298 0.95942 0.86158
 H890 H 0.20739 0.92623 0.88245
 H891 H 0.04408 0.82474 0.86287
 H892 H 0.09558 0.76860 0.86913
 H893 H 0.11775 0.98192 0.84580
 H894 H 0.13299 0.90889 0.77082
 H895 H 0.10955 0.82663 0.95971
 H896 H 0.14023 0.79607 0.92648
 H897 H 0.09737 0.87158 0.76743
 H898 H 0.04435 0.86516 0.82389
 H899 H 0.20455 0.85955 0.92662
 H900 H 0.17254 0.89146 0.96054
 O901 O 0.70518 0.12493 0.66694
 O902 O 0.71201 0.08919 0.62539
 O903 O 0.66770 0.20467 0.62348
 O904 O 0.62726 0.21656 0.59383
 O905 O 0.62516 0.16722 0.70527
 O906 O 0.58986 0.12701 0.71250
 O907 O 0.58358 0.12412 0.54433
 O908 O 0.62233 0.15987 0.53677
 O909 O 0.62388 0.04540 0.58246
 O910 O 0.65969 0.03716 0.62199
 O911 O 0.54588 0.08261 0.62329
 O912 O 0.53536 0.12582 0.65739
 O913 O 0.54654 0.12414 0.58141
 O914 O 0.53705 0.15975 0.62615
 O915 O 0.58277 0.04549 0.62359
 O916 O 0.62233 0.03762 0.65998
 O917 O 0.62308 0.08237 0.54537
 O918 O 0.66300 0.12263 0.53979
 O919 O 0.66814 0.12430 0.70405
 O920 O 0.62457 0.08870 0.71139
 O921 O 0.62455 0.20425 0.66817
 O922 O 0.58890 0.21162 0.62429
 O923 O 0.70489 0.16778 0.62515
 O924 O 0.70891 0.12673 0.58598
 Zr925 Zr 0.68017 0.12621 0.62552
 O926 O 0.65361 0.09733 0.59727
 Zr927 Zr 0.62601 0.18020 0.62604
 O928 O 0.59777 0.15381 0.59689
 Zr929 Zr 0.62610 0.12599 0.67996
 O930 O 0.59735 0.09756 0.65337
 Zr931 Zr 0.62452 0.12415 0.56977
 O932 O 0.65309 0.15355 0.59603
 Zr933 Zr 0.62414 0.07026 0.62397
 O934 O 0.65331 0.09646 0.65285
 Zr935 Zr 0.57036 0.12437 0.62362
 O936 O 0.59645 0.15315 0.65302
 O937 O 0.65441 0.15449 0.65425
 O938 O 0.59563 0.09554 0.59504
 C939 C 0.69627 0.12388 0.69509
 C940 C 0.69588 0.19585 0.62365
 C941 C 0.62418 0.19535 0.69634
 C942 C 0.55547 0.12405 0.55324
 C943 C 0.62331 0.05426 0.55430
 C944 C 0.55470 0.05444 0.62330
 H945 H 0.66741 0.08437 0.58463
 H946 H 0.58478 0.08465 0.66723
 H947 H 0.66754 0.16763 0.66737
 H948 H 0.58533 0.16766 0.58386
 H949 H 0.63974 0.17384 0.54116
 H950 H 0.61893 0.20837 0.57434
 H951 H 0.63704 0.04461 0.67584
 H952 H 0.63102 0.09615 0.73198
 H953 H 0.65538 0.11850 0.51869
 H954 H 0.72991 0.13314 0.59203
 H955 H 0.54080 0.11082 0.67358
 H956 H 0.57401 0.14115 0.70437
 H957 H 0.73291 0.09738 0.62929
 H958 H 0.67623 0.04468 0.63564
 H959 H 0.57447 0.20571 0.64087
 H960 H 0.54054 0.17386 0.60866
 C961 C 0.37633 0.78217 0.71953
 C962 C 0.37664 0.76235 0.73891
 C963 C 0.37665 0.73905 0.76154
 C964 C 0.37637 0.71921 0.78090
 C965 C 0.37627 0.21783 0.28074
 C966 C 0.37664 0.23768 0.26139
 C967 C 0.37675 0.26103 0.23883
 C968 C 0.37654 0.28090 0.21950
 C969 C 0.62323 0.78102 0.28039
 C970 C 0.62296 0.76121 0.26100
 C971 C 0.62303 0.73795 0.23836
 C972 C 0.62339 0.71813 0.21897
 C973 C 0.12300 0.28115 0.28075
 C974 C 0.12270 0.26131 0.26138
 C975 C 0.12275 0.23802 0.23876
 C976 C 0.12310 0.21819 0.21938
 C977 C 0.12283 0.71932 0.71945
 C978 C 0.12251 0.73919 0.73879
 C979 C 0.12252 0.76252 0.76137
 C980 C 0.12283 0.78235 0.78074
 C981 C 0.87731 0.21846 0.78048
 C982 C 0.87762 0.23827 0.76113
 C983 C 0.87759 0.26153 0.73855
 C984 C 0.87723 0.28135 0.71922
 C985 C 0.78127 0.37730 0.71933
 C986 C 0.76179 0.37767 0.73901
 C987 C 0.73905 0.37772 0.76211
 C988 C 0.71960 0.37741 0.78183
 C989 C 0.28080 0.62315 0.78117
 C990 C 0.26129 0.62288 0.76153
 C991 C 0.23848 0.62299 0.73848
 C992 C 0.21895 0.62342 0.71885
 C993 C 0.28031 0.12191 0.28183
 C994 C 0.26081 0.12155 0.26217
 C995 C 0.23807 0.12156 0.23904
 C996 C 0.21864 0.12194 0.21931
 C997 C 0.78133 0.12282 0.78080
 C998 C 0.76180 0.12254 0.76116
 C999 C 0.73900 0.12261 0.73810
 C1000 C 0.71952 0.12301 0.71842
 C1001 C 0.71905 0.87674 0.28068
 C1002 C 0.73858 0.87699 0.26100
 C1003 C 0.76138 0.87689 0.23788
 C1004 C 0.78086 0.87649 0.21815
 C1005 C 0.78131 0.71901 0.37644
 C1006 C 0.76152 0.73836 0.37678
 C1007 C 0.73830 0.76096 0.37682
 C1008 C 0.71851 0.78031 0.37655
 C1009 C 0.78172 0.28068 0.62314
 C1010 C 0.76198 0.26128 0.62275
 C1011 C 0.73884 0.23860 0.62265
 C1012 C 0.71913 0.21915 0.62290
 C1013 C 0.71886 0.71875 0.12259
 C1014 C 0.73863 0.73812 0.12224
 C1015 C 0.76180 0.76079 0.12219
 C1016 C 0.78149 0.78024 0.12247
 C1017 C 0.28175 0.27987 0.12311
 C1018 C 0.26198 0.26050 0.12287
 C1019 C 0.23875 0.23791 0.12296
 C1020 C 0.21893 0.21860 0.12332
 C1021 C 0.28086 0.71965 0.87712
 C1022 C 0.26102 0.73900 0.87745
 C1023 C 0.23774 0.76162 0.87748
 C1024 C 0.21793 0.78100 0.87721
 C1025 C 0.28110 0.21888 0.37724
 C1026 C 0.26129 0.23821 0.37747
 C1027 C 0.23804 0.26079 0.37738
 C1028 C 0.21826 0.28014 0.37700
 C1029 C 0.53110 0.62340 1.03081
 C1030 C 0.51145 0.62349 1.01132
 C1031 C 0.48840 0.62367 0.98852
 C1032 C 0.46875 0.62385 0.96902
 C1033 C 0.46920 0.12353 0.46878
 C1034 C 0.48904 0.12360 0.48809
 C1035 C 0.51232 0.12373 0.51065
 C1036 C 0.53212 0.12387 0.53000
 C1037 C 0.53089 0.87622 0.46879
 C1038 C 0.51126 0.87636 0.48836
 C1039 C 0.48824 0.87648 0.51125
 C1040 C 0.46861 0.87653 0.53083
 C1041 C 1.03113 0.37672 0.46915
 C1042 C 1.01153 0.37685 0.48871
 C1043 C 0.98856 0.37691 0.51159
 C1044 C 0.96897 0.37688 0.53116
 C1045 C -0.03304 0.87605 1.03047
 C1046 C -0.01328 0.87628 1.01102
 C1047 C 0.00995 0.87651 0.98834
 C1048 C 0.02977 0.87664 0.96896
 C1049 C -0.03065 0.12336 -0.03140
 C1050 C -0.01106 0.12332 -0.01183
 C1051 C 0.01188 0.12334 0.01108
 C1052 C 0.03143 0.12340 0.03068
 C1053 C 0.12338 1.03098 1.03274
 C1054 C 0.12317 1.01172 1.01279
 C1055 C 0.12298 0.98930 0.98931
 C1056 C 0.12291 0.97009 0.96932
 C1057 C 0.12382 0.46973 0.46847
 C1058 C 0.12373 0.48902 0.48838
 C1059 C 0.12368 0.51150 0.51179
 C1060 C 0.12367 0.53079 0.53170
 C1061 C 0.37651 0.46931 1.03161
 C1062 C 0.37655 0.48859 1.01169
 C1063 C 0.37652 0.51110 0.98828
 C1064 C 0.37643 0.53040 0.96838
 C1065 C 0.87637 0.53168 0.46960
 C1066 C 0.87643 0.51236 0.48943
 C1067 C 0.87644 0.48976 0.51266
 C1068 C 0.87639 0.47037 0.53242
 C1069 C 0.87697 1.02991 -0.03225
 C1070 C 0.87713 1.01053 -0.01247
 C1071 C 0.87720 0.98793 0.01075
 C1072 C 0.87713 0.96856 0.03053
 C1073 C 0.62322 -0.03035 0.46799
 C1074 C 0.62304 -0.01098 0.48781
 C1075 C 0.62295 0.01163 0.51110
 C1076 C 0.62302 0.03101 0.53092
 C1077 C 0.46900 1.03085 0.37773
 C1078 C 0.48844 1.01114 0.37782
 C1079 C 0.51114 0.98800 0.37770
 C1080 C 0.53058 0.96829 0.37741
 C1081 C -0.03134 -0.03119 0.12248
 C1082 C -0.01191 -0.01146 0.12232
 C1083 C 0.01083 0.01165 0.12227
 C1084 C 0.03034 0.03130 0.12239
 C1085 C 0.53069 0.53100 0.12240
 C1086 C 0.51124 0.51130 0.12232
 C1087 C 0.48854 0.48815 0.12245
 C1088 C 0.46912 0.46841 0.12271
 C1089 C -0.03063 0.46893 0.62287
 C1090 C -0.01122 0.48868 0.62267
 C1091 C 0.01143 0.51188 0.62264
 C1092 C 0.03082 0.53164 0.62280
 C1093 C 0.46956 0.53199 0.87730
 C1094 C 0.48913 0.51235 0.87744
 C1095 C 0.51199 0.48929 0.87744
 C1096 C 0.53152 0.46961 0.87732
 C1097 C 0.62334 0.53079 1.03255
 C1098 C 0.62315 0.51142 1.01271
 C1099 C 0.62307 0.48884 0.98939
 C1100 C 0.62315 0.46950 0.96953
 C1101 C 0.37640 1.03126 0.46799
 C1102 C 0.37647 1.01204 0.48798
 C1103 C 0.37646 0.98963 0.51148
 C1104 C 0.37638 0.97040 0.53146
 C1105 C -0.03177 0.62326 0.46964
 C1106 C -0.01214 0.62326 0.48916
 C1107 C 0.01092 0.62342 0.51194
 C1108 C 0.03061 0.62364 0.53141
 C1109 C 0.46955 0.37619 1.03173
 C1110 C 0.48937 0.37634 1.01241
 C1111 C 0.51261 0.37646 0.98982
 C1112 C 0.53239 0.37651 0.97045
 C1113 C 0.46949 -0.03112 0.62262
 C1114 C 0.48906 -0.01153 0.62259
 C1115 C 0.51189 0.01149 0.62273
 C1116 C 0.53140 0.03114 0.62296
 C1117 C -0.03013 0.53183 0.37717
 C1118 C -0.01079 0.51202 0.37740
 C1119 C 0.01176 0.48872 0.37752
 C1120 C 0.03107 0.46889 0.37745
 C1121 C -0.03152 1.03225 0.87722
 C1122 C -0.01206 1.01250 0.87755
 C1123 C 0.01067 0.98930 0.87775
 C1124 C 0.03011 0.96954 0.87773
 C1125 C 0.78076 0.62244 0.28112
 C1126 C 0.76138 0.62204 0.26135
 C1127 C 0.73869 0.62195 0.23818
 C1128 C 0.71923 0.62223 0.21848
 C1129 C 0.28078 0.87831 0.71931
 C1130 C 0.26129 0.87863 0.73903
 C1131 C 0.23848 0.87856 0.76215
 C1132 C 0.21893 0.87816 0.78182
 C1133 C 0.21889 0.37687 0.28104
 C1134 C 0.23837 0.37720 0.26136
 C1135 C 0.26114 0.37719 0.23828
 C1136 C 0.28066 0.37683 0.21865
 C1137 C 0.87723 0.71838 0.28050
 C1138 C 0.87759 0.73809 0.26105
 C1139 C 0.87760 0.76128 0.23840
 C1140 C 0.87727 0.78106 0.21902
 C1141 C 0.62354 0.28187 0.78074
 C1142 C 0.62322 0.26200 0.76142
 C1143 C 0.62319 0.23864 0.73888
 C1144 C 0.62347 0.21876 0.71956
 C1145 C 0.78189 0.21950 0.87682
 C1146 C 0.76216 0.23896 0.87724
 C1147 C 0.73902 0.26172 0.87739
 C1148 C 0.71933 0.28121 0.87719
 C1149 C 0.28077 0.78170 0.62334
 C1150 C 0.26095 0.76238 0.62301
 C1151 C 0.23773 0.73978 0.62296
 C1152 C 0.21798 0.72039 0.62322
   
