data_POSCAR
  _audit_creation_date              2014-09-24
  _audit_creation_method            'ToBaCCo'
  _symmetry_space_group_name_H-M    'P1'
  _symmetry_Int_Tables_number       1
  _symmetry_cell_setting            triclinic
  loop_
  _symmetry_equiv_pos_as_xyz
 x,y,z
_cell_length_a 53.7977
_cell_length_b 53.2245
_cell_length_c 53.8400
_cell_angle_alpha 89.969100
_cell_angle_beta 89.986700
_cell_angle_gamma 89.999500
loop_
  _atom_site_label
  _atom_site_type_symbol
  _atom_site_fract_x
  _atom_site_fract_y
  _atom_site_fract_z
N1 N 0.59617 0.66401 0.61379
 N2 N 0.58618 0.65343 0.63350
 C3 C 0.56597 0.66670 0.64036
 C4 C 0.56332 0.68647 0.62405
 C5 C 0.58267 0.68433 0.60742
 H6 H 0.55409 0.66238 0.65599
 H7 H 0.58662 0.69661 0.59190
 Cu8 Cu 0.60058 0.62340 0.64826
 Cu9 Cu 0.62587 0.65071 0.59787
 Cu10 Cu 0.65251 0.59778 0.62437
 N11 N 0.61607 0.59403 0.66324
 N12 N 0.63638 0.58410 0.65379
 C13 C 0.64317 0.56412 0.66758
 C14 C 0.62618 0.56156 0.68655
 C15 C 0.60923 0.58070 0.68341
 H16 H 0.65920 0.55239 0.66406
 H17 H 0.59320 0.58458 0.69492
 N18 N 0.66609 0.61433 0.59457
 N19 N 0.65594 0.63450 0.58447
 C20 C 0.66940 0.64128 0.56444
 C21 C 0.68879 0.62459 0.56197
 C22 C 0.68627 0.60776 0.58123
 H23 H 0.66543 0.65713 0.55251
 H24 H 0.69825 0.59193 0.58515
 H25 H 0.62111 0.61384 0.60897
 H26 H 0.64041 0.63429 0.62951
 N27 N 0.90409 0.33460 0.11402
 N28 N 0.91352 0.34452 0.13433
 C29 C 0.93370 0.33120 0.14118
 C30 C 0.93686 0.31206 0.12424
 C31 C 0.91789 0.31463 0.10725
 H32 H 0.94520 0.33507 0.15720
 H33 H 0.91440 0.30290 0.09122
 Cu34 Cu 0.89854 0.37388 0.14979
 Cu35 Cu 0.87467 0.34828 0.09789
 Cu36 Cu 0.84817 0.40122 0.12446
 N37 N 0.88378 0.40392 0.16414
 N38 N 0.86408 0.41452 0.15414
 C39 C 0.85772 0.43485 0.16759
 C40 C 0.87434 0.43699 0.18694
 C41 C 0.89064 0.41719 0.18432
 H42 H 0.84222 0.44715 0.16362
 H43 H 0.90627 0.41287 0.19621
 N44 N 0.83477 0.38501 0.09442
 N45 N 0.84487 0.36483 0.08429
 C46 C 0.83152 0.35825 0.06414
 C47 C 0.81225 0.37508 0.06161
 C48 C 0.81473 0.39179 0.08097
 H49 H 0.83544 0.34242 0.05219
 H50 H 0.80279 0.40763 0.08493
 H51 H 0.87984 0.38479 0.10997
 H52 H 0.85923 0.36435 0.12924
 N53 N 0.40335 0.16558 -0.11435
 N54 N 0.41277 0.15565 -0.13465
 C55 C 0.43296 0.16895 -0.14149
 C56 C 0.43618 0.18809 -0.12457
 C57 C 0.41719 0.18552 -0.10760
 H58 H 0.44447 0.16506 -0.15750
 H59 H 0.41373 0.19726 -0.09157
 Cu60 Cu 0.39775 0.12631 -0.15011
 Cu61 Cu 0.37391 0.15195 -0.09821
 Cu62 Cu 0.34734 0.09904 -0.12476
 N63 N 0.38296 0.09627 -0.16444
 N64 N 0.36325 0.08570 -0.15443
 C65 C 0.35689 0.06535 -0.16785
 C66 C 0.37353 0.06317 -0.18719
 C67 C 0.38984 0.08296 -0.18459
 H68 H 0.34139 0.05306 -0.16386
 H69 H 0.40548 0.08725 -0.19647
 N70 N 0.33395 0.11529 -0.09473
 N71 N 0.34408 0.13545 -0.08461
 C72 C 0.33074 0.14205 -0.06445
 C73 C 0.31145 0.12525 -0.06191
 C74 C 0.31390 0.10854 -0.08127
 H75 H 0.33468 0.15788 -0.05250
 H76 H 0.30195 0.09271 -0.08521
 H77 H 0.37904 0.11544 -0.11029
 H78 H 0.35846 0.13590 -0.12956
 N79 N 0.09551 0.83504 0.38654
 N80 N 0.08547 0.84563 0.36686
 C81 C 0.06531 0.83231 0.35998
 C82 C 0.06277 0.81250 0.37627
 C83 C 0.08211 0.81466 0.39290
 H84 H 0.05339 0.83663 0.34437
 H85 H 0.08612 0.80237 0.40840
 Cu86 Cu 0.09975 0.87575 0.35215
 Cu87 Cu 0.12517 0.84844 0.40246
 Cu88 Cu 0.15158 0.90154 0.37606
 N89 N 0.11511 0.90522 0.33723
 N90 N 0.13538 0.91521 0.34669
 C91 C 0.14208 0.93523 0.33292
 C92 C 0.12509 0.93779 0.31395
 C93 C 0.10823 0.91856 0.31709
 H94 H 0.15806 0.94703 0.33643
 H95 H 0.09224 0.91465 0.30557
 N96 N 0.16524 0.88498 0.40581
 N97 N 0.15518 0.86474 0.41587
 C98 C 0.16867 0.85797 0.43588
 C99 C 0.18798 0.87474 0.43838
 C100 C 0.18539 0.89161 0.41916
 H101 H 0.16477 0.84208 0.44778
 H102 H 0.19729 0.90750 0.41527
 H103 H 0.12025 0.88531 0.39145
 H104 H 0.13963 0.86500 0.37084
 C105 C 0.11370 0.14664 0.11462
 C106 C 0.13501 0.13588 0.10404
 C107 C 0.14559 0.11471 0.11467
 C108 C 0.13498 0.10405 0.13601
 C109 C 0.11392 0.11468 0.14646
 C110 C 0.10322 0.13610 0.13570
 C111 C 0.09947 0.16717 0.10827
 N112 N 0.08078 0.16918 0.12500
 C113 C 0.08278 0.15039 0.14184
 C114 C 0.10774 0.10047 0.16693
 N115 N 0.12453 0.08163 0.16899
 C116 C 0.14127 0.08354 0.15030
 C117 C 0.16600 0.10839 0.10055
 N118 N 0.16790 0.12522 0.08177
 C119 C 0.14916 0.14210 0.08362
 H120 H 0.10244 0.17970 0.09269
 H121 H 0.07031 0.14739 0.15735
 H122 H 0.09224 0.10356 0.17940
 H123 H 0.15681 0.07095 0.14736
 H124 H 0.17853 0.09278 0.10366
 H125 H 0.14610 0.15769 0.07106
 C126 C 0.38591 0.85333 0.61473
 C127 C 0.36460 0.86404 0.60411
 C128 C 0.35402 0.88524 0.61466
 C129 C 0.36461 0.89598 0.63595
 C130 C 0.38567 0.88538 0.64645
 C131 C 0.39638 0.86393 0.63578
 C132 C 0.40014 0.83278 0.60846
 N133 N 0.41883 0.83082 0.62520
 C134 C 0.41682 0.84966 0.64197
 C135 C 0.39183 0.89966 0.66686
 N136 N 0.37503 0.91850 0.66884
 C137 C 0.35831 0.91653 0.65014
 C138 C 0.33361 0.89151 0.60051
 N139 N 0.33173 0.87463 0.58180
 C140 C 0.35047 0.85776 0.58372
 H141 H 0.39718 0.82020 0.59294
 H142 H 0.42929 0.85271 0.65746
 H143 H 0.40733 0.89662 0.67934
 H144 H 0.34277 0.92910 0.64715
 H145 H 0.32108 0.90713 0.60355
 H146 H 0.35354 0.84213 0.57121
 C147 C 0.88674 0.64627 0.38559
 C148 C 0.86544 0.63552 0.39621
 C149 C 0.85485 0.61435 0.38562
 C150 C 0.86543 0.60368 0.36429
 C151 C 0.88648 0.61430 0.35379
 C152 C 0.89720 0.63572 0.36451
 C153 C 0.90097 0.66681 0.39189
 N154 N 0.91964 0.66881 0.37514
 C155 C 0.91762 0.65002 0.35832
 C156 C 0.89263 0.60008 0.33333
 N157 N 0.87582 0.58125 0.33132
 C158 C 0.85911 0.58317 0.35004
 C159 C 0.83445 0.60805 0.39976
 N160 N 0.83257 0.62488 0.41852
 C161 C 0.85132 0.64176 0.41663
 H162 H 0.89801 0.67935 0.40745
 H163 H 0.93008 0.64701 0.34280
 H164 H 0.90811 0.60315 0.32084
 H165 H 0.84358 0.57059 0.35301
 H166 H 0.82191 0.59244 0.39669
 H167 H 0.85439 0.65735 0.42917
 C168 C 0.61446 0.35406 -0.11484
 C169 C 0.63579 0.36477 -0.10426
 C170 C 0.64644 0.38589 -0.11492
 C171 C 0.63590 0.39655 -0.13628
 C172 C 0.61482 0.38597 -0.14673
 C173 C 0.60404 0.36460 -0.13595
 C174 C 0.60016 0.33358 -0.10848
 N175 N 0.58148 0.33160 -0.12522
 C176 C 0.58357 0.35036 -0.14210
 C177 C 0.60871 0.40016 -0.16723
 N178 N 0.62557 0.41894 -0.16931
 C179 C 0.64227 0.41702 -0.15059
 C180 C 0.66686 0.39216 -0.10079
 N181 N 0.66868 0.37535 -0.08199
 C182 C 0.64989 0.35853 -0.08382
 H183 H 0.60307 0.32106 -0.09289
 H184 H 0.57113 0.35338 -0.15762
 H185 H 0.59322 0.39711 -0.17971
 H186 H 0.65784 0.42956 -0.14766
 H187 H 0.67945 0.40772 -0.10391
 H188 H 0.64677 0.34296 -0.07124
 C189 C -0.04503 0.29425 0.12431
 C190 C -0.02899 0.27844 0.12438
 C191 C -0.00986 0.25954 0.12447
 C192 C 0.00104 0.25204 0.14692
 C193 C 0.01959 0.23363 0.14701
 C194 C 0.02731 0.22263 0.12467
 C195 C 0.01643 0.23015 0.10222
 C196 C -0.00212 0.24856 0.10212
 C197 C 0.04635 0.20364 0.12477
 C198 C 0.06228 0.18771 0.12487
 H199 H -0.00481 0.26041 0.16431
 H200 H 0.02788 0.22795 0.16448
 H201 H 0.02226 0.22177 0.08483
 H202 H -0.01043 0.25422 0.08466
 C203 C 0.54431 0.70540 0.62430
 C204 C 0.52835 0.72130 0.62448
 C205 C 0.50930 0.74028 0.62465
 C206 C 0.50729 0.75683 0.64478
 C207 C 0.48880 0.77531 0.64492
 C208 C 0.47224 0.77731 0.62494
 C209 C 0.47424 0.76075 0.60481
 C210 C 0.49273 0.74228 0.60467
 C211 C 0.45325 0.79634 0.62506
 C212 C 0.43733 0.81229 0.62513
 H213 H 0.52001 0.75546 0.66033
 H214 H 0.48742 0.78802 0.66058
 H215 H 0.46154 0.76214 0.58926
 H216 H 0.49412 0.72958 0.58901
 C217 C 1.04483 0.79452 0.37604
 C218 C 1.02892 0.77857 0.37586
 C219 C 1.00993 0.75953 0.37570
 C220 C 1.00359 0.74746 0.35347
 C221 C 0.98515 0.72893 0.35333
 C222 C 0.97298 0.72241 0.37542
 C223 C 0.97932 0.73448 0.39765
 C224 C 0.99776 0.75301 0.39779
 C225 C 0.95401 0.70334 0.37529
 C226 C 0.93812 0.68737 0.37521
 H227 H 1.01288 0.75236 0.33628
 H228 H 0.98039 0.71971 0.33604
 H229 H 0.97003 0.72958 0.41484
 H230 H 1.00252 0.76222 0.41509
 C231 C 0.45536 0.20686 -0.12464
 C232 C 0.47144 0.22263 -0.12470
 C233 C 0.49061 0.24148 -0.12478
 C234 C 0.50102 0.24967 -0.10235
 C235 C 0.51962 0.26804 -0.10242
 C236 C 0.52788 0.27829 -0.12494
 C237 C 0.51748 0.27009 -0.14737
 C238 C 0.49888 0.25173 -0.14729
 C239 C 0.54697 0.29723 -0.12502
 C240 C 0.56294 0.31312 -0.12511
 H241 H 0.49476 0.24188 -0.08483
 H242 H 0.52753 0.27424 -0.08497
 H243 H 0.52372 0.27790 -0.16488
 H244 H 0.49095 0.24553 -0.16474
 C245 C 0.12498 -0.04336 0.29485
 C246 C 0.12490 -0.02752 0.27884
 C247 C 0.12482 -0.00859 0.25975
 C248 C 0.12248 0.01682 0.26613
 C249 C 0.12242 0.03524 0.24758
 C250 C 0.12470 0.02831 0.22258
 C251 C 0.12704 0.00290 0.21620
 C252 C 0.12710 -0.01551 0.23475
 C253 C 0.12465 0.04726 0.20350
 C254 C 0.12460 0.06315 0.18754
 H255 H 0.12070 0.02239 0.28540
 H256 H 0.12060 0.05483 0.25272
 H257 H 0.12882 -0.00266 0.19692
 H258 H 0.12892 -0.03510 0.22961
 C259 C 0.62613 0.54375 -0.29535
 C260 C 0.62609 0.52793 -0.27931
 C261 C 0.62604 0.50902 -0.26020
 C262 C 0.62623 0.48352 -0.26661
 C263 C 0.62616 0.46513 -0.24804
 C264 C 0.62591 0.47218 -0.22297
 C265 C 0.62572 0.49769 -0.21655
 C266 C 0.62578 0.51608 -0.23513
 C267 C 0.62581 0.45327 -0.20386
 C268 C 0.62570 0.43740 -0.18787
 H269 H 0.62643 0.47785 -0.28594
 H270 H 0.62631 0.44546 -0.25320
 H271 H 0.62552 0.50335 -0.19722
 H272 H 0.62563 0.53575 -0.22996
 C273 C 0.37383 1.04418 0.79388
 C274 C 0.37406 1.02823 0.77800
 C275 C 0.37431 1.00918 0.75904
 C276 C 0.37386 1.01604 0.73392
 C277 C 0.37405 0.99752 0.71550
 C278 C 0.37470 0.97206 0.72212
 C279 C 0.37516 0.96521 0.74725
 C280 C 0.37497 0.98372 0.76567
 C281 C 0.37484 0.95301 0.70317
 C282 C 0.37493 0.93705 0.68729
 H283 H 0.37334 1.03566 0.72859
 H284 H 0.37368 1.00303 0.69612
 H285 H 0.37566 0.94558 0.75258
 H286 H 0.37532 0.97821 0.78504
 C287 C 0.87462 0.45594 0.20591
 C288 C 0.87484 0.47185 0.22184
 C289 C 0.87508 0.49085 0.24084
 C290 C 0.87316 0.51627 0.23436
 C291 C 0.87335 0.53474 0.25284
 C292 C 0.87545 0.52785 0.27787
 C293 C 0.87738 0.50242 0.28435
 C294 C 0.87719 0.48396 0.26588
 C295 C 0.87560 0.54684 0.29689
 C296 C 0.87571 0.56276 0.31281
 H297 H 0.87152 0.52181 0.21507
 H298 H 0.87185 0.55434 0.24762
 H299 H 0.87901 0.49689 0.30365
 H300 H 0.87868 0.46435 0.27109
 C301 C 0.29261 0.12520 -0.04301
 C302 C 0.27679 0.12517 -0.02715
 C303 C 0.25790 0.12514 -0.00822
 C304 C 0.23768 0.10865 -0.00995
 C305 C 0.21931 0.10864 0.00843
 C306 C 0.22108 0.12514 0.02863
 C307 C 0.24130 0.14163 0.03037
 C308 C 0.25968 0.14163 0.01198
 C309 C 0.20217 0.12515 0.04753
 C310 C 0.18632 0.12517 0.06337
 H311 H 0.23612 0.09582 -0.02550
 H312 H 0.20375 0.09581 0.00690
 H313 H 0.24286 0.15446 0.04590
 H314 H 0.27523 0.15447 0.01350
 C315 C 0.70769 0.62467 0.54314
 C316 C 0.72356 0.62472 0.52732
 C317 C 0.74249 0.62477 0.50843
 C318 C 0.73627 0.61939 0.48373
 C319 C 0.75467 0.61942 0.46538
 C320 C 0.77937 0.62483 0.47165
 C321 C 0.78560 0.63022 0.49635
 C322 C 0.76719 0.63019 0.51470
 C323 C 0.79830 0.62485 0.45276
 C324 C 0.81416 0.62486 0.43693
 H325 H 0.71722 0.61518 0.47868
 H326 H 0.74965 0.61523 0.44634
 H327 H 0.80464 0.63442 0.50140
 H328 H 0.77221 0.63437 0.53374
 C329 C 0.79340 0.37515 0.04273
 C330 C 0.77757 0.37520 0.02689
 C331 C 0.75866 0.37524 0.00799
 C332 C 0.75998 0.39236 -0.01175
 C333 C 0.74161 0.39240 -0.03012
 C334 C 0.72183 0.37531 -0.02883
 C335 C 0.72051 0.35820 -0.00910
 C336 C 0.73888 0.35816 0.00928
 C337 C 0.70293 0.37534 -0.04775
 C338 C 0.68709 0.37535 -0.06358
 H339 H 0.77520 0.40565 -0.01292
 H340 H 0.74281 0.40571 -0.04530
 H341 H 0.70530 0.34490 -0.00792
 H342 H 0.73768 0.34484 0.02446
 C343 C 0.20689 0.87471 0.45720
 C344 C 0.22275 0.87468 0.47301
 C345 C 0.24168 0.87466 0.49189
 C346 C 0.25832 0.85449 0.49370
 C347 C 0.27671 0.85447 0.51205
 C348 C 0.27855 0.87463 0.52868
 C349 C 0.26191 0.89481 0.52688
 C350 C 0.24351 0.89482 0.50852
 C351 C 0.29747 0.87462 0.54757
 C352 C 0.31331 0.87462 0.56340
 H353 H 0.25706 0.83881 0.48094
 H354 H 0.28948 0.83878 0.51328
 H355 H 0.26316 0.91049 0.53964
 H356 H 0.23075 0.91052 0.50729
   
