data_POSCAR
  _audit_creation_date              2014-09-24
  _audit_creation_method            'ToBaCCo'
  _symmetry_space_group_name_H-M    'P1'
  _symmetry_Int_Tables_number       1
  _symmetry_cell_setting            triclinic
  loop_
  _symmetry_equiv_pos_as_xyz
 x,y,z
_cell_length_a 52.9405
_cell_length_b 49.8942
_cell_length_c 52.8591
_cell_angle_alpha 89.912100
_cell_angle_beta 89.787900
_cell_angle_gamma 89.649400
loop_
  _atom_site_label
  _atom_site_type_symbol
  _atom_site_fract_x
  _atom_site_fract_y
  _atom_site_fract_z
C1 C 0.60586 0.64001 0.63531
 C2 C 0.60727 0.62111 0.65501
 C3 C 0.62661 0.60148 0.65568
 C4 C 0.64438 0.60116 0.63569
 C5 C 0.64307 0.61976 0.61578
 C6 C 0.62384 0.63918 0.61578
 H7 H 0.59360 0.62251 0.67022
 H8 H 0.65905 0.58599 0.63498
 H9 H 0.62290 0.65370 0.60054
 C10 C 0.89403 0.36997 0.12839
 C11 C 0.87701 0.37117 0.10789
 C12 C 0.85868 0.39156 0.10607
 C13 C 0.85769 0.41152 0.12468
 C14 C 0.87416 0.41070 0.14534
 C15 C 0.89192 0.38982 0.14733
 H16 H 0.87729 0.35576 0.09351
 H17 H 0.84358 0.42730 0.12356
 H18 H 0.90505 0.39031 0.16296
 C19 C 0.39701 0.13227 -0.12201
 C20 C 0.37742 0.13154 -0.10407
 C21 C 0.35976 0.11066 -0.10409
 C22 C 0.36166 0.09057 -0.12260
 C23 C 0.38104 0.09113 -0.14083
 C24 C 0.39884 0.11188 -0.14019
 H25 H 0.37630 0.14697 -0.08970
 H26 H 0.34792 0.07457 -0.12295
 H27 H 0.41359 0.11275 -0.15443
 C28 C 0.11461 0.84899 0.35748
 C29 C 0.13335 0.84774 0.37641
 C30 C 0.15375 0.86559 0.37647
 C31 C 0.15545 0.88521 0.35753
 C32 C 0.13711 0.88702 0.33855
 C33 C 0.11698 0.86880 0.33851
 H34 H 0.13266 0.83243 0.39091
 H35 H 0.17104 0.89917 0.35765
 H36 H 0.10272 0.87093 0.32403
 N37 N 0.09392 0.17513 0.10380
 N38 N 0.08415 0.16508 0.12462
 C39 C 0.06348 0.17948 0.13104
 C40 C 0.06006 0.19947 0.11315
 C41 C 0.07975 0.19606 0.09616
 H42 H 0.05151 0.17542 0.14719
 H43 H 0.08365 0.20808 0.07958
 Cu44 Cu 0.09910 0.13357 0.14047
 Cu45 Cu 0.12441 0.16060 0.08820
 Cu46 Cu 0.15163 0.10483 0.11673
 N47 N 0.11432 0.10225 0.15636
 N48 N 0.13490 0.09114 0.14702
 C49 C 0.14122 0.06974 0.16125
 C50 C 0.12358 0.06717 0.18053
 C51 C 0.10680 0.08821 0.17679
 H52 H 0.15718 0.05671 0.15748
 H53 H 0.09035 0.09298 0.18813
 N54 N 0.16561 0.12178 0.08598
 N55 N 0.15528 0.14309 0.07529
 C56 C 0.16924 0.15018 0.05506
 C57 C 0.18933 0.13248 0.05278
 C58 C 0.18637 0.11468 0.07269
 H59 H 0.16498 0.16689 0.04274
 H60 H 0.19869 0.09807 0.07740
 H61 H 0.11978 0.12161 0.10075
 H62 H 0.13954 0.14398 0.12074
 N63 N 0.40095 0.82986 0.60203
 N64 N 0.40967 0.83922 0.62349
 C65 C 0.43004 0.82468 0.63037
 C66 C 0.43437 0.80512 0.61224
 C67 C 0.41548 0.80910 0.59451
 H68 H 0.44104 0.82826 0.64718
 H69 H 0.41234 0.79763 0.57749
 Cu70 Cu 0.39355 0.86947 0.64037
 Cu71 Cu 0.37145 0.84535 0.58540
 Cu72 Cu 0.34299 0.89991 0.61475
 N73 N 0.37760 0.90028 0.65650
 N74 N 0.35765 0.91188 0.64648
 C75 C 0.35005 0.93217 0.66148
 C76 C 0.36614 0.93348 0.68203
 C77 C 0.38345 0.91293 0.67818
 H78 H 0.33411 0.94515 0.65757
 H79 H 0.39889 0.90736 0.69048
 N80 N 0.33092 0.88487 0.58259
 N81 N 0.34147 0.86386 0.57159
 C82 C 0.32873 0.85830 0.55022
 C83 C 0.30932 0.87680 0.54757
 C84 C 0.31133 0.89333 0.56844
 H85 H 0.33344 0.84223 0.53732
 H86 H 0.29918 0.91010 0.57314
 H87 H 0.37582 0.88343 0.59992
 H88 H 0.35451 0.86036 0.61768
 N89 N 0.90094 0.67609 0.39576
 N90 N 0.90886 0.66580 0.37425
 C91 C 0.92950 0.67917 0.36645
 C92 C 0.93491 0.69877 0.38410
 C93 C 0.91635 0.69621 0.40246
 H94 H 0.94034 0.67443 0.34966
 H95 H 0.91425 0.70804 0.41946
 Cu96 Cu 0.89258 0.63463 0.35964
 Cu97 Cu 0.87151 0.66235 0.41370
 Cu98 Cu 0.84280 0.60614 0.38847
 N99 N 0.87599 0.60346 0.34540
 N100 N 0.85728 0.59169 0.35738
 C101 C 0.85037 0.56973 0.34442
 C102 C 0.86542 0.56776 0.32304
 C103 C 0.88142 0.58954 0.32424
 H104 H 0.83537 0.55632 0.34999
 H105 H 0.89635 0.59437 0.31102
 N106 N 0.83084 0.62389 0.41962
 N107 N 0.84152 0.64552 0.42900
 C108 C 0.82843 0.65348 0.44959
 C109 C 0.80856 0.63600 0.45342
 C110 C 0.81075 0.61746 0.43406
 H111 H 0.83302 0.67073 0.46097
 H112 H 0.79820 0.60093 0.43036
 H113 H 0.87573 0.62336 0.40130
 H114 H 0.85393 0.64535 0.38275
 N115 N 0.59945 0.32312 -0.10475
 N116 N 0.58453 0.33811 -0.11876
 C117 C 0.56392 0.32393 -0.12499
 C118 C 0.56613 0.29861 -0.11444
 C119 C 0.58896 0.29882 -0.10175
 H120 H 0.54867 0.33136 -0.13668
 H121 H 0.59709 0.28268 -0.09074
 Cu122 Cu 0.59361 0.37444 -0.12824
 Cu123 Cu 0.63068 0.33670 -0.09045
 Cu124 Cu 0.65155 0.39738 -0.11361
 N125 N 0.60820 0.40521 -0.14532
 N126 N 0.63096 0.41378 -0.13991
 C127 C 0.63666 0.43447 -0.15521
 C128 C 0.61634 0.43919 -0.17108
 C129 C 0.59857 0.42023 -0.16419
 H130 H 0.65429 0.44526 -0.15480
 H131 H 0.58031 0.41705 -0.17273
 N132 N 0.66946 0.37742 -0.08692
 N133 N 0.66163 0.35408 -0.07829
 C134 C 0.67728 0.34579 -0.05982
 C135 C 0.69588 0.36487 -0.05656
 C136 C 0.69029 0.38464 -0.07414
 H137 H 0.67481 0.32762 -0.04896
 H138 H 0.70048 0.40305 -0.07728
 H139 H 0.62356 0.37751 -0.09356
 H140 H 0.63697 0.36016 -0.12215
 C141 C -0.05938 0.32027 0.15437
 C142 C -0.04923 0.30849 0.13220
 C143 C -0.05810 0.31820 0.10865
 C144 C -0.07692 0.33810 0.10757
 C145 C -0.08714 0.34958 0.12972
 C146 C -0.07778 0.34041 0.15310
 C147 C -0.04801 0.30823 0.08614
 C148 C -0.02892 0.28907 0.08638
 C149 C -0.01938 0.27865 0.10930
 C150 C -0.03035 0.28778 0.13257
 C151 C -0.02235 0.27564 0.15534
 C152 C -0.00388 0.25575 0.15550
 C153 C 0.00779 0.24752 0.13312
 C154 C 0.00051 0.25909 0.10971
 C155 C 0.01379 0.25085 0.08772
 C156 C 0.03301 0.23165 0.08899
 C157 C 0.03964 0.21984 0.11208
 C158 C 0.02688 0.22785 0.13409
 H159 H -0.05330 0.31468 0.17308
 H160 H -0.08258 0.34551 0.08916
 H161 H -0.08528 0.34797 0.17079
 H162 H -0.05481 0.31549 0.06804
 H163 H -0.02244 0.28239 0.06811
 H164 H -0.03042 0.28063 0.17347
 H165 H 0.00151 0.24689 0.17345
 H166 H 0.01019 0.25918 0.06927
 H167 H 0.04255 0.22587 0.07167
 H168 H 0.03218 0.21921 0.15214
 C169 C 0.56072 0.69425 0.65784
 C170 C 0.54693 0.70065 0.63568
 C171 C 0.55317 0.68647 0.61324
 C172 C 0.57239 0.66692 0.61321
 C173 C 0.58572 0.66086 0.63535
 C174 C 0.57970 0.67472 0.65759
 C175 C 0.54016 0.69175 0.59090
 C176 C 0.52093 0.71075 0.59019
 C177 C 0.51387 0.72547 0.61193
 C178 C 0.52722 0.72046 0.63502
 C179 C 0.52042 0.73546 0.65667
 C180 C 0.50129 0.75454 0.65594
 C181 C 0.48800 0.75951 0.63371
 C182 C 0.49396 0.74508 0.61136
 C183 C 0.47959 0.75091 0.58944
 C184 C 0.46038 0.77023 0.58982
 C185 C 0.45473 0.78451 0.61194
 C186 C 0.46868 0.77894 0.63383
 H187 H 0.55738 0.70384 0.67577
 H188 H 0.57674 0.65607 0.59596
 H189 H 0.58995 0.67065 0.67489
 H190 H 0.54487 0.68098 0.57370
 H191 H 0.51201 0.71346 0.57210
 H192 H 0.52960 0.73307 0.67467
 H193 H 0.49681 0.76554 0.67307
 H194 H 0.48258 0.74095 0.57163
 H195 H 0.45011 0.77411 0.57253
 H196 H 0.46440 0.78950 0.65122
 C197 C 1.06156 0.80582 0.33504
 C198 C 1.05185 0.79516 0.35787
 C199 C 1.06333 0.80333 0.38073
 C200 C 1.08420 0.82059 0.38046
 C201 C 1.09385 0.83103 0.35762
 C202 C 1.08197 0.82340 0.33499
 C203 C 1.05378 0.79448 0.40388
 C204 C 1.03280 0.77799 0.40496
 C205 C 1.02071 0.76912 0.38275
 C206 C 1.03096 0.77705 0.35880
 C207 C 1.02028 0.76627 0.33662
 C208 C 1.00000 0.74881 0.33770
 C209 C 0.98914 0.74179 0.36081
 C210 C 0.99899 0.75216 0.38368
 C211 C 0.98644 0.74531 0.40649
 C212 C 0.96557 0.72833 0.40650
 C213 C 0.95653 0.71745 0.38391
 C214 C 0.96838 0.72439 0.36111
 H215 H 1.05363 0.80133 0.31682
 H216 H 1.09198 0.82692 0.39839
 H217 H 1.08892 0.83013 0.31679
 H218 H 1.06253 0.80057 0.42146
 H219 H 1.02686 0.77198 0.42362
 H220 H 1.02758 0.77039 0.31798
 H221 H 0.99262 0.74085 0.32016
 H222 H 0.99199 0.75301 0.42464
 H223 H 0.95674 0.72339 0.42440
 H224 H 0.96122 0.71655 0.34344
 C225 C 0.42394 0.20230 -0.12045
 C226 C 0.45033 0.19753 -0.12172
 C227 C 0.45874 0.17049 -0.12249
 C228 C 0.44131 0.14938 -0.12301
 C229 C 0.41532 0.15457 -0.12194
 C230 C 0.40683 0.18113 -0.12046
 C231 C 0.48450 0.16459 -0.12253
 C232 C 0.50226 0.18489 -0.12125
 C233 C 0.49494 0.21215 -0.12049
 C234 C 0.46858 0.21859 -0.12181
 C235 C 0.46139 0.24582 -0.12361
 C236 C 0.47920 0.26612 -0.12337
 C237 C 0.50482 0.26024 -0.12075
 C238 C 0.51310 0.23322 -0.11887
 C239 C 0.53922 0.22850 -0.11498
 C240 C 0.55624 0.24970 -0.11351
 C241 C 0.54798 0.27625 -0.11608
 C242 C 0.52222 0.28136 -0.11978
 H243 H 0.41587 0.22209 -0.11886
 H244 H 0.44797 0.12880 -0.12370
 H245 H 0.38679 0.18556 -0.11952
 H246 H 0.49105 0.14397 -0.12327
 H247 H 0.52173 0.17852 -0.12153
 H248 H 0.44205 0.25218 -0.12586
 H249 H 0.47277 0.28672 -0.12498
 H250 H 0.54708 0.20873 -0.11242
 H251 H 0.57605 0.24519 -0.11056
 H252 H 0.51555 0.30188 -0.12129
 C253 C 0.16299 -0.06619 0.28829
 C254 C 0.14140 -0.05099 0.28127
 C255 C 0.11838 -0.05657 0.29398
 C256 C 0.11715 -0.07674 0.31248
 C257 C 0.13864 -0.09169 0.31897
 C258 C 0.16154 -0.08612 0.30682
 C259 C 0.09661 -0.04200 0.28826
 C260 C 0.09703 -0.02181 0.27022
 C261 C 0.11936 -0.01539 0.25688
 C262 C 0.14186 -0.03046 0.26225
 C263 C 0.16396 -0.02464 0.24829
 C264 C 0.16423 -0.00478 0.22988
 C265 C 0.14263 0.01031 0.22468
 C266 C 0.11991 0.00544 0.23819
 C267 C 0.09872 0.02178 0.23240
 C268 C 0.10006 0.04168 0.21388
 C269 C 0.12245 0.04613 0.20039
 C270 C 0.14370 0.03033 0.20597
 H271 H 0.18135 -0.06319 0.27998
 H272 H 0.09943 -0.08058 0.32214
 H273 H 0.17841 -0.09748 0.31147
 H274 H 0.07896 -0.04623 0.29791
 H275 H 0.07927 -0.01179 0.26702
 H276 H 0.18149 -0.03531 0.25090
 H277 H 0.18164 -0.00117 0.21961
 H278 H 0.08078 0.01990 0.24185
 H279 H 0.08325 0.05340 0.20999
 H280 H 0.16128 0.03375 0.19596
 C281 C 0.65345 0.55362 -0.29666
 C282 C 0.63180 0.54530 -0.28309
 C283 C 0.60813 0.55576 -0.29085
 C284 C 0.60654 0.57436 -0.31079
 C285 C 0.62825 0.58273 -0.32408
 C286 C 0.65166 0.57180 -0.31666
 C287 C 0.58603 0.54746 -0.27884
 C288 C 0.58676 0.52869 -0.25944
 C289 C 0.60984 0.51768 -0.25089
 C290 C 0.63279 0.52676 -0.26239
 C291 C 0.65597 0.51726 -0.25261
 C292 C 0.65677 0.49908 -0.23275
 C293 C 0.63461 0.48925 -0.22202
 C294 C 0.61078 0.49813 -0.23102
 C295 C 0.58893 0.48673 -0.21992
 C296 C 0.59081 0.46771 -0.20059
 C297 C 0.61442 0.45945 -0.19152
 C298 C 0.63624 0.47039 -0.20234
 H299 H 0.67217 0.54631 -0.29252
 H300 H 0.58801 0.58125 -0.31659
 H301 H 0.66912 0.57800 -0.32554
 H302 H 0.56784 0.55545 -0.28461
 H303 H 0.56879 0.52361 -0.25119
 H304 H 0.67402 0.52386 -0.25957
 H305 H 0.67504 0.49247 -0.22584
 H306 H 0.57007 0.49170 -0.22595
 H307 H 0.57361 0.45961 -0.19260
 H308 H 0.65465 0.46382 -0.19584
 C309 C 0.40636 1.03963 0.81275
 C310 C 0.38439 1.03202 0.79936
 C311 C 0.36124 1.04453 0.80625
 C312 C 0.36027 1.06334 0.82595
 C313 C 0.38219 1.07057 0.83896
 C314 C 0.40519 1.05862 0.83213
 C315 C 0.33912 1.03842 0.79334
 C316 C 0.33939 1.02046 0.77334
 C317 C 0.36189 1.00753 0.76553
 C318 C 0.38463 1.01282 0.77922
 C319 C 0.40677 0.99856 0.77245
 C320 C 0.40691 0.98024 0.75272
 C321 C 0.38518 0.97557 0.73864
 C322 C 0.36238 0.98927 0.74463
 C323 C 0.34112 0.98432 0.72917
 C324 C 0.34247 0.96634 0.70900
 C325 C 0.36492 0.95256 0.70348
 C326 C 0.38622 0.95730 0.71846
 H327 H 0.42484 1.03167 0.80854
 H328 H 0.34245 1.07290 0.83081
 H329 H 0.42239 1.06388 0.84194
 H330 H 0.32136 1.04781 0.79864
 H331 H 0.32139 1.01688 0.76461
 H332 H 0.42439 1.00078 0.78230
 H333 H 0.42436 0.96974 0.74830
 H334 H 0.32319 0.99423 0.73184
 H335 H 0.32566 0.96309 0.69785
 H336 H 0.40385 0.94711 0.71416
 C337 C 0.87445 0.47912 0.17591
 C338 C 0.87222 0.47293 0.20199
 C339 C 0.86944 0.44559 0.20884
 C340 C 0.87041 0.42542 0.19035
 C341 C 0.87311 0.43198 0.16474
 C342 C 0.87475 0.45892 0.15766
 C343 C 0.86563 0.43851 0.23407
 C344 C 0.86410 0.45797 0.25277
 C345 C 0.86712 0.48542 0.24705
 C346 C 0.87233 0.49289 0.22140
 C347 C 0.87817 0.51990 0.21613
 C348 C 0.87844 0.53909 0.23511
 C349 C 0.87218 0.53238 0.25995
 C350 C 0.86580 0.50561 0.26622
 C351 C 0.85808 0.50029 0.29142
 C352 C 0.85761 0.52054 0.30963
 C353 C 0.86506 0.54661 0.30350
 C354 C 0.87223 0.55241 0.27858
 H355 H 0.87546 0.49938 0.16892
 H356 H 0.86865 0.40455 0.19580
 H357 H 0.87660 0.46436 0.13789
 H358 H 0.86357 0.41765 0.23943
 H359 H 0.86134 0.45073 0.27178
 H360 H 0.88348 0.52676 0.19754
 H361 H 0.88341 0.55950 0.23022
 H362 H 0.85180 0.48084 0.29757
 H363 H 0.85179 0.51562 0.32874
 H364 H 0.87746 0.57272 0.27355
 C365 C 0.31430 0.08525 -0.05405
 C366 C 0.30083 0.10877 -0.04708
 C367 C 0.30694 0.13287 -0.05993
 C368 C 0.32604 0.13329 -0.07842
 C369 C 0.33934 0.10992 -0.08480
 C370 C 0.33317 0.08592 -0.07258
 C371 C 0.29400 0.15652 -0.05432
 C372 C 0.27493 0.15694 -0.03628
 C373 C 0.26807 0.13360 -0.02281
 C374 C 0.28154 0.10920 -0.02798
 C375 C 0.27543 0.08616 -0.01371
 C376 C 0.25671 0.08675 0.00474
 C377 C 0.24308 0.11015 0.00963
 C378 C 0.24836 0.13389 -0.00416
 C379 C 0.23349 0.15689 0.00125
 C380 C 0.21452 0.15628 0.01963
 C381 C 0.20961 0.13286 0.03336
 C382 C 0.22405 0.10986 0.02826
 H383 H 0.31071 0.06594 -0.04572
 H384 H 0.33038 0.15188 -0.08812
 H385 H 0.34326 0.06758 -0.07710
 H386 H 0.29864 0.17500 -0.06406
 H387 H 0.26614 0.17615 -0.03314
 H388 H 0.28502 0.06724 -0.01606
 H389 H 0.25280 0.06855 0.01525
 H390 H 0.23577 0.17570 -0.00846
 H391 H 0.20383 0.17445 0.02320
 H392 H 0.22025 0.09148 0.03849
 C393 C 0.68620 0.59322 0.56417
 C394 C 0.69887 0.61657 0.55580
 C395 C 0.69259 0.64116 0.56781
 C396 C 0.67412 0.64213 0.58695
 C397 C 0.66190 0.61879 0.59497
 C398 C 0.66812 0.59441 0.58342
 C399 C 0.70490 0.66465 0.56085
 C400 C 0.72371 0.66438 0.54249
 C401 C 0.73083 0.64048 0.53000
 C402 C 0.71771 0.61632 0.53627
 C403 C 0.72371 0.59278 0.52265
 C404 C 0.74217 0.59262 0.50395
 C405 C 0.75567 0.61573 0.49820
 C406 C 0.75044 0.63997 0.51123
 C407 C 0.76531 0.66258 0.50505
 C408 C 0.78412 0.66116 0.48650
 C409 C 0.78882 0.63728 0.47338
 C410 C 0.77450 0.61462 0.47942
 H411 H 0.69003 0.57360 0.55659
 H412 H 0.66964 0.66104 0.59608
 H413 H 0.65883 0.57611 0.58926
 H414 H 0.70008 0.68352 0.56987
 H415 H 0.73208 0.68349 0.53828
 H416 H 0.71419 0.57405 0.52568
 H417 H 0.74601 0.57406 0.49396
 H418 H 0.76316 0.68165 0.51434
 H419 H 0.79481 0.67905 0.48227
 H420 H 0.77819 0.59586 0.46975
 C421 C 0.81601 0.41529 0.05295
 C422 C 0.80394 0.39134 0.04534
 C423 C 0.81057 0.36739 0.05826
 C424 C 0.82845 0.36764 0.07780
 C425 C 0.84013 0.39151 0.08508
 C426 C 0.83373 0.41528 0.07248
 C427 C 0.79925 0.34324 0.05181
 C428 C 0.78120 0.34217 0.03291
 C429 C 0.77366 0.36538 0.01952
 C430 C 0.78544 0.39033 0.02562
 C431 C 0.77827 0.41342 0.01186
 C432 C 0.76000 0.41239 -0.00686
 C433 C 0.74803 0.38840 -0.01269
 C434 C 0.75467 0.36449 0.00029
 C435 C 0.74176 0.34076 -0.00644
 C436 C 0.72302 0.34098 -0.02493
 C437 C 0.71641 0.36470 -0.03751
 C438 C 0.72921 0.38832 -0.03138
 H439 H 0.81219 0.43446 0.04438
 H440 H 0.83293 0.34920 0.08774
 H441 H 0.84264 0.43398 0.07761
 H442 H 0.80433 0.32487 0.06159
 H443 H 0.77352 0.32264 0.02930
 H444 H 0.78644 0.43282 0.01504
 H445 H 0.75507 0.43070 -0.01680
 H446 H 0.74547 0.32164 0.00228
 H447 H 0.71375 0.32231 -0.02939
 H448 H 0.72424 0.40691 -0.04076
 C449 C 0.20242 0.83719 0.42171
 C450 C 0.21090 0.86030 0.43466
 C451 C 0.19965 0.88525 0.42815
 C452 C 0.18130 0.88683 0.40908
 C453 C 0.17332 0.86378 0.39641
 C454 C 0.18395 0.83900 0.40299
 C455 C 0.20664 0.90853 0.44076
 C456 C 0.22432 0.90771 0.46005
 C457 C 0.23611 0.88345 0.46737
 C458 C 0.22984 0.85948 0.45395
 C459 C 0.24293 0.83560 0.46006
 C460 C 0.26109 0.83494 0.47892
 C461 C 0.26675 0.85785 0.49278
 C462 C 0.25419 0.88240 0.48745
 C463 C 0.26009 0.90479 0.50274
 C464 C 0.27787 0.90284 0.52209
 C465 C 0.29051 0.87866 0.52693
 C466 C 0.28486 0.85624 0.51211
 H467 H 0.20937 0.81733 0.42578
 H468 H 0.17283 0.90604 0.40436
 H469 H 0.17811 0.82090 0.39340
 H470 H 0.19820 0.92766 0.43577
 H471 H 0.22866 0.92670 0.46859
 H472 H 0.23991 0.81699 0.45028
 H473 H 0.27070 0.81614 0.48283
 H474 H 0.25108 0.92405 0.50057
 H475 H 0.28186 0.92054 0.53317
 H476 H 0.29419 0.83727 0.51592
   
