data_POSCAR
  _audit_creation_date              2014-09-24
  _audit_creation_method            'ToBaCCo'
  _symmetry_space_group_name_H-M    'P1'
  _symmetry_Int_Tables_number       1
  _symmetry_cell_setting            triclinic
  loop_
  _symmetry_equiv_pos_as_xyz
 x,y,z
_cell_length_a 48.0557
_cell_length_b 47.5116
_cell_length_c 48.0712
_cell_angle_alpha 89.858900
_cell_angle_beta 90.008800
_cell_angle_gamma 90.000700
loop_
  _atom_site_label
  _atom_site_type_symbol
  _atom_site_fract_x
  _atom_site_fract_y
  _atom_site_fract_z
C1 C 0.60477 0.64490 0.62541
 N2 N 0.60493 0.62480 0.64553
 C3 C 0.62504 0.60475 0.64567
 N4 N 0.64499 0.60479 0.62569
 C5 C 0.64483 0.62488 0.60557
 N6 N 0.62472 0.64493 0.60544
 C7 C 0.89590 0.35474 0.12541
 N8 N 0.87592 0.35481 0.10546
 C9 C 0.85586 0.37491 0.10556
 N10 N 0.85578 0.39495 0.12563
 C11 C 0.87576 0.39489 0.14558
 N12 N 0.89582 0.37479 0.14547
 C13 C 0.39505 0.14516 -0.12517
 N14 N 0.37509 0.14516 -0.10520
 C15 C 0.35496 0.12513 -0.10530
 N16 N 0.35479 0.10509 -0.12538
 C17 C 0.37475 0.10509 -0.14535
 N18 N 0.39487 0.12512 -0.14524
 C19 C 0.10382 0.85502 0.37440
 N20 N 0.12378 0.85502 0.39437
 C21 C 0.14384 0.87512 0.39427
 N22 N 0.14394 0.89524 0.37417
 C23 C 0.12399 0.89525 0.35419
 N24 N 0.10393 0.87514 0.35431
 N25 N 0.09210 0.16993 0.11285
 N26 N 0.08119 0.15839 0.13524
 C27 C 0.05863 0.17333 0.14293
 C28 C 0.05544 0.19523 0.12436
 C29 C 0.07689 0.19258 0.10554
 H30 H 0.04552 0.16872 0.16064
 H31 H 0.08110 0.20610 0.08790
 Cu32 Cu 0.09760 0.12500 0.15204
 Cu33 Cu 0.12516 0.15479 0.09486
 Cu34 Cu 0.15474 0.09526 0.12453
 N35 N 0.11436 0.09161 0.16851
 N36 N 0.13673 0.08008 0.15761
 C37 C 0.14402 0.05744 0.17286
 C38 C 0.12520 0.05477 0.19432
 C39 C 0.10665 0.07665 0.19109
 H40 H 0.16165 0.04394 0.16867
 H41 H 0.08895 0.08125 0.20420
 N42 N 0.16989 0.11370 0.09103
 N43 N 0.15863 0.13638 0.07973
 C44 C 0.17365 0.14389 0.05723
 C45 C 0.19522 0.12505 0.05441
 C46 C 0.19237 0.10620 0.07601
 H47 H 0.16928 0.16170 0.04387
 H48 H 0.20570 0.08840 0.08040
 H49 H 0.11954 0.11365 0.10773
 H50 H 0.14194 0.13639 0.13007
 N51 N 0.40684 0.83025 0.61251
 N52 N 0.41773 0.84174 0.63489
 C53 C 0.44034 0.82684 0.64259
 C54 C 0.44359 0.80503 0.62403
 C55 C 0.42212 0.80768 0.60522
 H56 H 0.45345 0.83143 0.66029
 H57 H 0.41794 0.79422 0.58759
 Cu58 Cu 0.40122 0.87501 0.65167
 Cu59 Cu 0.37372 0.84535 0.59453
 Cu60 Cu 0.34397 0.90467 0.62415
 N61 N 0.38437 0.90828 0.66811
 N62 N 0.36195 0.91977 0.65721
 C63 C 0.35461 0.94234 0.67244
 C64 C 0.37344 0.94498 0.69388
 C65 C 0.39205 0.92317 0.69066
 H66 H 0.33694 0.95580 0.66824
 H67 H 0.40978 0.91858 0.70377
 N68 N 0.32885 0.88631 0.59068
 N69 N 0.34018 0.86371 0.57939
 C70 C 0.32517 0.85624 0.55691
 C71 C 0.30353 0.87501 0.55408
 C72 C 0.30633 0.89379 0.57566
 H73 H 0.32958 0.83850 0.54357
 H74 H 0.29294 0.91153 0.58004
 H75 H 0.37921 0.88647 0.60736
 H76 H 0.35691 0.86356 0.62973
 N77 N 0.90801 0.66980 0.38766
 N78 N 0.91925 0.65797 0.36564
 C79 C 0.94180 0.67294 0.35790
 C80 C 0.94465 0.69513 0.37608
 C81 C 0.92300 0.69265 0.39470
 H82 H 0.95513 0.66814 0.34043
 H83 H 0.91851 0.70641 0.41202
 Cu84 Cu 0.90330 0.62423 0.34923
 Cu85 Cu 0.87483 0.65475 0.40553
 Cu86 Cu 0.84529 0.59529 0.37607
 N87 N 0.88610 0.59125 0.33258
 N88 N 0.86341 0.58003 0.34318
 C89 C 0.85592 0.55762 0.32780
 C90 C 0.87493 0.55479 0.30655
 C91 C 0.89380 0.57633 0.31004
 H92 H 0.83803 0.54440 0.33176
 H93 H 0.91171 0.58074 0.29713
 N94 N 0.83000 0.61378 0.40938
 N95 N 0.84126 0.63644 0.42060
 C96 C 0.82617 0.64397 0.44301
 C97 C 0.80456 0.62517 0.44586
 C98 C 0.80746 0.60631 0.42435
 H99 H 0.83053 0.66176 0.45632
 H100 H 0.79414 0.58850 0.42002
 H101 H 0.88035 0.61346 0.39327
 H102 H 0.85865 0.63624 0.37015
 N103 N 0.59332 0.33013 -0.11298
 N104 N 0.58278 0.34131 -0.13573
 C105 C 0.56019 0.32641 -0.14339
 C106 C 0.55659 0.30492 -0.12444
 C107 C 0.57785 0.30776 -0.10541
 H108 H 0.54731 0.33080 -0.16134
 H109 H 0.58174 0.29456 -0.08747
 Cu110 Cu 0.59959 0.37423 -0.15305
 Cu111 Cu 0.62628 0.34537 -0.09490
 Cu112 Cu 0.65603 0.40470 -0.12469
 N113 N 0.61616 0.40790 -0.16914
 N114 N 0.63823 0.41971 -0.15794
 C115 C 0.64537 0.44252 -0.17302
 C116 C 0.62676 0.44500 -0.19469
 C117 C 0.60848 0.42284 -0.19174
 H118 H 0.66275 0.45626 -0.16858
 H119 H 0.59098 0.41806 -0.20505
 N120 N 0.67101 0.38643 -0.09103
 N121 N 0.65966 0.36383 -0.07967
 C122 C 0.67460 0.35638 -0.05709
 C123 C 0.69619 0.37520 -0.05427
 C124 C 0.69345 0.39396 -0.07597
 H125 H 0.67018 0.33862 -0.04369
 H126 H 0.70684 0.41170 -0.08040
 H127 H 0.62055 0.38631 -0.10846
 H128 H 0.64358 0.36342 -0.13003
 C129 C -0.04496 0.29554 0.12512
 N130 N -0.05192 0.26787 0.12500
 N131 N -0.03220 0.24815 0.12489
 C132 C -0.00493 0.25550 0.12489
 N133 N 0.00203 0.28317 0.12501
 N134 N -0.01769 0.30289 0.12513
 C135 C -0.06619 0.31677 0.12522
 C136 C -0.08402 0.33463 0.12530
 C137 C 0.01631 0.23427 0.12473
 C138 C 0.03416 0.21645 0.12457
 C139 C 0.54431 0.70505 0.62497
 N140 N 0.51707 0.69761 0.62482
 N141 N 0.49728 0.71727 0.62466
 C142 C 0.50415 0.74496 0.62464
 N143 N 0.53140 0.75240 0.62479
 N144 N 0.55118 0.73274 0.62495
 C145 C 0.56561 0.68388 0.62513
 C146 C 0.58349 0.66609 0.62526
 C147 C 0.48285 0.76612 0.62444
 C148 C 0.46494 0.78388 0.62426
 C149 C 1.04477 0.79574 0.37478
 N150 N 1.05179 0.76809 0.37485
 N151 N 1.03211 0.74832 0.37504
 C152 C 1.00483 0.75560 0.37518
 N153 N 0.99780 0.78325 0.37512
 N154 N 1.01748 0.80302 0.37492
 C155 C 1.06595 0.81702 0.37462
 C156 C 1.08376 0.83490 0.37451
 C157 C 0.98364 0.73432 0.37546
 C158 C 0.96585 0.71644 0.37572
 C159 C 0.45560 0.20522 -0.12489
 N160 N 0.48088 0.19981 -0.13622
 N161 N 0.50070 0.21942 -0.13613
 C162 C 0.49585 0.24503 -0.12472
 N163 N 0.47057 0.25044 -0.11338
 N164 N 0.45074 0.23082 -0.11347
 C165 C 0.43426 0.18409 -0.12498
 C166 C 0.41635 0.16632 -0.12506
 C167 C 0.51720 0.26614 -0.12461
 C168 C 0.53517 0.28385 -0.12453
 C169 C 0.12437 -0.04553 0.29495
 N170 N 0.14791 -0.04011 0.28032
 N171 N 0.14806 -0.02039 0.26056
 C172 C 0.12467 -0.00549 0.25483
 N173 N 0.10113 -0.01090 0.26946
 N174 N 0.10098 -0.03062 0.28922
 C175 C 0.12422 -0.06677 0.31622
 C176 C 0.12410 -0.08463 0.33408
 C177 C 0.12483 0.01574 0.23354
 C178 C 0.12498 0.03355 0.21565
 C179 C 0.62557 0.54554 -0.29508
 N180 N 0.60818 0.52312 -0.29670
 N181 N 0.60838 0.50337 -0.27697
 C182 C 0.62599 0.50544 -0.25502
 N183 N 0.64339 0.52786 -0.25339
 N184 N 0.64318 0.54761 -0.27313
 C185 C 0.62537 0.56679 -0.31634
 C186 C 0.62521 0.58465 -0.33420
 C187 C 0.62624 0.48417 -0.23378
 C188 C 0.62647 0.46630 -0.21594
 C189 C 0.37428 1.04494 0.79436
 N190 N 0.35665 1.02271 0.79611
 N191 N 0.35650 1.00305 0.77638
 C192 C 0.37397 1.00503 0.75431
 N193 N 0.39160 1.02726 0.75256
 N194 N 0.39175 1.04692 0.77229
 C195 C 0.37443 1.06611 0.81560
 C196 C 0.37457 1.08390 0.83343
 C197 C 0.37379 0.98389 0.73305
 C198 C 0.37364 0.96613 0.71518
 C199 C 0.87551 0.45501 0.20590
 N200 N 0.86161 0.47955 0.20200
 N201 N 0.86151 0.49919 0.22176
 C202 C 0.87531 0.49487 0.24601
 N203 N 0.88922 0.47033 0.24991
 N204 N 0.88931 0.45070 0.23015
 C205 C 0.87559 0.43386 0.18465
 C206 C 0.87566 0.41608 0.16681
 C207 C 0.87518 0.51599 0.26729
 C208 C 0.87507 0.53371 0.28519
 C209 C 0.29501 0.12511 -0.04535
 N210 N 0.28460 0.14972 -0.03560
 N211 N 0.26499 0.14970 -0.01600
 C212 C 0.25519 0.12508 -0.00557
 N213 N 0.26559 0.10047 -0.01531
 N214 N 0.28521 0.10048 -0.03491
 C215 C 0.31613 0.12512 -0.06645
 C216 C 0.33386 0.12512 -0.08418
 C217 C 0.23407 0.12506 0.01553
 C218 C 0.21634 0.12505 0.03327
 C219 C 0.70475 0.62502 0.54559
 N220 N 0.69894 0.61566 0.51959
 N221 N 0.71854 0.61570 0.49999
 C222 C 0.74455 0.62511 0.50578
 N223 N 0.75036 0.63448 0.53177
 N224 N 0.73075 0.63443 0.55138
 C225 C 0.68364 0.62496 0.56670
 C226 C 0.66592 0.62492 0.58444
 C227 C 0.76566 0.62514 0.48468
 C228 C 0.78340 0.62516 0.46696
 C229 C 0.79590 0.37506 0.04560
 N230 N 0.80010 0.36139 0.02123
 N231 N 0.78051 0.36143 0.00161
 C232 C 0.75611 0.37514 0.00577
 N233 N 0.75191 0.38882 0.03014
 N234 N 0.77151 0.38878 0.04976
 C235 C 0.81700 0.37501 0.06672
 C236 C 0.83474 0.37496 0.08446
 C237 C 0.73501 0.37518 -0.01535
 C238 C 0.71729 0.37520 -0.03310
 C239 C 0.20376 0.87506 0.45427
 N240 N 0.21629 0.85068 0.46199
 N241 N 0.23589 0.85067 0.48161
 C242 C 0.24355 0.87503 0.49410
 N243 N 0.23102 0.89941 0.48638
 N244 N 0.21142 0.89943 0.46676
 C245 C 0.18267 0.87508 0.43314
 C246 C 0.16495 0.87510 0.41539
 C247 C 0.26465 0.87502 0.51522
 C248 C 0.28238 0.87501 0.53295
   
