data_POSCAR
  _audit_creation_date              2014-09-24
  _audit_creation_method            'ToBaCCo'
  _symmetry_space_group_name_H-M    'P1'
  _symmetry_Int_Tables_number       1
  _symmetry_cell_setting            triclinic
  loop_
  _symmetry_equiv_pos_as_xyz
 x,y,z
_cell_length_a 36.0618
_cell_length_b 34.7940
_cell_length_c 34.1760
_cell_angle_alpha 89.038000
_cell_angle_beta 90.208300
_cell_angle_gamma 89.678500
loop_
  _atom_site_label
  _atom_site_type_symbol
  _atom_site_fract_x
  _atom_site_fract_y
  _atom_site_fract_z
C1 C 0.29866 0.30927 0.23449
 H2 H 0.29494 0.31409 0.26542
 C3 C 0.32294 0.33236 0.21297
 H4 H 0.33711 0.35545 0.22756
 C5 C 0.28416 0.27342 0.17821
 H6 H 0.26975 0.24976 0.16503
 C7 C 0.30860 0.29549 0.15566
 H8 H 0.31256 0.28846 0.12522
 N9 N 0.27933 0.28096 0.21678
 C10 C 0.19577 0.26445 0.30718
 H11 H 0.19922 0.23397 0.31294
 C12 C 0.17121 0.28584 0.32971
 H13 H 0.15640 0.27161 0.35327
 C14 C 0.21147 0.31984 0.26969
 H15 H 0.22654 0.33278 0.24565
 C16 C 0.18693 0.34226 0.29123
 H17 H 0.18352 0.37237 0.28347
 Zn18 Zn 0.24811 0.25052 0.24894
 N19 N 0.21581 0.28178 0.27834
 C20 C 0.28372 0.22909 0.32080
 N21 N 0.27983 0.22115 0.28218
 C22 C 0.30024 0.19303 0.26529
 C23 C 0.32453 0.17037 0.28772
 C24 C 0.30834 0.20762 0.34422
 C25 C 0.19849 0.23385 0.18821
 C26 C 0.17618 0.21098 0.16470
 C27 C 0.19255 0.15613 0.20558
 C28 C 0.21489 0.17997 0.22799
 N29 N 0.21802 0.21793 0.21854
 H30 H 0.26833 0.25256 0.33335
 H31 H 0.29721 0.18788 0.23431
 H32 H 0.33929 0.14723 0.27371
 H33 H 0.31155 0.21505 0.37466
 H34 H 0.20076 0.26432 0.18189
 H35 H 0.16200 0.22407 0.13985
 H36 H 0.19019 0.12610 0.21393
 H37 H 0.22929 0.16816 0.25326
 C38 C 0.16655 0.32538 0.32195
 C39 C 0.32829 0.32562 0.17294
 C40 C 0.17314 0.17143 0.17309
 C41 C 0.32901 0.17749 0.32784
 C42 C 0.80583 0.80752 0.23495
 H43 H 0.80609 0.80918 0.26654
 C44 C 0.83050 0.82967 0.21289
 H45 H 0.84821 0.84910 0.22857
 C46 C 0.78057 0.78099 0.17759
 H47 H 0.76182 0.76115 0.16393
 C48 C 0.80488 0.80244 0.15428
 H49 H 0.80426 0.79764 0.12313
 N50 N 0.78107 0.78430 0.21713
 C51 C 0.69194 0.77010 0.30241
 H52 H 0.68941 0.73912 0.30263
 C53 C 0.66862 0.79218 0.32573
 H54 H 0.64826 0.77806 0.34413
 C55 C 0.72179 0.82617 0.27835
 H56 H 0.74205 0.83945 0.25939
 C57 C 0.69940 0.84929 0.30160
 H58 H 0.70279 0.88019 0.30044
 Zn59 Zn 0.74928 0.75493 0.24990
 N60 N 0.71821 0.78726 0.27973
 C61 C 0.77820 0.72695 0.32290
 N62 N 0.78017 0.72478 0.28326
 C63 C 0.80540 0.70160 0.26575
 C64 C 0.82950 0.67877 0.28828
 C65 C 0.80181 0.70457 0.34659
 C66 C 0.69530 0.73876 0.19280
 C67 C 0.67255 0.71567 0.16994
 C68 C 0.69626 0.65989 0.20506
 C69 C 0.71886 0.68398 0.22686
 N70 N 0.71844 0.72259 0.22001
 H71 H 0.75853 0.74619 0.33625
 H72 H 0.80657 0.70074 0.23415
 H73 H 0.84887 0.65996 0.27372
 H74 H 0.80009 0.70689 0.37808
 H75 H 0.69499 0.76963 0.18844
 H76 H 0.65534 0.72909 0.14753
 H77 H 0.69677 0.62931 0.21142
 H78 H 0.73644 0.67174 0.24953
 C79 C 0.67257 0.83227 0.32583
 C80 C 0.83055 0.82767 0.17159
 C81 C 0.67298 0.67556 0.17576
 C82 C 0.82787 0.68002 0.32929
 C83 C 0.79826 0.30241 0.73662
 H84 H 0.79677 0.30611 0.76794
 C85 C 0.82237 0.32498 0.71434
 H86 H 0.83869 0.34654 0.72887
 C87 C 0.77784 0.27027 0.68000
 H88 H 0.76094 0.24840 0.66687
 C89 C 0.80209 0.29178 0.65664
 H90 H 0.80353 0.28597 0.62567
 N91 N 0.77608 0.27626 0.71917
 C92 C 0.69268 0.26437 0.81065
 H93 H 0.69344 0.23364 0.81596
 C94 C 0.67019 0.28770 0.83362
 H95 H 0.65431 0.27464 0.85708
 C96 C 0.71304 0.31851 0.77390
 H97 H 0.72905 0.33036 0.74999
 C98 C 0.69066 0.34283 0.79582
 H99 H 0.68991 0.37321 0.78846
 Zn100 Zn 0.74456 0.24714 0.75228
 N101 N 0.71423 0.28015 0.78211
 C102 C 0.77748 0.22041 0.82421
 N103 N 0.77592 0.21649 0.78480
 C104 C 0.79842 0.19130 0.76638
 C105 C 0.82313 0.16805 0.78765
 C106 C 0.80183 0.19777 0.84681
 C107 C 0.69046 0.23328 0.69537
 C108 C 0.66602 0.21165 0.67299
 C109 C 0.68649 0.15462 0.70835
 C110 C 0.71081 0.17728 0.72977
 N111 N 0.71263 0.21581 0.72268
 H112 H 0.76050 0.24176 0.83826
 H113 H 0.79679 0.18894 0.73489
 H114 H 0.83851 0.14716 0.77116
 H115 H 0.80290 0.20370 0.87770
 H116 H 0.69193 0.26409 0.69091
 H117 H 0.64861 0.22598 0.65131
 H118 H 0.68566 0.12393 0.71406
 H119 H 0.72790 0.16407 0.75232
 C120 C 0.66916 0.32761 0.82652
 C121 C 0.82464 0.31986 0.67369
 C122 C 0.66385 0.17178 0.67939
 C123 C 0.82566 0.17063 0.82897
 C124 C 0.30330 0.79544 0.73040
 H125 H 0.30471 0.79620 0.76200
 C126 C 0.32815 0.81697 0.70795
 H127 H 0.34843 0.83467 0.72244
 C128 C 0.27505 0.77133 0.67316
 H129 H 0.25488 0.75291 0.65968
 C130 C 0.29912 0.79277 0.64955
 H131 H 0.29709 0.79083 0.61802
 N132 N 0.27726 0.77340 0.71283
 C133 C 0.19159 0.76173 0.80198
 H134 H 0.19087 0.73083 0.80594
 C135 C 0.16900 0.78509 0.82480
 H136 H 0.15145 0.77180 0.84674
 C137 C 0.21633 0.81630 0.76922
 H138 H 0.23450 0.82834 0.74720
 C139 C 0.19390 0.84070 0.79103
 H140 H 0.19503 0.87136 0.78531
 Zn141 Zn 0.24604 0.74445 0.74645
 N142 N 0.21523 0.77763 0.77546
 C143 C 0.27694 0.71982 0.81971
 N144 N 0.27762 0.71546 0.78023
 C145 C 0.30246 0.69147 0.76321
 C146 C 0.32735 0.66997 0.78613
 C147 C 0.30135 0.69883 0.84376
 C148 C 0.19055 0.72779 0.69166
 C149 C 0.16746 0.70475 0.66917
 C150 C 0.19373 0.64869 0.70166
 C151 C 0.21648 0.67279 0.72333
 N152 N 0.21497 0.71154 0.71753
 H153 H 0.25791 0.73995 0.83267
 H154 H 0.30281 0.68904 0.73170
 H155 H 0.34645 0.65053 0.77203
 H156 H 0.30066 0.70296 0.87508
 H157 H 0.18943 0.75873 0.68812
 H158 H 0.14908 0.71827 0.64787
 H159 H 0.19522 0.61796 0.70695
 H160 H 0.23516 0.66043 0.74492
 C161 C 0.17013 0.82524 0.81969
 C162 C 0.32612 0.81590 0.66697
 C163 C 0.16903 0.66456 0.67381
 C164 C 0.32696 0.67346 0.82701
 Si165 Si 0.00424 -0.00121 -0.00221
 Si166 Si -0.00353 0.49508 0.49959
 Si167 Si 0.49881 -0.00213 0.50264
 Si168 Si 0.50272 0.50199 0.00322
 C169 C 0.10421 -0.10016 -0.10783
 C170 C 0.09019 -0.13613 -0.11949
 C171 C 0.11147 -0.16001 -0.14353
 C172 C 0.14719 -0.14911 -0.15557
 C173 C 0.16123 -0.11375 -0.14322
 C174 C 0.14011 -0.08956 -0.11984
 C175 C 0.08042 -0.07528 -0.08262
 C176 C 0.09088 -0.03806 -0.07142
 C177 C 0.06790 -0.01621 -0.04760
 C178 C 0.03425 -0.03100 -0.03403
 C179 C 0.02308 -0.06757 -0.04555
 C180 C 0.04572 -0.08966 -0.06998
 C181 C 0.05522 -0.14828 -0.10673
 C182 C 0.03367 -0.12576 -0.08213
 H183 H 0.04452 -0.17589 -0.11550
 H184 H 0.00700 -0.13667 -0.07272
 H185 H 0.10005 -0.18706 -0.15301
 H186 H 0.18899 -0.10492 -0.15109
 H187 H 0.07651 0.01244 -0.03981
 H188 H -0.00333 -0.07880 -0.03585
 H189 H 0.15266 -0.06299 -0.11108
 H190 H 0.11644 -0.02510 -0.08099
 C191 C 0.09197 0.39265 0.39258
 C192 C 0.12533 0.40879 0.37828
 C193 C 0.14943 0.38677 0.35538
 C194 C 0.14066 0.34879 0.34575
 C195 C 0.10709 0.33324 0.35915
 C196 C 0.08310 0.35474 0.38227
 C197 C 0.06761 0.41673 0.41802
 C198 C 0.03500 0.40267 0.43568
 C199 C 0.01368 0.42608 0.45973
 C200 C 0.02409 0.46407 0.46647
 C201 C 0.05632 0.47846 0.44898
 C202 C 0.07833 0.45505 0.42528
 C203 C 0.13446 0.44681 0.38685
 C204 C 0.11130 0.46956 0.40952
 H205 H 0.15990 0.45926 0.37573
 H206 H 0.11958 0.49884 0.41521
 H207 H 0.17537 0.39913 0.34557
 H208 H 0.09907 0.30439 0.35144
 H209 H -0.01092 0.41417 0.47307
 H210 H 0.06482 0.50769 0.45460
 H211 H 0.05772 0.34118 0.39151
 H212 H 0.02570 0.37359 0.43178
 C213 C 0.60493 -0.09809 0.40089
 C214 C 0.58848 -0.12628 0.37708
 C215 C 0.61071 -0.14919 0.35302
 C216 C 0.64918 -0.14377 0.35143
 C217 C 0.66532 -0.11523 0.37428
 C218 C 0.64360 -0.09275 0.39882
 C219 C 0.58031 -0.07471 0.42670
 C220 C 0.59411 -0.04779 0.45341
 C221 C 0.56997 -0.02638 0.47643
 C222 C 0.53159 -0.03099 0.47307
 C223 C 0.51750 -0.05823 0.44736
 C224 C 0.54150 -0.08035 0.42448
 C225 C 0.54993 -0.13104 0.37696
 C226 C 0.52692 -0.10822 0.39976
 H227 H 0.53730 -0.15244 0.35857
 H228 H 0.49724 -0.11273 0.39827
 H229 H 0.59800 -0.17078 0.33488
 H230 H 0.69500 -0.11062 0.37353
 H231 H 0.58155 -0.00626 0.49681
 H232 H 0.48776 -0.06224 0.44528
 H233 H 0.65761 -0.07122 0.41560
 H234 H 0.62341 -0.04305 0.45725
 C235 C 0.60264 0.40270 -0.10225
 C236 C 0.58986 0.36551 -0.11139
 C237 C 0.61138 0.34137 -0.13490
 C238 C 0.64610 0.35331 -0.14896
 C239 C 0.65896 0.38992 -0.13912
 C240 C 0.63759 0.41433 -0.11624
 C241 C 0.57862 0.42778 -0.07750
 C242 C 0.58791 0.46592 -0.06843
 C243 C 0.56485 0.48787 -0.04479
 C244 C 0.53215 0.47240 -0.02946
 C245 C 0.52225 0.43477 -0.03870
 C246 C 0.54499 0.41253 -0.06286
 C247 C 0.55589 0.35246 -0.09670
 C248 C 0.53415 0.37529 -0.07260
 H249 H 0.54614 0.32394 -0.10356
 H250 H 0.50829 0.36368 -0.06162
 H251 H 0.60089 0.31332 -0.14247
 H252 H 0.68598 0.39963 -0.14865
 H253 H 0.57283 0.51701 -0.03820
 H254 H 0.49685 0.42268 -0.02732
 H255 H 0.64920 0.44193 -0.10950
 H256 H 0.61271 0.47944 -0.07936
 C257 C -0.09915 0.10065 -0.10554
 C258 C -0.12934 0.11865 -0.08692
 C259 C -0.15422 0.14189 -0.10869
 C260 C -0.14992 0.14813 -0.14957
 C261 C -0.11912 0.13005 -0.16733
 C262 C -0.09443 0.10694 -0.14589
 C263 C -0.07345 0.07575 -0.08138
 C264 C -0.04294 0.05605 -0.09740
 C265 C -0.01987 0.03322 -0.07369
 C266 C -0.02651 0.02954 -0.03353
 C267 C -0.05681 0.04868 -0.01717
 C268 C -0.08034 0.07166 -0.04075
 C269 C -0.13474 0.11320 -0.04659
 C270 C -0.11071 0.09036 -0.02400
 H271 H -0.15789 0.12694 -0.03217
 H272 H -0.11608 0.08719 0.00707
 H273 H -0.17790 0.15324 -0.09333
 H274 H -0.11220 0.13485 -0.19772
 H275 H 0.00328 0.01858 -0.08701
 H276 H -0.06211 0.04554 0.01393
 H277 H -0.07150 0.09467 -0.16162
 H278 H -0.03638 0.05770 -0.12811
 C279 C -0.09871 0.60773 0.39880
 C280 C -0.13610 0.61308 0.41013
 C281 C -0.15972 0.63699 0.38766
 C282 C -0.14679 0.65576 0.35372
 C283 C -0.10963 0.65073 0.34283
 C284 C -0.08589 0.62711 0.36497
 C285 C -0.07462 0.58130 0.42313
 C286 C -0.03711 0.57390 0.41432
 C287 C -0.01614 0.54839 0.43741
 C288 C -0.03196 0.52949 0.46962
 C289 C -0.06886 0.53740 0.47943
 C290 C -0.09034 0.56285 0.45633
 C291 C -0.14981 0.59426 0.44357
 C292 C -0.12742 0.56973 0.46619
 H293 H -0.17840 0.59840 0.45230
 H294 H -0.13943 0.55569 0.49166
 H295 H -0.18849 0.64030 0.39614
 H296 H -0.09875 0.66534 0.31715
 H297 H 0.01252 0.54338 0.42979
 H298 H -0.08093 0.52398 0.50515
 H299 H -0.05771 0.62438 0.35494
 H300 H -0.02342 0.58733 0.38971
 C301 C 0.40335 0.10562 0.39719
 C302 C 0.37161 0.12226 0.41445
 C303 C 0.34747 0.14544 0.39179
 C304 C 0.35505 0.15362 0.35219
 C305 C 0.38764 0.13858 0.33585
 C306 C 0.41132 0.11477 0.35785
 C307 C 0.42730 0.07936 0.42178
 C308 C 0.45720 0.05823 0.40638
 C309 C 0.47833 0.03370 0.43042
 C310 C 0.47032 0.02987 0.47029
 C311 C 0.44107 0.05106 0.48612
 C312 C 0.41887 0.07487 0.46202
 C313 C 0.36431 0.11592 0.45427
 C314 C 0.38785 0.09337 0.47772
 H315 H 0.34023 0.12897 0.46765
 H316 H 0.38121 0.08969 0.50845
 H317 H 0.32248 0.15662 0.40504
 H318 H 0.39517 0.14539 0.30591
 H319 H 0.50113 0.01799 0.41768
 H320 H 0.43501 0.04820 0.51709
 H321 H 0.43591 0.10423 0.34361
 H322 H 0.46440 0.05978 0.37580
 C323 C 0.40337 0.60692 -0.10130
 C324 C 0.36613 0.61206 -0.08939
 C325 C 0.34150 0.63400 -0.11269
 C326 C 0.35327 0.65092 -0.14806
 C327 C 0.39022 0.64594 -0.15969
 C328 C 0.41497 0.62430 -0.13671
 C329 C 0.42860 0.58274 -0.07590
 C330 C 0.46615 0.57594 -0.08502
 C331 C 0.48815 0.55229 -0.06098
 C332 C 0.47333 0.53476 -0.02748
 C333 C 0.43646 0.54225 -0.01731
 C334 C 0.41396 0.56584 -0.04132
 C335 C 0.35354 0.59497 -0.05454
 C336 C 0.37693 0.57234 -0.03105
 H337 H 0.32505 0.59894 -0.04538
 H338 H 0.36575 0.55951 -0.00451
 H339 H 0.31289 0.63725 -0.10365
 H340 H 0.40016 0.65914 -0.18656
 H341 H 0.51678 0.54752 -0.06893
 H342 H 0.42515 0.52974 0.00928
 H343 H 0.44294 0.62149 -0.14734
 H344 H 0.47907 0.58839 -0.11060
 C345 C -0.09485 -0.10379 0.10317
 C346 C -0.12771 -0.11810 0.08628
 C347 C -0.15214 -0.14063 0.10883
 C348 C -0.14447 -0.14991 0.14850
 C349 C -0.11105 -0.13609 0.16451
 C350 C -0.08681 -0.11352 0.14239
 C351 C -0.06999 -0.07903 0.07842
 C352 C -0.03758 -0.06189 0.09309
 C353 C -0.01550 -0.03886 0.06898
 C354 C -0.02496 -0.03252 0.02967
 C355 C -0.05717 -0.04916 0.01468
 C356 C -0.07987 -0.07207 0.03878
 C357 C -0.13610 -0.10980 0.04694
 C358 C -0.11255 -0.08758 0.02363
 H359 H -0.16123 -0.12083 0.03386
 H360 H -0.12024 -0.08215 -0.00666
 H361 H -0.17786 -0.14941 0.09537
 H362 H -0.10235 -0.14367 0.19394
 H363 H 0.00900 -0.02606 0.08139
 H364 H -0.06477 -0.04390 -0.01567
 H365 H -0.06168 -0.10441 0.15657
 H366 H -0.02889 -0.06553 0.12314
 C367 C -0.10134 0.39097 0.60474
 C368 C -0.13498 0.37782 0.58843
 C369 C -0.15902 0.35489 0.61099
 C370 C -0.14961 0.34365 0.64949
 C371 C -0.11542 0.35546 0.66486
 C372 C -0.09171 0.37889 0.64299
 C373 C -0.07718 0.41669 0.58027
 C374 C -0.04490 0.43412 0.59493
 C375 C -0.02331 0.45781 0.57093
 C376 C -0.03319 0.46447 0.53178
 C377 C -0.06526 0.44749 0.51684
 C378 C -0.08770 0.42437 0.54095
 C379 C -0.14428 0.38731 0.54959
 C380 C -0.12082 0.40950 0.52615
 H381 H -0.16989 0.37699 0.53694
 H382 H -0.12905 0.41563 0.49615
 H383 H -0.18531 0.34623 0.59858
 H384 H -0.10665 0.34630 0.69389
 H385 H 0.00135 0.47061 0.58310
 H386 H -0.07295 0.45268 0.48651
 H387 H -0.06581 0.38681 0.65642
 H388 H -0.03603 0.43018 0.62490
 C389 C 0.40114 -0.11511 0.59780
 C390 C 0.36280 -0.11573 0.58872
 C391 C 0.33868 -0.13900 0.61078
 C392 C 0.35197 -0.16104 0.64264
 C393 C 0.38987 -0.16015 0.65182
 C394 C 0.41421 -0.13765 0.62968
 C395 C 0.42587 -0.08951 0.57381
 C396 C 0.46463 -0.08813 0.57917
 C397 C 0.48615 -0.06255 0.55716
 C398 C 0.46958 -0.03744 0.52984
 C399 C 0.43142 -0.03992 0.52273
 C400 C 0.40949 -0.06570 0.54444
 C401 C 0.34858 -0.09247 0.55831
 C402 C 0.37136 -0.06770 0.53692
 H403 H 0.31923 -0.09288 0.55139
 H404 H 0.35888 -0.04976 0.51417
 H405 H 0.30930 -0.13905 0.60393
 H406 H 0.40075 -0.17709 0.67619
 H407 H 0.51584 -0.06188 0.56201
 H408 H 0.41862 -0.02196 0.50029
 H409 H 0.44298 -0.13792 0.63838
 H410 H 0.47887 -0.10645 0.60014
 C411 C 0.40374 0.39693 0.10610
 C412 C 0.37143 0.38213 0.08835
 C413 C 0.34693 0.35914 0.11024
 C414 C 0.35448 0.34966 0.14962
 C415 C 0.38724 0.36334 0.16666
 C416 C 0.41146 0.38672 0.14536
 C417 C 0.42849 0.42249 0.08212
 C418 C 0.45972 0.44105 0.09782
 C419 C 0.48174 0.46478 0.07430
 C420 C 0.47338 0.47031 0.03460
 C421 C 0.44242 0.45214 0.01862
 C422 C 0.41961 0.42885 0.04214
 C423 C 0.36386 0.39014 0.04880
 C424 C 0.38772 0.41253 0.02606
 H425 H 0.33927 0.37860 0.03510
 H426 H 0.38079 0.41761 -0.00449
 H427 H 0.32170 0.34903 0.09662
 H428 H 0.39449 0.35565 0.19655
 H429 H 0.50541 0.47867 0.08733
 H430 H 0.43574 0.45667 -0.01208
 H431 H 0.43621 0.39611 0.16009
 H432 H 0.46740 0.43803 0.12824
 C433 C 0.10640 0.09764 0.10091
 C434 C 0.09515 0.13600 0.10761
 C435 C 0.11672 0.15974 0.13139
 C436 C 0.15008 0.14621 0.14814
 C437 C 0.16154 0.10843 0.14061
 C438 C 0.14006 0.08444 0.11749
 C439 C 0.08215 0.07296 0.07609
 C440 C 0.08973 0.03379 0.06962
 C441 C 0.06623 0.01206 0.04634
 C442 C 0.03483 0.02877 0.02877
 C443 C 0.02684 0.06758 0.03501
 C444 C 0.04995 0.08964 0.05891
 C445 C 0.06260 0.15056 0.09029
 C446 C 0.04073 0.12802 0.06610
 H447 H 0.05405 0.17999 0.09522
 H448 H 0.01598 0.14075 0.05315
 H449 H 0.10727 0.18872 0.13712
 H450 H 0.18756 0.09742 0.15220
 H451 H 0.07262 -0.01803 0.04204
 H452 H 0.00246 0.08065 0.02176
 H453 H 0.15056 0.05585 0.11264
 H454 H 0.11337 0.01925 0.08251
 C455 C 0.10084 0.59114 0.60284
 C456 C 0.08670 0.62651 0.61646
 C457 C 0.10886 0.65006 0.63984
 C458 C 0.14538 0.63931 0.64958
 C459 C 0.15942 0.60443 0.63564
 C460 C 0.13754 0.58064 0.61268
 C461 C 0.07620 0.56673 0.57813
 C462 C 0.08705 0.53037 0.56439
 C463 C 0.06319 0.50899 0.54112
 C464 C 0.02821 0.52347 0.53069
 C465 C 0.01667 0.55906 0.54483
 C466 C 0.04029 0.58073 0.56851
 C467 C 0.05067 0.63835 0.60642
 C468 C 0.02808 0.61610 0.58273
 H469 H 0.03986 0.66546 0.61676
 H470 H 0.00053 0.62671 0.57553
 H471 H 0.09748 0.67672 0.65070
 H472 H 0.18771 0.59572 0.64196
 H473 H 0.07211 0.48100 0.53136
 H474 H -0.01078 0.56989 0.53753
 H475 H 0.15008 0.55441 0.60263
 H476 H 0.11367 0.51777 0.57145
 C477 C 0.59030 0.10175 0.61125
 C478 C 0.61243 0.13020 0.59280
 C479 C 0.63577 0.15339 0.61526
 C480 C 0.63817 0.14815 0.65599
 C481 C 0.61649 0.11977 0.67418
 C482 C 0.59277 0.09693 0.65222
 C483 C 0.56605 0.07732 0.58615
 C484 C 0.54190 0.04925 0.60166
 C485 C 0.52112 0.02611 0.57693
 C486 C 0.52415 0.03014 0.53628
 C487 C 0.54664 0.05911 0.52049
 C488 C 0.56757 0.08268 0.54502
 C489 C 0.61175 0.13482 0.55201
 C490 C 0.59007 0.11133 0.52862
 H491 H 0.62873 0.15654 0.53787
 H492 H 0.59100 0.11563 0.49715
 H493 H 0.65291 0.17487 0.60092
 H494 H 0.61772 0.11537 0.70561
 H495 H 0.50285 0.00499 0.58988
 H496 H 0.54830 0.06285 0.48898
 H497 H 0.57700 0.07543 0.66787
 H498 H 0.53864 0.04466 0.63273
 C499 C 0.60535 0.60091 0.10543
 C500 C 0.59216 0.63777 0.11567
 C501 C 0.61407 0.66178 0.13885
 C502 C 0.64960 0.65009 0.15138
 C503 C 0.66291 0.61391 0.14022
 C504 C 0.64116 0.58960 0.11772
 C505 C 0.58082 0.57584 0.08133
 C506 C 0.59031 0.53775 0.07182
 C507 C 0.56670 0.51579 0.04887
 C508 C 0.53339 0.53133 0.03456
 C509 C 0.52313 0.56875 0.04448
 C510 C 0.54638 0.59096 0.06804
 C511 C 0.55738 0.65064 0.10238
 C512 C 0.53521 0.62795 0.07866
 H513 H 0.54732 0.67894 0.11004
 H514 H 0.50873 0.63943 0.06874
 H515 H 0.60322 0.68951 0.14737
 H516 H 0.69055 0.60444 0.14844
 H517 H 0.57459 0.48656 0.04216
 H518 H 0.49691 0.58052 0.03417
 H519 H 0.65314 0.56235 0.10989
 H520 H 0.61561 0.52426 0.08204
   
