data_POSCAR
  _audit_creation_date              2014-09-24
  _audit_creation_method            'ToBaCCo'
  _symmetry_space_group_name_H-M    'P1'
  _symmetry_Int_Tables_number       1
  _symmetry_cell_setting            triclinic
  loop_
  _symmetry_equiv_pos_as_xyz
 x,y,z
_cell_length_a 40.3706
_cell_length_b 39.5410
_cell_length_c 41.3020
_cell_angle_alpha 90.701800
_cell_angle_beta 88.018400
_cell_angle_gamma 89.929800
loop_
  _atom_site_label
  _atom_site_type_symbol
  _atom_site_fract_x
  _atom_site_fract_y
  _atom_site_fract_z
Si1 Si 1.25571 0.25017 0.25284
 Si2 Si 0.75349 -0.25518 0.24671
 Si3 Si 0.75090 0.23110 -0.25362
 Si4 Si 1.24824 -0.26385 -0.24824
 Si5 Si 0.24973 0.26357 0.74714
 Si6 Si 0.74945 0.76953 0.75233
 Si7 Si 0.74182 0.25435 0.25324
 Si8 Si 0.24606 0.74977 0.24654
 N9 N 0.97234 0.06695 0.03735
 N10 N 0.94989 0.09055 0.04395
 N11 N 1.04231 0.04394 0.05751
 N12 N 1.06452 0.05182 0.07907
 N13 N 1.04197 0.06669 0.03462
 N14 N 1.06386 0.09068 0.04011
 N15 N 0.97264 0.04461 0.06062
 N16 N 0.95046 0.05257 0.08374
 C17 C 0.93619 0.08112 0.07283
 C18 C 1.07806 0.08085 0.06771
 N19 N 1.04123 -0.05382 0.03788
 N20 N 1.06257 -0.07778 0.04488
 N21 N 0.97217 -0.02843 0.06246
 N22 N 0.95067 -0.03456 0.08648
 N23 N 0.97183 -0.05296 0.04071
 N24 N 0.95033 -0.07650 0.04955
 N25 N 1.04203 -0.02906 0.05936
 N26 N 1.06428 -0.03534 0.08122
 Mn27 Mn 1.00730 0.00777 0.06028
 C28 C 1.07715 -0.06566 0.07168
 C29 C 0.93695 -0.06446 0.07793
 N30 N 1.04148 0.06387 -0.03524
 N31 N 1.06336 0.08720 -0.04380
 N32 N 0.97162 0.03978 -0.05427
 N33 N 0.94990 0.04622 -0.07657
 N34 N 0.97191 0.06432 -0.03257
 N35 N 0.95051 0.08818 -0.03969
 N36 N 1.04134 0.03929 -0.05688
 N37 N 1.06321 0.04515 -0.08063
 Mn38 Mn 1.00691 0.06574 0.00106
 C39 C 1.07705 0.07494 -0.07198
 C40 C 0.93660 0.07632 -0.06697
 N41 N 0.97106 -0.05566 -0.02936
 N42 N 0.94848 -0.07905 -0.03479
 N43 N 1.04095 -0.03343 -0.05489
 N44 N 1.06345 -0.04071 -0.07783
 N45 N 1.04075 -0.05644 -0.03222
 N46 N 1.06300 -0.08016 -0.03933
 N47 N 0.97132 -0.03297 -0.05232
 N48 N 0.94900 -0.04028 -0.07388
 Mn49 Mn 1.00619 -0.05504 0.00424
 Mn50 Mn 1.00632 0.00313 -0.05483
 Cl51 Cl 1.00667 0.00540 0.00272
 C52 C 0.93465 -0.06888 -0.06251
 C53 C 1.07725 -0.06976 -0.06770
 N54 N 1.02861 0.46504 0.44208
 N55 N 1.05174 0.45905 0.41934
 N56 N 0.95894 0.44148 0.46679
 N57 N 0.93750 0.41746 0.46029
 N58 N 0.95875 0.46502 0.44461
 N59 N 0.93700 0.45746 0.42240
 N60 N 1.02831 0.44106 0.46381
 N61 N 1.05090 0.41789 0.45622
 C62 C 1.06556 0.42965 0.42863
 C63 C 0.92363 0.42787 0.43278
 N64 N 0.95914 0.46420 0.55920
 N65 N 0.93783 0.45687 0.58299
 N66 N 1.02891 0.44028 0.53364
 N67 N 1.05126 0.41674 0.53893
 N68 N 1.02870 0.46335 0.55675
 N69 N 1.05081 0.45613 0.57840
 N70 N 0.95926 0.44051 0.53664
 N71 N 0.93813 0.41629 0.54468
 Mn72 Mn 0.99387 0.44056 0.50019
 C73 C 0.92456 0.42713 0.57345
 C74 C 1.06498 0.42719 0.56681
 N75 N 0.95927 0.53847 0.44630
 N76 N 0.93820 0.54688 0.42401
 N77 N 1.02948 0.56096 0.46673
 N78 N 1.05162 0.58454 0.45980
 N79 N 1.02890 0.53812 0.44340
 N80 N 1.05060 0.54573 0.41992
 N81 N 0.95994 0.56187 0.46915
 N82 N 0.93942 0.58677 0.46289
 Mn83 Mn 0.99383 0.50164 0.44376
 C84 C 0.92564 0.57685 0.43492
 C85 C 1.06492 0.57457 0.43069
 N86 N 1.02952 0.53582 0.55809
 N87 N 1.05295 0.54079 0.57906
 N88 N 0.96008 0.56098 0.53906
 N89 N 0.93868 0.58503 0.54753
 N90 N 0.95973 0.53699 0.56076
 N91 N 0.93788 0.54396 0.58442
 N92 N 1.02953 0.56007 0.53668
 N93 N 1.05266 0.58262 0.54288
 Mn94 Mn 0.99423 0.50012 0.55894
 Mn95 Mn 0.99477 0.56126 0.50290
 Cl96 Cl 0.99411 0.50090 0.50140
 C97 C 1.06731 0.56993 0.56915
 C98 C 0.92466 0.57384 0.57567
 N99 N 0.54668 0.03386 0.53318
 N100 N 0.56923 0.05635 0.54113
 N101 N 0.52900 -0.03816 0.55519
 N102 N 0.53811 -0.05864 0.57829
 N103 N 0.55195 -0.03694 0.53194
 N104 N 0.57713 -0.05670 0.53847
 N105 N 0.52295 0.03254 0.55567
 N106 N 0.52872 0.05417 0.57942
 C107 C 0.55742 0.06926 0.56977
 C108 C 0.56797 -0.07044 0.56724
 N109 N 0.43544 -0.04673 0.53364
 N110 N 0.41425 -0.07119 0.54078
 N111 N 0.45170 0.02637 0.55617
 N112 N 0.44304 0.04961 0.57809
 N113 N 0.42923 0.02390 0.53404
 N114 N 0.40466 0.04525 0.54033
 N115 N 0.45805 -0.04449 0.55567
 N116 N 0.45311 -0.06756 0.57810
 Mn117 Mn 0.49035 -0.00588 0.55595
 C118 C 0.42592 -0.08427 0.56835
 C119 C 0.41373 0.06133 0.56774
 N120 N 0.55330 -0.03687 0.46222
 N121 N 0.57760 -0.05854 0.45587
 N122 N 0.52600 0.03234 0.44083
 N123 N 0.53244 0.05533 0.41851
 N124 N 0.54788 0.03406 0.46360
 N125 N 0.56937 0.05845 0.45769
 N126 N 0.53125 -0.03840 0.43961
 N127 N 0.54010 -0.06099 0.41714
 Mn128 Mn 0.55019 -0.00150 0.49767
 C129 C 0.56893 -0.07360 0.42782
 C130 C 0.55930 0.07176 0.42969
 N131 N 0.43080 0.02391 0.46436
 N132 N 0.40643 0.04519 0.45904
 N133 N 0.45971 -0.04415 0.44009
 N134 N 0.45366 -0.06564 0.41625
 N135 N 0.43710 -0.04696 0.46358
 N136 N 0.41548 -0.07073 0.45654
 N137 N 0.45439 0.02658 0.44184
 N138 N 0.44668 0.04975 0.42060
 Mn139 Mn 0.43285 -0.01157 0.49890
 Mn140 Mn 0.49285 -0.00586 0.44025
 Cl141 Cl 0.49156 -0.00622 0.49818
 C142 C 0.41679 0.06135 0.43181
 C143 C 0.42637 -0.08248 0.42717
 N144 N 0.46921 0.55839 -0.03678
 N145 N 0.46218 0.58171 -0.05801
 N146 N 0.44619 0.53477 0.03173
 N147 N 0.42294 0.54082 0.05428
 N148 N 0.46830 0.55910 0.03117
 N149 N 0.46044 0.58254 0.05323
 N150 N 0.44668 0.53446 -0.03639
 N151 N 0.42366 0.54097 -0.05745
 C152 C 0.43391 0.57038 -0.07102
 C153 C 0.43227 0.57054 0.06773
 N154 N 0.47193 0.43932 0.03106
 N155 N 0.46538 0.41535 0.05222
 N156 N 0.44875 0.46140 -0.03650
 N157 N 0.42627 0.45389 -0.05786
 N158 N 0.47209 0.43821 -0.03678
 N159 N 0.46600 0.41424 -0.05826
 N160 N 0.44803 0.46190 0.03156
 N161 N 0.42460 0.45382 0.05322
 Mn162 Mn 0.44708 0.49813 -0.00243
 C163 C 0.43601 0.42491 0.06620
 C164 C 0.43753 0.42457 -0.07149
 N165 N 0.53988 0.56059 0.02917
 N166 N 0.54527 0.58378 0.05159
 N167 N 0.56383 0.53690 -0.03981
 N168 N 0.58751 0.54443 -0.06123
 N169 N 0.54064 0.56024 -0.03891
 N170 N 0.54805 0.58431 -0.05987
 N171 N 0.56374 0.53797 0.02803
 N172 N 0.58611 0.54527 0.04959
 Mn173 Mn 0.50450 0.55991 -0.00381
 C174 C 0.57407 0.57374 0.06432
 C175 C 0.57719 0.57380 -0.07392
 N176 N 0.54345 0.43987 -0.03887
 N177 N 0.55088 0.41590 -0.06038
 N178 N 0.56573 0.46529 0.02791
 N179 N 0.58912 0.45960 0.04865
 N180 N 0.54340 0.44121 0.02906
 N181 N 0.55106 0.41843 0.05073
 N182 N 0.56564 0.46410 -0.04016
 N183 N 0.58865 0.45736 -0.06287
 Mn184 Mn 0.50772 0.43937 -0.00384
 Mn185 Mn 0.56501 0.50108 -0.00606
 Cl186 Cl 0.50605 0.49963 -0.00404
 C187 C 0.57888 0.42731 -0.07548
 C188 C 0.57951 0.43049 0.06299
 C189 C 1.23761 0.18544 0.22766
 C190 C 1.22010 0.16385 0.20735
 C191 C 1.19889 0.17707 0.18455
 C192 C 1.19532 0.21233 0.18227
 C193 C 1.21248 0.23388 0.20284
 C194 C 1.23357 0.22059 0.22577
 N195 N 1.18058 0.15431 0.16469
 N196 N 1.16437 0.16461 0.14082
 C197 C 1.14479 0.14236 0.12167
 C198 C 1.13046 0.15492 0.09388
 C199 C 1.10957 0.13456 0.07569
 C200 C 1.10236 0.10134 0.08531
 C201 C 1.11726 0.08852 0.11288
 C202 C 1.13842 0.10882 0.13087
 H203 H 1.25407 0.17455 0.24480
 H204 H 1.22308 0.13674 0.20934
 H205 H 1.17896 0.22319 0.16496
 H206 H 1.20918 0.26097 0.20096
 H207 H 1.13513 0.18074 0.08658
 H208 H 1.09840 0.14513 0.05460
 H209 H 1.11216 0.06299 0.12081
 H210 H 1.14914 0.09857 0.15233
 C211 C 1.18548 0.72129 0.72609
 C212 C 1.16439 0.70523 0.70465
 C213 C 1.17660 0.68006 0.68329
 C214 C 1.21037 0.67143 0.68317
 C215 C 1.23160 0.68808 0.70404
 C216 C 1.21918 0.71270 0.72595
 N217 N 1.15442 0.66396 0.66173
 N218 N 1.16113 0.63546 0.64845
 C219 C 1.13903 0.61967 0.62662
 C220 C 1.13903 0.58440 0.62367
 C221 C 1.11595 0.56817 0.60446
 C222 C 1.09337 0.58716 0.58703
 C223 C 1.09445 0.62260 0.58871
 C224 C 1.11685 0.63879 0.60877
 H225 H 1.17552 0.74088 0.74216
 H226 H 1.13846 0.71226 0.70475
 H227 H 1.22041 0.65237 0.66653
 H228 H 1.25774 0.68179 0.70304
 H229 H 1.15613 0.56947 0.63723
 H230 H 1.11554 0.54078 0.60340
 H231 H 1.07712 0.63768 0.57556
 H232 H 1.11676 0.66613 0.61050
 C233 C 0.73784 0.18249 0.69690
 C234 C 0.71794 0.16480 0.67552
 C235 C 0.68363 0.16973 0.67638
 C236 C 0.66928 0.19249 0.69919
 C237 C 0.68926 0.21047 0.72039
 C238 C 0.72382 0.20596 0.71916
 N239 N 0.66411 0.15125 0.65392
 N240 N 0.63257 0.15127 0.65546
 C241 C 0.61363 0.13255 0.63265
 C242 C 0.57980 0.12729 0.63924
 C243 C 0.56120 0.10730 0.61842
 C244 C 0.57615 0.09273 0.59034
 C245 C 0.60981 0.09913 0.58312
 C246 C 0.62847 0.11867 0.60419
 H247 H 0.76408 0.17727 0.69621
 H248 H 0.72925 0.14697 0.65835
 H249 H 0.64274 0.19658 0.70045
 H250 H 0.67750 0.22786 0.73759
 H251 H 0.56805 0.13797 0.66102
 H252 H 0.53528 0.10284 0.62450
 H253 H 0.62198 0.08820 0.56167
 H254 H 0.65452 0.12262 0.59841
 C255 C 0.74556 0.69660 0.19591
 C256 C 0.72758 0.67564 0.17553
 C257 C 0.69295 0.67584 0.17736
 C258 C 0.67636 0.69710 0.20008
 C259 C 0.69436 0.71783 0.22068
 C260 C 0.72915 0.71805 0.21854
 N261 N 0.67531 0.65407 0.15611
 N262 N 0.64394 0.65529 0.15432
 C263 C 0.62647 0.63346 0.13297
 C264 C 0.59302 0.63995 0.12775
 C265 C 0.57574 0.62017 0.10575
 C266 C 0.59166 0.59325 0.08901
 C267 C 0.62494 0.58609 0.09504
 C268 C 0.64231 0.60616 0.11671
 H269 H 0.77225 0.69531 0.19432
 H270 H 0.74064 0.65912 0.15831
 H271 H 0.64956 0.69738 0.20222
 H272 H 0.68086 0.73310 0.23853
 H273 H 0.58055 0.66084 0.14024
 H274 H 0.55005 0.62612 0.10163
 H275 H 0.63778 0.56549 0.08244
 H276 H 0.66811 0.60052 0.12055
 C277 C 0.81008 -0.24422 0.20545
 C278 C 0.83158 -0.22501 0.18586
 C279 C 0.82765 -0.18994 0.18415
 C280 C 0.80228 -0.17409 0.20292
 C281 C 0.78055 -0.19336 0.22225
 C282 C 0.78373 -0.22871 0.22301
 N283 N 0.84930 -0.17120 0.16285
 N284 N 0.84967 -0.13901 0.16268
 C285 C 0.87089 -0.12059 0.14069
 C286 C 0.87552 -0.08590 0.14592
 C287 C 0.89678 -0.06747 0.12533
 C288 C 0.91326 -0.08343 0.09879
 C289 C 0.90790 -0.11806 0.09308
 C290 C 0.88709 -0.13657 0.11398
 H291 H 0.81426 -0.27114 0.20691
 H292 H 0.85138 -0.23748 0.17194
 H293 H 0.79894 -0.14694 0.20228
 H294 H 0.76127 -0.18042 0.23630
 H295 H 0.86304 -0.07327 0.16632
 H296 H 0.90041 -0.04078 0.13022
 H297 H 0.92034 -0.13101 0.07284
 H298 H 0.88366 -0.16330 0.10926
 C299 C 0.80169 0.24235 0.69830
 C300 C 0.82162 0.26196 0.67757
 C301 C 0.82074 0.29725 0.67992
 C302 C 0.80042 0.31277 0.70411
 C303 C 0.78036 0.29312 0.72474
 C304 C 0.77991 0.25775 0.72125
 N305 N 0.84050 0.31661 0.65745
 N306 N 0.84197 0.34873 0.65914
 C307 C 0.86149 0.36809 0.63647
 C308 C 0.86605 0.40260 0.64264
 C309 C 0.88605 0.42197 0.62175
 C310 C 0.90147 0.40714 0.59405
 C311 C 0.89606 0.37272 0.58731
 C312 C 0.87637 0.35326 0.60846
 H313 H 0.80349 0.21521 0.69624
 H314 H 0.83773 0.24964 0.65951
 H315 H 0.79981 0.34002 0.70689
 H316 H 0.76540 0.30584 0.74330
 H317 H 0.85458 0.41435 0.66404
 H318 H 0.88972 0.44848 0.62747
 H319 H 0.90771 0.36065 0.56616
 H320 H 0.87298 0.32665 0.60305
 C321 C 0.25653 -0.21605 0.70222
 C322 C 0.27430 -0.19700 0.67931
 C323 C 0.30884 -0.19942 0.67662
 C324 C 0.32553 -0.22155 0.69691
 C325 C 0.30769 -0.24091 0.71962
 C326 C 0.27311 -0.23792 0.72268
 N327 N 0.32628 -0.17891 0.65337
 N328 N 0.35774 -0.17678 0.65215
 C329 C 0.37496 -0.15572 0.62921
 C330 C 0.40849 -0.14875 0.63347
 C331 C 0.42533 -0.12611 0.61311
 C332 C 0.40895 -0.11053 0.58778
 C333 C 0.37568 -0.11868 0.58262
 C334 C 0.35870 -0.14092 0.60334
 H335 H 0.22978 -0.21378 0.70390
 H336 H 0.26116 -0.18012 0.66376
 H337 H 0.35223 -0.22407 0.69506
 H338 H 0.32100 -0.25826 0.73446
 H339 H 0.42129 -0.16008 0.65324
 H340 H 0.45103 -0.12036 0.61751
 H341 H 0.36249 -0.10698 0.56329
 H342 H 0.33282 -0.14615 0.59944
 C343 C 0.27040 0.31418 0.22477
 C344 C 0.28840 0.33615 0.20463
 C345 C 0.31498 0.32407 0.18516
 C346 C 0.32270 0.28938 0.18517
 C347 C 0.30440 0.26735 0.20500
 C348 C 0.27880 0.27977 0.22564
 N349 N 0.33365 0.34740 0.16559
 N350 N 0.36076 0.33884 0.15113
 C351 C 0.37961 0.36160 0.13114
 C352 C 0.41039 0.35091 0.11828
 C353 C 0.42908 0.37191 0.09783
 C354 C 0.41709 0.40396 0.08967
 C355 C 0.38637 0.41494 0.10298
 C356 C 0.36776 0.39393 0.12366
 H357 H 0.24988 0.32423 0.23938
 H358 H 0.28187 0.36272 0.20444
 H359 H 0.34277 0.27932 0.16988
 H360 H 0.31059 0.24069 0.20461
 H361 H 0.41977 0.32607 0.12391
 H362 H 0.45266 0.36275 0.08793
 H363 H 0.37656 0.43953 0.09708
 H364 H 0.34398 0.40273 0.13336
 C365 C 0.77336 0.16815 -0.22893
 C366 C 0.79264 0.14816 -0.20909
 C367 C 0.81519 0.16317 -0.18828
 C368 C 0.81872 0.19855 -0.18799
 C369 C 0.79983 0.21845 -0.20816
 C370 C 0.77689 0.20343 -0.22859
 N371 N 0.83426 0.14211 -0.16788
 N372 N 0.85093 0.15435 -0.14490
 C373 C 0.87083 0.13378 -0.12483
 C374 C 0.88530 0.14861 -0.09783
 C375 C 0.90594 0.12968 -0.07843
 C376 C 0.91281 0.09560 -0.08603
 C377 C 0.89792 0.08059 -0.11291
 C378 C 0.87698 0.09947 -0.13210
 H379 H 0.75553 0.15596 -0.24411
 H380 H 0.78967 0.12095 -0.20956
 H381 H 0.83612 0.21077 -0.17229
 H382 H 0.80280 0.24567 -0.20750
 H383 H 0.88078 0.17502 -0.09198
 H384 H 0.91712 0.14195 -0.05793
 H385 H 0.90276 0.05436 -0.11932
 H386 H 0.86613 0.08745 -0.15290
 C387 C 0.77186 0.68171 0.27309
 C388 C 0.78953 0.66081 0.29334
 C389 C 0.81218 0.67463 0.31464
 C390 C 0.81743 0.70979 0.31517
 C391 C 0.80010 0.73068 0.29450
 C392 C 0.77709 0.71678 0.27347
 N393 N 0.82974 0.65235 0.33506
 N394 N 0.84653 0.66311 0.35855
 C395 C 0.86473 0.64062 0.37826
 C396 C 0.87926 0.65338 0.40613
 C397 C 0.89824 0.63236 0.42519
 C398 C 0.90333 0.59827 0.41634
 C399 C 0.88835 0.58536 0.38861
 C400 C 0.86906 0.60631 0.36978
 H401 H 0.75401 0.67029 0.25742
 H402 H 0.78531 0.63377 0.29271
 H403 H 0.83502 0.72101 0.33130
 H404 H 0.80445 0.75770 0.29509
 H405 H 0.87610 0.67976 0.41291
 H406 H 0.90958 0.64301 0.44638
 H407 H 0.89188 0.55918 0.38126
 H408 H 0.85812 0.59586 0.34830
 C409 C 0.31805 0.23190 0.27836
 C410 C 0.33847 0.21337 0.29828
 C411 C 0.32475 0.19047 0.32054
 C412 C 0.29014 0.18657 0.32296
 C413 C 0.26976 0.20484 0.30281
 C414 C 0.28360 0.22717 0.27999
 N415 N 0.34642 0.17075 0.33955
 N416 N 0.33554 0.15217 0.36248
 C417 C 0.35693 0.13120 0.38060
 C418 C 0.34373 0.11419 0.40757
 C419 C 0.36345 0.09211 0.42477
 C420 C 0.39667 0.08640 0.41494
 C421 C 0.41006 0.10387 0.38812
 C422 C 0.39039 0.12622 0.37113
 H423 H 0.32937 0.24969 0.26173
 H424 H 0.36507 0.21676 0.29633
 H425 H 0.27891 0.16903 0.33999
 H426 H 0.24318 0.20121 0.30474
 H427 H 0.31798 0.11776 0.41504
 H428 H 0.35247 0.07895 0.44532
 H429 H 0.43561 0.09998 0.38007
 H430 H 0.40112 0.13901 0.35027
 C431 C 0.26760 0.67217 -0.22407
 C432 C 0.28683 0.65077 -0.20563
 C433 C 0.31272 0.66386 -0.18765
 C434 C 0.31885 0.69887 -0.18786
 C435 C 0.29937 0.72029 -0.20599
 C436 C 0.27407 0.70702 -0.22470
 N437 N 0.33198 0.64135 -0.16893
 N438 N 0.35811 0.65124 -0.15533
 C439 C 0.37734 0.62959 -0.13577
 C440 C 0.40703 0.64194 -0.12391
 C441 C 0.42581 0.62227 -0.10354
 C442 C 0.41498 0.58988 -0.09442
 C443 C 0.38540 0.57720 -0.10676
 C444 C 0.36670 0.59688 -0.12739
 H445 H 0.24747 0.66142 -0.23736
 H446 H 0.28157 0.62392 -0.20533
 H447 H 0.33841 0.70970 -0.17378
 H448 H 0.30416 0.74724 -0.20552
 H449 H 0.41545 0.66709 -0.13021
 H450 H 0.44849 0.63274 -0.09442
 H451 H 0.37651 0.55231 -0.10013
 H452 H 0.34375 0.58683 -0.13626
 C453 C 1.20478 -0.25281 -0.19428
 C454 C 1.18674 -0.23336 -0.17134
 C455 C 1.18855 -0.19803 -0.17181
 C456 C 1.20922 -0.18228 -0.19523
 C457 C 1.22750 -0.20177 -0.21801
 C458 C 1.22502 -0.23713 -0.21790
 N459 N 1.16862 -0.17882 -0.14884
 N460 N 1.16640 -0.14676 -0.15015
 C461 C 1.14586 -0.12753 -0.12773
 C462 C 1.14043 -0.09329 -0.13384
 C463 C 1.11864 -0.07431 -0.11386
 C464 C 1.10224 -0.08923 -0.08711
 C465 C 1.10864 -0.12329 -0.08025
 C466 C 1.13013 -0.14240 -0.10054
 H467 H 1.20277 -0.28011 -0.19372
 H468 H 1.17096 -0.24579 -0.15343
 H469 H 1.21119 -0.15500 -0.19597
 H470 H 1.24335 -0.18912 -0.23566
 H471 H 1.15245 -0.08154 -0.15467
 H472 H 1.11428 -0.04806 -0.11962
 H473 H 1.09630 -0.13540 -0.05980
 H474 H 1.13409 -0.16881 -0.09523
 C475 C 1.19227 0.26368 0.28221
 C476 C 1.17002 0.28118 0.30299
 C477 C 1.18072 0.30889 0.32124
 C478 C 1.21428 0.31823 0.31946
 C479 C 1.23671 0.30010 0.29940
 C480 C 1.22567 0.27332 0.28003
 N481 N 1.15716 0.32701 0.34148
 N482 N 1.16183 0.35762 0.35000
 C483 C 1.13841 0.37538 0.37071
 C484 C 1.13689 0.41070 0.36947
 C485 C 1.11315 0.42851 0.38835
 C486 C 1.09135 0.41118 0.40951
 C487 C 1.09366 0.37585 0.41156
 C488 C 1.11674 0.35800 0.39199
 H489 H 1.18334 0.24254 0.26812
 H490 H 1.14426 0.27355 0.30445
 H491 H 1.22315 0.33922 0.33382
 H492 H 1.26259 0.30735 0.29858
 H493 H 1.15357 0.42434 0.35324
 H494 H 1.11188 0.45578 0.38651
 H495 H 1.07705 0.36195 0.42766
 H496 H 1.11776 0.33071 0.39353
 C497 C 0.70299 -0.20577 0.25600
 C498 C 0.68045 -0.18578 0.27412
 C499 C 0.67914 -0.18734 0.30795
 C500 C 0.70056 -0.20943 0.32356
 C501 C 0.72288 -0.22970 0.30540
 C502 C 0.72439 -0.22786 0.27149
 N503 N 0.65596 -0.16627 0.32580
 N504 N 0.65596 -0.16361 0.35653
 C505 C 0.63283 -0.14240 0.37428
 C506 C 0.63792 -0.13570 0.40706
 C507 C 0.61681 -0.11368 0.42466
 C508 C 0.58993 -0.09843 0.40975
 C509 C 0.58422 -0.10600 0.37711
 C510 C 0.60563 -0.12765 0.35941
 H511 H 0.70354 -0.20423 0.22982
 H512 H 0.66403 -0.16892 0.26181
 H513 H 0.69986 -0.21122 0.34971
 H514 H 0.73871 -0.24682 0.31800
 H515 H 0.65872 -0.14701 0.41879
 H516 H 0.62168 -0.10837 0.44983
 H517 H 0.56369 -0.09455 0.36505
 H518 H 0.60108 -0.13265 0.33412
 C519 C 0.72070 0.25014 -0.19275
 C520 C 0.70058 0.27007 -0.17196
 C521 C 0.68408 0.29828 -0.18368
 C522 C 0.68687 0.30571 -0.21683
 C523 C 0.70622 0.28517 -0.23781
 C524 C 0.72404 0.25780 -0.22577
 N525 N 0.66422 0.31852 -0.16159
 N526 N 0.65734 0.34930 -0.16708
 C527 C 0.63678 0.36872 -0.14484
 C528 C 0.63963 0.40403 -0.14411
 C529 C 0.62084 0.42331 -0.12150
 C530 C 0.59818 0.40750 -0.10004
 C531 C 0.59461 0.37220 -0.10154
 C532 C 0.61401 0.35292 -0.12349
 H533 H 0.73329 0.22862 -0.18291
 H534 H 0.69821 0.26383 -0.14653
 H535 H 0.67371 0.32700 -0.22649
 H536 H 0.70755 0.29083 -0.26341
 H537 H 0.65702 0.41650 -0.16053
 H538 H 0.62390 0.45052 -0.12086
 H539 H 0.57736 0.35939 -0.08521
 H540 H 0.61118 0.32569 -0.12387
 C541 C 1.20868 0.25336 -0.19686
 C542 C 1.19028 0.23435 -0.17433
 C543 C 1.18784 0.19925 -0.17808
 C544 C 1.20445 0.18322 -0.20452
 C545 C 1.22300 0.20224 -0.22696
 C546 C 1.22485 0.23754 -0.22358
 N547 N 1.16824 0.18061 -0.15490
 N548 N 1.16352 0.14892 -0.15783
 C549 C 1.14346 0.13038 -0.13494
 C550 C 1.13630 0.09646 -0.14164
 C551 C 1.11524 0.07816 -0.12080
 C552 C 1.10122 0.09353 -0.09268
 C553 C 1.10923 0.12729 -0.08545
 C554 C 1.13007 0.14566 -0.10647
 H555 H 1.21067 0.28038 -0.19300
 H556 H 1.17787 0.24699 -0.15390
 H557 H 1.20319 0.15606 -0.20780
 H558 H 1.23582 0.18912 -0.24675
 H559 H 1.14652 0.08439 -0.16345
 H560 H 1.10958 0.05214 -0.12692
 H561 H 1.09876 0.13976 -0.06395
 H562 H 1.13538 0.17183 -0.10069
 C563 C 1.20215 0.69653 0.25564
 C564 C 1.18225 0.67464 0.27416
 C565 C 1.18015 0.67797 0.30791
 C566 C 1.19828 0.70367 0.32302
 C567 C 1.21836 0.72549 0.30453
 C568 C 1.22083 0.72198 0.27058
 N569 N 1.15913 0.65534 0.32610
 N570 N 1.15442 0.65831 0.35665
 C571 C 1.13316 0.63598 0.37491
 C572 C 1.12639 0.64322 0.40772
 C573 C 1.10464 0.62291 0.42597
 C574 C 1.08946 0.59470 0.41173
 C575 C 1.09692 0.58690 0.37899
 C576 C 1.11848 0.60746 0.36065
 H577 H 1.20285 0.69359 0.22951
 H578 H 1.16820 0.65516 0.26214
 H579 H 1.19688 0.70696 0.34909
 H580 H 1.23155 0.74520 0.31705
 H581 H 1.13758 0.66504 0.41903
 H582 H 1.09944 0.62950 0.45117
 H583 H 1.08557 0.56535 0.36737
 H584 H 1.12344 0.60123 0.33534
 C585 C 0.69972 0.19827 0.26268
 C586 C 0.67766 0.17767 0.28015
 C587 C 0.67111 0.18376 0.31319
 C588 C 0.68722 0.21064 0.32876
 C589 C 0.70910 0.23147 0.31118
 C590 C 0.71527 0.22550 0.27800
 N591 N 0.64790 0.16247 0.33018
 N592 N 0.64302 0.16449 0.36074
 C593 C 0.61990 0.14303 0.37764
 C594 C 0.62124 0.14091 0.41132
 C595 C 0.60081 0.11833 0.42835
 C596 C 0.57817 0.09797 0.41193
 C597 C 0.57571 0.10121 0.37829
 C598 C 0.59666 0.12339 0.36117
 H599 H 0.70410 0.19341 0.23702
 H600 H 0.66547 0.15702 0.26791
 H601 H 0.68251 0.21586 0.35429
 H602 H 0.72057 0.25254 0.32341
 H603 H 0.63893 0.15602 0.42428
 H604 H 0.60307 0.11638 0.45431
 H605 H 0.55853 0.08572 0.36509
 H606 H 0.59500 0.12485 0.33512
 C607 C 0.68575 0.74746 -0.22471
 C608 C 0.66392 0.72717 -0.20662
 C609 C 0.67603 0.70151 -0.18729
 C610 C 0.71045 0.69657 -0.18585
 C611 C 0.73231 0.71719 -0.20359
 C612 C 0.72015 0.74277 -0.22321
 N613 N 0.65297 0.68098 -0.16928
 N614 N 0.66203 0.65413 -0.15543
 C615 C 0.63949 0.63376 -0.13667
 C616 C 0.65073 0.60290 -0.12512
 C617 C 0.63003 0.58297 -0.10553
 C618 C 0.59773 0.59384 -0.09685
 C619 C 0.58619 0.62459 -0.10891
 C620 C 0.60691 0.64441 -0.12881
 H621 H 0.67546 0.76660 -0.23986
 H622 H 0.63747 0.73119 -0.20795
 H623 H 0.72042 0.67693 -0.17095
 H624 H 0.75873 0.71293 -0.20230
 H625 H 0.67577 0.59447 -0.13104
 H626 H 0.63962 0.55940 -0.09658
 H627 H 0.56141 0.63352 -0.10257
 H628 H 0.59772 0.66826 -0.13747
 C629 C 0.79222 -0.17567 -0.23445
 C630 C 0.81205 -0.15534 -0.21513
 C631 C 0.81528 -0.16244 -0.18229
 C632 C 0.79787 -0.18989 -0.16874
 C633 C 0.77784 -0.21009 -0.18803
 C634 C 0.77528 -0.20345 -0.22117
 N635 N 0.83656 -0.14159 -0.16347
 N636 N 0.84270 -0.14786 -0.13411
 C637 C 0.86444 -0.12693 -0.11583
 C638 C 0.87317 -0.13702 -0.08487
 C639 C 0.89561 -0.11792 -0.06714
 C640 C 0.90948 -0.08824 -0.08013
 C641 C 0.90003 -0.07773 -0.11086
 C642 C 0.87781 -0.09693 -0.12861
 H643 H 0.78996 -0.16945 -0.25972
 H644 H 0.82511 -0.13409 -0.22582
 H645 H 0.79974 -0.19572 -0.14333
 H646 H 0.76462 -0.23086 -0.17689
 H647 H 0.86300 -0.16005 -0.07471
 H648 H 0.90240 -0.12658 -0.04350
 H649 H 0.91026 -0.05495 -0.12149
 H650 H 0.87137 -0.08847 -0.15242
 C651 C 0.76102 0.31932 0.27727
 C652 C 0.77945 0.34143 0.29620
 C653 C 0.80171 0.32887 0.31830
 C654 C 0.80524 0.29367 0.32138
 C655 C 0.78713 0.27155 0.30211
 C656 C 0.76513 0.28416 0.27962
 N657 N 0.82071 0.35221 0.33692
 N658 N 0.83777 0.34254 0.36045
 C659 C 0.85774 0.36520 0.37878
 C660 C 0.87209 0.35321 0.40673
 C661 C 0.89279 0.37396 0.42464
 C662 C 0.89990 0.40710 0.41463
 C663 C 0.88522 0.41934 0.38671
 C664 C 0.86413 0.39858 0.36896
 H665 H 0.74364 0.32998 0.26092
 H666 H 0.77629 0.36847 0.29374
 H667 H 0.82222 0.28327 0.33838
 H668 H 0.79027 0.24464 0.30500
 H669 H 0.86741 0.32755 0.41452
 H670 H 0.90377 0.36375 0.44600
 H671 H 0.89028 0.44476 0.37846
 H672 H 0.85337 0.40837 0.34732
 C673 C 0.26529 -0.18854 0.27316
 C674 C 0.28584 -0.16827 0.29184
 C675 C 0.31000 -0.18290 0.31075
 C676 C 0.31357 -0.21822 0.31070
 C677 C 0.29369 -0.23847 0.29131
 C678 C 0.26944 -0.22384 0.27222
 N679 N 0.33102 -0.16140 0.32918
 N680 N 0.34568 -0.17183 0.35397
 C681 C 0.36735 -0.15031 0.37163
 C682 C 0.37027 -0.15498 0.40495
 C683 C 0.38981 -0.13309 0.42304
 C684 C 0.40777 -0.10703 0.40776
 C685 C 0.40599 -0.10327 0.37411
 C686 C 0.38551 -0.12444 0.35621
 H687 H 0.24644 -0.17632 0.25949
 H688 H 0.28273 -0.14107 0.29184
 H689 H 0.33222 -0.23005 0.32501
 H690 H 0.29743 -0.26562 0.29113
 H691 H 0.35651 -0.17493 0.41707
 H692 H 0.39086 -0.13641 0.44898
 H693 H 0.41946 -0.08320 0.36186
 H694 H 0.38385 -0.12068 0.33040
 C695 C 0.27616 0.32690 -0.23278
 C696 C 0.29637 0.34757 -0.21420
 C697 C 0.31680 0.33341 -0.19125
 C698 C 0.31630 0.29828 -0.18650
 C699 C 0.29570 0.27770 -0.20468
 C700 C 0.27579 0.29183 -0.22815
 N701 N 0.33750 0.35514 -0.17281
 N702 N 0.36078 0.34350 -0.15618
 C703 C 0.38085 0.36487 -0.13673
 C704 C 0.40856 0.35100 -0.12237
 C705 C 0.42773 0.37073 -0.10191
 C706 C 0.41906 0.40457 -0.09518
 C707 C 0.39155 0.41862 -0.11003
 C708 C 0.37264 0.39898 -0.13079
 H709 H 0.26117 0.33839 -0.25086
 H710 H 0.29648 0.37463 -0.21797
 H711 H 0.33164 0.28680 -0.16865
 H712 H 0.29560 0.25067 -0.20073
 H713 H 0.41507 0.32473 -0.12676
 H714 H 0.44876 0.35926 -0.09071
 H715 H 0.38439 0.44467 -0.10527
 H716 H 0.35126 0.41021 -0.14157
 C717 C 1.18583 -0.23082 0.22112
 C718 C 1.16598 -0.21234 0.20061
 C719 C 1.17983 -0.18760 0.18048
 C720 C 1.21411 -0.18184 0.18066
 C721 C 1.23420 -0.20107 0.20043
 C722 C 1.22040 -0.22593 0.22099
 N723 N 1.15859 -0.16884 0.16015
 N724 N 1.16611 -0.13958 0.14967
 C725 C 1.14466 -0.12150 0.12897
 C726 C 1.14562 -0.08609 0.12880
 C727 C 1.12371 -0.06782 0.11008
 C728 C 1.10128 -0.08481 0.09037
 C729 C 1.10118 -0.12034 0.08965
 C730 C 1.12237 -0.13856 0.10913
 H731 H 1.17358 -0.24860 0.23707
 H732 H 1.13951 -0.21683 0.20091
 H733 H 1.22537 -0.16275 0.16529
 H734 H 1.26035 -0.19555 0.20012
 H735 H 1.16275 -0.07264 0.14389
 H736 H 1.12431 -0.04044 0.11096
 H737 H 1.08404 -0.13402 0.07473
 H738 H 1.12143 -0.16592 0.10866
 C739 C 1.19795 0.31062 0.73755
 C740 C 1.17724 0.33055 0.71920
 C741 C 1.17968 0.32929 0.68535
 C742 C 1.20345 0.30809 0.66992
 C743 C 1.22445 0.28845 0.68829
 C744 C 1.22165 0.28932 0.72226
 N745 N 1.15800 0.35001 0.66735
 N746 N 1.15595 0.34733 0.63675
 C747 C 1.13422 0.36842 0.61915
 C748 C 1.12809 0.36036 0.58680
 C749 C 1.10584 0.37969 0.56950
 C750 C 1.08979 0.40771 0.58426
 C751 C 1.09670 0.41631 0.61643
 C752 C 1.11857 0.39673 0.63381
 H753 H 1.19568 0.31234 0.76365
 H754 H 1.15917 0.34698 0.73138
 H755 H 1.20605 0.30699 0.64375
 H756 H 1.24301 0.27302 0.67574
 H757 H 1.14010 0.33867 0.57521
 H758 H 1.10103 0.37258 0.54470
 H759 H 1.08469 0.43778 0.62841
 H760 H 1.12310 0.40363 0.65871
 C761 C 0.70634 -0.17569 0.74116
 C762 C 0.68521 -0.15641 0.72262
 C763 C 0.68264 -0.16315 0.68945
 C764 C 0.70193 -0.18911 0.67482
 C765 C 0.72275 -0.20863 0.69341
 C766 C 0.72480 -0.20226 0.72674
 N767 N 0.65953 -0.14419 0.67140
 N768 N 0.65847 -0.14677 0.64072
 C769 C 0.63481 -0.12858 0.62268
 C770 C 0.63957 -0.12632 0.58907
 C771 C 0.61750 -0.10781 0.57090
 C772 C 0.58991 -0.09187 0.58609
 C773 C 0.58454 -0.09507 0.61969
 C774 C 0.60698 -0.11306 0.63793
 H775 H 0.70754 -0.17055 0.76691
 H776 H 0.67046 -0.13649 0.73416
 H777 H 0.70028 -0.19489 0.64924
 H778 H 0.73644 -0.22920 0.68177
 H779 H 0.66082 -0.13837 0.57706
 H780 H 0.62212 -0.10579 0.54500
 H781 H 0.56350 -0.08292 0.63198
 H782 H 0.60263 -0.11479 0.66386
 C783 C 0.67986 0.27391 0.22807
 C784 C 0.65939 0.29214 0.20803
 C785 C 0.67291 0.31573 0.18643
 C786 C 0.70740 0.32073 0.18479
 C787 C 0.72794 0.30215 0.20455
 C788 C 0.71435 0.27857 0.22634
 N789 N 0.65115 0.33409 0.16640
 N790 N 0.66116 0.35904 0.14959
 C791 C 0.63967 0.37708 0.12903
 C792 C 0.65144 0.40645 0.11412
 C793 C 0.63153 0.42422 0.09321
 C794 C 0.59956 0.41259 0.08658
 C795 C 0.58760 0.38324 0.10177
 C796 C 0.60747 0.36564 0.12297
 H797 H 0.66844 0.25640 0.24491
 H798 H 0.63285 0.28815 0.20956
 H799 H 0.71846 0.33880 0.16818
 H800 H 0.75445 0.30636 0.20301
 H801 H 0.67620 0.41547 0.11861
 H802 H 0.64142 0.44674 0.08179
 H803 H 0.56305 0.37376 0.09707
 H804 H 0.59788 0.34291 0.13420
 C805 C 0.78974 0.20217 0.24460
 C806 C 0.81128 0.18073 0.22676
 C807 C 0.81471 0.18355 0.19307
 C808 C 0.79599 0.20799 0.17732
 C809 C 0.77430 0.22928 0.19514
 C810 C 0.77132 0.22687 0.22899
 N811 N 0.83713 0.16133 0.17548
 N812 N 0.84281 0.16403 0.14512
 C813 C 0.86529 0.14207 0.12730
 C814 C 0.87296 0.14909 0.09479
 C815 C 0.89569 0.12899 0.07695
 C816 C 0.91091 0.10123 0.09132
 C817 C 0.90263 0.09371 0.12377
 C818 C 0.88010 0.11406 0.14170
 H819 H 0.78704 0.19890 0.27050
 H820 H 0.82529 0.16179 0.23920
 H821 H 0.79791 0.21047 0.15125
 H822 H 0.75983 0.24729 0.18220
 H823 H 0.86165 0.17054 0.08339
 H824 H 0.90152 0.13533 0.05196
 H825 H 0.91401 0.07249 0.13547
 H826 H 0.87444 0.10803 0.16678
 C827 C 0.80161 0.75773 0.70576
 C828 C 0.82148 0.73808 0.68447
 C829 C 0.81714 0.70303 0.68262
 C830 C 0.79239 0.68776 0.70221
 C831 C 0.77226 0.70747 0.72322
 C832 C 0.77690 0.74260 0.72538
 N833 N 0.83784 0.68365 0.66047
 N834 N 0.83802 0.65146 0.66030
 C835 C 0.85864 0.63221 0.63797
 C836 C 0.86284 0.59758 0.64310
 C837 C 0.88398 0.57840 0.62257
 C838 C 0.90081 0.59356 0.59619
 C839 C 0.89578 0.62811 0.59047
 C840 C 0.87504 0.64737 0.61132
 H841 H 0.80528 0.78479 0.70642
 H842 H 0.84032 0.75018 0.66935
 H843 H 0.78829 0.66074 0.70093
 H844 H 0.75280 0.69513 0.73723
 H845 H 0.85023 0.58559 0.66348
 H846 H 0.88735 0.55179 0.62745
 H847 H 0.90848 0.64044 0.57034
 H848 H 0.87197 0.67406 0.60671
 C849 C 0.31189 0.23930 0.72154
 C850 C 0.33239 0.21852 0.70200
 C851 C 0.31873 0.19510 0.68067
 C852 C 0.28410 0.19266 0.67898
 C853 C 0.26356 0.21321 0.69882
 C854 C 0.27729 0.23649 0.72045
 N855 N 0.34054 0.17372 0.66158
 N856 N 0.33019 0.15464 0.63908
 C857 C 0.35200 0.13251 0.62078
 C858 C 0.33989 0.11508 0.59403
 C859 C 0.36022 0.09243 0.57632
 C860 C 0.39293 0.08660 0.58542
 C861 C 0.40518 0.10433 0.61212
 C862 C 0.38492 0.12724 0.62961
 H863 H 0.32333 0.25741 0.73742
 H864 H 0.35905 0.22070 0.70341
 H865 H 0.27295 0.17470 0.66266
 H866 H 0.23692 0.21093 0.69731
 H867 H 0.31456 0.11890 0.58705
 H868 H 0.35012 0.07905 0.55587
 H869 H 0.43031 0.10033 0.61960
 H870 H 0.39481 0.14038 0.65029
 C871 C 0.30113 0.74422 0.20503
 C872 C 0.32482 0.72673 0.18579
 C873 C 0.32431 0.69143 0.18387
 C874 C 0.30032 0.67369 0.20227
 C875 C 0.27676 0.69114 0.22166
 C876 C 0.27610 0.72674 0.22247
 N877 N 0.34812 0.67421 0.16300
 N878 N 0.34720 0.64232 0.15857
 C879 C 0.37021 0.62463 0.13728
 C880 C 0.36482 0.59030 0.13092
 C881 C 0.38545 0.57258 0.10879
 C882 C 0.41215 0.58890 0.09285
 C883 C 0.41825 0.62313 0.10001
 C884 C 0.39731 0.64096 0.12195
 H885 H 0.30311 0.77141 0.20666
 H886 H 0.34360 0.74074 0.17228
 H887 H 0.29982 0.64631 0.20180
 H888 H 0.25961 0.67628 0.23606
 H889 H 0.34408 0.57743 0.14262
 H890 H 0.38024 0.54620 0.10384
 H891 H 0.43863 0.63631 0.08805
 H892 H 0.40204 0.66749 0.12661
   
