data_POSCAR
  _audit_creation_date              2014-09-24
  _audit_creation_method            'ToBaCCo'
  _symmetry_space_group_name_H-M    'P1'
  _symmetry_Int_Tables_number       1
  _symmetry_cell_setting            triclinic
  loop_
  _symmetry_equiv_pos_as_xyz
 x,y,z
_cell_length_a 53.6152
_cell_length_b 27.8572
_cell_length_c 24.6380
_cell_angle_alpha 89.851800
_cell_angle_beta 89.940600
_cell_angle_gamma 89.863800
loop_
  _atom_site_label
  _atom_site_type_symbol
  _atom_site_fract_x
  _atom_site_fract_y
  _atom_site_fract_z
C1 C 0.69469 0.32214 0.49793
 C2 C 0.70653 0.31344 0.54806
 C3 C 0.72847 0.28530 0.54791
 C4 C 0.73729 0.26261 0.50032
 C5 C 0.72404 0.27038 0.45162
 C6 C 0.70343 0.30137 0.44981
 C7 C 0.76014 0.23105 0.50172
 C8 C 0.77426 0.22214 0.45423
 C9 C 0.79508 0.19090 0.45453
 C10 C 0.80272 0.17162 0.50476
 C11 C 0.78975 0.18146 0.55279
 C12 C 0.76808 0.20953 0.55067
 H13 H 0.67750 0.34245 0.49599
 H14 H 0.73918 0.28267 0.58484
 H15 H 0.72956 0.25278 0.41451
 H16 H 0.76862 0.23847 0.41655
 H17 H 0.81994 0.15146 0.50763
 H18 H 0.75756 0.21403 0.58775
 C19 C 0.19200 0.81362 0.49824
 C20 C 0.20089 0.79600 0.54830
 C21 C 0.22281 0.76765 0.54787
 C22 C 0.23692 0.76084 0.49989
 C23 C 0.22773 0.78099 0.45122
 C24 C 0.20500 0.80576 0.44980
 C25 C 0.26142 0.73412 0.50067
 C26 C 0.27162 0.71489 0.45245
 C27 C 0.29553 0.69466 0.45187
 C28 C 0.30857 0.68928 0.50058
 C29 C 0.29880 0.70601 0.55007
 C30 C 0.27543 0.72949 0.54911
 H31 H 0.17405 0.83135 0.49601
 H32 H 0.22942 0.75244 0.58539
 H33 H 0.23819 0.77854 0.41387
 H34 H 0.26154 0.71647 0.41458
 H35 H 0.32611 0.67004 0.49933
 H36 H 0.26904 0.74670 0.58574
 C37 C 0.30339 0.32525 -0.50318
 C38 C 0.29128 0.31593 -0.55233
 C39 C 0.26931 0.28863 -0.55192
 C40 C 0.26027 0.26723 -0.50362
 C41 C 0.27365 0.27558 -0.45507
 C42 C 0.29452 0.30589 -0.45440
 C43 C 0.23713 0.23654 -0.50418
 C44 C 0.22313 0.22827 -0.45635
 C45 C 0.20185 0.19836 -0.45612
 C46 C 0.19362 0.17992 -0.50621
 C47 C 0.20654 0.18901 -0.55452
 C48 C 0.22868 0.21550 -0.55283
 H49 H 0.32039 0.34620 -0.50296
 H50 H 0.25941 0.28485 -0.58979
 H51 H 0.26809 0.25908 -0.41728
 H52 H 0.22920 0.24404 -0.41884
 H53 H 0.17606 0.16100 -0.50868
 H54 H 0.23911 0.21918 -0.59011
 C55 C -0.19117 0.80962 -0.49281
 C56 C -0.20283 0.80403 -0.54355
 C57 C -0.22706 0.78403 -0.54436
 C58 C -0.23831 0.76535 -0.49668
 C59 C -0.22510 0.76946 -0.44733
 C60 C -0.20205 0.79264 -0.44501
 C61 C -0.26319 0.74019 -0.49833
 C62 C -0.27748 0.73399 -0.45051
 C63 C -0.29954 0.70700 -0.45054
 C64 C -0.30867 0.68927 -0.49973
 C65 C -0.29562 0.69660 -0.54829
 C66 C -0.27267 0.72078 -0.54714
 H67 H -0.17378 0.82906 -0.48959
 H68 H -0.23667 0.78116 -0.58251
 H69 H -0.23208 0.75380 -0.41020
 H70 H -0.27151 0.74917 -0.41246
 H71 H -0.32638 0.67062 -0.50032
 H72 H -0.26227 0.72304 -0.58458
 O73 O -0.03383 0.91998 0.10318
 O74 O -0.06188 0.96162 0.05078
 C75 C -0.05646 0.93232 0.09002
 O76 O 0.03602 1.08808 0.09221
 O77 O 0.06311 1.04270 0.04170
 C78 C 0.05839 1.07492 0.07818
 O79 O -0.03368 1.08346 0.10058
 O80 O -0.06162 1.04038 0.05009
 C81 C -0.05624 1.07067 0.08823
 O82 O 0.03636 0.91604 0.09635
 O83 O 0.06326 0.96062 0.04433
 C84 C 0.05867 0.92904 0.08179
 Zr85 Zr 0.00101 0.94083 0.06968
 O86 O 0.00424 0.93944 0.15527
 O87 O -0.00152 0.86497 0.06843
 Zr88 Zr 0.00074 1.06269 0.06595
 O89 O 0.00377 1.07045 0.15101
 O90 O -0.00234 1.13819 0.05778
 O91 O -0.02105 1.00182 0.07967
 O92 O 0.02239 1.00206 0.07710
 O93 O 0.03481 0.91178 -0.09416
 O94 O 0.06256 0.95872 -0.04776
 C95 C 0.05732 0.92518 -0.08234
 O96 O -0.03616 1.07940 -0.10136
 O97 O -0.06299 1.03778 -0.04610
 C98 C -0.05845 1.06663 -0.08629
 O99 O 0.03394 1.08605 -0.09908
 O100 O 0.06213 1.04162 -0.05004
 C101 C 0.05659 1.07369 -0.08643
 O102 O -0.03477 0.91530 -0.09652
 O103 O -0.06218 0.95895 -0.04492
 C104 C -0.05719 0.92789 -0.08259
 Zr105 Zr 0.00005 0.93829 -0.06659
 O106 O 0.00212 0.93433 -0.15226
 O107 O -0.00247 0.86255 -0.06135
 Zr108 Zr -0.00066 1.05994 -0.07009
 O109 O 0.00127 1.06154 -0.15585
 O110 O -0.00394 1.13570 -0.06873
 Zr111 Zr -0.03692 1.00005 0.00137
 Zr112 Zr 0.03751 1.00069 -0.00184
 O113 O 0.02114 0.99917 -0.07946
 O114 O -0.02247 0.99857 -0.07825
 O115 O 0.02304 0.93041 0.00091
 O116 O -0.02199 1.06977 -0.00125
 O117 O -0.02134 0.93069 0.00265
 O118 O 0.02252 1.07080 -0.00332
 H119 H 0.03351 1.00266 0.10918
 H120 H -0.03379 1.09722 -0.00150
 H121 H 0.03191 0.99867 -0.11216
 H122 H -0.03276 0.90280 0.00393
 H123 H 0.01384 1.15033 0.04419
 H124 H 0.01122 1.14855 -0.05117
 H125 H -0.01058 1.03727 -0.16948
 H126 H -0.01067 0.95637 -0.16708
 H127 H 0.01273 0.85074 -0.04285
 H128 H 0.01387 0.85248 0.05131
 H129 H -0.00847 0.96168 0.16998
 H130 H -0.00413 1.04188 0.16742
 O131 O 0.46522 0.41614 0.09702
 O132 O 0.43802 0.45886 0.04389
 C133 C 0.44283 0.42912 0.08309
 O134 O 0.53453 0.58246 0.09976
 O135 O 0.56245 0.53937 0.04876
 C136 C 0.55712 0.57011 0.08649
 O137 O 0.46428 0.57742 0.10104
 O138 O 0.43730 0.53669 0.04564
 C139 C 0.44196 0.56512 0.08598
 O140 O 0.53497 0.41012 0.09170
 O141 O 0.56271 0.45714 0.04491
 C142 C 0.55749 0.42356 0.07967
 Zr143 Zr 0.50011 0.43601 0.06365
 O144 O 0.50175 0.42497 0.14843
 O145 O 0.49722 0.36081 0.05273
 Zr146 Zr 0.49974 0.55787 0.06988
 O147 O 0.50153 0.55738 0.15570
 O148 O 0.49674 0.63369 0.07016
 O149 O 0.47791 0.49648 0.07681
 O150 O 0.52129 0.49665 0.07773
 O151 O 0.53649 0.41771 -0.10008
 O152 O 0.56341 0.46126 -0.04738
 C153 C 0.55881 0.43055 -0.08556
 O154 O 0.46587 0.58608 -0.09758
 O155 O 0.43804 0.54043 -0.04920
 C156 C 0.44333 0.57263 -0.08557
 O157 O 0.53564 0.59090 -0.09078
 O158 O 0.56305 0.54333 -0.04349
 C159 C 0.55806 0.57747 -0.07782
 O160 O 0.46647 0.42114 -0.10599
 O161 O 0.43834 0.46156 -0.05263
 C162 C 0.44383 0.43278 -0.09230
 Zr163 Zr 0.50113 0.44160 -0.07231
 O164 O 0.50414 0.44175 -0.15793
 O165 O 0.49878 0.36573 -0.07215
 Zr166 Zr 0.50071 0.56327 -0.06633
 O167 O 0.50395 0.56883 -0.15175
 O168 O 0.49767 0.63889 -0.06030
 Zr169 Zr 0.46332 0.49955 -0.00264
 Zr170 Zr 0.53766 0.50003 0.00005
 O171 O 0.52247 0.50305 -0.07870
 O172 O 0.47894 0.50276 -0.08108
 O173 O 0.52321 0.42972 -0.00399
 O174 O 0.47834 0.56912 0.00145
 O175 O 0.47862 0.43003 -0.00535
 O176 O 0.52267 0.57006 0.00299
 H177 H 0.53196 0.49546 0.11052
 H178 H 0.46672 0.59682 0.00242
 H179 H 0.53363 0.50461 -0.11073
 H180 H 0.46693 0.40254 -0.00657
 H181 H 0.51234 0.64677 0.05464
 H182 H 0.51221 0.65044 -0.03942
 H183 H 0.49118 0.54762 -0.16780
 H184 H 0.49246 0.46642 -0.17174
 H185 H 0.51416 0.35312 -0.05509
 H186 H 0.51373 0.34885 0.04083
 H187 H 0.49722 0.45588 0.16537
 H188 H 0.48861 0.53489 0.16892
 C189 C 0.33042 0.35710 0.30291
 C190 C 0.32784 0.38978 0.34561
 C191 C 0.31403 0.37743 0.39171
 C192 C 0.30267 0.33209 0.39576
 C193 C 0.30440 0.30034 0.35155
 C194 C 0.31826 0.31276 0.30549
 C195 C 0.34748 0.36729 0.25925
 C196 C 0.36282 0.37559 0.22468
 C197 C 0.38223 0.38554 0.18589
 C198 C 0.40635 0.36819 0.19542
 C199 C 0.42590 0.38080 0.16074
 C200 C 0.42161 0.41106 0.11588
 C201 C 0.39710 0.42704 0.10556
 C202 C 0.37757 0.41451 0.14052
 H203 H 0.33721 0.42417 0.34409
 H204 H 0.31280 0.40281 0.42483
 H205 H 0.29613 0.26496 0.35373
 H206 H 0.32027 0.28706 0.27283
 H207 H 0.41018 0.34587 0.23053
 H208 H 0.44448 0.36790 0.17003
 H209 H 0.39311 0.45027 0.07136
 H210 H 0.35899 0.42828 0.13283
 C211 C -0.16318 0.84264 0.31314
 C212 C -0.18927 0.84340 0.31296
 C213 C -0.20259 0.83050 0.35985
 C214 C -0.18994 0.81707 0.40804
 C215 C -0.16354 0.81604 0.40657
 C216 C -0.15047 0.82872 0.35991
 C217 C -0.14876 0.85653 0.26643
 C218 C -0.13468 0.86778 0.23044
 C219 C -0.11592 0.88082 0.19134
 C220 C -0.09171 0.86283 0.19768
 C221 C -0.07252 0.87856 0.16374
 C222 C -0.07727 0.91261 0.12277
 C223 C -0.10187 0.92941 0.11553
 C224 C -0.12105 0.91376 0.14984
 H225 H -0.19931 0.85439 0.27686
 H226 H -0.22269 0.83321 0.35846
 H227 H -0.15262 0.80359 0.44073
 H228 H -0.13026 0.82742 0.36031
 H229 H -0.08751 0.83748 0.22985
 H230 H -0.05388 0.86474 0.17042
 H231 H -0.10620 0.95555 0.08433
 H232 H -0.13970 0.92812 0.14478
 C233 C 0.66663 0.65403 0.30624
 C234 C 0.66840 0.62218 0.35010
 C235 C 0.68169 0.63508 0.39653
 C236 C 0.69338 0.68013 0.39976
 C237 C 0.69250 0.71104 0.35455
 C238 C 0.67909 0.69811 0.30812
 C239 C 0.65020 0.64299 0.26185
 C240 C 0.63536 0.63339 0.22678
 C241 C 0.61655 0.62129 0.18752
 C242 C 0.59249 0.64022 0.19303
 C243 C 0.57334 0.62498 0.15877
 C244 C 0.57799 0.59043 0.11842
 C245 C 0.60248 0.57283 0.11193
 C246 C 0.62159 0.58807 0.14642
 H247 H 0.65882 0.58800 0.34913
 H248 H 0.68232 0.61036 0.43050
 H249 H 0.70114 0.74611 0.35614
 H250 H 0.67771 0.72317 0.27455
 H251 H 0.58835 0.66580 0.22488
 H252 H 0.55477 0.63932 0.16492
 H253 H 0.60672 0.54612 0.08141
 H254 H 0.64012 0.57296 0.14198
 C255 C 0.16898 1.15063 0.29815
 C256 C 0.17084 1.11733 0.34061
 C257 C 0.18411 1.12879 0.38762
 C258 C 0.19566 1.17383 0.39281
 C259 C 0.19463 1.20623 0.34893
 C260 C 0.18130 1.19472 0.30197
 C261 C 0.15253 1.14124 0.25329
 C262 C 0.13769 1.13334 0.21768
 C263 C 0.11881 1.12338 0.17777
 C264 C 0.09508 1.14379 0.18346
 C265 C 0.07568 1.12994 0.14914
 C266 C 0.07973 1.09531 0.10856
 C267 C 0.10397 1.07669 0.10148
 C268 C 0.12335 1.09050 0.13605
 H269 H 0.16133 1.08313 0.33816
 H270 H 0.18478 1.10297 0.42053
 H271 H 0.20304 1.24142 0.35201
 H272 H 0.17982 1.22090 0.26953
 H273 H 0.09134 1.16919 0.21572
 H274 H 0.05730 1.14504 0.15577
 H275 H 0.10778 1.04996 0.07072
 H276 H 0.14162 1.07433 0.13137
 C277 C 0.66931 0.35654 -0.30772
 C278 C 0.66683 0.38373 -0.35510
 C279 C 0.67995 0.37104 -0.40192
 C280 C 0.69583 0.33040 -0.40263
 C281 C 0.69924 0.30509 -0.35323
 C282 C 0.68594 0.31787 -0.30651
 C283 C 0.65311 0.36606 -0.26233
 C284 C 0.63834 0.37398 -0.22649
 C285 C 0.61940 0.38379 -0.18653
 C286 C 0.62384 0.41614 -0.14428
 C287 C 0.60439 0.42964 -0.10952
 C288 C 0.58018 0.41121 -0.11696
 C289 C 0.57621 0.37727 -0.15826
 C290 C 0.59568 0.36373 -0.19273
 H291 H 0.65419 0.41413 -0.35635
 H292 H 0.67758 0.39359 -0.43735
 H293 H 0.71067 0.27310 -0.35109
 H294 H 0.68791 0.29637 -0.27005
 H295 H 0.64211 0.43205 -0.13924
 H296 H 0.60812 0.45582 -0.07819
 H297 H 0.55788 0.36228 -0.16516
 H298 H 0.59200 0.33879 -0.22542
 C299 C 0.16165 0.83005 -0.30645
 C300 C 0.16088 0.86103 -0.35097
 C301 C 0.17387 0.84991 -0.39836
 C302 C 0.18806 0.80715 -0.40264
 C303 C 0.18905 0.77667 -0.35658
 C304 C 0.17585 0.78797 -0.30916
 C305 C 0.14673 0.84099 -0.25945
 C306 C 0.13312 0.85165 -0.22238
 C307 C 0.11552 0.86579 -0.18124
 C308 C 0.12071 0.90429 -0.14663
 C309 C 0.10214 0.92228 -0.11220
 C310 C 0.07806 0.90221 -0.11249
 C311 C 0.07341 0.86223 -0.14578
 C312 C 0.09200 0.84425 -0.17989
 H313 H 0.15008 0.89394 -0.34921
 H314 H 0.17330 0.87606 -0.43086
 H315 H 0.19891 0.74280 -0.35745
 H316 H 0.17637 0.76343 -0.27499
 H317 H 0.13880 0.92153 -0.14769
 H318 H 0.10632 0.95312 -0.08717
 H319 H 0.05514 0.84577 -0.14687
 H320 H 0.08772 0.81465 -0.20675
 C321 C 0.33909 0.67700 -0.30513
 C322 C 0.31319 0.68271 -0.30305
 C323 C 0.29987 0.69406 -0.35033
 C324 C 0.31226 0.69910 -0.40081
 C325 C 0.33855 0.69497 -0.40122
 C326 C 0.35170 0.68397 -0.35405
 C327 C 0.35319 0.66225 -0.25830
 C328 C 0.36670 0.64916 -0.22208
 C329 C 0.38470 0.63320 -0.18268
 C330 C 0.37951 0.59480 -0.14769
 C331 C 0.39833 0.57597 -0.11440
 C332 C 0.42262 0.59508 -0.11631
 C333 C 0.42735 0.63458 -0.15049
 C334 C 0.40854 0.65342 -0.18334
 H335 H 0.30323 0.67729 -0.26526
 H336 H 0.27975 0.69593 -0.34748
 H337 H 0.34933 0.70116 -0.43769
 H338 H 0.37182 0.68035 -0.35594
 H339 H 0.36117 0.57856 -0.14728
 H340 H 0.39408 0.54556 -0.08859
 H341 H 0.44576 0.65032 -0.15286
 H342 H 0.41282 0.68288 -0.21058
 C343 C -0.17244 1.14067 -0.30101
 C344 C -0.18393 1.18572 -0.30479
 C345 C -0.19760 1.19800 -0.35116
 C346 C -0.19973 1.16542 -0.39446
 C347 C -0.18919 1.11938 -0.38904
 C348 C -0.17561 1.10715 -0.34263
 C349 C -0.15521 1.13058 -0.25769
 C350 C -0.13965 1.12213 -0.22368
 C351 C -0.11992 1.11172 -0.18584
 C352 C -0.12418 1.08209 -0.14085
 C353 C -0.10433 1.06881 -0.10711
 C354 C -0.07993 1.08473 -0.11828
 C355 C -0.07604 1.11564 -0.16274
 C356 C -0.09590 1.12898 -0.19621
 H357 H -0.18144 1.21207 -0.27300
 H358 H -0.20527 1.23388 -0.35448
 H359 H -0.19072 1.09346 -0.42156
 H360 H -0.16674 1.07222 -0.34020
 H361 H -0.14269 1.06840 -0.13257
 H362 H -0.10803 1.04511 -0.07317
 H363 H -0.05755 1.12862 -0.17255
 H364 H -0.09239 1.15185 -0.23102
 C365 C 0.66150 0.67331 -0.30270
 C366 C 0.67063 0.71980 -0.31114
 C367 C 0.68351 0.73097 -0.35902
 C368 C 0.68722 0.69574 -0.39909
 C369 C 0.67821 0.64905 -0.38981
 C370 C 0.66544 0.63797 -0.34202
 C371 C 0.64678 0.66206 -0.25550
 C372 C 0.63345 0.65133 -0.21797
 C373 C 0.61619 0.63726 -0.17612
 C374 C 0.59301 0.66019 -0.17280
 C375 C 0.57454 0.64223 -0.13842
 C376 C 0.57897 0.60091 -0.10682
 C377 C 0.60279 0.57962 -0.10812
 C378 C 0.62125 0.59757 -0.14287
 H379 H 0.66749 0.74751 -0.28113
 H380 H 0.69006 0.76731 -0.36525
 H381 H 0.68112 0.62101 -0.41954
 H382 H 0.65838 0.60192 -0.33600
 H383 H 0.58885 0.69080 -0.19849
 H384 H 0.55646 0.65966 -0.13819
 H385 H 0.60677 0.54770 -0.08447
 H386 H 0.63908 0.57932 -0.14542
 C387 C 0.16149 1.16498 -0.31199
 C388 C 0.16162 1.13323 -0.35569
 C389 C 0.17505 1.14403 -0.40265
 C390 C 0.18874 1.18725 -0.40734
 C391 C 0.18880 1.21852 -0.36208
 C392 C 0.17520 1.20751 -0.31510
 C393 C 0.14619 1.15444 -0.26546
 C394 C 0.13235 1.14434 -0.22858
 C395 C 0.11460 1.13097 -0.18741
 C396 C 0.12006 1.09417 -0.15044
 C397 C 0.10151 1.07693 -0.11550
 C398 C 0.07718 1.09604 -0.11760
 C399 C 0.07223 1.13439 -0.15335
 C400 C 0.09081 1.15165 -0.18796
 H401 H 0.15116 1.10002 -0.35362
 H402 H 0.17516 1.11737 -0.43449
 H403 H 0.19816 1.25281 -0.36333
 H404 H 0.17499 1.23266 -0.28164
 H405 H 0.13839 1.07770 -0.14992
 H406 H 0.10594 1.04738 -0.08852
 H407 H 0.05378 1.15012 -0.15587
 H408 H 0.08635 1.18001 -0.21655
 C409 C 0.33509 0.34070 -0.30978
 C410 C 0.32850 0.29293 -0.32003
 C411 C 0.31460 0.28145 -0.36630
 C412 C 0.30742 0.31766 -0.40298
 C413 C 0.31360 0.36559 -0.39157
 C414 C 0.32732 0.37699 -0.34528
 C415 C 0.35152 0.35249 -0.26565
 C416 C 0.36623 0.36354 -0.23092
 C417 C 0.38495 0.37771 -0.19238
 C418 C 0.37943 0.41078 -0.15134
 C419 C 0.39842 0.42780 -0.11752
 C420 C 0.42321 0.41223 -0.12479
 C421 C 0.42836 0.37804 -0.16529
 C422 C 0.40938 0.36099 -0.19876
 H423 H 0.33465 0.26451 -0.29306
 H424 H 0.31025 0.24423 -0.37448
 H425 H 0.30803 0.39417 -0.41892
 H426 H 0.33239 0.41403 -0.33788
 H427 H 0.36059 0.42419 -0.14627
 H428 H 0.39378 0.45391 -0.08663
 H429 H 0.44716 0.36500 -0.17187
 H430 H 0.41389 0.33558 -0.23055
 C431 C -0.16274 0.82300 -0.29774
 C432 C -0.15029 0.80211 -0.34167
 C433 C -0.16330 0.79053 -0.38880
 C434 C -0.18902 0.79969 -0.39265
 C435 C -0.20166 0.81899 -0.34761
 C436 C -0.18853 0.83084 -0.30040
 C437 C -0.14836 0.83902 -0.25205
 C438 C -0.13465 0.85259 -0.21659
 C439 C -0.11638 0.86850 -0.17800
 C440 C -0.09248 0.84843 -0.17987
 C441 C -0.07349 0.86687 -0.14750
 C442 C -0.07810 0.90578 -0.11259
 C443 C -0.10244 0.92472 -0.10942
 C444 C -0.12145 0.90631 -0.14227
 H445 H -0.13033 0.79596 -0.34006
 H446 H -0.15318 0.77530 -0.42274
 H447 H -0.22143 0.82676 -0.34983
 H448 H -0.19831 0.84726 -0.26670
 H449 H -0.08830 0.81939 -0.20764
 H450 H -0.05504 0.85124 -0.15081
 H451 H -0.10658 0.95467 -0.08298
 H452 H -0.13986 0.92238 -0.14086
 C453 C 0.33366 0.65448 0.30557
 C454 C 0.34535 0.68318 0.34436
 C455 C 0.33266 0.69663 0.39125
 C456 C 0.30800 0.68159 0.40024
 C457 C 0.29601 0.65376 0.36050
 C458 C 0.30888 0.64001 0.31338
 C459 C 0.34812 0.63863 0.25977
 C460 C 0.36232 0.62664 0.22434
 C461 C 0.38138 0.61377 0.18590
 C462 C 0.37682 0.58080 0.14432
 C463 C 0.39634 0.56609 0.11031
 C464 C 0.42067 0.58386 0.11800
 C465 C 0.42480 0.61790 0.15906
 C466 C 0.40531 0.63269 0.19263
 H467 H 0.36449 0.69458 0.33875
 H468 H 0.34220 0.71865 0.42082
 H469 H 0.27704 0.64163 0.36664
 H470 H 0.29970 0.61759 0.28365
 H471 H 0.35838 0.56578 0.13891
 H472 H 0.39251 0.53995 0.07901
 H473 H 0.44322 0.63248 0.16607
 H474 H 0.40906 0.65814 0.22479
 C475 C -0.16376 1.15647 0.31202
 C476 C -0.17689 1.19979 0.31482
 C477 C -0.19082 1.21111 0.36120
 C478 C -0.19167 1.17935 0.40615
 C479 C -0.17864 1.13527 0.40166
 C480 C -0.16489 1.12415 0.35528
 C481 C -0.14783 1.14589 0.26656
 C482 C -0.13343 1.13599 0.23066
 C483 C -0.11501 1.12325 0.19071
 C484 C -0.12032 1.08932 0.15054
 C485 C -0.10142 1.07339 0.11565
 C486 C -0.07692 1.09092 0.12097
 C487 C -0.07204 1.12611 0.16043
 C488 C -0.09095 1.14208 0.19497
 H489 H -0.17591 1.22535 0.28168
 H490 H -0.19967 1.24599 0.36238
 H491 H -0.17948 1.10829 0.43326
 H492 H -0.15490 1.09032 0.35341
 H493 H -0.13886 1.07428 0.14709
 H494 H -0.10584 1.04639 0.08567
 H495 H -0.05346 1.14055 0.16558
 H496 H -0.08660 1.16817 0.22609
 C497 C 0.66362 0.33212 0.30243
 C498 C 0.66992 0.36917 0.33804
 C499 C 0.68327 0.35915 0.38536
 C500 C 0.69051 0.31183 0.39782
 C501 C 0.68465 0.27489 0.36117
 C502 C 0.67120 0.28500 0.31379
 C503 C 0.64788 0.34242 0.25656
 C504 C 0.63381 0.35242 0.22009
 C505 C 0.61594 0.36589 0.17923
 C506 C 0.62106 0.40353 0.14317
 C507 C 0.60239 0.42086 0.10858
 C508 C 0.57828 0.40097 0.11007
 C509 C 0.57367 0.36183 0.14490
 C510 C 0.59237 0.34449 0.17920
 H511 H 0.66409 0.40574 0.32976
 H512 H 0.68778 0.38836 0.41254
 H513 H 0.68977 0.23806 0.36999
 H514 H 0.66624 0.25599 0.28671
 H515 H 0.63920 0.42060 0.14314
 H516 H 0.60655 0.45111 0.08243
 H517 H 0.55537 0.34557 0.14704
 H518 H 0.58815 0.31552 0.20716
 C519 C 0.16819 0.84755 0.30235
 C520 C 0.16932 0.87947 0.34605
 C521 C 0.18219 0.86677 0.39325
 C522 C 0.19407 0.82183 0.39742
 C523 C 0.19370 0.79075 0.35248
 C524 C 0.18075 0.80350 0.30529
 C525 C 0.15222 0.85833 0.25699
 C526 C 0.13768 0.86747 0.22110
 C527 C 0.11900 0.87874 0.18111
 C528 C 0.12336 0.91397 0.14163
 C529 C 0.10403 0.92872 0.10723
 C530 C 0.08004 0.90867 0.11231
 C531 C 0.07619 0.87190 0.15065
 C532 C 0.09554 0.85711 0.18476
 H533 H 0.15958 0.91358 0.34428
 H534 H 0.18239 0.89160 0.42699
 H535 H 0.20244 0.75571 0.35476
 H536 H 0.17983 0.77836 0.27189
 H537 H 0.14142 0.93114 0.13860
 H538 H 0.10763 0.95713 0.07823
 H539 H 0.05801 0.85558 0.15557
 H540 H 0.09195 0.82991 0.21529
   
