data_POSCAR
  _audit_creation_date              2014-09-24
  _audit_creation_method            'ToBaCCo'
  _symmetry_space_group_name_H-M    'P1'
  _symmetry_Int_Tables_number       1
  _symmetry_cell_setting            triclinic
  loop_
  _symmetry_equiv_pos_as_xyz
 x,y,z
_cell_length_a 69.1934
_cell_length_b 69.6142
_cell_length_c 69.7558
_cell_angle_alpha 89.921600
_cell_angle_beta 89.901400
_cell_angle_gamma 89.832100
loop_
  _atom_site_label
  _atom_site_type_symbol
  _atom_site_fract_x
  _atom_site_fract_y
  _atom_site_fract_z
N1 N 0.26571 0.22729 0.21171
 N2 N 0.25706 0.24242 0.20430
 C3 C 0.26678 0.24803 0.18849
 C4 C 0.28220 0.23569 0.18599
 C5 C 0.28119 0.22273 0.20089
 H6 H 0.26315 0.26028 0.17964
 H7 H 0.29113 0.21108 0.20380
 Cu8 Cu 0.23433 0.25354 0.21649
 Cu9 Cu 0.25670 0.21496 0.23515
 Cu10 Cu 0.21600 0.23449 0.25687
 N11 N 0.21142 0.26430 0.22863
 N12 N 0.20432 0.25677 0.24445
 C13 C 0.18875 0.26704 0.25000
 C14 C 0.18607 0.28167 0.23694
 C15 C 0.20062 0.27962 0.22359
 H16 H 0.18018 0.26421 0.26266
 H17 H 0.20321 0.28874 0.21129
 N18 N 0.22989 0.21197 0.26721
 N19 N 0.24538 0.20454 0.25892
 C20 C 0.25162 0.18949 0.26941
 C21 C 0.23948 0.18746 0.28494
 C22 C 0.22589 0.20184 0.28321
 H23 H 0.26411 0.18071 0.26612
 H24 H 0.21406 0.20474 0.29295
 H25 H 0.22808 0.22296 0.23234
 H26 H 0.24378 0.23904 0.24692
 N27 N 0.73403 -0.22697 0.21054
 N28 N 0.74279 -0.24214 0.20333
 C29 C 0.73351 -0.24761 0.18726
 C30 C 0.71828 -0.23514 0.18441
 C31 C 0.71891 -0.22224 0.19934
 H32 H 0.73733 -0.25984 0.17849
 H33 H 0.70898 -0.21051 0.20202
 Cu34 Cu 0.76512 -0.25343 0.21601
 Cu35 Cu 0.74244 -0.21487 0.23425
 Cu36 Cu 0.78243 -0.23471 0.25689
 N37 N 0.78766 -0.26435 0.22864
 N38 N 0.79439 -0.25694 0.24463
 C39 C 0.80972 -0.26734 0.25054
 C40 C 0.81263 -0.28193 0.23751
 C41 C 0.79847 -0.27974 0.22382
 H42 H 0.81793 -0.26465 0.26344
 H43 H 0.79610 -0.28883 0.21148
 N44 N 0.76832 -0.21221 0.26699
 N45 N 0.75311 -0.20466 0.25833
 C46 C 0.74660 -0.18967 0.26873
 C47 C 0.75827 -0.18778 0.28457
 C48 C 0.77187 -0.20221 0.28314
 H49 H 0.73424 -0.18084 0.26517
 H50 H 0.78338 -0.20522 0.29317
 H51 H 0.77112 -0.22301 0.23215
 H52 H 0.75493 -0.23911 0.24630
 N53 N 0.73571 0.22916 0.78775
 N54 N 0.74500 0.24374 0.79536
 C55 C 0.73561 0.24946 0.81131
 C56 C 0.71974 0.23777 0.81373
 C57 C 0.72014 0.22507 0.79861
 H58 H 0.73982 0.26131 0.82038
 H59 H 0.70979 0.21386 0.79565
 Cu60 Cu 0.76821 0.25412 0.78349
 Cu61 Cu 0.74426 0.21682 0.76420
 Cu62 Cu 0.78485 0.23563 0.74198
 N63 N 0.79062 0.26483 0.77045
 N64 N 0.79706 0.25757 0.75423
 C65 C 0.81244 0.26780 0.74824
 C66 C 0.81568 0.28214 0.76144
 C67 C 0.80166 0.27997 0.77533
 H68 H 0.82051 0.26512 0.73522
 H69 H 0.79958 0.28885 0.78788
 N70 N 0.77055 0.21344 0.73180
 N71 N 0.75508 0.20627 0.74029
 C72 C 0.74856 0.19132 0.72991
 C73 C 0.76051 0.18908 0.71427
 C74 C 0.77428 0.20323 0.71580
 H75 H 0.73604 0.18272 0.73340
 H76 H 0.78608 0.20587 0.70597
 H77 H 0.77318 0.22384 0.76655
 H78 H 0.75753 0.24096 0.75292
 N79 N 0.26485 -0.22874 0.78996
 N80 N 0.25594 -0.24378 0.79719
 C81 C 0.26538 -0.24963 0.81305
 C82 C 0.28090 -0.23758 0.81578
 C83 C 0.28023 -0.22451 0.80095
 H84 H 0.26153 -0.26190 0.82176
 H85 H 0.29036 -0.21303 0.79818
 Cu86 Cu 0.23332 -0.25453 0.78466
 Cu87 Cu 0.25634 -0.21626 0.76644
 Cu88 Cu 0.21578 -0.23504 0.74413
 N89 N 0.21049 -0.26489 0.77220
 N90 N 0.20367 -0.25718 0.75635
 C91 C 0.18818 -0.26727 0.75050
 C92 C 0.18525 -0.28197 0.76344
 C93 C 0.19958 -0.28017 0.77699
 H94 H 0.17989 -0.26433 0.73769
 H95 H 0.20201 -0.28945 0.78921
 N96 N 0.23012 -0.21272 0.73404
 N97 N 0.24556 -0.20560 0.74255
 C98 C 0.25229 -0.19075 0.73210
 C99 C 0.24051 -0.18852 0.71637
 C100 C 0.22664 -0.20259 0.71792
 H101 H 0.26491 -0.18231 0.73551
 H102 H 0.21503 -0.20532 0.70793
 H103 H 0.22753 -0.22382 0.76883
 H104 H 0.24328 -0.24010 0.75436
 N105 N 0.73311 -0.23077 0.78677
 N106 N 0.74184 -0.24632 0.79316
 C107 C 0.73202 -0.25316 0.80840
 C108 C 0.71643 -0.24122 0.81161
 C109 C 0.71747 -0.22718 0.79772
 H110 H 0.73579 -0.26590 0.81646
 H111 H 0.70752 -0.21534 0.79566
 Cu112 Cu 0.76501 -0.25631 0.78080
 Cu113 Cu 0.74242 -0.21655 0.76457
 Cu114 Cu 0.78306 -0.23446 0.74162
 N115 N 0.78743 -0.26648 0.76726
 N116 N 0.79446 -0.25782 0.75199
 C117 C 0.80965 -0.26791 0.74528
 C118 C 0.81217 -0.28365 0.75701
 C119 C 0.79792 -0.28244 0.77078
 H120 H 0.81806 -0.26422 0.73272
 H121 H 0.79529 -0.29251 0.78230
 N122 N 0.76956 -0.21102 0.73320
 N123 N 0.75403 -0.20420 0.74190
 C124 C 0.74788 -0.18840 0.73249
 C125 C 0.76019 -0.18525 0.71727
 C126 C 0.77372 -0.19976 0.71804
 H127 H 0.73526 -0.17999 0.73619
 H128 H 0.78548 -0.20208 0.70808
 H129 H 0.75530 -0.23991 0.75142
 H130 H 0.77099 -0.22468 0.76696
 N131 N 0.26869 0.23155 0.78515
 N132 N 0.26062 0.24767 0.79096
 C133 C 0.27079 0.25468 0.80585
 C134 C 0.28592 0.24227 0.80940
 C135 C 0.28425 0.22777 0.79610
 H136 H 0.26756 0.26783 0.81346
 H137 H 0.29371 0.21549 0.79445
 Cu138 Cu 0.23779 0.25800 0.77833
 Cu139 Cu 0.25862 0.21678 0.76369
 Cu140 Cu 0.21796 0.23480 0.74095
 N141 N 0.21497 0.26791 0.76536
 N142 N 0.20729 0.25873 0.75076
 C143 C 0.19189 0.26868 0.74433
 C144 C 0.18989 0.28484 0.75552
 C145 C 0.20467 0.28403 0.76870
 H146 H 0.18290 0.26454 0.73236
 H147 H 0.20772 0.29444 0.77977
 N148 N 0.23080 0.21081 0.73311
 N149 N 0.24633 0.20393 0.74173
 C150 C 0.25190 0.18765 0.73281
 C151 C 0.23922 0.18425 0.71800
 C152 C 0.22605 0.19909 0.71851
 H153 H 0.26437 0.17906 0.73659
 H154 H 0.21409 0.20130 0.70879
 H155 H 0.24608 0.23983 0.74962
 H156 H 0.23030 0.22600 0.76645
 N157 N 0.26691 -0.23134 0.21373
 N158 N 0.25821 -0.24682 0.20729
 C159 C 0.26837 -0.25393 0.19239
 C160 C 0.28413 -0.24224 0.18943
 C161 C 0.28286 -0.22806 0.20314
 H162 H 0.26473 -0.26672 0.18440
 H163 H 0.29287 -0.21637 0.20535
 Cu164 Cu 0.23469 -0.25647 0.21918
 Cu165 Cu 0.25719 -0.21687 0.23560
 Cu166 Cu 0.21594 -0.23421 0.25780
 N167 N 0.21195 -0.26630 0.23235
 N168 N 0.20464 -0.25749 0.24739
 C169 C 0.18928 -0.26741 0.25386
 C170 C 0.18693 -0.28321 0.24225
 C171 C 0.20148 -0.28219 0.22877
 H172 H 0.18063 -0.26358 0.26621
 H173 H 0.20433 -0.29238 0.21741
 N174 N 0.22937 -0.21086 0.26631
 N175 N 0.24513 -0.20424 0.25791
 C176 C 0.25116 -0.18850 0.26739
 C177 C 0.23853 -0.18517 0.28232
 C178 C 0.22494 -0.19951 0.28132
 H179 H 0.26394 -0.18027 0.26395
 H180 H 0.21295 -0.20167 0.29103
 H181 H 0.24392 -0.24001 0.24860
 H182 H 0.22865 -0.22466 0.23264
 N183 N 0.73084 0.23409 0.21491
 N184 N 0.73922 0.25011 0.20934
 C185 C 0.72947 0.25738 0.19427
 C186 C 0.71429 0.24526 0.19032
 C187 C 0.71549 0.23064 0.20360
 H188 H 0.73305 0.27050 0.18675
 H189 H 0.70590 0.21848 0.20496
 Cu190 Cu 0.76193 0.25992 0.22241
 Cu191 Cu 0.74032 0.21901 0.23648
 Cu192 Cu 0.78126 0.23583 0.25955
 N193 N 0.78510 0.26896 0.23527
 N194 N 0.79260 0.25944 0.24979
 C195 C 0.80837 0.26877 0.25610
 C196 C 0.81079 0.28490 0.24491
 C197 C 0.79588 0.28468 0.23184
 H198 H 0.81734 0.26424 0.26796
 H199 H 0.79311 0.29522 0.22077
 N200 N 0.76774 0.21222 0.26734
 N201 N 0.75213 0.20580 0.25858
 C202 C 0.74613 0.18966 0.26743
 C203 C 0.75859 0.18586 0.28234
 C204 C 0.77208 0.20034 0.28197
 H205 H 0.73354 0.18139 0.26351
 H206 H 0.78401 0.20216 0.29179
 H207 H 0.75320 0.24146 0.25088
 H208 H 0.76876 0.22754 0.23393
 C209 C 0.25285 0.00905 0.50102
 C210 C 0.25325 -0.01049 0.50030
 C211 C 0.25255 -0.02109 0.48186
 C212 C 0.25400 -0.02246 0.51794
 C213 C 0.25185 0.01959 0.51949
 C214 C 0.25301 0.02103 0.48337
 C215 C 0.23719 -0.01843 0.46895
 C216 C 0.23627 -0.02927 0.45210
 C217 C 0.25062 -0.04293 0.44810
 C218 C 0.26593 -0.04562 0.46091
 C219 C 0.26687 -0.03480 0.47772
 C220 C 0.24000 -0.03674 0.52083
 C221 C 0.24068 -0.04845 0.53707
 C222 C 0.25541 -0.04613 0.55057
 C223 C 0.26952 -0.03200 0.54776
 C224 C 0.26887 -0.02025 0.53147
 C225 C 0.26572 0.03366 0.52361
 C226 C 0.26462 0.04419 0.54060
 C227 C 0.24958 0.04086 0.55361
 C228 C 0.23563 0.02690 0.54958
 C229 C 0.23672 0.01634 0.53257
 C230 C 0.26783 0.01925 0.46966
 C231 C 0.26784 0.03090 0.45329
 C232 C 0.25314 0.04451 0.45057
 C233 C 0.23848 0.04645 0.46427
 C234 C 0.23844 0.03483 0.48060
 H235 H 0.22578 -0.00822 0.47208
 H236 H 0.22426 -0.02722 0.44237
 H237 H 0.27702 -0.05625 0.45803
 H238 H 0.27871 -0.03718 0.48758
 H239 H 0.22850 -0.03874 0.51052
 H240 H 0.22974 -0.05939 0.53906
 H241 H 0.28001 -0.00957 0.52933
 H242 H 0.27740 0.03646 0.51364
 H243 H 0.27542 0.05503 0.54352
 H244 H 0.22384 0.02432 0.55948
 H245 H 0.22566 0.00582 0.52947
 H246 H 0.27941 0.00895 0.47172
 H247 H 0.27932 0.02936 0.44283
 H248 H 0.22708 0.05698 0.46235
 H249 H 0.22696 0.03651 0.49105
 H250 H 0.28106 -0.03017 0.55807
 C251 C 0.74623 -0.00936 0.50000
 C252 C 0.74662 0.01018 0.49928
 C253 C 0.74637 0.02212 0.51693
 C254 C 0.74768 0.02075 0.48080
 C255 C 0.74549 -0.02128 0.48236
 C256 C 0.74679 -0.02000 0.51846
 C257 C 0.73149 0.02040 0.53058
 C258 C 0.73142 0.03202 0.54694
 C259 C 0.74611 0.04553 0.54971
 C260 C 0.76086 0.04738 0.53609
 C261 C 0.76096 0.03579 0.51978
 C262 C 0.73382 0.03491 0.47661
 C263 C 0.73493 0.04541 0.45958
 C264 C 0.74998 0.04197 0.44658
 C265 C 0.76392 0.02793 0.45069
 C266 C 0.76283 0.01741 0.46776
 C267 C 0.75946 -0.03568 0.47951
 C268 C 0.75883 -0.04730 0.46323
 C269 C 0.74417 -0.04477 0.44966
 C270 C 0.73008 -0.03055 0.45246
 C271 C 0.73068 -0.01890 0.46879
 C272 C 0.76204 -0.01744 0.53150
 C273 C 0.76273 -0.02822 0.54843
 C274 C 0.74828 -0.04171 0.55239
 C275 C 0.73309 -0.04430 0.53944
 C276 C 0.73238 -0.03355 0.52255
 H277 H 0.71992 0.01017 0.52849
 H278 H 0.71988 0.03054 0.55736
 H279 H 0.77227 0.05781 0.53806
 H280 H 0.77250 0.03739 0.50939
 H281 H 0.72213 0.03780 0.48656
 H282 H 0.72414 0.05631 0.45659
 H283 H 0.77389 0.00683 0.47091
 H284 H 0.77091 -0.03784 0.48986
 H285 H 0.76974 -0.05832 0.46126
 H286 H 0.71858 -0.02856 0.44211
 H287 H 0.71955 -0.00814 0.47092
 H288 H 0.77351 -0.00734 0.52842
 H289 H 0.77463 -0.02622 0.55829
 H290 H 0.72189 -0.05478 0.54231
 H291 H 0.72060 -0.03582 0.51260
 H292 H 0.77572 0.02526 0.44080
 C293 C 0.50102 0.25349 -0.01031
 C294 C 0.50045 0.25390 0.00919
 C295 C 0.48195 0.25288 0.01998
 C296 C 0.51834 0.25483 0.02090
 C297 C 0.51957 0.25243 -0.02103
 C298 C 0.48313 0.25366 -0.02206
 C299 C 0.47769 0.26689 0.03382
 C300 C 0.46092 0.26553 0.04491
 C301 C 0.44827 0.25010 0.04235
 C302 C 0.45236 0.23610 0.02850
 C303 C 0.46916 0.23744 0.01740
 C304 C 0.53184 0.26969 0.01835
 C305 C 0.54844 0.27045 0.02977
 C306 C 0.55159 0.25647 0.04389
 C307 C 0.53812 0.24175 0.04657
 C308 C 0.52158 0.24096 0.03518
 C309 C 0.53278 0.23740 -0.01778
 C310 C 0.54980 0.23618 -0.02857
 C311 C 0.55368 0.24988 -0.04278
 C312 C 0.54055 0.26484 -0.04609
 C313 C 0.52356 0.26608 -0.03532
 C314 C 0.48031 0.23927 -0.03584
 C315 C 0.46383 0.23941 -0.04735
 C316 C 0.45002 0.25398 -0.04529
 C317 C 0.45274 0.26845 -0.03164
 C318 C 0.46928 0.26835 -0.02011
 H319 H 0.48743 0.27882 0.03611
 H320 H 0.45795 0.27637 0.05566
 H321 H 0.44274 0.22402 0.02651
 H322 H 0.47238 0.22628 0.00707
 H323 H 0.52944 0.28072 0.00766
 H324 H 0.55873 0.28196 0.02765
 H325 H 0.51131 0.22946 0.03743
 H326 H 0.52977 0.22649 -0.00711
 H327 H 0.55980 0.22446 -0.02600
 H328 H 0.54336 0.27546 -0.05711
 H329 H 0.51347 0.27767 -0.03814
 H330 H 0.49086 0.22788 -0.03764
 H331 H 0.46190 0.22819 -0.05792
 H332 H 0.44218 0.27986 -0.03001
 H333 H 0.47137 0.27978 -0.00982
 H334 H 0.54039 0.23091 0.05750
 C335 C 0.49997 0.74665 -0.00925
 C336 C 0.50059 0.74681 0.01026
 C337 C 0.48275 0.74592 0.02211
 C338 C 0.51913 0.74824 0.02087
 C339 C 0.51785 0.74616 -0.02108
 C340 C 0.48140 0.74735 -0.01989
 C341 C 0.47942 0.76001 0.03614
 C342 C 0.46295 0.75921 0.04769
 C343 C 0.44967 0.74426 0.04545
 C344 C 0.45294 0.73007 0.03159
 C345 C 0.46945 0.73085 0.02001
 C346 C 0.53189 0.76359 0.01762
 C347 C 0.54892 0.76512 0.02827
 C348 C 0.55326 0.75143 0.04235
 C349 C 0.54059 0.73614 0.04567
 C350 C 0.52359 0.73459 0.03503
 C351 C 0.53178 0.73162 -0.01864
 C352 C 0.54842 0.73131 -0.03008
 C353 C 0.55118 0.74543 -0.04413
 C354 C 0.53727 0.75983 -0.04673
 C355 C 0.52067 0.76016 -0.03532
 C356 C 0.47748 0.73339 -0.03385
 C357 C 0.46049 0.73433 -0.04460
 C358 C 0.44728 0.74930 -0.04160
 C359 C 0.45108 0.76328 -0.02770
 C360 C 0.46809 0.76237 -0.01693
 H361 H 0.48956 0.77167 0.03807
 H362 H 0.46061 0.77021 0.05842
 H363 H 0.44281 0.71836 0.02984
 H364 H 0.47195 0.71964 0.00954
 H365 H 0.52852 0.77449 0.00703
 H366 H 0.55857 0.77708 0.02568
 H367 H 0.51387 0.72274 0.03784
 H368 H 0.52970 0.72048 -0.00798
 H369 H 0.55905 0.72005 -0.02802
 H370 H 0.53923 0.77078 -0.05759
 H371 H 0.51007 0.77142 -0.03749
 H372 H 0.48762 0.72179 -0.03643
 H373 H 0.45775 0.72349 -0.05538
 H374 H 0.44102 0.77500 -0.02537
 H375 H 0.47103 0.77349 -0.00651
 H376 H 0.54377 0.72552 0.05659
 C377 C 0.00909 0.50031 0.25231
 C378 C -0.01059 0.50046 0.25251
 C379 C -0.02196 0.48241 0.25337
 C380 C -0.02188 0.51863 0.25162
 C381 C 0.02050 0.51833 0.25301
 C382 C 0.02035 0.48214 0.25101
 C383 C -0.03629 0.47899 0.23957
 C384 C -0.04740 0.46230 0.24037
 C385 C -0.04440 0.44888 0.25503
 C386 C -0.03022 0.45222 0.26893
 C387 C -0.01909 0.46895 0.26815
 C388 C -0.01930 0.53176 0.23650
 C389 C -0.03074 0.54833 0.23539
 C390 C -0.04493 0.55187 0.24931
 C391 C -0.04754 0.53885 0.26439
 C392 C -0.03614 0.52230 0.26551
 C393 C 0.01803 0.53163 0.26798
 C394 C 0.02934 0.54825 0.26866
 C395 C 0.04327 0.55164 0.25446
 C396 C 0.04582 0.53840 0.23959
 C397 C 0.03456 0.52182 0.23890
 C398 C 0.03487 0.47825 0.26453
 C399 C 0.04617 0.46166 0.26300
 C400 C 0.04317 0.44882 0.24788
 C401 C 0.02874 0.45260 0.23432
 C402 C 0.01742 0.46922 0.23582
 H403 H -0.03881 0.48922 0.22813
 H404 H -0.05839 0.45988 0.22959
 H405 H -0.02787 0.44199 0.28041
 H406 H -0.00837 0.47150 0.27914
 H407 H -0.00868 0.52900 0.22541
 H408 H -0.02872 0.55823 0.22357
 H409 H -0.03846 0.51228 0.27718
 H410 H 0.00753 0.52902 0.27920
 H411 H 0.02735 0.55834 0.28030
 H412 H 0.05662 0.54084 0.22859
 H413 H 0.03676 0.51169 0.22732
 H414 H 0.03746 0.48811 0.27624
 H415 H 0.05737 0.45895 0.27350
 H416 H 0.02641 0.44284 0.22247
 H417 H 0.00660 0.47216 0.22501
 H418 H -0.05855 0.54138 0.27517
 C419 C 0.00989 0.50061 0.74710
 C420 C -0.00979 0.50021 0.74724
 C421 C -0.02070 0.48188 0.74834
 C422 C -0.02152 0.51811 0.74653
 C423 C 0.02084 0.51891 0.74810
 C424 C 0.02161 0.48272 0.74627
 C425 C -0.03499 0.47792 0.73464
 C426 C -0.04588 0.46110 0.73585
 C427 C -0.04270 0.44808 0.75084
 C428 C -0.02851 0.45194 0.76460
 C429 C -0.01761 0.46879 0.76340
 C430 C -0.01914 0.53154 0.73165
 C431 C -0.03070 0.54805 0.73094
 C432 C -0.04482 0.55119 0.74501
 C433 C -0.04728 0.53783 0.75982
 C434 C -0.03574 0.52136 0.76054
 C435 C 0.01795 0.53190 0.76326
 C436 C 0.02910 0.54858 0.76451
 C437 C 0.04331 0.55237 0.75071
 C438 C 0.04625 0.53948 0.73559
 C439 C 0.03512 0.52283 0.73432
 C440 C 0.03589 0.47942 0.76017
 C441 C 0.04738 0.46292 0.75938
 C442 C 0.04481 0.44959 0.74461
 C443 C 0.03067 0.45281 0.73062
 C444 C 0.01916 0.46935 0.73138
 H445 H -0.03769 0.48788 0.72300
 H446 H -0.05688 0.45831 0.72519
 H447 H -0.02603 0.44203 0.77633
 H448 H -0.00694 0.47176 0.77434
 H449 H -0.00847 0.52915 0.72052
 H450 H -0.02875 0.55826 0.71937
 H451 H -0.03785 0.51115 0.77209
 H452 H 0.00731 0.52893 0.77427
 H453 H 0.02683 0.55837 0.77638
 H454 H 0.05729 0.54220 0.72491
 H455 H 0.03769 0.51292 0.72262
 H456 H 0.03808 0.48961 0.77168
 H457 H 0.05833 0.46061 0.77023
 H458 H 0.02866 0.44264 0.71906
 H459 H 0.00850 0.47183 0.72030
 H460 H -0.05819 0.54010 0.77075
 C461 C 0.29694 0.23671 0.17152
 C462 C 0.30955 0.23751 0.15959
 C463 C 0.32485 0.23842 0.14562
 C464 C 0.34296 0.23051 0.14986
 C465 C 0.35800 0.23167 0.13652
 C466 C 0.35514 0.24081 0.11874
 C467 C 0.33682 0.24857 0.11454
 C468 C 0.32179 0.24740 0.12792
 C469 C 0.37129 0.24245 0.10478
 C470 C 0.36811 0.23981 0.08503
 C471 C 0.38342 0.24130 0.07199
 C472 C 0.40206 0.24547 0.07851
 C473 C 0.40533 0.24821 0.09810
 C474 C 0.39007 0.24671 0.11115
 C475 C 0.41793 0.24695 0.06523
 C476 C 0.43158 0.24830 0.05455
 H477 H 0.34547 0.22348 0.16350
 H478 H 0.37184 0.22531 0.14007
 H479 H 0.33423 0.25588 0.10107
 H480 H 0.30784 0.25363 0.12452
 H481 H 0.35386 0.23632 0.07971
 H482 H 0.38074 0.23914 0.05685
 H483 H 0.41968 0.25155 0.10329
 H484 H 0.39293 0.24913 0.12621
 C485 C 0.70475 0.76404 0.17033
 C486 C 0.69257 0.76334 0.15802
 C487 C 0.67779 0.76256 0.14355
 C488 C 0.67892 0.74901 0.12879
 C489 C 0.66428 0.74798 0.11504
 C490 C 0.64830 0.76051 0.11589
 C491 C 0.64740 0.77419 0.13070
 C492 C 0.66205 0.77518 0.14443
 C493 C 0.63238 0.75905 0.10171
 C494 C 0.62342 0.77570 0.09441
 C495 C 0.60788 0.77426 0.08172
 C496 C 0.60111 0.75620 0.07613
 C497 C 0.61009 0.73957 0.08309
 C498 C 0.62564 0.74096 0.09577
 C499 C 0.58452 0.75469 0.06382
 C500 C 0.57040 0.75328 0.05384
 H501 H 0.69106 0.73917 0.12797
 H502 H 0.66549 0.73744 0.10369
 H503 H 0.63516 0.78384 0.13193
 H504 H 0.66098 0.78567 0.15585
 H505 H 0.62844 0.78982 0.09851
 H506 H 0.60102 0.78723 0.07643
 H507 H 0.60489 0.72551 0.07893
 H508 H 0.63205 0.72789 0.10132
 C509 C 0.70534 0.23899 -0.17146
 C510 C 0.69311 0.24000 -0.15917
 C511 C 0.67832 0.24120 -0.14469
 C512 C 0.66650 0.25750 -0.14358
 C513 C 0.65177 0.25850 -0.12986
 C514 C 0.64866 0.24317 -0.11707
 C515 C 0.66073 0.22689 -0.11820
 C516 C 0.67545 0.22593 -0.13193
 C517 C 0.63266 0.24401 -0.10287
 C518 C 0.62121 0.22771 -0.09925
 C519 C 0.60572 0.22869 -0.08640
 C520 C 0.60146 0.24593 -0.07698
 C521 C 0.61289 0.26215 -0.08030
 C522 C 0.62840 0.26121 -0.09315
 C523 C 0.58491 0.24718 -0.06451
 C524 C 0.57081 0.24834 -0.05441
 H525 H 0.66854 0.26937 -0.15343
 H526 H 0.64257 0.27110 -0.12954
 H527 H 0.65885 0.21496 -0.10841
 H528 H 0.68454 0.21325 -0.13265
 H529 H 0.62395 0.21434 -0.10669
 H530 H 0.59689 0.21608 -0.08401
 H531 H 0.60972 0.27557 -0.07309
 H532 H 0.63708 0.27392 -0.09544
 C533 C 0.29547 0.76098 -0.16964
 C534 C 0.30786 0.75972 -0.15758
 C535 C 0.32286 0.75816 -0.14338
 C536 C 0.32143 0.76834 -0.12614
 C537 C 0.33616 0.76699 -0.11249
 C538 C 0.35251 0.75541 -0.11591
 C539 C 0.35375 0.74519 -0.13327
 C540 C 0.33903 0.74658 -0.14689
 C541 C 0.36840 0.75424 -0.10166
 C542 C 0.37775 0.73664 -0.09799
 C543 C 0.39324 0.73570 -0.08518
 C544 C 0.39957 0.75230 -0.07584
 C545 C 0.39020 0.76982 -0.07917
 C546 C 0.37470 0.77080 -0.09198
 C547 C 0.41609 0.75141 -0.06336
 C548 C 0.43017 0.75053 -0.05324
 H549 H 0.30896 0.77735 -0.12327
 H550 H 0.33468 0.77486 -0.09919
 H551 H 0.36628 0.73640 -0.13647
 H552 H 0.34033 0.73871 -0.16023
 H553 H 0.37308 0.72360 -0.10501
 H554 H 0.40039 0.72205 -0.08270
 H555 H 0.39506 0.78278 -0.07210
 H556 H 0.36796 0.78460 -0.09466
 C557 C 0.17160 0.29650 0.23750
 C558 C 0.15964 0.30912 0.23790
 C559 C 0.14557 0.32439 0.23834
 C560 C 0.14628 0.33904 0.22462
 C561 C 0.13297 0.35417 0.22527
 C562 C 0.11874 0.35484 0.23970
 C563 C 0.11803 0.33993 0.25334
 C564 C 0.13138 0.32482 0.25266
 C565 C 0.10493 0.37120 0.24070
 C566 C 0.08538 0.36816 0.24537
 C567 C 0.07250 0.38366 0.24651
 C568 C 0.07900 0.40236 0.24302
 C569 C 0.09840 0.40551 0.23831
 C570 C 0.11128 0.39006 0.23715
 C571 C 0.06595 0.41842 0.24459
 C572 C 0.05536 0.43214 0.24602
 H573 H 0.15718 0.33883 0.21345
 H574 H 0.13373 0.36528 0.21442
 H575 H 0.10741 0.34015 0.26475
 H576 H 0.13074 0.31358 0.26339
 H577 H 0.08000 0.35380 0.24797
 H578 H 0.05751 0.38105 0.25016
 H579 H 0.10360 0.41994 0.23567
 H580 H 0.12629 0.39292 0.23381
 C581 C 0.17167 0.70398 0.76252
 C582 C 0.15983 0.69133 0.76178
 C583 C 0.14597 0.67597 0.76096
 C584 C 0.15033 0.65818 0.76926
 C585 C 0.13710 0.64309 0.76820
 C586 C 0.11929 0.64559 0.75879
 C587 C 0.11497 0.66358 0.75060
 C588 C 0.12825 0.67866 0.75167
 C589 C 0.10541 0.62940 0.75738
 C590 C 0.08543 0.63251 0.75973
 C591 C 0.07245 0.61717 0.75850
 C592 C 0.07928 0.59857 0.75489
 C593 C 0.09910 0.59537 0.75249
 C594 C 0.11208 0.61065 0.75371
 C595 C 0.06607 0.58268 0.75358
 C596 C 0.05545 0.56904 0.75236
 H597 H 0.16398 0.65595 0.77653
 H598 H 0.14074 0.62951 0.77487
 H599 H 0.10150 0.66588 0.74305
 H600 H 0.12475 0.69237 0.74514
 H601 H 0.07987 0.64673 0.76278
 H602 H 0.05713 0.61981 0.76043
 H603 H 0.10454 0.58104 0.74962
 H604 H 0.12733 0.60783 0.75155
 C605 C -0.17391 0.70384 0.23842
 C606 C -0.16214 0.69105 0.23915
 C607 C -0.14831 0.67559 0.23997
 C608 C -0.13022 0.67840 0.24846
 C609 C -0.11692 0.66327 0.24944
 C610 C -0.12157 0.64509 0.24198
 C611 C -0.13975 0.64246 0.23337
 C612 C -0.15301 0.65761 0.23239
 C613 C -0.10763 0.62887 0.24332
 C614 C -0.11412 0.61026 0.24785
 C615 C -0.10107 0.59496 0.24904
 C616 C -0.08136 0.59799 0.24572
 C617 C -0.07473 0.61645 0.24128
 C618 C -0.08777 0.63180 0.24010
 C619 C -0.06807 0.58208 0.24684
 C620 C -0.05730 0.56847 0.24788
 H621 H -0.12645 0.69226 0.25441
 H622 H -0.10314 0.66568 0.25634
 H623 H -0.14366 0.62873 0.22724
 H624 H -0.16695 0.65528 0.22574
 H625 H -0.12926 0.60759 0.25071
 H626 H -0.10635 0.58075 0.25258
 H627 H -0.05950 0.61896 0.23867
 H628 H -0.08236 0.64591 0.23639
 C629 C -0.17056 0.29603 0.76064
 C630 C -0.15848 0.30847 0.76001
 C631 C -0.14424 0.32350 0.75934
 C632 C -0.12940 0.32297 0.74569
 C633 C -0.11579 0.33777 0.74487
 C634 C -0.11685 0.35331 0.75772
 C635 C -0.13175 0.35363 0.77147
 C636 C -0.14535 0.33883 0.77225
 C637 C -0.10271 0.36932 0.75659
 C638 C -0.09542 0.37780 0.77338
 C639 C -0.08265 0.39330 0.77229
 C640 C -0.07698 0.40053 0.75443
 C641 C -0.08397 0.39206 0.73764
 C642 C -0.09673 0.37655 0.73869
 C643 C -0.06451 0.41702 0.75331
 C644 C -0.05439 0.43106 0.75227
 H645 H -0.12838 0.31114 0.73565
 H646 H -0.10436 0.33699 0.73427
 H647 H -0.13313 0.36551 0.78139
 H648 H -0.15681 0.33943 0.78283
 H649 H -0.09955 0.37242 0.78737
 H650 H -0.07732 0.39973 0.78539
 H651 H -0.07976 0.39761 0.72373
 H652 H -0.10227 0.37052 0.72551
 C653 C 0.24093 0.17342 0.29999
 C654 C 0.24221 0.16166 0.31263
 C655 C 0.24378 0.14764 0.32774
 C656 C 0.22886 0.14563 0.34115
 C657 C 0.23040 0.13209 0.35589
 C658 C 0.24692 0.12034 0.35741
 C659 C 0.26185 0.12247 0.34386
 C660 C 0.26027 0.13603 0.32912
 C661 C 0.24860 0.10607 0.37319
 C662 C 0.26625 0.10339 0.38286
 C663 C 0.26761 0.09041 0.39812
 C664 C 0.25140 0.07989 0.40387
 C665 C 0.23385 0.08226 0.39419
 C666 C 0.23245 0.09524 0.37895
 C667 C 0.25251 0.06713 0.42008
 C668 C 0.25304 0.05667 0.43387
 H669 H 0.21606 0.15460 0.34027
 H670 H 0.21879 0.13101 0.36626
 H671 H 0.27465 0.11351 0.34453
 H672 H 0.27190 0.13744 0.31880
 H673 H 0.27888 0.11166 0.37891
 H674 H 0.28124 0.08875 0.40557
 H675 H 0.22121 0.07419 0.39853
 H676 H 0.21875 0.09675 0.37162
 C677 C 0.75881 0.17499 0.69933
 C678 C 0.75736 0.16315 0.68683
 C679 C 0.75565 0.14903 0.67187
 C680 C 0.73833 0.13899 0.66943
 C681 C 0.73666 0.12532 0.65486
 C682 C 0.75233 0.12150 0.64252
 C683 C 0.76969 0.13165 0.64514
 C684 C 0.77132 0.14531 0.65971
 C685 C 0.75054 0.10721 0.62683
 C686 C 0.76600 0.09480 0.62241
 C687 C 0.76457 0.08181 0.60722
 C688 C 0.74767 0.08101 0.59625
 C689 C 0.73213 0.09313 0.60065
 C690 C 0.73352 0.10613 0.61586
 C691 C 0.74661 0.06820 0.58010
 C692 C 0.74613 0.05771 0.56637
 H693 H 0.72613 0.14172 0.67880
 H694 H 0.72319 0.11759 0.65336
 H695 H 0.78191 0.12924 0.63573
 H696 H 0.78478 0.15304 0.66143
 H697 H 0.77918 0.09509 0.63074
 H698 H 0.77671 0.07251 0.60392
 H699 H 0.71903 0.09272 0.59217
 H700 H 0.72146 0.11565 0.61874
 C701 C 0.24265 -0.17470 0.70121
 C702 C 0.24451 -0.16315 0.68845
 C703 C 0.24673 -0.14947 0.67312
 C704 C 0.25349 -0.13093 0.67692
 C705 C 0.25557 -0.11766 0.66198
 C706 C 0.25094 -0.12280 0.64303
 C707 C 0.24418 -0.14149 0.63939
 C708 C 0.24210 -0.15471 0.65433
 C709 C 0.25296 -0.10873 0.62714
 C710 C 0.26013 -0.11456 0.60917
 C711 C 0.26144 -0.10146 0.59402
 C712 C 0.25564 -0.08237 0.59661
 C713 C 0.24870 -0.07636 0.61448
 C714 C 0.24739 -0.08943 0.62967
 C715 C 0.25607 -0.06921 0.58069
 C716 C 0.25602 -0.05850 0.56710
 H717 H 0.25717 -0.12674 0.69141
 H718 H 0.26101 -0.10346 0.66521
 H719 H 0.24021 -0.14579 0.62501
 H720 H 0.23679 -0.16900 0.65124
 H721 H 0.26477 -0.12924 0.60683
 H722 H 0.26681 -0.10628 0.58023
 H723 H 0.24404 -0.06164 0.61660
 H724 H 0.24158 -0.08456 0.64325
 C725 C 0.75635 -0.17388 0.29966
 C726 C 0.75462 -0.16222 0.31233
 C727 C 0.75250 -0.14839 0.32752
 C728 C 0.74956 -0.12895 0.32322
 C729 C 0.74759 -0.11552 0.33800
 C730 C 0.74851 -0.12139 0.35730
 C731 C 0.75142 -0.14097 0.36145
 C732 C 0.75340 -0.15436 0.34665
 C733 C 0.74665 -0.10715 0.37305
 C734 C 0.73610 -0.11162 0.38973
 C735 C 0.73485 -0.09847 0.40481
 C736 C 0.74409 -0.08067 0.40343
 C737 C 0.75444 -0.07598 0.38683
 C738 C 0.75569 -0.08911 0.37171
 C739 C 0.74364 -0.06761 0.41941
 C740 C 0.74363 -0.05700 0.43306
 H741 H 0.74876 -0.12418 0.30845
 H742 H 0.74513 -0.10060 0.33434
 H743 H 0.75247 -0.14591 0.37614
 H744 H 0.75570 -0.16937 0.35015
 H745 H 0.72877 -0.12528 0.39109
 H746 H 0.72683 -0.10226 0.41761
 H747 H 0.76176 -0.06229 0.38567
 H748 H 0.76412 -0.08534 0.35918
 C749 C 0.70190 0.75685 -0.17379
 C750 C 0.68961 0.75534 -0.16162
 C751 C 0.67479 0.75372 -0.14721
 C752 C 0.66307 0.76955 -0.14293
 C753 C 0.64847 0.76799 -0.12916
 C754 C 0.64537 0.75052 -0.11946
 C755 C 0.65729 0.73469 -0.12381
 C756 C 0.67191 0.73629 -0.13759
 C757 C 0.62957 0.74880 -0.10512
 C758 C 0.61796 0.73224 -0.10444
 C759 C 0.60256 0.73100 -0.09149
 C760 C 0.59860 0.74625 -0.07902
 C761 C 0.61024 0.76265 -0.07938
 C762 C 0.62563 0.76392 -0.09232
 C763 C 0.58215 0.74546 -0.06639
 C764 C 0.56815 0.74521 -0.05609
 H765 H 0.66513 0.78309 -0.15034
 H766 H 0.63937 0.78035 -0.12635
 H767 H 0.65541 0.72112 -0.11644
 H768 H 0.68092 0.72395 -0.14077
 H769 H 0.62047 0.72045 -0.11426
 H770 H 0.59358 0.71828 -0.09140
 H771 H 0.60729 0.77454 -0.06980
 H772 H 0.63445 0.77674 -0.09231
 C773 C 0.30066 0.24419 -0.17626
 C774 C 0.31315 0.24562 -0.16433
 C775 C 0.32825 0.24709 -0.15025
 C776 C 0.32535 0.25777 -0.13350
 C777 C 0.34003 0.25900 -0.11979
 C778 C 0.35778 0.24950 -0.12266
 C779 C 0.36055 0.23888 -0.13960
 C780 C 0.34589 0.23769 -0.15328
 C781 C 0.37335 0.25056 -0.10809
 C782 C 0.38445 0.23417 -0.10367
 C783 C 0.39947 0.23522 -0.09037
 C784 C 0.40362 0.25262 -0.08128
 C785 C 0.39256 0.26897 -0.08540
 C786 C 0.37747 0.26795 -0.09869
 C787 C 0.41960 0.25367 -0.06816
 C788 C 0.43330 0.25409 -0.05752
 H789 H 0.31173 0.26505 -0.13099
 H790 H 0.33739 0.26712 -0.10681
 H791 H 0.37415 0.23165 -0.14237
 H792 H 0.34832 0.22944 -0.16623
 H793 H 0.38145 0.22052 -0.11043
 H794 H 0.40794 0.22247 -0.08728
 H795 H 0.39573 0.28254 -0.07851
 H796 H 0.36932 0.28085 -0.10193
 C797 C 0.29908 0.75538 0.17531
 C798 C 0.31170 0.75338 0.16353
 C799 C 0.32687 0.75105 0.14956
 C800 C 0.34617 0.75027 0.15547
 C801 C 0.36095 0.74820 0.14194
 C802 C 0.35662 0.74692 0.12227
 C803 C 0.33716 0.74763 0.11649
 C804 C 0.32239 0.74967 0.13006
 C805 C 0.37239 0.74524 0.10788
 C806 C 0.37155 0.75567 0.09060
 C807 C 0.38677 0.75472 0.07742
 C808 C 0.40298 0.74331 0.08129
 C809 C 0.40383 0.73265 0.09829
 C810 C 0.38864 0.73359 0.11150
 C811 C 0.41913 0.74319 0.06827
 C812 C 0.43292 0.74346 0.05768
 H813 H 0.34981 0.75139 0.17053
 H814 H 0.37579 0.74798 0.14683
 H815 H 0.33335 0.74645 0.10149
 H816 H 0.30749 0.75021 0.12533
 H817 H 0.35937 0.76495 0.08750
 H818 H 0.38603 0.76314 0.06436
 H819 H 0.41632 0.72379 0.10144
 H820 H 0.38960 0.72521 0.12455
 C821 C 0.70002 0.24751 0.17557
 C822 C 0.68796 0.24933 0.16325
 C823 C 0.67348 0.25138 0.14861
 C824 C 0.67617 0.24282 0.13067
 C825 C 0.66188 0.24439 0.11661
 C826 C 0.64467 0.25456 0.12034
 C827 C 0.64220 0.26328 0.13837
 C828 C 0.65651 0.26168 0.15241
 C829 C 0.62913 0.25562 0.10572
 C830 C 0.61852 0.27269 0.10300
 C831 C 0.60334 0.27338 0.08980
 C832 C 0.59860 0.25705 0.07914
 C833 C 0.60923 0.24009 0.08155
 C834 C 0.62441 0.23937 0.09472
 C835 C 0.58233 0.25737 0.06633
 C836 C 0.56845 0.25721 0.05591
 H837 H 0.68928 0.23484 0.12758
 H838 H 0.66431 0.23771 0.10280
 H839 H 0.62901 0.27097 0.14178
 H840 H 0.65424 0.26830 0.16628
 H841 H 0.62195 0.28550 0.11108
 H842 H 0.59518 0.28657 0.08806
 H843 H 0.60558 0.22732 0.07348
 H844 H 0.63211 0.22595 0.09667
 C845 C -0.17443 0.70217 0.75500
 C846 C -0.16262 0.68953 0.75321
 C847 C -0.14867 0.67431 0.75111
 C848 C -0.12897 0.67856 0.74950
 C849 C -0.11543 0.66372 0.74765
 C850 C -0.12144 0.64443 0.74738
 C851 C -0.14128 0.64033 0.74896
 C852 C -0.15479 0.65518 0.75081
 C853 C -0.10710 0.62859 0.74578
 C854 C -0.11104 0.61236 0.73446
 C855 C -0.09789 0.59710 0.73358
 C856 C -0.08063 0.59787 0.74397
 C857 C -0.07643 0.61407 0.75504
 C858 C -0.08956 0.62935 0.75593
 C859 C -0.06765 0.58169 0.74392
 C860 C -0.05706 0.56791 0.74423
 H861 H -0.12408 0.69333 0.74968
 H862 H -0.10028 0.66734 0.74626
 H863 H -0.14634 0.62563 0.74911
 H864 H -0.16999 0.65173 0.75212
 H865 H -0.12428 0.61146 0.72626
 H866 H -0.10128 0.58462 0.72497
 H867 H -0.06316 0.61476 0.76322
 H868 H -0.08621 0.64154 0.76495
 C869 C -0.17438 0.29916 0.24665
 C870 C -0.16201 0.31122 0.24805
 C871 C -0.14736 0.32576 0.24960
 C872 C -0.13994 0.33440 0.23305
 C873 C -0.12605 0.34885 0.23451
 C874 C -0.11939 0.35486 0.25258
 C875 C -0.12684 0.34597 0.26914
 C876 C -0.14073 0.33151 0.26764
 C877 C -0.10508 0.37064 0.25411
 C878 C -0.10712 0.38488 0.26827
 C879 C -0.09416 0.40021 0.26916
 C880 C -0.07897 0.40150 0.25595
 C881 C -0.07663 0.38725 0.24201
 C882 C -0.08958 0.37191 0.24108
 C883 C -0.06638 0.41790 0.25610
 C884 C -0.05617 0.43189 0.25584
 H885 H -0.14503 0.33010 0.21902
 H886 H -0.12081 0.35559 0.22151
 H887 H -0.12184 0.35013 0.28323
 H888 H -0.14636 0.32488 0.28055
 H889 H -0.11905 0.38445 0.27834
 H890 H -0.09618 0.41124 0.27993
 H891 H -0.06493 0.38812 0.23170
 H892 H -0.08749 0.36105 0.23017
 C893 C 0.17560 0.29969 0.75354
 C894 C 0.16366 0.31221 0.75187
 C895 C 0.14949 0.32723 0.74989
 C896 C 0.15540 0.34616 0.74664
 C897 C 0.14168 0.36082 0.74490
 C898 C 0.12182 0.35672 0.74637
 C899 C 0.11603 0.33763 0.74959
 C900 C 0.12978 0.32298 0.75132
 C901 C 0.10728 0.37238 0.74496
 C902 C 0.09126 0.37281 0.75741
 C903 C 0.07801 0.38798 0.75663
 C904 C 0.08056 0.40288 0.74340
 C905 C 0.09626 0.40243 0.73074
 C906 C 0.10954 0.38728 0.73149
 C907 C 0.06757 0.41906 0.74340
 C908 C 0.05701 0.43284 0.74376
 H909 H 0.17063 0.34960 0.74560
 H910 H 0.14661 0.37541 0.74275
 H911 H 0.10085 0.33400 0.75062
 H912 H 0.12505 0.30837 0.75382
 H913 H 0.08926 0.36169 0.76808
 H914 H 0.06596 0.38824 0.76656
 H915 H 0.09836 0.41391 0.72043
 H916 H 0.12156 0.38721 0.72153
 C917 C 0.17274 0.70192 0.24426
 C918 C 0.16091 0.68936 0.24600
 C919 C 0.14690 0.67426 0.24810
 C920 C 0.15301 0.65512 0.24925
 C921 C 0.13946 0.64040 0.25116
 C922 C 0.11957 0.64463 0.25193
 C923 C 0.11357 0.66393 0.25082
 C924 C 0.12716 0.67865 0.24892
 C925 C 0.10518 0.62892 0.25355
 C926 C 0.08802 0.62946 0.24276
 C927 C 0.07488 0.61426 0.24367
 C928 C 0.07869 0.59838 0.25540
 C929 C 0.09556 0.59785 0.26642
 C930 C 0.10872 0.61302 0.26553
 C931 C 0.06576 0.58224 0.25549
 C932 C 0.05529 0.56843 0.25522
 H933 H 0.16825 0.65157 0.24857
 H934 H 0.14452 0.62568 0.25168
 H935 H 0.09839 0.66766 0.25158
 H936 H 0.12228 0.69342 0.24808
 H937 H 0.08500 0.64139 0.23324
 H938 H 0.06192 0.61476 0.23499
 H939 H 0.09865 0.58561 0.27554
 H940 H 0.12166 0.61231 0.27421
 C941 C 0.75865 -0.17056 0.70289
 C942 C 0.75739 -0.15847 0.69058
 C943 C 0.75588 -0.14434 0.67558
 C944 C 0.76052 -0.12512 0.67916
 C945 C 0.75922 -0.11150 0.66444
 C946 C 0.75324 -0.11697 0.64597
 C947 C 0.74859 -0.13633 0.64256
 C948 C 0.74991 -0.14990 0.65727
 C949 C 0.75201 -0.10265 0.63022
 C950 C 0.73664 -0.10323 0.61705
 C951 C 0.73585 -0.09023 0.60180
 C952 C 0.75036 -0.07647 0.59949
 C953 C 0.76558 -0.07559 0.61264
 C954 C 0.76640 -0.08857 0.62794
 C955 C 0.74986 -0.06371 0.58326
 C956 C 0.74926 -0.05344 0.56935
 H957 H 0.76514 -0.12066 0.69330
 H958 H 0.76269 -0.09667 0.66756
 H959 H 0.74423 -0.14105 0.62843
 H960 H 0.74638 -0.16476 0.65433
 H961 H 0.72520 -0.11370 0.61858
 H962 H 0.72399 -0.09103 0.59170
 H963 H 0.77694 -0.06503 0.61093
 H964 H 0.77852 -0.08790 0.63771
 C965 C 0.23986 -0.17059 0.29679
 C966 C 0.24078 -0.15866 0.30927
 C967 C 0.24169 -0.14482 0.32454
 C968 C 0.25001 -0.12677 0.32146
 C969 C 0.25109 -0.11351 0.33647
 C970 C 0.24388 -0.11818 0.35477
 C971 C 0.23541 -0.13631 0.35765
 C972 C 0.23435 -0.14952 0.34264
 C973 C 0.24532 -0.10433 0.37087
 C974 C 0.25020 -0.11079 0.38937
 C975 C 0.25128 -0.09788 0.40463
 C976 C 0.24752 -0.07835 0.40166
 C977 C 0.24279 -0.07172 0.38330
 C978 C 0.24171 -0.08463 0.36798
 C979 C 0.24844 -0.06528 0.41758
 C980 C 0.24934 -0.05482 0.43130
 H981 H 0.25577 -0.12300 0.30750
 H982 H 0.25787 -0.09975 0.33386
 H983 H 0.22947 -0.14022 0.37147
 H984 H 0.22781 -0.16342 0.34516
 H985 H 0.25335 -0.12580 0.39200
 H986 H 0.25503 -0.10315 0.41877
 H987 H 0.23984 -0.05663 0.38085
 H988 H 0.23774 -0.07926 0.35395
 C989 C 0.75737 0.17050 0.29603
 C990 C 0.75648 0.15782 0.30777
 C991 C 0.75556 0.14296 0.32209
 C992 C 0.73919 0.14128 0.33376
 C993 C 0.73861 0.12740 0.34825
 C994 C 0.75444 0.11502 0.35127
 C995 C 0.77074 0.11667 0.33929
 C996 C 0.77128 0.13056 0.32480
 C997 C 0.75413 0.10085 0.36720
 C998 C 0.77065 0.09786 0.37857
 C999 C 0.77010 0.08519 0.39412
 C1000 C 0.75308 0.07530 0.39849
 C1001 C 0.73666 0.07793 0.38709
 C1002 C 0.73716 0.09061 0.37154
 C1003 C 0.75221 0.06310 0.41514
 C1004 C 0.75130 0.05326 0.42934
 H1005 H 0.72699 0.15087 0.33184
 H1006 H 0.72597 0.12668 0.35739
 H1007 H 0.78304 0.10721 0.34111
 H1008 H 0.78402 0.13173 0.31583
 H1009 H 0.78384 0.10572 0.37577
 H1010 H 0.78286 0.08334 0.40292
 H1011 H 0.72340 0.07035 0.39034
 H1012 H 0.72429 0.09242 0.36291
 C1013 C 0.24006 0.16896 0.70422
 C1014 C 0.24068 0.15635 0.69241
 C1015 C 0.24136 0.14158 0.67801
 C1016 C 0.22601 0.13954 0.66514
 C1017 C 0.22693 0.12573 0.65064
 C1018 C 0.24324 0.11375 0.64881
 C1019 C 0.25849 0.11573 0.66199
 C1020 C 0.25754 0.12956 0.67648
 C1021 C 0.24452 0.09965 0.63289
 C1022 C 0.26196 0.09709 0.62279
 C1023 C 0.26294 0.08448 0.60724
 C1024 C 0.24654 0.07424 0.60158
 C1025 C 0.22920 0.07647 0.61169
 C1026 C 0.22818 0.08908 0.62725
 C1027 C 0.24739 0.06204 0.58498
 C1028 C 0.24827 0.05218 0.57081
 H1029 H 0.21344 0.14880 0.66615
 H1030 H 0.21507 0.12474 0.64059
 H1031 H 0.27112 0.10655 0.66111
 H1032 H 0.26948 0.13099 0.68641
 H1033 H 0.27471 0.10521 0.62659
 H1034 H 0.27641 0.08294 0.59944
 H1035 H 0.21642 0.06861 0.60743
 H1036 H 0.21462 0.09057 0.63488
   
