data_POSCAR
  _audit_creation_date              2014-09-24
  _audit_creation_method            'ToBaCCo'
  _symmetry_space_group_name_H-M    'P1'
  _symmetry_Int_Tables_number       1
  _symmetry_cell_setting            triclinic
  loop_
  _symmetry_equiv_pos_as_xyz
 x,y,z
_cell_length_a 41.3907
_cell_length_b 39.8068
_cell_length_c 39.4551
_cell_angle_alpha 88.361800
_cell_angle_beta 90.309200
_cell_angle_gamma 89.806500
loop_
  _atom_site_label
  _atom_site_type_symbol
  _atom_site_fract_x
  _atom_site_fract_y
  _atom_site_fract_z
C1 C 0.20648 0.53318 1.02120
 H2 H 0.20600 0.54687 0.99714
 C3 C 0.18256 0.53899 1.04494
 H4 H 0.16350 0.55631 1.03744
 C5 C 0.23125 0.49241 1.05762
 H6 H 0.25058 0.47456 1.06250
 C7 C 0.20768 0.49746 1.08238
 H8 H 0.21002 0.48356 1.10619
 N9 N 0.23014 0.51023 1.02774
 C10 C 0.30773 0.54882 0.96350
 H11 H 0.30929 0.53011 0.94421
 C12 C 0.32759 0.57711 0.96165
 H13 H 0.34468 0.57995 0.94108
 C14 C 0.28353 0.56810 1.01369
 H15 H 0.26664 0.56439 1.03422
 C16 C 0.30241 0.59713 1.01236
 H17 H 0.30001 0.61548 1.03194
 Zn18 Zn 0.25983 0.50549 0.99188
 N19 N 0.28651 0.54455 0.98952
 C20 C 0.23288 0.53108 0.93063
 N21 N 0.23443 0.50348 0.95175
 C22 C 0.21410 0.47706 0.94767
 C23 C 0.19005 0.47852 0.92265
 C24 C 0.20909 0.53368 0.90555
 C25 C 0.31784 0.46740 0.99339
 C26 C 0.33684 0.43844 0.99544
 C27 C 0.28918 0.40628 1.00920
 C28 C 0.27091 0.43587 1.00611
 N29 N 0.28535 0.46569 0.99801
 H30 H 0.24844 0.55229 0.93472
 H31 H 0.21510 0.45574 0.96514
 H32 H 0.17285 0.45817 0.92104
 H33 H 0.20713 0.55656 0.89015
 H34 H 0.32926 0.49111 0.98756
 H35 H 0.36236 0.44067 0.99007
 H36 H 0.27714 0.38305 1.01625
 H37 H 0.24519 0.43502 1.01058
 C38 C 0.32496 0.60164 0.98629
 C39 C 0.18265 0.52128 1.07649
 C40 C 0.32268 0.40718 1.00345
 C41 C 0.18665 0.50767 0.90216
 C42 C 0.80130 0.46695 -0.04200
 H43 H 0.80439 0.44960 -0.02060
 C44 C 0.82069 0.46398 -0.07065
 H45 H 0.83868 0.44420 -0.07131
 C46 C 0.77484 0.51456 -0.06680
 H47 H 0.75766 0.53484 -0.06496
 C48 C 0.79325 0.51210 -0.09618
 H49 H 0.78998 0.53047 -0.11670
 N50 N 0.77897 0.49201 -0.04053
 C51 C 0.73395 0.55784 0.02567
 H52 H 0.75258 0.55376 0.04462
 C53 C 0.71185 0.58403 0.02931
 H54 H 0.71381 0.60017 0.05087
 C55 C 0.70653 0.54009 -0.02358
 H56 H 0.70368 0.52182 -0.04314
 C57 C 0.68431 0.56639 -0.02129
 H58 H 0.66450 0.56844 -0.03929
 Zn59 Zn 0.75510 0.49581 0.00006
 N60 N 0.73059 0.53614 -0.00013
 C61 C 0.80909 0.51673 0.03785
 N62 N 0.78420 0.49452 0.03748
 C63 C 0.77994 0.47165 0.06336
 C64 C 0.80073 0.47105 0.09137
 C65 C 0.83055 0.51690 0.06533
 C66 C 0.72554 0.43197 -0.01289
 C67 C 0.70221 0.40702 -0.00723
 C68 C 0.67771 0.44198 0.03465
 C69 C 0.70161 0.46583 0.02860
 N70 N 0.72496 0.46049 0.00530
 H71 H 0.81203 0.53455 0.01688
 H72 H 0.76035 0.45385 0.06243
 H73 H 0.79699 0.45256 0.11162
 H74 H 0.84988 0.53516 0.06543
 H75 H 0.74419 0.42836 -0.03151
 H76 H 0.70346 0.38412 -0.02131
 H77 H 0.65903 0.44741 0.05280
 H78 H 0.70153 0.48887 0.04249
 C79 C 0.68638 0.58807 0.00597
 C80 C 0.81670 0.48677 -0.09816
 C81 C 0.67794 0.41181 0.01702
 C82 C 0.82638 0.49396 0.09270
 C83 C 0.00870 0.30319 0.46051
 H84 H -0.00519 0.31060 0.48221
 C85 C 0.01031 0.32468 0.43202
 H86 H -0.00301 0.34806 0.43266
 C87 C 0.04014 0.26236 0.43335
 H88 H 0.05179 0.23809 0.43385
 C89 C 0.04187 0.28280 0.40395
 H90 H 0.05580 0.27382 0.38292
 N91 N 0.02353 0.27270 0.46085
 C92 C -0.03215 0.19710 0.51780
 H93 H -0.01970 0.19537 0.54197
 C94 C -0.06040 0.17863 0.51285
 H95 H -0.06971 0.16380 0.53396
 C96 C -0.03513 0.21957 0.46174
 H97 H -0.02518 0.23542 0.44175
 C98 C -0.06251 0.20046 0.45520
 H99 H -0.07241 0.20160 0.42980
 Zn100 Zn 0.01659 0.24443 0.50003
 N101 N -0.02076 0.21797 0.49277
 C102 C -0.01423 0.26936 0.55952
 N103 N 0.01130 0.27246 0.53803
 C104 C 0.03488 0.29553 0.54329
 C105 C 0.03383 0.31589 0.57149
 C106 C -0.01583 0.28871 0.58847
 C107 C 0.05817 0.19005 0.48640
 C108 C 0.08219 0.16609 0.49356
 C109 C 0.09205 0.19239 0.54702
 C110 C 0.06826 0.21615 0.53861
 N111 N 0.05179 0.21461 0.50873
 H112 H -0.03330 0.25177 0.55460
 H113 H 0.05480 0.29771 0.52573
 H114 H 0.05297 0.33385 0.57555
 H115 H -0.03601 0.28568 0.60564
 H116 H 0.04379 0.18826 0.46357
 H117 H 0.08649 0.14622 0.47593
 H118 H 0.10446 0.19355 0.57120
 H119 H 0.06234 0.23510 0.55660
 C120 C -0.07630 0.18020 0.48116
 C121 C 0.02679 0.31470 0.40270
 C122 C 0.09908 0.16688 0.52444
 C123 C 0.00851 0.31216 0.59472
 C124 C 0.95446 0.70389 0.54477
 H125 H 0.93429 0.70006 0.52778
 C126 C 0.95991 0.68133 0.57203
 H127 H 0.94375 0.66026 0.57597
 C128 C 1.00199 0.73389 0.55822
 H129 H 1.01915 0.75343 0.55214
 C130 C 1.00840 0.71191 0.58554
 H131 H 1.03011 0.71523 0.60051
 N132 N 0.97585 0.72905 0.53790
 C133 C 0.93153 0.80151 0.46605
 H134 H 0.94985 0.80293 0.44662
 C135 C 0.90523 0.82360 0.46458
 H136 H 0.90306 0.84148 0.44348
 C137 C 0.91278 0.77736 0.51786
 H138 H 0.91624 0.76003 0.53911
 C139 C 0.88605 0.79882 0.51729
 H140 H 0.86919 0.79763 0.53817
 Zn141 Zn 0.97298 0.75273 0.49548
 N142 N 0.93485 0.77901 0.49245
 C143 C 0.96328 0.72485 0.42938
 N144 N 0.97546 0.72021 0.46132
 C145 C 0.99392 0.69289 0.46975
 C146 C 1.00150 0.66939 0.44566
 C147 C 0.97049 0.70181 0.40422
 C148 C 1.01192 0.80792 0.51186
 C149 C 1.04039 0.82666 0.51231
 C150 C 1.06144 0.79220 0.46804
 C151 C 1.03272 0.77401 0.46859
 N152 N 1.00906 0.78151 0.49096
 H153 H 0.94900 0.74693 0.42303
 H154 H 1.00398 0.68995 0.49498
 H155 H 1.01655 0.64807 0.45303
 H156 H 0.96170 0.70638 0.37860
 H157 H 0.99268 0.81334 0.52935
 H158 H 1.04287 0.84644 0.53040
 H159 H 1.08019 0.78545 0.45042
 H160 H 1.02986 0.75319 0.45189
 C161 C 0.88217 0.82255 0.49057
 C162 C 0.98784 0.68458 0.59196
 C163 C 1.06595 0.81831 0.49076
 C164 C 0.99057 0.67412 0.41216
 C165 C 0.43154 -0.04535 0.30435
 H166 H 0.45007 -0.06456 0.30609
 C167 C 0.40452 -0.04743 0.32540
 H168 H 0.40211 -0.06859 0.34306
 C169 C 0.41275 0.00636 0.28018
 H170 H 0.41649 0.02783 0.26335
 C171 C 0.38520 0.00504 0.30037
 H172 H 0.36792 0.02552 0.29875
 N173 N 0.43527 -0.01857 0.28256
 C174 C 0.50410 -0.04023 0.20381
 H175 H 0.51747 -0.01711 0.20609
 C176 C 0.51267 -0.06265 0.17911
 H177 H 0.53165 -0.05498 0.16189
 C178 C 0.46195 -0.07587 0.22292
 H179 H 0.44242 -0.08090 0.24042
 C180 C 0.46983 -0.09939 0.19841
 H181 H 0.45627 -0.12253 0.19815
 Zn182 Zn 0.47444 -0.01437 0.25856
 N183 N 0.47955 -0.04728 0.22545
 C184 C 0.53237 -0.04235 0.28475
 N185 N 0.50934 -0.01855 0.28970
 C186 C 0.51217 0.00367 0.31510
 C187 C 0.54047 0.00457 0.33455
 C188 C 0.56087 -0.04248 0.30367
 C189 C 0.45636 0.03363 0.20830
 C190 C 0.46157 0.06072 0.18569
 C191 C 0.50852 0.07557 0.21859
 C192 C 0.50236 0.04842 0.24060
 N193 N 0.47702 0.02763 0.23476
 H194 H 0.52928 -0.06060 0.26530
 H195 H 0.49329 0.02204 0.31880
 H196 H 0.54320 0.02385 0.35315
 H197 H 0.57932 -0.06100 0.29862
 H198 H 0.43694 0.01621 0.20364
 H199 H 0.44595 0.06416 0.16375
 H200 H 0.52958 0.09102 0.22282
 H201 H 0.51916 0.04289 0.26098
 C202 C 0.49621 -0.09345 0.17634
 C203 C 0.38110 -0.02184 0.32369
 C204 C 0.48859 0.08132 0.19018
 C205 C 0.56573 -0.01799 0.32804
 C206 C 0.55735 -0.00108 0.68997
 H207 H 0.54329 -0.02381 0.68816
 C208 C 0.58247 0.00513 0.66713
 H209 H 0.58780 -0.01302 0.64799
 C210 C 0.56614 0.05138 0.71535
 H211 H 0.55950 0.06964 0.73380
 C212 C 0.59100 0.05884 0.69263
 H213 H 0.60336 0.08271 0.69389
 N214 N 0.54968 0.02191 0.71356
 C215 C 0.50058 -0.02817 0.79875
 H216 H 0.48455 -0.00788 0.80522
 C217 C 0.50145 -0.05739 0.81914
 H218 H 0.48553 -0.05949 0.84078
 C219 C 0.54069 -0.04996 0.76284
 H220 H 0.55624 -0.04705 0.74117
 C221 C 0.54219 -0.07978 0.78247
 H222 H 0.55898 -0.09933 0.77561
 Zn223 Zn 0.51395 0.01462 0.74307
 N224 N 0.51957 -0.02512 0.77080
 C225 C 0.44770 0.00216 0.73417
 N226 N 0.47526 0.01028 0.71726
 C227 C 0.47535 0.01395 0.68283
 C228 C 0.44733 0.00778 0.66404
 C229 C 0.41928 -0.00441 0.71643
 C230 C 0.53188 0.05409 0.79756
 C231 C 0.53097 0.08146 0.81884
 C232 C 0.48582 0.10393 0.78628
 C233 C 0.48744 0.07594 0.76571
 N234 N 0.51027 0.05179 0.77167
 H235 H 0.44781 0.00016 0.76149
 H236 H 0.49725 0.02111 0.66977
 H237 H 0.44812 0.00968 0.63663
 H238 H 0.39777 -0.01145 0.73039
 H239 H 0.54998 0.03469 0.80147
 H240 H 0.54857 0.08298 0.83915
 H241 H 0.46738 0.12284 0.78139
 H242 H 0.47070 0.07369 0.74477
 C243 C 0.52217 -0.08388 0.81088
 C244 C 0.59927 0.03563 0.66808
 C245 C 0.50774 0.10687 0.81333
 C246 C 0.41904 -0.00232 0.68087
 C247 C 0.24201 -0.02456 0.52091
 C248 C 0.74532 0.02139 0.48082
 C249 C 0.50244 0.25008 1.00815
 C250 C 0.50996 0.74950 -0.00532
 C251 C 1.01253 0.50298 0.24330
 C252 C 0.00088 0.49473 0.75157
 C253 C 0.16563 0.10190 0.52125
 C254 C 0.16069 0.08480 0.55156
 C255 C 0.13725 0.09418 0.57461
 C256 C 0.11787 0.12212 0.56588
 C257 C 0.12184 0.13959 0.53433
 C258 C 0.14629 0.12945 0.51183
 O259 O 0.18822 0.08797 0.50240
 C260 C 0.19739 0.06125 0.52101
 C261 C 0.18117 0.05811 0.55119
 C262 C 0.18515 0.03068 0.57329
 C263 C 0.20585 0.00489 0.56333
 C264 C 0.22230 0.00658 0.53158
 C265 C 0.21914 0.03655 0.51121
 H266 H 0.13359 0.08010 0.59814
 H267 H 0.09898 0.12942 0.58310
 H268 H 0.14964 0.14218 0.48749
 H269 H 0.17182 0.02855 0.59677
 H270 H 0.20801 -0.01727 0.57974
 H271 H 0.23212 0.04063 0.48784
 C272 C 0.62270 0.65574 -0.00540
 C273 C 0.60615 0.65126 0.02450
 C274 C 0.61541 0.62801 0.04968
 C275 C 0.64270 0.60819 0.04362
 C276 C 0.65970 0.61158 0.01261
 C277 C 0.64961 0.63579 -0.01225
 O278 O 0.60985 0.67947 -0.02572
 C279 C 0.58445 0.68990 -0.00835
 C280 C 0.58106 0.67317 0.02235
 C281 C 0.55584 0.67926 0.04427
 C282 C 0.53303 0.70355 0.03413
 C283 C 0.53555 0.72175 0.00250
 C284 C 0.56246 0.71495 -0.01865
 H285 H 0.60197 0.62505 0.07302
 H286 H 0.65006 0.58946 0.06260
 H287 H 0.66216 0.63871 -0.03616
 H288 H 0.55364 0.66563 0.06827
 H289 H 0.51315 0.70845 0.05105
 H290 H 0.56689 0.72875 -0.04208
 C291 C 0.83445 -0.09634 0.48387
 C292 C 0.80446 -0.10721 0.49407
 C293 C 0.79800 -0.14066 0.50256
 C294 C 0.82363 -0.16375 0.50087
 C295 C 0.85494 -0.15311 0.49070
 C296 C 0.86021 -0.11885 0.48184
 O297 O 0.83553 -0.06355 0.47699
 C298 C 0.80558 -0.05346 0.48311
 C299 C 0.78562 -0.07916 0.49354
 C300 C 0.75314 -0.07427 0.50033
 C301 C 0.74085 -0.04150 0.49657
 C302 C 0.76109 -0.01369 0.48735
 C303 C 0.79391 -0.02068 0.47926
 H304 H 0.77415 -0.14866 0.51041
 H305 H 0.81909 -0.18990 0.50740
 H306 H 0.88384 -0.10979 0.47442
 H307 H 0.73763 -0.09503 0.50770
 H308 H 0.71528 -0.03767 0.50069
 H309 H 0.81004 -0.00183 0.46893
 C310 C 0.39471 0.34882 1.01419
 C311 C 0.38175 0.31868 1.00492
 C312 C 0.34944 0.31543 0.99570
 C313 C 0.32992 0.34448 0.99576
 C314 C 0.34282 0.37598 1.00529
 C315 C 0.37572 0.37766 1.01520
 O316 O 0.42617 0.34727 1.02029
 C317 C 0.43332 0.31542 1.01486
 C318 C 0.40710 0.29667 1.00565
 C319 C 0.40974 0.26291 0.99799
 C320 C 0.44061 0.24803 0.99995
 C321 C 0.46848 0.26683 1.00931
 C322 C 0.46411 0.30146 1.01636
 H323 H 0.33978 0.29161 0.98792
 H324 H 0.30509 0.34248 0.98740
 H325 H 0.38662 0.40082 1.02316
 H326 H 0.38887 0.24858 0.99043
 H327 H 0.44302 0.22183 0.99374
 H328 H 0.48383 0.31811 1.02184
 C329 C 0.85655 0.11486 0.48763
 C330 C 0.83693 0.12552 0.46129
 C331 C 0.84325 0.15409 0.44154
 C332 C 0.87121 0.17229 0.44894
 C333 C 0.89309 0.16118 0.47499
 C334 C 0.88516 0.13189 0.49473
 O335 O 0.84539 0.08767 0.50400
 C336 C 0.81831 0.08092 0.48728
 C337 C 0.81237 0.10308 0.46069
 C338 C 0.78592 0.10035 0.43929
 C339 C 0.76484 0.07341 0.44521
 C340 C 0.77022 0.04944 0.47238
 C341 C 0.79693 0.05464 0.49452
 H342 H 0.82696 0.16240 0.42143
 H343 H 0.87532 0.19524 0.43434
 H344 H 0.90084 0.12201 0.51463
 H345 H 0.78159 0.11841 0.41872
 H346 H 0.74374 0.07229 0.42906
 H347 H 0.80115 0.03825 0.51648
 C348 C 0.40030 0.65436 -0.01464
 C349 C 0.38749 0.68626 -0.01351
 C350 C 0.35433 0.69222 -0.01272
 C351 C 0.33372 0.66417 -0.01287
 C352 C 0.34656 0.63114 -0.01440
 C353 C 0.38034 0.62631 -0.01553
 O354 O 0.43229 0.65383 -0.01392
 C355 C 0.43991 0.68606 -0.01229
 C356 C 0.41355 0.70706 -0.01230
 C357 C 0.41653 0.74183 -0.01148
 C358 C 0.44789 0.75526 -0.00981
 C359 C 0.47568 0.73401 -0.00720
 C360 C 0.47105 0.69875 -0.01017
 H361 H 0.34470 0.71747 -0.01149
 H362 H 0.30784 0.66807 -0.01193
 H363 H 0.39077 0.60134 -0.01613
 H364 H 0.39549 0.75806 -0.01237
 H365 H 0.45060 0.78230 -0.00987
 H366 H 0.49090 0.68113 -0.01120
 C367 C 0.12964 -0.11503 0.50283
 C368 C 0.15740 -0.13382 0.50011
 C369 C 0.15702 -0.16797 0.49380
 C370 C 0.12678 -0.18342 0.49043
 C371 C 0.09768 -0.16460 0.49320
 C372 C 0.09935 -0.12979 0.49940
 O373 O 0.13528 -0.08300 0.50897
 C374 C 0.16729 -0.08158 0.51028
 C375 C 0.18199 -0.11192 0.50496
 C376 C 0.21533 -0.11584 0.50460
 C377 C 0.23424 -0.08733 0.51021
 C378 C 0.21988 -0.05556 0.51697
 C379 C 0.18553 -0.05298 0.51600
 H380 H 0.17917 -0.18230 0.49192
 H381 H 0.12610 -0.21019 0.48638
 H382 H 0.07775 -0.11458 0.50140
 H383 H 0.22641 -0.13989 0.49982
 H384 H 0.26028 -0.08987 0.50940
 H385 H 0.17289 -0.02943 0.51862
 C386 C 0.61456 0.34415 1.00582
 C387 C 0.60248 0.34182 1.03816
 C388 C 0.61496 0.35983 1.06480
 C389 C 0.64059 0.38173 1.05773
 C390 C 0.65284 0.38591 1.02426
 C391 C 0.63984 0.36623 0.99804
 O392 O 0.59897 0.32476 0.98429
 C393 C 0.57642 0.31018 1.00350
 C394 C 0.57749 0.32005 1.03653
 C395 C 0.55553 0.30915 1.06075
 C396 C 0.53135 0.28715 1.05054
 C397 C 0.52931 0.27584 1.01649
 C398 C 0.55301 0.28745 0.99286
 H399 H 0.60520 0.35722 1.09013
 H400 H 0.65071 0.39559 1.07844
 H401 H 0.64826 0.36885 0.97218
 H402 H 0.55670 0.31761 1.08656
 H403 H 0.51384 0.27885 1.06925
 H404 H 0.55384 0.27932 0.96706
 C405 C 0.48608 0.15007 1.12206
 C406 C 0.51748 0.14885 1.11093
 C407 C 0.54050 0.12710 1.12503
 C408 C 0.53071 0.10550 1.15162
 C409 C 0.49835 0.10585 1.16337
 C410 C 0.47569 0.12851 1.14831
 O411 O 0.46822 0.17277 1.10512
 C412 C 0.48880 0.18592 1.08270
 C413 C 0.51914 0.17198 1.08518
 C414 C 0.54431 0.18151 1.06407
 C415 C 0.53796 0.20641 1.03921
 C416 C 0.50674 0.22162 1.03554
 C417 C 0.48197 0.21120 1.05844
 H418 H 0.56504 0.12662 1.11573
 H419 H 0.54815 0.08792 1.16255
 H420 H 0.45086 0.12926 1.15676
 H421 H 0.56800 0.17008 1.06654
 H422 H 0.55743 0.21395 1.02244
 H423 H 0.45816 0.22230 1.05814
 C424 C -0.01397 0.61554 0.65985
 C425 C 0.01699 0.60330 0.65723
 C426 C 0.03962 0.61712 0.63510
 C427 C 0.02985 0.64454 0.61449
 C428 C -0.00214 0.65737 0.61612
 C429 C -0.02436 0.64266 0.63927
 O430 O -0.03164 0.59835 0.68234
 C431 C -0.01142 0.57459 0.69384
 C432 C 0.01852 0.57652 0.67913
 C433 C 0.04313 0.55380 0.68659
 C434 C 0.03650 0.52767 0.70992
 C435 C 0.00552 0.52422 0.72548
 C436 C -0.01839 0.54918 0.71781
 H437 H 0.06379 0.60687 0.63344
 H438 H 0.04692 0.65514 0.59648
 H439 H -0.04894 0.65184 0.64093
 H440 H 0.06653 0.55587 0.67462
 H441 H 0.05549 0.50960 0.71574
 H442 H -0.04165 0.54954 0.72998
 C443 C 0.52009 0.85572 -0.11353
 C444 C 0.52090 0.82521 -0.12904
 C445 C 0.52284 0.82265 -0.16409
 C446 C 0.52383 0.85271 -0.18377
 C447 C 0.52265 0.88447 -0.16822
 C448 C 0.52094 0.88574 -0.13249
 O449 O 0.51790 0.85295 -0.08010
 C450 C 0.51735 0.82001 -0.07428
 C451 C 0.51898 0.80176 -0.10321
 C452 C 0.51744 0.76683 -0.10248
 C453 C 0.51464 0.75021 -0.07063
 C454 C 0.51451 0.76836 -0.03994
 C455 C 0.51469 0.80415 -0.04263
 H456 H 0.52333 0.79844 -0.17588
 H457 H 0.52478 0.85124 -0.21110
 H458 H 0.52029 0.90945 -0.11973
 H459 H 0.51792 0.75286 -0.12560
 H460 H 0.51268 0.72308 -0.06974
 H461 H 0.51198 0.81991 -0.02099
 C462 C 1.02403 0.39131 0.34585
 C463 C 1.02617 0.37741 0.31449
 C464 C 1.02953 0.34299 0.31053
 C465 C 1.03052 0.32219 0.34001
 C466 C 1.02753 0.33583 0.37299
 C467 C 1.02453 0.37129 0.37535
 O468 O 1.02104 0.42445 0.34447
 C469 C 1.02116 0.43170 0.31149
 C470 C 1.02399 0.40396 0.29186
 C471 C 1.02292 0.40624 0.25660
 C472 C 1.01928 0.43842 0.24118
 C473 C 1.01813 0.46795 0.26083
 C474 C 1.01798 0.46367 0.29683
 H475 H 1.03108 0.33244 0.28561
 H476 H 1.03200 0.29537 0.33666
 H477 H 1.02349 0.38353 0.39943
 H478 H 1.02421 0.38401 0.24149
 H479 H 1.01743 0.44046 0.21381
 H480 H 1.01445 0.48427 0.31366
 C481 C 0.49512 0.83780 0.11333
 C482 C 0.52609 0.84030 0.10131
 C483 C 0.54858 0.86232 0.11403
 C484 C 0.53864 0.88336 0.13977
 C485 C 0.50622 0.88286 0.15215
 C486 C 0.48449 0.85868 0.13897
 O487 O 0.47747 0.81557 0.09690
 C488 C 0.49781 0.80413 0.07388
 C489 C 0.52778 0.81862 0.07559
 C490 C 0.55241 0.81167 0.05322
 C491 C 0.54575 0.78920 0.02756
 C492 C 0.51473 0.77393 0.02426
 C493 C 0.49081 0.78088 0.04900
 H494 H 0.57300 0.86338 0.10439
 H495 H 0.55688 0.89945 0.15029
 H496 H 0.45948 0.85725 0.14662
 H497 H 0.57579 0.82361 0.05504
 H498 H 0.56469 0.78397 0.00961
 H499 H 0.46747 0.76893 0.04940
 C500 C 0.00876 0.38707 0.65085
 C501 C 0.00644 0.37177 0.68247
 C502 C 0.00411 0.33705 0.68706
 C503 C 0.00440 0.31748 0.65791
 C504 C 0.00745 0.33285 0.62518
 C505 C 0.00967 0.36815 0.62173
 O506 O 0.00949 0.42028 0.65169
 C507 C 0.00785 0.42615 0.68453
 C508 C 0.00616 0.39747 0.70458
 C509 C 0.00380 0.39834 0.73969
 C510 C 0.00321 0.43004 0.75459
 C511 C 0.00508 0.46038 0.73452
 C512 C 0.00674 0.45769 0.69862
 H513 H 0.00196 0.32548 0.71210
 H514 H 0.00271 0.29040 0.66077
 H515 H 0.01159 0.38053 0.59702
 H516 H 0.00214 0.37547 0.75507
 H517 H 0.00082 0.43110 0.78185
 H518 H 0.00604 0.47921 0.68137
 C519 C 0.50882 0.15806 0.89236
 C520 C 0.50450 0.19010 0.87907
 C521 C 0.50061 0.19665 0.84442
 C522 C 0.50144 0.16911 0.82280
 C523 C 0.50625 0.13589 0.83608
 C524 C 0.50987 0.13052 0.87146
 O525 O 0.51130 0.15685 0.92582
 C526 C 0.50867 0.18880 0.93394
 C527 C 0.50453 0.21030 0.90646
 C528 C 0.50047 0.24475 0.90986
 C529 C 0.50075 0.25733 0.94287
 C530 C 0.50550 0.23572 0.97202
 C531 C 0.50887 0.20060 0.96670
 H532 H 0.49707 0.22200 0.83440
 H533 H 0.49883 0.17370 0.79574
 H534 H 0.51301 0.10551 0.88253
 H535 H 0.49673 0.26131 0.88794
 H536 H 0.49683 0.28399 0.94590
 H537 H 0.51043 0.18203 0.98708
 C538 C 0.99238 0.61477 0.33864
 C539 C 1.02397 0.60409 0.34076
 C540 C 1.04592 0.61638 0.36398
 C541 C 1.03475 0.64026 0.38650
 C542 C 1.00199 0.65109 0.38580
 C543 C 0.98064 0.63860 0.36095
 O544 O 0.97545 0.59893 0.31525
 C545 C 0.99683 0.57766 0.30265
 C546 C 1.02677 0.57988 0.31754
 C547 C 1.05240 0.55919 0.30951
 C548 C 1.04690 0.53480 0.28539
 C549 C 1.01604 0.53108 0.26954
 C550 C 0.99091 0.55397 0.27787
 H551 H 1.07068 0.60756 0.36505
 H552 H 1.05160 0.65006 0.40480
 H553 H 0.95548 0.64611 0.35995
 H554 H 1.07571 0.56133 0.32182
 H555 H 1.06664 0.51813 0.27930
 H556 H 0.96744 0.55373 0.26589
 C557 C 1.12378 0.50837 0.14761
 C558 C 1.10669 0.53790 0.14476
 C559 C 1.11438 0.56340 0.12165
 C560 C 1.14037 0.55806 0.09990
 C561 C 1.15810 0.52714 0.10082
 C562 C 1.14973 0.50229 0.12605
 O563 O 1.11196 0.48725 0.17112
 C564 C 1.08674 0.50388 0.18309
 C565 C 1.08253 0.53492 0.16764
 C566 C 1.05724 0.55622 0.17525
 C567 C 1.03508 0.54495 0.19960
 C568 C 1.03810 0.51263 0.21609
 C569 C 1.06531 0.49232 0.20809
 H570 H 1.10080 0.58669 0.12034
 H571 H 1.14677 0.57874 0.08295
 H572 H 1.16151 0.47803 0.12789
 H573 H 1.05442 0.58055 0.16260
 H574 H 1.01507 0.56132 0.20555
 H575 H 1.07027 0.46847 0.22072
 C576 C 0.66875 0.02999 0.60679
 C577 C 0.66400 0.05916 0.58786
 C578 C 0.63990 0.08229 0.59496
 C579 C 0.61957 0.07486 0.62247
 C580 C 0.62324 0.04443 0.64171
 C581 C 0.64844 0.02184 0.63394
 O582 O 0.69187 0.01061 0.59459
 C583 C 0.70153 0.02766 0.56706
 C584 C 0.68510 0.05739 0.56176
 C585 C 0.68901 0.07753 0.53286
 C586 C 0.70972 0.06592 0.50778
 C587 C 0.72642 0.03454 0.51166
 C588 C 0.72354 0.01642 0.54317
 H589 H 0.63637 0.10485 0.57939
 H590 H 0.60012 0.09212 0.62795
 H591 H 0.65151 -0.00174 0.64799
 H592 H 0.67535 0.10056 0.52895
 H593 H 0.71136 0.08061 0.48438
 H594 H 0.73664 -0.00653 0.54888
 C595 C -0.10822 0.48551 0.84847
 C596 C -0.12119 0.48648 0.81626
 C597 C -0.15438 0.48690 0.81030
 C598 C -0.17486 0.48664 0.83867
 C599 C -0.16185 0.48546 0.87206
 C600 C -0.12803 0.48460 0.87688
 O601 O -0.07625 0.48651 0.84887
 C602 C -0.06880 0.48819 0.81625
 C603 C -0.09525 0.48797 0.79513
 C604 C -0.09246 0.48890 0.76001
 C605 C -0.06118 0.49077 0.74627
 C606 C -0.03331 0.49332 0.76749
 C607 C -0.03776 0.49044 0.80324
 H608 H -0.16414 0.48797 0.78479
 H609 H -0.20076 0.48739 0.83473
 H610 H -0.11744 0.48434 0.90205
 H611 H -0.11355 0.48792 0.74374
 H612 H -0.05858 0.49074 0.71898
 H613 H -0.01783 0.48939 0.82104
 C614 C 0.33232 -0.02646 0.40420
 C615 C 0.30205 -0.01828 0.39196
 C616 C 0.29578 -0.01201 0.35768
 C617 C 0.32190 -0.01379 0.33520
 C618 C 0.35340 -0.02204 0.34727
 C619 C 0.35850 -0.02876 0.38231
 O620 O 0.33326 -0.03096 0.43763
 C621 C 0.30293 -0.02543 0.44672
 C622 C 0.28285 -0.01773 0.41978
 C623 C 0.25004 -0.01189 0.42359
 C624 C 0.23750 -0.01379 0.45654
 C625 C 0.25779 -0.02019 0.48546
 C626 C 0.29106 -0.02721 0.47970
 H627 H 0.27176 -0.00557 0.34862
 H628 H 0.31765 -0.00871 0.30844
 H629 H 0.38233 -0.03459 0.39235
 H630 H 0.23450 -0.00659 0.40192
 H631 H 0.21174 -0.01032 0.45966
 H632 H 0.30748 -0.03504 0.49977
 C633 C 0.11745 0.49415 0.84094
 C634 C 0.10025 0.52330 0.84534
 C635 C 0.11035 0.54838 0.86668
 C636 C 0.13931 0.54311 0.88455
 C637 C 0.15739 0.51306 0.88102
 C638 C 0.14623 0.48817 0.85886
 O639 O 0.10362 0.47394 0.81891
 C640 C 0.07705 0.49067 0.80945
 C641 C 0.07391 0.52087 0.82511
 C642 C 0.04815 0.54256 0.81918
 C643 C 0.02459 0.53282 0.79599
 C644 C 0.02678 0.50171 0.77895
 C645 C 0.05401 0.48054 0.78581
 H646 H 0.09635 0.57111 0.86961
 H647 H 0.14728 0.56210 0.90182
 H648 H 0.15955 0.46501 0.85573
 H649 H 0.04632 0.56627 0.83180
 H650 H 0.00449 0.54975 0.79087
 H651 H 0.05797 0.45742 0.77278
 C652 C 0.63074 -0.00217 0.39338
 C653 C 0.65805 -0.00593 0.37413
 C654 C 0.65692 -0.01419 0.34019
 C655 C 0.62637 -0.01851 0.32542
 C656 C 0.59772 -0.01463 0.34468
 C657 C 0.60011 -0.00639 0.37926
 O658 O 0.63714 0.00574 0.42513
 C659 C 0.66917 0.00716 0.42586
 C660 C 0.68313 0.00020 0.39536
 C661 C 0.71634 -0.00015 0.39069
 C662 C 0.73595 0.00718 0.41858
 C663 C 0.72236 0.01545 0.45047
 C664 C 0.68812 0.01447 0.45391
 H665 H 0.67874 -0.01688 0.32551
 H666 H 0.62507 -0.02414 0.29877
 H667 H 0.57883 -0.00343 0.39473
 H668 H 0.72681 -0.00613 0.36651
 H669 H 0.76192 0.00651 0.41547
 H670 H 0.67614 0.01840 0.47773
 C671 C 0.90249 0.49796 0.14598
 C672 C 0.89018 0.49374 0.17814
 C673 C 0.85735 0.48932 0.18412
 C674 C 0.83648 0.48937 0.15586
 C675 C 0.84865 0.49385 0.12240
 C676 C 0.88225 0.49818 0.11762
 O677 O 0.93429 0.50159 0.14561
 C678 C 0.94226 0.49984 0.17822
 C679 C 0.91630 0.49503 0.19926
 C680 C 0.91964 0.49202 0.23431
 C681 C 0.95091 0.49467 0.24813
 C682 C 0.97831 0.50111 0.22712
 C683 C 0.97339 0.50232 0.19130
 H684 H 0.84811 0.48608 0.20961
 H685 H 0.81081 0.48638 0.16007
 H686 H 0.89245 0.50122 0.09251
 H687 H 0.89894 0.48766 0.25047
 H688 H 0.95387 0.49203 0.27535
 H689 H 0.99297 0.50458 0.17343
 C690 C 0.35184 -0.00439 0.61530
 C691 C 0.33606 -0.03318 0.62573
 C692 C 0.34578 -0.05258 0.65381
 C693 C 0.37297 -0.04195 0.67188
 C694 C 0.38992 -0.01243 0.66162
 C695 C 0.37912 0.00657 0.63279
 O696 O 0.33842 0.01040 0.58805
 C697 C 0.31378 -0.00963 0.58110
 C698 C 0.31139 -0.03665 0.60332
 C699 C 0.28734 -0.06064 0.60094
 C700 C 0.26503 -0.05700 0.57423
 C701 C 0.26732 -0.02996 0.54973
 C702 C 0.29166 -0.00530 0.55448
 H703 H 0.33297 -0.07519 0.66146
 H704 H 0.38116 -0.05705 0.69353
 H705 H 0.39140 0.02928 0.62443
 H706 H 0.28556 -0.08129 0.61927
 H707 H 0.24560 -0.07500 0.57364
 H708 H 0.29347 0.01647 0.53751
   
