data_POSCAR
  _audit_creation_date              2014-09-24
  _audit_creation_method            'ToBaCCo'
  _symmetry_space_group_name_H-M    'P1'
  _symmetry_Int_Tables_number       1
  _symmetry_cell_setting            triclinic
  loop_
  _symmetry_equiv_pos_as_xyz
 x,y,z
_cell_length_a 61.4542
_cell_length_b 34.1440
_cell_length_c 20.3506
_cell_angle_alpha 89.978500
_cell_angle_beta 89.875400
_cell_angle_gamma 90.169700
loop_
  _atom_site_label
  _atom_site_type_symbol
  _atom_site_fract_x
  _atom_site_fract_y
  _atom_site_fract_z
C1 C 0.74951 0.24980 0.47102
 C2 C 0.74933 0.24985 0.53807
 C3 C 0.73126 0.26786 0.57601
 C4 C 0.76719 0.23189 0.57666
 C5 C 0.76871 0.23600 0.43315
 C6 C 0.73050 0.26355 0.43249
 C7 C 0.72519 0.30698 0.56522
 C8 C 0.70762 0.32315 0.59936
 C9 C 0.69607 0.30049 0.64521
 C10 C 0.70244 0.26176 0.65742
 C11 C 0.72000 0.24562 0.62320
 C12 C 0.77827 0.25422 0.62395
 C13 C 0.79571 0.23812 0.65856
 C14 C 0.80211 0.19944 0.64664
 C15 C 0.79075 0.17668 0.60082
 C16 C 0.77330 0.19273 0.56624
 C17 C 0.76624 0.20630 0.38600
 C18 C 0.78435 0.19187 0.35223
 C19 C 0.80508 0.20721 0.36484
 C20 C 0.80758 0.23755 0.41050
 C21 C 0.78947 0.25204 0.44424
 C22 C 0.70969 0.24745 0.44297
 C23 C 0.69174 0.26197 0.40877
 C24 C 0.69444 0.29238 0.36327
 C25 C 0.71522 0.30774 0.35122
 C26 C 0.73318 0.29327 0.38545
 H27 H 0.73395 0.32484 0.52992
 H28 H 0.70299 0.35319 0.58946
 H29 H 0.69372 0.24382 0.69278
 H30 H 0.72452 0.21548 0.63246
 H31 H 0.77372 0.28437 0.63293
 H32 H 0.80438 0.25596 0.69395
 H33 H 0.76469 0.17482 0.53085
 H34 H 0.75036 0.19372 0.37650
 H35 H 0.78223 0.16843 0.31693
 H36 H 0.82353 0.24975 0.42046
 H37 H 0.79166 0.27545 0.47953
 H38 H 0.70735 0.22402 0.47819
 H39 H 0.67575 0.24977 0.41830
 H40 H 0.71748 0.33123 0.31605
 H41 H 0.74910 0.30589 0.37644
 H42 H 0.79552 0.14668 0.59137
 C43 C 0.25014 0.75036 0.46595
 C44 C 0.25025 0.75037 0.53300
 C45 C 0.23244 0.76870 0.57156
 C46 C 0.26820 0.73210 0.57089
 C47 C 0.26921 0.73667 0.42740
 C48 C 0.23095 0.76405 0.42812
 C49 C 0.22650 0.80789 0.56070
 C50 C 0.20910 0.82432 0.59523
 C51 C 0.19763 0.80190 0.64144
 C52 C 0.20386 0.76319 0.65380
 C53 C 0.22125 0.74671 0.61924
 C54 C 0.27949 0.75412 0.61817
 C55 C 0.29696 0.73767 0.65223
 C56 C 0.30318 0.69895 0.63979
 C57 C 0.29164 0.67652 0.59394
 C58 C 0.27416 0.69292 0.55990
 C59 C 0.26661 0.70703 0.38024
 C60 C 0.28463 0.69268 0.34595
 C61 C 0.30538 0.70808 0.35804
 C62 C 0.30799 0.73840 0.40368
 C63 C 0.28998 0.75280 0.43794
 C64 C 0.21018 0.74804 0.43961
 C65 C 0.19209 0.76237 0.40584
 C66 C 0.19460 0.79251 0.35973
 C67 C 0.21534 0.80782 0.34675
 C68 C 0.23344 0.79354 0.38055
 H69 H 0.23519 0.82556 0.52500
 H70 H 0.20445 0.85434 0.58545
 H71 H 0.19511 0.74560 0.68950
 H72 H 0.22568 0.71654 0.62856
 H73 H 0.27507 0.78428 0.62760
 H74 H 0.30576 0.75527 0.68766
 H75 H 0.26540 0.67523 0.52454
 H76 H 0.25071 0.69439 0.37118
 H77 H 0.28244 0.66924 0.31068
 H78 H 0.32396 0.75062 0.41325
 H79 H 0.29225 0.77618 0.47324
 H80 H 0.20798 0.72478 0.47522
 H81 H 0.17614 0.75021 0.41610
 H82 H 0.21747 0.83110 0.31111
 H83 H 0.24932 0.80610 0.37074
 H84 H 0.29626 0.64649 0.58410
 C85 C 0.24975 0.24977 -0.46940
 C86 C 0.24986 0.24979 -0.53645
 C87 C 0.26787 0.26814 -0.57451
 C88 C 0.23199 0.23142 -0.57476
 C89 C 0.23051 0.23611 -0.43128
 C90 C 0.26887 0.26336 -0.43105
 C91 C 0.27394 0.30730 -0.56338
 C92 C 0.29153 0.32375 -0.59732
 C93 C 0.30308 0.30137 -0.64329
 C94 C 0.29670 0.26267 -0.65593
 C95 C 0.27913 0.24620 -0.62192
 C96 C 0.22084 0.25337 -0.62227
 C97 C 0.20336 0.23689 -0.65642
 C98 C 0.19697 0.19817 -0.64383
 C99 C 0.20843 0.17578 -0.59780
 C100 C 0.22593 0.19224 -0.56371
 C101 C 0.23292 0.20677 -0.38352
 C102 C 0.21481 0.19271 -0.34907
 C103 C 0.19412 0.20811 -0.36162
 C104 C 0.19169 0.23809 -0.40805
 C105 C 0.20981 0.25217 -0.44244
 C106 C 0.28958 0.24720 -0.44187
 C107 C 0.30761 0.26133 -0.40743
 C108 C 0.30509 0.29142 -0.36134
 C109 C 0.28441 0.30690 -0.34906
 C110 C 0.26636 0.29282 -0.38353
 H111 H 0.26520 0.32493 -0.52789
 H112 H 0.29621 0.35377 -0.58719
 H113 H 0.30546 0.24502 -0.69142
 H114 H 0.27461 0.21605 -0.63146
 H115 H 0.22537 0.28354 -0.63173
 H116 H 0.19467 0.25455 -0.69196
 H117 H 0.23459 0.17460 -0.52814
 H118 H 0.24876 0.19419 -0.37395
 H119 H 0.21694 0.16955 -0.31323
 H120 H 0.17581 0.25039 -0.41812
 H121 H 0.20768 0.27535 -0.47818
 H122 H 0.29178 0.22395 -0.47743
 H123 H 0.32354 0.24906 -0.41715
 H124 H 0.28228 0.33016 -0.31345
 H125 H 0.25051 0.30548 -0.37423
 H126 H 0.20373 0.14575 -0.58771
 C127 C -0.25015 0.74970 -0.46855
 C128 C -0.25020 0.74977 -0.53560
 C129 C -0.23106 0.76355 -0.57397
 C130 C -0.26937 0.73604 -0.57363
 C131 C -0.26803 0.73123 -0.43018
 C132 C -0.23220 0.76804 -0.43049
 C133 C -0.23356 0.79317 -0.62120
 C134 C -0.21548 0.80756 -0.65546
 C135 C -0.19476 0.79221 -0.64324
 C136 C -0.19227 0.76190 -0.59747
 C137 C -0.21034 0.74748 -0.56327
 C138 C -0.29011 0.75196 -0.56231
 C139 C -0.30820 0.73767 -0.59638
 C140 C -0.30570 0.70762 -0.64266
 C141 C -0.28497 0.69241 -0.65543
 C142 C -0.26689 0.70667 -0.62131
 C143 C -0.27403 0.69203 -0.44119
 C144 C -0.29149 0.67546 -0.40686
 C145 C -0.30298 0.69775 -0.36063
 C146 C -0.29667 0.73651 -0.34814
 C147 C -0.27922 0.75310 -0.38253
 C148 C -0.22100 0.74606 -0.38312
 C149 C -0.20353 0.76257 -0.34894
 C150 C -0.19721 0.80132 -0.36135
 C151 C -0.20868 0.82371 -0.40729
 C152 C -0.22616 0.80725 -0.44144
 H153 H -0.24942 0.80575 -0.63039
 H154 H -0.21766 0.83098 -0.69080
 H155 H -0.17635 0.74963 -0.58767
 H156 H -0.20815 0.72412 -0.52792
 H157 H -0.29230 0.77514 -0.52663
 H158 H -0.32412 0.74984 -0.58614
 H159 H -0.25101 0.69420 -0.63099
 H160 H -0.26533 0.67447 -0.47686
 H161 H -0.29613 0.64540 -0.41688
 H162 H -0.30538 0.75409 -0.31246
 H163 H -0.27474 0.78328 -0.37309
 H164 H -0.22549 0.71587 -0.37371
 H165 H -0.19479 0.74500 -0.31344
 H166 H -0.20398 0.85376 -0.41711
 H167 H -0.23486 0.82492 -0.47688
 H168 H -0.28278 0.66920 -0.69116
 N169 N -0.02293 0.93181 -0.07213
 N170 N -0.03986 0.90840 -0.08006
 N171 N 0.02302 0.95944 -0.11665
 N172 N 0.03997 0.95561 -0.15598
 N173 N 0.02292 0.93186 -0.07170
 N174 N 0.03982 0.90851 -0.07923
 N175 N -0.02278 0.95937 -0.11712
 N176 N -0.03958 0.95547 -0.15685
 C177 C -0.05008 0.92348 -0.13326
 C178 C 0.05029 0.92364 -0.13217
 N179 N 0.02308 1.07060 -0.06903
 N180 N 0.03968 1.09481 -0.07680
 N181 N -0.02266 1.04358 -0.11539
 N182 N -0.03955 1.04778 -0.15466
 N183 N -0.02276 1.07049 -0.06935
 N184 N -0.03974 1.09375 -0.07606
 N185 N 0.02311 1.04369 -0.11506
 N186 N 0.03971 1.04885 -0.15540
 Mn187 Mn 0.00018 1.00152 -0.11685
 C188 C 0.04992 1.08087 -0.13095
 C189 C -0.05003 1.07927 -0.12968
 N190 N 0.02264 0.93077 0.06977
 N191 N 0.03922 0.90672 0.07752
 N192 N -0.02321 0.95764 0.11543
 N193 N -0.03990 0.95255 0.15549
 N194 N -0.02316 0.93075 0.06934
 N195 N -0.03981 0.90664 0.07679
 N196 N 0.02258 0.95764 0.11590
 N197 N 0.03912 0.95260 0.15626
 Mn198 Mn -0.00013 0.93080 -0.00121
 C199 C 0.04936 0.92068 0.13175
 C200 C -0.05011 0.92059 0.13081
 N201 N -0.02295 1.06954 0.07214
 N202 N -0.03947 1.09363 0.08069
 N203 N 0.02272 1.04195 0.11750
 N204 N 0.03959 1.04575 0.15699
 N205 N 0.02287 1.06949 0.07247
 N206 N 0.03986 1.09279 0.08014
 N207 N -0.02309 1.04200 0.11715
 N208 N -0.03972 1.04660 0.15756
 Mn209 Mn 0.00006 1.07054 0.00158
 Mn210 Mn -0.00026 0.99981 0.11731
 Cl211 Cl -0.00004 1.00067 0.00023
 C212 C -0.04980 1.07896 0.13423
 C213 C 0.05012 1.07767 0.13323
 N214 N 0.47735 0.45818 0.11616
 N215 N 0.46047 0.45432 0.15583
 N216 N 0.52307 0.43056 0.07067
 N217 N 0.53959 0.40649 0.07913
 N218 N 0.52316 0.45808 0.11569
 N219 N 0.53976 0.45348 0.15601
 N220 N 0.47726 0.43063 0.07117
 N221 N 0.46029 0.40728 0.07904
 C222 C 0.44998 0.42236 0.13221
 C223 C 0.54987 0.42113 0.13261
 N224 N 0.52301 0.45655 -0.11689
 N225 N 0.53987 0.45220 -0.15644
 N226 N 0.47722 0.42957 -0.07031
 N227 N 0.46058 0.40546 -0.07781
 N228 N 0.47724 0.45649 -0.11637
 N229 N 0.46063 0.45142 -0.15647
 N230 N 0.52306 0.42963 -0.07082
 N231 N 0.53998 0.40622 -0.07782
 Mn232 Mn 0.50015 0.42959 0.00019
 C233 C 0.55029 0.42063 -0.13162
 C234 C 0.45037 0.41945 -0.13184
 N235 N 0.52333 0.54243 0.11394
 N236 N 0.53991 0.54756 0.15414
 N237 N 0.47756 0.56937 0.06833
 N238 N 0.46096 0.59340 0.07597
 N239 N 0.47753 0.54249 0.11446
 N240 N 0.46092 0.54751 0.15476
 N241 N 0.52335 0.56934 0.06784
 N242 N 0.53996 0.59351 0.07544
 Mn243 Mn 0.50035 0.50030 0.11588
 C244 C 0.55015 0.57956 0.12955
 C245 C 0.45072 0.57942 0.13018
 N246 N 0.47736 0.54074 -0.11806
 N247 N 0.46049 0.54467 -0.15746
 N248 N 0.52327 0.56829 -0.07365
 N249 N 0.54025 0.59162 -0.08153
 N250 N 0.52315 0.54075 -0.11864
 N251 N 0.54003 0.54459 -0.15832
 N252 N 0.47742 0.56832 -0.07313
 N253 N 0.46057 0.59177 -0.08077
 Mn254 Mn 0.50019 0.49863 -0.11828
 Mn255 Mn 0.50040 0.56933 -0.00269
 Cl256 Cl 0.50027 0.49946 -0.00120
 C257 C 0.45017 0.57669 -0.13373
 C258 C 0.55053 0.57653 -0.13470
 C259 C 0.40053 0.35790 0.15998
 C260 C 0.39107 0.37579 0.21492
 C261 C 0.40081 0.40905 0.24241
 C262 C 0.41997 0.42430 0.21533
 C263 C 0.32079 0.31688 0.32569
 C264 C 0.41970 0.37312 0.13280
 C265 C 0.37160 0.35972 0.24382
 C266 C 0.35542 0.34627 0.26883
 C267 C 0.33665 0.33047 0.29904
 C268 C 0.42964 0.40639 0.16040
 H269 H 0.39314 0.33212 0.13833
 H270 H 0.39364 0.42311 0.28496
 H271 H 0.42723 0.45001 0.23751
 H272 H 0.42677 0.35879 0.09039
 C273 C -0.09835 0.90291 0.24298
 C274 C -0.10772 0.86962 0.21442
 C275 C -0.09834 0.85319 0.15811
 C276 C -0.07961 0.86987 0.13062
 C277 C -0.17701 0.80742 0.32558
 C278 C -0.07963 0.91963 0.21559
 C279 C -0.12680 0.85219 0.24343
 C280 C -0.14271 0.83780 0.26852
 C281 C -0.16124 0.82124 0.29883
 C282 C -0.07004 0.90318 0.15927
 H283 H -0.10548 0.91587 0.28656
 H284 H -0.10546 0.82743 0.13561
 H285 H -0.07259 0.85664 0.08714
 H286 H -0.07263 0.94532 0.23860
 C287 C 0.59806 0.59733 0.24239
 C288 C 0.60747 0.63069 0.21405
 C289 C 0.59824 0.64716 0.15765
 C290 C 0.57960 0.63043 0.12985
 C291 C 0.67656 0.69258 0.32611
 C292 C 0.57944 0.58057 0.21471
 C293 C 0.62648 0.64811 0.24334
 C294 C 0.64233 0.66245 0.26866
 C295 C 0.66081 0.67889 0.29922
 C296 C 0.56999 0.59705 0.15829
 H297 H 0.60507 0.58433 0.28604
 H298 H 0.60540 0.67297 0.13529
 H299 H 0.57269 0.64368 0.08631
 H300 H 0.57241 0.55482 0.23757
 C301 C 0.09930 1.09074 0.24273
 C302 C 0.10908 1.12396 0.21505
 C303 C 0.09965 1.14189 0.16022
 C304 C 0.08046 1.12677 0.13334
 C305 C 0.17931 1.18270 0.32515
 C306 C 0.08013 1.07558 0.21594
 C307 C 0.12856 1.13995 0.24369
 C308 C 0.14474 1.15336 0.26851
 C309 C 0.16349 1.16913 0.29857
 C310 C 0.07048 1.09354 0.16113
 H311 H 0.10646 1.07665 0.28520
 H312 H 0.10707 1.16764 0.13845
 H313 H 0.07341 1.14113 0.09101
 H314 H 0.07282 1.04990 0.23825
 C315 C 0.59962 0.35613 -0.15784
 C316 C 0.60907 0.37360 -0.21328
 C317 C 0.59938 0.40657 -0.24156
 C318 C 0.58027 0.42194 -0.21478
 C319 C 0.67912 0.31511 -0.32469
 C320 C 0.58049 0.37148 -0.13093
 C321 C 0.62849 0.35746 -0.24202
 C322 C 0.64462 0.34408 -0.26713
 C323 C 0.66332 0.32848 -0.29768
 C324 C 0.57059 0.40445 -0.15936
 H325 H 0.60698 0.33058 -0.13559
 H326 H 0.60654 0.42031 -0.28449
 H327 H 0.57304 0.44743 -0.23759
 H328 H 0.57341 0.35749 -0.08813
 C329 C 0.09959 0.91045 -0.24157
 C330 C 0.10914 0.87712 -0.21404
 C331 C 0.09954 0.85916 -0.15929
 C332 C 0.08039 0.87437 -0.13233
 C333 C 0.17908 0.81825 -0.32528
 C334 C 0.08045 0.92569 -0.21473
 C335 C 0.12855 0.86103 -0.24286
 C336 C 0.14466 0.84758 -0.26793
 C337 C 0.16333 0.83181 -0.29836
 C338 C 0.07063 0.90770 -0.16001
 H339 H 0.10687 0.92455 -0.28399
 H340 H 0.10679 0.83332 -0.13764
 H341 H 0.07319 0.85999 -0.09008
 H342 H 0.07332 0.95145 -0.23694
 C343 C 0.40112 0.59018 -0.24350
 C344 C 0.39156 0.62356 -0.21609
 C345 C 0.40108 0.64146 -0.16130
 C346 C 0.42015 0.62615 -0.13419
 C347 C 0.32174 0.68258 -0.32722
 C348 C 0.42017 0.57483 -0.21650
 C349 C 0.37220 0.63972 -0.24499
 C350 C 0.35613 0.65320 -0.27008
 C351 C 0.33749 0.66901 -0.30045
 C352 C 0.42991 0.59276 -0.16173
 H353 H 0.39390 0.57610 -0.28593
 H354 H 0.39382 0.66734 -0.13972
 H355 H 0.42728 0.64049 -0.09191
 H356 H 0.42731 0.54903 -0.23863
 C357 C -0.09961 1.14320 -0.15467
 C358 C -0.10906 1.12564 -0.20988
 C359 C -0.09929 1.09280 -0.23842
 C360 C -0.08009 1.07765 -0.21213
 C361 C -0.17928 1.18349 -0.32009
 C362 C -0.08039 1.12806 -0.12826
 C363 C -0.12855 1.14159 -0.23816
 C364 C -0.14473 1.15482 -0.26296
 C365 C -0.16347 1.17026 -0.29322
 C366 C -0.07041 1.09522 -0.15694
 H367 H -0.10703 1.16865 -0.13225
 H368 H -0.10645 1.07901 -0.28119
 H369 H -0.07280 1.05226 -0.23513
 H370 H -0.07331 1.14211 -0.08562
 C371 C 0.59994 0.64099 -0.16272
 C372 C 0.60941 0.62301 -0.21754
 C373 C 0.59971 0.58965 -0.24484
 C374 C 0.58056 0.57443 -0.21769
 C375 C 0.67942 0.68214 -0.32927
 C376 C 0.58079 0.62580 -0.13547
 C377 C 0.62884 0.63910 -0.24662
 C378 C 0.64496 0.65260 -0.27183
 C379 C 0.66365 0.66847 -0.30233
 C380 C 0.57088 0.59245 -0.16290
 H381 H 0.60731 0.66685 -0.14125
 H382 H 0.60689 0.57553 -0.28730
 H383 H 0.57332 0.54864 -0.23972
 H384 H 0.57370 0.64021 -0.09316
 C385 C 0.09789 1.09847 -0.24421
 C386 C 0.10724 1.13196 -0.21627
 C387 C 0.09795 1.14857 -0.15997
 C388 C 0.07931 1.13186 -0.13188
 C389 C 0.17635 1.19331 -0.32995
 C390 C 0.07926 1.08174 -0.21624
 C391 C 0.12624 1.14933 -0.24591
 C392 C 0.14209 1.16356 -0.27160
 C393 C 0.16059 1.17981 -0.30264
 C394 C 0.06975 1.09835 -0.15992
 H395 H 0.10495 1.08536 -0.28777
 H396 H 0.10506 1.17448 -0.13792
 H397 H 0.07235 1.14521 -0.08842
 H398 H 0.07229 1.05589 -0.23880
 C399 C 0.40221 0.35205 -0.15967
 C400 C 0.39292 0.36866 -0.21587
 C401 C 0.40231 0.40206 -0.24414
 C402 C 0.42098 0.41870 -0.21660
 C403 C 0.32380 0.30715 -0.32804
 C404 C 0.42090 0.36867 -0.13202
 C405 C 0.37389 0.35133 -0.24508
 C406 C 0.35803 0.33707 -0.27040
 C407 C 0.33954 0.32074 -0.30103
 C408 C 0.43050 0.40208 -0.16040
 H409 H 0.39506 0.32620 -0.13739
 H410 H 0.39525 0.41515 -0.28763
 H411 H 0.42800 0.44449 -0.23940
 H412 H 0.42786 0.35532 -0.08864
 C413 C -0.09937 0.85880 -0.16161
 C414 C -0.10875 0.87679 -0.21646
 C415 C -0.09904 0.91021 -0.24366
 C416 C -0.07996 0.92550 -0.21640
 C417 C -0.17863 0.81775 -0.32826
 C418 C -0.08028 0.87406 -0.13424
 C419 C -0.12813 0.86067 -0.24561
 C420 C -0.14422 0.84719 -0.27086
 C421 C -0.16287 0.83136 -0.30138
 C422 C -0.07036 0.90747 -0.16157
 H423 H -0.10674 0.83290 -0.14019
 H424 H -0.10616 0.92435 -0.28613
 H425 H -0.07271 0.95133 -0.23836
 H426 H -0.07325 0.85964 -0.09192
 C427 C 0.40256 0.59675 0.24260
 C428 C 0.39324 0.63000 0.21409
 C429 C 0.40261 0.64653 0.15776
 C430 C 0.42131 0.62997 0.13019
 C431 C 0.32408 0.69202 0.32511
 C432 C 0.42125 0.58016 0.21513
 C433 C 0.37419 0.64732 0.24315
 C434 C 0.35831 0.66166 0.26821
 C435 C 0.33981 0.67819 0.29845
 C436 C 0.43084 0.59670 0.15878
 H437 H 0.39543 0.58372 0.28621
 H438 H 0.39552 0.67226 0.13529
 H439 H 0.42833 0.64327 0.08669
 H440 H 0.42822 0.55449 0.23809
 C441 C -0.09764 1.14635 0.16436
 C442 C -0.10707 1.12929 0.22017
 C443 C -0.09786 1.09558 0.24750
 C444 C -0.07925 1.07906 0.21937
 C445 C -0.17615 1.19115 0.33218
 C446 C -0.07903 1.12988 0.13614
 C447 C -0.12606 1.14652 0.24981
 C448 C -0.14191 1.16081 0.27518
 C449 C -0.16040 1.17732 0.30557
 C450 C -0.06961 1.09614 0.16353
 H451 H -0.10464 1.17244 0.14278
 H452 H -0.10502 1.08212 0.29068
 H453 H -0.07237 1.05303 0.24142
 H454 H -0.07197 1.14360 0.09306
 C455 C 0.59782 0.40445 0.24558
 C456 C 0.60704 0.37074 0.21818
 C457 C 0.59766 0.35372 0.16241
 C458 C 0.57908 0.37023 0.13430
 C459 C 0.67581 0.30855 0.33034
 C460 C 0.57924 0.42100 0.21756
 C461 C 0.62597 0.35345 0.24777
 C462 C 0.64175 0.33907 0.27313
 C463 C 0.66015 0.32246 0.30359
 C464 C 0.56965 0.40395 0.16177
 H465 H 0.60495 0.41787 0.28874
 H466 H 0.60467 0.32764 0.14080
 H467 H 0.57206 0.35653 0.09126
 H468 H 0.57235 0.44702 0.23966
 C469 C 0.09729 0.90333 0.24450
 C470 C 0.10669 0.87007 0.21611
 C471 C 0.09742 0.85353 0.15976
 C472 C 0.07877 0.87008 0.13206
 C473 C 0.17585 0.80842 0.32708
 C474 C 0.07866 0.91992 0.21689
 C475 C 0.12571 0.85281 0.24525
 C476 C 0.14158 0.83855 0.27034
 C477 C 0.16009 0.82213 0.30054
 C478 C 0.06918 0.90337 0.16051
 H479 H 0.10434 0.91638 0.28810
 H480 H 0.10455 0.82780 0.13738
 H481 H 0.07184 0.85678 0.08854
 H482 H 0.07165 0.94560 0.23975
   
