data_POSCAR
  _audit_creation_date              2014-09-24
  _audit_creation_method            'ToBaCCo'
  _symmetry_space_group_name_H-M    'P1'
  _symmetry_Int_Tables_number       1
  _symmetry_cell_setting            triclinic
  loop_
  _symmetry_equiv_pos_as_xyz
 x,y,z
_cell_length_a 31.7596
_cell_length_b 31.7596
_cell_length_c 31.7596
_cell_angle_alpha 90.000000
_cell_angle_beta 90.000100
_cell_angle_gamma 90.000000
loop_
  _atom_site_label
  _atom_site_type_symbol
  _atom_site_fract_x
  _atom_site_fract_y
  _atom_site_fract_z
N1 N 0.23151 0.23153 0.23151
 N2 N 0.73152 0.73153 0.73152
 N3 N 0.26847 0.76846 0.73154
 N4 N 0.76847 0.26845 0.23154
 N5 N 0.76849 0.73150 0.26847
 N6 N 0.26848 0.23151 -0.23153
 N7 N 0.73152 0.26850 -0.23151
 N8 N 0.23152 0.76849 0.26849
 N9 N 0.48151 0.48153 0.48153
 N10 N -0.01849 -0.01847 0.98152
 N11 N 1.01850 0.51849 0.98150
 N12 N 0.51849 0.01849 0.48151
 N13 N -0.01847 0.01846 0.51847
 N14 N 0.48155 0.51847 0.01848
 N15 N 0.51846 -0.01848 0.01847
 N16 N 1.01847 0.48152 0.51847
 C17 C 0.43859 0.02300 0.19314
 H18 H 0.44113 0.05026 0.21341
 C19 C 0.46335 0.02020 0.15688
 H20 H 0.48495 0.04541 0.14906
 C21 C 0.40679 -0.04284 0.17797
 H22 H 0.38498 -0.06751 0.18633
 C23 C 0.43097 -0.04691 0.14147
 H24 H 0.42726 -0.07440 0.12162
 N25 N 0.41017 -0.00773 0.20235
 C26 C 0.31139 0.05688 0.27300
 H27 H 0.30886 0.03661 0.30026
 C28 C 0.28663 0.09314 0.27019
 H29 H 0.26504 0.10096 0.29541
 C30 C 0.34319 0.07204 0.20715
 H31 H 0.36500 0.06368 0.18248
 C32 C 0.31901 0.10854 0.20308
 H33 H 0.32272 0.12839 0.17559
 Zn34 Zn 0.37499 0.00001 0.25000
 N35 N 0.33982 0.04767 0.24227
 C36 C 0.40680 0.04286 0.32204
 N37 N 0.41017 0.00775 0.29766
 C38 C 0.43860 -0.02298 0.30686
 C39 C 0.46337 -0.02018 0.34312
 C40 C 0.43099 0.04693 0.35853
 C41 C 0.31139 -0.05685 0.22702
 C42 C 0.28663 -0.09310 0.22982
 C43 C 0.31901 -0.10852 0.29692
 C44 C 0.34320 -0.07202 0.29286
 N45 N 0.33982 -0.04764 0.25774
 H46 H 0.38499 0.06753 0.31368
 H47 H 0.44113 -0.05024 0.28659
 H48 H 0.48496 -0.04540 0.35093
 H49 H 0.42728 0.07442 0.37838
 H50 H 0.30885 -0.03658 0.19976
 H51 H 0.26503 -0.10092 0.20460
 H52 H 0.32273 -0.12837 0.32442
 H53 H 0.36500 -0.06366 0.31753
 C54 C 0.29096 0.11948 0.23518
 C55 C 0.45903 -0.01482 0.13053
 C56 C 0.29095 -0.11946 0.26483
 C57 C 0.45904 0.01483 0.36947
 C58 C 0.06140 -0.02300 0.69314
 H59 H 0.05886 -0.05026 0.71341
 C60 C 0.03664 -0.02020 0.65688
 H61 H 0.01504 -0.04542 0.64906
 C62 C 0.09320 0.04284 0.67796
 H63 H 0.11501 0.06751 0.68632
 C64 C 0.06902 0.04690 0.64147
 H65 H 0.07274 0.07439 0.62161
 N66 N 0.08983 0.00773 0.70235
 C67 C 0.18860 -0.05687 0.77301
 H68 H 0.19113 -0.03660 0.80026
 C69 C 0.21336 -0.09313 0.77021
 H70 H 0.23495 -0.10095 0.79543
 C71 C 0.15680 -0.07205 0.70716
 H72 H 0.13499 -0.06368 0.68249
 C73 C 0.18098 -0.10854 0.70310
 H74 H 0.17727 -0.12839 0.67561
 Zn75 Zn 0.12500 -0.00001 0.75000
 N76 N 0.16017 -0.04766 0.74227
 C77 C 0.09319 -0.04285 0.82204
 N78 N 0.08982 -0.00774 0.79766
 C79 C 0.06139 0.02299 0.80686
 C80 C 0.03663 0.02019 0.84312
 C81 C 0.06900 -0.04691 0.85853
 C82 C 0.18860 0.05685 0.72701
 C83 C 0.21337 0.09311 0.72981
 C84 C 0.18098 0.10852 0.79691
 C85 C 0.15680 0.07203 0.79285
 N86 N 0.16017 0.04765 0.75774
 H87 H 0.11500 -0.06752 0.81368
 H88 H 0.05886 0.05025 0.78659
 H89 H 0.01503 0.04541 0.85093
 H90 H 0.07271 -0.07441 0.87838
 H91 H 0.19114 0.03658 0.69975
 H92 H 0.23497 0.10093 0.70460
 H93 H 0.17727 0.12838 0.82441
 H94 H 0.13499 0.06367 0.81752
 C95 C 0.20903 -0.11948 0.73520
 C96 C 0.04097 0.01481 0.63053
 C97 C 0.20904 0.11946 0.76482
 C98 C 0.04095 -0.01482 0.86947
 C99 C 0.56140 0.47700 0.19314
 H100 H 0.55886 0.44974 0.21342
 C101 C 0.53664 0.47980 0.15689
 H102 H 0.51504 0.45459 0.14907
 C103 C 0.59321 0.54284 0.17798
 H104 H 0.61502 0.56750 0.18634
 C105 C 0.56903 0.54690 0.14148
 H106 H 0.57275 0.57440 0.12163
 N107 N 0.58983 0.50772 0.20236
 C108 C 0.68859 0.44311 0.27301
 H109 H 0.69113 0.46338 0.30027
 C110 C 0.71335 0.40686 0.27021
 H111 H 0.73495 0.39903 0.29543
 C112 C 0.65679 0.42794 0.20717
 H113 H 0.63499 0.43631 0.18249
 C114 C 0.68098 0.39145 0.20310
 H115 H 0.67726 0.37160 0.17561
 Zn116 Zn 0.62500 0.49998 0.25001
 N117 N 0.66017 0.45232 0.24228
 C118 C 0.59319 0.45714 0.32205
 N119 N 0.58982 0.49225 0.29767
 C120 C 0.56140 0.52299 0.30687
 C121 C 0.53663 0.52019 0.34313
 C122 C 0.56900 0.45308 0.35854
 C123 C 0.68861 0.55684 0.22702
 C124 C 0.71338 0.59309 0.22982
 C125 C 0.68099 0.60851 0.29692
 C126 C 0.65681 0.57202 0.29286
 N127 N 0.66018 0.54763 0.25775
 H128 H 0.61499 0.43247 0.31369
 H129 H 0.55887 0.55025 0.28660
 H130 H 0.51504 0.54541 0.35095
 H131 H 0.57271 0.42559 0.37839
 H132 H 0.69115 0.53656 0.19976
 H133 H 0.73498 0.60091 0.20460
 H134 H 0.67728 0.62836 0.32441
 H135 H 0.63500 0.56366 0.31753
 C136 C 0.70903 0.38050 0.23520
 C137 C 0.54097 0.51481 0.13053
 C138 C 0.70905 0.61945 0.26483
 C139 C 0.54095 0.48518 0.36948
 C140 C 0.93860 0.52300 0.69312
 H141 H 0.94114 0.55026 0.71340
 C142 C 0.96336 0.52020 0.65687
 H143 H 0.98496 0.54541 0.64905
 C144 C 0.90680 0.45716 0.67796
 H145 H 0.88499 0.43249 0.68632
 C146 C 0.93098 0.45309 0.64146
 H147 H 0.92726 0.42560 0.62161
 N148 N 0.91017 0.49228 0.70234
 C149 C 0.81141 0.55688 0.77299
 H150 H 0.80887 0.53661 0.80025
 C151 C 0.78665 0.59314 0.77019
 H152 H 0.76505 0.60096 0.79541
 C153 C 0.84320 0.57205 0.70715
 H154 H 0.86501 0.56369 0.68247
 C155 C 0.81902 0.60854 0.70308
 H156 H 0.82273 0.62839 0.67559
 Zn157 Zn 0.87501 0.50001 0.75000
 N158 N 0.83983 0.54767 0.74226
 C159 C 0.90682 0.54286 0.82202
 N160 N 0.91019 0.50775 0.79765
 C161 C 0.93861 0.47702 0.80685
 C162 C 0.96338 0.47982 0.84311
 C163 C 0.93100 0.54693 0.85852
 C164 C 0.81140 0.44315 0.72701
 C165 C 0.78663 0.40690 0.72982
 C166 C 0.81902 0.39149 0.79692
 C167 C 0.84321 0.42798 0.79285
 N168 N 0.83983 0.45236 0.75774
 H169 H 0.88501 0.56754 0.81366
 H170 H 0.94114 0.44976 0.78658
 H171 H 0.98498 0.45460 0.85092
 H172 H 0.92730 0.57443 0.87836
 H173 H 0.80886 0.46342 0.69975
 H174 H 0.76503 0.39908 0.70460
 H175 H 0.82274 0.37164 0.82441
 H176 H 0.86502 0.43634 0.81752
 C177 C 0.79097 0.61949 0.73518
 C178 C 0.95904 0.48518 0.63052
 C179 C 0.79096 0.38055 0.76483
 C180 C 0.95906 0.51484 0.86946
 C181 C 0.19316 0.43861 0.02298
 H182 H 0.21343 0.44115 0.05024
 C183 C 0.15691 0.46338 0.02017
 H184 H 0.14909 0.48498 0.04539
 C185 C 0.17799 0.40681 -0.04286
 H186 H 0.18635 0.38500 -0.06753
 C187 C 0.14150 0.43100 -0.04693
 H188 H 0.12164 0.42729 -0.07442
 N189 N 0.20237 0.41018 -0.00775
 C190 C 0.27300 0.31140 0.05686
 H191 H 0.30026 0.30886 0.03659
 C192 C 0.27019 0.28664 0.09311
 H193 H 0.29541 0.26504 0.10093
 C194 C 0.20716 0.34321 0.07202
 H195 H 0.18249 0.36502 0.06366
 C196 C 0.20309 0.31903 0.10852
 H197 H 0.17559 0.32274 0.12837
 Zn198 Zn 0.25002 0.37500 -0.00001
 N199 N 0.24227 0.33983 0.04765
 C200 C 0.32205 0.40680 0.04284
 N201 N 0.29768 0.41017 0.00773
 C202 C 0.30689 0.43860 -0.02300
 C203 C 0.34314 0.46336 -0.02020
 C204 C 0.35855 0.43098 0.04691
 C205 C 0.22702 0.31140 -0.05687
 C206 C 0.22982 0.28664 -0.09313
 C207 C 0.29692 0.31901 -0.10854
 C208 C 0.29286 0.34320 -0.07204
 N209 N 0.25775 0.33983 -0.04766
 H210 H 0.31369 0.38499 0.06751
 H211 H 0.28662 0.44114 -0.05026
 H212 H 0.35097 0.48495 -0.04542
 H213 H 0.37840 0.42727 0.07440
 H214 H 0.19976 0.30887 -0.03660
 H215 H 0.20460 0.26504 -0.10095
 H216 H 0.32442 0.32272 -0.12839
 H217 H 0.31754 0.36500 -0.06368
 C218 C 0.23518 0.29097 0.11946
 C219 C 0.13055 0.45906 -0.01484
 C220 C 0.26483 0.29096 -0.11948
 C221 C 0.36950 0.45903 0.01481
 C222 C 0.69312 0.06140 -0.02300
 H223 H 0.71339 0.05887 -0.05026
 C224 C 0.65686 0.03664 -0.02020
 H225 H 0.64904 0.01505 -0.04542
 C226 C 0.67795 0.09320 0.04285
 H227 H 0.68631 0.11500 0.06752
 C228 C 0.64145 0.06902 0.04691
 H229 H 0.62160 0.07273 0.07441
 N230 N 0.70233 0.08983 0.00773
 C231 C 0.77298 0.18861 -0.05686
 H232 H 0.80024 0.19114 -0.03658
 C233 C 0.77018 0.21337 -0.09311
 H234 H 0.79540 0.23497 -0.10093
 C235 C 0.70714 0.15681 -0.07203
 H236 H 0.68246 0.13501 -0.06367
 C237 C 0.70307 0.18100 -0.10852
 H238 H 0.67558 0.17729 -0.12838
 Zn239 Zn 0.74998 0.12500 -0.00000
 N240 N 0.74225 0.16018 -0.04765
 C241 C 0.82202 0.09320 -0.04285
 N242 N 0.79764 0.08982 -0.00774
 C243 C 0.80684 0.06139 0.02299
 C244 C 0.84310 0.03663 0.02018
 C245 C 0.85851 0.06902 -0.04692
 C246 C 0.72699 0.18860 0.05687
 C247 C 0.72980 0.21335 0.09313
 C248 C 0.79690 0.18097 0.10854
 C249 C 0.79283 0.15679 0.07204
 N250 N 0.75772 0.16017 0.04766
 H251 H 0.81365 0.11501 -0.06752
 H252 H 0.78657 0.05885 0.05024
 H253 H 0.85092 0.01503 0.04540
 H254 H 0.87836 0.07273 -0.07441
 H255 H 0.69974 0.19114 0.03660
 H256 H 0.70458 0.23495 0.10095
 H257 H 0.82440 0.17725 0.12839
 H258 H 0.81751 0.13498 0.06367
 C259 C 0.73517 0.20906 -0.11946
 C260 C 0.63051 0.04096 0.01481
 C261 C 0.76481 0.20903 0.11948
 C262 C 0.86945 0.04096 -0.01483
 C263 C 0.19313 0.56140 0.47701
 H264 H 0.21340 0.55887 0.44975
 C265 C 0.15687 0.53664 0.47980
 H266 H 0.14906 0.51504 0.45458
 C267 C 0.17795 0.59320 0.54285
 H268 H 0.18632 0.61500 0.56752
 C269 C 0.14146 0.56901 0.54691
 H270 H 0.12161 0.57272 0.57441
 N271 N 0.20233 0.58983 0.50774
 C272 C 0.27298 0.68861 0.44315
 H273 H 0.30024 0.69115 0.46342
 C274 C 0.27018 0.71338 0.40689
 H275 H 0.29540 0.73497 0.39907
 C276 C 0.20714 0.65681 0.42797
 H277 H 0.18247 0.63500 0.43634
 C278 C 0.20308 0.68100 0.39148
 H279 H 0.17558 0.67728 0.37163
 Zn280 Zn 0.24999 0.62501 0.50001
 N281 N 0.24225 0.66018 0.45235
 C282 C 0.32203 0.59321 0.45716
 N283 N 0.29765 0.58983 0.49227
 C284 C 0.30685 0.56140 0.52300
 C285 C 0.34311 0.53664 0.52019
 C286 C 0.35852 0.56903 0.45309
 C287 C 0.22699 0.68860 0.55688
 C288 C 0.22980 0.71336 0.59314
 C289 C 0.29690 0.68098 0.60854
 C290 C 0.29284 0.65680 0.57205
 N291 N 0.25772 0.66017 0.54767
 H292 H 0.31367 0.61502 0.43249
 H293 H 0.28658 0.55886 0.55025
 H294 H 0.35092 0.51504 0.54541
 H295 H 0.37837 0.57274 0.42560
 H296 H 0.19973 0.69114 0.53661
 H297 H 0.20458 0.73496 0.60096
 H298 H 0.32440 0.67726 0.62839
 H299 H 0.31751 0.63499 0.56368
 C300 C 0.23517 0.70905 0.38054
 C301 C 0.13052 0.54096 0.51482
 C302 C 0.26481 0.70903 0.61949
 C303 C 0.36946 0.54097 0.48518
 C304 C 0.69315 0.93860 0.52298
 H305 H 0.71342 0.94114 0.55024
 C306 C 0.65689 0.96337 0.52017
 H307 H 0.64908 0.98497 0.54539
 C308 C 0.67797 0.90680 0.45714
 H309 H 0.68633 0.88499 0.43247
 C310 C 0.64148 0.93098 0.45307
 H311 H 0.62162 0.92727 0.42558
 N312 N 0.70235 0.91017 0.49225
 C313 C 0.77299 0.81139 0.55685
 H314 H 0.80025 0.80885 0.53658
 C315 C 0.77019 0.78663 0.59311
 H316 H 0.79540 0.76503 0.60093
 C317 C 0.70715 0.84320 0.57202
 H318 H 0.68248 0.86501 0.56366
 C319 C 0.70309 0.81902 0.60852
 H320 H 0.67559 0.82274 0.62837
 Zn321 Zn 0.75000 0.87499 0.49999
 N322 N 0.74226 0.83982 0.54764
 C323 C 0.82204 0.90679 0.54284
 N324 N 0.79766 0.91016 0.50772
 C325 C 0.80687 0.93859 0.47699
 C326 C 0.84313 0.96335 0.47980
 C327 C 0.85853 0.93097 0.54690
 C328 C 0.72701 0.81139 0.44312
 C329 C 0.72981 0.78663 0.40687
 C330 C 0.79692 0.81900 0.39146
 C331 C 0.79285 0.84319 0.42796
 N332 N 0.75774 0.83982 0.45233
 H333 H 0.81367 0.88499 0.56751
 H334 H 0.78660 0.94112 0.44973
 H335 H 0.85095 0.98494 0.45458
 H336 H 0.87838 0.92726 0.57440
 H337 H 0.69975 0.80886 0.46339
 H338 H 0.70459 0.76503 0.39905
 H339 H 0.82442 0.82271 0.37162
 H340 H 0.81753 0.86499 0.43632
 C341 C 0.73518 0.79096 0.61946
 C342 C 0.63054 0.95904 0.48516
 C343 C 0.76483 0.79095 0.38052
 C344 C 0.86948 0.95902 0.51481
 C345 C 0.02300 0.19312 0.43860
 H346 H 0.05026 0.21339 0.44114
 C347 C 0.02020 0.15686 0.46336
 H348 H 0.04542 0.14904 0.48496
 C349 C -0.04284 0.17795 0.40680
 H350 H -0.06752 0.18631 0.38500
 C351 C -0.04691 0.14145 0.43099
 H352 H -0.07440 0.12160 0.42727
 N353 N -0.00773 0.20233 0.41018
 C354 C 0.05685 0.27299 0.31140
 H355 H 0.03658 0.30024 0.30886
 C356 C 0.09311 0.27019 0.28663
 H357 H 0.10092 0.29541 0.26503
 C358 C 0.07203 0.20714 0.34319
 H359 H 0.06367 0.18247 0.36500
 C360 C 0.10853 0.20308 0.31901
 H361 H 0.12838 0.17559 0.32272
 Zn362 Zn -0.00000 0.24999 0.37500
 N363 N 0.04765 0.24226 0.33982
 C364 C 0.04285 0.32202 0.40680
 N365 N 0.00774 0.29764 0.41018
 C366 C -0.02299 0.30685 0.43861
 C367 C -0.02019 0.34311 0.46337
 C368 C 0.04691 0.35852 0.43098
 C369 C -0.05687 0.22699 0.31140
 C370 C -0.09312 0.22979 0.28664
 C371 C -0.10854 0.29690 0.31903
 C372 C -0.07204 0.29283 0.34321
 N373 N -0.04766 0.25772 0.33983
 H374 H 0.06752 0.31366 0.38499
 H375 H -0.05025 0.28658 0.44115
 H376 H -0.04541 0.35093 0.48497
 H377 H 0.07441 0.37837 0.42727
 H378 H -0.03659 0.19974 0.30887
 H379 H -0.10094 0.20458 0.26505
 H380 H -0.12839 0.32439 0.32274
 H381 H -0.06368 0.31750 0.36502
 C382 C 0.11946 0.23518 0.29095
 C383 C -0.01481 0.13051 0.45904
 C384 C -0.11948 0.26480 0.29097
 C385 C 0.01482 0.36946 0.45904
 C386 C -0.02298 0.69315 0.06139
 H387 H -0.05024 0.71342 0.05885
 C388 C -0.02018 0.65689 0.03662
 H389 H -0.04539 0.64907 0.01502
 C390 C 0.04286 0.67798 0.09319
 H391 H 0.06753 0.68634 0.11500
 C392 C 0.04693 0.64149 0.06900
 H393 H 0.07443 0.62164 0.07271
 N394 N 0.00775 0.70236 0.08982
 C395 C -0.05686 0.77299 0.18860
 H396 H -0.03659 0.80025 0.19113
 C397 C -0.09312 0.77018 0.21336
 H398 H -0.10094 0.79540 0.23496
 C399 C -0.07203 0.70715 0.15679
 H400 H -0.06366 0.68248 0.13498
 C401 C -0.10852 0.70308 0.18097
 H402 H -0.12837 0.67558 0.17726
 Zn403 Zn 0.00000 0.75001 0.12499
 N404 N -0.04765 0.74227 0.16017
 C405 C -0.04285 0.82204 0.09320
 N406 N -0.00773 0.79766 0.08982
 C407 C 0.02299 0.80688 0.06140
 C408 C 0.02019 0.84313 0.03664
 C409 C -0.04692 0.85854 0.06901
 C410 C 0.05687 0.72701 0.18860
 C411 C 0.09312 0.72982 0.21336
 C412 C 0.10853 0.79692 0.18099
 C413 C 0.07204 0.79286 0.15680
 N414 N 0.04766 0.75774 0.16017
 H415 H -0.06752 0.81367 0.11500
 H416 H 0.05026 0.78661 0.05886
 H417 H 0.04541 0.85096 0.01504
 H418 H -0.07441 0.87838 0.07273
 H419 H 0.03660 0.69975 0.19113
 H420 H 0.10094 0.70460 0.23496
 H421 H 0.12838 0.82442 0.17728
 H422 H 0.06367 0.81753 0.13499
 C423 C -0.11947 0.73517 0.20903
 C424 C 0.01484 0.63054 0.04094
 C425 C 0.11947 0.76483 0.20904
 C426 C -0.01482 0.86948 0.04096
 C427 C 0.47702 0.19314 0.56140
 H428 H 0.44976 0.21341 0.55886
 C429 C 0.47982 0.15689 0.53663
 H430 H 0.45461 0.14907 0.51503
 C431 C 0.54286 0.17797 0.59320
 H432 H 0.56753 0.18633 0.61501
 C433 C 0.54693 0.14148 0.56901
 H434 H 0.57442 0.12163 0.57273
 N435 N 0.50775 0.20235 0.58983
 C436 C 0.44314 0.27299 0.68860
 H437 H 0.46341 0.30025 0.69114
 C438 C 0.40688 0.27018 0.71337
 H439 H 0.39906 0.29540 0.73496
 C440 C 0.42797 0.20715 0.65680
 H441 H 0.43634 0.18248 0.63499
 C442 C 0.39148 0.20308 0.68098
 H443 H 0.37163 0.17559 0.67727
 Zn444 Zn 0.50001 0.25000 0.62500
 N445 N 0.45235 0.24226 0.66017
 C446 C 0.45715 0.32203 0.59320
 N447 N 0.49227 0.29766 0.58983
 C448 C 0.52299 0.30687 0.56140
 C449 C 0.52019 0.34313 0.53664
 C450 C 0.45308 0.35853 0.56902
 C451 C 0.55687 0.22701 0.68860
 C452 C 0.59312 0.22982 0.71337
 C453 C 0.60853 0.29693 0.68099
 C454 C 0.57204 0.29286 0.65680
 N455 N 0.54766 0.25774 0.66018
 H456 H 0.43248 0.31367 0.61501
 H457 H 0.55026 0.28660 0.55887
 H458 H 0.54540 0.35095 0.51504
 H459 H 0.42558 0.37838 0.57273
 H460 H 0.53660 0.19975 0.69114
 H461 H 0.60095 0.20460 0.73496
 H462 H 0.62838 0.32442 0.67728
 H463 H 0.56367 0.31753 0.63500
 C464 C 0.38053 0.23517 0.70904
 C465 C 0.51484 0.13054 0.54096
 C466 C 0.61947 0.26483 0.70905
 C467 C 0.48517 0.36948 0.54097
 C468 C 0.52300 0.69313 0.93860
 H469 H 0.55026 0.71341 0.94114
 C470 C 0.52021 0.65688 0.96337
 H471 H 0.54542 0.64906 0.98496
 C472 C 0.45716 0.67796 0.90681
 H473 H 0.43249 0.68632 0.88500
 C474 C 0.45310 0.64146 0.93099
 H475 H 0.42561 0.62161 0.92728
 N476 N 0.49227 0.70234 0.91018
 C477 C 0.55686 0.77299 0.81140
 H478 H 0.53659 0.80025 0.80886
 C479 C 0.59312 0.77020 0.78664
 H480 H 0.60094 0.79541 0.76504
 C481 C 0.57204 0.70715 0.84320
 H482 H 0.56368 0.68248 0.86501
 C483 C 0.60853 0.70309 0.81902
 H484 H 0.62839 0.67560 0.82273
 Zn485 Zn 0.50000 0.75000 0.87500
 N486 N 0.54766 0.74226 0.83983
 C487 C 0.54284 0.82204 0.90680
 N488 N 0.50773 0.79765 0.91018
 C489 C 0.47701 0.80686 0.93861
 C490 C 0.47980 0.84311 0.96337
 C491 C 0.54691 0.85853 0.93099
 C492 C 0.44313 0.72700 0.81141
 C493 C 0.40688 0.72980 0.78665
 C494 C 0.39147 0.79690 0.81903
 C495 C 0.42796 0.79284 0.84321
 N496 N 0.45234 0.75773 0.83983
 H497 H 0.56752 0.81368 0.88499
 H498 H 0.44975 0.78658 0.94114
 H499 H 0.45459 0.85093 0.98497
 H500 H 0.57440 0.87839 0.92727
 H501 H 0.46341 0.69974 0.80887
 H502 H 0.39906 0.70458 0.76505
 H503 H 0.37161 0.82440 0.82274
 H504 H 0.43633 0.81751 0.86501
 C505 C 0.61947 0.73519 0.79096
 C506 C 0.48519 0.63052 0.95904
 C507 C 0.38052 0.76481 0.79097
 C508 C 0.51481 0.86947 0.95904
 C509 C 0.19238 0.23218 0.25088
 C510 C 0.15877 0.23325 0.26851
 C511 C 0.69239 0.73219 0.75089
 C512 C 0.65878 0.73325 0.76852
 C513 C 0.30760 0.76781 0.75090
 C514 C 0.34122 0.76674 0.76854
 C515 C -0.19240 0.26780 0.25090
 C516 C -0.15879 0.26673 0.26854
 C517 C -0.19239 0.73216 0.24911
 C518 C -0.15877 0.73323 0.23147
 C519 C 0.30761 0.23217 0.74911
 C520 C 0.34123 0.23324 0.73147
 C521 C 0.69239 0.26784 0.74912
 C522 C 0.65878 0.26677 0.73148
 C523 C 0.19239 0.76784 0.24912
 C524 C 0.15877 0.76677 0.23148
 C525 C 0.25088 0.19240 0.23217
 C526 C 0.26852 0.15879 0.23324
 C527 C 0.75089 0.69241 0.73218
 C528 C 0.76853 0.65879 0.73325
 C529 C 0.75089 0.30763 0.76784
 C530 C 0.76852 0.34124 0.76677
 C531 C 0.25088 -0.19238 0.26784
 C532 C 0.26852 -0.15876 0.26677
 C533 C 0.24911 -0.19241 0.73220
 C534 C 0.23147 -0.15879 0.73326
 C535 C 0.74910 0.30758 0.23219
 C536 C 0.73146 0.34120 0.23326
 C537 C 0.74912 0.69237 0.26783
 C538 C 0.73149 0.65875 0.26676
 C539 C 0.24912 0.19238 0.76782
 C540 C 0.23148 0.15877 0.76675
 C541 C 0.23217 0.25090 0.19238
 C542 C 0.23324 0.26853 0.15877
 C543 C 0.73217 0.75090 0.69239
 C544 C 0.73324 0.76853 0.65877
 C545 C 0.76783 0.75087 0.30760
 C546 C 0.76676 0.76851 0.34122
 C547 C 0.26783 0.25088 -0.19240
 C548 C 0.26676 0.26852 -0.15878
 C549 C 0.73217 0.24913 -0.19238
 C550 C 0.73324 0.23149 -0.15877
 C551 C 0.23217 0.74913 0.30762
 C552 C 0.23324 0.73149 0.34123
 C553 C 0.26781 0.74910 0.69241
 C554 C 0.26674 0.73146 0.65879
 C555 C 0.76781 0.24909 0.19241
 C556 C 0.76675 0.23146 0.15879
 C557 C 0.48217 0.44240 0.50089
 C558 C 0.48324 0.40878 0.51853
 C559 C -0.01783 0.94240 0.00088
 C560 C -0.01676 0.90879 0.01852
 C561 C 0.01785 0.55762 0.00087
 C562 C 0.01678 0.59124 0.01851
 C563 C 0.51784 0.05762 0.50088
 C564 C 0.51677 0.09123 0.51852
 C565 C -0.01781 0.05759 0.49911
 C566 C -0.01674 0.09120 0.48147
 C567 C 0.48220 0.55760 0.99912
 C568 C 0.48326 0.59122 0.98148
 C569 C 0.51781 0.94239 0.99911
 C570 C 0.51674 0.90878 0.98148
 C571 C 0.01782 0.44238 0.49911
 C572 C 0.01675 0.40877 0.48147
 C573 C 0.44238 0.50089 0.48218
 C574 C 0.40877 0.51853 0.48325
 C575 C 0.94238 0.00089 -0.01783
 C576 C 0.90876 0.01853 -0.01676
 C577 C 0.55759 0.00089 0.01782
 C578 C 0.59120 0.01853 0.01675
 C579 C 0.05760 0.50088 0.51781
 C580 C 0.09122 0.51852 0.51675
 C581 C 0.05763 0.49913 -0.01784
 C582 C 0.09125 0.48149 -0.01677
 C583 C 0.55762 0.99912 0.48216
 C584 C 0.59124 0.98148 0.48323
 C585 C 0.94240 0.99909 0.51782
 C586 C 0.90879 0.98146 0.51675
 C587 C 0.44242 0.49911 0.01782
 C588 C 0.40880 0.48147 0.01675
 C589 C 0.50088 0.48218 0.44240
 C590 C 0.51851 0.48325 0.40879
 C591 C 0.00087 -0.01782 0.94239
 C592 C 0.01851 -0.01675 0.90877
 C593 C 0.00090 0.01781 0.55760
 C594 C 0.01853 0.01674 0.59122
 C595 C 0.50091 0.51782 0.05761
 C596 C 0.51854 0.51675 0.09123
 C597 C 0.49910 -0.01782 0.05760
 C598 C 0.48146 -0.01675 0.09122
 C599 C 0.99911 0.48217 0.55760
 C600 C 0.98147 0.48325 0.59121
 C601 C 0.99914 0.51784 0.94238
 C602 C 0.98150 0.51677 0.90876
 C603 C 0.49912 0.01784 0.44239
 C604 C 0.48148 0.01677 0.40877
   
