data_POSCAR
  _audit_creation_date              2014-09-24
  _audit_creation_method            'ToBaCCo'
  _symmetry_space_group_name_H-M    'P1'
  _symmetry_Int_Tables_number       1
  _symmetry_cell_setting            triclinic
  loop_
  _symmetry_equiv_pos_as_xyz
 x,y,z
_cell_length_a 46.0469
_cell_length_b 46.7447
_cell_length_c 49.3288
_cell_angle_alpha 89.928800
_cell_angle_beta 88.361100
_cell_angle_gamma 89.072200
loop_
  _atom_site_label
  _atom_site_type_symbol
  _atom_site_fract_x
  _atom_site_fract_y
  _atom_site_fract_z
C1 C 0.17184 1.21797 0.21935
 C2 C 0.16299 1.24388 0.20749
 C3 C 0.17697 1.25452 0.18369
 C4 C 0.20085 1.23854 0.17262
 C5 C 0.20970 1.21249 0.18414
 C6 C 0.19507 1.20211 0.20752
 C7 C 0.15730 1.20751 0.24263
 C8 C 0.16533 1.18102 0.25442
 C9 C 0.18869 1.16537 0.24204
 C10 C 0.20345 1.17567 0.21885
 C11 C 0.22614 1.15956 0.20649
 C12 C 0.24079 1.16972 0.18312
 C13 C 0.23268 1.19638 0.17226
 H14 H 0.14401 1.25465 0.21625
 H15 H 0.21325 1.24639 0.15529
 H16 H 0.14034 1.22080 0.25189
 H17 H 0.19481 1.14439 0.24944
 H18 H 0.23251 1.13912 0.21508
 H19 H 0.24366 1.20413 0.15402
 C20 C 0.82288 0.77924 0.22429
 C21 C 0.83588 0.75433 0.21327
 C22 C 0.82690 0.74284 0.18839
 C23 C 0.80309 0.75633 0.17572
 C24 C 0.78974 0.78108 0.18669
 C25 C 0.80007 0.79291 0.21074
 C26 C 0.83300 0.79102 0.24835
 C27 C 0.82146 0.81714 0.25869
 C28 C 0.79868 0.83065 0.24466
 C29 C 0.78779 0.81860 0.22106
 C30 C 0.76496 0.83208 0.20748
 C31 C 0.75401 0.82014 0.18374
 C32 C 0.76662 0.79457 0.17352
 H33 H 0.85277 0.74385 0.22461
 H34 H 0.79577 0.74894 0.15635
 H35 H 0.85120 0.78059 0.25793
 H36 H 0.78853 0.85011 0.25250
 H37 H 0.75604 0.85215 0.21522
 H38 H 0.75829 0.78496 0.15541
 C39 C 0.82335 1.21928 -0.21427
 C40 C 0.83771 1.24243 -0.20281
 C41 C 0.82950 1.25258 -0.17685
 C42 C 0.80649 1.23956 -0.16246
 C43 C 0.79184 1.21658 -0.17371
 C44 C 0.80026 1.20640 -0.19973
 C45 C 0.83239 1.20832 -0.23966
 C46 C 0.81871 1.18444 -0.25114
 C47 C 0.79489 1.17252 -0.23653
 C48 C 0.78586 1.18308 -0.21100
 C49 C 0.76301 1.17020 -0.19629
 C50 C 0.75482 1.17995 -0.17019
 C51 C 0.76923 1.20328 -0.15912
 H52 H 0.85575 1.25215 -0.21379
 H53 H 0.79997 1.24740 -0.14249
 H54 H 0.85127 1.21767 -0.24947
 H55 H 0.78271 1.15526 -0.24501
 H56 H 0.75223 1.15194 -0.20474
 H57 H 0.76284 1.21105 -0.13909
 C58 C 0.17528 0.79811 -0.22289
 C59 C 0.16124 0.77477 -0.21070
 C60 C 0.17108 0.76258 -0.18625
 C61 C 0.19562 0.77482 -0.17437
 C62 C 0.21003 0.79797 -0.18651
 C63 C 0.19996 0.80952 -0.21094
 C64 C 0.16465 0.81053 -0.24666
 C65 C 0.17850 0.83416 -0.25878
 C66 C 0.20377 0.84467 -0.24719
 C67 C 0.21433 0.83280 -0.22322
 C68 C 0.23862 0.84435 -0.21101
 C69 C 0.24836 0.83356 -0.18617
 C70 C 0.23398 0.81019 -0.17417
 H71 H 0.14322 0.76568 -0.22113
 H72 H 0.20312 0.76736 -0.15498
 H73 H 0.14499 0.80239 -0.25516
 H74 H 0.21507 0.86242 -0.25661
 H75 H 0.24977 0.86199 -0.22079
 H76 H 0.24095 0.80190 -0.15485
 C77 C 0.54291 1.03249 -0.00816
 H78 H 0.54337 1.03237 0.01376
 C79 C 0.56198 1.04972 -0.02308
 H80 H 0.57670 1.06323 -0.01239
 C81 C 0.52298 1.01491 -0.04852
 H82 H 0.50811 1.00088 -0.05834
 C83 C 0.54185 1.03164 -0.06426
 H84 H 0.54133 1.03015 -0.08614
 N85 N 0.52384 1.01565 -0.02099
 C86 C 0.45583 0.99889 0.04019
 H87 H 0.45587 0.97575 0.04013
 C88 C 0.43605 1.01399 0.05697
 H89 H 0.42137 1.00221 0.07019
 C90 C 0.47499 1.04217 0.02290
 H91 H 0.48969 1.05312 0.00914
 C92 C 0.45543 1.05812 0.03917
 H93 H 0.45540 1.08122 0.03762
 Zn94 Zn 0.50037 0.99131 0.00067
 N95 N 0.47505 1.01309 0.02387
 C96 C 0.52321 0.96554 0.04826
 N97 N 0.52586 0.96787 0.02082
 C98 C 0.54813 0.95475 0.00677
 C99 C 0.56891 0.93853 0.02031
 C100 C 0.54327 0.94917 0.06258
 C101 C 0.45487 0.98272 -0.03404
 C102 C 0.43582 0.96761 -0.04994
 C103 C 0.46272 0.92419 -0.04016
 C104 C 0.48111 0.94013 -0.02416
 N105 N 0.47694 0.96887 -0.02153
 H106 H 0.50575 0.97652 0.05919
 H107 H 0.55004 0.95739 -0.01500
 H108 H 0.58688 0.92905 0.00870
 H109 H 0.54038 0.94724 0.08435
 H110 H 0.45187 1.00554 -0.03130
 H111 H 0.41797 0.97906 -0.05907
 H112 H 0.46670 0.90142 -0.04234
 H113 H 0.49862 0.92949 -0.01384
 C114 C 0.43561 1.04407 0.05658
 C115 C 0.56184 1.04927 -0.05157
 C116 C 0.43959 0.93790 -0.05326
 C117 C 0.56671 0.93556 0.04866
 C118 C -0.00119 0.54730 1.03089
 H119 H 0.02197 0.55050 1.02853
 C120 C -0.01810 0.56589 1.04715
 H121 H -0.00774 0.58352 1.05703
 C122 C -0.04281 0.52110 1.01977
 H123 H -0.05247 0.50391 1.00878
 C124 C -0.06052 0.53907 1.03596
 H125 H -0.08357 0.53501 1.03764
 N126 N -0.01366 0.52529 1.01779
 C127 C 0.05151 0.45811 1.00420
 H128 H 0.04934 0.45492 0.98264
 C129 C 0.06914 0.43960 1.01896
 H130 H 0.08020 0.42204 1.00851
 C131 C 0.03813 0.48394 1.04404
 H132 H 0.02563 0.50092 1.05383
 C133 C 0.05576 0.46611 1.05955
 H134 H 0.05703 0.47005 1.08109
 Zn135 Zn 0.01084 0.50170 0.99549
 N136 N 0.03637 0.47968 1.01687
 C137 C 0.06157 0.52421 0.96985
 N138 N 0.03208 0.52592 0.97176
 C139 C 0.01700 0.54638 0.95820
 C140 C 0.03165 0.56658 0.94231
 C141 C 0.07708 0.54377 0.95393
 C142 C -0.02578 0.45531 0.99025
 C143 C -0.04092 0.43410 0.97704
 C144 C -0.02548 0.45455 0.93410
 C145 C -0.01081 0.47558 0.94818
 N146 N -0.01122 0.47555 0.97576
 H147 H 0.07318 0.50796 0.98097
 H148 H -0.00643 0.54747 0.96040
 H149 H 0.01921 0.58329 0.93255
 H150 H 0.10053 0.54186 0.95257
 H151 H -0.02537 0.45554 1.01217
 H152 H -0.05266 0.41846 0.98907
 H153 H -0.02424 0.45450 0.91216
 H154 H 0.00145 0.49150 0.93706
 C155 C 0.07135 0.44334 1.04709
 C156 C -0.04822 0.56186 1.04993
 C157 C -0.04066 0.43328 0.94856
 C158 C 0.06217 0.56564 0.94019
 C159 C 1.02384 -0.00944 0.54394
 H160 H 1.01901 0.01292 0.54791
 C161 C 1.04069 -0.02519 0.56186
 H162 H 1.04843 -0.01474 0.57978
 C163 C 1.01820 -0.05031 0.51633
 H164 H 1.00918 -0.06000 0.49863
 C165 C 1.03522 -0.06683 0.53360
 H166 H 1.03948 -0.08910 0.52872
 N167 N 1.01292 -0.02216 0.52175
 C168 C 0.99842 0.03966 0.45763
 H169 H 0.97545 0.03693 0.45464
 C170 C 1.01471 0.05634 0.43952
 H171 H 1.00402 0.06622 0.42255
 C172 C 1.04042 0.02831 0.48239
 H173 H 1.05045 0.01692 0.49883
 C174 C 1.05750 0.04497 0.46489
 H175 H 1.08050 0.04665 0.46845
 Zn176 Zn 0.98876 0.00032 0.49956
 N177 N 1.01147 0.02583 0.47838
 C178 C 0.95830 0.04956 0.51972
 N179 N 0.96216 0.02081 0.52249
 C180 C 0.94865 0.00620 0.54294
 C181 C 0.93069 0.02059 0.56188
 C182 C 0.94030 0.06477 0.53806
 C183 C 0.98391 -0.03194 0.45257
 C184 C 0.96995 -0.04678 0.43232
 C185 C 0.92568 -0.04484 0.45984
 C186 C 0.94035 -0.02946 0.47936
 N187 N 0.96891 -0.02322 0.47531
 H188 H 0.96947 0.06086 0.50352
 H189 H 0.95249 -0.01658 0.54495
 H190 H 0.92100 0.00862 0.57852
 H191 H 0.93741 0.08761 0.53536
 H192 H 1.00657 -0.02660 0.44982
 H193 H 0.98197 -0.05301 0.41402
 H194 H 0.90282 -0.04928 0.46300
 H195 H 0.92876 -0.02210 0.49744
 C196 C 1.04478 0.05891 0.44280
 C197 C 1.04660 -0.05434 0.55687
 C198 C 0.94044 -0.05316 0.43579
 C199 C 0.92647 0.05035 0.55974
 C200 C 0.15003 0.30090 1.18529
 C201 C 0.13832 0.32476 1.17216
 C202 C 0.14318 0.32875 1.14437
 C203 C 0.16038 0.30876 1.12977
 C204 C 0.17188 0.28469 1.14272
 C205 C 0.16668 0.27992 1.17079
 N206 N 0.12925 0.35238 1.13122
 N207 N 0.13518 0.35895 1.10666
 C208 C 0.12007 0.38149 1.09298
 C209 C 0.13000 0.38986 1.06716
 C210 C 0.11469 0.41050 1.05254
 C211 C 0.08883 0.42291 1.06339
 C212 C 0.07920 0.41472 1.08957
 C213 C 0.09472 0.39431 1.10427
 H214 H 0.14635 0.29956 1.20698
 H215 H 0.12529 0.34020 1.18371
 H216 H 0.16416 0.31121 1.10814
 H217 H 0.18341 0.26923 1.13001
 H218 H 0.14953 0.38014 1.05825
 H219 H 0.12305 0.41663 1.03267
 H220 H 0.05915 0.42339 1.09840
 H221 H 0.08646 0.38799 1.12412
 C222 C -0.12849 0.71313 1.18160
 C223 C -0.11305 0.69119 1.16812
 C224 C -0.12626 0.67480 1.14849
 C225 C -0.15561 0.67990 1.14306
 C226 C -0.17128 0.70165 1.15668
 C227 C -0.15794 0.71921 1.17594
 N228 N -0.10913 0.65382 1.13384
 N229 N -0.11865 0.64065 1.11344
 C230 C -0.10114 0.62019 1.09847
 C231 C -0.11171 0.60885 1.07454
 C232 C -0.09466 0.58980 1.05883
 C233 C -0.06668 0.58157 1.06695
 C234 C -0.05635 0.59266 1.09131
 C235 C -0.07335 0.61185 1.10688
 H236 H -0.11642 0.72615 1.19527
 H237 H -0.09034 0.68754 1.17237
 H238 H -0.16646 0.66713 1.12825
 H239 H -0.19405 0.70398 1.15229
 H240 H -0.13304 0.61521 1.06779
 H241 H -0.10316 0.58204 1.04002
 H242 H -0.03515 0.58639 1.09842
 H243 H -0.06475 0.62020 1.12541
 C244 C -0.14805 0.30114 0.82074
 C245 C -0.13332 0.32356 0.83279
 C246 C -0.12458 0.32134 0.85967
 C247 C -0.13091 0.29641 0.87452
 C248 C -0.14587 0.27415 0.86262
 C249 C -0.15459 0.27628 0.83562
 N250 N -0.10958 0.34463 0.87155
 N251 N -0.09853 0.34242 0.89483
 C252 C -0.08389 0.36544 0.90745
 C253 C -0.06973 0.36008 0.93166
 C254 C -0.05552 0.38200 0.94484
 C255 C -0.05549 0.40994 0.93416
 C256 C -0.06972 0.41525 0.90973
 C257 C -0.08374 0.39318 0.89643
 H258 H -0.15472 0.30339 0.79996
 H259 H -0.12864 0.34268 0.82115
 H260 H -0.12444 0.29417 0.89535
 H261 H -0.15037 0.25511 0.87443
 H262 H -0.06962 0.33876 0.94028
 H263 H -0.04429 0.37694 0.96326
 H264 H -0.07045 0.43655 0.90112
 H265 H -0.09472 0.39785 0.87778
 C266 C 0.12712 0.73331 0.82126
 C267 C 0.11301 0.71030 0.83373
 C268 C 0.12766 0.69241 0.85161
 C269 C 0.15695 0.69746 0.85664
 C270 C 0.17126 0.72025 0.84405
 C271 C 0.15665 0.73895 0.82618
 N272 N 0.11229 0.66952 0.86460
 N273 N 0.12332 0.65478 0.88354
 C274 C 0.10807 0.63196 0.89675
 C275 C 0.11969 0.61969 0.91999
 C276 C 0.10494 0.59806 0.93397
 C277 C 0.07835 0.58797 0.92469
 C278 C 0.06703 0.60001 0.90096
 C279 C 0.08167 0.62190 0.88718
 H280 H 0.11413 0.74720 0.80877
 H281 H 0.09032 0.70675 0.82984
 H282 H 0.16891 0.68363 0.87012
 H283 H 0.19414 0.72228 0.84782
 H284 H 0.13998 0.62732 0.92760
 H285 H 0.11410 0.58975 0.95240
 H286 H 0.04690 0.59247 0.89294
 H287 H 0.07238 0.63090 0.86909
 C288 C 1.12095 0.17853 0.28388
 C289 C 1.10585 0.16724 0.30632
 C290 C 1.11917 0.14731 0.32320
 C291 C 1.14816 0.13907 0.31773
 C292 C 1.16343 0.15039 0.29541
 C293 C 1.15010 0.17019 0.27772
 N294 N 1.10260 0.13523 0.34528
 N295 N 1.11266 0.11511 0.35987
 C296 C 1.09596 0.10250 0.38158
 C297 C 1.10714 0.07829 0.39455
 C298 C 1.09077 0.06442 0.41474
 C299 C 1.06288 0.07474 0.42253
 C300 C 1.05204 0.09959 0.40992
 C301 C 1.06837 0.11329 0.38956
 H302 H 1.10893 0.19268 0.27081
 H303 H 1.08339 0.17359 0.31022
 H304 H 1.15909 0.12392 0.33073
 H305 H 1.18601 0.14407 0.29280
 H306 H 1.12834 0.06973 0.38851
 H307 H 1.09964 0.04511 0.42364
 H308 H 1.03089 0.10840 0.41572
 H309 H 1.05935 0.13214 0.37994
 C310 C 1.16665 -0.12122 0.71503
 C311 C 1.15390 -0.10723 0.69325
 C312 C 1.13966 -0.12275 0.67358
 C313 C 1.13884 -0.15271 0.67554
 C314 C 1.15195 -0.16683 0.69717
 C315 C 1.16580 -0.15122 0.71735
 N316 N 1.12571 -0.10741 0.65231
 N317 N 1.10875 -0.11930 0.63597
 C318 C 1.09464 -0.10331 0.61517
 C319 C 1.07229 -0.11597 0.60105
 C320 C 1.05691 -0.10027 0.58185
 C321 C 1.06390 -0.07162 0.57620
 C322 C 1.08703 -0.05931 0.58985
 C323 C 1.10214 -0.07492 0.60925
 H324 H 1.17653 -0.10839 0.73041
 H325 H 1.15455 -0.08411 0.69202
 H326 H 1.12810 -0.16518 0.66042
 H327 H 1.15127 -0.18995 0.69804
 H328 H 1.06626 -0.13782 0.60547
 H329 H 1.03902 -0.11036 0.57203
 H330 H 1.09347 -0.03756 0.58561
 H331 H 1.11956 -0.06474 0.61969
 C332 C 0.84544 -0.18706 0.30269
 C333 C 0.85776 -0.17437 0.32521
 C334 C 0.85877 -0.14463 0.32742
 C335 C 0.84629 -0.12754 0.30733
 C336 C 0.83332 -0.14009 0.28512
 C337 C 0.83308 -0.17015 0.28207
 N338 N 0.87306 -0.13223 0.34988
 N339 N 0.88157 -0.10647 0.34919
 C340 C 0.89582 -0.09353 0.37134
 C341 C 0.91121 -0.06838 0.36661
 C342 C 0.92594 -0.05543 0.38756
 C343 C 0.92490 -0.06715 0.41378
 C344 C 0.90896 -0.09207 0.41872
 C345 C 0.89475 -0.10539 0.39756
 H346 H 0.84491 -0.21018 0.30204
 H347 H 0.86706 -0.18779 0.34074
 H348 H 0.84675 -0.10444 0.30868
 H349 H 0.82499 -0.12596 0.26969
 H350 H 0.91209 -0.05901 0.34652
 H351 H 0.93790 -0.03607 0.38340
 H352 H 0.90791 -0.10141 0.43882
 H353 H 0.88279 -0.12474 0.40168
 C354 C 0.84568 0.18831 0.70480
 C355 C 0.85757 0.17566 0.68124
 C356 C 0.85316 0.14680 0.67579
 C357 C 0.83621 0.13065 0.69401
 C358 C 0.82449 0.14308 0.71772
 C359 C 0.82924 0.17219 0.72391
 N360 N 0.86722 0.13407 0.65238
 N361 N 0.86211 0.10860 0.64501
 C362 C 0.87731 0.09530 0.62250
 C363 C 0.86860 0.06838 0.61383
 C364 C 0.88405 0.05405 0.59300
 C365 C 0.90881 0.06634 0.58064
 C366 C 0.91722 0.09363 0.58919
 C367 C 0.90157 0.10803 0.60983
 H368 H 0.84905 0.21095 0.70741
 H369 H 0.87040 0.18843 0.66719
 H370 H 0.83276 0.10813 0.69039
 H371 H 0.81315 0.12906 0.73170
 H372 H 0.84992 0.05835 0.62343
 H373 H 0.87666 0.03331 0.58666
 H374 H 0.93643 0.10355 0.58051
 H375 H 0.90890 0.12874 0.61635
 C376 C 0.25957 1.12276 0.16489
 C377 C 0.28082 1.10626 0.15115
 C378 C 0.30681 1.11857 0.14202
 C379 C 0.31140 1.14776 0.14686
 C380 C 0.29003 1.16438 0.16038
 C381 C 0.26388 1.15204 0.16949
 N382 N 0.32774 1.10118 0.12733
 N383 N 0.35284 1.11019 0.12051
 C384 C 0.37336 1.09296 0.10514
 C385 C 0.40159 1.10289 0.10079
 C386 C 0.42193 1.08689 0.08536
 C387 C 0.41426 1.06069 0.07372
 C388 C 0.38583 1.05076 0.07823
 C389 C 0.36561 1.06667 0.09386
 H390 H 0.23948 1.11280 0.17141
 H391 H 0.27698 1.08382 0.14743
 H392 H 0.33130 1.15779 0.13992
 H393 H 0.29396 1.18685 0.16383
 H394 H 0.40784 1.12310 0.10941
 H395 H 0.44372 1.09499 0.08269
 H396 H 0.37899 1.03096 0.06921
 H397 H 0.34382 1.05863 0.09676
 C398 C 0.73654 1.15823 -0.12668
 C399 C 0.71548 1.14357 -0.11150
 C400 C 0.68949 1.13570 -0.12320
 C401 C 0.68471 1.14264 -0.15046
 C402 C 0.70590 1.15711 -0.16578
 C403 C 0.73202 1.16506 -0.15401
 N404 N 0.66869 1.12026 -0.10706
 N405 N 0.64359 1.11432 -0.11538
 C406 C 0.62337 1.09833 -0.09904
 C407 C 0.59504 1.09494 -0.10791
 C408 C 0.57493 1.07925 -0.09246
 C409 C 0.58294 1.06643 -0.06788
 C410 C 0.61150 1.06982 -0.05913
 C411 C 0.63147 1.08569 -0.07447
 H412 H 0.75662 1.16375 -0.11721
 H413 H 0.71945 1.13821 -0.09055
 H414 H 0.66478 1.13670 -0.15996
 H415 H 0.70182 1.16227 -0.18675
 H416 H 0.58851 1.10461 -0.12679
 H417 H 0.55304 1.07739 -0.09964
 H418 H 0.61862 1.05979 -0.04062
 H419 H 0.65332 1.08777 -0.06727
 C420 C 0.27592 0.87731 -0.17340
 C421 C 0.29844 0.89049 -0.16006
 C422 C 0.31800 0.87427 -0.14502
 C423 C 0.31516 0.84441 -0.14382
 C424 C 0.29285 0.83110 -0.15749
 C425 C 0.27280 0.84741 -0.17233
 N426 N 0.34021 0.88875 -0.13095
 N427 N 0.35600 0.87634 -0.11358
 C428 C 0.37790 0.89142 -0.09961
 C429 C 0.39059 0.87872 -0.07705
 C430 C 0.41086 0.89360 -0.06213
 C431 C 0.41910 0.92141 -0.06979
 C432 C 0.40691 0.93370 -0.09301
 C433 C 0.38639 0.91895 -0.10766
 H434 H 0.26061 0.89066 -0.18410
 H435 H 0.30035 0.91354 -0.16102
 H436 H 0.33021 0.83140 -0.13245
 H437 H 0.29143 0.80802 -0.15657
 H438 H 0.38420 0.85753 -0.07061
 H439 H 0.41945 0.88358 -0.04420
 H440 H 0.41320 0.95475 -0.09992
 H441 H 0.37714 0.92910 -0.12524
 C442 C 0.70714 0.84870 0.18433
 C443 C 0.68454 0.86257 0.17097
 C444 C 0.68364 0.86211 0.14267
 C445 C 0.70584 0.84780 0.12772
 C446 C 0.72871 0.83431 0.14102
 C447 C 0.72964 0.83450 0.16953
 N448 N 0.66036 0.87679 0.12960
 N449 N 0.65530 0.87312 0.10462
 C450 C 0.63260 0.88851 0.09136
 C451 C 0.62454 0.87980 0.06558
 C452 C 0.60284 0.89470 0.05189
 C453 C 0.58910 0.91901 0.06362
 C454 C 0.59737 0.92769 0.08957
 C455 C 0.61876 0.91250 0.10338
 H456 H 0.70679 0.84890 0.20628
 H457 H 0.66752 0.87351 0.18271
 H458 H 0.70578 0.84745 0.10578
 H459 H 0.74591 0.82415 0.12890
 H460 H 0.63502 0.86130 0.05612
 H461 H 0.59674 0.88703 0.03220
 H462 H 0.58779 0.94661 0.09905
 H463 H 0.62486 0.91983 0.12320
   
