data_POSCAR
  _audit_creation_date              2014-09-24
  _audit_creation_method            'ToBaCCo'
  _symmetry_space_group_name_H-M    'P1'
  _symmetry_Int_Tables_number       1
  _symmetry_cell_setting            triclinic
  loop_
  _symmetry_equiv_pos_as_xyz
 x,y,z
_cell_length_a 38.0022
_cell_length_b 37.9230
_cell_length_c 37.9802
_cell_angle_alpha 90.155700
_cell_angle_beta 89.974700
_cell_angle_gamma 89.859100
loop_
  _atom_site_label
  _atom_site_type_symbol
  _atom_site_fract_x
  _atom_site_fract_y
  _atom_site_fract_z
C1 C 0.23328 0.95961 0.01043
 C2 C 0.23488 0.95660 -0.02681
 C3 C 0.23512 0.98794 -0.04691
 C4 C 0.23133 1.02191 -0.03198
 C5 C 0.23013 1.02411 0.00524
 C6 C 0.23088 0.99330 0.02548
 H7 H 0.23080 0.99589 0.05395
 H8 H 0.23840 0.98561 -0.07507
 C9 C 0.73490 0.46105 0.51055
 C10 C 0.73434 0.45897 0.47345
 C11 C 0.72987 0.48973 0.45358
 C12 C 0.72629 0.52312 0.46953
 C13 C 0.72816 0.52530 0.50667
 C14 C 0.73222 0.49437 0.52642
 H15 H 0.73296 0.49643 0.55491
 H16 H 0.73002 0.48752 0.42511
 C17 C 0.76590 1.01062 0.95977
 C18 C 0.77127 0.97351 0.95756
 C19 C 0.77484 0.95411 0.98888
 C20 C 0.77278 0.96926 1.02287
 C21 C 0.76629 1.00616 1.02513
 C22 C 0.76415 1.02575 0.99381
 H23 H 0.75988 1.05391 0.99640
 H24 H 0.77772 0.92583 0.98627
 C25 C 0.26843 0.46946 0.45929
 C26 C 0.26366 0.50657 0.46019
 C27 C 0.26037 0.52333 0.49314
 C28 C 0.26206 0.50492 0.52517
 C29 C 0.26768 0.46800 0.52438
 C30 C 0.27015 0.45109 0.49142
 H31 H 0.27334 0.42269 0.49071
 H32 H 0.25630 0.55164 0.49390
 C33 C 1.02179 0.24932 0.03280
 C34 C 1.02253 0.24748 -0.00477
 C35 C 0.99036 0.24854 -0.02321
 C36 C 0.95761 0.25037 -0.00644
 C37 C 0.95657 0.25202 0.03059
 C38 C 0.98845 0.25290 0.04914
 H39 H 0.98681 0.25706 0.07732
 H40 H 0.99079 0.24778 -0.05178
 C41 C 0.45814 0.73974 0.52905
 C42 C 0.46044 0.74298 0.49203
 C43 C 0.49376 0.74622 0.47660
 C44 C 0.52486 0.74577 0.49641
 C45 C 0.52281 0.74138 0.53331
 C46 C 0.48932 0.73884 0.54894
 H47 H 0.48731 0.73734 0.57736
 H48 H 0.49566 0.74832 0.44818
 C49 C 0.00503 0.75283 -0.02434
 C50 C -0.03180 0.76038 -0.02197
 C51 C -0.04692 0.76269 0.01206
 C52 C -0.02753 0.75833 0.04329
 C53 C 0.00902 0.75176 0.04083
 C54 C 0.02410 0.74811 0.00726
 H55 H 0.05215 0.74294 0.00592
 H56 H -0.07507 0.76615 0.01475
 C57 C 0.47031 0.25491 0.54523
 C58 C 0.50745 0.25117 0.54256
 C59 C 0.52257 0.24802 0.50886
 C60 C 0.50264 0.24923 0.47776
 C61 C 0.46580 0.25405 0.48026
 C62 C 0.45043 0.25609 0.51394
 H63 H 0.42208 0.25863 0.51589
 H64 H 0.55083 0.24457 0.50668
 C65 C 1.04076 0.02611 0.23674
 C66 C 1.04076 -0.01147 0.23953
 C67 C 1.00869 -0.02921 0.24435
 C68 C 0.97613 -0.01187 0.24630
 C69 C 0.97615 0.02541 0.24504
 C70 C 1.00787 0.04357 0.24014
 H71 H 1.00640 0.07209 0.23884
 H72 H 1.00926 -0.05773 0.24639
 C73 C 0.54173 0.52981 0.72987
 C74 C 0.54090 0.49235 0.73065
 C75 C 0.50808 0.47547 0.73275
 C76 C 0.47649 0.49410 0.73648
 C77 C 0.47725 0.53133 0.73815
 C78 C 0.50972 0.54839 0.73326
 H79 H 0.51008 0.57694 0.73236
 H80 H 0.50700 0.44689 0.73312
 C81 C 1.02792 0.97988 0.73681
 C82 C 0.99118 0.98292 0.73277
 C83 C 0.97523 1.01578 0.73806
 C84 C 0.99422 1.04638 0.74701
 C85 C 1.03147 1.04348 0.75142
 C86 C 1.04737 1.01023 0.74536
 H87 H 1.07568 1.00769 0.74791
 H88 H 0.94687 1.01744 0.73514
 C89 C 0.52509 0.47327 0.24225
 C90 C 0.48894 0.47768 0.23520
 C91 C 0.47425 0.51145 0.23758
 C92 C 0.49405 0.54132 0.24676
 C93 C 0.53025 0.53701 0.25486
 C94 C 0.54510 0.50293 0.25191
 H95 H 0.57304 0.49937 0.25639
 H96 H 0.44613 0.51429 0.23361
 O97 O 0.26262 0.15945 0.17181
 O98 O 0.30161 0.14278 0.21728
 O99 O 0.17657 0.20712 0.22703
 O100 O 0.16534 0.25553 0.25885
 O101 O 0.22615 0.25686 0.13424
 O102 O 0.27768 0.29323 0.12959
 O103 O 0.26977 0.28783 0.32242
 O104 O 0.22886 0.24392 0.32732
 O105 O 0.36040 0.23382 0.27837
 O106 O 0.36964 0.19884 0.22551
 O107 O 0.32801 0.33211 0.23587
 O108 O 0.28209 0.35251 0.19918
 O109 O 0.27828 0.33308 0.28406
 O110 O 0.24066 0.35059 0.23178
 O111 O 0.36617 0.28581 0.23712
 O112 O 0.37285 0.23853 0.19053
 O113 O 0.31758 0.24236 0.31934
 O114 O 0.26940 0.19657 0.32151
 O115 O 0.27257 0.20451 0.13334
 O116 O 0.31428 0.25164 0.12807
 O117 O 0.18285 0.25644 0.17562
 O118 O 0.17713 0.29791 0.22726
 O119 O 0.21387 0.16052 0.22102
 O120 O 0.26158 0.14598 0.26235
 Zr121 Zr 0.26420 0.18410 0.22158
 O122 O 0.29890 0.20858 0.25736
 Zr123 Zr 0.20878 0.25199 0.22430
 O124 O 0.24050 0.27874 0.26077
 Zr125 Zr 0.27227 0.25029 0.16455
 O126 O 0.30683 0.27762 0.19822
 Zr127 Zr 0.27046 0.24287 0.29023
 O128 O 0.23500 0.21567 0.25696
 Zr129 Zr 0.33388 0.24144 0.23031
 O130 O 0.30197 0.21382 0.19392
 Zr131 Zr 0.27788 0.30902 0.23367
 O132 O 0.24342 0.28514 0.19671
 O133 O 0.23571 0.21877 0.19034
 O134 O 0.30706 0.27477 0.26495
 C135 C 0.26745 0.17190 0.14069
 C136 C 0.18299 0.17387 0.22500
 C137 C 0.19364 0.25795 0.14357
 C138 C 0.27329 0.32075 0.31522
 C139 C 0.34976 0.23726 0.31029
 C140 C 0.35907 0.31888 0.23766
 H141 H 0.31144 0.19045 0.27125
 H142 H 0.32310 0.29192 0.18386
 H143 H 0.21971 0.20577 0.17442
 H144 H 0.22504 0.29319 0.27603
 H145 H 0.21175 0.22574 0.31978
 H146 H 0.17513 0.25563 0.28295
 H147 H 0.37259 0.26102 0.17740
 H148 H 0.33145 0.23359 0.13580
 H149 H 0.27535 0.20337 0.34602
 H150 H 0.25301 0.12340 0.25227
 H151 H 0.29531 0.34441 0.17823
 H152 H 0.26158 0.31196 0.13813
 H153 H 0.32063 0.15127 0.20165
 H154 H 0.36074 0.17939 0.24032
 H155 H 0.18483 0.31370 0.20804
 H156 H 0.22355 0.34686 0.25104
 O157 O 0.75266 0.86307 0.22221
 O158 O 0.71740 0.87645 0.26931
 O159 O 0.84124 0.80983 0.27278
 O160 O 0.85046 0.76124 0.30449
 O161 O 0.79347 0.76283 0.17871
 O162 O 0.74026 0.73361 0.16738
 O163 O 0.74303 0.72458 0.36247
 O164 O 0.78577 0.76602 0.37047
 O165 O 0.65580 0.77926 0.31897
 O166 O 0.64778 0.81992 0.26940
 O167 O 0.68788 0.68585 0.27202
 O168 O 0.73605 0.66818 0.23332
 O169 O 0.73479 0.68240 0.32052
 O170 O 0.77445 0.66622 0.26930
 O171 O 0.65010 0.73229 0.26857
 O172 O 0.64525 0.78463 0.23088
 O173 O 0.69762 0.77147 0.36113
 O174 O 0.74654 0.81543 0.36673
 O175 O 0.75126 0.82058 0.17964
 O176 O 0.70597 0.77595 0.16933
 O177 O 0.83664 0.76208 0.22014
 O178 O 0.83959 0.71900 0.26945
 O179 O 0.80384 0.85659 0.26842
 O180 O 0.75703 0.86779 0.31338
 Zr181 Zr 0.75348 0.83380 0.26903
 O182 O 0.71748 0.80727 0.30158
 Zr183 Zr 0.80863 0.76546 0.26809
 O184 O 0.77542 0.73662 0.30170
 Zr185 Zr 0.74678 0.77229 0.20698
 O186 O 0.71110 0.74268 0.23727
 Zr187 Zr 0.74504 0.77091 0.33276
 O188 O 0.78177 0.79984 0.30261
 Zr189 Zr 0.68316 0.77671 0.27091
 O190 O 0.71635 0.80675 0.23798
 Zr191 Zr 0.73834 0.70876 0.27160
 O192 O 0.77405 0.73482 0.23743
 O193 O 0.78286 0.80124 0.23585
 O194 O 0.70858 0.74123 0.30420
 C195 C 0.75211 0.85299 0.18991
 C196 C 0.83471 0.84305 0.27127
 C197 C 0.82582 0.75999 0.18816
 C198 C 0.73810 0.69254 0.35275
 C199 C 0.66571 0.77601 0.35113
 C200 C 0.65683 0.69911 0.26955
 H201 H 0.70468 0.82454 0.31639
 H202 H 0.69537 0.72964 0.22116
 H203 H 0.79934 0.81450 0.22066
 H204 H 0.78991 0.72087 0.31652
 H205 H 0.80328 0.78452 0.36500
 H206 H 0.83984 0.75503 0.32740
 H207 H 0.64903 0.76624 0.21274
 H208 H 0.69077 0.79589 0.17668
 H209 H 0.74070 0.80735 0.39084
 H210 H 0.76713 0.89063 0.30576
 H211 H 0.71935 0.67578 0.21486
 H212 H 0.75136 0.71182 0.17647
 H213 H 0.69651 0.86858 0.25589
 H214 H 0.65453 0.83662 0.28826
 H215 H 0.83111 0.70360 0.25016
 H216 H 0.79085 0.66861 0.28938
 O217 O 0.75209 0.15968 0.79990
 O218 O 0.71524 0.14838 0.75231
 O219 O 0.84402 0.20600 0.75360
 O220 O 0.85665 0.25110 0.71884
 O221 O 0.79553 0.25433 0.84426
 O222 O 0.74583 0.29071 0.85288
 O223 O 0.75081 0.29744 0.65819
 O224 O 0.79158 0.25263 0.65035
 O225 O 0.65996 0.24803 0.70135
 O226 O 0.64753 0.21334 0.75094
 O227 O 0.70156 0.34244 0.74620
 O228 O 0.74704 0.35647 0.78544
 O229 O 0.75118 0.34050 0.70015
 O230 O 0.78986 0.35166 0.75444
 O231 O 0.66010 0.29944 0.74266
 O232 O 0.65094 0.25007 0.79052
 O233 O 0.70267 0.25432 0.65994
 O234 O 0.74885 0.20639 0.65431
 O235 O 0.74979 0.20288 0.84168
 O236 O 0.70688 0.25139 0.84961
 O237 O 0.83899 0.25757 0.80311
 O238 O 0.84822 0.29584 0.75023
 O239 O 0.80314 0.16225 0.75524
 O240 O 0.75634 0.15400 0.70859
 Zr241 Zr 0.75399 0.18841 0.75266
 O242 O 0.72020 0.21738 0.71943
 Zr243 Zr 0.81360 0.25234 0.75401
 O244 O 0.78352 0.28296 0.71916
 Zr245 Zr 0.74961 0.25098 0.81392
 O246 O 0.71754 0.28362 0.78260
 Zr247 Zr 0.75058 0.25103 0.68807
 O248 O 0.78500 0.21978 0.71915
 Zr249 Zr 0.68791 0.25154 0.74880
 O250 O 0.71780 0.21856 0.78238
 Zr251 Zr 0.74894 0.31428 0.74893
 O252 O 0.78107 0.28570 0.78420
 O253 O 0.78442 0.21933 0.78602
 O254 O 0.71707 0.28422 0.71604
 C255 C 0.75114 0.17029 0.83205
 C256 C 0.83515 0.17341 0.75514
 C257 C 0.82780 0.25779 0.83508
 C258 C 0.75162 0.32987 0.66796
 C259 C 0.67023 0.25190 0.66946
 C260 C 0.66977 0.33195 0.74243
 H261 H 0.70619 0.20096 0.70482
 H262 H 0.70234 0.29845 0.79774
 H263 H 0.79965 0.20535 0.80187
 H264 H 0.79962 0.29704 0.70437
 H265 H 0.80762 0.23278 0.65585
 H266 H 0.84680 0.25510 0.69511
 H267 H 0.64864 0.27416 0.80032
 H268 H 0.69093 0.23210 0.84235
 H269 H 0.74316 0.21484 0.63028
 H270 H 0.76510 0.13071 0.71665
 H271 H 0.73298 0.34850 0.80581
 H272 H 0.76070 0.31046 0.84471
 H273 H 0.69552 0.15705 0.76705
 H274 H 0.65596 0.19252 0.73763
 H275 H 0.84252 0.31201 0.76993
 H276 H 0.80505 0.34991 0.73334
 O277 O 0.23997 0.82027 0.79789
 O278 O 0.27589 0.82806 0.75006
 O279 O 0.14207 0.78642 0.74894
 O280 O 0.12536 0.74113 0.71419
 O281 O 0.18119 0.73028 0.84088
 O282 O 0.22778 0.69125 0.85172
 O283 O 0.22644 0.68265 0.65750
 O284 O 0.18948 0.72967 0.64877
 O285 O 0.31909 0.71828 0.70123
 O286 O 0.33398 0.76029 0.74988
 O287 O 0.27146 0.63512 0.74648
 O288 O 0.21996 0.62799 0.78725
 O289 O 0.22619 0.63975 0.69941
 O290 O 0.18295 0.63136 0.74885
 O291 O 0.31627 0.67448 0.75064
 O292 O 0.33067 0.72493 0.78884
 O293 O 0.27771 0.72486 0.65843
 O294 O 0.23433 0.77391 0.65326
 O295 O 0.23377 0.77895 0.84090
 O296 O 0.26934 0.72657 0.85052
 O297 O 0.13839 0.73683 0.79950
 O298 O 0.12735 0.69648 0.74956
 O299 O 0.18801 0.82461 0.75333
 O300 O 0.23475 0.82691 0.70683
 Zr301 Zr 0.23298 0.79256 0.75084
 O302 O 0.26373 0.76006 0.71819
 Zr303 Zr 0.16639 0.73616 0.75143
 O304 O 0.19421 0.70134 0.71787
 Zr305 Zr 0.22869 0.73092 0.81276
 O306 O 0.25863 0.69526 0.78243
 Zr307 Zr 0.23019 0.72942 0.68680
 O308 O 0.19905 0.76473 0.71698
 Zr309 Zr 0.29182 0.72386 0.74893
 O310 O 0.26462 0.75936 0.78194
 Zr311 Zr 0.22573 0.66702 0.74794
 O312 O 0.19504 0.69948 0.78184
 O313 O 0.19841 0.76610 0.78406
 O314 O 0.26056 0.69379 0.71552
 C315 C 0.23936 0.81068 0.83028
 C316 C 0.15505 0.81768 0.75140
 C317 C 0.14885 0.73283 0.83143
 C318 C 0.22613 0.65022 0.66724
 C319 C 0.30949 0.71998 0.66889
 C320 C 0.30431 0.64303 0.74828
 H321 H 0.27937 0.77476 0.70352
 H322 H 0.27190 0.67953 0.79837
 H323 H 0.18485 0.78202 0.79972
 H324 H 0.17746 0.68831 0.70281
 H325 H 0.17443 0.75035 0.65415
 H326 H 0.13355 0.72955 0.69231
 H327 H 0.32419 0.70706 0.80661
 H328 H 0.28823 0.74286 0.84306
 H329 H 0.23884 0.76529 0.62899
 H330 H 0.22878 0.85116 0.71472
 H331 H 0.24019 0.63002 0.80351
 H332 H 0.21312 0.67195 0.84215
 H333 H 0.29560 0.81610 0.76219
 H334 H 0.33194 0.77562 0.72894
 H335 H 0.13378 0.67875 0.76754
 H336 H 0.16739 0.63699 0.72876
 O337 O 0.25072 0.36629 0.72868
 O338 O 0.21754 0.37892 0.77817
 O339 O 0.34361 0.31680 0.77596
 O340 O 0.35588 0.26872 0.80751
 O341 O 0.29273 0.26639 0.68466
 O342 O 0.23861 0.23574 0.67688
 O343 O 0.25005 0.22826 0.87079
 O344 O 0.29585 0.26845 0.87543
 O345 O 0.16286 0.27590 0.83333
 O346 O 0.15203 0.32262 0.78522
 O347 O 0.19313 0.18831 0.78162
 O348 O 0.24172 0.17285 0.74055
 O349 O 0.24200 0.18625 0.82860
 O350 O 0.27899 0.16953 0.77739
 O351 O 0.15461 0.23422 0.78032
 O352 O 0.14498 0.28640 0.74723
 O353 O 0.20788 0.27858 0.87274
 O354 O 0.25771 0.31967 0.87406
 O355 O 0.24973 0.32316 0.68675
 O356 O 0.20504 0.27868 0.67881
 O357 O 0.33802 0.26792 0.72374
 O358 O 0.34495 0.22567 0.77232
 O359 O 0.30447 0.36220 0.77178
 O360 O 0.26056 0.37263 0.81946
 Zr361 Zr 0.25518 0.33771 0.77602
 O362 O 0.22227 0.31043 0.81130
 Zr363 Zr 0.31236 0.27102 0.77291
 O364 O 0.28159 0.24109 0.80797
 Zr365 Zr 0.24715 0.27549 0.71505
 O366 O 0.21346 0.24581 0.74738
 Zr367 Zr 0.25262 0.27484 0.84085
 O368 O 0.28636 0.30491 0.80842
 Zr369 Zr 0.18686 0.27895 0.78311
 O370 O 0.21721 0.30919 0.74750
 Zr371 Zr 0.24333 0.21246 0.77987
 O372 O 0.27703 0.23917 0.74425
 O373 O 0.28386 0.30568 0.74173
 O374 O 0.21518 0.24424 0.81451
 C375 C 0.24977 0.35568 0.69649
 C376 C 0.33581 0.34976 0.77384
 C377 C 0.32563 0.26465 0.69244
 C378 C 0.24517 0.19617 0.86086
 C379 C 0.17516 0.27708 0.86491
 C380 C 0.16178 0.20116 0.78006
 H381 H 0.21004 0.32745 0.82687
 H382 H 0.19716 0.23265 0.73193
 H383 H 0.29921 0.31912 0.72557
 H384 H 0.29693 0.22549 0.82207
 H385 H 0.31303 0.28706 0.86935
 H386 H 0.34745 0.25826 0.82976
 H387 H 0.15036 0.27189 0.72622
 H388 H 0.18948 0.29797 0.68711
 H389 H 0.25488 0.31185 0.89880
 H390 H 0.26903 0.39575 0.81075
 H391 H 0.22227 0.17877 0.72428
 H392 H 0.25244 0.21498 0.68451
 H393 H 0.19604 0.36993 0.76658
 H394 H 0.15533 0.33475 0.80807
 H395 H 0.33483 0.20923 0.75477
 H396 H 0.29792 0.17390 0.79471
 O397 O 0.76536 0.66280 0.67092
 O398 O 0.80650 0.64694 0.71544
 O399 O 0.68084 0.70910 0.72966
 O400 O 0.66977 0.75778 0.76122
 O401 O 0.72676 0.76122 0.63525
 O402 O 0.77899 0.79688 0.62891
 O403 O 0.77462 0.79190 0.82123
 O404 O 0.73454 0.74714 0.82720
 O405 O 0.86524 0.73872 0.77578
 O406 O 0.87328 0.70283 0.72265
 O407 O 0.83125 0.83598 0.73359
 O408 O 0.78118 0.85393 0.69506
 O409 O 0.78244 0.83700 0.78250
 O410 O 0.74595 0.85591 0.73399
 O411 O 0.86979 0.78998 0.73375
 O412 O 0.87583 0.74259 0.68756
 O413 O 0.82302 0.74685 0.81744
 O414 O 0.77588 0.70053 0.82100
 O415 O 0.77301 0.70807 0.63219
 O416 O 0.81454 0.75471 0.62563
 O417 O 0.68448 0.75830 0.67761
 O418 O 0.67965 0.79990 0.72852
 O419 O 0.71848 0.66313 0.72115
 O420 O 0.76711 0.64913 0.76139
 Zr421 Zr 0.76835 0.68746 0.72076
 O422 O 0.80345 0.71240 0.75591
 Zr423 Zr 0.71210 0.75457 0.72526
 O424 O 0.74452 0.78205 0.76043
 Zr425 Zr 0.77400 0.75377 0.66373
 O426 O 0.80948 0.78128 0.69643
 Zr427 Zr 0.77544 0.74660 0.78933
 O428 O 0.73972 0.71861 0.75705
 Zr429 Zr 0.83758 0.74543 0.72804
 O430 O 0.80502 0.71766 0.69224
 Zr431 Zr 0.78110 0.81257 0.73239
 O432 O 0.74559 0.78819 0.69678
 O433 O 0.73852 0.72181 0.69044
 O434 O 0.81125 0.77868 0.76311
 C435 C 0.76854 0.67534 0.63959
 C436 C 0.68767 0.67598 0.72674
 C437 C 0.69448 0.76116 0.64546
 C438 C 0.77778 0.82483 0.81376
 C439 C 0.85511 0.74224 0.80790
 C440 C 0.86249 0.82299 0.73462
 H441 H 0.81644 0.69446 0.76963
 H442 H 0.82533 0.79558 0.68162
 H443 H 0.72216 0.70873 0.67494
 H444 H 0.72930 0.79649 0.77593
 H445 H 0.71770 0.72852 0.82019
 H446 H 0.68031 0.75939 0.78494
 H447 H 0.87452 0.76466 0.67378
 H448 H 0.83241 0.73737 0.63338
 H449 H 0.78196 0.70765 0.84539
 H450 H 0.75897 0.62641 0.75129
 H451 H 0.79993 0.84885 0.67769
 H452 H 0.76336 0.81573 0.63802
 H453 H 0.82460 0.65555 0.69881
 H454 H 0.86519 0.68370 0.73831
 H455 H 0.68728 0.81607 0.70958
 H456 H 0.72570 0.84901 0.74878
 O457 O 0.25941 0.65520 0.29458
 O458 O 0.22094 0.64434 0.24953
 O459 O 0.34718 0.70822 0.24955
 O460 O 0.35706 0.75520 0.21649
 O461 O 0.29837 0.74897 0.34272
 O462 O 0.24719 0.78288 0.35407
 O463 O 0.24962 0.79910 0.15954
 O464 O 0.29125 0.75628 0.14923
 O465 O 0.16055 0.74509 0.20148
 O466 O 0.15014 0.70729 0.24953
 O467 O 0.19937 0.83839 0.25361
 O468 O 0.24743 0.85198 0.28995
 O469 O 0.24173 0.83971 0.20318
 O470 O 0.28708 0.85111 0.25376
 O471 O 0.15965 0.79448 0.24513
 O472 O 0.15274 0.74243 0.29096
 O473 O 0.20267 0.75453 0.16006
 O474 O 0.25068 0.70841 0.15189
 O475 O 0.25520 0.69621 0.33840
 O476 O 0.20987 0.74200 0.34912
 O477 O 0.34090 0.75658 0.30126
 O478 O 0.34694 0.79830 0.25068
 O479 O 0.30805 0.66318 0.24350
 O480 O 0.25691 0.65354 0.20322
 Zr481 Zr 0.25759 0.68631 0.24864
 O482 O 0.22210 0.71554 0.21745
 Zr483 Zr 0.31472 0.75286 0.25247
 O484 O 0.28287 0.78374 0.21937
 Zr485 Zr 0.25206 0.74549 0.31297
 O486 O 0.21813 0.77842 0.28385
 Zr487 Zr 0.25095 0.75168 0.18743
 O488 O 0.28691 0.72067 0.21656
 Zr489 Zr 0.18901 0.74707 0.24888
 O490 O 0.22083 0.71362 0.28030
 Zr491 Zr 0.24750 0.81197 0.25107
 O492 O 0.28133 0.78318 0.28466
 O493 O 0.28763 0.71666 0.28291
 O494 O 0.21649 0.78210 0.21734
 C495 C 0.25832 0.66425 0.32724
 C496 C 0.33951 0.67570 0.24452
 C497 C 0.33032 0.75430 0.33333
 C498 C 0.24388 0.83060 0.17054
 C499 C 0.17041 0.75074 0.16969
 C500 C 0.16815 0.82723 0.24805
 H501 H 0.20840 0.69940 0.20225
 H502 H 0.20280 0.79186 0.30011
 H503 H 0.30402 0.70230 0.29722
 H504 H 0.29775 0.79938 0.20487
 H505 H 0.30838 0.73717 0.15404
 H506 H 0.34671 0.76111 0.19338
 H507 H 0.14961 0.76603 0.30169
 H508 H 0.19471 0.72240 0.34102
 H509 H 0.24389 0.71750 0.12840
 H510 H 0.26773 0.63047 0.20920
 H511 H 0.23408 0.84280 0.31030
 H512 H 0.26176 0.80334 0.34721
 H513 H 0.20082 0.65238 0.26406
 H514 H 0.15951 0.68724 0.23567
 H515 H 0.34008 0.81343 0.27084
 H516 H 0.29831 0.85285 0.23032
 O517 O 0.72905 0.31494 0.30981
 O518 O 0.77139 0.32638 0.26517
 O519 O 0.63926 0.27864 0.25361
 O520 O 0.62685 0.23462 0.21526
 O521 O 0.67812 0.21866 0.34361
 O522 O 0.72743 0.18075 0.35290
 O523 O 0.73261 0.18537 0.15978
 O524 O 0.69279 0.23115 0.15268
 O525 O 0.82149 0.22712 0.20863
 O526 O 0.83103 0.26514 0.26223
 O527 O 0.77801 0.13611 0.24653
 O528 O 0.72561 0.12358 0.28630
 O529 O 0.73324 0.14015 0.19922
 O530 O 0.69053 0.12562 0.24593
 O531 O 0.82029 0.17824 0.25135
 O532 O 0.83048 0.22409 0.29623
 O533 O 0.78093 0.23118 0.16474
 O534 O 0.73476 0.27756 0.16109
 O535 O 0.72676 0.26956 0.34915
 O536 O 0.76588 0.21987 0.35679
 O537 O 0.63670 0.22661 0.30101
 O538 O 0.62971 0.18805 0.24897
 O539 O 0.68279 0.31909 0.26145
 O540 O 0.73156 0.32812 0.21969
 Zr541 Zr 0.72950 0.28991 0.26038
 O542 O 0.76286 0.26168 0.22630
 Zr543 Zr 0.66639 0.22967 0.25411
 O544 O 0.69746 0.19869 0.21976
 Zr545 Zr 0.72668 0.22366 0.31751
 O546 O 0.76025 0.19250 0.28602
 Zr547 Zr 0.73248 0.23090 0.19178
 O548 O 0.69861 0.26244 0.22320
 Zr549 Zr 0.79239 0.22554 0.25560
 O550 O 0.76190 0.25650 0.29037
 Zr551 Zr 0.73017 0.16463 0.24890
 O552 O 0.69601 0.19268 0.28329
 O553 O 0.69542 0.25890 0.28983
 O554 O 0.76412 0.19566 0.21941
 C555 C 0.72756 0.30252 0.34124
 C556 C 0.65039 0.31043 0.25801
 C557 C 0.64606 0.22123 0.33308
 C558 C 0.73354 0.15236 0.16772
 C559 C 0.81272 0.22915 0.17603
 C560 C 0.81023 0.14635 0.24716
 H561 H 0.77787 0.27838 0.21318
 H562 H 0.77420 0.17652 0.30108
 H563 H 0.67998 0.27292 0.30552
 H564 H 0.68208 0.18553 0.20340
 H565 H 0.67634 0.25047 0.15896
 H566 H 0.63589 0.22326 0.19360
 H567 H 0.82439 0.20444 0.31216
 H568 H 0.78464 0.23667 0.35017
 H569 H 0.74035 0.27073 0.13648
 H570 H 0.72554 0.35153 0.22978
 H571 H 0.74630 0.12472 0.30205
 H572 H 0.71258 0.16216 0.34226
 H573 H 0.78850 0.31618 0.28198
 H574 H 0.82812 0.28248 0.24304
 H575 H 0.63652 0.16982 0.26631
 H576 H 0.67345 0.13304 0.22776
 C577 C 0.26054 0.10131 0.05554
 C578 C 0.23176 0.10682 0.07814
 N579 N 0.20156 0.08856 0.07299
 C580 C 0.19917 0.06418 0.04686
 C581 C 0.22853 0.05721 0.02542
 N582 N 0.25855 0.07612 0.03021
 N583 N 0.29067 0.11981 0.06061
 C584 C 0.29345 0.14327 0.08760
 C585 C 0.26525 0.14750 0.11111
 N586 N 0.23490 0.12943 0.10563
 H587 H 0.17536 0.04877 0.04421
 H588 H 0.31766 0.15783 0.09122
 C589 C 0.75779 0.60484 0.55424
 C590 C 0.73138 0.60784 0.57997
 N591 N 0.70230 0.58730 0.57777
 C592 C 0.69891 0.56304 0.55162
 C593 C 0.72618 0.55846 0.52697
 N594 N 0.75497 0.57973 0.52880
 N595 N 0.78672 0.62570 0.55635
 C596 C 0.79062 0.64912 0.58329
 C597 C 0.76501 0.65089 0.60990
 N598 N 0.73578 0.63040 0.60740
 H599 H 0.67622 0.54583 0.55137
 H600 H 0.81385 0.66555 0.58443
 C601 C 0.75620 0.93000 0.10980
 C602 C 0.77417 0.89780 0.10653
 N603 N 0.79347 0.89115 0.07738
 C604 C 0.79483 0.91471 0.05066
 C605 C 0.77512 0.94646 0.05244
 N606 N 0.75673 0.95336 0.08263
 N607 N 0.73799 0.93700 0.13983
 C608 C 0.73674 0.91305 0.16650
 C609 C 0.75373 0.88025 0.16256
 N610 N 0.77217 0.87361 0.13263
 H611 H 0.81174 0.90864 0.02855
 H612 H 0.72196 0.91915 0.19012
 C613 C 0.24903 0.42894 0.61290
 C614 C 0.27215 0.40003 0.61294
 N615 N 0.29451 0.39512 0.58559
 C616 C 0.29442 0.41744 0.55774
 C617 C 0.27018 0.44562 0.55652
 N618 N 0.24811 0.45075 0.58447
 N619 N 0.22762 0.43439 0.64111
 C620 C 0.22806 0.41195 0.66911
 C621 C 0.25017 0.38218 0.66838
 N622 N 0.27177 0.37711 0.64026
 H623 H 0.31295 0.41295 0.53654
 H624 H 0.21058 0.41663 0.69115
 C625 C 0.76430 0.09365 0.91126
 C626 C 0.75150 0.08381 0.87820
 N627 N 0.74319 0.04947 0.87218
 C628 C 0.74754 0.02447 0.89764
 C629 C 0.76157 0.03405 0.93082
 N630 N 0.76908 0.06881 0.93619
 N631 N 0.77134 0.12794 0.91831
 C632 C 0.76629 0.15311 0.89354
 C633 C 0.75405 0.14351 0.85991
 N634 N 0.74698 0.10887 0.85299
 H635 H 0.73816 -0.00181 0.89231
 H636 H 0.77261 0.18021 0.89985
 C637 C 0.27363 0.58664 0.40534
 C638 C 0.25365 0.57876 0.37532
 N639 N 0.23797 0.54663 0.37271
 C640 C 0.24131 0.52216 0.39881
 C641 C 0.26181 0.52990 0.42875
 N642 N 0.27729 0.56217 0.43094
 N643 N 0.28792 0.61911 0.40922
 C644 C 0.28305 0.64434 0.38444
 C645 C 0.26329 0.63672 0.35408
 N646 N 0.24921 0.60385 0.35004
 H647 H 0.22732 0.49745 0.39662
 H648 H 0.29484 0.67003 0.38823
 C649 C 0.25151 0.89509 0.90134
 C650 C 0.23275 0.86508 0.91163
 N651 N 0.21609 0.86506 0.94331
 C652 C 0.21716 0.89380 0.96499
 C653 C 0.23564 0.92431 0.95440
 N654 N 0.25226 0.92357 0.92266
 N655 N 0.26736 0.89612 0.86946
 C656 C 0.26476 0.86860 0.84686
 C657 C 0.24521 0.83867 0.85642
 N658 N 0.22993 0.83736 0.88893
 H659 H 0.20197 0.89337 0.98905
 H660 H 0.27741 0.87036 0.82138
 C661 C 0.71404 0.38338 0.41556
 C662 C 0.74738 0.36790 0.41090
 N663 N 0.77544 0.38115 0.42868
 C664 C 0.77173 0.40950 0.45047
 C665 C 0.73865 0.42569 0.45400
 N666 N 0.71059 0.41217 0.43646
 N667 N 0.68585 0.37013 0.39820
 C668 C 0.68958 0.34256 0.37566
 C669 C 0.72306 0.32815 0.36960
 N670 N 0.75131 0.34089 0.38759
 H671 H 0.79450 0.42004 0.46395
 H672 H 0.66678 0.33245 0.36193
 C673 C 0.11209 0.25665 0.06780
 C674 C 0.10713 0.24429 0.10215
 N675 N 0.07563 0.23115 0.11186
 C676 C 0.04817 0.23097 0.08922
 C677 C 0.05176 0.24549 0.05503
 N678 N 0.08433 0.25706 0.04509
 N679 N 0.14433 0.26891 0.05820
 C680 C 0.17160 0.26958 0.08163
 C681 C 0.16607 0.25810 0.11641
 N682 N 0.13391 0.24553 0.12547
 H683 H 0.02397 0.21892 0.09801
 H684 H 0.19700 0.27943 0.07341
 C685 C 0.61079 0.76155 0.57250
 C686 C 0.61042 0.73989 0.60235
 N687 N 0.58274 0.71832 0.60829
 C688 C 0.55494 0.71770 0.58596
 C689 C 0.55427 0.74031 0.55659
 N690 N 0.58250 0.76170 0.55056
 N691 N 0.63940 0.78210 0.56613
 C692 C 0.66746 0.78213 0.58854
 C693 C 0.66634 0.76135 0.61910
 N694 N 0.63781 0.74068 0.62503
 H695 H 0.53354 0.69970 0.59120
 H696 H 0.68988 0.79879 0.58309
 C697 C 0.07605 0.72941 0.91515
 C698 C 0.06968 0.75134 0.88623
 N699 N 0.04136 0.77330 0.88687
 C700 C 0.01906 0.77416 0.91504
 C701 C 0.02498 0.75157 0.94404
 N702 N 0.05382 0.73013 0.94293
 N703 N 0.10509 0.70864 0.91576
 C704 C 0.12842 0.70900 0.88876
 C705 C 0.12239 0.73096 0.85962
 N706 N 0.09289 0.75156 0.85888
 H707 H -0.00188 0.79350 0.91535
 H708 H 0.15156 0.69233 0.89006
 C709 C 0.57104 0.21896 0.41489
 C710 C 0.56682 0.24223 0.38656
 N711 N 0.54037 0.26642 0.38752
 C712 C 0.51816 0.26860 0.41566
 C713 C 0.52237 0.24526 0.44414
 N714 N 0.54886 0.22103 0.44273
 N715 N 0.59847 0.19603 0.41515
 C716 C 0.62231 0.19557 0.38851
 C717 C 0.61849 0.21897 0.36015
 N718 N 0.59053 0.24163 0.35968
 H719 H 0.49834 0.28911 0.41632
 H720 H 0.64430 0.17740 0.38965
 C721 C 0.89822 0.74481 0.10502
 C722 C 0.90757 0.76556 0.13414
 N723 N 0.93902 0.78266 0.13397
 C724 C 0.96137 0.78011 0.10589
 C725 C 0.95201 0.75915 0.07671
 N726 N 0.92052 0.74210 0.07736
 N727 N 0.86629 0.72902 0.10399
 C728 C 0.84293 0.73324 0.13071
 C729 C 0.85193 0.75399 0.16004
 N730 N 0.88432 0.76952 0.16124
 H731 H 0.98557 0.79507 0.10592
 H732 H 0.81751 0.72052 0.12904
 C733 C 0.39593 0.24613 0.60798
 C734 C 0.40613 0.26761 0.63624
 N735 N 0.43801 0.28385 0.63513
 C736 C 0.46003 0.27966 0.60698
 C737 C 0.45000 0.25767 0.57876
 N738 N 0.41799 0.24163 0.58032
 N739 N 0.36352 0.23127 0.60782
 C740 C 0.34060 0.23699 0.63468
 C741 C 0.35060 0.25823 0.66333
 N742 N 0.38341 0.27294 0.66355
 H743 H 0.48450 0.29412 0.60623
 H744 H 0.31488 0.22480 0.63380
 C745 C 0.90330 0.26888 0.91523
 C746 C 0.87433 0.24659 0.91993
 N747 N 0.87198 0.22684 0.94966
 C748 C 0.89751 0.22824 0.97481
 C749 C 0.92642 0.25090 0.97025
 N750 N 0.92832 0.27059 0.94041
 N751 N 0.90702 0.28709 0.88479
 C752 C 0.88303 0.28390 0.85854
 C753 C 0.85380 0.26184 0.86316
 N754 N 0.84995 0.24384 0.89394
 H755 H 0.89581 0.21104 0.99741
 H756 H 0.88660 0.29862 0.83442
 C757 C 0.40652 0.76265 0.41330
 C758 C 0.37794 0.73968 0.41706
 N759 N 0.37602 0.71860 0.44587
 C760 C 0.40146 0.71945 0.47110
 C761 C 0.42987 0.74299 0.46770
 N762 N 0.43146 0.76387 0.43863
 N763 N 0.40972 0.78234 0.38372
 C764 C 0.38557 0.78003 0.35750
 C765 C 0.35666 0.75738 0.36127
 N766 N 0.35341 0.73781 0.39115
 H767 H 0.39999 0.70126 0.49291
 H768 H 0.38872 0.79596 0.33410
 C769 C 0.09654 0.10472 0.23668
 C770 C 0.12799 0.09249 0.22187
 N771 N 0.13013 0.05838 0.21101
 C772 C 0.10250 0.03579 0.21495
 C773 C 0.07108 0.04753 0.23131
 N774 N 0.06936 0.08219 0.24102
 N775 N 0.09350 0.13896 0.24652
 C776 C 0.12070 0.16169 0.24239
 C777 C 0.15274 0.14962 0.22812
 N778 N 0.15559 0.11507 0.21813
 H779 H 0.10488 0.00968 0.20389
 H780 H 0.11744 0.18880 0.25078
 C781 C 0.60271 0.60553 0.74005
 C782 C 0.63109 0.59624 0.71833
 N783 N 0.63031 0.56492 0.70079
 C784 C 0.60246 0.54250 0.70409
 C785 C 0.57426 0.55147 0.72654
 N786 N 0.57539 0.58302 0.74372
 N787 N 0.60236 0.63731 0.75645
 C788 C 0.62922 0.66042 0.75217
 C789 C 0.65809 0.65123 0.73085
 N790 N 0.65841 0.61911 0.71447
 H791 H 0.60208 0.51838 0.68884
 H792 H 0.62824 0.68556 0.76572
 C793 C 0.91647 0.09827 0.76713
 C794 C 0.92259 0.12938 0.74843
 N795 N 0.95406 0.13385 0.73200
 C796 C 0.97958 0.10848 0.73319
 C797 C 0.97362 0.07706 0.75207
 N798 N 0.94185 0.07326 0.76841
 N799 N 0.88435 0.09222 0.78142
 C800 C 0.85776 0.11589 0.77764
 C801 C 0.86358 0.14721 0.75887
 N802 N 0.89614 0.15342 0.74498
 H803 H 1.00221 0.11137 0.71629
 H804 H 0.83243 0.11041 0.78945
 C805 C 0.42271 0.60424 0.22737
 C806 C 0.42367 0.62716 0.25634
 N807 N 0.45022 0.62404 0.28019
 C808 C 0.47534 0.59844 0.27678
 C809 C 0.47399 0.57501 0.24799
 N810 N 0.44781 0.57922 0.22388
 N811 N 0.39512 0.60524 0.20478
 C812 C 0.36804 0.62802 0.20998
 C813 C 0.36877 0.65113 0.23885
 N814 N 0.39685 0.65054 0.26126
 H815 H 0.49477 0.59522 0.29733
 H816 H 0.34621 0.62824 0.19167
 C817 C 0.09148 0.90865 0.75821
 C818 C 0.08511 0.88352 0.73176
 N819 N 0.06012 0.89022 0.70706
 C820 C 0.04114 0.92078 0.70774
 C821 C 0.04707 0.94570 0.73466
 N822 N 0.07240 0.93884 0.75904
 N823 N 0.11726 0.90296 0.78216
 C824 C 0.13731 0.87335 0.78075
 C825 C 0.13116 0.84803 0.75439
 N826 N 0.10498 0.85358 0.73047
 H827 H 0.02205 0.92573 0.68721
 H828 H 0.15807 0.86965 0.79993
 C829 C 0.58515 0.39989 0.26579
 C830 C 0.58027 0.37585 0.23801
 N831 N 0.55696 0.38378 0.21207
 C832 C 0.53839 0.41458 0.21270
 C833 C 0.54309 0.43852 0.24075
 N834 N 0.56657 0.43038 0.26647
 N835 N 0.60946 0.39317 0.29093
 C836 C 0.62955 0.36365 0.28939
 C837 C 0.62507 0.33949 0.26165
 N838 N 0.60031 0.34602 0.23651
 H839 H 0.52072 0.42059 0.19120
 H840 H 0.64954 0.35949 0.30918
 C841 C 0.92104 0.91231 0.26787
 C842 C 0.88807 0.92269 0.25519
 N843 N 0.88442 0.95452 0.23948
 C844 C 0.91220 0.97678 0.23625
 C845 C 0.94550 0.96705 0.24981
 N846 N 0.94864 0.93455 0.26488
 N847 N 0.92525 0.87982 0.28215
 C848 C 0.89779 0.85703 0.28409
 C849 C 0.86461 0.86736 0.27135
 N850 N 0.86058 0.90011 0.25732
 H851 H 0.90837 1.00047 0.22117
 H852 H 0.90187 0.83117 0.29537
 C853 C 0.41784 0.42397 0.76961
 C854 C 0.38994 0.42521 0.74547
 N855 N 0.39033 0.44943 0.71924
 C856 C 0.41731 0.47272 0.71620
 C857 C 0.44449 0.47265 0.74128
 N858 N 0.44429 0.44772 0.76704
 N859 N 0.41878 0.39814 0.79429
 C860 C 0.39292 0.37349 0.79601
 C861 C 0.36456 0.37523 0.77242
 N862 N 0.36371 0.40117 0.74774
 H863 H 0.41800 0.49044 0.69393
 H864 H 0.39416 0.35311 0.81588
 C865 C 0.10389 0.26978 0.94970
 C866 C 0.10218 0.24638 0.92102
 N867 N 0.07722 0.22104 0.92034
 C868 C 0.05300 0.21874 0.94643
 C869 C 0.05298 0.24346 0.97437
 N870 N 0.07893 0.26824 0.97534
 N871 N 0.12944 0.29477 0.95045
 C872 C 0.15305 0.29757 0.92362
 C873 C 0.15027 0.27511 0.89424
 N874 N 0.12503 0.24983 0.89386
 H875 H 0.03283 0.19869 0.94462
 H876 H 0.17330 0.31757 0.92482
 C877 C 0.58524 0.77670 0.42706
 C878 C 0.61406 0.75383 0.43057
 N879 N 0.61432 0.72973 0.45700
 C880 C 0.58682 0.72725 0.47987
 C881 C 0.55793 0.75027 0.47640
 N882 N 0.55817 0.77443 0.44998
 N883 N 0.58368 0.79936 0.39956
 C884 C 0.60959 0.79998 0.37501
 C885 C 0.63850 0.77713 0.37831
 N886 N 0.64026 0.75474 0.40627
 H887 H 0.58696 0.70678 0.49965
 H888 H 0.60762 0.81805 0.35307
 C889 C 0.92920 0.74231 0.89102
 C890 C 0.89793 0.76183 0.89306
 N891 N 0.89115 0.78157 0.92200
 C892 C 0.91394 0.78233 0.94946
 C893 C 0.94516 0.76187 0.94850
 N894 N 0.95178 0.74238 0.91884
 N895 N 0.93638 0.72361 0.86124
 C896 C 0.91349 0.72345 0.83357
 C897 C 0.88163 0.74224 0.83613
 N898 N 0.87483 0.76103 0.86593
 H899 H 0.90791 0.79963 0.97134
 H900 H 0.91973 0.70827 0.81021
 C901 C 0.42404 0.23512 0.39307
 C902 C 0.39478 0.25776 0.39411
 N903 N 0.39028 0.27976 0.42190
 C904 C 0.41339 0.27980 0.44911
 C905 C 0.44210 0.25618 0.44910
 N906 N 0.44675 0.23444 0.42076
 N907 N 0.42906 0.21409 0.36446
 C908 C 0.40597 0.21454 0.33700
 C909 C 0.37606 0.23640 0.33863
 N910 N 0.37135 0.25755 0.36723
 H911 H 0.40922 0.29805 0.47068
 H912 H 0.41049 0.19751 0.31453
 C913 C 0.09114 0.76253 0.09245
 C914 C 0.08460 0.74277 0.12285
 N915 N 0.05283 0.72674 0.12673
 C916 C 0.02737 0.72956 0.10153
 C917 C 0.03373 0.74989 0.07121
 N918 N 0.06571 0.76567 0.06771
 N919 N 0.12316 0.77744 0.08754
 C920 C 0.14916 0.77351 0.11173
 C921 C 0.14282 0.75405 0.14254
 N922 N 0.11043 0.73924 0.14745
 H923 H 0.00292 0.71540 0.10475
 H924 H 0.17435 0.78596 0.10718
 C925 C 0.59035 0.26274 0.59283
 C926 C 0.58412 0.24351 0.62361
 N927 N 0.55235 0.22773 0.62825
 C928 C 0.52654 0.23029 0.60341
 C929 C 0.53248 0.25018 0.57273
 N930 N 0.56452 0.26573 0.56848
 N931 N 0.62248 0.27719 0.58714
 C932 C 0.64885 0.27336 0.61099
 C933 C 0.64271 0.25459 0.64224
 N934 N 0.61027 0.24021 0.64786
 H935 H 0.50215 0.21616 0.60719
 H936 H 0.67410 0.28547 0.60590
 C937 C 0.89695 0.22872 0.10383
 C938 C 0.86671 0.24875 0.09685
 N939 N 0.86585 0.26959 0.06775
 C940 C 0.89389 0.27121 0.04535
 C941 C 0.92397 0.25055 0.05206
 N942 N 0.92447 0.22998 0.08136
 N943 N 0.89896 0.20922 0.13359
 C944 C 0.87203 0.20890 0.15700
 C945 C 0.84144 0.22860 0.15015
 N946 N 0.83937 0.24803 0.12001
 H947 H 0.89292 0.28884 0.02304
 H948 H 0.87449 0.19338 0.18074
 C949 C 0.39364 0.71383 0.59719
 C950 C 0.36570 0.73732 0.59121
 N951 N 0.36773 0.76051 0.56408
 C952 C 0.39657 0.76140 0.54280
 C953 C 0.42458 0.73780 0.54875
 N954 N 0.42220 0.71464 0.57594
 N955 N 0.39265 0.69178 0.62519
 C956 C 0.36513 0.69249 0.64795
 C957 C 0.33726 0.71624 0.64240
 N958 N 0.33800 0.73793 0.61387
 H959 H 0.39802 0.78092 0.52213
 H960 H 0.36522 0.67503 0.67047
 C961 C 0.23933 0.11285 0.93469
 C962 C 0.22907 0.10839 0.89957
 N963 N 0.21756 0.07662 0.88835
 C964 C 0.21687 0.04852 0.91029
 C965 C 0.22892 0.05185 0.94548
 N966 N 0.23901 0.08460 0.95676
 N967 N 0.25041 0.14513 0.94575
 C968 C 0.25200 0.17295 0.92305
 C969 C 0.24252 0.16809 0.88753
 N970 N 0.23104 0.13583 0.87698
 H971 H 0.20598 0.02424 0.90018
 H972 H 0.26118 0.19827 0.93246
 C973 C 0.73673 0.61252 0.43004
 C974 C 0.71810 0.60865 0.39834
 N975 N 0.70018 0.57847 0.39198
 C976 C 0.70080 0.55151 0.41541
 C977 C 0.72104 0.55433 0.44642
 N978 N 0.73812 0.58520 0.45312
 N979 N 0.75409 0.64308 0.43661
 C980 C 0.75405 0.66975 0.41269
 C981 C 0.73656 0.66536 0.38031
 N982 N 0.71880 0.63486 0.37410
 H983 H 0.68616 0.52779 0.40949
 H984 H 0.76843 0.69368 0.41846
 C985 C 0.73612 0.07742 0.08531
 C986 C 0.75901 0.07422 0.11401
 N987 N 0.78325 0.04776 0.11419
 C988 C 0.78569 0.02442 0.08686
 C989 C 0.76219 0.02706 0.05830
 N990 N 0.73809 0.05379 0.05857
 N991 N 0.71343 0.10508 0.08370
 C992 C 0.71252 0.12983 0.10964
 C993 C 0.73485 0.12645 0.13885
 N994 N 0.75754 0.09850 0.14045
 H995 H 0.80638 0.00478 0.08697
 H996 H 0.69416 0.15162 0.10776
 C997 C 0.22985 0.57554 0.58491
 C998 C 0.25155 0.57171 0.61451
 N999 N 0.27590 0.54540 0.61509
 C1000 C 0.27955 0.52277 0.58737
 C1001 C 0.25738 0.52616 0.55786
 N1002 N 0.23319 0.55274 0.55761
 N1003 N 0.20694 0.60297 0.58315
 C1004 C 0.20486 0.62703 0.60963
 C1005 C 0.22634 0.62326 0.63945
 N1006 N 0.24913 0.59548 0.64130
 H1007 H 0.30018 0.50307 0.58801
 H1008 H 0.18669 0.64895 0.60742
 C1009 C 0.76169 0.89775 0.89659
 C1010 C 0.78489 0.90600 0.86913
 N1011 N 0.80263 0.93714 0.87017
 C1012 C 0.79824 0.96025 0.89750
 C1013 C 0.77432 0.95226 0.92467
 N1014 N 0.75688 0.92097 0.92327
 N1015 N 0.74526 0.86610 0.89697
 C1016 C 0.75084 0.84212 0.87101
 C1017 C 0.77351 0.85026 0.84293
 N1018 N 0.78995 0.88229 0.84252
 H1019 H 0.81361 0.98422 0.89834
 H1020 H 0.73707 0.81719 0.87191
 C1021 C 0.25968 0.39253 0.39952
 C1022 C 0.28015 0.40206 0.37036
 N1023 N 0.29611 0.43414 0.37011
 C1024 C 0.29248 0.45703 0.39770
 C1025 C 0.27130 0.44773 0.42668
 N1026 N 0.25567 0.41546 0.42657
 N1027 N 0.24490 0.36011 0.40093
 C1028 C 0.24956 0.33656 0.37440
 C1029 C 0.26960 0.34592 0.34471
 N1030 N 0.28436 0.37871 0.34331
 H1031 H 0.30661 0.48175 0.39733
 H1032 H 0.23717 0.31096 0.37624
 C1033 C 0.22535 0.90673 0.09209
 C1034 C 0.25014 0.87983 0.08667
 N1035 N 0.26878 0.87886 0.05617
 C1036 C 0.26365 0.90357 0.03074
 C1037 C 0.23794 0.92997 0.03557
 N1038 N 0.21972 0.93084 0.06647
 N1039 N 0.20799 0.90896 0.12325
 C1040 C 0.21421 0.88531 0.14933
 C1041 C 0.23847 0.85783 0.14375
 N1042 N 0.25579 0.85567 0.11239
 H1043 H 0.27993 0.90297 0.00738
 H1044 H 0.19975 0.88742 0.17382
 C1045 C 0.75602 0.40840 0.58987
 C1046 C 0.73842 0.37658 0.58342
 N1047 N 0.72084 0.37214 0.55263
 C1048 C 0.71999 0.39814 0.52799
 C1049 C 0.73799 0.43002 0.53418
 N1050 N 0.75550 0.43406 0.56520
 N1051 N 0.77202 0.41383 0.62130
 C1052 C 0.77103 0.38888 0.64683
 C1053 C 0.75354 0.35687 0.64049
 N1054 N 0.73782 0.35136 0.60873
 H1055 H 0.70408 0.39436 0.50476
 H1056 H 0.78392 0.39391 0.67175
 C1057 C 0.07881 0.12952 0.76062
 C1058 C 0.10629 0.12040 0.78356
 N1059 N 0.10662 0.08790 0.79834
 C1060 C 0.08133 0.06380 0.79042
 C1061 C 0.05487 0.07195 0.76557
 N1062 N 0.05433 0.10500 0.75173
 N1063 N 0.07786 0.16230 0.74646
 C1064 C 0.10345 0.18622 0.75376
 C1065 C 0.13201 0.17666 0.77536
 N1066 N 0.13262 0.14385 0.78994
 H1067 H 0.08256 0.03804 0.80255
 H1068 H 0.10226 0.21199 0.74162
 C1069 C 0.57549 0.62452 0.25551
 C1070 C 0.60352 0.61793 0.27868
 N1071 N 0.60536 0.58663 0.29567
 C1072 C 0.58098 0.56117 0.28989
 C1073 C 0.55391 0.56663 0.26507
 N1074 N 0.55165 0.59860 0.24878
 N1075 N 0.57331 0.65633 0.23928
 C1076 C 0.59821 0.68156 0.24471
 C1077 C 0.62721 0.67430 0.26657
 N1078 N 0.62896 0.64259 0.28319
 H1079 H 0.58319 0.53656 0.30408
 H1080 H 0.59617 0.70645 0.23097
 C1081 C 0.09385 0.90751 0.22904
 C1082 C 0.12163 0.91312 0.25257
 N1083 N 0.12421 0.94459 0.26963
 C1084 C 0.09988 0.97056 0.26456
 C1085 C 0.07207 0.96508 0.24073
 N1086 N 0.07011 0.93353 0.22357
 N1087 N 0.08986 0.87552 0.21346
 C1088 C 0.11261 0.84871 0.22026
 C1089 C 0.14094 0.85432 0.24330
 N1090 N 0.14489 0.88661 0.25875
 H1091 H 0.10149 0.99464 0.27983
 H1092 H 0.10920 0.82363 0.20701
 C1093 C 0.59428 0.41098 0.72200
 C1094 C 0.62342 0.41820 0.74336
 N1095 N 0.62649 0.45054 0.75857
 C1096 C 0.60148 0.47588 0.75367
 C1097 C 0.57224 0.46880 0.73201
 N1098 N 0.56975 0.43633 0.71674
 N1099 N 0.58989 0.37818 0.70838
 C1100 C 0.61342 0.35206 0.71520
 C1101 C 0.64294 0.35919 0.73629
 N1102 N 0.64737 0.39231 0.74967
 H1103 H 0.60371 0.50059 0.76775
 H1104 H 0.60946 0.32620 0.70375
 C1105 C 0.89917 0.08331 0.22955
 C1106 C 0.88281 0.08347 0.26277
 N1107 N 0.89759 0.06520 0.28970
 C1108 C 0.92790 0.04664 0.28486
 C1109 C 0.94435 0.04669 0.25172
 N1110 N 0.92966 0.06527 0.22488
 N1111 N 0.88429 0.10119 0.20248
 C1112 C 0.85405 0.11973 0.20723
 C1113 C 0.83816 0.12074 0.24058
 N1114 N 0.85292 0.10261 0.26772
 H1115 H 0.93903 0.03186 0.30653
 H1116 H 0.84307 0.13453 0.18549
 C1117 C 0.38562 0.56786 0.73836
 C1118 C 0.38989 0.59826 0.75892
 N1119 N 0.42145 0.60508 0.77402
 C1120 C 0.44931 0.58320 0.76889
 C1121 C 0.44586 0.55340 0.74689
 N1122 N 0.41374 0.54643 0.73251
 N1123 N 0.35374 0.56098 0.72362
 C1124 C 0.32613 0.58361 0.72800
 C1125 C 0.33095 0.61491 0.74729
 N1126 N 0.36277 0.62120 0.76246
 H1127 H 0.47407 0.58932 0.78154
 H1128 H 0.30128 0.57804 0.71525
 C1129 C 0.94476 0.89705 0.74150
 C1130 C 0.91660 0.90187 0.71803
 N1131 N 0.91528 0.93112 0.69770
 C1132 C 0.94036 0.95635 0.70039
 C1133 C 0.96759 0.95274 0.72527
 N1134 N 0.96932 0.92282 0.74504
 N1135 N 0.94632 0.86723 0.76118
 C1136 C 0.92073 0.84226 0.75876
 C1137 C 0.89179 0.84792 0.73641
 N1138 N 0.89060 0.87756 0.71643
 H1139 H 0.93845 0.97964 0.68407
 H1140 H 0.92234 0.81882 0.77489
 C1141 C 0.44135 0.39265 0.24489
 C1142 C 0.41356 0.39727 0.22097
 N1143 N 0.41264 0.42622 0.20020
 C1144 C 0.43782 0.45136 0.20285
 C1145 C 0.46471 0.44794 0.22813
 N1146 N 0.46598 0.41832 0.24835
 N1147 N 0.44257 0.36309 0.26499
 C1148 C 0.41696 0.33817 0.26252
 C1149 C 0.38840 0.34363 0.23967
 N1150 N 0.38756 0.37301 0.21931
 H1151 H 0.43633 0.47430 0.18601
 H1152 H 0.41826 0.31492 0.27896
   
