data_POSCAR
  _audit_creation_date              2014-09-24
  _audit_creation_method            'ToBaCCo'
  _symmetry_space_group_name_H-M    'P1'
  _symmetry_Int_Tables_number       1
  _symmetry_cell_setting            triclinic
  loop_
  _symmetry_equiv_pos_as_xyz
 x,y,z
_cell_length_a 11.4892
_cell_length_b 12.4100
_cell_length_c 11.7606
_cell_angle_alpha 89.999900
_cell_angle_beta 87.850700
_cell_angle_gamma 90.000100
loop_
  _atom_site_label
  _atom_site_type_symbol
  _atom_site_fract_x
  _atom_site_fract_y
  _atom_site_fract_z
O1 O 0.20039 0.06348 0.12734
 O2 O -0.19480 -0.05926 0.14766
 O3 O -0.05224 0.19147 0.14524
 O4 O 0.05154 -0.17852 0.14079
 O5 O -0.21594 0.12240 0.10142
 O6 O 0.21706 -0.11889 0.08065
 O7 O -0.13925 -0.20575 0.07409
 O8 O 0.14290 0.21249 0.06210
 C9 C 0.19804 0.16164 0.13459
 C10 C -0.18828 -0.15713 0.15486
 C11 C -0.15474 0.17078 0.17181
 C12 C 0.15640 -0.17021 0.15390
 O13 O 0.19478 -0.05926 -0.14766
 O14 O -0.20041 0.06347 -0.12734
 O15 O 0.05222 0.19147 -0.14524
 O16 O -0.05155 -0.17852 -0.14079
 O17 O -0.21707 -0.11889 -0.08065
 O18 O 0.21592 0.12240 -0.10142
 O19 O 0.13923 -0.20575 -0.07409
 O20 O -0.14292 0.21249 -0.06210
 Co21 Co 0.18809 0.00197 -0.00938
 Co22 Co -0.18811 0.00196 0.00938
 Co23 Co -0.00001 0.18256 0.00000
 Co24 Co -0.00001 -0.17174 -0.00000
 O25 O -0.00001 0.00414 0.00000
 C26 C 0.18827 -0.15713 -0.15486
 C27 C -0.19806 0.16164 -0.13459
 C28 C 0.15473 0.17078 -0.17181
 C29 C -0.15641 -0.17021 -0.15390
 O30 O 0.39622 0.30576 0.38218
 O31 O 0.64109 0.69625 0.42450
 O32 O 0.28856 0.63711 0.40595
 O33 O 0.73857 0.37054 0.47845
 O34 O 0.45895 0.67897 0.35401
 O35 O 0.60338 0.31463 0.37896
 O36 O 0.72349 0.54559 0.38467
 O37 O 0.32990 0.45970 0.32653
 C38 C 0.34490 0.36220 0.30905
 C39 C 0.70532 0.64033 0.35910
 C40 C 0.35519 0.68454 0.33677
 C41 C 0.70668 0.31035 0.40134
 O42 O 0.60376 0.30576 0.61782
 O43 O 0.35890 0.69625 0.57550
 O44 O 0.26141 0.37054 0.52156
 O45 O 0.71142 0.63711 0.59405
 O46 O 0.54103 0.67896 0.64599
 O47 O 0.39660 0.31462 0.62104
 O48 O 0.67009 0.45970 0.67347
 O49 O 0.27650 0.54560 0.61533
 Co50 Co 0.49999 0.32707 0.50000
 Co51 Co 0.49999 0.67143 0.50000
 Co52 Co 0.31146 0.50375 0.47149
 Co53 Co 0.68853 0.50375 0.52851
 O54 O 0.49999 0.50094 0.50000
 C55 C 0.65509 0.36220 0.69095
 C56 C 0.29467 0.64034 0.64090
 C57 C 0.29330 0.31036 0.59866
 C58 C 0.64479 0.68454 0.66323
 N59 N 0.26448 0.21306 0.21909
 N60 N 0.28537 0.31341 0.21796
 N61 N 0.75610 0.78889 0.24842
 N62 N 0.76499 0.68804 0.26360
 N63 N 0.73550 0.21306 0.78091
 N64 N 0.71461 0.31341 0.78204
 N65 N 0.24389 0.78889 0.75158
 N66 N 0.23499 0.68804 0.73640
 N67 N 0.19457 0.19729 0.73143
 N68 N 0.22297 0.22001 0.63222
 N69 N 0.79447 0.76841 0.75764
 N70 N 0.68619 0.75077 0.75216
 N71 N 0.20552 0.76841 0.24236
 N72 N 0.31380 0.75078 0.24784
 N73 N 0.80541 0.19728 0.26857
 N74 N 0.77701 0.22000 0.36778
   
