data_POSCAR
  _audit_creation_date              2014-09-24
  _audit_creation_method            'ToBaCCo'
  _symmetry_space_group_name_H-M    'P1'
  _symmetry_Int_Tables_number       1
  _symmetry_cell_setting            triclinic
  loop_
  _symmetry_equiv_pos_as_xyz
 x,y,z
_cell_length_a 59.7570
_cell_length_b 10.9703
_cell_length_c 11.1045
_cell_angle_alpha 76.798000
_cell_angle_beta 88.692800
_cell_angle_gamma 94.004900
loop_
  _atom_site_label
  _atom_site_type_symbol
  _atom_site_fract_x
  _atom_site_fract_y
  _atom_site_fract_z
C1 C 0.74935 0.22298 0.54043
 C2 C 0.74771 0.18758 0.66780
 C3 C 0.72595 0.18560 0.73731
 C4 C 0.76767 0.14924 0.73893
 C5 C 0.77178 0.24947 0.47265
 C6 C 0.72860 0.23209 0.46737
 C7 C 0.71283 0.28747 0.70388
 C8 C 0.69009 0.27510 0.73659
 C9 C 0.67998 0.16379 0.81385
 C10 C 0.69421 0.06865 0.86486
 C11 C 0.71687 0.07803 0.82373
 C12 C 0.77811 0.22803 0.80770
 C13 C 0.80032 0.21299 0.84192
 C14 C 0.81206 0.11737 0.80990
 C15 C 0.80048 0.02987 0.75470
 C16 C 0.77851 0.04609 0.71882
 C17 C 0.77726 0.18691 0.37993
 C18 C 0.79956 0.19329 0.33425
 C19 C 0.81662 0.26210 0.38108
 C20 C 0.81077 0.33332 0.46541
 C21 C 0.78851 0.32925 0.50849
 C22 C 0.71139 0.13514 0.49743
 C23 C 0.68994 0.15343 0.45446
 C24 C 0.68536 0.26660 0.37420
 C25 C 0.70288 0.36113 0.33656
 C26 C 0.72448 0.34348 0.38200
 H27 H 0.71988 0.37326 0.64310
 H28 H 0.68054 0.35493 0.70342
 H29 H 0.68751 -0.01855 0.92585
 H30 H 0.72682 -0.00155 0.85306
 H31 H 0.76990 0.30811 0.82400
 H32 H 0.80871 0.28021 0.88687
 H33 H 0.77059 -0.01575 0.66639
 H34 H 0.76460 0.12693 0.34861
 H35 H 0.80372 0.13828 0.26845
 H36 H 0.82359 0.38884 0.50115
 H37 H 0.78456 0.38331 0.57521
 H38 H 0.71416 0.04821 0.56191
 H39 H 0.67668 0.07974 0.48674
 H40 H 0.69975 0.44874 0.27387
 H41 H 0.73758 0.41902 0.35607
 H42 H 0.80899 -0.04499 0.72977
 C43 C 0.24905 0.70916 0.42389
 C44 C 0.24777 0.68760 0.55096
 C45 C 0.22622 0.69384 0.61890
 C46 C 0.26823 0.66540 0.62238
 C47 C 0.27073 0.74503 0.35124
 C48 C 0.22835 0.70486 0.35398
 C49 C 0.21305 0.79392 0.57518
 C50 C 0.19135 0.79385 0.62289
 C51 C 0.18221 0.69420 0.71749
 C52 C 0.19613 0.59921 0.77042
 C53 C 0.21809 0.59951 0.72172
 C54 C 0.28035 0.76523 0.65551
 C55 C 0.30341 0.76073 0.67202
 C56 C 0.31442 0.65361 0.66112
 C57 C 0.30089 0.54563 0.65249
 C58 C 0.27797 0.55170 0.63384
 C59 C 0.27731 0.68191 0.26135
 C60 C 0.29879 0.70921 0.20368
 C61 C 0.31386 0.80106 0.23446
 C62 C 0.30618 0.87271 0.31441
 C63 C 0.28467 0.84652 0.36931
 C64 C 0.21321 0.59855 0.38604
 C65 C 0.19112 0.60456 0.35099
 C66 C 0.18389 0.71636 0.27902
 C67 C 0.19973 0.81912 0.23534
 C68 C 0.22193 0.81320 0.27235
 H69 H 0.21937 0.86937 0.49905
 H70 H 0.18147 0.87072 0.58361
 H71 H 0.18974 0.52189 0.84511
 H72 H 0.22825 0.52325 0.76024
 H73 H 0.27250 0.85131 0.65446
 H74 H 0.31248 0.84477 0.68434
 H75 H 0.26805 0.46972 0.62206
 H76 H 0.26625 0.60802 0.23987
 H77 H 0.30403 0.65332 0.14087
 H78 H 0.31696 0.94743 0.33644
 H79 H 0.27888 0.90361 0.42836
 H80 H 0.21803 0.51391 0.44643
 H81 H 0.17944 0.52391 0.38763
 H82 H 0.19472 0.90565 0.17757
 H83 H 0.23349 0.89624 0.24614
 H84 H 0.30800 0.45766 0.65425
 C85 C 0.25114 0.18415 -0.40880
 C86 C 0.24804 0.21358 -0.53517
 C87 C 0.26763 0.26559 -0.62000
 C88 C 0.22505 0.21683 -0.58832
 C89 C 0.23209 0.18803 -0.32242
 C90 C 0.27391 0.16631 -0.35560
 C91 C 0.27832 0.37905 -0.60903
 C92 C 0.30071 0.40978 -0.64621
 C93 C 0.31284 0.32971 -0.70169
 C94 C 0.30070 0.22510 -0.73066
 C95 C 0.27812 0.19404 -0.69105
 C96 C 0.21962 0.31213 -0.68960
 C97 C 0.19724 0.32179 -0.72620
 C98 C 0.17975 0.23899 -0.65904
 C99 C 0.18574 0.13828 -0.56559
 C100 C 0.20795 0.12605 -0.53372
 C101 C 0.22195 0.07851 -0.24458
 C102 C 0.19965 0.07621 -0.20149
 C103 C 0.18716 0.18340 -0.23670
 C104 C 0.19918 0.29711 -0.29825
 C105 C 0.22146 0.29915 -0.33748
 C106 C 0.28928 0.10055 -0.40781
 C107 C 0.31157 0.10021 -0.37492
 C108 C 0.31892 0.15900 -0.28206
 C109 C 0.30312 0.21262 -0.21822
 C110 C 0.28078 0.21725 -0.25550
 H111 H 0.26969 0.43891 -0.56233
 H112 H 0.30871 0.49014 -0.61899
 H113 H 0.30871 0.16477 -0.78030
 H114 H 0.26966 0.10808 -0.70486
 H115 H 0.23240 0.38291 -0.73655
 H116 H 0.19356 0.40027 -0.79987
 H117 H 0.21157 0.04844 -0.46064
 H118 H 0.23033 -0.00788 -0.22829
 H119 H 0.19213 -0.01168 -0.14589
 H120 H 0.19121 0.38310 -0.33033
 H121 H 0.22976 0.38504 -0.39214
 H122 H 0.28421 0.05310 -0.47797
 H123 H 0.32328 0.05632 -0.42447
 H124 H 0.30838 0.25831 -0.14567
 H125 H 0.26925 0.26590 -0.21013
 H126 H 0.17316 0.06768 -0.51659
 C127 C -0.24648 0.74966 -0.52052
 C128 C -0.24791 0.77486 -0.64670
 C129 C -0.22828 0.77260 -0.72749
 C130 C -0.26940 0.80312 -0.70579
 C131 C -0.26746 0.71373 -0.44274
 C132 C -0.22426 0.75067 -0.46222
 C133 C -0.22012 0.88102 -0.81385
 C134 C -0.19824 0.88985 -0.86281
 C135 C -0.18410 0.79134 -0.82294
 C136 C -0.19417 0.67527 -0.75283
 C137 C -0.21608 0.66643 -0.70604
 C138 C -0.28066 0.90183 -0.68002
 C139 C -0.30325 0.90921 -0.70352
 C140 C -0.31508 0.81958 -0.75544
 C141 C -0.30280 0.73087 -0.79733
 C142 C -0.28006 0.72205 -0.77141
 C143 C -0.28150 0.61562 -0.46574
 C144 C -0.30424 0.60542 -0.43514
 C145 C -0.31386 0.68926 -0.37267
 C146 C -0.29893 0.78007 -0.33712
 C147 C -0.27597 0.79246 -0.37260
 C148 C -0.21740 0.64471 -0.37827
 C149 C -0.19492 0.64046 -0.34306
 C150 C -0.17910 0.74245 -0.39117
 C151 C -0.18655 0.85073 -0.46885
 C152 C -0.20878 0.85473 -0.50306
 H153 H -0.22990 0.96224 -0.83511
 H154 H -0.19224 0.97691 -0.92589
 H155 H -0.18488 0.59426 -0.71953
 H156 H -0.22271 0.58041 -0.64263
 H157 H -0.27228 0.96783 -0.63366
 H158 H -0.31154 0.98454 -0.67930
 H159 H -0.27135 0.64607 -0.79340
 H160 H -0.27524 0.55561 -0.52153
 H161 H -0.31405 0.53756 -0.47241
 H162 H -0.30476 0.84396 -0.28440
 H163 H -0.26526 0.86862 -0.35291
 H164 H -0.22907 0.56309 -0.34554
 H165 H -0.18971 0.55558 -0.28319
 H166 H -0.17507 0.93253 -0.50472
 H167 H -0.21377 0.93743 -0.56647
 H168 H -0.31105 0.66075 -0.83914
 N169 N 0.02418 1.26287 -0.20564
 N170 N 0.04433 1.32266 -0.21481
 N171 N -0.02363 1.15013 -0.25273
 N172 N -0.04380 1.13329 -0.29550
 N173 N -0.02293 1.24517 -0.19880
 N174 N -0.04231 1.29648 -0.20676
 N175 N 0.02424 1.17006 -0.26268
 N176 N 0.04453 1.16435 -0.30949
 C177 C 0.05678 1.26131 -0.28114
 C178 C -0.05508 1.22713 -0.26864
 N179 N -0.02346 0.79738 -0.07538
 N180 N -0.04261 0.72576 -0.05869
 N181 N 0.02397 0.90104 -0.19186
 N182 N 0.04164 0.89402 -0.26270
 N183 N 0.02435 0.81977 -0.08527
 N184 N 0.04250 0.75659 -0.08002
 N185 N -0.02316 0.88038 -0.18152
 N186 N -0.04171 0.86563 -0.24030
 Mn187 Mn 0.00031 1.02582 -0.22335
 C188 C -0.05369 0.76847 -0.16357
 C189 C 0.05306 0.80337 -0.19199
 N190 N -0.02422 1.25556 0.05761
 N191 N -0.04358 1.30810 0.04454
 N192 N 0.02278 1.19463 0.15860
 N193 N 0.04156 1.20501 0.21679
 N194 N 0.02378 1.27562 0.05110
 N195 N 0.04353 1.34119 0.03321
 N196 N -0.02456 1.17165 0.16325
 N197 N -0.04395 1.16648 0.22457
 Mn198 Mn 0.00026 1.26145 -0.07440
 C199 C -0.05565 1.25280 0.15009
 C200 C 0.05433 1.29738 0.13851
 N201 N 0.02386 0.83396 0.17025
 N202 N 0.04340 0.78463 0.18089
 N203 N -0.02397 0.90157 0.23514
 N204 N -0.04411 0.89641 0.28811
 N205 N -0.02262 0.80779 0.18074
 N206 N -0.04144 0.73557 0.19799
 N207 N 0.02352 0.92571 0.22847
 N208 N 0.04299 0.94126 0.27885
 Mn209 Mn 0.00058 0.81332 0.04798
 Mn210 Mn -0.00065 1.04844 0.19753
 Cl211 Cl 0.00013 1.03725 -0.01303
 C212 C 0.05506 0.85137 0.25010
 C213 C -0.05462 0.79074 0.26612
 N214 N 0.52419 0.37902 -0.14681
 N215 N 0.54139 0.36134 -0.21589
 N216 N 0.47715 0.28433 -0.02292
 N217 N 0.45812 0.21273 0.00284
 N218 N 0.47697 0.35743 -0.13462
 N219 N 0.45799 0.33636 -0.18743
 N220 N 0.52469 0.30773 -0.03469
 N221 N 0.54233 0.24008 -0.02455
 C222 C 0.55255 0.27397 -0.13881
 C223 C 0.44645 0.24494 -0.10133
 N224 N 0.47625 0.42548 0.26829
 N225 N 0.45607 0.42820 0.31804
 N226 N 0.52470 0.35169 0.21221
 N227 N 0.54470 0.30716 0.22579
 N228 N 0.52382 0.44939 0.26179
 N229 N 0.54315 0.47222 0.31082
 N230 N 0.47728 0.32447 0.22416
 N231 N 0.45794 0.25586 0.24497
 Mn232 Mn 0.50104 0.31554 0.09555
 C233 C 0.44494 0.32060 0.30491
 C234 C 0.55597 0.38243 0.28891
 N235 N 0.47659 0.62532 -0.23495
 N236 N 0.45775 0.61433 -0.29319
 N237 N 0.52416 0.74571 -0.19793
 N238 N 0.54360 0.81335 -0.22367
 N239 N 0.52403 0.64643 -0.24555
 N240 N 0.54342 0.64424 -0.30364
 N241 N 0.47714 0.72581 -0.18938
 N242 N 0.45893 0.78583 -0.21586
 Mn243 Mn 0.50039 0.50184 -0.19190
 C244 C 0.44705 0.71648 -0.28177
 C245 C 0.55541 0.74968 -0.29098
 N246 N 0.52299 0.71570 0.16343
 N247 N 0.54257 0.72606 0.21399
 N248 N 0.47597 0.76418 0.05736
 N249 N 0.45709 0.82100 0.04080
 N250 N 0.47602 0.69283 0.16977
 N251 N 0.45753 0.70181 0.23335
 N252 N 0.52374 0.78515 0.04981
 N253 N 0.54406 0.84096 0.02039
 Mn254 Mn 0.49969 0.57077 0.21715
 Mn255 Mn 0.50028 0.75675 -0.07030
 Cl256 Cl 0.50037 0.53617 0.01236
 C257 C 0.55546 0.80523 0.12448
 C258 C 0.44594 0.78263 0.15214
 C259 C 0.34759 0.46880 0.27598
 C260 C 0.33660 0.34869 0.28401
 C261 C 0.35005 0.24632 0.29091
 C262 C 0.37347 0.26262 0.29924
 C263 C 0.38379 0.38289 0.29644
 C264 C 0.37076 0.48512 0.28305
 C265 C 0.40706 0.39966 0.30611
 C266 C 0.42033 0.29766 0.31639
 C267 C 0.41000 0.17752 0.32155
 C268 C 0.38670 0.16009 0.31391
 H269 H 0.34246 0.15202 0.29994
 H270 H 0.37854 0.57760 0.28005
 H271 H 0.41489 0.49309 0.30067
 H272 H 0.37901 0.06715 0.31774
 H273 H 0.33842 0.55174 0.26371
 H274 H 0.42000 0.09773 0.32883
 C275 C -0.15000 0.93609 0.15068
 C276 C -0.16040 0.81320 0.16569
 C277 C -0.14653 0.71188 0.18771
 C278 C -0.12396 0.73029 0.21277
 C279 C -0.11427 0.85303 0.20413
 C280 C -0.12715 0.95535 0.16772
 C281 C -0.09181 0.87151 0.23156
 C282 C -0.07891 0.76846 0.26660
 C283 C -0.08857 0.64644 0.27542
 C284 C -0.11104 0.62734 0.24921
 H285 H -0.15314 0.61729 0.18894
 H286 H -0.11975 1.05011 0.15767
 H287 H -0.08416 0.96617 0.22066
 H288 H -0.11825 0.53254 0.25655
 H289 H -0.15937 1.01858 0.13434
 H290 H -0.07853 0.56646 0.29874
 C291 C 0.64882 0.85058 0.33650
 C292 C 0.66130 0.81609 0.24164
 C293 C 0.64965 0.77930 0.14528
 C294 C 0.62633 0.78592 0.13958
 C295 C 0.61423 0.82139 0.23556
 C296 C 0.62558 0.85103 0.33460
 C297 C 0.59103 0.83035 0.22911
 C298 C 0.57994 0.80933 0.12549
 C299 C 0.59197 0.77541 0.02976
 C300 C 0.61499 0.76252 0.03715
 H301 H 0.65876 0.75493 0.06970
 H302 H 0.61657 0.87858 0.40868
 H303 H 0.58162 0.85478 0.30379
 H304 H 0.62392 0.73527 -0.03739
 H305 H 0.65695 0.87551 0.41438
 H306 H 0.58334 0.75399 -0.04833
 C307 C 0.14106 1.22496 0.42281
 C308 C 0.15672 1.25703 0.32116
 C309 C 0.14866 1.30541 0.20229
 C310 C 0.12544 1.31545 0.18577
 C311 C 0.11023 1.28103 0.28935
 C312 C 0.11826 1.23778 0.40718
 C313 C 0.08709 1.28579 0.27346
 C314 C 0.07864 1.32105 0.15479
 C315 C 0.09379 1.36038 0.05235
 C316 C 0.11701 1.35685 0.06760
 H317 H 0.16016 1.32991 0.12210
 H318 H 0.10679 1.21147 0.48727
 H319 H 0.07554 1.25533 0.35321
 H320 H 0.12833 1.38348 -0.01314
 H321 H 0.14644 1.19262 0.51629
 H322 H 0.08762 1.38814 -0.03990
 C323 C 0.64752 0.08553 -0.04801
 C324 C 0.65730 0.15096 -0.16366
 C325 C 0.64275 0.20630 -0.25616
 C326 C 0.61959 0.20351 -0.23129
 C327 C 0.61061 0.15162 -0.11074
 C328 C 0.62457 0.08929 -0.02128
 C329 C 0.58807 0.16703 -0.08126
 C330 C 0.57459 0.23397 -0.17212
 C331 C 0.58313 0.27214 -0.29496
 C332 C 0.60533 0.25498 -0.32449
 H333 H 0.64931 0.24892 -0.34931
 H334 H 0.61777 0.04592 0.07022
 H335 H 0.58148 0.13323 0.01318
 H336 H 0.61171 0.28865 -0.41904
 H337 H 0.65779 0.04176 0.02626
 H338 H 0.57294 0.32027 -0.36763
 C339 C 0.15068 0.65083 -0.11954
 C340 C 0.15806 0.69011 -0.24435
 C341 C 0.14225 0.73102 -0.33422
 C342 C 0.11978 0.73869 -0.29970
 C343 C 0.11263 0.70215 -0.17380
 C344 C 0.12816 0.65672 -0.08499
 C345 C 0.09035 0.71660 -0.13883
 C346 C 0.07545 0.77115 -0.22845
 C347 C 0.08267 0.80402 -0.35364
 C348 C 0.10453 0.78630 -0.38890
 H349 H 0.14747 0.75837 -0.43140
 H350 H 0.12290 0.62771 0.01132
 H351 H 0.08499 0.69151 -0.04180
 H352 H 0.10973 0.81339 -0.48552
 H353 H 0.16239 0.61892 -0.04823
 H354 H 0.07149 0.84544 -0.42440
 C355 C 0.35012 0.56840 -0.40178
 C356 C 0.33955 0.65569 -0.34796
 C357 C 0.35334 0.74797 -0.30890
 C358 C 0.37677 0.74973 -0.31873
 C359 C 0.38690 0.65445 -0.36195
 C360 C 0.37345 0.56660 -0.40662
 C361 C 0.41024 0.64783 -0.35796
 C362 C 0.42348 0.73617 -0.31155
 C363 C 0.41344 0.83739 -0.27998
 C364 C 0.39029 0.84431 -0.28389
 H365 H 0.34622 0.81734 -0.26758
 H366 H 0.38099 0.49710 -0.44619
 H367 H 0.41790 0.57102 -0.38531
 H368 H 0.38290 0.92131 -0.25555
 H369 H 0.34059 0.50109 -0.44159
 H370 H 0.42335 0.90837 -0.24645
 C371 C -0.15276 1.00452 -0.15398
 C372 C -0.16318 1.11804 -0.18314
 C373 C -0.14976 1.23182 -0.22118
 C374 C -0.12638 1.23172 -0.23514
 C375 C -0.11624 1.11645 -0.20998
 C376 C -0.12949 1.00392 -0.16651
 C377 C -0.09299 1.11556 -0.22828
 C378 C -0.07964 1.22872 -0.26787
 C379 C -0.08970 1.34315 -0.29003
 C380 C -0.11297 1.34468 -0.27553
 H381 H -0.15756 1.31996 -0.24611
 H382 H -0.12187 0.91548 -0.14329
 H383 H -0.08517 1.02723 -0.20727
 H384 H -0.12043 1.43404 -0.29434
 H385 H -0.16266 0.91581 -0.12292
 H386 H -0.07952 1.43132 -0.31769
 C387 C 0.64870 0.57724 -0.36489
 C388 C 0.66231 0.68477 -0.35388
 C389 C 0.65113 0.78823 -0.33113
 C390 C 0.62743 0.78493 -0.32686
 C391 C 0.61478 0.67770 -0.34464
 C392 C 0.62555 0.57513 -0.36230
 C393 C 0.59140 0.67202 -0.34171
 C394 C 0.57996 0.77038 -0.31561
 C395 C 0.59240 0.87885 -0.29926
 C396 C 0.61600 0.88657 -0.30633
 H397 H 0.66044 0.87391 -0.32310
 H398 H 0.61593 0.49271 -0.37489
 H399 H 0.58210 0.58746 -0.35395
 H400 H 0.62529 0.97022 -0.29295
 H401 H 0.65542 0.49160 -0.37472
 H402 H 0.58392 0.95583 -0.27782
 C403 C 0.15047 1.05912 -0.21220
 C404 C 0.16324 1.17534 -0.22449
 C405 C 0.15132 1.28472 -0.23780
 C406 C 0.12805 1.27995 -0.25141
 C407 C 0.11591 1.16361 -0.24392
 C408 C 0.12717 1.05376 -0.22087
 C409 C 0.09270 1.15905 -0.25961
 C410 C 0.08143 1.26971 -0.28136
 C411 C 0.09358 1.38527 -0.28845
 C412 C 0.11676 1.39031 -0.27422
 H413 H 0.15983 1.37499 -0.23820
 H414 H 0.11798 0.96387 -0.21371
 H415 H 0.08333 1.06907 -0.25152
 H416 H 0.12586 1.48011 -0.28022
 H417 H 0.15821 0.97171 -0.20402
 H418 H 0.08508 1.47122 -0.30300
 C419 C 0.35774 0.22164 -0.36841
 C420 C 0.34334 0.17515 -0.26386
 C421 C 0.35250 0.14403 -0.14609
 C422 C 0.37590 0.16000 -0.13394
 C423 C 0.39005 0.20843 -0.24054
 C424 C 0.38083 0.23726 -0.35711
 C425 C 0.41317 0.23068 -0.22912
 C426 C 0.42262 0.20443 -0.11252
 C427 C 0.40873 0.15060 -0.00724
 C428 C 0.38550 0.12983 -0.01766
 H429 H 0.34152 0.10688 -0.06499
 H430 H 0.39146 0.27413 -0.43939
 H431 H 0.42376 0.27139 -0.31106
 H432 H 0.37503 0.09204 0.06520
 H433 H 0.35097 0.24803 -0.45928
 H434 H 0.41572 0.12868 0.08348
 C435 C -0.13898 0.78920 -0.46517
 C436 C -0.15468 0.73680 -0.36755
 C437 C -0.14678 0.68593 -0.24911
 C438 C -0.12355 0.69396 -0.22798
 C439 C -0.10824 0.75226 -0.32659
 C440 C -0.11609 0.79740 -0.44480
 C441 C -0.08536 0.76932 -0.30506
 C442 C -0.07727 0.73056 -0.18573
 C443 C -0.09234 0.66813 -0.08853
 C444 C -0.11532 0.65023 -0.10941
 H445 H -0.15865 0.64543 -0.17285
 H446 H -0.10453 0.84212 -0.52098
 H447 H -0.07389 0.81703 -0.38100
 H448 H -0.12674 0.60630 -0.03214
 H449 H -0.14445 0.82605 -0.55777
 H450 H -0.08651 0.63773 0.00434
 C451 C 0.34419 0.80606 0.07188
 C452 C 0.33787 0.81565 0.19181
 C453 C 0.35472 0.82945 0.27536
 C454 C 0.37746 0.82934 0.24119
 C455 C 0.38363 0.81762 0.12098
 C456 C 0.36684 0.80707 0.03695
 C457 C 0.40635 0.81068 0.08920
 C458 C 0.42274 0.80953 0.17819
 C459 C 0.41643 0.82153 0.29708
 C460 C 0.39405 0.83358 0.32763
 H461 H 0.35012 0.83354 0.36930
 H462 H 0.37115 0.79545 -0.05436
 H463 H 0.41111 0.79894 -0.00201
 H464 H 0.38963 0.84351 0.41971
 H465 H 0.33159 0.79588 0.00557
 H466 H 0.42884 0.82046 0.36686
 C467 C -0.14613 1.19231 0.45080
 C468 C -0.15936 1.24927 0.35403
 C469 C -0.14943 1.29481 0.23467
 C470 C -0.12628 1.28640 0.21331
 C471 C -0.11312 1.22957 0.31202
 C472 C -0.12328 1.18177 0.43005
 C473 C -0.09006 1.22045 0.29097
 C474 C -0.07975 1.26899 0.17289
 C475 C -0.09293 1.32631 0.07566
 C476 C -0.11599 1.33388 0.09535
 H477 H -0.15960 1.33878 0.15970
 H478 H -0.11354 1.13669 0.50649
 H479 H -0.08015 1.17510 0.36654
 H480 H -0.12581 1.37599 0.01808
 H481 H -0.15362 1.15509 0.54273
 H482 H -0.08548 1.36282 -0.01651
 C483 C 0.65033 0.18694 0.29153
 C484 C 0.66208 0.28328 0.33390
 C485 C 0.65062 0.38605 0.35159
 C486 C 0.62736 0.38803 0.33373
 C487 C 0.61565 0.28699 0.29670
 C488 C 0.62734 0.18807 0.27454
 C489 C 0.59237 0.28522 0.28371
 C490 C 0.58037 0.38246 0.30879
 C491 C 0.59205 0.48291 0.34571
 C492 C 0.61538 0.48629 0.35676
 H493 H 0.65950 0.46065 0.38489
 H494 H 0.61852 0.10979 0.24775
 H495 H 0.58359 0.20782 0.25422
 H496 H 0.62402 0.56498 0.38433
 H497 H 0.65888 0.10869 0.27469
 H498 H 0.58320 0.55979 0.36450
 C499 C 0.14587 0.62254 0.24709
 C500 C 0.15959 0.72730 0.26072
 C501 C 0.14964 0.83747 0.26992
 C502 C 0.12625 0.84141 0.26760
 C503 C 0.11269 0.73382 0.25705
 C504 C 0.12264 0.62499 0.24763
 C505 C 0.08937 0.73673 0.25519
 C506 C 0.07929 0.84530 0.26579
 C507 C 0.09272 0.95122 0.27898
 C508 C 0.11609 0.94988 0.27842
 H509 H 0.15993 0.91825 0.28350
 H510 H 0.11240 0.54246 0.23907
 H511 H 0.07906 0.65483 0.24431
 H512 H 0.12621 1.03284 0.28693
 H513 H 0.15318 0.53797 0.23752
 H514 H 0.08513 1.03586 0.28614
   
