data_POSCAR
  _audit_creation_date              2014-09-24
  _audit_creation_method            'ToBaCCo'
  _symmetry_space_group_name_H-M    'P1'
  _symmetry_Int_Tables_number       1
  _symmetry_cell_setting            triclinic
  loop_
  _symmetry_equiv_pos_as_xyz
 x,y,z
_cell_length_a 27.6605
_cell_length_b 27.5257
_cell_length_c 27.6406
_cell_angle_alpha 100.490300
_cell_angle_beta 77.774600
_cell_angle_gamma 71.141100
loop_
  _atom_site_label
  _atom_site_type_symbol
  _atom_site_fract_x
  _atom_site_fract_y
  _atom_site_fract_z
C1 C 0.55168 0.49741 0.00589
 C2 C 0.51051 0.54403 0.00456
 C3 C 0.46039 0.54187 0.00395
 C4 C 0.44908 0.49563 0.00429
 C5 C 0.48991 0.44976 0.00678
 C6 C 0.54018 0.45126 0.00657
 H7 H 0.57046 0.41578 0.00887
 H8 H 0.42938 0.57716 0.00239
 C9 C -0.01246 0.46384 0.51866
 C10 C 0.00500 0.49389 0.55321
 C11 C 0.01800 0.53637 0.54090
 C12 C 0.01224 0.55184 0.49563
 C13 C -0.00618 0.52163 0.46152
 C14 C -0.01775 0.47841 0.47344
 H15 H -0.02933 0.45448 0.44581
 H16 H 0.02886 0.56003 0.56937
 C17 C 0.49619 0.00202 0.44784
 C18 C 0.45370 0.00563 0.48863
 C19 C 0.46038 0.00971 0.53786
 C20 C 0.50908 0.00724 0.54775
 C21 C 0.55326 0.00004 0.50570
 C22 C 0.54528 -0.00219 0.45667
 H23 H 0.57713 -0.00440 0.42470
 H24 H 0.42730 0.01217 0.56868
 O25 O 0.46433 -0.00271 -0.06400
 O26 O 0.45741 0.01006 0.07199
 O27 O 0.45293 0.07390 0.01166
 O28 O 0.46913 -0.06605 -0.00484
 O29 O 0.55672 -0.09054 -0.02526
 O30 O 0.54048 0.05017 -0.00742
 O31 O 0.54494 -0.01346 0.05191
 O32 O 0.55181 -0.02617 -0.08456
 Cu33 Cu 0.45213 0.00622 0.00585
 Cu34 Cu 0.55737 -0.02249 -0.01832
 C35 C 0.50890 -0.01581 -0.09743
 C36 C 0.50013 -0.00006 0.08512
 C37 C 0.49404 0.08585 0.00415
 C38 C 0.51540 -0.10219 -0.01747
 O39 O -0.08670 0.54380 1.02567
 O40 O 0.04862 0.54627 1.00636
 O41 O -0.01463 0.54172 0.94790
 O42 O -0.02624 0.55213 1.08461
 O43 O 0.00922 0.46435 1.06719
 O44 O 0.02156 0.45392 0.92933
 O45 O 0.08260 0.45852 0.98940
 O46 O -0.05165 0.45604 1.00759
 Cu47 Cu -0.02296 0.55477 1.01771
 Cu48 Cu 0.01874 0.44941 0.99648
 C49 C -0.09210 0.49914 1.01932
 C50 C 0.08853 0.50281 0.99601
 C51 C 0.00441 0.49632 0.91541
 C52 C -0.00998 0.51018 1.09924
 O53 O 0.02496 -0.07347 0.45118
 O54 O -0.00797 0.07107 0.46623
 O55 O 0.07921 -0.00992 0.44996
 O56 O -0.06041 0.00778 0.46318
 O57 O -0.07739 0.02178 0.54724
 O58 O 0.06419 0.00281 0.53382
 O59 O -0.02237 0.08432 0.55010
 O60 O 0.00967 -0.05921 0.53518
 Cu61 Cu 0.01066 -0.00268 0.44928
 Cu62 Cu -0.00817 0.01376 0.54998
 C63 C 0.02199 -0.09079 0.49094
 C64 C -0.01965 0.10211 0.51074
 C65 C 0.09540 -0.00534 0.48958
 C66 C -0.09274 0.01712 0.50694
 C67 C -0.29736 0.49195 1.01926
 C68 C -0.30144 0.44838 0.98755
 C69 C -0.35128 0.45029 0.98347
 C70 C -0.39763 0.49579 1.01029
 C71 C -0.39164 0.53829 1.04229
 N72 N -0.34245 0.53549 1.04548
 C73 C -0.24497 0.49260 1.02286
 N74 N -0.23867 0.54013 1.03284
 C75 C -0.19083 0.54343 1.03370
 C76 C -0.14553 0.49691 1.02371
 C77 C -0.15164 0.44769 1.01522
 C78 C -0.20117 0.44537 1.01494
 H79 H -0.35308 0.41683 0.95740
 H80 H -0.42600 0.57330 1.06561
 H81 H -0.18803 0.58227 1.04090
 H82 H -0.11797 0.41082 1.00793
 H83 H -0.26647 0.41372 0.96470
 H84 H -0.20485 0.40693 1.00850
 C85 C 0.29565 0.50323 0.99743
 C86 C 0.32214 0.52819 0.96779
 C87 C 0.37278 0.52522 0.97000
 C88 C 0.39777 0.49741 1.00174
 C89 C 0.36917 0.47343 1.03123
 N90 N 0.31992 0.47654 1.02800
 C91 C 0.24246 0.50432 0.99539
 N92 N 0.23004 0.46125 1.00057
 C93 C 0.18177 0.45955 0.99940
 C94 C 0.14212 0.50347 0.99372
 C95 C 0.15387 0.54852 0.98876
 C96 C 0.20411 0.54897 0.98921
 H97 H 0.39313 0.54321 0.94519
 H98 H 0.38482 0.45386 1.05826
 H99 H 0.17408 0.42429 1.00408
 H100 H 0.12421 0.58337 0.98478
 H101 H 0.30459 0.54861 0.94208
 H102 H 0.21233 0.58433 0.98607
 C103 C 0.03468 -0.30518 0.48256
 C104 C 0.06809 -0.34067 0.50293
 C105 C 0.06175 -0.38849 0.50561
 C106 C 0.02217 -0.40191 0.48797
 C107 C -0.00927 -0.36549 0.46629
 N108 N -0.00242 -0.31898 0.46440
 C109 C 0.03673 -0.25190 0.48301
 N110 N 0.02369 -0.22881 0.44552
 C111 C 0.02142 -0.17855 0.44579
 C112 C 0.03085 -0.14770 0.48649
 C113 C 0.04461 -0.17084 0.52533
 C114 C 0.04800 -0.22289 0.52354
 H115 H 0.08863 -0.41532 0.52099
 H116 H -0.04216 -0.37141 0.45449
 H117 H 0.01012 -0.16198 0.41537
 H118 H 0.05187 -0.14834 0.55757
 H119 H 0.09889 -0.33166 0.51670
 H120 H 0.05712 -0.23926 0.55475
 C121 C -0.03269 0.31745 0.52754
 C122 C -0.07109 0.35660 0.51490
 C123 C -0.06597 0.40539 0.51467
 C124 C -0.02241 0.41522 0.52643
 C125 C 0.01421 0.37546 0.54041
 N126 N 0.00820 0.32834 0.54066
 C127 C -0.03420 0.26378 0.52461
 N128 N -0.01837 0.23792 0.55945
 C129 C -0.01583 0.18730 0.55697
 C130 C -0.02783 0.15895 0.51655
 C131 C -0.04416 0.18480 0.48017
 C132 C -0.04799 0.23738 0.48439
 H133 H -0.09546 0.43509 0.50419
 H134 H 0.04890 0.38077 0.54884
 H135 H -0.00246 0.16853 0.58546
 H136 H -0.05344 0.16419 0.44827
 H137 H -0.10449 0.34945 0.50498
 H138 H -0.05956 0.25639 0.45539
 C139 C 0.51140 -0.00162 -0.30230
 C140 C 0.46836 0.03709 -0.30979
 C141 C 0.46868 0.04092 -0.35922
 C142 C 0.51207 0.00678 -0.40183
 C143 C 0.55557 -0.03006 -0.39230
 N144 N 0.55405 -0.03338 -0.34348
 C145 C 0.51058 -0.00856 -0.25050
 N146 N 0.55689 -0.02347 -0.23734
 C147 C 0.55778 -0.02792 -0.18926
 C148 C 0.51002 -0.01683 -0.15127
 C149 C 0.46228 -0.00346 -0.16484
 C150 C 0.46242 0.00055 -0.21425
 H151 H 0.43491 0.07118 -0.36405
 H152 H 0.58941 -0.05820 -0.42364
 H153 H 0.59554 -0.03883 -0.18049
 H154 H 0.42458 0.00485 -0.13703
 H155 H 0.43466 0.06436 -0.27778
 H156 H 0.42508 0.01075 -0.22386
 C157 C 0.49131 0.00779 0.29569
 C158 C 0.50497 0.04519 0.32564
 C159 C 0.50465 0.04401 0.37575
 C160 C 0.49112 0.00551 0.39615
 C161 C 0.47645 -0.03053 0.36542
 N162 N 0.47672 -0.02842 0.31651
 C163 C 0.49402 0.00646 0.24165
 N164 N 0.45549 -0.00259 0.22222
 C165 C 0.45612 -0.00388 0.17265
 C166 C 0.49790 0.00306 0.13940
 C167 C 0.53837 0.01157 0.15851
 C168 C 0.53635 0.01372 0.20967
 H169 H 0.51574 0.07276 0.39854
 H170 H 0.46608 -0.06097 0.37980
 H171 H 0.42454 -0.01124 0.15903
 H172 H 0.57138 0.01685 0.13399
 H173 H 0.51582 0.07502 0.31042
 H174 H 0.56808 0.02001 0.22383
 C175 C 0.52665 -0.31276 -0.01346
 C176 C 0.56850 -0.36136 -0.04134
 C177 C 0.56393 -0.40909 -0.03502
 C178 C 0.51803 -0.40849 -0.00059
 C179 C 0.47750 -0.35863 0.02664
 N180 N 0.48276 -0.31306 0.01947
 C181 C 0.52687 -0.26075 -0.01940
 N182 N 0.47891 -0.21978 -0.00692
 C183 C 0.47457 -0.16960 -0.00799
 C184 C 0.52051 -0.15787 -0.02126
 C185 C 0.57062 -0.19957 -0.03505
 C186 C 0.57401 -0.25121 -0.03429
 H187 H 0.59532 -0.44637 -0.05858
 H188 H 0.44181 -0.35562 0.05436
 H189 H 0.43511 -0.13877 0.00294
 H190 H 0.60706 -0.19209 -0.04528
 H191 H 0.60342 -0.36278 -0.06897
 H192 H 0.61290 -0.28252 -0.04340
 C193 C 0.47969 0.29844 0.00697
 C194 C 0.46560 0.32215 -0.03149
 C195 C 0.46857 0.37179 -0.03180
 C196 C 0.48401 0.39815 0.00694
 C197 C 0.49714 0.37321 0.04492
 N198 N 0.49526 0.32440 0.04369
 C199 C 0.48115 0.24461 0.00697
 N200 N 0.52164 0.21113 0.01985
 C201 C 0.52620 0.16052 0.01984
 C202 C 0.48796 0.14149 0.00721
 C203 C 0.44509 0.17579 -0.00488
 C204 C 0.44181 0.22730 -0.00553
 H205 H 0.45935 0.38938 -0.06235
 H206 H 0.50951 0.39231 0.07522
 H207 H 0.55962 0.13526 0.02968
 H208 H 0.41493 0.16233 -0.01504
 H209 H 0.45428 0.30176 -0.06189
 H210 H 0.40875 0.25341 -0.01518
 C211 C -0.29815 0.00726 0.51259
 C212 C -0.30061 -0.03022 0.47246
 C213 C -0.34941 -0.03359 0.47143
 C214 C -0.39657 -0.00003 0.51050
 C215 C -0.39185 0.03553 0.55140
 N216 N -0.34349 0.03837 0.55128
 C217 C -0.24718 0.01417 0.51181
 N218 N -0.23311 0.02308 0.55601
 C219 C -0.18490 0.02627 0.55606
 C220 C -0.14776 0.02011 0.50966
 C221 C -0.16277 0.01318 0.46425
 C222 C -0.21215 0.01025 0.46518
 H223 H -0.35010 -0.06302 0.43995
 H224 H -0.42678 0.06323 0.58186
 H225 H -0.17511 0.03214 0.59202
 H226 H -0.13587 0.00881 0.42760
 H227 H -0.26505 -0.05668 0.44189
 H228 H -0.22266 0.00459 0.42957
 C229 C 0.30404 -0.00126 0.47710
 C230 C 0.32139 0.03575 0.45725
 C231 C 0.37050 0.03809 0.46024
 C232 C 0.40263 0.00290 0.48193
 C233 C 0.38400 -0.03389 0.50060
 N234 N 0.33573 -0.03466 0.49826
 C235 C 0.25113 -0.00328 0.47818
 N236 N 0.22427 -0.01542 0.51858
 C237 C 0.17503 -0.01720 0.52272
 C238 C 0.15032 -0.00716 0.48425
 C239 C 0.17792 0.00410 0.44160
 C240 C 0.22811 0.00644 0.43858
 H241 H 0.38286 0.06792 0.44662
 H242 H 0.40761 -0.06162 0.51769
 H243 H 0.15522 -0.02626 0.55609
 H244 H 0.16018 0.01228 0.41113
 H245 H 0.29654 0.06380 0.44132
 H246 H 0.24881 0.01523 0.40548
 C247 C -0.01250 0.52915 1.31027
 C248 C -0.06018 0.54562 1.34996
 C249 C -0.05809 0.54463 1.39975
 C250 C -0.00880 0.52895 1.41028
 C251 C 0.03792 0.51395 1.36989
 N252 N 0.03503 0.51367 1.32129
 C253 C -0.01298 0.52546 1.25645
 N254 N 0.02407 0.48274 1.21838
 C255 C 0.02496 0.47641 1.16818
 C256 C -0.01234 0.51507 1.15386
 C257 C -0.05040 0.55976 1.19242
 C258 C -0.05122 0.56482 1.24380
 H259 H -0.09478 0.55537 1.43001
 H260 H 0.07662 0.50055 1.37667
 H261 H 0.05544 0.44179 1.13942
 H262 H -0.07964 0.59060 1.18285
 H263 H -0.09848 0.55701 1.34219
 H264 H -0.08079 0.59952 1.27319
 C265 C 0.00289 0.48386 0.70584
 C266 C -0.04458 0.49474 0.69172
 C267 C -0.04345 0.49554 0.64115
 C268 C 0.00470 0.48617 0.60494
 C269 C 0.05152 0.47418 0.62021
 N270 N 0.04957 0.47312 0.66962
 C271 C 0.00242 0.48692 0.75987
 N272 N 0.04129 0.44947 0.77112
 C273 C 0.04275 0.45122 0.82038
 C274 C 0.00443 0.49331 0.86145
 C275 C -0.03531 0.53268 0.85044
 C276 C -0.03677 0.52934 0.79988
 H277 H -0.08033 0.50526 0.63066
 H278 H 0.08934 0.46668 0.59306
 H279 H 0.07416 0.42024 0.82739
 H280 H -0.06575 0.56566 0.88105
 H281 H -0.08220 0.50310 0.71967
 H282 H -0.06762 0.56018 0.79203
   
