data_POSCAR
  _audit_creation_date              2014-09-24
  _audit_creation_method            'ToBaCCo'
  _symmetry_space_group_name_H-M    'P1'
  _symmetry_Int_Tables_number       1
  _symmetry_cell_setting            triclinic
  loop_
  _symmetry_equiv_pos_as_xyz
 x,y,z
_cell_length_a 25.5294
_cell_length_b 25.5389
_cell_length_c 25.4735
_cell_angle_alpha 90.051900
_cell_angle_beta 90.051800
_cell_angle_gamma 89.934200
loop_
  _atom_site_label
  _atom_site_type_symbol
  _atom_site_fract_x
  _atom_site_fract_y
  _atom_site_fract_z
C1 C 0.38811 1.01969 -0.55186
 C2 C 0.36169 1.01728 -0.50351
 C3 C 0.38820 1.00876 -0.45634
 C4 C 0.44324 1.00324 -0.45633
 C5 C 0.47138 1.00861 -0.50396
 C6 C 0.44395 1.01783 -0.55167
 C7 C 0.47330 1.02934 -0.59688
 C8 C 0.52763 1.02604 -0.59679
 C9 C 0.55542 1.01133 -0.55140
 C10 C 0.52720 1.00588 -0.50368
 C11 C 0.47088 0.99322 -0.40977
 C12 C 0.52515 0.98966 -0.40965
 C13 C 0.55449 0.99847 -0.45557
 C14 C 0.61021 0.99750 -0.45518
 C15 C 0.63691 0.99988 -0.50327
 C16 C 0.61093 1.00611 -0.55149
 H17 H 0.45470 1.04259 -0.63263
 H18 H 0.54759 1.03687 -0.63256
 H19 H 0.45085 0.98793 -0.37276
 H20 H 0.54367 0.97935 -0.37292
 H21 H 0.31923 1.01856 -0.50242
 H22 H 0.67930 0.99732 -0.50311
 C23 C -0.45339 1.60936 0.01654
 C24 C -0.50094 1.63634 0.01900
 C25 C -0.54943 1.61034 0.01709
 C26 C -0.54968 1.55449 0.01592
 C27 C -0.50147 1.52660 0.01327
 C28 C -0.45325 1.55414 0.01351
 C29 C -0.40607 1.52570 0.01268
 C30 C -0.40606 1.47131 0.01067
 C31 C -0.45322 1.44306 0.00977
 C32 C -0.50138 1.47087 0.01187
 C33 C -0.59630 1.52558 0.02161
 C34 C -0.59623 1.47117 0.01995
 C35 C -0.54937 1.44301 0.01394
 C36 C -0.54900 1.38760 0.01238
 C37 C -0.50123 1.36089 0.01015
 C38 C -0.45354 1.38765 0.00872
 H39 H -0.36850 1.54516 0.01441
 H40 H -0.36851 1.45164 0.01084
 H41 H -0.63343 1.54450 0.02909
 H42 H -0.63336 1.45137 0.02476
 H43 H -0.49976 1.67880 0.01910
 H44 H -0.50119 1.31842 0.00882
 C45 C 0.02014 0.38723 0.44825
 C46 C 0.02450 0.36102 0.49651
 C47 C 0.01613 0.38630 0.54476
 C48 C 0.00794 0.44147 0.54508
 C49 C 0.00666 0.46954 0.49694
 C50 C 0.01254 0.44246 0.44848
 C51 C 0.01427 0.47190 0.40180
 C52 C 0.00586 0.52559 0.40198
 C53 C -0.00127 0.55300 0.44917
 C54 C 0.00042 0.52513 0.49727
 C55 C 0.00412 0.46990 0.59228
 C56 C -0.00395 0.52364 0.59244
 C57 C -0.00405 0.55270 0.54561
 C58 C -0.01096 0.60816 0.54552
 C59 C -0.01622 0.63393 0.49709
 C60 C -0.01014 0.60762 0.44944
 H61 H 0.02298 0.45403 0.36435
 H62 H 0.00558 0.54542 0.36448
 H63 H 0.00801 0.45127 0.63012
 H64 H -0.01044 0.54187 0.63016
 H65 H 0.02843 0.31872 0.49630
 H66 H -0.02091 0.67615 0.49609
 O67 O -0.13600 0.99985 -0.07430
 O68 O 0.13385 0.99552 -0.07442
 O69 O -0.00257 1.06803 -0.13872
 O70 O 0.00036 0.92660 -0.13803
 O71 O 0.00033 0.86272 -0.07389
 O72 O -0.00234 1.13263 -0.07519
 O73 O 0.06964 0.99529 -0.13833
 O74 O -0.07196 0.99939 -0.13828
 Zr75 Zr -0.00109 0.99756 -0.09555
 O76 O 0.04644 0.95005 -0.05071
 O77 O -0.04849 1.04558 -0.05115
 C78 C -0.12026 1.00043 -0.12267
 C79 C 0.11798 0.99447 -0.12278
 C80 C -0.00312 1.11646 -0.12347
 C81 C 0.00103 0.87835 -0.12232
 H82 H 0.06880 1.06713 -0.07336
 O83 O 0.04636 1.04501 -0.05087
 H84 H -0.07090 0.92824 -0.07269
 O85 O -0.04842 0.95060 -0.05041
 O86 O 0.13398 1.00028 0.06772
 O87 O -0.13590 0.99715 0.06765
 O88 O 0.07023 1.13282 -0.00193
 O89 O 0.06981 0.86285 -0.00424
 O90 O -0.07218 0.86336 -0.00065
 O91 O -0.07172 1.13331 -0.00558
 O92 O 0.00131 1.06951 0.13141
 O93 O -0.00294 0.92804 0.13207
 O94 O 0.00146 1.13338 0.06726
 O95 O -0.00310 0.86353 0.06846
 O96 O 0.13393 1.06849 -0.00167
 O97 O -0.13564 1.06935 -0.00533
 O98 O -0.13587 0.92770 -0.00091
 O99 O 0.13371 0.92682 -0.00452
 O100 O 0.06992 1.00075 0.13168
 O101 O -0.07178 0.99726 0.13165
 Zr102 Zr 0.09123 0.99776 -0.00333
 Zr103 Zr -0.09318 0.99840 -0.00331
 Zr104 Zr -0.00083 1.09048 -0.00377
 Zr105 Zr -0.00111 0.90567 -0.00289
 Zr106 Zr -0.00093 0.99856 0.08895
 O107 O -0.04852 0.95094 0.04443
 O108 O 0.04657 1.04567 0.04394
 C109 C 0.11822 1.00177 0.11607
 C110 C -0.12011 0.99649 0.11602
 C111 C 0.11845 1.11684 -0.00080
 C112 C 0.11810 0.87855 -0.00498
 C113 C -0.12040 0.87935 0.00037
 C114 C -0.12001 1.11762 -0.00627
 C115 C 0.00257 1.11774 0.11568
 C116 C -0.00404 0.87965 0.11675
 H117 H -0.07038 1.06840 0.06624
 O118 O -0.04815 1.04588 0.04385
 H119 H 0.06863 0.92865 0.06696
 O120 O 0.04630 0.95082 0.04431
 C121 C 0.27922 1.04964 0.35453
 C122 C 0.29191 1.01706 0.31230
 C123 C 0.33740 0.98656 0.31423
 C124 C 0.36987 0.98827 0.35845
 C125 C 0.35760 1.02090 0.40152
 C126 C 0.31149 1.05139 0.39881
 C127 C 0.25696 1.01351 0.26807
 C128 C 0.22660 1.01055 0.23192
 C129 C 0.18989 1.00719 0.19060
 C130 C 0.15763 1.00454 0.15613
 H131 H 0.24401 1.07335 0.35351
 H132 H 0.34718 0.96059 0.28204
 H133 H 0.40335 0.96222 0.35980
 H134 H 0.30068 1.07735 0.43066
 C135 C -0.34052 0.97396 0.31352
 C136 C -0.29330 1.00170 0.31264
 C137 C -0.27850 1.03163 0.35610
 C138 C -0.31045 1.03368 0.40046
 C139 C -0.35837 1.00618 0.40209
 C140 C -0.37275 0.97600 0.35791
 C141 C -0.25898 0.99880 0.26795
 C142 C -0.22876 0.99717 0.23167
 C143 C -0.19196 0.99614 0.19039
 C144 C -0.15957 0.99595 0.15602
 H145 H -0.35204 0.95012 0.28027
 H146 H -0.24200 1.05325 0.35585
 H147 H -0.29806 1.05781 0.43317
 H148 H -0.40799 0.95242 0.35836
 C149 C -0.33773 1.03076 -0.32186
 C150 C -0.29395 0.99788 -0.31923
 C151 C -0.28278 0.96405 -0.36089
 C152 C -0.31492 0.96326 -0.40523
 C153 C -0.35942 0.99594 -0.40855
 C154 C -0.37011 1.03000 -0.36621
 C155 C -0.25922 0.99978 -0.27476
 C156 C -0.22888 1.00080 -0.23852
 C157 C -0.19208 1.00133 -0.19718
 C158 C -0.15972 1.00122 -0.16272
 H159 H -0.34631 1.05766 -0.29010
 H160 H -0.24889 0.93851 -0.35931
 H161 H -0.30539 0.93628 -0.43666
 H162 H -0.40235 1.05755 -0.36819
 C163 C 0.31674 0.95455 -0.33804
 C164 C 0.29135 0.99951 -0.31936
 C165 C 0.29871 1.04752 -0.34481
 C166 C 0.33098 1.05055 -0.38896
 C167 C 0.35642 1.00564 -0.40789
 C168 C 0.34908 0.95755 -0.38226
 C169 C 0.25627 0.99637 -0.27529
 C170 C 0.22595 0.99464 -0.23909
 C171 C 0.18939 0.99361 -0.19759
 C172 C 0.15727 0.99357 -0.16295
 H173 H 0.31104 0.91715 -0.31886
 H174 H 0.27902 1.08247 -0.33088
 H175 H 0.33588 1.08780 -0.40866
 H176 H 0.36794 0.92244 -0.39688
 C177 C 0.32258 1.32697 -0.03071
 C178 C 0.31402 1.29065 0.00954
 C179 C 0.34943 1.28722 0.05141
 C180 C 0.39351 1.31956 0.05280
 C181 C 0.40246 1.35586 0.01245
 C182 C 0.36670 1.35938 -0.02934
 C183 C 0.27013 1.25544 0.00703
 C184 C 0.23416 1.22498 0.00504
 C185 C 0.19295 1.18827 0.00285
 C186 C 0.15852 1.15609 0.00110
 H187 H 0.29562 1.32970 -0.06346
 H188 H 0.34333 1.25906 0.08259
 H189 H 0.42094 1.31604 0.08508
 H190 H 0.37345 1.38662 -0.06118
 C191 C 0.35527 0.71868 0.04195
 C192 C 0.31573 0.70688 0.00588
 C193 C 0.32042 0.66269 -0.02626
 C194 C 0.36452 0.63034 -0.02226
 C195 C 0.40450 0.64136 0.01445
 C196 C 0.39937 0.68654 0.04600
 C197 C 0.27109 0.74107 0.00137
 C198 C 0.23457 0.77088 -0.00152
 C199 C 0.19285 0.80711 -0.00383
 C200 C 0.15817 0.83915 -0.00488
 H201 H 0.35213 0.75292 0.06692
 H202 H 0.29038 0.65364 -0.05492
 H203 H 0.36812 0.59769 -0.04920
 H204 H 0.42898 0.69649 0.07481
 C205 C -0.34763 0.70490 0.05691
 C206 C -0.31624 0.70595 0.01186
 C207 C -0.32890 0.67422 -0.03119
 C208 C -0.37307 0.64193 -0.02938
 C209 C -0.40474 0.64090 0.01566
 C210 C -0.39177 0.67264 0.05875
 C211 C -0.27234 0.74112 0.00918
 C212 C -0.23631 0.77149 0.00702
 C213 C -0.19500 0.80807 0.00459
 C214 C -0.16050 0.84016 0.00260
 H215 H -0.33838 0.72953 0.09030
 H216 H -0.30511 0.67502 -0.06637
 H217 H -0.38303 0.61828 -0.06326
 H218 H -0.41612 0.67270 0.09356
 C219 C -0.32846 1.32486 -0.04098
 C220 C -0.31634 1.29103 0.00057
 C221 C -0.34838 1.28986 0.04513
 C222 C -0.39258 1.32202 0.04803
 C223 C -0.40501 1.35590 0.00649
 C224 C -0.37272 1.35710 -0.03811
 C225 C -0.27215 1.25617 -0.00289
 C226 C -0.23595 1.22590 -0.00496
 C227 C -0.19454 1.18928 -0.00641
 C228 C -0.16002 1.15706 -0.00681
 H229 H -0.30411 1.32584 -0.07578
 H230 H -0.33953 1.26366 0.07737
 H231 H -0.41735 1.32030 0.08249
 H232 H -0.38221 1.38251 -0.07079
 C233 C -0.02075 1.33087 0.31886
 C234 C 0.01569 1.29038 0.31297
 C235 C 0.05410 1.28257 0.35134
 C236 C 0.05606 1.31498 0.39552
 C237 C 0.02001 1.35646 0.40182
 C238 C -0.01887 1.36343 0.36298
 C239 C 0.01264 1.25554 0.26861
 C240 C 0.01013 1.22547 0.23219
 C241 C 0.00730 1.18915 0.19049
 C242 C 0.00503 1.15713 0.15577
 H243 H -0.05124 1.33669 0.28983
 H244 H 0.08233 1.25111 0.34734
 H245 H 0.08647 1.30812 0.42440
 H246 H -0.04910 1.39287 0.36762
 C247 C 0.04714 1.28189 -0.35739
 C248 C 0.00585 1.28768 -0.32183
 C249 C -0.03208 1.32633 -0.33024
 C250 C -0.02858 1.35931 -0.37391
 C251 C 0.01346 1.35467 -0.40959
 C252 C 0.05072 1.31471 -0.40108
 C253 C 0.00203 1.25301 -0.27747
 C254 C -0.00042 1.22315 -0.24093
 C255 C -0.00237 1.18715 -0.19897
 C256 C -0.00320 1.15544 -0.16397
 H257 H 0.07655 1.25184 -0.35145
 H258 H -0.06474 1.33055 -0.30344
 H259 H -0.05967 1.38742 -0.38060
 H260 H 0.08341 1.30955 -0.42769
 C261 C -0.04408 0.71320 -0.35786
 C262 C -0.00517 0.70583 -0.31992
 C263 C 0.03161 0.66569 -0.32616
 C264 C 0.02943 0.63293 -0.37014
 C265 C -0.01011 0.63934 -0.40839
 C266 C -0.04633 0.68061 -0.40187
 C267 C -0.00235 0.74055 -0.27547
 C268 C -0.00056 0.77058 -0.23898
 C269 C 0.00081 0.80689 -0.19720
 C270 C 0.00131 0.83893 -0.16244
 H271 H -0.07258 0.74439 -0.35358
 H272 H 0.06248 0.66021 -0.29747
 H273 H 0.05982 0.60371 -0.37508
 H274 H -0.07721 0.68707 -0.43035
 C275 C -0.05646 0.69827 0.34149
 C276 C -0.01025 0.70551 0.31281
 C277 C 0.03566 0.67954 0.32802
 C278 C 0.03549 0.64682 0.37199
 C279 C -0.01073 0.63952 0.40090
 C280 C -0.05668 0.66554 0.38546
 C281 C -0.00943 0.74113 0.26906
 C282 C -0.00848 0.77173 0.23306
 C283 C -0.00712 0.80844 0.19170
 C284 C -0.00579 0.84054 0.15707
 H285 H -0.09210 0.71845 0.33028
 H286 H 0.07171 0.68517 0.30636
 H287 H 0.07146 0.62769 0.38394
 H288 H -0.09246 0.66080 0.40776
   
