data_POSCAR
  _audit_creation_date              2014-09-24
  _audit_creation_method            'ToBaCCo'
  _symmetry_space_group_name_H-M    'P1'
  _symmetry_Int_Tables_number       1
  _symmetry_cell_setting            triclinic
  loop_
  _symmetry_equiv_pos_as_xyz
 x,y,z
_cell_length_a 52.1520
_cell_length_b 52.5143
_cell_length_c 53.8907
_cell_angle_alpha 90.036500
_cell_angle_beta 90.013300
_cell_angle_gamma 91.346700
loop_
  _atom_site_label
  _atom_site_type_symbol
  _atom_site_fract_x
  _atom_site_fract_y
  _atom_site_fract_z
C1 C 0.05338 0.32428 0.02382
 C2 C 0.06675 0.32551 0.00137
 C3 C 0.05413 0.32551 -0.02171
 C4 C 0.02680 0.32674 -0.02193
 C5 C 0.01291 0.32536 0.00075
 C6 C 0.02627 0.32448 0.02367
 C7 C 0.01222 0.32509 0.04589
 C8 C -0.01439 0.32511 0.04572
 C9 C -0.02818 0.32451 0.02332
 C10 C -0.01447 0.32539 0.00058
 C11 C 0.01299 0.33152 -0.04380
 C12 C -0.01365 0.33157 -0.04397
 C13 C -0.02799 0.32683 -0.02228
 C14 C -0.05538 0.32570 -0.02240
 C15 C -0.06831 0.32565 0.00051
 C16 C -0.05530 0.32432 0.02313
 H17 H 0.02159 0.32629 0.06375
 H18 H -0.02394 0.32632 0.06346
 H19 H 0.02247 0.33663 -0.06094
 H20 H -0.02264 0.33673 -0.06123
 H21 H 0.08748 0.32440 0.00207
 H22 H -0.08909 0.32457 0.00094
 C23 C 0.44827 0.82601 0.47625
 C24 C 0.43527 0.82624 0.49896
 C25 C 0.44841 0.82662 0.52162
 C26 C 0.47559 0.82781 0.52167
 C27 C 0.48913 0.82764 0.49881
 C28 C 0.47545 0.82721 0.47603
 C29 C 0.48933 0.82885 0.45371
 C30 C 0.51599 0.82910 0.45364
 C31 C 0.52996 0.82773 0.47588
 C32 C 0.51643 0.82790 0.49874
 C33 C 0.48962 0.83002 0.54387
 C34 C 0.51629 0.83027 0.54379
 C35 C 0.53012 0.82831 0.52151
 C36 C 0.55727 0.82759 0.52131
 C37 C 0.57026 0.82749 0.49859
 C38 C 0.55711 0.82705 0.47595
 H39 H 0.47978 0.83048 0.43600
 H40 H 0.52548 0.83089 0.43588
 H41 H 0.48019 0.83210 0.56159
 H42 H 0.52590 0.83253 0.56146
 H43 H 0.41449 0.82464 0.49902
 H44 H 0.59099 0.82623 0.49854
 C45 C 0.94424 0.67649 -0.02473
 C46 C 0.93158 0.67659 -0.00166
 C47 C 0.94493 0.67771 0.02081
 C48 C 0.97202 0.67728 0.02071
 C49 C 0.98543 0.67646 -0.00217
 C50 C 0.97158 0.67518 -0.02490
 C51 C 0.98546 0.67042 -0.04674
 C52 C 1.01211 0.67037 -0.04684
 C53 C 1.02640 0.67501 -0.02509
 C54 C 1.01281 0.67635 -0.00227
 C55 C 0.98601 0.67639 0.04296
 C56 C 1.01261 0.67624 0.04287
 C57 C 1.02646 0.67701 0.02052
 C58 C 1.05358 0.67716 0.02042
 C59 C 1.06666 0.67601 -0.00216
 C60 C 1.05380 0.67613 -0.02513
 H61 H 0.97604 0.66532 -0.06393
 H62 H 1.02114 0.66527 -0.06410
 H63 H 0.97659 0.67505 0.06079
 H64 H 1.02208 0.67478 0.06063
 H65 H 0.91087 0.67781 -0.00097
 H66 H 1.08744 0.67705 -0.00164
 C67 C 0.44153 0.17548 0.52424
 C68 C 0.42845 0.17557 0.50156
 C69 C 0.44152 0.17561 0.47888
 C70 C 0.46865 0.17450 0.47875
 C71 C 0.48225 0.17436 0.50157
 C72 C 0.46865 0.17435 0.52437
 C73 C 0.48253 0.17238 0.54663
 C74 C 0.50919 0.17223 0.54663
 C75 C 0.52317 0.17409 0.52437
 C76 C 0.50955 0.17425 0.50156
 C77 C 0.48250 0.17266 0.45649
 C78 C 0.50916 0.17257 0.45648
 C79 C 0.52314 0.17430 0.47875
 C80 C 0.55031 0.17525 0.47886
 C81 C 0.56341 0.17503 0.50153
 C82 C 0.55036 0.17496 0.52423
 H83 H 0.47296 0.17041 0.56433
 H84 H 0.51865 0.17013 0.56433
 H85 H 0.47293 0.17078 0.43877
 H86 H 0.51860 0.17059 0.43876
 H87 H 0.40774 0.17712 0.50155
 H88 H 0.58420 0.17642 0.50151
 C89 C 0.67737 0.05049 -0.02276
 C90 C 0.67332 0.06247 0.00023
 C91 C 0.67331 0.04902 0.02260
 C92 C 0.67518 0.02222 0.02219
 C93 C 0.67870 0.00934 -0.00065
 C94 C 0.67918 0.02335 -0.02325
 C95 C 0.68017 0.00953 -0.04558
 C96 C 0.68363 -0.01657 -0.04582
 C97 C 0.68436 -0.03080 -0.02374
 C98 C 0.68176 -0.01766 -0.00081
 C99 C 0.67248 0.00784 0.04398
 C100 C 0.67580 -0.01829 0.04389
 C101 C 0.68235 -0.03131 0.02203
 C102 C 0.68780 -0.05778 0.02201
 C103 C 0.69083 -0.07007 -0.00091
 C104 C 0.68884 -0.05745 -0.02371
 H105 H 0.67771 0.01835 -0.06344
 H106 H 0.68603 -0.02505 -0.06383
 H107 H 0.66717 0.01655 0.06137
 H108 H 0.67220 -0.02804 0.06118
 H109 H 0.67259 0.08307 0.00115
 H110 H 0.69491 -0.09023 -0.00111
 C111 C 0.17945 0.55191 0.47684
 C112 C 0.17943 0.56512 0.49941
 C113 C 0.17947 0.55239 0.52221
 C114 C 0.17851 0.52540 0.52261
 C115 C 0.17847 0.51164 0.49992
 C116 C 0.17851 0.52492 0.47697
 C117 C 0.17668 0.51082 0.45484
 C118 C 0.17651 0.48434 0.45509
 C119 C 0.17818 0.47077 0.47749
 C120 C 0.17830 0.48452 0.50018
 C121 C 0.17669 0.51177 0.54500
 C122 C 0.17653 0.48528 0.54526
 C123 C 0.17817 0.47124 0.52312
 C124 C 0.17879 0.44427 0.52324
 C125 C 0.17862 0.43106 0.50068
 C126 C 0.17884 0.44381 0.47788
 H127 H 0.17481 0.52004 0.43703
 H128 H 0.17450 0.47467 0.43746
 H129 H 0.17483 0.52137 0.56263
 H130 H 0.17455 0.47599 0.56307
 H131 H 0.18080 0.58577 0.49921
 H132 H 0.17976 0.41046 0.50086
 C133 C 0.32277 1.05640 -0.02298
 C134 C 0.32408 1.06920 -0.00007
 C135 C 0.32201 1.05643 0.02278
 C136 C 0.32167 1.02927 0.02277
 C137 C 0.32134 1.01574 -0.00013
 C138 C 0.32258 1.02927 -0.02297
 C139 C 0.32616 1.01523 -0.04489
 C140 C 0.32533 0.98879 -0.04492
 C141 C 0.32097 0.97483 -0.02301
 C142 C 0.32067 0.98849 -0.00019
 C143 C 0.32398 1.01519 0.04487
 C144 C 0.32312 0.98878 0.04481
 C145 C 0.32061 0.97501 0.02262
 C146 C 0.31974 0.94809 0.02262
 C147 C 0.31978 0.93497 0.00007
 C148 C 0.31937 0.94763 -0.02292
 H149 H 0.33111 1.02434 -0.06223
 H150 H 0.32970 0.97965 -0.06229
 H151 H 0.32781 1.02418 0.06252
 H152 H 0.32552 0.97931 0.06244
 H153 H 0.32393 1.08983 -0.00007
 H154 H 0.31830 0.91435 0.00067
 C155 C 0.82066 0.55192 0.52187
 C156 C 0.82125 0.56501 0.49927
 C157 C 0.82115 0.55215 0.47652
 C158 C 0.82145 0.52518 0.47624
 C159 C 0.82094 0.51155 0.49898
 C160 C 0.82099 0.52495 0.52187
 C161 C 0.82227 0.51103 0.54408
 C162 C 0.82185 0.48455 0.54394
 C163 C 0.82005 0.47081 0.52158
 C164 C 0.82045 0.48443 0.49883
 C165 C 0.82313 0.51147 0.45391
 C166 C 0.82261 0.48498 0.45377
 C167 C 0.82041 0.47103 0.47595
 C168 C 0.81906 0.44404 0.47594
 C169 C 0.81878 0.43095 0.49856
 C170 C 0.81876 0.44383 0.52129
 H171 H 0.82415 0.52042 0.56187
 H172 H 0.82347 0.47504 0.56163
 H173 H 0.82539 0.52102 0.43626
 H174 H 0.82451 0.47563 0.43602
 H175 H 0.82035 0.58563 0.49938
 H176 H 0.81713 0.41032 0.49846
 O177 O 0.22257 0.25770 0.28026
 O178 O 0.24499 0.21108 0.23441
 O179 O 0.25716 0.22287 0.28004
 O180 O 0.21024 0.24581 0.23467
 O181 O 0.23877 0.27422 0.22097
 O182 O 0.28582 0.25105 0.26614
 O183 O 0.27339 0.23949 0.22047
 O184 O 0.25128 0.28587 0.26646
 Cu185 Cu 0.23086 0.23152 0.25873
 Cu186 Cu 0.26520 0.26548 0.24213
 C187 C 0.23326 0.27966 0.28127
 C188 C 0.26287 0.21746 0.21950
 C189 C 0.27941 0.23318 0.28093
 C190 C 0.21656 0.26383 0.22003
 O191 O 0.76312 0.72504 0.22172
 O192 O 0.71619 0.74822 0.26692
 O193 O 0.72925 0.76032 0.22162
 O194 O 0.75047 0.71305 0.26707
 O195 O 0.77951 0.74069 0.28130
 O196 O 0.75779 0.78829 0.23618
 O197 O 0.74509 0.77583 0.28143
 O198 O 0.79191 0.75302 0.23579
 Cu199 Cu 0.73684 0.73388 0.24293
 Cu200 Cu 0.77149 0.76722 0.26015
 C201 C 0.78539 0.73528 0.22086
 C202 C 0.72268 0.76586 0.28194
 C203 C 0.74001 0.78226 0.22103
 C204 C 0.76857 0.71884 0.28195
 O205 O 0.78288 0.24503 0.23281
 O206 O 0.73542 0.22219 0.27870
 O207 O 0.74708 0.20972 0.23330
 O208 O 0.77097 0.25763 0.27815
 O209 O 0.74310 0.28506 0.26383
 O210 O 0.71926 0.23716 0.21893
 O211 O 0.70756 0.24962 0.26439
 O212 O 0.75510 0.27254 0.21851
 Cu213 Cu 0.76189 0.23088 0.25715
 Cu214 Cu 0.72846 0.26384 0.23995
 C215 C 0.77705 0.26259 0.21780
 C216 C 0.71349 0.23215 0.27949
 C217 C 0.72919 0.21532 0.21842
 C218 C 0.76094 0.27943 0.27875
 O219 O 0.25273 0.71207 0.26475
 O220 O 0.27535 0.76040 0.21977
 O221 O 0.28792 0.74793 0.26497
 O222 O 0.24018 0.72449 0.21949
 O223 O 0.21216 0.75158 0.23416
 O224 O 0.25986 0.77495 0.27968
 O225 O 0.24729 0.78742 0.23451
 O226 O 0.22463 0.73908 0.27942
 Cu227 Cu 0.26686 0.73350 0.24077
 Cu228 Cu 0.23316 0.76596 0.25843
 C229 C 0.23496 0.71742 0.27985
 C230 C 0.26504 0.78207 0.21938
 C231 C 0.28197 0.76532 0.28015
 C232 C 0.21813 0.73422 0.21895
 O233 O 0.75879 0.27446 0.78050
 O234 O 0.71083 0.24998 0.73588
 O235 O 0.72388 0.23854 0.78125
 O236 O 0.74590 0.28591 0.73513
 O237 O 0.77394 0.25868 0.72074
 O238 O 0.75190 0.21131 0.76684
 O239 O 0.73884 0.22275 0.72145
 O240 O 0.78695 0.24738 0.76608
 Cu241 Cu 0.73202 0.26495 0.75962
 Cu242 Cu 0.76572 0.23228 0.74233
 C243 C 0.78095 0.26498 0.78102
 C244 C 0.71672 0.23236 0.72094
 C245 C 0.73431 0.21696 0.78203
 C246 C 0.76355 0.28029 0.71999
 O247 O 0.24668 0.79014 0.76350
 O248 O 0.22452 0.74204 0.71796
 O249 O 0.21162 0.75401 0.76321
 O250 O 0.25961 0.77808 0.71822
 O251 O 0.28768 0.75106 0.73292
 O252 O 0.23982 0.72710 0.77785
 O253 O 0.25263 0.71506 0.73263
 O254 O 0.27467 0.76302 0.77816
 Cu255 Cu 0.23279 0.76880 0.73924
 Cu256 Cu 0.26653 0.73636 0.75683
 C257 C 0.26428 0.78464 0.77874
 C258 C 0.23492 0.72042 0.71748
 C259 C 0.21765 0.73659 0.77832
 C260 C 0.28176 0.76851 0.71781
 O261 O 0.25064 0.28753 0.73570
 O262 O 0.27284 0.24070 0.78121
 O263 O 0.28497 0.25247 0.73563
 O264 O 0.23848 0.27559 0.78130
 O265 O 0.20948 0.24774 0.76740
 O266 O 0.25610 0.22445 0.72180
 O267 O 0.24402 0.21262 0.76741
 O268 O 0.22177 0.25955 0.72180
 Cu269 Cu 0.26462 0.26689 0.75984
 Cu270 Cu 0.22992 0.23328 0.74323
 C271 C 0.23257 0.28146 0.72088
 C272 C 0.26215 0.21875 0.78215
 C273 C 0.27841 0.23462 0.72087
 C274 C 0.21613 0.26551 0.78222
 O275 O 0.74862 0.71331 0.73154
 O276 O 0.72773 0.76250 0.77553
 O277 O 0.71550 0.74952 0.73050
 O278 O 0.76091 0.72619 0.77702
 O279 O 0.79124 0.75188 0.76198
 O280 O 0.74514 0.77666 0.71659
 O281 O 0.75876 0.78835 0.76209
 O282 O 0.77808 0.74013 0.71673
 Cu283 Cu 0.73521 0.73517 0.75509
 Cu284 Cu 0.77127 0.76695 0.73784
 C285 C 0.76671 0.71849 0.71645
 C286 C 0.74002 0.78364 0.77653
 C287 C 0.72255 0.76710 0.71568
 C288 C 0.78376 0.73508 0.77747
 C289 C 0.30893 0.10176 0.08424
 N290 N 0.30054 0.07712 0.08384
 N291 N 0.30515 0.06236 0.06430
 C292 C 0.31844 0.07149 0.04436
 N293 N 0.32645 0.09635 0.04479
 N294 N 0.32195 0.11111 0.06434
 C295 C 0.30337 0.11830 0.10545
 N296 N 0.31292 0.14256 0.10624
 N297 N 0.30735 0.15786 0.12511
 C298 C 0.29196 0.14949 0.14386
 N299 N 0.28247 0.12520 0.14314
 N300 N 0.28811 0.10987 0.12429
 C301 C 0.28512 0.16674 0.16415
 N302 N 0.26776 0.15936 0.18166
 N303 N 0.26088 0.17540 0.19950
 C304 C 0.27118 0.19937 0.20053
 N305 N 0.28867 0.20667 0.18313
 N306 N 0.29548 0.19067 0.16525
 C307 C 0.80978 0.59758 0.58470
 N308 N 0.82786 0.60402 0.56755
 N309 N 0.83171 0.58918 0.54790
 C310 C 0.81779 0.56723 0.54476
 N311 N 0.79960 0.56090 0.56186
 N312 N 0.79574 0.57573 0.58151
 C313 C 0.80475 0.61455 0.60572
 N314 N 0.78606 0.60862 0.62243
 N315 N 0.78080 0.62454 0.64091
 C316 C 0.79403 0.64699 0.64333
 N317 N 0.81281 0.65284 0.62671
 N318 N 0.81807 0.63692 0.60825
 C319 C 0.78754 0.66509 0.66301
 N320 N 0.80010 0.68796 0.66464
 N321 N 0.79364 0.70483 0.68187
 C322 C 0.77439 0.69944 0.69813
 N323 N 0.76191 0.67650 0.69662
 N324 N 0.76837 0.65963 0.67936
 C325 C 0.69958 0.89782 0.08427
 N326 N 0.69083 0.88732 0.06283
 N327 N 0.68694 0.90175 0.04297
 C328 C 0.69123 0.92740 0.04371
 N329 N 0.70031 0.93777 0.06522
 N330 N 0.70439 0.92332 0.08511
 C331 C 0.70413 0.88157 0.10589
 N332 N 0.71682 0.89070 0.12616
 N333 N 0.72155 0.87548 0.14534
 C334 C 0.71362 0.85066 0.14498
 N335 N 0.70077 0.84163 0.12480
 N336 N 0.69618 0.85678 0.10560
 C337 C 0.71954 0.83346 0.16555
 N338 N 0.70958 0.80936 0.16584
 N339 N 0.71573 0.79324 0.18382
 C340 C 0.73217 0.80059 0.20213
 N341 N 0.74206 0.82475 0.20194
 N342 N 0.73580 0.84093 0.18400
 C343 C 0.18919 0.39912 0.58649
 N344 N 0.20297 0.42115 0.58343
 N345 N 0.19927 0.43579 0.56363
 C346 C 0.18150 0.42909 0.54624
 N347 N 0.16786 0.40695 0.54924
 N348 N 0.17156 0.39229 0.56904
 C349 C 0.19406 0.38245 0.60779
 N350 N 0.18116 0.35983 0.61026
 N351 N 0.18630 0.34427 0.62905
 C352 C 0.20453 0.35077 0.64605
 N353 N 0.21731 0.37346 0.64367
 N354 N 0.21217 0.38901 0.62488
 C355 C 0.21100 0.33316 0.66617
 N356 N 0.22972 0.33943 0.68274
 N357 N 0.23632 0.32309 0.70040
 C358 C 0.22445 0.29988 0.70213
 N359 N 0.20562 0.29365 0.68565
 N360 N 0.19901 0.31000 0.66800
 C361 C 0.89795 0.31105 0.08536
 N362 N 0.91935 0.29732 0.08175
 N363 N 0.93450 0.30190 0.06229
 C364 C 0.92898 0.32056 0.04582
 N365 N 0.90746 0.33418 0.04937
 N366 N 0.89227 0.32957 0.06881
 C367 C 0.88072 0.30525 0.10626
 N368 N 0.85840 0.31777 0.10900
 N369 N 0.84234 0.31181 0.12744
 C370 C 0.84802 0.29315 0.14383
 N371 N 0.87041 0.28075 0.14119
 N372 N 0.88645 0.28668 0.12273
 C373 C 0.82992 0.28589 0.16362
 N374 N 0.83567 0.26718 0.17993
 N375 N 0.81893 0.25998 0.19738
 C376 C 0.79581 0.27120 0.19913
 N377 N 0.79010 0.28998 0.18289
 N378 N 0.80685 0.29721 0.16545
 C379 C 0.40224 0.81545 0.58461
 N380 N 0.42428 0.80250 0.58186
 N381 N 0.43925 0.80646 0.56214
 C382 C 0.43289 0.82370 0.54453
 N383 N 0.41074 0.83652 0.54723
 N384 N 0.39575 0.83255 0.56694
 C385 C 0.38518 0.81021 0.60578
 N386 N 0.36244 0.82209 0.60786
 N387 N 0.34650 0.81653 0.62651
 C388 C 0.35273 0.79890 0.64378
 N389 N 0.37556 0.78715 0.64179
 N390 N 0.39148 0.79270 0.62313
 C391 C 0.33470 0.79189 0.66371
 N392 N 0.34077 0.77380 0.68057
 N393 N 0.32403 0.76665 0.69804
 C394 C 0.30061 0.77732 0.69930
 N395 N 0.29459 0.79553 0.68254
 N396 N 0.31134 0.80269 0.66507
 C397 C 0.09965 0.68918 0.08341
 N398 N 0.07845 0.70320 0.07969
 N399 N 0.06359 0.69908 0.05992
 C400 C 0.06919 0.68063 0.04324
 N401 N 0.09054 0.66677 0.04686
 N402 N 0.10545 0.67092 0.06661
 C403 C 0.11644 0.69434 0.10480
 N404 N 0.13859 0.68159 0.10772
 N405 N 0.15422 0.68693 0.12668
 C406 C 0.14825 0.70518 0.14343
 N407 N 0.12603 0.71781 0.14059
 N408 N 0.11042 0.71250 0.12162
 C409 C 0.16594 0.71185 0.16376
 N410 N 0.15992 0.73017 0.18042
 N411 N 0.17638 0.73698 0.19826
 C412 C 0.19948 0.72574 0.20010
 N413 N 0.20545 0.70731 0.18354
 N414 N 0.18897 0.70047 0.16571
 C415 C 0.59661 0.18597 0.58721
 N416 N 0.57475 0.19918 0.58436
 N417 N 0.55979 0.19530 0.56462
 C418 C 0.56596 0.17790 0.54709
 N419 N 0.58796 0.16483 0.54987
 N420 N 0.60296 0.16873 0.56960
 C421 C 0.61361 0.19106 0.60847
 N422 N 0.63624 0.17897 0.61068
 N423 N 0.65210 0.18439 0.62944
 C424 C 0.64590 0.20206 0.64670
 N425 N 0.62320 0.21401 0.64458
 N426 N 0.60735 0.20861 0.62581
 C427 C 0.66386 0.20895 0.66674
 N428 N 0.65781 0.22711 0.68355
 N429 N 0.67450 0.23423 0.70108
 C430 C 0.69787 0.22346 0.70245
 N431 N 0.70387 0.20517 0.68575
 N432 N 0.68716 0.19804 0.66821
 C433 C 0.69114 0.09838 0.91740
 N434 N 0.70087 0.07467 0.91780
 N435 N 0.69620 0.05914 0.93688
 C436 C 0.68143 0.06646 0.95628
 N437 N 0.67217 0.09049 0.95594
 N438 N 0.67678 0.10606 0.93686
 C439 C 0.69648 0.11558 0.89646
 N440 N 0.68611 0.13904 0.89566
 N441 N 0.69129 0.15478 0.87684
 C442 C 0.70704 0.14764 0.85815
 N443 N 0.71736 0.12416 0.85893
 N444 N 0.71214 0.10841 0.87772
 C445 C 0.71336 0.16527 0.83780
 N446 N 0.73057 0.15884 0.82010
 N447 N 0.73698 0.17518 0.80211
 C448 C 0.72635 0.19851 0.80113
 N449 N 0.70902 0.20488 0.81873
 N450 N 0.70265 0.18856 0.83675
 C451 C 0.19032 0.59746 0.41360
 N452 N 0.20385 0.57591 0.41664
 N453 N 0.20000 0.56113 0.43644
 C454 C 0.18232 0.56720 0.45385
 N455 N 0.16892 0.58885 0.45086
 N456 N 0.17278 0.60365 0.43107
 C457 C 0.19535 0.61434 0.39233
 N458 N 0.18273 0.63653 0.38995
 N459 N 0.18804 0.65233 0.37122
 C460 C 0.20615 0.64653 0.35416
 N461 N 0.21865 0.62426 0.35645
 N462 N 0.21335 0.60846 0.37519
 C463 C 0.21281 0.66447 0.33414
 N464 N 0.23136 0.65893 0.31743
 N465 N 0.23813 0.67564 0.29989
 C466 C 0.22662 0.69852 0.29842
 N467 N 0.20797 0.70400 0.31503
 N468 N 0.20119 0.68728 0.33256
 C469 C 0.30715 0.90207 0.91522
 N470 N 0.30045 0.92687 0.91493
 N471 N 0.30472 0.94170 0.93465
 C472 C 0.31596 0.93246 0.95547
 N473 N 0.32223 0.90745 0.95569
 N474 N 0.31810 0.89263 0.93598
 C475 C 0.30213 0.88544 0.89376
 N476 N 0.31083 0.86128 0.89356
 N477 N 0.30580 0.84585 0.87447
 C478 C 0.29181 0.85396 0.85489
 N479 N 0.28315 0.87815 0.85503
 N480 N 0.28828 0.89364 0.87410
 C481 C 0.28549 0.83648 0.83438
 N482 N 0.26891 0.84325 0.81624
 N483 N 0.26240 0.82688 0.79826
 C484 C 0.27234 0.80321 0.79773
 N485 N 0.28908 0.79655 0.81575
 N486 N 0.29551 0.81287 0.83376
 C487 C 0.80761 0.39851 0.41273
 N488 N 0.79446 0.42030 0.41570
 N489 N 0.79849 0.43505 0.43551
 C490 C 0.81598 0.42870 0.45299
 N491 N 0.82899 0.40679 0.45007
 N492 N 0.82495 0.39202 0.43028
 C493 C 0.80235 0.38171 0.39143
 N494 N 0.81458 0.35930 0.38904
 N495 N 0.80905 0.34360 0.37025
 C496 C 0.79109 0.34975 0.35316
 N497 N 0.77899 0.37224 0.35546
 N498 N 0.78451 0.38793 0.37425
 C499 C 0.78414 0.33194 0.33309
 N500 N 0.76565 0.33781 0.31644
 N501 N 0.75855 0.32123 0.29888
 C502 C 0.76968 0.29817 0.29732
 N503 N 0.78828 0.29236 0.31387
 N504 N 0.79539 0.30895 0.33143
 C505 C 0.09969 0.31334 0.91668
 N506 N 0.07431 0.30710 0.91614
 N507 N 0.05948 0.31150 0.93575
 C508 C 0.06931 0.32240 0.95670
 N509 N 0.09486 0.32833 0.95714
 N510 N 0.10968 0.32406 0.93754
 C511 C 0.11632 0.30779 0.89546
 N512 N 0.14125 0.31582 0.89546
 N513 N 0.15666 0.31010 0.87667
 C514 C 0.14775 0.29604 0.85722
 N515 N 0.12279 0.28807 0.85716
 N516 N 0.10733 0.29389 0.87592
 C517 C 0.16512 0.28888 0.83707
 N518 N 0.15731 0.27214 0.81923
 N519 N 0.17346 0.26489 0.80156
 C520 C 0.19797 0.27421 0.80103
 N521 N 0.20570 0.29110 0.81874
 N522 N 0.18959 0.29826 0.83646
 C523 C 0.60306 0.81463 0.41343
 N524 N 0.61005 0.83239 0.43061
 N525 N 0.59511 0.83678 0.45013
 C526 C 0.57253 0.82372 0.45312
 N527 N 0.56566 0.80584 0.43600
 N528 N 0.58058 0.80146 0.41647
 C529 C 0.62008 0.80891 0.39255
 N530 N 0.61332 0.79074 0.37569
 N531 N 0.62919 0.78479 0.35733
 C532 C 0.65243 0.79677 0.35516
 N533 N 0.65914 0.81506 0.37192
 N534 N 0.64325 0.82102 0.39028
 C535 C 0.67036 0.78944 0.33554
 N536 N 0.69408 0.80055 0.33405
 N537 N 0.71066 0.79324 0.31680
 C538 C 0.70412 0.77456 0.30040
 N539 N 0.68036 0.76354 0.30180
 N540 N 0.66378 0.77084 0.31906
 C541 C 0.89878 0.68825 0.91346
 N542 N 0.88869 0.67789 0.93444
 N543 N 0.90347 0.67378 0.95411
 C544 C 0.92906 0.67953 0.95364
 N545 N 0.93896 0.69011 0.93259
 N546 N 0.92419 0.69434 0.91290
 C547 C 0.88223 0.69354 0.89210
 N548 N 0.89153 0.70662 0.87219
 N549 N 0.87623 0.71219 0.85324
 C550 C 0.85110 0.70478 0.85347
 N551 N 0.84187 0.69154 0.87330
 N552 N 0.85714 0.68606 0.89228
 C553 C 0.83394 0.71174 0.83306
 N554 N 0.80914 0.70329 0.83281
 N555 N 0.79327 0.71038 0.81485
 C556 C 0.80160 0.72624 0.79652
 N557 N 0.82644 0.73460 0.79670
 N558 N 0.84234 0.72744 0.81462
 C559 C 0.39621 0.18747 0.41580
 N560 N 0.41864 0.20069 0.41900
 N561 N 0.43327 0.19657 0.43878
 C562 C 0.42616 0.17892 0.45602
 N563 N 0.40359 0.16586 0.45292
 N564 N 0.38893 0.16999 0.43313
 C565 C 0.37965 0.19272 0.39445
 N566 N 0.35667 0.18033 0.39175
 N567 N 0.34126 0.18579 0.37286
 C568 C 0.34827 0.20382 0.35596
 N569 N 0.37132 0.21609 0.35858
 N570 N 0.38672 0.21064 0.37747
 C571 C 0.33083 0.21062 0.33575
 N572 N 0.33756 0.22916 0.31929
 N573 N 0.32133 0.23608 0.30157
 C574 C 0.29777 0.22470 0.29966
 N575 N 0.29109 0.20604 0.31602
 N576 N 0.30733 0.19912 0.33373
 C577 C 0.70069 0.89847 0.91399
 N578 N 0.68219 0.91623 0.91392
 N579 N 0.67838 0.93071 0.93387
 C580 C 0.69279 0.92789 0.95470
 N581 N 0.71069 0.90947 0.95484
 N582 N 0.71480 0.89532 0.93482
 C583 C 0.70585 0.88302 0.89199
 N584 N 0.72993 0.87481 0.88775
 N585 N 0.73487 0.86027 0.86818
 C586 C 0.71583 0.85305 0.85235
 N587 N 0.69168 0.86115 0.85661
 N588 N 0.68681 0.87609 0.87600
 C589 C 0.72141 0.83610 0.83152
 N590 N 0.70332 0.81937 0.82277
 N591 N 0.70910 0.80278 0.80501
 C592 C 0.73306 0.80262 0.79515
 N593 N 0.75100 0.81959 0.80365
 N594 N 0.74533 0.83589 0.82165
 C595 C 0.18960 0.39770 0.41532
 N596 N 0.20329 0.41981 0.41814
 N597 N 0.19951 0.43471 0.43774
 C598 C 0.18173 0.42820 0.45517
 N599 N 0.16819 0.40596 0.45243
 N600 N 0.17198 0.39103 0.43283
 C601 C 0.19452 0.38083 0.39419
 N602 N 0.18176 0.35811 0.39190
 N603 N 0.18694 0.34244 0.37320
 C604 C 0.20506 0.34893 0.35609
 N605 N 0.21769 0.37172 0.35830
 N606 N 0.21252 0.38737 0.37700
 C607 C 0.21157 0.33127 0.33603
 N608 N 0.23017 0.33763 0.31939
 N609 N 0.23681 0.32130 0.30173
 C610 C 0.22510 0.29800 0.30007
 N611 N 0.20638 0.29168 0.31662
 N612 N 0.19974 0.30803 0.33429
 C613 C 0.31033 0.10163 0.91542
 N614 N 0.32269 0.11116 0.93564
 N615 N 0.32709 0.09641 0.95520
 C616 C 0.31964 0.07139 0.95534
 N617 N 0.30713 0.06203 0.93501
 N618 N 0.30260 0.07679 0.91545
 C619 C 0.30459 0.11828 0.89434
 N620 N 0.28939 0.10989 0.87542
 N621 N 0.28341 0.12541 0.85684
 C622 C 0.29249 0.14986 0.85647
 N623 N 0.30784 0.15817 0.87529
 N624 N 0.31373 0.14269 0.89390
 C625 C 0.28525 0.16735 0.83653
 N626 N 0.29547 0.19135 0.83567
 N627 N 0.28833 0.20758 0.81813
 C628 C 0.27065 0.20045 0.80084
 N629 N 0.26047 0.17642 0.80163
 N630 N 0.26767 0.16015 0.81913
 C631 C 0.81148 0.59842 0.41398
 N632 N 0.82909 0.60481 0.43160
 N633 N 0.83259 0.58978 0.45117
 C634 C 0.81874 0.56771 0.45376
 N635 N 0.80100 0.56144 0.43620
 N636 N 0.79752 0.57645 0.41663
 C637 C 0.80676 0.61551 0.39301
 N638 N 0.78863 0.60938 0.37580
 N639 N 0.78356 0.62535 0.35734
 C640 C 0.79642 0.64804 0.35542
 N641 N 0.81466 0.65411 0.37254
 N642 N 0.81975 0.63813 0.39100
 C643 C 0.78998 0.66608 0.33570
 N644 N 0.80203 0.68924 0.33430
 N645 N 0.79545 0.70596 0.31698
 C646 C 0.77658 0.70011 0.30043
 N647 N 0.76464 0.67691 0.30173
 N648 N 0.77122 0.66020 0.31905
 C649 C 0.09940 0.68821 0.91288
 N650 N 0.07432 0.69451 0.91256
 N651 N 0.05946 0.69014 0.93229
 C652 C 0.06893 0.67921 0.95315
 N653 N 0.09419 0.67323 0.95337
 N654 N 0.10905 0.67748 0.93365
 C655 C 0.11615 0.69374 0.89155
 N656 N 0.14073 0.68581 0.89146
 N657 N 0.15630 0.69155 0.87259
 C658 C 0.14791 0.70552 0.85316
 N659 N 0.12329 0.71338 0.85319
 N660 N 0.10767 0.70755 0.87202
 C661 C 0.16555 0.71273 0.83297
 N662 N 0.15836 0.72925 0.81502
 N663 N 0.17483 0.73662 0.79737
 C664 C 0.19904 0.72764 0.79699
 N665 N 0.20613 0.71097 0.81481
 N666 N 0.18971 0.70368 0.83249
 C667 C 0.59598 0.18710 0.41565
 N668 N 0.57420 0.20034 0.41894
 N669 N 0.55947 0.19625 0.43878
 C670 C 0.56581 0.17860 0.45600
 N671 N 0.58773 0.16552 0.45282
 N672 N 0.60250 0.16963 0.43297
 C673 C 0.61262 0.19227 0.39418
 N674 N 0.63506 0.17998 0.39144
 N675 N 0.65055 0.18534 0.37239
 C676 C 0.64415 0.20318 0.35538
 N677 N 0.62164 0.21535 0.35805
 N678 N 0.60617 0.21000 0.37710
 C679 C 0.66169 0.20987 0.33497
 N680 N 0.65550 0.22809 0.31829
 N681 N 0.67184 0.23491 0.30036
 C682 C 0.69498 0.22376 0.29846
 N683 N 0.70111 0.20543 0.31505
 N684 N 0.68476 0.19860 0.33297
 C685 C 0.89920 0.31392 0.91541
 N686 N 0.92426 0.30757 0.91515
 N687 N 0.93907 0.31185 0.93494
 C688 C 0.92955 0.32274 0.95581
 N689 N 0.90431 0.32878 0.95597
 N690 N 0.88951 0.32462 0.93619
 C691 C 0.88250 0.30843 0.89404
 N692 N 0.85794 0.31642 0.89388
 N693 N 0.84238 0.31067 0.87499
 C694 C 0.85077 0.29663 0.85559
 N695 N 0.87538 0.28872 0.85568
 N696 N 0.89099 0.29457 0.87454
 C697 C 0.83315 0.28932 0.83542
 N698 N 0.84030 0.27265 0.81759
 N699 N 0.82381 0.26515 0.80000
 C700 C 0.79960 0.27413 0.79957
 N701 N 0.79254 0.29096 0.81728
 N702 N 0.80899 0.29839 0.83490
 C703 C 0.40192 0.81332 0.41360
 N704 N 0.39549 0.83086 0.43089
 N705 N 0.41052 0.83529 0.45050
 C706 C 0.43264 0.82247 0.45347
 N707 N 0.43892 0.80477 0.43626
 N708 N 0.42392 0.80037 0.41664
 C709 C 0.38489 0.80770 0.39249
 N710 N 0.39118 0.78986 0.37544
 N711 N 0.37532 0.78407 0.35679
 C712 C 0.35256 0.79588 0.35451
 N713 N 0.34633 0.81383 0.37148
 N714 N 0.36221 0.81964 0.39013
 C715 C 0.33462 0.78871 0.33455
 N716 N 0.31132 0.79961 0.33297
 N717 N 0.29466 0.79239 0.31543
 C718 C 0.30071 0.77404 0.29881
 N719 N 0.32407 0.76326 0.30030
 N720 N 0.34071 0.77046 0.31785
 C721 C 0.30921 0.90237 0.08581
 N722 N 0.32675 0.89628 0.06830
 N723 N 0.33049 0.91113 0.04853
 C724 C 0.31697 0.93272 0.04559
 N725 N 0.29930 0.93868 0.06304
 N726 N 0.29557 0.92385 0.08282
 C727 C 0.30428 0.88543 0.10705
 N728 N 0.28631 0.89123 0.12425
 N729 N 0.28110 0.87538 0.14297
 C730 C 0.29365 0.85313 0.14517
 N731 N 0.31173 0.84740 0.12806
 N732 N 0.31696 0.86326 0.10935
 C733 C 0.28706 0.83513 0.16517
 N734 N 0.29870 0.81232 0.16666
 N735 N 0.29195 0.79555 0.18417
 C736 C 0.27334 0.80100 0.20083
 N737 N 0.26183 0.82387 0.19945
 N738 N 0.26857 0.84063 0.18193
 C739 C 0.80721 0.39808 0.58425
 N740 N 0.82480 0.39181 0.56685
 N741 N 0.82880 0.40661 0.54709
 C742 C 0.81549 0.42831 0.54407
 N743 N 0.79771 0.43440 0.56136
 N744 N 0.79372 0.41963 0.58113
 C745 C 0.80219 0.38139 0.60563
 N746 N 0.78429 0.38751 0.62278
 N747 N 0.77910 0.37199 0.64175
 C748 C 0.79161 0.34976 0.64427
 N749 N 0.80961 0.34369 0.62720
 N750 N 0.81482 0.35923 0.60823
 C751 C 0.78512 0.33217 0.66461
 N752 N 0.79680 0.30942 0.66650
 N753 N 0.79018 0.29303 0.68437
 C754 C 0.77167 0.29882 0.70102
 N755 N 0.76012 0.32164 0.69924
 N756 N 0.76672 0.33802 0.68135
 C757 C 0.68163 0.09436 0.08638
 N758 N 0.69522 0.07282 0.08371
 N759 N 0.69196 0.05805 0.06382
 C760 C 0.67481 0.06408 0.04591
 N761 N 0.66125 0.08570 0.04858
 N762 N 0.66453 0.10052 0.06848
 C763 C 0.68654 0.11140 0.10758
 N764 N 0.67447 0.13395 0.10951
 N765 N 0.68006 0.14996 0.12805
 C766 C 0.69792 0.14400 0.14531
 N767 N 0.70981 0.12136 0.14348
 N768 N 0.70423 0.10537 0.12496
 C769 C 0.70513 0.16214 0.16501
 N770 N 0.72363 0.15637 0.18168
 N771 N 0.73104 0.17320 0.19890
 C772 C 0.72023 0.19643 0.20009
 N773 N 0.70160 0.20216 0.18353
 N774 N 0.69419 0.18532 0.16630
 C775 C 0.19048 0.59914 0.58463
 N776 N 0.17294 0.60504 0.56706
 N777 N 0.16905 0.58987 0.54752
 C778 C 0.18241 0.56814 0.54491
 N779 N 0.20010 0.56238 0.56241
 N780 N 0.20398 0.57753 0.58195
 C781 C 0.19555 0.61637 0.60564
 N782 N 0.21349 0.61069 0.62290
 N783 N 0.21880 0.62674 0.64145
 C784 C 0.20637 0.64908 0.64341
 N785 N 0.18832 0.65470 0.62624
 N786 N 0.18300 0.63864 0.60769
 C787 C 0.21301 0.66723 0.66328
 N788 N 0.20142 0.69007 0.66466
 N789 N 0.20816 0.70691 0.68213
 C790 C 0.22672 0.70151 0.69886
 N791 N 0.23820 0.67861 0.69757
 N792 N 0.23147 0.66178 0.68010
 C793 C 0.90031 0.69021 0.08426
 N794 N 0.92211 0.70419 0.08017
 N795 N 0.93649 0.69994 0.06024
 C796 C 0.92976 0.68139 0.04375
 N797 N 0.90780 0.66757 0.04773
 N798 N 0.89338 0.67185 0.06765
 C799 C 0.88408 0.69547 0.10585
 N800 N 0.86153 0.68250 0.10926
 N801 N 0.84643 0.68788 0.12841
 C802 C 0.85334 0.70640 0.14486
 N803 N 0.87596 0.71926 0.14153
 N804 N 0.89105 0.71389 0.12237
 C805 C 0.83620 0.71307 0.16536
 N806 N 0.84298 0.73179 0.18165
 N807 N 0.82698 0.73857 0.19962
 C808 C 0.80360 0.72689 0.20195
 N809 N 0.79689 0.70807 0.18576
 N810 N 0.81290 0.70127 0.16781
 C811 C 0.39597 0.18740 0.58713
 N812 N 0.38868 0.17002 0.56969
 N813 N 0.40345 0.16582 0.55000
 C814 C 0.42614 0.17870 0.54710
 N815 N 0.43329 0.19623 0.56446
 N816 N 0.41854 0.20042 0.58416
 C817 C 0.37924 0.19283 0.60831
 N818 N 0.38630 0.21071 0.62534
 N819 N 0.37073 0.21639 0.64403
 C820 C 0.34751 0.20440 0.64637
 N821 N 0.34051 0.18640 0.62942
 N822 N 0.35609 0.18072 0.61073
 C823 C 0.32992 0.21147 0.66638
 N824 N 0.30629 0.20023 0.66820
 N825 N 0.28998 0.20736 0.68577
 C826 C 0.29673 0.22599 0.70217
 N827 N 0.32042 0.23711 0.70044
 N828 N 0.33672 0.22998 0.68286
 C829 C 0.09864 0.31150 0.08676
 N830 N 0.10528 0.33006 0.07029
 N831 N 0.09058 0.33450 0.05060
 C832 C 0.06861 0.32066 0.04673
 N833 N 0.06212 0.30195 0.06312
 N834 N 0.07678 0.29754 0.08282
 C835 C 0.11533 0.30589 0.10792
 N836 N 0.10876 0.28713 0.12421
 N837 N 0.12433 0.28136 0.14287
 C838 C 0.14707 0.29411 0.14591
 N839 N 0.15357 0.31296 0.12970
 N840 N 0.13798 0.31876 0.11106
 C841 C 0.16471 0.28699 0.16584
 N842 N 0.18807 0.29874 0.16805
 N843 N 0.20447 0.29159 0.18553
 C844 C 0.19809 0.27244 0.20146
 N845 N 0.17468 0.26080 0.19935
 N846 N 0.15829 0.26793 0.18186
 C847 C 0.60360 0.81614 0.58377
 N848 N 0.58092 0.80321 0.58118
 N849 N 0.56589 0.80731 0.56167
 C850 C 0.57284 0.82468 0.54411
 N851 N 0.59562 0.83751 0.54666
 N852 N 0.61068 0.83339 0.56616
 C853 C 0.62070 0.81063 0.60465
 N854 N 0.64413 0.82231 0.60652
 N855 N 0.66004 0.81643 0.62490
 C856 C 0.65307 0.79867 0.64207
 N857 N 0.62957 0.78714 0.64029
 N858 N 0.61369 0.79300 0.62192
 C859 C 0.67091 0.79130 0.66175
 N860 N 0.66392 0.77309 0.67845
 N861 N 0.68032 0.76564 0.69578
 C862 C 0.70433 0.77611 0.69707
 N863 N 0.71131 0.79443 0.68046
 N864 N 0.69489 0.80189 0.66310
   
