data_POSCAR
  _audit_creation_date              2014-09-24
  _audit_creation_method            'ToBaCCo'
  _symmetry_space_group_name_H-M    'P1'
  _symmetry_Int_Tables_number       1
  _symmetry_cell_setting            triclinic
  loop_
  _symmetry_equiv_pos_as_xyz
 x,y,z
_cell_length_a 38.9373
_cell_length_b 35.5553
_cell_length_c 37.4671
_cell_angle_alpha 84.829600
_cell_angle_beta 94.901400
_cell_angle_gamma 94.500000
loop_
  _atom_site_label
  _atom_site_type_symbol
  _atom_site_fract_x
  _atom_site_fract_y
  _atom_site_fract_z
C1 C 0.29098 0.31715 0.23427
 H2 H 0.29327 0.32041 0.26282
 C3 C 0.31212 0.33999 0.21161
 H4 H 0.33013 0.36134 0.22294
 C5 C 0.26483 0.28496 0.18513
 H6 H 0.24710 0.26276 0.17506
 C7 C 0.28568 0.30695 0.16155
 H8 H 0.28362 0.30129 0.13351
 N9 N 0.26780 0.29041 0.22076
 C10 C 0.19734 0.26616 0.30584
 H11 H 0.19847 0.23577 0.31018
 C12 C 0.17679 0.28482 0.32629
 H13 H 0.16250 0.26859 0.34673
 C14 C 0.21500 0.32412 0.27402
 H15 H 0.22935 0.33923 0.25312
 C16 C 0.19476 0.34393 0.29385
 H17 H 0.19384 0.37423 0.28799
 Zn18 Zn 0.24273 0.25807 0.25380
 N19 N 0.21620 0.28597 0.28059
 C20 C 0.28080 0.23680 0.32013
 N21 N 0.27589 0.23199 0.28441
 C22 C 0.29579 0.20943 0.26880
 C23 C 0.32060 0.18901 0.28952
 C24 C 0.30596 0.21757 0.34180
 C25 C 0.18670 0.23804 0.20548
 C26 C 0.16443 0.21416 0.18494
 C27 C 0.19322 0.16070 0.21443
 C28 C 0.21469 0.18552 0.23461
 N29 N 0.21180 0.22353 0.22906
 H30 H 0.26558 0.25592 0.33183
 H31 H 0.29187 0.20677 0.24017
 H32 H 0.33484 0.16996 0.27648
 H33 H 0.30979 0.22244 0.37000
 H34 H 0.18461 0.26833 0.20199
 H35 H 0.14534 0.22626 0.16542
 H36 H 0.19629 0.13057 0.21870
 H37 H 0.23378 0.17427 0.25445
 C38 C 0.17536 0.32427 0.32047
 C39 C 0.30993 0.33479 0.17471
 C40 C 0.16808 0.17502 0.18881
 C41 C 0.32609 0.19285 0.32666
 C42 C 0.79377 0.81447 0.23666
 H43 H 0.79706 0.81664 0.26539
 C44 C 0.81516 0.83702 0.21401
 H45 H 0.83368 0.85727 0.22616
 C46 C 0.76449 0.78576 0.18709
 H47 H 0.74549 0.76488 0.17675
 C48 C 0.78524 0.80773 0.16340
 H49 H 0.78163 0.80231 0.13536
 N50 N 0.76904 0.78949 0.22297
 C51 C 0.69676 0.76567 0.30643
 H52 H 0.69664 0.73512 0.30991
 C53 C 0.67615 0.78462 0.32659
 H54 H 0.66054 0.76843 0.34595
 C55 C 0.71759 0.82376 0.27704
 H56 H 0.73330 0.83885 0.25725
 C57 C 0.69740 0.84386 0.29667
 H58 H 0.69782 0.87436 0.29173
 Zn59 Zn 0.74360 0.75725 0.25582
 N60 N 0.71716 0.78539 0.28249
 C61 C 0.77953 0.73360 0.32273
 N62 N 0.77630 0.73067 0.28664
 C63 C 0.79739 0.70951 0.27093
 C64 C 0.82188 0.68876 0.29182
 C65 C 0.80409 0.71375 0.34465
 C66 C 0.68692 0.73745 0.20804
 C67 C 0.66463 0.71369 0.18739
 C68 C 0.69469 0.66032 0.21512
 C69 C 0.71618 0.68502 0.23542
 N70 N 0.71263 0.72296 0.23081
 H71 H 0.76329 0.75153 0.33460
 H72 H 0.79470 0.70824 0.24208
 H73 H 0.83733 0.67097 0.27868
 H74 H 0.80647 0.71685 0.37324
 H75 H 0.68433 0.76767 0.20528
 H76 H 0.64505 0.72583 0.16851
 H77 H 0.69826 0.63028 0.21868
 H78 H 0.73586 0.67376 0.25454
 C79 C 0.67635 0.82427 0.32188
 C80 C 0.81156 0.83381 0.17652
 C81 C 0.66888 0.67467 0.19032
 C82 C 0.82551 0.69057 0.32930
 C83 C 0.79554 0.31198 0.74010
 H84 H 0.79941 0.31207 0.76903
 C85 C 0.81769 0.33453 0.71830
 H86 H 0.83837 0.35236 0.73062
 C87 C 0.76439 0.28774 0.68899
 H88 H 0.74427 0.26866 0.67767
 C89 C 0.78581 0.31003 0.66617
 H90 H 0.78184 0.30790 0.63744
 N91 N 0.76961 0.28907 0.72524
 C92 C 0.69697 0.26382 0.80810
 H93 H 0.69641 0.23323 0.81098
 C94 C 0.67649 0.28266 0.82849
 H95 H 0.66052 0.26633 0.84744
 C96 C 0.71875 0.32215 0.77993
 H97 H 0.73481 0.33740 0.76054
 C98 C 0.69870 0.34214 0.79980
 H99 H 0.69953 0.37270 0.79539
 Zn100 Zn 0.74385 0.25608 0.75719
 N101 N 0.71773 0.28371 0.78460
 C102 C 0.77963 0.22995 0.82345
 N103 N 0.77638 0.22854 0.78726
 C104 C 0.79760 0.20844 0.77076
 C105 C 0.82233 0.18729 0.79076
 C106 C 0.80441 0.20969 0.84465
 C107 C 0.68700 0.23751 0.70886
 C108 C 0.66475 0.21419 0.68772
 C109 C 0.69490 0.16043 0.71435
 C110 C 0.71634 0.18469 0.73514
 N111 N 0.71275 0.22263 0.73131
 H112 H 0.76339 0.24731 0.83601
 H113 H 0.79477 0.20821 0.74179
 H114 H 0.83645 0.17017 0.77564
 H115 H 0.80645 0.21357 0.87298
 H116 H 0.68433 0.26771 0.70676
 H117 H 0.64513 0.22663 0.66910
 H118 H 0.69852 0.13039 0.71731
 H119 H 0.73603 0.17307 0.75403
 C120 C 0.67719 0.32237 0.82448
 C121 C 0.81316 0.33344 0.68082
 C122 C 0.66908 0.17520 0.68983
 C123 C 0.82657 0.18714 0.82881
 C124 C 0.29254 0.81698 0.73454
 H125 H 0.29505 0.81996 0.76315
 C126 C 0.31367 0.83990 0.71190
 H127 H 0.33188 0.86100 0.72332
 C128 C 0.26587 0.78546 0.68523
 H129 H 0.24794 0.76348 0.67505
 C130 C 0.28670 0.80751 0.66167
 H131 H 0.28441 0.80211 0.63356
 N132 N 0.26910 0.79055 0.72094
 C133 C 0.19795 0.76537 0.80536
 H134 H 0.19853 0.73488 0.80883
 C135 C 0.17739 0.78371 0.82608
 H136 H 0.16248 0.76714 0.84581
 C137 C 0.21699 0.82391 0.77547
 H138 H 0.23190 0.83941 0.75522
 C139 C 0.19687 0.84342 0.79570
 H140 H 0.19659 0.87389 0.79082
 Zn141 Zn 0.24393 0.75800 0.75377
 N142 N 0.21746 0.78560 0.78091
 C143 C 0.28164 0.73599 0.82003
 N144 N 0.27696 0.73154 0.78423
 C145 C 0.29698 0.70917 0.76855
 C146 C 0.32166 0.68856 0.78928
 C147 C 0.30668 0.71659 0.84170
 C148 C 0.18766 0.73863 0.70547
 C149 C 0.16533 0.71508 0.68465
 C150 C 0.19439 0.66131 0.71304
 C151 C 0.21590 0.68580 0.73355
 N152 N 0.21291 0.72382 0.72866
 H153 H 0.26631 0.75496 0.83179
 H154 H 0.29325 0.70679 0.73987
 H155 H 0.33600 0.66966 0.77617
 H156 H 0.31032 0.72121 0.86996
 H157 H 0.18549 0.76892 0.70251
 H158 H 0.14610 0.72742 0.66545
 H159 H 0.19756 0.63118 0.71675
 H160 H 0.23513 0.67428 0.75307
 C161 C 0.17676 0.82329 0.82145
 C162 C 0.31119 0.83507 0.67492
 C163 C 0.16909 0.67597 0.68781
 C164 C 0.32692 0.69204 0.82650
 C165 C 0.02861 -0.03827 -0.03026
 C166 C 0.05118 -0.01678 -0.00214
 C167 C 0.03355 0.00498 0.01698
 C168 C -0.00546 0.00321 0.00648
 C169 C 0.00046 -0.06078 -0.00890
 C170 C -0.01713 -0.03913 0.01053
 C171 C 0.00896 -0.00770 -0.05328
 C172 C -0.00879 0.01395 -0.03418
 H173 H 0.07897 -0.01810 0.00163
 H174 H -0.01991 0.02108 0.02191
 H175 H -0.00541 -0.09094 -0.00885
 H176 H 0.00760 -0.00494 -0.08239
 C177 C 0.02790 0.46292 0.46918
 C178 C 0.05088 0.48525 0.49634
 C179 C 0.03341 0.50635 0.51625
 C180 C -0.00590 0.50317 0.50743
 C181 C 0.00122 0.43957 0.49182
 C182 C -0.01609 0.46046 0.51224
 C183 C 0.00664 0.49264 0.44688
 C184 C -0.01087 0.51360 0.46681
 H185 H 0.07878 0.48482 0.49903
 H186 H -0.01998 0.52063 0.52361
 H187 H -0.00508 0.40957 0.49058
 H188 H 0.00455 0.49585 0.41776
 C189 C 0.52840 -0.03460 0.46806
 C190 C 0.55115 -0.01394 0.49666
 C191 C 0.53376 0.00773 0.51611
 C192 C 0.49478 0.00663 0.50549
 C193 C 0.49985 -0.05706 0.48891
 C194 C 0.48261 -0.03555 0.50875
 C195 C 0.50926 -0.00330 0.44547
 C196 C 0.49174 0.01813 0.46498
 H197 H 0.57892 -0.01552 0.50030
 H198 H 0.48038 0.02430 0.52118
 H199 H 0.49336 -0.08707 0.48823
 H200 H 0.50791 0.00003 0.41637
 C201 C 0.52849 0.46415 -0.03079
 C202 C 0.55110 0.48475 -0.00206
 C203 C 0.53363 0.50658 0.01717
 C204 C 0.49472 0.50569 0.00619
 C205 C 0.49968 0.44189 -0.01016
 C206 C 0.48235 0.46357 0.00944
 C207 C 0.50965 0.49552 -0.05361
 C208 C 0.49203 0.51710 -0.03433
 H209 H 0.57883 0.48300 0.00186
 H210 H 0.48027 0.52350 0.02170
 H211 H 0.49308 0.41190 -0.01079
 H212 H 0.50849 0.49874 -0.08271
 C213 C 0.11398 -0.11843 -0.11512
 C214 C 0.14748 -0.10353 -0.12218
 C215 C 0.16779 -0.12237 -0.14282
 C216 C 0.15512 -0.15660 -0.15678
 C217 C 0.12166 -0.17152 -0.14971
 C218 C 0.10131 -0.15263 -0.12916
 C219 C 0.09231 -0.09837 -0.09326
 C220 C 0.07154 -0.11872 -0.06823
 C221 C 0.05096 -0.09996 -0.04779
 C222 C 0.05027 -0.06022 -0.05217
 C223 C 0.07189 -0.03995 -0.07662
 C224 C 0.09238 -0.05872 -0.09707
 H225 H 0.19367 -0.11047 -0.14736
 H226 H 0.11098 -0.19754 -0.16057
 H227 H 0.03640 -0.11700 -0.02825
 H228 H 0.07282 -0.00932 -0.08001
 H229 H 0.07541 -0.16453 -0.12472
 H230 H 0.07167 -0.14924 -0.06393
 H231 H 0.15823 -0.07757 -0.11126
 H232 H 0.10799 -0.04216 -0.11620
 C233 C 0.11252 0.38330 0.38322
 C234 C 0.14521 0.39919 0.37436
 C235 C 0.16555 0.38011 0.35394
 C236 C 0.15364 0.34472 0.34190
 C237 C 0.12087 0.32894 0.35064
 C238 C 0.10056 0.34799 0.37107
 C239 C 0.09099 0.40334 0.40519
 C240 C 0.07263 0.38325 0.43236
 C241 C 0.05230 0.40195 0.45309
 C242 C 0.04926 0.44128 0.44673
 C243 C 0.06858 0.46141 0.42015
 C244 C 0.08894 0.44269 0.39948
 H245 H 0.19089 0.39275 0.34813
 H246 H 0.11071 0.30204 0.34125
 H247 H 0.03985 0.38531 0.47448
 H248 H 0.06791 0.49184 0.41533
 H249 H 0.07525 0.33532 0.37697
 H250 H 0.07457 0.35306 0.43813
 H251 H 0.15536 0.42608 0.38378
 H252 H 0.10282 0.45901 0.37877
 C253 C 0.61332 -0.11578 0.38365
 C254 C 0.64699 -0.10130 0.37687
 C255 C 0.66739 -0.12067 0.35677
 C256 C 0.65459 -0.15498 0.34302
 C257 C 0.62089 -0.16939 0.34970
 C258 C 0.60049 -0.15002 0.36978
 C259 C 0.59167 -0.09539 0.40523
 C260 C 0.57105 -0.11544 0.43054
 C261 C 0.55061 -0.09640 0.45088
 C262 C 0.54980 -0.05669 0.44602
 C263 C 0.57129 -0.03669 0.42128
 C264 C 0.59171 -0.05575 0.40098
 H265 H 0.69343 -0.10913 0.35253
 H266 H 0.61008 -0.19542 0.33897
 H267 H 0.53629 -0.11319 0.47079
 H268 H 0.57224 -0.00607 0.41760
 H269 H 0.57446 -0.16159 0.37404
 H270 H 0.57126 -0.14593 0.43520
 H271 H 0.65782 -0.07530 0.38766
 H272 H 0.60730 -0.03943 0.38167
 C273 C 0.61393 0.38235 -0.11405
 C274 C 0.64786 0.39646 -0.12012
 C275 C 0.66837 0.37702 -0.14004
 C276 C 0.65542 0.34303 -0.15433
 C277 C 0.62148 0.32896 -0.14827
 C278 C 0.60098 0.34839 -0.12836
 C279 C 0.59213 0.40289 -0.09278
 C280 C 0.57097 0.38294 -0.06790
 C281 C 0.55039 0.40212 -0.04784
 C282 C 0.54999 0.44188 -0.05256
 C283 C 0.57196 0.46176 -0.07689
 C284 C 0.59254 0.44255 -0.09690
 H285 H 0.69459 0.38829 -0.14377
 H286 H 0.61055 0.30319 -0.15943
 H287 H 0.53565 0.38538 -0.02825
 H288 H 0.57318 0.49239 -0.08046
 H289 H 0.57476 0.33711 -0.12463
 H290 H 0.57087 0.35242 -0.06337
 H291 H 0.65877 0.42223 -0.10897
 H292 H 0.60854 0.45878 -0.11589
 C293 C -0.10063 0.12016 -0.10933
 C294 C -0.09914 0.12754 -0.14655
 C295 C -0.12258 0.15022 -0.16681
 C296 C -0.14934 0.16609 -0.15090
 C297 C -0.15012 0.15865 -0.11304
 C298 C -0.12618 0.13637 -0.09281
 C299 C -0.07618 0.09481 -0.08820
 C300 C -0.08704 0.07015 -0.05912
 C301 C -0.06470 0.04472 -0.04079
 C302 C -0.03129 0.04295 -0.05155
 C303 C -0.02006 0.06798 -0.07998
 C304 C -0.04211 0.09390 -0.09787
 H305 H -0.11823 0.15571 -0.19489
 H306 H -0.16991 0.16817 -0.09828
 H307 H -0.07401 0.02538 -0.01913
 H308 H 0.00583 0.06745 -0.08837
 H309 H -0.12794 0.13170 -0.06405
 H310 H -0.11318 0.06953 -0.05121
 H311 H -0.07999 0.11535 -0.16043
 H312 H -0.03246 0.11307 -0.11943
 C313 C -0.10194 0.62145 0.39373
 C314 C -0.09443 0.63777 0.35941
 C315 C -0.11744 0.66094 0.33903
 C316 C -0.14894 0.66796 0.35209
 C317 C -0.15622 0.65217 0.38665
 C318 C -0.13293 0.62945 0.40729
 C319 C -0.07818 0.59512 0.41456
 C320 C -0.09138 0.56357 0.43598
 C321 C -0.06928 0.53766 0.45388
 C322 C -0.03369 0.54246 0.45032
 C323 C -0.02022 0.57396 0.42944
 C324 C -0.04219 0.60028 0.41203
 H325 H -0.11054 0.67318 0.31289
 H326 H -0.18032 0.65656 0.39754
 H327 H -0.08013 0.51305 0.46929
 H328 H 0.00730 0.57807 0.42657
 H329 H -0.13937 0.61798 0.43382
 H330 H -0.11891 0.55809 0.43801
 H331 H -0.07112 0.63195 0.34776
 H332 H -0.03094 0.62457 0.39646
 C333 C 0.40036 0.12545 0.39094
 C334 C 0.37123 0.13658 0.40601
 C335 C 0.34736 0.15859 0.38538
 C336 C 0.35230 0.17085 0.34929
 C337 C 0.38211 0.16091 0.33468
 C338 C 0.40549 0.13817 0.35500
 C339 C 0.42457 0.09964 0.41198
 C340 C 0.45973 0.10146 0.40517
 C341 C 0.48168 0.07518 0.42266
 C342 C 0.46925 0.04725 0.44810
 C343 C 0.43473 0.04619 0.45623
 C344 C 0.41248 0.07178 0.43805
 H345 H 0.32464 0.16519 0.39764
 H346 H 0.38745 0.17048 0.30734
 H347 H 0.50842 0.07665 0.41637
 H348 H 0.42462 0.02455 0.47560
 H349 H 0.42718 0.12989 0.34204
 H350 H 0.47040 0.12304 0.38616
 H351 H 0.36662 0.12814 0.43376
 H352 H 0.38556 0.06879 0.44367
 C353 C 0.40085 0.62426 -0.10910
 C354 C 0.40616 0.63710 -0.14498
 C355 C 0.38288 0.65993 -0.16535
 C356 C 0.35299 0.66984 -0.15086
 C357 C 0.34786 0.65742 -0.11484
 C358 C 0.37164 0.63534 -0.09416
 C359 C 0.42499 0.59841 -0.08798
 C360 C 0.41279 0.57057 -0.06195
 C361 C 0.43499 0.54504 -0.04359
 C362 C 0.46958 0.54613 -0.05149
 C363 C 0.48211 0.57400 -0.07693
 C364 C 0.46020 0.60023 -0.09460
 H365 H 0.38837 0.66960 -0.19262
 H366 H 0.32507 0.66397 -0.10267
 H367 H 0.42480 0.52344 -0.02424
 H368 H 0.50890 0.57548 -0.08305
 H369 H 0.36689 0.62682 -0.06646
 H370 H 0.38584 0.56756 -0.05648
 H371 H 0.42792 0.62886 -0.15785
 H372 H 0.47095 0.62178 -0.11358
 C373 C -0.11927 -0.10592 0.10542
 C374 C -0.15264 -0.11870 0.09258
 C375 C -0.17555 -0.13782 0.11590
 C376 C -0.16581 -0.14495 0.15300
 C377 C -0.13236 -0.13105 0.16570
 C378 C -0.10955 -0.11193 0.14227
 C379 C -0.09424 -0.08754 0.08033
 C380 C -0.07195 -0.05643 0.08998
 C381 C -0.04731 -0.04035 0.06701
 C382 C -0.04434 -0.05515 0.03399
 C383 C -0.06700 -0.08584 0.02405
 C384 C -0.09170 -0.10183 0.04695
 H385 H -0.20124 -0.14592 0.10456
 H386 H -0.12259 -0.13654 0.19340
 H387 H -0.02998 -0.01697 0.07557
 H388 H -0.06565 -0.09753 -0.00145
 H389 H -0.08375 -0.10302 0.15290
 H390 H -0.07351 -0.04456 0.11537
 H391 H -0.16117 -0.11367 0.06439
 H392 H -0.10828 -0.12600 0.03889
 C393 C -0.11449 0.39222 0.61082
 C394 C -0.15021 0.39262 0.60157
 C395 C -0.17379 0.37398 0.62449
 C396 C -0.16211 0.35494 0.65726
 C397 C -0.12640 0.35532 0.66683
 C398 C -0.10286 0.37366 0.64381
 C399 C -0.08935 0.41002 0.58569
 C400 C -0.06058 0.39089 0.57925
 C401 C -0.03697 0.40723 0.55534
 C402 C -0.04150 0.44318 0.53738
 C403 C -0.07008 0.46251 0.54416
 C404 C -0.09392 0.44597 0.56786
 H405 H -0.20118 0.37436 0.61658
 H406 H -0.11663 0.34057 0.69173
 H407 H -0.01489 0.39185 0.55133
 H408 H -0.07434 0.49022 0.53092
 H409 H -0.07548 0.37323 0.65176
 H410 H -0.05653 0.36303 0.59242
 H411 H -0.15986 0.40652 0.57620
 H412 H -0.11573 0.46146 0.57259
 C413 C 0.38108 -0.10335 0.60347
 C414 C 0.39234 -0.11402 0.63929
 C415 C 0.36960 -0.13356 0.66253
 C416 C 0.33494 -0.14260 0.65058
 C417 C 0.32355 -0.13117 0.61487
 C418 C 0.34642 -0.11193 0.59153
 C419 C 0.40581 -0.08450 0.57841
 C420 C 0.40664 -0.09674 0.54389
 C421 C 0.43132 -0.08058 0.52103
 C422 C 0.45541 -0.05161 0.53212
 C423 C 0.45403 -0.03868 0.56624
 C424 C 0.42959 -0.05512 0.58927
 H425 H 0.37948 -0.14253 0.68958
 H426 H 0.29691 -0.13704 0.60493
 H427 H 0.43159 -0.09077 0.49468
 H428 H 0.47249 -0.01659 0.57556
 H429 H 0.33698 -0.10362 0.56415
 H430 H 0.38878 -0.11952 0.53495
 H431 H 0.41906 -0.10825 0.64905
 H432 H 0.42934 -0.04498 0.61564
 C433 C 0.38008 0.39622 0.10348
 C434 C 0.34550 0.38741 0.09134
 C435 C 0.32254 0.36819 0.11459
 C436 C 0.33375 0.35704 0.15041
 C437 C 0.36832 0.36628 0.16255
 C438 C 0.39116 0.38578 0.13940
 C439 C 0.40493 0.41503 0.07853
 C440 C 0.42863 0.44446 0.08945
 C441 C 0.45326 0.46078 0.06660
 C442 C 0.45491 0.44770 0.03258
 C443 C 0.43087 0.41872 0.02140
 C444 C 0.40601 0.40266 0.04410
 H445 H 0.29598 0.36213 0.10451
 H446 H 0.37807 0.35751 0.18970
 H447 H 0.47167 0.48287 0.07598
 H448 H 0.43133 0.40843 -0.00487
 H449 H 0.41781 0.39170 0.14931
 H450 H 0.42819 0.45470 0.11575
 H451 H 0.33621 0.39554 0.06387
 H452 H 0.38821 0.37985 0.03511
 C453 C 0.10718 0.10083 0.11931
 C454 C 0.09142 0.12825 0.13590
 C455 C 0.11110 0.15241 0.15851
 C456 C 0.14685 0.14934 0.16530
 C457 C 0.16256 0.12189 0.14893
 C458 C 0.14304 0.09810 0.12606
 C459 C 0.08667 0.07553 0.09456
 C460 C 0.09518 0.03797 0.09327
 C461 C 0.07762 0.01493 0.06840
 C462 C 0.05080 0.02870 0.04459
 C463 C 0.04133 0.06567 0.04660
 C464 C 0.05922 0.08896 0.07118
 H465 H 0.09834 0.17317 0.17104
 H466 H 0.19019 0.11940 0.15320
 H467 H 0.08497 -0.01375 0.06780
 H468 H 0.02092 0.07702 0.02827
 H469 H 0.15624 0.07804 0.11310
 H470 H 0.11552 0.02631 0.11146
 H471 H 0.06382 0.13082 0.13173
 H472 H 0.05224 0.11785 0.07106
 C473 C 0.10800 0.60258 0.61769
 C474 C 0.09223 0.62945 0.63499
 C475 C 0.11199 0.65342 0.65774
 C476 C 0.14782 0.65068 0.66398
 C477 C 0.16356 0.62385 0.64681
 C478 C 0.14397 0.60028 0.62379
 C479 C 0.08737 0.57726 0.59305
 C480 C 0.09631 0.53993 0.59122
 C481 C 0.07852 0.51683 0.56656
 C482 C 0.05102 0.53026 0.54352
 C483 C 0.04115 0.56696 0.54604
 C484 C 0.05929 0.59036 0.57040
 H485 H 0.09922 0.67372 0.67087
 H486 H 0.19125 0.62164 0.65065
 H487 H 0.08620 0.48834 0.56556
 H488 H 0.02018 0.57802 0.52830
 H489 H 0.15718 0.58068 0.61027
 H490 H 0.11714 0.52849 0.60886
 H491 H 0.06457 0.63169 0.63133
 H492 H 0.05194 0.61906 0.57071
 C493 C 0.60802 0.10242 0.61907
 C494 C 0.59222 0.12903 0.63666
 C495 C 0.61196 0.15279 0.65961
 C496 C 0.64782 0.15016 0.66570
 C497 C 0.66359 0.12361 0.64819
 C498 C 0.64399 0.10018 0.62504
 C499 C 0.58743 0.07741 0.59415
 C500 C 0.59614 0.04003 0.59216
 C501 C 0.57840 0.01726 0.56716
 C502 C 0.55124 0.03113 0.54388
 C503 C 0.54164 0.06793 0.54656
 C504 C 0.55967 0.09094 0.57131
 H505 H 0.59914 0.17285 0.67301
 H506 H 0.69128 0.12147 0.65188
 H507 H 0.58588 -0.01129 0.56607
 H508 H 0.52101 0.07941 0.52864
 H509 H 0.65719 0.08074 0.61130
 H510 H 0.61676 0.02833 0.60991
 H511 H 0.56455 0.13121 0.63305
 H512 H 0.55253 0.11970 0.57176
 C513 C 0.60770 0.60111 0.12038
 C514 C 0.59197 0.62808 0.13759
 C515 C 0.61174 0.65200 0.16035
 C516 C 0.64756 0.64918 0.16666
 C517 C 0.66324 0.62216 0.14966
 C518 C 0.64361 0.59857 0.12668
 C519 C 0.58710 0.57611 0.09544
 C520 C 0.59557 0.53861 0.09368
 C521 C 0.57788 0.51588 0.06861
 C522 C 0.55101 0.52992 0.04504
 C523 C 0.54161 0.56684 0.04751
 C524 C 0.55960 0.58981 0.07232
 H525 H 0.59898 0.67240 0.17338
 H526 H 0.69091 0.61985 0.15353
 H527 H 0.58520 0.48724 0.06768
 H528 H 0.52120 0.57844 0.02936
 H529 H 0.65676 0.57882 0.11326
 H530 H 0.61599 0.52679 0.11164
 H531 H 0.56433 0.63047 0.13375
 H532 H 0.55265 0.61866 0.07258
   
