data_POSCAR
  _audit_creation_date              2014-09-24
  _audit_creation_method            'ToBaCCo'
  _symmetry_space_group_name_H-M    'P1'
  _symmetry_Int_Tables_number       1
  _symmetry_cell_setting            triclinic
  loop_
  _symmetry_equiv_pos_as_xyz
 x,y,z
_cell_length_a 28.0459
_cell_length_b 28.0968
_cell_length_c 28.0029
_cell_angle_alpha 89.936100
_cell_angle_beta 89.994400
_cell_angle_gamma 90.044400
loop_
  _atom_site_label
  _atom_site_type_symbol
  _atom_site_fract_x
  _atom_site_fract_y
  _atom_site_fract_z
N1 N 0.55105 0.09568 0.02169
 N2 N 0.58594 0.12257 0.03804
 N3 N 0.45026 0.09624 -0.02425
 N4 N 0.41511 0.12308 -0.04040
 N5 N 0.45085 0.09626 0.02263
 N6 N 0.41614 0.12294 0.03964
 N7 N 0.55064 0.09582 -0.02519
 N8 N 0.58528 0.12300 -0.04200
 C9 C 0.60718 0.13926 -0.00205
 C10 C 0.39400 0.13936 -0.00005
 N11 N 0.44906 -0.02363 -0.09595
 N12 N 0.41412 -0.04036 -0.12262
 N13 N 0.54954 0.02263 -0.09732
 N14 N 0.58413 0.03886 -0.12486
 N15 N 0.54929 -0.02405 -0.09677
 N16 N 0.58580 -0.04125 -0.12572
 N17 N 0.44923 0.02310 -0.09655
 N18 N 0.41441 0.03941 -0.12377
 Mn19 Mn 0.49990 0.05986 -0.06127
 C20 C 0.39263 -0.00066 -0.13962
 C21 C 0.60624 -0.00057 -0.14210
 N22 N 0.45100 0.02445 0.09581
 N23 N 0.41627 0.04154 0.12250
 N24 N 0.55086 -0.02285 0.09553
 N25 N 0.58468 -0.03953 0.12372
 N26 N 0.55133 0.02380 0.09490
 N27 N 0.58758 0.04053 0.12452
 N28 N 0.45057 -0.02225 0.09631
 N29 N 0.41554 -0.03823 0.12348
 Mn30 Mn 0.50108 0.06042 0.05912
 C31 C 0.39431 0.00204 0.13945
 C32 C 0.60714 -0.00041 0.14126
 N33 N 0.54956 -0.09610 -0.02351
 N34 N 0.58450 -0.12293 -0.04002
 N35 N 0.44961 -0.09516 0.02417
 N36 N 0.41512 -0.12209 0.04142
 N37 N 0.44922 -0.09573 -0.02269
 N38 N 0.41443 -0.12315 -0.03860
 N39 N 0.54985 -0.09562 0.02335
 N40 N 0.58500 -0.12198 0.04002
 Mn41 Mn 0.49928 -0.06027 -0.06016
 Mn42 Mn 0.50020 -0.05935 0.06020
 Cl43 Cl 0.50009 0.00017 -0.00054
 C44 C 0.60644 -0.13872 0.00010
 C45 C 0.39327 -0.13918 0.00187
 N46 N 0.09450 0.44815 0.02349
 N47 N 0.12089 0.41318 0.04045
 N48 N 0.09739 0.54855 -0.02282
 N49 N 0.12489 0.58331 -0.03868
 N50 N 0.09654 0.54819 0.02403
 N51 N 0.12337 0.58267 0.04135
 N52 N 0.09540 0.44839 -0.02337
 N53 N 0.12255 0.41358 -0.03957
 C54 C 0.13801 0.39171 0.00072
 C55 C 0.14076 0.60441 0.00183
 N56 N -0.02088 0.55136 -0.09780
 N57 N -0.03598 0.58601 -0.12595
 N58 N 0.02381 0.45036 -0.09709
 N59 N 0.04032 0.41525 -0.12353
 N60 N -0.02299 0.45120 -0.09817
 N61 N -0.03956 0.41665 -0.12550
 N62 N 0.02586 0.55038 -0.09640
 N63 N 0.04428 0.58644 -0.12507
 Mn64 Mn 0.06098 0.49940 -0.06034
 C65 C 0.00432 0.60743 -0.14242
 C66 C 0.00043 0.39438 -0.14094
 N67 N 0.02298 0.54921 0.09548
 N68 N 0.03995 0.58352 0.12274
 N69 N -0.02586 0.45009 0.09428
 N70 N -0.04360 0.41562 0.12095
 N71 N 0.02091 0.44913 0.09504
 N72 N 0.03629 0.41400 0.12230
 N73 N -0.02378 0.55020 0.09488
 N74 N -0.03994 0.58517 0.12185
 Mn75 Mn 0.05910 0.49865 0.05988
 C76 C 0.00030 0.60582 0.13886
 C77 C -0.00439 0.39322 0.13807
 N78 N -0.09691 0.45218 -0.02638
 N79 N -0.12393 0.41742 -0.04310
 N80 N -0.09507 0.55200 0.02101
 N81 N -0.12158 0.58690 0.03777
 N82 N -0.09485 0.55240 -0.02588
 N83 N -0.12142 0.58765 -0.04227
 N84 N -0.09713 0.45205 0.02050
 N85 N -0.12409 0.41727 0.03694
 Mn86 Mn -0.05936 0.50181 -0.06252
 Mn87 Mn -0.06085 0.50110 0.05800
 Cl88 Cl -0.00004 0.50023 -0.00126
 C89 C -0.14054 0.39583 -0.00307
 C90 C -0.13766 0.60903 -0.00203
 N91 N 0.02007 0.09549 0.44892
 N92 N 0.03580 0.12276 0.41385
 N93 N -0.02540 0.09526 0.54986
 N94 N -0.04158 0.12234 0.58483
 N95 N 0.02140 0.09538 0.54934
 N96 N 0.03834 0.12239 0.58387
 N97 N -0.02672 0.09472 0.44942
 N98 N -0.04411 0.12138 0.41477
 C99 C -0.00470 0.13852 0.39269
 C100 C -0.00131 0.13886 0.60589
 N101 N -0.09704 -0.02475 0.55140
 N102 N -0.12398 -0.04100 0.58655
 N103 N -0.09865 0.02141 0.45054
 N104 N -0.12617 0.03735 0.41577
 N105 N -0.09819 -0.02532 0.45095
 N106 N -0.12531 -0.04241 0.41651
 N107 N -0.09719 0.02198 0.55092
 N108 N -0.12405 0.03877 0.58564
 Mn109 Mn -0.06239 0.05871 0.50016
 C110 C -0.14040 -0.00085 0.60777
 C111 C -0.14243 -0.00293 0.39470
 N112 N 0.09481 0.02373 0.54872
 N113 N 0.12194 0.04018 0.58359
 N114 N 0.09390 -0.02283 0.44816
 N115 N 0.12124 -0.03886 0.41329
 N116 N 0.09333 0.02387 0.44826
 N117 N 0.12008 0.04090 0.41348
 N118 N 0.09495 -0.02297 0.54859
 N119 N 0.12198 -0.03959 0.58330
 Mn120 Mn 0.05777 0.06001 0.49883
 C121 C 0.13852 0.00015 0.60499
 C122 C 0.13712 0.00139 0.39177
 N123 N -0.02484 -0.09708 0.45011
 N124 N -0.04123 -0.12449 0.41546
 N125 N 0.02325 -0.09608 0.54976
 N126 N 0.04076 -0.12298 0.58417
 N127 N -0.02354 -0.09669 0.55064
 N128 N -0.03914 -0.12414 0.58564
 N129 N 0.02195 -0.09602 0.44943
 N130 N 0.03866 -0.12253 0.41444
 Mn131 Mn -0.06133 -0.06138 0.50082
 Mn132 Mn 0.05887 -0.05984 0.49894
 Cl133 Cl -0.00178 -0.00063 0.49969
 C134 C -0.00109 -0.13996 0.39336
 C135 C 0.00145 -0.14012 0.60644
 C136 C -0.27881 0.24201 0.00101
 C137 C -0.29858 0.22746 -0.04317
 C138 C -0.33505 0.19306 -0.04421
 C139 C -0.35248 0.17314 -0.00167
 C140 C -0.33214 0.18691 0.04188
 C141 C -0.29579 0.22074 0.04332
 C142 C -0.24140 0.28019 0.00084
 C143 C -0.22044 0.29781 0.04300
 C144 C -0.18731 0.33476 0.04126
 C145 C -0.17393 0.35511 -0.00245
 C146 C -0.19360 0.33715 -0.04484
 C147 C -0.22733 0.30007 -0.04349
 C148 C -0.28242 0.24789 -0.08589
 C149 C -0.24757 0.28337 -0.08604
 H150 H -0.29734 0.23664 -0.11975
 H151 H -0.23670 0.29837 -0.12002
 H152 H -0.35047 0.18251 -0.07809
 H153 H -0.34473 0.17185 0.07520
 H154 H -0.17244 0.34775 0.07448
 H155 H -0.18336 0.35260 -0.07882
 H156 H -0.28200 0.22998 0.07801
 H157 H -0.22941 0.28405 0.07780
 C158 C 0.27969 0.75764 0.00639
 C159 C 0.29824 0.77323 -0.03800
 C160 C 0.33458 0.80769 -0.03936
 C161 C 0.35314 0.82674 0.00303
 C162 C 0.33410 0.81195 0.04687
 C163 C 0.29785 0.77796 0.04865
 C164 C 0.24225 0.71947 0.00639
 C165 C 0.22226 0.70084 0.04866
 C166 C 0.18890 0.66402 0.04688
 C167 C 0.17443 0.64487 0.00303
 C168 C 0.19322 0.66380 -0.03936
 C169 C 0.22704 0.70072 -0.03800
 C170 C 0.28099 0.75383 -0.08070
 C171 C 0.24616 0.71838 -0.08070
 H172 H 0.29500 0.76589 -0.11470
 H173 H 0.23439 0.70421 -0.11470
 H174 H 0.34898 0.81903 -0.07346
 H175 H 0.34763 0.82632 0.08010
 H176 H 0.17473 0.65020 0.08010
 H177 H 0.18212 0.64930 -0.07346
 H178 H 0.28503 0.76785 0.08350
 H179 H 0.23216 0.71374 0.08351
 C180 C 0.27848 0.24017 0.00445
 C181 C 0.29758 0.22542 -0.03996
 C182 C 0.33456 0.19169 -0.04138
 C183 C 0.35327 0.17266 0.00099
 C184 C 0.33372 0.18667 0.04482
 C185 C 0.29682 0.21984 0.04665
 C186 C 0.24037 0.27760 0.00458
 C187 C 0.21975 0.29527 0.04690
 C188 C 0.18599 0.33166 0.04530
 C189 C 0.17171 0.35132 0.00159
 C190 C 0.19096 0.33318 -0.04089
 C191 C 0.22522 0.29670 -0.03971
 C192 C 0.28024 0.24498 -0.08259
 C193 C 0.24488 0.27986 -0.08246
 H194 H 0.29466 0.23357 -0.11661
 H195 H 0.23313 0.29427 -0.11640
 H196 H 0.34939 0.18097 -0.07547
 H197 H 0.34733 0.17228 0.07803
 H198 H 0.17143 0.34483 0.07859
 H199 H 0.17998 0.34806 -0.07490
 H200 H 0.28366 0.22938 0.08151
 H201 H 0.22948 0.28199 0.08167
 C202 C -0.27767 0.76087 0.00304
 C203 C -0.29742 0.77561 -0.04110
 C204 C -0.33453 0.80921 -0.04201
 C205 C -0.35269 0.82814 0.00062
 C206 C -0.33246 0.81420 0.04417
 C207 C -0.29544 0.78113 0.04549
 C208 C -0.23954 0.72348 0.00266
 C209 C -0.21843 0.70576 0.04473
 C210 C -0.18481 0.66932 0.04276
 C211 C -0.17109 0.64963 -0.00109
 C212 C -0.19074 0.66787 -0.04338
 C213 C -0.22495 0.70441 -0.04180
 C214 C -0.28061 0.75613 -0.08395
 C215 C -0.24519 0.72131 -0.08430
 H216 H -0.29552 0.76756 -0.11778
 H217 H -0.23388 0.70695 -0.11837
 H218 H -0.34987 0.81992 -0.07589
 H219 H -0.34564 0.82851 0.07756
 H220 H -0.16991 0.65611 0.07591
 H221 H -0.18021 0.65296 -0.07748
 H222 H -0.28175 0.77163 0.08017
 H223 H -0.22770 0.71901 0.07961
 C224 C 0.00378 -0.27971 0.24095
 C225 C -0.04038 -0.29890 0.22576
 C226 C -0.04143 -0.33552 0.19161
 C227 C 0.00107 -0.35384 0.17264
 C228 C 0.04468 -0.33429 0.18718
 C229 C 0.04614 -0.29770 0.22075
 C230 C 0.00350 -0.24187 0.27869
 C231 C 0.04555 -0.22098 0.29656
 C232 C 0.04363 -0.18743 0.33314
 C233 C -0.00015 -0.17362 0.35287
 C234 C -0.04240 -0.19317 0.33457
 C235 C -0.04088 -0.22720 0.29780
 C236 C -0.08312 -0.28205 0.24532
 C237 C -0.08337 -0.24705 0.28061
 H238 H -0.11696 -0.29659 0.23359
 H239 H -0.11737 -0.23568 0.29500
 H240 H -0.07534 -0.35039 0.18051
 H241 H 0.07796 -0.34765 0.17289
 H242 H 0.07675 -0.17263 0.34639
 H243 H -0.07644 -0.18253 0.34947
 H244 H 0.08083 -0.28452 0.23070
 H245 H 0.08036 -0.23027 0.28323
 C246 C 0.00357 0.27918 0.75777
 C247 C -0.04053 0.29891 0.77236
 C248 C -0.04154 0.33585 0.80619
 C249 C 0.00096 0.35377 0.82557
 C250 C 0.04447 0.33352 0.81179
 C251 C 0.04588 0.29673 0.77846
 C252 C 0.00331 0.24120 0.72017
 C253 C 0.04536 0.22024 0.70244
 C254 C 0.04346 0.18656 0.66597
 C255 C -0.00030 0.17265 0.64628
 C256 C -0.04255 0.19231 0.66441
 C257 C -0.04105 0.22657 0.70095
 C258 C -0.08326 0.28219 0.75260
 C259 C -0.08351 0.24679 0.71770
 H260 H -0.11706 0.29708 0.76391
 H261 H -0.11750 0.23549 0.70318
 H262 H -0.07538 0.35118 0.81679
 H263 H 0.07776 0.34651 0.82646
 H264 H 0.07657 0.17170 0.65280
 H265 H -0.07658 0.18167 0.64945
 H266 H 0.08052 0.28299 0.76915
 H267 H 0.08018 0.22964 0.71572
 C268 C -0.00943 0.27860 0.24022
 C269 C 0.03494 0.29681 0.22438
 C270 C 0.03638 0.33349 0.19028
 C271 C -0.00590 0.35279 0.17182
 C272 C -0.04976 0.33415 0.18684
 C273 C -0.05163 0.29752 0.22051
 C274 C -0.00944 0.24073 0.27805
 C275 C -0.05166 0.22092 0.29686
 C276 C -0.04984 0.18724 0.33347
 C277 C -0.00601 0.17227 0.35222
 C278 C 0.03630 0.19080 0.33300
 C279 C 0.03491 0.22492 0.29630
 C280 C 0.07759 0.27890 0.24320
 C281 C 0.07757 0.24375 0.27838
 H282 H 0.11156 0.29267 0.23093
 H283 H 0.11153 0.23150 0.29216
 H284 H 0.07049 0.34758 0.17874
 H285 H -0.08290 0.34828 0.17293
 H286 H -0.08301 0.17326 0.34751
 H287 H 0.07038 0.17930 0.34716
 H288 H -0.08646 0.28502 0.23089
 H289 H -0.08647 0.23123 0.28428
 C290 C 0.00742 -0.28104 0.75815
 C291 C -0.03669 -0.29958 0.77425
 C292 C -0.03770 -0.33639 0.80833
 C293 C 0.00491 -0.35576 0.82655
 C294 C 0.04854 -0.33642 0.81097
 C295 C 0.04981 -0.29972 0.77745
 C296 C 0.00704 -0.24300 0.72050
 C297 C 0.04906 -0.22287 0.70158
 C298 C 0.04692 -0.18900 0.66519
 C299 C 0.00296 -0.17414 0.64672
 C300 C -0.03920 -0.19299 0.66603
 C301 C -0.03748 -0.22732 0.70256
 C302 C -0.07955 -0.28178 0.75574
 C303 C -0.07993 -0.24648 0.72067
 H304 H -0.11338 -0.29575 0.76817
 H305 H -0.11403 -0.23435 0.70715
 H306 H -0.07187 -0.35038 0.81991
 H307 H 0.08223 -0.34986 0.82428
 H308 H 0.07997 -0.17479 0.65110
 H309 H -0.07339 -0.18157 0.65208
 H310 H 0.08449 -0.28693 0.76689
 H311 H 0.08400 -0.23303 0.71391
 C312 C 0.27800 -0.00421 0.75809
 C313 C 0.29744 0.03989 0.77295
 C314 C 0.33412 0.04100 0.80716
 C315 C 0.35214 -0.00137 0.82662
 C316 C 0.33219 -0.04488 0.81254
 C317 C 0.29561 -0.04640 0.77886
 C318 C 0.24027 -0.00405 0.72012
 C319 C 0.21952 -0.04609 0.70223
 C320 C 0.18606 -0.04429 0.66546
 C321 C 0.17217 -0.00065 0.64560
 C322 C 0.19163 0.04158 0.66387
 C323 C 0.22565 0.04019 0.70075
 C324 C 0.28072 0.08249 0.75304
 C325 C 0.24561 0.08264 0.71774
 H326 H 0.29540 0.11628 0.76454
 H327 H 0.23431 0.11654 0.70312
 H328 H 0.34924 0.07485 0.81795
 H329 H 0.34527 -0.07807 0.82724
 H330 H 0.17135 -0.07740 0.65222
 H331 H 0.18099 0.07552 0.64880
 H332 H 0.28212 -0.08103 0.76933
 H333 H 0.22889 -0.08081 0.71563
 C334 C -0.28265 -0.00640 0.24213
 C335 C -0.29955 0.03804 0.22538
 C336 C -0.33588 0.03988 0.19086
 C337 C -0.35648 -0.00215 0.17278
 C338 C -0.33885 -0.04616 0.18902
 C339 C -0.30256 -0.04830 0.22304
 C340 C -0.24494 -0.00678 0.28016
 C341 C -0.22617 -0.04910 0.29961
 C342 C -0.19245 -0.04758 0.33622
 C343 C -0.17644 -0.00395 0.35439
 C344 C -0.19400 0.03845 0.33461
 C345 C -0.22808 0.03735 0.29783
 C346 C -0.28064 0.08043 0.24368
 C347 C -0.24575 0.08010 0.27915
 H348 H -0.29341 0.11449 0.23076
 H349 H -0.23271 0.11390 0.29246
 H350 H -0.34853 0.07434 0.17880
 H351 H -0.35333 -0.07942 0.17584
 H352 H -0.17924 -0.08081 0.35069
 H353 H -0.18166 0.07238 0.34829
 H354 H -0.29106 -0.08318 0.23416
 H355 H -0.23726 -0.08377 0.28749
 C356 C 0.27859 0.00610 0.24051
 C357 C 0.29772 -0.03807 0.22553
 C358 C 0.33480 -0.03928 0.19179
 C359 C 0.35358 0.00304 0.17292
 C360 C 0.33405 0.04666 0.18717
 C361 C 0.29704 0.04829 0.22041
 C362 C 0.24029 0.00597 0.27791
 C363 C 0.21958 0.04802 0.29580
 C364 C 0.18558 0.04618 0.33210
 C365 C 0.17113 0.00248 0.35147
 C366 C 0.19049 -0.03973 0.33313
 C367 C 0.22499 -0.03830 0.29673
 C368 C 0.28028 -0.08068 0.24484
 C369 C 0.24474 -0.08079 0.27967
 H370 H 0.29474 -0.11451 0.23324
 H371 H 0.23290 -0.11470 0.29387
 H372 H 0.34961 -0.07321 0.18086
 H373 H 0.34775 0.07982 0.17293
 H374 H 0.17095 0.07927 0.34543
 H375 H 0.17940 -0.07372 0.34778
 H376 H 0.28388 0.08297 0.23015
 H377 H 0.22942 0.08276 0.28274
 C378 C -0.28157 0.00383 0.75924
 C379 C -0.29953 -0.04037 0.77554
 C380 C -0.33651 -0.04169 0.80938
 C381 C -0.35674 0.00064 0.82712
 C382 C -0.33807 0.04439 0.81133
 C383 C -0.30110 0.04601 0.77804
 C384 C -0.24328 0.00371 0.72182
 C385 C -0.22348 0.04581 0.70292
 C386 C -0.18953 0.04394 0.66660
 C387 C -0.17425 0.00017 0.64818
 C388 C -0.19263 -0.04207 0.66759
 C389 C -0.22703 -0.04061 0.70410
 C390 C -0.28107 -0.08301 0.75740
 C391 C -0.24570 -0.08313 0.72239
 H392 H -0.29465 -0.11690 0.77000
 H393 H -0.23310 -0.11708 0.70909
 H394 H -0.34999 -0.07597 0.82112
 H395 H -0.35224 0.07785 0.82428
 H396 H -0.17564 0.07707 0.65248
 H397 H -0.18083 -0.07609 0.65372
 H398 H -0.28885 0.08074 0.76721
 H399 H -0.23396 0.08060 0.71519
   
