data_POSCAR
  _audit_creation_date              2014-09-24
  _audit_creation_method            'ToBaCCo'
  _symmetry_space_group_name_H-M    'P1'
  _symmetry_Int_Tables_number       1
  _symmetry_cell_setting            triclinic
  loop_
  _symmetry_equiv_pos_as_xyz
 x,y,z
_cell_length_a 20.9635
_cell_length_b 12.9793
_cell_length_c 13.3755
_cell_angle_alpha 89.886600
_cell_angle_beta 90.097500
_cell_angle_gamma 89.883600
loop_
  _atom_site_label
  _atom_site_type_symbol
  _atom_site_fract_x
  _atom_site_fract_y
  _atom_site_fract_z
O1 O 0.08574 0.18649 0.18053
 O2 O 0.15808 0.09303 0.08946
 C3 C 0.14361 0.16085 0.15676
 O4 O -0.08615 -0.18909 0.17851
 O5 O -0.15767 -0.09416 0.08630
 C6 C -0.14389 -0.16342 0.15291
 O7 O 0.09354 -0.17412 0.18718
 O8 O 0.16169 -0.07850 0.09057
 C9 C 0.15062 -0.14495 0.16097
 O10 O -0.09346 0.18689 0.16796
 O11 O -0.16127 0.08257 0.07924
 C12 C -0.15020 0.15666 0.14161
 Zr13 Zr -0.00227 0.12951 0.12650
 O14 O -0.00939 0.12040 0.28434
 O15 O -0.00369 0.29197 0.13816
 Zr16 Zr 0.00267 -0.13019 0.12924
 O17 O -0.00410 -0.13060 0.28712
 O18 O 0.01206 -0.29266 0.12857
 O19 O 0.05722 0.00248 0.14808
 O20 O -0.05540 -0.00226 0.14543
 O21 O -0.09179 0.18135 -0.17457
 O22 O -0.16014 0.07966 -0.08407
 C23 C -0.14860 0.15123 -0.14906
 O24 O 0.09278 -0.17590 -0.18036
 O25 O 0.16186 -0.08197 -0.08379
 C26 C 0.14975 -0.14827 -0.15376
 O27 O -0.08403 -0.19303 -0.17605
 O28 O -0.15609 -0.09984 -0.08436
 C29 C -0.14184 -0.16866 -0.15111
 O30 O 0.08780 0.18056 -0.18368
 O31 O 0.15825 0.09089 -0.08519
 C32 C 0.14530 0.15559 -0.15623
 Zr33 Zr -0.00077 0.12803 -0.12640
 O34 O 0.00307 0.12670 -0.28485
 O35 O 0.00126 0.29117 -0.12654
 Zr36 Zr 0.00316 -0.13236 -0.12304
 O37 O -0.00104 -0.13630 -0.28103
 O38 O 0.01259 -0.29475 -0.11630
 Zr39 Zr 0.09586 0.00274 0.00253
 Zr40 Zr -0.09422 -0.00536 0.00025
 O41 O -0.05426 -0.00450 -0.14378
 O42 O 0.05802 -0.00024 -0.14338
 O43 O -0.05844 0.14665 -0.00100
 O44 O 0.05888 -0.14785 0.00369
 O45 O 0.05370 0.15000 0.00046
 O46 O -0.05394 -0.15414 0.00273
 H47 H -0.08460 -0.00177 0.20362
 H48 H 0.08900 -0.20680 0.00449
 H49 H -0.08320 -0.00657 -0.20227
 H50 H 0.08162 0.21148 -0.00059
 H51 H -0.02483 -0.32092 0.09153
 H52 H -0.02539 -0.32217 -0.08150
 H53 H 0.02252 -0.07536 -0.30564
 H54 H -0.03671 0.09618 -0.31121
 H55 H -0.03491 0.31554 -0.08530
 H56 H 0.00871 0.31999 0.07235
 H57 H 0.03173 0.09423 0.31060
 H58 H 0.02922 -0.08375 0.31290
 O59 O 0.59379 0.67021 0.68506
 O60 O 0.66165 0.57734 0.58493
 C61 C 0.65055 0.64314 0.65567
 O62 O 0.40947 0.31219 0.67171
 O63 O 0.34013 0.41538 0.58432
 C64 C 0.35238 0.34250 0.64808
 O65 O 0.58801 0.31549 0.67948
 O66 O 0.65949 0.40693 0.58472
 C67 C 0.64572 0.34046 0.65393
 O68 O 0.41404 0.68759 0.67871
 O69 O 0.34297 0.59415 0.58520
 C70 C 0.35638 0.66288 0.65196
 Zr71 Zr 0.50289 0.62771 0.62803
 O72 O 0.49825 0.62550 0.78603
 O73 O 0.51220 0.79015 0.62837
 Zr74 Zr 0.49907 0.36754 0.62378
 O75 O 0.49682 0.37372 0.78165
 O76 O 0.50305 0.20455 0.62429
 O77 O 0.55789 0.49463 0.64469
 O78 O 0.44553 0.49954 0.64464
 O79 O 0.41313 0.69413 0.32940
 O80 O 0.34155 0.59724 0.41867
 C81 C 0.35529 0.66860 0.35415
 O82 O 0.58461 0.32300 0.30832
 O83 O 0.65707 0.40718 0.40745
 C84 C 0.64251 0.34526 0.33463
 O85 O 0.40641 0.32074 0.32254
 O86 O 0.33886 0.42152 0.41529
 C87 C 0.34983 0.35084 0.34930
 O88 O 0.59260 0.68064 0.32198
 O89 O 0.66084 0.57878 0.41310
 C90 C 0.64937 0.64911 0.34675
 Zr91 Zr 0.50214 0.63249 0.37573
 O92 O 0.49537 0.63502 0.21774
 O93 O 0.51091 0.79494 0.37827
 Zr94 Zr 0.49737 0.37161 0.37161
 O95 O 0.48929 0.36815 0.21400
 O96 O 0.50241 0.20862 0.37614
 Zr97 Zr 0.59523 0.49512 0.49866
 Zr98 Zr 0.40545 0.50401 0.50042
 O99 O 0.44459 0.50510 0.35557
 O100 O 0.55636 0.49984 0.35328
 O101 O 0.44576 0.65279 0.50253
 O102 O 0.55366 0.34798 0.49674
 O103 O 0.55822 0.64608 0.50180
 O104 O 0.44079 0.35191 0.49803
 H105 H 0.41713 0.49963 0.70378
 H106 H 0.58208 0.28688 0.49553
 H107 H 0.41588 0.50761 0.29669
 H108 H 0.58785 0.70545 0.50278
 H109 H 0.46939 0.17986 0.57837
 H110 H 0.46238 0.18307 0.40632
 H111 H 0.51679 0.42368 0.18771
 H112 H 0.53265 0.59730 0.19094
 H113 H 0.47590 0.82218 0.42013
 H114 H 0.47518 0.81905 0.59184
 H115 H 0.52584 0.56823 0.80913
 H116 H 0.49649 0.30125 0.80514
 C117 C 0.19778 0.21333 0.20967
 C118 C 0.24305 0.27028 0.13830
 C119 C 0.29314 0.31632 0.18510
 C120 C 0.29357 0.30130 0.29909
 C121 C 0.22790 0.34096 0.33375
 C122 C 0.17788 0.29501 0.28704
 C123 C 0.24063 0.13810 0.26808
 C124 C 0.29074 0.18412 0.31486
 H125 H 0.23603 0.27463 0.05793
 H126 H 0.32890 0.36017 0.14477
 H127 H 0.22094 0.39999 0.39008
 H128 H 0.12886 0.31541 0.30402
 H129 H 0.23181 0.05589 0.27330
 H130 H 0.32478 0.14121 0.35996
 C131 C 0.80134 0.78543 0.20591
 C132 C 0.74963 0.74507 0.13482
 C133 C 0.69994 0.69849 0.18169
 C134 C 0.70549 0.69846 0.29610
 C135 C 0.77035 0.64743 0.31861
 C136 C 0.82024 0.69228 0.27096
 C137 C 0.76524 0.85766 0.27716
 C138 C 0.71495 0.81219 0.32433
 H139 H 0.74848 0.76208 0.05581
 H140 H 0.65826 0.67140 0.14132
 H141 H 0.77707 0.58263 0.36898
 H142 H 0.86875 0.66446 0.28035
 H143 H 0.77806 0.93753 0.28929
 H144 H 0.68493 0.85317 0.37709
 C145 C 0.79552 0.20117 0.79990
 C146 C 0.78905 0.31686 0.82194
 C147 C 0.73920 0.36275 0.77363
 C148 C 0.70023 0.28901 0.70802
 C149 C 0.74955 0.24050 0.63768
 C150 C 0.79912 0.19396 0.68552
 C151 C 0.73006 0.15539 0.82696
 C152 C 0.68039 0.20107 0.77890
 H153 H 0.82115 0.35913 0.87059
 H154 H 0.72908 0.44418 0.78011
 H155 H 0.74810 0.24847 0.55743
 H156 H 0.83871 0.15936 0.64543
 H157 H 0.72293 0.09232 0.87913
 H158 H 0.63156 0.17619 0.79057
 C159 C 0.20514 0.80194 0.79347
 C160 C 0.18544 0.72383 0.71265
 C161 C 0.23530 0.67842 0.66578
 C162 C 0.30108 0.71456 0.70335
 C163 C 0.29941 0.83240 0.69173
 C164 C 0.24914 0.87816 0.73891
 C165 C 0.24939 0.74114 0.86391
 C166 C 0.29954 0.69540 0.81676
 H167 H 0.13653 0.70556 0.69290
 H168 H 0.22794 0.62226 0.60686
 H169 H 0.33431 0.87589 0.64926
 H170 H 0.24103 0.96073 0.73658
 H171 H 0.24180 0.73440 0.94396
 H172 H 0.33475 0.64943 0.85648
 C173 C 0.20087 0.20530 0.79094
 C174 C 0.20124 0.18876 0.67709
 C175 C 0.25147 0.23408 0.62957
 C176 C 0.29699 0.29166 0.70015
 C177 C 0.25419 0.36788 0.75715
 C178 C 0.20392 0.32271 0.80453
 C179 C 0.26662 0.16610 0.82628
 C180 C 0.31656 0.21091 0.77899
 H181 H 0.16526 0.14478 0.63737
 H182 H 0.25835 0.22894 0.54929
 H183 H 0.26283 0.45029 0.76027
 H184 H 0.16971 0.36646 0.84815
 H185 H 0.27383 0.10759 0.88332
 H186 H 0.36547 0.19001 0.79662
 C187 C 0.80384 0.77927 0.79495
 C188 C 0.82217 0.71954 0.69992
 C189 C 0.77168 0.67417 0.65341
 C190 C 0.70707 0.69285 0.70581
 C191 C 0.71748 0.65608 0.81372
 C192 C 0.76879 0.69969 0.85943
 C193 C 0.75219 0.85566 0.75969
 C194 C 0.70175 0.81056 0.71309
 H195 H 0.87034 0.71400 0.67080
 H196 H 0.77741 0.63056 0.58483
 H197 H 0.68900 0.59678 0.84937
 H198 H 0.78660 0.67212 0.93067
 H199 H 0.75584 0.93855 0.76819
 H200 H 0.66231 0.85492 0.68248
 C201 C 0.20442 0.80900 0.21110
 C202 C 0.26682 0.84972 0.18067
 C203 C 0.31934 0.80182 0.23055
 C204 C 0.30024 0.72192 0.30174
 C205 C 0.25589 0.77295 0.36989
 C206 C 0.20298 0.82116 0.31988
 C207 C 0.20861 0.69800 0.19397
 C208 C 0.26137 0.65008 0.24391
 H209 H 0.27417 0.91255 0.12822
 H210 H 0.36811 0.82637 0.21760
 H211 H 0.26255 0.77668 0.45036
 H212 H 0.16666 0.86437 0.35981
 H213 H 0.17592 0.65500 0.14677
 H214 H 0.27144 0.56819 0.23758
 C215 C 0.79327 0.20818 0.18967
 C216 C 0.78296 0.17109 0.29731
 C217 C 0.73199 0.21512 0.34313
 C218 C 0.69655 0.29465 0.27880
 C219 C 0.74777 0.37100 0.24333
 C220 C 0.79837 0.32592 0.19690
 C221 C 0.72868 0.18961 0.13706
 C222 C 0.67810 0.23493 0.18369
 H223 H 0.81096 0.11053 0.33237
 H224 H 0.71445 0.18777 0.41439
 H225 H 0.74280 0.45378 0.24902
 H226 H 0.83703 0.37041 0.16460
 H227 H 0.72313 0.14633 0.06827
 H228 H 0.62989 0.22975 0.15443
   
