data_POSCAR
  _audit_creation_date              2014-09-24
  _audit_creation_method            'ToBaCCo'
  _symmetry_space_group_name_H-M    'P1'
  _symmetry_Int_Tables_number       1
  _symmetry_cell_setting            triclinic
  loop_
  _symmetry_equiv_pos_as_xyz
 x,y,z
_cell_length_a 24.9238
_cell_length_b 24.2223
_cell_length_c 50.4679
_cell_angle_alpha 91.613300
_cell_angle_beta 89.248400
_cell_angle_gamma 118.822400
loop_
  _atom_site_label
  _atom_site_type_symbol
  _atom_site_fract_x
  _atom_site_fract_y
  _atom_site_fract_z
C1 C 0.04680 0.09244 0.52436
 H2 H 0.08994 0.09282 0.52102
 C3 C 0.04507 0.13982 0.53996
 H4 H 0.08721 0.17628 0.54868
 C5 C -0.06002 0.04466 0.51646
 H6 H -0.10052 0.00835 0.50674
 C7 C -0.06399 0.09100 0.53229
 H8 H -0.10784 0.08961 0.53477
 N9 N -0.00511 0.04609 0.51300
 C10 C 0.03224 -0.10972 0.49923
 H11 H 0.02737 -0.11525 0.47791
 C12 C 0.03741 -0.15496 0.51388
 H13 H 0.03721 -0.19494 0.50363
 C14 C 0.03458 -0.05278 0.53857
 H15 H 0.03108 -0.01431 0.54823
 C16 C 0.04094 -0.09630 0.55395
 H17 H 0.04282 -0.09037 0.57533
 Zn18 Zn 0.00792 -0.01077 0.49098
 N19 N 0.02957 -0.06068 0.51175
 C20 C 0.12741 0.04288 0.46780
 N21 N 0.07157 0.04003 0.46773
 C22 C 0.06043 0.07914 0.45276
 C23 C 0.10668 0.12425 0.43732
 C24 C 0.17531 0.08771 0.45268
 C25 C -0.11493 -0.10548 0.48449
 C26 C -0.16474 -0.15355 0.47085
 C27 C -0.10491 -0.12332 0.43058
 C28 C -0.05693 -0.07509 0.44491
 N29 N -0.06247 -0.06737 0.47140
 H30 H 0.13539 0.01195 0.48025
 H31 H 0.01578 0.07634 0.45345
 H32 H 0.09682 0.15560 0.42599
 H33 H 0.21988 0.09034 0.45341
 H34 H -0.11745 -0.09982 0.50573
 H35 H -0.20555 -0.18339 0.48201
 H36 H -0.09811 -0.12873 0.40962
 H37 H -0.01420 -0.04568 0.43500
 C38 C 0.04061 -0.14916 0.54165
 C39 C -0.01076 0.13968 0.54406
 C40 C -0.15992 -0.16433 0.44349
 C41 C 0.16543 0.12983 0.43749
 C42 C 1.04893 -0.00067 0.12079
 H43 H 1.02032 0.01609 0.11201
 C44 C 1.09607 -0.00148 0.10585
 H45 H 1.10213 0.01322 0.08547
 C46 C 1.07890 -0.03521 0.15854
 H47 H 1.07341 -0.04569 0.17941
 C48 C 1.12620 -0.03748 0.14422
 H49 H 1.15637 -0.05071 0.15418
 N50 N 1.04169 -0.01667 0.14671
 C51 C 0.89962 -0.03351 0.13059
 H52 H 0.90493 -0.07530 0.12995
 C53 C 0.85477 -0.03131 0.11522
 H54 H 0.82604 -0.07172 0.10268
 C55 C 0.92994 0.06875 0.14857
 H56 H 0.95848 0.10689 0.16208
 C57 C 0.88515 0.07286 0.13356
 H58 H 0.88020 0.11481 0.13544
 Zn59 Zn 0.98901 0.00102 0.16823
 N60 N 0.93607 0.01593 0.14680
 C61 C 1.07757 0.12704 0.17792
 N62 N 1.04103 0.07139 0.18973
 C63 C 1.04896 0.06258 0.21558
 C64 C 1.09631 0.11028 0.23040
 C65 C 1.12505 0.17637 0.19213
 C66 C 0.93179 -0.12550 0.18739
 C67 C 0.88744 -0.17496 0.20212
 C68 C 0.85559 -0.10274 0.22118
 C69 C 0.90004 -0.05506 0.20605
 N70 N 0.93699 -0.06703 0.18960
 H71 H 1.07158 0.13207 0.15709
 H72 H 1.02090 0.01730 0.22434
 H73 H 1.10307 0.10155 0.25069
 H74 H 1.15482 0.21962 0.18215
 H75 H 0.96065 -0.13430 0.17368
 H76 H 0.88323 -0.22147 0.19985
 H77 H 0.82637 -0.09193 0.23389
 H78 H 0.90455 -0.00832 0.20702
 C79 C 0.84649 0.02205 0.11676
 C80 C 1.13616 -0.01891 0.11769
 C81 C 0.84823 -0.16392 0.21913
 C82 C 1.13590 0.16760 0.21853
 C83 C 0.05200 0.99056 0.88594
 H84 H 0.00523 0.95526 0.88979
 C85 C 0.09912 0.99442 0.90175
 H86 H 0.08782 0.96245 0.91802
 C87 C 0.12311 1.07228 0.85895
 H88 H 0.13206 1.10105 0.84173
 C89 C 0.17186 1.07774 0.87430
 H90 H 0.21822 1.11150 0.86888
 N91 N 0.06475 1.02826 0.86471
 C92 C -0.12870 0.95581 0.85416
 H93 H -0.13760 0.92634 0.83655
 C94 C -0.17782 0.95416 0.86860
 H95 H -0.22403 0.92283 0.86182
 C96 C -0.05790 1.03341 0.88382
 H97 H -0.01101 1.06504 0.88951
 C98 C -0.10523 1.03352 0.89872
 H99 H -0.09349 1.06516 0.91585
 Zn100 Zn -0.00073 1.00891 0.84113
 N101 N -0.07005 0.99575 0.86177
 C102 C -0.05621 0.91113 0.80066
 N103 N -0.01399 0.93589 0.82052
 C104 C 0.02353 0.91124 0.82564
 C105 C 0.01978 0.86037 0.81074
 C106 C -0.06137 0.85991 0.78504
 C107 C 0.01962 1.12993 0.83070
 C108 C 0.02297 1.17845 0.81535
 C109 C 0.02833 1.12190 0.77611
 C110 C 0.02385 1.07377 0.79225
 N111 N 0.01802 1.07792 0.81899
 H112 H -0.08471 0.93216 0.79640
 H113 H 0.05770 0.93155 0.84100
 H114 H 0.05085 0.84253 0.81531
 H115 H -0.09454 0.84143 0.76909
 H116 H 0.01586 1.13280 0.85196
 H117 H 0.02195 1.21837 0.82507
 H118 H 0.03084 1.11695 0.75481
 H119 H 0.02322 1.03240 0.78331
 C120 C -0.16644 0.99443 0.89099
 C121 C 0.16018 1.03727 0.89563
 C122 C 0.02595 1.17413 0.78766
 C123 C -0.02262 0.83416 0.78995
 C124 C 0.50038 0.01908 0.01786
 C125 C 0.50001 0.01920 -0.00920
 C126 C 0.44937 0.01957 -0.02421
 C127 C 0.55003 0.01837 -0.02525
 C128 C 0.55107 0.01852 0.03273
 C129 C 0.44934 0.01742 0.03404
 C130 C 0.38855 -0.02802 -0.02120
 C131 C 0.34118 -0.02471 -0.03432
 C132 C 0.35387 0.02572 -0.05103
 C133 C 0.41513 0.07207 -0.05468
 C134 C 0.46238 0.06891 -0.04143
 C135 C 0.53597 -0.03004 -0.04427
 C136 C 0.58253 -0.03360 -0.05865
 C137 C 0.64417 0.01130 -0.05428
 C138 C 0.65797 0.06084 -0.03573
 C139 C 0.61130 0.06465 -0.02153
 C140 C 0.58542 0.06784 0.05081
 C141 C 0.63441 0.06908 0.06446
 C142 C 0.64961 0.02059 0.06046
 C143 C 0.61418 -0.02950 0.04268
 C144 C 0.56522 -0.03064 0.02904
 C145 C 0.42926 0.06201 0.03103
 C146 C 0.37819 0.05648 0.04504
 C147 C 0.34734 0.00729 0.06286
 C148 C 0.36935 -0.03546 0.06674
 C149 C 0.41973 -0.03051 0.05242
 H150 H 0.37774 -0.06714 -0.00838
 H151 H 0.29462 -0.06162 -0.03128
 H152 H 0.42661 0.11133 -0.06750
 H153 H 0.50913 0.10581 -0.04413
 H154 H 0.48890 -0.06596 -0.04756
 H155 H 0.57025 -0.07219 -0.07284
 H156 H 0.62302 0.10321 -0.00738
 H157 H 0.57482 0.10595 0.05402
 H158 H 0.66040 0.10813 0.07809
 H159 H 0.62430 -0.06784 0.03922
 H160 H 0.53855 -0.06964 0.01547
 H161 H 0.45242 0.10038 0.01748
 H162 H 0.36289 0.09073 0.04192
 H163 H 0.34674 -0.07374 0.08037
 H164 H 0.43473 -0.06514 0.05520
 H165 H 0.70488 0.09668 -0.03211
 C166 C -0.00905 0.49303 0.67848
 C167 C -0.00701 0.49374 0.65146
 C168 C -0.00955 0.44002 0.63557
 C169 C 0.00015 0.54867 0.63622
 C170 C -0.01326 0.54331 0.69455
 C171 C -0.00486 0.44303 0.69349
 C172 C 0.03843 0.45038 0.61812
 C173 C 0.03711 0.40051 0.60313
 C174 C -0.01282 0.33939 0.60491
 C175 C -0.06154 0.32927 0.62202
 C176 C -0.05978 0.37921 0.63733
 C177 C 0.04586 0.61035 0.64270
 C178 C 0.05378 0.66092 0.62735
 C179 C 0.01747 0.65050 0.60476
 C180 C -0.02756 0.58877 0.59809
 C181 C -0.03631 0.53849 0.61372
 C182 C -0.05887 0.56015 0.68977
 C183 C -0.06205 0.60737 0.70529
 C184 C -0.02009 0.63805 0.72605
 C185 C 0.02497 0.62039 0.73089
 C186 C 0.02826 0.57360 0.71536
 C187 C -0.04568 0.41355 0.71438
 C188 C -0.04013 0.36929 0.72962
 C189 C 0.00600 0.35307 0.72411
 C190 C 0.04668 0.38223 0.70313
 C191 C 0.04195 0.42756 0.68826
 H192 H 0.07738 0.49708 0.61641
 H193 H 0.07514 0.40998 0.59000
 H194 H -0.10056 0.28271 0.62383
 H195 H -0.09756 0.37058 0.65049
 H196 H 0.07605 0.61930 0.65939
 H197 H 0.08927 0.70795 0.63279
 H198 H -0.07146 0.49137 0.60816
 H199 H -0.09208 0.53660 0.67410
 H200 H -0.09749 0.61958 0.70111
 H201 H 0.05812 0.64289 0.74666
 H202 H 0.06370 0.56131 0.71946
 H203 H -0.08173 0.42512 0.71899
 H204 H -0.07221 0.34749 0.74565
 H205 H 0.08320 0.37130 0.69868
 H206 H 0.07551 0.45128 0.67295
 H207 H -0.05645 0.57933 0.58086
 C208 C 0.50783 0.48471 0.34326
 C209 C 0.50638 0.48731 0.31628
 C210 C 0.55574 0.53944 0.30142
 C211 C 0.45430 0.43924 0.30023
 C212 C 0.45704 0.43361 0.35800
 C213 C 0.55884 0.53372 0.35956
 C214 C 0.56995 0.60231 0.30639
 C215 C 0.61815 0.65096 0.29290
 C216 C 0.65271 0.63759 0.27404
 C217 C 0.63724 0.57435 0.26871
 C218 C 0.58899 0.52577 0.28217
 C219 C 0.42323 0.45866 0.28298
 C220 C 0.37184 0.41427 0.26895
 C221 C 0.35026 0.34948 0.27202
 C222 C 0.38254 0.33008 0.28866
 C223 C 0.43459 0.37457 0.30234
 C224 C 0.46891 0.39356 0.37349
 C225 C 0.42118 0.34342 0.38650
 C226 C 0.36067 0.33274 0.38444
 C227 C 0.34927 0.37414 0.36943
 C228 C 0.39706 0.42427 0.35646
 C229 C 0.62044 0.55243 0.35364
 C230 C 0.66747 0.60203 0.36797
 C231 C 0.65379 0.63215 0.38912
 C232 C 0.59230 0.61107 0.39596
 C233 C 0.54532 0.56262 0.38122
 H234 H 0.54412 0.61363 0.32090
 H235 H 0.62851 0.69906 0.29740
 H236 H 0.66252 0.56228 0.25420
 H237 H 0.57829 0.47743 0.27796
 H238 H 0.43788 0.50831 0.28090
 H239 H 0.34810 0.43071 0.25623
 H240 H 0.45885 0.35852 0.31495
 H241 H 0.51504 0.40041 0.37504
 H242 H 0.43171 0.31281 0.39802
 H243 H 0.30337 0.36769 0.36757
 H244 H 0.38723 0.45539 0.34492
 H245 H 0.63214 0.52944 0.33765
 H246 H 0.71455 0.61664 0.36258
 H247 H 0.58047 0.63336 0.41221
 H248 H 0.49823 0.54866 0.38635
 H249 H 0.36762 0.28050 0.29111
 N250 N -0.06545 0.18523 0.57017
 C251 C -0.01224 0.19118 0.55996
 N252 N 0.04032 0.24583 0.56463
 N253 N 0.03987 0.29267 0.57884
 C254 C -0.01313 0.28682 0.58914
 N255 N -0.06585 0.23208 0.58457
 N256 N 0.76304 0.79644 0.25122
 C257 C 0.79853 0.78426 0.23396
 N258 N 0.78615 0.72353 0.23006
 N259 N 0.74007 0.67703 0.24282
 C260 C 0.70443 0.68927 0.26001
 N261 N 0.71708 0.75002 0.26399
 N262 N 0.19888 -0.00797 -0.07131
 C263 C 0.21089 0.03649 -0.08966
 N264 N 0.27028 0.07787 -0.09511
 N265 N 0.31564 0.07476 -0.08274
 C266 C 0.30354 0.02994 -0.06453
 N267 N 0.24418 -0.01116 -0.05900
 N268 N 0.01435 0.74013 0.54743
 C269 C 0.03853 0.79973 0.55771
 N270 N 0.05695 0.81035 0.58344
 N271 N 0.05131 0.76320 0.59829
 C272 C 0.02633 0.70345 0.58809
 N273 N 0.00823 0.69295 0.56233
 N274 N 0.22167 0.27592 0.22441
 C275 C 0.19047 0.21582 0.23297
 N276 N 0.21204 0.19999 0.25442
 N277 N 0.26277 0.24237 0.26676
 C278 C 0.29399 0.30243 0.25821
 N279 N 0.27221 0.31844 0.23687
 N280 N 0.72613 -0.04003 -0.10218
 C281 C 0.78563 -0.00268 -0.09505
 N282 N 0.79799 0.03899 -0.07440
 N283 N 0.75319 0.04339 -0.06156
 C284 C 0.69385 0.00624 -0.06873
 N285 N 0.68122 -0.03577 -0.08925
 N286 N 0.21041 0.02160 0.08100
 C287 C 0.19009 -0.01384 0.10300
 N288 N 0.22179 -0.04226 0.11177
 N289 N 0.27156 -0.03572 0.09899
 C290 C 0.29207 0.00004 0.07708
 N291 N 0.26039 0.02847 0.06833
 N292 N 0.74015 0.74836 0.44228
 C293 C 0.79423 0.78653 0.43018
 N294 N 0.80144 0.77311 0.40443
 N295 N 0.75713 0.72386 0.39150
 C296 C 0.70331 0.68606 0.40367
 N297 N 0.69555 0.69948 0.42927
 N298 N -0.00340 0.25616 0.78088
 C299 C 0.02276 0.22194 0.77113
 N300 N 0.04368 0.23111 0.74576
 N301 N 0.03888 0.27312 0.73085
 C302 C 0.01227 0.30698 0.74060
 N303 N -0.00872 0.29764 0.76592
 N304 N 0.76106 -0.02565 0.08482
 C305 C 0.79646 0.02308 0.10157
 N306 N 0.78371 0.07147 0.10459
 N307 N 0.73735 0.07089 0.09147
 C308 C 0.70178 0.02192 0.07482
 N309 N 0.71481 -0.02620 0.07172
 N310 N 0.27442 0.19060 0.42453
 C311 C 0.21621 0.18115 0.42290
 N312 N 0.20579 0.22144 0.40839
 N313 N 0.25151 0.26921 0.39612
 C314 C 0.30975 0.27894 0.39786
 N315 N 0.32020 0.23845 0.41224
 N316 N 0.01545 0.75984 0.77855
 C317 C -0.02406 0.78184 0.77338
 N318 N -0.06316 0.75584 0.75255
 N319 N -0.06244 0.70991 0.73755
 C320 C -0.02251 0.68826 0.74274
 N321 N 0.01622 0.71417 0.76360
   
