data_POSCAR
  _audit_creation_date              2014-09-24
  _audit_creation_method            'ToBaCCo'
  _symmetry_space_group_name_H-M    'P1'
  _symmetry_Int_Tables_number       1
  _symmetry_cell_setting            triclinic
  loop_
  _symmetry_equiv_pos_as_xyz
 x,y,z
_cell_length_a 49.3132
_cell_length_b 49.0572
_cell_length_c 22.2709
_cell_angle_alpha 89.507000
_cell_angle_beta 90.439600
_cell_angle_gamma 120.111400
loop_
  _atom_site_label
  _atom_site_type_symbol
  _atom_site_fract_x
  _atom_site_fract_y
  _atom_site_fract_z
C1 C 0.15126 0.45130 0.51135
 C2 C 0.16416 0.44891 0.45734
 C3 C 0.18950 0.44361 0.45782
 C4 C 0.20382 0.44267 0.51229
 C5 C 0.19085 0.44591 0.56663
 C6 C 0.16424 0.44936 0.56614
 C7 C 0.23236 0.43901 0.51205
 C8 C 0.24106 0.42838 0.56388
 C9 C 0.26870 0.42706 0.56519
 C10 C 0.28716 0.43430 0.51388
 C11 C 0.27876 0.44403 0.46147
 C12 C 0.25195 0.44709 0.46081
 H13 H 0.13137 0.45509 0.51071
 H14 H 0.19792 0.44047 0.41521
 H15 H 0.20143 0.44637 0.60956
 H16 H 0.22704 0.42174 0.60416
 H17 H 0.30875 0.43349 0.51542
 H18 H 0.24725 0.45656 0.42065
 C19 C 0.56696 -0.28998 0.48250
 C20 C 0.56743 -0.27444 0.42945
 C21 C 0.56579 -0.24686 0.43128
 C22 C 0.56510 -0.23333 0.48654
 C23 C 0.56540 -0.24912 0.54015
 C24 C 0.56531 -0.27781 0.53788
 C25 C 0.56201 -0.20427 0.48753
 C26 C 0.55018 -0.19693 0.53870
 C27 C 0.54605 -0.17075 0.53890
 C28 C 0.55226 -0.15218 0.48748
 C29 C 0.56335 -0.15916 0.43584
 C30 C 0.56920 -0.18435 0.43634
 H31 H 0.56669 -0.31224 0.48055
 H32 H 0.56384 -0.23698 0.38902
 H33 H 0.56514 -0.23983 0.58381
 H34 H 0.54336 -0.21163 0.57842
 H35 H 0.54793 -0.13256 0.48735
 H36 H 0.57892 -0.18822 0.39619
 C37 C 1.29294 0.86131 0.50400
 C38 C 1.28130 0.84531 0.44995
 C39 C 1.25117 0.81902 0.44725
 C40 C 1.23169 0.80883 0.49822
 C41 C 1.24364 0.82572 0.55250
 C42 C 1.27440 0.85135 0.55554
 C43 C 1.20016 0.77945 0.49534
 C44 C 1.18739 0.76051 0.54702
 C45 C 1.15916 0.73186 0.54382
 C46 C 1.14365 0.72126 0.48895
 C47 C 1.15604 0.73921 0.43695
 C48 C 1.18368 0.76857 0.44019
 H49 H 1.31676 0.88104 0.50642
 H50 H 1.24358 0.80608 0.40557
 H51 H 1.22955 0.81884 0.59276
 H52 H 1.19984 0.76713 0.58945
 H53 H 1.12249 0.69834 0.48621
 H54 H 1.19246 0.78226 0.39935
 C55 C 0.85015 0.55487 0.52231
 C56 C 0.83258 0.54835 0.46952
 C57 C 0.80463 0.54921 0.46917
 C58 C 0.79455 0.55830 0.52084
 C59 C 0.81331 0.56567 0.57325
 C60 C 0.84029 0.56300 0.57438
 C61 C 0.76433 0.55905 0.52049
 C62 C 0.74887 0.55805 0.57462
 C63 C 0.72038 0.55797 0.57365
 C64 C 0.70609 0.55726 0.51888
 C65 C 0.72047 0.55749 0.46512
 C66 C 0.74979 0.55953 0.46573
 H67 H 0.87117 0.55302 0.52318
 H68 H 0.79085 0.54211 0.42842
 H69 H 0.80720 0.57315 0.61390
 H70 H 0.75813 0.55648 0.61781
 H71 H 0.68333 0.55570 0.51800
 H72 H 0.76057 0.56097 0.42293
 C73 C 0.43971 0.29446 0.50335
 C74 C 0.43078 0.27788 0.44944
 C75 C 0.42755 0.24789 0.44628
 C76 C 0.43523 0.23485 0.49607
 C77 C 0.44485 0.25242 0.54984
 C78 C 0.44641 0.28166 0.55370
 C79 C 0.43486 0.20410 0.49096
 C80 C 0.43346 0.18630 0.54256
 C81 C 0.43573 0.15902 0.53737
 C82 C 0.43747 0.14811 0.48070
 C83 C 0.43814 0.16484 0.42931
 C84 C 0.43757 0.19293 0.43426
 H85 H 0.44220 0.31771 0.50560
 H86 H 0.41961 0.23536 0.40431
 H87 H 0.45201 0.24413 0.58859
 H88 H 0.43111 0.19358 0.58698
 H89 H 0.43931 0.12706 0.47654
 H90 H 0.44027 0.20620 0.39359
 C91 C 0.71459 0.13881 0.50945
 C92 C 0.72485 0.15487 0.45491
 C93 C 0.75344 0.18328 0.45212
 C94 C 0.77257 0.19549 0.50379
 C95 C 0.76196 0.17854 0.55831
 C96 C 0.73284 0.15077 0.56120
 C97 C 0.80260 0.22640 0.50139
 C98 C 0.81375 0.24617 0.55232
 C99 C 0.84131 0.27559 0.54920
 C100 C 0.85749 0.28592 0.49503
 C101 C 0.84655 0.26701 0.44408
 C102 C 0.81970 0.23716 0.44736
 H103 H 0.69186 0.11748 0.51204
 H104 H 0.76004 0.19610 0.41000
 H105 H 0.77583 0.18700 0.59893
 H106 H 0.80072 0.23933 0.59393
 H107 H 0.87817 0.30919 0.49192
 H108 H 0.81207 0.22280 0.40737
 O109 O 0.98650 0.53289 -0.07506
 O110 O 1.03380 0.54078 0.12391
 O111 O 0.93670 0.48081 0.06656
 O112 O 1.04310 0.55730 -0.06474
 O113 O 0.97495 0.51486 0.12467
 O114 O 1.02395 0.52718 -0.14250
 O115 O 1.04459 0.56596 0.04042
 O116 O 0.94205 0.49423 -0.04302
 C117 C 0.95765 0.52110 -0.06762
 C118 C 1.04385 0.56608 0.09591
 C119 C 0.94666 0.50050 0.10932
 C120 C 1.04498 0.55375 -0.12051
 O121 O 1.01570 0.47838 -0.08628
 O122 O 0.97082 0.46052 0.12586
 O123 O 0.95717 0.44711 -0.05881
 O124 O 1.06500 0.52419 0.06168
 O125 O 1.02843 0.48521 0.11303
 O126 O 0.96887 0.48082 -0.12614
 O127 O 1.05933 0.51229 -0.04643
 O128 O 0.95254 0.43632 0.04265
 Co129 Co 1.00195 0.50608 -0.07711
 Co130 Co 1.00196 0.50051 0.11130
 Co131 Co 0.95130 0.46781 0.00222
 Co132 Co 1.04834 0.53636 -0.00094
 O133 O 0.99953 0.50103 0.01290
 C134 C 1.04403 0.48830 -0.07815
 C135 C 0.95640 0.43562 0.09729
 C136 C 0.95389 0.45276 -0.11169
 C137 C 1.05628 0.50128 0.09763
 O138 O 0.47949 0.44422 -0.06775
 O139 O 0.47672 0.51017 0.12164
 O140 O 0.49066 0.44368 0.04280
 O141 O 0.44132 0.50307 -0.06063
 O142 O 0.49306 0.47070 0.11995
 O143 O 0.44547 0.46285 -0.08177
 O144 O 0.44181 0.50141 0.05213
 O145 O 0.52477 0.45411 -0.04903
 C146 C 0.49996 0.43718 -0.07569
 C147 C 0.44881 0.50116 0.10602
 C148 C 0.48365 0.44451 0.09588
 C149 C 0.42993 0.47613 -0.08166
 O150 O 0.49170 0.51917 -0.12593
 O151 O 0.55082 0.51576 0.08085
 O152 O 0.55654 0.51210 -0.02638
 O153 O 0.49336 0.55639 0.05181
 O154 O 0.53372 0.55297 0.07624
 O155 O 0.52935 0.50066 -0.10947
 O156 O 0.49508 0.55434 -0.06106
 O157 O 0.54995 0.47298 0.05564
 Co158 Co 0.48747 0.48312 -0.08888
 Co159 Co 0.51207 0.51120 0.09128
 Co160 Co 0.52283 0.47900 0.00988
 Co161 Co 0.47060 0.52601 -0.00382
 O162 O 0.49627 0.49991 -0.00053
 C163 C 0.49823 0.54698 -0.11321
 C164 C 0.55979 0.49626 0.09245
 C165 C 0.55548 0.51450 -0.08232
 C166 C 0.52042 0.56856 0.07300
 O167 O 0.55099 0.01288 -0.08753
 O168 O 0.50374 -0.02677 0.10721
 O169 O 0.55920 0.05866 0.04476
 O170 O 0.46906 -0.08079 -0.04900
 O171 O 0.52514 0.03044 0.11485
 O172 O 0.51154 -0.04102 -0.08261
 O173 O 0.51151 -0.04655 0.02613
 O174 O 0.55766 0.05868 -0.06876
 C175 C 0.56794 0.04184 -0.08817
 C176 C 0.51588 -0.04096 0.08132
 C177 C 0.55278 0.05019 0.09852
 C178 C 0.49058 -0.06950 -0.08957
 O179 O 0.46791 -0.02621 -0.12109
 O180 O 0.46926 0.02239 0.07469
 O181 O 0.50453 0.05860 -0.06499
 O182 O 0.45488 -0.06906 0.05501
 O183 O 0.44768 -0.03139 0.06863
 O184 O 0.50912 0.02884 -0.13192
 O185 O 0.44305 -0.04769 -0.03973
 O186 O 0.51026 0.06476 0.04680
 Co187 Co 0.50906 -0.00568 -0.09747
 Co188 Co 0.48757 -0.00129 0.08392
 Co189 Co 0.52988 0.05466 -0.01043
 Co190 Co 0.47843 -0.04526 -0.00867
 O191 O 0.50149 0.00279 -0.00585
 C192 C 0.44252 -0.04144 -0.09375
 C193 C 0.48421 0.05136 0.07150
 C194 C 0.50128 0.04879 -0.11753
 C195 C 0.43959 -0.05904 0.08049
 C196 C 1.09005 0.45389 0.25290
 C197 C 1.11601 0.44498 0.25021
 C198 C 1.13228 0.46678 0.30380
 C199 C 1.10650 0.47554 0.30706
 C200 C 1.10942 0.48185 0.21045
 C201 C 1.12572 0.50357 0.26415
 C202 C 1.13521 0.47310 0.20680
 C203 C 1.15177 0.49475 0.26148
 C204 C 1.14395 0.45904 0.35807
 C205 C 1.15326 0.45367 0.40428
 C206 C 1.09411 0.48993 0.16276
 C207 C 1.07845 0.49579 0.12923
 H208 H 1.06449 0.43713 0.24885
 H209 H 1.11208 0.42077 0.24523
 H210 H 1.09474 0.47640 0.34871
 H211 H 1.12965 0.52778 0.26931
 H212 H 1.14688 0.47226 0.16500
 H213 H 1.17732 0.51147 0.26576
 C214 C 0.55332 0.67611 0.17921
 C215 C 0.53188 0.66789 0.23495
 C216 C 0.56094 0.68074 0.27568
 C217 C 0.58259 0.68943 0.22098
 C218 C 0.55036 0.64349 0.18379
 C219 C 0.57943 0.65632 0.22451
 C220 C 0.52886 0.63504 0.23869
 C221 C 0.55794 0.64810 0.27991
 C222 C 0.56499 0.69909 0.32954
 C223 C 0.56672 0.71221 0.37590
 C224 C 0.54219 0.61985 0.13732
 C225 C 0.53327 0.59762 0.10462
 H226 H 0.55137 0.68733 0.13716
 H227 H 0.51237 0.67282 0.23996
 H228 H 0.60476 0.71209 0.21457
 H229 H 0.59890 0.65134 0.21953
 H230 H 0.50666 0.61244 0.24556
 H231 H 0.55982 0.63674 0.32183
 C232 C 0.33956 -0.12934 0.20767
 C233 C 0.34413 -0.14598 0.26320
 C234 C 0.33657 -0.12565 0.30416
 C235 C 0.33162 -0.10926 0.24960
 C236 C 0.37434 -0.10394 0.21150
 C237 C 0.36671 -0.08370 0.25258
 C238 C 0.37929 -0.12033 0.26608
 C239 C 0.37135 -0.10026 0.30781
 C240 C 0.31616 -0.13677 0.35658
 C241 C 0.29972 -0.14531 0.40032
 C242 C 0.39633 -0.09021 0.16176
 C243 C 0.41553 -0.07700 0.12312
 H244 H 0.32681 -0.14114 0.16588
 H245 H 0.33456 -0.17173 0.26832
 H246 H 0.31179 -0.10483 0.24353
 H247 H 0.37624 -0.05794 0.24761
 H248 H 0.39912 -0.12475 0.27217
 H249 H 0.38416 -0.08842 0.34955
 C250 C 0.91039 0.54285 0.27293
 C251 C 0.88391 0.55096 0.26766
 C252 C 0.86642 0.52752 0.31886
 C253 C 0.89273 0.51954 0.32468
 C254 C 0.89285 0.51603 0.22764
 C255 C 0.87536 0.49262 0.27888
 C256 C 0.86655 0.52402 0.22153
 C257 C 0.84877 0.50067 0.27368
 C258 C 0.85307 0.53436 0.37141
 C259 C 0.84324 0.54045 0.41574
 C260 C 0.90950 0.51000 0.17989
 C261 C 0.92531 0.50543 0.14480
 H262 H 0.93590 0.56020 0.27219
 H263 H 0.88733 0.57506 0.26362
 H264 H 0.90341 0.51775 0.36752
 H265 H 0.87196 0.46854 0.28300
 H266 H 0.85596 0.52579 0.17858
 H267 H 0.82327 0.48336 0.27460
 C268 C 0.43628 0.37315 0.27534
 C269 C 0.41042 0.33790 0.27399
 C270 C 0.43396 0.32923 0.30077
 C271 C 0.45961 0.36414 0.30274
 C272 C 0.44668 0.36980 0.21228
 C273 C 0.47008 0.36103 0.23928
 C274 C 0.42096 0.33492 0.20990
 C275 C 0.44436 0.32584 0.23773
 C276 C 0.42960 0.30855 0.35216
 C277 C 0.42872 0.29350 0.39596
 C278 C 0.45658 0.39434 0.16593
 C279 C 0.46751 0.41638 0.13154
 H280 H 0.43303 0.39284 0.29037
 H281 H 0.38582 0.32814 0.28888
 H282 H 0.47549 0.37603 0.34135
 H283 H 0.49472 0.37074 0.22458
 H284 H 0.40518 0.32320 0.17111
 H285 H 0.44764 0.30616 0.22279
 C286 C 0.65592 0.11594 0.21616
 C287 C 0.65405 0.13521 0.26916
 C288 C 0.66409 0.11725 0.31226
 C289 C 0.66635 0.09819 0.26009
 C290 C 0.62156 0.09068 0.22722
 C291 C 0.63160 0.07271 0.27032
 C292 C 0.61934 0.10973 0.27943
 C293 C 0.62971 0.09198 0.32319
 C294 C 0.68699 0.13160 0.36107
 C295 C 0.70485 0.14270 0.40288
 C296 C 0.59738 0.07591 0.18065
 C297 C 0.57715 0.06398 0.14294
 H298 H 0.66641 0.12560 0.17157
 H299 H 0.66354 0.16107 0.26915
 H300 H 0.68596 0.09364 0.25263
 H301 H 0.62209 0.04684 0.27032
 H302 H 0.59974 0.11429 0.28694
 H303 H 0.61916 0.08228 0.36774
 C304 C 0.46187 0.11380 -0.23012
 C305 C 0.48187 0.13336 -0.28434
 C306 C 0.45290 0.11599 -0.32505
 C307 C 0.43271 0.09664 -0.27160
 C308 C 0.47043 0.08842 -0.24420
 C309 C 0.44145 0.07099 -0.28485
 C310 C 0.49054 0.10778 -0.29770
 C311 C 0.46146 0.09059 -0.33901
 C312 C 0.44457 0.13164 -0.37207
 C313 C 0.43946 0.14457 -0.41327
 C314 C 0.48099 0.07357 -0.19957
 C315 C 0.49016 0.06193 -0.16258
 H316 H 0.46216 0.12319 -0.18480
 H317 H 0.49837 0.15919 -0.28451
 H318 H 0.40886 0.09226 -0.26130
 H319 H 0.42497 0.04516 -0.28463
 H320 H 0.51440 0.11219 -0.30806
 H321 H 0.46118 0.08118 -0.38431
 C322 C 0.66415 0.55304 -0.18398
 C323 C 0.65990 0.52775 -0.23035
 C324 C 0.67008 0.55261 -0.28052
 C325 C 0.67476 0.57806 -0.23510
 C326 C 0.63004 0.54463 -0.19520
 C327 C 0.64019 0.56948 -0.24538
 C328 C 0.62553 0.51930 -0.24079
 C329 C 0.63594 0.54419 -0.29143
 C330 C 0.69047 0.55557 -0.33071
 C331 C 0.70536 0.55698 -0.37450
 C332 C 0.60565 0.53757 -0.15057
 C333 C 0.58364 0.52878 -0.11726
 H334 H 0.67550 0.55668 -0.13924
 H335 H 0.66817 0.51059 -0.22467
 H336 H 0.69530 0.60228 -0.23333
 H337 H 0.63186 0.58659 -0.25107
 H338 H 0.60503 0.49505 -0.24283
 H339 H 0.62447 0.54049 -0.33607
 C340 C 0.89257 0.38631 -0.29382
 C341 C 0.90759 0.36965 -0.32716
 C342 C 0.87791 0.33775 -0.31517
 C343 C 0.86264 0.35405 -0.28248
 C344 C 0.90648 0.38236 -0.23466
 C345 C 0.87681 0.35048 -0.22252
 C346 C 0.92173 0.36604 -0.26740
 C347 C 0.89183 0.33377 -0.25603
 C348 C 0.86304 0.31373 -0.36184
 C349 C 0.85211 0.29514 -0.40245
 C350 C 0.92298 0.40750 -0.19057
 C351 C 0.93695 0.42824 -0.15462
 H352 H 0.89308 0.40818 -0.30896
 H353 H 0.92013 0.37731 -0.37068
 H354 H 0.83816 0.34883 -0.28912
 H355 H 0.86433 0.34291 -0.17894
 H356 H 0.94621 0.37126 -0.26082
 H357 H 0.89134 0.31190 -0.24097
 C358 C 0.52076 -0.10058 -0.27818
 C359 C 0.54254 -0.11474 -0.27525
 C360 C 0.51838 -0.14291 -0.31215
 C361 C 0.49669 -0.12890 -0.31574
 C362 C 0.50454 -0.11878 -0.22063
 C363 C 0.48030 -0.14696 -0.25744
 C364 C 0.52624 -0.13277 -0.21697
 C365 C 0.50215 -0.16123 -0.25471
 C366 C 0.52715 -0.15464 -0.36421
 C367 C 0.53533 -0.16271 -0.40802
 C368 C 0.49807 -0.10343 -0.17143
 C369 C 0.49400 -0.08888 -0.13287
 H370 H 0.52835 -0.07547 -0.28726
 H371 H 0.56822 -0.10162 -0.28320
 H372 H 0.48467 -0.12745 -0.35697
 H373 H 0.45463 -0.16001 -0.24938
 H374 H 0.53827 -0.13420 -0.17574
 H375 H 0.49462 -0.18634 -0.24583
 C376 C 0.33444 0.45847 -0.20293
 C377 C 0.34273 0.46043 -0.27013
 C378 C 0.31344 0.42799 -0.27989
 C379 C 0.30474 0.42586 -0.21324
 C380 C 0.35336 0.44192 -0.19067
 C381 C 0.32414 0.40939 -0.20002
 C382 C 0.36184 0.44399 -0.25744
 C383 C 0.33236 0.41145 -0.26770
 C384 C 0.29406 0.42354 -0.33283
 C385 C 0.28101 0.42333 -0.37875
 C386 C 0.37816 0.45206 -0.14563
 C387 C 0.40085 0.46234 -0.11360
 H388 H 0.33557 0.47790 -0.17584
 H389 H 0.35027 0.48140 -0.29951
 H390 H 0.28093 0.41823 -0.19582
 H391 H 0.31682 0.38856 -0.17038
 H392 H 0.38559 0.45162 -0.27526
 H393 H 0.33126 0.39206 -0.29489
 C394 C 1.11189 0.62465 -0.29090
 C395 C 1.09542 0.63789 -0.33108
 C396 C 1.12222 0.67141 -0.31795
 C397 C 1.13896 0.65854 -0.27840
 C398 C 1.09431 0.62706 -0.23646
 C399 C 1.12111 0.66055 -0.22309
 C400 C 1.07763 0.63997 -0.27607
 C401 C 1.10466 0.67387 -0.26354
 C402 C 1.13673 0.69489 -0.36556
 C403 C 1.14769 0.71290 -0.40712
 C404 C 1.07782 0.60159 -0.19312
 C405 C 1.06327 0.57996 -0.15918
 H406 H 1.11465 0.60411 -0.30160
 H407 H 1.08502 0.62886 -0.37602
 H408 H 1.16436 0.66653 -0.27998
 H409 H 1.13144 0.66949 -0.17809
 H410 H 1.05222 0.63200 -0.27460
 H411 H 1.10191 0.69442 -0.25292
 C412 C 0.88631 0.56007 -0.17254
 C413 C 0.90293 0.58648 -0.22063
 C414 C 0.88494 0.56224 -0.27010
 C415 C 0.86809 0.53602 -0.22301
 C416 C 0.91274 0.55231 -0.17796
 C417 C 0.89469 0.52823 -0.22765
 C418 C 0.92962 0.57853 -0.22503
 C419 C 0.91137 0.55445 -0.27515
 C420 C 0.86938 0.56535 -0.32391
 C421 C 0.85633 0.56552 -0.36980
 C422 C 0.92847 0.54414 -0.13101
 C423 C 0.94170 0.53487 -0.09817
 H424 H 0.87620 0.56233 -0.12978
 H425 H 0.90614 0.61053 -0.21843
 H426 H 0.84262 0.51852 -0.22274
 H427 H 0.89138 0.50414 -0.23021
 H428 H 0.95510 0.59599 -0.22531
 H429 H 0.92156 0.55213 -0.31776
 C430 C 0.47464 0.33634 -0.19841
 C431 C 0.44786 0.32835 -0.24425
 C432 C 0.47062 0.33362 -0.29566
 C433 C 0.49730 0.34125 -0.25081
 C434 C 0.48417 0.37129 -0.20309
 C435 C 0.50692 0.37656 -0.25451
 C436 C 0.45752 0.36358 -0.24808
 C437 C 0.48015 0.36857 -0.30008
 C438 C 0.46243 0.31369 -0.34890
 C439 C 0.45513 0.29824 -0.39411
 C440 C 0.49089 0.39342 -0.15393
 C441 C 0.49553 0.41282 -0.11638
 H442 H 0.47248 0.32338 -0.15598
 H443 H 0.42348 0.30832 -0.24065
 H444 H 0.51356 0.33182 -0.25262
 H445 H 0.53128 0.39662 -0.25814
 H446 H 0.44123 0.37298 -0.24646
 H447 H 0.48233 0.38164 -0.34240
 C448 C 0.66501 0.06990 -0.22162
 C449 C 0.65710 0.07562 -0.28632
 C450 C 0.68537 0.10925 -0.28441
 C451 C 0.69377 0.10389 -0.22048
 C452 C 0.64453 0.08267 -0.19709
 C453 C 0.67276 0.11632 -0.19501
 C454 C 0.63638 0.08814 -0.26115
 C455 C 0.66481 0.12189 -0.25968
 C456 C 0.70556 0.12410 -0.33640
 C457 C 0.71947 0.13631 -0.38201
 C458 C 0.61948 0.06793 -0.15266
 C459 C 0.59683 0.05592 -0.12063
 H460 H 0.66480 0.04835 -0.20534
 H461 H 0.65086 0.05902 -0.32438
 H462 H 0.71767 0.11055 -0.20445
 H463 H 0.67890 0.13287 -0.15691
 H464 H 0.61255 0.08156 -0.27757
 H465 H 0.66489 0.14340 -0.27583
 C466 C 1.11116 0.48876 -0.24034
 C467 C 1.13736 0.48034 -0.23376
 C468 C 1.12192 0.45610 -0.28430
 C469 C 1.09594 0.46450 -0.29139
 C470 C 1.09127 0.46283 -0.19437
 C471 C 1.07585 0.43861 -0.24497
 C472 C 1.11726 0.45444 -0.18701
 C473 C 1.10208 0.43008 -0.23850
 C474 C 1.13838 0.45324 -0.33664
 C475 C 1.15103 0.45137 -0.38147
 C476 C 1.07402 0.46867 -0.14730
 C477 C 1.06001 0.47601 -0.11277
 H478 H 1.11478 0.51300 -0.24082
 H479 H 1.16281 0.49754 -0.22963
 H480 H 1.08730 0.46871 -0.33469
 H481 H 1.05040 0.42143 -0.24918
 H482 H 1.12584 0.45028 -0.14360
 H483 H 1.09853 0.40587 -0.23827
 C484 C 0.53382 0.64997 -0.22922
 C485 C 0.56466 0.66441 -0.26584
 C486 C 0.54595 0.66201 -0.32300
 C487 C 0.51529 0.64794 -0.28713
 C488 C 0.52841 0.61682 -0.24194
 C489 C 0.50976 0.61449 -0.29915
 C490 C 0.55909 0.63086 -0.27777
 C491 C 0.54054 0.62885 -0.33563
 C492 C 0.55465 0.68607 -0.37027
 C493 C 0.56044 0.70414 -0.41186
 C494 C 0.51802 0.59144 -0.19693
 C495 C 0.50910 0.57083 -0.15939
 H496 H 0.53093 0.65841 -0.18495
 H497 H 0.58731 0.68519 -0.25252
 H498 H 0.49736 0.65522 -0.29126
 H499 H 0.48712 0.59374 -0.31258
 H500 H 0.57698 0.62354 -0.27362
 H501 H 0.54341 0.62035 -0.37986
 C502 C 0.35951 -0.06142 -0.25450
 C503 C 0.35966 -0.08460 -0.30096
 C504 C 0.32427 -0.10641 -0.29140
 C505 C 0.32370 -0.08343 -0.24555
 C506 C 0.36574 -0.07937 -0.20442
 C507 C 0.33038 -0.10116 -0.19449
 C508 C 0.36613 -0.10235 -0.25047
 C509 C 0.33053 -0.12433 -0.24133
 C510 C 0.30338 -0.12164 -0.34294
 C511 C 0.28870 -0.13410 -0.38798
 C512 C 0.39096 -0.06483 -0.15947
 C513 C 0.41360 -0.05361 -0.12675
 H514 H 0.37166 -0.03540 -0.25951
 H515 H 0.37161 -0.07789 -0.34515
 H516 H 0.30598 -0.07583 -0.24405
 H517 H 0.31856 -0.10780 -0.15019
 H518 H 0.38378 -0.11006 -0.25228
 H519 H 0.31843 -0.15035 -0.23635
 C520 C 0.57517 -0.06505 0.24678
 C521 C 0.55114 -0.08627 0.29485
 C522 C 0.56121 -0.11097 0.28593
 C523 C 0.58541 -0.09002 0.23853
 C524 C 0.54996 -0.08158 0.19806
 C525 C 0.56001 -0.10627 0.18886
 C526 C 0.52592 -0.10257 0.24566
 C527 C 0.53601 -0.12743 0.23718
 C528 C 0.56501 -0.12784 0.33719
 C529 C 0.56562 -0.14204 0.38128
 C530 C 0.54101 -0.06594 0.15193
 C531 C 0.53098 -0.05395 0.11746
 H532 H 0.59121 -0.03922 0.25023
 H533 H 0.54747 -0.07817 0.33886
 H534 H 0.60996 -0.08503 0.23618
 H535 H 0.56361 -0.11432 0.14475
 H536 H 0.50133 -0.10765 0.24833
 H537 H 0.51989 -0.15325 0.23369
 C538 C 0.38395 0.50210 0.28357
 C539 C 0.34906 0.49181 0.27225
 C540 C 0.33953 0.46573 0.31982
 C541 C 0.37409 0.47592 0.33180
 C542 C 0.38162 0.47868 0.23557
 C543 C 0.37207 0.45260 0.28317
 C544 C 0.34707 0.46848 0.22348
 C545 C 0.33718 0.44228 0.27184
 C546 C 0.31672 0.45839 0.36819
 C547 C 0.29884 0.45207 0.40965
 C548 C 0.40540 0.48616 0.18911
 C549 C 0.42515 0.49272 0.15118
 H550 H 0.40344 0.52678 0.28807
 H551 H 0.33938 0.50787 0.26814
 H552 H 0.38502 0.47896 0.37684
 H553 H 0.38177 0.43655 0.28731
 H554 H 0.33619 0.46548 0.17841
 H555 H 0.31769 0.41761 0.26742
 C556 C 1.10997 0.67904 0.18964
 C557 C 1.09320 0.68927 0.23559
 C558 C 1.11407 0.68788 0.28574
 C559 C 1.13106 0.67809 0.24073
 C560 C 1.08581 0.64435 0.20287
 C561 C 1.10670 0.64314 0.25318
 C562 C 1.06879 0.65412 0.24788
 C563 C 1.08989 0.65315 0.29860
 C564 C 1.12965 0.70975 0.33566
 C565 C 1.14205 0.72492 0.38019
 C566 C 1.07027 0.61822 0.16018
 C567 C 1.05789 0.59515 0.12875
 H568 H 1.11805 0.68943 0.14429
 H569 H 1.08783 0.70852 0.22882
 H570 H 1.15682 0.68816 0.23819
 H571 H 1.11215 0.62396 0.26022
 H572 H 1.04302 0.64400 0.25046
 H573 H 1.08174 0.64263 0.34385
 C574 C 0.47777 0.13635 0.19363
 C575 C 0.44630 0.13530 0.20597
 C576 C 0.44926 0.12874 0.27258
 C577 C 0.48055 0.13006 0.26097
 C578 C 0.45953 0.10062 0.18295
 C579 C 0.46242 0.09421 0.24968
 C580 C 0.42817 0.09920 0.19436
 C581 C 0.43106 0.09302 0.26181
 C582 C 0.44449 0.14315 0.32557
 C583 C 0.44131 0.15372 0.37181
 C584 C 0.46659 0.08391 0.13730
 C585 C 0.47387 0.06932 0.10448
 H586 H 0.49702 0.15395 0.16495
 H587 H 0.43960 0.15242 0.18875
 H588 H 0.50203 0.14286 0.28890
 H589 H 0.46911 0.07715 0.26727
 H590 H 0.40674 0.08634 0.16633
 H591 H 0.41182 0.07536 0.29046
 C592 C 0.62096 0.50142 0.28155
 C593 C 0.65453 0.50647 0.27830
 C594 C 0.66676 0.53750 0.31278
 C595 C 0.63349 0.53253 0.31670
 C596 C 0.62691 0.51995 0.22254
 C597 C 0.63915 0.55098 0.25705
 C598 C 0.66017 0.52490 0.21841
 C599 C 0.67278 0.55610 0.25382
 C600 C 0.68768 0.54641 0.36492
 C601 C 0.70346 0.55240 0.40969
 C602 C 0.60379 0.51042 0.17402
 C603 C 0.58400 0.50332 0.13581
 H604 H 0.59943 0.47883 0.29242
 H605 H 0.66113 0.48828 0.28760
 H606 H 0.62275 0.53583 0.35761
 H607 H 0.63253 0.56915 0.24778
 H608 H 0.67081 0.52156 0.17741
 H609 H 0.69432 0.57870 0.24309
 C610 C 0.89055 0.32289 0.19405
 C611 C 0.90792 0.31278 0.23980
 C612 C 0.88846 0.31540 0.29062
 C613 C 0.87088 0.32505 0.24586
 C614 C 0.91545 0.35753 0.20468
 C615 C 0.89596 0.35993 0.25568
 C616 C 0.93307 0.34792 0.24941
 C617 C 0.91337 0.35008 0.30084
 C618 C 0.87341 0.29461 0.34206
 C619 C 0.86107 0.28042 0.38743
 C620 C 0.93030 0.38324 0.16099
 C621 C 0.94235 0.40634 0.12946
 H622 H 0.88138 0.31204 0.14952
 H623 H 0.91262 0.29308 0.23392
 H624 H 0.84515 0.31542 0.24492
 H625 H 0.89117 0.37955 0.26192
 H626 H 0.95882 0.35762 0.25036
 H627 H 0.92264 0.36111 0.34522
   
