data_POSCAR
  _audit_creation_date              2014-09-24
  _audit_creation_method            'ToBaCCo'
  _symmetry_space_group_name_H-M    'P1'
  _symmetry_Int_Tables_number       1
  _symmetry_cell_setting            triclinic
  loop_
  _symmetry_equiv_pos_as_xyz
 x,y,z
_cell_length_a 56.6871
_cell_length_b 56.6865
_cell_length_c 20.0418
_cell_angle_alpha 90.000000
_cell_angle_beta 90.000000
_cell_angle_gamma 120.000000
loop_
  _atom_site_label
  _atom_site_type_symbol
  _atom_site_fract_x
  _atom_site_fract_y
  _atom_site_fract_z
O1 O 0.21243 0.46962 0.43422
 O2 O 0.26489 0.47322 0.56893
 O3 O 0.21240 0.46966 0.56968
 O4 O 0.26505 0.47345 0.43429
 O5 O 0.28240 0.51754 0.43391
 O6 O 0.22979 0.51374 0.57044
 O7 O 0.28208 0.51730 0.57076
 O8 O 0.22992 0.51373 0.43416
 Cu9 Cu 0.23707 0.46791 0.50174
 Cu10 Cu 0.25773 0.51919 0.50229
 C11 C 0.21112 0.49044 0.41243
 C12 C 0.28338 0.49637 0.59182
 C13 C 0.21098 0.49040 0.59201
 C14 C 0.28373 0.49670 0.41210
 O15 O 0.52531 -0.26306 0.43362
 O16 O 0.52523 -0.21179 0.57077
 O17 O 0.52495 -0.26394 0.56969
 O18 O 0.52504 -0.21140 0.43467
 O19 O 0.48065 -0.23459 0.43522
 O20 O 0.48061 -0.28444 0.56974
 O21 O 0.48081 -0.23470 0.57019
 O22 O 0.48091 -0.28427 0.43428
 Cu23 Cu 0.52888 -0.23567 0.50226
 Cu24 Cu 0.47735 -0.26121 0.50232
 C25 C 0.50273 -0.28324 0.41178
 C26 C 0.50270 -0.21399 0.59250
 C27 C 0.50223 -0.28402 0.59155
 C28 C 0.50243 -0.21366 0.41319
 O29 O 1.26162 0.78479 0.43646
 O30 O 1.21359 0.73305 0.57346
 O31 O 1.26463 0.78534 0.57180
 O32 O 1.21187 0.73263 0.43773
 O33 O 1.23759 0.71425 0.43025
 O34 O 1.28677 0.76313 0.56707
 O35 O 1.23748 0.71266 0.56590
 O36 O 1.28672 0.76565 0.43166
 Cu37 Cu 1.23598 0.76068 0.50529
 Cu38 Cu 1.26394 0.73723 0.49837
 C39 C 1.28301 0.78525 0.41233
 C40 C 1.21665 0.71292 0.59153
 C41 C 1.28550 0.78356 0.59125
 C42 C 1.21556 0.71379 0.41188
 O43 O 0.73585 0.52468 0.56641
 O44 O 0.78780 0.52719 0.43121
 O45 O 0.73567 0.52450 0.43202
 O46 O 0.78811 0.52736 0.56636
 O47 O 0.76985 0.48317 0.56724
 O48 O 0.71764 0.48031 0.43142
 O49 O 0.76963 0.48300 0.43136
 O50 O 0.71788 0.48050 0.56818
 Cu51 Cu 0.76353 0.52951 0.49902
 Cu52 Cu 0.74200 0.47813 0.49958
 C53 C 0.71700 0.50166 0.58923
 C54 C 0.78872 0.50613 0.40954
 C55 C 0.71673 0.50140 0.40992
 C56 C 0.78909 0.50636 0.58827
 O57 O 0.47180 0.21407 0.56919
 O58 O 0.47540 0.26641 0.43388
 O59 O 0.47196 0.21404 0.43341
 O60 O 0.47570 0.26703 0.56804
 O61 O 0.51970 0.28383 0.56956
 O62 O 0.51606 0.23155 0.43297
 O63 O 0.51951 0.28375 0.43296
 O64 O 0.51588 0.23136 0.56903
 Cu65 Cu 0.47011 0.23871 0.50130
 Cu66 Cu 0.52138 0.25928 0.50122
 C67 C 0.49258 0.21262 0.59081
 C68 C 0.49861 0.28500 0.41151
 C69 C 0.49278 0.21277 0.41118
 C70 C 0.49898 0.28558 0.59046
 O71 O 0.78413 0.26010 0.56778
 O72 O 0.73249 0.21173 0.43088
 O73 O 0.78446 0.26257 0.43180
 O74 O 0.73165 0.21006 0.56625
 O75 O 0.71374 0.23620 0.57318
 O76 O 0.76292 0.28539 0.43646
 O77 O 0.71239 0.23594 0.43722
 O78 O 0.76517 0.28538 0.57167
 Cu79 Cu 0.75996 0.23422 0.49902
 Cu80 Cu 0.73686 0.26252 0.50500
 C81 C 0.78470 0.28164 0.59137
 C82 C 0.71255 0.21496 0.41211
 C83 C 0.78300 0.28360 0.41207
 C84 C 0.71284 0.21393 0.59162
 O85 O 0.95824 0.43714 0.12734
 O86 O 0.92912 0.44493 0.06349
 C87 C 0.93326 0.43166 0.11256
 O88 O 1.04127 0.55957 0.12630
 O89 O 1.07085 0.55164 0.06486
 C90 C 1.06639 0.56526 0.11235
 O91 O 0.96332 0.52227 0.12529
 O92 O 0.93079 0.48633 0.06420
 C93 C 0.93748 0.50478 0.11226
 O94 O 1.03612 0.47193 0.12463
 O95 O 1.06921 0.50878 0.06705
 C96 C 1.06211 0.48960 0.11324
 Zr97 Zr 0.99794 0.46683 0.08379
 O98 O 0.99668 0.46301 0.18893
 O99 O 0.99560 0.42880 0.06967
 Zr100 Zr 1.00173 0.52854 0.08392
 O101 O 1.00289 0.52994 0.18941
 O102 O 1.00163 0.56573 0.07591
 O103 O 0.97515 0.48648 0.09523
 O104 O 1.02374 0.50856 0.09599
 O105 O 1.03756 0.47257 -0.12263
 O106 O 1.06995 0.50917 -0.06320
 C107 C 1.06341 0.49027 -0.11002
 O108 O 0.96447 0.52246 -0.12820
 O109 O 0.93131 0.48645 -0.06868
 C110 C 0.93846 0.50505 -0.11640
 O111 O 1.04245 0.55969 -0.12470
 O112 O 1.07147 0.55165 -0.06115
 C113 C 1.06741 0.56521 -0.10948
 O114 O 0.96038 0.43720 -0.12572
 O115 O 0.92942 0.44407 -0.06739
 C116 C 0.93501 0.43078 -0.11382
 Zr117 Zr 0.99918 0.46751 -0.08344
 O118 O 1.00121 0.46765 -0.18891
 O119 O 0.99545 0.42851 -0.07610
 Zr120 Zr 1.00254 0.52908 -0.08341
 O121 O 1.00351 0.53322 -0.18832
 O122 O 1.00256 0.56618 -0.07055
 Zr123 Zr 0.95754 0.47837 -0.00165
 Zr124 Zr 1.04298 0.51735 0.00142
 O125 O 1.02474 0.50917 -0.09424
 O126 O 0.97632 0.48703 -0.09716
 O127 O 1.02359 0.47412 0.00120
 O128 O 0.97756 0.52150 -0.00058
 O129 O 0.97364 0.45182 -0.00073
 O130 O 1.02767 0.54479 0.00101
 H131 H 1.03530 0.51404 0.13638
 H132 H 0.96555 0.52955 -0.00094
 H133 H 1.03651 0.51450 -0.13426
 H134 H 0.96033 0.43203 -0.00072
 H135 H 1.01988 0.57974 0.06011
 H136 H 1.02151 0.58054 -0.06084
 H137 H 1.00691 0.51905 -0.20686
 H138 H 0.98817 0.47301 -0.20591
 H139 H 1.01244 0.43090 -0.05581
 H140 H 0.99494 0.42156 0.11503
 H141 H 1.00605 0.48160 0.20777
 H142 H 0.98981 0.51139 0.20548
 O143 O 0.56206 0.52203 0.12746
 O144 O 0.55568 0.48570 0.06347
 C145 C 0.56840 0.50310 0.11261
 O146 O 0.43904 0.47839 0.12545
 O147 O 0.44600 0.51541 0.06327
 C148 C 0.43275 0.49743 0.11115
 O149 O 0.47964 0.43992 0.12792
 O150 O 0.51577 0.44593 0.06355
 C151 C 0.49843 0.43340 0.11290
 O152 O 0.52389 0.56295 0.12509
 O153 O 0.48700 0.55622 0.06271
 C154 C 0.50495 0.56937 0.11064
 Zr155 Zr 0.53132 0.53088 0.08396
 O156 O 0.53319 0.53444 0.18911
 O157 O 0.56858 0.56748 0.07073
 Zr158 Zr 0.47078 0.47050 0.08397
 O159 O 0.46717 0.46884 0.18906
 O160 O 0.43471 0.43237 0.07320
 O161 O 0.51320 0.48845 0.09617
 O162 O 0.48932 0.51256 0.09521
 O163 O 0.52395 0.56307 -0.12602
 O164 O 0.48682 0.55608 -0.06422
 C165 C 0.50486 0.56932 -0.11202
 O166 O 0.47959 0.44002 -0.12957
 O167 O 0.51583 0.44603 -0.06572
 C168 C 0.49844 0.43352 -0.11511
 O169 O 0.43899 0.47827 -0.12607
 O170 O 0.44520 0.51445 -0.06168
 C171 C 0.43225 0.49681 -0.11023
 O172 O 0.56225 0.52224 -0.12813
 O173 O 0.55583 0.48583 -0.06438
 C174 C 0.56867 0.50336 -0.11321
 Zr175 Zr 0.53132 0.53094 -0.08505
 O176 O 0.53186 0.53326 -0.19042
 O177 O 0.56952 0.56707 -0.07610
 Zr178 Zr 0.47072 0.47045 -0.08469
 O179 O 0.46682 0.46701 -0.18961
 O180 O 0.43468 0.43242 -0.07197
 Zr181 Zr 0.52195 0.47969 -0.00065
 Zr182 Zr 0.48017 0.52186 -0.00038
 O183 O 0.48923 0.51258 -0.09601
 O184 O 0.51314 0.48849 -0.09731
 O185 O 0.52312 0.54781 -0.00042
 O186 O 0.47912 0.45430 -0.00044
 O187 O 0.54740 0.52251 -0.00052
 O188 O 0.45398 0.47888 -0.00032
 H189 H 0.48363 0.51840 0.13569
 H190 H 0.47228 0.43444 -0.00051
 H191 H 0.48333 0.51850 -0.13597
 H192 H 0.56728 0.52943 -0.00045
 H193 H 0.41988 0.43605 0.06164
 H194 H 0.41975 0.43616 -0.06209
 H195 H 0.48051 0.48481 -0.20814
 H196 H 0.52595 0.51475 -0.20747
 H197 H 0.56606 0.58133 -0.05819
 H198 H 0.57551 0.57406 0.11630
 H199 H 0.52553 0.51581 0.20719
 H200 H 0.48582 0.47679 0.20719
 O201 O 0.52064 -0.03830 0.13058
 O202 O 0.48456 -0.06936 0.06753
 C203 C 0.50212 -0.06390 0.11668
 O204 O 0.47382 0.03803 0.12271
 O205 O 0.51084 0.06981 0.06342
 C206 C 0.49189 0.06370 0.10998
 O207 O 0.43740 -0.03925 0.12643
 O208 O 0.44365 -0.07059 0.06812
 C209 C 0.43070 -0.06472 0.11477
 O210 O 0.55998 0.04057 0.12585
 O211 O 0.55275 0.07012 0.06206
 C212 C 0.56592 0.06570 0.11073
 Zr213 Zr 0.52869 0.00080 0.08499
 O214 O 0.53219 0.00115 0.19007
 O215 O 0.56588 0.00140 0.07095
 Zr216 Zr 0.46789 -0.00057 0.08365
 O217 O 0.46756 0.00156 0.18902
 O218 O 0.42921 -0.00366 0.07509
 O219 O 0.48645 -0.02428 0.09777
 O220 O 0.50970 0.02402 0.09494
 O221 O 0.56011 0.03958 -0.12541
 O222 O 0.55274 0.06965 -0.06441
 C223 C 0.56606 0.06487 -0.11198
 O224 O 0.43700 -0.04139 -0.12689
 O225 O 0.44425 -0.07086 -0.06315
 C226 C 0.43123 -0.06648 -0.11235
 O227 O 0.47351 0.03678 -0.12438
 O228 O 0.51064 0.06918 -0.06637
 C229 C 0.49152 0.06260 -0.11253
 O230 O 0.52063 -0.03936 -0.12608
 O231 O 0.48485 -0.06985 -0.06128
 C232 C 0.50234 -0.06481 -0.11048
 Zr233 Zr 0.52864 0.00004 -0.08308
 O234 O 0.53210 0.00168 -0.18822
 O235 O 0.56520 -0.00108 -0.07186
 Zr236 Zr 0.46753 -0.00177 -0.08410
 O237 O 0.46702 0.00002 -0.18949
 O238 O 0.42867 -0.00523 -0.07577
 Zr239 Zr 0.47770 -0.04264 0.00200
 Zr240 Zr 0.51837 0.04223 -0.00085
 O241 O 0.50944 0.02292 -0.09559
 O242 O 0.48634 -0.02541 -0.09516
 O243 O 0.54502 0.02586 0.00033
 O244 O 0.45186 -0.02581 0.00070
 O245 O 0.52071 -0.02415 0.00184
 O246 O 0.47527 0.02395 -0.00118
 H247 H 0.51516 0.03585 0.13484
 H248 H 0.43203 -0.03896 0.00078
 H249 H 0.51493 0.03429 -0.13633
 H250 H 0.52812 -0.03670 0.00253
 H251 H 0.43210 0.01401 0.05830
 H252 H 0.43148 0.01268 -0.06127
 H253 H 0.47274 -0.01270 -0.20666
 H254 H 0.51351 -0.00961 -0.20620
 H255 H 0.57945 0.01726 -0.05713
 H256 H 0.57251 0.00087 0.11634
 H257 H 0.51985 0.00714 0.20825
 H258 H 0.47373 -0.01080 0.20639
 C259 C 1.15882 0.50043 0.28928
 C260 C 1.13902 0.47366 0.28150
 C261 C 1.14170 0.45284 0.31213
 C262 C 1.16509 0.45924 0.35199
 C263 C 1.18672 0.48642 0.36400
 C264 C 1.18294 0.50748 0.33085
 O265 O 1.15202 0.51698 0.25482
 C266 C 1.12749 0.50031 0.22505
 C267 C 1.11877 0.47359 0.24058
 C268 C 1.09365 0.45273 0.21679
 C269 C 1.07676 0.45901 0.17631
 C270 C 1.08403 0.48604 0.15647
 C271 C 1.11060 0.50719 0.18226
 H272 H 1.12598 0.43181 0.30556
 H273 H 1.16604 0.44241 0.37463
 H274 H 1.19821 0.52868 0.33719
 H275 H 1.08690 0.43176 0.22970
 H276 H 1.05748 0.44216 0.15982
 H277 H 1.11764 0.52833 0.17074
 C278 C 0.51360 0.66197 0.30049
 C279 C 0.49025 0.65108 0.26289
 C280 C 0.47163 0.66037 0.27077
 C281 C 0.47668 0.68125 0.31822
 C282 C 0.50051 0.69426 0.35913
 C283 C 0.51946 0.68391 0.34877
 O284 O 0.52823 0.64945 0.28556
 C285 C 0.51389 0.63048 0.23753
 C286 C 0.49054 0.63097 0.22201
 C287 C 0.47267 0.61342 0.17310
 C288 C 0.47849 0.59479 0.13884
 C289 C 0.50194 0.59220 0.15183
 C290 C 0.52004 0.61106 0.20353
 H291 H 0.45319 0.65151 0.24120
 H292 H 0.46154 0.68747 0.32272
 H293 H 0.53789 0.69224 0.37821
 H294 H 0.45439 0.61405 0.16097
 H295 H 0.46405 0.58195 0.10134
 H296 H 0.53835 0.61071 0.21688
 C297 C 0.34548 -0.16225 0.29006
 C298 C 0.33782 -0.14306 0.28023
 C299 C 0.31390 -0.14618 0.30926
 C300 C 0.29715 -0.16941 0.34968
 C301 C 0.30330 -0.19049 0.36360
 C302 C 0.32858 -0.18628 0.33199
 O303 O 0.36928 -0.15495 0.25709
 C304 C 0.37667 -0.13074 0.22613
 C305 C 0.35792 -0.12276 0.23944
 C306 C 0.36141 -0.09819 0.21405
 C307 C 0.38464 -0.08101 0.17426
 C308 C 0.40531 -0.08736 0.15688
 C309 C 0.40064 -0.11347 0.18419
 H310 H 0.30810 -0.13089 0.30109
 H311 H 0.27901 -0.17071 0.37105
 H312 H 0.33498 -0.20112 0.33995
 H313 H 0.34655 -0.09207 0.22515
 H314 H 0.38640 -0.06216 0.15642
 H315 H 0.41539 -0.11984 0.17459
 C316 C 0.84073 0.49504 0.28736
 C317 C 0.86052 0.52173 0.27835
 C318 C 0.85791 0.54279 0.30784
 C319 C 0.83464 0.53675 0.34780
 C320 C 0.81299 0.50969 0.36104
 C321 C 0.81670 0.48835 0.32903
 O322 O 0.84749 0.47821 0.25393
 C323 C 0.87196 0.49463 0.22354
 C324 C 0.88068 0.52146 0.23768
 C325 C 0.90572 0.54214 0.21307
 C326 C 0.92255 0.53556 0.17320
 C327 C 0.91535 0.50839 0.15475
 C328 C 0.88882 0.48742 0.18136
 H329 H 0.87363 0.56377 0.30032
 H330 H 0.83378 0.55378 0.36949
 H331 H 0.80143 0.46721 0.33634
 H332 H 0.91248 0.56320 0.22486
 H333 H 0.94177 0.55231 0.15608
 H334 H 0.88178 0.46620 0.17102
 C335 C 0.48947 0.34083 0.30188
 C336 C 0.51292 0.35168 0.26466
 C337 C 0.53140 0.34220 0.27264
 C338 C 0.52603 0.32111 0.31977
 C339 C 0.50202 0.30817 0.35996
 C340 C 0.48332 0.31875 0.34958
 O341 O 0.47497 0.35345 0.28706
 C342 C 0.48948 0.37248 0.23943
 C343 C 0.51279 0.37191 0.22398
 C344 C 0.53070 0.38940 0.17509
 C345 C 0.52492 0.40806 0.14086
 C346 C 0.50158 0.41077 0.15417
 C347 C 0.48343 0.39196 0.20568
 H348 H 0.54992 0.35103 0.24337
 H349 H 0.54097 0.31463 0.32444
 H350 H 0.46473 0.31037 0.37846
 H351 H 0.54890 0.38864 0.16281
 H352 H 0.53923 0.42072 0.10300
 H353 H 0.46514 0.39235 0.21896
 C354 C 0.65838 0.15020 0.29870
 C355 C 0.64516 0.16181 0.26723
 C356 C 0.65262 0.18904 0.28013
 C357 C 0.67404 0.20500 0.32628
 C358 C 0.68932 0.19498 0.36077
 C359 C 0.68081 0.16644 0.34540
 O360 O 0.64747 0.12360 0.27989
 C361 C 0.62714 0.11844 0.23558
 C362 C 0.62517 0.14139 0.22611
 C363 C 0.60580 0.14098 0.18176
 C364 C 0.58789 0.11668 0.14589
 C365 C 0.58799 0.09159 0.15275
 C366 C 0.60856 0.09306 0.19995
 H367 H 0.64196 0.19795 0.25539
 H368 H 0.67887 0.22581 0.33482
 H369 H 0.69101 0.15700 0.36977
 H370 H 0.60444 0.15918 0.17452
 H371 H 0.57333 0.11755 0.11251
 H372 H 0.61019 0.07508 0.20854
 C373 C 0.50258 0.15988 -0.28738
 C374 C 0.47577 0.14044 -0.27814
 C375 C 0.45494 0.14349 -0.30740
 C376 C 0.46134 0.16686 -0.34734
 C377 C 0.48854 0.18816 -0.36077
 C378 C 0.50963 0.18400 -0.32900
 O379 O 0.51917 0.15275 -0.25417
 C380 C 0.50248 0.12838 -0.22370
 C381 C 0.47572 0.12008 -0.23755
 C382 C 0.45480 0.09520 -0.21275
 C383 C 0.46108 0.07811 -0.17301
 C384 C 0.48816 0.08489 -0.15491
 C385 C 0.50937 0.11126 -0.18170
 H386 H 0.43387 0.12804 -0.29972
 H387 H 0.44448 0.16809 -0.36887
 H388 H 0.53085 0.19899 -0.33649
 H389 H 0.43379 0.08877 -0.22430
 H390 H 0.44416 0.05903 -0.15573
 H391 H 0.53054 0.11797 -0.17161
 C392 C 0.66082 0.51118 -0.30300
 C393 C 0.65143 0.48901 -0.26153
 C394 C 0.66195 0.47126 -0.26625
 C395 C 0.68256 0.47603 -0.31435
 C396 C 0.69411 0.49880 -0.35875
 C397 C 0.68250 0.51681 -0.35168
 O398 O 0.64731 0.52507 -0.29093
 C399 C 0.62923 0.51151 -0.24072
 C400 C 0.63129 0.48941 -0.22092
 C401 C 0.61508 0.47275 -0.16858
 C402 C 0.59617 0.47849 -0.13546
 C403 C 0.59173 0.50042 -0.15345
 C404 C 0.60936 0.51739 -0.20824
 H405 H 0.65424 0.45371 -0.23370
 H406 H 0.68984 0.46166 -0.31637
 H407 H 0.68975 0.53441 -0.38384
 H408 H 0.61710 0.45560 -0.15266
 H409 H 0.58476 0.46532 -0.09446
 H410 H 0.60774 0.53465 -0.22511
 C411 C 0.83735 0.34474 -0.28788
 C412 C 0.85630 0.33689 -0.27650
 C413 C 0.85299 0.31265 -0.30406
 C414 C 0.82981 0.29578 -0.34457
 C415 C 0.80895 0.30209 -0.35998
 C416 C 0.81336 0.32769 -0.32986
 O417 O 0.84481 0.36885 -0.25625
 C418 C 0.86888 0.37626 -0.22453
 C419 C 0.87662 0.35720 -0.23605
 C420 C 0.90102 0.36063 -0.20958
 C421 C 0.91827 0.38410 -0.17057
 C422 C 0.91219 0.40513 -0.15505
 C423 C 0.88624 0.40051 -0.18343
 H424 H 0.86810 0.30670 -0.29471
 H425 H 0.82836 0.27739 -0.36477
 H426 H 0.79872 0.33425 -0.33903
 H427 H 0.90695 0.34553 -0.21925
 H428 H 0.93697 0.38579 -0.15188
 H429 H 0.88007 0.41552 -0.17530
 C430 C 0.51209 -0.14815 -0.29999
 C431 C 0.49059 -0.16128 -0.25670
 C432 C 0.47368 -0.18969 -0.25969
 C433 C 0.47856 -0.20534 -0.30803
 C434 C 0.50063 -0.19379 -0.35450
 C435 C 0.51784 -0.16400 -0.34916
 O436 O 0.52515 -0.12066 -0.28918
 C437 C 0.51172 -0.11649 -0.23799
 C438 C 0.49051 -0.14092 -0.21641
 C439 C 0.47405 -0.14176 -0.16315
 C440 C 0.47908 -0.11720 -0.13079
 C441 C 0.50011 -0.09059 -0.15031
 C442 C 0.51690 -0.09084 -0.20612
 H443 H 0.45665 -0.19980 -0.22570
 H444 H 0.46473 -0.22713 -0.30879
 H445 H 0.53478 -0.15338 -0.38313
 H446 H 0.45757 -0.16114 -0.14604
 H447 H 0.46602 -0.11923 -0.08924
 H448 H 0.53347 -0.07173 -0.22426
 C449 C 0.33961 0.48762 -0.29929
 C450 C 0.34934 0.51027 -0.25941
 C451 C 0.33902 0.52814 -0.26549
 C452 C 0.31823 0.52296 -0.31339
 C453 C 0.30639 0.49969 -0.35620
 C454 C 0.31780 0.48160 -0.34775
 O455 O 0.35296 0.47368 -0.28608
 C456 C 0.37129 0.48772 -0.23676
 C457 C 0.36957 0.51018 -0.21864
 C458 C 0.38617 0.52744 -0.16760
 C459 C 0.40514 0.52191 -0.13404
 C460 C 0.40909 0.49953 -0.15023
 C461 C 0.39113 0.48200 -0.20377
 H462 H 0.34699 0.54606 -0.23417
 H463 H 0.31108 0.53741 -0.31653
 H464 H 0.31029 0.46363 -0.37869
 H465 H 0.38447 0.54493 -0.15317
 H466 H 0.41706 0.53567 -0.09441
 H467 H 0.39250 0.46445 -0.21932
 C468 C 1.15196 0.65834 -0.29556
 C469 C 1.16360 0.64505 -0.26461
 C470 C 1.19084 0.65260 -0.27766
 C471 C 1.20677 0.67420 -0.32342
 C472 C 1.19671 0.68956 -0.35737
 C473 C 1.16816 0.68095 -0.34185
 O474 O 1.12535 0.64732 -0.27673
 C475 C 1.12022 0.62684 -0.23295
 C476 C 1.14319 0.62487 -0.22381
 C477 C 1.14278 0.60533 -0.18001
 C478 C 1.11846 0.58724 -0.14438
 C479 C 1.09338 0.58736 -0.15101
 C480 C 1.09485 0.60811 -0.19759
 H481 H 1.19978 0.64189 -0.25336
 H482 H 1.22759 0.67910 -0.33212
 H483 H 1.15868 0.69119 -0.36584
 H484 H 1.16099 0.60396 -0.17302
 H485 H 1.11930 0.57256 -0.11141
 H486 H 1.07688 0.60975 -0.20590
 C487 C 0.84132 0.49549 -0.28977
 C488 C 0.86182 0.52207 -0.28397
 C489 C 0.85962 0.54303 -0.31545
 C490 C 0.83602 0.53698 -0.35412
 C491 C 0.81367 0.51002 -0.36418
 C492 C 0.81698 0.48879 -0.33019
 O493 O 0.84774 0.47876 -0.25470
 C494 C 0.87273 0.49511 -0.22658
 C495 C 0.88212 0.52180 -0.24377
 C496 C 0.90776 0.54235 -0.22189
 C497 C 0.92450 0.53578 -0.18160
 C498 C 0.91663 0.50877 -0.16000
 C499 C 0.88949 0.48795 -0.18387
 H500 H 0.87588 0.56392 -0.31042
 H501 H 0.83549 0.55393 -0.37746
 H502 H 0.80115 0.46771 -0.33501
 H503 H 0.91504 0.56330 -0.23605
 H504 H 0.94416 0.55243 -0.16655
 H505 H 0.88187 0.46684 -0.17088
 C506 C 0.48878 0.33899 -0.29944
 C507 C 0.51444 0.35375 -0.27280
 C508 C 0.53466 0.34727 -0.28899
 C509 C 0.52883 0.32525 -0.33348
 C510 C 0.50262 0.30814 -0.36278
 C511 C 0.48213 0.31571 -0.34391
 O512 O 0.47284 0.34936 -0.27851
 C513 C 0.48870 0.37088 -0.23768
 C514 C 0.51428 0.37407 -0.23237
 C515 C 0.53396 0.39455 -0.19143
 C516 C 0.52763 0.41234 -0.15482
 C517 C 0.50194 0.41135 -0.15804
 C518 C 0.48202 0.38956 -0.20171
 H519 H 0.55490 0.35921 -0.26819
 H520 H 0.54532 0.32143 -0.34450
 H521 H 0.46176 0.30424 -0.36419
 H522 H 0.55400 0.39676 -0.18702
 H523 H 0.54344 0.42747 -0.12349
 H524 H 0.46188 0.38698 -0.20707
 C525 C 0.66029 0.14984 -0.29724
 C526 C 0.64547 0.16060 -0.27020
 C527 C 0.65174 0.18721 -0.28609
 C528 C 0.67359 0.20350 -0.33077
 C529 C 0.69073 0.19459 -0.36102
 C530 C 0.68339 0.16654 -0.34236
 O531 O 0.65008 0.12355 -0.27607
 C532 C 0.62863 0.11783 -0.23481
 C533 C 0.62529 0.14013 -0.22956
 C534 C 0.60471 0.13924 -0.18884
 C535 C 0.58694 0.11512 -0.15221
 C536 C 0.58825 0.09057 -0.15481
 C537 C 0.61011 0.09252 -0.19845
 H538 H 0.63979 0.19542 -0.26486
 H539 H 0.67719 0.22376 -0.34131
 H540 H 0.69487 0.15775 -0.36318
 H541 H 0.60233 0.15698 -0.18488
 H542 H 0.57149 0.11568 -0.12164
 H543 H 0.61279 0.07501 -0.20364
 C544 C 1.15989 0.50087 -0.28843
 C545 C 1.14111 0.47410 -0.27600
 C546 C 1.14453 0.45318 -0.30328
 C547 C 1.16756 0.45941 -0.34452
 C548 C 1.18820 0.48657 -0.36152
 C549 C 1.18365 0.50777 -0.33153
 O550 O 1.15251 0.51757 -0.25658
 C551 C 1.12868 0.50098 -0.22373
 C552 C 1.12092 0.47416 -0.23477
 C553 C 1.09660 0.45330 -0.20727
 C554 C 1.07951 0.45968 -0.16770
 C555 C 1.08576 0.48684 -0.15225
 C556 C 1.11156 0.50800 -0.18187
 H557 H 1.12963 0.43213 -0.29303
 H558 H 1.16895 0.44235 -0.36412
 H559 H 1.19807 0.52897 -0.34143
 H560 H 1.09056 0.43223 -0.21667
 H561 H 1.06084 0.44280 -0.14844
 H562 H 1.11782 0.52922 -0.17408
 C563 C 0.51421 0.66392 -0.29624
 C564 C 0.48835 0.64838 -0.27127
 C565 C 0.46772 0.65398 -0.28896
 C566 C 0.47327 0.67589 -0.33336
 C567 C 0.49959 0.69386 -0.36127
 C568 C 0.52062 0.68722 -0.34071
 O569 O 0.53052 0.65414 -0.27390
 C570 C 0.51463 0.63225 -0.23394
 C571 C 0.48871 0.62825 -0.23059
 C572 C 0.46884 0.60726 -0.19113
 C573 C 0.47531 0.58972 -0.15391
 C574 C 0.50140 0.59154 -0.15492
 C575 C 0.52152 0.61386 -0.19723
 H576 H 0.44735 0.64142 -0.26944
 H577 H 0.45635 0.67892 -0.34539
 H578 H 0.54111 0.69931 -0.35980
 H579 H 0.44850 0.60440 -0.18847
 H580 H 0.45924 0.57403 -0.12413
 H581 H 0.54193 0.61700 -0.20107
 C582 C 0.33696 -0.15248 -0.29558
 C583 C 0.35334 -0.16219 -0.27276
 C584 C 0.34846 -0.18801 -0.29218
 C585 C 0.32644 -0.20457 -0.33613
 C586 C 0.30763 -0.19685 -0.36175
 C587 C 0.31352 -0.16962 -0.33941
 O588 O 0.34615 -0.12667 -0.27201
 C589 C 0.36850 -0.12023 -0.23343
 C590 C 0.37338 -0.14162 -0.23209
 C591 C 0.39498 -0.13998 -0.19414
 C592 C 0.41221 -0.11599 -0.15640
 C593 C 0.40946 -0.09227 -0.15556
 C594 C 0.38656 -0.09499 -0.19630
 H595 H 0.36166 -0.19535 -0.27441
 H596 H 0.32400 -0.22416 -0.34962
 H597 H 0.30077 -0.16169 -0.35676
 H598 H 0.39853 -0.15704 -0.19301
 H599 H 0.42836 -0.11592 -0.12774
 H600 H 0.38271 -0.07814 -0.19855
 C601 C 0.51275 -0.14779 0.30303
 C602 C 0.48840 -0.15989 0.26934
 C603 C 0.46943 -0.18757 0.27918
 C604 C 0.47511 -0.20353 0.32465
 C605 C 0.49988 -0.19313 0.36185
 C606 C 0.51919 -0.16404 0.34949
 O607 O 0.52764 -0.12079 0.28647
 C608 C 0.51242 -0.11593 0.24147
 C609 C 0.48826 -0.13945 0.22950
 C610 C 0.46929 -0.13953 0.18440
 C611 C 0.47487 -0.11515 0.15012
 C612 C 0.49925 -0.08945 0.15908
 C613 C 0.51843 -0.09042 0.20720
 H614 H 0.45024 -0.19686 0.25259
 H615 H 0.45963 -0.22470 0.33069
 H616 H 0.53838 -0.15420 0.37602
 H617 H 0.45032 -0.15819 0.17530
 H618 H 0.45944 -0.11655 0.11596
 H619 H 0.53749 -0.07202 0.21736
 C620 C 0.33952 0.48769 0.30041
 C621 C 0.35106 0.51171 0.26538
 C622 C 0.34205 0.53049 0.27544
 C623 C 0.32076 0.52485 0.32231
 C624 C 0.30710 0.50029 0.36045
 C625 C 0.31723 0.48128 0.34795
 O626 O 0.35173 0.47293 0.28386
 C627 C 0.37121 0.48786 0.23737
 C628 C 0.37133 0.51171 0.22434
 C629 C 0.38949 0.53018 0.17715
 C630 C 0.40806 0.52443 0.14218
 C631 C 0.41000 0.50047 0.15276
 C632 C 0.39055 0.48178 0.20269
 H633 H 0.35139 0.54945 0.24792
 H634 H 0.31472 0.54006 0.32846
 H635 H 0.30834 0.46225 0.37508
 H636 H 0.38936 0.54886 0.16688
 H637 H 0.42139 0.53934 0.10613
 H638 H 0.39036 0.46304 0.21414
 C639 C 1.15011 0.65858 0.30051
 C640 C 1.16249 0.64705 0.26502
 C641 C 1.19028 0.65610 0.27417
 C642 C 1.20605 0.67738 0.32073
 C643 C 1.19528 0.69095 0.35981
 C644 C 1.16610 0.68082 0.34816
 O645 O 1.12309 0.64632 0.28433
 C646 C 1.11849 0.62684 0.23778
 C647 C 1.14217 0.62671 0.22440
 C648 C 1.14242 0.60839 0.17764
 C649 C 1.11803 0.58963 0.14325
 C650 C 1.09223 0.58791 0.15369
 C651 C 1.09305 0.60748 0.20333
 H652 H 1.19982 0.64679 0.24617
 H653 H 1.22732 0.68339 0.32611
 H654 H 1.15603 0.68960 0.37602
 H655 H 1.16120 0.60846 0.16747
 H656 H 1.11946 0.57596 0.10793
 H657 H 1.07452 0.60770 0.21477
 C658 C 0.50301 0.16042 0.28793
 C659 C 0.47620 0.14147 0.27648
 C660 C 0.45532 0.14471 0.30484
 C661 C 0.46167 0.16775 0.34611
 C662 C 0.48885 0.18857 0.36174
 C663 C 0.50998 0.18422 0.33081
 O664 O 0.51965 0.15315 0.25542
 C665 C 0.50299 0.12921 0.22309
 C666 C 0.47619 0.12132 0.23507
 C667 C 0.45528 0.09694 0.20809
 C668 C 0.46158 0.07990 0.16815
 C669 C 0.48870 0.08623 0.15195
 C670 C 0.50993 0.11211 0.18097
 H671 H 0.43425 0.12964 0.29547
 H672 H 0.44476 0.16912 0.36680
 H673 H 0.53120 0.19883 0.33993
 H674 H 0.43423 0.09082 0.21816
 H675 H 0.44463 0.06118 0.14931
 H676 H 0.53113 0.11843 0.17260
 C677 C 0.66104 0.51124 0.30089
 C678 C 0.64997 0.48781 0.26356
 C679 C 0.65926 0.46916 0.27130
 C680 C 0.68036 0.47431 0.31824
 C681 C 0.69354 0.49828 0.35856
 C682 C 0.68315 0.51718 0.34843
 O683 O 0.64856 0.52593 0.28633
 C684 C 0.62942 0.51156 0.23876
 C685 C 0.62977 0.48815 0.22309
 C686 C 0.61213 0.47036 0.17420
 C687 C 0.59356 0.47634 0.14023
 C688 C 0.59104 0.49979 0.15373
 C689 C 0.61000 0.51782 0.20525
 H690 H 0.65026 0.45065 0.24196
 H691 H 0.68666 0.45923 0.32267
 H692 H 0.69170 0.53575 0.37739
 H693 H 0.61272 0.45208 0.16172
 H694 H 0.58080 0.46210 0.10236
 H695 H 0.60979 0.53619 0.21872
 C696 C 0.84862 0.33819 0.29952
 C697 C 0.83674 0.35080 0.26641
 C698 C 0.80923 0.34260 0.27745
 C699 C 0.79326 0.32112 0.32344
 C700 C 0.80346 0.30641 0.35998
 C701 C 0.83236 0.31566 0.34639
 O702 O 0.87548 0.34981 0.28209
 C703 C 0.88048 0.36995 0.23713
 C704 C 0.85721 0.37113 0.22592
 C705 C 0.85743 0.39024 0.18084
 C706 C 0.88185 0.40867 0.14594
 C707 C 0.90726 0.40937 0.15437
 C708 C 0.90597 0.38903 0.20233
 H709 H 0.80008 0.35275 0.25142
 H710 H 0.77224 0.31584 0.33042
 H711 H 0.84207 0.30606 0.37237
 H712 H 0.83896 0.39099 0.17228
 H713 H 0.88079 0.42293 0.11188
 H714 H 0.92417 0.38795 0.21208
   
