data_POSCAR
  _audit_creation_date              2014-09-24
  _audit_creation_method            'ToBaCCo'
  _symmetry_space_group_name_H-M    'P1'
  _symmetry_Int_Tables_number       1
  _symmetry_cell_setting            triclinic
  loop_
  _symmetry_equiv_pos_as_xyz
 x,y,z
_cell_length_a 49.1032
_cell_length_b 48.8843
_cell_length_c 17.2225
_cell_angle_alpha 89.932800
_cell_angle_beta 89.542300
_cell_angle_gamma 119.877400
loop_
  _atom_site_label
  _atom_site_type_symbol
  _atom_site_fract_x
  _atom_site_fract_y
  _atom_site_fract_z
C1 C 0.20010 0.46119 0.44821
 C2 C 0.20127 0.46232 0.53098
 C3 C 0.22823 0.46601 0.56809
 C4 C 0.25549 0.47193 0.52680
 C5 C 0.25479 0.47205 0.44463
 C6 C 0.22719 0.46610 0.40659
 H7 H 0.22705 0.46453 0.34399
 H8 H 0.22883 0.46761 0.63075
 C9 C 0.55939 -0.24907 0.46071
 C10 C 0.56154 -0.25139 0.54226
 C11 C 0.56358 -0.22724 0.58999
 C12 C 0.56124 -0.20170 0.55987
 C13 C 0.55997 -0.19880 0.47784
 C14 C 0.55959 -0.22226 0.42994
 H15 H 0.56080 -0.21863 0.36781
 H16 H 0.56401 -0.22996 0.65242
 C17 C 1.26035 0.79185 0.48202
 C18 C 1.25535 0.78526 0.56296
 C19 C 1.22771 0.75841 0.58863
 C20 C 1.20548 0.73711 0.53623
 C21 C 1.21119 0.74260 0.45571
 C22 C 1.23791 0.77010 0.43003
 H23 H 1.24218 0.77307 0.36796
 H24 H 1.22404 0.75338 0.65040
 C25 C 0.79101 0.54211 0.47417
 C26 C 0.78902 0.54300 0.55612
 C27 C 0.76609 0.54887 0.58934
 C28 C 0.74451 0.55288 0.54362
 C29 C 0.74681 0.55168 0.46150
 C30 C 0.77060 0.54729 0.42830
 H31 H 0.77279 0.54699 0.36568
 H32 H 0.76303 0.54702 0.65146
 C33 C 0.45761 0.25209 0.46720
 C34 C 0.46312 0.25432 0.54842
 C35 C 0.46325 0.22911 0.58721
 C36 C 0.45666 0.20096 0.54960
 C37 C 0.45069 0.19864 0.46873
 C38 C 0.45117 0.22406 0.42886
 H39 H 0.44749 0.22228 0.36675
 H40 H 0.46963 0.23231 0.64775
 C41 C 0.75807 0.18989 0.45432
 C42 C 0.75718 0.19229 0.53589
 C43 C 0.78235 0.21783 0.57375
 C44 C 0.80804 0.24187 0.53143
 C45 C 0.80859 0.23873 0.44940
 C46 C 0.78437 0.21233 0.41297
 H47 H 0.78569 0.20971 0.35079
 H48 H 0.78021 0.22000 0.63553
 O49 O 0.96798 0.52085 -0.12964
 O50 O 1.01116 0.54081 0.12675
 O51 O 0.93685 0.50322 0.04142
 O52 O 1.04277 0.56134 -0.04459
 O53 O 0.95894 0.50146 0.14659
 O54 O 1.02147 0.53864 -0.15159
 O55 O 1.05375 0.54698 0.08124
 O56 O 0.92782 0.48068 -0.08726
 C57 C 0.93945 0.50687 -0.11935
 C58 C 1.03975 0.55751 0.12077
 C59 C 0.94241 0.51024 0.11059
 C60 C 1.03726 0.56352 -0.11351
 O61 O 1.00876 0.47662 -0.14332
 O62 O 0.97762 0.45624 0.12653
 O63 O 0.93876 0.43574 -0.03399
 O64 O 1.04766 0.49386 0.01842
 O65 O 1.03028 0.49580 0.13152
 O66 O 0.95474 0.45815 -0.14518
 O67 O 1.05121 0.51617 -0.10906
 O68 O 0.93378 0.45062 0.09694
 Co69 Co 0.98845 0.49856 -0.12971
 Co70 Co 0.99417 0.49853 0.12023
 Co71 Co 0.94005 0.47069 0.00344
 Co72 Co 1.04285 0.52634 -0.01250
 O73 O 0.99140 0.49850 -0.00465
 C74 C 1.03757 0.49102 -0.14567
 C75 C 0.94903 0.43915 0.12525
 C76 C 0.94152 0.43335 -0.10465
 C77 C 1.04518 0.48705 0.08813
 O78 O 0.46463 0.45209 -0.11174
 O79 O 0.45584 0.48950 0.14075
 O80 O 0.49646 0.44053 0.06447
 O81 O 0.44579 0.52908 -0.06466
 O82 O 0.49301 0.46905 0.15932
 O83 O 0.44659 0.48834 -0.11001
 O84 O 0.43486 0.48418 0.02700
 O85 O 0.50435 0.44764 -0.08129
 C86 C 0.47827 0.43667 -0.11325
 C87 C 0.43165 0.47812 0.09824
 C88 C 0.48974 0.44320 0.13377
 C89 C 0.43681 0.50766 -0.11766
 O90 O 0.50627 0.53698 -0.14049
 O91 O 0.54147 0.52803 0.13105
 O92 O 0.55459 0.50284 -0.05866
 O93 O 0.46466 0.53993 0.07705
 O94 O 0.50857 0.54853 0.11300
 O95 O 0.52358 0.49826 -0.15322
 O96 O 0.50419 0.55705 -0.03211
 O97 O 0.54892 0.49172 0.08366
 Co98 Co 0.48638 0.49454 -0.11733
 Co99 Co 0.49908 0.50787 0.12551
 Co100 Co 0.52322 0.47335 0.00179
 Co101 Co 0.47045 0.51973 -0.00538
 O102 O 0.49672 0.49864 0.00527
 C103 C 0.51437 0.56093 -0.09950
 C104 C 0.55824 0.51598 0.12320
 C105 C 0.55075 0.50735 -0.12797
 C106 C 0.48812 0.55626 0.11628
 O107 O 0.54811 0.03807 -0.13193
 O108 O 0.50134 -0.04003 0.15046
 O109 O 0.54624 0.05707 0.10666
 O110 O 0.49595 -0.05964 -0.09068
 O111 O 0.54065 0.01370 0.14537
 O112 O 0.53473 -0.01535 -0.12239
 O113 O 0.51003 -0.05617 0.04296
 O114 O 0.56579 0.05357 -0.01839
 C115 C 0.57111 0.05176 -0.08763
 C116 C 0.51276 -0.05428 0.11414
 C117 C 0.55727 0.04251 0.14133
 C118 C 0.52263 -0.04422 -0.12052
 O119 O 0.47305 -0.03346 -0.15086
 O120 O 0.49447 0.03092 0.14911
 O121 O 0.51998 0.06114 -0.08434
 O122 O 0.45343 -0.06431 0.08436
 O123 O 0.45664 -0.02213 0.12608
 O124 O 0.48470 0.01889 -0.13315
 O125 O 0.44481 -0.05544 -0.05005
 O126 O 0.49385 0.05066 0.03911
 Co127 Co 0.50959 0.00178 -0.12130
 Co128 Co 0.49885 -0.00405 0.12951
 Co129 Co 0.52872 0.04992 0.01004
 Co130 Co 0.47880 -0.05311 -0.00259
 O131 O 0.50397 -0.00140 0.00392
 C132 C 0.44644 -0.04961 -0.12052
 C133 C 0.48589 0.04644 0.10806
 C134 C 0.49583 0.04735 -0.12409
 C135 C 0.44099 -0.05087 0.11875
 C136 C 1.17197 0.45318 0.40895
 C137 C 1.17052 0.46182 0.33218
 C138 C 1.14212 0.46038 0.29829
 C139 C 1.14157 0.46460 0.21789
 C140 C 1.11726 0.46733 0.18410
 C141 C 1.09272 0.46583 0.23022
 C142 C 1.09287 0.46089 0.31042
 C143 C 1.11723 0.45821 0.34426
 C144 C 1.06840 0.47218 0.19830
 C145 C 1.06323 0.47299 0.11905
 H146 H 1.19157 0.47310 0.29671
 H147 H 1.16059 0.46679 0.18119
 H148 H 1.11877 0.47197 0.12244
 H149 H 1.07453 0.46004 0.34750
 H150 H 1.11694 0.45587 0.40665
 H151 H 1.05529 0.47830 0.23879
 H152 H 1.15025 0.44104 0.44151
 H153 H 1.07462 0.46544 0.07724
 C154 C 0.55800 0.72714 0.41170
 C155 C 0.54771 0.72231 0.33478
 C156 C 0.54292 0.69421 0.29147
 C157 C 0.51789 0.67985 0.23950
 C158 C 0.51104 0.65164 0.20310
 C159 C 0.52930 0.63738 0.21798
 C160 C 0.55538 0.65272 0.26662
 C161 C 0.56218 0.68087 0.30307
 C162 C 0.52235 0.60701 0.18309
 C163 C 0.49311 0.58529 0.15353
 H164 H 0.53845 0.73621 0.30953
 H165 H 0.50308 0.69003 0.22864
 H166 H 0.49154 0.64128 0.16343
 H167 H 0.57024 0.64261 0.27755
 H168 H 0.58241 0.69203 0.34050
 H169 H 0.54089 0.60107 0.18264
 H170 H 0.56310 0.70985 0.43624
 H171 H 0.47362 0.58969 0.15566
 C172 C 0.28836 -0.18268 0.45200
 C173 C 0.29012 -0.16994 0.37802
 C174 C 0.31983 -0.14929 0.33647
 C175 C 0.31995 -0.12951 0.27721
 C176 C 0.34659 -0.11231 0.23057
 C177 C 0.37347 -0.11499 0.24175
 C178 C 0.37338 -0.13475 0.30101
 C179 C 0.34689 -0.15159 0.34852
 C180 C 0.40140 -0.09829 0.19099
 C181 C 0.41082 -0.06860 0.15957
 H182 H 0.26864 -0.17525 0.34856
 H183 H 0.29915 -0.12783 0.26605
 H184 H 0.34571 -0.09780 0.18424
 H185 H 0.39381 -0.13731 0.31020
 H186 H 0.34720 -0.16732 0.39233
 H187 H 0.41664 -0.10829 0.18411
 H188 H 0.30930 -0.17216 0.48705
 H189 H 0.39801 -0.05651 0.17383
 C190 C 0.81334 0.53441 0.43517
 C191 C 0.83477 0.55404 0.37885
 C192 C 0.85865 0.54774 0.34300
 C193 C 0.87155 0.56119 0.27041
 C194 C 0.89347 0.55504 0.23386
 C195 C 0.90301 0.53528 0.26950
 C196 C 0.89129 0.52312 0.34378
 C197 C 0.86933 0.52922 0.38023
 C198 C 0.92439 0.52627 0.23040
 C199 C 0.92638 0.52503 0.14980
 H200 H 0.83362 0.57453 0.35939
 H201 H 0.86429 0.57614 0.24131
 H202 H 0.90287 0.56587 0.17794
 H203 H 0.89867 0.50831 0.37310
 H204 H 0.86105 0.51954 0.43769
 H205 H 0.93609 0.51692 0.26569
 H206 H 0.81297 0.51297 0.45252
 H207 H 0.91300 0.53206 0.11355
 C208 C 0.46359 0.28014 0.42028
 C209 C 0.44641 0.27847 0.35441
 C210 C 0.45277 0.30663 0.30776
 C211 C 0.44512 0.30291 0.22873
 C212 C 0.45152 0.32901 0.18243
 C213 C 0.46509 0.35936 0.21439
 C214 C 0.47213 0.36307 0.29407
 C215 C 0.46597 0.33696 0.34029
 C216 C 0.47317 0.38657 0.16204
 C217 C 0.47829 0.41595 0.18714
 H218 H 0.42825 0.25561 0.33461
 H219 H 0.43474 0.27980 0.20235
 H220 H 0.44596 0.32548 0.12122
 H221 H 0.48308 0.38610 0.32071
 H222 H 0.47140 0.34066 0.40145
 H223 H 0.47510 0.38319 0.10048
 H224 H 0.48249 0.30284 0.43838
 H225 H 0.47440 0.41942 0.24734
 C226 C 0.73125 0.16471 0.41104
 C227 C 0.72138 0.17140 0.34116
 C228 C 0.69240 0.14932 0.29929
 C229 C 0.67341 0.11736 0.32022
 C230 C 0.64553 0.09812 0.28050
 C231 C 0.63622 0.11039 0.21867
 C232 C 0.65547 0.14209 0.19723
 C233 C 0.68323 0.16126 0.23681
 C234 C 0.60624 0.09169 0.17702
 C235 C 0.58738 0.05897 0.18201
 H236 H 0.73452 0.19524 0.31840
 H237 H 0.67963 0.10696 0.36728
 H238 H 0.63121 0.07397 0.29981
 H239 H 0.64889 0.15220 0.14996
 H240 H 0.69738 0.18574 0.21916
 H241 H 0.59870 0.10448 0.13969
 H242 H 0.71771 0.14186 0.43833
 H243 H 0.59461 0.04493 0.21516
 C244 C 0.45850 0.17674 -0.40942
 C245 C 0.45816 0.17433 -0.32813
 C246 C 0.46621 0.15305 -0.28563
 C247 C 0.47832 0.16159 -0.21047
 C248 C 0.48733 0.14297 -0.16871
 C249 C 0.48380 0.11504 -0.20053
 C250 C 0.47119 0.10610 -0.27540
 C251 C 0.46240 0.12490 -0.31754
 C252 C 0.49473 0.09663 -0.15559
 C253 C 0.48295 0.06443 -0.16597
 H254 H 0.45309 0.18942 -0.29244
 H255 H 0.48141 0.18313 -0.18450
 H256 H 0.49710 0.15041 -0.11132
 H257 H 0.46871 0.08502 -0.30241
 H258 H 0.45249 0.11712 -0.37452
 H259 H 0.51218 0.10875 -0.11121
 H260 H 0.46115 0.15943 -0.44235
 H261 H 0.46375 0.05123 -0.20538
 C262 C 0.71935 0.55481 -0.42081
 C263 C 0.71820 0.56136 -0.34193
 C264 C 0.68940 0.55615 -0.30030
 C265 C 0.69243 0.56828 -0.22503
 C266 C 0.66590 0.56116 -0.18002
 C267 C 0.63566 0.54191 -0.20931
 C268 C 0.63247 0.53021 -0.28530
 C269 C 0.65905 0.53717 -0.33026
 C270 C 0.60832 0.53241 -0.15681
 C271 C 0.57760 0.52065 -0.18243
 H272 H 0.73941 0.57102 -0.30800
 H273 H 0.71545 0.58270 -0.20008
 H274 H 0.66902 0.57026 -0.12146
 H275 H 0.60958 0.51449 -0.30911
 H276 H 0.65552 0.52648 -0.38689
 H277 H 0.61259 0.53447 -0.09486
 H278 H 0.69964 0.55091 -0.45588
 H279 H 0.57287 0.52069 -0.24366
 C280 C 0.83134 0.26970 -0.43226
 C281 C 0.83506 0.27508 -0.35214
 C282 C 0.85812 0.30626 -0.31989
 C283 C 0.87086 0.30775 -0.24637
 C284 C 0.89197 0.33685 -0.21356
 C285 C 0.90034 0.36525 -0.25317
 C286 C 0.88784 0.36370 -0.32706
 C287 C 0.86681 0.33462 -0.35991
 C288 C 0.92119 0.39677 -0.21897
 C289 C 0.92583 0.40170 -0.13925
 H290 H 0.82235 0.25600 -0.31126
 H291 H 0.86459 0.28628 -0.21437
 H292 H 0.90167 0.33682 -0.15748
 H293 H 0.89375 0.38514 -0.35878
 H294 H 0.85681 0.33457 -0.41568
 H295 H 0.93076 0.41717 -0.25715
 H296 H 0.84805 0.28880 -0.46858
 H297 H 0.91497 0.38194 -0.09938
 C298 C 0.55904 -0.18151 -0.38508
 C299 C 0.54408 -0.16391 -0.39674
 C300 C 0.54109 -0.14486 -0.33476
 C301 C 0.54303 -0.11613 -0.35439
 C302 C 0.53870 -0.09826 -0.29770
 C303 C 0.53174 -0.10922 -0.22056
 C304 C 0.52943 -0.13814 -0.20108
 C305 C 0.53436 -0.15575 -0.25757
 C306 C 0.52392 -0.09230 -0.16179
 C307 C 0.53693 -0.05969 -0.16366
 H308 H 0.53274 -0.16471 -0.45070
 H309 H 0.54769 -0.10763 -0.41384
 H310 H 0.53960 -0.07653 -0.31501
 H311 H 0.52347 -0.14726 -0.14229
 H312 H 0.53174 -0.17835 -0.24138
 H313 H 0.50643 -0.10604 -0.11785
 H314 H 0.56687 -0.18191 -0.32663
 H315 H 0.55659 -0.04542 -0.20204
 C316 C 0.28329 0.47915 -0.43301
 C317 C 0.28422 0.47327 -0.35388
 C318 C 0.31389 0.48565 -0.31137
 C319 C 0.31576 0.46773 -0.25036
 C320 C 0.34332 0.47907 -0.20798
 C321 C 0.36926 0.50885 -0.22493
 C322 C 0.36709 0.52737 -0.28400
 C323 C 0.33966 0.51571 -0.32767
 C324 C 0.39864 0.52021 -0.18176
 C325 C 0.41020 0.49991 -0.16804
 H326 H 0.26293 0.45735 -0.32249
 H327 H 0.29597 0.44477 -0.23606
 H328 H 0.34431 0.46465 -0.16150
 H329 H 0.38680 0.55051 -0.29728
 H330 H 0.33841 0.53036 -0.37312
 H331 H 0.41164 0.54457 -0.16324
 H332 H 0.30542 0.48944 -0.46416
 H333 H 0.39875 0.47676 -0.19441
 C334 C 1.17819 0.70800 -0.43341
 C335 C 1.15940 0.70892 -0.37338
 C336 C 1.13151 0.68065 -0.34101
 C337 C 1.11931 0.68320 -0.26915
 C338 C 1.09411 0.65684 -0.23420
 C339 C 1.08061 0.62722 -0.27048
 C340 C 1.09160 0.62505 -0.34438
 C341 C 1.11676 0.65143 -0.37946
 C342 C 1.05638 0.59794 -0.23185
 C343 C 1.05333 0.59464 -0.15126
 H344 H 1.16599 0.73155 -0.34746
 H345 H 1.12973 0.70558 -0.23912
 H346 H 1.08554 0.65985 -0.17868
 H347 H 1.08126 0.60263 -0.37421
 H348 H 1.12443 0.64860 -0.43633
 H349 H 1.04382 0.57703 -0.26719
 H350 H 1.17259 0.68598 -0.46084
 H351 H 1.06688 0.61470 -0.11426
 C352 C 0.80866 0.53665 -0.39666
 C353 C 0.81332 0.54282 -0.31718
 C354 C 0.83149 0.53177 -0.27267
 C355 C 0.85499 0.55223 -0.22192
 C356 C 0.87351 0.54228 -0.18327
 C357 C 0.86809 0.51144 -0.19348
 C358 C 0.84358 0.49058 -0.24131
 C359 C 0.82567 0.50076 -0.28142
 C360 C 0.88763 0.50042 -0.15541
 C361 C 0.92005 0.51945 -0.14957
 H362 H 0.80617 0.55792 -0.28843
 H363 H 0.85955 0.57613 -0.21396
 H364 H 0.89190 0.55856 -0.14524
 H365 H 0.83887 0.46663 -0.24926
 H366 H 0.80722 0.48443 -0.31929
 H367 H 0.87675 0.47569 -0.13950
 H368 H 0.82205 0.52692 -0.42279
 H369 H 0.93161 0.54337 -0.17196
 C370 C 0.46960 0.28067 -0.40552
 C371 C 0.45922 0.30216 -0.41892
 C372 C 0.46626 0.32752 -0.36245
 C373 C 0.44370 0.33628 -0.34544
 C374 C 0.44918 0.35847 -0.28750
 C375 C 0.47761 0.37252 -0.24617
 C376 C 0.50049 0.36440 -0.26544
 C377 C 0.49499 0.34231 -0.32305
 C378 C 0.48518 0.39633 -0.18457
 C379 C 0.46586 0.40828 -0.16146
 H380 H 0.44247 0.29798 -0.46424
 H381 H 0.42149 0.32533 -0.37558
 H382 H 0.43097 0.36416 -0.27557
 H383 H 0.52279 0.37519 -0.23569
 H384 H 0.51325 0.33673 -0.33656
 H385 H 0.50831 0.40650 -0.15907
 H386 H 0.48038 0.28243 -0.34963
 H387 H 0.44268 0.39927 -0.18524
 C388 C 0.72836 0.17010 -0.42034
 C389 C 0.72830 0.15926 -0.34535
 C390 C 0.69880 0.13559 -0.30667
 C391 C 0.69583 0.13607 -0.22575
 C392 C 0.66753 0.11504 -0.18849
 C393 C 0.64172 0.09272 -0.23170
 C394 C 0.64528 0.09152 -0.31233
 C395 C 0.67346 0.11257 -0.34943
 C396 C 0.61034 0.07146 -0.19672
 C397 C 0.60357 0.06902 -0.11734
 H398 H 0.75005 0.16876 -0.31353
 H399 H 0.71515 0.15338 -0.19153
 H400 H 0.66604 0.11709 -0.12640
 H401 H 0.62600 0.07445 -0.34708
 H402 H 0.67530 0.11066 -0.41162
 H403 H 0.59113 0.05795 -0.23606
 H404 H 0.70614 0.16153 -0.44937
 H405 H 0.62197 0.08115 -0.07545
 C406 C 1.17820 0.46229 -0.41918
 C407 C 1.15954 0.47572 -0.43624
 C408 C 1.14055 0.47993 -0.37547
 C409 C 1.11096 0.47577 -0.39381
 C410 C 1.09300 0.48035 -0.33730
 C411 C 1.10472 0.48984 -0.26187
 C412 C 1.13463 0.49475 -0.24424
 C413 C 1.15232 0.48962 -0.30023
 C414 C 1.08717 0.49669 -0.20222
 C415 C 1.05449 0.48100 -0.19862
 H416 H 1.16005 0.48537 -0.49305
 H417 H 1.10173 0.46888 -0.45184
 H418 H 1.07041 0.47734 -0.35338
 H419 H 1.14435 0.50262 -0.18698
 H420 H 1.17554 0.49410 -0.28516
 H421 H 1.10047 0.51435 -0.15894
 H422 H 1.17802 0.45556 -0.35907
 H423 H 1.04087 0.46143 -0.23709
 C424 C 0.55689 0.71901 -0.42114
 C425 C 0.57322 0.71814 -0.35603
 C426 C 0.56725 0.68801 -0.32010
 C427 C 0.57307 0.68717 -0.24077
 C428 C 0.56563 0.65865 -0.20416
 C429 C 0.55223 0.63032 -0.24652
 C430 C 0.54823 0.63157 -0.32677
 C431 C 0.55566 0.66003 -0.36327
 C432 C 0.54089 0.59897 -0.20954
 C433 C 0.53372 0.59311 -0.13053
 H434 H 0.58981 0.74006 -0.32857
 H435 H 0.58266 0.70852 -0.20658
 H436 H 0.57025 0.65906 -0.14282
 H437 H 0.53854 0.61028 -0.36119
 H438 H 0.55221 0.65991 -0.42525
 H439 H 0.53427 0.57896 -0.24738
 H440 H 0.53919 0.69704 -0.44601
 H441 H 0.53887 0.61229 -0.09130
 C442 C 0.27856 -0.19581 -0.37666
 C443 C 0.29261 -0.16302 -0.37108
 C444 C 0.31629 -0.14416 -0.31133
 C445 C 0.33728 -0.11208 -0.32602
 C446 C 0.36080 -0.09380 -0.27286
 C447 C 0.36382 -0.10725 -0.20338
 C448 C 0.34188 -0.13892 -0.18698
 C449 C 0.31842 -0.15723 -0.24024
 C450 C 0.38972 -0.08926 -0.14781
 C451 C 0.41867 -0.06390 -0.17089
 H452 H 0.28721 -0.15049 -0.41469
 H453 H 0.33583 -0.10122 -0.37952
 H454 H 0.37646 -0.06918 -0.28649
 H455 H 0.34328 -0.14975 -0.13336
 H456 H 0.30199 -0.18148 -0.22499
 H457 H 0.38717 -0.09830 -0.08911
 H458 H 0.28318 -0.20884 -0.33298
 H459 H 0.42245 -0.05617 -0.23085
 C460 C 0.56169 -0.17065 0.43972
 C461 C 0.54271 -0.17369 0.37645
 C462 C 0.54045 -0.14736 0.34026
 C463 C 0.52847 -0.15153 0.26489
 C464 C 0.52391 -0.12843 0.22957
 C465 C 0.53110 -0.10047 0.26904
 C466 C 0.54278 -0.09634 0.34489
 C467 C 0.54766 -0.11944 0.38012
 C468 C 0.52473 -0.07653 0.23355
 C469 C 0.52531 -0.07239 0.15323
 H470 H 0.52815 -0.19697 0.35230
 H471 H 0.52222 -0.17301 0.23339
 H472 H 0.51377 -0.13308 0.17223
 H473 H 0.54799 -0.07528 0.37703
 H474 H 0.55611 -0.11576 0.43910
 H475 H 0.51888 -0.06240 0.27115
 H476 H 0.57676 -0.14766 0.46450
 H477 H 0.53359 -0.08465 0.11616
 C478 C 0.28262 0.47775 0.39776
 C479 C 0.28198 0.45525 0.34672
 C480 C 0.31093 0.45761 0.31235
 C481 C 0.30918 0.44183 0.24285
 C482 C 0.33619 0.44356 0.20964
 C483 C 0.36551 0.46093 0.24601
 C484 C 0.36693 0.47568 0.31694
 C485 C 0.34007 0.47412 0.34973
 C486 C 0.39531 0.46528 0.21179
 C487 C 0.39984 0.46199 0.13285
 H488 H 0.25956 0.43483 0.33297
 H489 H 0.28689 0.42837 0.21377
 H490 H 0.33386 0.43116 0.15600
 H491 H 0.38907 0.48891 0.34680
 H492 H 0.34223 0.48548 0.40500
 H493 H 0.41584 0.47595 0.24850
 H494 H 0.30459 0.49908 0.40863
 H495 H 0.38020 0.45269 0.09356
 C496 C 1.19233 0.71911 0.39570
 C497 C 1.15957 0.70188 0.39519
 C498 C 1.14187 0.67717 0.33668
 C499 C 1.11072 0.66877 0.32040
 C500 C 1.09330 0.64513 0.26642
 C501 C 1.10664 0.62901 0.22842
 C502 C 1.13781 0.63751 0.24475
 C503 C 1.15517 0.66111 0.29853
 C504 C 1.08903 0.60297 0.17275
 C505 C 1.05635 0.58638 0.16721
 H506 H 1.14650 0.70732 0.43739
 H507 H 1.09989 0.68071 0.34915
 H508 H 1.06961 0.63988 0.25461
 H509 H 1.14864 0.62541 0.21683
 H510 H 1.17875 0.66611 0.31119
 H511 H 1.10227 0.59483 0.13881
 H512 H 1.20515 0.71705 0.34675
 H513 H 1.04215 0.59287 0.20236
 C514 C 0.44393 0.16971 0.42551
 C515 C 0.45916 0.17098 0.35578
 C516 C 0.45894 0.14318 0.32065
 C517 C 0.46719 0.14455 0.24206
 C518 C 0.47007 0.12013 0.20824
 C519 C 0.46483 0.09368 0.25259
 C520 C 0.45646 0.09223 0.33118
 C521 C 0.45344 0.11664 0.36496
 C522 C 0.47075 0.06892 0.22052
 C523 C 0.47118 0.06369 0.14107
 H524 H 0.47324 0.19364 0.32741
 H525 H 0.47211 0.16496 0.20701
 H526 H 0.47769 0.12285 0.14827
 H527 H 0.45287 0.07245 0.36699
 H528 H 0.44810 0.11511 0.42638
 H529 H 0.47666 0.05560 0.26058
 H530 H 0.42888 0.14713 0.45300
 H531 H 0.46354 0.07537 0.10054
 C532 C 0.72444 0.55454 0.40914
 C533 C 0.71207 0.53512 0.34440
 C534 C 0.68706 0.53392 0.29463
 C535 C 0.66695 0.54509 0.31910
 C536 C 0.64178 0.54069 0.27279
 C537 C 0.63626 0.52504 0.20115
 C538 C 0.65674 0.51452 0.17638
 C539 C 0.68180 0.51888 0.22256
 C540 C 0.60820 0.51677 0.15370
 C541 C 0.58837 0.52934 0.16399
 H542 H 0.72045 0.51896 0.33047
 H543 H 0.66961 0.55602 0.37514
 H544 H 0.62613 0.54845 0.29507
 H545 H 0.65295 0.50222 0.12174
 H546 H 0.69679 0.50988 0.20250
 H547 H 0.60233 0.49902 0.10936
 H548 H 0.71681 0.57117 0.42385
 H549 H 0.59437 0.54860 0.20367
 C550 C 0.83313 0.26350 0.39909
 C551 C 0.82462 0.27463 0.33423
 C552 C 0.84643 0.30247 0.28726
 C553 C 0.83526 0.30834 0.21811
 C554 C 0.85375 0.33578 0.17516
 C555 C 0.88390 0.35790 0.20019
 C556 C 0.89544 0.35187 0.26876
 C557 C 0.87688 0.32441 0.31193
 C558 C 0.90144 0.38791 0.15679
 C559 C 0.93372 0.40803 0.16267
 H560 H 0.79999 0.26310 0.31902
 H561 H 0.81183 0.29195 0.19803
 H562 H 0.84425 0.34000 0.12285
 H563 H 0.91818 0.36880 0.29123
 H564 H 0.88617 0.32131 0.36579
 H565 H 0.88823 0.39455 0.11862
 H566 H 0.85740 0.27394 0.41599
 H567 H 0.94813 0.40109 0.19496
   
