data_POSCAR
  _audit_creation_date              2014-09-24
  _audit_creation_method            'ToBaCCo'
  _symmetry_space_group_name_H-M    'P1'
  _symmetry_Int_Tables_number       1
  _symmetry_cell_setting            triclinic
  loop_
  _symmetry_equiv_pos_as_xyz
 x,y,z
_cell_length_a 39.1698
_cell_length_b 39.6242
_cell_length_c 44.1563
_cell_angle_alpha 89.378900
_cell_angle_beta 90.414000
_cell_angle_gamma 120.439600
loop_
  _atom_site_label
  _atom_site_type_symbol
  _atom_site_fract_x
  _atom_site_fract_y
  _atom_site_fract_z
C1 C 0.03572 0.53295 1.31358
 C2 C -0.00085 0.52017 1.32779
 C3 C -0.03701 0.49568 1.31324
 C4 C -0.03684 0.48682 1.28215
 C5 C -0.00029 0.50213 1.26656
 C6 C 0.03605 0.52497 1.28229
 C7 C 0.07165 0.54143 1.26579
 C8 C 0.07189 0.53356 1.23526
 C9 C 0.03642 0.51042 1.21943
 C10 C -0.00008 0.49508 1.23498
 C11 C -0.07227 0.46502 1.26576
 C12 C -0.07198 0.45725 1.23521
 C13 C -0.03633 0.47314 1.21894
 C14 C -0.03583 0.46627 1.18738
 C15 C 0.00083 0.47957 1.17315
 C16 C 0.03659 0.50240 1.18837
 H17 H 0.09986 0.56130 1.27613
 H18 H 0.10033 0.54615 1.22412
 H19 H -0.10091 0.45406 1.27616
 H20 H -0.10028 0.43840 1.22460
 H21 H -0.00123 0.52531 1.35185
 H22 H 0.00187 0.47537 1.14900
 C23 C 0.51361 0.47421 1.18822
 C24 C 0.49347 0.48894 1.17157
 C25 C 0.47737 0.50921 1.18556
 C26 C 0.48000 0.51363 1.21741
 C27 C 0.50006 0.49850 1.23468
 C28 C 0.51739 0.47919 1.21996
 C29 C 0.53839 0.46578 1.23728
 C30 C 0.54193 0.47075 1.26852
 C31 C 0.52343 0.48812 1.28399
 C32 C 0.50323 0.50314 1.26666
 C33 C 0.46285 0.53247 1.23244
 C34 C 0.46632 0.53743 1.26367
 C35 C 0.48660 0.52326 1.28114
 C36 C 0.49119 0.52926 1.31268
 C37 C 0.51171 0.51509 1.32943
 C38 C 0.52677 0.49329 1.31600
 H39 H 0.55272 0.45166 1.22675
 H40 H 0.56019 0.46154 1.28024
 H41 H 0.44652 0.54359 1.22021
 H42 H 0.45313 0.55278 1.27399
 H43 H 0.49153 0.48575 1.14714
 H44 H 0.51343 0.51889 1.35380
 C45 C 0.47083 0.96696 1.31463
 C46 C 0.48315 1.00327 1.32800
 C47 C 0.50430 1.03870 1.31191
 C48 C 0.50987 1.03751 1.28024
 C49 C 0.49595 1.00090 1.26582
 C50 C 0.47691 0.96557 1.28309
 C51 C 0.46147 0.92966 1.26791
 C52 C 0.46528 0.92829 1.23680
 C53 C 0.48338 0.96269 1.21927
 C54 C 0.49939 0.99945 1.23378
 C55 C 0.52538 1.07154 1.26215
 C56 C 0.52882 1.07012 1.23096
 C57 C 0.51697 1.03457 1.21618
 C58 C 0.51862 1.03254 1.18406
 C59 C 0.50230 0.99568 1.17048
 C60 C 0.48498 0.96112 1.18745
 H61 H 0.44488 0.90193 1.27965
 H62 H 0.45287 0.89976 1.22653
 H63 H 0.53338 1.09962 1.27171
 H64 H 0.53932 1.09722 1.21853
 H65 H 0.47969 1.00413 1.35231
 H66 H 0.50340 0.99368 1.14604
 C67 C 0.96489 0.46358 0.68658
 C68 C 1.00094 0.47752 0.67165
 C69 C 1.03737 0.50095 0.68633
 C70 C 1.03737 0.50782 0.71796
 C71 C 1.00084 0.49248 0.73366
 C72 C 0.96454 0.47072 0.71780
 C73 C 0.92871 0.45631 0.73357
 C74 C 0.92841 0.46337 0.76429
 C75 C 0.96392 0.48438 0.78064
 C76 C 1.00053 0.49902 0.76529
 C77 C 1.07276 0.52791 0.73466
 C78 C 1.07249 0.53507 0.76537
 C79 C 1.03676 0.52026 0.78145
 C80 C 1.03617 0.52774 0.81286
 C81 C 0.99954 0.51444 0.82709
 C82 C 0.96371 0.49173 0.81187
 H83 H 0.90044 0.43930 0.72230
 H84 H 0.89993 0.45236 0.77504
 H85 H 1.10131 0.53817 0.72431
 H86 H 1.10089 0.55282 0.77619
 H87 H 1.00030 0.47288 0.64742
 H88 H 0.99871 0.51899 0.85122
 C89 C 0.52088 0.48205 0.68668
 C90 C 0.50392 0.49990 0.66984
 C91 C 0.48695 0.51928 0.68392
 C92 C 0.48688 0.52112 0.71588
 C93 C 0.50398 0.50310 0.73328
 C94 C 0.52103 0.48345 0.71865
 C95 C 0.53721 0.46525 0.73633
 C96 C 0.53719 0.46678 0.76780
 C97 C 0.52103 0.48661 0.78277
 C98 C 0.50397 0.50467 0.76538
 C99 C 0.47069 0.54093 0.73085
 C100 C 0.47061 0.54240 0.76233
 C101 C 0.48678 0.52419 0.78002
 C102 C 0.48672 0.52538 0.81199
 C103 C 0.50373 0.50757 0.82881
 C104 C 0.52082 0.48831 0.81473
 H105 H 0.54990 0.44946 0.72598
 H106 H 0.54984 0.45208 0.78030
 H107 H 0.45804 0.55563 0.71835
 H108 H 0.45788 0.55814 0.77269
 H109 H 0.50387 0.49863 0.64530
 H110 H 0.50351 0.50856 0.85336
 C111 C 0.47359 -0.03386 0.81593
 C112 C 0.48803 0.00280 0.82962
 C113 C 0.50907 0.03777 0.81331
 C114 C 0.51467 0.03684 0.78187
 C115 C 0.49868 0.00029 0.76709
 C116 C 0.47808 -0.03521 0.78402
 C117 C 0.46037 -0.07088 0.76822
 C118 C 0.46504 -0.07185 0.73710
 C119 C 0.48628 -0.03715 0.72016
 C120 C 0.50292 -0.00071 0.73519
 C121 C 0.53530 0.07158 0.76479
 C122 C 0.53978 0.07055 0.73366
 C123 C 0.52332 0.03476 0.71831
 C124 C 0.52696 0.03345 0.68653
 C125 C 0.51160 -0.00274 0.67227
 C126 C 0.49108 -0.03788 0.68851
 H127 H 0.44191 -0.09858 0.77957
 H128 H 0.45140 -0.10020 0.72637
 H129 H 0.54794 0.09998 0.77533
 H130 H 0.55637 0.09821 0.72174
 H131 H 0.48553 0.00450 0.85395
 H132 H 0.51420 -0.00362 0.64788
 O133 O 0.39430 0.66070 0.97251
 O134 O 0.39159 0.72508 0.96666
 C135 C 0.37296 0.74338 0.96338
 O136 O 0.34305 0.73610 0.97941
 O137 O 0.27715 0.67074 0.96822
 C138 C 0.25977 0.63527 0.96001
 O139 O 0.26646 0.60987 0.97198
 O140 O 0.33337 0.61349 0.96095
 C141 C 0.37031 0.63222 0.95617
 O142 O 0.39225 0.66593 1.03303
 O143 O 0.39411 0.73266 1.02724
 C144 C 0.37001 0.73670 1.04371
 O145 O 0.33301 0.71794 1.03905
 O146 O 0.26631 0.65428 1.02783
 C147 C 0.26012 0.62250 1.04006
 O148 O 0.27775 0.60471 1.03183
 O149 O 0.34380 0.60599 1.02072
 C150 C 0.37374 0.62902 1.03666
 Cr151 Cr 0.39085 0.69497 0.99986
 Cr152 Cr 0.30600 0.69369 1.00346
 Cr153 Cr 0.30643 0.61070 0.99651
 O154 O 0.33430 0.66638 0.99991
 O155 O 0.60576 0.34360 0.97781
 O156 O 0.60652 0.27996 0.96420
 C157 C 0.62437 0.26190 0.95740
 O158 O 0.65476 0.26656 0.97167
 O159 O 0.71995 0.33345 0.96320
 C160 C 0.73891 0.37031 0.95952
 O161 O 0.73389 0.39323 0.97644
 O162 O 0.66723 0.39235 0.96889
 C163 C 0.63030 0.37449 0.96358
 O164 O 0.60772 0.32776 1.03702
 O165 O 0.60562 0.26258 1.02331
 C166 C 0.63014 0.25589 1.03726
 O167 O 0.66706 0.27493 1.03207
 O168 O 0.73417 0.34001 1.02317
 C169 C 0.74035 0.36837 1.04002
 O170 O 0.72166 0.38659 1.03687
 O171 O 0.65674 0.38909 1.02943
 C172 C 0.62631 0.36375 1.04383
 Cr173 Cr 0.60860 0.30457 1.00060
 Cr174 Cr 0.69291 0.30478 0.99765
 Cr175 Cr 0.69378 0.38819 1.00282
 O176 O 0.66507 0.33252 1.00036
 O177 O 0.66795 0.38492 0.53926
 O178 O 0.73387 0.38732 0.52675
 C179 C 0.74025 0.36156 0.53842
 O180 O 0.72231 0.32616 0.52997
 O181 O 0.65535 0.26161 0.51985
 C182 C 0.62641 0.25538 0.53671
 O183 O 0.60815 0.27412 0.53375
 O184 O 0.60640 0.33910 0.52800
 C185 C 0.63109 0.36724 0.54426
 O186 O 0.65603 0.39274 0.47984
 O187 O 0.72134 0.39294 0.46743
 C188 C 0.73831 0.37476 0.45862
 O189 O 0.73145 0.34235 0.47009
 O190 O 0.66366 0.27920 0.45988
 C191 C 0.62645 0.26074 0.45628
 O192 O 0.60350 0.26560 0.47345
 O193 O 0.60686 0.33309 0.46748
 C194 C 0.62567 0.37006 0.46409
 Cr195 Cr 0.69366 0.38729 0.50315
 Cr196 Cr 0.69213 0.30343 0.49511
 Cr197 Cr 0.60842 0.30405 0.50062
 O198 O 0.66491 0.33167 0.49959
 O199 O 0.33609 0.60982 0.52976
 O200 O 0.26812 0.60685 0.52321
 C201 C 0.26225 0.62863 0.54071
 O202 O 0.28073 0.66555 0.53794
 O203 O 0.34451 0.73342 0.53005
 C204 C 0.37652 0.73996 0.54261
 O205 O 0.39572 0.72389 0.53413
 O206 O 0.39694 0.66038 0.52121
 C207 C 0.37304 0.62886 0.53516
 O208 O 0.34522 0.61344 0.46927
 O209 O 0.27962 0.61499 0.46297
 C210 C 0.26034 0.63271 0.46044
 O211 O 0.26599 0.66051 0.47781
 O212 O 0.33178 0.72734 0.47003
 C213 C 0.36804 0.74554 0.46255
 O214 O 0.39372 0.73886 0.47448
 O215 O 0.39350 0.67486 0.46172
 C216 C 0.37544 0.63896 0.45492
 Cr217 Cr 0.30838 0.61349 0.49642
 Cr218 Cr 0.30691 0.69564 0.50377
 Cr219 Cr 0.39270 0.69835 0.49796
 O220 O 0.33612 0.66929 0.49933
 C221 C 0.43958 0.58053 0.36666
 C222 C 0.41548 0.54270 0.35510
 C223 C 0.43233 0.52671 0.33634
 C224 C 0.47295 0.54814 0.32955
 C225 C 0.49667 0.58614 0.34093
 C226 C 0.48005 0.60260 0.35949
 C227 C 0.42243 0.59676 0.38759
 C228 C 0.44669 0.63420 0.39971
 C229 C 0.43067 0.64874 0.42071
 C230 C 0.39095 0.62568 0.43009
 C231 C 0.36686 0.58852 0.41714
 C232 C 0.38244 0.57394 0.39587
 C233 C 0.50321 0.64024 0.37164
 C234 C 0.48679 0.65582 0.39133
 C235 C 0.37533 0.52122 0.36326
 C236 C 0.35911 0.53654 0.38336
 H237 H 0.53442 0.65761 0.36619
 H238 H 0.50582 0.68476 0.40050
 H239 H 0.35644 0.49204 0.35446
 H240 H 0.32817 0.51872 0.38949
 H241 H 0.41431 0.49724 0.32776
 H242 H 0.52805 0.60237 0.33581
 H243 H 0.44953 0.67725 0.43066
 H244 H 0.33621 0.57063 0.42406
 C245 C 0.42430 0.87038 0.37474
 C246 C 0.45510 0.87687 0.35508
 C247 C 0.46970 0.90829 0.33447
 C248 C 0.45414 0.93357 0.33373
 C249 C 0.42375 0.92693 0.35417
 C250 C 0.40826 0.89502 0.37430
 C251 C 0.40907 0.83762 0.39666
 C252 C 0.37795 0.83087 0.41609
 C253 C 0.36380 0.79987 0.43705
 C254 C 0.38141 0.77657 0.43925
 C255 C 0.41269 0.78380 0.41969
 C256 C 0.42636 0.81407 0.39809
 C257 C 0.37721 0.88740 0.39412
 C258 C 0.36211 0.85569 0.41452
 C259 C 0.47116 0.85224 0.35682
 C260 C 0.45718 0.82149 0.37808
 H261 H 0.36448 0.90613 0.39388
 H262 H 0.33817 0.85086 0.42943
 H263 H 0.49501 0.85700 0.34184
 H264 H 0.47066 0.80343 0.37889
 H265 H 0.49421 0.91403 0.31981
 H266 H 0.41161 0.94620 0.35392
 H267 H 0.33996 0.79461 0.45228
 H268 H 0.42615 0.76574 0.42120
 C269 C 0.13456 0.57956 0.37241
 C270 C 0.12967 0.55150 0.35104
 C271 C 0.09754 0.53702 0.33088
 C272 C 0.07023 0.55035 0.33193
 C273 C 0.07578 0.57852 0.35376
 C274 C 0.10795 0.59338 0.37383
 C275 C 0.16758 0.59401 0.39427
 C276 C 0.17214 0.62174 0.41586
 C277 C 0.20301 0.63478 0.43699
 C278 C 0.22903 0.61996 0.43697
 C279 C 0.22417 0.59231 0.41497
 C280 C 0.19349 0.57928 0.39354
 C281 C 0.11371 0.62140 0.39559
 C282 C 0.14533 0.63542 0.41620
 C283 C 0.15648 0.53780 0.35073
 C284 C 0.18783 0.55143 0.37162
 H285 H 0.09344 0.63238 0.39685
 H286 H 0.14857 0.65684 0.43276
 H287 H 0.15301 0.51609 0.33436
 H288 H 0.20763 0.53986 0.37076
 H289 H 0.09278 0.51401 0.31535
 H290 H 0.05523 0.58920 0.35491
 H291 H 0.20625 0.65593 0.45382
 H292 H 0.24402 0.58076 0.41463
 C293 C 0.57073 0.44127 0.37693
 C294 C 0.58318 0.48113 0.37959
 C295 C 0.56889 0.49826 0.35903
 C296 C 0.54290 0.47615 0.33538
 C297 C 0.53077 0.43604 0.33315
 C298 C 0.54454 0.41849 0.35389
 C299 C 0.58493 0.42292 0.39903
 C300 C 0.57168 0.38279 0.39695
 C301 C 0.58488 0.36539 0.41834
 C302 C 0.61148 0.38804 0.44144
 C303 C 0.62459 0.42833 0.44297
 C304 C 0.61122 0.44583 0.42199
 C305 C 0.53216 0.37848 0.35237
 C306 C 0.54544 0.36092 0.37355
 C307 C 0.60950 0.50308 0.40288
 C308 C 0.62341 0.48576 0.42366
 H309 H 0.51187 0.36052 0.33474
 H310 H 0.53502 0.32995 0.37163
 H311 H 0.61940 0.53391 0.40511
 H312 H 0.64367 0.50372 0.44130
 H313 H 0.57862 0.52909 0.36110
 H314 H 0.50935 0.41810 0.31608
 H315 H 0.57473 0.33443 0.41687
 H316 H 0.64482 0.44602 0.46074
 C317 C 0.55487 0.13843 0.36762
 C318 C 0.51437 0.11074 0.37009
 C319 C 0.49754 0.07849 0.35078
 C320 C 0.52062 0.07382 0.32863
 C321 C 0.56115 0.10260 0.32600
 C322 C 0.57846 0.13475 0.34564
 C323 C 0.57318 0.17109 0.38923
 C324 C 0.61410 0.19779 0.38785
 C325 C 0.63163 0.22772 0.40946
 C326 C 0.60833 0.23103 0.43213
 C327 C 0.56717 0.20446 0.43256
 C328 C 0.54955 0.17428 0.41143
 C329 C 0.61915 0.16257 0.34447
 C330 C 0.63668 0.19348 0.36526
 C331 C 0.49160 0.11529 0.39233
 C332 C 0.50888 0.14664 0.41258
 H333 H 0.63774 0.16008 0.32764
 H334 H 0.66825 0.21391 0.36383
 H335 H 0.46026 0.09418 0.39434
 H336 H 0.49036 0.14887 0.42962
 H337 H 0.46632 0.05686 0.35297
 H338 H 0.57971 0.09878 0.30994
 H339 H 0.66328 0.24805 0.40883
 H340 H 0.54887 0.20647 0.44993
 C341 C 0.86331 0.44466 0.37069
 C342 C 0.87052 0.42056 0.35196
 C343 C 0.90286 0.43771 0.33210
 C344 C 0.92831 0.47873 0.33112
 C345 C 0.92081 0.50232 0.35053
 C346 C 0.88804 0.48551 0.36996
 C347 C 0.82991 0.42672 0.39214
 C348 C 0.82275 0.45086 0.41091
 C349 C 0.79157 0.43363 0.43180
 C350 C 0.76849 0.39261 0.43459
 C351 C 0.77591 0.36883 0.41547
 C352 C 0.80642 0.38577 0.39401
 C353 C 0.87981 0.50870 0.38897
 C354 C 0.84755 0.49168 0.40897
 C355 C 0.84581 0.37971 0.35399
 C356 C 0.81441 0.36260 0.37476
 H357 H 0.89858 0.54028 0.38851
 H358 H 0.84238 0.51061 0.42337
 H359 H 0.85111 0.36079 0.33969
 H360 H 0.79641 0.33098 0.37591
 H361 H 0.90928 0.41906 0.31840
 H362 H 0.94024 0.53385 0.35016
 H363 H 0.78626 0.45207 0.44669
 H364 H 0.75810 0.33723 0.41744
 C365 C 0.56424 0.42290 1.13330
 C366 C 0.52412 0.40057 1.14144
 C367 C 0.50793 0.41705 1.16041
 C368 C 0.53171 0.45536 1.17119
 C369 C 0.57201 0.47706 1.16345
 C370 C 0.58844 0.46102 1.14431
 C371 C 0.58086 0.40661 1.11194
 C372 C 0.62048 0.42961 1.10276
 C373 C 0.63553 0.41487 1.08118
 C374 C 0.61128 0.37741 1.06875
 C375 C 0.57193 0.35424 1.07896
 C376 C 0.55645 0.36889 1.10032
 C377 C 0.62823 0.48272 1.13522
 C378 C 0.64396 0.46730 1.11476
 C379 C 0.50082 0.36267 1.12979
 C380 C 0.51674 0.34706 1.10964
 H381 H 0.64719 0.51211 1.14359
 H382 H 0.67462 0.48526 1.10793
 H383 H 0.46987 0.34511 1.13597
 H384 H 0.49760 0.31791 1.10088
 H385 H 0.47677 0.40062 1.16626
 H386 H 0.59005 0.50677 1.17157
 H387 H 0.66590 0.43287 1.07366
 H388 H 0.55294 0.32548 1.06945
 C389 C 0.86582 0.42085 1.12820
 C390 C 0.87073 0.44879 1.14971
 C391 C 0.90272 0.46292 1.16999
 C392 C 0.92985 0.44938 1.16889
 C393 C 0.92437 0.42146 1.14687
 C394 C 0.89231 0.40689 1.12673
 C395 C 0.83289 0.40666 1.10628
 C396 C 0.82829 0.37900 1.08463
 C397 C 0.79748 0.36613 1.06349
 C398 C 0.77159 0.38110 1.06352
 C399 C 0.77651 0.40874 1.08554
 C400 C 0.80712 0.42156 1.10704
 C401 C 0.88653 0.37898 1.10487
 C402 C 0.85497 0.36517 1.08423
 C403 C 0.84406 0.46266 1.15004
 C404 C 0.81282 0.44931 1.12905
 H405 H 0.90671 0.36790 1.10357
 H406 H 0.85169 0.34380 1.06761
 H407 H 0.84755 0.48428 1.16650
 H408 H 0.79314 0.46101 1.12994
 H409 H 0.90751 0.48579 1.18568
 H410 H 0.94487 0.41073 1.14566
 H411 H 0.79420 0.34501 1.04662
 H412 H 0.75674 0.42038 1.08587
 C413 C 0.56617 0.12868 1.12344
 C414 C 0.58924 0.12920 1.14812
 C415 C 0.57316 0.09772 1.16883
 C416 C 0.53446 0.06565 1.16467
 C417 C 0.51219 0.06563 1.13938
 C418 C 0.52761 0.09718 1.11903
 C419 C 0.58280 0.16152 1.10156
 C420 C 0.55936 0.16109 1.07719
 C421 C 0.57510 0.19235 1.05655
 C422 C 0.61427 0.22358 1.05968
 C423 C 0.63766 0.22344 1.08403
 C424 C 0.62185 0.19256 1.10528
 C425 C 0.50517 0.09772 1.09429
 C426 C 0.52071 0.12927 1.07380
 C427 C 0.62807 0.16095 1.15130
 C428 C 0.64415 0.19199 1.13018
 H429 H 0.47531 0.07358 1.09074
 H430 H 0.50241 0.12861 1.05503
 H431 H 0.64627 0.16170 1.17016
 H432 H 0.67426 0.21577 1.13339
 H433 H 0.59118 0.09747 1.18750
 H434 H 0.48236 0.04130 1.13595
 H435 H 0.55705 0.19204 1.03769
 H436 H 0.66779 0.24750 1.08664
 C437 C 0.43029 0.56047 1.12499
 C438 C 0.41179 0.51950 1.12723
 C439 C 0.42678 0.50286 1.14766
 C440 C 0.45982 0.52691 1.16579
 C441 C 0.47792 0.56789 1.16345
 C442 C 0.46323 0.58487 1.14304
 C443 C 0.41535 0.57813 1.10290
 C444 C 0.43427 0.61906 1.10022
 C445 C 0.42041 0.63569 1.07873
 C446 C 0.38788 0.61164 1.05996
 C447 C 0.36909 0.57059 1.06326
 C448 C 0.38277 0.55372 1.08459
 C449 C 0.48115 0.62569 1.13994
 C450 C 0.46691 0.64250 1.11890
 C451 C 0.37906 0.49606 1.10867
 C452 C 0.36475 0.51288 1.08774
 H453 H 0.50656 0.64482 1.15375
 H454 H 0.48175 0.67411 1.11710
 H455 H 0.36451 0.46445 1.11021
 H456 H 0.33956 0.49375 1.07374
 H457 H 0.41316 0.47131 1.14931
 H458 H 0.50379 0.58634 1.17712
 H459 H 0.43510 0.66726 1.07651
 H460 H 0.34405 0.55168 1.04903
 C461 C 0.13751 0.55471 1.13026
 C462 C 0.11887 0.51441 1.13664
 C463 C 0.08649 0.49746 1.15652
 C464 C 0.07318 0.52071 1.17000
 C465 C 0.09249 0.56108 1.16374
 C466 C 0.12465 0.57827 1.14378
 C467 C 0.17028 0.57237 1.10826
 C468 C 0.18784 0.61233 1.10105
 C469 C 0.21779 0.62864 1.07918
 C470 C 0.23030 0.60535 1.06453
 C471 C 0.21305 0.56549 1.07259
 C472 C 0.18272 0.54876 1.09426
 C473 C 0.14355 0.61831 1.13647
 C474 C 0.17460 0.63506 1.11543
 C475 C 0.13247 0.49182 1.12250
 C476 C 0.16392 0.50872 1.10174
 H477 H 0.13390 0.63676 1.14680
 H478 H 0.18804 0.66596 1.11012
 H479 H 0.11842 0.46074 1.12729
 H480 H 0.17324 0.49018 1.09113
 H481 H 0.07117 0.46625 1.16114
 H482 H 0.08166 0.57873 1.17379
 H483 H 0.23106 0.65940 1.07335
 H484 H 0.22234 0.54727 1.06138
 C485 C 0.43519 0.85877 1.13276
 C486 C 0.47653 0.88178 1.13583
 C487 C 0.49262 0.91443 1.15482
 C488 C 0.46765 0.92396 1.17058
 C489 C 0.42631 0.90028 1.16780
 C490 C 0.40986 0.86759 1.14878
 C491 C 0.41820 0.82575 1.11145
 C492 C 0.37697 0.80365 1.10746
 C493 C 0.36109 0.77355 1.08601
 C494 C 0.38624 0.76579 1.06844
 C495 C 0.42748 0.78765 1.07343
 C496 C 0.44361 0.81779 1.09473
 C497 C 0.36871 0.84424 1.14473
 C498 C 0.35254 0.81280 1.12442
 C499 C 0.50094 0.87234 1.11919
 C500 C 0.48474 0.84084 1.09902
 H501 H 0.34886 0.85068 1.15701
 H502 H 0.32068 0.79592 1.12163
 H503 H 0.53284 0.88981 1.12145
 H504 H 0.50463 0.83489 1.08628
 H505 H 0.52447 0.93306 1.15680
 H506 H 0.40722 0.90813 1.17968
 H507 H 0.32934 0.75697 1.08244
 H508 H 0.44720 0.78199 1.06017
 C509 C 0.56877 0.42749 0.63253
 C510 C 0.52751 0.40985 0.63557
 C511 C 0.51210 0.42725 0.65424
 C512 C 0.53764 0.46187 0.66976
 C513 C 0.57889 0.47884 0.66707
 C514 C 0.59468 0.46179 0.64830
 C515 C 0.58507 0.41053 0.61155
 C516 C 0.62623 0.42897 0.60753
 C517 C 0.64144 0.41390 0.58629
 C518 C 0.61569 0.38082 0.56899
 C519 C 0.57453 0.36209 0.57409
 C520 C 0.55907 0.37696 0.59513
 C521 C 0.63574 0.47886 0.64427
 C522 C 0.65125 0.46275 0.62421
 C523 C 0.50251 0.37579 0.61925
 C524 C 0.51803 0.35958 0.59940
 H525 H 0.65603 0.50526 0.65635
 H526 H 0.68306 0.47720 0.62140
 H527 H 0.47066 0.36188 0.62151
 H528 H 0.49771 0.33360 0.58689
 H529 H 0.48032 0.41451 0.65625
 H530 H 0.59841 0.50580 0.67886
 H531 H 0.67313 0.42857 0.58263
 H532 H 0.55435 0.33658 0.56104
 C533 C 0.57287 0.13173 0.62600
 C534 C 0.59174 0.10963 0.62819
 C535 C 0.57729 0.07817 0.64874
 C536 C 0.54437 0.06892 0.66700
 C537 C 0.52594 0.09148 0.66471
 C538 C 0.54012 0.12301 0.64423
 C539 C 0.58712 0.16403 0.60370
 C540 C 0.56779 0.18562 0.60105
 C541 C 0.58093 0.21576 0.57933
 C542 C 0.61312 0.22427 0.56027
 C543 C 0.63235 0.20245 0.56354
 C544 C 0.61941 0.17227 0.58513
 C545 C 0.52180 0.14553 0.64116
 C546 C 0.53541 0.17632 0.61995
 C547 C 0.62423 0.11904 0.60942
 C548 C 0.63786 0.14986 0.58827
 H549 H 0.49653 0.13911 0.65510
 H550 H 0.52026 0.19277 0.61817
 H551 H 0.63905 0.10226 0.61092
 H552 H 0.66284 0.15599 0.57409
 H553 H 0.59115 0.06046 0.65031
 H554 H 0.50012 0.08385 0.67842
 H555 H 0.56590 0.23230 0.57713
 H556 H 0.65716 0.20864 0.54911
 C557 C 0.86407 0.41557 0.62797
 C558 C 0.87616 0.45119 0.64263
 C559 C 0.90834 0.46593 0.66266
 C560 C 0.92848 0.44545 0.66785
 C561 C 0.91600 0.40971 0.65319
 C562 C 0.88356 0.39448 0.63326
 C563 C 0.83114 0.40067 0.60602
 C564 C 0.81936 0.36535 0.59099
 C565 C 0.78874 0.35192 0.56946
 C566 C 0.77058 0.37402 0.56257
 C567 C 0.78254 0.40914 0.57819
 C568 C 0.81271 0.42255 0.59995
 C569 C 0.87066 0.35904 0.61804
 C570 C 0.83903 0.34466 0.59734
 C571 C 0.85642 0.47181 0.63642
 C572 C 0.82527 0.45776 0.61539
 H573 H 0.88535 0.34244 0.62197
 H574 H 0.83024 0.31738 0.58592
 H575 H 0.86547 0.49930 0.64761
 H576 H 0.81115 0.47480 0.61096
 H577 H 0.91850 0.49380 0.67364
 H578 H 0.93192 0.39425 0.65701
 H579 H 0.77987 0.32496 0.55748
 H580 H 0.76855 0.42621 0.57326
 C581 C 0.43802 0.56856 0.62343
 C582 C 0.47933 0.58587 0.62582
 C583 C 0.49512 0.57004 0.64625
 C584 C 0.46990 0.53740 0.66422
 C585 C 0.42861 0.52057 0.66189
 C586 C 0.41245 0.53604 0.64139
 C587 C 0.42125 0.58436 0.60129
 C588 C 0.37997 0.56660 0.59837
 C589 C 0.36420 0.58129 0.57681
 C590 C 0.38947 0.61359 0.55832
 C591 C 0.43083 0.63120 0.56185
 C592 C 0.44685 0.61662 0.58317
 C593 C 0.37130 0.51932 0.63809
 C594 C 0.35534 0.53432 0.61692
 C595 C 0.50398 0.61826 0.60744
 C596 C 0.48800 0.63344 0.58651
 H597 H 0.35127 0.49424 0.65180
 H598 H 0.32344 0.52039 0.61495
 H599 H 0.53587 0.63187 0.60912
 H600 H 0.50804 0.65836 0.57265
 H601 H 0.52693 0.58268 0.64800
 H602 H 0.40932 0.49511 0.67559
 H603 H 0.33236 0.56756 0.57442
 H604 H 0.45066 0.65599 0.54777
 C605 C 0.44069 0.86078 0.63261
 C606 C 0.41589 0.87250 0.64590
 C607 C 0.43239 0.90479 0.66529
 C608 C 0.47333 0.92540 0.67106
 C609 C 0.49777 0.91312 0.65792
 C610 C 0.48154 0.88064 0.63868
 C611 C 0.42381 0.82803 0.61104
 C612 C 0.44872 0.81689 0.59718
 C613 C 0.43281 0.78684 0.57567
 C614 C 0.39247 0.76862 0.56758
 C615 C 0.36780 0.77969 0.58223
 C616 C 0.38331 0.80935 0.60396
 C617 C 0.50541 0.86822 0.62478
 C618 C 0.48926 0.83681 0.60445
 C619 C 0.37532 0.85239 0.63884
 C620 C 0.35931 0.82139 0.61818
 H621 H 0.53693 0.88321 0.62936
 H622 H 0.50880 0.82849 0.59394
 H623 H 0.35589 0.86111 0.64899
 H624 H 0.32798 0.80708 0.61298
 H625 H 0.41379 0.91475 0.67515
 H626 H 0.52939 0.92939 0.66222
 H627 H 0.45209 0.77872 0.56444
 H628 H 0.33667 0.76569 0.57634
 C629 C 0.13668 0.55452 0.62837
 C630 C 0.11028 0.51403 0.62664
 C631 C 0.07789 0.49636 0.64638
 C632 C 0.07197 0.51864 0.66825
 C633 C 0.09901 0.55937 0.66960
 C634 C 0.13133 0.57740 0.64972
 C635 C 0.16991 0.57346 0.60681
 C636 C 0.19553 0.61419 0.60774
 C637 C 0.22626 0.63221 0.58646
 C638 C 0.23144 0.60969 0.56442
 C639 C 0.20583 0.56875 0.56429
 C640 C 0.17488 0.55056 0.58524
 C641 C 0.15792 0.61801 0.65028
 C642 C 0.18943 0.63609 0.62963
 C643 C 0.11648 0.49204 0.60493
 C644 C 0.14832 0.50999 0.58463
 H645 H 0.15411 0.63602 0.66663
 H646 H 0.20900 0.66752 0.63066
 H647 H 0.09638 0.46074 0.60345
 H648 H 0.15187 0.49201 0.56808
 H649 H 0.05745 0.46508 0.64497
 H650 H 0.09389 0.57733 0.68516
 H651 H 0.24578 0.66369 0.58685
 H652 H 0.20931 0.55105 0.54742
 C653 C 0.43631 0.57683 0.86691
 C654 C 0.41113 0.54310 0.85025
 C655 C 0.42778 0.52722 0.83113
 C656 C 0.46915 0.54476 0.82898
 C657 C 0.49395 0.57884 0.84536
 C658 C 0.47768 0.59508 0.86438
 C659 C 0.41909 0.59245 0.88828
 C660 C 0.44434 0.62544 0.90556
 C661 C 0.42801 0.63908 0.92689
 C662 C 0.38670 0.61968 0.93142
 C663 C 0.36171 0.58716 0.91333
 C664 C 0.37781 0.57334 0.89178
 C665 C 0.50193 0.62853 0.88158
 C666 C 0.48553 0.64350 0.90179
 C667 C 0.36993 0.52534 0.85379
 C668 C 0.35355 0.54019 0.87422
 H669 H 0.53386 0.64291 0.87973
 H670 H 0.50529 0.66904 0.91496
 H671 H 0.35020 0.49937 0.84104
 H672 H 0.32165 0.52525 0.87662
 H673 H 0.40883 0.50064 0.81871
 H674 H 0.52582 0.59200 0.84379
 H675 H 0.44762 0.66416 0.94056
 H676 H 0.32991 0.57202 0.91652
 C677 C 0.13506 0.57791 0.87138
 C678 C 0.12923 0.54745 0.85213
 C679 C 0.09714 0.53178 0.83192
 C680 C 0.07052 0.54593 0.83116
 C681 C 0.07661 0.57611 0.85112
 C682 C 0.10916 0.59263 0.87086
 C683 C 0.16827 0.59393 0.89312
 C684 C 0.17414 0.62446 0.91234
 C685 C 0.20525 0.63903 0.93342
 C686 C 0.22947 0.62236 0.93597
 C687 C 0.22328 0.59186 0.91647
 C688 C 0.19291 0.57777 0.89478
 C689 C 0.11606 0.62328 0.89035
 C690 C 0.14817 0.63911 0.91059
 C691 C 0.15507 0.53265 0.85399
 C692 C 0.18626 0.54742 0.87506
 H693 H 0.09638 0.63501 0.89004
 H694 H 0.15232 0.66259 0.92533
 H695 H 0.15085 0.50910 0.83930
 H696 H 0.20517 0.53481 0.87605
 H697 H 0.09182 0.50738 0.81776
 H698 H 0.05629 0.58713 0.85090
 H699 H 0.20967 0.66223 0.94862
 H700 H 0.24202 0.57909 0.91827
 C701 C 0.42833 0.86946 0.87618
 C702 C 0.41551 0.89660 0.87843
 C703 C 0.43019 0.92821 0.85806
 C704 C 0.45699 0.93259 0.83500
 C705 C 0.46947 0.90486 0.83317
 C706 C 0.45527 0.87333 0.85371
 C707 C 0.41380 0.83677 0.89815
 C708 C 0.42745 0.81020 0.89651
 C709 C 0.41406 0.77957 0.91786
 C710 C 0.38693 0.77531 0.94053
 C711 C 0.37334 0.80212 0.94156
 C712 C 0.38687 0.83301 0.92060
 C713 C 0.46800 0.84596 0.85260
 C714 C 0.45438 0.81497 0.87365
 C715 C 0.38848 0.89180 0.90117
 C716 C 0.37429 0.86045 0.92184
 H717 H 0.48885 0.84864 0.83541
 H718 H 0.46511 0.79467 0.87208
 H719 H 0.37829 0.91251 0.90308
 H720 H 0.35353 0.85786 0.93908
 H721 H 0.42020 0.94913 0.85982
 H722 H 0.49148 0.90872 0.81660
 H723 H 0.42460 0.75906 0.91676
 H724 H 0.35269 0.79936 0.95898
 C725 C 0.56802 0.43733 0.87519
 C726 C 0.52679 0.42046 0.87245
 C727 C 0.51161 0.43688 0.85204
 C728 C 0.53734 0.46969 0.83443
 C729 C 0.57854 0.48611 0.83710
 C730 C 0.59411 0.47002 0.85759
 C731 C 0.58415 0.42088 0.89733
 C732 C 0.62534 0.43818 0.90060
 C733 C 0.64048 0.42285 0.92217
 C734 C 0.61465 0.39043 0.94034
 C735 C 0.57339 0.37332 0.93644
 C736 C 0.55801 0.38849 0.91510
 C737 C 0.63516 0.48627 0.86124
 C738 C 0.65051 0.47063 0.88239
 C739 C 0.50161 0.38789 0.89048
 C740 C 0.51697 0.37213 0.91142
 H741 H 0.65559 0.51146 0.84780
 H742 H 0.68234 0.48421 0.88464
 H743 H 0.46978 0.37462 0.88852
 H744 H 0.49653 0.34710 0.92501
 H745 H 0.47987 0.42455 0.85001
 H746 H 0.59823 0.51170 0.82368
 H747 H 0.67225 0.43622 0.92486
 H748 H 0.55314 0.34842 0.95024
 C749 C 0.86247 0.43941 0.86989
 C750 C 0.87222 0.41534 0.85342
 C751 C 0.90459 0.43264 0.83360
 C752 C 0.92698 0.47361 0.83021
 C753 C 0.91659 0.49731 0.84660
 C754 C 0.88429 0.48034 0.86652
 C755 C 0.82957 0.42150 0.89180
 C756 C 0.82056 0.44563 0.90887
 C757 C 0.79024 0.42860 0.93045
 C758 C 0.76912 0.38771 0.93523
 C759 C 0.77812 0.36389 0.91745
 C760 C 0.80845 0.38067 0.89579
 C761 C 0.87393 0.50346 0.88365
 C762 C 0.84258 0.48640 0.90445
 C763 C 0.84999 0.37456 0.85767
 C764 C 0.81862 0.35752 0.87847
 H765 H 0.89048 0.53505 0.88121
 H766 H 0.83584 0.50532 0.91746
 H767 H 0.85719 0.35569 0.84505
 H768 H 0.80251 0.32598 0.88129
 H769 H 0.91313 0.41446 0.82141
 H770 H 0.93418 0.52889 0.84424
 H771 H 0.78361 0.44731 0.94387
 H772 H 0.76215 0.33243 0.92084
 C773 C 0.56000 0.13978 0.86851
 C774 C 0.51933 0.12067 0.86180
 C775 C 0.50290 0.08789 0.84285
 C776 C 0.52700 0.07464 0.83059
 C777 C 0.56778 0.09453 0.83696
 C778 C 0.58445 0.12705 0.85611
 C779 C 0.57704 0.17286 0.88977
 C780 C 0.61729 0.19075 0.89754
 C781 C 0.63286 0.22072 0.91903
 C782 C 0.60853 0.23293 0.93267
 C783 C 0.56850 0.21552 0.92387
 C784 C 0.55247 0.18512 0.90267
 C785 C 0.62482 0.14639 0.86382
 C786 C 0.64094 0.17765 0.88424
 C787 C 0.49583 0.13417 0.87477
 C788 C 0.51215 0.16593 0.89478
 H789 H 0.64397 0.13687 0.85437
 H790 H 0.67208 0.19134 0.88998
 H791 H 0.46446 0.11977 0.86970
 H792 H 0.49288 0.17510 0.90456
 H793 H 0.47139 0.07220 0.83807
 H794 H 0.58610 0.08383 0.82775
 H795 H 0.66376 0.23410 0.92550
 H796 H 0.54948 0.22453 0.93438
   
