data_POSCAR
  _audit_creation_date              2014-09-24
  _audit_creation_method            'ToBaCCo'
  _symmetry_space_group_name_H-M    'P1'
  _symmetry_Int_Tables_number       1
  _symmetry_cell_setting            triclinic
  loop_
  _symmetry_equiv_pos_as_xyz
 x,y,z
_cell_length_a 24.7067
_cell_length_b 17.9616
_cell_length_c 19.0768
_cell_angle_alpha 88.385600
_cell_angle_beta 90.316400
_cell_angle_gamma 87.319500
loop_
  _atom_site_label
  _atom_site_type_symbol
  _atom_site_fract_x
  _atom_site_fract_y
  _atom_site_fract_z
C1 C 1.25226 0.25323 0.23260
 C2 C 0.74673 -0.24791 0.24963
 C3 C 0.74898 0.24577 -0.25127
 C4 C 1.25224 -0.25294 -0.26690
 C5 C 0.25676 0.23960 0.75706
 C6 C 0.75447 0.75921 0.74937
 C7 C 0.75289 0.25373 0.25087
 C8 C 0.25749 0.73075 0.25336
 O9 O 1.07835 0.12123 0.12735
 O10 O 1.13766 0.06680 0.04960
 C11 C 1.12556 0.11215 0.09925
 O12 O 0.95034 -0.16544 0.12267
 O13 O 0.88037 -0.09085 0.07574
 C14 C 0.89893 -0.14832 0.11267
 O15 O 1.10211 -0.13303 0.12130
 O16 O 1.15069 -0.05738 0.04848
 C17 C 1.14742 -0.10676 0.09905
 O18 O 0.93005 0.11356 0.13901
 O19 O 0.87153 0.03938 0.08262
 C20 C 0.88250 0.08939 0.12768
 Zr21 Zr 1.00469 0.07719 0.09730
 O22 O 1.00908 0.05992 0.20756
 O23 O 1.00060 0.19393 0.10969
 Zr24 Zr 1.02041 -0.10916 0.08884
 O25 O 1.02297 -0.11210 0.19964
 O26 O 1.03840 -0.22540 0.08695
 O27 O 1.06159 -0.01158 0.10044
 O28 O 0.96648 -0.02187 0.11158
 O29 O 0.91073 0.12718 -0.10449
 O30 O 0.86237 0.04529 -0.03808
 C31 C 0.86592 0.09961 -0.08402
 O32 O 1.08250 -0.12004 -0.13820
 O33 O 1.14004 -0.05044 -0.07486
 C34 C 1.13025 -0.09547 -0.12464
 O35 O 0.92921 -0.14025 -0.11533
 O36 O 0.87202 -0.08126 -0.03796
 C37 C 0.88124 -0.12571 -0.08887
 O38 O 1.05907 0.14147 -0.12171
 O39 O 1.12943 0.07267 -0.06895
 C40 C 1.11009 0.12648 -0.10976
 Zr41 Zr 0.99081 0.09062 -0.07958
 O42 O 0.97855 0.09331 -0.18965
 O43 O 0.98487 0.20857 -0.07781
 Zr44 Zr 1.00647 -0.09741 -0.08740
 O45 O 0.99365 -0.09604 -0.19711
 O46 O 1.02167 -0.21441 -0.08732
 Zr47 Zr 1.08532 -0.00048 -0.00509
 Zr48 Zr 0.92581 -0.01672 0.01446
 O49 O 0.95143 -0.00711 -0.09054
 O50 O 1.04528 0.00287 -0.10311
 O51 O 0.94886 0.09447 0.01506
 O52 O 1.06164 -0.11164 -0.00525
 O53 O 1.04231 0.10278 0.00399
 O54 O 0.96677 -0.12203 0.00571
 H55 H 0.94477 -0.02791 0.15475
 H56 H 1.09034 -0.15170 -0.00924
 H57 H 0.92466 -0.00662 -0.12942
 H58 H 1.06105 0.15034 0.00329
 H59 H 1.01400 -0.24561 0.05169
 H60 H 0.98987 -0.23776 -0.06629
 H61 H 1.01192 -0.05236 -0.21667
 H62 H 1.01299 0.07635 -0.21162
 H63 H 0.95651 0.22278 -0.04365
 H64 H 0.97735 0.21564 0.07134
 H65 H 1.04416 0.03321 0.21875
 H66 H 1.02925 -0.16527 0.21397
 O67 O 1.07628 0.62253 0.62439
 O68 O 1.13557 0.56872 0.54596
 C69 C 1.12354 0.61330 0.59632
 O70 O 0.94772 0.33589 0.61816
 O71 O 0.87741 0.41083 0.57286
 C72 C 0.89629 0.35271 0.60866
 O73 O 1.09794 0.36679 0.61755
 O74 O 1.14639 0.44396 0.54624
 C75 C 1.14302 0.39358 0.59595
 O76 O 0.92767 0.61581 0.63659
 O77 O 0.86859 0.54183 0.58063
 C78 C 0.88007 0.59182 0.62552
 Zr79 Zr 1.00206 0.58001 0.59453
 O80 O 1.00649 0.56412 0.70490
 O81 O 0.99850 0.69694 0.60581
 Zr82 Zr 1.01718 0.39362 0.58530
 O83 O 1.01977 0.39190 0.69610
 O84 O 1.03508 0.27735 0.58396
 O85 O 1.05866 0.49103 0.59724
 O86 O 0.96364 0.48077 0.60881
 O87 O 0.90684 0.63071 0.39452
 O88 O 0.85879 0.54927 0.46162
 C89 C 0.86211 0.60395 0.41609
 O90 O 1.07937 0.38385 0.35832
 O91 O 1.13673 0.45376 0.42154
 C92 C 1.12700 0.40904 0.37156
 O93 O 0.92618 0.36214 0.38214
 O94 O 0.86878 0.42165 0.45901
 C95 C 0.87824 0.37643 0.40869
 O96 O 1.05430 0.63715 0.36834
 O97 O 1.12561 0.57547 0.42587
 C98 C 1.10548 0.62210 0.37843
 Zr99 Zr 0.98690 0.59431 0.41895
 O100 O 0.97111 0.60712 0.31006
 O101 O 0.98422 0.71180 0.42786
 Zr102 Zr 1.00308 0.40622 0.40908
 O103 O 0.98894 0.41057 0.29948
 O104 O 1.01884 0.28943 0.40678
 Zr105 Zr 1.08216 0.50286 0.49174
 Zr106 Zr 0.92255 0.48588 0.51203
 O107 O 0.94777 0.49644 0.40701
 O108 O 1.04116 0.50657 0.39424
 O109 O 0.94547 0.59722 0.51343
 O110 O 1.05835 0.39178 0.49102
 O111 O 1.03965 0.60628 0.50109
 O112 O 0.96364 0.38085 0.50225
 H113 H 0.94200 0.47441 0.65198
 H114 H 1.08691 0.35160 0.48667
 H115 H 0.92070 0.49732 0.36845
 H116 H 1.05964 0.65284 0.49892
 H117 H 1.01268 0.25760 0.54630
 H118 H 0.98791 0.26534 0.42925
 H119 H 1.01363 0.44683 0.27875
 H120 H 0.99520 0.57041 0.28637
 H121 H 0.95109 0.72653 0.45393
 H122 H 0.97274 0.71824 0.56997
 H123 H 1.04082 0.53553 0.71608
 H124 H 1.02404 0.33866 0.71107
 O125 O 0.55106 0.14512 0.61757
 O126 O 0.62237 0.09705 0.55420
 C127 C 0.60207 0.13779 0.60430
 O128 O 0.45310 -0.15514 0.61289
 O129 O 0.37993 -0.09697 0.55577
 C130 C 0.40175 -0.14696 0.59870
 O131 O 0.59910 -0.10781 0.61362
 O132 O 0.64511 -0.02504 0.54513
 C133 C 0.64326 -0.07729 0.59333
 O134 O 0.40637 0.11202 0.61702
 O135 O 0.35731 0.02896 0.55671
 C136 C 0.36169 0.08087 0.60212
 Zr137 Zr 0.48511 0.09265 0.57831
 O138 O 0.48354 0.09367 0.68915
 O139 O 0.46666 0.20863 0.56913
 Zr140 Zr 0.51798 -0.09149 0.57796
 O141 O 0.51769 -0.08906 0.68866
 O142 O 0.54354 -0.20570 0.58046
 O143 O 0.54888 0.01281 0.59062
 O144 O 0.45619 -0.01239 0.59345
 O145 O 0.39974 0.12102 0.37412
 O146 O 0.35360 0.03528 0.43875
 C147 C 0.35564 0.09081 0.39409
 O148 O 0.59171 -0.09813 0.35899
 O149 O 0.64108 -0.02008 0.42515
 C150 C 0.63685 -0.06816 0.37634
 O151 O 0.44238 -0.14680 0.37100
 O152 O 0.37496 -0.09402 0.43850
 C153 C 0.39228 -0.14127 0.39276
 O154 O 0.54720 0.14210 0.35151
 O155 O 0.61897 0.10036 0.42131
 C156 C 0.59830 0.13718 0.36724
 Zr157 Zr 0.48084 0.09822 0.40388
 O158 O 0.46927 0.11280 0.29442
 O159 O 0.46978 0.21533 0.41211
 Zr160 Zr 0.51187 -0.08676 0.40154
 O161 O 0.50343 -0.08529 0.29101
 O162 O 0.53787 -0.20076 0.40115
 Zr163 Zr 0.57861 0.02486 0.48793
 Zr164 Zr 0.41981 -0.01784 0.49402
 O165 O 0.44987 -0.00583 0.39148
 O166 O 0.54270 0.01821 0.38736
 O167 O 0.43296 0.09718 0.49310
 O168 O 0.56329 -0.08984 0.48770
 O169 O 0.52791 0.12185 0.48941
 O170 O 0.47022 -0.11607 0.49186
 H171 H 0.43422 -0.02004 0.63613
 H172 H 0.59417 -0.12697 0.48650
 H173 H 0.42467 -0.01075 0.35146
 H174 H 0.54571 0.17020 0.48814
 H175 H 0.52085 -0.23068 0.54628
 H176 H 0.51081 -0.22924 0.42728
 H177 H 0.52724 -0.04697 0.27185
 H178 H 0.47916 0.06432 0.27365
 H179 H 0.43543 0.22540 0.43734
 H180 H 0.46363 0.22660 0.61767
 H181 H 0.50924 0.05324 0.70627
 H182 H 0.52764 -0.14059 0.70557
 O183 O 0.55366 0.65503 0.10644
 O184 O 0.62664 0.59969 0.05164
 C185 C 0.60499 0.64459 0.09752
 O186 O 0.45680 0.34908 0.11612
 O187 O 0.38456 0.40393 0.05463
 C188 C 0.40560 0.35618 0.10034
 O189 O 0.60284 0.39545 0.11667
 O190 O 0.65009 0.47536 0.04630
 C191 C 0.64738 0.42429 0.09572
 O192 O 0.41058 0.62353 0.10327
 O193 O 0.36364 0.53132 0.05288
 C194 C 0.36753 0.58716 0.09415
 Zr195 Zr 0.48979 0.59474 0.07344
 O196 O 0.49278 0.58046 0.18380
 O197 O 0.47090 0.71009 0.08241
 Zr198 Zr 0.52230 0.41148 0.08002
 O199 O 0.52074 0.42121 0.19015
 O200 O 0.54741 0.29729 0.08881
 O201 O 0.55360 0.51628 0.08957
 O202 O 0.45998 0.49064 0.09144
 O203 O 0.40477 0.61395 -0.13180
 O204 O 0.35879 0.52991 -0.06472
 C205 C 0.36065 0.58390 -0.11094
 O206 O 0.59921 0.39710 -0.13711
 O207 O 0.64809 0.47683 -0.07231
 C208 C 0.64411 0.42728 -0.12000
 O209 O 0.45262 0.34798 -0.12629
 O210 O 0.38219 0.40393 -0.06596
 C211 C 0.40195 0.35499 -0.10881
 O212 O 0.55309 0.63940 -0.15170
 O213 O 0.62476 0.59862 -0.08094
 C214 C 0.60401 0.63495 -0.13525
 Zr215 Zr 0.48666 0.59412 -0.10142
 O216 O 0.47614 0.60149 -0.21147
 O217 O 0.47398 0.71152 -0.09991
 Zr218 Zr 0.51951 0.41014 -0.09651
 O219 O 0.51191 0.40764 -0.20706
 O220 O 0.54620 0.29630 -0.09367
 Zr221 Zr 0.58421 0.52484 -0.01307
 Zr222 Zr 0.42554 0.48092 -0.00861
 O223 O 0.45693 0.48954 -0.11081
 O224 O 0.54974 0.51464 -0.11400
 O225 O 0.43856 0.59615 -0.01296
 O226 O 0.56906 0.41006 -0.00927
 O227 O 0.53266 0.62126 -0.01605
 O228 O 0.47639 0.38314 -0.00641
 H229 H 0.43697 0.48471 0.13344
 H230 H 0.59976 0.37253 -0.00907
 H231 H 0.43257 0.48329 -0.15146
 H232 H 0.54969 0.67012 -0.01916
 H233 H 0.52599 0.27073 0.05436
 H234 H 0.52039 0.26876 -0.06452
 H235 H 0.53752 0.44287 -0.22752
 H236 H 0.49540 0.55716 -0.23052
 H237 H 0.43857 0.72235 -0.07743
 H238 H 0.47347 0.73275 0.03484
 H239 H 0.47948 0.62859 0.20295
 H240 H 0.52974 0.37055 0.21003
 C241 C 1.21359 0.23005 0.17725
 C242 C 1.20293 0.27153 0.11613
 C243 C 1.17130 0.22899 0.07704
 C244 C 1.16478 0.16549 0.11737
 O245 O 1.18971 0.16579 0.17848
 H246 H 1.21743 0.32578 0.10175
 H247 H 1.15326 0.24349 0.02644
 C248 C 1.21195 0.72701 0.67846
 C249 C 1.19950 0.77233 0.62017
 C250 C 1.16769 0.73186 0.57938
 C251 C 1.16291 0.66557 0.61604
 O252 O 1.18903 0.66221 0.67647
 H253 H 1.21317 0.82767 0.60856
 H254 H 1.14851 0.74934 0.53007
 C255 C 0.69488 0.22276 0.71757
 C256 C 0.64915 0.22075 0.75913
 C257 C 0.61100 0.19154 0.72039
 C258 C 0.63492 0.17482 0.65720
 O259 O 0.68669 0.19287 0.65499
 H260 H 0.64499 0.23434 0.81382
 H261 H 0.57048 0.18046 0.73794
 C262 C 0.69400 0.72811 0.21590
 C263 C 0.64668 0.72726 0.25443
 C264 C 0.60974 0.69926 0.21317
 C265 C 0.63596 0.68201 0.15164
 O266 O 0.68797 0.69859 0.15280
 H267 H 0.64049 0.74117 0.30875
 H268 H 0.56848 0.68907 0.22810
 C269 C 0.79250 -0.24166 0.19645
 C270 C 0.81908 -0.30265 0.16726
 C271 C 0.86264 -0.27550 0.13306
 C272 C 0.85928 -0.19968 0.14227
 O273 O 0.81673 -0.17868 0.18047
 H274 H 0.80922 -0.36054 0.17332
 H275 H 0.89335 -0.30714 0.10477
 C276 C 0.79256 0.25469 0.69311
 C277 C 0.81781 0.19559 0.65941
 C278 C 0.86012 0.22477 0.62405
 C279 C 0.85721 0.29988 0.63707
 O280 O 0.81625 0.31847 0.67877
 H281 H 0.80805 0.13750 0.66325
 H282 H 0.88993 0.19481 0.59290
 C283 C 0.30460 -0.24382 0.69201
 C284 C 0.33486 -0.30420 0.66650
 C285 C 0.37592 -0.27512 0.62979
 C286 C 0.36661 -0.19939 0.63268
 O287 O 0.32319 -0.17961 0.66939
 H288 H 0.32744 -0.36280 0.67398
 H289 H 0.40803 -0.30524 0.60256
 C290 C 0.30605 0.26190 0.19379
 C291 C 0.33769 0.20097 0.17209
 C292 C 0.37967 0.22912 0.13643
 C293 C 0.36976 0.30492 0.13571
 O294 O 0.32488 0.32557 0.16947
 H295 H 0.33055 0.14249 0.18116
 H296 H 0.41276 0.19820 0.11192
 C297 C 0.76835 0.18528 -0.19701
 C298 C 0.74113 0.12178 -0.17764
 C299 C 0.77211 0.08534 -0.12763
 C300 C 0.81684 0.12711 -0.12106
 O301 O 0.81510 0.18725 -0.16301
 H302 H 0.70390 0.10187 -0.19844
 H303 H 0.76482 0.03193 -0.10269
 C304 C 0.76406 0.69353 0.30669
 C305 C 0.73493 0.63284 0.32936
 C306 C 0.76622 0.59535 0.37840
 C307 C 0.81273 0.63384 0.38143
 O308 O 0.81186 0.69304 0.33836
 H309 H 0.69648 0.61462 0.31101
 H310 H 0.75791 0.54301 0.40477
 C311 C 0.26174 0.19452 0.29088
 C312 C 0.22383 0.15385 0.32678
 C313 C 0.25338 0.10707 0.37246
 C314 C 0.30651 0.12417 0.36129
 O315 O 0.31114 0.17732 0.31355
 H316 H 0.18029 0.15715 0.31982
 H317 H 0.23819 0.06585 0.40885
 C318 C 0.26363 0.68653 -0.21090
 C319 C 0.22711 0.64319 -0.17553
 C320 C 0.25821 0.59638 -0.13164
 C321 C 0.31080 0.61594 -0.14326
 O322 O 0.31371 0.67068 -0.18971
 H323 H 0.18350 0.64498 -0.18149
 H324 H 0.24434 0.55356 -0.09593
 C325 C 1.23013 -0.18452 -0.22967
 C326 C 1.26066 -0.12781 -0.20584
 C327 C 1.22639 -0.08549 -0.16589
 C328 C 1.17743 -0.11950 -0.16727
 O329 O 1.17963 -0.17976 -0.20563
 H330 H 1.30342 -0.12019 -0.21328
 H331 H 1.23648 -0.03706 -0.13684
 C332 C 1.22840 0.32241 0.26695
 C333 C 1.25785 0.38021 0.29071
 C334 C 1.22269 0.42188 0.32999
 C335 C 1.17431 0.38646 0.32841
 O336 O 1.17767 0.32594 0.29047
 H337 H 1.30062 0.38851 0.28440
 H338 H 1.23197 0.47039 0.35939
 C339 C 0.73511 -0.17320 0.28551
 C340 C 0.77052 -0.13810 0.32877
 C341 C 0.73906 -0.08726 0.36483
 C342 C 0.68684 -0.09487 0.34091
 O343 O 0.68505 -0.14444 0.29172
 H344 H 0.81304 -0.15262 0.33771
 H345 H 0.75190 -0.05418 0.40791
 C346 C 0.73910 0.31918 -0.21255
 C347 C 0.77590 0.35260 -0.16985
 C348 C 0.74604 0.40419 -0.13259
 C349 C 0.69337 0.39869 -0.15547
 O350 O 0.68977 0.34956 -0.20490
 H351 H 0.81841 0.33698 -0.16248
 H352 H 0.76017 0.43672 -0.08984
 C353 C 1.20956 0.22802 -0.19416
 C354 C 1.18290 0.28594 -0.16022
 C355 C 1.14168 0.25465 -0.12541
 C356 C 1.14725 0.17981 -0.13852
 O357 O 1.18850 0.16283 -0.17982
 H358 H 1.19177 0.34440 -0.16257
 H359 H 1.11127 0.28272 -0.09367
 C360 C 1.20509 0.70083 0.27232
 C361 C 1.17009 0.67571 0.22131
 C362 C 1.12837 0.64695 0.25582
 C363 C 1.14082 0.65328 0.32546
 O364 O 1.18734 0.68543 0.33659
 H365 H 1.17545 0.67736 0.16497
 H366 H 1.09383 0.62125 0.23310
 C367 C 0.69917 0.21744 0.26502
 C368 C 0.66685 0.19247 0.21182
 C369 C 0.62416 0.16247 0.24413
 C370 C 0.63426 0.16827 0.31471
 O371 O 0.68015 0.20033 0.32811
 H372 H 0.67384 0.19610 0.15588
 H373 H 0.59042 0.13691 0.21938
 C374 C 0.70204 0.72051 -0.23643
 C375 C 0.67165 0.69181 -0.28978
 C376 C 0.63036 0.65855 -0.25774
 C377 C 0.63951 0.66654 -0.18726
 O378 O 0.68334 0.70293 -0.17348
 H379 H 0.67921 0.69487 -0.34560
 H380 H 0.59816 0.62972 -0.28249
 C381 C 0.77692 -0.20336 -0.18716
 C382 C 0.74541 -0.16920 -0.13682
 C383 C 0.78096 -0.14020 -0.09193
 C384 C 0.83191 -0.15663 -0.11863
 O385 O 0.82964 -0.19462 -0.17694
 H386 H 0.70167 -0.16442 -0.13398
 H387 H 0.77076 -0.10796 -0.04635
 C388 C 0.77518 0.29111 0.31444
 C389 C 0.74326 0.32762 0.36301
 C390 C 0.77828 0.36014 0.40610
 C391 C 0.82937 0.34331 0.38015
 O392 O 0.82771 0.30187 0.32392
 H393 H 0.69950 0.33260 0.36517
 H394 H 0.76758 0.39521 0.44961
 C395 C 0.29047 -0.24670 0.31266
 C396 C 0.29776 -0.28727 0.37538
 C397 C 0.33675 -0.25321 0.41188
 C398 C 0.35253 -0.19537 0.36918
 O399 O 0.32470 -0.19088 0.30902
 H400 H 0.27818 -0.33718 0.39236
 H401 H 0.35236 -0.26911 0.46356
 C402 C 0.30547 0.25187 -0.19590
 C403 C 0.33194 0.19427 -0.15774
 C404 C 0.37149 0.22605 -0.12093
 C405 C 0.36562 0.30095 -0.13736
 O406 O 0.32548 0.31746 -0.18263
 H407 H 0.32328 0.13574 -0.15729
 H408 H 0.40087 0.19822 -0.08564
 C409 C 1.24555 -0.20573 0.20454
 C410 C 1.28170 -0.16930 0.16156
 C411 C 1.25028 -0.12414 0.11644
 C412 C 1.19744 -0.13559 0.13536
 O413 O 1.19489 -0.18250 0.18918
 H414 H 1.32532 -0.17789 0.16044
 H415 H 1.26415 -0.08982 0.07324
 C416 C 1.24151 0.30380 0.70620
 C417 C 1.27672 0.34571 0.66723
 C418 C 1.24472 0.38664 0.61991
 C419 C 1.19264 0.36545 0.63274
 O420 O 1.19083 0.31528 0.68426
 H421 H 1.32046 0.34457 0.67122
 H422 H 1.25783 0.42586 0.58013
 C423 C 0.74205 -0.18100 0.69231
 C424 C 0.77816 -0.14170 0.65233
 C425 C 0.74646 -0.09429 0.60938
 C426 C 0.69363 -0.10787 0.62719
 O427 O 0.69134 -0.15903 0.67748
 H428 H 0.82194 -0.14756 0.65371
 H429 H 0.76011 -0.05593 0.56922
 C430 C 0.74257 0.31427 0.19394
 C431 C 0.78011 0.35092 0.15387
 C432 C 0.75015 0.40090 0.11138
 C433 C 0.69689 0.39152 0.12980
 O434 O 0.69274 0.34035 0.17983
 H435 H 0.82369 0.34154 0.15475
 H436 H 0.76514 0.43785 0.07092
 C437 C 0.79115 0.18957 0.23124
 C438 C 0.79965 0.12663 0.27429
 C439 C 0.83131 0.07865 0.23726
 C440 C 0.84034 0.11569 0.17477
 O441 O 0.81673 0.18346 0.17078
 H442 H 0.78378 0.11693 0.32637
 H443 H 0.84804 0.02447 0.25481
 C444 C 0.79319 0.69573 0.73008
 C445 C 0.80390 0.63492 0.77522
 C446 C 0.83325 0.58494 0.73774
 C447 C 0.83877 0.61876 0.67291
 O448 O 0.81527 0.68651 0.66784
 H449 H 0.79067 0.62778 0.82889
 H450 H 0.85113 0.53180 0.75641
 C451 C 0.26926 0.17340 0.71120
 C452 C 0.23192 0.13174 0.67704
 C453 C 0.26150 0.08804 0.63209
 C454 C 0.31425 0.10764 0.64128
 O455 O 0.31883 0.15925 0.68838
 H456 H 0.18827 0.13527 0.68200
 H457 H 0.24634 0.04911 0.59531
 C458 C 0.28668 0.66955 0.21967
 C459 C 0.28886 0.59619 0.24567
 C460 C 0.31206 0.55463 0.19485
 C461 C 0.32422 0.60491 0.14242
 O462 O 0.30960 0.67449 0.15729
 H463 H 0.27392 0.57545 0.29532
 H464 H 0.32355 0.49574 0.19835
   
