data_POSCAR
  _audit_creation_date              2014-09-24
  _audit_creation_method            'ToBaCCo'
  _symmetry_space_group_name_H-M    'P1'
  _symmetry_Int_Tables_number       1
  _symmetry_cell_setting            triclinic
  loop_
  _symmetry_equiv_pos_as_xyz
 x,y,z
_cell_length_a 16.9679
_cell_length_b 16.7741
_cell_length_c 40.9430
_cell_angle_alpha 91.679600
_cell_angle_beta 90.483800
_cell_angle_gamma 119.303900
loop_
  _atom_site_label
  _atom_site_type_symbol
  _atom_site_fract_x
  _atom_site_fract_y
  _atom_site_fract_z
C1 C -0.03614 -0.08526 0.46528
 C2 C 0.02389 -0.04142 0.49179
 C3 C 0.04389 -0.09217 0.51362
 C4 C 0.00560 -0.18762 0.50907
 C5 C -0.05185 -0.22995 0.48134
 C6 C -0.07403 -0.18008 0.45937
 C7 C 0.06962 0.05870 0.49618
 C8 C 0.05194 0.09922 0.52344
 C9 C 0.10089 0.19416 0.52911
 C10 C 0.16817 0.24830 0.50732
 C11 C 0.18554 0.20856 0.47951
 C12 C 0.13520 0.11334 0.47408
 H13 H -0.04989 -0.04437 0.44857
 H14 H 0.08775 -0.05607 0.53451
 H15 H 0.00141 0.05668 0.54055
 H16 H 0.14655 0.08116 0.45274
 H17 H -0.08081 -0.30284 0.47712
 H18 H 0.20679 0.32157 0.51207
 C19 C 1.08014 -0.01421 0.14459
 C20 C 1.02893 0.00812 0.16581
 C21 C 1.07096 0.07110 0.19192
 C22 C 1.16417 0.11081 0.19734
 C23 C 1.21538 0.08760 0.17627
 C24 C 1.17446 0.02490 0.14941
 C25 C 0.93012 -0.04119 0.16217
 C26 C 0.87918 -0.10981 0.18386
 C27 C 0.78536 -0.16452 0.17918
 C28 C 0.74344 -0.14813 0.15231
 C29 C 0.79397 -0.07773 0.13093
 C30 C 0.88753 -0.02446 0.13599
 H31 H 1.04513 -0.06151 0.12422
 H32 H 1.03067 0.08658 0.20866
 H33 H 0.91387 -0.11955 0.20418
 H34 H 0.92750 0.02818 0.11910
 H35 H 1.28690 0.11667 0.18178
 H36 H 0.67131 -0.19040 0.14782
 C37 C 0.04458 0.99209 0.86064
 C38 C -0.00911 0.98672 0.83352
 C39 C -0.01887 0.92937 0.80647
 C40 C 0.02399 0.87637 0.80645
 C41 C 0.07497 0.87941 0.83412
 C42 C 0.08643 0.93744 0.86158
 C43 C -0.05702 1.03970 0.83363
 C44 C -0.03324 1.10978 0.81171
 C45 C -0.07953 1.15965 0.81104
 C46 C -0.15065 1.13739 0.83281
 C47 C -0.17795 1.06481 0.85447
 C48 C -0.12871 1.01729 0.85478
 H49 H 0.05046 1.03637 0.88142
 H50 H -0.05914 0.92674 0.78534
 H51 H 0.02018 1.12325 0.79499
 H52 H -0.14416 0.96348 0.87168
 H53 H 0.10792 0.83819 0.83354
 H54 H -0.18679 1.17535 0.83195
 O55 O 0.50613 -0.10979 0.02282
 O56 O 0.33480 -0.11159 -0.03077
 O57 O 0.49795 -0.08703 -0.03921
 O58 O 0.36010 -0.09933 0.03281
 O59 O 0.43386 0.05144 0.03675
 O60 O 0.55889 0.06314 -0.03594
 O61 O 0.39694 0.03857 -0.02632
 O62 O 0.57960 0.04111 0.02604
 Cu63 Cu 0.41783 -0.11637 -0.00405
 Cu64 Cu 0.49875 0.06307 0.00052
 C65 C 0.57277 -0.03554 0.03331
 C66 C 0.33512 -0.03868 -0.03796
 C67 C 0.55229 -0.00830 -0.04977
 C68 C 0.37596 -0.02450 0.04745
 O69 O 0.09231 0.64315 0.69371
 O70 O 0.11054 0.47557 0.64094
 O71 O 0.10090 0.62354 0.63057
 O72 O 0.07463 0.48233 0.70252
 O73 O -0.07305 0.41154 0.69365
 O74 O -0.04711 0.54656 0.62288
 O75 O -0.03734 0.39893 0.63269
 O76 O -0.05589 0.57171 0.68637
 Cu77 Cu 0.10903 0.56342 0.66768
 Cu78 Cu -0.06771 0.47541 0.65792
 C79 C 0.01628 0.63619 0.69977
 C80 C 0.04094 0.40850 0.62786
 C81 C 0.02994 0.60722 0.61420
 C82 C -0.00500 0.42288 0.71032
 O83 O 0.42331 0.48868 0.36790
 O84 O 0.53355 0.60400 0.29471
 O85 O 0.39073 0.44695 0.30516
 O86 O 0.58571 0.62215 0.35626
 O87 O 0.64545 0.53138 0.35332
 O88 O 0.45885 0.36360 0.30312
 O89 O 0.60199 0.52150 0.29011
 O90 O 0.48470 0.39941 0.36440
 Cu91 Cu 0.47708 0.54858 0.33137
 Cu92 Cu 0.55517 0.44776 0.32695
 C93 C 0.43245 0.42357 0.37851
 C94 C 0.58594 0.58321 0.27960
 C95 C 0.39239 0.37446 0.29571
 C96 C 0.64911 0.60492 0.36359
 C97 C -0.00433 0.21779 0.56581
 C98 C 0.08334 0.23663 0.55822
 C99 C 0.15503 0.30044 0.57862
 C100 C 0.13996 0.35221 0.60285
 C101 C 0.05296 0.34217 0.60692
 C102 C -0.01917 0.26980 0.58949
 C103 C -0.09441 0.26827 0.56983
 C104 C -0.07831 0.21119 0.54397
 H105 H 0.22344 0.31392 0.57463
 H106 H 0.19767 0.40429 0.61680
 H107 H -0.07819 0.33717 0.56162
 H108 H -0.16062 0.22983 0.58177
 H109 H -0.05286 0.24687 0.52074
 H110 H -0.13515 0.13988 0.54109
 C111 C 0.75672 0.70109 0.21433
 C112 C 0.73009 0.76226 0.20209
 C113 C 0.64428 0.74832 0.21112
 C114 C 0.59422 0.68494 0.23473
 C115 C 0.62783 0.63258 0.24977
 C116 C 0.70565 0.63651 0.23696
 C117 C 0.78642 0.64215 0.25373
 C118 C 0.84312 0.71421 0.22961
 H119 H 0.61835 0.79089 0.20173
 H120 H 0.53186 0.68135 0.24266
 H121 H 0.78951 0.57776 0.25036
 H122 H 0.79554 0.66937 0.27941
 H123 H 0.88055 0.69210 0.21284
 H124 H 0.88440 0.78202 0.24226
 C125 C 0.18356 0.01859 -0.08984
 C126 C 0.13776 -0.06008 -0.11057
 C127 C 0.14596 -0.13697 -0.10224
 C128 C 0.20640 -0.13055 -0.07736
 C129 C 0.26236 -0.04670 -0.06031
 C130 C 0.24535 0.02553 -0.06572
 C131 C 0.30879 0.12340 -0.07198
 C132 C 0.24165 0.11636 -0.09829
 H133 H 0.10684 -0.20241 -0.11513
 H134 H 0.21286 -0.19047 -0.07296
 H135 H 0.37408 0.13442 -0.08187
 H136 H 0.31475 0.16937 -0.05086
 H137 H 0.26809 0.12363 -0.12343
 H138 H 0.20925 0.15853 -0.09229
 C139 C -0.03806 0.66541 0.53427
 C140 C 0.02223 0.75950 0.53186
 C141 C 0.09822 0.79762 0.55393
 C142 C 0.10491 0.74654 0.57965
 C143 C 0.03518 0.65684 0.58439
 C144 C -0.03248 0.61643 0.55997
 C145 C -0.13268 0.56025 0.56219
 C146 C -0.13934 0.61370 0.53406
 H147 H 0.15206 0.86733 0.55210
 H148 H 0.16117 0.77946 0.59705
 H149 H -0.15883 0.57358 0.58533
 H150 H -0.15747 0.48691 0.55557
 H151 H -0.16907 0.65781 0.54097
 H152 H -0.16878 0.57045 0.51139
 C153 C 0.20352 0.25154 0.23245
 C154 C 0.20713 0.17066 0.22659
 C155 C 0.25600 0.14899 0.24914
 C156 C 0.31029 0.21310 0.27371
 C157 C 0.31767 0.30071 0.27602
 C158 C 0.25810 0.31563 0.25663
 C159 C 0.27615 0.39407 0.23581
 C160 C 0.21640 0.32407 0.20943
 H161 H 0.25685 0.08498 0.24644
 H162 H 0.35183 0.19649 0.28924
 H163 H 0.34828 0.43400 0.22904
 H164 H 0.24661 0.43553 0.24595
 H165 H 0.25380 0.32339 0.18734
 H166 H 0.15246 0.32519 0.20446
 C167 C 0.71549 0.10230 -0.11771
 C168 C 0.74662 0.04031 -0.12518
 C169 C 0.69738 -0.04758 -0.11169
 C170 C 0.62925 -0.06644 -0.08871
 C171 C 0.60934 0.00221 -0.07817
 C172 C 0.65016 0.08428 -0.09463
 C173 C 0.69522 0.18118 -0.08184
 C174 C 0.76696 0.20132 -0.10704
 H175 H 0.71145 -0.10215 -0.11827
 H176 H 0.59668 -0.13260 -0.07773
 H177 H 0.72160 0.18949 -0.05629
 H178 H 0.65384 0.21460 -0.08667
 H179 H 0.83459 0.22115 -0.09610
 H180 H 0.76689 0.24693 -0.12618
 C181 C 0.32023 0.06097 0.12536
 C182 C 0.22684 0.00226 0.12807
 C183 C 0.18873 -0.07907 0.10780
 C184 C 0.23912 -0.09213 0.08296
 C185 C 0.32819 -0.02375 0.07732
 C186 C 0.36863 0.04918 0.10040
 C187 C 0.42607 0.14963 0.09638
 C188 C 0.37327 0.16299 0.12370
 H189 H 0.11945 -0.13219 0.11028
 H190 H 0.20609 -0.15214 0.06670
 H191 H 0.41438 0.17248 0.07249
 H192 H 0.49809 0.17431 0.10324
 H193 H 0.33121 0.19320 0.11556
 H194 H 0.41546 0.19595 0.14616
 C195 C 0.81203 0.80752 0.41846
 C196 C 0.86778 0.77568 0.43189
 C197 C 0.86156 0.69579 0.41681
 C198 C 0.79378 0.64397 0.39319
 C199 C 0.72872 0.66906 0.38410
 C200 C 0.74342 0.75484 0.39551
 C201 C 0.67974 0.78224 0.41017
 C202 C 0.75430 0.83990 0.43525
 H203 H 0.90775 0.67153 0.42355
 H204 H 0.78945 0.58106 0.38359
 H205 H 0.62007 0.72395 0.42088
 H206 H 0.66387 0.82380 0.39346
 H207 H 0.73778 0.81527 0.46052
 H208 H 0.78106 0.91460 0.43297
 C209 C 0.03126 0.29755 0.77946
 C210 C -0.05782 0.23231 0.78700
 C211 C -0.12810 0.24211 0.77237
 C212 C -0.11002 0.30768 0.74885
 C213 C -0.02093 0.36586 0.73899
 C214 C 0.04903 0.36352 0.75646
 C215 C 0.13085 0.36191 0.74459
 C216 C 0.11113 0.28849 0.76908
 H217 H -0.19808 0.19553 0.77757
 H218 H -0.16676 0.30904 0.73711
 H219 H 0.19379 0.42717 0.75065
 H220 H 0.12329 0.33674 0.71870
 H221 H 0.16383 0.31075 0.78882
 H222 H 0.09246 0.22167 0.75659
 C223 C 0.76200 0.02371 0.09551
 C224 C 0.74969 -0.06302 0.10235
 C225 C 0.69190 -0.13694 0.08129
 C226 C 0.63898 -0.12596 0.05721
 C227 C 0.64184 -0.04094 0.05387
 C228 C 0.70883 0.03450 0.07187
 C229 C 0.70225 0.10628 0.09216
 C230 C 0.76052 0.09464 0.11796
 H231 H 0.68396 -0.20429 0.08462
 H232 H 0.59151 -0.18574 0.04272
 H233 H 0.63218 0.08408 0.10008
 H234 H 0.73680 0.17415 0.08088
 H235 H 0.72435 0.06580 0.14088
 H236 H 0.82860 0.15576 0.12147
 C237 C 0.31015 0.24052 0.43950
 C238 C 0.25414 0.26697 0.45591
 C239 C 0.26480 0.35324 0.44785
 C240 C 0.32570 0.40601 0.42363
 C241 C 0.37870 0.37479 0.40673
 C242 C 0.36994 0.29226 0.41662
 C243 C 0.39639 0.22202 0.40805
 C244 C 0.32972 0.16359 0.43407
 H245 H 0.22347 0.37856 0.45914
 H246 H 0.32888 0.46986 0.41750
 H247 H 0.46829 0.24536 0.41463
 H248 H 0.37466 0.19320 0.38270
 H249 H 0.36303 0.15334 0.45579
 H250 H 0.27109 0.10069 0.42334
 C251 C 0.09599 0.82595 0.76375
 C252 C 0.01855 0.82019 0.77716
 C253 C -0.06464 0.75612 0.76154
 C254 C -0.06702 0.69731 0.73519
 C255 C 0.01395 0.70269 0.72363
 C256 C 0.09383 0.77138 0.73828
 C257 C 0.19293 0.80487 0.74070
 C258 C 0.19543 0.86743 0.76940
 H259 H -0.12763 0.74864 0.77054
 H260 H -0.13178 0.64607 0.72485
 H261 H 0.22883 0.84262 0.71887
 H262 H 0.20837 0.75076 0.74826
 H263 H 0.23219 0.94140 0.76415
 H264 H 0.21341 0.84930 0.79315
   
