data_POSCAR
  _audit_creation_date              2014-09-24
  _audit_creation_method            'ToBaCCo'
  _symmetry_space_group_name_H-M    'P1'
  _symmetry_Int_Tables_number       1
  _symmetry_cell_setting            triclinic
  loop_
  _symmetry_equiv_pos_as_xyz
 x,y,z
_cell_length_a 32.1560
_cell_length_b 31.6211
_cell_length_c 31.3004
_cell_angle_alpha 90.751100
_cell_angle_beta 89.677200
_cell_angle_gamma 90.642000
loop_
  _atom_site_label
  _atom_site_type_symbol
  _atom_site_fract_x
  _atom_site_fract_y
  _atom_site_fract_z
N1 N 0.20556 0.19971 0.18510
 N2 N -0.21099 0.78321 0.23585
 N3 N -0.23055 0.22834 -0.23551
 N4 N 0.21484 0.79479 -0.19510
 N5 N 0.21791 1.20043 0.81694
 N6 N 0.78388 0.77586 0.76486
 N7 N 0.20517 0.80008 1.19261
 N8 N 0.78703 1.21776 1.23223
 O9 O 0.55210 0.96781 0.91228
 O10 O 0.47147 0.96153 1.08838
 O11 O 0.58567 0.93261 1.04265
 O12 O 0.47310 0.91868 0.96152
 O13 O 0.54845 0.96476 1.09206
 O14 O 0.47647 0.96428 0.91301
 O15 O 0.46633 0.91638 1.03774
 O16 O 0.57523 0.92742 0.96202
 C17 C 0.56905 0.93387 0.92343
 C18 C 0.46148 0.92503 1.07599
 C19 C 0.57445 0.93701 1.08076
 C20 C 0.46808 0.92718 0.92364
 O21 O 0.47444 1.04173 0.95170
 O22 O 0.54874 1.04464 1.07160
 O23 O 0.59919 1.00788 0.95700
 O24 O 0.42665 0.99189 1.03788
 O25 O 0.47015 1.04054 1.05858
 O26 O 0.54791 1.04782 0.94632
 O27 O 0.42922 0.99315 0.96173
 O28 O 0.59989 1.01421 1.03639
 Co29 Co 0.51296 1.00339 0.93675
 Co30 Co 0.50982 1.00124 1.07016
 Co31 Co 0.58258 0.97168 0.99938
 Co32 Co 0.45427 0.95726 0.99964
 O33 O 0.51532 0.98377 1.00205
 C34 C 0.43743 1.03097 0.95342
 C35 C 0.58647 1.04273 1.06155
 C36 C 0.58577 1.04259 0.94499
 C37 C 0.43362 1.02870 1.05207
 O38 O 0.03812 0.45936 0.06012
 O39 O 0.04207 0.53654 -0.05802
 O40 O -0.00452 0.41356 -0.05285
 O41 O -0.00159 0.58813 0.03043
 O42 O 0.04119 0.46098 -0.06265
 O43 O 0.04104 0.54007 0.05129
 O44 O -0.00174 0.58541 -0.04641
 O45 O 0.00163 0.41083 0.02553
 C46 C 0.03225 0.42166 0.04865
 C47 C 0.03456 0.57478 -0.05578
 C48 C 0.03229 0.42296 -0.06100
 C49 C 0.03332 0.57803 0.04521
 O50 O -0.03638 0.54316 0.08145
 O51 O -0.03791 0.46278 -0.09636
 O52 O -0.07685 0.43249 0.03383
 O53 O -0.07870 0.54772 -0.04477
 O54 O -0.03448 0.53924 -0.09467
 O55 O -0.03983 0.46429 0.08341
 O56 O -0.07985 0.55547 0.03183
 O57 O -0.08043 0.44550 -0.04564
 Co58 Co -0.00093 0.50188 0.06160
 Co59 Co 0.00078 0.49979 -0.07205
 Co60 Co -0.03819 0.43273 -0.00986
 Co61 Co -0.03867 0.56337 -0.00745
 O62 O -0.01902 0.49925 -0.00639
 C63 C -0.07137 0.55600 0.07032
 C64 C -0.07341 0.44995 -0.08444
 C65 C -0.07013 0.44089 0.07228
 C66 C -0.07034 0.54960 -0.08326
 O67 O 1.09916 0.03945 0.46126
 O68 O 0.92629 0.02912 0.54185
 O69 O 0.97429 0.07632 0.45694
 O70 O 1.05034 0.07547 0.57459
 O71 O 0.92801 0.02868 0.46486
 O72 O 1.10070 0.04192 0.54155
 O73 O 0.97305 0.07485 0.56091
 O74 O 1.04870 0.08098 0.44949
 C75 C 1.08633 0.07382 0.44712
 C76 C 0.93577 0.06555 0.55573
 C77 C 0.93723 0.06590 0.45514
 C78 C 1.08816 0.07098 0.56650
 O79 O 1.08261 -0.03877 0.54476
 O80 O 0.96862 -0.04685 0.46541
 O81 O 1.05028 0.00203 0.41514
 O82 O 0.96999 -0.00408 0.59145
 O83 O 0.96395 -0.04842 0.54069
 O84 O 1.07399 -0.04078 0.46263
 O85 O 1.04663 -0.00495 0.59410
 O86 O 0.97532 -0.00126 0.41679
 Co87 Co 1.08171 0.00186 0.50243
 Co88 Co 0.95224 -0.00714 0.50335
 Co89 Co 1.01209 0.03758 0.44055
 Co90 Co 1.00995 0.03369 0.57292
 O91 O 1.01459 0.01662 0.50516
 C92 C 1.07134 -0.03398 0.58293
 C93 C 0.96727 -0.03855 0.42711
 C94 C 1.06676 -0.03264 0.42449
 C95 C 0.96149 -0.04086 0.57925
 C96 C 1.16583 0.15903 0.30858
 C97 C 1.20832 0.15981 0.29777
 C98 C 1.22140 0.17348 0.25747
 C99 C 1.19229 0.18667 0.22716
 C100 C 1.14988 0.18592 0.23807
 C101 C 1.13682 0.17237 0.27826
 C102 C 1.15110 0.14195 0.35008
 C103 C 1.11699 0.16022 0.37133
 C104 C 1.09802 0.13980 0.40571
 C105 C 1.11288 0.10076 0.41972
 C106 C 1.14929 0.08444 0.40110
 C107 C 1.16818 0.10480 0.36649
 H108 H 1.25430 0.17385 0.24998
 H109 H 1.12670 0.19501 0.21509
 H110 H 1.07019 0.15331 0.41966
 H111 H 1.16133 0.05429 0.41104
 H112 H 1.10379 0.17112 0.28512
 H113 H 1.10376 0.18936 0.36009
 H114 H 1.23141 0.14987 0.32047
 H115 H 1.19436 0.08985 0.35077
 C116 C 0.87451 -0.14899 0.31490
 C117 C 0.83460 -0.15963 0.33025
 C118 C 0.80663 -0.18218 0.30441
 C119 C 0.81834 -0.19498 0.26311
 C120 C 0.85839 -0.18498 0.24793
 C121 C 0.88618 -0.16184 0.27350
 C122 C 0.90320 -0.12353 0.34188
 C123 C 0.92280 -0.08704 0.32585
 C124 C 0.94567 -0.06019 0.35305
 C125 C 0.94960 -0.06975 0.39653
 C126 C 0.93218 -0.10770 0.41175
 C127 C 0.90898 -0.13414 0.38477
 H128 H 0.77577 -0.18955 0.31639
 H129 H 0.86771 -0.19439 0.21592
 H130 H 0.95885 -0.03121 0.34048
 H131 H 0.93479 -0.11606 0.44507
 H132 H 0.91678 -0.15407 0.26107
 H133 H 0.91871 -0.07823 0.29284
 H134 H 0.82475 -0.14962 0.36191
 H135 H 0.89464 -0.16242 0.39766
 C136 C 0.82978 0.17068 0.65721
 C137 C 0.78620 0.16902 0.66108
 C138 C 0.76626 0.18898 0.69562
 C139 C 0.78952 0.21082 0.72692
 C140 C 0.83295 0.21303 0.72261
 C141 C 0.85281 0.19330 0.68819
 C142 C 0.85197 0.14643 0.62327
 C143 C 0.88845 0.16307 0.60475
 C144 C 0.91426 0.13740 0.57988
 C145 C 0.90392 0.09466 0.57260
 C146 C 0.86556 0.07903 0.58756
 C147 C 0.83984 0.10467 0.61288
 H148 H 0.73273 0.18685 0.69843
 H149 H 0.85166 0.22884 0.74676
 H150 H 0.94342 0.15039 0.56819
 H151 H 0.85691 0.04615 0.58246
 H152 H 0.88646 0.19431 0.68684
 H153 H 0.89808 0.19543 0.61126
 H154 H 0.76763 0.15197 0.63766
 H155 H 0.81200 0.09087 0.62675
 C156 C 1.15115 -0.13564 0.71018
 C157 C 1.17262 -0.11449 0.74327
 C158 C 1.19431 -0.13728 0.77373
 C159 C 1.19470 -0.18164 0.77186
 C160 C 1.17348 -0.20285 0.73874
 C161 C 1.15206 -0.18006 0.70803
 C162 C 1.12833 -0.11132 0.67779
 C163 C 1.13210 -0.12167 0.63419
 C164 C 1.11262 -0.09724 0.60345
 C165 C 1.08865 -0.06212 0.61566
 C166 C 1.08372 -0.05265 0.65939
 C167 C 1.10353 -0.07688 0.69012
 H168 H 1.21020 -0.12041 0.79927
 H169 H 1.17336 -0.23707 0.73696
 H170 H 1.11702 -0.10541 0.57003
 H171 H 1.06545 -0.02583 0.66985
 H172 H 1.13558 -0.19716 0.68303
 H173 H 1.15120 -0.14788 0.62379
 H174 H 1.17287 -0.08027 0.74537
 H175 H 1.09966 -0.06857 0.72357
 C176 C 0.30013 1.13013 1.12096
 C177 C 0.30955 1.16883 1.14181
 C178 C 0.27834 1.19197 1.16237
 C179 C 0.23749 1.17637 1.16339
 C180 C 0.22777 1.13798 1.14295
 C181 C 0.25859 1.11539 1.12131
 C182 C 0.33356 1.10446 1.10048
 C183 C 0.33080 1.06000 1.10008
 C184 C 0.36271 1.03567 1.08269
 C185 C 0.39871 1.05509 1.06634
 C186 C 0.40167 1.09933 1.06610
 C187 C 0.36915 1.12383 1.08247
 H188 H 0.28606 1.22162 1.17828
 H189 H 0.19610 1.12596 1.14330
 H190 H 0.35998 1.00151 1.08369
 H191 H 0.42910 1.11489 1.05324
 H192 H 0.24969 1.08645 1.10478
 H193 H 0.30461 1.04368 1.11447
 H194 H 0.34113 1.18091 1.14314
 H195 H 0.37209 1.15790 1.08116
 C196 C 0.33656 0.83475 0.84311
 C197 C 0.32611 0.83238 0.79961
 C198 C 0.28656 0.81827 0.78706
 C199 C 0.25658 0.80655 0.81773
 C200 C 0.26729 0.80845 0.86115
 C201 C 0.30683 0.82219 0.87367
 C202 C 0.37683 0.85341 0.85729
 C203 C 0.39794 0.83631 0.89211
 C204 C 0.43080 0.85855 0.91127
 C205 C 0.44310 0.89844 0.89607
 C206 C 0.42472 0.91359 0.85872
 C207 C 0.39183 0.89126 0.83950
 H208 H 0.27911 0.81695 0.75338
 H209 H 0.24461 0.80047 0.88552
 H210 H 0.44458 0.84589 0.93983
 H211 H 0.43349 0.94425 0.84631
 H212 H 0.31360 0.82459 0.90748
 H213 H 0.38760 0.80675 0.90593
 H214 H 0.34841 0.84175 0.77538
 H215 H 0.37615 0.90526 0.81271
 C216 C 0.67952 0.84318 1.19107
 C217 C 0.71328 0.86753 1.20614
 C218 C 0.74856 0.84800 1.22215
 C219 C 0.75081 0.80361 1.22374
 C220 C 0.71595 0.77941 1.21104
 C221 C 0.68079 0.79896 1.19461
 C222 C 0.64589 0.86366 1.16687
 C223 C 0.63424 0.84694 1.12687
 C224 C 0.60872 0.86982 1.09996
 C225 C 0.59383 0.90966 1.11266
 C226 C 0.60278 0.92504 1.15391
 C227 C 0.62895 0.90236 1.18070
 H228 H 0.77483 0.86767 1.23143
 H229 H 0.71646 0.74524 1.21261
 H230 H 0.60214 0.85720 1.06834
 H231 H 0.59183 0.95579 1.16432
 H232 H 0.65501 0.77947 1.18354
 H233 H 0.64710 0.81744 1.11517
 H234 H 0.71343 0.90162 1.20324
 H235 H 0.63728 0.91579 1.21153
 C236 C 0.69019 1.15274 0.84336
 C237 C 0.68178 1.19581 0.83718
 C238 C 0.70681 1.22015 0.81007
 C239 C 0.74106 1.20216 0.78890
 C240 C 0.74905 1.15897 0.79444
 C241 C 0.72382 1.13454 0.82117
 C242 C 0.66387 1.12671 0.87243
 C243 C 0.68149 1.09473 0.89720
 C244 C 0.65634 1.06833 0.92217
 C245 C 0.61306 1.07360 0.92323
 C246 C 0.59561 1.10670 0.90001
 C247 C 0.62068 1.13280 0.87476
 H248 H 0.70010 1.25337 0.80633
 H249 H 0.77547 1.14433 0.77888
 H250 H 0.67066 1.04325 0.93994
 H251 H 0.56230 1.11144 0.89999
 H252 H 0.73070 1.10130 0.82440
 H253 H 0.71475 1.08979 0.89699
 H254 H 0.65641 1.21101 0.85401
 H255 H 0.60594 1.15675 0.85584
 C256 C 0.13892 0.29549 0.12049
 C257 C 0.14893 0.30025 0.16398
 C258 C 0.17141 0.26924 0.18483
 C259 C 0.18423 0.23268 0.16277
 C260 C 0.17503 0.22835 0.11902
 C261 C 0.15248 0.25936 0.09815
 C262 C 0.11363 0.32778 0.09900
 C263 C 0.08130 0.31578 0.07112
 C264 C 0.05545 0.34629 0.05362
 C265 C 0.06150 0.38935 0.06369
 C266 C 0.09485 0.40133 0.09026
 C267 C 0.12057 0.37093 0.10769
 H268 H 0.17847 0.27350 0.21840
 H269 H 0.18445 0.20058 0.10107
 H270 H 0.03015 0.33607 0.03311
 H271 H 0.10066 0.43426 0.09837
 H272 H 0.14566 0.25509 0.06451
 H273 H 0.07507 0.28272 0.06401
 H274 H 0.13855 0.32755 0.18218
 H275 H 0.14573 0.38118 0.12836
 C276 C -0.17929 0.34238 -0.18235
 C277 C -0.18567 0.33859 -0.22657
 C278 C -0.20398 0.30184 -0.24390
 C279 C -0.21543 0.26796 -0.21739
 C280 C -0.20930 0.27220 -0.17312
 C281 C -0.19179 0.30904 -0.15582
 C282 C -0.15664 0.37901 -0.16339
 C283 C -0.17076 0.39707 -0.12486
 C284 C -0.14481 0.42377 -0.10099
 C285 C -0.10417 0.43284 -0.11515
 C286 C -0.09164 0.41850 -0.15585
 C287 C -0.11775 0.39167 -0.17984
 H288 H -0.20838 0.29936 -0.27811
 H289 H -0.21677 0.24642 -0.15190
 H290 H -0.15551 0.43491 -0.06999
 H291 H -0.06050 0.42503 -0.16753
 H292 H -0.18635 0.31072 -0.12172
 H293 H -0.20091 0.38835 -0.11189
 H294 H -0.17616 0.36385 -0.24765
 H295 H -0.10616 0.37810 -0.20948
 C296 C 0.14452 0.70153 -0.12696
 C297 C 0.12547 0.73817 -0.14220
 C298 C 0.14853 0.76864 -0.16412
 C299 C 0.19119 0.76313 -0.17203
 C300 C 0.21034 0.72646 -0.15707
 C301 C 0.18734 0.69612 -0.13456
 C302 C 0.11924 0.66874 -0.10458
 C303 C 0.12712 0.62542 -0.11103
 C304 C 0.10076 0.59471 -0.09336
 C305 C 0.06564 0.60668 -0.06943
 C306 C 0.05864 0.64981 -0.06155
 C307 C 0.08537 0.68045 -0.07850
 H308 H 0.13291 0.79667 -0.17493
 H309 H 0.24311 0.72129 -0.16293
 H310 H 0.10681 0.56166 -0.10011
 H311 H 0.03191 0.65993 -0.04306
 H312 H 0.20317 0.66855 -0.12296
 H313 H 0.15259 0.61514 -0.13123
 H314 H 0.09245 0.74309 -0.13790
 H315 H 0.07895 0.71341 -0.07181
 C316 C -0.16564 0.67213 0.17357
 C317 C -0.16430 0.67622 0.21835
 C318 C -0.18018 0.71218 0.23883
 C319 C -0.19802 0.74455 0.21503
 C320 C -0.20037 0.74008 0.17047
 C321 C -0.18435 0.70429 0.14995
 C322 C -0.14485 0.63639 0.15106
 C323 C -0.16162 0.61921 0.11316
 C324 C -0.13878 0.59075 0.08818
 C325 C -0.09884 0.57857 0.10075
 C326 C -0.08341 0.59310 0.14024
 C327 C -0.10610 0.62188 0.16507
 H328 H -0.17809 0.71514 0.27326
 H329 H -0.21325 0.76505 0.15144
 H330 H -0.15164 0.57973 0.05807
 H331 H -0.05266 0.58436 0.15069
 H332 H -0.18508 0.70272 0.11540
 H333 H -0.19181 0.62893 0.10200
 H334 H -0.15049 0.65187 0.23751
 H335 H -0.09210 0.63466 0.19390
 C336 C 1.18514 0.15711 0.69337
 C337 C 1.20070 0.12902 0.72363
 C338 C 1.21288 0.14355 0.76405
 C339 C 1.20961 0.18671 0.77567
 C340 C 1.19610 0.21506 0.74428
 C341 C 1.18411 0.20046 0.70378
 C342 C 1.16534 0.14043 0.65362
 C343 C 1.12724 0.15700 0.64034
 C344 C 1.10384 0.13631 0.60888
 C345 C 1.11793 0.09857 0.58987
 C346 C 1.15770 0.08403 0.60016
 C347 C 1.18117 0.10474 0.63189
 H348 H 1.22244 0.12044 0.78715
 H349 H 1.19443 0.24863 0.75129
 H350 H 1.07335 0.14837 0.60147
 H351 H 1.16929 0.05495 0.58612
 H352 H 1.17303 0.22305 0.68089
 H353 H 1.11388 0.18417 0.65647
 H354 H 1.20122 0.09533 0.71704
 H355 H 1.21077 0.09162 0.64090
 C356 C 0.86758 -0.15393 0.68667
 C357 C 0.82749 -0.16453 0.67198
 C358 C 0.80018 -0.18806 0.69742
 C359 C 0.81272 -0.20185 0.73764
 C360 C 0.85300 -0.19201 0.75206
 C361 C 0.88014 -0.16795 0.72691
 C362 C 0.89560 -0.12735 0.66033
 C363 C 0.91579 -0.09166 0.67813
 C364 C 0.93877 -0.06419 0.65213
 C365 C 0.94230 -0.07229 0.60804
 C366 C 0.92387 -0.10923 0.59079
 C367 C 0.90055 -0.13629 0.61662
 H368 H 0.76914 -0.19527 0.68605
 H369 H 0.86297 -0.20217 0.78324
 H370 H 0.95270 -0.03601 0.66626
 H371 H 0.92609 -0.11642 0.55693
 H372 H 0.91091 -0.16031 0.73881
 H373 H 0.91231 -0.08406 0.71179
 H374 H 0.81695 -0.15369 0.64124
 H375 H 0.88571 -0.16389 0.60229
 C376 C 1.14360 -0.13373 0.29167
 C377 C 1.13872 -0.17772 0.28736
 C378 C 1.15954 -0.19982 0.25486
 C379 C 1.18621 -0.17852 0.22605
 C380 C 1.19175 -0.13444 0.23145
 C381 C 1.17053 -0.11240 0.26361
 C382 C 1.12075 -0.10988 0.32525
 C383 C 1.10115 -0.07179 0.31539
 C384 C 1.08196 -0.04769 0.34740
 C385 C 1.08235 -0.06093 0.39009
 C386 C 1.10067 -0.09981 0.39972
 C387 C 1.11952 -0.12416 0.36755
 H388 H 1.15503 -0.23375 0.25233
 H389 H 1.21132 -0.11668 0.20969
 H390 H 1.06798 -0.01798 0.33888
 H391 H 1.10139 -0.11090 0.43230
 H392 H 1.17521 -0.07851 0.26658
 H393 H 1.10109 -0.06042 0.28289
 H394 H 1.11816 -0.19491 0.30864
 H395 H 1.13447 -0.15339 0.37599
 C396 C 0.83498 0.16005 0.34218
 C397 C 0.82126 0.13543 0.30728
 C398 C 0.80477 0.15442 0.27124
 C399 C 0.80125 0.19884 0.26891
 C400 C 0.81394 0.22328 0.30478
 C401 C 0.83070 0.20414 0.34077
 C402 C 0.85694 0.13970 0.37796
 C403 C 0.89436 0.15720 0.39347
 C404 C 0.91915 0.13440 0.42132
 C405 C 0.90698 0.09369 0.43428
 C406 C 0.86798 0.07767 0.42159
 C407 C 0.84326 0.10041 0.39358
 H408 H 0.79664 0.13425 0.24428
 H409 H 0.81086 0.25734 0.30500
 H410 H 0.94900 0.14765 0.43069
 H411 H 0.85769 0.04647 0.43121
 H412 H 0.84065 0.22389 0.36742
 H413 H 0.90585 0.18728 0.38189
 H414 H 0.82502 0.10144 0.30698
 H415 H 0.81420 0.08648 0.38272
 C416 C 0.14316 0.29376 -0.12441
 C417 C 0.12576 0.26382 -0.15279
 C418 C 0.15047 0.23306 -0.17230
 C419 C 0.19351 0.23110 -0.16391
 C420 C 0.21070 0.26114 -0.13500
 C421 C 0.18590 0.29221 -0.11579
 C422 C 0.11652 0.32667 -0.10448
 C423 C 0.12951 0.36927 -0.10300
 C424 C 0.10266 0.40065 -0.08771
 C425 C 0.06241 0.38993 -0.07348
 C426 C 0.05021 0.34713 -0.07322
 C427 C 0.07691 0.31589 -0.08864
 H428 H 0.13559 0.21005 -0.19328
 H429 H 0.24364 0.26119 -0.12800
 H430 H 0.11296 0.43337 -0.08811
 H431 H 0.01958 0.33780 -0.06198
 H432 H 0.20007 0.31483 -0.09390
 H433 H 0.15984 0.37848 -0.11514
 H434 H 0.09294 0.26445 -0.16030
 H435 H 0.06637 0.28323 -0.08867
 C436 C -0.16103 0.33068 0.18430
 C437 C -0.20415 0.32308 0.18248
 C438 C -0.22153 0.28622 0.19941
 C439 C -0.19641 0.25605 0.21933
 C440 C -0.15353 0.26519 0.22351
 C441 C -0.13612 0.30184 0.20605
 C442 C -0.14155 0.36542 0.15924
 C443 C -0.10548 0.38684 0.17358
 C444 C -0.08353 0.41418 0.14642
 C445 C -0.09722 0.42037 0.10445
 C446 C -0.13483 0.40139 0.09135
 C447 C -0.15664 0.37424 0.11830
 H448 H -0.25475 0.28100 0.19659
 H449 H -0.13290 0.24262 0.23782
 H450 H -0.05465 0.42840 0.15738
 H451 H -0.14635 0.40570 0.05926
 H452 H -0.10272 0.30626 0.20746
 H453 H -0.09340 0.38125 0.20519
 H454 H -0.22441 0.34512 0.16685
 H455 H -0.18393 0.35808 0.10586
 C456 C -0.16903 0.66383 -0.17961
 C457 C -0.16821 0.66899 -0.22416
 C458 C -0.18484 0.70517 -0.24244
 C459 C -0.20284 0.73673 -0.21661
 C460 C -0.20476 0.73110 -0.17226
 C461 C -0.18806 0.69506 -0.15396
 C462 C -0.14716 0.62812 -0.15937
 C463 C -0.16317 0.60959 -0.12206
 C464 C -0.13925 0.58148 -0.09879
 C465 C -0.09891 0.57108 -0.11249
 C466 C -0.08423 0.58679 -0.15160
 C467 C -0.10806 0.61517 -0.17473
 H468 H -0.18307 0.70899 -0.27673
 H469 H -0.21772 0.75542 -0.15167
 H470 H -0.15153 0.56951 -0.06895
 H471 H -0.05322 0.57940 -0.16290
 H472 H -0.18842 0.69263 -0.11949
 H473 H -0.19358 0.61812 -0.10992
 H474 H -0.15416 0.64538 -0.24483
 H475 H -0.09464 0.62899 -0.20318
 C476 C 0.13782 0.70738 0.12237
 C477 C 0.11768 0.74269 0.14017
 C478 C 0.13990 0.77328 0.16338
 C479 C 0.18311 0.76946 0.16998
 C480 C 0.20309 0.73370 0.15222
 C481 C 0.18082 0.70331 0.12861
 C482 C 0.11359 0.67432 0.09876
 C483 C 0.12285 0.63128 0.10339
 C484 C 0.09786 0.60004 0.08429
 C485 C 0.06277 0.61108 0.06048
 C486 C 0.05436 0.65407 0.05450
 C487 C 0.07965 0.68533 0.07316
 H488 H 0.12323 0.80054 0.17546
 H489 H 0.23599 0.72888 0.15712
 H490 H 0.10512 0.56717 0.08963
 H491 H 0.02758 0.66359 0.03631
 H492 H 0.19741 0.67665 0.11512
 H493 H 0.14840 0.62157 0.12323
 H494 H 0.08447 0.74654 0.13667
 H495 H 0.07217 0.71818 0.06810
 C496 C 0.31142 1.13837 0.88492
 C497 C 0.31758 1.14917 0.84199
 C498 C 0.28687 1.17032 0.81965
 C499 C 0.24921 1.18174 0.83978
 C500 C 0.24383 1.17197 0.88342
 C501 C 0.27440 1.15013 0.90553
 C502 C 0.34315 1.11346 0.90725
 C503 C 0.33185 1.07664 0.92937
 C504 C 0.36244 1.05032 0.94578
 C505 C 0.40476 1.06070 0.94072
 C506 C 0.41584 1.09876 0.92069
 C507 C 0.38536 1.12470 0.90388
 H508 H 0.29257 1.17791 0.78648
 H509 H 0.21514 1.17951 0.89996
 H510 H 0.35307 1.02134 0.96139
 H511 H 0.44820 1.10773 0.91651
 H512 H 0.26904 1.14220 0.93868
 H513 H 0.29947 1.06727 0.93227
 H514 H 0.34581 1.14021 0.82531
 H515 H 0.39479 1.15318 0.88739
 C516 C 0.32642 0.83712 1.15510
 C517 C 0.29701 0.82390 1.12458
 C518 C 0.25712 0.81114 1.13697
 C519 C 0.24526 0.81100 1.18047
 C520 C 0.27527 0.82366 1.21104
 C521 C 0.31522 0.83656 1.19850
 C522 C 0.36723 0.85456 1.14093
 C523 C 0.38311 0.89217 1.15929
 C524 C 0.41682 0.91328 1.14043
 C525 C 0.43512 0.89726 1.10277
 C526 C 0.42175 0.85767 1.08681
 C527 C 0.38816 0.83654 1.10573
 H528 H 0.23493 0.80311 1.11220
 H529 H 0.26786 0.82330 1.24483
 H530 H 0.42635 0.94377 1.15342
 H531 H 0.43542 0.84437 1.05801
 H532 H 0.33733 0.84629 1.22278
 H533 H 0.36762 0.90695 1.18631
 H534 H 0.30426 0.82507 1.09078
 H535 H 0.37721 0.80710 1.09149
 C536 C 0.70098 1.15155 1.15429
 C537 C 0.73386 1.17456 1.13588
 C538 C 0.76183 1.19736 1.16162
 C539 C 0.75811 1.19713 1.20667
 C540 C 0.72464 1.17425 1.22479
 C541 C 0.69647 1.15193 1.19897
 C542 C 0.67158 1.12663 1.12731
 C543 C 0.62876 1.12791 1.13589
 C544 C 0.60112 1.10199 1.11311
 C545 C 0.61564 1.07383 1.08133
 C546 C 0.65837 1.07366 1.07156
 C547 C 0.68608 1.09998 1.09424
 H548 H 0.78739 1.21392 1.14631
 H549 H 0.72014 1.17389 1.25910
 H550 H 0.56842 1.10313 1.12144
 H551 H 0.67053 1.05239 1.04726
 H552 H 0.67149 1.13425 1.21404
 H553 H 0.61667 1.14861 1.16074
 H554 H 0.73789 1.17497 1.10151
 H555 H 0.71901 1.09831 1.08707
 C556 C 0.67485 0.83607 0.81383
 C557 C 0.70879 0.86026 0.79917
 C558 C 0.74397 0.84064 0.78220
 C559 C 0.74603 0.79625 0.77915
 C560 C 0.71122 0.77214 0.79199
 C561 C 0.67612 0.79182 0.80945
 C562 C 0.64060 0.85705 0.83765
 C563 C 0.62739 0.84107 0.87717
 C564 C 0.60149 0.86487 0.90390
 C565 C 0.58798 0.90499 0.89150
 C566 C 0.59828 0.91941 0.85048
 C567 C 0.62460 0.89575 0.82389
 H568 H 0.77022 0.86028 0.77302
 H569 H 0.71159 0.73797 0.78940
 H570 H 0.59386 0.85287 0.93527
 H571 H 0.58833 0.95020 0.84008
 H572 H 0.65025 0.77243 0.82025
 H573 H 0.63939 0.81150 0.88875
 H574 H 0.70903 0.89437 0.80280
 H575 H 0.63393 0.90855 0.79333
   
