data_POSCAR
  _audit_creation_date              2014-09-24
  _audit_creation_method            'ToBaCCo'
  _symmetry_space_group_name_H-M    'P1'
  _symmetry_Int_Tables_number       1
  _symmetry_cell_setting            triclinic
  loop_
  _symmetry_equiv_pos_as_xyz
 x,y,z
_cell_length_a 19.4624
_cell_length_b 19.2474
_cell_length_c 19.6266
_cell_angle_alpha 89.797700
_cell_angle_beta 90.003000
_cell_angle_gamma 89.350900
loop_
  _atom_site_label
  _atom_site_type_symbol
  _atom_site_fract_x
  _atom_site_fract_y
  _atom_site_fract_z
C1 C 0.16453 0.19444 0.25920
 C2 C 0.15642 0.24640 0.21042
 C3 C 0.20232 0.25176 0.15672
 C4 C 0.25881 0.20583 0.15275
 C5 C 0.26980 0.15810 0.20482
 C6 C 0.22106 0.15050 0.25714
 C7 C 0.11985 0.16953 0.30715
 N8 N 0.14791 0.11145 0.33468
 C9 C 0.20975 0.09883 0.30481
 C10 C 0.32623 0.11911 0.18727
 N11 N 0.34805 0.13884 0.12430
 C12 C 0.30646 0.19138 0.10206
 C13 C 0.17675 0.30273 0.11403
 N14 N 0.11785 0.32810 0.14185
 C15 C 0.10433 0.29345 0.19998
 H16 H 0.06895 0.18962 0.31833
 H17 H 0.24145 0.05305 0.31352
 H18 H 0.34553 0.07437 0.21532
 H19 H 0.30939 0.21591 0.05254
 H20 H 0.19805 0.31892 0.06571
 H21 H 0.05861 0.30025 0.23078
 C22 C -0.16770 0.80161 0.26172
 C23 C -0.15940 0.74973 0.21301
 C24 C -0.20445 0.74543 0.15847
 C25 C -0.26021 0.79208 0.15349
 C26 C -0.27110 0.83999 0.20504
 C27 C -0.22305 0.84694 0.25798
 C28 C -0.12269 0.82696 0.30904
 N29 N -0.14910 0.88680 0.33439
 C30 C -0.21012 0.90021 0.30315
 C31 C -0.32678 0.87966 0.18658
 N32 N -0.34836 0.85997 0.12368
 C33 C -0.30706 0.80711 0.10210
 C34 C -0.17843 0.69531 0.11551
 N35 N -0.11991 0.66935 0.14369
 C36 C -0.10714 0.70278 0.20252
 H37 H -0.07148 0.80705 0.31941
 H38 H -0.23946 0.94809 0.30805
 H39 H -0.34603 0.92450 0.21422
 H40 H -0.30989 0.78254 0.05273
 H41 H -0.19892 0.68045 0.06652
 H42 H -0.06162 0.69554 0.23358
 C43 C -0.16935 0.20171 -0.26379
 C44 C -0.16127 0.25333 -0.21493
 C45 C -0.20677 0.25864 -0.16063
 C46 C -0.26271 0.21310 -0.15608
 C47 C -0.27317 0.16601 -0.20818
 C48 C -0.22513 0.15828 -0.26086
 C49 C -0.12349 0.17389 -0.30954
 N50 N -0.15021 0.11473 -0.33479
 C51 C -0.21212 0.10409 -0.30513
 C52 C -0.32724 0.12578 -0.18996
 N53 N -0.34891 0.14395 -0.12656
 C54 C -0.30912 0.19706 -0.10453
 C55 C -0.17942 0.30626 -0.11637
 N56 N -0.11989 0.32992 -0.14348
 C57 C -0.10765 0.29707 -0.20285
 H58 H -0.07173 0.19163 -0.31885
 H59 H -0.24187 0.05713 -0.31000
 H60 H -0.34509 0.08132 -0.21845
 H61 H -0.31198 0.22045 -0.05455
 H62 H -0.19879 0.31939 -0.06629
 H63 H -0.06088 0.30113 -0.23243
 C64 C 0.16615 0.80263 -0.26110
 C65 C 0.15820 0.75099 -0.21215
 C66 C 0.20469 0.74443 -0.15883
 C67 C 0.26154 0.78899 -0.15547
 C68 C 0.27223 0.83569 -0.20824
 C69 C 0.22341 0.84417 -0.26025
 C70 C 0.12050 0.83036 -0.30723
 N71 N 0.14915 0.88736 -0.33507
 C72 C 0.21217 0.89659 -0.30728
 C73 C 0.32720 0.87517 -0.19097
 N74 N 0.34898 0.85713 -0.12741
 C75 C 0.30878 0.80446 -0.10464
 C76 C 0.17777 0.69599 -0.11475
 N77 N 0.11780 0.67300 -0.14143
 C78 C 0.10471 0.70723 -0.20002
 H79 H 0.06881 0.81287 -0.31703
 H80 H 0.24454 0.94109 -0.31635
 H81 H 0.34521 0.91945 -0.21993
 H82 H 0.31157 0.78136 -0.05439
 H83 H 0.19805 0.68138 -0.06533
 H84 H 0.05765 0.70368 -0.22921
 C85 C 0.20160 1.16756 0.73125
 C86 C 0.25114 1.15887 0.78227
 C87 C 0.24937 1.20032 0.83972
 C88 C 0.19976 1.25356 0.84517
 C89 C 0.15181 1.26305 0.79340
 C90 C 0.14971 1.21660 0.73791
 C91 C 0.18626 1.12693 0.67657
 N92 N 0.12366 1.14587 0.65158
 C93 C 0.10032 1.20098 0.68886
 C94 C 0.11201 1.31940 0.81138
 N95 N 0.13260 1.34289 0.87350
 C96 C 0.18498 1.30151 0.89568
 C97 C 0.29784 1.17380 0.88426
 N98 N 0.32835 1.11773 0.85486
 C99 C 0.30020 1.10790 0.79272
 H100 H 0.21515 1.08106 0.66136
 H101 H 0.05034 1.22550 0.68319
 H102 H 0.06852 1.33964 0.78280
 H103 H 0.21098 1.30652 0.94409
 H104 H 0.30812 1.19189 0.93526
 H105 H 0.31175 1.06449 0.75951
 C106 C 0.79919 0.83594 0.72966
 C107 C 0.74948 0.84482 0.78075
 C108 C 0.75110 0.80318 0.83848
 C109 C 0.80054 0.74990 0.84454
 C110 C 0.84863 0.74035 0.79309
 C111 C 0.85095 0.78674 0.73715
 C112 C 0.81478 0.87578 0.67383
 N113 N 0.87735 0.85612 0.64926
 C114 C 0.90047 0.80173 0.68803
 C115 C 0.88791 0.68358 0.81153
 N116 N 0.86681 0.65992 0.87364
 C117 C 0.81464 0.70164 0.89535
 C118 C 0.70240 0.82913 0.88279
 N119 N 0.67165 0.88512 0.85325
 C120 C 0.70001 0.89551 0.79110
 H121 H 0.78640 0.92172 0.65761
 H122 H 0.95038 0.77700 0.68304
 H123 H 0.93120 0.66292 0.78309
 H124 H 0.78819 0.69654 0.94356
 H125 H 0.69214 0.81070 0.93384
 H126 H 0.68829 0.93903 0.75779
 C127 C 0.20671 0.83176 1.27165
 C128 C 0.25709 0.83846 1.22117
 C129 C 0.25636 0.79551 1.16469
 C130 C 0.20627 0.74410 1.15893
 C131 C 0.15605 0.73864 1.20879
 C132 C 0.15429 0.78468 1.26422
 C133 C 0.19062 0.87292 1.32605
 N134 N 0.12768 0.85532 1.35029
 C135 C 0.10447 0.80127 1.31251
 C136 C 0.11311 0.68681 1.18898
 N137 N 0.13535 0.66057 1.12856
 C138 C 0.19150 0.69630 1.10856
 C139 C 0.30229 0.82217 1.11854
 N140 N 0.33028 0.88003 1.14561
 C141 C 0.30318 0.89063 1.20821
 H142 H 0.21950 0.91789 1.34193
 H143 H 0.05425 0.77821 1.31738
 H144 H 0.06749 0.67036 1.21590
 H145 H 0.21915 0.68827 1.06136
 H146 H 0.31007 0.80468 1.06678
 H147 H 0.31123 0.93651 1.23887
 C148 C 0.79454 1.16440 1.27279
 C149 C 0.74374 1.15768 1.22249
 C150 C 0.74390 1.20105 1.16592
 C151 C 0.79387 1.25245 1.15939
 C152 C 0.84461 1.25769 1.20862
 C153 C 0.84688 1.21155 1.26436
 C154 C 0.81098 1.12404 1.32831
 N155 N 0.87398 1.14223 1.35192
 C156 C 0.89699 1.19546 1.31256
 C157 C 0.88700 1.30998 1.18828
 N158 N 0.86393 1.33664 1.12809
 C159 C 0.80774 1.30073 1.10880
 C160 C 0.69736 1.17512 1.12024
 N161 N 0.66946 1.11710 1.14736
 C162 C 0.69728 1.10572 1.20973
 H163 H 0.78251 1.07912 1.34534
 H164 H 0.94716 1.21870 1.31667
 H165 H 0.93263 1.32672 1.21487
 H166 H 0.77932 1.30910 1.06204
 H167 H 0.68916 1.19316 1.06857
 H168 H 0.68940 1.05957 1.24032
 O169 O 0.56155 0.92830 0.87464
 O170 O 0.43312 0.92961 1.10754
 O171 O 0.61422 0.91415 1.02751
 O172 O 0.39241 0.90352 0.97121
 O173 O 0.56118 0.93173 1.11883
 O174 O 0.43177 0.93723 0.87266
 O175 O 0.33319 0.96808 1.06217
 O176 O 0.64759 0.97515 0.92841
 C177 C 0.62499 0.93159 0.88644
 C178 C 0.36681 0.93056 1.10734
 C179 C 0.60555 0.89880 1.08772
 C180 C 0.39459 0.89688 0.90721
 O181 O 0.43823 1.07396 0.87564
 O182 O 0.56644 1.06843 1.10857
 O183 O 0.60766 1.09685 0.97208
 O184 O 0.38558 1.08534 1.02813
 O185 O 0.43811 1.06627 1.11956
 O186 O 0.56770 1.06481 0.87342
 O187 O 0.35226 1.02594 0.92862
 O188 O 0.66637 1.03067 1.06298
 Co189 Co 0.49978 1.00100 0.88356
 Co190 Co 0.49971 0.99912 1.10137
 Co191 Co 0.60187 1.00604 1.00414
 Co192 Co 0.39797 0.99382 1.00403
 O193 O 0.49987 1.00009 0.99103
 C194 C 0.37487 1.07065 0.88758
 C195 C 0.63279 1.06721 1.10865
 C196 C 0.60527 1.10437 0.90812
 C197 C 0.39400 1.09986 1.08848
 O198 O 0.07248 0.43844 0.12378
 O199 O 0.06905 0.56746 -0.10707
 O200 O 0.08560 0.38722 -0.03011
 O201 O 0.09117 0.61053 0.02886
 O202 O 0.06333 0.43637 -0.12247
 O203 O 0.06048 0.56924 0.12753
 O204 O 0.02814 0.66811 -0.06228
 O205 O 0.02758 0.35131 0.06898
 C206 C 0.07103 0.37471 0.11004
 C207 C 0.06771 0.63469 -0.10548
 C208 C 0.09732 0.39246 -0.09130
 C209 C 0.09813 0.60850 0.09263
 O210 O -0.07423 0.55947 0.12453
 O211 O -0.07062 0.43462 -0.10817
 O212 O -0.09338 0.38889 0.02821
 O213 O -0.08784 0.61338 -0.02960
 O214 O -0.06473 0.56585 -0.12225
 O215 O -0.06220 0.42875 0.12704
 O216 O -0.02966 0.64755 0.07040
 O217 O -0.03026 0.33319 -0.06410
 Co218 Co -0.00090 0.49907 0.11619
 Co219 Co -0.00079 0.50094 -0.10190
 Co220 Co -0.00497 0.39744 -0.00542
 Co221 Co 0.00269 0.60270 -0.00461
 O222 O -0.00111 0.49997 0.00849
 C223 C -0.07286 0.62343 0.11148
 C224 C -0.06950 0.36739 -0.10723
 C225 C -0.09987 0.38979 0.09211
 C226 C -0.09885 0.60941 -0.09105
 O227 O 1.12345 0.07347 0.44021
 O228 O 0.88915 0.06828 0.56627
 O229 O 0.97082 0.08638 0.38838
 O230 O 1.02564 0.09641 0.60877
 O231 O 0.87812 0.06667 0.43907
 O232 O 1.12602 0.06535 0.56870
 O233 O 0.93374 0.03014 0.66531
 O234 O 1.07168 0.02560 0.35398
 C235 C 1.11441 0.06840 0.37718
 C236 C 0.88724 0.06636 0.63181
 C237 C 0.90971 0.10128 0.39658
 C238 C 1.08996 0.10486 0.60621
 O239 O 1.12714 -0.07105 0.56022
 O240 O 0.89180 -0.07007 0.43411
 O241 O 1.02848 -0.09616 0.39320
 O242 O 0.97279 -0.08698 0.61325
 O243 O 0.88002 -0.06878 0.56153
 O244 O 1.12808 -0.06330 0.43220
 O245 O 1.07202 -0.02577 0.64664
 O246 O 0.93487 -0.03043 0.33558
 Co247 Co 1.11659 0.00107 0.50031
 Co248 Co 0.89689 -0.00093 0.50030
 Co249 Co 0.99532 -0.00559 0.39934
 Co250 Co 0.99480 0.00537 0.60192
 O251 O 1.00816 -0.00008 0.50057
 C252 C 1.11610 -0.06796 0.62306
 C253 C 0.88880 -0.06656 0.36864
 C254 C 1.09309 -0.10366 0.39542
 C255 C 0.91233 -0.10288 0.60451
   
