data_POSCAR
  _audit_creation_date              2014-09-24
  _audit_creation_method            'ToBaCCo'
  _symmetry_space_group_name_H-M    'P1'
  _symmetry_Int_Tables_number       1
  _symmetry_cell_setting            triclinic
  loop_
  _symmetry_equiv_pos_as_xyz
 x,y,z
_cell_length_a 31.1196
_cell_length_b 31.1413
_cell_length_c 31.0475
_cell_angle_alpha 90.002200
_cell_angle_beta 90.098900
_cell_angle_gamma 90.024400
loop_
  _atom_site_label
  _atom_site_type_symbol
  _atom_site_fract_x
  _atom_site_fract_y
  _atom_site_fract_z
C1 C 0.17496 0.17272 0.22811
 N2 N 0.15721 0.20836 0.21032
 C3 C 0.17502 0.22623 0.17471
 N4 N 0.21061 0.20846 0.15687
 C5 C 0.22838 0.17281 0.17464
 N6 N 0.21055 0.15495 0.21027
 C7 C -0.17438 0.82718 0.22720
 N8 N -0.15667 0.79156 0.20942
 C9 C -0.17454 0.77368 0.17379
 N10 N -0.21019 0.79142 0.15593
 C11 C -0.22795 0.82706 0.17369
 N12 N -0.21004 0.84493 0.20935
 C13 C -0.17559 0.17328 -0.22706
 N14 N -0.21125 0.15553 -0.20932
 C15 C -0.22906 0.17335 -0.17367
 N16 N -0.21121 0.20892 -0.15579
 C17 C -0.17555 0.22665 -0.17355
 N18 N -0.15777 0.20883 -0.20918
 C19 C 0.17416 0.82689 -0.22769
 N20 N 0.15646 0.79126 -0.20987
 C21 C 0.17434 0.77347 -0.17420
 N22 N 0.20996 0.79130 -0.15635
 C23 C 0.22769 0.82694 -0.17415
 N24 N 0.20979 0.84473 -0.20983
 C25 C 0.17213 1.17470 0.77232
 N26 N 0.15436 1.21033 0.79011
 C27 C 0.17219 1.22815 0.82583
 N28 N 0.20779 1.21035 0.84372
 C29 C 0.22555 1.17474 0.82594
 N30 N 0.20773 1.15694 0.79024
 C31 C 0.82637 0.82662 0.77128
 N32 N 0.84414 0.79104 0.78917
 C33 C 0.82632 0.77326 0.82484
 N34 N 0.79072 0.79106 0.84259
 C35 C 0.77294 0.82663 0.82471
 N36 N 0.79076 0.84441 0.78905
 C37 C 0.17328 0.82513 1.22821
 N38 N 0.15551 0.78947 1.21040
 C39 C 0.17332 0.77163 1.17475
 N40 N 0.20892 0.78944 1.15695
 C41 C 0.22669 0.82508 1.17475
 N42 N 0.20888 0.84291 1.21038
 C43 C 0.82754 1.17461 1.22736
 N44 N 0.84529 1.21027 1.20962
 C45 C 0.82735 1.22822 1.17404
 N46 N 0.79165 1.21050 1.15622
 C47 C 0.77391 1.17484 1.17396
 N48 N 0.79185 1.15692 1.20953
 N49 N 0.54512 1.04634 1.07640
 N50 N 0.57774 1.05193 1.10307
 N51 N 0.45450 1.07603 1.04678
 N52 N 0.42199 1.10265 1.05248
 N53 N 0.45467 1.04615 1.07664
 N54 N 0.42228 1.05159 1.10351
 N55 N 0.54492 1.07621 1.04653
 N56 N 0.57739 1.10296 1.05201
 C57 C 0.59740 1.08732 1.08736
 C58 C 0.40235 1.08691 1.08793
 N59 N 0.45404 1.04643 0.92402
 N60 N 0.42147 1.05202 0.89731
 N61 N 0.54456 1.07636 0.95375
 N62 N 0.57705 1.10307 0.94819
 N63 N 0.54447 1.04658 0.92379
 N64 N 0.57688 1.05217 0.89698
 N65 N 0.45413 1.07619 0.95400
 N66 N 0.42163 1.10289 0.94854
 Mn67 Mn 0.49953 1.07670 1.00027
 C68 C 0.40171 1.08730 0.91311
 C69 C 0.59674 1.08748 0.91270
 N70 N 0.45483 0.95362 1.07647
 N71 N 0.42243 0.94797 1.10329
 N72 N 0.54520 0.92403 1.04628
 N73 N 0.57774 0.89737 1.05176
 N74 N 0.54527 0.95381 1.07625
 N75 N 0.57785 0.94826 1.10297
 N76 N 0.45476 0.92385 1.04649
 N77 N 0.42231 0.89710 1.05206
 Mn78 Mn 0.49997 0.99998 1.07696
 C79 C 0.40261 0.91264 1.08756
 C80 C 0.59765 0.91298 1.08719
 N81 N 0.54459 0.95408 0.92361
 N82 N 0.57697 0.94866 0.89674
 N83 N 0.45432 0.92403 0.95368
 N84 N 0.42185 0.89728 0.94809
 N85 N 0.45416 0.95393 0.92384
 N86 N 0.42160 0.94837 0.89710
 N87 N 0.54477 0.92421 0.95347
 N88 N 0.57729 0.89760 0.94777
 Mn89 Mn 0.49931 1.00026 0.92331
 Mn90 Mn 0.49976 0.92352 0.99998
 Cl91 Cl 0.49964 1.00011 1.00013
 C92 C 0.59691 0.91335 0.91232
 C93 C 0.40189 0.91297 0.91272
 N94 N 0.04668 0.45475 0.07679
 N95 N 0.05226 0.42227 0.10355
 N96 N 0.07655 0.54511 0.04683
 N97 N 0.10327 0.57760 0.05241
 N98 N 0.04673 0.54513 0.07673
 N99 N 0.05231 0.57761 0.10349
 N100 N 0.07647 0.45472 0.04685
 N101 N 0.10316 0.42224 0.05240
 C102 C 0.08757 0.40245 0.08784
 C103 C 0.08765 0.59741 0.08783
 N104 N 0.04649 0.54498 -0.07592
 N105 N 0.05200 0.57746 -0.10269
 N106 N 0.07629 0.45460 -0.04597
 N107 N 0.10293 0.42209 -0.05158
 N108 N 0.04636 0.45463 -0.07585
 N109 N 0.05177 0.42215 -0.10263
 N110 N 0.07638 0.54500 -0.04600
 N111 N 0.10309 0.57748 -0.05157
 Mn112 Mn 0.07694 0.49986 0.00043
 C113 C 0.08738 0.59726 -0.08701
 C114 C 0.08713 0.40231 -0.08700
 N115 N -0.04586 0.54519 0.07671
 N116 N -0.05139 0.57772 0.10342
 N117 N -0.07582 0.45480 0.04688
 N118 N -0.10252 0.42231 0.05244
 N119 N -0.04591 0.45480 0.07679
 N120 N -0.05142 0.42232 0.10355
 N121 N -0.07573 0.54515 0.04677
 N122 N -0.10242 0.57762 0.05224
 Mn123 Mn 0.00041 0.49997 0.07727
 C124 C -0.08675 0.59748 0.08764
 C125 C -0.08680 0.40251 0.08787
 N126 N -0.04621 0.45468 -0.07582
 N127 N -0.05191 0.42219 -0.10256
 N128 N -0.07587 0.54511 -0.04600
 N129 N -0.10256 0.57759 -0.05163
 N130 N -0.04607 0.54504 -0.07591
 N131 N -0.05162 0.57747 -0.10274
 N132 N -0.07599 0.45476 -0.04588
 N133 N -0.10279 0.42235 -0.05139
 Mn134 Mn 0.00014 0.49983 -0.07638
 Mn135 Mn -0.07635 0.49996 0.00044
 Cl136 Cl 0.00029 0.49991 0.00044
 C137 C -0.08727 0.40249 -0.08680
 C138 C -0.08692 0.59732 -0.08709
 N139 N 0.92405 0.04612 0.54443
 N140 N 0.89721 0.05164 0.57684
 N141 N 0.95428 0.07589 0.45397
 N142 N 0.94882 0.10267 0.42146
 N143 N 0.92438 0.04610 0.45381
 N144 N 0.89772 0.05177 0.42118
 N145 N 0.95391 0.07594 0.54460
 N146 N 0.94822 0.10263 0.57715
 C147 C 0.91278 0.08695 0.59679
 C148 C 0.91348 0.08712 0.40145
 N149 N 1.07665 0.04596 0.45462
 N150 N 1.10349 0.05145 0.42220
 N151 N 1.04647 0.07591 0.54506
 N152 N 1.05190 0.10270 0.57757
 N153 N 1.07633 0.04610 0.54529
 N154 N 1.10292 0.05177 0.57799
 N155 N 1.04684 0.07582 0.45443
 N156 N 1.05257 0.10247 0.42187
 Mn157 Mn 1.00038 0.07639 0.49952
 C158 C 1.08797 0.08677 0.40222
 C159 C 1.08717 0.08715 0.59767
 N160 N 0.92426 -0.04639 0.45393
 N161 N 0.89756 -0.05193 0.42131
 N162 N 0.95378 -0.07620 0.54473
 N163 N 0.94811 -0.10285 0.57730
 N164 N 0.92395 -0.04636 0.54455
 N165 N 0.89714 -0.05187 0.57700
 N166 N 0.95403 -0.07628 0.45407
 N167 N 0.94842 -0.10302 0.42153
 Mn168 Mn 0.92366 -0.00014 0.49918
 C169 C 0.91313 -0.08731 0.40155
 C170 C 0.91271 -0.08718 0.59697
 N171 N 1.07624 -0.04645 0.54533
 N172 N 1.10291 -0.05200 0.57797
 N173 N 1.04662 -0.07637 0.45458
 N174 N 1.05219 -0.10313 0.42209
 N175 N 1.07653 -0.04659 0.45467
 N176 N 1.10331 -0.05225 0.42221
 N177 N 1.04638 -0.07627 0.54523
 N178 N 1.05189 -0.10297 0.57781
 Mn179 Mn 1.07695 -0.00025 0.49998
 Mn180 Mn 1.00020 -0.07679 0.49966
 Cl181 Cl 1.00030 -0.00020 0.49958
 C182 C 1.08723 -0.08732 0.59778
 C183 C 1.08762 -0.08760 0.40235
 C184 C 1.15715 0.15493 0.26380
 C185 C 1.14130 0.13923 0.29552
 C186 C 1.12271 0.12095 0.33267
 C187 C 1.10684 0.10536 0.36442
 C188 C 0.84353 -0.15509 0.26293
 C189 C 0.85956 -0.13953 0.29467
 C190 C 0.87835 -0.12142 0.33188
 C191 C 0.89432 -0.10593 0.36367
 C192 C 0.84325 0.15457 0.73521
 C193 C 0.85921 0.13904 0.70349
 C194 C 0.87795 0.12096 0.66633
 C195 C 0.89391 0.10550 0.63459
 C196 C 1.15628 -0.15540 0.73654
 C197 C 1.14037 -0.13978 0.70477
 C198 C 1.12176 -0.12155 0.66752
 C199 C 1.10594 -0.10597 0.63570
 C200 C 0.26405 1.15509 1.15684
 C201 C 0.29573 1.13940 1.14105
 C202 C 0.33286 1.12107 1.12256
 C203 C 0.36458 1.10547 1.10676
 C204 C 0.26340 0.84470 0.84369
 C205 C 0.29512 0.86037 0.85956
 C206 C 0.33230 0.87867 0.87815
 C207 C 0.36406 0.89429 0.89397
 C208 C 0.73631 0.84475 1.15587
 C209 C 0.70455 0.86041 1.14007
 C210 C 0.66733 0.87871 1.12160
 C211 C 0.63554 0.89434 1.10587
 C212 C 0.73521 1.15566 0.84407
 C213 C 0.70347 1.14001 0.85982
 C214 C 0.66630 1.12173 0.87826
 C215 C 0.63455 1.10612 0.89399
 C216 C 0.15626 0.26398 0.15600
 C217 C 0.14048 0.29571 0.14036
 C218 C 0.12200 0.33288 0.12210
 C219 C 0.10625 0.36464 0.10649
 C220 C -0.15669 0.26430 -0.15478
 C221 C -0.14075 0.29596 -0.13915
 C222 C -0.12206 0.33305 -0.12095
 C223 C -0.10613 0.36475 -0.10541
 C224 C 0.15567 0.73572 -0.15544
 C225 C 0.13999 0.70400 -0.13973
 C226 C 0.12165 0.66683 -0.12136
 C227 C 0.10600 0.63507 -0.10569
 C228 C -0.15578 0.73595 0.15515
 C229 C -0.13991 0.70423 0.13966
 C230 C -0.12129 0.66705 0.12162
 C231 C -0.10545 0.63530 0.10618
 C232 C 1.15445 0.15685 0.73652
 C233 C 1.13897 0.14085 0.70472
 C234 C 1.12099 0.12204 0.66745
 C235 C 1.10562 0.10603 0.63561
 C236 C 0.84413 -0.15563 0.73554
 C237 C 0.85985 -0.13989 0.70379
 C238 C 0.87824 -0.12148 0.66659
 C239 C 0.89395 -0.10579 0.63481
 C240 C 1.15556 -0.15701 0.26392
 C241 C 1.13998 -0.14106 0.29564
 C242 C 1.12181 -0.12234 0.33280
 C243 C 1.10627 -0.10641 0.36454
 C244 C 0.84537 0.15668 0.26302
 C245 C 0.86106 0.14070 0.29471
 C246 C 0.87931 0.12196 0.33186
 C247 C 0.89488 0.10600 0.36361
 C248 C 0.15454 0.26385 -0.15636
 C249 C 0.13905 0.29557 -0.14043
 C250 C 0.12102 0.33274 -0.12174
 C251 C 0.10561 0.36449 -0.10582
 C252 C -0.15496 0.26396 0.15634
 C253 C -0.13930 0.29571 0.14063
 C254 C -0.12101 0.33291 0.12224
 C255 C -0.10541 0.36469 0.10655
 C256 C -0.15497 0.73558 -0.15628
 C257 C -0.13935 0.70391 -0.14038
 C258 C -0.12111 0.66679 -0.12176
 C259 C -0.10553 0.63508 -0.10590
 C260 C 0.15563 0.73590 0.15694
 C261 C 0.14003 0.70417 0.14106
 C262 C 0.12184 0.66699 0.12244
 C263 C 0.10628 0.63524 0.10659
 C264 C 0.26326 1.15599 0.84477
 C265 C 0.29496 1.14022 0.86050
 C266 C 0.33212 1.12176 0.87884
 C267 C 0.36388 1.10601 0.89448
 C268 C 0.26438 0.84387 1.15599
 C269 C 0.29605 0.85965 1.14028
 C270 C 0.33317 0.87814 1.12193
 C271 C 0.36487 0.89390 1.10625
 C272 C 0.73611 1.15613 1.15523
 C273 C 0.70433 1.14035 1.13962
 C274 C 0.66710 1.12184 1.12143
 C275 C 0.63528 1.10605 1.10591
 C276 C 0.73524 0.84536 0.84345
 C277 C 0.70355 0.86102 0.85922
 C278 C 0.66641 0.87928 0.87770
 C279 C 0.63468 0.89484 0.89349
   
