data_POSCAR
  _audit_creation_date              2014-09-24
  _audit_creation_method            'ToBaCCo'
  _symmetry_space_group_name_H-M    'P1'
  _symmetry_Int_Tables_number       1
  _symmetry_cell_setting            triclinic
  loop_
  _symmetry_equiv_pos_as_xyz
 x,y,z
_cell_length_a 58.7494
_cell_length_b 58.7396
_cell_length_c 58.8114
_cell_angle_alpha 90.035400
_cell_angle_beta 90.002300
_cell_angle_gamma 90.020900
loop_
  _atom_site_label
  _atom_site_type_symbol
  _atom_site_fract_x
  _atom_site_fract_y
  _atom_site_fract_z
C1 C 0.19119 0.21238 0.22336
 N2 N 0.20553 0.19458 0.22683
 C3 C 0.22334 0.19096 0.21255
 N4 N 0.22677 0.20524 0.19472
 C5 C 0.21250 0.22308 0.19113
 N6 N 0.19473 0.22658 0.20549
 C7 C 0.69091 0.71278 0.72317
 N8 N 0.70520 0.69494 0.72659
 C9 C 0.72303 0.69133 0.71234
 N10 N 0.72652 0.70568 0.69457
 C11 C 0.71231 0.72357 0.69104
 N12 N 0.69452 0.72705 0.70537
 C13 C 0.30835 0.78811 0.72352
 N14 N 0.29404 0.80594 0.72693
 C15 C 0.27622 0.80957 0.71265
 N16 N 0.27280 0.79519 0.69486
 C17 C 0.28703 0.77731 0.69132
 N18 N 0.30479 0.77384 0.70569
 C19 C 0.80954 0.28735 0.22364
 N20 N 0.80598 0.27307 0.20580
 C21 C 0.78819 0.27649 0.19144
 N22 N 0.77390 0.29431 0.19500
 C23 C 0.77731 0.30867 0.21278
 N24 N 0.79514 0.30514 0.22705
 C25 C 0.80929 0.71268 0.27672
 N26 N 0.80574 0.72698 0.29453
 C27 C 0.78795 0.72355 0.30888
 N28 N 0.77368 0.70570 0.30535
 C29 C 0.77711 0.69131 0.28759
 N30 N 0.79493 0.69486 0.27331
 C31 C 0.30885 0.21225 -0.22393
 N32 N 0.30523 0.22651 -0.20608
 C33 C 0.28743 0.22304 -0.19177
 N34 N 0.27317 0.20519 -0.19535
 C35 C 0.27661 0.19082 -0.21314
 N36 N 0.29448 0.19443 -0.22737
 C37 C 0.69125 0.28755 -0.22301
 N38 N 0.69487 0.27330 -0.20520
 C39 C 0.71269 0.27678 -0.19091
 N40 N 0.72693 0.29464 -0.19450
 C41 C 0.72346 0.30900 -0.21228
 N42 N 0.70558 0.30537 -0.22649
 C43 C 0.19166 0.78764 0.27628
 N44 N 0.20602 0.80543 0.27285
 C45 C 0.22382 0.80908 0.28717
 N46 N 0.22716 0.79477 0.30501
 C47 C 0.21287 0.77693 0.30856
 N48 N 0.19514 0.77343 0.29416
 C49 C 0.46226 0.44098 0.47362
 N50 N 0.44447 0.45534 0.47706
 C51 C 0.44093 0.47317 0.46280
 N52 N 0.45529 0.47660 0.44503
 C53 C 0.47312 0.46233 0.44147
 N54 N 0.47655 0.44453 0.45580
 C55 C -0.03733 -0.05857 0.97302
 N56 N -0.02308 -0.05499 0.95519
 C57 C -0.02655 -0.03719 0.94088
 N58 N -0.04438 -0.02293 0.94448
 C59 C -0.05874 -0.02636 0.96228
 N60 N -0.05512 -0.04423 0.97650
 C61 C 1.03717 0.55911 0.97339
 N62 N 1.02287 0.55549 0.95557
 C63 C 1.02630 0.53767 0.94125
 N64 N 1.04414 0.52341 0.94479
 C65 C 1.05852 0.52689 0.96254
 N66 N 1.05498 0.54475 0.97679
 C67 C 0.53783 0.05836 0.47362
 N68 N 0.55567 0.04407 0.47704
 C69 C 0.55935 0.02625 0.46275
 N70 N 0.54500 0.02281 0.44494
 C71 C 0.52712 0.03702 0.44140
 N72 N 0.52359 0.05478 0.45577
 C73 C -0.03786 0.05898 0.52663
 N74 N -0.02358 0.05541 0.54443
 C75 C -0.02703 0.03763 0.55877
 N76 N -0.04489 0.02336 0.55522
 C77 C -0.05928 0.02678 0.53745
 N78 N -0.05567 0.04463 0.52320
 C79 C 0.46252 0.55898 0.02686
 N80 N 0.47678 0.55540 0.04467
 C81 C 0.47334 0.53757 0.05897
 N82 N 0.45551 0.52329 0.05537
 C83 C 0.44117 0.52675 0.03759
 N84 N 0.44473 0.54461 0.02338
 C85 C 0.53770 -0.05923 0.02654
 N86 N 0.55555 -0.04490 0.02315
 C87 C 0.55918 -0.02709 0.03745
 N88 N 0.54485 -0.02364 0.05524
 C89 C 0.52697 -0.03786 0.05877
 N90 N 0.52346 -0.05562 0.04439
 C91 C 1.03692 0.44082 0.52632
 N92 N 1.02266 0.44438 0.54418
 C93 C 1.02612 0.46216 0.55855
 N94 N 1.04395 0.47644 0.55501
 C95 C 1.05828 0.47303 0.53722
 N96 N 1.05471 0.45521 0.52293
 C97 C 0.41049 0.00996 0.21999
 H98 H 0.41187 0.02506 0.23046
 C99 C 0.42534 0.00681 0.20172
 H100 H 0.43806 0.01968 0.19821
 C101 C 0.39233 -0.02521 0.21221
 H102 H 0.37967 -0.03781 0.21653
 C103 C 0.40678 -0.02902 0.19374
 H104 H 0.40489 -0.04454 0.18397
 N105 N 0.39425 -0.00583 0.22474
 C106 C 0.33989 0.02975 0.26060
 H107 H 0.33852 0.01931 0.27569
 C108 C 0.32505 0.04803 0.25743
 H109 H 0.31235 0.05159 0.27029
 C110 C 0.35801 0.03743 0.22544
 H111 H 0.37064 0.03306 0.21284
 C112 C 0.34356 0.05591 0.22161
 H113 H 0.34544 0.06565 0.20610
 Zn114 Zn 0.37517 -0.00049 0.25014
 N115 N 0.35610 0.02494 0.24481
 C116 C 0.39237 0.02422 0.28805
 N117 N 0.39426 0.00484 0.27553
 C118 C 0.41048 -0.01097 0.28029
 C119 C 0.42534 -0.00781 0.29855
 C120 C 0.40684 0.02805 0.30650
 C121 C 0.33982 -0.03066 0.23967
 C122 C 0.32495 -0.04893 0.24280
 C123 C 0.34350 -0.05694 0.27857
 C124 C 0.35798 -0.03846 0.27478
 N125 N 0.35607 -0.02591 0.25544
 H126 H 0.37974 0.03684 0.28372
 H127 H 0.41183 -0.02607 0.26984
 H128 H 0.43804 -0.02068 0.30207
 H129 H 0.40498 0.04357 0.31625
 H130 H 0.33845 -0.02018 0.22461
 H131 H 0.31222 -0.05244 0.22996
 H132 H 0.34539 -0.06672 0.29405
 H133 H 0.37064 -0.03415 0.28737
 C134 C 0.32681 0.06146 0.23774
 C135 C 0.42356 -0.01288 0.18826
 C136 C 0.32671 -0.06241 0.26245
 C137 C 0.42360 0.01190 0.31199
 C138 C 0.08998 -0.01020 0.71956
 H139 H 0.08863 -0.02528 0.73003
 C140 C 0.07508 -0.00706 0.70133
 H141 H 0.06235 -0.01993 0.69785
 C142 C 0.10813 0.02496 0.71174
 H143 H 0.12080 0.03757 0.71603
 C144 C 0.09363 0.02876 0.69332
 H145 H 0.09549 0.04427 0.68355
 N146 N 0.10623 0.00560 0.72427
 C147 C 0.16069 -0.02984 0.76007
 H148 H 0.16210 -0.01933 0.77512
 C149 C 0.17553 -0.04813 0.75693
 H150 H 0.18827 -0.05162 0.76976
 C151 C 0.14245 -0.03771 0.72501
 H152 H 0.12978 -0.03341 0.71243
 C153 C 0.15689 -0.05621 0.72121
 H154 H 0.15497 -0.06603 0.70574
 Zn155 Zn 0.12535 0.00031 0.74965
 N156 N 0.14442 -0.02512 0.74432
 C157 C 0.10821 -0.02436 0.78758
 N158 N 0.10629 -0.00500 0.77506
 C159 C 0.09006 0.01079 0.77983
 C160 C 0.07520 0.00764 0.79809
 C161 C 0.09376 -0.02818 0.80604
 C162 C 0.16068 0.03049 0.73916
 C163 C 0.17555 0.04877 0.74230
 C164 C 0.15699 0.05681 0.77807
 C165 C 0.14252 0.03833 0.77427
 N166 N 0.14444 0.02575 0.75494
 H167 H 0.12086 -0.03696 0.78325
 H168 H 0.08867 0.02588 0.76937
 H169 H 0.06248 0.02050 0.80161
 H170 H 0.09565 -0.04369 0.81579
 H171 H 0.16205 0.01999 0.72410
 H172 H 0.18828 0.05227 0.72946
 H173 H 0.15510 0.06661 0.79355
 H174 H 0.12987 0.03401 0.78686
 C175 C 0.17370 -0.06166 0.73730
 C176 C 0.07683 0.01262 0.68787
 C177 C 0.17378 0.06227 0.76195
 C178 C 0.07698 -0.01205 0.81153
 C179 C 0.58981 0.48939 0.22004
 H180 H 0.58844 0.47427 0.23044
 C181 C 0.57497 0.49258 0.20177
 H182 H 0.56228 0.47970 0.19819
 C183 C 0.60791 0.52462 0.21244
 H184 H 0.62053 0.53724 0.21683
 C185 C 0.59348 0.52847 0.19397
 H186 H 0.59535 0.54402 0.18428
 N187 N 0.60601 0.50520 0.22488
 C188 C 0.66036 0.46965 0.26074
 H189 H 0.66169 0.48010 0.27584
 C190 C 0.67524 0.45139 0.25757
 H191 H 0.68793 0.44787 0.27044
 C192 C 0.64229 0.46192 0.22555
 H193 H 0.62967 0.46626 0.21294
 C194 C 0.65677 0.44346 0.22173
 H195 H 0.65493 0.43372 0.20620
 Zn196 Zn 0.62507 0.49984 0.25028
 N197 N 0.64416 0.47442 0.24493
 C198 C 0.60785 0.47508 0.28813
 N199 N 0.60598 0.49449 0.27566
 C200 C 0.58978 0.51030 0.28047
 C201 C 0.57492 0.50713 0.29873
 C202 C 0.59339 0.47125 0.30657
 C203 C 0.66039 0.53002 0.23986
 C204 C 0.67526 0.54830 0.24302
 C205 C 0.65676 0.55625 0.27884
 C206 C 0.64228 0.53778 0.27501
 N207 N 0.64417 0.52525 0.25565
 H208 H 0.62047 0.46246 0.28376
 H209 H 0.58844 0.52542 0.27006
 H210 H 0.56224 0.52001 0.30228
 H211 H 0.59524 0.45571 0.31629
 H212 H 0.66174 0.51956 0.22477
 H213 H 0.68797 0.55182 0.23016
 H214 H 0.65490 0.56601 0.29435
 H215 H 0.62965 0.53344 0.28761
 C216 C 0.67352 0.43796 0.23787
 C217 C 0.57674 0.51231 0.18839
 C218 C 0.67352 0.56175 0.26270
 C219 C 0.57665 0.48741 0.31212
 C220 C 0.90977 0.50997 0.71985
 H221 H 0.91114 0.52509 0.73028
 C222 C 0.92461 0.50679 0.70158
 H223 H 0.93731 0.51966 0.69804
 C224 C 0.89162 0.47478 0.71214
 H225 H 0.87897 0.46218 0.71650
 C226 C 0.90606 0.47093 0.69368
 H227 H 0.90417 0.45540 0.68394
 N228 N 0.89354 0.49418 0.72464
 C229 C 0.83914 0.52982 0.76037
 H230 H 0.83776 0.51941 0.77548
 C231 C 0.82432 0.54811 0.75717
 H232 H 0.81162 0.55170 0.77001
 C233 C 0.85729 0.53744 0.72521
 H234 H 0.86993 0.53304 0.71263
 C235 C 0.84286 0.55592 0.72135
 H236 H 0.84476 0.56563 0.70582
 Zn237 Zn 0.87445 0.49958 0.75002
 N238 N 0.85537 0.52498 0.74460
 C239 C 0.89160 0.52444 0.78786
 N240 N 0.89353 0.50502 0.77540
 C241 C 0.90976 0.48926 0.78022
 C242 C 0.92460 0.49249 0.79848
 C243 C 0.90605 0.52834 0.80632
 C244 C 0.83912 0.46934 0.73967
 C245 C 0.82428 0.45106 0.74287
 C246 C 0.84288 0.44318 0.77865
 C247 C 0.85733 0.46167 0.77478
 N248 N 0.85538 0.47416 0.75541
 H249 H 0.87896 0.53703 0.78348
 H250 H 0.91115 0.47413 0.76981
 H251 H 0.93732 0.47964 0.80205
 H252 H 0.90416 0.54389 0.81603
 H253 H 0.83773 0.47977 0.72458
 H254 H 0.81154 0.44749 0.73005
 H255 H 0.84479 0.43345 0.79415
 H256 H 0.86999 0.46604 0.78735
 C257 C 0.82611 0.56151 0.73746
 C258 C 0.92282 0.48708 0.68815
 C259 C 0.82609 0.43763 0.76256
 C260 C 0.92282 0.51223 0.81187
 C261 C 0.21961 0.41005 0.01024
 H262 H 0.23006 0.41138 0.02533
 C263 C 0.20135 0.42493 0.00711
 H264 H 0.19783 0.43762 0.02000
 C265 C 0.21187 0.39199 -0.02496
 H266 H 0.21621 0.37937 -0.03758
 C267 C 0.19342 0.40648 -0.02875
 H268 H 0.18367 0.40464 -0.04427
 N269 N 0.22438 0.39385 -0.00558
 C270 C 0.26023 0.33940 0.02983
 H271 H 0.27533 0.33805 0.01939
 C272 C 0.25707 0.32455 0.04808
 H273 H 0.26995 0.31185 0.05161
 C274 C 0.22504 0.35751 0.03757
 H275 H 0.21243 0.37015 0.03323
 C276 C 0.22122 0.34305 0.05601
 H277 H 0.20570 0.34491 0.06576
 Zn278 Zn 0.24979 0.37475 -0.00028
 N279 N 0.24443 0.35562 0.02507
 C280 C 0.28770 0.39191 0.02448
 N281 N 0.27521 0.39383 0.00511
 C282 C 0.28000 0.41007 -0.01064
 C283 C 0.29828 0.42493 -0.00745
 C284 C 0.30617 0.40637 0.02835
 C285 C 0.23933 0.33950 -0.03055
 C286 C 0.24250 0.32467 -0.04885
 C287 C 0.27838 0.34318 -0.05667
 C288 C 0.27454 0.35761 -0.03818
 N289 N 0.25514 0.35570 -0.02572
 H290 H 0.28334 0.37926 0.03706
 H291 H 0.26957 0.41144 -0.02574
 H292 H 0.30183 0.43765 -0.02028
 H293 H 0.31591 0.40449 0.04386
 H294 H 0.22421 0.33812 -0.02014
 H295 H 0.22962 0.31198 -0.05243
 H296 H 0.29392 0.34506 -0.06638
 H297 H 0.28716 0.37023 -0.03379
 C298 C 0.23738 0.32630 0.06152
 C299 C 0.18792 0.42322 -0.01258
 C300 C 0.26222 0.32644 -0.06224
 C301 C 0.31171 0.42315 0.01225
 C302 C 0.72058 0.08935 -0.01045
 H303 H 0.73100 0.08800 -0.02556
 C304 C 0.70230 0.07449 -0.00728
 H305 H 0.69873 0.06180 -0.02015
 C306 C 0.71294 0.10745 0.02474
 H307 H 0.71732 0.12007 0.03735
 C308 C 0.69446 0.09298 0.02858
 H309 H 0.68474 0.09484 0.04411
 N310 N 0.72540 0.10556 0.00535
 C311 C 0.76118 0.16002 -0.03016
 H312 H 0.77630 0.16139 -0.01975
 C313 C 0.75796 0.17490 -0.04838
 H314 H 0.77081 0.18763 -0.05192
 C315 C 0.72599 0.14187 -0.03783
 H316 H 0.71339 0.12921 -0.03347
 C317 C 0.72210 0.15635 -0.05624
 H318 H 0.70655 0.15448 -0.06595
 Zn319 Zn 0.75081 0.12467 -0.00002
 N320 N 0.74540 0.14378 -0.02537
 C321 C 0.78875 0.10757 -0.02477
 N322 N 0.77623 0.10561 -0.00542
 C323 C 0.78101 0.08935 0.01032
 C324 C 0.79929 0.07451 0.00711
 C325 C 0.80722 0.09313 -0.02864
 C326 C 0.74038 0.15996 0.03020
 C327 C 0.74354 0.17480 0.04848
 C328 C 0.77940 0.15629 0.05636
 C329 C 0.77557 0.14184 0.03788
 N330 N 0.75618 0.14374 0.02539
 H331 H 0.78440 0.12024 -0.03733
 H332 H 0.77056 0.08795 0.02540
 H333 H 0.80283 0.06177 0.01993
 H334 H 0.81698 0.09504 -0.04413
 H335 H 0.72527 0.16132 0.01977
 H336 H 0.73067 0.18749 0.05203
 H337 H 0.79493 0.15441 0.06610
 H338 H 0.78818 0.12921 0.03352
 C339 C 0.73822 0.17314 -0.06176
 C340 C 0.68890 0.07624 0.01244
 C341 C 0.76325 0.17304 0.06190
 C342 C 0.81274 0.07632 -0.01256
 C343 C 0.21940 0.58996 0.48952
 H344 H 0.22986 0.58862 0.47444
 C345 C 0.20112 0.57508 0.49264
 H346 H 0.19760 0.56238 0.47977
 C347 C 0.21163 0.60805 0.52469
 H348 H 0.21597 0.62068 0.53731
 C349 C 0.19316 0.59357 0.52848
 H350 H 0.18340 0.59542 0.54398
 N351 N 0.22416 0.60617 0.50534
 C352 C 0.26015 0.66055 0.46993
 H353 H 0.27524 0.66190 0.48040
 C354 C 0.25705 0.67540 0.45166
 H355 H 0.26995 0.68809 0.44816
 C356 C 0.22496 0.64246 0.46213
 H357 H 0.21232 0.62983 0.46644
 C358 C 0.22119 0.65691 0.44366
 H359 H 0.20569 0.65505 0.43389
 Zn360 Zn 0.24960 0.62525 0.50006
 N361 N 0.24432 0.64435 0.47467
 C362 C 0.28755 0.60804 0.47540
 N363 N 0.27501 0.60616 0.49475
 C364 C 0.27976 0.58994 0.51054
 C365 C 0.29803 0.57507 0.50741
 C366 C 0.30601 0.59356 0.47160
 C367 C 0.23911 0.66056 0.53024
 C368 C 0.24226 0.67542 0.54851
 C369 C 0.27811 0.65692 0.55644
 C370 C 0.27429 0.64245 0.53798
 N371 N 0.25491 0.64434 0.52547
 H372 H 0.28322 0.62067 0.46279
 H373 H 0.26929 0.58860 0.52562
 H374 H 0.30154 0.56237 0.52027
 H375 H 0.31578 0.59541 0.45610
 H376 H 0.22401 0.66191 0.51979
 H377 H 0.22939 0.68813 0.55204
 H378 H 0.29363 0.65506 0.56619
 H379 H 0.28691 0.62982 0.53364
 C380 C 0.23738 0.67365 0.43818
 C381 C 0.18767 0.57681 0.51232
 C382 C 0.26196 0.67368 0.56195
 C383 C 0.31150 0.57681 0.48774
 C384 C 0.71996 0.91094 0.51043
 H385 H 0.73042 0.91235 0.52551
 C386 C 0.70166 0.92576 0.50726
 H387 H 0.69811 0.93849 0.52009
 C388 C 0.71223 0.89271 0.47532
 H389 H 0.71659 0.88004 0.46275
 C390 C 0.69373 0.90712 0.47149
 H391 H 0.68396 0.90519 0.45599
 N392 N 0.72475 0.89468 0.49468
 C393 C 0.76060 0.84030 0.53019
 H394 H 0.77571 0.83894 0.51977
 C395 C 0.75740 0.82544 0.54843
 H396 H 0.77026 0.81272 0.55196
 C397 C 0.72542 0.85844 0.53790
 H398 H 0.71283 0.87109 0.53356
 C399 C 0.72156 0.84397 0.55633
 H400 H 0.70603 0.84585 0.56606
 Zn401 Zn 0.75019 0.87563 0.50004
 N402 N 0.74482 0.85654 0.52542
 C403 C 0.78812 0.89280 0.52477
 N404 N 0.77559 0.89474 0.50543
 C405 C 0.78035 0.91100 0.48969
 C406 C 0.79862 0.92587 0.49288
 C407 C 0.80660 0.90726 0.52862
 C408 C 0.73982 0.84028 0.46987
 C409 C 0.74302 0.82542 0.45161
 C410 C 0.77883 0.84402 0.44371
 C411 C 0.77497 0.85849 0.46216
 N412 N 0.75558 0.85654 0.47465
 H413 H 0.78379 0.88012 0.53734
 H414 H 0.76989 0.91239 0.47461
 H415 H 0.80214 0.93861 0.48005
 H416 H 0.81637 0.90536 0.54411
 H417 H 0.72472 0.83888 0.48030
 H418 H 0.73018 0.81267 0.44808
 H419 H 0.79436 0.84593 0.43397
 H420 H 0.78755 0.87117 0.46651
 C421 C 0.73769 0.82720 0.56184
 C422 C 0.68820 0.92392 0.48759
 C423 C 0.76273 0.82721 0.43819
 C424 C 0.81209 0.92407 0.51254
 C425 C 0.01014 0.22028 0.41031
 H426 H 0.02523 0.23075 0.41171
 C427 C 0.00696 0.20200 0.42514
 H428 H 0.01980 0.19849 0.43787
 C429 C -0.02498 0.21249 0.39210
 H430 H -0.03756 0.21681 0.37944
 C431 C -0.02883 0.19402 0.40653
 H432 H -0.04434 0.18424 0.40462
 N433 N -0.00561 0.22503 0.39406
 C434 C 0.03005 0.26084 0.33978
 H435 H 0.01961 0.27595 0.33838
 C436 C 0.04835 0.25764 0.32497
 H437 H 0.05191 0.27048 0.31226
 C438 C 0.03772 0.22568 0.35794
 H439 H 0.03334 0.21309 0.37057
 C440 C 0.05621 0.22181 0.34353
 H441 H 0.06594 0.20628 0.34543
 Zn442 Zn -0.00023 0.25044 0.37500
 N443 N 0.02523 0.24507 0.35599
 C444 C 0.02441 0.28846 0.39216
 N445 N 0.00506 0.27588 0.39407
 C446 C -0.01073 0.28062 0.41029
 C447 C -0.00760 0.29890 0.42515
 C448 C 0.02821 0.30694 0.40662
 C449 C -0.03030 0.23995 0.33963
 C450 C -0.04855 0.24308 0.32474
 C451 C -0.05665 0.27886 0.34332
 C452 C -0.03820 0.27508 0.35780
 N453 N -0.02561 0.25574 0.35588
 H454 H 0.03702 0.28415 0.37952
 H455 H -0.02581 0.27013 0.41165
 H456 H -0.02046 0.30239 0.43786
 H457 H 0.04371 0.31674 0.40475
 H458 H -0.01980 0.22488 0.33826
 H459 H -0.05201 0.23022 0.31201
 H460 H -0.06646 0.29435 0.34521
 H461 H -0.03392 0.28768 0.37047
 C462 C 0.06177 0.23792 0.32677
 C463 C -0.01272 0.18853 0.42332
 C464 C -0.06206 0.26273 0.32652
 C465 C 0.01207 0.31240 0.42339
 C466 C -0.01022 0.71957 0.08914
 H467 H -0.02530 0.73005 0.08780
 C468 C -0.00711 0.70127 0.07430
 H469 H -0.02000 0.69775 0.06162
 C470 C 0.02497 0.71179 0.10721
 H471 H 0.03760 0.71612 0.11982
 C472 C 0.02874 0.69329 0.09277
 H473 H 0.04424 0.68351 0.09463
 N474 N 0.00561 0.72434 0.10533
 C475 C -0.02972 0.76030 0.15976
 H476 H -0.01924 0.77539 0.16108
 C477 C -0.04795 0.75718 0.17466
 H478 H -0.05142 0.77007 0.18736
 C479 C -0.03758 0.72511 0.14168
 H480 H -0.03329 0.71249 0.12904
 C481 C -0.05601 0.72132 0.15619
 H482 H -0.06580 0.70581 0.15435
 Zn483 Zn 0.00035 0.74979 0.12440
 N484 N -0.02502 0.74448 0.14354
 C485 C -0.02441 0.78772 0.10731
 N486 N -0.00503 0.77520 0.10535
 C487 C 0.01073 0.77999 0.08911
 C488 C 0.00755 0.79828 0.07430
 C489 C -0.02826 0.80620 0.09289
 C490 C 0.03062 0.73936 0.15960
 C491 C 0.04891 0.74254 0.17442
 C492 C 0.05683 0.77837 0.15589
 C493 C 0.03834 0.77452 0.14147
 N494 N 0.02582 0.75514 0.14340
 H495 H -0.03699 0.78336 0.11995
 H496 H 0.02583 0.76954 0.08770
 H497 H 0.02039 0.80183 0.06159
 H498 H -0.04377 0.81596 0.09481
 H499 H 0.02016 0.72426 0.16099
 H500 H 0.05245 0.72968 0.18712
 H501 H 0.06659 0.79389 0.15400
 H502 H 0.03398 0.78712 0.12884
 C503 C -0.06144 0.73749 0.17295
 C504 C 0.01256 0.68779 0.07604
 C505 C 0.06236 0.76224 0.17264
 C506 C -0.01214 0.81173 0.07613
 C507 C 0.48928 0.21942 0.59022
 H508 H 0.47416 0.22984 0.58882
 C509 C 0.49251 0.20114 0.57538
 H510 H 0.47967 0.19757 0.56266
 C511 C 0.52445 0.21177 0.60839
 H512 H 0.53703 0.21616 0.62103
 C513 C 0.52834 0.19330 0.59395
 H514 H 0.54388 0.18358 0.59584
 N515 N 0.50504 0.22424 0.60645
 C516 C 0.46936 0.26009 0.66073
 H517 H 0.47982 0.27520 0.66214
 C518 C 0.45105 0.25691 0.67554
 H519 H 0.44750 0.26978 0.68824
 C520 C 0.46165 0.22492 0.64256
 H521 H 0.46602 0.21232 0.62993
 C522 C 0.44315 0.22108 0.65696
 H523 H 0.43339 0.20556 0.65504
 Zn524 Zn 0.49962 0.24968 0.62550
 N525 N 0.47417 0.24430 0.64452
 C526 C 0.47488 0.28757 0.60829
 N527 N 0.49427 0.27507 0.60641
 C528 C 0.51008 0.27984 0.59022
 C529 C 0.50693 0.29810 0.57536
 C530 C 0.47106 0.30602 0.59382
 C531 C 0.52982 0.23932 0.66081
 C532 C 0.54810 0.24253 0.67564
 C533 C 0.55596 0.27839 0.65712
 C534 C 0.53749 0.27451 0.64269
 N535 N 0.52501 0.25510 0.64460
 H536 H 0.46226 0.28323 0.62090
 H537 H 0.52519 0.26940 0.58888
 H538 H 0.51981 0.30163 0.56268
 H539 H 0.45553 0.31577 0.59567
 H540 H 0.51939 0.22420 0.66217
 H541 H 0.55166 0.22968 0.68833
 H542 H 0.56569 0.29393 0.65524
 H543 H 0.53312 0.28710 0.63006
 C544 C 0.43760 0.23721 0.67372
 C545 C 0.51223 0.18774 0.57717
 C546 C 0.56151 0.26226 0.67387
 C547 C 0.48722 0.31153 0.57709
 C548 C 0.51028 0.72034 0.91049
 H549 H 0.52539 0.73079 0.91182
 C550 C 0.50714 0.70206 0.92532
 H551 H 0.52004 0.69852 0.93799
 C552 C 0.47506 0.71261 0.89245
 H553 H 0.46242 0.71696 0.87986
 C554 C 0.47125 0.69413 0.90689
 H555 H 0.45572 0.68438 0.90505
 N556 N 0.49445 0.72512 0.89432
 C557 C 0.52991 0.76096 0.83992
 H558 H 0.51948 0.77608 0.83858
 C559 C 0.54816 0.75778 0.82504
 H560 H 0.55168 0.77065 0.81235
 C561 C 0.53763 0.72577 0.85800
 H562 H 0.53329 0.71316 0.87062
 C563 C 0.55607 0.72192 0.84351
 H564 H 0.56581 0.70639 0.84536
 Zn565 Zn 0.49977 0.75053 0.87525
 N566 N 0.52514 0.74517 0.85613
 C567 C 0.52455 0.78849 0.89235
 N568 N 0.50517 0.77596 0.89430
 C569 C 0.48943 0.78073 0.91056
 C570 C 0.49264 0.79900 0.92542
 C571 C 0.52842 0.80696 0.90681
 C572 C 0.46950 0.74007 0.84003
 C573 C 0.45121 0.74323 0.82522
 C574 C 0.44333 0.77909 0.84374
 C575 C 0.46182 0.77527 0.85816
 N576 N 0.47432 0.75588 0.85623
 H577 H 0.53712 0.78415 0.87968
 H578 H 0.47433 0.77027 0.91196
 H579 H 0.47981 0.80252 0.93816
 H580 H 0.54394 0.81672 0.90490
 H581 H 0.47995 0.72496 0.83865
 H582 H 0.44765 0.73036 0.81252
 H583 H 0.43359 0.79462 0.84562
 H584 H 0.46619 0.78788 0.87079
 C585 C 0.56158 0.73806 0.82676
 C586 C 0.48743 0.68861 0.92360
 C587 C 0.43778 0.76294 0.82699
 C588 C 0.51234 0.81245 0.92362
 C589 C 0.13632 0.22331 0.26734
 N590 N 0.15035 0.20519 0.27031
 N591 N 0.16785 0.20172 0.25631
 C592 C 0.17193 0.21623 0.23882
 N593 N 0.15790 0.23434 0.23584
 N594 N 0.14042 0.23783 0.24985
 C595 C 0.11703 0.22712 0.28275
 N596 N 0.10337 0.24557 0.28018
 N597 N 0.08586 0.24901 0.29416
 C598 C 0.08128 0.23412 0.31124
 N599 N 0.09499 0.21566 0.31376
 N600 N 0.11252 0.21223 0.29981
 C601 C 0.63604 0.72360 0.76717
 N602 N 0.65004 0.70545 0.77007
 N603 N 0.66753 0.70202 0.75607
 C604 C 0.67164 0.71659 0.73863
 N605 N 0.65763 0.73474 0.73573
 N606 N 0.64015 0.73819 0.74975
 C607 C 0.61675 0.72737 0.78262
 N608 N 0.60311 0.74584 0.78013
 N609 N 0.58562 0.74924 0.79414
 C610 C 0.58106 0.73430 0.81118
 N611 N 0.59476 0.71582 0.81361
 N612 N 0.61226 0.71243 0.79962
 C613 C 0.36322 0.77734 0.76753
 N614 N 0.35911 0.76275 0.75009
 N615 N 0.34163 0.76618 0.73607
 C616 C 0.32761 0.78431 0.73899
 N617 N 0.33170 0.79889 0.75644
 N618 N 0.34919 0.79547 0.77045
 C619 C 0.38251 0.77358 0.78295
 N620 N 0.38702 0.78854 0.79997
 N621 N 0.40455 0.78516 0.81393
 C622 C 0.41826 0.76669 0.81146
 N623 N 0.41368 0.75174 0.79441
 N624 N 0.39617 0.75513 0.78042
 C625 C -0.13654 0.27693 0.26690
 N626 N -0.15085 0.29479 0.27005
 N627 N -0.16835 0.29816 0.25604
 C628 C -0.17218 0.28380 0.23832
 N629 N -0.15783 0.26594 0.23519
 N630 N -0.14036 0.26255 0.24922
 C631 C -0.11726 0.27323 0.28235
 N632 N -0.10338 0.25496 0.27968
 N633 N -0.08589 0.25162 0.29370
 C634 C -0.08155 0.26643 0.31093
 N635 N -0.09548 0.28471 0.31355
 N636 N -0.11299 0.28804 0.29955
 C637 C -0.13586 0.72330 0.23265
 N638 N -0.14993 0.70518 0.22977
 N639 N -0.16741 0.70181 0.24380
 C640 C -0.17145 0.71642 0.26124
 N641 N -0.15737 0.73453 0.26412
 N642 N -0.13990 0.73792 0.25008
 C643 C -0.11658 0.72699 0.21718
 N644 N -0.10288 0.74543 0.21965
 N645 N -0.08540 0.74877 0.20561
 C646 C -0.08091 0.73380 0.18856
 N647 N -0.09467 0.71535 0.18615
 N648 N -0.11217 0.71202 0.20017
 C649 C 0.36288 0.22282 0.73299
 N650 N 0.34861 0.20492 0.72979
 N651 N 0.33107 0.20151 0.74374
 C652 C 0.32716 0.21584 0.76145
 N653 N 0.34147 0.23374 0.76464
 N654 N 0.35898 0.23717 0.75067
 C655 C 0.38223 0.22657 0.71762
 N656 N 0.39605 0.24488 0.72036
 N657 N 0.41360 0.24826 0.70642
 C658 C 0.41805 0.23347 0.68921
 N659 N 0.40417 0.21514 0.68653
 N660 N 0.38660 0.21177 0.70044
 C661 C 0.63621 0.27675 0.73318
 N662 N 0.65024 0.29488 0.73021
 N663 N 0.66779 0.29830 0.74415
 C664 C 0.67193 0.28375 0.76159
 N665 N 0.65789 0.26562 0.76456
 N666 N 0.64036 0.26218 0.75060
 C667 C 0.61686 0.27298 0.71781
 N668 N 0.60320 0.25452 0.72037
 N669 N 0.58566 0.25111 0.70642
 C670 C 0.58105 0.26604 0.68938
 N671 N 0.59476 0.28451 0.68688
 N672 N 0.61232 0.28791 0.70081
 C673 C 0.13687 0.77676 0.23218
 N674 N 0.15093 0.79487 0.22925
 N675 N 0.16840 0.79832 0.24328
 C676 C 0.17243 0.78381 0.26077
 N677 N 0.15837 0.76570 0.26371
 N678 N 0.14091 0.76223 0.24966
 C679 C 0.11759 0.77297 0.21673
 N680 N 0.10391 0.75453 0.21927
 N681 N 0.08641 0.75111 0.20527
 C682 C 0.08187 0.76601 0.18819
 N683 N 0.09561 0.78447 0.18570
 N684 N 0.11313 0.78787 0.19968
 C685 C 0.26732 0.13603 0.22334
 N686 N 0.27023 0.15003 0.20521
 N687 N 0.25624 0.16754 0.20179
 C688 C 0.23880 0.17168 0.21635
 N689 N 0.23587 0.15767 0.23448
 N690 N 0.24988 0.14018 0.23792
 C691 C 0.28274 0.11673 0.22709
 N692 N 0.28022 0.10309 0.24554
 N693 N 0.29421 0.08557 0.24893
 C694 C 0.31126 0.08097 0.23400
 N695 N 0.31372 0.09466 0.21554
 N696 N 0.29975 0.11220 0.21216
 C697 C 0.76682 0.63624 0.72303
 N698 N 0.76981 0.65028 0.70494
 N699 N 0.75588 0.66784 0.70155
 C700 C 0.73842 0.67199 0.71610
 N701 N 0.73542 0.65795 0.73418
 N702 N 0.74938 0.64040 0.73759
 C703 C 0.78218 0.61689 0.72678
 N704 N 0.77960 0.60324 0.74521
 N705 N 0.79354 0.58568 0.74860
 C706 C 0.81060 0.58105 0.73369
 N707 N 0.81313 0.59475 0.71525
 N708 N 0.79921 0.61233 0.71186
 C709 C 0.76662 0.36301 0.77708
 N710 N 0.74891 0.35911 0.76278
 N711 N 0.73490 0.34161 0.76623
 C712 C 0.73811 0.32731 0.78410
 N713 N 0.75586 0.33122 0.79839
 N714 N 0.76984 0.34875 0.79495
 C715 C 0.78204 0.38233 0.77330
 N716 N 0.79926 0.38670 0.78805
 N717 N 0.81322 0.40425 0.78464
 C718 C 0.81054 0.41811 0.76634
 N719 N 0.79328 0.41367 0.75159
 N720 N 0.77930 0.39614 0.75501
 C721 C 0.26710 -0.13697 0.27671
 N722 N 0.24947 -0.14088 0.26230
 N723 N 0.23543 -0.15836 0.26570
 C724 C 0.23851 -0.17263 0.28361
 N725 N 0.25617 -0.16871 0.29800
 N726 N 0.27019 -0.15120 0.29462
 C727 C 0.28256 -0.11767 0.27299
 N728 N 0.29972 -0.11332 0.28782
 N729 N 0.31371 -0.09579 0.28447
 C730 C 0.31113 -0.08192 0.26616
 N731 N 0.29394 -0.08635 0.25134
 N732 N 0.27992 -0.10386 0.25469
 C733 C 0.23310 -0.13636 0.72308
 N734 N 0.25076 -0.14025 0.73745
 N735 N 0.26475 -0.15777 0.73406
 C736 C 0.26159 -0.17210 0.71619
 N737 N 0.24389 -0.16820 0.70184
 N738 N 0.22993 -0.15065 0.70521
 C739 C 0.21771 -0.11702 0.72678
 N740 N 0.20052 -0.11269 0.71198
 N741 N 0.18658 -0.09513 0.71532
 C742 C 0.18924 -0.08120 0.73360
 N743 N 0.20645 -0.08560 0.74839
 N744 N 0.22042 -0.10315 0.74504
 C745 C 0.73321 0.36352 0.22350
 N746 N 0.75066 0.35945 0.23808
 N747 N 0.76471 0.34199 0.23466
 C748 C 0.76182 0.32793 0.21655
 N749 N 0.74436 0.33198 0.20199
 N750 N 0.73032 0.34946 0.20539
 C751 C 0.71773 0.38279 0.22724
 N752 N 0.70071 0.38725 0.21230
 N753 N 0.68669 0.40475 0.21567
 C754 C 0.68912 0.41848 0.23413
 N755 N 0.70618 0.41395 0.24906
 N756 N 0.72022 0.39646 0.24568
 C757 C 0.73310 0.63634 0.27698
 N758 N 0.73019 0.65042 0.29506
 N759 N 0.74419 0.66795 0.29843
 C760 C 0.76165 0.67202 0.28385
 N761 N 0.76457 0.65793 0.26578
 N762 N 0.75054 0.64042 0.26239
 C763 C 0.71766 0.61703 0.27327
 N764 N 0.72017 0.60333 0.25485
 N765 N 0.70616 0.58581 0.25149
 C766 C 0.68910 0.58127 0.26643
 N767 N 0.68665 0.59502 0.28486
 N768 N 0.70064 0.61256 0.28821
 C769 C 0.23337 0.13684 0.77629
 N770 N 0.23020 0.15113 0.79416
 N771 N 0.24421 0.16864 0.79757
 C772 C 0.26195 0.17252 0.78326
 N773 N 0.26510 0.15820 0.76539
 N774 N 0.25107 0.14070 0.76196
 C775 C 0.21793 0.11753 0.77255
 N776 N 0.22062 0.10368 0.75427
 N777 N 0.20660 0.08616 0.75090
 C778 C 0.18936 0.08179 0.76568
 N779 N 0.18673 0.09570 0.78396
 N780 N 0.20072 0.11323 0.78733
 C781 C 0.22313 0.26690 0.13612
 N782 N 0.20504 0.26987 0.15018
 N783 N 0.20167 0.25593 0.16772
 C784 C 0.21625 0.23847 0.17182
 N785 N 0.23433 0.23549 0.15775
 N786 N 0.23771 0.24946 0.14023
 C787 C 0.22683 0.28228 0.11679
 N788 N 0.24526 0.27973 0.10311
 N789 N 0.24861 0.29370 0.08558
 C790 C 0.23366 0.31075 0.08103
 N791 N 0.21522 0.31325 0.09476
 N792 N 0.21188 0.29930 0.11230
 C793 C 0.72316 0.76760 0.63623
 N794 N 0.73770 0.75010 0.64030
 N795 N 0.73424 0.73607 0.65775
 C796 C 0.71613 0.73904 0.67179
 N797 N 0.70161 0.75654 0.66773
 N798 N 0.70505 0.77056 0.65026
 C799 C 0.72695 0.78305 0.61697
 N800 N 0.71204 0.80011 0.61251
 N801 N 0.71545 0.81410 0.59502
 C802 C 0.73391 0.81161 0.58131
 N803 N 0.74881 0.79452 0.58585
 N804 N 0.74540 0.78050 0.60332
 C805 C 0.77721 0.76762 0.36372
 N806 N 0.76265 0.75014 0.35964
 N807 N 0.76608 0.73610 0.34218
 C808 C 0.78418 0.73904 0.32813
 N809 N 0.79873 0.75654 0.33220
 N810 N 0.79532 0.77056 0.34968
 C811 C 0.77345 0.78308 0.38300
 N812 N 0.78836 0.80015 0.38748
 N813 N 0.78496 0.81414 0.40499
 C814 C 0.76650 0.81164 0.41870
 N815 N 0.75160 0.79454 0.41415
 N816 N 0.75500 0.78052 0.39665
 C817 C 0.27664 0.26700 -0.13685
 N818 N 0.29477 0.26996 -0.15086
 N819 N 0.29819 0.25597 -0.16837
 C820 C 0.28363 0.23850 -0.17249
 N821 N 0.26551 0.23553 -0.15847
 N822 N 0.26207 0.24954 -0.14098
 C823 C 0.27289 0.28242 -0.11753
 N824 N 0.25443 0.27986 -0.10390
 N825 N 0.25104 0.29384 -0.08637
 C826 C 0.26597 0.31090 -0.08177
 N827 N 0.28444 0.31340 -0.09546
 N828 N 0.28783 0.29945 -0.11300
 C829 C 0.72360 0.23276 -0.13611
 N830 N 0.73815 0.25025 -0.14021
 N831 N 0.73467 0.26428 -0.15767
 C832 C 0.71653 0.26132 -0.17166
 N833 N 0.70199 0.24383 -0.16756
 N834 N 0.70545 0.22982 -0.15010
 C835 C 0.72741 0.21731 -0.11685
 N836 N 0.71249 0.20025 -0.11236
 N837 N 0.71593 0.18625 -0.09489
 C838 C 0.73442 0.18873 -0.08122
 N839 N 0.74933 0.20583 -0.08578
 N840 N 0.74589 0.21985 -0.10324
 C841 C 0.22333 0.73308 0.36358
 N842 N 0.23794 0.75052 0.35951
 N843 N 0.23461 0.76450 0.34199
 C844 C 0.21655 0.76153 0.32788
 N845 N 0.20196 0.74407 0.33194
 N846 N 0.20528 0.73011 0.34947
 C847 C 0.22699 0.71769 0.38290
 N848 N 0.21201 0.70067 0.38735
 N849 N 0.21531 0.68672 0.40490
 C850 C 0.23371 0.68920 0.41867
 N851 N 0.24869 0.70625 0.41415
 N852 N 0.24538 0.72023 0.39663
 C853 C 0.27630 0.73328 0.63645
 N854 N 0.26175 0.75076 0.64051
 N855 N 0.26517 0.76480 0.65799
 C856 C 0.28325 0.76184 0.67206
 N857 N 0.29780 0.74435 0.66800
 N858 N 0.29439 0.73033 0.65051
 C859 C 0.27256 0.71783 0.61716
 N860 N 0.28749 0.70078 0.61270
 N861 N 0.28412 0.68678 0.59518
 C862 C 0.26569 0.68926 0.58144
 N863 N 0.25076 0.70634 0.58598
 N864 N 0.25414 0.72036 0.60347
 C865 C 0.77756 0.23251 0.13651
 N866 N 0.76296 0.24995 0.14061
 N867 N 0.76635 0.26396 0.15811
 C868 C 0.78445 0.26103 0.17216
 N869 N 0.79904 0.24358 0.16807
 N870 N 0.79566 0.22959 0.15055
 C871 C 0.77384 0.21709 0.11719
 N872 N 0.78879 0.20007 0.11268
 N873 N 0.78544 0.18611 0.09514
 C874 C 0.76698 0.18859 0.08142
 N875 N 0.75204 0.20563 0.08600
 N876 N 0.75540 0.21962 0.10353
 C877 C 0.47292 0.38606 0.51758
 N878 N 0.48752 0.39014 0.50015
 N879 N 0.48412 0.40763 0.48614
 C880 C 0.46602 0.42170 0.48906
 N881 N 0.45144 0.41762 0.50650
 N882 N 0.45482 0.40012 0.52049
 C883 C 0.47664 0.36676 0.53300
 N884 N 0.46169 0.36229 0.55001
 N885 N 0.46504 0.34476 0.56398
 C886 C 0.48349 0.33103 0.56153
 N887 N 0.49845 0.33558 0.54449
 N888 N 0.49508 0.35308 0.53049
 C889 C -0.02656 0.88642 0.01685
 N890 N -0.04466 0.90047 0.01984
 N891 N -0.04808 0.91801 0.00589
 C892 C -0.03353 0.92212 -0.01157
 N893 N -0.01544 0.90807 -0.01456
 N894 N -0.01201 0.89055 -0.00060
 C895 C -0.02281 0.86708 0.03221
 N896 N -0.00438 0.85341 0.02962
 N897 N -0.00099 0.83586 0.04356
 C898 C -0.01590 0.83127 0.06062
 N899 N -0.03434 0.84501 0.06316
 N900 N -0.03773 0.86257 0.04924
 C901 C 0.02673 0.61314 0.01656
 N902 N 0.01234 0.60925 -0.00108
 N903 N 0.01572 0.59174 -0.01509
 C904 C 0.03361 0.57743 -0.01196
 N905 N 0.04799 0.58133 0.00572
 N906 N 0.04462 0.59886 0.01970
 C907 C 0.02303 0.63246 0.03198
 N908 N 0.03787 0.63680 0.04913
 N909 N 0.03455 0.65436 0.06309
 C910 C 0.01625 0.66825 0.06049
 N911 N 0.00141 0.66384 0.04331
 N912 N 0.00474 0.64631 0.02932
 C913 C 0.52688 0.11321 0.51766
 N914 N 0.54503 0.09921 0.52059
 N915 N 0.54850 0.08172 0.50658
 C916 C 0.53397 0.07761 0.48910
 N917 N 0.51582 0.09161 0.48616
 N918 N 0.51233 0.10908 0.50019
 C919 C 0.52306 0.13250 0.53309
 N920 N 0.50459 0.14612 0.53055
 N921 N 0.50114 0.16363 0.54454
 C922 C 0.51604 0.16823 0.56162
 N923 N 0.53453 0.15455 0.56411
 N924 N 0.53796 0.13702 0.55014
 C925 C -0.02713 0.11392 0.48271
 N926 N -0.04524 0.09986 0.47977
 N927 N -0.04865 0.08234 0.49374
 C928 C -0.03408 0.07826 0.51119
 N929 N -0.01597 0.09232 0.51414
 N930 N -0.01255 0.10982 0.50015
 C931 C -0.02338 0.13323 0.46732
 N932 N -0.00494 0.14692 0.46988
 N933 N -0.00156 0.16445 0.45591
 C934 C -0.01648 0.16901 0.43885
 N935 N -0.03493 0.15526 0.43635
 N936 N -0.03831 0.13772 0.45029
 C937 C 0.47318 0.61398 0.98300
 N938 N 0.45508 0.59992 0.98006
 N939 N 0.45169 0.58238 0.99402
 C940 C 0.46628 0.57829 1.01145
 N941 N 0.48438 0.59236 1.01440
 N942 N 0.48778 0.60988 1.00042
 C943 C 0.47689 0.63331 0.96761
 N944 N 0.49533 0.64700 0.97013
 N945 N 0.49868 0.66453 0.95616
 C946 C 0.48372 0.66909 0.93914
 N947 N 0.46527 0.65534 0.93667
 N948 N 0.46193 0.63780 0.95062
 C949 C 0.52696 0.88692 0.98323
 N950 N 0.51263 0.89079 1.00091
 N951 N 0.51612 0.90825 1.01497
 C952 C 0.53405 0.92252 1.01184
 N953 N 0.54836 0.91863 0.99411
 N954 N 0.54489 0.90115 0.98009
 C955 C 0.52315 0.86764 0.96777
 N956 N 0.53791 0.86331 0.95056
 N957 N 0.53448 0.84580 0.93656
 C958 C 0.51614 0.83195 0.93919
 N959 N 0.50138 0.83635 0.95643
 N960 N 0.50482 0.85384 0.97045
 C961 C 0.02638 0.38692 0.48302
 N962 N 0.04426 0.40122 0.47988
 N963 N 0.04766 0.41871 0.49390
 C964 C 0.03333 0.42255 0.51163
 N965 N 0.01545 0.40821 0.51475
 N966 N 0.01203 0.39074 0.50070
 C967 C 0.02265 0.36763 0.46755
 N968 N 0.00436 0.35376 0.47022
 N969 N 0.00099 0.33626 0.45620
 C970 C 0.01579 0.33190 0.43897
 N971 N 0.03409 0.34582 0.43636
 N972 N 0.03745 0.36334 0.45036
 C973 C 0.38603 0.51721 0.47347
 N974 N 0.39010 0.49976 0.48804
 N975 N 0.40758 0.48572 0.48464
 C976 C 0.42165 0.48865 0.46656
 N977 N 0.41759 0.50611 0.45200
 N978 N 0.40009 0.52012 0.45539
 C979 C 0.36673 0.53266 0.47719
 N980 N 0.36227 0.54968 0.46226
 N981 N 0.34475 0.56368 0.46561
 C982 C 0.33100 0.56123 0.48403
 N983 N 0.33553 0.54417 0.49896
 N984 N 0.35304 0.53015 0.49560
 C985 C 0.88731 0.01684 -0.02708
 N986 N 0.89119 -0.00086 -0.01276
 N987 N 0.90868 -0.01488 -0.01622
 C988 C 0.92297 -0.01171 -0.03410
 N989 N 0.91907 0.00603 -0.04840
 N990 N 0.90156 0.02002 -0.04496
 C991 C 0.86800 0.03226 -0.02330
 N992 N 0.86366 0.04947 -0.03805
 N993 N 0.84612 0.06344 -0.03464
 C994 C 0.83225 0.06077 -0.01634
 N995 N 0.83667 0.04353 -0.00159
 N996 N 0.85419 0.02954 -0.00501
 C997 C 0.61423 0.01679 0.02679
 N998 N 0.61007 -0.00064 0.01219
 N999 N 0.59254 -0.01462 0.01559
 C1000 C 0.57851 -0.01168 0.03370
 N1001 N 0.58266 0.00576 0.04829
 N1002 N 0.60021 0.01973 0.04490
 C1003 C 0.63357 0.03219 0.02306
 N1004 N 0.63812 0.04920 0.03801
 N1005 N 0.65567 0.06316 0.03464
 C1006 C 0.66937 0.06069 0.01618
 N1007 N 0.66475 0.04364 0.00123
 N1008 N 0.64722 0.02966 0.00461
 C1009 C 0.11317 0.51713 0.52657
 N1010 N 0.10908 0.49968 0.51197
 N1011 N 0.09160 0.48563 0.51537
 C1012 C 0.07755 0.48853 0.53347
 N1013 N 0.08163 0.50598 0.54805
 N1014 N 0.09912 0.52002 0.54467
 C1015 C 0.13245 0.53260 0.52285
 N1016 N 0.13692 0.54963 0.53781
 N1017 N 0.15444 0.56364 0.53447
 C1018 C 0.16817 0.56121 0.51603
 N1019 N 0.16363 0.54415 0.50107
 N1020 N 0.14613 0.53012 0.50442
 C1021 C 0.11342 0.48286 -0.02682
 N1022 N 0.09935 0.47993 -0.04490
 N1023 N 0.08185 0.49394 -0.04827
 C1024 C 0.07780 0.51142 -0.03371
 N1025 N 0.09188 0.51436 -0.01564
 N1026 N 0.10936 0.50033 -0.01224
 C1027 C 0.13272 0.46740 -0.02311
 N1028 N 0.14641 0.46991 -0.00469
 N1029 N 0.16390 0.45588 -0.00134
 C1030 C 0.16843 0.43881 -0.01629
 N1031 N 0.15468 0.43637 -0.03472
 N1032 N 0.13717 0.45037 -0.03806
 C1033 C 0.61345 0.98321 0.47324
 N1034 N 0.59920 0.98001 0.45535
 N1035 N 0.58165 0.99395 0.45196
 C1036 C 0.57769 1.01165 0.46632
 N1037 N 0.59197 1.01483 0.48421
 N1038 N 0.60951 1.00087 0.48762
 C1039 C 0.63281 0.96784 0.47697
 N1040 N 0.64662 0.97058 0.49527
 N1041 N 0.66418 0.95664 0.49865
 C1042 C 0.66864 0.93942 0.48385
 N1043 N 0.65478 0.93675 0.46554
 N1044 N 0.63720 0.95066 0.46218
 C1045 C 0.88671 0.98358 0.52693
 N1046 N 0.90099 0.98041 0.54480
 N1047 N 0.91852 0.99440 0.54819
 C1048 C 0.92241 1.01212 0.53388
 N1049 N 0.90809 1.01528 0.51601
 N1050 N 0.89059 1.00127 0.51260
 C1051 C 0.86739 0.96816 0.52319
 N1052 N 0.85355 0.97087 0.50492
 N1053 N 0.83602 0.95687 0.50153
 C1054 C 0.83161 0.93963 0.51629
 N1055 N 0.84551 0.93698 0.53458
 N1056 N 0.86305 0.95095 0.53796
 C1057 C 0.38626 0.48272 0.02676
 N1058 N 0.40030 0.47977 0.04485
 N1059 N 0.41780 0.49378 0.04829
 C1060 C 0.42189 0.51127 0.03378
 N1061 N 0.40784 0.51423 0.01568
 N1062 N 0.39036 0.50020 0.01223
 C1063 C 0.36696 0.46728 0.02298
 N1064 N 0.35329 0.46982 0.00455
 N1065 N 0.33578 0.45581 0.00114
 C1066 C 0.33122 0.43872 0.01603
 N1067 N 0.34493 0.43623 0.03446
 N1068 N 0.36246 0.45022 0.03787
 C1069 C 0.51712 0.47304 0.38661
 N1070 N 0.49968 0.48762 0.39071
 N1071 N 0.48566 0.48421 0.40818
 C1072 C 0.48858 0.46610 0.42221
 N1073 N 0.50604 0.45152 0.41812
 N1074 N 0.52004 0.45492 0.40063
 C1075 C 0.53256 0.47678 0.36732
 N1076 N 0.54957 0.46182 0.36282
 N1077 N 0.56355 0.46520 0.34530
 C1078 C 0.56109 0.48366 0.33161
 N1079 N 0.54404 0.49861 0.33619
 N1080 N 0.53004 0.49523 0.35368
 C1081 C 0.01743 -0.02643 0.88601
 N1082 N -0.00003 -0.01186 0.89011
 N1083 N -0.01405 -0.01529 0.90759
 C1084 C -0.01110 -0.03340 0.92161
 N1085 N 0.00637 -0.04796 0.91752
 N1086 N 0.02037 -0.04454 0.90003
 C1087 C 0.03287 -0.02268 0.86672
 N1088 N 0.04991 -0.03761 0.86225
 N1089 N 0.06389 -0.03423 0.84474
 C1090 C 0.06141 -0.01579 0.83102
 N1091 N 0.04434 -0.00086 0.83557
 N1092 N 0.03033 -0.00424 0.85307
 C1093 C 0.01708 0.02692 0.61355
 N1094 N 0.01999 0.04502 0.59950
 N1095 N 0.00595 0.04842 0.58204
 C1096 C -0.01154 0.03385 0.57801
 N1097 N -0.01446 0.01576 0.59206
 N1098 N -0.00040 0.01235 0.60951
 C1099 C 0.03256 0.02319 0.63280
 N1100 N 0.03006 0.00476 0.64648
 N1101 N 0.04411 0.00140 0.66393
 C1102 C 0.06121 0.01634 0.66842
 N1103 N 0.06365 0.03478 0.65469
 N1104 N 0.04963 0.03813 0.63721
 C1105 C 0.51729 0.52678 0.11386
 N1106 N 0.49985 0.51219 0.10971
 N1107 N 0.48584 0.51563 0.09223
 C1108 C 0.48879 0.53377 0.07823
 N1109 N 0.50625 0.54835 0.08237
 N1110 N 0.52023 0.54492 0.09987
 C1111 C 0.53271 0.52301 0.13315
 N1112 N 0.54973 0.53796 0.13770
 N1113 N 0.56368 0.53456 0.15522
 C1114 C 0.56120 0.51608 0.16889
 N1115 N 0.54414 0.50113 0.16427
 N1116 N 0.53016 0.50453 0.14676
 C1117 C 0.48303 -0.02717 0.11370
 N1118 N 0.48004 -0.04524 0.09961
 N1119 N 0.49403 -0.04863 0.08210
 C1120 C 0.51153 -0.03409 0.07805
 N1121 N 0.51452 -0.01602 0.09215
 N1122 N 0.50052 -0.01261 0.10964
 C1123 C 0.46761 -0.02345 0.13301
 N1124 N 0.47019 -0.00503 0.14672
 N1125 N 0.45620 -0.00167 0.16423
 C1126 C 0.43911 -0.01660 0.16875
 N1127 N 0.43660 -0.03502 0.15499
 N1128 N 0.45056 -0.03838 0.13745
 C1129 C 0.98221 0.47277 0.61352
 N1130 N 0.97925 0.45468 0.59946
 N1131 N 0.99322 0.45131 0.58193
 C1132 C 1.01068 0.46589 0.57785
 N1133 N 1.01364 0.48398 0.59192
 N1134 N 0.99966 0.48737 0.60943
 C1135 C 0.96682 0.47649 0.63285
 N1136 N 0.96938 0.49492 0.64653
 N1137 N 0.95541 0.49829 0.66406
 C1138 C 0.93836 0.48334 0.66863
 N1139 N 0.93585 0.46489 0.65490
 N1140 N 0.94979 0.46153 0.63735
 C1141 C 0.98229 0.52682 0.88639
 N1142 N 0.97935 0.54495 0.90041
 N1143 N 0.99335 0.54840 0.91790
 C1144 C 1.01082 0.53385 0.92200
 N1145 N 1.01377 0.51572 0.90798
 N1146 N 0.99975 0.51226 0.89050
 C1147 C 0.96687 0.52302 0.86710
 N1148 N 0.96942 0.50455 0.85347
 N1149 N 0.95544 0.50112 0.83597
 C1150 C 0.93837 0.51603 0.83137
 N1151 N 0.93587 0.53451 0.84506
 N1152 N 0.94983 0.53794 0.86258
 C1153 C 0.48316 0.02627 0.38648
 N1154 N 0.50065 0.01173 0.39054
 N1155 N 0.51466 0.01515 0.40803
 C1156 C 0.51168 0.03323 0.42211
 N1157 N 0.49418 0.04777 0.41806
 N1158 N 0.48018 0.04435 0.40056
 C1159 C 0.46773 0.02252 0.36719
 N1160 N 0.45067 0.03745 0.36274
 N1161 N 0.43669 0.03407 0.34523
 C1162 C 0.43918 0.01564 0.33148
 N1163 N 0.45626 0.00072 0.33600
 N1164 N 0.47027 0.00410 0.35350
   
