data_POSCAR
  _audit_creation_date              2014-09-24
  _audit_creation_method            'ToBaCCo'
  _symmetry_space_group_name_H-M    'P1'
  _symmetry_Int_Tables_number       1
  _symmetry_cell_setting            triclinic
  loop_
  _symmetry_equiv_pos_as_xyz
 x,y,z
_cell_length_a 34.9283
_cell_length_b 39.5974
_cell_length_c 22.7712
_cell_angle_alpha 89.686300
_cell_angle_beta 90.131600
_cell_angle_gamma 118.199200
loop_
  _atom_site_label
  _atom_site_type_symbol
  _atom_site_fract_x
  _atom_site_fract_y
  _atom_site_fract_z
C1 C 0.44894 0.89661 0.49419
 C2 C 0.46023 0.91516 0.54890
 C3 C 0.47745 0.95536 0.55001
 C4 C 0.48177 0.97687 0.49831
 C5 C 0.46830 0.95678 0.44478
 C6 C 0.45310 0.91716 0.44238
 C7 C 0.50118 1.01995 0.50003
 C8 C 0.51766 1.04236 0.44852
 C9 C 0.53651 1.08268 0.44938
 C10 C 0.54039 1.10076 0.50369
 C11 C 0.52469 1.07939 0.55533
 C12 C 0.50443 1.03932 0.55324
 H13 H 0.43547 0.86580 0.49143
 H14 H 0.48976 0.96978 0.59120
 H15 H 0.46881 0.97127 0.40426
 H16 H 0.51843 1.02897 0.40775
 H17 H 0.55440 1.13163 0.50621
 H18 H 0.49089 1.02386 0.59361
 C19 C 0.10961 0.57550 0.49543
 C20 C 0.08924 0.55853 0.54879
 C21 C 0.04550 0.52956 0.54691
 C22 C 0.02120 0.51990 0.49408
 C23 C 0.04268 0.53907 0.44207
 C24 C 0.08710 0.56506 0.44220
 C25 C -0.02560 0.48897 0.49295
 C26 C -0.04542 0.47015 0.44017
 C27 C -0.08863 0.44040 0.43867
 C28 C -0.11134 0.42765 0.49200
 C29 C -0.09289 0.44610 0.54490
 C30 C -0.05079 0.47726 0.54474
 H31 H 0.14406 0.59542 0.49424
 H32 H 0.03021 0.51526 0.58718
 H33 H 0.02590 0.53321 0.40050
 H34 H -0.02698 0.47703 0.39992
 H35 H -0.14480 0.40524 0.49226
 H36 H -0.03809 0.49184 0.58573
 C37 C 0.47742 0.57886 0.50563
 C38 C 0.48722 0.56646 0.55896
 C39 C 0.50087 0.53822 0.55679
 C40 C 0.49960 0.51877 0.50452
 C41 C 0.48725 0.53054 0.45251
 C42 C 0.47740 0.56111 0.45241
 C43 C 0.50996 0.48583 0.50517
 C44 C 0.52077 0.47276 0.45324
 C45 C 0.52879 0.44111 0.45421
 C46 C 0.52873 0.42375 0.50804
 C47 C 0.51993 0.43710 0.56027
 C48 C 0.50891 0.46679 0.55832
 H49 H 0.46638 0.60021 0.50544
 H50 H 0.51364 0.53234 0.59645
 H51 H 0.48500 0.51618 0.41153
 H52 H 0.52286 0.48665 0.41159
 H53 H 0.53728 0.40076 0.50956
 H54 H 0.49938 0.47438 0.59916
 O55 O 0.42037 0.67869 -0.04673
 O56 O 0.41383 0.73991 -0.06833
 C57 C 0.39160 0.75628 -0.08260
 O58 O 0.35828 0.75186 -0.05394
 O59 O 0.29089 0.68604 -0.07622
 C60 C 0.27283 0.65037 -0.08621
 O61 O 0.27839 0.62690 -0.05345
 O62 O 0.35462 0.63078 -0.06845
 C63 C 0.39513 0.64996 -0.07759
 O64 O 0.41365 0.68920 0.07021
 O65 O 0.41117 0.75295 0.04807
 C66 C 0.38131 0.75580 0.07615
 O67 O 0.34157 0.73735 0.06221
 O68 O 0.27173 0.67368 0.03986
 C69 C 0.26959 0.64678 0.07290
 O70 O 0.29192 0.62978 0.06379
 O71 O 0.36526 0.62931 0.04824
 C72 C 0.39508 0.65351 0.08088
 Cr73 Cr 0.41262 0.71421 0.00076
 Cr74 Cr 0.31685 0.71133 -0.00692
 Cr75 Cr 0.32345 0.63113 -0.00254
 O76 O 0.35106 0.68559 -0.00311
 O77 O 0.57960 0.31892 -0.03987
 O78 O 0.58484 0.25739 -0.06257
 C79 C 0.60642 0.24087 -0.07858
 O80 O 0.64102 0.24582 -0.05272
 O81 O 0.70891 0.31169 -0.07497
 C82 C 0.72633 0.34740 -0.08524
 O83 O 0.72078 0.37054 -0.05220
 O84 O 0.64488 0.36752 -0.06127
 C85 C 0.60440 0.34821 -0.07028
 O86 O 0.58810 0.30793 0.07615
 O87 O 0.58964 0.24409 0.05345
 C88 C 0.62001 0.24102 0.07986
 O89 O 0.65927 0.25845 0.06344
 O90 O 0.72885 0.32151 0.04102
 C91 C 0.73362 0.34945 0.07300
 O92 O 0.71226 0.36755 0.06559
 O93 O 0.63803 0.36796 0.05659
 C94 C 0.60733 0.34337 0.08799
 Cr95 Cr 0.58788 0.28315 0.00665
 Cr96 Cr 0.68323 0.28531 -0.00568
 Cr97 Cr 0.67791 0.36633 0.00213
 O98 O 0.64965 0.31161 0.00101
 C99 C 0.43788 0.84880 -0.29478
 C100 C 0.43284 0.88218 -0.29483
 C101 C 0.44226 0.90496 -0.34577
 C102 C 0.45414 0.89381 -0.39855
 C103 C 0.45795 0.85994 -0.39814
 C104 C 0.45038 0.83805 -0.34717
 C105 C 0.42792 0.82545 -0.23954
 C106 C 0.43619 0.79409 -0.23336
 C107 C 0.42507 0.77243 -0.18183
 C108 C 0.40500 0.78107 -0.13532
 C109 C 0.39752 0.81281 -0.14028
 C110 C 0.40977 0.83554 -0.19151
 C111 C 0.41675 0.89175 -0.24479
 C112 C 0.40453 0.86846 -0.19475
 H113 H 0.41243 0.91712 -0.24486
 H114 H 0.39124 0.87660 -0.15778
 H115 H 0.43732 0.93000 -0.34508
 H116 H 0.46819 0.85065 -0.43690
 H117 H 0.43137 0.74822 -0.17888
 H118 H 0.38283 0.82012 -0.10398
 H119 H 0.45370 0.81239 -0.35017
 H120 H 0.45146 0.78593 -0.26756
 C121 C 0.16198 0.59346 -0.29183
 C122 C 0.17016 0.61986 -0.33820
 C123 C 0.14613 0.60802 -0.39038
 C124 C 0.11277 0.57005 -0.39762
 C125 C 0.10378 0.54436 -0.35016
 C126 C 0.12809 0.55577 -0.29838
 C127 C 0.18962 0.60706 -0.23767
 C128 C 0.18653 0.58247 -0.19081
 C129 C 0.21348 0.59654 -0.14171
 C130 C 0.24383 0.63550 -0.13774
 C131 C 0.24717 0.66018 -0.18415
 C132 C 0.22089 0.64623 -0.23417
 C133 C 0.20198 0.65815 -0.33219
 C134 C 0.22642 0.67115 -0.28102
 H135 H 0.20797 0.67850 -0.36754
 H136 H 0.25050 0.70110 -0.27846
 H137 H 0.15250 0.62920 -0.42451
 H138 H 0.07933 0.51466 -0.35349
 H139 H 0.21039 0.57685 -0.10659
 H140 H 0.27104 0.69024 -0.18202
 H141 H 0.11985 0.53456 -0.26410
 H142 H 0.16395 0.55224 -0.19148
 C143 C 0.45767 0.60201 -0.27885
 C144 C 0.47449 0.62827 -0.32611
 C145 C 0.48468 0.61676 -0.37963
 C146 C 0.48044 0.57972 -0.38617
 C147 C 0.46699 0.55505 -0.33685
 C148 C 0.45554 0.56586 -0.28439
 C149 C 0.44293 0.61388 -0.22476
 C150 C 0.41872 0.58774 -0.18003
 C151 C 0.40375 0.59974 -0.13183
 C152 C 0.41361 0.63816 -0.12626
 C153 C 0.43814 0.66458 -0.16994
 C154 C 0.45147 0.65244 -0.22015
 C155 C 0.48131 0.66589 -0.31937
 C156 C 0.47118 0.67800 -0.26690
 H157 H 0.49501 0.68638 -0.35504
 H158 H 0.47732 0.70745 -0.26374
 H159 H 0.49713 0.63721 -0.41551
 H160 H 0.46246 0.52610 -0.33934
 H161 H 0.38423 0.57892 -0.09881
 H162 H 0.44475 0.69412 -0.16627
 H163 H 0.44485 0.54537 -0.24875
 H164 H 0.40969 0.55770 -0.18249
 C165 C 0.54928 0.14389 -0.28505
 C166 C 0.56424 0.11653 -0.29162
 C167 C 0.55401 0.09405 -0.34257
 C168 C 0.53049 0.09950 -0.38825
 C169 C 0.51577 0.12658 -0.38183
 C170 C 0.52467 0.14832 -0.33077
 C171 C 0.56190 0.16806 -0.23079
 C172 C 0.54710 0.19481 -0.21894
 C173 C 0.56113 0.21778 -0.16910
 C174 C 0.59046 0.21493 -0.12973
 C175 C 0.60462 0.18772 -0.14030
 C176 C 0.59017 0.16403 -0.19002
 C177 C 0.59066 0.11283 -0.24843
 C178 C 0.60382 0.13640 -0.19914
 H179 H 0.60224 0.09198 -0.25352
 H180 H 0.62506 0.13296 -0.16767
 H181 H 0.56609 0.07356 -0.34802
 H182 H 0.49775 0.13124 -0.41691
 H183 H 0.54952 0.23842 -0.16198
 H184 H 0.62677 0.18486 -0.10971
 H185 H 0.51299 0.16908 -0.32880
 H186 H 0.52472 0.19854 -0.24752
 C187 C 0.83317 0.40824 -0.29432
 C188 C 0.83425 0.38132 -0.33405
 C189 C 0.85842 0.39390 -0.38620
 C190 C 0.88187 0.43312 -0.39966
 C191 C 0.88097 0.45975 -0.36013
 C192 C 0.85699 0.44758 -0.30818
 C193 C 0.80655 0.39356 -0.23941
 C194 C 0.80276 0.41788 -0.19754
 C195 C 0.77709 0.40281 -0.14757
 C196 C 0.75454 0.36309 -0.13765
 C197 C 0.75839 0.33861 -0.17888
 C198 C 0.78397 0.35347 -0.22952
 C199 C 0.81125 0.34203 -0.32157
 C200 C 0.78672 0.32842 -0.27042
 H201 H 0.81215 0.32143 -0.35193
 H202 H 0.76944 0.29774 -0.26291
 H203 H 0.85935 0.37313 -0.41620
 H204 H 0.89838 0.49014 -0.36982
 H205 H 0.77482 0.42247 -0.11664
 H206 H 0.74104 0.30786 -0.17200
 H207 H 0.85749 0.46946 -0.27976
 H208 H 0.81910 0.44860 -0.20256
 C209 C 0.54364 0.39513 -0.27620
 C210 C 0.56338 0.43492 -0.28841
 C211 C 0.55365 0.44819 -0.34061
 C212 C 0.52594 0.42237 -0.38251
 C213 C 0.50683 0.38296 -0.37103
 C214 C 0.51518 0.36941 -0.31826
 C215 C 0.55584 0.38220 -0.22046
 C216 C 0.53621 0.34356 -0.20210
 C217 C 0.55081 0.33278 -0.15176
 C218 C 0.58553 0.36016 -0.11900
 C219 C 0.60398 0.39886 -0.13538
 C220 C 0.58899 0.41010 -0.18511
 C221 C 0.59413 0.46121 -0.24976
 C222 C 0.60725 0.44901 -0.19979
 H223 H 0.60933 0.49165 -0.25927
 H224 H 0.63217 0.47040 -0.17225
 H225 H 0.56929 0.47868 -0.35004
 H226 H 0.48558 0.36262 -0.40316
 H227 H 0.53599 0.30274 -0.13967
 H228 H 0.63032 0.42024 -0.10953
 H229 H 0.50003 0.33878 -0.31198
 H230 H 0.50985 0.32126 -0.22621
 C231 C 0.84341 0.39618 0.27856
 C232 C 0.87428 0.43531 0.28336
 C233 C 0.89884 0.44898 0.33493
 C234 C 0.89052 0.42502 0.38453
 C235 C 0.85871 0.38636 0.37984
 C236 C 0.83606 0.37200 0.32746
 C237 C 0.81761 0.38283 0.22303
 C238 C 0.79024 0.34383 0.21072
 C239 C 0.76456 0.33308 0.16019
 C240 C 0.76488 0.36093 0.12173
 C241 C 0.79354 0.39968 0.13193
 C242 C 0.82085 0.41069 0.18132
 C243 C 0.87852 0.46105 0.23819
 C244 C 0.85139 0.44922 0.18915
 H245 H 0.90184 0.49115 0.24203
 H246 H 0.85461 0.47050 0.15663
 H247 H 0.92172 0.47925 0.33795
 H248 H 0.85177 0.36671 0.41640
 H249 H 0.74317 0.30297 0.15223
 H250 H 0.79465 0.42117 0.10124
 H251 H 0.81184 0.34220 0.32679
 H252 H 0.78828 0.32134 0.23953
 C253 C 0.57784 0.15001 0.29308
 C254 C 0.54101 0.11336 0.29237
 C255 C 0.52876 0.09051 0.34340
 C256 C 0.55097 0.10456 0.39693
 C257 C 0.58682 0.14161 0.39731
 C258 C 0.60029 0.16377 0.34629
 C259 C 0.59028 0.17330 0.23767
 C260 C 0.62902 0.20809 0.23224
 C261 C 0.63861 0.22936 0.18039
 C262 C 0.60970 0.21683 0.13291
 C263 C 0.57143 0.18182 0.13714
 C264 C 0.56211 0.15952 0.18865
 C265 C 0.51561 0.10042 0.24144
 C266 C 0.52532 0.12339 0.19119
 H267 H 0.48706 0.07251 0.24092
 H268 H 0.50403 0.11248 0.15348
 H269 H 0.49996 0.06278 0.34208
 H270 H 0.60570 0.15336 0.43678
 H271 H 0.66837 0.25627 0.17787
 H272 H 0.54943 0.17167 0.10000
 H273 H 0.62787 0.19192 0.34984
 H274 H 0.65253 0.21926 0.26725
 C275 C 0.55619 0.39611 0.29689
 C276 C 0.57644 0.43618 0.30643
 C277 C 0.56686 0.45083 0.35718
 C278 C 0.53767 0.42606 0.39926
 C279 C 0.51750 0.38644 0.38950
 C280 C 0.52646 0.37160 0.33909
 C281 C 0.56785 0.38157 0.24269
 C282 C 0.54939 0.34230 0.22907
 C283 C 0.56198 0.33014 0.17875
 C284 C 0.59331 0.35669 0.14048
 C285 C 0.61154 0.39594 0.15331
 C286 C 0.59904 0.40851 0.20382
 C287 C 0.60658 0.46132 0.26575
 C288 C 0.61773 0.44779 0.21567
 H289 H 0.62210 0.49199 0.27298
 H290 H 0.64149 0.46844 0.18583
 H291 H 0.58298 0.48148 0.36471
 H292 H 0.49449 0.36678 0.42108
 H293 H 0.54728 0.29969 0.17011
 H294 H 0.63567 0.41684 0.12408
 H295 H 0.50998 0.34088 0.33440
 H296 H 0.52530 0.32042 0.25668
 C297 C 0.15958 0.60095 0.28050
 C298 C 0.17131 0.58283 0.32560
 C299 C 0.14765 0.57188 0.37804
 C300 C 0.11161 0.57785 0.38645
 C301 C 0.09898 0.59471 0.34138
 C302 C 0.12284 0.60641 0.28904
 C303 C 0.18667 0.61300 0.22562
 C304 C 0.17992 0.63349 0.17941
 C305 C 0.20660 0.64438 0.12959
 C306 C 0.24022 0.63467 0.12435
 C307 C 0.24708 0.61430 0.17011
 C308 C 0.22118 0.60393 0.22063
 C309 C 0.20625 0.57525 0.31809
 C310 C 0.23034 0.58518 0.26646
 H311 H 0.21495 0.56113 0.35255
 H312 H 0.25694 0.57847 0.26266
 H313 H 0.15682 0.55793 0.41229
 H314 H 0.07092 0.59919 0.34697
 H315 H 0.20085 0.66036 0.09505
 H316 H 0.27350 0.60727 0.16714
 H317 H 0.11187 0.61936 0.25577
 H318 H 0.15464 0.64178 0.18124
 C319 C 0.42500 0.85473 0.28007
 C320 C 0.39320 0.84330 0.32493
 C321 C 0.40229 0.86415 0.37737
 C322 C 0.44233 0.89698 0.38540
 C323 C 0.47296 0.90946 0.33988
 C324 C 0.46456 0.88858 0.28787
 C325 C 0.41497 0.83023 0.22632
 C326 C 0.44580 0.83671 0.18187
 C327 C 0.43499 0.81253 0.13320
 C328 C 0.39307 0.78169 0.12723
 C329 C 0.36223 0.77496 0.17131
 C330 C 0.37303 0.79843 0.22104
 C331 C 0.35255 0.81117 0.31726
 C332 C 0.34243 0.78959 0.26602
 H333 H 0.32805 0.80265 0.35133
 H334 H 0.31042 0.76509 0.26208
 H335 H 0.37824 0.85485 0.41216
 H336 H 0.50402 0.93487 0.34529
 H337 H 0.45941 0.81814 0.09993
 H338 H 0.32998 0.75068 0.16772
 H339 H 0.48945 0.89931 0.25452
 H340 H 0.47857 0.85989 0.18428
 C341 C 0.44151 0.59668 0.29092
 C342 C 0.47024 0.62428 0.33099
 C343 C 0.48173 0.61251 0.38348
 C344 C 0.46510 0.57343 0.39690
 C345 C 0.43662 0.54617 0.35714
 C346 C 0.42494 0.55752 0.30492
 C347 C 0.42982 0.61044 0.23556
 C348 C 0.40123 0.58531 0.19321
 C349 C 0.39067 0.59945 0.14297
 C350 C 0.40836 0.63905 0.13316
 C351 C 0.43737 0.66438 0.17472
 C352 C 0.44805 0.65042 0.22570
 C353 C 0.48733 0.66344 0.31848
 C354 C 0.47649 0.67622 0.26701
 H355 H 0.50939 0.68459 0.34909
 H356 H 0.49049 0.70682 0.25956
 H357 H 0.50406 0.63380 0.41372
 H358 H 0.42278 0.51584 0.36683
 H359 H 0.36823 0.57913 0.11181
 H360 H 0.45116 0.69505 0.16793
 H361 H 0.40282 0.53514 0.27640
 H362 H 0.38637 0.55461 0.19806
   
