data_POSCAR
  _audit_creation_date              2014-09-24
  _audit_creation_method            'ToBaCCo'
  _symmetry_space_group_name_H-M    'P1'
  _symmetry_Int_Tables_number       1
  _symmetry_cell_setting            triclinic
  loop_
  _symmetry_equiv_pos_as_xyz
 x,y,z
_cell_length_a 32.6501
_cell_length_b 34.6767
_cell_length_c 18.2206
_cell_angle_alpha 89.978300
_cell_angle_beta 89.998100
_cell_angle_gamma 122.384800
loop_
  _atom_site_label
  _atom_site_type_symbol
  _atom_site_fract_x
  _atom_site_fract_y
  _atom_site_fract_z
O1 O 0.52222 1.04148 0.57315
 O2 O 0.48111 0.95428 0.42838
 O3 O 0.52097 1.04272 0.43029
 O4 O 0.48089 0.95338 0.57135
 O5 O 0.40923 0.94563 0.57445
 O6 O 0.44801 1.03205 0.42881
 O7 O 0.40826 0.94388 0.43161
 O8 O 0.45059 1.03381 0.57186
 Cu9 Cu 0.50855 0.99888 0.50047
 Cu10 Cu 0.42178 0.98795 0.50174
 C11 C 0.49343 1.05262 0.59704
 C12 C 0.43759 0.93388 0.40583
 C13 C 0.49131 1.05250 0.40503
 C14 C 0.43834 0.93466 0.59760
 O15 O -0.03798 0.45359 0.43539
 O16 O 0.05484 0.51216 0.57617
 O17 O -0.03984 0.46480 0.57673
 O18 O 0.05556 0.51054 0.43290
 O19 O 0.04881 0.57030 0.42217
 O20 O -0.04306 0.52648 0.56609
 O21 O 0.05149 0.57382 0.56524
 O22 O -0.04476 0.51329 0.42459
 Cu23 Cu 0.00866 0.47934 0.50653
 Cu24 Cu 0.00259 0.55191 0.49346
 C25 C -0.05737 0.47298 0.40555
 C26 C 0.06937 0.55271 0.59479
 C27 C -0.05752 0.48830 0.59614
 C28 C 0.06801 0.54843 0.40262
 O29 O 0.51632 0.55004 0.57208
 O30 O 0.56736 0.51501 0.42531
 O31 O 0.51549 0.55116 0.42917
 O32 O 0.56726 0.51213 0.56822
 O33 O 0.49953 0.44413 0.56926
 O34 O 0.44893 0.48222 0.42659
 O35 O 0.50078 0.44605 0.42607
 O36 O 0.44862 0.48195 0.56939
 Cu37 Cu 0.54836 0.53896 0.49913
 Cu38 Cu 0.46776 0.45670 0.49794
 C39 C 0.47358 0.52219 0.59514
 C40 C 0.54261 0.47455 0.40045
 C41 C 0.47358 0.52311 0.40343
 C42 C 0.54229 0.47151 0.59272
 O43 O 0.43288 0.67226 -0.06258
 O44 O 0.42446 0.74211 -0.08382
 C45 C 0.39862 0.75840 -0.09779
 O46 O 0.36059 0.74775 -0.06175
 O47 O 0.28372 0.66676 -0.08241
 C48 C 0.26460 0.62486 -0.09718
 O49 O 0.27496 0.59923 -0.06280
 O50 O 0.35971 0.61059 -0.08464
 C51 C 0.40461 0.63596 -0.09827
 O52 O 0.42985 0.68301 0.08351
 O53 O 0.42583 0.75528 0.06221
 C54 C 0.39419 0.75816 0.09809
 O55 O 0.34923 0.73349 0.08463
 O56 O 0.27052 0.65369 0.06391
 C57 C 0.26583 0.61969 0.09856
 O58 O 0.28999 0.60189 0.08328
 O59 O 0.37300 0.61000 0.06154
 C60 C 0.40918 0.64079 0.09759
 Cr61 Cr 0.42549 0.71162 -0.00018
 Cr62 Cr 0.31757 0.69937 0.00107
 Cr63 Cr 0.32564 0.60803 -0.00069
 O64 O 0.35620 0.67299 0.00001
 O65 O 0.58067 0.32108 -0.06737
 O66 O 0.58967 0.25097 -0.07930
 C67 C 0.61541 0.23416 -0.08940
 O68 O 0.65308 0.24550 -0.05154
 O69 O 0.73040 0.32539 -0.07589
 C70 C 0.74927 0.36626 -0.09692
 O71 O 0.73852 0.39342 -0.06907
 O72 O 0.65384 0.38150 -0.09301
 C73 C 0.60888 0.35627 -0.10548
 O74 O 0.58413 0.31516 0.07958
 O75 O 0.58746 0.24193 0.06775
 C76 C 0.61888 0.24016 0.10623
 O77 O 0.66388 0.26506 0.09380
 O78 O 0.74288 0.34384 0.06930
 C79 C 0.74817 0.37988 0.09727
 O80 O 0.72439 0.39701 0.07627
 O81 O 0.64112 0.38755 0.05264
 C82 C 0.60499 0.35774 0.09035
 Cr83 Cr 0.58827 0.28384 0.00014
 Cr84 Cr 0.69599 0.29600 0.00860
 Cr85 Cr 0.68821 0.38724 -0.00804
 O86 O 0.65761 0.32244 0.00017
 C87 C 0.44032 0.85461 -0.26949
 C88 C 0.39579 0.83682 -0.23330
 N89 N 0.36569 0.85075 -0.25345
 C90 C 0.37817 0.88183 -0.30813
 C91 C 0.42300 0.90010 -0.34414
 N92 N 0.45297 0.88587 -0.32373
 N93 N 0.47026 0.84044 -0.24963
 C94 C 0.45775 0.80932 -0.19499
 C95 C 0.41331 0.79168 -0.15804
 N96 N 0.38341 0.80600 -0.17843
 H97 H 0.35350 0.89241 -0.32282
 H98 H 0.48244 0.79876 -0.18029
 C99 C 0.15807 0.56736 -0.26397
 C100 C 0.17791 0.61264 -0.24144
 N101 N 0.16207 0.63792 -0.27285
 C102 C 0.12719 0.61988 -0.32582
 C103 C 0.10726 0.57445 -0.34846
 N104 N 0.12345 0.54946 -0.31671
 N105 N 0.17347 0.54185 -0.23253
 C106 C 0.20786 0.55952 -0.17914
 C107 C 0.22793 0.60491 -0.15604
 N108 N 0.21237 0.63041 -0.18813
 H109 H 0.11522 0.64075 -0.34989
 H110 H 0.21931 0.53825 -0.15502
 C111 C 0.46293 0.59389 -0.26450
 C112 C 0.41467 0.56532 -0.24139
 N113 N 0.38657 0.52328 -0.27175
 C114 C 0.40453 0.50842 -0.32428
 C115 C 0.45289 0.53696 -0.34776
 N116 N 0.48087 0.57917 -0.31711
 N117 N 0.49115 0.63579 -0.23367
 C118 C 0.47335 0.65042 -0.18048
 C119 C 0.42497 0.62188 -0.15704
 N120 N 0.39682 0.57993 -0.18848
 H121 H 0.38123 0.47473 -0.34751
 H122 H 0.49678 0.68396 -0.15679
 C123 C 0.56934 0.13495 -0.25710
 C124 C 0.54082 0.15213 -0.23581
 N125 N 0.49761 0.13672 -0.26925
 C126 C 0.48147 0.10476 -0.32319
 C127 C 0.50997 0.08751 -0.34505
 N128 N 0.55340 0.10319 -0.31128
 N129 N 0.61239 0.15018 -0.22300
 C130 C 0.62826 0.18189 -0.16852
 C131 C 0.59983 0.19936 -0.14732
 N132 N 0.55673 0.18389 -0.18186
 H133 H 0.44682 0.09310 -0.34881
 H134 H 0.66276 0.19348 -0.14245
 C135 C 0.85540 0.41427 -0.26459
 C136 C 0.83743 0.44088 -0.24025
 N137 N 0.85430 0.48239 -0.27090
 C138 C 0.88841 0.49863 -0.32473
 C139 C 0.90699 0.47226 -0.34905
 N140 N 0.88977 0.43055 -0.31799
 N141 N 0.83818 0.37256 -0.23445
 C142 C 0.80384 0.35622 -0.18096
 C143 C 0.78595 0.38292 -0.15585
 N144 N 0.80337 0.42478 -0.18639
 H145 H 0.90100 0.53195 -0.34781
 H146 H 0.79098 0.32283 -0.15794
 C147 C 0.55162 0.39850 -0.27318
 C148 C 0.59938 0.42721 -0.24832
 N149 N 0.62735 0.46987 -0.27655
 C150 C 0.60973 0.48533 -0.32860
 C151 C 0.56177 0.45670 -0.35407
 N152 N 0.53399 0.41376 -0.32551
 N153 N 0.52345 0.35607 -0.24384
 C154 C 0.54086 0.34113 -0.19040
 C155 C 0.58877 0.36989 -0.16529
 N156 N 0.61681 0.41227 -0.19536
 H157 H 0.63309 0.51961 -0.34977
 H158 H 0.51751 0.30728 -0.16770
 C159 C 0.85177 0.44828 0.26594
 C160 C 0.83948 0.40488 0.24184
 N161 N 0.86108 0.38472 0.27305
 C162 C 0.89455 0.40599 0.32713
 C163 C 0.90751 0.44985 0.35110
 N164 N 0.88550 0.46980 0.31957
 N165 N 0.82983 0.46826 0.23520
 C166 C 0.79622 0.44689 0.18132
 C167 C 0.78406 0.40350 0.15642
 N168 N 0.80617 0.38359 0.18758
 H169 H 0.91108 0.38883 0.35058
 H170 H 0.77948 0.46384 0.15783
 C171 C 0.57060 0.14191 0.27597
 C172 C 0.53846 0.15155 0.24216
 N173 N 0.49134 0.12864 0.26369
 C174 C 0.47480 0.09635 0.31735
 C175 C 0.50679 0.08600 0.35068
 N176 N 0.55406 0.10935 0.32882
 N177 N 0.61784 0.16512 0.25527
 C178 C 0.63445 0.19745 0.20186
 C179 C 0.60225 0.20679 0.16678
 N180 N 0.55485 0.18347 0.18808
 H181 H 0.43698 0.07870 0.33308
 H182 H 0.67229 0.21514 0.18626
 C183 C 0.55212 0.40140 0.26225
 C184 C 0.59614 0.43237 0.22730
 N185 N 0.62224 0.47652 0.24997
 C186 C 0.60627 0.49113 0.30596
 C187 C 0.56200 0.46019 0.34080
 N188 N 0.53607 0.41599 0.31777
 N189 N 0.52613 0.35719 0.24026
 C190 C 0.54217 0.34238 0.18488
 C191 C 0.58625 0.37324 0.14942
 N192 N 0.61216 0.41768 0.17164
 H193 H 0.62776 0.52656 0.32269
 H194 H 0.52061 0.30684 0.16877
 C195 C 0.16233 0.56376 0.27009
 C196 C 0.17274 0.60355 0.23307
 N197 N 0.14927 0.62453 0.25217
 C198 C 0.11570 0.60754 0.30667
 C199 C 0.10480 0.56750 0.34387
 N200 N 0.12854 0.54653 0.32450
 N201 N 0.18617 0.54303 0.25090
 C202 C 0.21987 0.56026 0.19626
 C203 C 0.23013 0.60001 0.15874
 N204 N 0.20612 0.62060 0.17843
 H205 H 0.09756 0.62511 0.32045
 H206 H 0.23821 0.54294 0.18211
 C207 C 0.43999 0.85787 0.26494
 C208 C 0.39136 0.83220 0.24238
 N209 N 0.35871 0.84002 0.27349
 C210 C 0.37249 0.87248 0.32620
 C211 C 0.42121 0.89831 0.34906
 N212 N 0.45377 0.89018 0.31770
 N213 N 0.47272 0.85031 0.23334
 C214 C 0.45907 0.81829 0.17990
 C215 C 0.41033 0.79248 0.15698
 N216 N 0.37767 0.80015 0.18921
 H217 H 0.34563 0.87795 0.34997
 H218 H 0.48602 0.81312 0.15560
 C219 C 0.46252 0.59790 0.27008
 C220 C 0.41896 0.56682 0.23428
 N221 N 0.39359 0.52232 0.25506
 C222 C 0.40991 0.50736 0.30995
 C223 C 0.45385 0.53829 0.34549
 N224 N 0.47904 0.58296 0.32450
 N225 N 0.48771 0.64247 0.24956
 C226 C 0.47138 0.65741 0.19462
 C227 C 0.42794 0.62627 0.15804
 N228 N 0.40281 0.58162 0.17911
 H229 H 0.38902 0.47163 0.32507
 H230 H 0.49231 0.69313 0.17940
   
