data_POSCAR
  _audit_creation_date              2014-09-24
  _audit_creation_method            'ToBaCCo'
  _symmetry_space_group_name_H-M    'P1'
  _symmetry_Int_Tables_number       1
  _symmetry_cell_setting            triclinic
  loop_
  _symmetry_equiv_pos_as_xyz
 x,y,z
_cell_length_a 34.2913
_cell_length_b 34.2470
_cell_length_c 34.3299
_cell_angle_alpha 104.845300
_cell_angle_beta 77.196300
_cell_angle_gamma 73.792300
loop_
  _atom_site_label
  _atom_site_type_symbol
  _atom_site_fract_x
  _atom_site_fract_y
  _atom_site_fract_z
C1 C 0.50756 0.48532 0.00886
 C2 C 0.47635 0.51874 0.00691
 C3 C 0.43332 0.51714 0.00788
 C4 C 0.48332 0.55890 0.00392
 C5 C 0.55089 0.48623 0.00689
 C6 C 0.50000 0.44595 0.01292
 C7 C 0.42804 0.48649 -0.02429
 C8 C 0.38710 0.48730 -0.02460
 C9 C 0.34968 0.51937 0.00720
 C10 C 0.35612 0.54973 0.03972
 C11 C 0.39711 0.54866 0.03979
 C12 C 0.47504 0.57363 -0.02901
 C13 C 0.48033 0.61188 -0.03182
 C14 C 0.49391 0.63625 -0.00164
 C15 C 0.50216 0.62149 0.03139
 C16 C 0.49657 0.58333 0.03434
 C17 C 0.56571 0.48467 0.04160
 C18 C 0.60622 0.48617 0.04049
 C19 C 0.63294 0.48846 0.00432
 C20 C 0.61828 0.48935 -0.03071
 C21 C 0.57749 0.48842 -0.02936
 C22 C 0.47763 0.44562 0.05228
 C23 C 0.47233 0.40756 0.05605
 C24 C 0.48854 0.36978 0.02030
 C25 C 0.51042 0.37043 -0.01912
 C26 C 0.51663 0.40812 -0.02264
 H27 H 0.45566 0.46269 -0.05007
 H28 H 0.38570 0.46402 -0.05170
 H29 H 0.33002 0.57380 0.06661
 H30 H 0.40060 0.57257 0.06505
 H31 H 0.46462 0.55534 -0.05269
 H32 H 0.47408 0.62228 -0.05779
 H33 H 0.50206 0.57314 0.06064
 H34 H 0.54565 0.48287 0.06979
 H35 H 0.61694 0.48494 0.06770
 H36 H 0.63820 0.49131 -0.05889
 H37 H 0.56662 0.48934 -0.05654
 H38 H 0.46489 0.47462 0.08002
 H39 H 0.45534 0.40761 0.08669
 H40 H 0.52339 0.34150 -0.04697
 H41 H 0.53419 0.40794 -0.05313
 H42 H 0.51193 0.64001 0.05550
 C43 C 0.01088 0.51028 0.51132
 C44 C 0.00406 0.48088 0.48099
 C45 C -0.00022 0.44042 0.48640
 C46 C 0.00011 0.48755 0.44075
 C47 C 0.01772 0.54955 0.50506
 C48 C 0.01001 0.50572 0.55329
 C49 C 0.03190 0.41119 0.49481
 C50 C 0.02866 0.37193 0.49698
 C51 C -0.00651 0.36101 0.49027
 C52 C -0.03885 0.39062 0.48243
 C53 C -0.03566 0.42985 0.48042
 C54 C 0.02615 0.45532 0.40182
 C55 C 0.02171 0.46013 0.36369
 C56 C -0.00910 0.49717 0.36374
 C57 C -0.03522 0.52945 0.40283
 C58 C -0.03080 0.52457 0.44101
 C59 C -0.00766 0.59031 0.53548
 C60 C -0.00170 0.62761 0.53044
 C61 C 0.02995 0.62498 0.49492
 C62 C 0.05566 0.58408 0.46461
 C63 C 0.04981 0.54667 0.46980
 C64 C -0.02691 0.50492 0.58014
 C65 C -0.02847 0.50370 0.62081
 C66 C 0.00692 0.50317 0.63524
 C67 C 0.04408 0.50325 0.60799
 C68 C 0.04546 0.50488 0.56749
 H69 H 0.05996 0.41829 0.49864
 H70 H 0.05436 0.34950 0.50246
 H71 H -0.06657 0.38335 0.47766
 H72 H -0.06077 0.45193 0.47386
 H73 H 0.05005 0.42644 0.40098
 H74 H 0.04271 0.43499 0.33412
 H75 H -0.05187 0.54936 0.47078
 H76 H -0.03255 0.59329 0.56294
 H77 H -0.02241 0.65865 0.55403
 H78 H 0.08067 0.58100 0.43722
 H79 H 0.07039 0.51547 0.44641
 H80 H -0.05479 0.50614 0.56989
 H81 H -0.05741 0.50343 0.64111
 H82 H 0.07158 0.50341 0.61851
 H83 H 0.07406 0.50586 0.54727
 H84 H -0.05966 0.55805 0.40392
 C85 C 0.52441 0.00081 0.49039
 C86 C 0.49281 0.00132 0.52256
 C87 C 0.49768 0.00225 0.56460
 C88 C 0.45133 0.00013 0.51722
 C89 C 0.51801 0.00221 0.44942
 C90 C 0.56705 -0.00089 0.49385
 C91 C 0.52875 -0.03129 0.56917
 C92 C 0.52942 -0.03189 0.60968
 C93 C 0.49855 0.00089 0.64674
 C94 C 0.46858 0.03526 0.64126
 C95 C 0.46806 0.03566 0.60090
 C96 C 0.43816 -0.03368 0.52344
 C97 C 0.39947 -0.03580 0.51836
 C98 C 0.37317 -0.00407 0.50700
 C99 C 0.38614 0.03012 0.50127
 C100 C 0.42474 0.03242 0.50673
 C101 C 0.51708 0.03902 0.43833
 C102 C 0.51091 0.04125 0.40001
 C103 C 0.50641 0.00632 0.37174
 C104 C 0.50796 -0.03086 0.38262
 C105 C 0.51350 -0.03281 0.42135
 C106 C 0.57217 0.03248 0.52335
 C107 C 0.61320 0.03210 0.52294
 C108 C 0.65020 -0.00160 0.49259
 C109 C 0.64414 -0.03571 0.46420
 C110 C 0.60326 -0.03510 0.46470
 H111 H 0.55146 -0.05785 0.54142
 H112 H 0.55265 -0.05964 0.61139
 H113 H 0.44566 0.06270 0.66795
 H114 H 0.44405 0.06208 0.59795
 H115 H 0.45818 -0.05877 0.53175
 H116 H 0.39044 -0.06268 0.52263
 H117 H 0.43385 0.05936 0.50284
 H118 H 0.52075 0.06619 0.45962
 H119 H 0.51035 0.07002 0.39211
 H120 H 0.50446 -0.05814 0.36135
 H121 H 0.51445 -0.06157 0.42940
 H122 H 0.54443 0.05957 0.54570
 H123 H 0.61534 0.05972 0.54493
 H124 H 0.67076 -0.06376 0.44183
 H125 H 0.59984 -0.06142 0.44198
 H126 H 0.36612 0.05537 0.49318
 O127 O 0.45829 0.00622 -0.03371
 O128 O 0.45690 0.02108 0.07671
 O129 O 0.45265 0.07021 0.02945
 O130 O 0.46159 -0.04262 0.01332
 O131 O 0.53202 -0.06329 -0.00843
 O132 O 0.52303 0.05034 0.01058
 O133 O 0.52744 -0.00094 0.05568
 O134 O 0.52857 -0.01274 -0.05437
 Cu135 Cu 0.45032 0.01578 0.02357
 Cu136 Cu 0.53484 -0.00863 -0.00124
 C137 C 0.49353 -0.00517 -0.06284
 C138 C 0.49203 0.01171 0.08493
 C139 C 0.48627 0.07957 0.02249
 C140 C 0.49824 -0.07225 -0.00007
 O141 O -0.07688 0.53971 1.01956
 O142 O 0.02892 0.54925 1.01236
 O143 O -0.01814 0.54598 0.96193
 O144 O -0.03104 0.54513 1.07068
 O145 O -0.00090 0.47403 1.04615
 O146 O 0.01315 0.47498 0.93665
 O147 O 0.05919 0.47817 0.98795
 O148 O -0.04602 0.46866 0.99380
 Cu149 Cu -0.02727 0.55212 1.01860
 Cu150 Cu 0.00940 0.46684 0.98870
 C151 C -0.07937 0.50243 1.00720
 C152 C 0.06210 0.51528 0.99943
 C153 C -0.00085 0.51075 0.93071
 C154 C -0.01793 0.50957 1.07712
 O155 O 0.03864 -0.07849 0.44760
 O156 O 0.01842 0.03332 0.44956
 O157 O 0.08319 -0.02765 0.44930
 O158 O -0.02659 -0.01643 0.44918
 O159 O -0.04906 0.00715 0.51923
 O160 O 0.06103 -0.00525 0.51934
 O161 O -0.00315 0.05667 0.51962
 O162 O 0.01569 -0.05538 0.51764
 Cu163 Cu 0.03067 -0.02475 0.44190
 Cu164 Cu 0.00390 0.00306 0.52600
 C165 C 0.03012 -0.08608 0.48223
 C166 C 0.00473 0.06407 0.48480
 C167 C 0.09078 -0.01779 0.48441
 C168 C -0.05660 -0.00281 0.48412
 C169 C -0.24251 0.49037 1.00275
 C170 C -0.24738 0.46317 0.96728
 C171 C -0.28808 0.46292 0.96754
 C172 C -0.32386 0.48941 1.00310
 C173 C -0.31769 0.51644 1.03772
 N174 N -0.27780 0.51645 1.03659
 C175 C -0.20013 0.49205 1.00394
 N176 N -0.19756 0.52980 1.02634
 C177 C -0.15960 0.53379 1.02831
 C178 C -0.12119 0.49823 1.00724
 C179 C -0.12325 0.45874 0.98482
 C180 C -0.16253 0.45554 0.98300
 H181 H -0.29152 0.44158 0.94023
 H182 H -0.34460 0.53778 1.06550
 H183 H -0.15950 0.56475 1.04621
 H184 H -0.09445 0.43045 0.96818
 H185 H -0.22024 0.44277 0.93937
 H186 H -0.16340 0.42470 0.96579
 C187 C 0.22649 0.52475 1.00347
 C188 C 0.23191 0.56095 1.02838
 C189 C 0.27271 0.55922 1.02968
 C190 C 0.30925 0.52129 1.00633
 C191 C 0.30163 0.48560 0.98195
 N192 N 0.26142 0.48828 0.98152
 C193 C 0.18382 0.52414 1.00154
 N194 N 0.17899 0.48522 0.98851
 C195 C 0.14088 0.48165 0.98674
 C196 C 0.10433 0.51882 0.99871
 C197 C 0.10868 0.55930 1.01133
 C198 C 0.14827 0.56214 1.01261
 H199 H 0.27485 0.58891 1.04782
 H200 H 0.32675 0.45455 0.96469
 H201 H 0.13912 0.44972 0.97657
 H202 H 0.08146 0.58882 1.02046
 H203 H 0.20508 0.59045 1.04724
 H204 H 0.15069 0.59378 1.02185
 C205 C 0.04132 -0.25735 0.48134
 C206 C 0.04501 -0.29094 0.44546
 C207 C 0.04224 -0.32966 0.44968
 C208 C 0.03551 -0.33506 0.48948
 C209 C 0.03250 -0.30098 0.52438
 N210 N 0.03523 -0.26359 0.51952
 C211 C 0.04132 -0.21440 0.47986
 N212 N 0.02545 -0.18045 0.51705
 C213 C 0.02263 -0.13964 0.51870
 C214 C 0.03597 -0.13088 0.48121
 C215 C 0.05346 -0.16551 0.44256
 C216 C 0.05642 -0.20723 0.44173
 H217 H 0.04399 -0.35484 0.42207
 H218 H 0.02783 -0.30394 0.55557
 H219 H 0.00915 -0.11401 0.54925
 H220 H 0.06458 -0.16033 0.41289
 H221 H 0.04856 -0.28728 0.41467
 H222 H 0.07049 -0.23321 0.41149
 C223 C -0.00926 0.23589 0.48644
 C224 C -0.02245 0.25376 0.45693
 C225 C -0.02196 0.29469 0.45851
 C226 C -0.00857 0.31811 0.48948
 C227 C 0.00350 0.29951 0.51898
 N228 N 0.00278 0.25950 0.51680
 C229 C -0.00766 0.19194 0.48522
 N230 N -0.01118 0.18221 0.52161
 C231 C -0.00850 0.14208 0.52252
 C232 C -0.00108 0.10860 0.48502
 C233 C 0.00268 0.11793 0.44718
 C234 C -0.00061 0.15941 0.44712
 H235 H -0.03132 0.30769 0.43499
 H236 H 0.01338 0.31677 0.54379
 H237 H -0.01127 0.13622 0.55235
 H238 H 0.00872 0.09303 0.41746
 H239 H -0.03331 0.23659 0.43298
 H240 H 0.00370 0.16535 0.41727
 C241 C 0.49276 -0.00566 -0.23046
 C242 C 0.45611 0.01815 -0.23742
 C243 C 0.45810 0.02027 -0.27772
 C244 C 0.49667 -0.00100 -0.31193
 C245 C 0.53278 -0.02440 -0.30320
 N246 N 0.52995 -0.02574 -0.26341
 C247 C 0.49230 -0.00799 -0.18784
 N248 N 0.52935 -0.01519 -0.17782
 C249 C 0.53085 -0.01573 -0.13867
 C250 C 0.49339 -0.00837 -0.10664
 C251 C 0.45516 -0.00228 -0.11673
 C252 C 0.45451 -0.00232 -0.15718
 H253 H 0.42852 0.03748 -0.28182
 H254 H 0.56380 -0.04034 -0.32727
 H255 H 0.56112 -0.02091 -0.13238
 H256 H 0.42560 0.00293 -0.09324
 H257 H 0.42609 0.03562 -0.21201
 H258 H 0.42465 0.00194 -0.16414
 C259 C 0.49357 0.01352 0.25251
 C260 C 0.46762 0.04804 0.29001
 C261 C 0.47152 0.04554 0.32900
 C262 C 0.50083 0.00864 0.33075
 C263 C 0.52585 -0.02531 0.29262
 N264 N 0.52196 -0.02188 0.25497
 C265 C 0.49196 0.01510 0.21026
 N266 N 0.52822 -0.00630 0.17632
 C267 C 0.52917 -0.00686 0.13640
 C268 C 0.49180 0.01438 0.12866
 C269 C 0.45396 0.03644 0.16314
 C270 C 0.45394 0.03708 0.20398
 H271 H 0.45168 0.07241 0.35779
 H272 H 0.54919 -0.05406 0.29268
 H273 H 0.55893 -0.02466 0.11065
 H274 H 0.42437 0.05299 0.15851
 H275 H 0.44537 0.07709 0.28925
 H276 H 0.42428 0.05362 0.23004
 C277 C 0.50474 -0.24374 -0.00751
 C278 C 0.53650 -0.27237 0.00193
 C279 C 0.53316 -0.31164 0.00366
 C280 C 0.49840 -0.32254 -0.00407
 C281 C 0.46745 -0.29310 -0.01348
 N282 N 0.47119 -0.25493 -0.01463
 C283 C 0.50515 -0.20070 -0.00771
 N284 N 0.46731 -0.16896 -0.00021
 C285 C 0.46452 -0.12820 0.00141
 C286 C 0.50140 -0.11729 -0.00476
 C287 C 0.54097 -0.14976 -0.01369
 C288 C 0.54301 -0.19146 -0.01523
 H289 H 0.55777 -0.33353 0.01093
 H290 H 0.43980 -0.29995 -0.01901
 H291 H 0.43337 -0.10430 0.00805
 H292 H 0.57026 -0.14282 -0.01891
 H293 H 0.56307 -0.26429 0.00899
 H294 H 0.57391 -0.21600 -0.02250
 C295 C 0.47818 0.25063 0.02799
 C296 C 0.46117 0.26859 0.00025
 C297 C 0.46420 0.30778 -0.00198
 C298 C 0.48335 0.32939 0.02391
 C299 C 0.49925 0.31084 0.05178
 N300 N 0.49688 0.27207 0.05269
 C301 C 0.47824 0.20783 0.02907
 N302 N 0.51324 0.17988 0.03261
 C303 C 0.51623 0.13912 0.03146
 C304 C 0.48249 0.12464 0.02688
 C305 C 0.44559 0.15345 0.02457
 C306 C 0.44346 0.19492 0.02536
 H307 H 0.45181 0.32119 -0.02399
 H308 H 0.51463 0.32654 0.07186
 H309 H 0.54506 0.11800 0.03376
 H310 H 0.41884 0.14356 0.02101
 H311 H 0.44696 0.25187 -0.02047
 H312 H 0.41494 0.21664 0.02311
 C313 C -0.22539 0.00100 0.48418
 C314 C -0.23288 -0.02264 0.44860
 C315 C -0.27375 -0.02338 0.45141
 C316 C -0.30796 -0.00093 0.48978
 C317 C -0.29869 0.02229 0.52477
 N318 N -0.25837 0.02230 0.52114
 C319 C -0.18223 0.00190 0.48308
 N320 N -0.17268 0.01051 0.52009
 C321 C -0.13326 0.01025 0.52138
 C322 C -0.10044 0.00055 0.48375
 C323 C -0.10992 -0.00723 0.44542
 C324 C -0.15069 -0.00631 0.44495
 H325 H -0.27828 -0.04052 0.42261
 H326 H -0.32271 0.03909 0.55560
 H327 H -0.12743 0.01677 0.55170
 H328 H -0.08577 -0.01423 0.41571
 H329 H -0.20751 -0.04105 0.41883
 H330 H -0.15719 -0.01176 0.41500
 C331 C 0.25578 -0.01362 0.49051
 C332 C 0.28203 -0.00207 0.46129
 C333 C 0.32023 0.00133 0.46677
 C334 C 0.33238 -0.00680 0.50116
 C335 C 0.30510 -0.01791 0.52980
 N336 N 0.26794 -0.02074 0.52398
 C337 C 0.21441 -0.01662 0.48711
 N338 N 0.18335 -0.01015 0.52306
 C339 C 0.14413 -0.01136 0.52283
 C340 C 0.13430 -0.01957 0.48466
 C341 C 0.16623 -0.02752 0.44701
 C342 C 0.20627 -0.02611 0.44807
 H343 H 0.34047 0.00988 0.44391
 H344 H 0.31301 -0.02379 0.55710
 H345 H 0.12058 -0.00535 0.55258
 H346 H 0.16012 -0.03422 0.41681
 H347 H 0.27298 0.00511 0.43496
 H348 H 0.23048 -0.03272 0.41859
 C349 C -0.02117 0.50924 1.24540
 C350 C -0.02453 0.54569 1.27813
 C351 C -0.02107 0.54190 1.31685
 C352 C -0.01398 0.50192 1.32311
 C353 C -0.01082 0.46632 1.28963
 N354 N -0.01427 0.47079 1.25221
 C355 C -0.02286 0.51067 1.20300
 N356 N -0.00506 0.47308 1.16924
 C357 C -0.00405 0.47171 1.12908
 C358 C -0.02153 0.50989 1.12097
 C359 C -0.04107 0.54885 1.15545
 C360 C -0.04199 0.54939 1.19641
 H361 H -0.02284 0.56999 1.34151
 H362 H -0.00583 0.43498 1.29322
 H363 H 0.01111 0.44090 1.10351
 H364 H -0.05537 0.57905 1.15077
 H365 H -0.02853 0.57658 1.27381
 H366 H -0.05776 0.57982 1.22236
 C367 C 0.00181 0.50949 0.76235
 C368 C -0.03329 0.53576 0.75490
 C369 C -0.03185 0.53318 0.71339
 C370 C 0.00444 0.50461 0.67925
 C371 C 0.03860 0.47843 0.68795
 N372 N 0.03637 0.48130 0.72870
 C373 C 0.00175 0.51123 0.80582
 N374 N 0.02363 0.47484 0.81221
 C375 C 0.02402 0.47402 0.85154
 C376 C 0.00161 0.51151 0.88736
 C377 C -0.02011 0.54964 0.88127
 C378 C -0.02015 0.54963 0.84069
 H379 H -0.05879 0.55406 0.70803
 H380 H 0.06692 0.45559 0.66239
 H381 H 0.04146 0.44401 0.85477
 H382 H -0.03765 0.57937 0.90793
 H383 H -0.06178 0.55773 0.78073
 H384 H -0.03688 0.57949 0.83674
   
