data_POSCAR
  _audit_creation_date              2014-09-24
  _audit_creation_method            'ToBaCCo'
  _symmetry_space_group_name_H-M    'P1'
  _symmetry_Int_Tables_number       1
  _symmetry_cell_setting            triclinic
  loop_
  _symmetry_equiv_pos_as_xyz
 x,y,z
_cell_length_a 55.6641
_cell_length_b 55.5214
_cell_length_c 56.0524
_cell_angle_alpha 90.034100
_cell_angle_beta 89.884600
_cell_angle_gamma 90.061800
loop_
  _atom_site_label
  _atom_site_type_symbol
  _atom_site_fract_x
  _atom_site_fract_y
  _atom_site_fract_z
N1 N 0.59169 0.59821 0.59987
 N2 N 0.90312 0.40887 0.10001
 N3 N 0.40277 0.09806 -0.09497
 N4 N 0.14036 0.86024 0.35790
 N5 N 0.09374 0.16469 0.11071
 N6 N 0.08284 0.15522 0.12934
 C7 C 0.06411 0.16931 0.13549
 C8 C 0.06339 0.18844 0.11984
 C9 C 0.08234 0.18507 0.10437
 H10 H 0.05203 0.16606 0.15027
 H11 H 0.08752 0.19666 0.08973
 Cu12 Cu 0.09439 0.12560 0.14391
 Cu13 Cu 0.12206 0.15020 0.09625
 Cu14 Cu 0.14379 0.09813 0.12244
 N15 N 0.10732 0.09672 0.15879
 N16 N 0.12662 0.08609 0.15023
 C17 C 0.13184 0.06679 0.16377
 C18 C 0.11494 0.06534 0.18167
 C19 C 0.09962 0.08450 0.17814
 H20 H 0.14685 0.05478 0.16090
 H21 H 0.08417 0.08919 0.18890
 N22 N 0.15873 0.11301 0.09421
 N23 N 0.15049 0.13289 0.08421
 C24 C 0.16469 0.13867 0.06555
 C25 C 0.18255 0.12160 0.06388
 C26 C 0.17837 0.10562 0.08219
 H27 H 0.16237 0.15418 0.05413
 H28 H 0.18898 0.08992 0.08649
 H29 H 0.11489 0.11528 0.10676
 H30 H 0.13401 0.13378 0.12711
 N31 N 0.39832 0.83955 0.61527
 N32 N 0.40583 0.84619 0.63651
 C33 C 0.42422 0.83194 0.64314
 C34 C 0.42830 0.81563 0.62503
 C35 C 0.41165 0.82084 0.60763
 H36 H 0.43373 0.83318 0.65990
 H37 H 0.40923 0.81152 0.59086
 Cu38 Cu 0.39053 0.87236 0.65380
 Cu39 Cu 0.37141 0.85513 0.59949
 Cu40 Cu 0.34828 0.90609 0.62666
 N41 N 0.38024 0.90314 0.66671
 N42 N 0.36372 0.91626 0.65615
 C43 C 0.35994 0.93639 0.66905
 C44 C 0.37494 0.93571 0.68858
 C45 C 0.38758 0.91447 0.68665
 H46 H 0.34721 0.95040 0.66463
 H47 H 0.40102 0.90777 0.69886
 N48 N 0.33522 0.89276 0.59675
 N49 N 0.34415 0.87335 0.58639
 C50 C 0.33136 0.86851 0.56659
 C51 C 0.31368 0.88567 0.56449
 C52 C 0.31649 0.90079 0.58379
 H53 H 0.33447 0.85349 0.55469
 H54 H 0.30557 0.91629 0.58814
 H55 H 0.37867 0.88815 0.61518
 H56 H 0.35447 0.86949 0.62924
 N57 N 0.90197 0.66222 0.39470
 N58 N 0.91276 0.65249 0.37615
 C59 C 0.93235 0.66564 0.37066
 C60 C 0.93380 0.68444 0.38663
 C61 C 0.91435 0.68187 0.40167
 H62 H 0.94458 0.66197 0.35610
 H63 H 0.90952 0.69345 0.41644
 Cu64 Cu 0.90013 0.62385 0.36063
 Cu65 Cu 0.87261 0.64877 0.40818
 Cu66 Cu 0.84882 0.59844 0.38014
 N67 N 0.88607 0.59607 0.34475
 N68 N 0.86599 0.58621 0.35240
 C69 C 0.86015 0.56765 0.33803
 C70 C 0.87752 0.56594 0.32057
 C71 C 0.89368 0.58414 0.32522
 H72 H 0.84440 0.55641 0.34000
 H73 H 0.90961 0.58844 0.31499
 N74 N 0.83403 0.61339 0.40845
 N75 N 0.84307 0.63257 0.41915
 C76 C 0.82887 0.63850 0.43775
 C77 C 0.81016 0.62227 0.43865
 C78 C 0.81385 0.60663 0.41995
 H79 H 0.83180 0.65351 0.44969
 H80 H 0.80259 0.59153 0.41508
 H81 H 0.87814 0.61375 0.39698
 H82 H 0.86057 0.63367 0.37664
 N83 N 0.59684 0.34102 -0.10642
 N84 N 0.58619 0.34913 -0.12575
 C85 C 0.56740 0.33473 -0.13096
 C86 C 0.56638 0.31682 -0.11397
 C87 C 0.58522 0.32122 -0.09867
 H88 H 0.55549 0.33693 -0.14601
 H89 H 0.59019 0.31071 -0.08322
 Cu90 Cu 0.59826 0.37744 -0.14234
 Cu91 Cu 0.62518 0.35646 -0.09296
 Cu92 Cu 0.64659 0.40734 -0.12199
 N93 N 0.61021 0.40617 -0.15831
 N94 N 0.62915 0.41779 -0.15024
 C95 C 0.63380 0.43667 -0.16461
 C96 C 0.61688 0.43677 -0.18251
 C97 C 0.60217 0.41729 -0.17811
 H98 H 0.64848 0.44923 -0.16234
 H99 H 0.58695 0.41160 -0.18866
 N100 N 0.66175 0.39396 -0.09315
 N101 N 0.65361 0.37457 -0.08210
 C102 C 0.66794 0.36978 -0.06334
 C103 C 0.68577 0.38696 -0.06268
 C104 C 0.68146 0.40200 -0.08171
 H105 H 0.66575 0.35482 -0.05118
 H106 H 0.69204 0.41748 -0.08690
 H107 H 0.61776 0.39057 -0.10567
 H108 H 0.63769 0.37127 -0.12445
 C109 C -0.08410 0.38770 0.10326
 C110 C -0.07273 0.36942 0.10597
 C111 C -0.05880 0.34782 0.10900
 C112 C -0.05843 0.33032 0.09103
 C113 C -0.04414 0.30979 0.09351
 C114 C -0.02996 0.30652 0.11401
 C115 C -0.03068 0.32409 0.13211
 C116 C -0.04500 0.34460 0.12959
 C117 C -0.01403 0.28519 0.11621
 C118 C 0.00932 0.28764 0.12550
 C119 C 0.02463 0.26775 0.12684
 C120 C 0.01683 0.24514 0.11897
 C121 C -0.00644 0.24244 0.10993
 C122 C -0.02178 0.26232 0.10855
 C123 C 0.03295 0.22491 0.11959
 C124 C 0.04671 0.20816 0.11984
 H125 H -0.06896 0.33269 0.07496
 H126 H -0.04373 0.29676 0.07913
 H127 H -0.02021 0.32195 0.14823
 H128 H -0.04517 0.35804 0.14362
 H129 H 0.01595 0.30505 0.13123
 H130 H 0.04264 0.27007 0.13376
 H131 H -0.01266 0.22502 0.10380
 H132 H -0.03974 0.25980 0.10159
 C133 C 0.57873 0.61917 0.60375
 C134 C 0.56724 0.63730 0.60696
 C135 C 0.55317 0.65873 0.61053
 C136 C 0.55134 0.67581 0.59228
 C137 C 0.53689 0.69616 0.59532
 C138 C 0.52402 0.69967 0.61668
 C139 C 0.52623 0.68254 0.63504
 C140 C 0.54071 0.66220 0.63196
 C141 C 0.50783 0.72074 0.61947
 C142 C 0.48516 0.71806 0.63032
 C143 C 0.46951 0.73765 0.63212
 C144 C 0.47629 0.76017 0.62315
 C145 C 0.49891 0.76311 0.61260
 C146 C 0.51460 0.74354 0.61077
 C147 C 0.45972 0.78002 0.62414
 C148 C 0.44554 0.79641 0.62469
 H149 H 0.56083 0.67324 0.57558
 H150 H 0.53531 0.70883 0.58073
 H151 H 0.51679 0.68489 0.65179
 H152 H 0.54202 0.64910 0.64622
 H153 H 0.47929 0.70069 0.63690
 H154 H 0.45200 0.73515 0.64022
 H155 H 0.50434 0.78048 0.60561
 H156 H 0.53203 0.74624 0.60259
 C157 C 1.12014 0.84647 0.36280
 C158 C 1.10271 0.83420 0.36686
 C159 C 1.08217 0.81911 0.37134
 C160 C 1.08109 0.80507 0.39205
 C161 C 1.06173 0.78944 0.39579
 C162 C 1.04320 0.78764 0.37884
 C163 C 1.04428 0.80213 0.35827
 C164 C 1.06365 0.81773 0.35456
 C165 C 1.02326 0.77014 0.38214
 C166 C 0.99958 0.77624 0.37581
 C167 C 0.98107 0.75931 0.37782
 C168 C 0.98597 0.73609 0.38621
 C169 C 1.00938 0.72997 0.39289
 C170 C 1.02791 0.74686 0.39091
 C171 C 0.96725 0.71821 0.38696
 C172 C 0.95183 0.70295 0.38709
 H173 H 1.09534 0.80600 0.40516
 H174 H 1.06127 0.77874 0.41194
 H175 H 1.03048 0.80092 0.34473
 H176 H 1.06438 0.82842 0.33840
 H177 H 0.99538 0.79409 0.36927
 H178 H 0.96301 0.76423 0.37258
 H179 H 1.01340 0.71200 0.39926
 H180 H 1.04598 0.74150 0.39560
 C181 C 0.41622 0.11889 -0.09793
 C182 C 0.42811 0.13692 -0.10028
 C183 C 0.44257 0.15827 -0.10275
 C184 C 0.43867 0.17803 -0.08773
 C185 C 0.45327 0.19845 -0.08953
 C186 C 0.47201 0.19937 -0.10640
 C187 C 0.47562 0.17950 -0.12159
 C188 C 0.46100 0.15909 -0.11974
 C189 C 0.48801 0.22075 -0.10786
 C190 C 0.49572 0.22961 -0.13012
 C191 C 0.51124 0.24940 -0.13141
 C192 C 0.51925 0.26058 -0.11050
 C193 C 0.51157 0.25201 -0.08829
 C194 C 0.49605 0.23224 -0.08695
 C195 C 0.53568 0.28057 -0.11180
 C196 C 0.54960 0.29718 -0.11282
 H197 H 0.42443 0.17759 -0.07453
 H198 H 0.44984 0.21357 -0.07780
 H199 H 0.49009 0.17951 -0.13453
 H200 H 0.46426 0.14384 -0.13138
 H201 H 0.48962 0.22135 -0.14653
 H202 H 0.51704 0.25591 -0.14870
 H203 H 0.51774 0.26047 -0.07198
 H204 H 0.49071 0.22565 -0.06955
 C205 C 0.13553 -0.11958 0.34416
 C206 C 0.13156 -0.10218 0.33192
 C207 C 0.12725 -0.08167 0.31685
 C208 C 0.14427 -0.06316 0.31547
 C209 C 0.14078 -0.04387 0.29984
 C210 C 0.12020 -0.04287 0.28533
 C211 C 0.10299 -0.06137 0.28715
 C212 C 0.10651 -0.08064 0.30281
 C213 C 0.11720 -0.02309 0.26776
 C214 C 0.10858 -0.02802 0.24467
 C215 C 0.10696 -0.00967 0.22769
 C216 C 0.11387 0.01384 0.23353
 C217 C 0.12208 0.01902 0.25655
 C218 C 0.12373 0.00069 0.27358
 C219 C 0.11359 0.03234 0.21556
 C220 C 0.11390 0.04755 0.20024
 H221 H 0.16045 -0.06385 0.32616
 H222 H 0.15452 -0.03011 0.29863
 H223 H 0.08683 -0.06096 0.27644
 H224 H 0.09322 -0.09488 0.30374
 H225 H 0.10374 -0.04618 0.23953
 H226 H 0.10073 -0.01392 0.20987
 H227 H 0.12751 0.03716 0.26126
 H228 H 0.13016 0.00510 0.29127
 C229 C 0.59525 0.58491 -0.37950
 C230 C 0.59814 0.57316 -0.36165
 C231 C 0.60130 0.55886 -0.34048
 C232 C 0.58803 0.56404 -0.31988
 C233 C 0.59048 0.54965 -0.29957
 C234 C 0.60625 0.52985 -0.29962
 C235 C 0.61969 0.52495 -0.32035
 C236 C 0.61720 0.53936 -0.34064
 C237 C 0.60833 0.51410 -0.27831
 C238 C 0.63083 0.50513 -0.27115
 C239 C 0.63265 0.48983 -0.25143
 C240 C 0.61205 0.48330 -0.23862
 C241 C 0.58962 0.49225 -0.24549
 C242 C 0.58775 0.50756 -0.26519
 C243 C 0.61384 0.46709 -0.21868
 C244 C 0.61526 0.45334 -0.20210
 H245 H 0.57569 0.57912 -0.31956
 H246 H 0.58012 0.55408 -0.28380
 H247 H 0.63173 0.50966 -0.32106
 H248 H 0.62747 0.53512 -0.35654
 H249 H 0.64702 0.51006 -0.28070
 H250 H 0.65011 0.48303 -0.24623
 H251 H 0.57354 0.48724 -0.23576
 H252 H 0.57015 0.51389 -0.27044
 C253 C 0.39926 1.08544 0.88396
 C254 C 0.39630 1.07418 0.86579
 C255 C 0.39289 1.06030 0.84437
 C256 C 0.37426 1.04342 0.84308
 C257 C 0.37150 1.02919 0.82269
 C258 C 0.38740 1.03163 0.80329
 C259 C 0.40590 1.04888 0.80464
 C260 C 0.40862 1.06310 0.82505
 C261 C 0.38506 1.01580 0.78204
 C262 C 0.40562 1.00597 0.77111
 C263 C 0.40341 0.99035 0.75167
 C264 C 0.38067 0.98436 0.74286
 C265 C 0.36012 0.99425 0.75342
 C266 C 0.36228 1.00987 0.77289
 C267 C 0.37845 0.96755 0.72344
 C268 C 0.37675 0.95317 0.70740
 H269 H 0.36205 1.04102 0.85798
 H270 H 0.35729 1.01586 0.82235
 H271 H 0.41824 1.05139 0.78989
 H272 H 0.42310 1.07613 0.82585
 H273 H 0.42338 1.00990 0.77793
 H274 H 0.41943 0.98270 0.74369
 H275 H 0.34243 0.98975 0.74674
 H276 H 0.34615 1.01737 0.78073
 C277 C 0.89914 0.42133 0.12110
 C278 C 0.89587 0.43239 0.13935
 C279 C 0.89227 0.44591 0.16097
 C280 C 0.87705 0.46595 0.16103
 C281 C 0.87430 0.47972 0.18175
 C282 C 0.88677 0.47362 0.20270
 C283 C 0.90179 0.45324 0.20254
 C284 C 0.90451 0.43949 0.18180
 C285 C 0.88463 0.48884 0.22440
 C286 C 0.90505 0.49419 0.23820
 C287 C 0.90324 0.50923 0.25813
 C288 C 0.88103 0.51910 0.26456
 C289 C 0.86056 0.51368 0.25112
 C290 C 0.86233 0.49865 0.23117
 C291 C 0.87944 0.53530 0.28455
 C292 C 0.87840 0.54914 0.30109
 H293 H 0.86758 0.47114 0.14497
 H294 H 0.86286 0.49547 0.18120
 H295 H 0.91139 0.44790 0.21846
 H296 H 0.91632 0.42399 0.18195
 H297 H 0.92252 0.48722 0.23327
 H298 H 0.91922 0.51341 0.26834
 H299 H 0.84328 0.52121 0.25596
 H300 H 0.84625 0.49463 0.22108
 C301 C 0.38169 0.10178 -0.08227
 C302 C 0.36344 0.10482 -0.07103
 C303 C 0.34182 0.10814 -0.05731
 C304 C 0.34152 0.12433 -0.03817
 C305 C 0.32083 0.12685 -0.02421
 C306 C 0.30015 0.11315 -0.02920
 C307 C 0.30054 0.09715 -0.04868
 C308 C 0.32125 0.09467 -0.06263
 C309 C 0.27852 0.11507 -0.01376
 C310 C 0.26556 0.09430 -0.00726
 C311 C 0.24568 0.09597 0.00791
 C312 C 0.23844 0.11838 0.01678
 C313 C 0.25104 0.13919 0.01024
 C314 C 0.27096 0.13757 -0.00493
 C315 C 0.21848 0.11987 0.03307
 C316 C 0.20197 0.12082 0.04699
 H317 H 0.35738 0.13476 -0.03384
 H318 H 0.32121 0.13907 -0.00916
 H319 H 0.28482 0.08659 -0.05317
 H320 H 0.32128 0.08210 -0.07742
 H321 H 0.27112 0.07669 -0.01346
 H322 H 0.23612 0.07973 0.01296
 H323 H 0.24558 0.15664 0.01699
 H324 H 0.28038 0.15391 -0.00983
 C325 C 0.61265 0.60198 0.58696
 C326 C 0.63075 0.60510 0.57550
 C327 C 0.65214 0.60859 0.56146
 C328 C 0.67015 0.59102 0.56137
 C329 C 0.69048 0.59390 0.54697
 C330 C 0.69305 0.61439 0.53241
 C331 C 0.67497 0.63209 0.53286
 C332 C 0.65465 0.62918 0.54729
 C333 C 0.71416 0.61695 0.51636
 C334 C 0.71131 0.62573 0.49299
 C335 C 0.73102 0.62739 0.47759
 C336 C 0.75384 0.62034 0.48532
 C337 C 0.75693 0.61181 0.50860
 C338 C 0.73723 0.61012 0.52404
 C339 C 0.77392 0.62131 0.46913
 C340 C 0.79056 0.62188 0.45534
 H341 H 0.66832 0.57496 0.57218
 H342 H 0.70391 0.57981 0.54678
 H343 H 0.67656 0.64820 0.52210
 H344 H 0.64082 0.64290 0.54725
 H345 H 0.69375 0.63080 0.48643
 H346 H 0.72841 0.63391 0.45957
 H347 H 0.77452 0.60633 0.51477
 H348 H 0.74005 0.60357 0.54200
 C349 C 0.88244 0.40578 0.08658
 C350 C 0.86457 0.40328 0.07470
 C351 C 0.84340 0.40056 0.06024
 C352 C 0.82319 0.41487 0.06459
 C353 C 0.80290 0.41279 0.05005
 C354 C 0.80259 0.39634 0.03094
 C355 C 0.82294 0.38188 0.02686
 C356 C 0.84321 0.38400 0.04141
 C357 C 0.78133 0.39456 0.01506
 C358 C 0.77331 0.37201 0.00678
 C359 C 0.75363 0.37044 -0.00862
 C360 C 0.74172 0.39134 -0.01594
 C361 C 0.74945 0.41383 -0.00767
 C362 C 0.76910 0.41545 0.00773
 C363 C 0.72184 0.38976 -0.03224
 C364 C 0.70531 0.38847 -0.04605
 H365 H 0.82314 0.42774 0.07913
 H366 H 0.78742 0.42395 0.05384
 H367 H 0.82339 0.36928 0.01211
 H368 H 0.85881 0.37292 0.03781
 H369 H 0.78215 0.35559 0.01233
 H370 H 0.74777 0.35293 -0.01487
 H371 H 0.74041 0.43014 -0.01330
 H372 H 0.77503 0.43309 0.01353
 C373 C 0.15405 0.86523 0.37795
 C374 C 0.16624 0.86933 0.39525
 C375 C 0.18120 0.87378 0.41569
 C376 C 0.19676 0.89359 0.41597
 C377 C 0.21224 0.89718 0.43527
 C378 C 0.21236 0.88095 0.45455
 C379 C 0.19635 0.86131 0.45426
 C380 C 0.18091 0.85775 0.43494
 C381 C 0.22967 0.88393 0.47447
 C382 C 0.22270 0.87922 0.49816
 C383 C 0.23939 0.88081 0.51671
 C384 C 0.26324 0.88716 0.51183
 C385 C 0.27026 0.89227 0.48839
 C386 C 0.25360 0.89071 0.46983
 C387 C 0.28077 0.88734 0.53066
 C388 C 0.29568 0.88690 0.54622
 H389 H 0.19713 0.90611 0.40115
 H390 H 0.22414 0.91262 0.43511
 H391 H 0.19624 0.84831 0.46865
 H392 H 0.16902 0.84228 0.43484
 H393 H 0.20435 0.87425 0.50233
 H394 H 0.23377 0.87679 0.53479
 H395 H 0.28871 0.89705 0.48440
 H396 H 0.25962 0.89412 0.45176
   
