data_POSCAR
  _audit_creation_date              2014-09-24
  _audit_creation_method            'ToBaCCo'
  _symmetry_space_group_name_H-M    'P1'
  _symmetry_Int_Tables_number       1
  _symmetry_cell_setting            triclinic
  loop_
  _symmetry_equiv_pos_as_xyz
 x,y,z
_cell_length_a 57.4850
_cell_length_b 51.9974
_cell_length_c 29.6456
_cell_angle_alpha 90.369300
_cell_angle_beta 89.948700
_cell_angle_gamma 90.187300
loop_
  _atom_site_label
  _atom_site_type_symbol
  _atom_site_fract_x
  _atom_site_fract_y
  _atom_site_fract_z
C1 C 1.27441 0.22142 0.26727
 C2 C 1.25391 0.23349 0.25291
 C3 C 1.23526 0.21839 0.23719
 C4 C 1.23725 0.19148 0.23414
 C5 C 1.25814 0.17981 0.24766
 C6 C 1.27683 0.19452 0.26494
 C7 C 1.25241 0.26198 0.25333
 C8 C 1.27090 0.27677 0.23581
 C9 C 1.26988 0.30382 0.23591
 C10 C 1.25033 0.31574 0.25514
 C11 C 1.23210 0.30140 0.27377
 C12 C 1.23287 0.27446 0.27180
 H13 H 1.28853 0.23323 0.28011
 H14 H 1.21947 0.22771 0.22601
 H15 H 1.28578 0.26707 0.22118
 H16 H 1.21881 0.26328 0.28626
 H17 H 1.25959 0.15908 0.24554
 H18 H 1.24922 0.33654 0.25621
 C19 C 0.77172 -0.27631 0.26816
 C20 C 0.75186 -0.26299 0.25353
 C21 C 0.73416 -0.27646 0.23067
 C22 C 0.73656 -0.30269 0.22060
 C23 C 0.75697 -0.31537 0.23335
 C24 C 0.77445 -0.30268 0.25826
 C25 C 0.74988 -0.23479 0.26001
 C26 C 0.76818 -0.21852 0.24678
 C27 C 0.76544 -0.19165 0.24719
 C28 C 0.74420 -0.18121 0.26195
 C29 C 0.72597 -0.19722 0.27666
 C30 C 0.72900 -0.22399 0.27563
 H31 H 0.78510 -0.26595 0.28658
 H32 H 0.71877 -0.26631 0.21965
 H33 H 0.78414 -0.22689 0.23402
 H34 H 0.71488 -0.23652 0.28586
 H35 H 0.75860 -0.33571 0.22590
 H36 H 0.74191 -0.16054 0.26242
 C37 C 0.76915 0.21921 -0.24488
 C38 C 0.75094 0.23477 -0.26035
 C39 C 0.73126 0.22324 -0.28007
 C40 C 0.72954 0.19639 -0.28422
 C41 C 0.74811 0.18108 -0.26926
 C42 C 0.76785 0.19233 -0.24930
 C43 C 0.75196 0.26306 -0.25450
 C44 C 0.77133 0.27717 -0.26986
 C45 C 0.77174 0.30422 -0.26627
 C46 C 0.75295 0.31661 -0.24497
 C47 C 0.73384 0.30279 -0.22852
 C48 C 0.73322 0.27603 -0.23414
 H49 H 0.78421 0.22800 -0.22903
 H50 H 0.71706 0.23526 -0.29134
 H51 H 0.78555 0.26705 -0.28608
 H52 H 0.71843 0.26518 -0.22178
 H53 H 0.74697 0.16032 -0.27202
 H54 H 0.75296 0.33735 -0.24133
 C55 C 1.27194 -0.27784 -0.22401
 C56 C 1.25352 -0.26270 -0.24037
 C57 C 1.23493 -0.27465 -0.26319
 C58 C 1.23554 -0.30117 -0.27235
 C59 C 1.25470 -0.31563 -0.25817
 C60 C 1.27285 -0.30440 -0.23315
 C61 C 1.25513 -0.23426 -0.23744
 C62 C 1.27592 -0.22219 -0.25035
 C63 C 1.27840 -0.19541 -0.24815
 C64 C 1.25969 -0.18052 -0.23229
 C65 C 1.23842 -0.19213 -0.22005
 C66 C 1.23626 -0.21912 -0.22306
 H67 H 1.28600 -0.26860 -0.20570
 H68 H 1.22064 -0.26320 -0.27568
 H69 H 1.29024 -0.23384 -0.26250
 H70 H 1.22014 -0.22843 -0.21340
 H71 H 1.25490 -0.33611 -0.26517
 H72 H 1.26150 -0.15980 -0.23069
 C73 C 0.22188 0.27111 0.73372
 C74 C 0.23438 0.24942 0.74749
 C75 C 0.22231 0.22723 0.76130
 C76 C 0.19774 0.22666 0.76142
 C77 C 0.18566 0.24887 0.74757
 C78 C 0.19756 0.27109 0.73386
 C79 C 0.26010 0.25029 0.74591
 C80 C 0.27199 0.27164 0.76440
 C81 C 0.29602 0.27479 0.75762
 C82 C 0.30790 0.25613 0.73205
 C83 C 0.29650 0.23448 0.71446
 C84 C 0.27258 0.23135 0.72205
 H85 H 0.23123 0.28809 0.72272
 H86 H 0.23213 0.21054 0.77170
 H87 H 0.26227 0.28602 0.78308
 H88 H 0.26351 0.21500 0.70743
 H89 H 0.16682 0.24902 0.74736
 H90 H 0.32645 0.25800 0.72637
 C91 C 0.71716 0.76340 0.73791
 C92 C 0.73149 0.74365 0.75448
 C93 C 0.72148 0.71979 0.76611
 C94 C 0.69788 0.71471 0.75769
 C95 C 0.68423 0.73429 0.73909
 C96 C 0.69332 0.75886 0.73004
 C97 C 0.75723 0.74666 0.75509
 C98 C 0.76807 0.76954 0.77019
 C99 C 0.79245 0.77206 0.76840
 C100 C 0.80580 0.75134 0.75232
 C101 C 0.79533 0.72847 0.73738
 C102 C 0.77106 0.72642 0.73842
 H103 H 0.72483 0.78174 0.72904
 H104 H 0.73239 0.70484 0.77996
 H105 H 0.75761 0.78533 0.78275
 H106 H 0.76285 0.70902 0.72584
 H107 H 0.66596 0.73057 0.73296
 H108 H 0.82457 0.75308 0.75136
 C109 C 0.72349 0.27859 0.23963
 C110 C 0.73349 0.25509 0.25277
 C111 C 0.71908 0.23547 0.26987
 C112 C 0.69514 0.23979 0.27592
 C113 C 0.68577 0.26365 0.26407
 C114 C 0.69971 0.28310 0.24590
 C115 C 0.75918 0.25239 0.25315
 C116 C 0.77275 0.27283 0.27005
 C117 C 0.79702 0.27120 0.27133
 C118 C 0.80775 0.24853 0.25639
 C119 C 0.79461 0.22761 0.24001
 C120 C 0.77022 0.22972 0.23813
 H121 H 0.73439 0.29374 0.22609
 H122 H 0.72664 0.21747 0.28063
 H123 H 0.76432 0.29011 0.28236
 H124 H 0.75989 0.21382 0.22532
 H125 H 0.66731 0.26703 0.26847
 H126 H 0.82654 0.24717 0.25744
 C127 C 0.22314 0.77588 0.23721
 C128 C 0.23545 0.75369 0.24945
 C129 C 0.22333 0.73209 0.26539
 C130 C 0.19893 0.73233 0.26902
 C131 C 0.18695 0.75490 0.25699
 C132 C 0.19875 0.77679 0.24076
 C133 C 0.26097 0.75279 0.24349
 C134 C 0.27515 0.77234 0.26188
 C135 C 0.29909 0.77257 0.25311
 C136 C 0.30875 0.75332 0.22592
 C137 C 0.29507 0.73322 0.20854
 C138 C 0.27112 0.73290 0.21775
 H139 H 0.23271 0.79227 0.22438
 H140 H 0.23305 0.71504 0.27430
 H141 H 0.26752 0.78745 0.28239
 H142 H 0.26030 0.71774 0.20373
 H143 H 0.16817 0.75532 0.25972
 H144 H 0.32734 0.75353 0.21978
 O145 O 1.03135 0.04817 0.07811
 O146 O 1.05701 0.02338 0.03737
 C147 C 1.05228 0.04136 0.06659
 O148 O 0.96627 -0.04531 0.08121
 O149 O 0.94015 -0.02151 0.04052
 C150 C 0.94523 -0.03917 0.06964
 O151 O 1.03087 -0.04177 0.08574
 O152 O 1.05695 -0.02062 0.04025
 C153 C 1.05187 -0.03631 0.07284
 O154 O 0.96650 0.04978 0.07542
 O155 O 0.94018 0.02454 0.03687
 C156 C 0.94542 0.04322 0.06448
 Zr157 Zr 0.99876 0.03444 0.05450
 O158 O 0.99846 0.03392 0.12586
 O159 O 0.99938 0.07494 0.04778
 Zr160 Zr 0.99855 -0.02984 0.05990
 O161 O 0.99767 -0.02361 0.13040
 O162 O 1.00024 -0.07021 0.06727
 O163 O 1.01970 0.00255 0.06549
 O164 O 0.97805 0.00247 0.06563
 O165 O 0.96569 0.04452 -0.08269
 O166 O 0.94004 0.02229 -0.03797
 C167 C 0.94482 0.03897 -0.06903
 O168 O 1.03086 -0.04745 -0.07757
 O169 O 1.05679 -0.02231 -0.03805
 C170 C 1.05187 -0.04050 -0.06668
 O171 O 0.96581 -0.04899 -0.07367
 O172 O 0.93984 -0.02382 -0.03450
 C173 C 0.94483 -0.04249 -0.06216
 O174 O 1.03033 0.04204 -0.08716
 O175 O 1.05670 0.02145 -0.04190
 C176 C 1.05142 0.03688 -0.07464
 Zr177 Zr 0.99815 0.03109 -0.05878
 O178 O 0.99723 0.03266 -0.12999
 O179 O 0.99872 0.07165 -0.05352
 Zr180 Zr 0.99829 -0.03361 -0.05376
 O181 O 0.99630 -0.03600 -0.12499
 O182 O 0.99896 -0.07404 -0.04689
 Zr183 Zr 1.03346 0.00051 -0.00030
 Zr184 Zr 0.96341 0.00035 0.00086
 O185 O 0.97780 -0.00161 -0.06432
 O186 O 1.01902 -0.00146 -0.06567
 O187 O 0.97761 0.03768 -0.00220
 O188 O 1.01867 -0.03647 0.00322
 O189 O 1.01892 0.03747 -0.00300
 O190 O 0.97770 -0.03686 0.00369
 H191 H 0.96748 0.00309 0.09204
 H192 H 1.02885 -0.05178 0.00451
 H193 H 0.96718 -0.00249 -0.09058
 H194 H 1.02938 0.05263 -0.00450
 H195 H 0.99360 -0.07778 0.03939
 H196 H 0.99890 -0.08124 -0.07793
 H197 H 1.00953 -0.02606 -0.13735
 H198 H 0.99478 0.01487 -0.14089
 H199 H 0.99943 0.07812 -0.08485
 H200 H 0.99985 0.08230 0.07867
 H201 H 0.99806 0.05208 0.13613
 H202 H 0.99715 -0.04090 0.14420
 O203 O 1.03471 0.54895 0.57916
 O204 O 1.06044 0.52458 0.53766
 C205 C 1.05561 0.54246 0.56701
 O206 O 0.96975 0.45507 0.57872
 O207 O 0.94353 0.47954 0.53952
 C208 C 0.94874 0.46116 0.56717
 O209 O 1.03409 0.45934 0.58496
 O210 O 1.06022 0.48057 0.53972
 C211 C 1.05508 0.46478 0.57210
 O212 O 0.97005 0.55089 0.57656
 O213 O 0.94356 0.52604 0.53766
 C214 C 0.94895 0.54456 0.56549
 Zr215 Zr 1.00215 0.53554 0.55550
 O216 O 1.00182 0.53430 0.62682
 O217 O 1.00288 0.57611 0.55017
 Zr218 Zr 1.00185 0.47136 0.55917
 O219 O 1.00061 0.47710 0.62977
 O220 O 1.00373 0.43097 0.56602
 O221 O 1.02308 0.50359 0.56562
 O222 O 0.98132 0.50356 0.56580
 O223 O 0.96935 0.54701 0.41876
 O224 O 0.94350 0.52474 0.46308
 C225 C 0.94849 0.54166 0.43254
 O226 O 1.03377 0.45485 0.42124
 O227 O 1.05995 0.47919 0.46163
 C228 C 1.05478 0.46123 0.43269
 O229 O 0.96920 0.45350 0.42528
 O230 O 0.94310 0.47831 0.46485
 C231 C 0.94823 0.45983 0.43684
 O232 O 1.03378 0.54424 0.41399
 O233 O 1.06011 0.52325 0.45874
 C234 C 1.05484 0.53895 0.42640
 Zr235 Zr 1.00162 0.53322 0.44215
 O236 O 1.00076 0.53545 0.37098
 O237 O 1.00231 0.57374 0.44844
 Zr238 Zr 1.00154 0.46863 0.44544
 O239 O 0.99951 0.46695 0.37416
 O240 O 1.00210 0.42812 0.45108
 Zr241 Zr 1.03679 0.50208 0.49975
 Zr242 Zr 0.96674 0.50210 0.50094
 O243 O 0.98110 0.50071 0.43573
 O244 O 1.02240 0.50072 0.43435
 O245 O 0.98109 0.53938 0.49888
 O246 O 1.02191 0.46515 0.50234
 O247 O 1.02232 0.53909 0.49808
 O248 O 0.98104 0.46489 0.50274
 H249 H 0.97065 0.50389 0.59208
 H250 H 1.03201 0.44976 0.50336
 H251 H 0.97045 0.50011 0.40949
 H252 H 1.03278 0.55426 0.49687
 H253 H 0.99796 0.42351 0.53734
 H254 H 1.00195 0.42119 0.41986
 H255 H 1.01269 0.47710 0.36206
 H256 H 0.99750 0.51793 0.35957
 H257 H 1.00314 0.58047 0.41729
 H258 H 1.00345 0.58315 0.58128
 H259 H 1.00153 0.55235 0.63766
 H260 H 1.00000 0.45970 0.64316
 O261 O 0.54122 -0.03408 0.58840
 O262 O 0.52094 -0.06463 0.54793
 C263 C 0.53632 -0.05772 0.57781
 O264 O 0.45547 0.03469 0.57559
 O265 O 0.47724 0.06329 0.53435
 C266 C 0.46031 0.05768 0.56178
 O267 O 0.45992 -0.03558 0.58805
 O268 O 0.48038 -0.06563 0.54715
 C269 C 0.46533 -0.05908 0.57796
 O270 O 0.54158 0.03676 0.57993
 O271 O 0.52036 0.06436 0.53590
 C272 C 0.53632 0.05954 0.56585
 Zr273 Zr 0.52880 0.00045 0.56057
 O274 O 0.52573 0.00294 0.63159
 O275 O 0.56561 0.00066 0.55811
 Zr276 Zr 0.47092 -0.00077 0.55953
 O277 O 0.47432 0.00288 0.63027
 O278 O 0.43426 -0.00358 0.56321
 O279 O 0.50013 -0.02324 0.57051
 O280 O 0.49940 0.02307 0.56636
 O281 O 0.54269 0.03254 0.42329
 O282 O 0.52043 0.06221 0.46138
 C283 C 0.53709 0.05595 0.43379
 O284 O 0.46109 -0.04069 0.42232
 O285 O 0.48121 -0.06799 0.46865
 C286 C 0.46644 -0.06340 0.43662
 O287 O 0.45750 0.03043 0.42141
 O288 O 0.47808 0.06134 0.46035
 C289 C 0.46219 0.05415 0.43160
 O290 O 0.54027 -0.03857 0.42227
 O291 O 0.52131 -0.06700 0.46868
 C292 C 0.53578 -0.06161 0.43627
 Zr293 Zr 0.52966 -0.00262 0.44755
 O294 O 0.53375 -0.00365 0.37664
 O295 O 0.56612 -0.00264 0.45689
 Zr296 Zr 0.47143 -0.00406 0.44589
 O297 O 0.47153 -0.00378 0.37447
 O298 O 0.43471 -0.00600 0.44879
 Zr299 Zr 0.50063 -0.04064 0.50617
 Zr300 Zr 0.49947 0.03713 0.50015
 O301 O 0.50023 0.01912 0.43653
 O302 O 0.50094 -0.02665 0.43948
 O303 O 0.53340 0.02203 0.50241
 O304 O 0.46702 -0.02491 0.50434
 O305 O 0.53383 -0.02364 0.50564
 O306 O 0.46613 0.02025 0.50074
 H307 H 0.49887 0.03571 0.59152
 H308 H 0.45331 -0.03650 0.50503
 H309 H 0.50019 0.03013 0.40938
 H310 H 0.54777 -0.03479 0.50630
 H311 H 0.42821 0.00226 0.53378
 H312 H 0.42925 -0.00722 0.41714
 H313 H 0.48243 -0.01731 0.36421
 H314 H 0.51867 0.00119 0.36329
 H315 H 0.57301 -0.00449 0.42641
 H316 H 0.57123 0.00135 0.58968
 H317 H 0.54173 0.00412 0.64379
 H318 H 0.45826 0.00350 0.64241
 O319 O 0.53314 0.55017 0.07266
 O320 O 0.55873 0.52362 0.03533
 C321 C 0.55401 0.54287 0.06188
 O322 O 0.46835 0.45669 0.08837
 O323 O 0.44222 0.47873 0.04474
 C324 C 0.44736 0.46198 0.07542
 O325 O 0.53311 0.46172 0.09361
 O326 O 0.55885 0.48056 0.04439
 C327 C 0.55403 0.46676 0.07949
 O328 O 0.46838 0.55260 0.06743
 O329 O 0.44213 0.52472 0.03490
 C330 C 0.44734 0.54537 0.05760
 Zr331 Zr 0.50060 0.53561 0.05100
 O332 O 0.49981 0.53855 0.12219
 O333 O 0.50169 0.57564 0.03851
 Zr334 Zr 0.50044 0.47191 0.06621
 O335 O 0.49913 0.48167 0.13546
 O336 O 0.50247 0.43218 0.08043
 O337 O 0.52152 0.50441 0.06682
 O338 O 0.47984 0.50436 0.06697
 O339 O 0.46784 0.54018 -0.08571
 O340 O 0.44214 0.51978 -0.03841
 C341 C 0.44702 0.53555 -0.07081
 O342 O 0.53228 0.44772 -0.06866
 O343 O 0.55834 0.47416 -0.03227
 C344 C 0.55326 0.45489 -0.05851
 O345 O 0.46754 0.44679 -0.06456
 O346 O 0.44160 0.47399 -0.02985
 C347 C 0.44660 0.45417 -0.05484
 O348 O 0.53269 0.53616 -0.09122
 O349 O 0.55855 0.51732 -0.04271
 C350 C 0.55364 0.53098 -0.07782
 Zr351 Zr 0.50023 0.52672 -0.06177
 O352 O 0.49748 0.52267 -0.13263
 O353 O 0.50163 0.56730 -0.06523
 Zr354 Zr 0.50001 0.46264 -0.04671
 O355 O 0.49767 0.45664 -0.11729
 O356 O 0.50054 0.42272 -0.03371
 Zr357 Zr 0.53513 0.49906 0.00148
 Zr358 Zr 0.46536 0.49913 0.00257
 O359 O 0.47969 0.49410 -0.06218
 O360 O 0.52092 0.49389 -0.06347
 O361 O 0.47975 0.53603 -0.00622
 O362 O 0.52039 0.46244 0.01061
 O363 O 0.52080 0.53578 -0.00683
 O364 O 0.47959 0.46220 0.01105
 H365 H 0.46908 0.50628 0.09290
 H366 H 0.53060 0.44728 0.01429
 H367 H 0.46910 0.49229 -0.08838
 H368 H 0.53133 0.55073 -0.01064
 H369 H 0.49677 0.42305 0.05320
 H370 H 0.50031 0.41401 -0.06355
 H371 H 0.51087 0.46581 -0.13144
 H372 H 0.50841 0.50898 -0.14187
 H373 H 0.50200 0.57155 -0.09776
 H374 H 0.50211 0.58443 0.06824
 H375 H 0.49930 0.55712 0.12967
 H376 H 0.49887 0.46513 0.15186
 C377 C 1.18196 0.14588 0.18552
 N378 N 1.17823 0.17052 0.19917
 N379 N 1.19575 0.18505 0.21434
 C380 C 1.21770 0.17549 0.21671
 N381 N 1.22135 0.15082 0.20304
 N382 N 1.20387 0.13634 0.18765
 C383 C 1.16262 0.12978 0.16879
 N384 N 1.16680 0.10637 0.14986
 N385 N 1.14932 0.09183 0.13456
 C386 C 1.12698 0.10005 0.13789
 N387 N 1.12281 0.12341 0.15697
 N388 N 1.14029 0.13802 0.17203
 C389 C 1.10763 0.08418 0.12058
 N390 N 1.08525 0.09117 0.12844
 N391 N 1.06768 0.07722 0.11196
 C392 C 1.07179 0.05577 0.08684
 N393 N 1.09419 0.04872 0.07905
 N394 N 1.11177 0.06261 0.09576
 C395 C 1.18117 0.65724 0.66794
 N396 N 1.17667 0.67944 0.69074
 N397 N 1.19399 0.69340 0.70828
 C398 C 1.21640 0.68554 0.70379
 N399 N 1.22080 0.66360 0.68025
 N400 N 1.20356 0.64978 0.66256
 C401 C 1.16231 0.64048 0.65194
 N402 N 1.16730 0.61874 0.62830
 N403 N 1.15046 0.60258 0.61583
 C404 C 1.12800 0.60748 0.62689
 N405 N 1.12296 0.62928 0.65039
 N406 N 1.13982 0.64549 0.66275
 C407 C 1.10945 0.58963 0.61333
 N408 N 1.08718 0.59389 0.62642
 N409 N 1.07018 0.57825 0.61283
 C410 C 1.07480 0.55773 0.58577
 N411 N 1.09712 0.55331 0.57299
 N412 N 1.11417 0.56893 0.58670
 C413 C 0.66723 0.16270 0.67049
 N414 N 0.67295 0.18699 0.65806
 N415 N 0.69286 0.19765 0.67198
 C416 C 0.70790 0.18433 0.69840
 N417 N 0.70220 0.15996 0.71033
 N418 N 0.68224 0.14940 0.69678
 C419 C 0.64506 0.15077 0.65682
 N420 N 0.63774 0.12912 0.67779
 N421 N 0.61807 0.11758 0.66545
 C422 C 0.60490 0.12710 0.63148
 N423 N 0.61212 0.14886 0.61040
 N424 N 0.63181 0.16059 0.62308
 C425 C 0.58428 0.11248 0.61662
 N426 N 0.57303 0.11759 0.57729
 N427 N 0.55639 0.10175 0.56193
 C428 C 0.55046 0.08036 0.58555
 N429 N 0.56132 0.07582 0.62528
 N430 N 0.57779 0.09156 0.64055
 C431 C 0.68233 0.65372 0.16412
 N432 N 0.67805 0.67728 0.18225
 N433 N 0.69535 0.69151 0.19908
 C434 C 0.71756 0.68265 0.19855
 N435 N 0.72179 0.65919 0.17990
 N436 N 0.70454 0.64503 0.16292
 C437 C 0.66324 0.63731 0.14801
 N438 N 0.66779 0.61426 0.12817
 N439 N 0.65048 0.59886 0.11500
 C440 C 0.62801 0.60591 0.12148
 N441 N 0.62347 0.62898 0.14124
 N442 N 0.64077 0.64442 0.15427
 C443 C 0.60892 0.58895 0.10726
 N444 N 0.58656 0.59526 0.11678
 N445 N 0.56913 0.58022 0.10312
 C446 C 0.57341 0.55830 0.07947
 N447 N 0.59578 0.55189 0.07010
 N448 N 0.61324 0.56692 0.08391
 C449 C 0.81893 -0.14394 0.19851
 N450 N 0.79683 -0.13502 0.20224
 N451 N 0.77992 -0.15006 0.21814
 C452 C 0.78439 -0.17466 0.23069
 N453 N 0.80652 -0.18352 0.22691
 N454 N 0.82346 -0.16844 0.21129
 C455 C 0.83762 -0.12752 0.18048
 N456 N 0.86011 -0.13534 0.18224
 N457 N 0.87707 -0.12070 0.16550
 C458 C 0.87220 -0.09776 0.14610
 N459 N 0.84970 -0.08993 0.14426
 N460 N 0.83273 -0.10451 0.16127
 C461 C 0.89104 -0.08195 0.12702
 N462 N 0.88631 -0.06094 0.10163
 N463 N 0.90352 -0.04712 0.08356
 C464 C 0.92608 -0.05372 0.09049
 N465 N 0.93076 -0.07463 0.11609
 N466 N 0.91358 -0.08850 0.13391
 C467 C 0.82459 0.34869 0.68061
 N468 N 0.80515 0.35963 0.69777
 N469 N 0.78834 0.34516 0.71513
 C470 C 0.79005 0.31909 0.71581
 N471 N 0.80956 0.30811 0.69831
 N472 N 0.82658 0.32265 0.68129
 C473 C 0.84300 0.36511 0.66209
 N474 N 0.86487 0.35605 0.65568
 N475 N 0.88162 0.37154 0.64049
 C476 C 0.87703 0.39653 0.63083
 N477 N 0.85512 0.40548 0.63684
 N478 N 0.83845 0.39009 0.65243
 C479 C 0.89554 0.41367 0.61482
 N480 N 0.89039 0.43667 0.59581
 N481 N 0.90729 0.45209 0.58097
 C482 C 0.92992 0.44516 0.58526
 N483 N 0.93502 0.42226 0.60457
 N484 N 0.91815 0.40676 0.61898
 C485 C 0.34087 -0.16128 0.70885
 N486 N 0.32603 -0.14826 0.73634
 N487 N 0.30617 -0.15900 0.74995
 C488 C 0.30044 -0.18327 0.73681
 N489 N 0.31537 -0.19628 0.70940
 N490 N 0.33515 -0.18548 0.69554
 C491 C 0.36247 -0.14905 0.69313
 N492 N 0.37546 -0.15980 0.65964
 N493 N 0.39442 -0.14787 0.64411
 C494 C 0.40114 -0.12489 0.66188
 N495 N 0.38830 -0.11439 0.69572
 N496 N 0.36933 -0.12620 0.71101
 C497 C 0.42063 -0.11011 0.64283
 N498 N 0.42608 -0.08699 0.66134
 N499 N 0.44147 -0.07161 0.64167
 C500 C 0.45222 -0.07871 0.60282
 N501 N 0.44734 -0.10220 0.58473
 N502 N 0.43179 -0.11767 0.60447
 C503 C 0.32245 0.34931 0.18458
 N504 N 0.30196 0.35970 0.19768
 N505 N 0.28511 0.34491 0.21410
 C506 C 0.28787 0.31904 0.21778
 N507 N 0.30840 0.30860 0.20407
 N508 N 0.32542 0.32348 0.18804
 C509 C 0.34106 0.36608 0.16784
 N510 N 0.36340 0.35783 0.16587
 N511 N 0.38028 0.37362 0.15227
 C512 C 0.37538 0.39812 0.13988
 N513 N 0.35302 0.40628 0.14151
 N514 N 0.33619 0.39059 0.15551
 C515 C 0.39396 0.41545 0.12483
 N516 N 0.38888 0.43747 0.10252
 N517 N 0.40585 0.45274 0.08757
 C518 C 0.42847 0.44669 0.09503
 N519 N 0.43349 0.42483 0.11781
 N520 N 0.41655 0.40947 0.13236
 C521 C 0.82031 0.14510 -0.19751
 N522 N 0.81280 0.16595 -0.17392
 N523 N 0.79639 0.18119 -0.19073
 C524 C 0.78662 0.17594 -0.23149
 N525 N 0.79404 0.15499 -0.25496
 N526 N 0.81072 0.13998 -0.23846
 C527 C 0.83841 0.12830 -0.17887
 N528 N 0.85244 0.11437 -0.20657
 N529 N 0.86905 0.09943 -0.18960
 C530 C 0.87197 0.09752 -0.14429
 N531 N 0.85779 0.11126 -0.11659
 N532 N 0.84143 0.12651 -0.13357
 C533 C 0.89049 0.08135 -0.12548
 N534 N 0.88857 0.07162 -0.08323
 N535 N 0.90562 0.05753 -0.06572
 C536 C 0.92538 0.05295 -0.08958
 N537 N 0.92733 0.06275 -0.13178
 N538 N 0.91011 0.07649 -0.14956
 C539 C 0.82932 0.65471 0.30651
 N540 N 0.82522 0.67866 0.32315
 N541 N 0.80792 0.69285 0.30673
 C542 C 0.79378 0.68338 0.27373
 N543 N 0.79812 0.65942 0.25721
 N544 N 0.81563 0.64547 0.27295
 C545 C 0.84764 0.63843 0.32511
 N546 N 0.85848 0.62092 0.29834
 N547 N 0.87431 0.60508 0.31537
 C548 C 0.87945 0.60578 0.36000
 N549 N 0.86853 0.62321 0.38690
 N550 N 0.85298 0.63937 0.36969
 C551 C 0.89677 0.58818 0.37852
 N552 N 0.89535 0.58014 0.42192
 N553 N 0.91138 0.56442 0.43873
 C554 C 0.92951 0.55647 0.41283
 N555 N 0.93094 0.56458 0.36951
 N556 N 0.91470 0.57991 0.35248
 C557 C 0.33703 0.15911 0.30822
 N558 N 0.33414 0.18480 0.31412
 N559 N 0.31479 0.19628 0.29990
 C560 C 0.29746 0.18253 0.27959
 N561 N 0.30049 0.15680 0.27397
 N562 N 0.31987 0.14537 0.28780
 C563 C 0.35816 0.14597 0.32371
 N564 N 0.36216 0.12141 0.31036
 N565 N 0.38069 0.10877 0.32513
 C566 C 0.39594 0.12009 0.35405
 N567 N 0.39206 0.14476 0.36742
 N568 N 0.37352 0.15752 0.35232
 C569 C 0.41531 0.10478 0.37187
 N570 N 0.42899 0.11320 0.40646
 N571 N 0.44488 0.09766 0.42470
 C572 C 0.44759 0.07325 0.40881
 N573 N 0.43421 0.06523 0.37378
 N574 N 0.41846 0.08064 0.35566
 C575 C 0.32649 0.64993 -0.18812
 N576 N 0.32377 0.67413 -0.17145
 N577 N 0.30672 0.68914 -0.18649
 C578 C 0.29143 0.68033 -0.21807
 N579 N 0.29428 0.65604 -0.23444
 N580 N 0.31155 0.64124 -0.22009
 C581 C 0.34483 0.63304 -0.17137
 N582 N 0.35467 0.61530 -0.19918
 N583 N 0.37079 0.59924 -0.18378
 C584 C 0.37723 0.59999 -0.13979
 N585 N 0.36730 0.61762 -0.11189
 N586 N 0.35148 0.63400 -0.12748
 C587 C 0.39473 0.58212 -0.12269
 N588 N 0.39383 0.57394 -0.07936
 N589 N 0.41005 0.55819 -0.06345
 C590 C 0.42789 0.55032 -0.09015
 N591 N 0.42883 0.55856 -0.13347
 N592 N 0.41236 0.57394 -0.14963
 C593 C 1.18236 -0.14611 -0.17715
 N594 N 1.17884 -0.17100 -0.18966
 N595 N 1.19660 -0.18566 -0.20298
 C596 C 1.21860 -0.17600 -0.20456
 N597 N 1.22204 -0.15107 -0.19205
 N598 N 1.20432 -0.13646 -0.17851
 C599 C 1.16279 -0.12983 -0.16232
 N600 N 1.16674 -0.10605 -0.14463
 N601 N 1.14910 -0.09136 -0.13087
 C602 C 1.12680 -0.09981 -0.13455
 N603 N 1.12283 -0.12355 -0.15243
 N604 N 1.14049 -0.13830 -0.16596
 C605 C 1.10730 -0.08377 -0.11857
 N606 N 1.08494 -0.09104 -0.12626
 N607 N 1.06731 -0.07694 -0.11064
 C608 C 1.07136 -0.05504 -0.08661
 N609 N 1.09373 -0.04771 -0.07906
 N610 N 1.11136 -0.06175 -0.09489
 C611 C 1.17815 0.34453 0.33087
 N612 N 1.17341 0.32157 0.31057
 N613 N 1.19057 0.30718 0.29363
 C614 C 1.21299 0.31540 0.29619
 N615 N 1.21761 0.33813 0.31714
 N616 N 1.20056 0.35236 0.33426
 C617 C 1.15955 0.36158 0.34673
 N618 N 1.16501 0.38371 0.36894
 N619 N 1.14845 0.40010 0.38150
 C620 C 1.12583 0.39507 0.37196
 N621 N 1.12032 0.37289 0.34987
 N622 N 1.13689 0.35643 0.33743
 C623 C 1.10762 0.41319 0.38571
 N624 N 1.08518 0.40899 0.37362
 N625 N 1.06851 0.42491 0.38741
 C626 C 1.07364 0.44565 0.41367
 N627 N 1.09613 0.45000 0.42546
 N628 N 1.11284 0.43411 0.41153
 C629 C 0.66233 -0.16535 0.31792
 N630 N 0.66876 -0.18900 0.33240
 N631 N 0.68895 -0.19919 0.31923
 C632 C 0.70356 -0.18602 0.29153
 N633 N 0.69708 -0.16234 0.27730
 N634 N 0.67685 -0.15226 0.29012
 C635 C 0.64028 -0.15361 0.33229
 N636 N 0.63268 -0.13208 0.31151
 N637 N 0.61342 -0.12034 0.32542
 C638 C 0.60100 -0.12958 0.36077
 N639 N 0.60845 -0.15129 0.38148
 N640 N 0.62771 -0.16318 0.36731
 C641 C 0.58122 -0.11456 0.37804
 N642 N 0.57050 -0.12028 0.41770
 N643 N 0.55474 -0.10429 0.43546
 C644 C 0.54919 -0.08209 0.41404
 N645 N 0.55951 -0.07686 0.37397
 N646 N 0.57512 -0.09278 0.35628
 C647 C 0.67966 0.34471 -0.16895
 N648 N 0.67547 0.32100 -0.18676
 N649 N 0.69273 0.30727 -0.20485
 C650 C 0.71474 0.31687 -0.20601
 N651 N 0.71884 0.34045 -0.18771
 N652 N 0.70168 0.35408 -0.16946
 C653 C 0.66074 0.36065 -0.15112
 N654 N 0.66558 0.38363 -0.13120
 N655 N 0.64852 0.39879 -0.11654
 C656 C 0.62597 0.39157 -0.12156
 N657 N 0.62111 0.36854 -0.14136
 N658 N 0.63820 0.35333 -0.15588
 C659 C 0.60718 0.40843 -0.10602
 N660 N 0.58467 0.40219 -0.11442
 N661 N 0.56755 0.41733 -0.09994
 C662 C 0.57231 0.43925 -0.07656
 N663 N 0.59484 0.44556 -0.06825
 N664 N 0.61198 0.43045 -0.08289
 C665 C 1.16030 0.16263 -0.19882
 N666 N 1.14956 0.18325 -0.21708
 N667 N 1.16171 0.20377 -0.22972
 C668 C 1.18522 0.20460 -0.22511
 N669 N 1.19603 0.18377 -0.20708
 N670 N 1.18380 0.16323 -0.19393
 C671 C 1.14619 0.14050 -0.18433
 N672 N 1.15465 0.12236 -0.15589
 N673 N 1.14090 0.10343 -0.14103
 C674 C 1.11832 0.10189 -0.15445
 N675 N 1.11009 0.11983 -0.18330
 N676 N 1.12371 0.13877 -0.19781
 C677 C 1.10216 0.08250 -0.13630
 N678 N 1.08005 0.08160 -0.15210
 N679 N 1.06433 0.06617 -0.13346
 C680 C 1.07003 0.05091 -0.09825
 N681 N 1.09230 0.05137 -0.08278
 N682 N 1.10812 0.06689 -0.10154
 C683 C 1.16191 0.66815 0.30920
 N684 N 1.18550 0.66837 0.31162
 N685 N 1.19755 0.68905 0.29867
 C686 C 1.18648 0.71041 0.28332
 N687 N 1.16287 0.71003 0.28141
 N688 N 1.15087 0.68935 0.29384
 C689 C 1.14809 0.64564 0.32260
 N690 N 1.12551 0.64404 0.30979
 N691 N 1.11224 0.62452 0.32303
 C692 C 1.12093 0.60586 0.34989
 N693 N 1.14361 0.60730 0.36268
 N694 N 1.15702 0.62681 0.34903
 C695 C 1.10516 0.58578 0.36674
 N696 N 1.11124 0.56991 0.40105
 N697 N 1.09559 0.55391 0.41906
 C698 C 1.07339 0.55322 0.40323
 N699 N 1.06761 0.56870 0.36838
 N700 N 1.08315 0.58462 0.35051
 C701 C 0.64921 0.18468 0.32792
 N702 N 0.66965 0.17724 0.30886
 N703 N 0.68462 0.19468 0.29313
 C704 C 0.67959 0.22016 0.29568
 N705 N 0.65925 0.22746 0.31520
 N706 N 0.64438 0.21010 0.33110
 C707 C 0.63209 0.16574 0.34348
 N708 N 0.61253 0.17353 0.36528
 N709 N 0.59657 0.15651 0.37839
 C710 C 0.59955 0.13108 0.36980
 N711 N 0.61912 0.12329 0.34799
 N712 N 0.63512 0.14030 0.33506
 C713 C 0.58222 0.11212 0.38440
 N714 N 0.58478 0.08707 0.37266
 N715 N 0.56981 0.06947 0.38732
 C716 C 0.55168 0.07619 0.41421
 N717 N 0.54892 0.10133 0.42569
 N718 N 0.56391 0.11902 0.41086
 C719 C 0.66623 0.64545 -0.21286
 N720 N 0.65545 0.66324 -0.23847
 N721 N 0.66588 0.68533 -0.24813
 C722 C 0.68767 0.69065 -0.23297
 N723 N 0.69875 0.67250 -0.20805
 N724 N 0.68813 0.65039 -0.19779
 C725 C 0.65311 0.62256 -0.19922
 N726 N 0.65952 0.60833 -0.16304
 N727 N 0.64543 0.59000 -0.14726
 C728 C 0.62454 0.58530 -0.16722
 N729 N 0.61853 0.59908 -0.20402
 N730 N 0.63252 0.61737 -0.21964
 C731 C 0.60724 0.56823 -0.14659
 N732 N 0.58542 0.56716 -0.16397
 N733 N 0.56857 0.55451 -0.14274
 C734 C 0.57290 0.54235 -0.10333
 N735 N 0.59485 0.54290 -0.08631
 N736 N 0.61172 0.55571 -0.10751
 C737 C 0.82971 -0.16260 -0.18880
 N738 N 0.83807 -0.17839 -0.22151
 N739 N 0.82584 -0.19862 -0.23555
 C740 C 0.80465 -0.20399 -0.21767
 N741 N 0.79596 -0.18790 -0.18546
 N742 N 0.80832 -0.16759 -0.17115
 C743 C 0.84469 -0.14165 -0.17174
 N744 N 0.83852 -0.12667 -0.13591
 N745 N 0.85332 -0.10910 -0.11935
 C746 C 0.87477 -0.10599 -0.13801
 N747 N 0.88070 -0.12080 -0.17400
 N748 N 0.86599 -0.13823 -0.19050
 C749 C 0.89220 -0.08822 -0.11880
 N750 N 0.91426 -0.08883 -0.13497
 N751 N 0.93074 -0.07396 -0.11712
 C752 C 0.92585 -0.05769 -0.08248
 N753 N 0.90370 -0.05680 -0.06638
 N754 N 0.88715 -0.07187 -0.08416
 C755 C 0.83769 0.33324 0.31711
 N756 N 0.84727 0.31384 0.29265
 N757 N 0.83434 0.29418 0.27834
 C758 C 0.81125 0.29313 0.28774
 N759 N 0.80162 0.31264 0.31213
 N760 N 0.81461 0.33230 0.32670
 C761 C 0.85244 0.35452 0.33295
 N762 N 0.84444 0.37261 0.36240
 N763 N 0.85851 0.39124 0.37755
 C764 C 0.88100 0.39241 0.36351
 N765 N 0.88882 0.37445 0.33384
 N766 N 0.87484 0.35587 0.31890
 C767 C 0.89740 0.41169 0.38114
 N768 N 0.91963 0.41138 0.36602
 N769 N 0.93542 0.42731 0.38327
 C770 C 0.92966 0.44428 0.41629
 N771 N 0.90730 0.44496 0.43122
 N772 N 0.89140 0.42889 0.41390
 C773 C 0.34823 -0.17736 0.30906
 N774 N 0.34799 -0.18235 0.26413
 N775 N 0.33169 -0.19745 0.24620
 C776 C 0.31473 -0.20779 0.27235
 N777 N 0.31463 -0.20238 0.31725
 N778 N 0.33113 -0.18744 0.33532
 C779 C 0.36731 -0.16210 0.32851
 N780 N 0.37154 -0.16195 0.37360
 N781 N 0.38939 -0.14857 0.39050
 C782 C 0.40360 -0.13489 0.36288
 N783 N 0.39931 -0.13506 0.31789
 N784 N 0.38163 -0.14857 0.30100
 C785 C 0.42221 -0.11850 0.38113
 N786 N 0.43111 -0.09937 0.35542
 N787 N 0.44628 -0.08265 0.37266
 C788 C 0.45354 -0.08473 0.41600
 N789 N 0.44512 -0.10426 0.44154
 N790 N 0.42966 -0.12085 0.42440
 C791 C 0.33339 0.33608 -0.19055
 N792 N 0.34339 0.31866 -0.21850
 N793 N 0.33118 0.29911 -0.23512
 C794 C 0.30835 0.29604 -0.22476
 N795 N 0.29818 0.31372 -0.19696
 N796 N 0.31051 0.33335 -0.17997
 C797 C 0.34799 0.35666 -0.17169
 N798 N 0.34043 0.37294 -0.13872
 N799 N 0.35494 0.39025 -0.12047
 C800 C 0.37741 0.39175 -0.13470
 N801 N 0.38469 0.37569 -0.16793
 N802 N 0.37030 0.35853 -0.18602
 C803 C 0.39453 0.40904 -0.11377
 N804 N 0.41711 0.40673 -0.12615
 N805 N 0.43341 0.42128 -0.10718
 C806 C 0.42784 0.43888 -0.07511
 N807 N 0.40517 0.44148 -0.06268
 N808 N 0.38875 0.42669 -0.08162
 C809 C 1.16113 -0.15972 0.20052
 N810 N 1.15063 -0.17966 0.22170
 N811 N 1.16283 -0.19997 0.23475
 C812 C 1.18615 -0.20124 0.22759
 N813 N 1.19672 -0.18103 0.20676
 N814 N 1.18444 -0.16073 0.19325
 C815 C 1.14697 -0.13797 0.18509
 N816 N 1.15521 -0.12058 0.15488
 N817 N 1.14143 -0.10202 0.13922
 C818 C 1.11901 -0.10013 0.15351
 N819 N 1.11100 -0.11732 0.18409
 N820 N 1.12466 -0.13588 0.19946
 C821 C 1.10279 -0.08117 0.13467
 N822 N 1.08076 -0.08019 0.15088
 N823 N 1.06499 -0.06507 0.13198
 C824 C 1.07056 -0.05022 0.09608
 N825 N 1.09275 -0.05077 0.08013
 N826 N 1.10861 -0.06599 0.09915
 C827 C 1.16061 0.33665 0.69426
 N828 N 1.15041 0.31844 0.72032
 N829 N 1.16214 0.29764 0.73278
 C830 C 1.18459 0.29426 0.71984
 N831 N 1.19483 0.31259 0.69393
 N832 N 1.18304 0.33334 0.68119
 C833 C 1.14717 0.35909 0.67979
 N834 N 1.15531 0.37526 0.64751
 N835 N 1.14227 0.39472 0.63298
 C836 C 1.12074 0.39875 0.65054
 N837 N 1.11283 0.38277 0.68318
 N838 N 1.12577 0.36331 0.69748
 C839 C 1.10516 0.41855 0.63264
 N840 N 1.08364 0.42114 0.65069
 N841 N 1.06820 0.43684 0.63226
 C842 C 1.07365 0.45070 0.59511
 N843 N 1.09539 0.44862 0.57741
 N844 N 1.11091 0.43278 0.59590
 C845 C 0.64825 -0.18573 0.68317
 N846 N 0.64145 -0.21054 0.68701
 N847 N 0.65615 -0.22820 0.70180
 C848 C 0.67839 -0.22202 0.71314
 N849 N 0.68533 -0.19710 0.70867
 N850 N 0.67048 -0.17926 0.69416
 C851 C 0.63134 -0.16654 0.66823
 N852 N 0.63568 -0.14098 0.67256
 N853 N 0.61971 -0.12387 0.66029
 C854 C 0.59892 -0.13170 0.64318
 N855 N 0.59467 -0.15724 0.63863
 N856 N 0.61055 -0.17433 0.65117
 C857 C 0.58154 -0.11287 0.62891
 N858 N 0.56270 -0.12023 0.60428
 N859 N 0.54764 -0.10283 0.58920
 C860 C 0.55079 -0.07749 0.59876
 N861 N 0.56942 -0.07025 0.62400
 N862 N 0.58451 -0.08759 0.63880
 C863 C 0.66733 0.35247 0.21265
 N864 N 0.65888 0.33740 0.24603
 N865 N 0.66954 0.31569 0.25699
 C866 C 0.68912 0.30815 0.23511
 N867 N 0.69793 0.32350 0.20225
 N868 N 0.68714 0.34523 0.19103
 C869 C 0.65376 0.37470 0.19794
 N870 N 0.65926 0.38765 0.15971
 N871 N 0.64507 0.40572 0.14386
 C872 C 0.62494 0.41143 0.16573
 N873 N 0.61976 0.39886 0.20440
 N874 N 0.63390 0.38086 0.22019
 C875 C 0.60760 0.42851 0.14566
 N876 N 0.58608 0.43010 0.16425
 N877 N 0.56924 0.44304 0.14378
 C878 C 0.57332 0.45499 0.10402
 N879 N 0.59499 0.45389 0.08578
 N880 N 0.61183 0.44078 0.10618
 C881 C 0.83193 0.16294 0.19543
 N882 N 0.84074 0.17913 0.22714
 N883 N 0.82856 0.19920 0.24171
 C884 C 0.80697 0.20399 0.22539
 N885 N 0.79787 0.18751 0.19414
 N886 N 0.81017 0.16738 0.17930
 C887 C 0.84672 0.14210 0.17781
 N888 N 0.84003 0.12682 0.14269
 N889 N 0.85460 0.10929 0.12556
 C890 C 0.87633 0.10651 0.14296
 N891 N 0.88279 0.12161 0.17827
 N892 N 0.86830 0.13901 0.19531
 C893 C 0.89348 0.08877 0.12309
 N894 N 0.91571 0.08949 0.13832
 N895 N 0.93196 0.07466 0.11983
 C896 C 0.92668 0.05834 0.08546
 N897 N 0.90436 0.05733 0.07030
 N898 N 0.88803 0.07236 0.08874
 C899 C 0.83704 0.66783 0.69020
 N900 N 0.84635 0.68753 0.71445
 N901 N 0.83306 0.70667 0.72935
 C902 C 0.80988 0.70690 0.72077
 N903 N 0.80051 0.68707 0.69665
 N904 N 0.81386 0.66792 0.68151
 C905 C 0.85222 0.64723 0.67341
 N906 N 0.84431 0.62868 0.64467
 N907 N 0.85872 0.61071 0.62863
 C908 C 0.88149 0.61068 0.64097
 N909 N 0.88923 0.62911 0.66991
 N910 N 0.87491 0.64702 0.68577
 C911 C 0.89814 0.59201 0.62250
 N912 N 0.92065 0.59340 0.63580
 N913 N 0.93649 0.57780 0.61806
 C914 C 0.93052 0.56011 0.58630
 N915 N 0.90791 0.55841 0.57312
 N916 N 0.89196 0.57414 0.59095
 C917 C 0.33979 0.18139 0.64965
 N918 N 0.34349 0.20699 0.64539
 N919 N 0.32906 0.22376 0.66448
 C920 C 0.31027 0.21565 0.68836
 N921 N 0.30615 0.19000 0.69157
 N922 N 0.32071 0.17316 0.67264
 C923 C 0.35735 0.16315 0.63335
 N924 N 0.35605 0.13797 0.64471
 N925 N 0.37302 0.12185 0.63323
 C926 C 0.39192 0.13027 0.61004
 N927 N 0.39313 0.15540 0.59818
 N928 N 0.37618 0.17157 0.60985
 C929 C 0.41070 0.11230 0.59878
 N930 N 0.42873 0.11917 0.57157
 N931 N 0.44520 0.10216 0.56063
 C932 C 0.44426 0.07783 0.57699
 N933 N 0.42639 0.07123 0.60457
 N934 N 0.40998 0.08811 0.61532
 C935 C 0.33124 0.67461 0.14154
 N936 N 0.33938 0.69908 0.14227
 N937 N 0.32729 0.71773 0.16196
 C938 C 0.30652 0.71276 0.18183
 N939 N 0.29794 0.68835 0.18004
 N940 N 0.31013 0.66955 0.16029
 C941 C 0.34660 0.65413 0.12508
 N942 N 0.33970 0.62911 0.12267
 N943 N 0.35484 0.61077 0.11103
 C944 C 0.37738 0.61688 0.10201
 N945 N 0.38408 0.64185 0.10413
 N946 N 0.36900 0.66009 0.11530
 C947 C 0.39495 0.59729 0.09205
 N948 N 0.41773 0.60362 0.09625
 N949 N 0.43423 0.58668 0.08638
 C950 C 0.42863 0.56274 0.07163
 N951 N 0.40579 0.55623 0.06744
 N952 N 0.38919 0.57320 0.07780
   
