data_POSCAR
  _audit_creation_date              2014-09-24
  _audit_creation_method            'ToBaCCo'
  _symmetry_space_group_name_H-M    'P1'
  _symmetry_Int_Tables_number       1
  _symmetry_cell_setting            triclinic
  loop_
  _symmetry_equiv_pos_as_xyz
 x,y,z
_cell_length_a 30.3802
_cell_length_b 29.8012
_cell_length_c 29.3092
_cell_angle_alpha 89.645000
_cell_angle_beta 90.057100
_cell_angle_gamma 84.832300
loop_
  _atom_site_label
  _atom_site_type_symbol
  _atom_site_fract_x
  _atom_site_fract_y
  _atom_site_fract_z
O1 O 0.05315 0.27099 -0.02322
 O2 O -0.04727 0.26556 0.04567
 O3 O 0.03755 0.26933 0.06506
 O4 O -0.02971 0.26571 -0.03902
 O5 O -0.01670 0.19146 -0.04074
 O6 O 0.04616 0.19499 0.06601
 O7 O -0.03863 0.19121 0.04274
 O8 O 0.06419 0.19669 -0.02261
 Cu9 Cu 0.00297 0.27549 0.01292
 Cu10 Cu 0.01552 0.18603 0.01276
 C11 C 0.07477 0.23480 -0.03604
 C12 C -0.06160 0.22749 0.05283
 C13 C 0.05340 0.23256 0.08313
 C14 C -0.03471 0.22797 -0.05741
 O15 O 0.43991 0.77694 0.53850
 O16 O 0.52049 0.78254 0.44581
 O17 O 0.43443 0.78024 0.44993
 O18 O 0.52604 0.77284 0.53348
 O19 O 0.53264 0.69871 0.52699
 O20 O 0.43942 0.70594 0.44643
 O21 O 0.52477 0.70854 0.43854
 O22 O 0.44734 0.70259 0.53589
 Cu23 Cu 0.47956 0.78553 0.49236
 Cu24 Cu 0.48644 0.69655 0.48635
 C25 C 0.43042 0.73901 0.55359
 C26 C 0.53633 0.74685 0.42635
 C27 C 0.42125 0.74405 0.43421
 C28 C 0.54512 0.73440 0.54409
 O29 O 1.03486 0.75488 0.04419
 O30 O 0.97578 0.71956 -0.05895
 O31 O 1.04944 0.76065 -0.04565
 O32 O 0.96619 0.71316 0.02858
 O33 O 0.92674 0.77921 0.02726
 O34 O 1.00872 0.82586 -0.04665
 O35 O 0.93729 0.78602 -0.06129
 O36 O 0.99518 0.82070 0.04081
 Cu37 Cu 1.01124 0.73066 -0.00861
 Cu38 Cu 0.96313 0.80943 -0.01065
 C39 C 1.02317 0.79336 0.06103
 C40 C 0.94601 0.74670 -0.07712
 C41 C 1.04304 0.80150 -0.05852
 C42 C 0.93304 0.73882 0.04166
 O43 O 0.46863 0.21044 0.46250
 O44 O 0.55311 0.20825 0.55329
 O45 O 0.46697 0.20927 0.55067
 O46 O 0.55483 0.20728 0.46492
 O47 O 0.55015 0.28173 0.46408
 O48 O 0.46317 0.28368 0.55160
 O49 O 0.54835 0.28270 0.55248
 O50 O 0.46476 0.28485 0.46189
 Cu51 Cu 0.51134 0.20128 0.50788
 Cu52 Cu 0.50591 0.29077 0.50745
 C53 C 0.45253 0.24822 0.44671
 C54 C 0.56517 0.24527 0.56806
 C55 C 0.45047 0.24668 0.56605
 C56 C 0.56747 0.24406 0.44994
 O57 O 0.72073 0.02668 -0.04057
 O58 O 0.69317 -0.07257 0.02357
 O59 O 0.71257 0.00914 0.04652
 O60 O 0.71104 -0.05628 -0.06036
 O61 O 0.78302 -0.07430 -0.05321
 O62 O 0.78306 -0.01473 0.05481
 O63 O 0.76406 -0.09643 0.02754
 O64 O 0.79211 0.00639 -0.03278
 Cu65 Cu 0.70217 -0.02079 -0.00784
 Cu66 Cu 0.78765 -0.04624 0.00143
 C67 C 0.76068 0.03263 -0.04924
 C68 C 0.72361 -0.10285 0.03338
 C69 C 0.74875 0.00833 0.06853
 C70 C 0.74725 -0.07604 -0.07491
 O71 O 0.16658 0.48880 0.56330
 O72 O 0.17077 0.57237 0.47001
 O73 O 0.16346 0.48472 0.47445
 O74 O 0.17582 0.57464 0.55911
 O75 O 0.24841 0.56156 0.55411
 O76 O 0.23603 0.47038 0.47280
 O77 O 0.24300 0.55641 0.46505
 O78 O 0.23940 0.47690 0.56177
 Cu79 Cu 0.16184 0.53158 0.51674
 Cu80 Cu 0.24891 0.51494 0.51289
 C81 C 0.20237 0.46953 0.57913
 C82 C 0.20761 0.57837 0.45149
 C83 C 0.19783 0.46198 0.45961
 C84 C 0.21448 0.58282 0.57133
 O85 O 0.33482 1.06825 0.04903
 O86 O 0.33704 0.96351 -0.01819
 O87 O 0.34562 1.04660 -0.03664
 O88 O 0.32550 0.98210 0.06730
 O89 O 0.25360 0.99258 0.05496
 O90 O 0.27367 1.06094 -0.04739
 O91 O 0.26582 0.97837 -0.03291
 O92 O 0.26273 1.07988 0.03847
 Cu93 Cu 0.34286 1.01423 0.01740
 Cu94 Cu 0.25641 1.02922 0.00338
 C95 C 0.29861 1.09247 0.05388
 C96 C 0.30212 0.95437 -0.03866
 C97 C 0.31323 1.06341 -0.06042
 C98 C 0.28634 0.97462 0.07764
 O99 O 0.84404 0.50632 0.53005
 O100 O 0.82722 0.42031 0.44365
 O101 O 0.84076 0.50588 0.44068
 O102 O 0.82724 0.42201 0.53204
 O103 O 0.75605 0.44479 0.53523
 O104 O 0.76834 0.52217 0.44019
 O105 O 0.75515 0.43882 0.44590
 O106 O 0.77276 0.52884 0.52732
 Cu107 Cu 0.84216 0.46168 0.48653
 Cu108 Cu 0.75580 0.48538 0.48759
 C109 C 0.81134 0.53276 0.54266
 C110 C 0.78831 0.41489 0.43023
 C111 C 0.80632 0.52768 0.42442
 C112 C 0.78918 0.41979 0.54945
 C113 C 0.22930 0.26926 0.27274
 C114 C 0.26562 0.24015 0.26435
 C115 C 0.27393 0.22108 0.21807
 C116 C 0.30058 0.23082 0.29919
 C117 C 0.22898 0.30364 0.30963
 C118 C 0.19032 0.27022 0.24197
 C119 C 0.28079 0.17435 0.21104
 C120 C 0.28848 0.15733 0.16688
 C121 C 0.29031 0.18711 0.12963
 C122 C 0.28426 0.23356 0.13704
 C123 C 0.27596 0.25046 0.18071
 C124 C 0.29052 0.21190 0.34147
 C125 C 0.32279 0.20594 0.37554
 C126 C 0.36484 0.22030 0.36824
 C127 C 0.37525 0.23826 0.32561
 C128 C 0.34355 0.24262 0.29095
 C129 C 0.26506 0.32961 0.31477
 C130 C 0.26437 0.36332 0.34761
 C131 C 0.22707 0.37314 0.37483
 C132 C 0.19034 0.34814 0.36939
 C133 C 0.19138 0.31352 0.33704
 C134 C 0.17273 0.31072 0.22163
 C135 C 0.13930 0.31042 0.18880
 C136 C 0.12306 0.26981 0.17600
 C137 C 0.13907 0.22961 0.19807
 C138 C 0.17223 0.22991 0.23096
 H139 H 0.27966 0.15122 0.23956
 H140 H 0.29344 0.12126 0.16192
 H141 H 0.28588 0.25681 0.10866
 H142 H 0.27145 0.28660 0.18550
 H143 H 0.25758 0.20230 0.34818
 H144 H 0.31452 0.19192 0.40827
 H145 H 0.35186 0.25714 0.25845
 H146 H 0.29351 0.32461 0.29262
 H147 H 0.29267 0.38269 0.35113
 H148 H 0.16111 0.35521 0.39013
 H149 H 0.16280 0.29462 0.33317
 H150 H 0.18613 0.34218 0.22973
 H151 H 0.12721 0.34161 0.17205
 H152 H 0.12684 0.19782 0.18907
 H153 H 0.18483 0.19843 0.24685
 H154 H 0.40781 0.24906 0.31935
 C155 C 0.75061 0.70967 0.23028
 C156 C 0.70995 0.73244 0.22499
 C157 C 0.69918 0.75698 0.18193
 C158 C 0.67459 0.73054 0.25962
 C159 C 0.75862 0.67295 0.26439
 C160 C 0.78733 0.71849 0.19895
 C161 C 0.70035 0.80389 0.17921
 C162 C 0.70062 0.82522 0.13650
 C163 C 0.69869 0.79969 0.09647
 C164 C 0.69434 0.75349 0.09961
 C165 C 0.69493 0.73214 0.14200
 C166 C 0.68049 0.74726 0.30364
 C167 C 0.64759 0.74478 0.33669
 C168 C 0.60880 0.72443 0.32651
 C169 C 0.60314 0.70727 0.28272
 C170 C 0.63537 0.71116 0.24915
 C171 C 0.72949 0.63907 0.26730
 C172 C 0.73584 0.60525 0.30016
 C173 C 0.77220 0.60361 0.32945
 C174 C 0.80288 0.63594 0.32531
 C175 C 0.79604 0.67055 0.29284
 C176 C 0.80671 0.68439 0.17061
 C177 C 0.83790 0.69439 0.13772
 C178 C 0.84976 0.73870 0.13288
 C179 C 0.83145 0.77220 0.16218
 C180 C 0.80099 0.76211 0.19538
 H181 H 0.70396 0.82336 0.20985
 H182 H 0.70352 0.86113 0.13472
 H183 H 0.69250 0.73365 0.06895
 H184 H 0.69430 0.69587 0.14367
 H185 H 0.71053 0.76232 0.31228
 H186 H 0.65277 0.75791 0.37045
 H187 H 0.63034 0.69790 0.21541
 H188 H 0.70162 0.63893 0.24430
 H189 H 0.71219 0.58028 0.30302
 H190 H 0.83111 0.63522 0.34796
 H191 H 0.81934 0.69591 0.29051
 H192 H 0.79662 0.65051 0.17296
 H193 H 0.85182 0.66796 0.11547
 H194 H 0.84069 0.80634 0.15903
 H195 H 0.78709 0.78863 0.21757
 H196 H 0.57344 0.69146 0.27444
 C197 C 0.74781 0.19232 0.25949
 C198 C 0.77857 0.22179 0.25085
 C199 C 0.79996 0.22415 0.20554
 C200 C 0.78937 0.25511 0.28528
 C201 C 0.71822 0.19739 0.29962
 C202 C 0.74014 0.15560 0.22730
 C203 C 0.84621 0.22180 0.20163
 C204 C 0.86605 0.22244 0.15852
 C205 C 0.83962 0.22562 0.11903
 C206 C 0.79362 0.22913 0.12315
 C207 C 0.77387 0.22895 0.16597
 C208 C 0.81129 0.24105 0.32576
 C209 C 0.81923 0.27251 0.35929
 C210 C 0.80400 0.31791 0.35332
 C211 C 0.78266 0.33206 0.31251
 C212 C 0.77613 0.30093 0.27833
 C213 C 0.69181 0.23789 0.30658
 C214 C 0.66138 0.24161 0.34220
 C215 C 0.65620 0.20447 0.37080
 C216 C 0.68235 0.16401 0.36380
 C217 C 0.71323 0.16042 0.32842
 C218 C 0.69781 0.15219 0.20903
 C219 C 0.69128 0.12011 0.17568
 C220 C 0.72676 0.09078 0.16062
 C221 C 0.76874 0.09283 0.18050
 C222 C 0.77530 0.12495 0.21363
 H223 H 0.86684 0.21858 0.23183
 H224 H 0.90173 0.21986 0.15601
 H225 H 0.77300 0.23199 0.09292
 H226 H 0.73815 0.23209 0.16826
 H227 H 0.82188 0.20576 0.33139
 H228 H 0.83597 0.26134 0.39052
 H229 H 0.75930 0.31222 0.24716
 H230 H 0.69377 0.26619 0.28359
 H231 H 0.64104 0.27303 0.34652
 H232 H 0.67836 0.13507 0.38544
 H233 H 0.73278 0.12868 0.32306
 H234 H 0.67024 0.17550 0.21931
 H235 H 0.65885 0.11896 0.16061
 H236 H 0.79676 0.07051 0.16955
 H237 H 0.80803 0.12667 0.22785
 H238 H 0.77126 0.36717 0.30712
 C239 C 0.22262 0.79549 0.26042
 C240 C 0.18818 0.76917 0.26190
 C241 C 0.15033 0.77600 0.22971
 C242 C 0.18457 0.73600 0.29944
 C243 C 0.25844 0.79084 0.29524
 C244 C 0.22631 0.83127 0.22521
 C245 C 0.10902 0.79293 0.24653
 C246 C 0.07416 0.80494 0.21671
 C247 C 0.07928 0.79911 0.16965
 C248 C 0.11992 0.78020 0.15245
 C249 C 0.15547 0.76902 0.18243
 C250 C 0.16784 0.75004 0.34216
 C251 C 0.16564 0.71890 0.37786
 C252 C 0.18166 0.67375 0.37193
 C253 C 0.19844 0.65964 0.32918
 C254 C 0.19913 0.69045 0.29295
 C255 C 0.28609 0.75071 0.29989
 C256 C 0.32030 0.74740 0.33206
 C257 C 0.32790 0.78458 0.35942
 C258 C 0.30081 0.82481 0.35415
 C259 C 0.26630 0.82795 0.32239
 C260 C 0.26616 0.83252 0.20124
 C261 C 0.27165 0.86684 0.16971
 C262 C 0.23720 0.90059 0.16122
 C263 C 0.19733 0.89951 0.18500
 C264 C 0.19216 0.86562 0.21741
 H265 H 0.10426 0.79898 0.28264
 H266 H 0.04306 0.81972 0.23027
 H267 H 0.12460 0.77585 0.11608
 H268 H 0.18719 0.75605 0.16882
 H269 H 0.15671 0.78510 0.34785
 H270 H 0.15253 0.73019 0.41059
 H271 H 0.21203 0.67907 0.26016
 H272 H 0.28165 0.72224 0.27817
 H273 H 0.34116 0.71611 0.33503
 H274 H 0.30645 0.85376 0.37479
 H275 H 0.24569 0.85939 0.31888
 H276 H 0.29315 0.80678 0.20698
 H277 H 0.30266 0.86665 0.15151
 H278 H 0.17054 0.92535 0.17894
 H279 H 0.16175 0.86659 0.23669
 H280 H 0.21051 0.62479 0.32377
 C281 C 0.78846 0.24117 0.74757
 C282 C 0.75588 0.21310 0.75156
 C283 C 0.72068 0.21241 0.71660
 C284 C 0.75287 0.18327 0.79199
 C285 C 0.81988 0.24673 0.78486
 C286 C 0.79280 0.26995 0.70709
 C287 C 0.69275 0.25143 0.70711
 C288 C 0.65958 0.25077 0.67428
 C289 C 0.65324 0.21073 0.65098
 C290 C 0.68024 0.17143 0.66145
 C291 C 0.71378 0.17220 0.69411
 C292 C 0.71353 0.18491 0.81720
 C293 C 0.70983 0.15611 0.85450
 C294 C 0.74536 0.12547 0.86732
 C295 C 0.78494 0.12390 0.84240
 C296 C 0.78847 0.15231 0.80471
 C297 C 0.86348 0.22729 0.78159
 C298 C 0.89274 0.23085 0.81781
 C299 C 0.87896 0.25522 0.85692
 C300 C 0.83603 0.27644 0.85914
 C301 C 0.80635 0.27175 0.82350
 C302 C 0.81327 0.25230 0.66742
 C303 C 0.81936 0.28057 0.63010
 C304 C 0.80400 0.32627 0.63182
 C305 C 0.78339 0.34376 0.67160
 C306 C 0.77850 0.31589 0.70924
 H307 H 0.69642 0.28231 0.72539
 H308 H 0.63876 0.28147 0.66732
 H309 H 0.67554 0.14032 0.64395
 H310 H 0.73459 0.14159 0.70160
 H311 H 0.68559 0.20832 0.80780
 H312 H 0.67895 0.15713 0.87305
 H313 H 0.81861 0.14942 0.78489
 H314 H 0.87433 0.20832 0.75161
 H315 H 0.92598 0.21459 0.81541
 H316 H 0.82520 0.29532 0.88916
 H317 H 0.77283 0.28732 0.82604
 H318 H 0.82503 0.21695 0.66571
 H319 H 0.83549 0.26683 0.59968
 H320 H 0.77185 0.37913 0.67380
 H321 H 0.76326 0.33000 0.73999
 H322 H 0.81249 0.09976 0.85107
 C323 C 0.22291 0.76921 0.76001
 C324 C 0.26189 0.78862 0.75773
 C325 C 0.29090 0.78271 0.71713
 C326 C 0.27335 0.82209 0.79211
 C327 C 0.18786 0.78592 0.79280
 C328 C 0.21253 0.73389 0.72701
 C329 C 0.33167 0.75658 0.71952
 C330 C 0.35856 0.75109 0.68074
 C331 C 0.34559 0.77306 0.63966
 C332 C 0.30533 0.79983 0.63770
 C333 C 0.27780 0.80404 0.67588
 C334 C 0.27951 0.80970 0.83819
 C335 C 0.28501 0.84253 0.87125
 C336 C 0.28331 0.88821 0.85861
 C337 C 0.27803 0.90034 0.81260
 C338 C 0.27398 0.86751 0.77943
 C339 C 0.17240 0.83175 0.79270
 C340 C 0.14250 0.84876 0.82562
 C341 C 0.12592 0.82019 0.85809
 C342 C 0.13915 0.77376 0.85690
 C343 C 0.17015 0.75674 0.82437
 C344 C 0.17291 0.73836 0.70190
 C345 C 0.16486 0.70690 0.66827
 C346 C 0.19643 0.67095 0.65895
 C347 C 0.23526 0.66549 0.68529
 C348 C 0.24289 0.69632 0.71940
 H349 H 0.34234 0.74015 0.75121
 H350 H 0.38994 0.73090 0.68311
 H351 H 0.29522 0.81733 0.60640
 H352 H 0.24656 0.82455 0.67358
 H353 H 0.27891 0.77482 0.84859
 H354 H 0.28867 0.83258 0.90674
 H355 H 0.26887 0.87784 0.74420
 H356 H 0.18421 0.85458 0.76758
 H357 H 0.13218 0.88450 0.82592
 H358 H 0.12661 0.75110 0.88174
 H359 H 0.18117 0.72115 0.82455
 H360 H 0.14880 0.76683 0.70745
 H361 H 0.13457 0.71124 0.64859
 H362 H 0.25970 0.63738 0.67952
 H363 H 0.27288 0.69122 0.73944
 H364 H 0.27652 0.93546 0.80251
 C365 C 0.28616 0.26090 0.77097
 C366 C 0.25105 0.29175 0.77860
 C367 C 0.24315 0.33183 0.74808
 C368 C 0.21789 0.28612 0.81485
 C369 C 0.29434 0.21728 0.79610
 C370 C 0.31748 0.26810 0.73356
 C371 C 0.27431 0.36375 0.74472
 C372 C 0.27069 0.39644 0.71019
 C373 C 0.23527 0.39864 0.67942
 C374 C 0.20243 0.36864 0.68461
 C375 C 0.20647 0.33537 0.71868
 C376 C 0.20659 0.32181 0.84491
 C377 C 0.17554 0.31739 0.87938
 C378 C 0.15566 0.27715 0.88469
 C379 C 0.16635 0.24153 0.85429
 C380 C 0.19673 0.24627 0.81918
 C381 C 0.30296 0.17762 0.77072
 C382 C 0.31382 0.13648 0.79236
 C383 C 0.31536 0.13352 0.83983
 C384 C 0.30597 0.17265 0.86596
 C385 C 0.29612 0.21451 0.84411
 C386 C 0.30671 0.25839 0.68836
 C387 C 0.33763 0.26222 0.65370
 C388 C 0.37902 0.27724 0.66375
 C389 C 0.38892 0.28900 0.70849
 C390 C 0.35866 0.28353 0.74348
 H391 H 0.30243 0.36207 0.76758
 H392 H 0.29605 0.41955 0.70676
 H393 H 0.17473 0.36970 0.66125
 H394 H 0.18208 0.31106 0.72077
 H395 H 0.22205 0.35306 0.84182
 H396 H 0.16706 0.34530 0.90216
 H397 H 0.20367 0.21887 0.79543
 H398 H 0.30168 0.17833 0.73383
 H399 H 0.32109 0.10655 0.77195
 H400 H 0.30754 0.17102 0.90284
 H401 H 0.29051 0.24463 0.86452
 H402 H 0.27490 0.24665 0.68031
 H403 H 0.32948 0.25330 0.61914
 H404 H 0.42082 0.30052 0.71651
 H405 H 0.36723 0.29125 0.77826
 H406 H 0.15054 0.21050 0.85707
 C407 C 0.74141 0.76319 0.71718
 C408 C 0.78016 0.73627 0.71428
 C409 C 0.78913 0.70332 0.67681
 C410 C 0.81508 0.73839 0.74960
 C411 C 0.73342 0.79600 0.75463
 C412 C 0.70476 0.76227 0.68364
 C413 C 0.80414 0.65845 0.68729
 C414 C 0.80795 0.62593 0.65307
 C415 C 0.79625 0.63775 0.60796
 C416 C 0.78339 0.68277 0.59701
 C417 C 0.78104 0.71560 0.63094
 C418 C 0.81134 0.71746 0.79232
 C419 C 0.84265 0.72274 0.82661
 C420 C 0.87725 0.75012 0.81893
 C421 C 0.88118 0.77050 0.77612
 C422 C 0.85099 0.76375 0.74130
 C423 C 0.76057 0.83121 0.76003
 C424 C 0.75373 0.86089 0.79637
 C425 C 0.71868 0.85666 0.82692
 C426 C 0.68971 0.82351 0.81969
 C427 C 0.69718 0.79308 0.78386
 C428 C 0.68792 0.80275 0.66269
 C429 C 0.65265 0.80340 0.63213
 C430 C 0.63360 0.76372 0.62181
 C431 C 0.65008 0.72304 0.64285
 C432 C 0.68520 0.72243 0.67393
 H433 H 0.81109 0.64812 0.72223
 H434 H 0.81778 0.59120 0.66218
 H435 H 0.77460 0.69228 0.56224
 H436 H 0.77113 0.75025 0.62164
 H437 H 0.78376 0.69785 0.79930
 H438 H 0.83870 0.70738 0.85975
 H439 H 0.85432 0.78014 0.70855
 H440 H 0.78723 0.83545 0.73639
 H441 H 0.77601 0.88691 0.80091
 H442 H 0.66255 0.82004 0.84296
 H443 H 0.67528 0.76669 0.77944
 H444 H 0.70225 0.83393 0.66995
 H445 H 0.64016 0.83493 0.61627
 H446 H 0.63561 0.69195 0.63566
 H447 H 0.69703 0.69103 0.69046
 H448 H 0.90742 0.79205 0.76993
 N449 N 0.29882 0.13274 0.07120
 N450 N 0.29909 0.17206 0.08394
 N451 N 0.81791 0.56707 0.57493
 N452 N 0.79356 0.60407 0.57385
 N453 N 0.71288 0.85723 0.04483
 N454 N 0.70222 0.81893 0.05201
 N455 N 0.20079 0.43945 0.61713
 N456 N 0.23477 0.42989 0.64199
 N457 N 0.89752 0.22588 0.06575
 N458 N 0.85790 0.22491 0.07411
 N459 N 0.40085 0.73735 0.59138
 N460 N 0.37398 0.77136 0.60059
 N461 N 0.03631 0.80391 0.10177
 N462 N 0.04336 0.81624 0.14097
 N463 N 0.59828 0.24547 0.60249
 N464 N 0.61994 0.20951 0.61649
 N465 N 0.77021 0.06739 0.91958
 N466 N 0.73881 0.09341 0.90263
 N467 N 0.20966 0.60987 0.41470
 N468 N 0.18035 0.64282 0.40950
 N469 N 0.30410 0.91786 0.92988
 N470 N 0.28409 0.92316 0.89181
 N471 N 0.78148 0.38210 0.39641
 N472 N 0.81023 0.34927 0.38892
 N473 N 0.11009 0.23665 0.93219
 N474 N 0.12287 0.27419 0.91934
 N475 N 0.56827 0.75039 0.39107
 N476 N 0.57520 0.72067 0.36030
 N477 N 0.92136 0.73263 0.88473
 N478 N 0.90560 0.76144 0.85540
 N479 N 0.42039 0.25000 0.41117
 N480 N 0.39608 0.21804 0.40483
 N481 N 0.74852 0.89853 0.88426
 N482 N 0.71446 0.88329 0.86728
 N483 N 0.19360 0.42680 0.42735
 N484 N 0.22787 0.40871 0.40741
 N485 N 0.32076 0.07934 0.89906
 N486 N 0.32863 0.09041 0.85957
 N487 N 0.80967 0.55880 0.38776
 N488 N 0.77482 0.57071 0.36508
 N489 N 0.07198 0.81957 0.91594
 N490 N 0.09716 0.84021 0.89245
 N491 N 0.60136 0.24324 0.41641
 N492 N 0.62324 0.20645 0.40566
 N493 N 0.93781 0.22607 0.90354
 N494 N 0.90736 0.25719 0.89549
 N495 N 0.38569 0.74576 0.40217
 N496 N 0.36320 0.78258 0.39208
 N497 N 0.27998 0.94351 0.11375
 N498 N 0.24190 0.93510 0.12766
 N499 N 0.78320 0.38948 0.58613
 N500 N 0.80981 0.35474 0.59328
 N501 N 0.75232 0.03518 0.10811
 N502 N 0.72046 0.06163 0.12295
 N503 N 0.22061 0.61518 0.60589
 N504 N 0.18878 0.64035 0.62282
 N505 N 0.90364 0.72285 0.07476
 N506 N 0.87980 0.75117 0.09847
 N507 N 0.41753 0.24662 0.60048
 N508 N 0.41220 0.27818 0.62944
 N509 N 0.08122 0.23301 0.12226
 N510 N 0.09287 0.26964 0.13847
 N511 N 0.58119 0.73094 0.57553
 N512 N 0.59750 0.76595 0.59016
   
