data_POSCAR
  _audit_creation_date              2014-09-24
  _audit_creation_method            'ToBaCCo'
  _symmetry_space_group_name_H-M    'P1'
  _symmetry_Int_Tables_number       1
  _symmetry_cell_setting            triclinic
  loop_
  _symmetry_equiv_pos_as_xyz
 x,y,z
_cell_length_a 39.1270
_cell_length_b 38.6648
_cell_length_c 38.8363
_cell_angle_alpha 92.806500
_cell_angle_beta 92.903600
_cell_angle_gamma 92.871200
loop_
  _atom_site_label
  _atom_site_type_symbol
  _atom_site_fract_x
  _atom_site_fract_y
  _atom_site_fract_z
N1 N 0.21062 1.27844 0.18636
 N2 N 0.19017 1.28051 0.21207
 C3 C 0.16718 1.30450 0.20571
 C4 C 0.17347 1.31831 0.17407
 C5 C 0.20149 1.30104 0.16279
 H6 H 0.14697 1.31060 0.22260
 H7 H 0.21390 1.30372 0.13879
 Cu8 Cu 0.19439 1.25034 0.25043
 Cu9 Cu 0.24589 1.24481 0.18383
 Cu10 Cu 0.24627 1.18352 0.24575
 N11 N 0.19068 1.21237 0.28120
 N12 N 0.21116 1.18654 0.27941
 C13 C 0.20232 1.16333 0.30247
 C14 C 0.17449 1.17500 0.31975
 C15 C 0.16799 1.20646 0.30544
 H16 H 0.21485 1.13933 0.30554
 H17 H 0.14782 1.22353 0.31139
 N18 N 0.27956 1.18509 0.20935
 N19 N 0.27938 1.20852 0.18578
 C20 C 0.30346 1.20155 0.16327
 C21 C 0.31958 1.17218 0.17297
 C22 C 0.30381 1.16259 0.20245
 H23 H 0.30825 1.21629 0.14093
 H24 H 0.30856 1.14001 0.21693
 H25 H 0.21748 1.20896 0.20990
 H26 H 0.25198 1.23542 0.23576
 N27 N 0.80785 0.73771 0.15060
 N28 N 0.83292 0.74077 0.17454
 C29 C 0.85467 0.71549 0.16910
 C30 C 0.84284 0.69545 0.14001
 C31 C 0.81298 0.71040 0.12891
 H32 H 0.87794 0.71257 0.18464
 H33 H 0.79643 0.70232 0.10653
 Cu34 Cu 0.83628 0.77830 0.20972
 Cu35 Cu 0.77162 0.77058 0.14865
 Cu36 Cu 0.77632 0.83683 0.21273
 N37 N 0.83237 0.80885 0.25036
 N38 N 0.80902 0.83202 0.25147
 C39 C 0.81444 0.85214 0.28071
 C40 C 0.84305 0.84114 0.29906
 C41 C 0.85337 0.81321 0.27890
 H42 H 0.79954 0.87413 0.28706
 H43 H 0.87555 0.79822 0.28349
 N44 N 0.73970 0.83187 0.17584
 N45 N 0.73779 0.80676 0.15143
 C46 C 0.71084 0.81148 0.12945
 C47 C 0.69492 0.84091 0.14064
 C48 C 0.71394 0.85301 0.17020
 H49 H 0.70362 0.79498 0.10671
 H50 H 0.70999 0.87615 0.18591
 H51 H 0.79965 0.81178 0.17210
 H52 H 0.77493 0.78421 0.20120
 N53 N 0.79612 1.25544 -0.17757
 N54 N 0.81996 1.25562 -0.20017
 C55 C 0.84141 1.28374 -0.19324
 C56 C 0.83048 1.30221 -0.16463
 C57 C 0.80146 1.28340 -0.15563
 H58 H 0.86439 1.28919 -0.20672
 H59 H 0.78632 1.28848 -0.13362
 Cu60 Cu 0.82275 1.21685 -0.23368
 Cu61 Cu 0.76294 1.21661 -0.17491
 Cu62 Cu 0.76881 1.14624 -0.23289
 N63 N 0.82507 1.17783 -0.26693
 N64 N 0.80447 1.15003 -0.26611
 C65 C 0.81268 1.12654 -0.29068
 C66 C 0.84003 1.14031 -0.30805
 C67 C 0.84700 1.17306 -0.29211
 H68 H 0.79967 1.10131 -0.29526
 H69 H 0.86702 1.19185 -0.29771
 N70 N 0.73438 1.14775 -0.19739
 N71 N 0.73182 1.17497 -0.17599
 C72 C 0.70645 1.16833 -0.15480
 C73 C 0.69222 1.13531 -0.16304
 C74 C 0.71064 1.12299 -0.19021
 H75 H 0.69955 1.18587 -0.13409
 H76 H 0.70706 1.09784 -0.20367
 H77 H 0.79347 1.17895 -0.19493
 H78 H 0.76321 1.19864 -0.22612
 N79 N 0.17458 0.73425 -0.17147
 N80 N 0.14730 0.73767 -0.19193
 C81 C 0.12295 0.71344 -0.18505
 C82 C 0.13570 0.69375 -0.15889
 C83 C 0.16858 0.70781 -0.15099
 H84 H 0.09785 0.71034 -0.19812
 H85 H 0.18661 0.69997 -0.13123
 Cu86 Cu 0.14608 0.77364 -0.22537
 Cu87 Cu 0.21543 0.76505 -0.17160
 Cu88 Cu 0.21611 0.82640 -0.23331
 N89 N 0.14768 0.80786 -0.26061
 N90 N 0.17554 0.82746 -0.26410
 C91 C 0.16999 0.84878 -0.28985
 C92 C 0.13659 0.84262 -0.30341
 C93 C 0.12326 0.81625 -0.28406
 H94 H 0.18878 0.86806 -0.29721
 H95 H 0.09773 0.80412 -0.28663
 N96 N 0.25472 0.82168 -0.19973
 N97 N 0.25439 0.79861 -0.17586
 C98 C 0.28268 0.80435 -0.15468
 C99 C 0.30178 0.83257 -0.16563
 C100 C 0.28318 0.84266 -0.19442
 H101 H 0.28799 0.79015 -0.13192
 H102 H 0.28883 0.86489 -0.20932
 H103 H 0.19193 0.80693 -0.19154
 H104 H 0.20846 0.77458 -0.22314
 C105 C 0.47725 1.03052 0.03011
 C106 C 0.49934 1.00535 0.04941
 C107 C 0.51508 0.98220 0.02871
 C108 C 0.50765 0.98690 -0.01015
 C109 C 0.50201 1.04786 0.00586
 C110 C 0.51757 1.02524 -0.01547
 C111 C 0.45275 1.00733 0.00595
 C112 C 0.46839 0.98460 -0.01507
 H113 H 0.50319 1.00699 0.07725
 H114 H 0.52008 0.96847 -0.02772
 H115 H 0.50792 1.07539 0.00570
 H116 H 0.42517 1.00904 0.00551
 C117 C 0.03153 0.47424 1.03145
 C118 C 0.04880 0.49712 1.00534
 C119 C 0.02655 0.51360 0.98446
 C120 C -0.01136 0.50580 0.99155
 C121 C 0.00861 0.49858 1.05088
 C122 C -0.01419 0.51491 1.03040
 C123 C 0.00657 0.44979 1.00899
 C124 C -0.01597 0.46605 0.98834
 H125 H 0.07610 0.50046 1.00307
 H126 H -0.02969 0.51871 0.97436
 H127 H 0.01094 0.50276 1.07868
 H128 H 0.00729 0.42181 1.00896
 C129 C 1.03448 0.03475 0.47875
 C130 C 1.00884 0.05355 0.50042
 C131 C 0.98625 0.03231 0.51619
 C132 C 0.99184 -0.00658 0.50903
 C133 C 1.05188 0.01086 0.50402
 C134 C 1.02980 -0.01103 0.51959
 C135 C 1.01242 0.00979 0.45393
 C136 C 0.99013 -0.01171 0.46950
 H137 H 1.00983 0.08153 0.50404
 H138 H 0.97378 -0.02460 0.52131
 H139 H 1.07912 0.01084 0.50970
 H140 H 1.01442 0.00929 0.42619
 C141 C 0.11580 0.39037 1.11957
 C142 C 0.14492 0.37663 1.10565
 C143 C 0.16415 0.35337 1.12378
 C144 C 0.15476 0.34296 1.15646
 C145 C 0.12583 0.35738 1.17062
 C146 C 0.10660 0.38070 1.15237
 C147 C 0.09464 0.41380 1.09927
 C148 C 0.05872 0.41036 1.09849
 C149 C 0.03894 0.43062 1.07727
 C150 C 0.05443 0.45459 1.05590
 C151 C 0.09048 0.45906 1.05804
 C152 C 0.11023 0.43884 1.07933
 H153 H 0.18610 0.34340 1.11158
 H154 H 0.11757 0.35063 1.19568
 H155 H 0.01129 0.42696 1.07686
 H156 H 0.10402 0.47791 1.04356
 H157 H 0.08452 0.39123 1.16400
 H158 H 0.04587 0.39123 1.11346
 H159 H 0.15244 0.38319 1.08022
 H160 H 0.13786 0.44277 1.08013
 C161 C -0.10432 0.61243 1.09155
 C162 C -0.13074 0.62817 1.07322
 C163 C -0.14852 0.65460 1.08909
 C164 C -0.14006 0.66598 1.12356
 C165 C -0.11411 0.64970 1.14200
 C166 C -0.09647 0.62331 1.12621
 C167 C -0.08395 0.58572 1.07454
 C168 C -0.07342 0.55716 1.09259
 C169 C -0.05158 0.53378 1.07791
 C170 C -0.03955 0.53839 1.04480
 C171 C -0.05150 0.56598 1.02611
 C172 C -0.07331 0.58947 1.04085
 H173 H -0.16830 0.66658 1.07408
 H174 H -0.10713 0.65742 1.16868
 H175 H -0.04412 0.51210 1.09266
 H176 H -0.04328 0.57029 1.00054
 H177 H -0.07599 0.61205 1.14095
 H178 H -0.08190 0.55301 1.11825
 H179 H -0.13761 0.62009 1.04657
 H180 H -0.08083 0.61130 1.02631
 C181 C -0.11218 0.38327 0.89686
 C182 C -0.14272 0.36836 0.90835
 C183 C -0.16206 0.34315 0.88781
 C184 C -0.15123 0.33204 0.85527
 C185 C -0.12159 0.34836 0.84303
 C186 C -0.10229 0.37374 0.86360
 C187 C -0.08934 0.40629 0.92064
 C188 C -0.07261 0.43636 0.90926
 C189 C -0.04947 0.45655 0.93158
 C190 C -0.04232 0.44663 0.96538
 C191 C -0.05956 0.41700 0.97689
 C192 C -0.08285 0.39713 0.95482
 H193 H -0.18484 0.33168 0.89816
 H194 H -0.11263 0.34097 0.81797
 H195 H -0.03634 0.47920 0.92209
 H196 H -0.05481 0.40902 1.00297
 H197 H -0.07878 0.38473 0.85412
 H198 H -0.07728 0.44408 0.88308
 H199 H -0.15125 0.37565 0.93367
 H200 H -0.09503 0.37391 0.96421
 C201 C 0.08433 0.61147 0.89289
 C202 C 0.06546 0.63296 0.87176
 C203 C 0.08210 0.65931 0.85442
 C204 C 0.11794 0.66485 0.85802
 C205 C 0.13676 0.64295 0.87873
 C206 C 0.12018 0.61664 0.89593
 C207 C 0.06694 0.58467 0.91297
 C208 C 0.08139 0.55249 0.91710
 C209 C 0.06739 0.52884 0.93923
 C210 C 0.03860 0.53679 0.95775
 C211 C 0.02302 0.56807 0.95217
 C212 C 0.03707 0.59184 0.93007
 H213 H 0.06676 0.67570 0.83877
 H214 H 0.16438 0.64613 0.88189
 H215 H 0.07949 0.50452 0.94229
 H216 H 0.00104 0.57503 0.96613
 H217 H 0.13544 0.60086 0.91238
 H218 H 0.10392 0.54583 0.90366
 H219 H 0.03783 0.62943 0.86869
 H220 H 0.02547 0.61651 0.92765
 C221 C 1.11777 0.12205 0.39341
 C222 C 1.14660 0.10763 0.37953
 C223 C 1.16552 0.12525 0.35573
 C224 C 1.15610 0.15789 0.34490
 C225 C 1.12746 0.17256 0.35941
 C226 C 1.10855 0.15483 0.38328
 C227 C 1.09690 0.10226 0.41743
 C228 C 1.06097 0.10158 0.41445
 C229 C 1.04143 0.08061 0.43514
 C230 C 1.05718 0.05954 0.45924
 C231 C 1.09327 0.06144 0.46307
 C232 C 1.11277 0.08251 0.44244
 H233 H 1.18724 0.11268 0.34569
 H234 H 1.11919 0.19762 0.35235
 H235 H 1.01376 0.08000 0.43162
 H236 H 1.10711 0.04662 0.48136
 H237 H 1.08670 0.16683 0.39387
 H238 H 1.04791 0.11630 0.39527
 H239 H 1.15412 0.08218 0.38642
 H240 H 1.14044 0.08310 0.44587
 C241 C 1.08684 -0.10297 0.61762
 C242 C 1.06840 -0.12808 0.63514
 C243 C 1.08478 -0.14647 0.66085
 C244 C 1.11997 -0.13982 0.66999
 C245 C 1.13819 -0.11461 0.65208
 C246 C 1.12188 -0.09657 0.62633
 C247 C 1.06992 -0.08272 0.59077
 C248 C 1.08655 -0.07591 0.56045
 C249 C 1.07281 -0.05364 0.53685
 C250 C 1.04215 -0.03747 0.54304
 C251 C 1.02453 -0.04575 0.57240
 C252 C 1.03830 -0.06815 0.59611
 H253 H 1.06953 -0.16550 0.67370
 H254 H 1.16520 -0.10846 0.65764
 H255 H 1.08650 -0.04876 0.51389
 H256 H 1.00093 -0.03385 0.57791
 H257 H 1.13668 -0.07702 0.61360
 H258 H 1.11055 -0.08743 0.55524
 H259 H 1.04135 -0.13364 0.62878
 H260 H 1.02498 -0.07286 0.61934
 C261 C 0.89970 -0.10611 0.38350
 C262 C 0.91016 -0.13780 0.36963
 C263 C 0.89070 -0.15601 0.34289
 C264 C 0.86027 -0.14285 0.32900
 C265 C 0.84871 -0.11219 0.34470
 C266 C 0.86824 -0.09405 0.37156
 C267 C 0.92310 -0.08420 0.40777
 C268 C 0.91084 -0.06602 0.43648
 C269 C 0.93292 -0.04330 0.45747
 C270 C 0.96737 -0.03800 0.44965
 C271 C 0.97974 -0.05686 0.42153
 C272 C 0.95790 -0.07975 0.40090
 H273 H 0.90042 -0.17985 0.33266
 H274 H 0.82526 -0.10120 0.33560
 H275 H 0.92281 -0.02893 0.47898
 H276 H 1.00632 -0.05357 0.41523
 H277 H 0.85955 -0.06964 0.38178
 H278 H 0.88416 -0.06911 0.44244
 H279 H 0.93399 -0.14808 0.37887
 H280 H 0.96802 -0.09307 0.37876
 C281 C 0.89438 0.09225 0.61218
 C282 C 0.86756 0.07390 0.62715
 C283 C 0.84925 0.08980 0.65306
 C284 C 0.85757 0.12443 0.66496
 C285 C 0.88434 0.14270 0.64947
 C286 C 0.90238 0.12685 0.62349
 C287 C 0.91490 0.07532 0.58566
 C288 C 0.92497 0.09339 0.55706
 C289 C 0.94705 0.07890 0.53387
 C290 C 0.95989 0.04603 0.53884
 C291 C 0.94833 0.02726 0.56648
 C292 C 0.92614 0.04175 0.58967
 H293 H 0.82894 0.07453 0.66388
 H294 H 0.89180 0.16933 0.65724
 H295 H 0.95422 0.09370 0.51219
 H296 H 0.95727 0.00191 0.57115
 H297 H 0.92322 0.14154 0.61275
 H298 H 0.91603 0.11898 0.55281
 H299 H 0.86066 0.04724 0.61873
 H300 H 0.91889 0.02722 0.61154
 C301 C 0.39267 1.11521 0.11671
 C302 C 0.38676 1.10816 0.15112
 C303 C 0.36347 1.12699 0.16960
 C304 C 0.34556 1.15329 0.15406
 C305 C 0.35195 1.16066 0.11981
 C306 C 0.37515 1.14183 0.10137
 C307 C 0.41614 1.09429 0.09637
 C308 C 0.43746 1.11005 0.07300
 C309 C 0.45779 1.09018 0.05204
 C310 C 0.45763 1.05386 0.05412
 C311 C 0.43664 1.03831 0.07809
 C312 C 0.41625 1.05821 0.09897
 H313 H 0.35956 1.12085 0.19604
 H314 H 0.33845 1.18040 0.10676
 H315 H 0.47270 1.10377 0.03391
 H316 H 0.43545 1.01044 0.08008
 H317 H 0.37865 1.14752 0.07472
 H318 H 0.43821 1.13787 0.07066
 H319 H 0.40022 1.08812 0.16381
 H320 H 0.39972 1.04517 0.11633
 C321 C 0.61309 1.08306 -0.10858
 C322 C 0.63369 1.06397 -0.13037
 C323 C 0.65900 1.08086 -0.14866
 C324 C 0.66437 1.11715 -0.14530
 C325 C 0.64340 1.13613 -0.12388
 C326 C 0.61818 1.11933 -0.10574
 C327 C 0.58705 1.06561 -0.08786
 C328 C 0.59424 1.03528 -0.07089
 C329 C 0.57111 1.02127 -0.04828
 C330 C 0.54055 1.03744 -0.04206
 C331 C 0.53264 1.06673 -0.06034
 C332 C 0.55556 1.08059 -0.08301
 H333 H 0.67474 1.06542 -0.16484
 H334 H 0.64643 1.16409 -0.12090
 H335 H 0.57792 0.99882 -0.03454
 H336 H 0.50883 1.07924 -0.05674
 H337 H 0.60313 1.13480 -0.08881
 H338 H 0.61839 1.02325 -0.07390
 H339 H 0.63020 1.03600 -0.13328
 H340 H 0.54886 1.10345 -0.09635
 C341 C 0.38459 0.89185 -0.10929
 C342 C 0.37208 0.90200 -0.14156
 C343 C 0.34635 0.88195 -0.16053
 C344 C 0.33223 0.85133 -0.14757
 C345 C 0.34619 0.84021 -0.11612
 C346 C 0.37213 0.86025 -0.09721
 C347 C 0.40804 0.91573 -0.08703
 C348 C 0.43630 0.90360 -0.06826
 C349 C 0.45679 0.92625 -0.04562
 C350 C 0.44886 0.96112 -0.04097
 C351 C 0.42107 0.97331 -0.06027
 C352 C 0.40098 0.95092 -0.08312
 H353 H 0.33697 0.89124 -0.18485
 H354 H 0.33642 0.81665 -0.10537
 H355 H 0.47806 0.91628 -0.03091
 H356 H 0.41469 1.00021 -0.05745
 H357 H 0.38124 0.85186 -0.07233
 H358 H 0.44235 0.87661 -0.07093
 H359 H 0.38167 0.92599 -0.15175
 H360 H 0.37917 0.96092 -0.09695
 C361 C 0.61174 0.89193 0.09085
 C362 C 0.62177 0.90001 0.12568
 C363 C 0.64825 0.88298 0.14191
 C364 C 0.66546 0.85741 0.12375
 C365 C 0.65493 0.84871 0.08910
 C366 C 0.62842 0.86586 0.07280
 C367 C 0.58500 0.91181 0.07332
 C368 C 0.58907 0.92291 0.03978
 C369 C 0.56568 0.94466 0.02473
 C370 C 0.53787 0.95606 0.04295
 C371 C 0.53285 0.94334 0.07576
 C372 C 0.55614 0.92158 0.09076
 H373 H 0.65532 0.89014 0.16869
 H374 H 0.66761 0.82922 0.07426
 H375 H 0.57031 0.95345 -0.00061
 H376 H 0.51103 0.95042 0.09012
 H377 H 0.62105 0.85882 0.04603
 H378 H 0.61111 0.91597 0.02568
 H379 H 0.60975 0.92025 0.14021
 H380 H 0.55177 0.91269 0.11627
   
