data_POSCAR
  _audit_creation_date              2014-09-24
  _audit_creation_method            'ToBaCCo'
  _symmetry_space_group_name_H-M    'P1'
  _symmetry_Int_Tables_number       1
  _symmetry_cell_setting            triclinic
  loop_
  _symmetry_equiv_pos_as_xyz
 x,y,z
_cell_length_a 37.0497
_cell_length_b 37.0432
_cell_length_c 37.0660
_cell_angle_alpha 89.958800
_cell_angle_beta 89.988600
_cell_angle_gamma 89.967000
loop_
  _atom_site_label
  _atom_site_type_symbol
  _atom_site_fract_x
  _atom_site_fract_y
  _atom_site_fract_z
C1 C 0.27561 0.25024 0.22408
 N2 N 0.24974 0.27618 0.22409
 C3 C 0.22376 0.27612 0.24990
 N4 N 0.22365 0.25012 0.27570
 C5 C 0.24952 0.22417 0.27569
 N6 N 0.27550 0.22423 0.24988
 C7 C 0.72335 -0.25068 0.22335
 N8 N 0.74939 -0.27646 0.22323
 C9 C 0.77538 -0.27639 0.24903
 N10 N 0.77532 -0.25054 0.27495
 C11 C 0.74928 -0.22476 0.27508
 N12 N 0.72330 -0.22483 0.24928
 C13 C 0.72509 0.25067 0.77528
 N14 N 0.72523 0.22470 0.74948
 C15 C 0.75114 0.22473 0.72361
 N16 N 0.77693 0.25074 0.72354
 C17 C 0.77680 0.27671 0.74934
 N18 N 0.75087 0.27667 0.77521
 C19 C 0.27688 -0.25046 0.77745
 N20 N 0.25077 -0.27614 0.77762
 C21 C 0.22483 -0.27603 0.75179
 N22 N 0.22499 -0.25025 0.72577
 C23 C 0.25108 -0.22456 0.72559
 N24 N 0.27703 -0.22466 0.75143
 C25 C 0.72338 -0.25042 0.77723
 N26 N 0.72334 -0.22459 0.75124
 C27 C 0.74925 -0.22461 0.72535
 N28 N 0.77520 -0.25048 0.72544
 C29 C 0.77527 -0.27632 0.75142
 N30 N 0.74935 -0.27629 0.77731
 C31 C 0.27568 0.25005 0.77554
 N32 N 0.24974 0.27593 0.77556
 C33 C 0.22380 0.27591 0.74971
 N34 N 0.22380 0.24999 0.72385
 C35 C 0.24974 0.22411 0.72383
 N36 N 0.27567 0.22414 0.74967
 C37 C 0.27614 -0.25122 0.22298
 N38 N 0.25002 -0.27691 0.22282
 C39 C 0.22404 -0.27681 0.24864
 N40 N 0.22418 -0.25101 0.27463
 C41 C 0.25028 -0.22532 0.27480
 N42 N 0.27626 -0.22543 0.24897
 C43 C 0.72545 0.25119 0.22432
 N44 N 0.75124 0.27719 0.22439
 C45 C 0.77717 0.27719 0.25026
 N46 N 0.77730 0.25117 0.27606
 C47 C 0.75150 0.22516 0.27600
 N48 N 0.72559 0.22518 0.25013
 O49 O 0.22021 0.03392 0.46466
 O50 O 0.22074 -0.03629 0.53506
 O51 O 0.22034 0.03401 0.53491
 O52 O 0.22058 -0.03640 0.46476
 O53 O 0.28026 -0.03612 0.46462
 O54 O 0.28003 0.03430 0.53478
 O55 O 0.28043 -0.03600 0.53492
 O56 O 0.27990 0.03420 0.46453
 Cu57 Cu 0.21444 -0.00123 0.49986
 Cu58 Cu 0.28618 -0.00089 0.49969
 C59 C 0.24997 0.04593 0.45273
 C60 C 0.25067 -0.04797 0.54689
 C61 C 0.25014 0.04605 0.54668
 C62 C 0.25046 -0.04813 0.45284
 O63 O 0.78055 0.03438 0.53497
 O64 O 0.78000 -0.03593 0.46476
 O65 O 0.78061 0.03440 0.46472
 O66 O 0.77997 -0.03593 0.53506
 O67 O 0.72028 -0.03540 0.53504
 O68 O 0.72092 0.03493 0.46470
 O69 O 0.72031 -0.03540 0.46474
 O70 O 0.72086 0.03490 0.53494
 Cu71 Cu 0.78630 -0.00084 0.49988
 Cu72 Cu 0.71457 -0.00020 0.49985
 C73 C 0.75080 0.04652 0.54679
 C74 C 0.75006 -0.04752 0.45289
 C75 C 0.75087 0.04655 0.45286
 C76 C 0.75002 -0.04752 0.54694
 O77 O 0.46552 0.22080 0.03512
 O78 O 0.53579 0.22081 -0.03515
 O79 O 0.53582 0.22095 0.03512
 O80 O 0.46550 0.22068 -0.03514
 O81 O 0.46535 0.28038 -0.03529
 O82 O 0.53567 0.28065 0.03497
 O83 O 0.53564 0.28052 -0.03530
 O84 O 0.46536 0.28050 0.03497
 Cu85 Cu 0.50067 0.21479 0.00000
 Cu86 Cu 0.50049 0.28654 -0.00018
 C87 C 0.45357 0.25065 0.04690
 C88 C 0.54757 0.25067 -0.04709
 C89 C 0.54761 0.25084 0.04690
 C90 C 0.45355 0.25049 -0.04708
 O91 O 0.53512 0.77892 0.03562
 O92 O 0.46491 0.77895 -0.03470
 O93 O 0.46480 0.77879 0.03556
 O94 O 0.53521 0.77905 -0.03466
 O95 O 0.53534 0.71935 -0.03473
 O96 O 0.46493 0.71909 0.03549
 O97 O 0.46504 0.71924 -0.03478
 O98 O 0.53525 0.71922 0.03555
 Cu99 Cu 0.50000 0.78495 0.00047
 Cu100 Cu 0.50016 0.71320 0.00038
 C101 C 0.54704 0.74907 0.04746
 C102 C 0.45312 0.74910 -0.04661
 C103 C 0.45297 0.74890 0.04737
 C104 C 0.54716 0.74924 -0.04655
 O105 O 0.03463 0.46596 0.21952
 O106 O -0.03569 0.53627 0.21923
 O107 O 0.03465 0.53626 0.21912
 O108 O -0.03565 0.46595 0.21963
 O109 O -0.03557 0.46624 0.27930
 O110 O 0.03473 0.53655 0.27878
 O111 O -0.03561 0.53656 0.27889
 O112 O 0.03471 0.46625 0.27918
 Cu113 Cu -0.00053 0.50109 0.21335
 Cu114 Cu -0.00043 0.50144 0.28506
 C115 C 0.04652 0.45422 0.24940
 C116 C -0.04754 0.54826 0.24901
 C117 C 0.04658 0.54825 0.24886
 C118 C -0.04745 0.45420 0.24955
 O119 O 0.03407 0.53555 0.78095
 O120 O -0.03619 0.46527 0.78022
 O121 O 0.03409 0.46526 0.78035
 O122 O -0.03626 0.53559 0.78081
 O123 O -0.03614 0.53613 0.72115
 O124 O 0.03421 0.46580 0.72069
 O125 O -0.03606 0.46581 0.72055
 O126 O 0.03419 0.53609 0.72128
 Cu127 Cu -0.00109 0.50037 0.78660
 Cu128 Cu -0.00094 0.50102 0.71490
 C129 C 0.04601 0.54765 0.75124
 C130 C -0.04796 0.45366 0.75026
 C131 C 0.04602 0.45365 0.75044
 C132 C -0.04808 0.54773 0.75105
 C133 C 0.30307 0.25030 0.19679
 C134 C 0.32614 0.25037 0.17387
 C135 C 0.35314 0.25047 0.14701
 C136 C 0.37618 0.25054 0.12407
 C137 C 0.40316 0.25060 0.09719
 C138 C 0.42618 0.25063 0.07423
 C139 C 0.69737 0.74926 0.19752
 C140 C 0.67432 0.74921 0.17457
 C141 C 0.64735 0.74916 0.14769
 C142 C 0.62433 0.74912 0.12473
 C143 C 0.59739 0.74908 0.09782
 C144 C 0.57439 0.74907 0.07483
 C145 C 0.69770 0.25063 -0.19736
 C146 C 0.67470 0.25061 -0.17437
 C147 C 0.64778 0.25060 -0.14743
 C148 C 0.62481 0.25061 -0.12442
 C149 C 0.59791 0.25064 -0.09747
 C150 C 0.57493 0.25066 -0.07446
 C151 C 0.30284 0.74943 -0.19670
 C152 C 0.32587 0.74935 -0.17374
 C153 C 0.35283 0.74926 -0.14685
 C154 C 0.37584 0.74920 -0.12388
 C155 C 0.40278 0.74915 -0.09697
 C156 C 0.42577 0.74912 -0.07398
 C157 C 0.19642 0.30356 0.24990
 C158 C 0.17347 0.32663 0.24987
 C159 C 0.14661 0.35365 0.24979
 C160 C 0.12368 0.37673 0.24970
 C161 C 0.09681 0.40375 0.24960
 C162 C 0.07386 0.42680 0.24951
 C163 C 0.19724 0.69680 0.75193
 C164 C 0.17406 0.67400 0.75198
 C165 C 0.14690 0.64731 0.75195
 C166 C 0.12372 0.62450 0.75186
 C167 C 0.09660 0.59777 0.75169
 C168 C 0.07348 0.57491 0.75150
 C169 C -0.19856 0.69782 0.24891
 C170 C -0.17542 0.67494 0.24884
 C171 C -0.14831 0.64816 0.24881
 C172 C -0.12518 0.62529 0.24881
 C173 C -0.09809 0.59848 0.24885
 C174 C -0.07499 0.57557 0.24891
 C175 C -0.19741 0.30273 0.74930
 C176 C -0.17453 0.32584 0.74933
 C177 C -0.14776 0.35292 0.74943
 C178 C -0.12490 0.37604 0.74957
 C179 C -0.09812 0.40311 0.74978
 C180 C -0.07523 0.42621 0.74999
 C181 C 0.24944 0.19668 0.30297
 C182 C 0.24942 0.17358 0.32588
 C183 C 0.24945 0.14652 0.35270
 C184 C 0.24952 0.12343 0.37560
 C185 C 0.24964 0.09640 0.40245
 C186 C 0.24977 0.07334 0.42539
 C187 C 0.75126 0.19727 0.69633
 C188 C 0.75131 0.17419 0.67344
 C189 C 0.75130 0.14715 0.64665
 C190 C 0.75125 0.12406 0.62377
 C191 C 0.75113 0.09702 0.59697
 C192 C 0.75100 0.07395 0.57407
 C193 C 0.25122 -0.19731 0.69807
 C194 C 0.25126 -0.17444 0.67493
 C195 C 0.25123 -0.14769 0.64781
 C196 C 0.25116 -0.12485 0.62465
 C197 C 0.25102 -0.09809 0.59753
 C198 C 0.25087 -0.07522 0.57439
 C199 C 0.74926 -0.19742 0.30248
 C200 C 0.74929 -0.17447 0.32551
 C201 C 0.74939 -0.14761 0.35248
 C202 C 0.74951 -0.12467 0.37552
 C203 C 0.74968 -0.09780 0.40249
 C204 C 0.74985 -0.07485 0.42551
 C205 C 0.69745 0.74959 -0.19686
 C206 C 0.67444 0.74958 -0.17385
 C207 C 0.64750 0.74954 -0.14689
 C208 C 0.62450 0.74949 -0.12388
 C209 C 0.59757 0.74941 -0.09692
 C210 C 0.57456 0.74933 -0.07392
 C211 C 0.30312 0.25008 -0.19712
 C212 C 0.32616 0.25012 -0.17416
 C213 C 0.35314 0.25016 -0.14727
 C214 C 0.37617 0.25021 -0.12431
 C215 C 0.40314 0.25029 -0.09741
 C216 C 0.42617 0.25038 -0.07444
 C217 C 0.30214 0.74870 0.19713
 C218 C 0.32523 0.74866 0.17420
 C219 C 0.35228 0.74865 0.14736
 C220 C 0.37538 0.74868 0.12445
 C221 C 0.40243 0.74873 0.09760
 C222 C 0.42551 0.74880 0.07468
 C223 C 0.69804 0.25119 0.19696
 C224 C 0.67501 0.25117 0.17399
 C225 C 0.64803 0.25114 0.14710
 C226 C 0.62500 0.25109 0.12414
 C227 C 0.59802 0.25101 0.09724
 C228 C 0.57500 0.25094 0.07426
 C229 C -0.19875 0.69779 0.75148
 C230 C -0.17568 0.67481 0.75151
 C231 C -0.14866 0.64792 0.75149
 C232 C -0.12559 0.62496 0.75143
 C233 C -0.09857 0.59806 0.75133
 C234 C -0.07551 0.57509 0.75122
 C235 C -0.19702 0.30322 0.25029
 C236 C -0.17413 0.32634 0.25027
 C237 C -0.14733 0.35343 0.25018
 C238 C -0.12446 0.37656 0.25007
 C239 C -0.09765 0.40364 0.24991
 C240 C -0.07475 0.42674 0.24975
 C241 C 0.19636 0.30329 0.74975
 C242 C 0.17333 0.32629 0.74981
 C243 C 0.14637 0.35324 0.74990
 C244 C 0.12336 0.37626 0.74999
 C245 C 0.09642 0.40323 0.75013
 C246 C 0.07341 0.42625 0.75026
 C247 C 0.19791 0.69748 0.24850
 C248 C 0.17471 0.67467 0.24844
 C249 C 0.14753 0.64796 0.24842
 C250 C 0.12434 0.62514 0.24846
 C251 C 0.09720 0.59840 0.24856
 C252 C 0.07407 0.57553 0.24868
 C253 C 0.74921 -0.19729 0.69786
 C254 C 0.74924 -0.17436 0.67476
 C255 C 0.74933 -0.14752 0.64769
 C256 C 0.74944 -0.12461 0.62457
 C257 C 0.74961 -0.09777 0.59750
 C258 C 0.74978 -0.07484 0.57441
 C259 C 0.25041 -0.19804 0.30228
 C260 C 0.25049 -0.17512 0.32536
 C261 C 0.25055 -0.14828 0.35239
 C262 C 0.25057 -0.12535 0.37545
 C263 C 0.25057 -0.09847 0.40244
 C264 C 0.25053 -0.07550 0.42546
 C265 C 0.75161 0.19764 0.30328
 C266 C 0.75162 0.17451 0.32617
 C267 C 0.75157 0.14740 0.35297
 C268 C 0.75146 0.12425 0.37584
 C269 C 0.75129 0.09715 0.40265
 C270 C 0.75111 0.07403 0.42556
 C271 C 0.24974 0.19669 0.69648
 C272 C 0.24976 0.17365 0.67353
 C273 C 0.24981 0.14665 0.64666
 C274 C 0.24987 0.12359 0.62374
 C275 C 0.24995 0.09656 0.59689
 C276 C 0.25004 0.07349 0.57397
   
