data_POSCAR
  _audit_creation_date              2014-09-24
  _audit_creation_method            'ToBaCCo'
  _symmetry_space_group_name_H-M    'P1'
  _symmetry_Int_Tables_number       1
  _symmetry_cell_setting            triclinic
  loop_
  _symmetry_equiv_pos_as_xyz
 x,y,z
_cell_length_a 82.4731
_cell_length_b 82.5233
_cell_length_c 23.1911
_cell_angle_alpha 89.962500
_cell_angle_beta 90.069600
_cell_angle_gamma 119.990900
loop_
  _atom_site_label
  _atom_site_type_symbol
  _atom_site_fract_x
  _atom_site_fract_y
  _atom_site_fract_z
C1 C 0.24671 0.49395 0.52856
 C2 C 0.24629 0.49287 0.46983
 C3 C 0.23141 0.49373 0.43600
 C4 C 0.26071 0.49095 0.43697
 C5 C 0.26279 0.49570 0.56250
 C6 C 0.23092 0.49316 0.56149
 C7 C 0.22046 0.47951 0.39695
 C8 C 0.20589 0.47978 0.36689
 C9 C 0.20177 0.49443 0.37478
 C10 C 0.21358 0.50903 0.41314
 C11 C 0.22812 0.50867 0.44288
 C12 C 0.26513 0.47706 0.45137
 C13 C 0.27962 0.47622 0.42305
 C14 C 0.28964 0.48895 0.37880
 C15 C 0.28463 0.50226 0.36253
 C16 C 0.27029 0.50326 0.39144
 C17 C 0.28108 0.51019 0.55131
 C18 C 0.29624 0.51099 0.58083
 C19 C 0.29340 0.49737 0.62233
 C20 C 0.27498 0.48325 0.63474
 C21 C 0.25982 0.48250 0.60531
 C22 C 0.23401 0.50798 0.59796
 C23 C 0.21904 0.50771 0.62700
 C24 C 0.20079 0.49245 0.62074
 C25 C 0.19784 0.47739 0.58538
 C26 C 0.21278 0.47775 0.55597
 H27 H 0.22281 0.46783 0.39105
 H28 H 0.19735 0.46770 0.34041
 H29 H 0.21241 0.52138 0.41912
 H30 H 0.23688 0.52015 0.47144
 H31 H 0.25755 0.46706 0.48522
 H32 H 0.28300 0.46562 0.43567
 H33 H 0.26701 0.51398 0.37934
 H34 H 0.28361 0.52071 0.51914
 H35 H 0.31021 0.52227 0.57110
 H36 H 0.27230 0.47244 0.66596
 H37 H 0.24580 0.47123 0.61459
 H38 H 0.24794 0.51992 0.60292
 H39 H 0.22171 0.51938 0.65453
 H40 H 0.18391 0.46552 0.57955
 H41 H 0.21020 0.46610 0.52842
 H42 H 0.29218 0.51226 0.32864
 C43 C 0.50202 -0.24906 0.52849
 C44 C 0.50044 -0.24972 0.46986
 C45 C 0.49841 -0.26591 0.43602
 C46 C 0.50122 -0.23396 0.43685
 C47 C 0.50154 -0.23397 0.56201
 C48 C 0.50422 -0.26331 0.56149
 C49 C 0.51122 -0.26305 0.39202
 C50 C 0.51027 -0.27827 0.36263
 C51 C 0.49634 -0.29666 0.37623
 C52 C 0.48310 -0.29941 0.41893
 C53 C 0.48409 -0.28417 0.44842
 C54 C 0.51692 -0.21596 0.44093
 C55 C 0.51740 -0.20103 0.41105
 C56 C 0.50217 -0.20386 0.37663
 C57 C 0.48658 -0.22196 0.37194
 C58 C 0.48619 -0.23692 0.40146
 C59 C 0.48632 -0.23092 0.55692
 C60 C 0.48636 -0.21610 0.58611
 C61 C 0.50159 -0.20408 0.62123
 C62 C 0.51657 -0.20754 0.62757
 C63 C 0.51649 -0.22241 0.59841
 C64 C 0.49269 -0.27225 0.60898
 C65 C 0.49394 -0.28638 0.63835
 C66 C 0.50670 -0.29211 0.62057
 C67 C 0.51873 -0.28246 0.57398
 C68 C 0.51767 -0.26811 0.54553
 H69 H 0.52236 -0.24905 0.38180
 H70 H 0.52082 -0.27565 0.33049
 H71 H 0.47198 -0.31335 0.42964
 H72 H 0.47387 -0.28663 0.48156
 H73 H 0.52874 -0.21347 0.46758
 H74 H 0.52953 -0.18721 0.41570
 H75 H 0.47402 -0.25076 0.39760
 H76 H 0.47447 -0.23993 0.52989
 H77 H 0.47443 -0.21408 0.58128
 H78 H 0.52859 -0.19845 0.65383
 H79 H 0.52834 -0.22459 0.60295
 H80 H 0.48227 -0.26869 0.62230
 H81 H 0.48406 -0.29346 0.67281
 H82 H 0.52946 -0.28549 0.56021
 H83 H 0.52728 -0.26086 0.51049
 H84 H 0.47476 -0.22453 0.34518
 C85 C 1.25100 0.74873 0.53053
 C86 C 1.25095 0.74883 0.47179
 C87 C 1.26659 0.76386 0.43835
 C88 C 1.23501 0.73416 0.43852
 C89 C 1.23621 0.73292 0.56411
 C90 C 1.26556 0.76477 0.56368
 C91 C 1.26302 0.77435 0.39821
 C92 C 1.27771 0.78912 0.36852
 C93 C 1.29653 0.79379 0.37796
 C94 C 1.29980 0.78263 0.41735
 C95 C 1.28505 0.76787 0.44684
 C96 C 1.21690 0.73137 0.44578
 C97 C 1.20181 0.71705 0.41601
 C98 C 1.20459 0.70527 0.37860
 C99 C 1.22280 0.70832 0.37065
 C100 C 1.23792 0.72277 0.40002
 C101 C 1.23227 0.71454 0.55473
 C102 C 1.21765 0.69963 0.58419
 C103 C 1.20657 0.70268 0.62447
 C104 C 1.21119 0.72141 0.63485
 C105 C 1.22580 0.73626 0.60517
 C106 C 1.27770 0.76229 0.60000
 C107 C 1.29207 0.77754 0.62912
 C108 C 1.29442 0.79566 0.62359
 C109 C 1.28164 0.79778 0.58807
 C110 C 1.26749 0.78254 0.55837
 H111 H 1.24883 0.77147 0.39113
 H112 H 1.27414 0.79734 0.34053
 H113 H 1.31368 0.78474 0.42458
 H114 H 1.28805 0.75955 0.47648
 H115 H 1.21445 0.74017 0.47495
 H116 H 1.18790 0.71492 0.42315
 H117 H 1.25183 0.72483 0.39373
 H118 H 1.24052 0.71172 0.52434
 H119 H 1.21557 0.68582 0.57618
 H120 H 1.20301 0.72482 0.66356
 H121 H 1.22861 0.75037 0.61296
 H122 H 1.27623 0.74857 0.60502
 H123 H 1.30088 0.77483 0.65741
 H124 H 1.28299 0.81133 0.58051
 H125 H 1.25815 0.78466 0.53051
 H126 H 1.22533 0.69957 0.34155
 C127 C 0.75216 0.50452 0.53055
 C128 C 0.75240 0.50472 0.47183
 C129 C 0.76741 0.50390 0.43898
 C130 C 0.73780 0.50595 0.43801
 C131 C 0.73628 0.50350 0.56369
 C132 C 0.76796 0.50561 0.56413
 C133 C 0.77858 0.51828 0.40042
 C134 C 0.79336 0.51811 0.37155
 C135 C 0.79712 0.50343 0.38032
 C136 C 0.78551 0.48875 0.41777
 C137 C 0.77077 0.48897 0.44670
 C138 C 0.73480 0.52114 0.44527
 C139 C 0.72040 0.52174 0.41535
 C140 C 0.70874 0.50715 0.37780
 C141 C 0.71205 0.49217 0.36970
 C142 C 0.72657 0.49166 0.39923
 C143 C 0.71792 0.48903 0.55406
 C144 C 0.70296 0.48866 0.58339
 C145 C 0.70593 0.50275 0.62378
 C146 C 0.72464 0.51690 0.63435
 C147 C 0.73955 0.51721 0.60482
 C148 C 0.76510 0.49079 0.60004
 C149 C 0.78013 0.49126 0.62941
 C150 C 0.79842 0.50681 0.62451
 C151 C 0.80093 0.52193 0.58945
 C152 C 0.78591 0.52126 0.55950
 H153 H 0.77616 0.52991 0.39388
 H154 H 0.80214 0.52972 0.34351
 H155 H 0.78777 0.47705 0.42457
 H156 H 0.76205 0.47755 0.47547
 H157 H 0.74347 0.53238 0.47466
 H158 H 0.71808 0.53339 0.42260
 H159 H 0.72877 0.47990 0.39294
 H160 H 0.71516 0.47799 0.52362
 H161 H 0.68917 0.47689 0.57524
 H162 H 0.72798 0.52844 0.66316
 H163 H 0.75365 0.52852 0.61281
 H164 H 0.75125 0.47868 0.60451
 H165 H 0.77712 0.47960 0.65736
 H166 H 0.81463 0.53398 0.58239
 H167 H 0.78832 0.53286 0.53196
 H168 H 0.70340 0.48086 0.34049
 C169 C 0.49745 0.24887 0.52965
 C170 C 0.49873 0.24930 0.47094
 C171 C 0.50069 0.26539 0.43670
 C172 C 0.49777 0.23340 0.43824
 C173 C 0.49805 0.23389 0.56357
 C174 C 0.49549 0.26332 0.56231
 C175 C 0.48768 0.26245 0.39320
 C176 C 0.48860 0.27760 0.36341
 C177 C 0.50270 0.29600 0.37611
 C178 C 0.51615 0.29883 0.41830
 C179 C 0.51518 0.28366 0.44819
 C180 C 0.48213 0.21540 0.44333
 C181 C 0.48153 0.20037 0.41373
 C182 C 0.49656 0.20310 0.37862
 C183 C 0.51207 0.22121 0.37290
 C184 C 0.51260 0.23627 0.40212
 C185 C 0.51299 0.23051 0.55742
 C186 C 0.51304 0.21579 0.58693
 C187 C 0.49815 0.20401 0.62406
 C188 C 0.48351 0.20808 0.63143
 C189 C 0.48352 0.22282 0.60167
 C190 C 0.50727 0.27242 0.60926
 C191 C 0.50621 0.28670 0.63832
 C192 C 0.49342 0.29242 0.62076
 C193 C 0.48116 0.28264 0.57470
 C194 C 0.48202 0.26814 0.54659
 H195 H 0.47641 0.24845 0.38367
 H196 H 0.47790 0.27494 0.33169
 H197 H 0.52740 0.31277 0.42829
 H198 H 0.52556 0.28617 0.48091
 H199 H 0.47048 0.21299 0.47056
 H200 H 0.46946 0.18655 0.41916
 H201 H 0.52472 0.25010 0.39748
 H202 H 0.52464 0.23928 0.52945
 H203 H 0.52517 0.21417 0.58152
 H204 H 0.47140 0.19939 0.65772
 H205 H 0.47185 0.22524 0.60700
 H206 H 0.51771 0.26885 0.62239
 H207 H 0.51627 0.29388 0.67236
 H208 H 0.47040 0.28567 0.56115
 H209 H 0.47223 0.26077 0.51200
 H210 H 0.52374 0.22371 0.34557
 C211 C 0.74895 0.25046 0.53085
 C212 C 0.74986 0.24997 0.47219
 C213 C 0.73433 0.23494 0.43831
 C214 C 0.76631 0.26429 0.43953
 C215 C 0.76316 0.26652 0.56513
 C216 C 0.73394 0.23459 0.56344
 C217 C 0.73779 0.22351 0.40165
 C218 C 0.72304 0.20866 0.37224
 C219 C 0.70458 0.20509 0.37858
 C220 C 0.70128 0.21699 0.41393
 C221 C 0.71602 0.23179 0.44337
 C222 C 0.78457 0.26874 0.45482
 C223 C 0.79999 0.28310 0.42645
 C224 C 0.79744 0.29297 0.38132
 C225 C 0.77916 0.28792 0.36426
 C226 C 0.76372 0.27371 0.39317
 C227 C 0.76746 0.28486 0.55275
 C228 C 0.78174 0.29996 0.58265
 C229 C 0.79208 0.29716 0.62638
 C230 C 0.78700 0.27848 0.63985
 C231 C 0.77274 0.26344 0.60974
 C232 C 0.72180 0.23743 0.59881
 C233 C 0.70722 0.22237 0.62794
 C234 C 0.70476 0.20431 0.62289
 C235 C 0.71723 0.20161 0.58847
 C236 C 0.73168 0.21662 0.55897
 H237 H 0.75184 0.22576 0.39713
 H238 H 0.72604 0.19966 0.34581
 H239 H 0.68730 0.21488 0.41879
 H240 H 0.71314 0.24071 0.47062
 H241 H 0.78688 0.26128 0.48934
 H242 H 0.81394 0.28650 0.43970
 H243 H 0.74976 0.27040 0.38038
 H244 H 0.75985 0.28750 0.51946
 H245 H 0.78417 0.31376 0.57204
 H246 H 0.79461 0.27523 0.67138
 H247 H 0.76964 0.24936 0.61992
 H248 H 0.72343 0.25124 0.60296
 H249 H 0.69793 0.22485 0.65471
 H250 H 0.71557 0.18781 0.58355
 H251 H 0.74107 0.21424 0.53231
 H252 H 0.77682 0.29535 0.32969
 N253 N 0.97914 0.46130 -0.06284
 N254 N 0.96431 0.44450 -0.06914
 N255 N 1.01883 0.49167 -0.10343
 N256 N 1.03309 0.49665 -0.13877
 N257 N 1.01853 0.48014 -0.06385
 N258 N 1.03252 0.47692 -0.07128
 N259 N 0.97941 0.47274 -0.10270
 N260 N 0.96481 0.46404 -0.13721
 C261 C 0.95552 0.44641 -0.11586
 C262 C 1.04149 0.48731 -0.11822
 N263 N 1.02009 0.53837 -0.06265
 N264 N 1.03481 0.55522 -0.06932
 N265 N 0.98027 0.50799 -0.10194
 N266 N 0.96586 0.50303 -0.13672
 N267 N 0.98071 0.51945 -0.06193
 N268 N 0.96670 0.52270 -0.06863
 N269 N 1.01969 0.52698 -0.10282
 N270 N 1.03411 0.53576 -0.13791
 Mn271 Mn 0.99956 0.49985 -0.10344
 C272 C 1.04341 0.55339 -0.11657
 C273 C 0.95755 0.51236 -0.11547
 N274 N 1.01898 0.48018 0.06031
 N275 N 1.03312 0.47709 0.06672
 N276 N 0.98005 0.47265 0.10172
 N277 N 0.96600 0.46369 0.13800
 N278 N 0.97955 0.46130 0.06124
 N279 N 0.96511 0.44434 0.06868
 N280 N 1.01941 0.49161 0.10039
 N281 N 1.03383 0.49661 0.13510
 Mn282 Mn 0.99904 0.47052 -0.00129
 C283 C 1.04226 0.48743 0.11365
 C284 C 0.95677 0.44604 0.11677
 N285 N 0.98095 0.51929 0.06234
 N286 N 0.96677 0.52226 0.06973
 N287 N 1.02031 0.52693 0.10102
 N288 N 1.03474 0.53587 0.13609
 N289 N 1.02033 0.53832 0.06145
 N290 N 1.03473 0.55533 0.06863
 N291 N 0.98090 0.50798 0.10224
 N292 N 0.96672 0.50296 0.13788
 Mn293 Mn 1.00052 0.52906 -0.00019
 Mn294 Mn 1.00018 0.49980 0.10205
 Cl295 Cl 0.99982 0.49981 -0.00071
 C296 C 0.95803 0.51199 0.11714
 C297 C 1.04361 0.55359 0.11535
 N298 N 0.48179 0.46143 0.06166
 N299 N 0.47964 0.44455 0.06801
 N300 N 0.47252 0.49171 0.10231
 N301 N 0.46310 0.49632 0.13830
 N302 N 0.46144 0.48053 0.06185
 N303 N 0.44421 0.47731 0.06900
 N304 N 0.49289 0.47275 0.10182
 N305 N 0.49853 0.46391 0.13666
 C306 C 0.49014 0.44631 0.11512
 C307 C 0.44545 0.48724 0.11693
 N308 N 0.51808 0.53845 0.06280
 N309 N 0.52015 0.55527 0.06955
 N310 N 0.52740 0.50798 0.10225
 N311 N 0.53676 0.50300 0.13738
 N312 N 0.53854 0.51951 0.06259
 N313 N 0.55579 0.52277 0.06978
 N314 N 0.50702 0.52699 0.10275
 N315 N 0.50131 0.53571 0.13784
 Mn316 Mn 0.49996 0.49986 0.10298
 C317 C 0.50964 0.55336 0.11669
 C318 C 0.55447 0.51237 0.11662
 N319 N 0.46149 0.48077 -0.06231
 N320 N 0.44436 0.47793 -0.06912
 N321 N 0.49287 0.47300 -0.10248
 N322 N 0.49798 0.46400 -0.13856
 N323 N 0.48183 0.46165 -0.06232
 N324 N 0.47924 0.44466 -0.06966
 N325 N 0.47268 0.49213 -0.10222
 N326 N 0.46348 0.49728 -0.13733
 Mn327 Mn 0.47143 0.47089 -0.00029
 C328 C 0.44581 0.48830 -0.11624
 C329 C 0.48938 0.44633 -0.11743
 N330 N 0.53860 0.51960 -0.06163
 N331 N 0.55576 0.52250 -0.06828
 N332 N 0.50724 0.52737 -0.10183
 N333 N 0.50223 0.53646 -0.13793
 N334 N 0.51818 0.53862 -0.06126
 N335 N 0.52081 0.55564 -0.06839
 N336 N 0.52746 0.50826 -0.10173
 N337 N 0.53671 0.50317 -0.13672
 Mn338 Mn 0.52855 0.52926 0.00062
 Mn339 Mn 0.50007 0.50019 -0.10276
 Cl340 Cl 0.50000 0.50005 0.00014
 C341 C 0.55436 0.51218 -0.11544
 C342 C 0.51078 0.55408 -0.11642
 N343 N 0.46084 -0.02016 0.06253
 N344 N 0.44389 -0.03471 0.06935
 N345 N 0.49173 0.01939 0.10231
 N346 N 0.49700 0.03377 0.13732
 N347 N 0.48029 0.01922 0.06262
 N348 N 0.47740 0.03345 0.06967
 N349 N 0.47223 -0.02000 0.10242
 N350 N 0.46334 -0.03442 0.13742
 C351 C 0.44566 -0.04347 0.11638
 C352 C 0.48791 0.04240 0.11648
 N353 N 0.53802 0.01975 0.06202
 N354 N 0.55504 0.03419 0.06890
 N355 N 0.50722 -0.01978 0.10209
 N356 N 0.50194 -0.03421 0.13691
 N357 N 0.51856 -0.01963 0.06219
 N358 N 0.52137 -0.03393 0.06891
 N359 N 0.52673 0.01961 0.10213
 N360 N 0.53576 0.03394 0.13741
 Mn361 Mn 0.49948 -0.00019 0.10295
 C362 C 0.55342 0.04292 0.11621
 C363 C 0.51092 -0.04289 0.11575
 N364 N 0.48022 0.01929 -0.06157
 N365 N 0.47749 0.03364 -0.06833
 N366 N 0.47202 -0.02008 -0.10151
 N367 N 0.46296 -0.03448 -0.13655
 N368 N 0.46073 -0.02006 -0.06170
 N369 N 0.44365 -0.03436 -0.06878
 N370 N 0.49147 0.01933 -0.10164
 N371 N 0.49670 0.03369 -0.13671
 Mn372 Mn 0.47031 -0.00043 0.00048
 C373 C 0.48784 0.04249 -0.11549
 C374 C 0.44526 -0.04324 -0.11566
 N375 N 0.51838 -0.01973 -0.06196
 N376 N 0.52119 -0.03402 -0.06901
 N377 N 0.52652 0.01963 -0.10186
 N378 N 0.53550 0.03406 -0.13684
 N379 N 0.53787 0.01964 -0.06213
 N380 N 0.55489 0.03403 -0.06911
 N381 N 0.50708 -0.01976 -0.10192
 N382 N 0.50191 -0.03405 -0.13726
 Mn383 Mn 0.52841 0.00001 0.00003
 Mn384 Mn 0.49927 -0.00022 -0.10245
 Cl385 Cl 0.49937 -0.00021 0.00024
 C386 C 0.51083 -0.04282 -0.11625
 C387 C 0.55321 0.04290 -0.11593
 C388 C 1.15571 0.49378 0.29155
 C389 C 1.16324 0.48304 0.27030
 C390 C 1.17852 0.48330 0.29742
 C391 C 1.18698 0.49439 0.34718
 C392 C 1.17923 0.50528 0.36757
 C393 C 1.16395 0.50494 0.34032
 C394 C 1.13924 0.49321 0.26359
 N395 N 1.13190 0.50349 0.28481
 N396 N 1.11695 0.50281 0.26039
 C397 C 1.10867 0.49181 0.21365
 N398 N 1.11604 0.48156 0.19227
 N399 N 1.13100 0.48224 0.21672
 C400 C 1.09183 0.49087 0.18719
 C401 C 1.08320 0.47953 0.13872
 C402 C 1.06714 0.47846 0.11457
 C403 C 1.05937 0.48868 0.13843
 C404 C 1.06803 0.50012 0.18652
 C405 C 1.08408 0.50121 0.21062
 H406 H 1.15738 0.47443 0.23228
 H407 H 1.18398 0.47530 0.27682
 H408 H 1.18401 0.51344 0.40667
 H409 H 1.15841 0.51329 0.35831
 H410 H 1.08880 0.47140 0.11949
 H411 H 1.06076 0.46956 0.07739
 H412 H 1.06239 0.50821 0.20572
 H413 H 1.09034 0.51011 0.24785
 C414 C 0.49710 0.65687 0.29367
 C415 C 0.50104 0.67296 0.26199
 C416 C 0.50047 0.68789 0.28845
 C417 C 0.49604 0.68712 0.34728
 C418 C 0.49190 0.67094 0.37878
 C419 C 0.49237 0.65598 0.35227
 C420 C 0.49829 0.64128 0.26617
 N421 N 0.49258 0.62494 0.29478
 N422 N 0.49400 0.61107 0.27060
 C423 C 0.50124 0.61294 0.21682
 N424 N 0.50691 0.62926 0.18813
 N425 N 0.50544 0.64312 0.21225
 C426 C 0.50314 0.59760 0.19048
 C427 C 0.51293 0.60040 0.13840
 C428 C 0.51505 0.58603 0.11436
 C429 C 0.50734 0.56854 0.14171
 C430 C 0.49740 0.56566 0.19337
 C431 C 0.49537 0.58004 0.21759
 H432 H 0.50460 0.67407 0.21669
 H433 H 0.50345 0.70002 0.26274
 H434 H 0.48874 0.67001 0.42437
 H435 H 0.48934 0.64385 0.37806
 H436 H 0.51911 0.61375 0.11639
 H437 H 0.52273 0.58861 0.07436
 H438 H 0.49127 0.55230 0.21534
 H439 H 0.48770 0.57737 0.25761
 C440 C 0.34158 -0.15900 0.29454
 C441 C 0.34449 -0.16586 0.34658
 C442 C 0.32981 -0.18140 0.37362
 C443 C 0.31161 -0.19067 0.34955
 C444 C 0.30892 -0.18374 0.29674
 C445 C 0.32365 -0.16819 0.26982
 C446 C 0.35712 -0.14222 0.26671
 N447 N 0.35418 -0.13496 0.21781
 N448 N 0.36808 -0.11971 0.19345
 C449 C 0.38551 -0.11106 0.21692
 N450 N 0.38845 -0.11835 0.26569
 N451 N 0.37456 -0.13359 0.29006
 C452 C 0.40096 -0.09390 0.19043
 C453 C 0.41902 -0.08522 0.21457
 C454 C 0.43352 -0.06889 0.19032
 C455 C 0.43030 -0.06085 0.14143
 C456 C 0.41232 -0.06954 0.11694
 C457 C 0.39779 -0.08590 0.14116
 H458 H 0.35810 -0.15905 0.36716
 H459 H 0.33279 -0.18541 0.41492
 H460 H 0.29562 -0.19057 0.27451
 H461 H 0.32094 -0.16342 0.22935
 H462 H 0.42200 -0.09099 0.25240
 H463 H 0.44726 -0.06253 0.21002
 H464 H 0.40945 -0.06366 0.07913
 H465 H 0.38407 -0.09220 0.12140
 C466 C 0.84459 0.50462 0.29776
 C467 C 0.83356 0.51047 0.26786
 C468 C 0.81808 0.50994 0.29438
 C469 C 0.81331 0.50362 0.35150
 C470 C 0.82430 0.49773 0.38131
 C471 C 0.83972 0.49818 0.35474
 C472 C 0.86116 0.50539 0.27002
 N473 N 0.87081 0.49821 0.29699
 N474 N 0.88580 0.49905 0.27246
 C475 C 0.89182 0.50713 0.21992
 N476 N 0.88216 0.51429 0.19289
 N477 N 0.86714 0.51342 0.21739
 C478 C 0.90866 0.50822 0.19304
 C479 C 0.91607 0.51826 0.14156
 C480 C 0.93212 0.51949 0.11684
 C481 C 0.94102 0.51066 0.14293
 C482 C 0.93356 0.50051 0.19405
 C483 C 0.91759 0.49934 0.21891
 H484 H 0.83684 0.51542 0.22383
 H485 H 0.80975 0.51433 0.26995
 H486 H 0.82121 0.49307 0.42565
 H487 H 0.84795 0.49366 0.37920
 H488 H 0.90957 0.52528 0.12047
 H489 H 0.93754 0.52737 0.07729
 H490 H 0.94012 0.49353 0.21506
 H491 H 0.91225 0.49145 0.25845
 C492 C 0.50200 0.34240 0.29259
 C493 C 0.50703 0.34347 0.35101
 C494 C 0.50746 0.32852 0.37782
 C495 C 0.50299 0.31218 0.34680
 C496 C 0.49826 0.31122 0.28814
 C497 C 0.49773 0.32614 0.26139
 C498 C 0.50090 0.35802 0.26482
 N499 N 0.49351 0.35608 0.21116
 N500 N 0.49214 0.36998 0.18684
 C501 C 0.49815 0.38643 0.21509
 N502 N 0.50562 0.38839 0.26861
 N503 N 0.50694 0.37448 0.29297
 C504 C 0.49636 0.40183 0.18863
 C505 C 0.50440 0.41945 0.21545
 C506 C 0.50246 0.43390 0.19128
 C507 C 0.49235 0.43103 0.13993
 C508 C 0.48438 0.41350 0.11279
 C509 C 0.48641 0.39905 0.13681
 H510 H 0.51032 0.35573 0.37645
 H511 H 0.51085 0.32960 0.42328
 H512 H 0.49501 0.29895 0.26280
 H513 H 0.49393 0.32489 0.21623
 H514 H 0.51221 0.42212 0.25525
 H515 H 0.50880 0.44729 0.21307
 H516 H 0.47657 0.41093 0.07302
 H517 H 0.48003 0.38566 0.11501
 C518 C 0.65872 0.15728 0.29571
 C519 C 0.65680 0.16254 0.35182
 C520 C 0.67163 0.17806 0.37847
 C521 C 0.68875 0.18877 0.34962
 C522 C 0.69066 0.18359 0.29340
 C523 C 0.67583 0.16801 0.26677
 C524 C 0.64302 0.14062 0.26794
 N525 N 0.64528 0.13439 0.21601
 N526 N 0.63121 0.11928 0.19154
 C527 C 0.61427 0.10977 0.21789
 N528 N 0.61201 0.11605 0.26970
 N529 N 0.62608 0.13113 0.29420
 C530 C 0.59864 0.09281 0.19113
 C531 C 0.58080 0.08384 0.21675
 C532 C 0.56612 0.06771 0.19217
 C533 C 0.56894 0.06013 0.14156
 C534 C 0.58670 0.06910 0.11564
 C535 C 0.60139 0.08529 0.14011
 H536 H 0.64387 0.15456 0.37555
 H537 H 0.66979 0.18146 0.42216
 H538 H 0.70358 0.19168 0.26972
 H539 H 0.67778 0.16442 0.22343
 H540 H 0.57814 0.08926 0.25593
 H541 H 0.55256 0.06112 0.21301
 H542 H 0.58925 0.06358 0.07648
 H543 H 0.61494 0.09183 0.11921
 C544 C 0.49651 0.15693 -0.29317
 C545 C 0.50686 0.16440 -0.34391
 C546 C 0.50751 0.17987 -0.37074
 C547 C 0.49779 0.18848 -0.34779
 C548 C 0.48751 0.18089 -0.29640
 C549 C 0.48692 0.16541 -0.26963
 C550 C 0.49560 0.14027 -0.26548
 N551 N 0.48517 0.13260 -0.21730
 N552 N 0.48418 0.11749 -0.19302
 C553 C 0.49357 0.10940 -0.21588
 N554 N 0.50404 0.11711 -0.26395
 N555 N 0.50503 0.13220 -0.28821
 C556 C 0.49229 0.09241 -0.18946
 C557 C 0.50205 0.08413 -0.21353
 C558 C 0.50064 0.06796 -0.18933
 C559 C 0.48944 0.05970 -0.14054
 C560 C 0.47977 0.06800 -0.11611
 C561 C 0.48118 0.08418 -0.14031
 H562 H 0.51432 0.15814 -0.36360
 H563 H 0.51503 0.18438 -0.41108
 H564 H 0.48036 0.18717 -0.27509
 H565 H 0.47894 0.16014 -0.23022
 H566 H 0.51076 0.09008 -0.25129
 H567 H 0.50830 0.06191 -0.20898
 H568 H 0.47107 0.06195 -0.07838
 H569 H 0.47349 0.09018 -0.12058
 C570 C 0.66025 0.50381 -0.29317
 C571 C 0.67807 0.51248 -0.26769
 C572 C 0.69300 0.51201 -0.29450
 C573 C 0.69064 0.50283 -0.34795
 C574 C 0.67255 0.49398 -0.37281
 C575 C 0.65766 0.49448 -0.34588
 C576 C 0.64449 0.50467 -0.26545
 N577 N 0.62714 0.49582 -0.28943
 N578 N 0.61303 0.49680 -0.26514
 C579 C 0.61565 0.50668 -0.21581
 N580 N 0.63299 0.51550 -0.19171
 N581 N 0.64711 0.51451 -0.21599
 C582 C 0.59995 0.50795 -0.18939
 C583 C 0.60274 0.51878 -0.13959
 C584 C 0.58794 0.52015 -0.11540
 C585 C 0.57005 0.51071 -0.14046
 C586 C 0.56720 0.49980 -0.18991
 C587 C 0.58197 0.49844 -0.21413
 H588 H 0.68053 0.51962 -0.22671
 H589 H 0.70620 0.51839 -0.27170
 H590 H 0.66981 0.48732 -0.41459
 H591 H 0.64415 0.48775 -0.36705
 H592 H 0.61639 0.52629 -0.11938
 H593 H 0.59051 0.52863 -0.07716
 H594 H 0.55354 0.49233 -0.21009
 H595 H 0.57928 0.48995 -0.25238
 C596 C 0.83874 0.34289 -0.29035
 C597 C 0.82876 0.32544 -0.26300
 C598 C 0.81332 0.31054 -0.28977
 C599 C 0.80730 0.31255 -0.34511
 C600 C 0.81727 0.33031 -0.37170
 C601 C 0.83270 0.34518 -0.34476
 C602 C 0.85557 0.35848 -0.26284
 N603 N 0.86481 0.37560 -0.28819
 N604 N 0.88017 0.38947 -0.26423
 C605 C 0.88698 0.38684 -0.21391
 N606 N 0.87771 0.36974 -0.18843
 N607 N 0.86233 0.35587 -0.21237
 C608 C 0.90434 0.40219 -0.18797
 C609 C 0.91213 0.39909 -0.13805
 C610 C 0.92873 0.41347 -0.11448
 C611 C 0.93787 0.43124 -0.14024
 C612 C 0.93002 0.43443 -0.18970
 C613 C 0.91346 0.42006 -0.21336
 H614 H 0.83286 0.32323 -0.22065
 H615 H 0.80588 0.29766 -0.26565
 H616 H 0.81394 0.33275 -0.41478
 H617 H 0.84013 0.35841 -0.36732
 H618 H 0.90549 0.38552 -0.11733
 H619 H 0.93443 0.41065 -0.07617
 H620 H 0.93673 0.44801 -0.21037
 H621 H 0.90785 0.42297 -0.25171
 C622 C 0.50323 -0.15642 -0.29620
 C623 C 0.50980 -0.16700 -0.26724
 C624 C 0.50918 -0.18251 -0.29379
 C625 C 0.50202 -0.18778 -0.34996
 C626 C 0.49545 -0.17721 -0.37885
 C627 C 0.49600 -0.16175 -0.35228
 C628 C 0.50401 -0.13985 -0.26843
 N629 N 0.49634 -0.13053 -0.29466
 N630 N 0.49717 -0.11555 -0.27013
 C631 C 0.50572 -0.10920 -0.21832
 N632 N 0.51337 -0.11853 -0.19202
 N633 N 0.51252 -0.13354 -0.21652
 C634 C 0.50682 -0.09236 -0.19150
 C635 C 0.51712 -0.08475 -0.14051
 C636 C 0.51840 -0.06867 -0.11595
 C637 C 0.50936 -0.05991 -0.14173
 C638 C 0.49893 -0.06759 -0.19230
 C639 C 0.49771 -0.08361 -0.21699
 H640 H 0.51538 -0.16334 -0.22393
 H641 H 0.51413 -0.19050 -0.27009
 H642 H 0.49015 -0.18069 -0.42251
 H643 H 0.49092 -0.15388 -0.37602
 H644 H 0.52432 -0.09112 -0.11971
 H645 H 0.52649 -0.06308 -0.07682
 H646 H 0.49178 -0.06116 -0.21304
 H647 H 0.48961 -0.08910 -0.25613
 C648 C 0.33999 0.49674 -0.29490
 C649 C 0.34099 0.50184 -0.35321
 C650 C 0.32596 0.50219 -0.37981
 C651 C 0.30958 0.49755 -0.34869
 C652 C 0.30866 0.49267 -0.29020
 C653 C 0.32366 0.49222 -0.26365
 C654 C 0.35578 0.49592 -0.26723
 N655 N 0.35401 0.48859 -0.21357
 N656 N 0.36813 0.48759 -0.18922
 C657 C 0.38464 0.49391 -0.21744
 N658 N 0.38642 0.50130 -0.27098
 N659 N 0.37230 0.50226 -0.29537
 C660 C 0.40032 0.49264 -0.19081
 C661 C 0.41798 0.50109 -0.21752
 C662 C 0.43274 0.49974 -0.19304
 C663 C 0.43017 0.48982 -0.14148
 C664 C 0.41258 0.48141 -0.11453
 C665 C 0.39781 0.48285 -0.13886
 H666 H 0.35330 0.50531 -0.37870
 H667 H 0.32701 0.50569 -0.42516
 H668 H 0.29636 0.48928 -0.26479
 H669 H 0.32246 0.48835 -0.21859
 H670 H 0.42045 0.50880 -0.25743
 H671 H 0.44616 0.50640 -0.21472
 H672 H 0.41023 0.47372 -0.07462
 H673 H 0.38440 0.47615 -0.11716
 C674 C 1.15952 0.65729 -0.29267
 C675 C 1.16882 0.67508 -0.26718
 C676 C 1.18434 0.68991 -0.29388
 C677 C 1.19114 0.68746 -0.34723
 C678 C 1.18180 0.66938 -0.37200
 C679 C 1.16628 0.65460 -0.34518
 C680 C 1.14270 0.64170 -0.26517
 N681 N 1.13388 0.62439 -0.28933
 N682 N 1.11857 0.61049 -0.26528
 C683 C 1.11140 0.61328 -0.21605
 N684 N 1.12025 0.63058 -0.19178
 N685 N 1.13557 0.64449 -0.21581
 C686 C 1.09414 0.59787 -0.18990
 C687 C 1.08630 0.60097 -0.14020
 C688 C 1.06985 0.58651 -0.11627
 C689 C 1.06090 0.56865 -0.14146
 C690 C 1.06877 0.56547 -0.19077
 C691 C 1.08520 0.57992 -0.21477
 H692 H 1.16414 0.67762 -0.22633
 H693 H 1.19125 0.70309 -0.27110
 H694 H 1.18573 0.66658 -0.41367
 H695 H 1.15939 0.64109 -0.36632
 H696 H 1.09280 0.61460 -0.11987
 H697 H 1.06411 0.58933 -0.07811
 H698 H 1.06220 0.55182 -0.21101
 H699 H 1.09085 0.57700 -0.25295
 C700 C 0.84494 0.50783 -0.29165
 C701 C 0.84495 0.52452 -0.30313
 C702 C 0.82972 0.52422 -0.33064
 C703 C 0.81382 0.50715 -0.34677
 C704 C 0.81385 0.49041 -0.33404
 C705 C 0.82924 0.49079 -0.30738
 C706 C 0.86132 0.50822 -0.26401
 N707 N 0.86379 0.49315 -0.26699
 N708 N 0.87870 0.49361 -0.24299
 C709 C 0.89170 0.50912 -0.21469
 N710 N 0.88917 0.52414 -0.21144
 N711 N 0.87433 0.52372 -0.23575
 C712 C 0.90838 0.50973 -0.18856
 C713 C 0.91911 0.52340 -0.14721
 C714 C 0.93497 0.52410 -0.12298
 C715 C 0.94057 0.51134 -0.14023
 C716 C 0.92988 0.49767 -0.18149
 C717 C 0.91386 0.49679 -0.20514
 H718 H 0.85682 0.53790 -0.29130
 H719 H 0.83030 0.53748 -0.33715
 H720 H 0.80242 0.47692 -0.34694
 H721 H 0.82882 0.47766 -0.29919
 H722 H 0.91519 0.53350 -0.13332
 H723 H 0.94297 0.53478 -0.09120
 H724 H 0.93386 0.48761 -0.19536
 H725 H 0.90593 0.48613 -0.23701
 C726 C 0.49295 0.33864 -0.29905
 C727 C 0.49839 0.32756 -0.26787
 C728 C 0.49863 0.31244 -0.29409
 C729 C 0.49306 0.30768 -0.35216
 C730 C 0.48737 0.31880 -0.38282
 C731 C 0.48749 0.33412 -0.35679
 C732 C 0.49298 0.35484 -0.27163
 N733 N 0.49332 0.36867 -0.30431
 N734 N 0.49329 0.38324 -0.27974
 C735 C 0.49278 0.38451 -0.22146
 N736 N 0.49241 0.37067 -0.18875
 N737 N 0.49258 0.35617 -0.21332
 C738 C 0.49237 0.40052 -0.19429
 C739 C 0.48585 0.39918 -0.13755
 C740 C 0.48488 0.41409 -0.11258
 C741 C 0.49070 0.43072 -0.14352
 C742 C 0.49756 0.43223 -0.19979
 C743 C 0.49824 0.41722 -0.22513
 H744 H 0.50262 0.33067 -0.22315
 H745 H 0.50253 0.30412 -0.26769
 H746 H 0.48359 0.31634 -0.42795
 H747 H 0.48324 0.34242 -0.38203
 H748 H 0.48118 0.38649 -0.11275
 H749 H 0.47961 0.41260 -0.06900
 H750 H 0.50214 0.44492 -0.22456
 H751 H 0.50344 0.41871 -0.26880
 C752 C 0.65915 0.15711 -0.29246
 C753 C 0.65613 0.17028 -0.32186
 C754 C 0.67099 0.18574 -0.34867
 C755 C 0.68913 0.18825 -0.34713
 C756 C 0.69218 0.17514 -0.31763
 C757 C 0.67737 0.15979 -0.29033
 C758 C 0.64337 0.14054 -0.26482
 N759 N 0.64658 0.12949 -0.22869
 N760 N 0.63240 0.11445 -0.20446
 C761 C 0.61440 0.10977 -0.21549
 N762 N 0.61118 0.12083 -0.25158
 N763 N 0.62537 0.13592 -0.27564
 C764 C 0.59865 0.09283 -0.18931
 C765 C 0.58020 0.08597 -0.20888
 C766 C 0.56542 0.06973 -0.18505
 C767 C 0.56877 0.06013 -0.14085
 C768 C 0.58713 0.06709 -0.12074
 C769 C 0.60193 0.08322 -0.14489
 H770 H 0.64228 0.16866 -0.32423
 H771 H 0.66824 0.19556 -0.37158
 H772 H 0.70606 0.17685 -0.31538
 H773 H 0.68018 0.14991 -0.26812
 H774 H 0.57719 0.09301 -0.24309
 H775 H 0.55138 0.06470 -0.20120
 H776 H 0.59010 0.05998 -0.08662
 H777 H 0.61595 0.08817 -0.12862
 C778 C 1.15394 0.49193 -0.29575
 C779 C 1.16757 0.50809 -0.32410
 C780 C 1.18290 0.50833 -0.35056
 C781 C 1.18483 0.49235 -0.34974
 C782 C 1.17124 0.47621 -0.32137
 C783 C 1.15601 0.47602 -0.29440
 C784 C 1.13755 0.49158 -0.26829
 N785 N 1.12610 0.47732 -0.23277
 N786 N 1.11126 0.47690 -0.20855
 C787 C 1.10719 0.49068 -0.21900
 N788 N 1.11864 0.50494 -0.25451
 N789 N 1.13353 0.50540 -0.27856
 C790 C 1.09052 0.49004 -0.19266
 C791 C 1.08421 0.50211 -0.21180
 C792 C 1.06826 0.50122 -0.18767
 C793 C 1.05840 0.48835 -0.14359
 C794 C 1.06479 0.47643 -0.12397
 C795 C 1.08063 0.47720 -0.14843
 H796 H 1.16642 0.52059 -0.32586
 H797 H 1.19309 0.52090 -0.37263
 H798 H 1.17249 0.46376 -0.31972
 H799 H 1.14576 0.46334 -0.27300
 H800 H 1.09148 0.51214 -0.24585
 H801 H 1.06367 0.51062 -0.20345
 H802 H 1.05747 0.46639 -0.08997
 H803 H 1.08515 0.46776 -0.13249
 C804 C 0.50754 0.66194 -0.29857
 C805 C 0.51280 0.66631 -0.35648
 C806 C 0.51281 0.68156 -0.38272
 C807 C 0.50722 0.69275 -0.35209
 C808 C 0.50189 0.68816 -0.29382
 C809 C 0.50223 0.67310 -0.26740
 C810 C 0.50755 0.64576 -0.27101
 N811 N 0.50803 0.64448 -0.21270
 N812 N 0.50818 0.62998 -0.18803
 C813 C 0.50771 0.61608 -0.22065
 N814 N 0.50714 0.61732 -0.27894
 N815 N 0.50712 0.63188 -0.30360
 C816 C 0.50806 0.60004 -0.19340
 C817 C 0.50215 0.58335 -0.22428
 C818 C 0.50275 0.56829 -0.19889
 C819 C 0.50956 0.56974 -0.14252
 C820 C 0.51541 0.58638 -0.11153
 C821 C 0.51453 0.60133 -0.13657
 H822 H 0.51694 0.65795 -0.38171
 H823 H 0.51641 0.68389 -0.42798
 H824 H 0.49809 0.69654 -0.26745
 H825 H 0.49817 0.67011 -0.22255
 H826 H 0.49699 0.58189 -0.26802
 H827 H 0.49815 0.55561 -0.22370
 H828 H 0.52064 0.58782 -0.06787
 H829 H 0.51922 0.61402 -0.11174
 C830 C 0.33921 -0.15717 -0.29285
 C831 C 0.34099 -0.17266 -0.30800
 C832 C 0.32621 -0.18826 -0.33457
 C833 C 0.30925 -0.18873 -0.34781
 C834 C 0.30764 -0.17303 -0.33228
 C835 C 0.32232 -0.15760 -0.30485
 C836 C 0.35493 -0.14057 -0.26521
 N837 N 0.35197 -0.12783 -0.23724
 N838 N 0.36614 -0.11279 -0.21288
 C839 C 0.38387 -0.10981 -0.21579
 N840 N 0.38684 -0.12255 -0.24381
 N841 N 0.37265 -0.13765 -0.26786
 C842 C 0.39964 -0.09293 -0.18950
 C843 C 0.41820 -0.08696 -0.20583
 C844 C 0.43304 -0.07076 -0.18197
 C845 C 0.42962 -0.06038 -0.14074
 C846 C 0.41112 -0.06647 -0.12378
 C847 C 0.39627 -0.08250 -0.14822
 H848 H 0.35385 -0.17274 -0.29940
 H849 H 0.32860 -0.19953 -0.34699
 H850 H 0.29479 -0.17278 -0.33919
 H851 H 0.32048 -0.14590 -0.29346
 H852 H 0.42126 -0.09466 -0.23765
 H853 H 0.44719 -0.06641 -0.19562
 H854 H 0.40810 -0.05872 -0.09203
 H855 H 0.38214 -0.08679 -0.13452
 C856 C 0.50342 -0.15689 0.29139
 C857 C 0.51900 -0.15949 0.28925
 C858 C 0.51857 -0.17478 0.31672
 C859 C 0.50247 -0.18789 0.34639
 C860 C 0.48679 -0.18547 0.34789
 C861 C 0.48729 -0.17008 0.32092
 C862 C 0.50409 -0.14038 0.26371
 N863 N 0.49065 -0.13586 0.27454
 N864 N 0.49146 -0.12080 0.25053
 C865 C 0.50571 -0.10967 0.21449
 N866 N 0.51909 -0.11425 0.20344
 N867 N 0.51832 -0.12926 0.22762
 C868 C 0.50679 -0.09276 0.18847
 C869 C 0.51966 -0.08303 0.14415
 C870 C 0.52088 -0.06692 0.12019
 C871 C 0.50939 -0.06010 0.14042
 C872 C 0.49647 -0.06981 0.18452
 C873 C 0.49513 -0.08602 0.20814
 H874 H 0.53165 -0.14959 0.26693
 H875 H 0.53078 -0.17642 0.31449
 H876 H 0.47427 -0.19529 0.37095
 H877 H 0.47502 -0.16852 0.32330
 H878 H 0.52879 -0.08788 0.12781
 H879 H 0.53094 -0.05972 0.08615
 H880 H 0.48739 -0.06489 0.20075
 H881 H 0.48508 -0.09315 0.24228
 C882 C 0.33648 0.48869 0.29811
 C883 C 0.32280 0.48967 0.26444
 C884 C 0.30759 0.48978 0.29058
 C885 C 0.30562 0.48865 0.35081
 C886 C 0.31918 0.48751 0.38445
 C887 C 0.33450 0.48764 0.35842
 C888 C 0.35274 0.48881 0.27064
 N889 N 0.36793 0.49210 0.30244
 N890 N 0.38257 0.49220 0.27788
 C891 C 0.38260 0.48893 0.22051
 N892 N 0.36740 0.48561 0.18869
 N893 N 0.35280 0.48561 0.21322
 C894 C 0.39880 0.48880 0.19344
 C895 C 0.39721 0.48112 0.13823
 C896 C 0.41238 0.48061 0.11335
 C897 C 0.42949 0.48797 0.14289
 C898 C 0.43120 0.49590 0.19765
 C899 C 0.41597 0.49621 0.22284
 H900 H 0.32394 0.49053 0.21790
 H901 H 0.29725 0.49057 0.26372
 H902 H 0.31808 0.48683 0.43104
 H903 H 0.34476 0.48682 0.38559
 H904 H 0.38417 0.47526 0.11449
 H905 H 0.41072 0.47448 0.07094
 H906 H 0.44424 0.50169 0.22134
 H907 H 0.41769 0.50232 0.26529
 C908 C 1.15731 0.65966 0.29405
 C909 C 1.15943 0.67766 0.29468
 C910 C 1.17479 0.69247 0.32201
 C911 C 1.18848 0.68965 0.34872
 C912 C 1.18651 0.67174 0.34754
 C913 C 1.17104 0.65688 0.32076
 C914 C 1.14078 0.64387 0.26626
 N915 N 1.13659 0.62592 0.27543
 N916 N 1.12156 0.61172 0.25113
 C917 C 1.11014 0.61486 0.21641
 N918 N 1.11439 0.63281 0.20704
 N919 N 1.12936 0.64701 0.23154
 C920 C 1.09330 0.59909 0.18985
 C921 C 1.08356 0.60237 0.14584
 C922 C 1.06753 0.58755 0.12128
 C923 C 1.06078 0.56916 0.14061
 C924 C 1.07050 0.56581 0.18442
 C925 C 1.08666 0.58061 0.20861
 H926 H 1.14910 0.68028 0.27460
 H927 H 1.17607 0.70619 0.32194
 H928 H 1.19678 0.66917 0.36830
 H929 H 1.16986 0.64320 0.32096
 H930 H 1.08834 0.61641 0.13018
 H931 H 1.06031 0.59053 0.08750
 H932 H 1.06563 0.55174 0.19996
 H933 H 1.09381 0.57760 0.24249
 C934 C 0.49509 0.15598 0.29391
 C935 C 0.51135 0.16932 0.32266
 C936 C 0.51190 0.18473 0.34952
 C937 C 0.49615 0.18705 0.34869
 C938 C 0.47992 0.17377 0.31987
 C939 C 0.47942 0.15845 0.29251
 C940 C 0.49440 0.13948 0.26617
 N941 N 0.48005 0.12827 0.23049
 N942 N 0.47930 0.11329 0.20613
 C943 C 0.49283 0.10885 0.21659
 N944 N 0.50718 0.12007 0.25224
 N945 N 0.50797 0.13509 0.27642
 C946 C 0.49180 0.09201 0.19028
 C947 C 0.50360 0.08537 0.20950
 C948 C 0.50233 0.06924 0.18554
 C949 C 0.48936 0.05952 0.14152
 C950 C 0.47772 0.06624 0.12175
 C951 C 0.47886 0.08227 0.14606
 H952 H 0.52368 0.16785 0.32447
 H953 H 0.52453 0.19468 0.37192
 H954 H 0.46764 0.17533 0.31818
 H955 H 0.46667 0.14844 0.27081
 H956 H 0.51370 0.09251 0.24354
 H957 H 0.51153 0.06440 0.20143
 H958 H 0.46761 0.05902 0.08779
 H959 H 0.46962 0.08704 0.13006
 C960 C 0.66251 0.50791 0.29404
 C961 C 0.66008 0.49150 0.32046
 C962 C 0.67516 0.49121 0.34698
 C963 C 0.69293 0.50736 0.34816
 C964 C 0.69539 0.52376 0.32176
 C965 C 0.68037 0.52400 0.29469
 C966 C 0.64647 0.50828 0.26655
 N967 N 0.64924 0.52278 0.23215
 N968 N 0.63481 0.52319 0.20788
 C969 C 0.61699 0.50918 0.21719
 N970 N 0.61422 0.49469 0.25160
 N971 N 0.62866 0.49423 0.27566
 C972 C 0.60093 0.50979 0.19086
 C973 C 0.58255 0.49755 0.20960
 C974 C 0.56744 0.49840 0.18553
 C975 C 0.57039 0.51138 0.14186
 C976 C 0.58870 0.52347 0.12259
 C977 C 0.60383 0.52275 0.14704
 H978 H 0.64653 0.47886 0.32065
 H979 H 0.67285 0.47844 0.36753
 H980 H 0.70899 0.53635 0.32173
 H981 H 0.68271 0.53688 0.27483
 H982 H 0.57982 0.48743 0.24334
 H983 H 0.55345 0.48887 0.20103
 H984 H 0.59137 0.53360 0.08892
 H985 H 0.61779 0.53232 0.13142
 C986 C 0.84487 0.33926 0.29992
 C987 C 0.83019 0.32555 0.26644
 C988 C 0.81476 0.31052 0.29281
 C989 C 0.81381 0.30878 0.35312
 C990 C 0.82851 0.32239 0.38658
 C991 C 0.84383 0.33752 0.36030
 C992 C 0.86117 0.35528 0.27215
 N993 N 0.87328 0.37044 0.30360
 N994 N 0.88799 0.38482 0.27877
 C995 C 0.89127 0.38462 0.22147
 N996 N 0.87917 0.36945 0.19000
 N997 N 0.86440 0.35511 0.21479
 C998 C 0.90782 0.40049 0.19411
 C999 C 0.91368 0.39859 0.13887
 C1000 C 0.92958 0.41341 0.11373
 C1001 C 0.93982 0.43049 0.14302
 C1002 C 0.93383 0.43253 0.19779
 C1003 C 0.91806 0.41764 0.22324
 H1004 H 0.83055 0.32649 0.21984
 H1005 H 0.80364 0.30014 0.26607
 H1006 H 0.82801 0.32146 0.43321
 H1007 H 0.85490 0.34781 0.38734
 H1008 H 0.90613 0.38557 0.11531
 H1009 H 0.93385 0.41150 0.07132
 H1010 H 0.94147 0.44556 0.22129
 H1011 H 0.91386 0.41960 0.26570
   
