data_POSCAR
  _audit_creation_date              2014-09-24
  _audit_creation_method            'ToBaCCo'
  _symmetry_space_group_name_H-M    'P1'
  _symmetry_Int_Tables_number       1
  _symmetry_cell_setting            triclinic
  loop_
  _symmetry_equiv_pos_as_xyz
 x,y,z
_cell_length_a 45.6136
_cell_length_b 26.7593
_cell_length_c 16.1485
_cell_angle_alpha 89.971900
_cell_angle_beta 89.832500
_cell_angle_gamma 90.226200
loop_
  _atom_site_label
  _atom_site_type_symbol
  _atom_site_fract_x
  _atom_site_fract_y
  _atom_site_fract_z
C1 C 0.74878 0.24652 0.46238
 C2 C 0.74879 0.24748 0.54684
 C3 C 0.72403 0.26873 0.59517
 C4 C 0.77372 0.22727 0.59516
 C5 C 0.77238 0.22117 0.41483
 C6 C 0.72544 0.27124 0.41348
 C7 C 0.72951 0.30586 0.65464
 C8 C 0.70642 0.32682 0.69967
 C9 C 0.67756 0.31058 0.68624
 C10 C 0.67201 0.27282 0.62808
 C11 C 0.69514 0.25182 0.58311
 C12 C 0.80241 0.24497 0.58205
 C13 C 0.82584 0.22408 0.62536
 C14 C 0.82077 0.18575 0.68274
 C15 C 0.79214 0.16893 0.69767
 C16 C 0.76869 0.18974 0.65434
 C17 C 0.77901 0.17061 0.42893
 C18 C 0.80223 0.14794 0.38674
 C19 C 0.81885 0.17540 0.32944
 C20 C 0.81183 0.22538 0.31350
 C21 C 0.78864 0.24809 0.35571
 C22 C 0.70966 0.24372 0.35438
 C23 C 0.68708 0.26619 0.30961
 C24 C 0.68024 0.31650 0.32298
 C25 C 0.69632 0.34447 0.38047
 C26 C 0.71893 0.32205 0.42521
 H27 H 0.75164 0.31916 0.66519
 H28 H 0.71114 0.35593 0.74444
 H29 H 0.64985 0.25965 0.61708
 H30 H 0.69053 0.22253 0.53872
 H31 H 0.80664 0.27452 0.53770
 H32 H 0.84790 0.23750 0.61362
 H33 H 0.74670 0.17585 0.66558
 H34 H 0.76640 0.14896 0.47324
 H35 H 0.80737 0.10918 0.39924
 H36 H 0.82448 0.24693 0.26911
 H37 H 0.78379 0.28701 0.34370
 H38 H 0.71449 0.20461 0.34409
 H39 H 0.67482 0.24424 0.26514
 H40 H 0.69129 0.38349 0.39101
 H41 H 0.73122 0.34417 0.46934
 H42 H 0.78798 0.13936 0.74209
 C43 C 0.24932 0.74612 0.45635
 C44 C 0.24929 0.74548 0.54082
 C45 C 0.22598 0.77058 0.58968
 C46 C 0.27282 0.72013 0.58829
 C47 C 0.27421 0.72563 0.40787
 C48 C 0.22462 0.76735 0.40812
 C49 C 0.21962 0.82139 0.57733
 C50 C 0.19692 0.84410 0.62162
 C51 C 0.18060 0.81643 0.67927
 C52 C 0.18733 0.76614 0.69336
 C53 C 0.21000 0.74337 0.64905
 C54 C 0.28918 0.74715 0.64675
 C55 C 0.31240 0.72447 0.68855
 C56 C 0.31934 0.67443 0.67286
 C57 C 0.30260 0.64686 0.61631
 C58 C 0.27935 0.66949 0.57453
 C59 C 0.26912 0.68801 0.34903
 C60 C 0.29252 0.66708 0.30531
 C61 C 0.32117 0.68388 0.31950
 C62 C 0.32631 0.72226 0.37660
 C63 C 0.30293 0.74326 0.42030
 C64 C 0.19569 0.75065 0.42071
 C65 C 0.17265 0.77161 0.37570
 C66 C 0.17833 0.80904 0.31710
 C67 C 0.20717 0.82510 0.30313
 C68 C 0.23020 0.80423 0.34813
 H69 H 0.23207 0.84326 0.53297
 H70 H 0.19199 0.88310 0.61053
 H71 H 0.17488 0.74443 0.73797
 H72 H 0.21471 0.70427 0.65979
 H73 H 0.28440 0.78613 0.65848
 H74 H 0.32514 0.74610 0.73237
 H75 H 0.26667 0.64777 0.53073
 H76 H 0.24711 0.67417 0.33832
 H77 H 0.28831 0.63748 0.26112
 H78 H 0.34839 0.73566 0.38775
 H79 H 0.30721 0.77288 0.46436
 H80 H 0.19098 0.72155 0.46551
 H81 H 0.15042 0.75878 0.38681
 H82 H 0.21182 0.85400 0.25790
 H83 H 0.25236 0.81740 0.33715
 H84 H 0.30767 0.60805 0.60401
 C85 C 0.24901 0.25351 -0.45936
 C86 C 0.24896 0.25423 -0.54383
 C87 C 0.27263 0.27957 -0.59165
 C88 C 0.22551 0.22924 -0.59234
 C89 C 0.22422 0.23228 -0.41070
 C90 C 0.27401 0.27393 -0.41126
 C91 C 0.27943 0.33018 -0.57790
 C92 C 0.30281 0.35281 -0.61996
 C93 C 0.31943 0.32525 -0.67687
 C94 C 0.31219 0.27520 -0.69256
 C95 C 0.28884 0.25256 -0.65043
 C96 C 0.20969 0.25654 -0.65139
 C97 C 0.18689 0.23390 -0.69542
 C98 C 0.17985 0.18359 -0.68136
 C99 C 0.19603 0.15583 -0.62396
 C100 C 0.21885 0.17845 -0.57999
 C101 C 0.22964 0.19541 -0.35081
 C102 C 0.20654 0.17466 -0.30516
 C103 C 0.17776 0.19083 -0.31838
 C104 C 0.17225 0.22826 -0.37701
 C105 C 0.19538 0.24908 -0.42264
 C106 C 0.30264 0.25629 -0.42418
 C107 C 0.32611 0.27712 -0.38058
 C108 C 0.32114 0.31533 -0.32310
 C109 C 0.29257 0.33218 -0.30850
 C110 C 0.26909 0.31143 -0.35211
 H111 H 0.26686 0.35188 -0.53384
 H112 H 0.30803 0.39163 -0.60750
 H113 H 0.32478 0.25345 -0.73661
 H114 H 0.28385 0.21360 -0.66216
 H115 H 0.21463 0.29564 -0.66212
 H116 H 0.17461 0.25581 -0.73979
 H117 H 0.23118 0.15652 -0.53587
 H118 H 0.25174 0.18220 -0.34034
 H119 H 0.21116 0.14579 -0.25999
 H120 H 0.15011 0.24128 -0.38772
 H121 H 0.19080 0.27818 -0.46735
 H122 H 0.30678 0.22676 -0.46847
 H123 H 0.34813 0.26368 -0.39206
 H124 H 0.28849 0.36165 -0.26401
 H125 H 0.24715 0.32527 -0.34100
 H126 H 0.19094 0.11680 -0.61273
 C127 C -0.25107 0.75400 -0.46141
 C128 C -0.25089 0.75335 -0.54588
 C129 C -0.22585 0.77401 -0.59402
 C130 C -0.27557 0.73199 -0.59441
 C131 C -0.27454 0.72886 -0.41274
 C132 C -0.22754 0.77942 -0.41362
 C133 C -0.23074 0.81167 -0.65286
 C134 C -0.20721 0.83286 -0.69613
 C135 C -0.17859 0.81628 -0.68147
 C136 C -0.17367 0.77781 -0.62434
 C137 C -0.19721 0.75657 -0.58114
 C138 C -0.30448 0.74852 -0.58218
 C139 C -0.32751 0.72743 -0.62739
 C140 C -0.32186 0.68998 -0.68591
 C141 C -0.29301 0.67412 -0.69952
 C142 C -0.27000 0.69515 -0.65427
 C143 C -0.28107 0.67803 -0.42492
 C144 C -0.30377 0.65520 -0.38035
 C145 C -0.31995 0.68280 -0.32251
 C146 C -0.31307 0.73318 -0.30873
 C147 C -0.29039 0.75602 -0.35336
 C148 C -0.21144 0.75245 -0.35475
 C149 C -0.18832 0.77525 -0.31227
 C150 C -0.18122 0.82536 -0.32770
 C151 C -0.19768 0.85285 -0.38475
 C152 C -0.22083 0.83010 -0.42720
 H153 H -0.25270 0.82535 -0.66391
 H154 H -0.21134 0.86250 -0.74030
 H155 H -0.15166 0.76445 -0.61267
 H156 H -0.19309 0.72692 -0.53706
 H157 H -0.30917 0.77759 -0.53748
 H158 H -0.34970 0.74022 -0.61639
 H159 H -0.24785 0.68213 -0.66498
 H160 H -0.26871 0.65620 -0.46928
 H161 H -0.30876 0.61613 -0.39138
 H162 H -0.32535 0.75497 -0.26404
 H163 H -0.28554 0.79515 -0.34273
 H164 H -0.21636 0.71343 -0.34313
 H165 H -0.17579 0.75367 -0.26809
 H166 H -0.19247 0.89171 -0.39687
 H167 H -0.23332 0.85178 -0.47131
 H168 H -0.28829 0.64524 -0.74462
 O169 O -0.04078 0.91154 0.14829
 O170 O -0.07292 0.95789 0.07075
 C171 C -0.06699 0.92493 0.12695
 O172 O 0.04194 1.08943 0.14882
 O173 O 0.07413 1.04302 0.07103
 C174 C 0.06818 1.07655 0.12631
 O175 O -0.04059 1.08455 0.15657
 O176 O -0.07281 1.04071 0.07477
 C177 C -0.06685 1.07170 0.13398
 O178 O 0.04124 0.90667 0.14029
 O179 O 0.07366 0.95613 0.06796
 C180 C 0.06753 0.92055 0.11973
 Zr181 Zr 0.00042 0.93563 0.10154
 O182 O 0.00318 0.93058 0.23208
 O183 O -0.00113 0.85710 0.08832
 Zr184 Zr 0.00067 1.06212 0.10821
 O185 O 0.00391 1.05992 0.23892
 O186 O -0.00251 1.14102 0.11105
 O187 O -0.02553 0.99853 0.12137
 O188 O 0.02597 0.99864 0.11990
 O189 O 0.04172 0.91180 -0.14729
 O190 O 0.07406 0.95908 -0.07104
 C191 C 0.06801 0.92511 -0.12558
 O192 O -0.04048 1.09011 -0.14645
 O193 O -0.07278 1.04345 -0.06870
 C194 C -0.06674 1.07656 -0.12478
 O195 O 0.04162 1.09486 -0.14036
 O196 O 0.07387 1.04584 -0.06796
 C197 C 0.06786 1.08122 -0.11995
 O198 O -0.04076 0.91663 -0.15489
 O199 O -0.07290 0.96056 -0.07300
 C200 C -0.06700 0.92948 -0.13215
 Zr201 Zr 0.00052 0.93945 -0.10721
 O202 O 0.00384 0.94187 -0.23795
 O203 O -0.00236 0.86052 -0.11013
 Zr204 Zr 0.00064 1.06584 -0.10100
 O205 O 0.00384 1.06826 -0.23177
 O206 O -0.00253 1.14470 -0.09591
 Zr207 Zr -0.04300 1.00071 0.00073
 Zr208 Zr 0.04429 1.00097 0.00018
 O209 O 0.02605 1.00298 -0.11939
 O210 O -0.02552 1.00287 -0.12023
 O211 O 0.02670 0.92807 -0.00333
 O212 O -0.02481 1.07305 0.00425
 O213 O -0.02514 0.92841 -0.00304
 O214 O 0.02687 1.07384 0.00385
 H215 H 0.03910 0.99772 0.16864
 H216 H -0.03809 1.10224 0.00580
 H217 H 0.03927 1.00378 -0.16816
 H218 H -0.03854 0.89918 -0.00436
 H219 H 0.01425 1.15466 0.07914
 H220 H 0.01412 1.15712 -0.06254
 H221 H -0.01238 1.04778 -0.25427
 H222 H -0.01250 0.96256 -0.25855
 H223 H 0.01163 0.84764 -0.06862
 H224 H -0.00139 0.84327 0.14525
 H225 H -0.01126 0.95423 0.25533
 H226 H -0.01246 1.03907 0.25979
 O227 O 0.45944 0.41524 0.15445
 O228 O 0.42747 0.45911 0.07251
 C229 C 0.43324 0.42803 0.13166
 O230 O 0.54213 0.59308 0.13904
 O231 O 0.57441 0.54403 0.06623
 C232 C 0.56839 0.57939 0.11829
 O233 O 0.45982 0.58850 0.14625
 O234 O 0.42762 0.54200 0.06849
 C235 C 0.43360 0.57498 0.12469
 O236 O 0.54191 0.41073 0.14725
 O237 O 0.57428 0.45749 0.06987
 C238 C 0.56820 0.42383 0.12501
 Zr239 Zr 0.50079 0.43793 0.10638
 O240 O 0.50389 0.43985 0.23712
 O241 O 0.49736 0.35901 0.10884
 Zr242 Zr 0.50100 0.56440 0.10041
 O243 O 0.50407 0.56694 0.23113
 O244 O 0.49785 0.64327 0.09531
 O245 O 0.47478 0.50139 0.11960
 O246 O 0.52629 0.50147 0.11856
 O247 O 0.54220 0.40598 -0.14136
 O248 O 0.57445 0.45520 -0.06845
 C249 C 0.56845 0.41980 -0.12052
 O250 O 0.46007 0.58346 -0.15699
 O251 O 0.42777 0.53942 -0.07516
 C252 C 0.43378 0.57055 -0.13427
 O253 O 0.54253 0.58835 -0.14956
 O254 O 0.57458 0.54174 -0.07211
 C255 C 0.56873 0.57538 -0.12726
 O256 O 0.45992 0.41023 -0.14891
 O257 O 0.42766 0.45654 -0.07118
 C258 C 0.43368 0.42363 -0.12743
 Zr259 Zr 0.50106 0.43446 -0.10286
 O260 O 0.50445 0.43187 -0.23356
 O261 O 0.49764 0.35559 -0.09768
 Zr262 Zr 0.50123 0.56093 -0.10884
 O263 O 0.50465 0.55897 -0.23957
 O264 O 0.49805 0.63983 -0.11141
 Zr265 Zr 0.45747 0.49933 -0.00129
 Zr266 Zr 0.54464 0.49954 -0.00116
 O267 O 0.52658 0.49752 -0.12094
 O268 O 0.47507 0.49735 -0.12213
 O269 O 0.52709 0.42652 0.00224
 O270 O 0.47565 0.57170 -0.00467
 O271 O 0.47542 0.42704 0.00213
 O272 O 0.52732 0.57248 -0.00462
 H273 H 0.53945 0.50229 0.16725
 H274 H 0.46235 0.60088 -0.00608
 H275 H 0.53986 0.49676 -0.16958
 H276 H 0.46203 0.39781 0.00350
 H277 H 0.51470 0.65574 0.06249
 H278 H 0.51470 0.65341 -0.07929
 H279 H 0.48845 0.53781 -0.26035
 H280 H 0.48851 0.45269 -0.25630
 H281 H 0.51440 0.34319 -0.06491
 H282 H 0.51408 0.34552 0.07690
 H283 H 0.48776 0.46105 0.25785
 H284 H 0.48796 0.54617 0.25380
 C285 C 0.34283 0.34675 0.28406
 C286 C 0.36365 0.36550 0.24968
 C287 C 0.38807 0.38725 0.20929
 C288 C 0.40881 0.40581 0.17430
 C289 C -0.15560 0.83812 0.27839
 C290 C -0.13527 0.85782 0.24332
 C291 C -0.11149 0.88116 0.20266
 C292 C -0.09118 0.90118 0.16808
 C293 C 0.65565 0.66839 0.27157
 C294 C 0.63579 0.64872 0.23457
 C295 C 0.61249 0.62509 0.19238
 C296 C 0.59246 0.60445 0.15766
 C297 C 0.15705 1.16194 0.27761
 C298 C 0.13673 1.14277 0.24196
 C299 C 0.11284 1.12016 0.20100
 C300 C 0.09241 1.10051 0.16660
 C301 C 0.65591 0.33123 -0.27319
 C302 C 0.63598 0.35079 -0.23637
 C303 C 0.61261 0.37431 -0.19437
 C304 C 0.59255 0.39485 -0.15978
 C305 C 0.15662 0.83939 -0.27715
 C306 C 0.13637 0.85863 -0.24140
 C307 C 0.11255 0.88134 -0.20035
 C308 C 0.09218 0.90106 -0.16590
 C309 C 0.34392 0.65169 -0.28615
 C310 C 0.36463 0.63296 -0.25199
 C311 C 0.38890 0.61123 -0.21177
 C312 C 0.40952 0.59271 -0.17688
 C313 C -0.15504 1.16295 -0.27493
 C314 C -0.13478 1.14341 -0.24004
 C315 C -0.11109 1.12022 -0.19968
 C316 C -0.09084 1.10028 -0.16543
 C317 C 0.65740 0.66095 -0.28073
 C318 C 0.63720 0.64166 -0.24439
 C319 C 0.61340 0.61897 -0.20268
 C320 C 0.59301 0.59931 -0.16781
 C321 C 0.15521 1.16956 -0.27532
 C322 C 0.13531 1.15015 -0.23780
 C323 C 0.11198 1.12674 -0.19499
 C324 C 0.09194 1.10622 -0.15979
 C325 C 0.34536 0.33791 -0.28015
 C326 C 0.36562 0.35726 -0.24464
 C327 C 0.38931 0.38025 -0.20352
 C328 C 0.40956 0.40004 -0.16867
 C329 C -0.15676 0.84822 -0.28590
 C330 C -0.13614 0.86703 -0.25107
 C331 C -0.11193 0.88880 -0.21019
 C332 C -0.09132 0.90733 -0.17490
 C333 C 0.34531 0.66107 0.27661
 C334 C 0.36553 0.64155 0.24124
 C335 C 0.38920 0.61842 0.20034
 C336 C 0.40945 0.59856 0.16570
 C337 C -0.15664 1.15263 0.28785
 C338 C -0.13598 1.13390 0.25314
 C339 C -0.11175 1.11222 0.21231
 C340 C -0.09114 1.09376 0.17696
 C341 C 0.65641 0.33919 0.27871
 C342 C 0.63629 0.35819 0.24234
 C343 C 0.61260 0.38059 0.20059
 C344 C 0.59232 0.40006 0.16566
 C345 C 0.15458 0.83170 0.27235
 C346 C 0.13475 0.85130 0.23555
 C347 C 0.11149 0.87489 0.19355
 C348 C 0.09152 0.89550 0.15896
   
