data_POSCAR
  _audit_creation_date              2014-09-24
  _audit_creation_method            'ToBaCCo'
  _symmetry_space_group_name_H-M    'P1'
  _symmetry_Int_Tables_number       1
  _symmetry_cell_setting            triclinic
  loop_
  _symmetry_equiv_pos_as_xyz
 x,y,z
_cell_length_a 69.5331
_cell_length_b 69.6498
_cell_length_c 27.3994
_cell_angle_alpha 89.993700
_cell_angle_beta 90.034500
_cell_angle_gamma 120.003900
loop_
  _atom_site_label
  _atom_site_type_symbol
  _atom_site_fract_x
  _atom_site_fract_y
  _atom_site_fract_z
C1 C 0.20867 0.49951 0.54375
 C2 C 0.19874 0.49932 0.49926
 C3 C 0.20866 0.49937 0.45488
 C4 C 0.22913 0.49960 0.45455
 C5 C 0.23940 0.49981 0.49953
 C6 C 0.22916 0.49978 0.54435
 C7 C 0.23967 0.50002 0.58846
 C8 C 0.25981 0.50026 0.58858
 C9 C 0.27025 0.50026 0.54461
 C10 C 0.25995 0.50004 0.49967
 C11 C 0.23959 0.49959 0.41058
 C12 C 0.25970 0.49978 0.41075
 C13 C 0.27014 0.49999 0.45485
 C14 C 0.29052 0.50013 0.45540
 C15 C 0.30051 0.50038 0.49976
 C16 C 0.29070 0.50045 0.54418
 H17 H 0.23237 0.50001 0.62337
 H18 H 0.26715 0.50043 0.62356
 H19 H 0.23227 0.49943 0.37558
 H20 H 0.26701 0.49975 0.37589
 H21 H 0.18300 0.49912 0.49917
 H22 H 0.31618 0.50045 0.49962
 C23 C 0.49973 -0.29096 0.45933
 C24 C 0.49975 -0.30050 0.50411
 C25 C 0.49970 -0.29042 0.54812
 C26 C 0.49965 -0.27013 0.54778
 C27 C 0.49966 -0.26025 0.50244
 C28 C 0.49972 -0.27069 0.45798
 C29 C 0.49973 -0.26063 0.41350
 C30 C 0.49964 -0.24068 0.41263
 C31 C 0.49952 -0.23007 0.45621
 C32 C 0.49955 -0.23992 0.50156
 C33 C 0.49957 -0.25949 0.59136
 C34 C 0.49945 -0.23957 0.59049
 C35 C 0.49942 -0.22949 0.54600
 C36 C 0.49924 -0.20926 0.54457
 C37 C 0.49923 -0.19976 0.49967
 C38 C 0.49937 -0.20987 0.45577
 H39 H 0.49980 -0.26814 0.37894
 H40 H 0.49964 -0.23362 0.37741
 H41 H 0.49958 -0.26652 0.62661
 H42 H 0.49937 -0.23210 0.62510
 H43 H 0.49973 -0.31612 0.50461
 H44 H 0.49910 -0.18423 0.49877
 C45 C 1.20920 0.71030 0.45595
 C46 C 1.19919 0.70052 0.50025
 C47 C 1.20910 0.71025 0.54476
 C48 C 1.22965 0.73038 0.54532
 C49 C 1.23998 0.74047 0.50045
 C50 C 1.22971 0.73038 0.45556
 C51 C 1.24021 0.74062 0.41153
 C52 C 1.26043 0.76041 0.41151
 C53 C 1.27094 0.77073 0.45555
 C54 C 1.26062 0.76067 0.50046
 C55 C 1.24014 0.74070 0.58937
 C56 C 1.26035 0.76049 0.58939
 C57 C 1.27089 0.77077 0.54537
 C58 C 1.29143 0.79090 0.54489
 C59 C 1.30141 0.80062 0.50048
 C60 C 1.29149 0.79085 0.45605
 H61 H 1.23285 0.73340 0.37661
 H62 H 1.26778 0.76758 0.37657
 H63 H 1.23278 0.73352 0.62430
 H64 H 1.26768 0.76770 0.62434
 H65 H 1.18342 0.68507 0.49999
 H66 H 1.31718 0.81609 0.50051
 C67 C 0.71043 0.50182 0.45492
 C68 C 0.70042 0.50216 0.49882
 C69 C 0.70993 0.50209 0.54373
 C70 C 0.73008 0.50169 0.54514
 C71 C 0.74039 0.50133 0.50071
 C72 C 0.73053 0.50139 0.45537
 C73 C 0.74101 0.50100 0.41179
 C74 C 0.76081 0.50054 0.41266
 C75 C 0.77085 0.50047 0.45714
 C76 C 0.76059 0.50089 0.50159
 C77 C 0.74018 0.50163 0.58963
 C78 C 0.75998 0.50122 0.59051
 C79 C 0.77047 0.50083 0.54693
 C80 C 0.79058 0.50036 0.54727
 C81 C 0.80048 0.49994 0.50325
 C82 C 0.79091 0.49997 0.45848
 H83 H 0.73396 0.50104 0.37657
 H84 H 0.76820 0.50025 0.37809
 H85 H 0.73282 0.50191 0.62425
 H86 H 0.76702 0.50119 0.62575
 H87 H 0.68495 0.50246 0.49793
 H88 H 0.81591 0.49955 0.50373
 C89 C 0.49778 0.20857 0.45600
 C90 C 0.49775 0.19872 0.50042
 C91 C 0.49777 0.20861 0.54478
 C92 C 0.49783 0.22893 0.54519
 C93 C 0.49786 0.23910 0.50029
 C94 C 0.49783 0.22888 0.45545
 C95 C 0.49785 0.23923 0.41137
 C96 C 0.49789 0.25924 0.41128
 C97 C 0.49792 0.26965 0.45527
 C98 C 0.49791 0.25951 0.50021
 C99 C 0.49787 0.23933 0.58919
 C100 C 0.49793 0.25935 0.58914
 C101 C 0.49794 0.26974 0.54505
 C102 C 0.49799 0.29008 0.54443
 C103 C 0.49799 0.29988 0.49990
 C104 C 0.49796 0.28995 0.45559
 H105 H 0.49783 0.23192 0.37649
 H106 H 0.49790 0.26650 0.37634
 H107 H 0.49786 0.23205 0.62411
 H108 H 0.49796 0.26664 0.62406
 H109 H 0.49770 0.18311 0.50048
 H110 H 0.49803 0.31549 0.49961
 C111 C 0.71059 0.20884 0.45612
 C112 C 0.70085 0.19886 0.50049
 C113 C 0.71058 0.20883 0.54491
 C114 C 0.73063 0.22937 0.54544
 C115 C 0.74069 0.23970 0.50060
 C116 C 0.73064 0.22939 0.45570
 C117 C 0.74088 0.23990 0.41168
 C118 C 0.76064 0.26016 0.41172
 C119 C 0.77087 0.27066 0.45577
 C120 C 0.76083 0.26035 0.50066
 C121 C 0.74086 0.23986 0.58951
 C122 C 0.76061 0.26012 0.58959
 C123 C 0.77089 0.27067 0.54557
 C124 C 0.79097 0.29126 0.54506
 C125 C 0.80066 0.30121 0.50059
 C126 C 0.79091 0.29121 0.45625
 H127 H 0.73369 0.23252 0.37676
 H128 H 0.76784 0.26754 0.37682
 H129 H 0.73365 0.23246 0.62439
 H130 H 0.76779 0.26747 0.62454
 H131 H 0.68543 0.18308 0.50046
 H132 H 0.81609 0.31700 0.50039
 O133 O 0.96976 0.51791 -0.09106
 O134 O 0.94526 0.48858 -0.04363
 C135 C 0.94985 0.50289 -0.07826
 O136 O 1.03212 0.48134 -0.08676
 O137 O 1.05666 0.51200 -0.04263
 C138 C 1.05203 0.49658 -0.07463
 O139 O 0.96979 0.45224 -0.09113
 O140 O 0.94530 0.45714 -0.04374
 C141 C 0.94989 0.44741 -0.07839
 O142 O 1.03206 0.55108 -0.08698
 O143 O 1.05662 0.54504 -0.04266
 C144 C 1.05198 0.55578 -0.07479
 Zr145 Zr 1.00103 0.52505 -0.06245
 O146 O 1.00301 0.52768 -0.13944
 O147 O 0.99995 0.55472 -0.05600
 Zr148 Zr 1.00102 0.47631 -0.06242
 O149 O 1.00303 0.47560 -0.13939
 O150 O 0.99994 0.44556 -0.05575
 O151 O 0.98140 0.49088 -0.07217
 O152 O 1.02017 0.51024 -0.07160
 O153 O 1.03218 0.55126 0.08413
 O154 O 1.05669 0.54508 0.03999
 C155 C 1.05208 0.55592 0.07192
 O156 O 0.97032 0.45228 0.08970
 O157 O 0.94582 0.45713 0.04246
 C158 C 0.95044 0.44746 0.07714
 O159 O 1.03230 0.48145 0.08440
 O160 O 1.05674 0.51201 0.04002
 C161 C 1.05219 0.49666 0.07213
 O162 O 0.96980 0.51804 0.08869
 O163 O 0.94530 0.48857 0.04155
 C164 C 0.94990 0.50290 0.07614
 Zr165 Zr 1.00104 0.52509 0.06024
 O166 O 1.00350 0.52715 0.13727
 O167 O 0.99876 0.55428 0.05782
 Zr168 Zr 1.00116 0.47642 0.06028
 O169 O 1.00366 0.47674 0.13728
 O170 O 0.99894 0.44500 0.05719
 Zr171 Zr 0.96800 0.48421 -0.00111
 Zr172 Zr 1.03419 0.51729 -0.00123
 O173 O 1.02028 0.51036 0.06927
 O174 O 0.98145 0.49093 0.06997
 O175 O 1.02101 0.53873 -0.00120
 O176 O 0.98155 0.46315 -0.00106
 O177 O 0.98153 0.51880 -0.00116
 O178 O 1.02108 0.48269 -0.00118
 H179 H 1.02990 0.51511 -0.10074
 H180 H 0.97128 0.44690 -0.00101
 H181 H 1.03014 0.51530 0.09823
 H182 H 0.97126 0.52479 -0.00115
 H183 H 0.99972 0.44038 -0.08953
 H184 H 1.01129 0.44654 0.03643
 H185 H 0.99295 0.48082 0.15042
 H186 H 0.99202 0.51270 0.15047
 H187 H 1.01077 0.56492 0.03618
 H188 H 0.99964 0.55961 -0.08981
 H189 H 0.99284 0.51276 -0.15271
 H190 H 0.99297 0.48050 -0.15272
 O191 O 0.45132 0.48184 0.08808
 O192 O 0.45625 0.51134 0.04127
 C193 C 0.44644 0.49687 0.07557
 O194 O 0.55048 0.51894 0.08444
 O195 O 0.54454 0.48856 0.03960
 C196 C 0.55525 0.50384 0.07193
 O197 O 0.51703 0.54771 0.08956
 O198 O 0.48767 0.54287 0.04205
 C199 C 0.50190 0.55247 0.07697
 O200 O 0.48072 0.44903 0.08327
 O201 O 0.51147 0.45542 0.03913
 C202 C 0.49604 0.44449 0.07104
 Zr203 Zr 0.47562 0.47505 0.05936
 O204 O 0.47494 0.47217 0.13630
 O205 O 0.44490 0.44531 0.05237
 Zr206 Zr 0.52436 0.52392 0.06022
 O207 O 0.52702 0.52436 0.13718
 O208 O 0.55400 0.55477 0.05411
 O209 O 0.49011 0.50916 0.06968
 O210 O 0.50961 0.48996 0.06875
 O211 O 0.48091 0.44951 -0.08776
 O212 O 0.51157 0.45566 -0.04349
 C213 C 0.49618 0.44489 -0.07561
 O214 O 0.51748 0.54855 -0.09052
 O215 O 0.48789 0.54325 -0.04336
 C216 C 0.50231 0.55321 -0.07771
 O217 O 0.55079 0.51959 -0.08671
 O218 O 0.54467 0.48886 -0.04300
 C219 C 0.55550 0.50438 -0.07476
 O220 O 0.45157 0.48247 -0.09175
 O221 O 0.45642 0.51171 -0.04404
 C222 C 0.44669 0.49746 -0.07883
 Zr223 Zr 0.47582 0.47551 -0.06342
 O224 O 0.47639 0.47381 -0.14048
 O225 O 0.44438 0.44623 -0.06162
 Zr226 Zr 0.52452 0.52434 -0.06255
 O227 O 0.52665 0.52426 -0.13959
 O228 O 0.55371 0.55581 -0.05950
 Zr229 Zr 0.48349 0.51606 -0.00127
 Zr230 Zr 0.51675 0.48328 -0.00178
 O231 O 0.50984 0.49044 -0.07215
 O232 O 0.49030 0.50970 -0.07254
 O233 O 0.48210 0.46170 -0.00220
 O234 O 0.51811 0.53728 -0.00087
 O235 O 0.46245 0.48146 -0.00188
 O236 O 0.53816 0.51790 -0.00122
 H237 H 0.51449 0.48502 0.09776
 H238 H 0.52402 0.55351 -0.00050
 H239 H 0.51483 0.48564 -0.10118
 H240 H 0.44617 0.47540 -0.00200
 H241 H 0.55890 0.55985 0.08798
 H242 H 0.56440 0.55440 -0.03807
 H243 H 0.51205 0.52090 -0.15270
 H244 H 0.47958 0.48839 -0.15330
 H245 H 0.44571 0.43556 -0.04002
 H246 H 0.43970 0.44024 0.08609
 H247 H 0.47940 0.48697 0.14985
 H248 H 0.51198 0.51908 0.15044
 O249 O 0.51743 -0.03089 0.08988
 O250 O 0.48797 -0.05530 0.04255
 C251 C 0.50234 -0.05074 0.07711
 O252 O 0.48060 0.03122 0.08629
 O253 O 0.51117 0.05572 0.04193
 C254 C 0.49579 0.05110 0.07408
 O255 O 0.45161 -0.03092 0.09056
 O256 O 0.45647 -0.05532 0.04296
 C257 C 0.44679 -0.05077 0.07777
 O258 O 0.55058 0.03132 0.08561
 O259 O 0.54440 0.05583 0.04156
 C260 C 0.55524 0.05121 0.07351
 Zr261 Zr 0.52448 0.00028 0.06129
 O262 O 0.52727 0.00230 0.13826
 O263 O 0.55419 -0.00080 0.05449
 Zr264 Zr 0.47564 0.00025 0.06173
 O265 O 0.47514 0.00229 0.13872
 O266 O 0.44480 -0.00088 0.05544
 O267 O 0.49027 -0.01932 0.07120
 O268 O 0.50965 0.01939 0.07065
 O269 O 0.55043 0.03132 -0.08554
 O270 O 0.54434 0.05578 -0.04115
 C271 C 0.55513 0.05118 -0.07323
 O272 O 0.45122 -0.03085 -0.08947
 O273 O 0.45630 -0.05529 -0.04243
 C274 C 0.44646 -0.05071 -0.07688
 O275 O 0.48033 0.03133 -0.08495
 O276 O 0.51107 0.05578 -0.04091
 C277 C 0.49559 0.05119 -0.07278
 O278 O 0.51721 -0.03085 -0.09016
 O279 O 0.48780 -0.05529 -0.04283
 C280 C 0.50211 -0.05071 -0.07752
 Zr281 Zr 0.52426 0.00029 -0.06146
 O282 O 0.52616 0.00273 -0.13850
 O283 O 0.55350 -0.00198 -0.05928
 Zr284 Zr 0.47547 0.00029 -0.06101
 O285 O 0.47576 0.00271 -0.13804
 O286 O 0.44397 -0.00195 -0.05827
 Zr287 Zr 0.48348 -0.03265 0.00009
 Zr288 Zr 0.51655 0.03339 0.00030
 O289 O 0.50945 0.01946 -0.07020
 O290 O 0.49003 -0.01931 -0.07102
 O291 O 0.53803 0.02023 -0.00002
 O292 O 0.46232 -0.01920 0.00040
 O293 O 0.51811 -0.01918 -0.00011
 O294 O 0.48187 0.02022 0.00050
 H295 H 0.51456 0.02911 0.09979
 H296 H 0.44605 -0.02947 0.00051
 H297 H 0.51434 0.02929 -0.09916
 H298 H 0.52410 -0.02945 -0.00025
 H299 H 0.43965 -0.00114 0.08927
 H300 H 0.44538 0.01006 -0.03660
 H301 H 0.47899 -0.00859 -0.15123
 H302 H 0.51153 -0.00849 -0.15152
 H303 H 0.56420 0.01002 -0.03768
 H304 H 0.55920 -0.00100 0.08824
 H305 H 0.51235 -0.00783 0.15163
 H306 H 0.48000 -0.00780 0.15192
 C307 C 1.19790 0.49921 0.41291
 C308 C 1.18793 0.49907 0.37677
 C309 C 1.17540 0.49894 0.33480
 C310 C 1.18106 0.51875 0.31052
 C311 C 1.16782 0.51891 0.27226
 C312 C 1.14867 0.49923 0.25786
 C313 C 1.14344 0.47931 0.28174
 C314 C 1.15670 0.47919 0.31998
 C315 C 1.13354 0.49963 0.22003
 C316 C 1.12300 0.48224 0.18606
 C317 C 1.10755 0.48193 0.15286
 C318 C 1.10248 0.49901 0.15311
 C319 C 1.11324 0.51662 0.18599
 C320 C 1.12867 0.51696 0.21919
 C321 C 1.08524 0.49790 0.12207
 C322 C 1.07036 0.49718 0.09805
 H323 H 1.19548 0.53415 0.32175
 H324 H 1.17245 0.53446 0.25423
 H325 H 1.12866 0.46394 0.27205
 H326 H 1.15208 0.46378 0.33874
 H327 H 1.12658 0.46879 0.18543
 H328 H 1.09927 0.46818 0.12764
 H329 H 1.10931 0.52984 0.18679
 H330 H 1.13620 0.53040 0.24531
 C331 C 0.49951 0.69717 0.41589
 C332 C 0.49922 0.68616 0.38164
 C333 C 0.49873 0.67181 0.34328
 C334 C 0.49796 0.65196 0.35571
 C335 C 0.49729 0.63764 0.31931
 C336 C 0.49737 0.64294 0.26975
 C337 C 0.49830 0.66301 0.25745
 C338 C 0.49892 0.67735 0.29408
 C339 C 0.49670 0.62754 0.23145
 C340 C 0.51050 0.63559 0.19011
 C341 C 0.51097 0.62084 0.15605
 C342 C 0.49757 0.59793 0.16277
 C343 C 0.48334 0.58983 0.20303
 C344 C 0.48289 0.60450 0.23711
 C345 C 0.49918 0.58258 0.13025
 C346 C 0.50048 0.56913 0.10489
 H347 H 0.49792 0.64756 0.39366
 H348 H 0.49701 0.62253 0.32995
 H349 H 0.49824 0.66745 0.21960
 H350 H 0.49947 0.69267 0.28407
 H351 H 0.52145 0.65322 0.18500
 H352 H 0.52212 0.62728 0.12511
 H353 H 0.47289 0.57214 0.20858
 H354 H 0.47185 0.59782 0.26815
 C355 C 0.30233 -0.19853 0.41423
 C356 C 0.31249 -0.18854 0.37844
 C357 C 0.32534 -0.17584 0.33716
 C358 C 0.34108 -0.18024 0.31619
 C359 C 0.35496 -0.16664 0.27896
 C360 C 0.35332 -0.14840 0.26231
 C361 C 0.33705 -0.14446 0.28282
 C362 C 0.32319 -0.15808 0.32002
 C363 C 0.36921 -0.13285 0.22562
 C364 C 0.36213 -0.12350 0.18921
 C365 C 0.37744 -0.10774 0.15683
 C366 C 0.39999 -0.10117 0.16035
 C367 C 0.40712 -0.11071 0.19576
 C368 C 0.39186 -0.12645 0.22815
 C369 C 0.41603 -0.08383 0.12949
 C370 C 0.42985 -0.06892 0.10506
 H371 H 0.34293 -0.19391 0.32927
 H372 H 0.36712 -0.17027 0.26351
 H373 H 0.33556 -0.13038 0.27134
 H374 H 0.31119 -0.15441 0.33627
 H375 H 0.34478 -0.12827 0.18596
 H376 H 0.37174 -0.10045 0.12957
 H377 H 0.42456 -0.10564 0.19901
 H378 H 0.39791 -0.13305 0.25619
 C379 C 0.80232 0.49933 0.41501
 C380 C 0.81277 0.49869 0.38057
 C381 C 0.82623 0.49781 0.34176
 C382 C 0.82311 0.50215 0.29338
 C383 C 0.83676 0.50167 0.25638
 C384 C 0.85362 0.49677 0.26743
 C385 C 0.85652 0.49238 0.31617
 C386 C 0.84293 0.49290 0.35297
 C387 C 0.86856 0.49669 0.22884
 C388 C 0.87510 0.48055 0.22919
 C389 C 0.89052 0.48143 0.19532
 C390 C 0.89959 0.49840 0.16055
 C391 C 0.89276 0.51419 0.15896
 C392 C 0.87728 0.51331 0.19282
 C393 C 0.91686 0.50021 0.12866
 C394 C 0.93176 0.50157 0.10371
 H395 H 0.81023 0.50598 0.28432
 H396 H 0.83404 0.50496 0.21914
 H397 H 0.86960 0.48897 0.32601
 H398 H 0.84558 0.48966 0.39033
 H399 H 0.86844 0.46737 0.25601
 H400 H 0.89569 0.46912 0.19689
 H401 H 0.89977 0.52745 0.13232
 H402 H 0.87273 0.52608 0.19192
 C403 C 0.49796 0.30121 0.41126
 C404 C 0.49797 0.31112 0.37518
 C405 C 0.49798 0.32356 0.33323
 C406 C 0.47820 0.32228 0.31770
 C407 C 0.47842 0.33568 0.27946
 C408 C 0.49849 0.35061 0.25628
 C409 C 0.51821 0.35136 0.27138
 C410 C 0.51794 0.33794 0.30964
 C411 C 0.49898 0.36615 0.21848
 C412 C 0.51616 0.38843 0.21832
 C413 C 0.51585 0.40351 0.18517
 C414 C 0.49843 0.39659 0.15165
 C415 C 0.48152 0.37437 0.15072
 C416 C 0.48179 0.35922 0.18387
 C417 C 0.49731 0.41270 0.12070
 C418 C 0.49657 0.42685 0.09680
 H419 H 0.46268 0.31131 0.33593
 H420 H 0.46301 0.33491 0.26921
 H421 H 0.53387 0.36248 0.25389
 H422 H 0.53336 0.33910 0.32142
 H423 H 0.52943 0.39439 0.24495
 H424 H 0.52893 0.42072 0.18650
 H425 H 0.46791 0.36884 0.12503
 H426 H 0.46846 0.34214 0.18272
 C427 C 0.69938 0.19743 0.41187
 C428 C 0.68948 0.18737 0.37590
 C429 C 0.67700 0.17473 0.33415
 C430 C 0.66303 0.18051 0.30936
 C431 C 0.64953 0.16718 0.27134
 C432 C 0.64979 0.14782 0.25770
 C433 C 0.66432 0.14248 0.28207
 C434 C 0.67780 0.15583 0.32006
 C435 C 0.63414 0.13262 0.22019
 C436 C 0.64082 0.12174 0.18672
 C437 C 0.62554 0.10622 0.15385
 C438 C 0.60345 0.10143 0.15394
 C439 C 0.59678 0.11252 0.18631
 C440 C 0.61199 0.12801 0.21917
 C441 C 0.58720 0.08417 0.12321
 C442 C 0.57296 0.06931 0.09937
 H443 H 0.66225 0.19509 0.32002
 H444 H 0.63873 0.17189 0.25292
 H445 H 0.66470 0.12754 0.27297
 H446 H 0.68845 0.15112 0.33922
 H447 H 0.65780 0.12511 0.18623
 H448 H 0.63087 0.09768 0.12902
 H449 H 0.57967 0.10880 0.18696
 H450 H 0.60622 0.13582 0.24490
 C451 C 0.49770 0.19728 -0.41096
 C452 C 0.49764 0.18729 -0.37497
 C453 C 0.49757 0.17473 -0.33319
 C454 C 0.47775 0.15621 -0.31805
 C455 C 0.47791 0.14288 -0.28007
 C456 C 0.49793 0.14788 -0.25677
 C457 C 0.51768 0.16688 -0.27145
 C458 C 0.51748 0.18019 -0.30946
 C459 C 0.49835 0.13266 -0.21933
 C460 C 0.51554 0.12755 -0.21927
 C461 C 0.51521 0.11205 -0.18642
 C462 C 0.49775 0.10145 -0.15311
 C463 C 0.48080 0.10673 -0.15210
 C464 C 0.48110 0.12226 -0.18496
 C465 C 0.49667 0.08419 -0.12233
 C466 C 0.49599 0.06931 -0.09852
 H467 H 0.46226 0.15174 -0.33640
 H468 H 0.46248 0.12821 -0.27015
 H469 H 0.53331 0.17133 -0.25385
 H470 H 0.53293 0.19447 -0.32094
 H471 H 0.52887 0.13497 -0.24571
 H472 H 0.52833 0.10795 -0.18778
 H473 H 0.46717 0.09858 -0.12653
 H474 H 0.46777 0.12603 -0.18373
 C475 C 0.69909 0.50235 -0.41485
 C476 C 0.68910 0.50255 -0.37908
 C477 C 0.67661 0.50276 -0.33742
 C478 C 0.66315 0.48316 -0.31171
 C479 C 0.64975 0.48303 -0.27350
 C480 C 0.64962 0.50252 -0.26059
 C481 C 0.66360 0.52225 -0.28597
 C482 C 0.67697 0.52234 -0.32415
 C483 C 0.63413 0.50209 -0.22268
 C484 C 0.64075 0.51990 -0.18999
 C485 C 0.62559 0.52012 -0.15674
 C486 C 0.60367 0.50252 -0.15567
 C487 C 0.59707 0.48451 -0.18726
 C488 C 0.61217 0.48426 -0.22049
 C489 C 0.58746 0.50349 -0.12469
 C490 C 0.57324 0.50407 -0.10070
 H491 H 0.66272 0.46790 -0.32171
 H492 H 0.63938 0.46765 -0.25431
 H493 H 0.66365 0.53745 -0.27744
 H494 H 0.68723 0.53757 -0.34401
 H495 H 0.65760 0.53374 -0.19040
 H496 H 0.63086 0.53417 -0.13254
 H497 H 0.58008 0.47089 -0.18703
 H498 H 0.60643 0.47047 -0.24562
 C499 C 0.80161 0.30212 -0.41315
 C500 C 0.81164 0.31231 -0.37739
 C501 C 0.82438 0.32521 -0.33619
 C502 C 0.81985 0.34083 -0.31511
 C503 C 0.83350 0.35479 -0.27803
 C504 C 0.85193 0.35335 -0.26163
 C505 C 0.85599 0.33720 -0.28222
 C506 C 0.84232 0.32326 -0.31929
 C507 C 0.86754 0.36935 -0.22517
 C508 C 0.87713 0.36247 -0.18887
 C509 C 0.89295 0.37789 -0.15673
 C510 C 0.89937 0.40035 -0.16039
 C511 C 0.88960 0.40729 -0.19569
 C512 C 0.87379 0.39192 -0.22784
 C513 C 0.91677 0.41650 -0.12978
 C514 C 0.93172 0.43040 -0.10553
 H515 H 0.80604 0.34252 -0.32803
 H516 H 0.82978 0.36686 -0.26251
 H517 H 0.87021 0.33587 -0.27093
 H518 H 0.84608 0.31136 -0.33563
 H519 H 0.87247 0.34519 -0.18553
 H520 H 0.90043 0.37234 -0.12955
 H521 H 0.89455 0.42466 -0.19904
 H522 H 0.86700 0.39782 -0.25580
 C523 C 0.49903 -0.19836 -0.41408
 C524 C 0.49884 -0.18822 -0.37859
 C525 C 0.49862 -0.17545 -0.33753
 C526 C 0.51854 -0.15778 -0.32002
 C527 C 0.51826 -0.14419 -0.28282
 C528 C 0.49800 -0.14806 -0.26270
 C529 C 0.47810 -0.16620 -0.27977
 C530 C 0.47842 -0.17977 -0.31698
 C531 C 0.49763 -0.13257 -0.22593
 C532 C 0.48149 -0.12604 -0.22868
 C533 C 0.48195 -0.11037 -0.19615
 C534 C 0.49850 -0.10101 -0.16038
 C535 C 0.51436 -0.10770 -0.15665
 C536 C 0.51393 -0.12339 -0.18917
 C537 C 0.49980 -0.08371 -0.12939
 C538 C 0.50090 -0.06883 -0.10487
 H539 H 0.53426 -0.15419 -0.33591
 H540 H 0.53384 -0.13019 -0.27101
 H541 H 0.46226 -0.16977 -0.26463
 H542 H 0.46290 -0.19338 -0.33034
 H543 H 0.46893 -0.13251 -0.25697
 H544 H 0.46967 -0.10520 -0.19956
 H545 H 0.52726 -0.10054 -0.12913
 H546 H 0.52642 -0.12827 -0.18574
 C547 C 0.30150 0.50056 -0.41398
 C548 C 0.31162 0.50060 -0.37819
 C549 C 0.32440 0.50053 -0.33694
 C550 C 0.32354 0.48082 -0.32277
 C551 C 0.33739 0.48099 -0.28556
 C552 C 0.35235 0.50093 -0.26205
 C553 C 0.35270 0.52059 -0.27575
 C554 C 0.33882 0.52037 -0.31300
 C555 C 0.36828 0.50135 -0.22529
 C556 C 0.39053 0.51865 -0.22533
 C557 C 0.40593 0.51829 -0.19313
 C558 C 0.39934 0.50067 -0.16038
 C559 C 0.37715 0.48363 -0.15926
 C560 C 0.36170 0.48396 -0.19145
 C561 C 0.41562 0.49955 -0.12994
 C562 C 0.42961 0.49857 -0.10582
 H563 H 0.31258 0.46540 -0.34134
 H564 H 0.33693 0.46565 -0.27641
 H565 H 0.36383 0.53615 -0.25796
 H566 H 0.33967 0.53574 -0.32377
 H567 H 0.39620 0.53210 -0.25137
 H568 H 0.42310 0.53150 -0.19452
 H569 H 0.37187 0.46990 -0.13408
 H570 H 0.34465 0.47055 -0.19013
 C571 C 1.19828 0.69961 -0.41341
 C572 C 1.18823 0.68971 -0.37743
 C573 C 1.17560 0.67723 -0.33570
 C574 C 1.18125 0.66306 -0.31139
 C575 C 1.16790 0.64956 -0.27342
 C576 C 1.14866 0.65001 -0.25935
 C577 C 1.14344 0.66472 -0.28326
 C578 C 1.15681 0.67820 -0.32120
 C579 C 1.13343 0.63438 -0.22186
 C580 C 1.12274 0.64113 -0.18802
 C581 C 1.10721 0.62590 -0.15512
 C582 C 1.10222 0.60379 -0.15553
 C583 C 1.11312 0.59705 -0.18829
 C584 C 1.12862 0.61221 -0.22119
 C585 C 1.08497 0.58760 -0.12469
 C586 C 1.07010 0.57343 -0.10076
 H587 H 1.19573 0.66215 -0.32237
 H588 H 1.17251 0.63863 -0.25535
 H589 H 1.12859 0.66524 -0.27383
 H590 H 1.15219 0.68899 -0.34000
 H591 H 1.12626 0.65813 -0.18726
 H592 H 1.09883 0.63129 -0.12998
 H593 H 1.10926 0.57992 -0.18921
 H594 H 1.13627 0.60639 -0.24722
 C595 C 0.80105 0.50028 -0.41054
 C596 C 0.81097 0.50020 -0.37452
 C597 C 0.82365 0.50011 -0.33313
 C598 C 0.84195 0.51992 -0.31721
 C599 C 0.85567 0.51965 -0.28026
 C600 C 0.85131 0.49949 -0.25883
 C601 C 0.83251 0.47972 -0.27417
 C602 C 0.81880 0.48004 -0.31114
 C603 C 0.86702 0.49903 -0.22275
 C604 C 0.87282 0.48237 -0.22512
 C605 C 0.88877 0.48275 -0.19349
 C606 C 0.89913 0.49973 -0.15904
 C607 C 0.89316 0.51612 -0.15564
 C608 C 0.87719 0.51578 -0.18725
 C609 C 0.91665 0.50089 -0.12901
 C610 C 0.93167 0.50185 -0.10514
 H611 H 0.84597 0.53552 -0.33429
 H612 H 0.87018 0.53511 -0.26979
 H613 H 0.82856 0.46399 -0.25798
 H614 H 0.80472 0.46459 -0.32333
 H615 H 0.86556 0.46945 -0.25249
 H616 H 0.89337 0.47005 -0.19663
 H617 H 0.90109 0.52936 -0.12909
 H618 H 0.87290 0.52868 -0.18416
 C619 C 0.49804 0.30083 -0.41376
 C620 C 0.49809 0.31080 -0.37773
 C621 C 0.49817 0.32333 -0.33592
 C622 C 0.47832 0.32167 -0.31968
 C623 C 0.47856 0.33520 -0.28171
 C624 C 0.49872 0.35064 -0.25955
 C625 C 0.51852 0.35176 -0.27531
 C626 C 0.51823 0.33821 -0.31329
 C627 C 0.49919 0.36634 -0.22221
 C628 C 0.51601 0.38876 -0.22322
 C629 C 0.51566 0.40394 -0.19046
 C630 C 0.49855 0.39698 -0.15617
 C631 C 0.48199 0.37463 -0.15409
 C632 C 0.48231 0.35939 -0.18687
 C633 C 0.49741 0.41311 -0.12540
 C634 C 0.49668 0.42727 -0.10154
 H635 H 0.46271 0.31031 -0.33716
 H636 H 0.46308 0.33414 -0.27094
 H637 H 0.53426 0.36327 -0.25859
 H638 H 0.53370 0.33965 -0.32563
 H639 H 0.52902 0.39473 -0.25043
 H640 H 0.52847 0.42124 -0.19263
 H641 H 0.46865 0.36908 -0.12774
 H642 H 0.46927 0.34220 -0.18482
 C643 C 0.69935 0.19740 -0.41090
 C644 C 0.68944 0.18735 -0.37495
 C645 C 0.67697 0.17474 -0.33322
 C646 C 0.67782 0.15589 -0.31896
 C647 C 0.66434 0.14255 -0.28099
 C648 C 0.64976 0.14788 -0.25683
 C649 C 0.64944 0.16718 -0.27064
 C650 C 0.66294 0.18050 -0.30864
 C651 C 0.63409 0.13268 -0.21938
 C652 C 0.61192 0.12800 -0.21863
 C653 C 0.59670 0.11250 -0.18584
 C654 C 0.60337 0.10147 -0.15330
 C655 C 0.62549 0.10634 -0.15294
 C656 C 0.64078 0.12187 -0.18573
 C657 C 0.58711 0.08419 -0.12268
 C658 C 0.57286 0.06931 -0.09895
 H659 H 0.68851 0.15120 -0.33797
 H660 H 0.66476 0.12765 -0.27174
 H661 H 0.63859 0.17187 -0.25237
 H662 H 0.66213 0.19504 -0.31944
 H663 H 0.60614 0.13575 -0.24452
 H664 H 0.57957 0.10872 -0.18671
 H665 H 0.63082 0.09785 -0.12797
 H666 H 0.65778 0.12529 -0.18505
 C667 C 1.19789 0.49936 -0.41441
 C668 C 1.18790 0.49921 -0.37832
 C669 C 1.17536 0.49901 -0.33638
 C670 C 1.15653 0.47928 -0.32208
 C671 C 1.14327 0.47934 -0.28384
 C672 C 1.14864 0.49919 -0.25945
 C673 C 1.16794 0.51885 -0.27331
 C674 C 1.18118 0.51874 -0.31158
 C675 C 1.13350 0.49957 -0.22172
 C676 C 1.12879 0.51700 -0.22061
 C677 C 1.11331 0.51663 -0.18759
 C678 C 1.10233 0.49887 -0.15518
 C679 C 1.10725 0.48169 -0.15515
 C680 C 1.12276 0.48203 -0.18818
 C681 C 1.08505 0.49775 -0.12437
 C682 C 1.07016 0.49704 -0.10050
 H683 H 1.15180 0.46394 -0.34125
 H684 H 1.12837 0.46400 -0.27456
 H685 H 1.17266 0.53433 -0.25487
 H686 H 1.19571 0.53412 -0.32240
 H687 H 1.13649 0.53055 -0.24641
 H688 H 1.10950 0.52993 -0.18819
 H689 H 1.09880 0.46784 -0.13028
 H690 H 1.12621 0.46850 -0.18778
 C691 C 0.49957 0.69904 -0.40969
 C692 C 0.49942 0.68903 -0.37365
 C693 C 0.49921 0.67624 -0.33225
 C694 C 0.47901 0.66052 -0.31150
 C695 C 0.47865 0.64650 -0.27454
 C696 C 0.49852 0.64800 -0.25796
 C697 C 0.51879 0.66430 -0.27812
 C698 C 0.51911 0.67829 -0.31508
 C699 C 0.49807 0.63186 -0.22191
 C700 C 0.51442 0.63863 -0.18533
 C701 C 0.51482 0.62308 -0.15368
 C702 C 0.49888 0.60060 -0.15813
 C703 C 0.48229 0.59377 -0.19370
 C704 C 0.48186 0.60928 -0.22536
 C705 C 0.50014 0.58433 -0.12809
 C706 C 0.50119 0.57033 -0.10431
 H707 H 0.46351 0.65874 -0.32467
 H708 H 0.46281 0.63431 -0.25933
 H709 H 0.53434 0.66567 -0.26668
 H710 H 0.53482 0.69027 -0.33120
 H711 H 0.52697 0.65592 -0.18143
 H712 H 0.52775 0.62853 -0.12628
 H713 H 0.46995 0.57639 -0.19765
 H714 H 0.46927 0.60347 -0.25357
 C715 C 0.30218 -0.19842 -0.41327
 C716 C 0.31223 -0.18840 -0.37740
 C717 C 0.32492 -0.17567 -0.33599
 C718 C 0.32356 -0.15720 -0.32086
 C719 C 0.33730 -0.14362 -0.28346
 C720 C 0.35265 -0.14831 -0.26077
 C721 C 0.35350 -0.16724 -0.27543
 C722 C 0.33973 -0.18081 -0.31285
 C723 C 0.36849 -0.13284 -0.22392
 C724 C 0.39091 -0.12737 -0.22472
 C725 C 0.40620 -0.11163 -0.19237
 C726 C 0.39933 -0.10116 -0.15874
 C727 C 0.37699 -0.10682 -0.15689
 C728 C 0.36165 -0.12257 -0.18923
 C729 C 0.41548 -0.08379 -0.12814
 C730 C 0.42940 -0.06885 -0.10393
 H731 H 0.31228 -0.15298 -0.33880
 H732 H 0.33646 -0.12901 -0.27354
 H733 H 0.36495 -0.17143 -0.25828
 H734 H 0.34095 -0.19504 -0.32439
 H735 H 0.39678 -0.13470 -0.25144
 H736 H 0.42349 -0.10726 -0.19433
 H737 H 0.37151 -0.09879 -0.13102
 H738 H 0.34447 -0.12662 -0.18734
 C739 C 0.49931 -0.19885 0.41114
 C740 C 0.49925 -0.18894 0.37513
 C741 C 0.49919 -0.17629 0.33369
 C742 C 0.47912 -0.18116 0.31153
 C743 C 0.47884 -0.16754 0.27437
 C744 C 0.49866 -0.14882 0.25899
 C745 C 0.51883 -0.14443 0.28062
 C746 C 0.51906 -0.15807 0.31776
 C747 C 0.49824 -0.13322 0.22261
 C748 C 0.51505 -0.12318 0.18717
 C749 C 0.51544 -0.10731 0.15526
 C750 C 0.49903 -0.10132 0.15831
 C751 C 0.48199 -0.11156 0.19270
 C752 C 0.48156 -0.12741 0.22462
 C753 C 0.50025 -0.08388 0.12803
 C754 C 0.50126 -0.06890 0.10403
 H755 H 0.46363 -0.19519 0.32370
 H756 H 0.46309 -0.17151 0.25803
 H757 H 0.53433 -0.12999 0.27013
 H758 H 0.53468 -0.15404 0.33496
 H759 H 0.52797 -0.12749 0.18436
 H760 H 0.52871 -0.09947 0.12878
 H761 H 0.46928 -0.10694 0.19557
 H762 H 0.46860 -0.13456 0.25194
 C763 C 0.30173 0.49981 0.41129
 C764 C 0.31166 0.49944 0.37560
 C765 C 0.32417 0.49887 0.33440
 C766 C 0.32600 0.48004 0.32600
 C767 C 0.33957 0.47998 0.28851
 C768 C 0.35157 0.49881 0.25891
 C769 C 0.34923 0.51750 0.26695
 C770 C 0.33562 0.51752 0.30451
 C771 C 0.36727 0.49926 0.22161
 C772 C 0.38832 0.51825 0.21586
 C773 C 0.40379 0.51811 0.18352
 C774 C 0.39842 0.49905 0.15642
 C775 C 0.37734 0.48026 0.16095
 C776 C 0.36184 0.48036 0.19328
 C777 C 0.41499 0.49835 0.12626
 C778 C 0.42918 0.49769 0.10237
 H779 H 0.31734 0.46558 0.34918
 H780 H 0.34127 0.46546 0.28378
 H781 H 0.35806 0.53215 0.24444
 H782 H 0.33436 0.53221 0.31078
 H783 H 0.39313 0.53295 0.23762
 H784 H 0.42012 0.53270 0.18053
 H785 H 0.37303 0.46541 0.14018
 H786 H 0.34569 0.46558 0.19647
 C787 C 1.19784 0.69911 0.41165
 C788 C 1.18787 0.68927 0.37556
 C789 C 1.17537 0.67690 0.33360
 C790 C 1.15668 0.67799 0.31874
 C791 C 1.14344 0.66463 0.28048
 C792 C 1.14871 0.64995 0.25664
 C793 C 1.16786 0.64940 0.27106
 C794 C 1.18108 0.66278 0.30934
 C795 C 1.13357 0.63441 0.21892
 C796 C 1.12867 0.61221 0.21831
 C797 C 1.11319 0.59710 0.18529
 C798 C 1.10242 0.60393 0.15235
 C799 C 1.10754 0.62609 0.15183
 C800 C 1.12304 0.64126 0.18486
 C801 C 1.08514 0.58779 0.12153
 C802 C 1.07023 0.57361 0.09769
 H803 H 1.15203 0.68876 0.33748
 H804 H 1.12865 0.66522 0.27077
 H805 H 1.17250 0.63848 0.25305
 H806 H 1.19550 0.66179 0.32060
 H807 H 1.13620 0.60632 0.24451
 H808 H 1.10922 0.57994 0.18628
 H809 H 1.09925 0.63153 0.12655
 H810 H 1.12666 0.65828 0.18407
 C811 C 0.49777 0.19724 0.41182
 C812 C 0.49776 0.18726 0.37586
 C813 C 0.49776 0.17473 0.33413
 C814 C 0.47793 0.15635 0.31848
 C815 C 0.47813 0.14302 0.28055
 C816 C 0.49822 0.14789 0.25784
 C817 C 0.51799 0.16675 0.27301
 C818 C 0.51775 0.18005 0.31095
 C819 C 0.49867 0.13265 0.22050
 C820 C 0.51569 0.12730 0.22104
 C821 C 0.51535 0.11177 0.18830
 C822 C 0.49805 0.10136 0.15451
 C823 C 0.48127 0.10688 0.15291
 C824 C 0.48158 0.12245 0.18565
 C825 C 0.49694 0.08408 0.12379
 C826 C 0.49624 0.06920 0.09997
 H827 H 0.46239 0.15200 0.33638
 H828 H 0.46268 0.12847 0.27024
 H829 H 0.53367 0.17108 0.25586
 H830 H 0.53320 0.19422 0.32283
 H831 H 0.52888 0.13456 0.24786
 H832 H 0.52833 0.10748 0.19012
 H833 H 0.46777 0.09888 0.12696
 H834 H 0.46838 0.12639 0.18397
 C835 C 0.69944 0.50190 0.41021
 C836 C 0.68965 0.50197 0.37394
 C837 C 0.67726 0.50207 0.33195
 C838 C 0.67819 0.52177 0.31735
 C839 C 0.66470 0.52160 0.27931
 C840 C 0.65002 0.50166 0.25541
 C841 C 0.64964 0.48204 0.26952
 C842 C 0.66315 0.48226 0.30759
 C843 C 0.63431 0.50118 0.21798
 C844 C 0.61212 0.48378 0.21746
 C845 C 0.59685 0.48407 0.18472
 C846 C 0.60352 0.50170 0.15200
 C847 C 0.62567 0.51884 0.15140
 C848 C 0.64099 0.51859 0.18414
 C849 C 0.58724 0.50274 0.12141
 C850 C 0.57298 0.50340 0.09768
 H851 H 0.68894 0.53718 0.33620
 H852 H 0.66517 0.53692 0.26985
 H853 H 0.63872 0.46648 0.25146
 H854 H 0.66226 0.46690 0.31867
 H855 H 0.60635 0.47033 0.24350
 H856 H 0.57971 0.47080 0.18577
 H857 H 0.63100 0.53260 0.12628
 H858 H 0.65801 0.53209 0.18327
 C859 C 0.80213 0.30266 0.41209
 C860 C 0.81217 0.31285 0.37640
 C861 C 0.82492 0.32574 0.33523
 C862 C 0.82049 0.34144 0.31426
 C863 C 0.83415 0.35537 0.27716
 C864 C 0.85248 0.35379 0.26066
 C865 C 0.85644 0.33756 0.28115
 C866 C 0.84276 0.32366 0.31823
 C867 C 0.86809 0.36973 0.22417
 C868 C 0.87752 0.36274 0.18778
 C869 C 0.89337 0.37810 0.15562
 C870 C 0.89995 0.40060 0.15937
 C871 C 0.89033 0.40764 0.19476
 C872 C 0.87451 0.39234 0.22693
 C873 C 0.91736 0.41666 0.12872
 C874 C 0.93230 0.43051 0.10440
 H875 H 0.80675 0.34323 0.32724
 H876 H 0.83051 0.36751 0.26171
 H877 H 0.87058 0.33612 0.26978
 H878 H 0.84644 0.31168 0.33449
 H879 H 0.87274 0.34543 0.18437
 H880 H 0.90072 0.37247 0.12836
 H881 H 0.89541 0.42505 0.19816
 H882 H 0.86783 0.39831 0.25497
   
