data_POSCAR
  _audit_creation_date              2014-09-24
  _audit_creation_method            'ToBaCCo'
  _symmetry_space_group_name_H-M    'P1'
  _symmetry_Int_Tables_number       1
  _symmetry_cell_setting            triclinic
  loop_
  _symmetry_equiv_pos_as_xyz
 x,y,z
_cell_length_a 31.1936
_cell_length_b 31.2430
_cell_length_c 31.0380
_cell_angle_alpha 89.938500
_cell_angle_beta 90.018000
_cell_angle_gamma 89.911900
loop_
  _atom_site_label
  _atom_site_type_symbol
  _atom_site_fract_x
  _atom_site_fract_y
  _atom_site_fract_z
C1 C 0.20324 0.15043 0.20347
 C2 C 0.18458 0.13423 0.24129
 C3 C 0.14550 0.15093 0.25716
 C4 C 0.12651 0.18568 0.23511
 C5 C 0.14570 0.20319 0.19830
 C6 C 0.18377 0.18504 0.18194
 C7 C 0.24034 0.13159 0.18615
 C8 C 0.25756 0.14580 0.14651
 C9 C 0.23818 0.18125 0.12599
 C10 C 0.20210 0.20130 0.14376
 C11 C 0.18371 0.23713 0.12364
 C12 C 0.14656 0.25591 0.14058
 C13 C 0.12724 0.23851 0.17738
 H14 H 0.19932 0.10677 0.25669
 H15 H 0.09750 0.20037 0.24738
 H16 H 0.25395 0.10398 0.20231
 H17 H 0.25183 0.19426 0.09668
 H18 H 0.19785 0.25020 0.09456
 H19 H 0.09804 0.25278 0.18979
 C20 C -0.19418 0.85655 0.19922
 C21 C -0.17299 0.87583 0.23403
 C22 C -0.13972 0.85433 0.25614
 C23 C -0.12737 0.81326 0.24190
 C24 C -0.14659 0.79472 0.20559
 C25 C -0.18072 0.81604 0.18472
 C26 C -0.22883 0.87713 0.17896
 C27 C -0.25139 0.85720 0.14497
 C28 C -0.23654 0.81715 0.12999
 C29 C -0.20095 0.79708 0.14891
 C30 C -0.18463 0.75878 0.13198
 C31 C -0.14922 0.73869 0.15125
 C32 C -0.13126 0.75588 0.18886
 H33 H -0.18391 0.90688 0.24511
 H34 H -0.10094 0.79671 0.25736
 H35 H -0.23959 0.90762 0.19157
 H36 H -0.25152 0.80215 0.10236
 H37 H -0.19878 0.74495 0.10329
 H38 H -0.10400 0.74010 0.20370
 C39 C -0.20779 0.14672 -0.20239
 C40 C -0.18917 0.12766 -0.23880
 C41 C -0.15047 0.14332 -0.25563
 C42 C -0.13090 0.17904 -0.23654
 C43 C -0.14960 0.19901 -0.20076
 C44 C -0.18797 0.18253 -0.18329
 C45 C -0.24519 0.12973 -0.18409
 C46 C -0.26253 0.14695 -0.14578
 C47 C -0.24275 0.18337 -0.12761
 C48 C -0.20619 0.20154 -0.14640
 C49 C -0.18715 0.23812 -0.12850
 C50 C -0.14932 0.25485 -0.14614
 C51 C -0.13034 0.23490 -0.18184
 H52 H -0.20401 0.09982 -0.25333
 H53 H -0.10119 0.19134 -0.24977
 H54 H -0.25894 0.10124 -0.19833
 H55 H -0.25639 0.19851 -0.09936
 H56 H -0.20115 0.25313 -0.10033
 H57 H -0.10080 0.24764 -0.19503
 C58 C 0.20572 0.85170 -0.20330
 C59 C 0.18749 0.87169 -0.23946
 C60 C 0.14828 0.85723 -0.25694
 C61 C 0.12793 0.82185 -0.23728
 C62 C 0.14641 0.80095 -0.20186
 C63 C 0.18562 0.81565 -0.18495
 C64 C 0.24316 0.86795 -0.18442
 C65 C 0.26121 0.84795 -0.14819
 C66 C 0.24245 0.81075 -0.13138
 C67 C 0.20440 0.79471 -0.14923
 C68 C 0.18413 0.75884 -0.13124
 C69 C 0.14481 0.74441 -0.14776
 C70 C 0.12608 0.76560 -0.18294
 H71 H 0.20298 0.89988 -0.25250
 H72 H 0.09849 0.80909 -0.25053
 H73 H 0.25799 0.89657 -0.19736
 H74 H 0.25649 0.79549 -0.10332
 H75 H 0.19830 0.74275 -0.10371
 H76 H 0.09583 0.75423 -0.19576
 C77 C 0.14843 1.20311 0.79881
 C78 C 0.13014 1.18364 0.76252
 C79 C 0.14568 1.14412 0.74687
 C80 C 0.18019 1.12445 0.76881
 C81 C 0.19978 1.14445 0.80416
 C82 C 0.18410 1.18416 0.81897
 C83 C 0.13101 1.24095 0.81558
 C84 C 0.14922 1.26109 0.85195
 C85 C 0.18681 1.24324 0.86999
 C86 C 0.20386 1.20472 0.85421
 C87 C 0.23967 1.18576 0.87391
 C88 C 0.25500 1.14599 0.85962
 C89 C 0.23489 1.12539 0.82494
 H90 H 0.10237 1.19853 0.74780
 H91 H 0.19348 1.09454 0.75724
 H92 H 0.10362 1.25513 0.79949
 H93 H 0.20133 1.25741 0.89826
 H94 H 0.25505 1.20130 0.90103
 H95 H 0.24700 1.09473 0.81394
 C96 C 0.85132 0.79729 0.79416
 C97 C 0.86948 0.81553 0.75704
 C98 C 0.85585 0.85599 0.74184
 C99 C 0.82217 0.87693 0.76373
 C100 C 0.80259 0.85824 0.79971
 C101 C 0.81764 0.81861 0.81543
 C102 C 0.86734 0.75872 0.81107
 C103 C 0.85119 0.74171 0.85004
 C104 C 0.81630 0.76273 0.86994
 C105 C 0.79914 0.80048 0.85261
 C106 C 0.76390 0.82063 0.87211
 C107 C 0.74802 0.85946 0.85575
 C108 C 0.76805 0.87858 0.82017
 H109 H 0.89607 0.79924 0.74170
 H110 H 0.80977 0.90713 0.75185
 H111 H 0.89445 0.74381 0.79526
 H112 H 0.80160 0.74926 0.89852
 H113 H 0.74898 0.80642 0.90023
 H114 H 0.75598 0.90878 0.80784
 C115 C 0.14239 0.79875 1.19876
 C116 C 0.12316 0.81969 1.23381
 C117 C 0.14351 0.85461 1.25357
 C118 C 0.18276 0.86940 1.23732
 C119 C 0.20191 0.84936 1.20182
 C120 C 0.18221 0.81326 1.18305
 C121 C 0.12239 0.76357 1.17925
 C122 C 0.14209 0.74145 1.14483
 C123 C 0.18241 0.75599 1.13002
 C124 C 0.20207 0.79207 1.14826
 C125 C 0.24068 0.80812 1.13142
 C126 C 0.25909 0.84538 1.14861
 C127 C 0.24000 0.86537 1.18424
 H128 H 0.09271 0.80844 1.24624
 H129 H 0.19799 0.89695 1.25199
 H130 H 0.09223 0.75242 1.19238
 H131 H 0.19767 0.74080 1.10267
 H132 H 0.25546 0.79280 1.10382
 H133 H 0.25454 0.89387 1.19774
 C134 C 0.85238 1.20330 1.20135
 C135 C 0.87157 1.18520 1.23801
 C136 C 0.85340 1.14917 1.25872
 C137 C 0.81478 1.13236 1.24191
 C138 C 0.79538 1.15010 1.20532
 C139 C 0.81418 1.18568 1.18487
 C140 C 0.87126 1.23833 1.18036
 C141 C 0.85198 1.25629 1.14366
 C142 C 0.81384 1.23881 1.12750
 C143 C 0.79507 1.20328 1.14755
 C144 C 0.75802 1.18447 1.13045
 C145 C 0.73952 1.14887 1.15067
 C146 C 0.75777 1.13221 1.18837
 H147 H 0.90186 1.19821 1.24878
 H148 H 0.79867 1.10606 1.25779
 H149 H 0.90076 1.25196 1.19269
 H150 H 0.79936 1.25242 1.09881
 H151 H 0.74378 1.19707 1.10118
 H152 H 0.74344 1.10442 1.20355
 O153 O 0.44154 0.91869 0.92747
 O154 O 0.39370 0.95861 0.96676
 C155 C 0.40279 0.92934 0.93857
 O156 O 0.56268 0.92165 1.07915
 O157 O 0.60827 0.96432 1.04004
 C158 C 0.60072 0.93498 1.06855
 O159 O 0.44183 0.91552 1.07611
 O160 O 0.39402 0.95771 1.03916
 C161 C 0.40308 0.92719 1.06598
 O162 O 0.56219 0.92540 0.92368
 O163 O 0.60798 0.96582 0.96475
 C164 C 0.60033 0.93788 0.93492
 Zr165 Zr 0.50123 0.94449 0.94745
 O166 O 0.50753 0.87711 0.94451
 O167 O 0.49631 0.94765 0.87947
 Zr168 Zr 0.50155 0.94177 1.05642
 O169 O 0.50794 0.87430 1.05526
 O170 O 0.49723 0.94090 1.12449
 O171 O 0.46336 0.93392 1.00183
 O172 O 0.53878 0.93630 1.00170
 O173 O 0.55789 1.07395 0.92501
 O174 O 0.60592 1.03737 0.96740
 C175 C 0.59657 1.06444 0.93717
 O176 O 0.43789 1.07144 1.08079
 O177 O 0.39180 1.03182 1.03910
 C178 C 0.39975 1.06039 1.06829
 O179 O 0.55849 1.07145 1.08348
 O180 O 0.60608 1.03538 1.04048
 C181 C 0.59719 1.06211 1.07111
 O182 O 0.43757 1.07642 0.93092
 O183 O 0.39185 1.03211 0.96769
 C184 C 0.39940 1.06342 0.94131
 Zr185 Zr 0.49839 1.05266 0.94998
 O186 O 0.50204 1.12030 0.95157
 O187 O 0.49277 1.05417 0.88203
 Zr188 Zr 0.49871 1.05004 1.05907
 O189 O 0.50130 1.11774 1.06020
 O190 O 0.49459 1.04820 1.12712
 Zr191 Zr 0.43639 0.99585 1.00332
 Zr192 Zr 0.56356 0.99891 1.00317
 O193 O 0.53540 1.06014 1.00460
 O194 O 0.46023 1.05890 1.00479
 O195 O 0.53804 0.99969 0.94026
 O196 O 0.46298 0.99484 1.06564
 O197 O 0.46258 0.99786 0.94090
 O198 O 0.53837 0.99665 1.06613
 H199 H 0.55882 0.91167 1.00112
 H200 H 0.44363 0.99382 1.09093
 H201 H 0.55400 1.08581 1.00498
 H202 H 0.44298 0.99796 0.91577
 H203 H 0.52201 0.95705 1.13587
 H204 H 0.51875 1.03055 1.13770
 H205 H 0.47623 1.12856 1.04396
 H206 H 0.47848 1.13063 0.97018
 H207 H 0.51596 1.03605 0.87017
 H208 H 0.52196 0.96280 0.86862
 H209 H 0.48590 0.86480 0.96421
 H210 H 0.48438 0.86287 1.03734
 O211 O 0.07258 0.56200 -0.07997
 O212 O 0.03161 0.60796 -0.03958
 C213 C 0.06042 0.60014 -0.06867
 O214 O -0.07998 0.43925 -0.07830
 O215 O -0.03702 0.39282 -0.04060
 C216 C -0.06746 0.40089 -0.06782
 O217 O -0.07673 0.55983 -0.08262
 O218 O -0.04054 0.60678 -0.03880
 C219 C -0.06720 0.59819 -0.06968
 O220 O 0.07836 0.44198 -0.07732
 O221 O 0.03581 0.39409 -0.04102
 C222 C 0.06643 0.40337 -0.06764
 Zr223 Zr 0.05185 0.50133 -0.05767
 O224 O 0.04945 0.49724 -0.12575
 O225 O 0.11941 0.50685 -0.06001
 Zr226 Zr -0.05654 0.49982 -0.05781
 O227 O -0.05714 0.49525 -0.12584
 O228 O -0.12426 0.50440 -0.05698
 O229 O -0.00286 0.53892 -0.06575
 O230 O -0.00176 0.46353 -0.06597
 O231 O 0.07721 0.43958 0.07065
 O232 O 0.03629 0.39304 0.03116
 C233 C 0.06607 0.40118 0.05903
 O234 O -0.07690 0.55830 0.07681
 O235 O -0.03944 0.60611 0.03528
 C236 C -0.06658 0.59702 0.06557
 O237 O -0.08030 0.43807 0.07050
 O238 O -0.03779 0.39213 0.03175
 C239 C -0.06798 0.39992 0.05935
 O240 O 0.07268 0.56019 0.07491
 O241 O 0.03144 0.60708 0.03556
 C242 C 0.06027 0.59853 0.06444
 Zr243 Zr 0.05199 0.49990 0.05128
 O244 O 0.05052 0.49464 0.11929
 O245 O 0.11963 0.50515 0.05243
 Zr246 Zr -0.05656 0.49869 0.05118
 O247 O -0.05680 0.49287 0.11912
 O248 O -0.12430 0.50312 0.05075
 Zr249 Zr -0.00324 0.56352 -0.00252
 Zr250 Zr -0.00142 0.43642 -0.00384
 O251 O -0.00178 0.46210 0.05878
 O252 O -0.00277 0.53730 0.06010
 O253 O 0.06085 0.46261 -0.00361
 O254 O -0.06492 0.53633 -0.00292
 O255 O 0.05918 0.53780 -0.00277
 O256 O -0.06441 0.46099 -0.00370
 H257 H -0.00141 0.44443 -0.09143
 H258 H -0.09024 0.55550 -0.00261
 H259 H -0.00154 0.44231 0.08374
 H260 H 0.08423 0.55726 -0.00256
 H261 H -0.13525 0.47936 -0.04092
 H262 H -0.13524 0.47932 0.03289
 H263 H -0.03787 0.51549 0.13066
 H264 H 0.03573 0.52030 0.13062
 H265 H 0.13131 0.48197 0.03419
 H266 H 0.13124 0.48670 -0.03849
 H267 H 0.03602 0.52385 -0.13663
 H268 H -0.03744 0.51741 -0.13699
 O269 O 1.08398 -0.06867 0.55964
 O270 O 1.03973 -0.03367 0.60712
 C271 C 1.07095 -0.05955 0.59835
 O272 O 1.07524 0.08356 0.44075
 O273 O 1.03673 0.04273 0.39296
 C274 C 1.06413 0.07255 0.40199
 O275 O 1.07691 0.07964 0.56201
 O276 O 1.03866 0.03693 0.60840
 C277 C 1.06674 0.06639 0.60037
 O278 O 1.07948 -0.07111 0.43792
 O279 O 1.03790 -0.03159 0.39149
 C280 C 1.06687 -0.06032 0.39947
 Zr281 Zr 1.05854 -0.04905 0.49914
 O282 O 1.12617 -0.04673 0.49406
 O283 O 1.06083 -0.11668 0.50323
 Zr284 Zr 1.05410 0.05921 0.50093
 O285 O 1.12176 0.06262 0.49717
 O286 O 1.04979 0.12668 0.50596
 O287 O 1.06474 0.00474 0.53837
 O288 O 1.06401 0.00591 0.46268
 O289 O 0.93227 -0.07834 0.43806
 O290 O 0.96700 -0.03282 0.39172
 C291 C 0.94177 -0.06478 0.39962
 O292 O 0.92012 0.07264 0.56150
 O293 O 0.96384 0.03572 0.60795
 C294 C 0.93258 0.06192 0.59996
 O295 O 0.92540 0.08045 0.44093
 O296 O 0.96458 0.04038 0.39298
 C297 C 0.93641 0.06949 0.40218
 O298 O 0.92789 -0.07628 0.55954
 O299 O 0.96587 -0.03482 0.60720
 C300 C 0.93794 -0.06415 0.59828
 Zr301 Zr 0.95021 -0.05342 0.49912
 O302 O 0.88252 -0.05445 0.49411
 O303 O 0.95144 -0.12104 0.50286
 Zr304 Zr 0.94580 0.05499 0.50084
 O305 O 0.87822 0.05226 0.49543
 O306 O 0.94309 0.12237 0.50744
 Zr307 Zr 1.00218 0.00184 0.56387
 Zr308 Zr 1.00194 0.00405 0.43607
 O309 O 0.94000 0.00112 0.46266
 O310 O 0.93961 -0.00021 0.53828
 O311 O 1.00467 -0.05888 0.46064
 O312 O 0.99965 0.06423 0.53846
 O313 O 1.00472 -0.05966 0.53635
 O314 O 0.99963 0.06612 0.46253
 H315 H 1.08918 0.00680 0.44325
 H316 H 0.99863 0.08884 0.55854
 H317 H 0.91497 0.00053 0.44300
 H318 H 1.00575 -0.08507 0.55545
 H319 H 1.03513 0.13737 0.47980
 H320 H 0.96168 0.13480 0.48487
 H321 H 0.86776 0.03280 0.51826
 H322 H 0.87080 -0.04074 0.52031
 H323 H 0.97246 -0.13121 0.48134
 H324 H 1.04531 -0.12822 0.47801
 H325 H 1.13677 -0.02839 0.51771
 H326 H 1.13349 0.04449 0.52052
 C327 C 1.14974 0.11463 0.32759
 C328 C 1.12535 0.13273 0.29379
 C329 C 1.08017 0.13151 0.29720
 C330 C 1.06029 0.11177 0.33233
 C331 C 1.08494 0.09436 0.36571
 C332 C 1.12970 0.09638 0.36343
 H333 H 1.18441 0.11578 0.32730
 H334 H 1.05985 0.14369 0.27170
 H335 H 1.02561 0.11014 0.33350
 H336 H 1.14918 0.08290 0.38899
 C337 C 0.88905 -0.08171 0.29151
 C338 C 0.88118 -0.12612 0.29142
 C339 C 0.89487 -0.15037 0.32732
 C340 C 0.91399 -0.13045 0.36284
 C341 C 0.92187 -0.08629 0.36237
 C342 C 0.91023 -0.06239 0.32596
 H343 H 0.88060 -0.06198 0.26407
 H344 H 0.88890 -0.18446 0.32905
 H345 H 0.92300 -0.14962 0.39051
 H346 H 0.91707 -0.02853 0.32432
 C347 C 0.84733 0.11365 0.66947
 C348 C 0.87027 0.12169 0.70752
 C349 C 0.91338 0.10911 0.71026
 C350 C 0.93329 0.08886 0.67552
 C351 C 0.91068 0.08163 0.63708
 C352 C 0.86753 0.09422 0.63431
 H353 H 0.81403 0.12314 0.66673
 H354 H 0.93155 0.11474 0.73944
 H355 H 0.96667 0.07970 0.67840
 H356 H 0.84939 0.08876 0.60507
 C357 C 1.08448 -0.12015 0.70230
 C358 C 1.12947 -0.12206 0.70701
 C359 C 1.15499 -0.10275 0.67474
 C360 C 1.13615 -0.08320 0.63879
 C361 C 1.09148 -0.08112 0.63504
 C362 C 1.06585 -0.09936 0.66717
 H363 H 1.06325 -0.13297 0.72665
 H364 H 1.18962 -0.10420 0.67610
 H365 H 1.15641 -0.06914 0.61424
 H366 H 1.03121 -0.09786 0.66487
 C367 C 0.29642 1.12150 1.08199
 C368 C 0.29289 1.12457 1.12729
 C369 C 0.32531 1.10550 1.15269
 C370 C 0.36037 1.08518 1.13344
 C371 C 0.36304 1.08188 1.08854
 C372 C 0.33065 1.09970 1.06296
 H373 H 0.27180 1.13425 1.06099
 H374 H 0.32481 1.10783 1.18747
 H375 H 0.38526 1.07161 1.15365
 H376 H 0.33219 1.09731 1.02816
 C377 C 0.29237 0.90834 0.89311
 C378 C 0.29767 0.86802 0.87413
 C379 C 0.33745 0.84724 0.87703
 C380 C 0.37187 0.86712 0.89791
 C381 C 0.36659 0.90758 0.91707
 C382 C 0.32634 0.92771 0.91482
 H383 H 0.26174 0.92464 0.89142
 H384 H 0.34194 0.81600 0.86262
 H385 H 0.40247 0.85077 0.89936
 H386 H 0.32126 0.95878 0.92928
 C387 C 0.67756 0.85147 1.11083
 C388 C 0.71178 0.87665 1.12652
 C389 C 0.70796 0.92162 1.12354
 C390 C 0.67191 0.94048 1.10453
 C391 C 0.63805 0.91508 1.08960
 C392 C 0.64089 0.87053 1.09335
 H393 H 0.67814 0.81693 1.11352
 H394 H 0.73364 0.94246 1.13390
 H395 H 0.67037 0.97503 1.10165
 H396 H 0.61505 0.85038 1.08190
 C397 C 0.66971 1.10664 0.85033
 C398 C 0.70185 1.12743 0.87459
 C399 C 0.69800 1.12736 0.91996
 C400 C 0.66404 1.10632 0.94018
 C401 C 0.63225 1.08626 0.91567
 C402 C 0.63495 1.08698 0.87067
 H403 H 0.67036 1.10682 0.81547
 H404 H 0.72231 1.14164 0.94024
 H405 H 0.66235 1.10599 0.97505
 H406 H 0.61049 1.07168 0.85129
 C407 C 0.14509 0.33384 0.12308
 C408 C 0.12698 0.29300 0.11901
 C409 C 0.08963 0.28762 0.09469
 C410 C 0.07045 0.32271 0.07459
 C411 C 0.08779 0.36404 0.07922
 C412 C 0.12545 0.36923 0.10360
 H413 H 0.17403 0.33833 0.14181
 H414 H 0.07544 0.25619 0.09120
 H415 H 0.04170 0.31744 0.05583
 H416 H 0.13974 0.40054 0.10755
 C417 C -0.14953 0.33222 -0.12562
 C418 C -0.12868 0.29240 -0.12634
 C419 C -0.08784 0.28842 -0.10802
 C420 C -0.06824 0.32363 -0.08869
 C421 C -0.08867 0.36381 -0.08832
 C422 C -0.12946 0.36783 -0.10720
 H423 H -0.18109 0.33578 -0.13975
 H424 H -0.07139 0.25785 -0.10820
 H425 H -0.03693 0.31940 -0.07423
 H426 H -0.14607 0.39830 -0.10717
 C427 C 0.08033 0.71093 -0.11385
 C428 C 0.12296 0.70739 -0.12794
 C429 C 0.14468 0.66836 -0.12292
 C430 C 0.12399 0.63328 -0.10434
 C431 C 0.08156 0.63691 -0.08958
 C432 C 0.05993 0.67610 -0.09436
 H433 H 0.06312 0.74088 -0.11734
 H434 H 0.17752 0.66497 -0.13375
 H435 H 0.14144 0.60350 -0.10080
 H436 H 0.02715 0.67968 -0.08340
 C437 C -0.10908 0.70795 0.08955
 C438 C -0.12856 0.70203 0.12979
 C439 C -0.12712 0.66164 0.14945
 C440 C -0.10719 0.62725 0.12855
 C441 C -0.08752 0.63312 0.08816
 C442 C -0.08828 0.67398 0.06918
 H443 H -0.10950 0.73911 0.07420
 H444 H -0.14175 0.65670 0.18070
 H445 H -0.10678 0.59623 0.14415
 H446 H -0.07312 0.67968 0.03836
 C447 C 1.12464 0.07974 0.70621
 C448 C 1.12687 0.12473 0.71018
 C449 C 1.10955 0.14993 0.67655
 C450 C 1.09110 0.13088 0.64032
 C451 C 1.08812 0.08631 0.63741
 C452 C 1.10475 0.06086 0.67064
 H453 H 1.13628 0.05887 0.73150
 H454 H 1.11159 0.18451 0.67719
 H455 H 1.07837 0.15101 0.61490
 H456 H 1.10255 0.02629 0.66892
 C457 C 0.89222 -0.14911 0.67153
 C458 C 0.87590 -0.12444 0.70595
 C459 C 0.88041 -0.07950 0.70380
 C460 C 0.90107 -0.06014 0.66901
 C461 C 0.91633 -0.08491 0.63473
 C462 C 0.91147 -0.12944 0.63597
 H463 H 0.88865 -0.18356 0.67100
 H464 H 0.86985 -0.05914 0.72993
 H465 H 0.90483 -0.02566 0.66872
 H466 H 0.92322 -0.14905 0.60973
 C467 C 1.08123 -0.10934 0.28906
 C468 C 1.12371 -0.12406 0.29111
 C469 C 1.14738 -0.11793 0.32909
 C470 C 1.12877 -0.09764 0.36460
 C471 C 1.08650 -0.08228 0.36233
 C472 C 1.06293 -0.08821 0.32421
 H473 H 1.06248 -0.11364 0.26001
 H474 H 1.18014 -0.12924 0.33137
 H475 H 1.14762 -0.09336 0.39359
 H476 H 1.03014 -0.07697 0.32179
 C477 C 0.86790 0.08584 0.30404
 C478 C 0.87366 0.12984 0.29491
 C479 C 0.90041 0.15366 0.32286
 C480 C 0.92038 0.13423 0.35822
 C481 C 0.91466 0.09056 0.36613
 C482 C 0.88818 0.06663 0.33912
 H483 H 0.84923 0.06529 0.28327
 H484 H 0.90494 0.18772 0.31870
 H485 H 0.94056 0.15320 0.37921
 H486 H 0.88289 0.03301 0.34544
 C487 C 0.08416 0.30195 -0.13033
 C488 C 0.12922 0.29733 -0.12924
 C489 C 0.15330 0.32915 -0.10780
 C490 C 0.13301 0.36426 -0.08857
 C491 C 0.08825 0.36762 -0.08903
 C492 C 0.06403 0.33628 -0.10992
 H493 H 0.06387 0.27795 -0.14496
 H494 H 0.18796 0.32793 -0.10703
 H495 H 0.15220 0.38841 -0.07265
 H496 H 0.02941 0.33856 -0.11071
 C497 C -0.08550 0.28993 0.10690
 C498 C -0.12786 0.29297 0.12168
 C499 C -0.15084 0.33108 0.11527
 C500 C -0.13139 0.36606 0.09511
 C501 C -0.08899 0.36301 0.08012
 C502 C -0.06640 0.32449 0.08584
 H503 H -0.06740 0.26063 0.11133
 H504 H -0.18360 0.33392 0.12647
 H505 H -0.14957 0.39532 0.09086
 H506 H -0.03369 0.32134 0.07472
 C507 C -0.11048 0.67267 -0.15543
 C508 C -0.12960 0.70534 -0.13046
 C509 C -0.12803 0.70134 -0.08513
 C510 C -0.10730 0.66672 -0.06568
 C511 C -0.08877 0.63446 -0.09077
 C512 C -0.09103 0.63727 -0.13575
 H513 H -0.11183 0.67344 -0.19026
 H514 H -0.14087 0.72597 -0.06429
 H515 H -0.10603 0.66492 -0.03088
 H516 H -0.07706 0.61244 -0.15568
 C517 C 0.14597 0.67167 0.10806
 C518 C 0.12171 0.70575 0.12542
 C519 C 0.07653 0.70328 0.12265
 C520 C 0.05659 0.66863 0.10244
 C521 C 0.08111 0.63483 0.08600
 C522 C 0.12584 0.63637 0.08930
 H523 H 0.18058 0.67120 0.11036
 H524 H 0.05633 0.72904 0.13417
 H525 H 0.02194 0.66805 0.09993
 H526 H 0.14526 0.61052 0.07663
 C527 C 0.28693 1.08525 0.90073
 C528 C 0.29172 1.12550 0.88137
 C529 C 0.33174 1.14585 0.88255
 C530 C 0.36684 1.12569 0.90199
 C531 C 0.36221 1.08523 0.92136
 C532 C 0.32171 1.06554 0.92105
 H533 H 0.25615 1.06924 0.90037
 H534 H 0.33594 1.17696 0.86772
 H535 H 0.39753 1.14184 0.90200
 H536 H 0.31699 1.03462 0.93599
 C537 C 0.29336 0.90812 1.11340
 C538 C 0.29639 0.86556 1.12751
 C539 C 0.33481 0.84294 1.12120
 C540 C 0.36996 0.86297 1.10161
 C541 C 0.36668 0.90550 1.08710
 C542 C 0.32797 0.92776 1.09305
 H543 H 0.26392 0.92603 1.11777
 H544 H 0.33773 0.81008 1.13196
 H545 H 0.39944 0.84514 1.09731
 H546 H 0.32464 0.96066 1.08251
 C547 C 0.66179 1.13016 1.14871
 C548 C 0.70287 1.12707 1.13068
 C549 C 0.70933 1.10232 1.09365
 C550 C 0.67506 1.08074 1.07474
 C551 C 0.63355 1.08401 1.09227
 C552 C 0.62724 1.10902 1.12945
 H553 H 0.65646 1.14920 1.17739
 H554 H 0.74103 1.09945 1.07962
 H555 H 0.68110 1.06181 1.04612
 H556 H 0.59568 1.11220 1.14369
 C557 C 0.67166 0.85691 0.87958
 C558 C 0.71011 0.87982 0.87553
 C559 C 0.71200 0.92228 0.89008
 C560 C 0.67619 0.94126 0.90925
 C561 C 0.63762 0.91838 0.91325
 C562 C 0.63554 0.87619 0.89785
 H563 H 0.66955 0.82421 0.86824
 H564 H 0.74141 0.94045 0.88722
 H565 H 0.67856 0.97390 0.92077
 H566 H 0.60629 0.85780 0.90084
   
