data_POSCAR
  _audit_creation_date              2014-09-24
  _audit_creation_method            'ToBaCCo'
  _symmetry_space_group_name_H-M    'P1'
  _symmetry_Int_Tables_number       1
  _symmetry_cell_setting            triclinic
  loop_
  _symmetry_equiv_pos_as_xyz
 x,y,z
_cell_length_a 40.5481
_cell_length_b 40.5892
_cell_length_c 12.3719
_cell_angle_alpha 89.855600
_cell_angle_beta 89.841000
_cell_angle_gamma 119.165700
loop_
  _atom_site_label
  _atom_site_type_symbol
  _atom_site_fract_x
  _atom_site_fract_y
  _atom_site_fract_z
C1 C 0.20157 0.47524 0.47988
 C2 C 0.20896 0.47033 0.59012
 C3 C 0.24539 0.48083 0.62489
 C4 C 0.27526 0.49204 0.55197
 C5 C 0.26825 0.49273 0.44001
 C6 C 0.23218 0.48578 0.40599
 H7 H 0.22779 0.48784 0.32041
 H8 H 0.25002 0.47724 0.70954
 C9 C 0.53432 -0.25550 0.44714
 C10 C 0.53907 -0.25343 0.56141
 C11 C 0.54008 -0.22301 0.61799
 C12 C 0.53552 -0.19497 0.56433
 C13 C 0.52846 -0.19841 0.45180
 C14 C 0.52803 -0.22828 0.39507
 H15 H 0.52250 -0.23035 0.30889
 H16 H 0.54417 -0.22135 0.70485
 C17 C 1.26707 0.78451 0.44085
 C18 C 1.26652 0.78520 0.55611
 C19 C 1.23775 0.75516 0.61349
 C20 C 1.20963 0.72394 0.55981
 C21 C 1.20947 0.72288 0.44597
 C22 C 1.23757 0.75339 0.38779
 H23 H 1.23599 0.75297 0.30029
 H24 H 1.23792 0.75553 0.70117
 C25 C 0.79199 0.52058 0.44926
 C26 C 0.79518 0.52568 0.56360
 C27 C 0.76757 0.53067 0.61834
 C28 C 0.73450 0.52477 0.56673
 C29 C 0.73146 0.52031 0.45272
 C30 C 0.76132 0.52014 0.39525
 H31 H 0.75981 0.51775 0.30794
 H32 H 0.77035 0.53600 0.70466
 C33 C 0.45111 0.26451 0.44959
 C34 C 0.45913 0.26746 0.56210
 C35 C 0.46165 0.23771 0.61350
 C36 C 0.45731 0.20598 0.55551
 C37 C 0.44901 0.20358 0.44356
 C38 C 0.44538 0.23243 0.39268
 H39 H 0.44148 0.23149 0.30581
 H40 H 0.46623 0.23884 0.70007
 C41 C 0.72581 0.20706 0.45140
 C42 C 0.72470 0.21263 0.56393
 C43 C 0.75516 0.24324 0.61355
 C44 C 0.78650 0.26929 0.55287
 C45 C 0.78727 0.26383 0.43989
 C46 C 0.75702 0.23283 0.39064
 H47 H 0.75738 0.22925 0.30389
 H48 H 0.75438 0.24685 0.70020
 N49 N 0.96127 0.52932 0.12586
 N50 N 0.93177 0.53424 0.14308
 N51 N 1.04152 0.54366 0.19338
 N52 N 1.06985 0.56101 0.26156
 N53 N 1.04096 0.56773 0.12332
 N54 N 1.06865 0.60215 0.14230
 N55 N 0.96217 0.50606 0.19799
 N56 N 0.93376 0.49504 0.26643
 C57 C 0.91456 0.51237 0.23124
 C58 C 1.08659 0.59742 0.22801
 N59 N 1.03911 0.44966 0.10416
 N60 N 1.06782 0.44296 0.11326
 N61 N 0.96016 0.43448 0.18530
 N62 N 0.93064 0.41634 0.24970
 N63 N 0.95958 0.41225 0.10755
 N64 N 0.93003 0.37825 0.11768
 N65 N 1.03996 0.47218 0.18127
 N66 N 1.06916 0.48150 0.24472
 Mn67 Mn 1.00101 0.48904 0.19079
 C68 C 1.08633 0.46318 0.20140
 C69 C 0.91220 0.38137 0.20633
 N70 N 1.04071 0.57067 -0.10976
 N71 N 1.07002 0.60477 -0.12160
 N72 N 0.96128 0.51161 -0.18644
 N73 N 0.93449 0.50568 -0.25650
 N74 N 0.96139 0.53313 -0.10713
 N75 N 0.93461 0.54230 -0.12062
 N76 N 1.04026 0.54834 -0.18714
 N77 N 1.06908 0.56647 -0.25344
 Mn78 Mn 1.00102 0.55063 0.00816
 C79 C 1.08759 0.60149 -0.21103
 C80 C 0.91809 0.52483 -0.21381
 N81 N 0.95887 0.41544 -0.12546
 N82 N 0.92999 0.38153 -0.14311
 N83 N 1.03912 0.47692 -0.19789
 N84 N 1.06836 0.48728 -0.26366
 N85 N 1.03812 0.45267 -0.12584
 N86 N 1.06647 0.44595 -0.13963
 N87 N 0.95930 0.43981 -0.19628
 N88 N 0.93052 0.42335 -0.26317
 Mn89 Mn 0.99881 0.43207 -0.00997
 Mn90 Mn 1.00001 0.49418 -0.19334
 Cl91 Cl 1.00014 0.49152 -0.00112
 C92 C 0.91254 0.38709 -0.22878
 C93 C 1.08500 0.46760 -0.22561
 N94 N 0.45633 0.43134 0.12176
 N95 N 0.44752 0.39579 0.13751
 N96 N 0.44511 0.49923 0.18673
 N97 N 0.42738 0.51242 0.24796
 N98 N 0.42273 0.47793 0.10970
 N99 N 0.38935 0.47605 0.11646
 N100 N 0.47907 0.45284 0.19790
 N101 N 0.48633 0.43253 0.26749
 C102 C 0.46673 0.39703 0.22825
 C103 C 0.39265 0.49803 0.20245
 N104 N 0.54410 0.58602 0.11840
 N105 N 0.55251 0.62157 0.12934
 N106 N 0.55331 0.51891 0.20181
 N107 N 0.56985 0.50745 0.27323
 N108 N 0.57771 0.53993 0.12723
 N109 N 0.61124 0.54334 0.14527
 N110 N 0.51885 0.56484 0.19060
 N111 N 0.50907 0.58535 0.25120
 Mn112 Mn 0.49908 0.50893 0.19587
 C113 C 0.53014 0.62085 0.21182
 C114 C 0.60590 0.52284 0.23603
 N115 N 0.42662 0.47730 -0.12245
 N116 N 0.39328 0.47378 -0.14493
 N117 N 0.48500 0.45184 -0.18412
 N118 N 0.49264 0.43078 -0.24963
 N119 N 0.45986 0.43076 -0.11114
 N120 N 0.44947 0.39478 -0.12546
 N121 N 0.45159 0.49812 -0.19596
 N122 N 0.43602 0.50915 -0.27097
 Mn123 Mn 0.44097 0.45396 -0.00043
 C124 C 0.39983 0.49392 -0.23740
 C125 C 0.47038 0.39538 -0.21150
 N126 N 0.58099 0.53932 -0.10408
 N127 N 0.61478 0.54247 -0.11574
 N128 N 0.52479 0.56444 -0.19048
 N129 N 0.51868 0.58521 -0.26152
 N130 N 0.54755 0.58575 -0.11407
 N131 N 0.55779 0.62158 -0.13114
 N132 N 0.55829 0.51811 -0.18046
 N133 N 0.57598 0.50652 -0.24664
 Mn134 Mn 0.56295 0.56310 0.00698
 Mn135 Mn 0.50494 0.50812 -0.18895
 Cl136 Cl 0.50197 0.50847 0.00343
 C137 C 0.61102 0.52133 -0.20428
 C138 C 0.53951 0.62071 -0.22315
 N139 N 0.41105 -0.04051 0.11378
 N140 N 0.37744 -0.07050 0.12561
 N141 N 0.46876 0.04062 0.18786
 N142 N 0.47700 0.06942 0.25216
 N143 N 0.44548 0.03872 0.11140
 N144 N 0.43698 0.06611 0.12231
 N145 N 0.43382 -0.03866 0.19166
 N146 N 0.41624 -0.06734 0.25913
 C147 C 0.38124 -0.08689 0.21636
 C148 C 0.45716 0.08516 0.21001
 N149 N 0.56600 0.04663 0.12319
 N150 N 0.60054 0.07343 0.14502
 N151 N 0.50706 -0.03384 0.19954
 N152 N 0.49793 -0.06210 0.26752
 N153 N 0.53152 -0.03244 0.12736
 N154 N 0.53977 -0.05971 0.14443
 N155 N 0.54202 0.04543 0.19671
 N156 N 0.55975 0.07153 0.27097
 Mn157 Mn 0.48786 0.00340 0.19526
 C158 C 0.59609 0.08906 0.23615
 C159 C 0.51831 -0.07818 0.23151
 N160 N 0.44742 0.03764 -0.12183
 N161 N 0.43889 0.06473 -0.13882
 N162 N 0.43761 -0.04058 -0.18967
 N163 N 0.42179 -0.07054 -0.25267
 N164 N 0.41320 -0.04157 -0.11794
 N165 N 0.38012 -0.07213 -0.13052
 N166 N 0.47190 0.03908 -0.19403
 N167 N 0.48103 0.06750 -0.26159
 Mn168 Mn 0.42889 -0.00141 -0.00373
 C169 C 0.46015 0.08308 -0.22604
 C170 C 0.38596 -0.09013 -0.21427
 N171 N 0.53409 -0.03294 -0.10522
 N172 N 0.54678 -0.05687 -0.12231
 N173 N 0.54515 0.04401 -0.18690
 N174 N 0.56250 0.07234 -0.25537
 N175 N 0.56799 0.04625 -0.10886
 N176 N 0.60137 0.07649 -0.12163
 N177 N 0.51144 -0.03474 -0.18331
 N178 N 0.50838 -0.05977 -0.25603
 Mn179 Mn 0.55024 0.00689 0.00916
 Mn180 Mn 0.49144 0.00190 -0.18982
 Cl181 Cl 0.48964 0.00271 0.00274
 C182 C 0.53070 -0.07330 -0.21710
 C183 C 0.59745 0.09281 -0.21294
 C184 C 1.12640 0.43899 0.44669
 C185 C 1.16588 0.47244 0.44188
 C186 C 1.17194 0.50166 0.36916
 C187 C 1.14767 0.49743 0.28523
 C188 C 1.11826 0.46243 0.25556
 C189 C 1.11149 0.43053 0.31614
 C190 C 1.08544 0.38153 0.57857
 C191 C 1.05126 0.34558 0.51286
 C192 C 1.04660 0.36239 0.38660
 C193 C 1.07592 0.38912 0.28041
 H194 H 1.08856 0.37670 0.66412
 H195 H 1.02856 0.32192 0.55462
 H196 H 1.03432 0.38441 0.40561
 H197 H 1.06362 0.38564 0.20120
 H198 H 1.19750 0.52872 0.37520
 H199 H 1.15246 0.52229 0.24015
 C200 C 0.55614 0.72277 0.28727
 C201 C 0.53447 0.71542 0.38428
 C202 C 0.51061 0.67784 0.41487
 C203 C 0.50940 0.64823 0.35644
 C204 C 0.53020 0.65443 0.26062
 C205 C 0.55190 0.69212 0.22117
 C206 C 0.58324 0.75992 0.25655
 C207 C 0.60187 0.76712 0.15746
 C208 C 0.59415 0.73765 0.08720
 C209 C 0.56952 0.70056 0.11823
 H210 H 0.59057 0.78377 0.30889
 H211 H 0.62194 0.79579 0.13437
 H212 H 0.60762 0.74350 0.00849
 H213 H 0.56381 0.67927 0.05845
 H214 H 0.49204 0.67101 0.48415
 H215 H 0.49166 0.61994 0.38735
 C216 C 0.31447 -0.19001 0.28889
 C217 C 0.29516 -0.18506 0.37922
 C218 C 0.30337 -0.14815 0.40591
 C219 C 0.33129 -0.11689 0.35233
 C220 C 0.35058 -0.12121 0.26516
 C221 C 0.34124 -0.15774 0.22924
 C222 C 0.30986 -0.22571 0.25990
 C223 C 0.32771 -0.22995 0.16861
 C224 C 0.35165 -0.19869 0.10643
 C225 C 0.35897 -0.16276 0.13721
 H226 H 0.29327 -0.25058 0.30827
 H227 H 0.32333 -0.25762 0.14691
 H228 H 0.36552 -0.20214 0.03592
 H229 H 0.37886 -0.13898 0.08909
 H230 H 0.28732 -0.14322 0.46737
 H231 H 0.33753 -0.08896 0.37825
 C232 C 0.82531 0.48255 0.40894
 C233 C 0.81878 0.51305 0.38501
 C234 C 0.84047 0.53906 0.30520
 C235 C 0.87012 0.53703 0.25494
 C236 C 0.87994 0.50942 0.28390
 C237 C 0.85688 0.48121 0.36182
 C238 C 0.80097 0.45350 0.48006
 C239 C 0.80875 0.42509 0.51103
 C240 C 0.84027 0.42444 0.46996
 C241 C 0.86363 0.45153 0.39474
 H242 H 0.77575 0.45260 0.51263
 H243 H 0.78999 0.40331 0.56633
 H244 H 0.84594 0.40196 0.49351
 H245 H 0.88584 0.44738 0.36229
 H246 H 0.83546 0.56224 0.28496
 H247 H 0.88662 0.55857 0.19569
 C248 C 0.49331 0.32942 0.37213
 C249 C 0.45690 0.29790 0.38547
 C250 C 0.42570 0.29842 0.33957
 C251 C 0.42984 0.33060 0.28689
 C252 C 0.46516 0.36336 0.27997
 C253 C 0.49756 0.36287 0.32165
 C254 C 0.52573 0.32783 0.40580
 C255 C 0.56142 0.35890 0.39407
 C256 C 0.56559 0.39228 0.35053
 C257 C 0.53426 0.39420 0.31199
 H258 H 0.52392 0.30242 0.43973
 H259 H 0.58591 0.35681 0.41825
 H260 H 0.59338 0.41660 0.34545
 H261 H 0.53949 0.42014 0.27320
 H262 H 0.39781 0.27409 0.34731
 H263 H 0.40493 0.33033 0.25432
 C264 C 0.68296 0.13711 0.41553
 C265 C 0.69372 0.17543 0.39502
 C266 C 0.67234 0.18420 0.32344
 C267 C 0.64007 0.15578 0.27501
 C268 C 0.62816 0.11786 0.29727
 C269 C 0.64946 0.10810 0.36799
 C270 C 0.70512 0.12697 0.48076
 C271 C 0.69357 0.08917 0.50287
 C272 C 0.66020 0.06083 0.45907
 C273 C 0.63838 0.07004 0.39156
 H274 H 0.73151 0.14813 0.51498
 H275 H 0.71064 0.08184 0.55408
 H276 H 0.65136 0.03154 0.47664
 H277 H 0.61283 0.04718 0.35821
 H278 H 0.68041 0.21337 0.30643
 H279 H 0.62443 0.16341 0.21886
 C280 C 0.49183 0.18327 -0.32510
 C281 C 0.46019 0.17672 -0.38995
 C282 C 0.42973 0.13978 -0.39687
 C283 C 0.43004 0.10999 -0.34189
 C284 C 0.46051 0.11607 -0.27670
 C285 C 0.49128 0.15293 -0.26531
 C286 C 0.52506 0.21863 -0.32362
 C287 C 0.55503 0.22514 -0.25581
 C288 C 0.55306 0.19621 -0.19075
 C289 C 0.52178 0.16021 -0.19643
 H290 H 0.52861 0.24100 -0.37750
 H291 H 0.58009 0.25260 -0.25488
 H292 H 0.57641 0.20136 -0.13836
 H293 H 0.52183 0.13811 -0.14733
 H294 H 0.40482 0.13398 -0.44287
 H295 H 0.40621 0.08185 -0.35037
 C296 C 0.66845 0.48718 -0.37038
 C297 C 0.70407 0.52054 -0.36853
 C298 C 0.70923 0.55017 -0.30041
 C299 C 0.67885 0.54905 -0.24501
 C300 C 0.64244 0.51814 -0.25471
 C301 C 0.63715 0.48604 -0.31447
 C302 C 0.66406 0.45412 -0.42087
 C303 C 0.62929 0.42141 -0.42179
 C304 C 0.59817 0.42075 -0.37256
 C305 C 0.60208 0.45226 -0.31687
 H306 H 0.68767 0.45290 -0.45762
 H307 H 0.62684 0.39634 -0.45918
 H308 H 0.57108 0.39530 -0.37490
 H309 H 0.57764 0.44898 -0.27309
 H310 H 0.73652 0.57543 -0.29518
 H311 H 0.68364 0.57346 -0.19798
 C312 C 0.81172 0.32649 -0.33161
 C313 C 0.81665 0.29972 -0.39376
 C314 C 0.85241 0.30218 -0.39713
 C315 C 0.88289 0.33034 -0.34185
 C316 C 0.87874 0.35706 -0.28124
 C317 C 0.84304 0.35524 -0.27461
 C318 C 0.77677 0.32632 -0.32796
 C319 C 0.77219 0.35204 -0.26409
 C320 C 0.80243 0.37909 -0.20543
 C321 C 0.83771 0.38116 -0.21138
 H322 H 0.75276 0.30656 -0.37462
 H323 H 0.74511 0.35119 -0.26083
 H324 H 0.79854 0.39867 -0.15549
 H325 H 0.86056 0.40292 -0.16528
 H326 H 0.85656 0.28120 -0.43958
 H327 H 0.91005 0.33134 -0.34662
 C328 C 0.56914 -0.13779 -0.32091
 C329 C 0.53643 -0.16488 -0.37637
 C330 C 0.50410 -0.16078 -0.37660
 C331 C 0.50370 -0.13050 -0.32674
 C332 C 0.53506 -0.10361 -0.27056
 C333 C 0.56859 -0.10668 -0.26824
 C334 C 0.60313 -0.13954 -0.32236
 C335 C 0.63544 -0.11203 -0.27166
 C336 C 0.63500 -0.08172 -0.22109
 C337 C 0.60221 -0.07869 -0.22033
 H338 H 0.60542 -0.16169 -0.36417
 H339 H 0.66119 -0.11386 -0.27339
 H340 H 0.66045 -0.06003 -0.18383
 H341 H 0.60424 -0.05360 -0.18456
 H342 H 0.47842 -0.18172 -0.41425
 H343 H 0.47820 -0.12831 -0.33092
 C344 C 0.32770 0.52353 -0.31784
 C345 C 0.31016 0.49841 -0.40579
 C346 C 0.32499 0.47534 -0.44063
 C347 C 0.35510 0.47542 -0.38723
 C348 C 0.37075 0.49788 -0.29623
 C349 C 0.35790 0.52280 -0.26184
 C350 C 0.31649 0.55010 -0.28619
 C351 C 0.33362 0.57411 -0.19902
 C352 C 0.36241 0.57251 -0.14238
 C353 C 0.37466 0.54724 -0.17345
 H354 H 0.29481 0.55289 -0.32941
 H355 H 0.32460 0.59417 -0.17559
 H356 H 0.37560 0.59121 -0.07478
 H357 H 0.39757 0.54731 -0.12853
 H358 H 0.31157 0.45502 -0.50456
 H359 H 0.36507 0.45638 -0.41396
 C360 C 1.18193 0.65854 -0.35801
 C361 C 1.18074 0.69244 -0.37516
 C362 C 1.15138 0.69675 -0.33044
 C363 C 1.12228 0.66738 -0.27339
 C364 C 1.12150 0.63273 -0.26073
 C365 C 1.15188 0.62820 -0.30104
 C366 C 1.21266 0.65440 -0.39492
 C367 C 1.21329 0.62070 -0.37901
 C368 C 1.18392 0.59094 -0.32363
 C369 C 1.15371 0.59467 -0.28365
 H370 H 1.23659 0.67731 -0.43507
 H371 H 1.23693 0.61785 -0.40854
 H372 H 1.18482 0.56502 -0.31012
 H373 H 1.13243 0.57134 -0.23742
 H374 H 1.15059 0.72283 -0.34204
 H375 H 1.09936 0.67125 -0.24257
 C376 C 0.81785 0.50343 -0.27846
 C377 C 0.82466 0.52516 -0.37574
 C378 C 0.86214 0.54698 -0.41216
 C379 C 0.89194 0.54644 -0.35868
 C380 C 0.88581 0.52608 -0.26286
 C381 C 0.84898 0.50561 -0.21935
 C382 C 0.78094 0.47757 -0.24180
 C383 C 0.77511 0.45876 -0.14324
 C384 C 0.80573 0.46381 -0.08116
 C385 C 0.84234 0.48603 -0.12007
 H386 H 0.75614 0.47095 -0.28904
 H387 H 0.74666 0.43982 -0.11546
 H388 H 0.80105 0.44908 -0.00476
 H389 H 0.86526 0.48755 -0.07190
 H390 H 0.86866 0.56495 -0.48274
 H391 H 0.92023 0.56255 -0.39165
 C392 C 0.49450 0.32013 -0.30612
 C393 C 0.46354 0.29911 -0.37732
 C394 C 0.43561 0.31000 -0.38733
 C395 C 0.43797 0.34073 -0.33131
 C396 C 0.46794 0.36141 -0.26142
 C397 C 0.49590 0.35068 -0.24553
 C398 C 0.52553 0.31352 -0.29901
 C399 C 0.55468 0.33319 -0.22579
 C400 C 0.55437 0.36097 -0.16084
 C401 C 0.52565 0.37021 -0.17174
 H402 H 0.52821 0.29408 -0.35217
 H403 H 0.57793 0.32727 -0.22070
 H404 H 0.57713 0.37628 -0.10443
 H405 H 0.52705 0.39288 -0.12253
 H406 H 0.41115 0.29412 -0.43785
 H407 H 0.41625 0.34860 -0.34320
 C408 C 0.65543 0.18253 -0.38417
 C409 C 0.69176 0.18652 -0.36910
 C410 C 0.69660 0.16325 -0.29494
 C411 C 0.66567 0.13408 -0.24310
 C412 C 0.62878 0.12707 -0.26365
 C413 C 0.62342 0.15224 -0.33277
 C414 C 0.65053 0.20850 -0.44867
 C415 C 0.61475 0.20402 -0.46636
 C416 C 0.58329 0.17404 -0.41919
 C417 C 0.58748 0.14889 -0.35110
 H418 H 0.67437 0.23257 -0.48556
 H419 H 0.61160 0.22424 -0.51584
 H420 H 0.55553 0.17082 -0.43313
 H421 H 0.56229 0.12782 -0.31167
 H422 H 0.72441 0.16647 -0.28133
 H423 H 0.67065 0.11573 -0.18988
 C424 C 1.14628 0.43036 -0.38008
 C425 C 1.17997 0.45534 -0.33562
 C426 C 1.18160 0.47672 -0.24474
 C427 C 1.15043 0.48000 -0.21094
 C428 C 1.11771 0.46688 -0.27348
 C429 C 1.11345 0.44553 -0.36635
 C430 C 1.14638 0.39865 -0.47780
 C431 C 1.11089 0.37983 -0.57563
 C432 C 1.06456 0.40301 -0.55022
 C433 C 1.07500 0.43341 -0.44595
 H434 H 1.16934 0.39226 -0.48086
 H435 H 1.10917 0.35838 -0.63161
 H436 H 1.05488 0.44266 -0.42599
 H437 H 1.20831 0.49435 -0.20526
 H438 H 1.15301 0.49582 -0.13803
 C439 C 0.57419 0.71086 -0.39061
 C440 C 0.54326 0.71753 -0.37589
 C441 C 0.51347 0.69386 -0.30711
 C442 C 0.51282 0.66262 -0.25824
 C443 C 0.54220 0.65452 -0.27540
 C444 C 0.57349 0.67886 -0.34061
 C445 C 0.60568 0.73518 -0.45442
 C446 C 0.63537 0.72760 -0.47081
 C447 C 0.63440 0.69598 -0.42340
 C448 C 0.60385 0.67180 -0.35859
 H449 H 0.60763 0.76021 -0.49177
 H450 H 0.65926 0.74638 -0.52047
 H451 H 0.65752 0.69024 -0.43660
 H452 H 0.60420 0.64758 -0.32300
 H453 H 0.48969 0.69869 -0.29509
 H454 H 0.48894 0.64432 -0.20764
 C455 C 0.33262 -0.18404 -0.36573
 C456 C 0.29755 -0.18501 -0.37962
 C457 C 0.29098 -0.15811 -0.32797
 C458 C 0.31980 -0.12816 -0.27271
 C459 C 0.35573 -0.12490 -0.26409
 C460 C 0.36177 -0.15417 -0.30546
 C461 C 0.33874 -0.21303 -0.40687
 C462 C 0.37200 -0.21373 -0.38418
 C463 C 0.39977 -0.18554 -0.32145
 C464 C 0.39516 -0.15565 -0.28362
 H465 H 0.31744 -0.23601 -0.45366
 H466 H 0.37588 -0.23675 -0.41315
 H467 H 0.42469 -0.18733 -0.30049
 H468 H 0.41720 -0.13481 -0.23343
 H469 H 0.26373 -0.15940 -0.33484
 H470 H 0.31424 -0.10671 -0.23914
 C471 C 0.48794 -0.17440 0.36335
 C472 C 0.52393 -0.16968 0.38949
 C473 C 0.55647 -0.13657 0.35931
 C474 C 0.55384 -0.10782 0.30542
 C475 C 0.51861 -0.11079 0.28363
 C476 C 0.48511 -0.14429 0.31288
 C477 C 0.45465 -0.20819 0.38898
 C478 C 0.41932 -0.21162 0.36995
 C479 C 0.41649 -0.18186 0.32387
 C480 C 0.44883 -0.14888 0.29271
 H481 H 0.45569 -0.23182 0.42622
 H482 H 0.39398 -0.23738 0.39171
 H483 H 0.38904 -0.18444 0.31211
 H484 H 0.44487 -0.12734 0.25312
 H485 H 0.58412 -0.13289 0.37846
 H486 H 0.57963 -0.08245 0.28361
 C487 C 0.33377 0.53354 0.35847
 C488 C 0.29832 0.50002 0.35848
 C489 C 0.29354 0.46992 0.29313
 C490 C 0.32416 0.47086 0.23880
 C491 C 0.36059 0.50198 0.24739
 C492 C 0.36518 0.53467 0.30238
 C493 C 0.33857 0.56588 0.41393
 C494 C 0.37337 0.59883 0.41349
 C495 C 0.40378 0.60032 0.35695
 C496 C 0.39989 0.56870 0.30169
 H497 H 0.31529 0.56605 0.45654
 H498 H 0.37661 0.62353 0.45593
 H499 H 0.43039 0.62632 0.35486
 H500 H 0.42400 0.57168 0.25631
 H501 H 0.26657 0.44419 0.29146
 H502 H 0.31966 0.44590 0.19522
 C503 C 1.18587 0.66273 0.33584
 C504 C 1.17943 0.69042 0.38651
 C505 C 1.14344 0.68710 0.38253
 C506 C 1.11389 0.65690 0.32994
 C507 C 1.11923 0.62870 0.28164
 C508 C 1.15540 0.63139 0.28389
 C509 C 1.22189 0.66541 0.33600
 C510 C 1.22781 0.63793 0.28630
 C511 C 1.19814 0.60747 0.23507
 C512 C 1.16221 0.60408 0.23357
 H513 H 1.24573 0.68864 0.37454
 H514 H 1.25561 0.64037 0.28718
 H515 H 1.20309 0.58647 0.19579
 H516 H 1.14002 0.58014 0.19204
 H517 H 1.13823 0.70815 0.42059
 H518 H 1.08639 0.65522 0.32820
 C519 C 0.48820 0.18039 0.34411
 C520 C 0.45241 0.17571 0.37376
 C521 C 0.41959 0.14420 0.33732
 C522 C 0.42174 0.11579 0.27999
 C523 C 0.45676 0.11829 0.25727
 C524 C 0.49047 0.15139 0.28569
 C525 C 0.52180 0.21375 0.36940
 C526 C 0.55676 0.21865 0.33641
 C527 C 0.55909 0.19026 0.27988
 C528 C 0.52638 0.15690 0.25453
 H529 H 0.52132 0.23668 0.41243
 H530 H 0.58216 0.24478 0.35403
 H531 H 0.58638 0.19437 0.25430
 H532 H 0.52952 0.13614 0.20767
 H533 H 0.39211 0.14094 0.35704
 H534 H 0.39580 0.09090 0.25721
 C535 C 0.67684 0.49052 0.31582
 C536 C 0.69863 0.51888 0.39280
 C537 C 0.68910 0.54719 0.41450
 C538 C 0.65817 0.54707 0.36585
 C539 C 0.63665 0.51973 0.28970
 C540 C 0.64666 0.49203 0.26080
 C541 C 0.68377 0.46035 0.29300
 C542 C 0.66374 0.43434 0.21223
 C543 C 0.63603 0.43739 0.15386
 C544 C 0.62715 0.46567 0.17848
 H545 H 0.70443 0.45629 0.33738
 H546 H 0.66971 0.41164 0.19492
 H547 H 0.62067 0.41716 0.09113
 H548 H 0.60462 0.46640 0.13365
 H549 H 0.70573 0.56965 0.47050
 H550 H 0.65145 0.56911 0.38610
 C551 C 0.81378 0.32387 0.32863
 C552 C 0.81687 0.29285 0.36957
 C553 C 0.84860 0.28930 0.34355
 C554 C 0.87885 0.31783 0.28719
 C555 C 0.87764 0.35009 0.25289
 C556 C 0.84422 0.35242 0.26799
 C557 C 0.78084 0.32680 0.34515
 C558 C 0.77737 0.35629 0.29860
 C559 C 0.80659 0.38344 0.23581
 C560 C 0.83996 0.38190 0.22143
 H561 H 0.75731 0.30602 0.39227
 H562 H 0.75182 0.35803 0.31095
 H563 H 0.80366 0.40618 0.19956
 H564 H 0.86209 0.40363 0.17256
 H565 H 0.85058 0.26495 0.37090
 H566 H 0.90393 0.31529 0.27347
   
