data_POSCAR
  _audit_creation_date              2014-09-24
  _audit_creation_method            'ToBaCCo'
  _symmetry_space_group_name_H-M    'P1'
  _symmetry_Int_Tables_number       1
  _symmetry_cell_setting            triclinic
  loop_
  _symmetry_equiv_pos_as_xyz
 x,y,z
_cell_length_a 56.4342
_cell_length_b 56.4074
_cell_length_c 21.9521
_cell_angle_alpha 89.984200
_cell_angle_beta 89.950400
_cell_angle_gamma 119.829600
loop_
  _atom_site_label
  _atom_site_type_symbol
  _atom_site_fract_x
  _atom_site_fract_y
  _atom_site_fract_z
C1 C 0.18525 0.49933 0.49891
 C2 C 0.19859 0.50136 0.44392
 C3 C 0.22391 0.50237 0.44393
 C4 C 0.23556 0.49955 0.49881
 C5 C 0.22106 0.49659 0.55368
 C6 C 0.19667 0.49741 0.55382
 C7 C 0.26244 0.49972 0.49894
 C8 C 0.27709 0.50298 0.55378
 C9 C 0.30158 0.50233 0.55374
 C10 C 0.31278 0.50008 0.49897
 C11 C 0.29935 0.49780 0.44423
 C12 C 0.27404 0.49671 0.44416
 H13 H 0.16598 0.49927 0.49896
 H14 H 0.23413 0.50550 0.40063
 H15 H 0.22821 0.49354 0.59696
 H16 H 0.27011 0.50626 0.59704
 H17 H 0.33207 0.50021 0.49889
 H18 H 0.26387 0.49341 0.40081
 C19 C 0.49892 -0.31531 0.49928
 C20 C 0.49797 -0.30335 0.44449
 C21 C 0.49752 -0.27874 0.44462
 C22 C 0.49865 -0.26513 0.49995
 C23 C 0.49975 -0.27783 0.55488
 C24 C 0.49949 -0.30279 0.55435
 C25 C 0.49858 -0.23825 0.50040
 C26 C 0.49730 -0.22583 0.55572
 C27 C 0.49758 -0.20086 0.55574
 C28 C 0.49851 -0.18801 0.50099
 C29 C 0.49932 -0.19983 0.44600
 C30 C 0.49974 -0.22442 0.44545
 H31 H 0.49904 -0.33452 0.49907
 H32 H 0.49609 -0.27088 0.40091
 H33 H 0.50085 -0.26889 0.59884
 H34 H 0.49593 -0.23499 0.59954
 H35 H 0.49848 -0.16878 0.50116
 H36 H 0.50101 -0.23210 0.40141
 C37 C 1.31361 0.81339 0.49955
 C38 C 1.30132 0.80118 0.44457
 C39 C 1.27635 0.77658 0.44439
 C40 C 1.26313 0.76350 0.49966
 C41 C 1.27642 0.77649 0.55479
 C42 C 1.30131 0.80109 0.55445
 C43 C 1.23608 0.73677 0.49982
 C44 C 1.22273 0.72381 0.55505
 C45 C 1.19786 0.69910 0.55487
 C46 C 1.18562 0.68683 0.49983
 C47 C 1.19813 0.69898 0.44491
 C48 C 1.22303 0.72358 0.44470
 H49 H 1.33292 0.83248 0.49973
 H50 H 1.26788 0.76823 0.40045
 H51 H 1.26812 0.76807 0.59884
 H52 H 1.23109 0.73231 0.59899
 H53 H 1.16635 0.66772 0.49961
 H54 H 1.23162 0.73174 0.40069
 C55 C 0.81308 0.49945 0.50007
 C56 C 0.80157 0.50102 0.44523
 C57 C 0.77722 0.50194 0.44515
 C58 C 0.76312 0.49996 0.50024
 C59 C 0.77500 0.49754 0.55516
 C60 C 0.79998 0.49790 0.55490
 C61 C 0.73645 0.50034 0.50048
 C62 C 0.72455 0.50267 0.55556
 C63 C 0.69959 0.50243 0.55558
 C64 C 0.68662 0.50115 0.50062
 C65 C 0.69806 0.49936 0.44573
 C66 C 0.72233 0.49834 0.44560
 H67 H 0.83224 0.49932 0.50005
 H68 H 0.76991 0.50429 0.40150
 H69 H 0.76533 0.49515 0.59881
 H70 H 0.73425 0.50484 0.59910
 H71 H 0.66754 0.50146 0.50049
 H72 H 0.72953 0.49577 0.40198
 C73 C 0.49744 0.31267 0.50164
 C74 C 0.49929 0.30114 0.44692
 C75 C 0.50042 0.27690 0.44726
 C76 C 0.49839 0.26287 0.50246
 C77 C 0.49613 0.27494 0.55726
 C78 C 0.49631 0.29987 0.55682
 C79 C 0.49847 0.23602 0.50283
 C80 C 0.50069 0.22408 0.55794
 C81 C 0.49972 0.19875 0.55811
 C82 C 0.49789 0.18546 0.50326
 C83 C 0.49650 0.19707 0.44829
 C84 C 0.49614 0.22170 0.44802
 H85 H 0.49705 0.33171 0.50121
 H86 H 0.50305 0.26963 0.40380
 H87 H 0.49407 0.26541 0.60100
 H88 H 0.50331 0.23401 0.60136
 H89 H 0.49763 0.16609 0.50326
 H90 H 0.49389 0.22905 0.40432
 C91 C 0.68727 0.18629 0.50151
 C92 C 0.69977 0.19835 0.44650
 C93 C 0.72456 0.22310 0.44621
 C94 C 0.73719 0.23672 0.50136
 C95 C 0.72368 0.22396 0.55653
 C96 C 0.69920 0.19894 0.55642
 C97 C 0.76391 0.26375 0.50140
 C98 C 0.77741 0.27653 0.55658
 C99 C 0.80192 0.30160 0.55626
 C100 C 0.81381 0.31418 0.50121
 C101 C 0.80120 0.30218 0.44641
 C102 C 0.77646 0.27743 0.44623
 H103 H 0.66815 0.16705 0.50156
 H104 H 0.73338 0.23107 0.40222
 H105 H 0.73148 0.23292 0.60044
 H106 H 0.76948 0.26759 0.60051
 H107 H 0.83292 0.33347 0.50089
 H108 H 0.76756 0.26955 0.40231
 O109 O 0.96338 0.44157 0.11358
 O110 O 0.93296 0.44680 0.05359
 C111 C 0.93883 0.43538 0.09773
 O112 O 1.03954 0.56222 0.10617
 O113 O 1.06975 0.55504 0.05018
 C114 C 1.06402 0.56810 0.09071
 O115 O 0.96319 0.52200 0.11210
 O116 O 0.93291 0.48588 0.05339
 C117 C 0.93869 0.50347 0.09676
 O118 O 1.03956 0.47668 0.10646
 O119 O 1.06977 0.51405 0.05028
 C120 C 1.06406 0.49527 0.09094
 Zr121 Zr 1.00137 0.47029 0.07501
 O122 O 1.00230 0.46675 0.17075
 O123 O 1.00005 0.43245 0.06371
 Zr124 Zr 1.00129 0.53045 0.07516
 O125 O 1.00402 0.53333 0.17126
 O126 O 0.99833 0.56641 0.07062
 O127 O 0.97723 0.48836 0.08734
 O128 O 1.02489 0.51214 0.08653
 O129 O 1.03963 0.47674 -0.10857
 O130 O 1.06977 0.51423 -0.05314
 C131 C 1.06411 0.49539 -0.09340
 O132 O 0.96310 0.52189 -0.11422
 O133 O 0.93287 0.48590 -0.05496
 C134 C 0.93862 0.50342 -0.09848
 O135 O 1.03961 0.56200 -0.10913
 O136 O 1.06986 0.55484 -0.05322
 C137 C 1.06412 0.56784 -0.09390
 O138 O 0.96333 0.44152 -0.11560
 O139 O 0.93294 0.44674 -0.05543
 C140 C 0.93878 0.43528 -0.09957
 Zr141 Zr 1.00131 0.47024 -0.07723
 O142 O 1.00367 0.46795 -0.17291
 O143 O 0.99836 0.43140 -0.07020
 Zr144 Zr 1.00127 0.53045 -0.07760
 O145 O 1.00400 0.53414 -0.17366
 O146 O 0.99820 0.56632 -0.07186
 Zr147 Zr 0.96031 0.47994 -0.00104
 Zr148 Zr 1.04214 0.52081 -0.00129
 O149 O 1.02477 0.51204 -0.08910
 O150 O 0.97719 0.48834 -0.08966
 O151 O 1.02610 0.47813 -0.00114
 O152 O 0.97716 0.52266 -0.00112
 O153 O 0.97705 0.45391 -0.00098
 O154 O 1.02590 0.54738 -0.00131
 H155 H 1.03699 0.51821 0.12265
 H156 H 0.96452 0.53009 -0.00104
 H157 H 1.03660 0.51787 -0.12573
 H158 H 0.96424 0.43393 -0.00089
 H159 H 1.01524 0.58085 0.05132
 H160 H 1.01565 0.58108 -0.05542
 H161 H 0.99096 0.51605 -0.19077
 H162 H 0.99823 0.48070 -0.19016
 H163 H 1.01537 0.43403 -0.05108
 H164 H 0.99950 0.42542 0.10537
 H165 H 1.00593 0.48440 0.18805
 H166 H 0.99116 0.51500 0.18769
 O167 O 0.52121 0.55872 -0.11499
 O168 O 0.48559 0.55333 -0.05476
 C169 C 0.50285 0.56489 -0.09879
 O170 O 0.47666 0.43766 -0.10781
 O171 O 0.51427 0.44496 -0.05256
 C172 C 0.49536 0.43179 -0.09263
 O173 O 0.44079 0.47862 -0.11317
 O174 O 0.44664 0.51485 -0.05427
 C175 C 0.43485 0.49729 -0.09769
 O176 O 0.56216 0.52335 -0.10857
 O177 O 0.55512 0.48586 -0.05285
 C178 C 0.56815 0.50472 -0.09333
 Zr179 Zr 0.53039 0.52982 -0.07685
 O180 O 0.53499 0.53329 -0.17253
 O181 O 0.56676 0.56756 -0.06534
 Zr182 Zr 0.47042 0.46971 -0.07718
 O183 O 0.46950 0.46645 -0.17328
 O184 O 0.43265 0.43308 -0.06873
 O185 O 0.48829 0.51178 -0.08914
 O186 O 0.51224 0.48796 -0.08860
 O187 O 0.56206 0.52292 0.10675
 O188 O 0.55505 0.48567 0.05045
 C189 C 0.56800 0.50431 0.09114
 O190 O 0.44059 0.47837 0.11130
 O191 O 0.44642 0.51465 0.05260
 C192 C 0.43456 0.49694 0.09578
 O193 O 0.47678 0.43763 0.10648
 O194 O 0.51431 0.44493 0.05068
 C195 C 0.49552 0.43182 0.09117
 O196 O 0.52115 0.55857 0.11400
 O197 O 0.48544 0.55312 0.05424
 C198 C 0.50272 0.56468 0.09815
 Zr199 Zr 0.53032 0.52966 0.07567
 O200 O 0.53452 0.53130 0.17148
 O201 O 0.56608 0.56846 0.06921
 Zr202 Zr 0.47031 0.46954 0.07558
 O203 O 0.46971 0.46621 0.17168
 O204 O 0.43168 0.43352 0.07088
 Zr205 Zr 0.47977 0.52000 -0.00054
 Zr206 Zr 0.52087 0.47922 -0.00091
 O207 O 0.51213 0.48782 0.08703
 O208 O 0.48817 0.51160 0.08803
 O209 O 0.54730 0.52192 -0.00075
 O210 O 0.45396 0.47735 -0.00081
 O211 O 0.52237 0.54608 -0.00055
 O212 O 0.47824 0.45278 -0.00094
 H213 H 0.51821 0.48190 -0.12493
 H214 H 0.43394 0.46999 -0.00091
 H215 H 0.51810 0.48179 0.12340
 H216 H 0.52948 0.56607 -0.00048
 H217 H 0.42602 0.42722 -0.11085
 H218 H 0.43401 0.41983 0.04739
 H219 H 0.47393 0.48414 0.18864
 H220 H 0.51591 0.52074 0.18856
 H221 H 0.58039 0.56581 0.04956
 H222 H 0.57314 0.57476 -0.10691
 H223 H 0.51959 0.51657 -0.18981
 H224 H 0.47493 0.48476 -0.18988
 O225 O 0.52069 -0.03743 0.11563
 O226 O 0.48519 -0.06774 0.05555
 C227 C 0.50247 -0.06194 0.09957
 O228 O 0.47587 0.03885 0.10851
 O229 O 0.51335 0.06916 0.05301
 C230 C 0.49447 0.06340 0.09326
 O231 O 0.44008 -0.03799 0.11353
 O232 O 0.44614 -0.06827 0.05462
 C233 C 0.43425 -0.06252 0.09800
 O234 O 0.56128 0.03878 0.10895
 O235 O 0.55406 0.06908 0.05321
 C236 C 0.56709 0.06332 0.09382
 Zr237 Zr 0.52970 0.00056 0.07733
 O238 O 0.53426 0.00187 0.17300
 O239 O 0.56625 -0.00071 0.06609
 Zr240 Zr 0.46953 0.00052 0.07761
 O241 O 0.46918 0.00314 0.17376
 O242 O 0.43058 -0.00261 0.07362
 O243 O 0.48763 -0.02355 0.08967
 O244 O 0.51130 0.02408 0.08907
 O245 O 0.56151 0.03899 -0.10636
 O246 O 0.55424 0.06916 -0.05015
 C247 C 0.56730 0.06348 -0.09091
 O248 O 0.44032 -0.03732 -0.11224
 O249 O 0.44614 -0.06764 -0.05327
 C250 C 0.43441 -0.06184 -0.09681
 O251 O 0.47603 0.03901 -0.10646
 O252 O 0.51340 0.06916 -0.05055
 C253 C 0.49463 0.06349 -0.09112
 O254 O 0.52062 -0.03732 -0.11390
 O255 O 0.48519 -0.06767 -0.05358
 C256 C 0.50239 -0.06186 -0.09786
 Zr257 Zr 0.52995 0.00065 -0.07487
 O258 O 0.53486 0.00286 -0.17047
 O259 O 0.56575 -0.00239 -0.06673
 Zr260 Zr 0.46975 0.00074 -0.07529
 O261 O 0.46945 0.00370 -0.17139
 O262 O 0.43079 -0.00242 -0.07023
 Zr263 Zr 0.47930 -0.04030 0.00110
 Zr264 Zr 0.51997 0.04149 0.00134
 O265 O 0.51156 0.02422 -0.08655
 O266 O 0.48785 -0.02338 -0.08741
 O267 O 0.54662 0.02539 0.00135
 O268 O 0.45339 -0.02344 0.00108
 O269 O 0.52195 -0.02371 0.00123
 O270 O 0.47724 0.02526 0.00123
 H271 H 0.51720 0.03600 0.12550
 H272 H 0.43340 -0.03613 0.00105
 H273 H 0.51752 0.03620 -0.12294
 H274 H 0.52911 -0.03659 0.00115
 H275 H 0.43285 0.01422 0.05414
 H276 H 0.43320 0.01470 -0.05213
 H277 H 0.47414 -0.00970 -0.18833
 H278 H 0.51737 -0.00037 -0.18778
 H279 H 0.58017 0.01496 -0.04892
 H280 H 0.57252 -0.00167 0.10766
 H281 H 0.51826 0.00220 0.19021
 H282 H 0.47369 -0.01044 0.19034
 C283 C 1.18649 0.50185 0.39050
 C284 C 1.17481 0.50178 0.34440
 C285 C 1.15961 0.50137 0.29134
 C286 C 1.15871 0.52490 0.27480
 C287 C 1.14137 0.52378 0.22804
 C288 C 1.12483 0.49912 0.19755
 C289 C 1.12640 0.47580 0.21262
 C290 C 1.14377 0.47692 0.25943
 C291 C 1.10430 0.49723 0.15586
 C292 C 1.08629 0.49605 0.12428
 H293 H 1.17069 0.54385 0.29940
 H294 H 1.14017 0.54189 0.21716
 H295 H 1.11354 0.45658 0.18968
 H296 H 1.14414 0.45853 0.27202
 C297 C 0.49735 0.68394 0.39127
 C298 C 0.49693 0.67173 0.34588
 C299 C 0.49666 0.65592 0.29424
 C300 C 0.52087 0.66339 0.26227
 C301 C 0.52147 0.64606 0.21754
 C302 C 0.49789 0.62120 0.20465
 C303 C 0.47343 0.61416 0.23515
 C304 C 0.47282 0.63150 0.27987
 C305 C 0.49942 0.60190 0.16441
 C306 C 0.50093 0.58520 0.13298
 H307 H 0.53948 0.68210 0.27336
 H308 H 0.54051 0.65158 0.19452
 H309 H 0.45510 0.59490 0.22587
 H310 H 0.45406 0.62543 0.30470
 C311 C 0.31414 -0.18654 0.39152
 C312 C 0.32663 -0.17462 0.34646
 C313 C 0.34283 -0.15904 0.29522
 C314 C 0.33489 -0.14324 0.26081
 C315 C 0.35235 -0.12543 0.21608
 C316 C 0.37780 -0.12335 0.20557
 C317 C 0.38539 -0.13977 0.23867
 C318 C 0.36794 -0.15758 0.28339
 C319 C 0.39704 -0.10275 0.16481
 C320 C 0.41370 -0.08473 0.13298
 H321 H 0.31564 -0.14401 0.26989
 H322 H 0.34639 -0.11267 0.19109
 H323 H 0.40512 -0.13818 0.23131
 H324 H 0.37440 -0.16952 0.31007
 C325 C 0.81480 0.50097 0.38917
 C326 C 0.82678 0.50036 0.34423
 C327 C 0.84224 0.49936 0.29314
 C328 C 0.85732 0.52260 0.25694
 C329 C 0.87504 0.52266 0.21226
 C330 C 0.87777 0.49952 0.20366
 C331 C 0.86198 0.47596 0.23845
 C332 C 0.84426 0.47588 0.28310
 C333 C 0.89844 0.50075 0.16324
 C334 C 0.91650 0.50199 0.13164
 H335 H 0.85606 0.54092 0.26455
 H336 H 0.88725 0.54102 0.18581
 H337 H 0.86401 0.45798 0.23243
 H338 H 0.83283 0.45785 0.31111
 C339 C 0.49988 0.31442 0.39034
 C340 C 0.50005 0.32619 0.34429
 C341 C 0.50009 0.34124 0.29122
 C342 C 0.47575 0.33344 0.25949
 C343 C 0.47514 0.35001 0.21273
 C344 C 0.49885 0.37442 0.19753
 C345 C 0.52339 0.38170 0.22783
 C346 C 0.52400 0.36515 0.27454
 C347 C 0.49745 0.39345 0.15603
 C348 C 0.49642 0.41042 0.12453
 H349 H 0.45709 0.31509 0.27225
 H350 H 0.45600 0.34431 0.19003
 H351 H 0.54179 0.40066 0.21693
 H352 H 0.54286 0.37148 0.29905
 C353 C 0.68658 0.18513 0.39037
 C354 C 0.67437 0.17321 0.34510
 C355 C 0.65845 0.15794 0.29330
 C356 C 0.63289 0.15563 0.28277
 C357 C 0.61590 0.13840 0.23688
 C358 C 0.62436 0.12338 0.20113
 C359 C 0.65024 0.12625 0.21046
 C360 C 0.66727 0.14352 0.25644
 C361 C 0.60535 0.10319 0.15936
 C362 C 0.58841 0.08543 0.12748
 H363 H 0.62569 0.16642 0.31131
 H364 H 0.59581 0.13610 0.23067
 H365 H 0.65688 0.11453 0.18353
 H366 H 0.68691 0.14499 0.26444
 C367 C 0.50026 0.18666 -0.38848
 C368 C 0.50042 0.17497 -0.34256
 C369 C 0.50045 0.15976 -0.28987
 C370 C 0.47676 0.14532 -0.25450
 C371 C 0.47584 0.12778 -0.20821
 C372 C 0.49860 0.12465 -0.19715
 C373 C 0.52256 0.13985 -0.23107
 C374 C 0.52348 0.15734 -0.27729
 C375 C 0.49671 0.10394 -0.15581
 C376 C 0.49551 0.08582 -0.12441
 H377 H 0.45874 0.14688 -0.26400
 H378 H 0.45716 0.11604 -0.18246
 H379 H 0.54020 0.13746 -0.22316
 H380 H 0.54183 0.16820 -0.30458
 C381 C 0.68741 0.50286 -0.39105
 C382 C 0.67559 0.50274 -0.34514
 C383 C 0.66016 0.50221 -0.29237
 C384 C 0.63628 0.47804 -0.27664
 C385 C 0.61937 0.47818 -0.23022
 C386 C 0.62626 0.50248 -0.19925
 C387 C 0.65062 0.52642 -0.21345
 C388 C 0.66756 0.52629 -0.25990
 C389 C 0.60690 0.50342 -0.15800
 C390 C 0.58972 0.50410 -0.12658
 H391 H 0.63024 0.45932 -0.30164
 H392 H 0.60045 0.45960 -0.22002
 H393 H 0.65599 0.54537 -0.19018
 H394 H 0.68588 0.54514 -0.27184
 C395 C 0.81436 0.31432 -0.39080
 C396 C 0.82640 0.32688 -0.34599
 C397 C 0.84211 0.34334 -0.29525
 C398 C 0.84399 0.36873 -0.28480
 C399 C 0.86188 0.38636 -0.24054
 C400 C 0.87798 0.37868 -0.20655
 C401 C 0.87551 0.35296 -0.21574
 C402 C 0.85762 0.33532 -0.26003
 C403 C 0.89861 0.39803 -0.16616
 C404 C 0.91663 0.41475 -0.13454
 H405 H 0.83232 0.37527 -0.31221
 H406 H 0.86377 0.40629 -0.23421
 H407 H 0.88802 0.34690 -0.19005
 H408 H 0.85654 0.31586 -0.26812
 C409 C 0.49694 -0.18793 -0.38824
 C410 C 0.49660 -0.17573 -0.34349
 C411 C 0.49642 -0.15967 -0.29279
 C412 C 0.47279 -0.15837 -0.27967
 C413 C 0.47349 -0.14011 -0.23568
 C414 C 0.49782 -0.12307 -0.20463
 C415 C 0.52125 -0.12492 -0.21652
 C416 C 0.52056 -0.14317 -0.26053
 C417 C 0.49933 -0.10221 -0.16448
 C418 C 0.50073 -0.08407 -0.13295
 H419 H 0.45411 -0.17079 -0.30484
 H420 H 0.45532 -0.13867 -0.22727
 H421 H 0.54023 -0.11165 -0.19317
 H422 H 0.53905 -0.14376 -0.27079
 C423 C 0.31544 0.50359 -0.39025
 C424 C 0.32794 0.50405 -0.34531
 C425 C 0.34394 0.50411 -0.29420
 C426 C 0.33604 0.47997 -0.26144
 C427 C 0.35332 0.47912 -0.21688
 C428 C 0.37859 0.50238 -0.20494
 C429 C 0.38613 0.52674 -0.23647
 C430 C 0.36886 0.52759 -0.28100
 C431 C 0.39772 0.50064 -0.16441
 C432 C 0.41432 0.49906 -0.13270
 H433 H 0.31696 0.46159 -0.27166
 H434 H 0.34738 0.46013 -0.19313
 H435 H 0.40571 0.54480 -0.22803
 H436 H 0.37532 0.54627 -0.30650
 C437 C 1.18548 0.68657 -0.39187
 C438 C 1.17377 0.67457 -0.34614
 C439 C 1.15871 0.65902 -0.29365
 C440 C 1.14288 0.66711 -0.25974
 C441 C 1.12569 0.65021 -0.21348
 C442 C 1.12431 0.62519 -0.20087
 C443 C 1.14079 0.61753 -0.23347
 C444 C 1.15795 0.63440 -0.27970
 C445 C 1.10406 0.60610 -0.15928
 C446 C 1.08625 0.58915 -0.12755
 H447 H 1.14314 0.68600 -0.27036
 H448 H 1.11285 0.65621 -0.18895
 H449 H 1.13969 0.59811 -0.22448
 H450 H 1.16993 0.62782 -0.30585
 C451 C 0.81271 0.49699 -0.38912
 C452 C 0.82474 0.49669 -0.34410
 C453 C 0.84065 0.49678 -0.29291
 C454 C 0.85763 0.52129 -0.26235
 C455 C 0.87587 0.52222 -0.21809
 C456 C 0.87719 0.49866 -0.20426
 C457 C 0.85960 0.47396 -0.23345
 C458 C 0.84136 0.47302 -0.27771
 C459 C 0.89815 0.50036 -0.16430
 C460 C 0.91638 0.50185 -0.13305
 H461 H 0.85746 0.53985 -0.27420
 H462 H 0.88955 0.54147 -0.19616
 H463 H 0.86061 0.45567 -0.22349
 H464 H 0.82851 0.45404 -0.30152
 C465 C 0.49608 0.31219 -0.38992
 C466 C 0.49644 0.32408 -0.34397
 C467 C 0.49736 0.33959 -0.29110
 C468 C 0.47386 0.33147 -0.25576
 C469 C 0.47394 0.34843 -0.20913
 C470 C 0.49754 0.37352 -0.19765
 C471 C 0.52131 0.38113 -0.23155
 C472 C 0.52122 0.36420 -0.27812
 C473 C 0.49661 0.39287 -0.15650
 C474 C 0.49594 0.41013 -0.12543
 H475 H 0.45526 0.31255 -0.26563
 H476 H 0.45536 0.34248 -0.18365
 H477 H 0.53957 0.40064 -0.22362
 H478 H 0.53945 0.37079 -0.30540
 C479 C 0.68589 0.18599 -0.38729
 C480 C 0.67378 0.17416 -0.34181
 C481 C 0.65807 0.15885 -0.28979
 C482 C 0.63262 0.15662 -0.27830
 C483 C 0.61578 0.13926 -0.23233
 C484 C 0.62432 0.12406 -0.19753
 C485 C 0.65008 0.12680 -0.20789
 C486 C 0.66696 0.14421 -0.25393
 C487 C 0.60544 0.10364 -0.15605
 C488 C 0.58858 0.08571 -0.12440
 H489 H 0.62537 0.16755 -0.30624
 H490 H 0.59570 0.13694 -0.22554
 H491 H 0.65671 0.11482 -0.18187
 H492 H 0.68649 0.14559 -0.26279
 C493 C 1.18424 0.49706 -0.39261
 C494 C 1.17282 0.49732 -0.34637
 C495 C 1.15819 0.49801 -0.29332
 C496 C 1.15777 0.52199 -0.27884
 C497 C 1.14092 0.52191 -0.23204
 C498 C 1.12442 0.49784 -0.19945
 C499 C 1.12547 0.47407 -0.21261
 C500 C 1.14236 0.47416 -0.25943
 C501 C 1.10424 0.49686 -0.15788
 C502 C 1.08635 0.49609 -0.12646
 H503 H 1.16974 0.54050 -0.30499
 H504 H 1.13996 0.54030 -0.22289
 H505 H 1.11252 0.45524 -0.18827
 H506 H 1.14244 0.45548 -0.27047
 C507 C 0.49923 0.68455 -0.39265
 C508 C 0.49869 0.67228 -0.34730
 C509 C 0.49798 0.65636 -0.29554
 C510 C 0.52177 0.66408 -0.26182
 C511 C 0.52201 0.64673 -0.21667
 C512 C 0.49847 0.62162 -0.20515
 C513 C 0.47439 0.61434 -0.23738
 C514 C 0.47415 0.63169 -0.28252
 C515 C 0.49978 0.60226 -0.16479
 C516 C 0.50114 0.58549 -0.13339
 H517 H 0.54035 0.68301 -0.27185
 H518 H 0.54078 0.65243 -0.19228
 H519 H 0.45613 0.59487 -0.22913
 H520 H 0.45570 0.62544 -0.30867
 C521 C 0.31478 -0.18596 -0.38958
 C522 C 0.32721 -0.17400 -0.34464
 C523 C 0.34327 -0.15838 -0.29345
 C524 C 0.36785 -0.15773 -0.27983
 C525 C 0.38526 -0.13989 -0.23522
 C526 C 0.37814 -0.12265 -0.20406
 C527 C 0.35319 -0.12391 -0.21639
 C528 C 0.33578 -0.14174 -0.26099
 C529 C 0.39737 -0.10205 -0.16352
 C530 C 0.41397 -0.08400 -0.13180
 H531 H 0.37396 -0.17033 -0.30506
 H532 H 0.40461 -0.13892 -0.22643
 H533 H 0.34763 -0.11048 -0.19294
 H534 H 0.31696 -0.14187 -0.27153
 C535 C 0.49922 -0.18655 0.39017
 C536 C 0.49882 -0.17445 0.34534
 C537 C 0.49822 -0.15876 0.29442
 C538 C 0.52216 -0.14216 0.26160
 C539 C 0.52240 -0.12423 0.21730
 C540 C 0.49870 -0.12287 0.20572
 C541 C 0.47452 -0.14009 0.23719
 C542 C 0.47428 -0.15802 0.28147
 C543 C 0.49983 -0.10219 0.16566
 C544 C 0.50099 -0.08413 0.13429
 H545 H 0.54084 -0.14239 0.27163
 H546 H 0.54124 -0.11082 0.19356
 H547 H 0.45615 -0.13903 0.22894
 H548 H 0.45571 -0.17061 0.30698
 C549 C 0.31231 0.49736 0.38810
 C550 C 0.32454 0.49755 0.34292
 C551 C 0.34051 0.49789 0.29153
 C552 C 0.36043 0.52281 0.26657
 C553 C 0.37831 0.52317 0.22185
 C554 C 0.37625 0.49859 0.20201
 C555 C 0.35582 0.47369 0.22575
 C556 C 0.33801 0.47334 0.27040
 C557 C 0.39640 0.49876 0.16157
 C558 C 0.41361 0.49818 0.13016
 H559 H 0.36273 0.54196 0.28300
 H560 H 0.39419 0.54258 0.20422
 H561 H 0.35425 0.45460 0.21116
 H562 H 0.32289 0.45399 0.28985
 C563 C 1.18520 0.68579 0.38862
 C564 C 1.17355 0.67387 0.34289
 C565 C 1.15858 0.65853 0.29030
 C566 C 1.15738 0.63368 0.27676
 C567 C 1.14027 0.61702 0.23036
 C568 C 1.12431 0.62516 0.19723
 C569 C 1.12613 0.65040 0.20947
 C570 C 1.14327 0.66708 0.25590
 C571 C 1.10402 0.60631 0.15563
 C572 C 1.08616 0.58944 0.12402
 H573 H 1.16894 0.62676 0.30342
 H574 H 1.13872 0.59737 0.22184
 H575 H 1.11357 0.65668 0.18466
 H576 H 1.14387 0.68614 0.26630
 C577 C 0.49608 0.18379 0.39195
 C578 C 0.49630 0.17218 0.34602
 C579 C 0.49705 0.15747 0.29318
 C580 C 0.47382 0.14318 0.25658
 C581 C 0.47370 0.12626 0.20975
 C582 C 0.49682 0.12367 0.19934
 C583 C 0.52035 0.13874 0.23458
 C584 C 0.52046 0.15560 0.28131
 C585 C 0.49563 0.10340 0.15770
 C586 C 0.49494 0.08554 0.12631
 H587 H 0.45559 0.14444 0.26545
 H588 H 0.45532 0.11454 0.18312
 H589 H 0.53825 0.13668 0.22743
 H590 H 0.53849 0.16644 0.30949
 C591 C 0.68473 0.49871 0.38934
 C592 C 0.67295 0.49848 0.34337
 C593 C 0.65783 0.49840 0.29056
 C594 C 0.66667 0.52232 0.25624
 C595 C 0.65013 0.52319 0.20984
 C596 C 0.62476 0.50011 0.19751
 C597 C 0.61635 0.47596 0.23057
 C598 C 0.63286 0.47511 0.27693
 C599 C 0.60605 0.50196 0.15596
 C600 C 0.58929 0.50326 0.12440
 H601 H 0.68586 0.54053 0.26669
 H602 H 0.65670 0.54207 0.18507
 H603 H 0.59662 0.45810 0.22195
 H604 H 0.62573 0.45661 0.30351
 C605 C 0.81408 0.31575 0.39042
 C606 C 0.82615 0.32824 0.34556
 C607 C 0.84196 0.34438 0.29460
 C608 C 0.85808 0.33648 0.26130
 C609 C 0.87606 0.35387 0.21678
 C610 C 0.87799 0.37921 0.20541
 C611 C 0.86131 0.38678 0.23750
 C612 C 0.84333 0.36939 0.28201
 C613 C 0.89867 0.39838 0.16483
 C614 C 0.91671 0.41497 0.13299
 H615 H 0.85739 0.31732 0.27110
 H616 H 0.88907 0.34795 0.19265
 H617 H 0.86284 0.40645 0.22954
 H618 H 0.83117 0.37583 0.30796
   
