data_POSCAR
  _audit_creation_date              2014-09-24
  _audit_creation_method            'ToBaCCo'
  _symmetry_space_group_name_H-M    'P1'
  _symmetry_Int_Tables_number       1
  _symmetry_cell_setting            triclinic
  loop_
  _symmetry_equiv_pos_as_xyz
 x,y,z
_cell_length_a 61.4919
_cell_length_b 61.6549
_cell_length_c 61.7471
_cell_angle_alpha 90.001400
_cell_angle_beta 90.008600
_cell_angle_gamma 89.908800
loop_
  _atom_site_label
  _atom_site_type_symbol
  _atom_site_fract_x
  _atom_site_fract_y
  _atom_site_fract_z
O1 O 0.34309 0.37390 0.02103
 O2 O 0.37149 0.34461 -0.02252
 O3 O 0.34120 0.37417 -0.02065
 O4 O 0.37342 0.34391 0.01956
 O5 O 0.34776 0.31892 0.02120
 O6 O 0.31656 0.34815 -0.02059
 O7 O 0.34685 0.31861 -0.02097
 O8 O 0.31772 0.34857 0.02170
 Cu9 Cu 0.35988 0.36167 -0.00068
 Cu10 Cu 0.32970 0.33099 0.00042
 C11 C 0.32541 0.36640 0.02852
 C12 C 0.36406 0.32657 -0.02907
 C13 C 0.32341 0.36631 -0.02752
 C14 C 0.36603 0.32631 0.02728
 O15 O 0.65499 0.62516 0.02201
 O16 O 0.62589 0.65349 -0.02189
 O17 O 0.65644 0.62380 -0.01995
 O18 O 0.62503 0.65488 0.02047
 O19 O 0.65052 0.68009 0.02055
 O20 O 0.68095 0.64991 -0.02105
 O21 O 0.65070 0.67936 -0.02152
 O22 O 0.68060 0.65024 0.02117
 Cu23 Cu 0.63801 0.63680 0.00011
 Cu24 Cu 0.66821 0.66745 -0.00022
 C25 C 0.67285 0.63281 0.02892
 C26 C 0.63326 0.67135 -0.02904
 C27 C 0.67406 0.63157 -0.02740
 C28 C 0.63258 0.67270 0.02753
 O29 O 0.65321 0.37387 0.97627
 O30 O 0.62533 0.34619 1.02133
 O31 O 0.65560 0.37581 1.01821
 O32 O 0.62322 0.34399 0.97931
 O33 O 0.64930 0.31933 0.97803
 O34 O 0.68000 0.34952 1.01938
 O35 O 0.64988 0.32001 1.02021
 O36 O 0.67919 0.34910 0.97724
 Cu37 Cu 0.63678 0.36252 0.99879
 Cu38 Cu 0.66712 0.33193 0.99870
 C39 C 0.67115 0.36636 0.96936
 C40 C 0.63272 0.32822 1.02821
 C41 C 0.67325 0.36800 1.02556
 C42 C 0.63088 0.32635 0.97189
 O43 O 0.34624 0.62390 0.97874
 O44 O 0.37594 0.65460 1.02055
 O45 O 0.34624 0.62430 1.02118
 O46 O 0.37603 0.65411 0.97886
 O47 O 0.35015 0.67902 0.97831
 O48 O 0.32048 0.64929 1.02069
 O49 O 0.35001 0.67946 1.02056
 O50 O 0.32052 0.64896 0.97866
 Cu51 Cu 0.36362 0.63661 0.99987
 Cu52 Cu 0.33271 0.66669 0.99953
 C53 C 0.32832 0.63126 0.97157
 C54 C 0.36810 0.67234 1.02751
 C55 C 0.32827 0.63173 1.02817
 C56 C 0.36824 0.67173 0.97154
 O57 O 0.02195 0.34548 0.37362
 O58 O -0.02213 0.37324 0.34426
 O59 O -0.01985 0.34323 0.37396
 O60 O 0.02016 0.37554 0.34351
 O61 O 0.02204 0.34980 0.31868
 O62 O -0.01954 0.31853 0.34806
 O63 O -0.02033 0.34853 0.31840
 O64 O 0.02286 0.32004 0.34842
 Cu65 Cu -0.00003 0.36198 0.36133
 Cu66 Cu 0.00136 0.33170 0.33083
 C67 C 0.02964 0.32785 0.36620
 C68 C -0.02865 0.36567 0.32627
 C69 C -0.02652 0.32536 0.36620
 C70 C 0.02799 0.36810 0.32598
 O71 O 0.01947 0.65632 0.62359
 O72 O -0.01937 0.62452 0.65610
 O73 O -0.02267 0.65398 0.62584
 O74 O 0.02275 0.62639 0.65346
 O75 O 0.02191 0.65119 0.67927
 O76 O -0.02152 0.68018 0.65020
 O77 O -0.02041 0.65081 0.68040
 O78 O 0.02081 0.68101 0.64949
 Cu79 Cu 0.00004 0.63773 0.63722
 Cu80 Cu 0.00022 0.66836 0.66736
 C81 C 0.02687 0.67400 0.63113
 C82 C -0.02664 0.63238 0.67369
 C83 C -0.02962 0.67197 0.63314
 C84 C 0.02981 0.63392 0.67126
 O85 O 1.02068 0.62512 0.34530
 O86 O 0.97798 0.65360 0.37598
 O87 O 0.97849 0.62337 0.34581
 O88 O 1.02020 0.65484 0.37491
 O89 O 1.01843 0.68025 0.34975
 O90 O 0.97667 0.64890 0.32077
 O91 O 0.97612 0.67864 0.35044
 O92 O 1.01898 0.65032 0.31990
 Cu93 Cu 0.99937 0.63668 0.36306
 Cu94 Cu 0.99741 0.66706 0.33268
 C95 C 1.02713 0.63292 0.32740
 C96 C 0.96990 0.67103 0.36850
 C97 C 0.97060 0.63073 0.32827
 C98 C 1.02646 0.67290 0.36725
 O99 O 0.97917 0.34521 0.62286
 O100 O 1.02014 0.37617 0.65357
 O101 O 1.02175 0.34640 0.62330
 O102 O 0.97800 0.37492 0.65277
 O103 O 0.97905 0.34975 0.67821
 O104 O 1.02164 0.32060 0.64810
 O105 O 1.02138 0.35012 0.67812
 O106 O 0.97941 0.31995 0.64823
 Cu107 Cu 0.99977 0.36320 0.63554
 Cu108 Cu 1.00040 0.33255 0.66567
 C109 C 0.97221 0.32737 0.63044
 C110 C 1.02769 0.36840 0.67108
 C111 C 1.02906 0.32855 0.63062
 C112 C 0.97126 0.36727 0.67064
 O113 O 0.37722 0.02214 0.34608
 O114 O 0.34689 -0.02017 0.37568
 O115 O 0.37694 -0.02027 0.34587
 O116 O 0.34732 0.02221 0.37602
 O117 O 0.32191 0.02250 0.35072
 O118 O 0.35153 -0.01972 0.32058
 O119 O 0.32153 -0.01961 0.35034
 O120 O 0.35176 0.02241 0.32083
 Cu121 Cu 0.36466 0.00093 0.36346
 Cu122 Cu 0.33415 0.00143 0.33309
 C123 C 0.36961 0.02944 0.32839
 C124 C 0.32901 -0.02703 0.36801
 C125 C 0.36926 -0.02719 0.32807
 C126 C 0.32955 0.02954 0.36849
 O127 O 0.62522 0.02243 0.65473
 O128 O 0.65418 -0.02141 0.62634
 O129 O 0.62461 -0.01934 0.65647
 O130 O 0.65524 0.02072 0.62448
 O131 O 0.68036 0.02205 0.65003
 O132 O 0.65071 -0.01943 0.68108
 O133 O 0.68027 -0.02018 0.65092
 O134 O 0.65072 0.02288 0.67995
 Cu135 Cu 0.63727 0.00061 0.63793
 Cu136 Cu 0.66810 0.00139 0.66801
 C137 C 0.63285 0.02986 0.67233
 C138 C 0.67221 -0.02818 0.63375
 C139 C 0.63249 -0.02623 0.67419
 C140 C 0.67299 0.02823 0.63184
 O141 O 0.34456 1.01912 0.62435
 O142 O 0.37489 0.97678 0.65376
 O143 O 0.34450 0.97738 0.62411
 O144 O 0.37486 1.01928 0.65401
 O145 O 0.34978 1.01896 0.67962
 O146 O 0.31954 0.97700 0.64986
 O147 O 0.34978 0.97683 0.67935
 O148 O 0.31961 1.01932 0.65011
 Cu149 Cu 0.36233 0.99814 0.63657
 Cu150 Cu 0.33217 0.99801 0.66731
 C151 C 0.32685 1.02629 0.63215
 C152 C 0.36746 0.96958 0.67156
 C153 C 0.32675 0.97024 0.63180
 C154 C 0.36743 1.02629 0.67189
 O155 O 0.65602 1.02217 0.37344
 O156 O 0.62649 0.97883 0.34487
 O157 O 0.65655 0.97997 0.37510
 O158 O 0.62626 1.02058 0.34340
 O159 O 0.65230 1.02050 0.31874
 O160 O 0.68163 0.97842 0.34952
 O161 O 0.65195 0.97820 0.31962
 O162 O 0.68203 1.02069 0.34883
 Cu163 Cu 0.63881 1.00042 0.36179
 Cu164 Cu 0.66956 0.99939 0.33167
 C165 C 0.67413 1.02874 0.36607
 C166 C 0.63403 0.97140 0.32722
 C167 C 0.67418 0.97221 0.36766
 C168 C 0.63412 1.02743 0.32567
 C169 C 0.82265 0.79434 0.49085
 C170 C 0.82273 0.79464 0.51383
 C171 C 0.80903 0.80911 0.52479
 C172 C 0.79497 0.82315 0.51371
 C173 C 0.79476 0.82306 0.49073
 C174 C 0.80837 0.80834 0.47974
 H175 H 0.80868 0.80855 0.46220
 H176 H 0.80899 0.80914 0.54237
 C177 C 0.17713 0.20553 0.48928
 C178 C 0.17745 0.20537 0.51226
 C179 C 0.19124 0.19078 0.52309
 C180 C 0.20498 0.17644 0.51183
 C181 C 0.20530 0.17724 0.48886
 C182 C 0.19132 0.19163 0.47804
 H183 H 0.19132 0.19171 0.46048
 H184 H 0.19098 0.19043 0.54064
 C185 C 0.17233 0.79857 0.50803
 C186 C 0.17240 0.79888 0.48505
 C187 C 0.18641 0.81311 0.47416
 C188 C 0.20076 0.82675 0.48534
 C189 C 0.20080 0.82658 0.50833
 C190 C 0.18678 0.81225 0.51922
 H191 H 0.18639 0.81246 0.53676
 H192 H 0.18656 0.81314 0.45659
 C193 C 0.82658 0.20145 0.50987
 C194 C 0.82762 0.20115 0.48690
 C195 C 0.81349 0.18729 0.47557
 C196 C 0.79886 0.17352 0.48627
 C197 C 0.79847 0.17318 0.50924
 C198 C 0.81223 0.18739 0.52059
 H199 H 0.81200 0.18741 0.53815
 H200 H 0.81393 0.18700 0.45802
 C201 C 0.48903 0.82314 0.79581
 C202 C 0.51209 0.82408 0.79606
 C203 C 0.52353 0.80984 0.80972
 C204 C 0.51280 0.79527 0.82352
 C205 C 0.48972 0.79505 0.82401
 C206 C 0.47830 0.80882 0.80986
 H207 H 0.46067 0.80866 0.80993
 H208 H 0.54115 0.81025 0.80990
 C209 C 0.48910 0.17649 0.20327
 C210 C 0.51216 0.17568 0.20305
 C211 C 0.52346 0.18990 0.18930
 C212 C 0.51261 0.20433 0.17542
 C213 C 0.48954 0.20444 0.17491
 C214 C 0.47823 0.19067 0.18913
 H215 H 0.46060 0.19073 0.18905
 H216 H 0.54109 0.18959 0.18913
 C217 C 0.50908 0.17516 0.79622
 C218 C 0.48601 0.17479 0.79634
 C219 C 0.47469 0.18845 0.81056
 C220 C 0.48552 0.20278 0.82447
 C221 C 0.50859 0.20325 0.82456
 C222 C 0.51992 0.18965 0.81013
 H223 H 0.53754 0.18956 0.81048
 H224 H 0.45705 0.18826 0.81045
 C225 C 0.51154 0.82578 0.20260
 C226 C 0.48846 0.82535 0.20253
 C227 C 0.47761 0.81150 0.18809
 C228 C 0.48894 0.79775 0.17384
 C229 C 0.51201 0.79760 0.17448
 C230 C 0.52286 0.81168 0.18869
 H231 H 0.54049 0.81177 0.18869
 H232 H 0.45998 0.81166 0.18784
 C233 C 0.79792 0.48765 0.82570
 C234 C 0.79816 0.51068 0.82631
 C235 C 0.81238 0.52179 0.81230
 C236 C 0.82672 0.51078 0.79831
 C237 C 0.82633 0.48777 0.79791
 C238 C 0.81212 0.47667 0.81173
 H239 H 0.81175 0.45909 0.81125
 H240 H 0.81303 0.53934 0.81300
 C241 C 0.20337 0.49061 0.17496
 C242 C 0.20332 0.51363 0.17470
 C243 C 0.18909 0.52489 0.18842
 C244 C 0.17517 0.51405 0.20274
 C245 C 0.17510 0.49104 0.20318
 C246 C 0.18949 0.47977 0.18947
 H247 H 0.18911 0.46220 0.18933
 H248 H 0.18921 0.54249 0.18831
 C249 C 0.79647 0.51034 0.17470
 C250 C 0.79659 0.48735 0.17334
 C251 C 0.81034 0.47569 0.18736
 C252 C 0.82410 0.48611 0.20221
 C253 C 0.82456 0.50910 0.20296
 C254 C 0.81051 0.52076 0.18929
 H255 H 0.81060 0.53834 0.18976
 H256 H 0.81053 0.45812 0.18668
 C257 C 0.20263 0.51156 0.82507
 C258 C 0.20205 0.48854 0.82535
 C259 C 0.18816 0.47780 0.81075
 C260 C 0.17436 0.48917 0.79652
 C261 C 0.17498 0.51217 0.79651
 C262 C 0.18896 0.52291 0.81087
 H263 H 0.18953 0.54050 0.81067
 H264 H 0.18728 0.46025 0.81119
 C265 C 0.29022 0.40237 0.07389
 N266 N 0.28642 0.38082 0.07140
 N267 N 0.29775 0.36927 0.05704
 C268 C 0.31347 0.37881 0.04491
 N269 N 0.31741 0.40030 0.04757
 N270 N 0.30591 0.41189 0.06173
 C271 C 0.27725 0.41531 0.08907
 N272 N 0.27621 0.43720 0.08694
 N273 N 0.26416 0.44900 0.10045
 C274 C 0.25291 0.43938 0.11672
 N275 N 0.25407 0.41750 0.11896
 N276 N 0.26591 0.40565 0.10527
 C277 C 0.23983 0.45248 0.13166
 N278 N 0.23389 0.44455 0.15127
 N279 N 0.22246 0.45673 0.16501
 C280 C 0.21647 0.47728 0.15966
 N281 N 0.22197 0.48490 0.13977
 N282 N 0.23362 0.47286 0.12613
 C283 C 0.70735 0.59918 0.07665
 N284 N 0.68729 0.59244 0.07044
 N285 N 0.67622 0.60324 0.05533
 C286 C 0.68479 0.62121 0.04593
 N287 N 0.70480 0.62803 0.05224
 N288 N 0.71589 0.61718 0.06729
 C289 C 0.71993 0.58685 0.09270
 N290 N 0.74082 0.59234 0.09714
 N291 N 0.75255 0.58072 0.11109
 C292 C 0.74379 0.56325 0.12120
 N293 N 0.72283 0.55784 0.11690
 N294 N 0.71112 0.56942 0.10288
 C295 C 0.75712 0.54996 0.13583
 N296 N 0.74829 0.53315 0.14697
 N297 N 0.76069 0.52062 0.15953
 C298 C 0.78241 0.52428 0.16114
 N299 N 0.79111 0.54137 0.15035
 N300 N 0.77871 0.55394 0.13789
 C301 C 0.70589 0.39998 0.92189
 N302 N 0.71425 0.38183 0.93115
 N303 N 0.70302 0.37098 0.94605
 C304 C 0.68303 0.37791 0.95229
 N305 N 0.67459 0.39601 0.94297
 N306 N 0.68581 0.40685 0.92801
 C307 C 0.71878 0.41233 0.90615
 N308 N 0.71036 0.43003 0.89606
 N309 N 0.72245 0.44159 0.88236
 C310 C 0.74341 0.43589 0.87834
 N311 N 0.75176 0.41815 0.88837
 N312 N 0.73966 0.40656 0.90198
 C313 C 0.75720 0.44905 0.86408
 N314 N 0.77876 0.44467 0.86245
 N315 N 0.79160 0.45698 0.85022
 C316 C 0.78338 0.47420 0.83922
 N317 N 0.76169 0.47828 0.84041
 N318 N 0.74885 0.46601 0.85275
 C319 C 0.29337 0.59680 0.92481
 N320 N 0.28511 0.61516 0.93373
 N321 N 0.29635 0.62617 0.94851
 C322 C 0.31625 0.61918 0.95499
 N323 N 0.32456 0.60081 0.94607
 N324 N 0.31333 0.58983 0.93122
 C325 C 0.28059 0.58454 0.90889
 N326 N 0.28901 0.56681 0.89884
 N327 N 0.27709 0.55554 0.88474
 C328 C 0.25632 0.56158 0.88025
 N329 N 0.24796 0.57932 0.89027
 N330 N 0.25988 0.59061 0.90428
 C331 C 0.24276 0.54886 0.86537
 N332 N 0.22133 0.55364 0.86311
 N333 N 0.20869 0.54178 0.85025
 C334 C 0.21696 0.52461 0.83921
 N335 N 0.23854 0.52013 0.84104
 N336 N 0.25118 0.53195 0.85401
 C337 C 0.07535 0.29302 0.40223
 N338 N 0.07289 0.28919 0.38071
 N339 N 0.05845 0.30042 0.36915
 C340 C 0.04617 0.31608 0.37864
 N341 N 0.04880 0.32007 0.40010
 N342 N 0.06306 0.30866 0.41171
 C343 C 0.09066 0.28014 0.41515
 N344 N 0.08860 0.27912 0.43701
 N345 N 0.10221 0.26709 0.44875
 C346 C 0.11851 0.25583 0.43907
 N347 N 0.12068 0.25697 0.41722
 N348 N 0.10690 0.26880 0.40545
 C349 C 0.13358 0.24271 0.45204
 N350 N 0.15313 0.23663 0.44388
 N351 N 0.16695 0.22503 0.45581
 C352 C 0.16175 0.21896 0.47633
 N353 N 0.14191 0.22463 0.48421
 N354 N 0.12819 0.23647 0.47240
 C355 C 0.07067 0.71071 0.59466
 N356 N 0.05831 0.69521 0.58508
 N357 N 0.04455 0.68331 0.59674
 C358 C 0.04248 0.68665 0.61838
 N359 N 0.05478 0.70220 0.62795
 N360 N 0.06873 0.71392 0.61633
 C361 C 0.08575 0.72390 0.58180
 N362 N 0.10206 0.73505 0.59156
 N363 N 0.11576 0.74701 0.57988
 C364 C 0.11346 0.74849 0.55806
 N365 N 0.09706 0.73744 0.54832
 N366 N 0.08352 0.72528 0.55997
 C367 C 0.12854 0.76166 0.54518
 N368 N 0.12320 0.76799 0.52483
 N369 N 0.13698 0.77978 0.51308
 C370 C 0.15682 0.78532 0.52100
 N371 N 0.16197 0.77919 0.54153
 N372 N 0.14810 0.76762 0.55340
 C373 C 0.92413 0.70585 0.40447
 N374 N 0.92627 0.70928 0.38287
 N375 N 0.94076 0.69805 0.37137
 C376 C 0.95342 0.68280 0.38102
 N377 N 0.95112 0.67920 0.40258
 N378 N 0.93681 0.69061 0.41413
 C379 C 0.90876 0.71879 0.41727
 N380 N 0.91094 0.72022 0.43910
 N381 N 0.89733 0.73240 0.45068
 C382 C 0.88091 0.74340 0.44089
 N383 N 0.87862 0.74184 0.41908
 N384 N 0.89239 0.72986 0.40746
 C385 C 0.86593 0.75677 0.45370
 N386 N 0.84636 0.76285 0.44555
 N387 N 0.83263 0.77464 0.45741
 C388 C 0.83795 0.78088 0.47785
 N389 N 0.85780 0.77523 0.48569
 N390 N 0.87143 0.76323 0.47397
 C391 C 0.92544 0.29197 0.59634
 N392 N 0.93163 0.31191 0.58935
 N393 N 0.94651 0.32324 0.60022
 C394 C 0.95568 0.31506 0.61849
 N395 N 0.94941 0.29517 0.62551
 N396 N 0.93461 0.28382 0.61461
 C397 C 0.90945 0.27916 0.58415
 N398 N 0.90506 0.25841 0.59005
 N399 N 0.89103 0.24651 0.57874
 C400 C 0.88077 0.25492 0.56117
 N401 N 0.88504 0.27573 0.55534
 N402 N 0.89916 0.28762 0.56661
 C403 C 0.86596 0.24140 0.54831
 N404 N 0.85449 0.24993 0.53153
 N405 N 0.84174 0.23735 0.51941
 C406 C 0.84025 0.21573 0.52345
 N407 N 0.85135 0.20735 0.54051
 N408 N 0.86399 0.21993 0.55268
 C409 C 0.40357 0.07671 0.29361
 N410 N 0.41087 0.07002 0.31327
 N411 N 0.40005 0.05500 0.32444
 C412 C 0.38153 0.04616 0.31635
 N413 N 0.37421 0.05293 0.29674
 N414 N 0.38505 0.06789 0.28556
 C415 C 0.41566 0.09285 0.28093
 N416 N 0.40923 0.09788 0.26050
 N417 N 0.42042 0.11205 0.24867
 C418 C 0.43840 0.12182 0.25684
 N419 N 0.44477 0.11691 0.27733
 N420 N 0.43361 0.10266 0.28916
 C421 C 0.45111 0.13677 0.24334
 N422 N 0.46844 0.14762 0.25160
 N423 N 0.48040 0.16048 0.23899
 C424 C 0.47563 0.16274 0.21762
 N425 N 0.45802 0.15226 0.20953
 N426 N 0.44601 0.13949 0.22213
 C427 C 0.59715 0.07525 0.70781
 N428 N 0.58747 0.06324 0.69213
 N429 N 0.59899 0.04911 0.68050
 C430 C 0.62055 0.04632 0.68431
 N431 N 0.63024 0.05832 0.70001
 N432 N 0.61877 0.07264 0.71146
 C433 C 0.58427 0.09030 0.72099
 N434 N 0.59403 0.10637 0.73245
 N435 N 0.58224 0.11989 0.74454
 C436 C 0.56032 0.11762 0.74583
 N437 N 0.55059 0.10148 0.73447
 N438 N 0.56234 0.08814 0.72218
 C439 C 0.54726 0.13235 0.75920
 N440 N 0.52692 0.12666 0.76547
 N441 N 0.51488 0.14013 0.77733
 C442 C 0.52247 0.16000 0.78300
 N443 N 0.54300 0.16551 0.77697
 N444 N 0.55518 0.15194 0.76533
 C445 C 0.40187 0.92230 0.70603
 N446 N 0.40891 0.92894 0.68626
 N447 N 0.39792 0.94394 0.67519
 C448 C 0.37947 0.95280 0.68347
 N449 N 0.37240 0.94608 0.70317
 N450 N 0.38341 0.93114 0.71426
 C451 C 0.41421 0.90625 0.71862
 N452 N 0.40802 0.90123 0.73911
 N453 N 0.41947 0.88717 0.75088
 C454 C 0.43749 0.87752 0.74258
 N455 N 0.44362 0.88242 0.72203
 N456 N 0.43220 0.89655 0.71026
 C457 C 0.45047 0.86269 0.75600
 N458 N 0.46790 0.85202 0.74765
 N459 N 0.48008 0.83924 0.76018
 C460 C 0.47542 0.83689 0.78156
 N461 N 0.45773 0.84721 0.78976
 N462 N 0.44552 0.85990 0.77723
 C463 C 0.59813 0.92640 0.29152
 N464 N 0.61976 0.92890 0.28789
 N465 N 0.63126 0.94312 0.29940
 C466 C 0.62161 0.95511 0.31515
 N467 N 0.60004 0.95244 0.31893
 N468 N 0.58848 0.93842 0.30725
 C469 C 0.58529 0.91132 0.27834
 N470 N 0.56333 0.91331 0.27726
 N471 N 0.55167 0.89990 0.26497
 C472 C 0.56154 0.88388 0.25351
 N473 N 0.58349 0.88181 0.25470
 N474 N 0.59517 0.89538 0.26679
 C475 C 0.54866 0.86900 0.24014
 N476 N 0.55704 0.84968 0.23374
 N477 N 0.54517 0.83599 0.22198
 C478 C 0.52449 0.84109 0.21607
 N479 N 0.51639 0.86071 0.22205
 N480 N 0.52814 0.87431 0.23404
 C481 C 0.39770 0.29200 0.92331
 N482 N 0.40435 0.31212 0.92927
 N483 N 0.39354 0.32322 0.94435
 C484 C 0.37566 0.31461 0.95395
 N485 N 0.36894 0.29455 0.94789
 N486 N 0.37979 0.28343 0.93287
 C487 C 0.41001 0.27940 0.90730
 N488 N 0.40446 0.25855 0.90296
 N489 N 0.41602 0.24680 0.88900
 C490 C 0.43352 0.25547 0.87881
 N491 N 0.43901 0.27637 0.88302
 N492 N 0.42747 0.28812 0.89704
 C493 C 0.44668 0.24213 0.86411
 N494 N 0.46357 0.25083 0.85294
 N495 N 0.47590 0.23842 0.84019
 C496 C 0.47194 0.21682 0.83840
 N497 N 0.45478 0.20826 0.84925
 N498 N 0.44242 0.22066 0.86190
 C499 C 0.59944 0.70549 0.92307
 N500 N 0.59247 0.68564 0.92958
 N501 N 0.60328 0.67465 0.94476
 C502 C 0.62147 0.68310 0.95393
 N503 N 0.62848 0.70289 0.94732
 N504 N 0.61765 0.71389 0.93221
 C505 C 0.58726 0.71804 0.90687
 N506 N 0.59329 0.73865 0.90209
 N507 N 0.58196 0.75041 0.88794
 C508 C 0.56422 0.74198 0.87796
 N509 N 0.55825 0.72129 0.88262
 N510 N 0.56955 0.70954 0.89684
 C511 C 0.55131 0.75540 0.86307
 N512 N 0.53424 0.74693 0.85200
 N513 N 0.52210 0.75947 0.83920
 C514 C 0.52642 0.78099 0.83724
 N515 N 0.54377 0.78931 0.84797
 N516 N 0.55596 0.77677 0.86067
 C517 C 0.40339 0.70937 0.07191
 N518 N 0.38172 0.71271 0.06925
 N519 N 0.37042 0.70083 0.05517
 C520 C 0.38033 0.68500 0.04348
 N521 N 0.40195 0.68153 0.04630
 N522 N 0.41330 0.69358 0.06018
 C523 C 0.41598 0.72280 0.08697
 N524 N 0.43794 0.72401 0.08520
 N525 N 0.44940 0.73636 0.09872
 C526 C 0.43933 0.74776 0.11463
 N527 N 0.41737 0.74646 0.11648
 N528 N 0.40588 0.73431 0.10280
 C529 C 0.45203 0.76104 0.12973
 N530 N 0.44349 0.76724 0.14902
 N531 N 0.45527 0.77877 0.16298
 C532 C 0.47603 0.78465 0.15819
 N533 N 0.48427 0.77890 0.13859
 N534 N 0.47261 0.76714 0.12473
 C535 C 0.59937 0.29420 0.07640
 N536 N 0.59247 0.31416 0.07009
 N537 N 0.60318 0.32513 0.05486
 C538 C 0.62120 0.31654 0.04543
 N539 N 0.62815 0.29665 0.05184
 N540 N 0.61742 0.28568 0.06702
 C541 C 0.58721 0.28164 0.09255
 N542 N 0.59316 0.26095 0.09718
 N543 N 0.58177 0.24916 0.11123
 C544 C 0.56406 0.25765 0.12125
 N545 N 0.55817 0.27841 0.11676
 N546 N 0.56954 0.29019 0.10264
 C547 C 0.55109 0.24420 0.13601
 N548 N 0.53397 0.25268 0.14705
 N549 N 0.52180 0.24013 0.15977
 C550 C 0.52614 0.21859 0.16167
 N551 N 0.54353 0.21026 0.15095
 N552 N 0.55573 0.22281 0.13833
 C553 C 0.29064 0.07167 0.59710
 N554 N 0.28706 0.06885 0.61861
 N555 N 0.29865 0.05443 0.62984
 C556 C 0.31441 0.04254 0.62000
 N557 N 0.31810 0.04550 0.59854
 N558 N 0.30635 0.05973 0.58726
 C559 C 0.27759 0.08716 0.58457
 N560 N 0.27664 0.08568 0.56265
 N561 N 0.26469 0.09962 0.55122
 C562 C 0.25345 0.11569 0.56127
 N563 N 0.25450 0.11725 0.58318
 N564 N 0.26624 0.10315 0.59464
 C565 C 0.24061 0.13123 0.54860
 N566 N 0.23461 0.15056 0.55724
 N567 N 0.22344 0.16488 0.54549
 C568 C 0.21777 0.16043 0.52468
 N569 N 0.22334 0.14082 0.51632
 N570 N 0.23472 0.12658 0.52795
 C571 C 0.70841 0.07534 0.39904
 N572 N 0.68858 0.06886 0.40618
 N573 N 0.67738 0.05383 0.39542
 C574 C 0.68558 0.04477 0.37709
 N575 N 0.70535 0.05139 0.36989
 N576 N 0.71657 0.06636 0.38069
 C577 C 0.72116 0.09131 0.41127
 N578 N 0.74190 0.09590 0.40534
 N579 N 0.75380 0.10981 0.41680
 C580 C 0.74539 0.11971 0.43456
 N581 N 0.72458 0.11526 0.44041
 N582 N 0.71269 0.10127 0.42899
 C583 C 0.75891 0.13434 0.44760
 N584 N 0.75037 0.14548 0.46457
 N585 N 0.76295 0.15810 0.47681
 C586 C 0.78459 0.15981 0.47269
 N587 N 0.79300 0.14900 0.45546
 N588 N 0.78041 0.13647 0.44317
 C589 C 0.70641 0.92378 0.60026
 N590 N 0.71508 0.93324 0.61813
 N591 N 0.70408 0.94840 0.62892
 C592 C 0.68403 0.95470 0.62220
 N593 N 0.67532 0.94520 0.60436
 N594 N 0.68630 0.92999 0.59360
 C595 C 0.71889 0.90759 0.58804
 N596 N 0.71006 0.89739 0.57065
 N597 N 0.72171 0.88317 0.55922
 C598 C 0.74261 0.87871 0.56477
 N599 N 0.75139 0.88885 0.58220
 N600 N 0.73973 0.90300 0.59365
 C601 C 0.75585 0.86375 0.55179
 N602 N 0.77733 0.86131 0.55615
 N603 N 0.78966 0.84837 0.54401
 C604 C 0.78100 0.83746 0.52698
 N605 N 0.75938 0.83951 0.52290
 N606 N 0.74705 0.85254 0.53501
 C607 C 0.29318 0.92607 0.40140
 N608 N 0.31310 0.93219 0.40867
 N609 N 0.32460 0.94709 0.39802
 C610 C 0.31662 0.95634 0.37970
 N611 N 0.29676 0.95013 0.37241
 N612 N 0.28524 0.93531 0.38308
 C613 C 0.28012 0.91010 0.41332
 N614 N 0.25946 0.90571 0.40700
 N615 N 0.24729 0.89169 0.41802
 C616 C 0.25537 0.88144 0.43574
 N617 N 0.27610 0.88570 0.44202
 N618 N 0.28825 0.89981 0.43102
 C619 C 0.24156 0.86658 0.44824
 N620 N 0.24972 0.85515 0.46520
 N621 N 0.23687 0.84230 0.47692
 C622 C 0.21533 0.84064 0.47227
 N623 N 0.20732 0.85173 0.45503
 N624 N 0.22017 0.86449 0.44327
 C625 C 0.07240 0.40404 0.70752
 N626 N 0.07008 0.38238 0.71074
 N627 N 0.05589 0.37101 0.69906
 C628 C 0.04371 0.38083 0.68355
 N629 N 0.04617 0.40244 0.68019
 N630 N 0.06018 0.41386 0.69204
 C631 C 0.08763 0.41666 0.72076
 N632 N 0.08579 0.43857 0.72204
 N633 N 0.09940 0.45001 0.73433
 C634 C 0.11548 0.43998 0.74561
 N635 N 0.11741 0.41809 0.74423
 N636 N 0.10365 0.40662 0.73213
 C637 C 0.13058 0.45264 0.75898
 N638 N 0.14984 0.44403 0.76543
 N639 N 0.16371 0.45570 0.77720
 C640 C 0.15887 0.47641 0.78305
 N641 N 0.13932 0.48474 0.77701
 N642 N 0.12554 0.47319 0.76503
 C643 C 0.07503 0.60015 0.29225
 N644 N 0.06524 0.61806 0.28393
 N645 N 0.05008 0.62861 0.29520
 C646 C 0.04412 0.62158 0.31516
 N647 N 0.05394 0.60370 0.32350
 N648 N 0.06914 0.59318 0.31225
 C649 C 0.09127 0.58819 0.27956
 N650 N 0.10182 0.57085 0.28816
 N651 N 0.11608 0.55962 0.27638
 C652 C 0.12025 0.56531 0.25555
 N653 N 0.10976 0.58270 0.24699
 N654 N 0.09557 0.59396 0.25879
 C655 C 0.13518 0.55244 0.24218
 N656 N 0.13733 0.55679 0.22075
 N657 N 0.15012 0.54460 0.20832
 C658 C 0.16119 0.52754 0.21682
 N659 N 0.15947 0.52351 0.23839
 N660 N 0.14659 0.53565 0.25082
 C661 C 0.92307 0.39854 0.29166
 N662 N 0.93294 0.38077 0.28313
 N663 N 0.94817 0.37017 0.29427
 C664 C 0.95414 0.37700 0.31430
 N665 N 0.94422 0.39473 0.32286
 N666 N 0.92894 0.40529 0.31175
 C667 C 0.90684 0.41061 0.27903
 N668 N 0.89624 0.42787 0.28775
 N669 N 0.88207 0.43924 0.27599
 C670 C 0.87802 0.43377 0.25507
 N671 N 0.88855 0.41646 0.24640
 N672 N 0.90266 0.40506 0.25818
 C673 C 0.86325 0.44685 0.24169
 N674 N 0.86135 0.44280 0.22018
 N675 N 0.84879 0.45523 0.20774
 C676 C 0.83771 0.47224 0.21632
 N677 N 0.83916 0.47597 0.23796
 N678 N 0.85182 0.46358 0.25040
 C679 C 0.92937 0.59672 0.71096
 N680 N 0.93161 0.61840 0.71403
 N681 N 0.94563 0.62977 0.70214
 C682 C 0.95771 0.61992 0.68657
 N683 N 0.95534 0.59826 0.68339
 N684 N 0.94151 0.58685 0.69544
 C685 C 0.91422 0.58410 0.72430
 N686 N 0.91611 0.56220 0.72559
 N687 N 0.90247 0.55073 0.73782
 C688 C 0.88631 0.56072 0.74901
 N689 N 0.88434 0.58262 0.74763
 N690 N 0.89814 0.59411 0.73560
 C691 C 0.87109 0.54799 0.76216
 N692 N 0.85170 0.55647 0.76838
 N693 N 0.83765 0.54462 0.77976
 C694 C 0.84246 0.52385 0.78545
 N695 N 0.86215 0.51567 0.77969
 N696 N 0.87610 0.52740 0.76810
 C697 C 0.71006 0.59660 0.92871
 N698 N 0.69226 0.58774 0.93822
 N699 N 0.68040 0.59918 0.95223
 C700 C 0.68607 0.61981 0.95749
 N701 N 0.70393 0.62862 0.94801
 N702 N 0.71562 0.61729 0.93378
 C703 C 0.72326 0.58393 0.91344
 N704 N 0.73665 0.59400 0.89914
 N705 N 0.74866 0.58247 0.88532
 C706 C 0.74794 0.56047 0.88551
 N707 N 0.73464 0.55041 0.89990
 N708 N 0.72243 0.56193 0.91352
 C709 C 0.76122 0.54771 0.87038
 N710 N 0.76583 0.52661 0.87460
 N711 N 0.77765 0.51494 0.86078
 C712 C 0.78495 0.52368 0.84194
 N713 N 0.78053 0.54493 0.83793
 N714 N 0.76895 0.55672 0.85188
 C715 C 0.28708 0.40101 0.92872
 N716 N 0.28133 0.38046 0.93413
 N717 N 0.29311 0.36916 0.94833
 C718 C 0.31123 0.37789 0.95740
 N719 N 0.31707 0.39837 0.95178
 N720 N 0.30513 0.40976 0.93782
 C721 C 0.27390 0.41375 0.91352
 N722 N 0.27495 0.43573 0.91368
 N723 N 0.26297 0.44741 0.89999
 C724 C 0.24972 0.43752 0.88546
 N725 N 0.24876 0.41552 0.88520
 N726 N 0.26052 0.40384 0.89910
 C727 C 0.23692 0.45050 0.87016
 N728 N 0.22974 0.44181 0.85129
 N729 N 0.21880 0.45392 0.83710
 C730 C 0.21451 0.47517 0.84124
 N731 N 0.22120 0.48357 0.86045
 N732 N 0.23239 0.47158 0.87451
 C733 C 0.29402 0.59848 0.07459
 N734 N 0.31363 0.59104 0.06769
 N735 N 0.32482 0.60185 0.05269
 C736 C 0.31684 0.62052 0.04407
 N737 N 0.29728 0.62798 0.05109
 N738 N 0.28607 0.61715 0.06602
 C739 C 0.28127 0.58637 0.09064
 N740 N 0.26075 0.59278 0.09563
 N741 N 0.24884 0.58157 0.10972
 C742 C 0.25702 0.56358 0.11943
 N743 N 0.27761 0.55721 0.11457
 N744 N 0.28951 0.56839 0.10039
 C745 C 0.24347 0.55092 0.13437
 N746 N 0.25181 0.53381 0.14549
 N747 N 0.23917 0.52201 0.15847
 C748 C 0.21767 0.52670 0.16057
 N749 N 0.20948 0.54406 0.14976
 N750 N 0.22212 0.55592 0.13689
 C751 C 0.70963 0.40312 0.06890
 N752 N 0.69180 0.41202 0.05943
 N753 N 0.67985 0.40055 0.04554
 C754 C 0.68544 0.37985 0.04042
 N755 N 0.70335 0.37101 0.04985
 N756 N 0.71513 0.38238 0.06394
 C757 C 0.72278 0.41571 0.08422
 N758 N 0.73614 0.40553 0.09848
 N759 N 0.74800 0.41693 0.11249
 C760 C 0.74716 0.43893 0.11254
 N761 N 0.73391 0.44913 0.09817
 N762 N 0.72184 0.43772 0.08435
 C763 C 0.76015 0.45146 0.12805
 N764 N 0.76465 0.47268 0.12438
 N765 N 0.77629 0.48404 0.13860
 C766 C 0.78350 0.47484 0.15727
 N767 N 0.77915 0.45350 0.16071
 N768 N 0.76777 0.44202 0.14639
 C769 C 0.92263 0.70512 0.60044
 N770 N 0.92947 0.68542 0.59332
 N771 N 0.94484 0.67455 0.60402
 C772 C 0.95391 0.68297 0.62225
 N773 N 0.94691 0.70260 0.62942
 N774 N 0.93160 0.71348 0.61869
 C775 C 0.90636 0.71760 0.58826
 N776 N 0.90144 0.73821 0.59423
 N777 N 0.88731 0.74994 0.58282
 C778 C 0.87750 0.74148 0.56504
 N779 N 0.88227 0.72079 0.55913
 N780 N 0.89649 0.70907 0.57052
 C781 C 0.86265 0.75488 0.55207
 N782 N 0.85152 0.74635 0.53509
 N783 N 0.83867 0.75886 0.52296
 C784 C 0.83673 0.78041 0.52720
 N785 N 0.84755 0.78878 0.54444
 N786 N 0.86029 0.77628 0.55661
 C787 C 0.93041 0.28848 0.40110
 N788 N 0.93587 0.28279 0.38057
 N789 N 0.94983 0.29476 0.36921
 C790 C 0.95860 0.31303 0.37786
 N791 N 0.95294 0.31881 0.39833
 N792 N 0.93921 0.30669 0.40978
 C793 C 0.91539 0.27510 0.41381
 N794 N 0.91534 0.27625 0.43576
 N795 N 0.90178 0.26405 0.44735
 C796 C 0.88761 0.25046 0.43738
 N797 N 0.88758 0.24940 0.41541
 N798 N 0.90134 0.26139 0.40384
 C799 C 0.87235 0.23740 0.45013
 N800 N 0.85384 0.22972 0.44103
 N801 N 0.83968 0.21839 0.45278
 C802 C 0.84350 0.21417 0.47407
 N803 N 0.86236 0.22143 0.48292
 N804 N 0.87639 0.23302 0.47128
 C805 C 0.07638 0.29509 0.59750
 N806 N 0.06917 0.31456 0.59009
 N807 N 0.05387 0.32550 0.60084
 C808 C 0.04526 0.31740 0.61942
 N809 N 0.05259 0.29798 0.62685
 N810 N 0.06781 0.28703 0.61608
 C811 C 0.09276 0.28257 0.58546
 N812 N 0.09804 0.26217 0.59186
 N813 N 0.11239 0.25044 0.58072
 C814 C 0.12211 0.25870 0.56280
 N815 N 0.11697 0.27918 0.55645
 N816 N 0.10253 0.29089 0.56756
 C817 C 0.13726 0.24529 0.55013
 N818 N 0.14834 0.25370 0.53307
 N819 N 0.16136 0.24116 0.52115
 C820 C 0.16355 0.21969 0.52569
 N821 N 0.15282 0.21145 0.54304
 N822 N 0.13991 0.22399 0.55501
 C823 C 0.07267 0.70821 0.39977
 N824 N 0.06357 0.71599 0.38130
 N825 N 0.04867 0.70448 0.37068
 C826 C 0.04223 0.68480 0.37819
 N827 N 0.05137 0.67703 0.39666
 N828 N 0.06633 0.68850 0.40724
 C829 C 0.08874 0.72112 0.41171
 N830 N 0.09889 0.71287 0.42943
 N831 N 0.11307 0.72482 0.44055
 C832 C 0.11755 0.74547 0.43439
 N833 N 0.10744 0.75369 0.41664
 N834 N 0.09333 0.74172 0.40548
 C835 C 0.13246 0.75901 0.44711
 N836 N 0.13480 0.78037 0.44239
 N837 N 0.14758 0.79294 0.45442
 C838 C 0.15846 0.78465 0.47168
 N839 N 0.15656 0.76314 0.47607
 N840 N 0.14368 0.75058 0.46409
 C841 C 0.59717 0.92920 0.71100
 N842 N 0.61881 0.93190 0.71442
 N843 N 0.63010 0.94613 0.70271
 C844 C 0.62020 0.95794 0.68698
 N845 N 0.59860 0.95511 0.68346
 N846 N 0.58727 0.94108 0.69533
 C847 C 0.58463 0.91375 0.72404
 N848 N 0.56262 0.91519 0.72497
 N849 N 0.55119 0.90120 0.73682
 C850 C 0.56134 0.88514 0.74796
 N851 N 0.58334 0.88363 0.74695
 N852 N 0.59480 0.89778 0.73531
 C853 C 0.54868 0.86950 0.76065
 N854 N 0.55750 0.85023 0.76663
 N855 N 0.54580 0.83583 0.77769
 C856 C 0.52484 0.84013 0.78328
 N857 N 0.51629 0.85969 0.77773
 N858 N 0.52787 0.87400 0.76644
 C859 C 0.40288 0.92544 0.29290
 N860 N 0.41003 0.93169 0.31275
 N861 N 0.39931 0.94674 0.32402
 C862 C 0.38102 0.95604 0.31586
 N863 N 0.37383 0.94971 0.29606
 N864 N 0.38458 0.93473 0.28478
 C865 C 0.41492 0.90927 0.28014
 N866 N 0.40879 0.90470 0.25952
 N867 N 0.41996 0.89050 0.24765
 C868 C 0.43763 0.88025 0.25598
 N869 N 0.44370 0.88469 0.27666
 N870 N 0.43256 0.89897 0.28852
 C871 C 0.45036 0.86524 0.24249
 N872 N 0.46732 0.85389 0.25091
 N873 N 0.47931 0.84098 0.23834
 C874 C 0.47496 0.83916 0.21684
 N875 N 0.45770 0.85015 0.20856
 N876 N 0.44567 0.86297 0.22113
 C877 C 0.59851 0.07183 0.28878
 N878 N 0.58873 0.06003 0.30455
 N879 N 0.60018 0.04610 0.31648
 C880 C 0.62178 0.04329 0.31290
 N881 N 0.63157 0.05502 0.29707
 N882 N 0.62016 0.06915 0.28530
 C883 C 0.58580 0.08710 0.27564
 N884 N 0.59578 0.10307 0.26424
 N885 N 0.58414 0.11704 0.25251
 C886 C 0.56215 0.11536 0.25153
 N887 N 0.55220 0.09929 0.26280
 N888 N 0.56380 0.08549 0.27473
 C889 C 0.54929 0.13080 0.23874
 N890 N 0.52855 0.12607 0.23295
 N891 N 0.51679 0.14021 0.22157
 C892 C 0.52509 0.15982 0.21594
 N893 N 0.54598 0.16435 0.22154
 N894 N 0.55786 0.15013 0.23269
 C895 C 0.40142 0.07354 0.70666
 N896 N 0.40840 0.06723 0.68677
 N897 N 0.39758 0.05220 0.67561
 C898 C 0.37936 0.04299 0.68395
 N899 N 0.37235 0.04937 0.70380
 N900 N 0.38320 0.06432 0.71496
 C901 C 0.41350 0.08971 0.71931
 N902 N 0.40746 0.09430 0.73994
 N903 N 0.41861 0.10855 0.75172
 C904 C 0.43617 0.11883 0.74327
 N905 N 0.44217 0.11435 0.72258
 N906 N 0.43105 0.10002 0.71081
 C907 C 0.44878 0.13397 0.75667
 N908 N 0.46552 0.14550 0.74816
 N909 N 0.47730 0.15866 0.76064
 C910 C 0.47293 0.16053 0.78214
 N911 N 0.45590 0.14931 0.79050
 N912 N 0.44408 0.13626 0.77801
 C913 C 0.59810 0.70797 0.07417
 N914 N 0.59103 0.68813 0.06773
 N915 N 0.60200 0.67686 0.05287
 C916 C 0.62045 0.68500 0.04395
 N917 N 0.62754 0.70480 0.05045
 N918 N 0.61655 0.71609 0.06524
 C919 C 0.58588 0.72067 0.09024
 N920 N 0.59199 0.74125 0.09506
 N921 N 0.58071 0.75303 0.10924
 C922 C 0.56295 0.74463 0.11923
 N923 N 0.55688 0.72399 0.11451
 N924 N 0.56813 0.71223 0.10025
 C925 C 0.55016 0.75800 0.13428
 N926 N 0.53311 0.74949 0.14537
 N927 N 0.52109 0.76194 0.15837
 C928 C 0.52552 0.78342 0.16054
 N929 N 0.54285 0.79178 0.14981
 N930 N 0.55491 0.77933 0.13690
 C931 C 0.40270 0.29094 0.07206
 N932 N 0.38103 0.28734 0.06989
 N933 N 0.36934 0.29866 0.05565
 C934 C 0.37884 0.31417 0.04326
 N935 N 0.40047 0.31790 0.04556
 N936 N 0.41221 0.30641 0.05962
 C937 C 0.41565 0.27813 0.08742
 N938 N 0.43763 0.27715 0.08557
 N939 N 0.44935 0.26527 0.09932
 C940 C 0.43954 0.25412 0.11556
 N941 N 0.41757 0.25521 0.11749
 N942 N 0.40583 0.26689 0.10359
 C943 C 0.45247 0.24117 0.13081
 N944 N 0.44395 0.23492 0.15009
 N945 N 0.45581 0.22346 0.16407
 C946 C 0.47663 0.21770 0.15933
 N947 N 0.48488 0.22355 0.13978
 N948 N 0.47314 0.23524 0.12588
 C949 C 0.59472 0.29008 0.92750
 N950 N 0.61643 0.28673 0.92971
 N951 N 0.62796 0.29829 0.94387
 C952 C 0.61823 0.31380 0.95613
 N953 N 0.59655 0.31726 0.95381
 N954 N 0.58498 0.30553 0.93983
 C955 C 0.58195 0.27709 0.91218
 N956 N 0.55999 0.27591 0.91403
 N957 N 0.54841 0.26395 0.90026
 C958 C 0.55835 0.25292 0.88400
 N959 N 0.58030 0.25421 0.88206
 N960 N 0.59191 0.26597 0.89598
 C961 C 0.54554 0.23992 0.86872
 N962 N 0.55403 0.23387 0.84936
 N963 N 0.54222 0.22241 0.83535
 C964 C 0.52148 0.21648 0.84015
 N965 N 0.51328 0.22213 0.85979
 N966 N 0.52496 0.23381 0.87370
 C967 C 0.40380 0.70767 0.92648
 N968 N 0.38215 0.71122 0.92907
 N969 N 0.37076 0.69970 0.94336
 C970 C 0.38056 0.68403 0.95536
 N971 N 0.40215 0.68036 0.95263
 N972 N 0.41359 0.69205 0.93853
 C973 C 0.41651 0.72073 0.91119
 N974 N 0.43848 0.72179 0.91296
 N975 N 0.45005 0.73384 0.89927
 C976 C 0.44008 0.74507 0.88318
 N977 N 0.41811 0.74391 0.88132
 N978 N 0.40651 0.73206 0.89517
 C979 C 0.45288 0.75815 0.86798
 N980 N 0.44437 0.76428 0.84866
 N981 N 0.45617 0.77580 0.83471
 C982 C 0.47690 0.78172 0.83953
 N983 N 0.48513 0.77599 0.85914
 N984 N 0.47346 0.76424 0.87300
 C985 C 0.70935 0.92684 0.40383
 N986 N 0.71299 0.92912 0.38227
 N987 N 0.70175 0.94356 0.37073
 C988 C 0.68627 0.95604 0.38028
 N989 N 0.68250 0.95362 0.40181
 N990 N 0.69392 0.93936 0.41340
 C991 C 0.72209 0.91130 0.41666
 N992 N 0.72309 0.91314 0.43854
 N993 N 0.73489 0.89925 0.45019
 C994 C 0.74592 0.88287 0.44040
 N995 N 0.74481 0.88094 0.41852
 N996 N 0.73321 0.89499 0.40685
 C997 C 0.75877 0.86750 0.45330
 N998 N 0.76478 0.84802 0.44498
 N999 N 0.77605 0.83393 0.45692
 C1000 C 0.78183 0.83877 0.47763
 N1001 N 0.77624 0.85852 0.48566
 N1002 N 0.76475 0.87251 0.47384
 C1003 C 0.28992 0.92613 0.59594
 N1004 N 0.30574 0.93804 0.58631
 N1005 N 0.31774 0.95180 0.59785
 C1006 C 0.31419 0.95433 0.61940
 N1007 N 0.29833 0.94246 0.62904
 N1008 N 0.28650 0.92849 0.61754
 C1009 C 0.27648 0.91129 0.58309
 N1010 N 0.26492 0.89526 0.59279
 N1011 N 0.25272 0.88183 0.58104
 C1012 C 0.25142 0.88416 0.55921
 N1013 N 0.26287 0.90028 0.54954
 N1014 N 0.27527 0.91353 0.56126
 C1015 C 0.23801 0.86943 0.54620
 N1016 N 0.23183 0.87504 0.52587
 N1017 N 0.21993 0.86156 0.51391
 C1018 C 0.21412 0.84176 0.52159
 N1019 N 0.22007 0.83635 0.54210
 N1020 N 0.23175 0.84992 0.55419
 C1021 C 0.29487 0.07683 0.40273
 N1022 N 0.31466 0.07008 0.40981
 N1023 N 0.32578 0.05506 0.39889
 C1024 C 0.31752 0.04630 0.38046
 N1025 N 0.29778 0.05312 0.37335
 N1026 N 0.28665 0.06808 0.38430
 C1027 C 0.28225 0.09298 0.41496
 N1028 N 0.26170 0.09811 0.40878
 N1029 N 0.24996 0.11230 0.42009
 C1030 C 0.25835 0.12198 0.43798
 N1031 N 0.27897 0.11697 0.44411
 N1032 N 0.29070 0.10270 0.43282
 C1033 C 0.24498 0.13702 0.45080
 N1034 N 0.25346 0.14779 0.46803
 N1035 N 0.24098 0.16078 0.48004
 C1036 C 0.21951 0.16326 0.47542
 N1037 N 0.21119 0.15284 0.45792
 N1038 N 0.22367 0.13994 0.44587
 C1039 C 0.70919 0.07238 0.59536
 N1040 N 0.71262 0.07030 0.61698
 N1041 N 0.70101 0.05629 0.62861
 C1042 C 0.68535 0.04405 0.61910
 N1043 N 0.68178 0.04626 0.59751
 N1044 N 0.69358 0.06010 0.58583
 C1045 C 0.72238 0.08744 0.58249
 N1046 N 0.72364 0.08533 0.56063
 N1047 N 0.73592 0.09878 0.54901
 C1048 C 0.74721 0.11496 0.55879
 N1049 N 0.74584 0.11714 0.58062
 N1050 N 0.73376 0.10354 0.59228
 C1051 C 0.76060 0.12989 0.54598
 N1052 N 0.76693 0.14922 0.55435
 N1053 N 0.77879 0.16293 0.54260
 C1054 C 0.78485 0.15786 0.52204
 N1055 N 0.77891 0.13826 0.51394
 N1056 N 0.76684 0.12463 0.52557
 C1057 C 0.92574 0.59428 0.29283
 N1058 N 0.92775 0.61594 0.28945
 N1059 N 0.94197 0.62755 0.30085
 C1060 C 0.95449 0.61799 0.31624
 N1061 N 0.95234 0.59637 0.31979
 N1062 N 0.93829 0.58470 0.30820
 C1063 C 0.91051 0.58144 0.27979
 N1064 N 0.91261 0.55956 0.27842
 N1065 N 0.89906 0.54800 0.26616
 C1066 C 0.88280 0.55788 0.25501
 N1067 N 0.88061 0.57974 0.25651
 N1068 N 0.89430 0.59133 0.26857
 C1069 C 0.86781 0.54519 0.24155
 N1070 N 0.84851 0.55374 0.23517
 N1071 N 0.83480 0.54218 0.22312
 C1072 C 0.83984 0.52163 0.21689
 N1073 N 0.85942 0.51333 0.22291
 N1074 N 0.87304 0.52478 0.23517
 C1075 C 0.92431 0.40114 0.70616
 N1076 N 0.93348 0.38278 0.71419
 N1077 N 0.94825 0.37187 0.70276
 C1078 C 0.95445 0.37895 0.68288
 N1079 N 0.94524 0.39728 0.67480
 N1080 N 0.93041 0.40816 0.68622
 C1081 C 0.90854 0.41347 0.71914
 N1082 N 0.89863 0.43140 0.71098
 N1083 N 0.88479 0.44286 0.72306
 C1084 C 0.88043 0.43683 0.74377
 N1085 N 0.89030 0.41888 0.75188
 N1086 N 0.90406 0.40739 0.73979
 C1087 C 0.86585 0.44981 0.75748
 N1088 N 0.86345 0.44485 0.77875
 N1089 N 0.85086 0.45693 0.79149
 C1090 C 0.84025 0.47452 0.78348
 N1091 N 0.84224 0.47921 0.76207
 N1092 N 0.85493 0.46715 0.74933
 C1093 C 0.07783 0.60028 0.70551
 N1094 N 0.07142 0.59335 0.68564
 N1095 N 0.05628 0.60419 0.67458
 C1096 C 0.04706 0.62237 0.68298
 N1097 N 0.05360 0.62937 0.70277
 N1098 N 0.06868 0.61851 0.71384
 C1099 C 0.09378 0.58791 0.71821
 N1100 N 0.09841 0.59384 0.73887
 N1101 N 0.11220 0.58223 0.75080
 C1102 C 0.12195 0.56429 0.74251
 N1103 N 0.11747 0.55843 0.72178
 N1104 N 0.10360 0.57002 0.70986
 C1105 C 0.13638 0.55109 0.75613
 N1106 N 0.14723 0.53376 0.74786
 N1107 N 0.15967 0.52142 0.76057
 C1108 C 0.16146 0.52579 0.78207
 N1109 N 0.15094 0.54337 0.79020
 N1110 N 0.13861 0.55575 0.77749
 C1111 C 0.07274 0.40461 0.29046
 N1112 N 0.07074 0.38295 0.28706
 N1113 N 0.05651 0.37132 0.29843
 C1114 C 0.04395 0.38087 0.31380
 N1115 N 0.04607 0.40250 0.31734
 N1116 N 0.06013 0.41418 0.30579
 C1117 C 0.08806 0.41749 0.27757
 N1118 N 0.08598 0.43937 0.27633
 N1119 N 0.09968 0.45102 0.26434
 C1120 C 0.11610 0.44122 0.25334
 N1121 N 0.11827 0.41935 0.25470
 N1122 N 0.10442 0.40768 0.26649
 C1123 C 0.13127 0.45407 0.24025
 N1124 N 0.15074 0.44571 0.23414
 N1125 N 0.16464 0.45753 0.22255
 C1126 C 0.15961 0.47814 0.21653
 N1127 N 0.13986 0.48623 0.22224
 N1128 N 0.12605 0.47454 0.23404
   
