data_POSCAR
  _audit_creation_date              2014-09-24
  _audit_creation_method            'ToBaCCo'
  _symmetry_space_group_name_H-M    'P1'
  _symmetry_Int_Tables_number       1
  _symmetry_cell_setting            triclinic
  loop_
  _symmetry_equiv_pos_as_xyz
 x,y,z
_cell_length_a 28.0266
_cell_length_b 26.4165
_cell_length_c 26.7725
_cell_angle_alpha 84.711700
_cell_angle_beta 93.887500
_cell_angle_gamma 94.266600
loop_
  _atom_site_label
  _atom_site_type_symbol
  _atom_site_fract_x
  _atom_site_fract_y
  _atom_site_fract_z
C1 C 0.31617 0.33101 0.23438
 H2 H 0.31993 0.33058 0.27490
 C3 C 0.34855 0.36115 0.20498
 H4 H 0.37702 0.38409 0.22312
 C5 C 0.27572 0.29963 0.16168
 H6 H 0.24830 0.27451 0.14492
 C7 C 0.30732 0.32914 0.13092
 H8 H 0.30366 0.32702 0.09062
 N9 N 0.28066 0.30103 0.21246
 C10 C 0.17618 0.26661 0.32701
 H11 H 0.17374 0.22541 0.32935
 C12 C 0.14794 0.29200 0.35628
 H13 H 0.12392 0.27007 0.38131
 C14 C 0.20993 0.34528 0.29062
 H15 H 0.23346 0.36594 0.26436
 C16 C 0.18236 0.37214 0.31921
 H17 H 0.18516 0.41341 0.31521
 Zn18 Zn 0.24233 0.25648 0.25540
 N19 N 0.20667 0.29343 0.29529
 C20 C 0.28711 0.21117 0.34672
 N21 N 0.28509 0.21531 0.29558
 C22 C 0.31519 0.19064 0.27001
 C23 C 0.34810 0.15913 0.29575
 C24 C 0.31967 0.17994 0.37404
 C25 C 0.16541 0.23748 0.18469
 C26 C 0.13480 0.20822 0.15347
 C27 C 0.17089 0.13280 0.19196
 C28 C 0.20087 0.16340 0.22224
 N29 N 0.19857 0.21490 0.21718
 H30 H 0.26359 0.23193 0.36639
 H31 H 0.31326 0.19524 0.22936
 H32 H 0.37131 0.13960 0.27448
 H33 H 0.32087 0.17643 0.41473
 H34 H 0.16377 0.27843 0.18205
 H35 H 0.10968 0.22686 0.12670
 H36 H 0.17392 0.09197 0.19536
 H37 H 0.22636 0.14589 0.24926
 C38 C 0.15097 0.34540 0.35241
 C39 C 0.34447 0.35987 0.15266
 C40 C 0.13811 0.15535 0.15648
 C41 C 0.35034 0.15330 0.34838
 C42 C 0.81610 0.83358 0.23381
 H43 H 0.81952 0.83349 0.27431
 C44 C 0.84838 0.86398 0.20449
 H45 H 0.87622 0.88723 0.22312
 C46 C 0.77674 0.80101 0.16121
 H47 H 0.74984 0.77530 0.14448
 C48 C 0.80824 0.83067 0.13049
 H49 H 0.80476 0.82789 0.09026
 N50 N 0.78118 0.80291 0.21191
 C51 C 0.67675 0.76685 0.32645
 H52 H 0.67486 0.72565 0.32874
 C53 C 0.64820 0.79169 0.35591
 H54 H 0.62451 0.76935 0.38100
 C55 C 0.70941 0.84602 0.29009
 H56 H 0.73264 0.86709 0.26378
 C57 C 0.68149 0.87234 0.31883
 H58 H 0.68374 0.91362 0.31490
 Zn59 Zn 0.74311 0.75788 0.25473
 N60 N 0.70686 0.79418 0.29468
 C61 C 0.78828 0.71298 0.34605
 N62 N 0.78621 0.71711 0.29491
 C63 C 0.81649 0.69267 0.26932
 C64 C 0.84957 0.66134 0.29504
 C65 C 0.82103 0.68198 0.37335
 C66 C 0.66674 0.73825 0.18357
 C67 C 0.63659 0.70879 0.15212
 C68 C 0.67303 0.63369 0.19089
 C69 C 0.70255 0.66449 0.22138
 N70 N 0.69987 0.71594 0.21630
 H71 H 0.76464 0.73359 0.36573
 H72 H 0.81453 0.69725 0.22867
 H73 H 0.87290 0.64197 0.27377
 H74 H 0.82225 0.67847 0.41404
 H75 H 0.66478 0.77917 0.18090
 H76 H 0.61149 0.72723 0.12518
 H77 H 0.67636 0.59291 0.19434
 H78 H 0.72800 0.64718 0.24859
 C79 C 0.65053 0.84507 0.35215
 C80 C 0.84499 0.86234 0.15203
 C81 C 0.64032 0.65597 0.15516
 C82 C 0.85183 0.65550 0.34768
 C83 C 0.81713 0.32935 0.73499
 H84 H 0.82103 0.32885 0.77551
 C85 C 0.84919 0.35984 0.70549
 H86 H 0.87756 0.38297 0.72355
 C87 C 0.77663 0.29785 0.66236
 H88 H 0.74934 0.27256 0.64565
 C89 C 0.80793 0.32769 0.63152
 H90 H 0.80413 0.32566 0.59121
 N91 N 0.78171 0.29920 0.71314
 C92 C 0.67809 0.26425 0.82847
 H93 H 0.67582 0.22304 0.83092
 C94 C 0.64996 0.28957 0.85794
 H95 H 0.62619 0.26760 0.88322
 C96 C 0.71120 0.34299 0.79159
 H97 H 0.73440 0.36371 0.76504
 C98 C 0.68374 0.36977 0.82034
 H99 H 0.68630 0.41104 0.81617
 Zn100 Zn 0.74364 0.25443 0.75613
 N101 N 0.70819 0.29115 0.79640
 C102 C 0.78922 0.20907 0.84698
 N103 N 0.78661 0.21320 0.79586
 C104 C 0.81638 0.18859 0.76989
 C105 C 0.84950 0.15703 0.79513
 C106 C 0.82202 0.17786 0.87389
 C107 C 0.66661 0.23574 0.68553
 C108 C 0.63606 0.20668 0.65408
 C109 C 0.67206 0.13108 0.69224
 C110 C 0.70201 0.16149 0.72273
 N111 N 0.69974 0.21299 0.71791
 H112 H 0.76601 0.22989 0.86696
 H113 H 0.81404 0.19330 0.72924
 H114 H 0.87231 0.13798 0.77304
 H115 H 0.82354 0.17461 0.91460
 H116 H 0.66500 0.27669 0.68308
 H117 H 0.61099 0.22547 0.62737
 H118 H 0.67508 0.09025 0.69543
 H119 H 0.72747 0.14384 0.74969
 C120 C 0.65272 0.34296 0.85387
 C121 C 0.84490 0.35870 0.65316
 C122 C 0.63938 0.15382 0.65679
 C123 C 0.85245 0.15092 0.84795
 C124 C 0.31614 0.83000 0.73732
 H125 H 0.31966 0.83020 0.77779
 C126 C 0.34852 0.85995 0.70771
 H127 H 0.37674 0.88339 0.72563
 C128 C 0.27628 0.79734 0.66493
 H129 H 0.24910 0.77183 0.64837
 C130 C 0.30785 0.82664 0.63401
 H131 H 0.30435 0.82398 0.59377
 N132 N 0.28088 0.79952 0.71564
 C133 C 0.17474 0.76572 0.82861
 H134 H 0.17224 0.72451 0.83086
 C135 C 0.14616 0.79107 0.85755
 H136 H 0.12181 0.76912 0.88220
 C137 C 0.20912 0.84439 0.79292
 H138 H 0.23312 0.86505 0.76713
 C139 C 0.18121 0.87123 0.82119
 H140 H 0.18415 0.91250 0.81738
 Zn141 Zn 0.24214 0.75535 0.75855
 N142 N 0.20573 0.79255 0.79745
 C143 C 0.28569 0.71194 0.85113
 N144 N 0.28442 0.71474 0.80002
 C145 C 0.31501 0.68936 0.77575
 C146 C 0.34766 0.65853 0.80290
 C147 C 0.31800 0.68147 0.87984
 C148 C 0.16587 0.73606 0.68754
 C149 C 0.13571 0.70695 0.65581
 C150 C 0.17204 0.63151 0.69390
 C151 C 0.20157 0.66198 0.72473
 N152 N 0.19894 0.71344 0.72009
 H153 H 0.26183 0.73330 0.86973
 H154 H 0.31370 0.69289 0.73511
 H155 H 0.37150 0.63809 0.78310
 H156 H 0.31848 0.67922 0.92042
 H157 H 0.16399 0.77698 0.68520
 H158 H 0.11067 0.72567 0.62901
 H159 H 0.17534 0.59073 0.69694
 H160 H 0.22703 0.64444 0.75177
 C161 C 0.14938 0.84446 0.85392
 C162 C 0.34468 0.85795 0.65546
 C163 C 0.13939 0.65415 0.65834
 C164 C 0.34919 0.65425 0.85547
 C165 C 0.03752 -0.03951 -0.03679
 C166 C 0.06754 -0.00437 -0.00257
 C167 C 0.04085 0.02437 0.02313
 C168 C -0.01353 0.01574 0.01206
 C169 C 0.00281 -0.07092 -0.00224
 C170 C -0.02390 -0.04197 0.02326
 C171 C 0.00602 -0.00412 -0.07092
 C172 C -0.02071 0.02470 -0.04538
 H173 H 0.10645 -0.00259 0.00127
 H174 H -0.03519 0.03936 0.03267
 H175 H -0.00030 -0.11230 0.00179
 H176 H 0.00419 -0.00277 -0.11168
 C177 C 0.03968 0.46137 0.46239
 C178 C 0.06977 0.49642 0.49667
 C179 C 0.04310 0.52480 0.52278
 C180 C -0.01129 0.51595 0.51202
 C181 C 0.00527 0.42959 0.49700
 C182 C -0.02134 0.45818 0.52298
 C183 C 0.00785 0.49679 0.42868
 C184 C -0.01889 0.52524 0.45463
 H185 H 0.10868 0.49823 0.50041
 H186 H -0.03287 0.53928 0.53299
 H187 H 0.00216 0.38820 0.50059
 H188 H 0.00596 0.49858 0.38790
 C189 C 0.53854 -0.04049 0.46299
 C190 C 0.56871 -0.00468 0.49643
 C191 C 0.54212 0.02378 0.52254
 C192 C 0.48770 0.01418 0.51268
 C193 C 0.50488 -0.07224 0.49845
 C194 C 0.47834 -0.04359 0.52447
 C195 C 0.50596 -0.00583 0.42933
 C196 C 0.47928 0.02265 0.45531
 H197 H 0.60764 -0.00256 0.49978
 H198 H 0.46619 0.03757 0.53365
 H199 H 0.50202 -0.11363 0.50236
 H200 H 0.50381 -0.00427 0.38856
 C201 C 0.54102 0.45947 -0.03721
 C202 C 0.57100 0.49532 -0.00366
 C203 C 0.54423 0.52416 0.02184
 C204 C 0.48987 0.51486 0.01128
 C205 C 0.50677 0.42817 -0.00210
 C206 C 0.48004 0.45720 0.02329
 C207 C 0.50899 0.49416 -0.07156
 C208 C 0.48219 0.52308 -0.04614
 H209 H 0.60992 0.49732 0.00006
 H210 H 0.46804 0.53869 0.03149
 H211 H 0.50360 0.38678 0.00200
 H212 H 0.50723 0.49486 -0.11222
 C213 C 0.04648 -0.10997 -0.10257
 C214 C 0.08388 -0.08811 -0.14025
 C215 C 0.11902 -0.12665 -0.11604
 C216 C 0.08190 -0.14888 -0.07861
 C217 C 0.13991 -0.08833 -0.07902
 C218 C 0.10449 -0.04949 -0.10298
 C219 C 0.06740 -0.07166 -0.06560
 C220 C 0.10250 -0.11017 -0.04131
 H221 H 0.00770 -0.11847 -0.11199
 H222 H 0.07640 -0.07931 -0.18126
 H223 H 0.07212 -0.18976 -0.06810
 H224 H 0.17866 -0.07970 -0.06952
 H225 H 0.11347 -0.00828 -0.11269
 H226 H 0.10986 -0.11882 -0.00027
 C227 C 0.10473 0.39100 0.45740
 C228 C 0.08394 0.35217 0.42031
 C229 C 0.12081 0.37436 0.38260
 C230 C 0.14188 0.41282 0.41940
 C231 C 0.08550 0.41281 0.35853
 C232 C 0.04836 0.39098 0.39650
 C233 C 0.06947 0.42942 0.43327
 C234 C 0.10629 0.45156 0.39561
 H235 H 0.11235 0.38245 0.49841
 H236 H 0.07426 0.31130 0.43097
 H237 H 0.18066 0.42150 0.42865
 H238 H 0.07777 0.42150 0.31755
 H239 H 0.00955 0.38241 0.38734
 H240 H 0.11517 0.49277 0.38576
 C241 C 0.54750 -0.11111 0.39725
 C242 C 0.58405 -0.08878 0.35884
 C243 C 0.62011 -0.12655 0.38262
 C244 C 0.58384 -0.14926 0.42078
 C245 C 0.64094 -0.08772 0.41916
 C246 C 0.60461 -0.04966 0.39563
 C247 C 0.56838 -0.07229 0.43374
 C248 C 0.60439 -0.11005 0.45760
 H249 H 0.50872 -0.12033 0.38852
 H250 H 0.57586 -0.08029 0.31791
 H251 H 0.57484 -0.19023 0.43160
 H252 H 0.67969 -0.07837 0.42799
 H253 H 0.61285 -0.00837 0.38559
 H254 H 0.61246 -0.11839 0.49856
 C255 C 0.60656 0.38925 -0.04137
 C256 C 0.58591 0.34982 -0.07792
 C257 C 0.62250 0.37188 -0.11599
 C258 C 0.64344 0.41092 -0.07973
 C259 C 0.58682 0.40980 -0.14033
 C260 C 0.54997 0.38811 -0.10201
 C261 C 0.57094 0.42715 -0.06579
 C262 C 0.60749 0.44913 -0.10381
 H263 H 0.61437 0.38123 -0.00032
 H264 H 0.57660 0.30897 -0.06681
 H265 H 0.68220 0.42001 -0.07074
 H266 H 0.57887 0.41797 -0.18134
 H267 H 0.51117 0.37914 -0.11091
 H268 H 0.61605 0.49031 -0.11415
 C269 C -0.09659 0.04116 -0.10880
 C270 C -0.13018 0.07664 -0.08762
 C271 C -0.11446 0.11817 -0.12466
 C272 C -0.08265 0.08591 -0.14743
 C273 C -0.07577 0.13762 -0.09006
 C274 C -0.08934 0.09399 -0.04980
 C275 C -0.05548 0.05973 -0.07221
 C276 C -0.04074 0.10367 -0.11133
 H277 H -0.10637 0.00125 -0.11738
 H278 H -0.16823 0.06687 -0.07935
 H279 H -0.07971 0.08202 -0.18797
 H280 H -0.06866 0.17856 -0.08386
 H281 H -0.09331 0.09853 -0.00952
 H282 H -0.00383 0.11607 -0.12203
 C283 C -0.08783 0.59339 0.45186
 C284 C -0.07320 0.63898 0.41404
 C285 C -0.11353 0.62110 0.37642
 C286 C -0.12863 0.57598 0.41392
 C287 C -0.07918 0.58822 0.35315
 C288 C -0.03855 0.60580 0.39098
 C289 C -0.05364 0.56070 0.42831
 C290 C -0.09401 0.54284 0.39087
 H291 H -0.09147 0.59555 0.49261
 H292 H -0.06483 0.67892 0.42326
 H293 H -0.16604 0.56386 0.42307
 H294 H -0.07470 0.58508 0.31273
 H295 H -0.00109 0.61781 0.38193
 H296 H -0.10234 0.50288 0.38171
 C297 C 0.41015 0.09059 0.45258
 C298 C 0.42495 0.13645 0.41513
 C299 C 0.38486 0.11878 0.37714
 C300 C 0.36960 0.07339 0.41426
 C301 C 0.41943 0.08614 0.35387
 C302 C 0.45982 0.10351 0.39208
 C303 C 0.44456 0.05815 0.42903
 C304 C 0.40444 0.04051 0.39121
 H305 H 0.40624 0.09242 0.49333
 H306 H 0.43320 0.17630 0.42466
 H307 H 0.33213 0.06117 0.42310
 H308 H 0.42420 0.08331 0.31345
 H309 H 0.49733 0.11564 0.38334
 H310 H 0.39622 0.00062 0.38175
 C311 C 0.43796 0.56903 -0.12899
 C312 C 0.38341 0.56304 -0.12245
 C313 C 0.38403 0.62030 -0.11572
 C314 C 0.43832 0.62657 -0.12231
 C315 C 0.39292 0.60977 -0.05840
 C316 C 0.39275 0.55208 -0.06494
 C317 C 0.44695 0.55840 -0.07179
 C318 C 0.44767 0.61556 -0.06479
 H319 H 0.45623 0.55263 -0.15863
 H320 H 0.35657 0.54161 -0.14630
 H321 H 0.45685 0.65763 -0.14605
 H322 H 0.37449 0.62643 -0.02904
 H323 H 0.37450 0.52092 -0.04106
 H324 H 0.47463 0.63668 -0.04079
 C325 C -0.04661 -0.10172 0.10568
 C326 C -0.08045 -0.07513 0.13658
 C327 C -0.12062 -0.11043 0.12052
 C328 C -0.09003 -0.13820 0.09149
 C329 C -0.13474 -0.07588 0.07658
 C330 C -0.09236 -0.03766 0.09027
 C331 C -0.05970 -0.06536 0.05913
 C332 C -0.10229 -0.10249 0.04416
 H333 H -0.01030 -0.11334 0.11885
 H334 H -0.07175 -0.06379 0.17519
 H335 H -0.09042 -0.18042 0.09353
 H336 H -0.17228 -0.06634 0.06627
 H337 H -0.09470 0.00402 0.09099
 H338 H -0.11244 -0.11469 0.00607
 C339 C -0.04423 0.39611 0.60337
 C340 C -0.07590 0.42307 0.63645
 C341 C -0.11927 0.38771 0.62022
 C342 C -0.08788 0.36056 0.58752
 C343 C -0.13225 0.42603 0.57542
 C344 C -0.08847 0.46171 0.59117
 C345 C -0.05722 0.43433 0.55858
 C346 C -0.10052 0.39908 0.54240
 H347 H -0.00763 0.38405 0.61449
 H348 H -0.06526 0.43341 0.67507
 H349 H -0.08784 0.31868 0.58630
 H350 H -0.16881 0.43815 0.56421
 H351 H -0.08886 0.50349 0.59280
 H352 H -0.11029 0.38951 0.50333
 C353 C 0.45564 -0.10537 0.60529
 C354 C 0.42415 -0.07812 0.63833
 C355 C 0.38064 -0.11344 0.62239
 C356 C 0.41184 -0.14088 0.58974
 C357 C 0.36766 -0.07528 0.57745
 C358 C 0.41158 -0.03966 0.59292
 C359 C 0.44263 -0.06732 0.56037
 C360 C 0.39920 -0.10252 0.54448
 H361 H 0.49223 -0.11752 0.61637
 H362 H 0.43492 -0.06765 0.67688
 H363 H 0.41175 -0.18280 0.58871
 H364 H 0.33113 -0.06307 0.56627
 H365 H 0.41128 0.00216 0.59439
 H366 H 0.38928 -0.11227 0.50550
 C367 C 0.45592 0.39545 0.10347
 C368 C 0.42454 0.42299 0.13635
 C369 C 0.38075 0.38833 0.11987
 C370 C 0.41184 0.36061 0.08735
 C371 C 0.36853 0.42690 0.07502
 C372 C 0.41275 0.46186 0.09104
 C373 C 0.44369 0.43391 0.05863
 C374 C 0.39998 0.39937 0.04218
 H375 H 0.49226 0.38273 0.11481
 H376 H 0.43519 0.43318 0.17503
 H377 H 0.41127 0.31868 0.08610
 H378 H 0.33224 0.43967 0.06358
 H379 H 0.41298 0.50370 0.09268
 H380 H 0.39024 0.38997 0.00306
 C381 C 0.09719 0.10704 0.04254
 C382 C 0.07284 0.13922 0.07777
 C383 C 0.10923 0.12269 0.12082
 C384 C 0.13374 0.09093 0.08588
 C385 C 0.07561 0.07629 0.13720
 C386 C 0.03889 0.09228 0.09371
 C387 C 0.06370 0.06065 0.05894
 C388 C 0.09997 0.04424 0.10197
 H389 H 0.10583 0.11930 0.00321
 H390 H 0.06136 0.17831 0.06747
 H391 H 0.17302 0.09061 0.08282
 H392 H 0.06693 0.06392 0.17649
 H393 H -0.00032 0.09274 0.09704
 H394 H 0.11090 0.00482 0.11162
 C395 C 0.09950 0.60708 0.54352
 C396 C 0.07485 0.63877 0.57895
 C397 C 0.11095 0.62178 0.62210
 C398 C 0.13577 0.59050 0.58696
 C399 C 0.07724 0.57520 0.63772
 C400 C 0.04082 0.59168 0.59414
 C401 C 0.06590 0.56053 0.55915
 C402 C 0.10188 0.54364 0.60228
 H403 H 0.10842 0.61981 0.50437
 H404 H 0.06338 0.67791 0.56894
 H405 H 0.17509 0.59025 0.58420
 H406 H 0.06826 0.56236 0.67683
 H407 H 0.00157 0.59214 0.59724
 H408 H 0.11277 0.50414 0.61156
 C409 C 0.59889 0.10606 0.54246
 C410 C 0.57452 0.13829 0.57763
 C411 C 0.61058 0.12141 0.62086
 C412 C 0.63512 0.08959 0.58597
 C413 C 0.57664 0.07516 0.63689
 C414 C 0.54025 0.09152 0.59323
 C415 C 0.56506 0.05983 0.55852
 C416 C 0.60102 0.04306 0.60172
 H417 H 0.60780 0.11838 0.50323
 H418 H 0.56330 0.17749 0.56735
 H419 H 0.67441 0.08903 0.58317
 H420 H 0.56768 0.06273 0.67609
 H421 H 0.50103 0.09228 0.59634
 H422 H 0.61168 0.00353 0.61132
 C423 C 0.54175 0.59243 0.09190
 C424 C 0.57822 0.57670 0.13571
 C425 C 0.61185 0.62311 0.11939
 C426 C 0.57570 0.63937 0.07601
 C427 C 0.63671 0.59124 0.08482
 C428 C 0.60293 0.54454 0.10087
 C429 C 0.56690 0.56068 0.05751
 C430 C 0.60040 0.60708 0.04116
 H431 H 0.50250 0.59288 0.09494
 H432 H 0.56928 0.56448 0.17496
 H433 H 0.56418 0.67840 0.06541
 H434 H 0.67604 0.59098 0.08209
 H435 H 0.61390 0.50517 0.11079
 H436 H 0.60927 0.61918 0.00187
   
