data_POSCAR
  _audit_creation_date              2014-09-24
  _audit_creation_method            'ToBaCCo'
  _symmetry_space_group_name_H-M    'P1'
  _symmetry_Int_Tables_number       1
  _symmetry_cell_setting            triclinic
  loop_
  _symmetry_equiv_pos_as_xyz
 x,y,z
_cell_length_a 28.5093
_cell_length_b 28.6035
_cell_length_c 33.9084
_cell_angle_alpha 89.164900
_cell_angle_beta 91.169500
_cell_angle_gamma 90.623200
loop_
  _atom_site_label
  _atom_site_type_symbol
  _atom_site_fract_x
  _atom_site_fract_y
  _atom_site_fract_z
C1 C 1.23562 0.25195 0.24056
 C2 C 0.74091 -0.24363 0.26079
 C3 C 0.74567 0.26244 -0.24723
 C4 C 1.24992 -0.23528 -0.25112
 C5 C 0.25373 0.24090 0.75471
 C6 C 0.75273 0.73729 0.74312
 C7 C 0.75889 0.24518 0.24677
 C8 C 0.25777 0.74467 0.25153
 O9 O 1.06258 0.01044 0.05264
 O10 O 0.90287 -0.06298 0.02887
 O11 O 0.95021 0.08206 0.02139
 O12 O 1.04891 -0.07725 0.04371
 O13 O 0.90968 0.02249 0.04486
 O14 O 1.11211 -0.04665 0.01785
 O15 O 0.96780 -0.08439 0.05468
 O16 O 1.03485 0.07571 0.02886
 C17 C 1.05521 0.05323 0.05645
 C18 C 0.92490 -0.08091 0.05696
 C19 C 0.92312 0.06418 0.04712
 C20 C 1.09323 -0.07838 0.04063
 O21 O 1.06790 -0.03123 -0.04797
 O22 O 0.89829 0.04254 -0.02851
 O23 O 1.03916 0.05373 -0.05027
 O24 O 0.94876 -0.10252 -0.02425
 O25 O 0.90559 -0.04286 -0.04485
 O26 O 1.09668 0.03969 -0.01321
 O27 O 1.03392 -0.09604 -0.03465
 O28 O 0.96064 0.05876 -0.05798
 Co29 Co 1.06178 -0.01210 0.00249
 Co30 Co 0.91253 -0.01006 -0.00017
 Co31 Co 0.99590 0.06202 -0.01345
 Co32 Co 0.99908 -0.08312 0.00860
 O33 O 0.98994 -0.00895 -0.00172
 C34 C 1.05941 -0.07227 -0.05688
 C35 C 0.91780 0.06031 -0.05730
 C36 C 1.08127 0.06051 -0.04307
 C37 C 0.91810 -0.08462 -0.04786
 O38 O 1.09801 0.55002 0.52708
 O39 O 0.91866 0.44015 0.52723
 O40 O 0.95437 0.58305 0.52869
 O41 O 1.06163 0.40665 0.52657
 O42 O 0.92838 0.51772 0.55001
 O43 O 1.08893 0.47031 0.54914
 O44 O 0.98349 0.41438 0.54942
 O45 O 1.03393 0.57527 0.54895
 C46 C 1.07680 0.57165 0.55287
 C47 C 0.94121 0.42025 0.55422
 C48 C 0.93432 0.55998 0.55499
 C49 C 1.08255 0.42781 0.55361
 O50 O 1.09526 0.44279 0.47225
 O51 O 0.91634 0.54938 0.47483
 O52 O 1.05998 0.58548 0.47253
 O53 O 0.95181 0.40703 0.47307
 O54 O 0.92537 0.47167 0.45131
 O55 O 1.08648 0.52184 0.45098
 O56 O 1.02946 0.41721 0.45095
 O57 O 0.97962 0.57668 0.45162
 Co58 Co 1.08381 0.49612 0.49999
 Co59 Co 0.93054 0.49476 0.50073
 Co60 Co 1.00696 0.57186 0.50036
 Co61 Co 1.00661 0.41943 0.50010
 O62 O 1.00702 0.49559 0.50030
 C63 C 1.07180 0.42284 0.44583
 C64 C 0.93664 0.57185 0.44844
 C65 C 1.08034 0.56417 0.44616
 C66 C 0.93106 0.42946 0.44638
 O67 O 0.56737 0.03579 0.55635
 O68 O 0.41262 -0.03274 0.53112
 O69 O 0.46526 0.09820 0.53950
 O70 O 0.53671 -0.10815 0.51712
 O71 O 0.40532 0.05298 0.52156
 O72 O 0.56363 -0.04528 0.54542
 O73 O 0.47924 -0.05960 0.55292
 O74 O 0.55201 0.09975 0.52680
 C75 C 0.56674 0.07885 0.55675
 C76 C 0.43639 -0.05330 0.55782
 C77 C 0.42349 0.08461 0.54341
 C78 C 0.56778 -0.08892 0.54048
 O79 O 0.58458 -0.03095 0.46804
 O80 O 0.42237 0.03916 0.44289
 O81 O 0.53394 0.09194 0.45200
 O82 O 0.44988 -0.09514 0.48763
 O83 O 0.43120 -0.03852 0.45148
 O84 O 0.59226 0.05254 0.47832
 O85 O 0.51962 -0.06387 0.45185
 O86 O 0.44894 0.10330 0.46533
 Co87 Co 0.57027 0.00391 0.51073
 Co88 Co 0.42401 0.00551 0.48799
 Co89 Co 0.49996 0.08990 0.49610
 Co90 Co 0.50099 -0.05848 0.50239
 O91 O 0.49659 0.01285 0.49799
 C92 C 0.56119 -0.05525 0.44435
 C93 C 0.42610 0.08179 0.43993
 C94 C 0.57560 0.07910 0.45125
 C95 C 0.42688 -0.08069 0.45857
 O96 O 0.58035 0.53031 0.05274
 O97 O 0.41965 0.47896 0.04749
 O98 O 0.47707 0.58412 0.05076
 O99 O 0.52593 0.42420 0.04983
 O100 O 0.41221 0.55843 0.02755
 O101 O 0.59038 0.45273 0.02967
 O102 O 0.44665 0.41554 0.02579
 O103 O 0.55542 0.59497 0.03008
 C104 C 0.57491 0.57255 0.05743
 C105 C 0.42406 0.43627 0.05120
 C106 C 0.43459 0.57799 0.05478
 C107 C 0.56860 0.42970 0.05496
 O108 O 0.58235 0.48447 -0.04597
 O109 O 0.42158 0.53296 -0.04962
 O110 O 0.52557 0.58763 -0.04679
 O111 O 0.47679 0.42700 -0.04925
 O112 O 0.41204 0.45312 -0.02927
 O113 O 0.58998 0.56216 -0.02332
 O114 O 0.55551 0.41898 -0.02594
 O115 O 0.44697 0.59635 -0.02534
 Co116 Co 0.57761 0.50739 0.00316
 Co117 Co 0.42465 0.50601 -0.00083
 Co118 Co 0.50130 0.58250 0.00203
 Co119 Co 0.50124 0.42982 0.00028
 O120 O 0.50117 0.50635 0.00118
 C121 C 0.57644 0.44231 -0.05157
 C122 C 0.42621 0.57576 -0.05279
 C123 C 0.56794 0.58161 -0.05093
 C124 C 0.43423 0.43180 -0.05460
 C125 C 1.14872 0.16328 0.17028
 N126 N 1.14205 0.21024 0.17020
 N127 N 1.16903 0.23797 0.19258
 C128 C 1.20369 0.21982 0.21610
 N129 N 1.21049 0.17280 0.21569
 N130 N 1.18356 0.14510 0.19334
 C131 C 1.12075 0.13313 0.14389
 N132 N 1.12941 0.08658 0.14179
 N133 N 1.10686 0.06017 0.11523
 C134 C 1.07472 0.07944 0.08996
 N135 N 1.06549 0.12574 0.09265
 N136 N 1.08795 0.15206 0.11915
 C137 C 1.17523 0.67900 0.66708
 N138 N 1.22284 0.67962 0.66867
 N139 N 1.24601 0.70658 0.69437
 C140 C 1.22258 0.73403 0.71965
 N141 N 1.17485 0.73359 0.71773
 N142 N 1.15168 0.70661 0.69201
 C143 C 1.14961 0.64959 0.63837
 N144 N 1.10199 0.64962 0.63636
 N145 N 1.07881 0.62405 0.60964
 C146 C 1.10236 0.59738 0.58396
 N147 N 1.14998 0.59708 0.58613
 N148 N 1.17316 0.62265 0.61287
 C149 C 0.66035 0.18213 0.67510
 N150 N 0.65896 0.22954 0.67410
 N151 N 0.68535 0.25457 0.69900
 C152 C 0.71425 0.23318 0.72586
 N153 N 0.71550 0.18565 0.72679
 N154 N 0.68902 0.16061 0.70193
 C155 C 0.63330 0.15486 0.64614
 N156 N 0.63442 0.10740 0.64685
 N157 N 0.61213 0.08287 0.61894
 C158 C 0.58806 0.10504 0.58935
 N159 N 0.58656 0.15244 0.58892
 N160 N 0.60869 0.17691 0.61684
 C161 C 0.66053 0.67243 0.18217
 N162 N 0.65480 0.71939 0.18315
 N163 N 0.67918 0.74525 0.20878
 C164 C 0.71018 0.72524 0.23472
 N165 N 0.71571 0.67805 0.23383
 N166 N 0.69130 0.65213 0.20809
 C167 C 0.63600 0.64510 0.15164
 N168 N 0.64291 0.59839 0.14831
 N169 N 0.62272 0.57473 0.11876
 C170 C 0.59508 0.59706 0.09152
 N171 N 0.58788 0.64357 0.09516
 N172 N 0.60793 0.66712 0.12465
 C173 C 0.82321 -0.16792 0.17859
 N174 N 0.78726 -0.14670 0.19663
 N175 N 0.76182 -0.16994 0.22318
 C176 C 0.77124 -0.21536 0.23248
 N177 N 0.80647 -0.23668 0.21344
 N178 N 0.83230 -0.21330 0.18741
 C179 C 0.85074 -0.14321 0.14876
 N180 N 0.89449 -0.15788 0.14031
 N181 N 0.91876 -0.13715 0.11171
 C182 C 0.89979 -0.10150 0.09019
 N183 N 0.85608 -0.08675 0.09868
 N184 N 0.83208 -0.10703 0.12767
 C185 C 0.83581 0.33500 0.67435
 N186 N 0.79945 0.35737 0.69075
 N187 N 0.77158 0.33502 0.71601
 C188 C 0.77891 0.28938 0.72580
 N189 N 0.81455 0.26682 0.70830
 N190 N 0.84276 0.28928 0.68343
 C191 C 0.86525 0.35900 0.64537
 N192 N 0.90762 0.34158 0.63578
 N193 N 0.93297 0.36201 0.60763
 C194 C 0.91647 0.40023 0.58789
 N195 N 0.87430 0.41773 0.59768
 N196 N 0.84928 0.39770 0.62611
 C197 C 0.33407 -0.14706 0.67653
 N198 N 0.28658 -0.14377 0.67571
 N199 N 0.26044 -0.17084 0.69906
 C200 C 0.28067 -0.20223 0.72445
 N201 N 0.32832 -0.20538 0.72526
 N202 N 0.35448 -0.17837 0.70179
 C203 C 0.36227 -0.11927 0.64853
 N204 N 0.40929 -0.12568 0.64566
 N205 N 0.43368 -0.10321 0.61786
 C206 C 0.41192 -0.07338 0.59204
 N207 N 0.36514 -0.06648 0.59542
 N208 N 0.34083 -0.08889 0.62311
 C209 C 0.31776 0.33215 0.16102
 N210 N 0.28749 0.35355 0.18510
 N211 N 0.26133 0.32855 0.20995
 C212 C 0.26443 0.28113 0.21177
 N213 N 0.29445 0.25982 0.18730
 N214 N 0.32059 0.28482 0.16244
 C215 C 0.34661 0.35958 0.13353
 N216 N 0.37605 0.33783 0.10894
 N217 N 0.40139 0.36247 0.08327
 C218 C 0.39839 0.40977 0.08133
 N219 N 0.36922 0.43162 0.10613
 N220 N 0.34383 0.40695 0.13181
 C221 C 0.81879 0.17410 -0.16625
 N222 N 0.77123 0.17490 -0.16723
 N223 N 0.74847 0.20303 -0.19252
 C224 C 0.77236 0.23146 -0.21780
 N225 N 0.82003 0.23114 -0.21606
 N226 N 0.84278 0.20292 -0.19090
 C227 C 0.84407 0.14294 -0.13889
 N228 N 0.89146 0.13990 -0.14027
 N229 N 0.91483 0.11254 -0.11482
 C230 C 0.89161 0.08725 -0.08710
 N231 N 0.84418 0.09000 -0.08585
 N232 N 0.82077 0.11727 -0.11142
 C233 C 0.82573 0.67556 0.33968
 N234 N 0.84549 0.70799 0.31552
 N235 N 0.81890 0.73354 0.29097
 C236 C 0.77147 0.72760 0.28933
 N237 N 0.75170 0.69569 0.31421
 N238 N 0.77833 0.67011 0.33882
 C239 C 0.85510 0.64731 0.36667
 N240 N 0.83511 0.61591 0.39168
 N241 N 0.86150 0.59121 0.41700
 C242 C 0.90886 0.59677 0.41817
 N243 N 0.92902 0.62787 0.39291
 N244 N 0.90256 0.65266 0.36756
 C245 C 0.32243 0.17754 0.32182
 N246 N 0.34013 0.21430 0.30100
 N247 N 0.31335 0.23700 0.27453
 C248 C 0.26788 0.22380 0.26794
 N249 N 0.25012 0.18776 0.28972
 N250 N 0.27701 0.16468 0.31572
 C251 C 0.35111 0.15242 0.35119
 N252 N 0.33919 0.10811 0.36197
 N253 N 0.36383 0.08544 0.38977
 C254 C 0.40087 0.10651 0.40819
 N255 N 0.41289 0.15090 0.39748
 N256 N 0.38856 0.17340 0.36923
 C257 C 0.33088 0.68192 -0.17068
 N258 N 0.30276 0.66122 -0.19824
 N259 N 0.27777 0.68700 -0.22392
 C260 C 0.27993 0.73456 -0.22318
 N261 N 0.30807 0.75510 -0.19543
 N262 N 0.33307 0.72933 -0.16979
 C263 C 0.35729 0.65373 -0.14133
 N264 N 0.38459 0.67501 -0.11352
 N265 N 0.40712 0.64992 -0.08587
 C266 C 0.40328 0.60257 -0.08492
 N267 N 0.37628 0.58114 -0.11290
 N268 N 0.35371 0.60629 -0.14062
 C269 C 1.15960 -0.16156 -0.17604
 N270 N 1.15721 -0.20884 -0.17856
 N271 N 1.18517 -0.23161 -0.20256
 C272 C 1.21660 -0.20810 -0.22531
 N273 N 1.21898 -0.16067 -0.22268
 N274 N 1.19107 -0.13789 -0.19854
 C275 C 1.13035 -0.13699 -0.14772
 N276 N 1.13621 -0.09045 -0.14140
 N277 N 1.11218 -0.06924 -0.11354
 C278 C 1.08117 -0.09372 -0.09114
 N279 N 1.07481 -0.14004 -0.09792
 N280 N 1.09887 -0.16124 -0.12568
 C281 C 1.16148 0.33389 0.32107
 N282 N 1.13788 0.30316 0.29759
 N283 N 1.16064 0.27809 0.27136
 C284 C 1.20785 0.28296 0.26750
 N285 N 1.23116 0.31401 0.29096
 N286 N 1.20847 0.33898 0.31714
 C287 C 1.13741 0.35922 0.35194
 N288 N 1.16236 0.38646 0.37745
 N289 N 1.14130 0.40738 0.40701
 C290 C 1.09448 0.40185 0.41209
 N291 N 1.06939 0.37503 0.38634
 N292 N 1.09049 0.35401 0.35681
 C293 C 0.65964 -0.15479 0.33094
 N294 N 0.63850 -0.18886 0.30930
 N295 N 0.66379 -0.21667 0.28699
 C296 C 0.71125 -0.21160 0.28547
 N297 N 0.73229 -0.17766 0.30744
 N298 N 0.70700 -0.14980 0.32965
 C299 C 0.63236 -0.12549 0.35717
 N300 N 0.65426 -0.09199 0.37891
 N301 N 0.63074 -0.06800 0.40527
 C302 C 0.58437 -0.07639 0.41082
 N303 N 0.56216 -0.10931 0.38857
 N304 N 0.58572 -0.13333 0.36211
 C305 C 0.66679 0.34696 -0.17223
 N306 N 0.64805 0.30707 -0.18726
 N307 N 0.67220 0.28149 -0.21210
 C308 C 0.71609 0.29477 -0.22296
 N309 N 0.73501 0.33440 -0.20731
 N310 N 0.71066 0.36026 -0.18277
 C311 C 0.64140 0.37327 -0.14282
 N312 N 0.65523 0.41722 -0.13294
 N313 N 0.63371 0.43989 -0.10452
 C314 C 0.59800 0.41913 -0.08472
 N315 N 0.58406 0.37530 -0.09474
 N316 N 0.60522 0.35287 -0.12342
 C317 C 1.18213 0.15848 -0.16045
 N318 N 1.22932 0.15550 -0.16391
 N319 N 1.25136 0.18001 -0.19183
 C320 C 1.22717 0.20838 -0.21745
 N321 N 1.17986 0.21082 -0.21414
 N322 N 1.15783 0.18617 -0.18636
 C323 C 1.15727 0.13317 -0.12894
 N324 N 1.10984 0.13450 -0.12834
 N325 N 1.08645 0.11192 -0.10029
 C326 C 1.10939 0.08744 -0.07142
 N327 N 1.15702 0.08621 -0.07163
 N328 N 1.18056 0.10880 -0.09995
 C329 C 1.17098 0.66567 0.32528
 N330 N 1.20227 0.64423 0.30221
 N331 N 1.22890 0.66908 0.27765
 C332 C 1.22524 0.71652 0.27479
 N333 N 1.19345 0.73772 0.29790
 N334 N 1.16688 0.71283 0.32253
 C335 C 1.14461 0.63867 0.35478
 N336 N 1.11678 0.66069 0.38050
 N337 N 1.09555 0.63669 0.40910
 C338 C 1.10134 0.58979 0.41304
 N339 N 1.12871 0.56763 0.38704
 N340 N 1.15001 0.59166 0.35846
 C341 C 0.68291 0.16537 0.33147
 N342 N 0.72860 0.15588 0.32473
 N343 N 0.75204 0.17999 0.29727
 C344 C 0.73069 0.21424 0.27526
 N345 N 0.68526 0.22393 0.28283
 N346 N 0.66181 0.19981 0.30998
 C347 C 0.65607 0.14048 0.36207
 N348 N 0.60981 0.14967 0.36530
 N349 N 0.58473 0.12937 0.39347
 C350 C 0.60476 0.09909 0.41977
 N351 N 0.65114 0.08943 0.41659
 N352 N 0.67638 0.10980 0.38814
 C353 C 0.66875 0.66044 -0.17700
 N354 N 0.71580 0.65423 -0.17781
 N355 N 0.74176 0.67734 -0.20393
 C356 C 0.72170 0.70744 -0.23048
 N357 N 0.67443 0.71337 -0.22977
 N358 N 0.64843 0.69023 -0.20358
 C359 C 0.64132 0.63776 -0.14593
 N360 N 0.59457 0.64536 -0.14301
 N361 N 0.57070 0.62693 -0.11305
 C362 C 0.59289 0.60050 -0.08496
 N363 N 0.63946 0.59261 -0.08815
 N364 N 0.66324 0.61091 -0.11806
 C365 C 0.82780 -0.18444 -0.17087
 N366 N 0.78424 -0.17132 -0.18330
 N367 N 0.76131 -0.19478 -0.21148
 C368 C 0.78145 -0.23168 -0.22910
 N369 N 0.82508 -0.24479 -0.21641
 N370 N 0.84787 -0.22157 -0.18800
 C371 C 0.85202 -0.15923 -0.13883
 N372 N 0.89104 -0.17675 -0.12042
 N373 N 0.91220 -0.15364 -0.09097
 C374 C 0.89508 -0.11212 -0.07910
 N375 N 0.85621 -0.09478 -0.09762
 N376 N 0.83495 -0.11795 -0.12673
 C377 C 0.84082 0.32892 0.32439
 N378 N 0.85191 0.28357 0.31844
 N379 N 0.82687 0.25768 0.29319
 C380 C 0.78974 0.27613 0.27281
 N381 N 0.77867 0.32155 0.27901
 N382 N 0.80382 0.34750 0.30414
 C383 C 0.86650 0.35634 0.35417
 N384 N 0.85689 0.40224 0.35940
 N385 N 0.87824 0.42616 0.38819
 C386 C 0.90974 0.40486 0.41285
 N387 N 0.91960 0.35914 0.40735
 N388 N 0.89847 0.33534 0.37850
 C389 C 0.33244 -0.18410 0.33977
 N390 N 0.33611 -0.23108 0.33636
 N391 N 0.31347 -0.25335 0.30728
 C392 C 0.28642 -0.22965 0.28013
 N393 N 0.28313 -0.18248 0.28373
 N394 N 0.30583 -0.16026 0.31274
 C395 C 0.35622 -0.15881 0.37215
 N396 N 0.35236 -0.11175 0.37366
 N397 N 0.37410 -0.08783 0.40204
 C398 C 0.40036 -0.10982 0.43035
 N399 N 0.40407 -0.15712 0.42930
 N400 N 0.38224 -0.18121 0.40066
 C401 C 0.33456 0.32762 -0.16901
 N402 N 0.28705 0.32844 -0.16928
 N403 N 0.26216 0.30124 -0.19351
 C404 C 0.28370 0.27223 -0.21867
 N405 N 0.33142 0.27113 -0.21810
 N406 N 0.35638 0.29836 -0.19374
 C407 C 0.36131 0.35679 -0.14118
 N408 N 0.40880 0.35442 -0.13825
 N409 N 0.43240 0.37932 -0.11132
 C410 C 0.40928 0.40749 -0.08651
 N411 N 0.36191 0.41022 -0.08980
 N412 N 0.33837 0.38537 -0.11667
 C413 C 1.18979 -0.17532 0.16387
 N414 N 1.23645 -0.16973 0.17131
 N415 N 1.25759 -0.19379 0.20049
 C416 C 1.23299 -0.22422 0.22384
 N417 N 1.18609 -0.22923 0.21632
 N418 N 1.16501 -0.20517 0.18720
 C419 C 1.16606 -0.15064 0.13065
 N420 N 1.11955 -0.15788 0.12387
 N421 N 1.09725 -0.13570 0.09441
 C422 C 1.12046 -0.10556 0.07023
 N423 N 1.16721 -0.09843 0.07666
 N424 N 1.18964 -0.12074 0.10629
 C425 C 1.16950 0.32326 0.67669
 N426 N 1.20072 0.34390 0.70179
 N427 N 1.22598 0.31822 0.72728
 C428 C 1.22095 0.27086 0.72896
 N429 N 1.18931 0.25035 0.70393
 N430 N 1.16405 0.27605 0.67837
 C431 C 1.14451 0.35119 0.64638
 N432 N 1.11617 0.32998 0.61929
 N433 N 1.09591 0.35475 0.59021
 C434 C 1.10321 0.40163 0.58708
 N435 N 1.13115 0.42302 0.61440
 N436 N 1.15149 0.39821 0.64350
 C437 C 0.67469 -0.18898 0.65484
 N438 N 0.70351 -0.16543 0.68024
 N439 N 0.72755 -0.18811 0.70855
 C440 C 0.72340 -0.23529 0.71283
 N441 N 0.69461 -0.25873 0.68722
 N442 N 0.67062 -0.23606 0.65891
 C443 C 0.64817 -0.16374 0.62373
 N444 N 0.61930 -0.18685 0.59799
 N445 N 0.59433 -0.16344 0.57060
 C446 C 0.59751 -0.11611 0.56799
 N447 N 0.62663 -0.09320 0.59351
 N448 N 0.65156 -0.11652 0.62077
 C449 C 0.67430 0.32679 0.16788
 N450 N 0.72012 0.33789 0.17464
 N451 N 0.74628 0.31240 0.19960
 C452 C 0.72769 0.27490 0.21913
 N453 N 0.68212 0.26312 0.21123
 N454 N 0.65585 0.28870 0.18639
 C455 C 0.64581 0.35484 0.14006
 N456 N 0.59916 0.34610 0.13480
 N457 N 0.57394 0.37076 0.10845
 C458 C 0.59458 0.40497 0.08646
 N459 N 0.64108 0.41387 0.09198
 N460 N 0.66619 0.38941 0.11839
 C461 C 0.83907 0.16780 0.16702
 N462 N 0.84621 0.21446 0.17102
 N463 N 0.82183 0.23837 0.19696
 C464 C 0.78939 0.21663 0.22000
 N465 N 0.78250 0.16985 0.21597
 N466 N 0.80695 0.14595 0.19013
 C467 C 0.86362 0.14134 0.13696
 N468 N 0.85532 0.09482 0.13365
 N469 N 0.87515 0.07067 0.10536
 C470 C 0.90405 0.09193 0.07914
 N471 N 0.91285 0.13850 0.08253
 N472 N 0.89293 0.16278 0.11098
 C473 C 0.84055 0.65682 0.67231
 N474 N 0.80769 0.63533 0.69483
 N475 N 0.78053 0.66025 0.71794
 C476 C 0.78529 0.70757 0.71938
 N477 N 0.81835 0.72884 0.69686
 N478 N 0.84546 0.70395 0.67383
 C479 C 0.86794 0.63042 0.64442
 N480 N 0.89763 0.65334 0.61989
 N481 N 0.91976 0.63042 0.59209
 C482 C 0.91307 0.58375 0.58787
 N483 N 0.88396 0.56057 0.61280
 N484 N 0.86170 0.58356 0.64061
 C485 C 0.32716 0.16908 0.66728
 N486 N 0.33874 0.21373 0.67665
 N487 N 0.31671 0.23557 0.70515
 C488 C 0.28292 0.21333 0.72624
 N489 N 0.27120 0.16855 0.71669
 N490 N 0.29300 0.14678 0.68785
 C491 C 0.35126 0.14623 0.63498
 N492 N 0.33453 0.10600 0.61871
 N493 N 0.35677 0.08636 0.58895
 C494 C 0.39656 0.10628 0.57463
 N495 N 0.41311 0.14633 0.59103
 N496 N 0.39077 0.16607 0.62040
 C497 C 0.33678 0.66471 0.17594
 N498 N 0.35870 0.69364 0.20198
 N499 N 0.33393 0.71844 0.22705
 C500 C 0.28618 0.71516 0.22718
 N501 N 0.26462 0.68601 0.20090
 N502 N 0.28936 0.66125 0.17597
 C503 C 0.36316 0.63970 0.14634
 N504 N 0.33998 0.61294 0.11942
 N505 N 0.36302 0.59252 0.09074
 C506 C 0.41012 0.59811 0.08792
 N507 N 0.43352 0.62443 0.11510
 N508 N 0.41041 0.64493 0.14382
   
