data_POSCAR
  _audit_creation_date              2014-09-24
  _audit_creation_method            'ToBaCCo'
  _symmetry_space_group_name_H-M    'P1'
  _symmetry_Int_Tables_number       1
  _symmetry_cell_setting            triclinic
  loop_
  _symmetry_equiv_pos_as_xyz
 x,y,z
_cell_length_a 36.7856
_cell_length_b 34.6149
_cell_length_c 35.1853
_cell_angle_alpha 84.984200
_cell_angle_beta 93.846000
_cell_angle_gamma 93.994300
loop_
  _atom_site_label
  _atom_site_type_symbol
  _atom_site_fract_x
  _atom_site_fract_y
  _atom_site_fract_z
C1 C 0.30078 0.31020 0.23757
 H2 H 0.30365 0.31032 0.26836
 C3 C 0.32486 0.33349 0.21493
 H4 H 0.34628 0.35176 0.22826
 C5 C 0.27014 0.28533 0.18251
 H6 H 0.24939 0.26590 0.16998
 C7 C 0.29363 0.30815 0.15885
 H8 H 0.29061 0.30649 0.12819
 N9 N 0.27395 0.28691 0.22112
 C10 C 0.19206 0.26407 0.30604
 H11 H 0.18976 0.23264 0.30815
 C12 C 0.17043 0.28435 0.32757
 H13 H 0.15147 0.26853 0.34647
 C14 C 0.21924 0.32322 0.27849
 H15 H 0.23788 0.33828 0.25895
 C16 C 0.19810 0.34460 0.29950
 H17 H 0.20080 0.37607 0.29633
 Zn18 Zn 0.24415 0.25408 0.25391
 N19 N 0.21617 0.28367 0.28245
 C20 C 0.27603 0.22302 0.32541
 N21 N 0.27586 0.22354 0.28665
 C22 C 0.29954 0.20304 0.26962
 C23 C 0.32403 0.18007 0.29172
 C24 C 0.30014 0.20038 0.34861
 C25 C 0.18573 0.23900 0.20065
 C26 C 0.16168 0.21658 0.17772
 C27 C 0.18951 0.15900 0.20656
 C28 C 0.21304 0.18247 0.22890
 N29 N 0.21125 0.22178 0.22503
 H30 H 0.25764 0.24020 0.33843
 H31 H 0.29921 0.20448 0.23876
 H32 H 0.34258 0.16362 0.27789
 H33 H 0.30001 0.19989 0.37943
 H34 H 0.18455 0.27026 0.19855
 H35 H 0.14197 0.23056 0.15778
 H36 H 0.19156 0.12780 0.20931
 H37 H 0.23283 0.16919 0.24908
 C38 C 0.17359 0.32497 0.32433
 C39 C 0.32127 0.33236 0.17522
 C40 C 0.16386 0.17624 0.18048
 C41 C 0.32424 0.17862 0.33156
 C42 C 0.80160 0.81166 0.23686
 H43 H 0.80451 0.81190 0.26764
 C44 C 0.82557 0.83498 0.21410
 H45 H 0.84691 0.85338 0.22741
 C46 C 0.77098 0.78644 0.18197
 H47 H 0.75029 0.76686 0.16955
 C48 C 0.79434 0.80926 0.15817
 H49 H 0.79120 0.80740 0.12752
 N50 N 0.77484 0.78818 0.22055
 C51 C 0.69305 0.76512 0.30556
 H52 H 0.69085 0.73368 0.30766
 C53 C 0.67134 0.78528 0.32710
 H54 H 0.65242 0.76939 0.34600
 C55 C 0.72006 0.82436 0.27806
 H56 H 0.73867 0.83950 0.25853
 C57 C 0.69884 0.84565 0.29907
 H58 H 0.70144 0.87712 0.29593
 Zn59 Zn 0.74519 0.75531 0.25347
 N60 N 0.71712 0.78481 0.28199
 C61 C 0.77711 0.72437 0.32500
 N62 N 0.77703 0.72493 0.28624
 C63 C 0.80077 0.70449 0.26924
 C64 C 0.82521 0.68147 0.29138
 C65 C 0.80115 0.70168 0.34823
 C66 C 0.68676 0.73983 0.20032
 C67 C 0.66279 0.71724 0.17748
 C68 C 0.69088 0.65988 0.20645
 C69 C 0.71434 0.68351 0.22869
 N70 N 0.71239 0.72280 0.22471
 H71 H 0.75866 0.74149 0.33799
 H72 H 0.80050 0.70595 0.23838
 H73 H 0.84378 0.66502 0.27758
 H74 H 0.80093 0.70111 0.37905
 H75 H 0.68545 0.77108 0.19814
 H76 H 0.64300 0.73108 0.15753
 H77 H 0.69306 0.62869 0.20929
 H78 H 0.73419 0.67038 0.24889
 C79 C 0.67437 0.82591 0.32390
 C80 C 0.82194 0.83368 0.17438
 C81 C 0.66514 0.67693 0.18036
 C82 C 0.82529 0.67992 0.33122
 C83 C 0.80220 0.30942 0.73894
 H84 H 0.80518 0.30954 0.76973
 C85 C 0.82613 0.33281 0.71621
 H86 H 0.84754 0.35115 0.72946
 C87 C 0.77144 0.28450 0.68398
 H88 H 0.75069 0.26502 0.67151
 C89 C 0.79477 0.30742 0.66023
 H90 H 0.79163 0.30579 0.62957
 N91 N 0.77537 0.28607 0.72258
 C92 C 0.69362 0.26321 0.80766
 H93 H 0.69137 0.23177 0.80985
 C94 C 0.67190 0.28350 0.82909
 H95 H 0.65293 0.26770 0.84799
 C96 C 0.72071 0.32233 0.77999
 H97 H 0.73932 0.33738 0.76041
 C98 C 0.69949 0.34374 0.80088
 H99 H 0.70211 0.37520 0.79760
 Zn100 Zn 0.74566 0.25321 0.75544
 N101 N 0.71772 0.28278 0.78404
 C102 C 0.77759 0.22191 0.82685
 N103 N 0.77742 0.22261 0.78808
 C104 C 0.80107 0.20220 0.77093
 C105 C 0.82554 0.17907 0.79289
 C106 C 0.80166 0.19914 0.84997
 C107 C 0.68713 0.23817 0.70230
 C108 C 0.66309 0.21580 0.67933
 C109 C 0.69102 0.15820 0.70796
 C110 C 0.71455 0.18162 0.73034
 N111 N 0.71272 0.22093 0.72658
 H112 H 0.75921 0.23903 0.83994
 H113 H 0.80072 0.20378 0.74006
 H114 H 0.84400 0.16272 0.77879
 H115 H 0.80139 0.19860 0.88080
 H116 H 0.68592 0.26943 0.70029
 H117 H 0.64335 0.22981 0.65945
 H118 H 0.69312 0.12700 0.71060
 H119 H 0.73438 0.16832 0.75044
 C120 C 0.67496 0.32413 0.82571
 C121 C 0.82239 0.33172 0.67650
 C122 C 0.66533 0.17548 0.68195
 C123 C 0.82577 0.17738 0.83281
 C124 C 0.30104 0.81087 0.73810
 H125 H 0.30392 0.81107 0.76889
 C126 C 0.32509 0.83415 0.71540
 H127 H 0.34648 0.85249 0.72868
 C128 C 0.27045 0.78579 0.68313
 H129 H 0.24975 0.76628 0.67065
 C130 C 0.29391 0.80859 0.65941
 H131 H 0.29089 0.80683 0.62876
 N132 N 0.27426 0.78748 0.72172
 C133 C 0.19244 0.76442 0.80672
 H134 H 0.19027 0.73298 0.80889
 C135 C 0.17065 0.78463 0.82815
 H136 H 0.15170 0.76876 0.84702
 C137 C 0.21941 0.82363 0.77910
 H138 H 0.23802 0.83875 0.75956
 C139 C 0.19812 0.84495 0.80000
 H140 H 0.20066 0.87642 0.79675
 Zn141 Zn 0.24456 0.75458 0.75457
 N142 N 0.21651 0.78408 0.78313
 C143 C 0.27653 0.72339 0.82601
 N144 N 0.27638 0.72410 0.78724
 C145 C 0.30011 0.70376 0.77011
 C146 C 0.32463 0.68073 0.79211
 C147 C 0.30066 0.70068 0.84912
 C148 C 0.18615 0.73931 0.70134
 C149 C 0.16219 0.71680 0.67841
 C150 C 0.19020 0.65934 0.70727
 C151 C 0.21364 0.68289 0.72961
 N152 N 0.21173 0.72219 0.72572
 H153 H 0.25809 0.74044 0.83911
 H154 H 0.29978 0.70534 0.73924
 H155 H 0.34320 0.66438 0.77819
 H156 H 0.30051 0.70002 0.87994
 H157 H 0.18488 0.77056 0.69923
 H158 H 0.14245 0.73071 0.65845
 H159 H 0.19235 0.62815 0.71002
 H160 H 0.23347 0.66968 0.74979
 C161 C 0.17361 0.82526 0.82481
 C162 C 0.32151 0.83289 0.67570
 C163 C 0.16451 0.67649 0.68117
 C164 C 0.32480 0.67906 0.83196
 C165 C 0.03237 -0.03287 -0.03336
 C166 C 0.05557 -0.00657 -0.00702
 C167 C 0.03534 0.01452 0.01368
 C168 C -0.00615 0.00754 0.00629
 C169 C 0.00686 -0.05793 -0.00706
 C170 C -0.01325 -0.03668 0.01364
 C171 C 0.00748 -0.00566 -0.05806
 C172 C -0.01264 0.01542 -0.03721
 H173 H 0.08524 -0.00488 -0.00482
 H174 H -0.02256 0.02479 0.02321
 H175 H 0.00471 -0.08950 -0.00517
 H176 H 0.00562 -0.00357 -0.08912
 C177 C 0.03357 0.46703 0.46723
 C178 C 0.05679 0.49330 0.49359
 C179 C 0.03657 0.51436 0.51434
 C180 C -0.00492 0.50738 0.50698
 C181 C 0.00808 0.44194 0.49353
 C182 C -0.01201 0.46316 0.51427
 C183 C 0.00866 0.49427 0.44259
 C184 C -0.01143 0.51532 0.46348
 H185 H 0.08646 0.49500 0.49575
 H186 H -0.02132 0.52460 0.52393
 H187 H 0.00595 0.41037 0.49540
 H188 H 0.00682 0.49644 0.41153
 C189 C 0.53398 -0.03282 0.46718
 C190 C 0.55721 -0.00660 0.49359
 C191 C 0.53700 0.01443 0.51437
 C192 C 0.49551 0.00749 0.50699
 C193 C 0.50847 -0.05794 0.49344
 C194 C 0.48839 -0.03674 0.51422
 C195 C 0.50909 -0.00553 0.44258
 C196 C 0.48900 0.01549 0.46351
 H197 H 0.58688 -0.00496 0.49579
 H198 H 0.47913 0.02470 0.52398
 H199 H 0.50627 -0.08950 0.49521
 H200 H 0.50715 -0.00341 0.41152
 C201 C 0.53410 0.46668 -0.03273
 C202 C 0.55730 0.49298 -0.00639
 C203 C 0.53706 0.51410 0.01428
 C204 C 0.49558 0.50713 0.00688
 C205 C 0.50857 0.44165 -0.00644
 C206 C 0.48846 0.46292 0.01423
 C207 C 0.50923 0.49390 -0.05746
 C208 C 0.48911 0.51500 -0.03663
 H209 H 0.58697 0.49470 -0.00422
 H210 H 0.47917 0.52440 0.02378
 H211 H 0.50634 0.41008 -0.00459
 H212 H 0.50737 0.49596 -0.08851
 C213 C 0.15149 -0.15329 -0.15336
 C214 C 0.13306 -0.13521 -0.13508
 C215 C 0.11158 -0.11392 -0.11367
 C216 C 0.09335 -0.09563 -0.09539
 C217 C 0.07213 -0.07408 -0.07398
 C218 C 0.05413 -0.05556 -0.05567
 C219 C 0.15170 0.34649 0.34635
 C220 C 0.13347 0.36461 0.36480
 C221 C 0.11224 0.38595 0.38641
 C222 C 0.09420 0.40428 0.40485
 C223 C 0.07316 0.42585 0.42643
 C224 C 0.05527 0.44437 0.44485
 C225 C 0.65241 -0.15269 0.34595
 C226 C 0.63412 -0.13468 0.36445
 C227 C 0.61281 -0.11349 0.38612
 C228 C 0.59470 -0.09530 0.40462
 C229 C 0.57361 -0.07386 0.42628
 C230 C 0.55568 -0.05542 0.44475
 C231 C 0.65291 0.34568 -0.15247
 C232 C 0.63454 0.36386 -0.13422
 C233 C 0.61315 0.38528 -0.11287
 C234 C 0.59497 0.40369 -0.09464
 C235 C 0.57381 0.42535 -0.07327
 C236 C 0.55584 0.44394 -0.05501
 C237 C -0.15169 0.15550 -0.14629
 C238 C -0.13076 0.13498 -0.12766
 C239 C -0.10607 0.11052 -0.10673
 C240 C -0.08485 0.08927 -0.08962
 C241 C -0.05985 0.06397 -0.07048
 C242 C -0.03839 0.04203 -0.05491
 C243 C -0.14997 0.65587 0.35434
 C244 C -0.12911 0.63531 0.37298
 C245 C -0.10451 0.61077 0.39395
 C246 C -0.08338 0.58944 0.41109
 C247 C -0.05848 0.56405 0.43025
 C248 C -0.03711 0.54203 0.44582
 C249 C 0.34916 0.15475 0.35465
 C250 C 0.37021 0.13437 0.37325
 C251 C 0.39504 0.11007 0.39416
 C252 C 0.41639 0.08896 0.41126
 C253 C 0.44154 0.06382 0.43037
 C254 C 0.46312 0.04199 0.44589
 C255 C 0.34969 0.65505 -0.14507
 C256 C 0.37070 0.63453 -0.12659
 C257 C 0.39549 0.61006 -0.10583
 C258 C 0.41678 0.58881 -0.08885
 C259 C 0.44184 0.56351 -0.06983
 C260 C 0.46334 0.54159 -0.05432
 C261 C -0.15417 -0.14501 0.15165
 C262 C -0.13291 -0.12676 0.13125
 C263 C -0.10786 -0.10615 0.10701
 C264 C -0.08635 -0.08922 0.08604
 C265 C -0.06103 -0.07016 0.06115
 C266 C -0.03931 -0.05456 0.03964
 C267 C -0.15246 0.35436 0.65250
 C268 C -0.13126 0.37269 0.63208
 C269 C -0.10631 0.39339 0.60782
 C270 C -0.08488 0.41041 0.58681
 C271 C -0.05965 0.42956 0.56188
 C272 C -0.03800 0.44523 0.54033
 C273 C 0.34685 -0.14468 0.65177
 C274 C 0.36822 -0.12654 0.63142
 C275 C 0.39340 -0.10607 0.60725
 C276 C 0.41502 -0.08922 0.58635
 C277 C 0.44045 -0.07023 0.56155
 C278 C 0.46226 -0.05465 0.54012
 C279 C 0.34663 0.35484 0.15135
 C280 C 0.36803 0.37303 0.13106
 C281 C 0.39324 0.39358 0.10699
 C282 C 0.41490 0.41048 0.08616
 C283 C 0.44039 0.42950 0.06145
 C284 C 0.46225 0.44508 0.04008
 C285 C 0.14085 0.15262 0.15577
 C286 C 0.12243 0.13242 0.13473
 C287 C 0.10188 0.10831 0.10974
 C288 C 0.08522 0.08735 0.08812
 C289 C 0.06677 0.06240 0.06250
 C290 C 0.05194 0.04076 0.04038
 C291 C 0.14161 0.65278 0.65643
 C292 C 0.12330 0.63251 0.63538
 C293 C 0.10287 0.60832 0.61038
 C294 C 0.08631 0.58730 0.58875
 C295 C 0.06795 0.56229 0.56313
 C296 C 0.05317 0.54061 0.54102
 C297 C 0.64236 0.15191 0.65714
 C298 C 0.62398 0.13178 0.63601
 C299 C 0.60348 0.10776 0.61090
 C300 C 0.58686 0.08690 0.58917
 C301 C 0.56844 0.06206 0.56341
 C302 C 0.55363 0.04053 0.54118
 C303 C 0.64220 0.65312 0.15573
 C304 C 0.62386 0.63276 0.13479
 C305 C 0.60341 0.60846 0.10991
 C306 C 0.58682 0.58735 0.08839
 C307 C 0.56844 0.56223 0.06288
 C308 C 0.55366 0.54046 0.04086
   
