data_POSCAR
  _audit_creation_date              2014-09-24
  _audit_creation_method            'ToBaCCo'
  _symmetry_space_group_name_H-M    'P1'
  _symmetry_Int_Tables_number       1
  _symmetry_cell_setting            triclinic
  loop_
  _symmetry_equiv_pos_as_xyz
 x,y,z
_cell_length_a 32.9711
_cell_length_b 9.4677
_cell_length_c 12.5834
_cell_angle_alpha 90.170200
_cell_angle_beta 90.074500
_cell_angle_gamma 91.369900
loop_
  _atom_site_label
  _atom_site_type_symbol
  _atom_site_fract_x
  _atom_site_fract_y
  _atom_site_fract_z
C1 C 0.61353 0.05099 0.49117
 C2 C 0.63468 0.05834 0.58724
 C3 C 0.67710 0.05125 0.58733
 C4 C 0.69907 0.03234 0.49149
 C5 C 0.67646 0.02275 0.39549
 C6 C 0.63430 0.03785 0.39526
 C7 C 0.74502 0.03677 0.49109
 C8 C 0.76740 0.05763 0.39541
 C9 C 0.80989 0.06772 0.39708
 C10 C 0.83054 0.06351 0.49321
 C11 C 0.80968 0.04377 0.58786
 C12 C 0.76742 0.02580 0.58729
 H13 H 0.58106 0.06788 0.49011
 H14 H 0.69239 0.06946 0.66216
 H15 H 0.69096 0.01062 0.31941
 H16 H 0.75272 0.06793 0.31933
 H17 H 0.86346 0.07390 0.49448
 H18 H 0.75288 0.00344 0.66230
 C19 C 0.16785 0.90415 0.50896
 C20 C 0.18864 0.90534 0.60547
 C21 C 0.23090 0.92399 0.60702
 C22 C 0.25289 0.94876 0.51153
 C23 C 0.23037 0.95534 0.41533
 C24 C 0.18848 0.92844 0.41411
 C25 C 0.29869 0.96297 0.51119
 C26 C 0.32068 0.94995 0.41503
 C27 C 0.36305 0.95188 0.41445
 C28 C 0.38447 0.96316 0.50949
 C29 C 0.36388 0.96838 0.60598
 C30 C 0.32141 0.97450 0.60700
 H31 H 0.13512 0.88793 0.50771
 H32 H 0.24570 0.91839 0.68326
 H33 H 0.24450 0.98198 0.34055
 H34 H 0.30572 0.92791 0.34035
 H35 H 0.41721 0.95221 0.50883
 H36 H 0.30690 0.98026 0.68356
 C37 C 0.32919 0.38651 -0.50741
 C38 C 0.30839 0.39080 -0.60323
 C39 C 0.26656 0.41361 -0.60427
 C40 C 0.24526 0.43979 -0.50811
 C41 C 0.26813 0.44366 -0.41226
 C42 C 0.30945 0.41328 -0.41240
 C43 C 0.19987 0.46036 -0.50695
 C44 C 0.17748 0.44778 -0.41103
 C45 C 0.13506 0.45510 -0.41036
 C46 C 0.11414 0.47087 -0.50593
 C47 C 0.13515 0.47759 -0.60204
 C48 C 0.17764 0.47857 -0.60233
 H49 H 0.36162 0.36858 -0.50718
 H50 H 0.25169 0.41091 -0.68056
 H51 H 0.25477 0.47207 -0.33718
 H52 H 0.19209 0.42239 -0.33692
 H53 H 0.08121 0.46351 -0.50669
 H54 H 0.19238 0.48517 -0.67860
 C55 C -0.11719 0.51747 -0.49417
 C56 C -0.13769 0.53945 -0.58930
 C57 C -0.17975 0.55574 -0.58902
 C58 C -0.20235 0.54659 -0.49353
 C59 C -0.18060 0.52381 -0.39800
 C60 C -0.13823 0.51606 -0.39831
 C61 C -0.24718 0.57588 -0.49316
 C62 C -0.26809 0.60640 -0.39751
 C63 C -0.30954 0.63441 -0.39861
 C64 C -0.33032 0.64082 -0.49482
 C65 C -0.31072 0.61127 -0.58995
 C66 C -0.26986 0.57489 -0.58921
 H67 H -0.08422 0.51869 -0.49331
 H68 H -0.19372 0.58626 -0.66287
 H69 H -0.19540 0.52099 -0.32170
 H70 H -0.25320 0.60754 -0.32122
 H71 H -0.36253 0.66231 -0.49521
 H72 H -0.25675 0.54338 -0.66388
 O73 O -0.03048 0.71440 0.20952
 O74 O -0.08478 0.76523 0.10302
 C75 C -0.06841 0.70308 0.18327
 O76 O 0.02832 1.30901 0.18282
 O77 O 0.08366 1.23870 0.08734
 C78 C 0.06661 1.31511 0.15943
 O79 O -0.07672 1.15508 0.19382
 O80 O -0.10747 0.97964 0.09398
 C81 C -0.10744 1.07340 0.16910
 O82 O 0.07672 0.84532 0.19958
 O83 O 0.10687 1.01792 0.09640
 C84 C 0.10713 0.92712 0.17343
 Zr85 Zr 0.01684 0.83568 0.13918
 O86 O 0.02117 0.83341 0.30689
 O87 O 0.03522 0.62363 0.13325
 Zr88 Zr -0.01829 1.17073 0.12511
 O89 O -0.01952 1.21362 0.28991
 O90 O -0.04418 1.36962 0.09832
 O91 O -0.03417 0.95999 0.15486
 O92 O 0.03167 1.04795 0.15185
 O93 O 0.07775 0.81927 -0.18342
 O94 O 0.10745 1.00404 -0.09087
 C95 C 0.10810 0.90368 -0.16121
 O96 O -0.07622 1.12775 -0.20598
 O97 O -0.10710 0.96359 -0.09694
 C98 C -0.10683 1.04787 -0.17770
 O99 O 0.02895 1.28506 -0.20157
 O100 O 0.08409 1.22589 -0.10038
 C101 C 0.06717 1.29419 -0.17717
 O102 O -0.03002 0.69226 -0.19209
 O103 O -0.08445 0.75211 -0.08910
 C104 C -0.06800 0.68238 -0.16577
 Zr105 Zr 0.01766 0.81624 -0.12443
 O106 O 0.02325 0.77797 -0.28919
 O107 O 0.03550 0.60627 -0.09617
 Zr108 Zr -0.01747 1.15107 -0.13893
 O109 O -0.01553 1.15884 -0.30684
 O110 O -0.04369 1.35254 -0.13582
 Zr111 Zr -0.05760 0.91680 0.00177
 Zr112 Zr 0.05714 1.07050 -0.00113
 O113 O 0.03269 1.02587 -0.15289
 O114 O -0.03318 0.93755 -0.15250
 O115 O 0.05490 0.84777 0.00750
 O116 O -0.05441 1.13869 -0.00698
 O117 O -0.01448 0.75705 0.00901
 O118 O 0.01446 1.23327 -0.00875
 H119 H 0.04718 1.07271 0.21698
 H120 H -0.08040 1.18907 -0.00961
 H121 H 0.04867 1.04281 -0.21840
 H122 H -0.02492 0.65831 0.01178
 H123 H -0.02151 1.43646 0.08316
 H124 H -0.02296 1.41953 -0.10728
 H125 H -0.02222 1.06244 -0.33296
 H126 H 0.01405 0.86399 -0.32535
 H127 H 0.06510 0.60806 -0.08304
 H128 H 0.06353 0.62394 0.10722
 H129 H -0.00077 0.89285 0.33428
 H130 H -0.01353 1.12394 0.32594
 O131 O 0.42377 0.32960 0.19019
 O132 O 0.39261 0.49906 0.09110
 C133 C 0.39282 0.40482 0.16549
 O134 O 0.57642 0.67184 0.19772
 O135 O 0.60713 0.50463 0.09455
 C136 C 0.60711 0.59630 0.17142
 O137 O 0.46896 0.78221 0.20691
 O138 O 0.41469 0.71908 0.10095
 C139 C 0.43100 0.78589 0.18079
 O140 O 0.52923 0.19745 0.17980
 O141 O 0.58455 0.27877 0.08536
 C142 C 0.56756 0.19871 0.15681
 Zr143 Zr 0.48239 0.32658 0.12244
 O144 O 0.48111 0.28518 0.28729
 O145 O 0.45711 0.12233 0.09559
 Zr146 Zr 0.51649 0.66818 0.13775
 O147 O 0.52040 0.66822 0.30561
 O148 O 0.53441 0.88377 0.13477
 O149 O 0.46576 0.53405 0.15268
 O150 O 0.53201 0.45919 0.14981
 O151 O 0.53016 0.21978 -0.20359
 O152 O 0.58514 0.29103 -0.10262
 C153 C 0.56838 0.21832 -0.17920
 O154 O 0.46957 0.80204 -0.19326
 O155 O 0.41511 0.73111 -0.09138
 C156 C 0.43152 0.80444 -0.16740
 O157 O 0.57764 0.69667 -0.18416
 O158 O 0.60783 0.51799 -0.09216
 C159 C 0.60826 0.61881 -0.16183
 O160 O 0.42469 0.35460 -0.20857
 O161 O 0.39324 0.51303 -0.09957
 C162 C 0.39381 0.42796 -0.18019
 Zr163 Zr 0.48345 0.34572 -0.14169
 O164 O 0.48608 0.34087 -0.30966
 O165 O 0.45765 0.13928 -0.14129
 Zr166 Zr 0.51749 0.68731 -0.12593
 O167 O 0.52302 0.72602 -0.29060
 O168 O 0.53483 0.90075 -0.09681
 Zr169 Zr 0.44238 0.57217 -0.00047
 Zr170 Zr 0.55761 0.44147 -0.00309
 O171 O 0.53325 0.48077 -0.15491
 O172 O 0.46699 0.55590 -0.15465
 O173 O 0.51542 0.27022 -0.01144
 O174 O 0.48510 0.74028 0.00751
 O175 O 0.44638 0.35094 -0.00985
 O176 O 0.55464 0.66363 0.00620
 H177 H 0.54764 0.43777 0.21480
 H178 H 0.47445 0.83698 0.01039
 H179 H 0.54942 0.46664 -0.22017
 H180 H 0.42064 0.29478 -0.01274
 H181 H 0.56226 0.88970 0.10564
 H182 H 0.56442 0.90497 -0.08347
 H183 H 0.51449 0.63758 -0.32696
 H184 H 0.47751 0.43431 -0.33510
 H185 H 0.47794 0.07676 -0.10982
 H186 H 0.47991 0.06079 0.07811
 H187 H 0.48783 0.37565 0.32319
 H188 H 0.49713 0.61078 0.33222
 C189 C 0.33257 0.38729 0.30177
 C190 C 0.35802 0.39177 0.23318
 C191 C -0.11556 0.57938 0.32440
 C192 C -0.09456 0.62818 0.25499
 C193 C 0.66540 0.60776 0.31413
 C194 C 0.64110 0.60387 0.24247
 C195 C 0.11287 1.44325 0.30227
 C196 C 0.09247 1.39455 0.23077
 C197 C 0.61423 0.09881 -0.32375
 C198 C 0.59427 0.14599 -0.25210
 C199 C 0.16628 0.89806 -0.30355
 C200 C 0.14216 0.89740 -0.23162
 C201 C 0.38477 0.93087 -0.30536
 C202 C 0.40533 0.88113 -0.23628
 C203 C -0.16641 1.04307 -0.31659
 C204 C -0.14128 1.04543 -0.24708
 C205 C 0.66692 0.63847 -0.30242
 C206 C 0.64252 0.63333 -0.23124
 C207 C 0.11355 1.41635 -0.32205
 C208 C 0.09306 1.36905 -0.25053
 C209 C 0.33395 0.41797 -0.31798
 C210 C 0.35928 0.42159 -0.24907
 C211 C -0.11539 0.55195 -0.30428
 C212 C -0.09429 0.60238 -0.23513
 C213 C 0.38479 0.90854 0.32154
 C214 C 0.40502 0.85905 0.25191
 C215 C -0.16716 1.07581 0.30729
 C216 C -0.14202 1.07787 0.23783
 C217 C 0.61309 0.07423 0.29909
 C218 C 0.59330 0.12249 0.22765
 C219 C 0.16510 0.92888 0.31727
 C220 C 0.14103 0.92770 0.24499
   
