data_POSCAR
  _audit_creation_date              2014-09-24
  _audit_creation_method            'ToBaCCo'
  _symmetry_space_group_name_H-M    'P1'
  _symmetry_Int_Tables_number       1
  _symmetry_cell_setting            triclinic
  loop_
  _symmetry_equiv_pos_as_xyz
 x,y,z
_cell_length_a 42.4306
_cell_length_b 45.4364
_cell_length_c 40.0650
_cell_angle_alpha 91.111000
_cell_angle_beta 89.733300
_cell_angle_gamma 92.280400
loop_
  _atom_site_label
  _atom_site_type_symbol
  _atom_site_fract_x
  _atom_site_fract_y
  _atom_site_fract_z
N1 N 0.24265 0.24747 0.22107
 N2 N -0.25273 0.75143 0.22684
 N3 N -0.25686 0.24622 -0.25602
 N4 N 0.24483 0.75900 -0.25786
 N5 N 0.24332 1.23808 0.77208
 N6 N 0.76574 0.76059 0.75940
 N7 N 0.24886 0.74993 1.26478
 N8 N 0.75953 1.24620 1.26834
 O9 O 0.53179 0.97063 0.94146
 O10 O 0.46692 0.97192 1.05777
 O11 O 0.55516 0.96691 1.01559
 O12 O 0.45415 0.95316 0.99158
 O13 O 0.52374 0.96628 1.05750
 O14 O 0.47233 0.96571 0.94165
 O15 O 0.42188 0.98148 1.03171
 O16 O 0.56920 0.99548 0.96714
 C17 C 0.56053 0.97576 0.94649
 C18 C 0.43661 0.97067 1.05713
 C19 C 0.54491 0.95466 1.04092
 C20 C 0.45781 0.94745 0.96077
 O21 O 0.47062 1.02506 0.94214
 O22 O 0.53530 1.02637 1.05744
 O23 O 0.54816 1.04332 0.99237
 O24 O 0.44681 1.02987 1.01672
 O25 O 0.47850 1.03200 1.05813
 O26 O 0.53007 1.03005 0.94223
 O27 O 0.43315 1.00069 0.96767
 O28 O 0.58035 1.01541 1.03164
 Co29 Co 0.50121 0.99790 0.94633
 Co30 Co 0.50112 0.99907 1.05264
 Co31 Co 0.54809 1.00492 1.00560
 Co32 Co 0.45413 0.99176 1.00579
 O33 O 0.50110 0.99839 0.99893
 C34 C 0.44188 1.02013 0.94746
 C35 C 0.56559 1.02670 1.05738
 C36 C 0.54445 1.04863 0.96175
 C37 C 0.45706 1.04291 1.04201
 O38 O 0.03591 0.48416 0.04734
 O39 O 0.02921 0.52747 -0.06977
 O40 O 0.00442 0.43952 -0.03509
 O41 O 0.04216 0.53859 0.03290
 O42 O 0.03038 0.47273 -0.06397
 O43 O 0.01047 0.52937 0.07139
 O44 O 0.04985 0.54331 -0.02379
 O45 O 0.01828 0.44410 0.02380
 C46 C 0.03933 0.45781 0.04020
 C47 C 0.05083 0.54100 -0.05448
 C48 C 0.02701 0.44696 -0.05405
 C49 C 0.03507 0.54237 0.06254
 O50 O -0.04195 0.51455 0.04517
 O51 O -0.03140 0.47001 -0.06744
 O52 O -0.04136 0.46149 0.03777
 O53 O -0.01001 0.56038 -0.03336
 O54 O -0.03126 0.52564 -0.06643
 O55 O -0.01499 0.47781 0.08078
 O56 O -0.02010 0.55547 0.02712
 O57 O -0.05320 0.46073 -0.02021
 Co58 Co -0.00321 0.49846 0.04435
 Co59 Co -0.00074 0.49894 -0.06106
 Co60 Co -0.01632 0.45570 0.00099
 Co61 Co 0.01403 0.54561 0.00051
 O62 O -0.00043 0.50099 -0.00608
 C63 C -0.04318 0.54165 0.04056
 C64 C -0.05468 0.46086 -0.05102
 C65 C -0.03502 0.45853 0.06832
 C66 C -0.02920 0.55192 -0.05608
 O67 O 1.05871 0.03306 0.46419
 O68 O 0.94922 0.02591 0.53278
 O69 O 0.98884 0.03592 0.43979
 O70 O 1.01164 0.04561 0.54713
 O71 O 0.94922 0.03369 0.47293
 O72 O 1.05882 0.03526 0.52718
 O73 O 0.97376 0.01506 0.58023
 O74 O 1.03486 0.00905 0.42392
 C75 C 1.05411 0.02901 0.43365
 C76 C 0.94984 0.02612 0.56485
 C77 C 0.96468 0.04686 0.45103
 C78 C 1.04066 0.05230 0.54327
 O79 O 1.05897 -0.02409 0.52712
 O80 O 0.94994 -0.02583 0.45915
 O81 O 1.01141 -0.04028 0.44491
 O82 O 0.98837 -0.03205 0.55255
 O83 O 0.94927 -0.03361 0.51903
 O84 O 1.05870 -0.02649 0.46424
 O85 O 1.03463 -0.00234 0.56773
 O86 O 0.97395 -0.01209 0.41178
 Co87 Co 1.05459 0.00429 0.49567
 Co88 Co 0.95422 0.00024 0.49595
 Co89 Co 0.99862 -0.00221 0.44608
 Co90 Co 0.99847 0.00667 0.54591
 O91 O 1.00491 0.00235 0.49597
 C92 C 1.05401 -0.02073 0.55769
 C93 C 0.94994 -0.02496 0.42712
 C94 C 1.04033 -0.04510 0.44889
 C95 C 0.96443 -0.04507 0.54143
 C96 C 1.22322 0.22737 0.23792
 C97 C 1.20685 0.20964 0.25282
 C98 C 1.18808 0.18816 0.27099
 C99 C 1.15640 0.19300 0.27835
 C100 C 1.13854 0.17242 0.29679
 C101 C 1.15216 0.14669 0.30813
 C102 C 1.18395 0.14194 0.30032
 C103 C 1.20175 0.16254 0.28191
 C104 C 1.13358 0.12524 0.32870
 C105 C 1.13698 0.09471 0.32418
 C106 C 1.12032 0.07463 0.34439
 C107 C 1.10003 0.08477 0.36935
 C108 C 1.09622 0.11505 0.37378
 C109 C 1.11283 0.13515 0.35362
 C110 C 1.08376 0.06430 0.39112
 C111 C 1.07021 0.04776 0.41010
 H112 H 1.14555 0.21273 0.26999
 H113 H 1.11404 0.17657 0.30203
 H114 H 1.19528 0.12262 0.30908
 H115 H 1.22628 0.15861 0.27647
 H116 H 1.15244 0.08634 0.30495
 H117 H 1.12344 0.05124 0.34071
 H118 H 1.08069 0.12317 0.39312
 H119 H 1.11000 0.15848 0.35807
 C120 C 0.76607 -0.22823 0.24478
 C121 C 0.78204 -0.21030 0.26047
 C122 C 0.80064 -0.18860 0.27928
 C123 C 0.82769 -0.19670 0.29611
 C124 C 0.84547 -0.17567 0.31471
 C125 C 0.83642 -0.14620 0.31673
 C126 C 0.80924 -0.13828 0.29960
 C127 C 0.79148 -0.15935 0.28105
 C128 C 0.85522 -0.12388 0.33666
 C129 C 0.86085 -0.09518 0.32476
 C130 C 0.87896 -0.07437 0.34334
 C131 C 0.89162 -0.08191 0.37407
 C132 C 0.88593 -0.11030 0.38624
 C133 C 0.86787 -0.13114 0.36771
 C134 C 0.91135 -0.06096 0.39268
 C135 C 0.92853 -0.04407 0.40836
 H136 H 0.83505 -0.21926 0.29486
 H137 H 0.86650 -0.18240 0.32720
 H138 H 0.80142 -0.11589 0.30099
 H139 H 0.77051 -0.15284 0.26822
 H140 H 0.85176 -0.08899 0.30079
 H141 H 0.88335 -0.05251 0.33357
 H142 H 0.89561 -0.11640 0.40999
 H143 H 0.86361 -0.15288 0.37779
 C144 C 0.76257 0.22627 0.72833
 C145 C 0.77911 0.20862 0.71469
 C146 C 0.79840 0.18721 0.69840
 C147 C 0.78792 0.15762 0.69627
 C148 C 0.80638 0.13681 0.68014
 C149 C 0.83562 0.14532 0.66584
 C150 C 0.84601 0.17511 0.66825
 C151 C 0.82751 0.19588 0.68443
 C152 C 0.85509 0.12331 0.64825
 C153 C 0.87104 0.13058 0.61848
 C154 C 0.88946 0.10998 0.60197
 C155 C 0.89224 0.08182 0.61491
 C156 C 0.87640 0.07428 0.64444
 C157 C 0.85791 0.09487 0.66101
 C158 C 0.91186 0.06103 0.59799
 C159 C 0.92885 0.04450 0.58322
 H160 H 0.76538 0.15067 0.70692
 H161 H 0.79754 0.11415 0.67836
 H162 H 0.86858 0.18230 0.65793
 H163 H 0.83591 0.21869 0.68601
 H164 H 0.86901 0.15211 0.60775
 H165 H 0.90159 0.11606 0.57911
 H166 H 0.87849 0.05259 0.65478
 H167 H 0.84624 0.08870 0.68407
 C168 C 1.22563 -0.22038 0.72846
 C169 C 1.20932 -0.20221 0.71639
 C170 C 1.19044 -0.18025 0.70166
 C171 C 1.15748 -0.18271 0.70338
 C172 C 1.13926 -0.16164 0.68843
 C173 C 1.15378 -0.13779 0.67154
 C174 C 1.18694 -0.13540 0.67025
 C175 C 1.20510 -0.15648 0.68521
 C176 C 1.13454 -0.11596 0.65450
 C177 C 1.14375 -0.08583 0.65501
 C178 C 1.12655 -0.06558 0.63742
 C179 C 1.09989 -0.07513 0.61918
 C180 C 1.09020 -0.10494 0.61905
 C181 C 1.10734 -0.12521 0.63659
 C182 C 1.08348 -0.05484 0.59897
 C183 C 1.06993 -0.03868 0.58083
 H184 H 1.14588 -0.20097 0.71615
 H185 H 1.11381 -0.16393 0.69021
 H186 H 1.19886 -0.11760 0.65704
 H187 H 1.23059 -0.15438 0.68366
 H188 H 1.16432 -0.07793 0.66891
 H189 H 1.13432 -0.04257 0.63765
 H190 H 1.06973 -0.11263 0.60480
 H191 H 1.09985 -0.14827 0.63530
 C192 C 0.26564 1.23389 1.20225
 C193 C 0.28560 1.22179 1.18613
 C194 C 0.30921 1.20669 1.16732
 C195 C 0.31092 1.20913 1.13258
 C196 C 0.33281 1.19313 1.11425
 C197 C 0.35327 1.17446 1.13049
 C198 C 0.35173 1.17263 1.16550
 C199 C 0.32983 1.18861 1.18374
 C200 C 0.37484 1.15560 1.11107
 C201 C 0.40522 1.15033 1.12300
 C202 C 0.42411 1.13002 1.10662
 C203 C 0.41298 1.11486 1.07803
 C204 C 0.38332 1.12080 1.06524
 C205 C 0.36439 1.14108 1.08158
 C206 C 0.43028 1.09095 1.06402
 C207 C 0.44338 1.06967 1.05334
 H208 H 0.29506 1.22308 1.11963
 H209 H 0.33363 1.19522 1.08738
 H210 H 0.36674 1.15809 1.17871
 H211 H 0.32859 1.18644 1.21060
 H212 H 0.41409 1.16146 1.14539
 H213 H 0.44696 1.12547 1.11686
 H214 H 0.37432 1.10894 1.04334
 H215 H 0.34099 1.14434 1.07198
 C216 C 0.26807 0.77193 0.76245
 C217 C 0.28799 0.78304 0.78058
 C218 C 0.31115 0.79636 0.80284
 C219 C 0.33291 0.81774 0.79122
 C220 C 0.35431 0.83179 0.81328
 C221 C 0.35416 0.82465 0.84732
 C222 C 0.33257 0.80272 0.85864
 C223 C 0.31121 0.78868 0.83651
 C224 C 0.37523 0.84126 0.87111
 C225 C 0.36363 0.85082 0.90228
 C226 C 0.38229 0.86923 0.92317
 C227 C 0.41280 0.87818 0.91328
 C228 C 0.42500 0.86782 0.88294
 C229 C 0.40638 0.84942 0.86200
 C230 C 0.42992 0.90082 0.93202
 C231 C 0.44328 0.92133 0.94616
 H232 H 0.33296 0.82394 0.76524
 H233 H 0.37028 0.84891 0.80391
 H234 H 0.33209 0.79657 0.88461
 H235 H 0.29445 0.77212 0.84575
 H236 H 0.33963 0.84525 0.90982
 H237 H 0.37247 0.87744 0.94639
 H238 H 0.44850 0.87482 0.87492
 H239 H 0.41609 0.84209 0.83836
 C240 C 0.72528 0.76486 1.20733
 C241 C 0.70629 0.77679 1.19044
 C242 C 0.68398 0.79168 1.17052
 C243 C 0.68491 0.78911 1.13566
 C244 C 0.66441 0.80500 1.11632
 C245 C 0.64272 0.82368 1.13164
 C246 C 0.64158 0.82562 1.16673
 C247 C 0.66209 0.80974 1.18600
 C248 C 0.62264 0.84244 1.11132
 C249 C 0.59140 0.84763 1.12106
 C250 C 0.57373 0.86784 1.10401
 C251 C 0.58698 0.88299 1.07695
 C252 C 0.61758 0.87713 1.06628
 C253 C 0.63530 0.85696 1.08328
 C254 C 0.57068 0.90681 1.06258
 C255 C 0.55819 0.92802 1.05189
 H256 H 0.70177 0.77517 1.12344
 H257 H 0.66564 0.80283 1.08939
 H258 H 0.62556 0.84017 1.17929
 H259 H 0.66130 0.81201 1.21296
 H260 H 0.58087 0.83652 1.14228
 H261 H 0.55013 0.87233 1.11262
 H262 H 0.62820 0.88900 1.04560
 H263 H 0.65939 0.85376 1.07542
 C264 C 0.72110 1.23241 0.76468
 C265 C 0.70232 1.22047 0.78317
 C266 C 0.68064 1.20605 0.80583
 C267 C 0.65839 1.18494 0.79386
 C268 C 0.63857 1.16972 0.81614
 C269 C 0.64081 1.17541 0.85074
 C270 C 0.66283 1.19711 0.86246
 C271 C 0.68261 1.21232 0.84012
 C272 C 0.62146 1.15757 0.87445
 C273 C 0.63508 1.14696 0.90360
 C274 C 0.61789 1.12764 0.92419
 C275 C 0.58687 1.11884 0.91602
 C276 C 0.57273 1.13014 0.88777
 C277 C 0.58988 1.14943 0.86713
 C278 C 0.57093 1.09567 0.93422
 C279 C 0.55836 1.07490 0.94783
 H280 H 0.65677 1.17984 0.76738
 H281 H 0.62220 1.15283 0.80638
 H282 H 0.66487 1.20219 0.88890
 H283 H 0.69975 1.22867 0.84962
 H284 H 0.65946 1.15249 0.90969
 H285 H 0.62920 1.11871 0.94575
 H286 H 0.54880 1.12328 0.88108
 H287 H 0.57865 1.15752 0.84508
 C288 C 0.22623 0.26756 0.20298
 C289 C 0.21227 0.28529 0.18728
 C290 C 0.19585 0.30673 0.16873
 C291 C 0.17422 0.32460 0.18494
 C292 C 0.15835 0.34555 0.16707
 C293 C 0.16390 0.34893 0.13266
 C294 C 0.18578 0.33091 0.11659
 C295 C 0.20166 0.30997 0.13454
 C296 C 0.14624 0.37060 0.11358
 C297 C 0.13421 0.36317 0.08170
 C298 C 0.11548 0.38268 0.06487
 C299 C 0.10865 0.40991 0.07956
 C300 C 0.12131 0.41787 0.11080
 C301 C 0.14002 0.39840 0.12768
 C302 C 0.08606 0.42821 0.06430
 C303 C 0.06560 0.44246 0.05260
 H304 H 0.16951 0.32225 0.21137
 H305 H 0.14129 0.35872 0.18007
 H306 H 0.19079 0.33317 0.09022
 H307 H 0.21847 0.29634 0.12176
 H308 H 0.13824 0.34183 0.07034
 H309 H 0.10550 0.37613 0.04089
 H310 H 0.11600 0.43880 0.12251
 H311 H 0.14930 0.40493 0.15196
 C312 C -0.24020 0.26877 -0.23919
 C313 C -0.22629 0.28830 -0.22381
 C314 C -0.21037 0.31129 -0.20439
 C315 C -0.22333 0.32054 -0.17395
 C316 C -0.20752 0.34215 -0.15434
 C317 C -0.17849 0.35482 -0.16497
 C318 C -0.16584 0.34563 -0.19584
 C319 C -0.18169 0.32398 -0.21539
 C320 C -0.16082 0.37666 -0.14343
 C321 C -0.14458 0.40105 -0.15748
 C322 C -0.12596 0.42030 -0.13749
 C323 C -0.12343 0.41552 -0.10322
 C324 C -0.14022 0.39183 -0.08884
 C325 C -0.15887 0.37255 -0.10878
 C326 C -0.10107 0.43298 -0.08362
 C327 C -0.08078 0.44646 -0.06808
 H328 H -0.24556 0.31087 -0.16523
 H329 H -0.21801 0.34897 -0.13089
 H330 H -0.14331 0.35463 -0.20446
 H331 H -0.17138 0.31689 -0.23885
 H332 H -0.14594 0.40501 -0.18399
 H333 H -0.11286 0.43844 -0.14892
 H334 H -0.13811 0.38769 -0.06242
 H335 H -0.17076 0.35379 -0.09729
 C336 C 0.22805 0.73669 -0.24157
 C337 C 0.21414 0.71731 -0.22670
 C338 C 0.19839 0.69436 -0.20793
 C339 C 0.21311 0.68318 -0.17995
 C340 C 0.19769 0.66146 -0.16097
 C341 C 0.16728 0.65063 -0.16976
 C342 C 0.15281 0.66178 -0.19817
 C343 C 0.16828 0.68353 -0.21711
 C344 C 0.15029 0.62846 -0.14885
 C345 C 0.13184 0.60541 -0.16371
 C346 C 0.11426 0.58570 -0.14397
 C347 C 0.11495 0.58868 -0.10914
 C348 C 0.13382 0.61109 -0.09409
 C349 C 0.15145 0.63082 -0.11379
 C350 C 0.09409 0.57052 -0.08912
 C351 C 0.07519 0.55635 -0.07288
 H352 H 0.23646 0.69137 -0.17267
 H353 H 0.20958 0.65308 -0.13948
 H354 H 0.12924 0.65420 -0.20530
 H355 H 0.15664 0.69210 -0.23866
 H356 H 0.13079 0.60280 -0.19061
 H357 H 0.09955 0.56855 -0.15588
 H358 H 0.13423 0.61382 -0.06717
 H359 H 0.16510 0.64854 -0.10160
 C360 C -0.23550 0.73122 0.20876
 C361 C -0.22081 0.71352 0.19288
 C362 C -0.20353 0.69231 0.17379
 C363 C -0.20755 0.68976 0.13918
 C364 C -0.19071 0.66922 0.12061
 C365 C -0.16964 0.65089 0.13646
 C366 C -0.16589 0.65357 0.17129
 C367 C -0.18272 0.67413 0.18980
 C368 C -0.15101 0.62959 0.11677
 C369 C -0.14559 0.60149 0.12921
 C370 C -0.12627 0.58223 0.11177
 C371 C -0.11219 0.59071 0.08161
 C372 C -0.11810 0.61830 0.06857
 C373 C -0.13744 0.63760 0.08596
 C374 C -0.08946 0.57232 0.06572
 C375 C -0.06909 0.55774 0.05353
 H376 H -0.22369 0.70366 0.12655
 H377 H -0.19435 0.66750 0.09390
 H378 H -0.14948 0.64014 0.18417
 H379 H -0.17936 0.67596 0.21656
 H380 H -0.15605 0.59452 0.15261
 H381 H -0.12172 0.56099 0.12220
 H382 H -0.10705 0.62523 0.04543
 H383 H -0.14084 0.65919 0.07590
 C384 C 1.22551 0.22634 0.74821
 C385 C 1.20870 0.21562 0.72662
 C386 C 1.18798 0.20265 0.70163
 C387 C 1.15609 0.20942 0.70152
 C388 C 1.13544 0.19550 0.67857
 C389 C 1.14647 0.17459 0.65543
 C390 C 1.17873 0.16841 0.65530
 C391 C 1.19931 0.18234 0.67828
 C392 C 1.12426 0.15796 0.63284
 C393 C 1.13304 0.15102 0.59980
 C394 C 1.11350 0.13265 0.57977
 C395 C 1.08491 0.12109 0.59244
 C396 C 1.07540 0.12879 0.62483
 C397 C 1.09489 0.14717 0.64489
 C398 C 1.06742 0.09857 0.57388
 C399 C 1.05425 0.07821 0.55930
 H400 H 1.14708 0.22514 0.71951
 H401 H 1.11082 0.20091 0.67907
 H402 H 1.18785 0.15208 0.63816
 H403 H 1.22393 0.17682 0.67828
 H404 H 1.15532 0.15929 0.58970
 H405 H 1.12120 0.12663 0.55482
 H406 H 1.05353 0.11964 0.63504
 H407 H 1.08766 0.15178 0.67035
 C408 C 0.78529 -0.22667 0.73540
 C409 C 0.80263 -0.21563 0.71482
 C410 C 0.82372 -0.20218 0.69083
 C411 C 0.81203 -0.18376 0.66662
 C412 C 0.83272 -0.16937 0.64451
 C413 C 0.86543 -0.17318 0.64636
 C414 C 0.87688 -0.19223 0.67036
 C415 C 0.85613 -0.20662 0.69244
 C416 C 0.88748 -0.15589 0.62472
 C417 C 0.91526 -0.14255 0.63811
 C418 C 0.93409 -0.12333 0.61897
 C419 C 0.92552 -0.11732 0.58619
 C420 C 0.89872 -0.13152 0.57215
 C421 C 0.87985 -0.15074 0.59125
 C422 C 0.94147 -0.09364 0.56881
 C423 C 0.95307 -0.07224 0.55552
 H424 H 0.78700 -0.18007 0.66525
 H425 H 0.82320 -0.15449 0.62670
 H426 H 0.90188 -0.19582 0.67219
 H427 H 0.86540 -0.22088 0.71108
 H428 H 0.92158 -0.14576 0.66390
 H429 H 0.95453 -0.11214 0.63024
 H430 H 0.89172 -0.12684 0.54689
 H431 H 0.85884 -0.16099 0.58013
 C432 C 1.22973 -0.23632 0.28506
 C433 C 1.21167 -0.22367 0.30314
 C434 C 1.18946 -0.20830 0.32353
 C435 C 1.15708 -0.21294 0.31803
 C436 C 1.13541 -0.19656 0.33613
 C437 C 1.14590 -0.17530 0.35998
 C438 C 1.17849 -0.17129 0.36587
 C439 C 1.20012 -0.18767 0.34769
 C440 C 1.12319 -0.15622 0.37733
 C441 C 1.12721 -0.14840 0.41123
 C442 C 1.10753 -0.12824 0.42666
 C443 C 1.08357 -0.11570 0.40844
 C444 C 1.07873 -0.12407 0.37502
 C445 C 1.09834 -0.14427 0.35956
 C446 C 1.06628 -0.09210 0.42304
 C447 C 1.05342 -0.07120 0.43497
 H448 H 1.14860 -0.22888 0.29935
 H449 H 1.11048 -0.20034 0.33130
 H450 H 1.18732 -0.15480 0.38371
 H451 H 1.22515 -0.18379 0.35199
 H452 H 1.14590 -0.15750 0.42564
 H453 H 1.11158 -0.12177 0.45250
 H454 H 1.06049 -0.11423 0.36060
 H455 H 1.09491 -0.14955 0.33333
 C456 C 0.77870 0.23306 0.28836
 C457 C 0.79686 0.22113 0.30628
 C458 C 0.81925 0.20682 0.32663
 C459 C 0.80882 0.18738 0.35134
 C460 C 0.83065 0.17215 0.36969
 C461 C 0.86321 0.17615 0.36346
 C462 C 0.87346 0.19622 0.33903
 C463 C 0.85159 0.21145 0.32075
 C464 C 0.88611 0.15813 0.38103
 C465 C 0.91098 0.14536 0.36329
 C466 C 0.93045 0.12573 0.37887
 C467 C 0.92545 0.11876 0.41239
 C468 C 0.90162 0.13228 0.43062
 C469 C 0.88209 0.15189 0.41507
 C470 C 0.94183 0.09501 0.42676
 C471 C 0.95354 0.07371 0.43819
 H472 H 0.78383 0.18355 0.35598
 H473 H 0.82199 0.15652 0.38797
 H474 H 0.89836 0.19998 0.33392
 H475 H 0.85990 0.22651 0.30168
 H476 H 0.91443 0.14942 0.33695
 H477 H 0.94855 0.11507 0.36442
 H478 H 0.89737 0.12685 0.45651
 H479 H 0.86340 0.16167 0.42946
 C480 C 0.22722 0.25514 -0.20790
 C481 C 0.21180 0.27077 -0.19006
 C482 C 0.19232 0.28925 -0.16986
 C483 C 0.20108 0.31895 -0.16436
 C484 C 0.18089 0.33742 -0.14694
 C485 C 0.15161 0.32639 -0.13492
 C486 C 0.14335 0.29634 -0.13995
 C487 C 0.16358 0.27792 -0.15734
 C488 C 0.12922 0.34641 -0.11852
 C489 C 0.09686 0.34399 -0.12616
 C490 C 0.07591 0.36370 -0.11202
 C491 C 0.08698 0.38603 -0.09006
 C492 C 0.11903 0.38837 -0.08189
 C493 C 0.14005 0.36870 -0.09603
 C494 C 0.06563 0.40717 -0.07688
 C495 C 0.04786 0.42518 -0.06631
 H496 H 0.22318 0.32798 -0.17417
 H497 H 0.18772 0.36052 -0.14384
 H498 H 0.12116 0.28714 -0.13064
 H499 H 0.15656 0.25496 -0.16154
 H500 H 0.08788 0.32736 -0.14375
 H501 H 0.05117 0.36180 -0.11863
 H502 H 0.12782 0.40558 -0.06487
 H503 H 0.16475 0.37090 -0.08940
 C504 C -0.22510 0.26577 0.25009
 C505 C -0.21008 0.28363 0.23399
 C506 C -0.19065 0.30454 0.21586
 C507 C -0.15970 0.31096 0.22640
 C508 C -0.14030 0.33081 0.20879
 C509 C -0.15160 0.34455 0.18031
 C510 C -0.18284 0.33812 0.17000
 C511 C -0.20224 0.31819 0.18768
 C512 C -0.13071 0.36526 0.16132
 C513 C -0.14239 0.39133 0.14862
 C514 C -0.12265 0.41071 0.13066
 C515 C -0.09103 0.40429 0.12516
 C516 C -0.07918 0.37846 0.13774
 C517 C -0.09886 0.35907 0.15572
 C518 C -0.07095 0.42378 0.10585
 C519 C -0.05433 0.43981 0.08911
 H520 H -0.15053 0.30055 0.24824
 H521 H -0.11654 0.33561 0.21762
 H522 H -0.19209 0.34808 0.14795
 H523 H -0.22613 0.31330 0.17925
 H524 H -0.16669 0.39687 0.15287
 H525 H -0.13206 0.43064 0.12098
 H526 H -0.05480 0.37318 0.13342
 H527 H -0.08929 0.33899 0.16476
 C528 C -0.21787 0.74242 -0.22002
 C529 C -0.20307 0.72668 -0.20256
 C530 C -0.18454 0.70803 -0.18251
 C531 C -0.19496 0.67901 -0.17648
 C532 C -0.17603 0.66042 -0.15859
 C533 C -0.14638 0.67064 -0.14659
 C534 C -0.13636 0.70001 -0.15232
 C535 C -0.15533 0.71855 -0.17019
 C536 C -0.12554 0.65050 -0.12914
 C537 C -0.09299 0.65098 -0.13608
 C538 C -0.07345 0.63142 -0.12051
 C539 C -0.08615 0.61114 -0.09778
 C540 C -0.11845 0.61064 -0.09045
 C541 C -0.13805 0.63019 -0.10603
 C542 C -0.06612 0.59043 -0.08263
 C543 C -0.04926 0.57292 -0.07033
 H544 H -0.21745 0.67060 -0.18610
 H545 H -0.18421 0.63783 -0.15494
 H546 H -0.11384 0.70862 -0.14303
 H547 H -0.14703 0.74098 -0.17475
 H548 H -0.08273 0.66605 -0.15411
 H549 H -0.04851 0.63189 -0.12647
 H550 H -0.12850 0.59504 -0.07286
 H551 H -0.16295 0.62951 -0.09991
 C552 C 0.23353 0.72953 0.24691
 C553 C 0.21853 0.71091 0.23119
 C554 C 0.19913 0.68913 0.21356
 C555 C 0.20463 0.68277 0.17977
 C556 C 0.18456 0.66270 0.16245
 C557 C 0.15867 0.64884 0.17873
 C558 C 0.15364 0.65512 0.21281
 C559 C 0.17373 0.67513 0.23006
 C560 C 0.13655 0.62850 0.16007
 C561 C 0.10379 0.62955 0.16542
 C562 C 0.08287 0.61108 0.14708
 C563 C 0.09439 0.59130 0.12325
 C564 C 0.12693 0.58983 0.11802
 C565 C 0.14790 0.60830 0.13629
 C566 C 0.07287 0.57347 0.10302
 C567 C 0.05527 0.55899 0.08513
 H568 H 0.22411 0.69362 0.16671
 H569 H 0.18882 0.65860 0.13613
 H570 H 0.13417 0.64453 0.22613
 H571 H 0.16925 0.67993 0.25621
 H572 H 0.09429 0.64514 0.18320
 H573 H 0.05771 0.61256 0.15113
 H574 H 0.13610 0.57463 0.09955
 H575 H 0.17298 0.60673 0.13189
 C576 C 0.25862 1.21823 0.78822
 C577 C 0.27273 1.19993 0.80290
 C578 C 0.28963 1.17804 0.82019
 C579 C 0.30888 1.18629 0.84732
 C580 C 0.32576 1.16512 0.86374
 C581 C 0.32360 1.13538 0.85321
 C582 C 0.30402 1.12728 0.82603
 C583 C 0.28715 1.14849 0.80966
 C584 C 0.34225 1.11306 0.87010
 C585 C 0.35738 1.09119 0.85134
 C586 C 0.37612 1.07103 0.86711
 C587 C 0.37991 1.07238 0.90178
 C588 C 0.36454 1.09373 0.92072
 C589 C 0.34581 1.11392 0.90502
 C590 C 0.40088 1.05295 0.91776
 C591 C 0.41918 1.03745 0.93124
 H592 H 0.31106 1.20912 0.85561
 H593 H 0.34098 1.17213 0.88425
 H594 H 0.30159 1.10453 0.81757
 H595 H 0.27225 1.14186 0.78872
 H596 H 0.35544 1.09018 0.82441
 H597 H 0.38810 1.05473 0.85218
 H598 H 0.36737 1.09501 0.94758
 H599 H 0.33414 1.13023 0.92018
 C600 C 0.26574 0.76842 1.24649
 C601 C 0.28115 0.78587 1.23015
 C602 C 0.29925 0.80733 1.21131
 C603 C 0.31724 0.79856 1.18378
 C604 C 0.33478 0.81953 1.16561
 C605 C 0.33453 0.84960 1.17476
 C606 C 0.31635 0.85817 1.20248
 C607 C 0.29886 0.83717 1.22061
 C608 C 0.35303 0.87194 1.15539
 C609 C 0.34034 0.89929 1.14834
 C610 C 0.35758 0.92009 1.12965
 C611 C 0.38773 0.91390 1.11783
 C612 C 0.40066 0.88687 1.12494
 C613 C 0.38347 0.86603 1.14359
 C614 C 0.40497 0.93474 1.09736
 C615 C 0.41941 0.95158 1.07947
 H616 H 0.31764 0.77553 1.17630
 H617 H 0.34818 0.81227 1.14413
 H618 H 0.31596 0.88108 1.21041
 H619 H 0.28508 0.84421 1.24195
 H620 H 0.31683 0.90436 1.15669
 H621 H 0.34724 0.94086 1.12410
 H622 H 0.42397 0.88183 1.11587
 H623 H 0.39406 0.84536 1.14896
 C624 C 0.74219 1.22726 1.25042
 C625 C 0.72627 1.20962 1.23425
 C626 C 0.70740 1.18824 1.21533
 C627 C 0.70663 1.15857 1.22420
 C628 C 0.68836 1.13772 1.20590
 C629 C 0.67054 1.14628 1.17845
 C630 C 0.67145 1.17619 1.16976
 C631 C 0.68977 1.19699 1.18808
 C632 C 0.65130 1.12413 1.15879
 C633 C 0.62122 1.13082 1.14716
 C634 C 0.60345 1.11023 1.12799
 C635 C 0.61544 1.08268 1.12018
 C636 C 0.64519 1.07567 1.13189
 C637 C 0.66300 1.09622 1.15111
 C638 C 0.59772 1.06215 1.09900
 C639 C 0.58298 1.04556 1.08049
 H640 H 0.72012 1.15155 1.24531
 H641 H 0.68787 1.11496 1.21348
 H642 H 0.65837 1.18342 1.14849
 H643 H 0.69027 1.21988 1.18092
 H644 H 0.61136 1.15194 1.15302
 H645 H 0.58046 1.11591 1.11902
 H646 H 0.65481 1.05449 1.12580
 H647 H 0.68622 1.09053 1.15932
 C648 C 0.74889 0.78128 0.77719
 C649 C 0.73416 0.79928 0.79256
 C650 C 0.71647 0.82072 0.81080
 C651 C 0.69782 0.81209 0.83807
 C652 C 0.68020 0.83277 0.85549
 C653 C 0.68098 0.86242 0.84584
 C654 C 0.69996 0.87090 0.81849
 C655 C 0.71758 0.85018 0.80112
 C656 C 0.66164 0.88421 0.86388
 C657 C 0.64546 0.90538 0.84619
 C658 C 0.62624 0.92511 0.86306
 C659 C 0.62299 0.92404 0.89779
 C660 C 0.63934 0.90337 0.91566
 C661 C 0.65856 0.88360 0.89885
 C662 C 0.60174 0.94316 0.91493
 C663 C 0.58329 0.95849 0.92930
 H664 H 0.69670 0.78933 0.84572
 H665 H 0.66549 0.82545 0.87612
 H666 H 0.70135 0.89361 0.81070
 H667 H 0.73201 0.85712 0.78009
 H668 H 0.64701 0.90618 0.81924
 H669 H 0.61351 0.94089 0.84895
 H670 H 0.63697 0.90232 0.94256
 H671 H 0.67103 0.86785 0.91322
   
