data_POSCAR
  _audit_creation_date              2014-09-24
  _audit_creation_method            'ToBaCCo'
  _symmetry_space_group_name_H-M    'P1'
  _symmetry_Int_Tables_number       1
  _symmetry_cell_setting            triclinic
  loop_
  _symmetry_equiv_pos_as_xyz
 x,y,z
_cell_length_a 25.0071
_cell_length_b 24.5715
_cell_length_c 24.7238
_cell_angle_alpha 89.439500
_cell_angle_beta 89.809400
_cell_angle_gamma 89.711700
loop_
  _atom_site_label
  _atom_site_type_symbol
  _atom_site_fract_x
  _atom_site_fract_y
  _atom_site_fract_z
C1 C 0.32232 0.32179 0.22856
 H2 H 0.32558 0.32315 0.27215
 C3 C 0.35516 0.35457 0.19631
 H4 H 0.38410 0.38052 0.21563
 C5 C 0.28229 0.28409 0.15093
 H6 H 0.25488 0.25552 0.13331
 C7 C 0.31433 0.31617 0.11715
 H8 H 0.31125 0.31075 0.07396
 N9 N 0.28583 0.28846 0.20557
 C10 C 0.16248 0.26965 0.32984
 H11 H 0.15998 0.22579 0.33317
 C12 C 0.13082 0.30243 0.36307
 H13 H 0.10350 0.28323 0.39133
 C14 C 0.19950 0.34740 0.28704
 H15 H 0.22531 0.36488 0.25647
 C16 C 0.16835 0.38164 0.31912
 H17 H 0.17036 0.42500 0.31169
 Zn18 Zn 0.24193 0.24641 0.25237
 N19 N 0.19730 0.29253 0.29403
 C20 C 0.28564 0.20952 0.35236
 N21 N 0.28814 0.20524 0.29765
 C22 C 0.32490 0.17246 0.27356
 C23 C 0.36072 0.14189 0.30478
 C24 C 0.32062 0.17964 0.38512
 C25 C 0.16056 0.22349 0.17873
 C26 C 0.12856 0.19137 0.14582
 C27 C 0.17068 0.11136 0.18419
 C28 C 0.20185 0.14502 0.21638
 N29 N 0.19747 0.20004 0.21188
 H30 H 0.25656 0.23608 0.37091
 H31 H 0.32610 0.16983 0.22991
 H32 H 0.38862 0.11498 0.28464
 H33 H 0.31598 0.18249 0.42845
 H34 H 0.15663 0.26735 0.17727
 H35 H 0.09947 0.21104 0.11978
 H36 H 0.17462 0.06781 0.18936
 H37 H 0.22959 0.12702 0.24483
 C38 C 0.13514 0.35945 0.35971
 C39 C 0.35010 0.35375 0.13965
 C40 C 0.13501 0.13443 0.14634
 C41 C 0.35997 0.14616 0.36150
 C42 C 0.83285 0.81708 0.22173
 H43 H 0.83515 0.81893 0.26537
 C44 C 0.86753 0.84823 0.18995
 H45 H 0.89538 0.87474 0.21013
 C46 C 0.79093 0.78258 0.14369
 H47 H 0.76079 0.75724 0.12575
 C48 C 0.82478 0.81303 0.11026
 H49 H 0.81813 0.81158 0.06711
 N50 N 0.79516 0.78552 0.19834
 C51 C 0.66712 0.77395 0.31765
 H52 H 0.66154 0.73034 0.31946
 C53 C 0.63599 0.80792 0.35005
 H54 H 0.60590 0.78999 0.37618
 C55 C 0.71198 0.85001 0.27992
 H56 H 0.74079 0.86645 0.25166
 C57 C 0.68190 0.88547 0.31180
 H58 H 0.68784 0.92868 0.30642
 Zn59 Zn 0.74881 0.74634 0.24506
 N60 N 0.70531 0.79527 0.28460
 C61 C 0.78831 0.71155 0.34752
 N62 N 0.79232 0.70510 0.29309
 C63 C 0.82868 0.67019 0.27146
 C64 C 0.86241 0.63961 0.30496
 C65 C 0.82139 0.68192 0.38250
 C66 C 0.66736 0.72353 0.17088
 C67 C 0.63309 0.69129 0.14045
 C68 C 0.67248 0.61140 0.18191
 C69 C 0.70605 0.64517 0.21146
 N70 N 0.70327 0.70014 0.20520
 H71 H 0.75949 0.73971 0.36410
 H72 H 0.83114 0.66585 0.22802
 H73 H 0.88989 0.61094 0.28672
 H74 H 0.81578 0.68672 0.42554
 H75 H 0.66584 0.76738 0.16669
 H76 H 0.60607 0.71091 0.11216
 H77 H 0.67741 0.56790 0.18639
 H78 H 0.73449 0.62718 0.23918
 C79 C 0.64460 0.86449 0.34920
 C80 C 0.86520 0.84571 0.13292
 C81 C 0.63434 0.63427 0.14650
 C82 C 0.86023 0.64623 0.36143
 C83 C 0.84952 0.29264 0.71757
 H84 H 0.86673 0.26308 0.74506
 C85 C 0.88329 0.32584 0.68683
 H86 H 0.92591 0.31938 0.69025
 C87 C 0.77323 0.33437 0.67846
 H88 H 0.73016 0.33698 0.67509
 C89 C 0.80555 0.36849 0.64696
 H90 H 0.78678 0.39667 0.61888
 N91 N 0.79555 0.29698 0.71253
 C92 C 0.64874 0.29166 0.78767
 H93 H 0.63218 0.26505 0.75762
 C94 C 0.61432 0.32267 0.81969
 H95 H 0.57183 0.31972 0.81266
 C96 C 0.72421 0.33078 0.82932
 H97 H 0.76723 0.33404 0.83237
 C98 C 0.69125 0.36251 0.86226
 H99 H 0.70943 0.39070 0.89000
 Zn100 Zn 0.74948 0.25057 0.75284
 N101 N 0.70259 0.29501 0.79405
 C102 C 0.78436 0.20660 0.85368
 N103 N 0.78994 0.20423 0.79908
 C104 C 0.82393 0.16790 0.77596
 C105 C 0.85686 0.13495 0.80806
 C106 C 0.81634 0.17431 0.88739
 C107 C 0.71591 0.21009 0.65121
 C108 C 0.68491 0.17851 0.61684
 C109 C 0.64427 0.13631 0.69523
 C110 C 0.67613 0.16865 0.72810
 N111 N 0.70987 0.20583 0.70574
 H112 H 0.75501 0.23346 0.87141
 H113 H 0.82609 0.16525 0.73235
 H114 H 0.88353 0.10645 0.78834
 H115 H 0.80948 0.17664 0.93049
 H116 H 0.74482 0.23788 0.63411
 H117 H 0.69143 0.18224 0.57374
 H118 H 0.61783 0.10694 0.71405
 H119 H 0.67346 0.16471 0.77165
 C120 C 0.63531 0.35720 0.85939
 C121 C 0.86158 0.36543 0.65156
 C122 C 0.64661 0.14258 0.63862
 C123 C 0.85567 0.13957 0.86499
 C124 C 0.33719 0.82763 0.72396
 H125 H 0.33926 0.82977 0.76760
 C126 C 0.37196 0.85867 0.69207
 H127 H 0.39991 0.88544 0.71173
 C128 C 0.29643 0.79169 0.64586
 H129 H 0.26703 0.76555 0.62784
 C130 C 0.33023 0.82212 0.61247
 H131 H 0.32448 0.82005 0.56925
 N132 N 0.30012 0.79527 0.70053
 C133 C 0.17080 0.77721 0.81766
 H134 H 0.16676 0.73339 0.81804
 C135 C 0.13734 0.80901 0.84984
 H136 H 0.10715 0.78921 0.87445
 C137 C 0.21391 0.85591 0.78338
 H138 H 0.24298 0.87413 0.75647
 C139 C 0.18142 0.88929 0.81511
 H140 H 0.18585 0.93282 0.81102
 Zn141 Zn 0.25425 0.75439 0.74618
 N142 N 0.20909 0.80089 0.78639
 C143 C 0.29291 0.71719 0.84790
 N144 N 0.29773 0.71235 0.79338
 C145 C 0.33456 0.67824 0.77128
 C146 C 0.36609 0.64483 0.80437
 C147 C 0.32366 0.68461 0.88247
 C148 C 0.17373 0.73205 0.67092
 C149 C 0.14092 0.69991 0.63883
 C150 C 0.18072 0.61989 0.67963
 C151 C 0.21285 0.65354 0.71079
 N152 N 0.20988 0.70852 0.70490
 H153 H 0.26525 0.74635 0.86481
 H154 H 0.33886 0.67650 0.72777
 H155 H 0.39512 0.61799 0.78581
 H156 H 0.31946 0.69033 0.92555
 H157 H 0.17074 0.77595 0.66849
 H158 H 0.11230 0.71961 0.61227
 H159 H 0.18326 0.57645 0.68638
 H160 H 0.23982 0.63552 0.73996
 C161 C 0.14375 0.86586 0.85070
 C162 C 0.36972 0.85535 0.63533
 C163 C 0.14552 0.64284 0.64127
 C164 C 0.35936 0.64594 0.86089
 Si165 Si -0.00078 -0.00343 -0.00147
 Si166 Si 0.00042 0.50395 0.50412
 Si167 Si 0.50723 0.00323 0.49614
 Si168 Si 0.49452 0.49711 0.00236
 C169 C 0.10882 -0.09992 -0.11202
 C170 C 0.12838 -0.04181 -0.10027
 C171 C 0.09515 -0.01293 -0.06757
 C172 C 0.04531 -0.04421 -0.04846
 C173 C 0.01890 -0.06329 -0.10101
 C174 C 0.05188 -0.09229 -0.13395
 C175 C 0.10128 -0.12525 -0.05533
 C176 C 0.06797 -0.09660 -0.02259
 H177 H 0.16652 -0.02531 -0.11308
 H178 H 0.10511 0.02781 -0.05493
 H179 H -0.02231 -0.05503 -0.11175
 H180 H 0.03864 -0.10829 -0.17240
 H181 H 0.12153 -0.16194 -0.04141
 H182 H 0.05987 -0.10986 0.01846
 C183 C 0.10223 0.39586 0.39687
 C184 C 0.09439 0.37344 0.45479
 C185 C 0.06329 0.40552 0.48680
 C186 C 0.04302 0.45786 0.45885
 C187 C 0.09409 0.48537 0.43750
 C188 C 0.12511 0.45319 0.40580
 C189 C 0.04536 0.40563 0.37561
 C190 C 0.01456 0.43777 0.40780
 H191 H 0.11315 0.33654 0.47017
 H192 H 0.05539 0.39499 0.52870
 H193 H 0.10649 0.52604 0.44797
 H194 H 0.16393 0.46676 0.39160
 H195 H 0.03043 0.38837 0.33838
 H196 H -0.02651 0.44740 0.39766
 C197 C 0.61189 -0.09892 0.38630
 C198 C 0.55459 -0.09060 0.36570
 C199 C 0.52328 -0.05965 0.39843
 C200 C 0.55153 -0.03953 0.44957
 C201 C 0.57375 -0.09145 0.47667
 C202 C 0.60538 -0.12210 0.44401
 C203 C 0.63314 -0.04085 0.39548
 C204 C 0.60147 -0.01003 0.42814
 H205 H 0.53996 -0.10736 0.32811
 H206 H 0.48211 -0.05043 0.38833
 H207 H 0.56671 -0.10282 0.51848
 H208 H 0.62526 -0.15873 0.45863
 H209 H 0.67123 -0.02573 0.38094
 H210 H 0.61253 0.03092 0.43923
 C211 C 0.59912 0.39093 -0.10397
 C212 C 0.61995 0.39719 -0.04578
 C213 C 0.58876 0.42939 -0.01401
 C214 C 0.53881 0.45236 -0.04249
 C215 C 0.56068 0.48133 -0.09326
 C216 C 0.59199 0.44943 -0.12513
 C217 C 0.54172 0.36956 -0.09581
 C218 C 0.51045 0.40175 -0.06422
 H219 H 0.65525 0.37664 -0.03015
 H220 H 0.59834 0.43635 0.02803
 H221 H 0.55255 0.52349 -0.10360
 H222 H 0.61013 0.46454 -0.16226
 H223 H 0.52734 0.33079 -0.11023
 H224 H 0.46984 0.39046 -0.05399
 C225 C -0.10889 0.10634 -0.10161
 C226 C -0.12807 0.05044 -0.09649
 C227 C -0.09393 0.01576 -0.06503
 C228 C -0.04666 0.04301 -0.04409
 C229 C -0.02043 0.06654 -0.09170
 C230 C -0.05429 0.10171 -0.12303
 C231 C -0.10110 0.12486 -0.04588
 C232 C -0.06741 0.08972 -0.01439
 H233 H -0.16470 0.03581 -0.11473
 H234 H -0.10306 -0.02682 -0.05838
 H235 H 0.02136 0.06086 -0.10183
 H236 H -0.03892 0.12527 -0.15703
 H237 H -0.11188 0.16486 -0.03108
 H238 H -0.05509 0.10062 0.02600
 C239 C -0.10372 0.61219 0.39826
 C240 C -0.12636 0.55500 0.40821
 C241 C -0.09522 0.52258 0.44010
 C242 C -0.04362 0.54971 0.45961
 C243 C -0.01598 0.56975 0.40748
 C244 C -0.04699 0.60252 0.37579
 C245 C -0.09366 0.63495 0.45525
 C246 C -0.06272 0.60220 0.48713
 H247 H -0.16400 0.54119 0.39160
 H248 H -0.10670 0.48129 0.45032
 H249 H 0.02512 0.56072 0.39685
 H250 H -0.03153 0.62151 0.33918
 H251 H -0.10652 0.67477 0.46876
 H252 H -0.05123 0.61412 0.52750
 C253 C 0.39798 0.11181 0.39590
 C254 C 0.37757 0.05344 0.40355
 C255 C 0.41037 0.02078 0.43342
 C256 C 0.46121 0.04896 0.45354
 C257 C 0.48734 0.07226 0.40193
 C258 C 0.45466 0.10525 0.37213
 C259 C 0.40814 0.13236 0.45366
 C260 C 0.44059 0.09943 0.48358
 H261 H 0.34033 0.03890 0.38662
 H262 H 0.40073 -0.02144 0.44148
 H263 H 0.52851 0.06493 0.39027
 H264 H 0.46870 0.12617 0.33596
 H265 H 0.39440 0.17114 0.46910
 H266 H 0.45212 0.11014 0.52424
 C267 C 0.39217 0.60804 -0.10285
 C268 C 0.40031 0.55045 -0.12564
 C269 C 0.43153 0.51749 -0.09433
 C270 C 0.45161 0.54414 -0.04221
 C271 C 0.47982 0.59622 -0.06181
 C272 C 0.44893 0.62937 -0.09331
 C273 C 0.36927 0.59742 -0.04575
 C274 C 0.40042 0.56465 -0.01428
 H275 H 0.38172 0.53601 -0.16237
 H276 H 0.43963 0.47570 -0.10533
 H277 H 0.52071 0.60646 -0.05205
 H278 H 0.46361 0.66751 -0.11001
 H279 H 0.33039 0.61113 -0.03180
 H280 H 0.38806 0.55284 0.02612
 C281 C -0.10109 -0.11937 0.09959
 C282 C -0.09210 -0.13758 0.04390
 C283 C -0.06084 -0.10059 0.01203
 C284 C -0.04328 -0.05261 0.04147
 C285 C -0.09226 -0.02818 0.06269
 C286 C -0.12395 -0.06471 0.09447
 C287 C -0.04689 -0.11149 0.12060
 C288 C -0.01550 -0.07441 0.08894
 H289 H -0.10106 -0.17799 0.02924
 H290 H -0.04817 -0.11063 -0.02858
 H291 H -0.10419 0.01378 0.05617
 H292 H -0.16139 -0.05215 0.11310
 H293 H -0.02958 -0.13471 0.15385
 H294 H 0.02596 -0.06656 0.09849
 C295 C -0.10283 0.40113 0.61587
 C296 C -0.12380 0.45956 0.60692
 C297 C -0.09307 0.49020 0.57293
 C298 C -0.04335 0.46046 0.55102
 C299 C -0.01432 0.43988 0.60203
 C300 C -0.04518 0.40952 0.63601
 C301 C -0.09642 0.37796 0.55872
 C302 C -0.06553 0.40874 0.52504
 H303 H -0.15884 0.47622 0.62693
 H304 H -0.10286 0.53228 0.56389
 H305 H 0.02650 0.44991 0.61217
 H306 H -0.03027 0.39618 0.67508
 H307 H -0.11472 0.34029 0.54583
 H308 H -0.05785 0.39701 0.48360
 C309 C 0.40559 -0.10903 0.60003
 C310 C 0.41539 -0.12941 0.54206
 C311 C 0.44556 -0.09538 0.51105
 C312 C 0.46450 -0.04406 0.54032
 C313 C 0.41291 -0.01775 0.56194
 C314 C 0.38234 -0.05151 0.59286
 C315 C 0.46244 -0.10025 0.62208
 C316 C 0.49288 -0.06617 0.59116
 H317 H 0.40299 -0.16872 0.52718
 H318 H 0.45653 -0.10578 0.47006
 H319 H 0.40117 0.02406 0.55419
 H320 H 0.34490 -0.03831 0.61095
 H321 H 0.47828 -0.12052 0.65781
 H322 H 0.53392 -0.05722 0.60155
 C323 C 0.38512 0.39035 0.10433
 C324 C 0.39401 0.44761 0.12736
 C325 C 0.42728 0.47930 0.09706
 C326 C 0.44853 0.45184 0.04557
 C327 C 0.47450 0.39869 0.06604
 C328 C 0.44157 0.36681 0.09655
 C329 C 0.36464 0.40179 0.04655
 C330 C 0.39782 0.43333 0.01608
 H331 H 0.37451 0.46281 0.16350
 H332 H 0.43617 0.52070 0.10840
 H333 H 0.51541 0.38680 0.05759
 H334 H 0.45457 0.32812 0.11368
 H335 H 0.32598 0.38944 0.03138
 H336 H 0.38734 0.44550 -0.02472
 C337 C 0.10206 0.09918 0.10868
 C338 C 0.09261 0.12441 0.05222
 C339 C 0.06133 0.09389 0.01956
 C340 C 0.04245 0.04003 0.04529
 C341 C 0.09445 0.01185 0.06371
 C342 C 0.12565 0.04257 0.09623
 C343 C 0.04586 0.08785 0.13109
 C344 C 0.01490 0.05710 0.09823
 H345 H 0.11052 0.16213 0.03813
 H346 H 0.05245 0.10668 -0.02145
 H347 H 0.10726 -0.02808 0.05077
 H348 H 0.16492 0.02855 0.10874
 H349 H 0.03157 0.10284 0.16971
 H350 H -0.02566 0.04635 0.10924
 C351 C 0.11030 0.60744 0.60597
 C352 C 0.10097 0.63005 0.54840
 C353 C 0.06753 0.59938 0.51803
 C354 C 0.04657 0.54806 0.54710
 C355 C 0.09746 0.51827 0.56613
 C356 C 0.13081 0.54907 0.59627
 C357 C 0.05405 0.60034 0.62991
 C358 C 0.02092 0.56957 0.59936
 H359 H 0.12027 0.66613 0.53210
 H360 H 0.05828 0.61034 0.47659
 H361 H 0.10795 0.47702 0.55524
 H362 H 0.16964 0.53374 0.60867
 H363 H 0.04123 0.61831 0.66777
 H364 H -0.01997 0.56183 0.61154
 C365 C 0.61087 0.10870 0.60233
 C366 C 0.63416 0.05179 0.59219
 C367 C 0.60319 0.01995 0.56041
 C368 C 0.55118 0.04744 0.54113
 C369 C 0.52358 0.06617 0.59347
 C370 C 0.55435 0.09836 0.62509
 C371 C 0.60021 0.13267 0.54549
 C372 C 0.56963 0.10056 0.51369
 H373 H 0.67199 0.03768 0.60872
 H374 H 0.61504 -0.02114 0.55026
 H375 H 0.48271 0.05651 0.60436
 H376 H 0.53889 0.11632 0.66192
 H377 H 0.61261 0.17277 0.53194
 H378 H 0.55816 0.11334 0.47334
 C379 C 0.59830 0.59886 0.11194
 C380 C 0.58807 0.54056 0.13315
 C381 C 0.55726 0.51006 0.09995
 C382 C 0.53835 0.54010 0.04858
 C383 C 0.51069 0.59173 0.06988
 C384 C 0.54163 0.62207 0.10311
 C385 C 0.62111 0.59134 0.05477
 C386 C 0.59004 0.56084 0.02188
 H387 H 0.60060 0.52515 0.17235
 H388 H 0.54572 0.46898 0.11088
 H389 H 0.46972 0.60307 0.06108
 H390 H 0.52630 0.65829 0.12272
 H391 H 0.65878 0.60864 0.04126
 H392 H 0.60159 0.55255 -0.01949
   
