data_POSCAR
  _audit_creation_date              2014-09-24
  _audit_creation_method            'ToBaCCo'
  _symmetry_space_group_name_H-M    'P1'
  _symmetry_Int_Tables_number       1
  _symmetry_cell_setting            triclinic
  loop_
  _symmetry_equiv_pos_as_xyz
 x,y,z
_cell_length_a 50.2452
_cell_length_b 50.0892
_cell_length_c 49.5415
_cell_angle_alpha 89.635100
_cell_angle_beta 89.764100
_cell_angle_gamma 90.289300
loop_
  _atom_site_label
  _atom_site_type_symbol
  _atom_site_fract_x
  _atom_site_fract_y
  _atom_site_fract_z
N1 N 0.59571 0.66867 0.61348
 N2 N 0.58456 0.65693 0.63448
 C3 C 0.56305 0.67103 0.64203
 C4 C 0.56062 0.69283 0.62488
 C5 C 0.58178 0.69066 0.60703
 H6 H 0.55024 0.66594 0.65888
 H7 H 0.58645 0.70383 0.59028
 Cu8 Cu 0.59921 0.62436 0.64987
 Cu9 Cu 0.62710 0.65430 0.59567
 Cu10 Cu 0.65381 0.59644 0.62286
 N11 N 0.61505 0.59245 0.66549
 N12 N 0.63614 0.58144 0.65459
 C13 C 0.64282 0.55967 0.66904
 C14 C 0.62501 0.55678 0.69042
 C15 C 0.60766 0.57813 0.68740
 H16 H 0.65965 0.54717 0.66435
 H17 H 0.59080 0.58293 0.70002
 N18 N 0.66888 0.61463 0.59085
 N19 N 0.65875 0.63667 0.58052
 C20 C 0.67340 0.64415 0.55891
 C21 C 0.69381 0.62599 0.55544
 C22 C 0.69026 0.60756 0.57612
 H23 H 0.66960 0.66168 0.54673
 H24 H 0.70223 0.59011 0.58003
 H25 H 0.62074 0.61496 0.60676
 H26 H 0.64215 0.63540 0.62950
 N27 N 0.90516 0.33126 0.11367
 N28 N 0.91644 0.34285 0.13442
 C29 C 0.93819 0.32891 0.14152
 C30 C 0.94073 0.30721 0.12434
 C31 C 0.91923 0.30950 0.10692
 H32 H 0.95103 0.33418 0.15810
 H33 H 0.91414 0.29656 0.09036
 Cu34 Cu 0.90135 0.37488 0.15028
 Cu35 Cu 0.87332 0.34542 0.09658
 Cu36 Cu 0.84676 0.40314 0.12374
 N37 N 0.88639 0.40741 0.16519
 N38 N 0.86507 0.41834 0.15467
 C39 C 0.85881 0.44034 0.16872
 C40 C 0.87717 0.44346 0.18927
 C41 C 0.89440 0.42212 0.18635
 H42 H 0.84189 0.45289 0.16446
 H43 H 0.91155 0.41768 0.19864
 N44 N 0.83113 0.38477 0.09248
 N45 N 0.84124 0.36282 0.08212
 C46 C 0.82632 0.35531 0.06094
 C47 C 0.80575 0.37337 0.05777
 C48 C 0.80948 0.39175 0.07819
 H49 H 0.83007 0.33788 0.04880
 H50 H 0.79752 0.40917 0.08215
 H51 H 0.87979 0.38470 0.10740
 H52 H 0.85831 0.36413 0.13038
 N53 N 0.40579 0.16668 -0.11364
 N54 N 0.41746 0.15466 -0.13396
 C55 C 0.43932 0.16868 -0.14122
 C56 C 0.44144 0.19072 -0.12458
 C57 C 0.41974 0.18875 -0.10734
 H58 H 0.45252 0.16343 -0.15760
 H59 H 0.41462 0.20218 -0.09116
 Cu60 Cu 0.40287 0.12204 -0.14923
 Cu61 Cu 0.37360 0.15268 -0.09665
 Cu62 Cu 0.34628 0.09534 -0.12402
 N63 N 0.38653 0.09049 -0.16498
 N64 N 0.36451 0.08012 -0.15500
 C65 C 0.35758 0.05865 -0.16962
 C66 C 0.37623 0.05534 -0.19000
 C67 C 0.39431 0.07599 -0.18639
 H68 H 0.34005 0.04658 -0.16587
 H69 H 0.41190 0.08009 -0.19835
 N70 N 0.33073 0.11365 -0.09266
 N71 N 0.34114 0.13548 -0.08224
 C72 C 0.32620 0.14302 -0.06101
 C73 C 0.30531 0.12510 -0.05787
 C74 C 0.30887 0.10676 -0.07836
 H75 H 0.33019 0.16039 -0.04882
 H76 H 0.29665 0.08945 -0.08238
 H77 H 0.37929 0.11318 -0.10692
 H78 H 0.35947 0.13398 -0.13089
 N79 N 0.09367 0.83321 0.38864
 N80 N 0.08037 0.84734 0.37089
 C81 C 0.05852 0.83366 0.36346
 C82 C 0.05797 0.80941 0.37730
 C83 C 0.08081 0.80996 0.39308
 H84 H 0.04429 0.84093 0.34891
 H85 H 0.08753 0.79486 0.40710
 Cu86 Cu 0.09268 0.88232 0.35899
 Cu87 Cu 0.12614 0.84643 0.40536
 Cu88 Cu 0.15272 0.90485 0.37889
 N89 N 0.11039 0.91197 0.34081
 N90 N 0.13369 0.92087 0.34877
 C91 C 0.14114 0.94149 0.33288
 C92 C 0.12150 0.94574 0.31380
 C93 C 0.10228 0.92654 0.31947
 H94 H 0.15970 0.95231 0.33486
 H95 H 0.08368 0.92346 0.30903
 N96 N 0.16886 0.88552 0.40940
 N97 N 0.15875 0.86322 0.41949
 C98 C 0.17391 0.85513 0.44033
 C99 C 0.19463 0.87319 0.44353
 C100 C 0.19073 0.89217 0.42349
 H101 H 0.17010 0.83740 0.45229
 H102 H 0.20265 0.90983 0.41974
 H103 H 0.12088 0.88687 0.39868
 H104 H 0.13702 0.86745 0.37095
 C105 C 0.10131 0.12563 0.14547
 C106 C 0.08179 0.14555 0.14526
 C107 C 0.08195 0.16563 0.12527
 C108 C 0.10200 0.16554 0.10535
 C109 C 0.12159 0.14569 0.10524
 C110 C 0.12126 0.12564 0.12536
 C111 C 0.10122 0.10573 0.16553
 C112 C 0.12081 0.08576 0.16579
 C113 C 0.14053 0.08583 0.14554
 C114 C 0.14090 0.10562 0.12539
 C115 C 0.16065 0.10573 0.10529
 C116 C 0.16113 0.12566 0.08516
 C117 C 0.14150 0.14558 0.08532
 H118 H 0.06623 0.14519 0.16048
 H119 H 0.10258 0.18115 0.09011
 H120 H 0.08615 0.10607 0.18123
 H121 H 0.15547 0.07030 0.14531
 H122 H 0.17592 0.09052 0.10556
 H123 H 0.14152 0.16082 0.06968
 C124 C 0.39797 0.87373 0.64585
 C125 C 0.41781 0.85413 0.64566
 C126 C 0.41784 0.83405 0.62596
 C127 C 0.39776 0.83377 0.60627
 C128 C 0.37785 0.85330 0.60613
 C129 C 0.37792 0.87336 0.62600
 C130 C 0.39781 0.89363 0.66564
 C131 C 0.37787 0.91325 0.66589
 C132 C 0.35804 0.91281 0.64594
 C133 C 0.35794 0.89303 0.62603
 C134 C 0.33816 0.89263 0.60614
 C135 C 0.33801 0.87278 0.58617
 C136 C 0.35794 0.85316 0.58637
 H137 H 0.43306 0.85427 0.66108
 H138 H 0.39785 0.81853 0.59084
 H139 H 0.41299 0.89361 0.68113
 H140 H 0.34283 0.92808 0.64572
 H141 H 0.32265 0.90759 0.60639
 H142 H 0.35817 0.83797 0.57088
 C143 C 0.89822 0.62627 0.35250
 C144 C 0.91800 0.64614 0.35278
 C145 C 0.91753 0.66639 0.37229
 C146 C 0.89707 0.66654 0.39174
 C147 C 0.87727 0.64672 0.39184
 C148 C 0.87779 0.62652 0.37212
 C149 C 0.89846 0.60626 0.33282
 C150 C 0.87853 0.58644 0.33244
 C151 C 0.85835 0.58673 0.35221
 C152 C 0.85787 0.60659 0.37203
 C153 C 0.83775 0.60682 0.39174
 C154 C 0.83719 0.62678 0.41158
 C155 C 0.85702 0.64670 0.41142
 H156 H 0.93358 0.64609 0.33758
 H157 H 0.89680 0.68194 0.40701
 H158 H 0.91391 0.60638 0.31749
 H159 H 0.84316 0.57128 0.35234
 H160 H 0.82232 0.59163 0.39144
 H161 H 0.85694 0.66198 0.42681
 C162 C 0.60368 0.37400 -0.14586
 C163 C 0.58411 0.35393 -0.14597
 C164 C 0.58397 0.33370 -0.12617
 C165 C 0.60376 0.33365 -0.10618
 C166 C 0.62342 0.35362 -0.10577
 C167 C 0.62338 0.37391 -0.12565
 C168 C 0.60392 0.39409 -0.16571
 C169 C 0.62346 0.41432 -0.16557
 C170 C 0.64290 0.41418 -0.14520
 C171 C 0.64303 0.39411 -0.12533
 C172 C 0.66254 0.39391 -0.10516
 C173 C 0.66275 0.37373 -0.08528
 C174 C 0.64307 0.35367 -0.08574
 H175 H 0.56911 0.35388 -0.16164
 H176 H 0.60360 0.31827 -0.09068
 H177 H 0.58907 0.39376 -0.18152
 H178 H 0.65779 0.42989 -0.14461
 H179 H 0.67784 0.40924 -0.10518
 H180 H 0.64285 0.33825 -0.07029
 C181 C 0.00058 0.24748 0.12480
 C182 C -0.02077 0.24609 0.10665
 C183 C -0.04041 0.26574 0.10643
 C184 C -0.03938 0.28737 0.12451
 C185 C -0.01793 0.28859 0.14274
 C186 C 0.00177 0.26898 0.14281
 C187 C 0.02150 0.22657 0.12493
 C188 C 0.03252 0.21754 0.14935
 C189 C 0.05215 0.19787 0.14946
 C190 C 0.06117 0.18666 0.12516
 C191 C 0.05013 0.19568 0.10074
 C192 C 0.03059 0.21543 0.10062
 H193 H -0.05644 0.26358 0.09214
 H194 H -0.01594 0.30475 0.15694
 H195 H 0.06046 0.19161 0.16860
 H196 H 0.05639 0.18726 0.08168
 H197 H 0.01817 0.27090 0.15677
 H198 H 0.02576 0.22545 0.16846
 H199 H -0.02255 0.22955 0.09280
 H200 H 0.02278 0.22216 0.08142
 C201 C 0.49987 0.75325 0.62575
 C202 C 0.49587 0.72880 0.63925
 C203 C 0.51563 0.70927 0.63911
 C204 C 0.53977 0.71368 0.62530
 C205 C 0.54374 0.73814 0.61177
 C206 C 0.52404 0.75774 0.61208
 C207 C 0.47886 0.77395 0.62585
 C208 C 0.48544 0.80094 0.62980
 C209 C 0.46564 0.82043 0.62994
 C210 C 0.43885 0.81336 0.62594
 C211 C 0.43227 0.78639 0.62190
 C212 C 0.45205 0.76688 0.62195
 H213 H 0.51181 0.69062 0.64959
 H214 H 0.56214 0.74230 0.60110
 H215 H 0.47129 0.84109 0.63287
 H216 H 0.41176 0.78035 0.61899
 H217 H 0.52758 0.77631 0.60129
 H218 H 0.50591 0.80694 0.63309
 H219 H 0.47753 0.72489 0.65017
 H220 H 0.44643 0.74626 0.61861
 C221 C 0.99899 0.74847 0.37385
 C222 C 0.99580 0.77242 0.35943
 C223 C 1.01530 0.79238 0.36033
 C224 C 1.03849 0.78904 0.37594
 C225 C 1.04155 0.76485 0.39032
 C226 C 1.02212 0.74482 0.38916
 C227 C 0.97813 0.72744 0.37313
 C228 C 0.98505 0.70049 0.36996
 C229 C 0.96536 0.68069 0.36945
 C230 C 0.93840 0.68741 0.37240
 C231 C 0.93149 0.71435 0.37561
 C232 C 0.95115 0.73418 0.37584
 H233 H 1.01181 0.81046 0.34889
 H234 H 1.05892 0.76106 0.40252
 H235 H 0.97123 0.66005 0.36715
 H236 H 0.91083 0.72009 0.37770
 H237 H 1.02499 0.72661 0.40066
 H238 H 1.00568 0.69478 0.36762
 H239 H 0.97825 0.77563 0.34723
 H240 H 0.94529 0.75477 0.37855
 C241 C 0.50224 0.25173 -0.12582
 C242 C 0.47788 0.25608 -0.11260
 C243 C 0.45818 0.23628 -0.11216
 C244 C 0.46235 0.21173 -0.12507
 C245 C 0.48670 0.20744 -0.13839
 C246 C 0.50646 0.22719 -0.13868
 C247 C 0.52321 0.27270 -0.12610
 C248 C 0.54999 0.26600 -0.12176
 C249 C 0.56971 0.28579 -0.12176
 C250 C 0.56308 0.31266 -0.12628
 C251 C 0.53633 0.31934 -0.13078
 C252 C 0.51659 0.29958 -0.13061
 H253 H 0.43963 0.24037 -0.10187
 H254 H 0.49069 0.18874 -0.14839
 H255 H 0.59019 0.28004 -0.11847
 H256 H 0.53062 0.33992 -0.13408
 H257 H 0.52495 0.22337 -0.14924
 H258 H 0.55565 0.24548 -0.11799
 H259 H 0.47417 0.27470 -0.10228
 H260 H 0.49616 0.30529 -0.13426
 C261 C 0.12093 0.00525 0.25050
 C262 C 0.10362 -0.01686 0.24956
 C263 C 0.10373 -0.03611 0.27012
 C264 C 0.12122 -0.03376 0.29205
 C265 C 0.13852 -0.01165 0.29299
 C266 C 0.13834 0.00764 0.27250
 C267 C 0.12088 0.02572 0.22865
 C268 C 0.14486 0.03718 0.21941
 C269 C 0.14483 0.05659 0.19903
 C270 C 0.12082 0.06496 0.18733
 C271 C 0.09683 0.05343 0.19647
 C272 C 0.09686 0.03406 0.21690
 H273 H 0.09034 -0.05301 0.26855
 H274 H 0.15201 -0.00897 0.30973
 H275 H 0.16362 0.06528 0.19266
 H276 H 0.07802 0.05923 0.18767
 H277 H 0.15160 0.02466 0.27409
 H278 H 0.16374 0.03098 0.22779
 H279 H 0.09025 -0.01951 0.23270
 H280 H 0.07802 0.02584 0.22375
 C281 C 0.62422 0.49665 -0.24859
 C282 C 0.60606 0.51785 -0.24777
 C283 C 0.60621 0.53757 -0.26786
 C284 C 0.62471 0.53679 -0.28933
 C285 C 0.64292 0.51546 -0.29000
 C286 C 0.64259 0.49568 -0.26999
 C287 C 0.62401 0.47563 -0.22723
 C288 C 0.64797 0.46472 -0.21774
 C289 C 0.64778 0.44485 -0.19781
 C290 C 0.62364 0.43550 -0.18675
 C291 C 0.59968 0.44650 -0.19615
 C292 C 0.59986 0.46626 -0.21619
 H293 H 0.59190 0.55350 -0.26613
 H294 H 0.65740 0.51363 -0.30605
 H295 H 0.66658 0.43660 -0.19128
 H296 H 0.58076 0.43999 -0.18784
 H297 H 0.65657 0.47937 -0.27152
 H298 H 0.66694 0.47171 -0.22553
 H299 H 0.59190 0.51946 -0.23133
 H300 H 0.58103 0.47398 -0.22325
 C301 C 0.37717 0.99468 0.74857
 C302 C 0.39355 1.01741 0.74623
 C303 C 0.39329 1.03704 0.76615
 C304 C 0.37662 1.03444 0.78889
 C305 C 0.36027 1.01167 0.79123
 C306 C 0.36056 0.99203 0.77133
 C307 C 0.37737 0.97385 0.72736
 C308 C 0.35354 0.96160 0.71914
 C309 C 0.35371 0.94198 0.69922
 C310 C 0.37771 0.93415 0.68703
 C311 C 0.40155 0.94641 0.69522
 C312 C 0.40138 0.96603 0.71515
 H313 H 0.40594 1.05439 0.76346
 H314 H 0.34740 1.00877 0.80857
 H315 H 0.33505 0.93272 0.69355
 H316 H 0.42034 0.94100 0.68602
 H317 H 0.34802 0.97455 0.77395
 H318 H 0.33468 0.96738 0.72793
 H319 H 0.40628 1.02024 0.72875
 H320 H 0.42011 0.97488 0.72122
 C321 C 0.87866 0.50488 0.24993
 C322 C 0.86250 0.50749 0.22699
 C323 C 0.86212 0.48766 0.20729
 C324 C 0.87791 0.46471 0.21003
 C325 C 0.89422 0.46220 0.23290
 C326 C 0.89458 0.48204 0.25261
 C327 C 0.87870 0.52579 0.27105
 C328 C 0.90256 0.53367 0.28348
 C329 C 0.90253 0.55335 0.30337
 C330 C 0.87863 0.56555 0.31131
 C331 C 0.85479 0.55765 0.29888
 C332 C 0.85482 0.53801 0.27899
 H333 H 0.84957 0.49052 0.18985
 H334 H 0.90646 0.44474 0.23589
 H335 H 0.92118 0.55883 0.31275
 H336 H 0.83610 0.56688 0.30435
 H337 H 0.90697 0.47927 0.27023
 H338 H 0.92131 0.52482 0.27762
 H339 H 0.85034 0.52506 0.22411
 H340 H 0.83607 0.53217 0.27003
 C341 C 0.24350 0.12561 0.00285
 C342 C 0.24128 0.10920 -0.01993
 C343 C 0.26128 0.10906 -0.03963
 C344 C 0.28399 0.12535 -0.03702
 C345 C 0.28615 0.14181 -0.01424
 C346 C 0.26616 0.14193 0.00545
 C347 C 0.22231 0.12565 0.02385
 C348 C 0.21429 0.14964 0.03591
 C349 C 0.19443 0.14965 0.05574
 C350 C 0.18215 0.12567 0.06399
 C351 C 0.19015 0.10168 0.05192
 C352 C 0.20999 0.10167 0.03207
 H353 H 0.25871 0.09635 -0.05699
 H354 H 0.30343 0.15441 -0.01132
 H355 H 0.18889 0.16843 0.06486
 H356 H 0.18087 0.08291 0.05764
 H357 H 0.26864 0.15451 0.02297
 H358 H 0.22320 0.16848 0.02982
 H359 H 0.22388 0.09669 -0.02273
 H360 H 0.21592 0.08282 0.02337
 C361 C 0.75484 0.62649 0.49392
 C362 C 0.73236 0.64287 0.49142
 C363 C 0.71259 0.64275 0.51137
 C364 C 0.71483 0.62621 0.53428
 C365 C 0.73735 0.60984 0.53676
 C366 C 0.75711 0.60999 0.51683
 C367 C 0.77584 0.62657 0.47271
 C368 C 0.78789 0.60261 0.46470
 C369 C 0.80773 0.60269 0.44485
 C370 C 0.81598 0.62672 0.43255
 C371 C 0.80391 0.65067 0.44053
 C372 C 0.78405 0.65060 0.46037
 H373 H 0.69544 0.65540 0.50856
 H374 H 0.73998 0.59708 0.55422
 H375 H 0.81684 0.58394 0.43935
 H376 H 0.80964 0.66947 0.43124
 H377 H 0.77440 0.59745 0.51956
 H378 H 0.78181 0.58374 0.47360
 H379 H 0.72983 0.65552 0.47382
 H380 H 0.77535 0.66942 0.46629
 C381 C 0.74440 0.37321 -0.00291
 C382 C 0.74214 0.38943 0.02002
 C383 C 0.76199 0.38944 0.03970
 C384 C 0.78459 0.37322 0.03695
 C385 C 0.78679 0.35693 0.01404
 C386 C 0.76694 0.35694 -0.00565
 C387 C 0.72339 0.37332 -0.02391
 C388 C 0.71532 0.34943 -0.03625
 C389 C 0.69564 0.34956 -0.05609
 C390 C 0.68357 0.37358 -0.06408
 C391 C 0.69160 0.39747 -0.05172
 C392 C 0.71128 0.39734 -0.03187
 H393 H 0.75939 0.40201 0.05718
 H394 H 0.80399 0.34440 0.01102
 H395 H 0.69007 0.33087 -0.06543
 H396 H 0.68249 0.41626 -0.05724
 H397 H 0.76947 0.34452 -0.02327
 H398 H 0.72406 0.33056 -0.03036
 H399 H 0.72482 0.40187 0.02293
 H400 H 0.71724 0.41611 -0.02296
 C401 C 0.25623 0.87230 0.50393
 C402 C 0.25838 0.88906 0.48116
 C403 C 0.23848 0.88925 0.46154
 C404 C 0.21594 0.87268 0.46419
 C405 C 0.21389 0.85579 0.48690
 C406 C 0.23379 0.85562 0.50653
 C407 C 0.27723 0.87238 0.52495
 C408 C 0.28551 0.84840 0.53712
 C409 C 0.30522 0.84852 0.55694
 C410 C 0.31709 0.87262 0.56508
 C411 C 0.30882 0.89658 0.55291
 C412 C 0.28912 0.89647 0.53308
 H413 H 0.24097 0.90227 0.44421
 H414 H 0.19674 0.84294 0.48982
 H415 H 0.31098 0.82975 0.56613
 H416 H 0.31777 0.91544 0.55854
 H417 H 0.23136 0.84275 0.52403
 H418 H 0.27693 0.82949 0.53110
 H419 H 0.27564 0.90183 0.47834
 H420 H 0.28298 0.91530 0.52433
   
