data_POSCAR
  _audit_creation_date              2014-09-24
  _audit_creation_method            'ToBaCCo'
  _symmetry_space_group_name_H-M    'P1'
  _symmetry_Int_Tables_number       1
  _symmetry_cell_setting            triclinic
  loop_
  _symmetry_equiv_pos_as_xyz
 x,y,z
_cell_length_a 42.4774
_cell_length_b 42.4774
_cell_length_c 42.4173
_cell_angle_alpha 89.987000
_cell_angle_beta 90.013000
_cell_angle_gamma 89.867400
loop_
  _atom_site_label
  _atom_site_type_symbol
  _atom_site_fract_x
  _atom_site_fract_y
  _atom_site_fract_z
C1 C 0.19661 0.15488 0.19702
 C2 C 0.18303 0.14156 0.22406
 C3 C 0.15592 0.15494 0.23793
 C4 C 0.14258 0.18203 0.22401
 C5 C 0.15593 0.19557 0.19698
 C6 C 0.18304 0.18196 0.18343
 C7 C 0.22365 0.14151 0.18344
 C8 C 0.23752 0.15482 0.15632
 C9 C 0.22360 0.18192 0.14297
 C10 C 0.19659 0.19550 0.15631
 C11 C 0.18299 0.22252 0.14295
 C12 C 0.15596 0.23631 0.15632
 C13 C 0.14259 0.22259 0.18336
 H14 H 0.19377 0.12074 0.23426
 H15 H 0.12176 0.19282 0.23414
 H16 H 0.23384 0.12069 0.19420
 H17 H 0.23374 0.19266 0.12214
 H18 H 0.19357 0.23282 0.12212
 H19 H 0.12177 0.23293 0.19394
 C20 C -0.19654 0.84517 0.19688
 C21 C -0.18298 0.85847 0.22394
 C22 C -0.15585 0.84513 0.23780
 C23 C -0.14247 0.81807 0.22385
 C24 C -0.15580 0.80456 0.19681
 C25 C -0.18293 0.81813 0.18326
 C26 C -0.22361 0.85851 0.18331
 C27 C -0.23746 0.84521 0.15618
 C28 C -0.22351 0.81816 0.14279
 C29 C -0.19646 0.80460 0.15613
 C30 C -0.18282 0.77763 0.14274
 C31 C -0.15576 0.76387 0.15611
 C32 C -0.14240 0.77759 0.18317
 H33 H -0.19376 0.87926 0.23415
 H34 H -0.12162 0.80732 0.23398
 H35 H -0.23383 0.87930 0.19409
 H36 H -0.23363 0.80744 0.12195
 H37 H -0.19338 0.76733 0.12191
 H38 H -0.12157 0.76726 0.19375
 C39 C -0.19770 0.15593 -0.19589
 C40 C -0.18408 0.14255 -0.22291
 C41 C -0.15705 0.15588 -0.23666
 C42 C -0.14371 0.18288 -0.22291
 C43 C -0.15707 0.19650 -0.19591
 C44 C -0.18417 0.18301 -0.18234
 C45 C -0.22470 0.14266 -0.18231
 C46 C -0.23861 0.15605 -0.15521
 C47 C -0.22476 0.18313 -0.14189
 C48 C -0.19775 0.19663 -0.15525
 C49 C -0.18418 0.22363 -0.14194
 C50 C -0.15715 0.23730 -0.15535
 C51 C -0.14376 0.22348 -0.18236
 H52 H -0.19462 0.12176 -0.23323
 H53 H -0.12291 0.19343 -0.23321
 H54 H -0.23483 0.12185 -0.19304
 H55 H -0.23493 0.19391 -0.12108
 H56 H -0.19476 0.23401 -0.12114
 H57 H -0.12296 0.23372 -0.19297
 C58 C 0.19681 0.84407 -0.19719
 C59 C 0.18319 0.85746 -0.22420
 C60 C 0.15611 0.84417 -0.23808
 C61 C 0.14285 0.81707 -0.22420
 C62 C 0.15624 0.80346 -0.19720
 C63 C 0.18332 0.81697 -0.18363
 C64 C 0.22381 0.85735 -0.18358
 C65 C 0.23761 0.84392 -0.15655
 C66 C 0.22392 0.81689 -0.14318
 C67 C 0.19693 0.80335 -0.15653
 C68 C 0.18341 0.77634 -0.14321
 C69 C 0.15640 0.76265 -0.15660
 C70 C 0.14297 0.77645 -0.18362
 H71 H 0.19389 0.87828 -0.23435
 H72 H 0.12204 0.80636 -0.23436
 H73 H 0.23408 0.87816 -0.19415
 H74 H 0.23427 0.80626 -0.12238
 H75 H 0.19403 0.76599 -0.12240
 H76 H 0.12218 0.76618 -0.19421
 C77 C 0.15487 1.19661 0.80297
 C78 C 0.14156 1.18303 0.77592
 C79 C 0.15493 1.15591 0.76206
 C80 C 0.18203 1.14258 0.77598
 C81 C 0.19556 1.15593 0.80301
 C82 C 0.18196 1.18303 0.81656
 C83 C 0.14150 1.22365 0.81655
 C84 C 0.15482 1.23752 0.84367
 C85 C 0.18191 1.22360 0.85702
 C86 C 0.19550 1.19659 0.84368
 C87 C 0.22252 1.18299 0.85704
 C88 C 0.23631 1.15596 0.84367
 C89 C 0.22258 1.14258 0.81663
 H90 H 0.12074 1.19377 0.76573
 H91 H 0.19281 1.12176 0.76585
 H92 H 0.12068 1.23383 0.80579
 H93 H 0.19265 1.23374 0.87785
 H94 H 0.23281 1.19357 0.87787
 H95 H 0.23293 1.12177 0.80605
 C96 C 0.84517 0.80346 0.80311
 C97 C 0.85847 0.81702 0.77605
 C98 C 0.84513 0.84416 0.76219
 C99 C 0.81807 0.85754 0.77614
 C100 C 0.80456 0.84421 0.80318
 C101 C 0.81813 0.81708 0.81673
 C102 C 0.85851 0.77640 0.81668
 C103 C 0.84521 0.76254 0.84381
 C104 C 0.81816 0.77650 0.85719
 C105 C 0.80460 0.80354 0.84386
 C106 C 0.77763 0.81719 0.85725
 C107 C 0.76387 0.84424 0.84388
 C108 C 0.77758 0.85760 0.81682
 H109 H 0.87926 0.80624 0.76584
 H110 H 0.80732 0.87838 0.76601
 H111 H 0.87930 0.76618 0.80590
 H112 H 0.80744 0.76637 0.87804
 H113 H 0.76733 0.80662 0.87808
 H114 H 0.76726 0.87843 0.80624
 C115 C 0.15593 0.80230 1.19588
 C116 C 0.14255 0.81592 1.22290
 C117 C 0.15588 0.84295 1.23665
 C118 C 0.18288 0.85629 1.22290
 C119 C 0.19650 0.84292 1.19590
 C120 C 0.18301 0.81583 1.18233
 C121 C 0.14266 0.77530 1.18230
 C122 C 0.15605 0.76139 1.15520
 C123 C 0.18313 0.77524 1.14188
 C124 C 0.19663 0.80225 1.15524
 C125 C 0.22363 0.81582 1.14193
 C126 C 0.23730 0.84285 1.15534
 C127 C 0.22348 0.85624 1.18235
 H128 H 0.12176 0.80538 1.23322
 H129 H 0.19343 0.87709 1.23320
 H130 H 0.12185 0.76517 1.19303
 H131 H 0.19391 0.76507 1.12107
 H132 H 0.23401 0.80524 1.12113
 H133 H 0.23372 0.87704 1.19296
 C134 C 0.84406 1.19682 1.19718
 C135 C 0.85745 1.18320 1.22419
 C136 C 0.84416 1.15612 1.23807
 C137 C 0.81707 1.14285 1.22419
 C138 C 0.80346 1.15625 1.19719
 C139 C 0.81697 1.18332 1.18362
 C140 C 0.85735 1.22381 1.18357
 C141 C 0.84392 1.23761 1.15654
 C142 C 0.81688 1.22393 1.14317
 C143 C 0.80335 1.19694 1.15652
 C144 C 0.77634 1.18342 1.14319
 C145 C 0.76264 1.15640 1.15659
 C146 C 0.77645 1.14298 1.18361
 H147 H 0.87827 1.19389 1.23434
 H148 H 0.80635 1.12205 1.23435
 H149 H 0.87816 1.23408 1.19414
 H150 H 0.80626 1.23427 1.12237
 H151 H 0.76599 1.19404 1.12239
 H152 H 0.76617 1.12218 1.19420
 N153 N 0.46680 1.03401 0.94437
 N154 N 0.44282 1.03784 0.92494
 N155 N 0.53290 1.05610 0.96642
 N156 N 0.55680 1.07555 0.96260
 N157 N 0.53306 1.03427 0.94450
 N158 N 0.55707 1.03826 0.92516
 N159 N 0.46663 1.05582 0.96630
 N160 N 0.44252 1.07510 0.96240
 C161 C 0.42795 1.06357 0.93650
 C162 C 0.57160 1.06410 0.93676
 N163 N 0.53287 1.03406 1.05618
 N164 N 0.55684 1.03797 1.07559
 N165 N 0.46650 1.05568 1.03421
 N166 N 0.44239 1.07496 1.03813
 N167 N 0.46661 1.03377 1.05606
 N168 N 0.44259 1.03753 1.07545
 N169 N 0.53276 1.05596 1.03433
 N170 N 0.55666 1.07538 1.03824
 Mn171 Mn 0.49969 1.05628 1.00031
 C172 C 0.57140 1.06384 1.06408
 C173 C 0.42775 1.06332 1.06395
 N174 N 0.53351 0.96647 0.94438
 N175 N 0.55754 0.96269 0.92500
 N176 N 0.46736 0.94429 0.96610
 N177 N 0.44346 0.92487 0.96216
 N178 N 0.46725 0.96620 0.94425
 N179 N 0.44328 0.96230 0.92484
 N180 N 0.53361 0.94458 0.96624
 N181 N 0.55770 0.92528 0.96236
 Mn182 Mn 0.50016 1.00024 0.94399
 C183 C 0.57236 0.93689 0.93654
 C184 C 0.42872 0.93641 0.93632
 N185 N 0.46706 0.96596 1.05592
 N186 N 0.44302 0.96194 1.07523
 N187 N 0.53351 0.94444 1.03414
 N188 N 0.55763 0.92517 1.03804
 N189 N 0.53332 0.96626 1.05607
 N190 N 0.55731 0.96245 1.07551
 N191 N 0.46726 0.94415 1.03399
 N192 N 0.44337 0.92469 1.03775
 Mn193 Mn 0.49996 1.00001 1.05644
 Mn194 Mn 0.50044 0.94399 1.00012
 Cl195 Cl 0.50006 1.00013 1.00022
 C196 C 0.42853 0.93610 1.06357
 C197 C 0.57219 0.93672 1.06395
 N198 N -0.03404 0.46706 -0.05594
 N199 N -0.03806 0.44303 -0.07524
 N200 N -0.05556 0.53351 -0.03415
 N201 N -0.07483 0.55763 -0.03806
 N202 N -0.03375 0.53332 -0.05608
 N203 N -0.03756 0.55731 -0.07552
 N204 N -0.05585 0.46726 -0.03400
 N205 N -0.07532 0.44337 -0.03776
 C206 C -0.06391 0.42853 -0.06359
 C207 C -0.06329 0.57219 -0.06396
 N208 N -0.03353 0.53351 0.05561
 N209 N -0.03732 0.55755 0.07498
 N210 N -0.05571 0.46736 0.03389
 N211 N -0.07513 0.44346 0.03783
 N212 N -0.03380 0.46725 0.05573
 N213 N -0.03770 0.44329 0.07515
 N214 N -0.05542 0.53361 0.03375
 N215 N -0.07472 0.55770 0.03763
 Mn216 Mn -0.05602 0.50044 -0.00013
 C217 C -0.06311 0.57236 0.06345
 C218 C -0.06359 0.42873 0.06367
 N219 N 0.03406 0.53287 -0.05620
 N220 N 0.03796 0.55685 -0.07560
 N221 N 0.05568 0.46650 -0.03423
 N222 N 0.07496 0.44239 -0.03814
 N223 N 0.03377 0.46661 -0.05607
 N224 N 0.03752 0.44259 -0.07546
 N225 N 0.05596 0.53276 -0.03434
 N226 N 0.07538 0.55666 -0.03826
 Mn227 Mn 0.00001 0.49996 -0.05646
 C228 C 0.06384 0.57141 -0.06410
 C229 C 0.06332 0.42775 -0.06397
 N230 N 0.03401 0.46681 0.05562
 N231 N 0.03783 0.44282 0.07505
 N232 N 0.05610 0.53290 0.03357
 N233 N 0.07555 0.55680 0.03738
 N234 N 0.03427 0.53306 0.05549
 N235 N 0.03826 0.55707 0.07483
 N236 N 0.05582 0.46663 0.03368
 N237 N 0.07510 0.44253 0.03758
 Mn238 Mn 0.00024 0.50016 0.05599
 Mn239 Mn 0.05627 0.49970 -0.00033
 Cl240 Cl 0.00013 0.50006 -0.00023
 C241 C 0.06357 0.42795 0.06348
 C242 C 0.06410 0.57160 0.06322
 N243 N 0.94420 -0.03389 0.46682
 N244 N 0.92483 -0.03771 0.44280
 N245 N 0.96611 -0.05580 0.53317
 N246 N 0.96229 -0.07517 0.55719
 N247 N 0.94422 -0.03392 0.53318
 N248 N 0.92488 -0.03780 0.55722
 N249 N 0.96608 -0.05578 0.46681
 N250 N 0.96220 -0.07512 0.44276
 C251 C 0.93636 -0.06353 0.42807
 C252 C 0.93647 -0.06364 0.57192
 N253 N 1.05573 -0.03402 0.53319
 N254 N 1.07512 -0.03792 0.55720
 N255 N 1.03388 -0.05586 0.46684
 N256 N 1.03775 -0.07525 0.44284
 N257 N 1.05573 -0.03404 0.46683
 N258 N 1.07509 -0.03798 0.44280
 N259 N 1.03391 -0.05586 0.53319
 N260 N 1.03783 -0.07524 0.55721
 Mn261 Mn 1.00000 -0.05620 0.50000
 C262 C 1.06364 -0.06374 0.57191
 C263 C 1.06356 -0.06379 0.42811
 N264 N 0.94414 0.03388 0.53314
 N265 N 0.92475 0.03776 0.55715
 N266 N 0.96598 0.05574 0.46680
 N267 N 0.96207 0.07512 0.44278
 N268 N 0.94413 0.03391 0.46680
 N269 N 0.92475 0.03784 0.44278
 N270 N 0.96596 0.05573 0.53316
 N271 N 0.96202 0.07509 0.55719
 Mn272 Mn 0.94379 -0.00000 0.49999
 C273 C 0.93621 0.06356 0.57188
 C274 C 0.93626 0.06365 0.42808
 N275 N 1.05567 0.03377 0.46683
 N276 N 1.07506 0.03761 0.44282
 N277 N 1.03377 0.05568 0.53316
 N278 N 1.03761 0.07506 0.55716
 N279 N 1.05566 0.03380 0.53319
 N280 N 1.07501 0.03769 0.55723
 N281 N 1.03380 0.05566 0.46679
 N282 N 1.03769 0.07502 0.44275
 Mn283 Mn 1.05608 -0.00012 0.50001
 Mn284 Mn 0.99987 0.05609 0.49998
 Cl285 Cl 0.99994 -0.00006 0.50000
 C286 C 1.06353 0.06343 0.42808
 C287 C 1.06343 0.06353 0.57191
 C288 C 1.11662 0.11597 0.31800
 N289 N 1.14260 0.10297 0.30467
 N290 N 1.15525 0.11551 0.27883
 C291 C 1.14246 0.14157 0.26521
 N292 N 1.11639 0.15446 0.27869
 N293 N 1.10373 0.14194 0.30453
 C294 C 1.10275 0.10225 0.34658
 N295 N 1.07680 0.11535 0.35996
 N296 N 1.06428 0.10297 0.38595
 C297 C 1.07727 0.07706 0.39948
 N298 N 1.10319 0.06394 0.38611
 N299 N 1.11571 0.07632 0.36012
 C300 C 0.88337 -0.11598 0.31792
 N301 N 0.89630 -0.14191 0.30443
 N302 N 0.88367 -0.15441 0.27857
 C303 C 0.85758 -0.14153 0.26509
 N304 N 0.84476 -0.11551 0.27873
 N305 N 0.85737 -0.10299 0.30459
 C306 C 0.89722 -0.10228 0.34652
 N307 N 0.88423 -0.07637 0.36007
 N308 N 0.89672 -0.06402 0.38607
 C309 C 0.92264 -0.07714 0.39946
 N310 N 0.93566 -0.10302 0.38592
 N311 N 0.92316 -0.11537 0.35992
 C312 C 0.88301 0.11615 0.68193
 N313 N 0.89585 0.14209 0.69539
 N314 N 0.88316 0.15463 0.72123
 C315 C 0.85714 0.14176 0.73465
 N316 N 0.84437 0.11576 0.72110
 N317 N 0.85705 0.10319 0.69526
 C318 C 0.89691 0.10241 0.65336
 N319 N 0.88402 0.07651 0.63982
 N320 N 0.89657 0.06412 0.61384
 C321 C 0.92245 0.07720 0.60047
 N322 N 0.93537 0.10307 0.61399
 N323 N 0.92282 0.11546 0.63998
 C324 C 1.11675 -0.11661 0.68193
 N325 N 1.14271 -0.10370 0.69530
 N326 N 1.15537 -0.11633 0.72112
 C327 C 1.14263 -0.14239 0.73467
 N328 N 1.11658 -0.15518 0.72115
 N329 N 1.10391 -0.14257 0.69533
 C330 C 1.10287 -0.10279 0.65337
 N331 N 1.07696 -0.11579 0.63994
 N332 N 1.06444 -0.10333 0.61396
 C333 C 1.07739 -0.07744 0.60049
 N334 N 1.10328 -0.06441 0.61391
 N335 N 1.11580 -0.07687 0.63989
 C336 C 0.31759 1.11577 1.11705
 N337 N 0.30411 1.14173 1.10415
 N338 N 0.27827 1.15427 1.11680
 C339 C 0.26479 1.14142 1.14288
 N340 N 0.27842 1.11536 1.15567
 N341 N 0.30426 1.10280 1.14304
 C342 C 0.34618 1.10204 1.10318
 N343 N 0.35977 1.07613 1.11614
 N344 N 0.38577 1.06377 1.10361
 C345 C 0.39912 1.07689 1.07770
 N346 N 0.38555 1.10278 1.06472
 N347 N 0.35954 1.11514 1.07724
 C348 C 0.31892 0.88362 0.88333
 N349 N 0.30561 0.85763 0.89623
 N350 N 0.27980 0.84508 0.88361
 C351 C 0.26628 0.85800 0.85759
 N352 N 0.27968 0.88405 0.84476
 N353 N 0.30548 0.89661 0.85737
 C354 C 0.34744 0.89739 0.89716
 N355 N 0.36081 0.92335 0.88419
 N356 N 0.38673 0.93579 0.89668
 C357 C 0.40022 0.92271 0.92258
 N358 N 0.38687 0.89678 0.93558
 N359 N 0.36095 0.88433 0.92309
 C360 C 0.68240 0.88423 1.11697
 N361 N 0.69571 0.89716 1.14299
 N362 N 0.72158 0.88461 1.15560
 C363 C 0.73524 0.85860 1.14275
 N364 N 0.72177 0.84579 1.11665
 N365 N 0.69591 0.85832 1.10402
 C366 C 0.65379 0.89796 1.10313
 N367 N 0.64045 0.88494 1.07714
 N368 N 0.61443 0.89730 1.06464
 C369 C 0.60082 0.92313 1.07769
 N370 N 0.61414 0.93618 1.10366
 N371 N 0.64016 0.92381 1.11616
 C372 C 0.68145 1.11702 0.88398
 N373 N 0.69487 1.10406 0.85801
 N374 N 0.72067 1.11663 0.84541
 C375 C 0.73415 1.14268 0.85822
 N376 N 0.72058 1.15553 0.88428
 N377 N 0.69478 1.14298 0.89690
 C378 C 0.65292 1.10323 0.89778
 N379 N 0.63940 1.11623 0.92372
 N380 N 0.61347 1.10376 0.93617
 C381 C 0.60013 1.07785 0.92311
 N382 N 0.61363 1.06483 0.89720
 N383 N 0.63956 1.07730 0.88476
 C384 C 0.11619 0.31779 0.11643
 N385 N 0.14211 0.30430 0.10346
 N386 N 0.15468 0.27844 0.11608
 C387 C 0.14184 0.26503 0.14216
 N388 N 0.11586 0.27861 0.15506
 N389 N 0.10328 0.30446 0.14245
 C390 C 0.10243 0.34638 0.10260
 N391 N 0.07657 0.35998 0.11565
 N392 N 0.06417 0.38599 0.10317
 C393 C 0.07719 0.39933 0.07721
 N394 N 0.10302 0.38575 0.06413
 N395 N 0.11542 0.35974 0.07661
 C396 C -0.11719 0.31865 -0.11584
 N397 N -0.10431 0.30510 -0.14179
 N398 N -0.11697 0.27929 -0.15426
 C399 C -0.14300 0.26597 -0.14131
 N400 N -0.15581 0.27960 -0.11530
 N401 N -0.14316 0.30542 -0.10280
 C402 C -0.10329 0.34718 -0.10218
 N403 N -0.11620 0.36082 -0.07627
 N404 N -0.10363 0.38677 -0.06396
 C405 C -0.07773 0.40000 -0.07713
 N406 N -0.06480 0.38638 -0.10302
 N407 N -0.07736 0.36043 -0.11533
 C408 C 0.11668 0.68127 -0.11687
 N409 N 0.10371 0.69475 -0.14282
 N410 N 0.11629 0.72057 -0.15538
 C411 C 0.14232 0.73396 -0.14250
 N412 N 0.15522 0.72040 -0.11649
 N413 N 0.14266 0.69458 -0.10392
 C414 C 0.10290 0.65274 -0.10310
 N415 N 0.11593 0.63919 -0.07718
 N416 N 0.10347 0.61325 -0.06475
 C417 C 0.07755 0.59993 -0.07779
 N418 N 0.06449 0.61345 -0.10368
 N419 N 0.07695 0.63939 -0.11612
 C420 C -0.11584 0.68248 0.11625
 N421 N -0.10292 0.69586 0.14225
 N422 N -0.11555 0.72169 0.15484
 C423 C -0.14159 0.73519 0.14196
 N424 N -0.15443 0.72173 0.11591
 N425 N -0.14182 0.69590 0.10330
 C426 C -0.10204 0.65391 0.10246
 N427 N -0.11506 0.64048 0.07652
 N428 N -0.10263 0.61448 0.06408
 C429 C -0.07674 0.60098 0.07713
 N430 N -0.06368 0.61440 0.10304
 N431 N -0.07612 0.64040 0.11549
 C432 C 1.11597 0.11662 0.68199
 N433 N 1.14194 0.10373 0.69546
 N434 N 1.15446 0.11639 0.72130
 C435 C 1.14157 0.14246 0.73478
 N436 N 1.11550 0.15525 0.72116
 N437 N 1.10296 0.14260 0.69532
 C438 C 1.10225 0.10275 0.65341
 N439 N 1.07631 0.11571 0.63987
 N440 N 1.06394 0.10319 0.61388
 C441 C 1.07706 0.07727 0.60051
 N442 N 1.10297 0.06428 0.61404
 N443 N 1.11534 0.07680 0.64002
 C444 C 0.88402 -0.11662 0.68207
 N445 N 0.85809 -0.10369 0.69556
 N446 N 0.84559 -0.11632 0.72142
 C447 C 0.85847 -0.14242 0.73490
 N448 N 0.88449 -0.15524 0.72126
 N449 N 0.89701 -0.14262 0.69540
 C450 C 0.89772 -0.10278 0.65347
 N451 N 0.92363 -0.11577 0.63992
 N452 N 0.93598 -0.10327 0.61392
 C453 C 0.92286 -0.07735 0.60053
 N454 N 0.89698 -0.06434 0.61406
 N455 N 0.88462 -0.07683 0.64007
 C456 C 1.11614 -0.11699 0.31806
 N457 N 1.10319 -0.14295 0.30473
 N458 N 1.11576 -0.15563 0.27889
 C459 C 1.14176 -0.14286 0.26534
 N460 N 1.15463 -0.11684 0.27876
 N461 N 1.14209 -0.10415 0.30459
 C462 C 1.10241 -0.10309 0.34662
 N463 N 1.11546 -0.07718 0.36001
 N464 N 1.10307 -0.06463 0.38600
 C465 C 1.07720 -0.07755 0.39952
 N466 N 1.06412 -0.10343 0.38615
 N467 N 1.07651 -0.11598 0.36017
 C468 C 0.88339 0.11675 0.31806
 N469 N 0.85742 0.10391 0.30466
 N470 N 0.84481 0.11659 0.27884
 C471 C 0.85761 0.14263 0.26532
 N472 N 0.88367 0.15537 0.27887
 N473 N 0.89629 0.14271 0.30469
 C474 C 0.89720 0.10288 0.34662
 N475 N 0.92312 0.11580 0.36010
 N476 N 0.93558 0.10328 0.38608
 C477 C 0.92256 0.07739 0.39949
 N478 N 0.89667 0.06444 0.38603
 N479 N 0.88420 0.07696 0.36005
 C480 C 0.11577 0.31759 -0.11706
 N481 N 0.10279 0.30426 -0.14305
 N482 N 0.11536 0.27842 -0.15569
 C483 C 0.14142 0.26479 -0.14289
 N484 N 0.15427 0.27827 -0.11681
 N485 N 0.14172 0.30411 -0.10416
 C486 C 0.10204 0.34618 -0.10319
 N487 N 0.11514 0.35954 -0.07725
 N488 N 0.10278 0.38555 -0.06473
 C489 C 0.07689 0.39912 -0.07771
 N490 N 0.06376 0.38577 -0.10363
 N491 N 0.07612 0.35977 -0.11615
 C492 C -0.11638 0.31893 0.11666
 N493 N -0.14237 0.30561 0.10375
 N494 N -0.15492 0.27981 0.11638
 C495 C -0.14200 0.26628 0.14240
 N496 N -0.11596 0.27969 0.15523
 N497 N -0.10339 0.30549 0.14262
 C498 C -0.10261 0.34745 0.10283
 N499 N -0.07665 0.36081 0.11580
 N500 N -0.06421 0.38673 0.10331
 C501 C -0.07729 0.40022 0.07741
 N502 N -0.10322 0.38688 0.06441
 N503 N -0.11567 0.36095 0.07690
 C504 C -0.11577 0.68240 -0.11699
 N505 N -0.10284 0.69572 -0.14300
 N506 N -0.11539 0.72159 -0.15561
 C507 C -0.14140 0.73524 -0.14276
 N508 N -0.15421 0.72177 -0.11666
 N509 N -0.14168 0.69591 -0.10403
 C510 C -0.10204 0.65379 -0.10315
 N511 N -0.11507 0.64045 -0.07715
 N512 N -0.10270 0.61444 -0.06465
 C513 C -0.07687 0.60082 -0.07771
 N514 N -0.06382 0.61414 -0.10367
 N515 N -0.07619 0.64016 -0.11617
 C516 C 0.11702 0.68145 0.11601
 N517 N 0.10406 0.69487 0.14198
 N518 N 0.11663 0.72066 0.15458
 C519 C 0.14268 0.73415 0.14177
 N520 N 0.15554 0.72059 0.11571
 N521 N 0.14298 0.69478 0.10309
 C522 C 0.10323 0.65292 0.10220
 N523 N 0.11623 0.63940 0.07626
 N524 N 0.10376 0.61347 0.06382
 C525 C 0.07785 0.60013 0.07688
 N526 N 0.06483 0.61363 0.10279
 N527 N 0.07730 0.63956 0.11523
 C528 C 0.31778 1.11619 0.88356
 N529 N 0.30446 1.10328 0.85754
 N530 N 0.27860 1.11585 0.84493
 C531 C 0.26503 1.14184 0.85782
 N532 N 0.27844 1.15468 0.88391
 N533 N 0.30429 1.14211 0.89653
 C534 C 0.34638 1.10243 0.89738
 N535 N 0.35974 1.11542 0.92338
 N536 N 0.38575 1.10302 0.93585
 C537 C 0.39933 1.07719 0.92278
 N538 N 0.38598 1.06417 0.89681
 N539 N 0.35997 1.07657 0.88433
 C540 C 0.31865 0.88282 1.11582
 N541 N 0.30542 0.85684 1.10279
 N542 N 0.27960 0.84419 1.11528
 C543 C 0.26597 0.85700 1.14130
 N544 N 0.27929 0.88303 1.15425
 N545 N 0.30510 0.89569 1.14177
 C546 C 0.34718 0.89671 1.10217
 N547 N 0.36043 0.92264 1.11532
 N548 N 0.38638 0.93520 1.10301
 C549 C 0.40000 0.92228 1.07712
 N550 N 0.38677 0.89637 1.06394
 N551 N 0.36082 0.88381 1.07625
 C552 C 0.68127 1.11669 1.11685
 N553 N 0.69457 1.14266 1.10390
 N554 N 0.72040 1.15522 1.11648
 C555 C 0.73396 1.14232 1.14249
 N556 N 0.72056 1.11629 1.15537
 N557 N 0.69474 1.10372 1.14281
 C558 C 0.65273 1.10290 1.10308
 N559 N 0.63939 1.07696 1.11610
 N560 N 0.61345 1.06450 1.10367
 C561 C 0.59992 1.07755 1.07778
 N562 N 0.61325 1.10348 1.06473
 N563 N 0.63919 1.11593 1.07717
 C564 C 0.68248 0.88416 0.88374
 N565 N 0.69590 0.85818 0.89669
 N566 N 0.72173 0.84557 0.88408
 C567 C 0.73519 0.85842 0.85803
 N568 N 0.72169 0.88446 0.84515
 N569 N 0.69586 0.89708 0.85774
 C570 C 0.65391 0.89797 0.89753
 N571 N 0.64040 0.92389 0.88450
 N572 N 0.61439 0.93632 0.89694
 C573 C 0.60098 0.92326 0.92285
 N574 N 0.61448 0.89738 0.93591
 N575 N 0.64048 0.88494 0.92347
   
