data_POSCAR
  _audit_creation_date              2014-09-24
  _audit_creation_method            'ToBaCCo'
  _symmetry_space_group_name_H-M    'P1'
  _symmetry_Int_Tables_number       1
  _symmetry_cell_setting            triclinic
  loop_
  _symmetry_equiv_pos_as_xyz
 x,y,z
_cell_length_a 51.8843
_cell_length_b 52.1383
_cell_length_c 49.9732
_cell_angle_alpha 90.925100
_cell_angle_beta 89.837400
_cell_angle_gamma 95.615700
loop_
  _atom_site_label
  _atom_site_type_symbol
  _atom_site_fract_x
  _atom_site_fract_y
  _atom_site_fract_z
C1 C 0.21256 0.52247 1.04236
 H2 H 0.21140 0.53634 1.02669
 C3 C 0.19471 0.52171 1.06338
 H4 H 0.18114 0.53617 1.06394
 C5 C 0.23156 0.48690 1.05973
 H6 H 0.24503 0.47253 1.05779
 C7 C 0.21429 0.48554 1.08122
 H8 H 0.21516 0.46982 1.09493
 N9 N 0.23066 0.50535 1.04094
 C10 C 0.30155 0.53349 1.00533
 H11 H 0.30766 0.51465 1.00112
 C12 C 0.32003 0.55475 1.00578
 H13 H 0.34015 0.55191 1.00213
 C14 C 0.26808 0.56028 1.01400
 H15 H 0.24782 0.56244 1.01706
 C16 C 0.28599 0.58220 1.01437
 H17 H 0.27935 0.60099 1.01807
 Zn18 Zn 0.25241 0.50599 1.01015
 N19 N 0.27613 0.53642 1.00992
 C20 C 0.23275 0.52386 0.96154
 N21 N 0.23034 0.50503 0.98014
 C22 C 0.21078 0.48572 0.97894
 C23 C 0.19229 0.48505 0.95866
 C24 C 0.21460 0.52401 0.94095
 C25 C 0.28805 0.47414 1.03045
 C26 C 0.30341 0.45368 1.03087
 C27 C 0.28567 0.43924 0.98798
 C28 C 0.27030 0.45985 0.98858
 N29 N 0.27175 0.47680 1.00963
 H30 H 0.24839 0.53912 0.96301
 H31 H 0.20930 0.47107 0.99410
 H32 H 0.17686 0.46949 0.95810
 H33 H 0.21635 0.53962 0.92684
 H34 H 0.28924 0.48814 1.04673
 H35 H 0.31579 0.45181 1.04797
 H36 H 0.28474 0.42643 0.97068
 H37 H 0.25767 0.46258 0.97192
 C38 C 0.31240 0.57947 1.01063
 C39 C 0.19514 0.50293 1.08339
 C40 C 0.30263 0.43599 1.00930
 C41 C 0.19381 0.50459 0.93953
 C42 C 0.79999 0.49790 -0.03218
 H43 H 0.80748 0.49700 -0.01214
 C44 C 0.81723 0.49896 -0.05364
 H45 H 0.83772 0.49891 -0.04965
 C46 C 0.76464 0.50074 -0.06148
 H47 H 0.74414 0.50198 -0.06433
 C48 C 0.78126 0.50179 -0.08362
 H49 H 0.77328 0.50324 -0.10347
 N50 N 0.77416 0.49855 -0.03634
 C51 C 0.71840 0.53106 0.01745
 H52 H 0.71459 0.51576 0.03160
 C53 C 0.70527 0.55309 0.01995
 H54 H 0.69109 0.55416 0.03577
 C55 C 0.74112 0.54807 -0.02048
 H56 H 0.75529 0.54620 -0.03608
 C57 C 0.72833 0.57045 -0.01876
 H58 H 0.73284 0.58557 -0.03311
 Zn59 Zn 0.75200 0.49762 -0.00578
 N60 N 0.73575 0.52876 -0.00270
 C61 C 0.77689 0.51259 0.04360
 N62 N 0.77205 0.49337 0.02506
 C63 C 0.78168 0.47023 0.02775
 C64 C 0.79736 0.46586 0.04949
 C65 C 0.79235 0.50898 0.06581
 C66 C 0.71932 0.45577 -0.03032
 C67 C 0.69911 0.43590 -0.03018
 C68 C 0.69422 0.44307 0.01733
 C69 C 0.71438 0.46272 0.01627
 N70 N 0.72610 0.46918 -0.00738
 H71 H 0.76902 0.53084 0.04103
 H72 H 0.77753 0.45531 0.01264
 H73 H 0.80547 0.44756 0.05072
 H74 H 0.79590 0.52446 0.08043
 H75 H 0.72919 0.46062 -0.04884
 H76 H 0.69335 0.42602 -0.04876
 H77 H 0.68510 0.43843 0.03639
 H78 H 0.72073 0.47285 0.03447
 C79 C 0.70998 0.57308 0.00157
 C80 C 0.80798 0.50080 -0.07983
 C81 C 0.68594 0.42971 -0.00619
 C82 C 0.80301 0.48541 0.06887
 C83 C 0.00365 0.29137 0.50587
 H84 H 0.00477 0.29947 0.52589
 C85 C 0.00501 0.30790 0.48418
 H86 H 0.00612 0.32838 0.48843
 C87 C 0.00011 0.25496 0.47682
 H88 H -0.00093 0.23426 0.47410
 C89 C 0.00097 0.27079 0.45445
 H90 H 0.00079 0.26168 0.43485
 N91 N 0.00117 0.26540 0.50195
 C92 C -0.03601 0.20982 0.55803
 H93 H -0.02357 0.21416 0.57515
 C94 C -0.05762 0.19180 0.56026
 H95 H -0.06153 0.18237 0.57919
 C96 C -0.04643 0.21752 0.51298
 H97 H -0.04222 0.22758 0.49458
 C98 C -0.06814 0.19947 0.51425
 H99 H -0.07987 0.19554 0.49650
 Zn100 Zn 0.00091 0.24395 0.53245
 N101 N -0.03039 0.22175 0.53443
 C102 C -0.01705 0.27718 0.57159
 N103 N 0.00385 0.26527 0.56343
 C104 C 0.02737 0.27059 0.57526
 C105 C 0.03085 0.28953 0.59533
 C106 C -0.01444 0.29621 0.59165
 C107 C 0.04846 0.22964 0.51185
 C108 C 0.06982 0.21535 0.51021
 C109 C 0.05266 0.19014 0.54746
 C110 C 0.03165 0.20496 0.54844
 N111 N 0.02975 0.22411 0.53060
 H112 H -0.03544 0.27277 0.56158
 H113 H 0.04375 0.26103 0.56826
 H114 H 0.04989 0.29409 0.60399
 H115 H -0.03098 0.30642 0.59693
 H116 H 0.04707 0.24537 0.49831
 H117 H 0.08460 0.22027 0.49531
 H118 H 0.05345 0.17463 0.56149
 H119 H 0.01686 0.20107 0.56344
 C120 C -0.07369 0.18591 0.53796
 C121 C 0.00370 0.29787 0.45777
 C122 C 0.07208 0.19518 0.52808
 C123 C 0.00994 0.30310 0.60325
 C124 C 0.98065 0.71322 0.50519
 H125 H 0.96669 0.70827 0.48944
 C126 C 0.98059 0.69810 0.52793
 H127 H 0.96669 0.68128 0.52939
 C128 C 1.01596 0.74106 0.52204
 H129 H 1.02948 0.75801 0.51972
 C130 C 1.01666 0.72637 0.54515
 H131 H 1.03077 0.73218 0.56055
 N132 N 0.99808 0.73426 0.50270
 C133 C 0.95855 0.78399 0.45095
 H134 H 0.97073 0.78470 0.43332
 C135 C 0.93667 0.79756 0.45170
 H136 H 0.93233 0.80887 0.43460
 C137 C 0.95024 0.76931 0.49506
 H138 H 0.95574 0.75855 0.51206
 C139 C 0.92813 0.78251 0.49662
 H140 H 0.91661 0.78138 0.51474
 Zn141 Zn 0.99585 0.75337 0.47121
 N142 N 0.96502 0.77034 0.47250
 C143 C 0.97189 0.72521 0.42739
 N144 N 0.99409 0.72942 0.44195
 C145 C 1.01412 0.71483 0.43769
 C146 C 1.01233 0.69529 0.41816
 C147 C 0.96921 0.70575 0.40782
 C148 C 1.02086 0.80380 0.46715
 C149 C 1.04150 0.82279 0.46453
 C150 C 1.07093 0.78975 0.46544
 C151 C 1.04964 0.77129 0.46789
 N152 N 1.02508 0.77848 0.46826
 H153 H 0.95572 0.73616 0.43158
 H154 H 1.03109 0.71751 0.45017
 H155 H 1.02817 0.68338 0.41565
 H156 H 0.95124 0.70243 0.39676
 H157 H 1.00150 0.80952 0.46858
 H158 H 1.03761 0.84280 0.46382
 H159 H 1.09029 0.78365 0.46489
 H160 H 1.05286 0.75130 0.46995
 C161 C 0.92121 0.79708 0.47484
 C162 C 0.99870 0.70464 0.54833
 C163 C 1.06692 0.81587 0.46339
 C164 C 0.98949 0.69032 0.40323
 C165 C 0.47812 -0.01324 0.28374
 H166 H 0.49281 -0.02659 0.28419
 C167 C 0.45768 -0.01557 0.30206
 H168 H 0.45653 -0.03117 0.31617
 C169 C 0.46220 0.02354 0.26496
 H170 H 0.46442 0.03917 0.25096
 C171 C 0.44156 0.02205 0.28306
 H172 H 0.42815 0.03669 0.28271
 N173 N 0.48003 0.00611 0.26571
 C174 C 0.53266 -0.01721 0.20371
 H175 H 0.54585 0.00018 0.20330
 C176 C 0.53618 -0.03750 0.18598
 H177 H 0.55185 -0.03465 0.17173
 C178 C 0.49530 -0.04020 0.22187
 H179 H 0.47928 -0.04109 0.23579
 C180 C 0.49798 -0.06101 0.20439
 H181 H 0.48423 -0.07785 0.20621
 Zn182 Zn 0.51003 0.01023 0.24399
 N183 N 0.51272 -0.01899 0.22142
 C184 C 0.55661 -0.00264 0.26713
 N185 N 0.53882 0.01486 0.26744
 C186 C 0.53976 0.03413 0.28622
 C187 C 0.55893 0.03604 0.30599
 C188 C 0.57602 -0.00146 0.28647
 C189 C 0.49047 0.03523 0.20143
 C190 C 0.48890 0.05400 0.18213
 C191 C 0.52412 0.07986 0.20408
 C192 C 0.52524 0.06036 0.22286
 N193 N 0.50852 0.03859 0.22115
 H194 H 0.55529 -0.01817 0.25250
 H195 H 0.52505 0.04747 0.28638
 H196 H 0.55886 0.05094 0.32133
 H197 H 0.58978 -0.01579 0.28604
 H198 H 0.47756 0.01764 0.20046
 H199 H 0.47452 0.05088 0.16645
 H200 H 0.53775 0.09694 0.20535
 H201 H 0.53972 0.06246 0.23844
 C202 C 0.51883 -0.06015 0.18600
 C203 C 0.43923 0.00246 0.30217
 C204 C 0.50600 0.07655 0.18318
 C205 C 0.57705 0.01773 0.30658
 C206 C 0.52002 -0.02767 0.70819
 H207 H 0.50715 -0.04524 0.70952
 C208 C 0.54077 -0.02640 0.69033
 H209 H 0.54390 -0.04309 0.67801
 C210 C 0.53104 0.01571 0.72201
 H211 H 0.52699 0.03217 0.73415
 C212 C 0.55181 0.01796 0.70403
 H213 H 0.56388 0.03606 0.70274
 N214 N 0.51573 -0.00694 0.72389
 C215 C 0.47150 -0.04145 0.79150
 H216 H 0.45567 -0.02953 0.79305
 C217 C 0.47424 -0.06007 0.81090
 H218 H 0.46021 -0.06250 0.82696
 C219 C 0.51027 -0.05122 0.77030
 H220 H 0.52491 -0.04728 0.75521
 C221 C 0.51372 -0.06998 0.78917
 H222 H 0.53053 -0.08070 0.78761
 Zn223 Zn 0.48650 -0.01001 0.74716
 N224 N 0.48930 -0.03746 0.77154
 C225 C 0.43207 -0.02080 0.73647
 N226 N 0.45604 -0.01540 0.72557
 C227 C 0.45898 -0.01182 0.69877
 C228 C 0.43754 -0.01369 0.68189
 C229 C 0.40998 -0.02269 0.72025
 C230 C 0.50516 0.02665 0.78556
 C231 C 0.50533 0.04873 0.80176
 C232 C 0.46525 0.05793 0.78117
 C233 C 0.46598 0.03579 0.76518
 N234 N 0.48569 0.02063 0.76773
 H235 H 0.42990 -0.02301 0.75780
 H236 H 0.47789 -0.00661 0.69036
 H237 H 0.44043 -0.01003 0.66078
 H238 H 0.39106 -0.02678 0.72927
 H239 H 0.52060 0.01423 0.78714
 H240 H 0.52125 0.05332 0.81552
 H241 H 0.44905 0.06936 0.77926
 H242 H 0.45068 0.03065 0.75089
 C243 C 0.49574 -0.07446 0.81001
 C244 C 0.55693 -0.00336 0.68809
 C245 C 0.48508 0.06466 0.79985
 C246 C 0.41260 -0.01902 0.69255
 C247 C 0.23511 0.04446 0.49181
 C248 C 0.25136 0.03835 0.51616
 C249 C 0.26335 0.01624 0.51359
 C250 C 0.25851 0.00263 0.48614
 C251 C 0.25451 0.04527 0.46852
 C252 C 0.26660 0.02338 0.46528
 C253 C 0.21690 0.02003 0.48670
 C254 C 0.22894 -0.00181 0.48368
 H255 H 0.25457 0.05138 0.53312
 H256 H 0.26793 -0.01537 0.48316
 H257 H 0.25897 0.06203 0.45621
 H258 H 0.19603 0.02008 0.48612
 C259 C 0.76321 -0.04586 0.50235
 C260 C 0.74488 -0.04547 0.52650
 C261 C 0.73203 -0.02389 0.52866
 C262 C 0.73848 -0.00464 0.50594
 C263 C 0.74557 -0.04219 0.47839
 C264 C 0.73251 -0.02078 0.48023
 C265 C 0.78078 -0.02068 0.50472
 C266 C 0.76811 0.00085 0.50689
 H267 H 0.74144 -0.06162 0.53981
 H268 H 0.72825 0.01303 0.50745
 H269 H 0.74178 -0.05632 0.46249
 H270 H 0.80170 -0.02014 0.50524
 C271 C 0.44858 0.26674 0.99205
 C272 C 0.45051 0.24721 0.96882
 C273 C 0.47282 0.23522 0.96857
 C274 C 0.49102 0.24362 0.99221
 C275 C 0.45214 0.25110 1.01725
 C276 C 0.47421 0.23901 1.01745
 C277 C 0.47351 0.28488 0.98987
 C278 C 0.49568 0.27306 0.99034
 H279 H 0.43514 0.24208 0.95472
 H280 H 0.50931 0.23434 0.99288
 H281 H 0.43795 0.24920 1.03321
 H282 H 0.47347 0.30556 0.98810
 C283 C 0.55438 0.73360 -0.00208
 C284 C 0.54855 0.74988 -0.02628
 C285 C 0.52631 0.76169 -0.02401
 C286 C 0.51170 0.75603 0.00242
 C287 C 0.55426 0.75276 0.02166
 C288 C 0.53190 0.76442 0.02417
 C289 C 0.53004 0.71504 0.00169
 C290 C 0.50775 0.72653 0.00426
 H291 H 0.56182 0.75338 -0.04284
 H292 H 0.49358 0.76557 0.00429
 H293 H 0.57061 0.75708 0.03491
 H294 H 0.53061 0.69435 0.00262
 C295 C 0.99085 0.44515 0.27344
 C296 C 0.96785 0.44500 0.25395
 C297 C 0.96864 0.46627 0.23825
 C298 C 0.99243 0.48572 0.24344
 C299 C 1.01494 0.44902 0.25556
 C300 C 1.01582 0.47013 0.23981
 C301 C 0.99026 0.47068 0.28905
 C302 C 0.99132 0.49186 0.27347
 H303 H 0.95131 0.43074 0.25389
 H304 H 0.99335 0.50314 0.23093
 H305 H 1.02941 0.43540 0.25467
 H306 H 0.98920 0.47182 0.31069
 C307 C 0.01350 0.55125 0.72864
 C308 C -0.01027 0.54821 0.74716
 C309 C -0.01166 0.52700 0.76295
 C310 C 0.01172 0.51110 0.75930
 C311 C 0.03644 0.55151 0.74799
 C312 C 0.03580 0.53044 0.76381
 C313 C 0.01314 0.52552 0.71340
 C314 C 0.01221 0.50454 0.72928
 H315 H -0.02392 0.56256 0.74878
 H316 H 0.01141 0.49373 0.77182
 H317 H 0.05139 0.56743 0.74980
 H318 H 0.01323 0.52413 0.69175
 C319 C 0.10578 0.17081 0.54969
 C320 C 0.12619 0.15523 0.54798
 C321 C 0.13566 0.14797 0.52303
 C322 C 0.12462 0.15672 0.49964
 C323 C 0.10416 0.17225 0.50131
 C324 C 0.09437 0.17934 0.52635
 N325 N 0.15571 0.13093 0.52199
 N326 N 0.16554 0.12402 0.49997
 C327 C 0.18475 0.10607 0.49878
 C328 C 0.19415 0.09892 0.47380
 C329 C 0.21123 0.07986 0.47167
 C330 C 0.21976 0.06784 0.49466
 C331 C 0.21014 0.07518 0.51978
 C332 C 0.19306 0.09426 0.52184
 H333 H 0.09898 0.17624 0.56928
 H334 H 0.13454 0.14861 0.56615
 H335 H 0.13149 0.15124 0.48010
 H336 H 0.09561 0.17818 0.48295
 H337 H 0.18753 0.10755 0.45582
 H338 H 0.21695 0.07389 0.45188
 H339 H 0.21486 0.06553 0.53784
 H340 H 0.18570 0.09913 0.54137
 C341 C 0.68951 0.60701 0.02825
 C342 C 0.67406 0.62750 0.02993
 C343 C 0.66404 0.63747 0.00677
 C344 C 0.67023 0.62713 -0.01833
 C345 C 0.68572 0.60666 -0.02005
 C346 C 0.69523 0.59611 0.00325
 N347 N 0.64662 0.65709 0.00938
 N348 N 0.63624 0.66648 -0.01083
 C349 C 0.61780 0.68513 -0.00823
 C350 C 0.60629 0.69353 -0.03133
 C351 C 0.58657 0.70992 -0.02951
 C352 C 0.57830 0.71884 -0.00442
 C353 C 0.59004 0.71026 0.01877
 C354 C 0.60972 0.69380 0.01689
 H355 H 0.69685 0.59958 0.04654
 H356 H 0.66947 0.63531 0.04938
 H357 H 0.66266 0.63445 -0.03654
 H358 H 0.68953 0.59852 -0.03957
 H359 H 0.61198 0.68659 -0.05080
 H360 H 0.57720 0.71464 -0.04783
 H361 H 0.58340 0.71547 0.03847
 H362 H 0.61802 0.68723 0.03510
 C363 C 0.88272 -0.18506 0.45423
 C364 C 0.86242 -0.16932 0.45555
 C365 C 0.85762 -0.15584 0.47918
 C366 C 0.87311 -0.15860 0.50176
 C367 C 0.89345 -0.17425 0.50045
 C368 C 0.89866 -0.18748 0.47659
 N369 N 0.83778 -0.13857 0.47938
 N370 N 0.83223 -0.12618 0.50043
 C371 C 0.81337 -0.10790 0.50055
 C372 C 0.80838 -0.09510 0.52450
 C373 C 0.79160 -0.07574 0.52497
 C374 C 0.77912 -0.06893 0.50148
 C375 C 0.78425 -0.08197 0.47739
 C376 C 0.80102 -0.10139 0.47700
 H377 H 0.88599 -0.19527 0.43568
 H378 H 0.85060 -0.16734 0.43802
 H379 H 0.86989 -0.14825 0.52023
 H380 H 0.90558 -0.17537 0.51791
 H381 H 0.81807 -0.09969 0.54272
 H382 H 0.78889 -0.06556 0.54367
 H383 H 0.77630 -0.07675 0.45854
 H384 H 0.80493 -0.11075 0.45812
 C385 C 0.34494 0.41886 1.02000
 C386 C 0.36122 0.39910 1.01998
 C387 C 0.35321 0.37509 1.00841
 C388 C 0.32844 0.37085 0.99695
 C389 C 0.31190 0.39054 0.99730
 C390 C 0.31997 0.41484 1.00884
 N391 N 0.37079 0.35560 1.00856
 N392 N 0.36717 0.33463 0.99510
 C393 C 0.38569 0.31598 0.99584
 C394 C 0.38545 0.29694 0.97578
 C395 C 0.40500 0.28022 0.97453
 C396 C 0.42502 0.28207 0.99374
 C397 C 0.42413 0.30036 1.01471
 C398 C 0.40489 0.31723 1.01565
 H399 H 0.35214 0.43741 1.02847
 H400 H 0.38035 0.40261 1.02871
 H401 H 0.32182 0.35234 0.98800
 H402 H 0.29271 0.38661 0.98885
 H403 H 0.37064 0.29570 0.96046
 H404 H 0.40443 0.26656 0.95808
 H405 H 0.43907 0.30223 1.02992
 H406 H 0.40534 0.33156 1.03160
 C407 C 0.90837 0.14207 0.55293
 C408 C 0.88931 0.12126 0.55235
 C409 C 0.86657 0.12244 0.53769
 C410 C 0.86266 0.14510 0.52409
 C411 C 0.88171 0.16609 0.52476
 C412 C 0.90497 0.16468 0.53891
 N413 N 0.84868 0.09979 0.53595
 N414 N 0.82801 0.09815 0.52209
 C415 C 0.81169 0.07433 0.52020
 C416 C 0.78970 0.07246 0.50376
 C417 C 0.77486 0.04872 0.49995
 C418 C 0.78206 0.02653 0.51237
 C419 C 0.80352 0.02873 0.52964
 C420 C 0.81817 0.05232 0.53351
 H421 H 0.92616 0.14006 0.56360
 H422 H 0.89258 0.10382 0.56276
 H423 H 0.84516 0.14643 0.51266
 H424 H 0.87832 0.18332 0.51405
 H425 H 0.78446 0.08926 0.49338
 H426 H 0.75840 0.04752 0.48658
 H427 H 0.80915 0.01208 0.54002
 H428 H 0.83489 0.05318 0.54652
 C429 C 0.32868 0.62487 -0.00153
 C430 C 0.34849 0.64518 -0.00185
 C431 C 0.37190 0.64302 0.01145
 C432 C 0.37500 0.62050 0.02572
 C433 C 0.35538 0.60022 0.02590
 C434 C 0.33218 0.60199 0.01194
 N435 N 0.39278 0.66305 0.00909
 N436 N 0.41417 0.66142 0.02104
 C437 C 0.43638 0.67976 0.01836
 C438 C 0.45899 0.67506 0.03176
 C439 C 0.48193 0.69075 0.02774
 C440 C 0.48269 0.71160 0.01018
 C441 C 0.45971 0.71710 -0.00237
 C442 C 0.43666 0.70116 0.00155
 H443 H 0.31102 0.62668 -0.01254
 H444 H 0.34583 0.66238 -0.01298
 H445 H 0.39282 0.61828 0.03626
 H446 H 0.35843 0.58298 0.03678
 H447 H 0.45897 0.65868 0.04483
 H448 H 0.49922 0.68637 0.03814
 H449 H 0.45979 0.73303 -0.01598
 H450 H 0.41934 0.70514 -0.00902
 C451 C 0.08699 -0.14347 0.44292
 C452 C 0.10662 -0.12325 0.44170
 C453 C 0.12852 -0.12305 0.45795
 C454 C 0.13107 -0.14388 0.47494
 C455 C 0.11141 -0.16424 0.47614
 C456 C 0.08893 -0.16395 0.46052
 N457 N 0.14680 -0.10065 0.45799
 N458 N 0.16713 -0.09833 0.47237
 C459 C 0.18388 -0.07477 0.47301
 C460 C 0.20611 -0.07283 0.48904
 C461 C 0.22142 -0.04927 0.49185
 C462 C 0.21444 -0.02730 0.47884
 C463 C 0.19263 -0.02952 0.46208
 C464 C 0.17752 -0.05301 0.45913
 H465 H 0.07009 -0.14294 0.43035
 H466 H 0.10448 -0.10730 0.42852
 H467 H 0.14783 -0.14407 0.48775
 H468 H 0.11333 -0.17969 0.48999
 H469 H 0.21120 -0.08941 0.49989
 H470 H 0.23806 -0.04801 0.50501
 H471 H 0.18708 -0.01297 0.45146
 H472 H 0.16050 -0.05396 0.44654
 C473 C 0.64132 0.41522 1.00988
 C474 C 0.61966 0.39723 1.01086
 C475 C 0.61912 0.37399 0.99649
 C476 C 0.64062 0.36885 0.98083
 C477 C 0.66243 0.38696 0.97977
 C478 C 0.66302 0.41030 0.99442
 N479 N 0.59621 0.35645 0.99804
 N480 N 0.59337 0.33453 0.98625
 C481 C 0.56943 0.31841 0.98854
 C482 C 0.56613 0.29461 0.97488
 C483 C 0.54233 0.27934 0.97592
 C484 C 0.52151 0.28787 0.99049
 C485 C 0.52518 0.31136 1.00478
 C486 C 0.54882 0.32645 1.00383
 H487 H 0.64094 0.43319 1.02098
 H488 H 0.60310 0.40145 1.02282
 H489 H 0.64054 0.35098 0.96949
 H490 H 0.67893 0.38260 0.96780
 H491 H 0.58185 0.28812 0.96307
 H492 H 0.53996 0.26133 0.96469
 H493 H 0.50967 0.31815 1.01668
 H494 H 0.55081 0.34460 1.01481
 C495 C 0.50383 0.08809 1.13497
 C496 C 0.50211 0.10608 1.11484
 C497 C 0.50145 0.13220 1.12127
 C498 C 0.50324 0.14035 1.14823
 C499 C 0.50532 0.12235 1.16844
 C500 C 0.50525 0.09600 1.16198
 N501 N 0.49834 0.14974 1.10004
 N502 N 0.49439 0.17320 1.10408
 C503 C 0.49079 0.19000 1.08225
 C504 C 0.48282 0.21447 1.08756
 C505 C 0.47768 0.23060 1.06651
 C506 C 0.48079 0.22257 1.03980
 C507 C 0.48929 0.19829 1.03457
 C508 C 0.49419 0.18208 1.05556
 H509 H 0.50408 0.06795 1.12943
 H510 H 0.50083 0.09961 1.09414
 H511 H 0.50285 0.16049 1.15365
 H512 H 0.50631 0.12889 1.18912
 H513 H 0.48011 0.22083 1.10802
 H514 H 0.47124 0.24933 1.07106
 H515 H 0.49124 0.19139 1.01428
 H516 H 0.50026 0.16324 1.05088
 C517 C -0.02472 0.67904 0.58454
 C518 C -0.02482 0.66289 0.60656
 C519 C -0.00156 0.65606 0.61709
 C520 C 0.02204 0.66608 0.60570
 C521 C 0.02218 0.68233 0.58367
 C522 C -0.00123 0.68870 0.57265
 N523 N -0.00258 0.63822 0.63862
 N524 N 0.01768 0.63054 0.64887
 C525 C 0.01624 0.61196 0.66976
 C526 C 0.03914 0.60387 0.67985
 C527 C 0.03834 0.58477 0.69922
 C528 C 0.01449 0.57372 0.70942
 C529 C -0.00850 0.58165 0.69871
 C530 C -0.00765 0.60075 0.67937
 H531 H -0.04304 0.68394 0.57676
 H532 H -0.04311 0.65534 0.61522
 H533 H 0.04028 0.66103 0.61349
 H534 H 0.04055 0.68930 0.57480
 H535 H 0.05768 0.61197 0.67220
 H536 H 0.05645 0.57823 0.70563
 H537 H -0.02726 0.57266 0.70467
 H538 H -0.02567 0.60629 0.67148
 C539 C 0.52536 0.90513 -0.15900
 C540 C 0.52994 0.88720 -0.13959
 C541 C 0.50959 0.87061 -0.12945
 C542 C 0.48429 0.87232 -0.13878
 C543 C 0.47963 0.89033 -0.15829
 C544 C 0.50020 0.90679 -0.16879
 N545 N 0.51548 0.85209 -0.11011
 N546 N 0.49843 0.83632 -0.09927
 C547 C 0.50558 0.81790 -0.08030
 C548 C 0.48631 0.80146 -0.06795
 C549 C 0.49295 0.78319 -0.04956
 C550 C 0.51905 0.78095 -0.04346
 C551 C 0.53832 0.79763 -0.05578
 C552 C 0.53168 0.81588 -0.07398
 H553 H 0.54154 0.91786 -0.16622
 H554 H 0.54950 0.88614 -0.13246
 H555 H 0.46824 0.85963 -0.13122
 H556 H 0.46007 0.89103 -0.16554
 H557 H 0.46612 0.80278 -0.07262
 H558 H 0.47770 0.77060 -0.04047
 H559 H 0.55857 0.79689 -0.05105
 H560 H 0.54700 0.82841 -0.08311
 C561 C 1.01836 0.33953 0.43745
 C562 C 1.01923 0.35624 0.41590
 C563 C 1.00677 0.34876 0.39194
 C564 C 0.99391 0.32391 0.38935
 C565 C 0.99332 0.30688 0.41078
 C566 C 1.00517 0.31453 0.43549
 N567 N 1.00710 0.36710 0.37093
 N568 N 0.99359 0.36341 0.34976
 C569 C 0.99413 0.38270 0.32962
 C570 C 0.97584 0.38015 0.30900
 C571 C 0.97469 0.39974 0.29032
 C572 C 0.99194 0.42237 0.29203
 C573 C 1.01117 0.42404 0.31199
 C574 C 1.01212 0.40462 0.33070
 H575 H 1.02888 0.34616 0.45531
 H576 H 1.02946 0.37529 0.41798
 H577 H 0.98410 0.31773 0.37092
 H578 H 0.98240 0.28826 0.40817
 H579 H 0.96208 0.36317 0.30774
 H580 H 0.96022 0.39685 0.27484
 H581 H 1.02519 0.44081 0.31347
 H582 H 1.02674 0.40692 0.34619
 C583 C 0.54687 0.91536 0.15717
 C584 C 0.55016 0.89525 0.13908
 C585 C 0.52915 0.87807 0.13123
 C586 C 0.50460 0.88096 0.14201
 C587 C 0.50117 0.90104 0.16023
 C588 C 0.52223 0.91892 0.16805
 N589 N 0.53335 0.85816 0.11207
 N590 N 0.51525 0.84182 0.10362
 C591 C 0.51993 0.82231 0.08413
 C592 C 0.49929 0.80487 0.07552
 C593 C 0.50319 0.78594 0.05617
 C594 C 0.52790 0.78414 0.04511
 C595 C 0.54864 0.80160 0.05391
 C596 C 0.54471 0.82050 0.07323
 H597 H 0.56407 0.92744 0.16315
 H598 H 0.56927 0.89304 0.13111
 H599 H 0.48798 0.86794 0.13612
 H600 H 0.48166 0.90299 0.16705
 H601 H 0.48011 0.80600 0.08380
 H602 H 0.48691 0.77254 0.05011
 H603 H 0.56782 0.80102 0.04549
 H604 H 0.56099 0.83381 0.07945
 C605 C 0.03583 0.34380 0.61811
 C606 C 0.03868 0.36657 0.63335
 C607 C 0.01997 0.37184 0.65230
 C608 C -0.00150 0.35371 0.65639
 C609 C -0.00448 0.33093 0.64101
 C610 C 0.01403 0.32589 0.62148
 N611 N 0.02256 0.39639 0.66577
 N612 N 0.00732 0.40246 0.68431
 C613 C 0.00972 0.42778 0.69622
 C614 C -0.00548 0.43289 0.71852
 C615 C -0.00432 0.45777 0.72969
 C616 C 0.01181 0.47798 0.71838
 C617 C 0.02723 0.47275 0.69619
 C618 C 0.02630 0.44787 0.68527
 H619 H 0.05020 0.34072 0.60294
 H620 H 0.05521 0.38048 0.62991
 H621 H -0.01625 0.35743 0.67091
 H622 H -0.02138 0.31740 0.64413
 H623 H -0.01842 0.41761 0.72708
 H624 H -0.01655 0.46137 0.74667
 H625 H 0.04008 0.48792 0.68731
 H626 H 0.03822 0.44448 0.66800
 C627 C 0.47482 0.11036 0.80818
 C628 C 0.47355 0.13181 0.82514
 C629 C 0.48204 0.13128 0.85165
 C630 C 0.49189 0.10896 0.86109
 C631 C 0.49296 0.08743 0.84425
 C632 C 0.48440 0.08781 0.81758
 N633 N 0.47974 0.15324 0.86880
 N634 N 0.48932 0.15477 0.89225
 C635 C 0.48630 0.17605 0.91009
 C636 C 0.49887 0.17703 0.93480
 C637 C 0.49518 0.19661 0.95342
 C638 C 0.47836 0.21546 0.94790
 C639 C 0.46650 0.21489 0.92250
 C640 C 0.47038 0.19537 0.90381
 H641 H 0.46844 0.11151 0.78767
 H642 H 0.46592 0.14890 0.81762
 H643 H 0.49835 0.10797 0.88159
 H644 H 0.49999 0.07029 0.85235
 H645 H 0.51136 0.16234 0.93980
 H646 H 0.50519 0.19638 0.97224
 H647 H 0.45418 0.22950 0.91690
 H648 H 0.46062 0.19517 0.88468
 C649 C 0.96319 0.65114 0.38520
 C650 C 0.96067 0.62879 0.36930
 C651 C 0.98081 0.62291 0.35233
 C652 C 1.00350 0.63993 0.35101
 C653 C 1.00617 0.66220 0.36714
 C654 C 0.98611 0.66789 0.38458
 N655 N 0.97830 0.59879 0.33806
 N656 N 0.99455 0.59284 0.32046
 C657 C 0.99236 0.56788 0.30780
 C658 C 1.00849 0.56322 0.28611
 C659 C 1.00770 0.53859 0.27441
 C660 C 0.99107 0.51821 0.28465
 C661 C 0.97465 0.52300 0.30616
 C662 C 0.97518 0.54765 0.31756
 H663 H 0.94758 0.65485 0.39872
 H664 H 0.94318 0.61571 0.37060
 H665 H 1.01938 0.63568 0.33811
 H666 H 1.02397 0.67487 0.36620
 H667 H 1.02189 0.57862 0.27848
 H668 H 1.02066 0.53528 0.25795
 H669 H 0.96143 0.50765 0.31418
 H670 H 0.96257 0.55072 0.33435
 C671 C 1.18171 0.48930 0.12891
 C672 C 1.16285 0.48603 0.14890
 C673 C 1.13829 0.49408 0.14504
 C674 C 1.13289 0.50618 0.12111
 C675 C 1.15172 0.50966 0.10111
 C676 C 1.17647 0.50088 0.10435
 N677 N 1.11901 0.48907 0.16535
 N678 N 1.09578 0.49436 0.16231
 C679 C 1.07633 0.48880 0.18234
 C680 C 1.05093 0.49403 0.17705
 C681 C 1.03129 0.48806 0.19577
 C682 C 1.03679 0.47679 0.22020
 C683 C 1.06239 0.47176 0.22557
 C684 C 1.08201 0.47769 0.20680
 H685 H 1.20057 0.48322 0.13325
 H686 H 1.16734 0.47693 0.16743
 H687 H 1.11395 0.51253 0.11763
 H688 H 1.14607 0.51797 0.08260
 H689 H 1.04630 0.50244 0.15821
 H690 H 1.01172 0.49174 0.19078
 H691 H 1.06731 0.46342 0.24436
 H692 H 1.10153 0.47352 0.21138
 C693 C 0.58244 0.01876 0.65094
 C694 C 0.60233 0.01942 0.63191
 C695 C 0.61913 -0.00001 0.63096
 C696 C 0.61586 -0.02020 0.64936
 C697 C 0.59577 -0.02110 0.66807
 C698 C 0.57882 -0.00169 0.66897
 N699 N 0.63876 0.00057 0.61070
 N700 N 0.65686 -0.01419 0.61157
 C701 C 0.67604 -0.01499 0.59102
 C702 C 0.69740 -0.02868 0.59560
 C703 C 0.71587 -0.03107 0.57559
 C704 C 0.71306 -0.02012 0.55033
 C705 C 0.69169 -0.00610 0.54587
 C706 C 0.67337 -0.00345 0.56609
 H707 H 0.56947 0.03382 0.65113
 H708 H 0.60457 0.03501 0.61778
 H709 H 0.62851 -0.03552 0.64896
 H710 H 0.59344 -0.03697 0.68187
 H711 H 0.69967 -0.03763 0.61475
 H712 H 0.73233 -0.04153 0.57997
 H713 H 0.68863 0.00220 0.52657
 H714 H 0.65683 0.00702 0.56203
 C715 C -0.17667 0.51913 0.87595
 C716 C -0.15813 0.52201 0.85555
 C717 C -0.13620 0.50839 0.85613
 C718 C -0.13343 0.49107 0.87693
 C719 C -0.15199 0.48804 0.89721
 C720 C -0.17359 0.50240 0.89727
 N721 N -0.11659 0.51317 0.83608
 N722 N -0.09500 0.50356 0.83738
 C723 C -0.07492 0.50872 0.81792
 C724 C -0.05090 0.49947 0.82217
 C725 C -0.03045 0.50516 0.80429
 C726 C -0.03364 0.52024 0.78167
 C727 C -0.05816 0.52886 0.77711
 C728 C -0.07854 0.52330 0.79511
 H729 H -0.19292 0.53065 0.87550
 H730 H -0.16048 0.53543 0.83963
 H731 H -0.11678 0.48011 0.87771
 H732 H -0.14931 0.47459 0.91301
 H733 H -0.04789 0.48817 0.83968
 H734 H -0.01214 0.49805 0.80870
 H735 H -0.06181 0.53980 0.75954
 H736 H -0.09704 0.53044 0.79122
 C737 C 0.42354 -0.00527 0.34929
 C738 C 0.40446 -0.00488 0.36904
 C739 C 0.38004 0.00261 0.36291
 C740 C 0.37464 0.00920 0.33650
 C741 C 0.39365 0.00863 0.31664
 C742 C 0.41845 0.00164 0.32284
 N743 N 0.36139 0.00393 0.38397
 N744 N 0.33975 0.01295 0.38046
 C745 C 0.32137 0.01461 0.40173
 C746 C 0.29907 0.02696 0.39715
 C747 C 0.28122 0.02973 0.41775
 C748 C 0.28531 0.01999 0.44332
 C749 C 0.30748 0.00723 0.44772
 C750 C 0.32543 0.00463 0.42717
 H751 H 0.44250 -0.01033 0.35494
 H752 H 0.40888 -0.00993 0.38934
 H753 H 0.35582 0.01490 0.33122
 H754 H 0.38892 0.01367 0.29643
 H755 H 0.29566 0.03467 0.37762
 H756 H 0.26412 0.03935 0.41363
 H757 H 0.31133 -0.00018 0.46717
 H758 H 0.34253 -0.00498 0.43123
 C759 C 0.14715 0.49841 0.92551
 C760 C 0.12771 0.49967 0.90644
 C761 C 0.13391 0.50786 0.88051
 C762 C 0.15997 0.51455 0.87367
 C763 C 0.17948 0.51322 0.89272
 C764 C 0.17328 0.50525 0.91892
 N765 N 0.11336 0.50966 0.86176
 N766 N 0.11743 0.51825 0.83828
 C767 C 0.09677 0.52038 0.81973
 C768 C 0.10251 0.53145 0.79486
 C769 C 0.08273 0.53458 0.77663
 C770 C 0.05678 0.52658 0.78299
 C771 C 0.05113 0.51508 0.80780
 C772 C 0.07092 0.51207 0.82609
 H773 H 0.14163 0.49262 0.94560
 H774 H 0.10769 0.49457 0.91197
 H775 H 0.16526 0.52086 0.85369
 H776 H 0.19942 0.51829 0.88690
 H777 H 0.12236 0.53784 0.78967
 H778 H 0.08778 0.54311 0.75748
 H779 H 0.03141 0.50897 0.81340
 H780 H 0.06597 0.50346 0.84523
 C781 C 0.60922 0.04032 0.33899
 C782 C 0.62708 0.03953 0.35990
 C783 C 0.63168 0.01596 0.37114
 C784 C 0.61805 -0.00686 0.36129
 C785 C 0.60038 -0.00611 0.34043
 C786 C 0.59585 0.01743 0.32889
 N787 N 0.65048 0.01534 0.39210
 N788 N 0.65451 -0.00591 0.40275
 C789 C 0.67333 -0.00841 0.42318
 C790 C 0.67610 -0.03308 0.43251
 C791 C 0.69503 -0.03695 0.45133
 C792 C 0.71169 -0.01609 0.46121
 C793 C 0.70840 0.00889 0.45252
 C794 C 0.68940 0.01273 0.43345
 H795 H 0.60618 0.05873 0.33042
 H796 H 0.63745 0.05727 0.36725
 H797 H 0.62111 -0.02536 0.36960
 H798 H 0.59001 -0.02401 0.33348
 H799 H 0.66369 -0.04947 0.42488
 H800 H 0.69658 -0.05634 0.45817
 H801 H 0.72095 0.02527 0.45990
 H802 H 0.68751 0.03202 0.42652
 C803 C 0.82017 0.45711 0.10356
 C804 C 0.83775 0.45293 0.12378
 C805 C 0.85579 0.47291 0.13264
 C806 C 0.85591 0.49738 0.12122
 C807 C 0.83849 0.50155 0.10083
 C808 C 0.82054 0.48140 0.09158
 N809 N 0.87429 0.46766 0.15252
 N810 N 0.88972 0.48541 0.16311
 C811 C 0.90884 0.48007 0.18229
 C812 C 0.92285 0.50066 0.19565
 C813 C 0.94205 0.49617 0.21405
 C814 C 0.94782 0.47091 0.21915
 C815 C 0.93365 0.45023 0.20571
 C816 C 0.91426 0.45475 0.18751
 H817 H 0.80633 0.44129 0.09727
 H818 H 0.83743 0.43401 0.13248
 H819 H 0.86980 0.51311 0.12763
 H820 H 0.83960 0.52036 0.09180
 H821 H 0.91879 0.52025 0.19184
 H822 H 0.95208 0.51253 0.22448
 H823 H 0.93782 0.43057 0.20888
 H824 H 0.90381 0.43851 0.17724
 C825 C 0.36802 -0.00667 0.68273
 C826 C 0.34790 -0.00406 0.66467
 C827 C 0.34906 -0.01391 0.63851
 C828 C 0.37009 -0.02747 0.63091
 C829 C 0.39017 -0.03010 0.64891
 C830 C 0.38967 -0.01920 0.67481
 N831 N 0.32969 -0.00843 0.61960
 N832 N 0.33076 -0.01550 0.59515
 C833 C 0.31247 -0.00895 0.57560
 C834 C 0.31563 -0.01676 0.54902
 C835 C 0.29944 -0.00907 0.52899
 C836 C 0.27974 0.00680 0.53513
 C837 C 0.27605 0.01382 0.56215
 C838 C 0.29230 0.00612 0.58216
 H839 H 0.36719 0.00214 0.70244
 H840 H 0.33183 0.00647 0.67077
 H841 H 0.37137 -0.03543 0.61087
 H842 H 0.40639 -0.04021 0.64237
 H843 H 0.33110 -0.02842 0.54371
 H844 H 0.30297 -0.01519 0.50874
 H845 H 0.26061 0.02527 0.56798
 H846 H 0.28932 0.01225 0.60264
   
