data_POSCAR
  _audit_creation_date              2014-09-24
  _audit_creation_method            'ToBaCCo'
  _symmetry_space_group_name_H-M    'P1'
  _symmetry_Int_Tables_number       1
  _symmetry_cell_setting            triclinic
  loop_
  _symmetry_equiv_pos_as_xyz
 x,y,z
_cell_length_a 32.5658
_cell_length_b 32.6941
_cell_length_c 32.6866
_cell_angle_alpha 90.024400
_cell_angle_beta 90.022300
_cell_angle_gamma 90.027000
loop_
  _atom_site_label
  _atom_site_type_symbol
  _atom_site_fract_x
  _atom_site_fract_y
  _atom_site_fract_z
O1 O 0.33223 0.38600 0.04031
 O2 O 0.38583 0.33251 -0.04180
 O3 O 0.32890 0.38800 -0.03812
 O4 O 0.38732 0.32876 0.03665
 O5 O 0.33940 0.28081 0.03713
 O6 O 0.28026 0.34080 -0.03919
 O7 O 0.33842 0.28407 -0.04244
 O8 O 0.28310 0.33927 0.04036
 Cu9 Cu 0.36333 0.36350 -0.00072
 Cu10 Cu 0.30534 0.30635 -0.00109
 C11 C 0.29831 0.37257 0.05361
 C12 C 0.37210 0.29892 -0.05537
 C13 C 0.29446 0.37509 -0.05074
 C14 C 0.37387 0.29458 0.04904
 O15 O 0.66793 0.61407 0.04011
 O16 O 0.61414 0.66750 -0.04192
 O17 O 0.67105 0.61197 -0.03833
 O18 O 0.61292 0.67139 0.03653
 O19 O 0.66090 0.71928 0.03687
 O20 O 0.71973 0.65912 -0.03954
 O21 O 0.66160 0.71589 -0.04268
 O22 O 0.71711 0.66074 0.04001
 Cu23 Cu 0.63674 0.63655 -0.00088
 Cu24 Cu 0.69480 0.69364 -0.00140
 C25 C 0.70190 0.62748 0.05332
 C26 C 0.62786 0.70106 -0.05552
 C27 C 0.70546 0.62484 -0.05105
 C28 C 0.62645 0.70558 0.04887
 O29 O 0.66780 0.38601 0.95965
 O30 O 0.61418 0.33254 1.04176
 O31 O 0.67109 0.38808 1.03807
 O32 O 0.61272 0.32873 0.96333
 O33 O 0.66064 0.28082 0.96287
 O34 O 0.71974 0.34094 1.03915
 O35 O 0.66161 0.28415 1.04242
 O36 O 0.71693 0.33933 0.95962
 Cu37 Cu 0.63668 0.36353 1.00068
 Cu38 Cu 0.69469 0.30642 1.00107
 C39 C 0.70172 0.37260 0.94637
 C40 C 0.62792 0.29899 1.05533
 C41 C 0.70552 0.37522 1.05069
 C42 C 0.62618 0.29455 0.95096
 O43 O 0.38612 0.66754 1.04210
 O44 O 0.33215 0.61389 0.96019
 O45 O 0.38730 0.67117 0.96364
 O46 O 0.32919 0.61194 1.03864
 O47 O 0.28053 0.65907 1.03980
 O48 O 0.33939 0.71909 0.96329
 O49 O 0.28304 0.66059 0.96025
 O50 O 0.33869 0.71592 1.04285
 Cu51 Cu 0.36345 0.63646 1.00112
 Cu52 Cu 0.30546 0.69355 1.00161
 C53 C 0.37243 0.70114 1.05567
 C54 C 0.29818 0.62728 0.94698
 C55 C 0.37381 0.70535 0.95128
 C56 C 0.29479 0.62481 1.05134
 O57 O 0.04048 0.33249 0.38608
 O58 O -0.04178 0.38576 0.33222
 O59 O -0.03825 0.32893 0.38758
 O60 O 0.03697 0.38753 0.32893
 O61 O 0.03786 0.33993 0.28086
 O62 O -0.03891 0.28060 0.34025
 O63 O -0.04200 0.33865 0.28365
 O64 O 0.04093 0.28367 0.33923
 Cu65 Cu -0.00066 0.36341 0.36341
 Cu66 Cu -0.00052 0.30579 0.30609
 C67 C 0.05398 0.29876 0.37267
 C68 C -0.05516 0.37211 0.29852
 C69 C -0.05077 0.29464 0.37449
 C70 C 0.04960 0.37428 0.29476
 O71 O 0.04084 0.66705 0.61367
 O72 O -0.04157 0.61394 0.66748
 O73 O -0.03788 0.67067 0.61201
 O74 O 0.03717 0.61211 0.67091
 O75 O 0.03809 0.65979 0.71890
 O76 O -0.03850 0.71908 0.65927
 O77 O -0.04177 0.66113 0.71597
 O78 O 0.04133 0.71595 0.66045
 Cu79 Cu -0.00038 0.63620 0.63633
 Cu80 Cu -0.00020 0.69392 0.69354
 C81 C 0.05438 0.70079 0.62706
 C82 C -0.05497 0.62765 0.70113
 C83 C -0.05034 0.70499 0.62501
 C84 C 0.04979 0.62541 0.70508
 O85 O 1.04150 0.61391 0.33242
 O86 O 0.95922 0.66719 0.38624
 O87 O 0.96278 0.61218 0.32904
 O88 O 1.03794 0.67066 0.38789
 O89 O 1.03866 0.71904 0.34065
 O90 O 0.96197 0.65981 0.28103
 O91 O 0.95883 0.71604 0.33946
 O92 O 1.04181 0.66108 0.28394
 Cu93 Cu 1.00037 0.63625 0.36360
 Cu94 Cu 1.00031 0.69392 0.30637
 C95 C 1.05494 0.62759 0.29877
 C96 C 0.94575 0.70093 0.37285
 C97 C 0.95020 0.62546 0.29487
 C98 C 1.05047 0.70496 0.37489
 O99 O 0.95906 0.33265 0.61330
 O100 O 1.04128 0.38591 0.66748
 O101 O 1.03780 0.32925 0.61185
 O102 O 0.96253 0.38769 0.67055
 O103 O 0.96158 0.34003 0.71852
 O104 O 1.03834 0.28081 0.65904
 O105 O 1.04144 0.33868 0.71589
 O106 O 0.95851 0.28379 0.66006
 Cu107 Cu 1.00019 0.36361 0.63611
 Cu108 Cu 0.99995 0.30590 0.69327
 C109 C 0.94552 0.29889 0.62663
 C110 C 1.05464 0.37220 0.70115
 C111 C 1.05025 0.29492 0.62484
 C112 C 0.94986 0.37440 0.70469
 O113 O 0.38554 0.04141 0.33252
 O114 O 0.33185 -0.04096 0.38563
 O115 O 0.38748 -0.03700 0.32886
 O116 O 0.32839 0.03747 0.38777
 O117 O 0.28005 0.03831 0.34024
 O118 O 0.33991 -0.03767 0.28057
 O119 O 0.28307 -0.04122 0.33855
 O120 O 0.33842 0.04184 0.28379
 Cu121 Cu 0.36304 0.00022 0.36343
 Cu122 Cu 0.30543 0.00032 0.30587
 C123 C 0.37195 0.05492 0.29886
 C124 C 0.29807 -0.05440 0.37196
 C125 C 0.37435 -0.04938 0.29454
 C126 C 0.29402 0.04996 0.37461
 O127 O 0.66822 -0.04116 0.61453
 O128 O 0.61449 0.04115 0.66769
 O129 O 0.67148 0.03726 0.61227
 O130 O 0.61268 -0.03726 0.67138
 O131 O 0.66035 -0.03771 0.71958
 O132 O 0.71993 0.03832 0.65968
 O133 O 0.66173 0.04181 0.71630
 O134 O 0.71710 -0.04120 0.66151
 Cu135 Cu 0.63697 -0.00003 0.63675
 Cu136 Cu 0.69472 0.00034 0.69418
 C137 C 0.70206 -0.05447 0.62814
 C138 C 0.62814 0.05477 0.70130
 C139 C 0.70586 0.04985 0.62532
 C140 C 0.62591 -0.04956 0.70568
 O141 O 0.33140 1.04088 0.61455
 O142 O 0.38512 0.95871 0.66790
 O143 O 0.32814 0.96247 0.61245
 O144 O 0.38693 1.03712 0.67143
 O145 O 0.33927 1.03771 0.71961
 O146 O 0.27968 0.96155 0.65983
 O147 O 0.33789 0.95820 0.71649
 O148 O 0.28253 1.04107 0.66151
 Cu149 Cu 0.36264 0.99981 0.63687
 Cu150 Cu 0.30490 0.99961 0.69427
 C151 C 0.29758 1.05425 0.62813
 C152 C 0.37148 0.94519 0.70153
 C153 C 0.29375 0.94992 0.62551
 C154 C 0.37370 1.04951 0.70569
 O155 O 0.66876 1.04143 0.38640
 O156 O 0.61516 0.95945 0.33240
 O157 O 0.67212 0.96298 0.38794
 O158 O 0.61326 1.03790 0.32938
 O159 O 0.66099 1.03888 0.28129
 O160 O 0.72062 0.96245 0.34061
 O161 O 0.66245 0.95933 0.28386
 O162 O 0.71771 1.04198 0.33954
 Cu163 Cu 0.63759 1.00043 0.36373
 Cu164 Cu 0.69538 1.00069 0.30642
 C165 C 0.70263 1.05493 0.37301
 C166 C 0.62886 0.94616 0.29869
 C167 C 0.70653 0.95058 0.37483
 C168 C 0.62651 1.05051 0.29521
 C169 C 0.89979 0.74347 0.49959
 C170 C 0.88248 0.75656 0.46300
 C171 C 0.85133 0.78603 0.46332
 C172 C 0.83848 0.80453 0.50060
 C173 C 0.85765 0.79114 0.53734
 C174 C 0.88733 0.76020 0.53666
 C175 C 0.80594 0.83755 0.50110
 C176 C 0.78744 0.85062 0.53833
 C177 C 0.75830 0.88210 0.53854
 C178 C 0.74561 0.89958 0.50190
 C179 C 0.76240 0.88696 0.46491
 C180 C 0.79300 0.85695 0.46435
 H181 H 0.92361 0.72022 0.49919
 H182 H 0.83777 0.79382 0.43427
 H183 H 0.85056 0.80446 0.56667
 H184 H 0.79495 0.83694 0.56738
 H185 H 0.72259 0.92361 0.50219
 H186 H 0.80639 0.84975 0.43506
 C187 C 0.10003 0.25636 0.49943
 C188 C 0.11731 0.24323 0.46283
 C189 C 0.14848 0.21378 0.46316
 C190 C 0.16143 0.19537 0.50045
 C191 C 0.14230 0.20882 0.53719
 C192 C 0.11257 0.23971 0.53650
 C193 C 0.19403 0.16239 0.50097
 C194 C 0.21239 0.14921 0.53823
 C195 C 0.24158 0.11778 0.53845
 C196 C 0.25445 0.10044 0.50180
 C197 C 0.23781 0.11316 0.46479
 C198 C 0.20718 0.14315 0.46419
 H199 H 0.07619 0.27957 0.49902
 H200 H 0.16197 0.20595 0.43409
 H201 H 0.14946 0.19560 0.56654
 H202 H 0.20473 0.16274 0.56731
 H203 H 0.27751 0.07644 0.50211
 H204 H 0.19395 0.15043 0.43487
 C205 C 0.10040 0.74326 0.50032
 C206 C 0.11775 0.75631 0.53693
 C207 C 0.14896 0.78576 0.53663
 C208 C 0.16181 0.80427 0.49936
 C209 C 0.14260 0.79093 0.46262
 C210 C 0.11288 0.76001 0.46328
 C211 C 0.19435 0.83730 0.49887
 C212 C 0.21281 0.85044 0.46165
 C213 C 0.24195 0.88195 0.46148
 C214 C 0.25468 0.89938 0.49816
 C215 C 0.23792 0.88667 0.53512
 C216 C 0.20733 0.85665 0.53565
 H217 H 0.07654 0.72004 0.50070
 H218 H 0.16255 0.79351 0.56568
 H219 H 0.14969 0.80426 0.43330
 H220 H 0.20526 0.83681 0.43257
 H221 H 0.27771 0.92343 0.49791
 H222 H 0.19397 0.84941 0.56493
 C223 C 0.89940 0.25620 0.49980
 C224 C 0.88216 0.24314 0.53643
 C225 C 0.85101 0.21363 0.53616
 C226 C 0.83803 0.19511 0.49890
 C227 C 0.85711 0.20852 0.46212
 C228 C 0.88683 0.23945 0.46276
 C229 C 0.80548 0.16202 0.49846
 C230 C 0.78708 0.14865 0.46125
 C231 C 0.75789 0.11717 0.46116
 C232 C 0.74510 0.09995 0.49790
 C233 C 0.76182 0.11283 0.53484
 C234 C 0.79241 0.14287 0.53530
 H235 H 0.92323 0.27945 0.50015
 H236 H 0.83754 0.20586 0.56525
 H237 H 0.84991 0.19524 0.43280
 H238 H 0.79470 0.16209 0.43212
 H239 H 0.72206 0.07592 0.49771
 H240 H 0.80568 0.15027 0.56459
 C241 C 0.49839 0.89952 0.74482
 C242 C 0.46162 0.88204 0.75754
 C243 C 0.46187 0.85073 0.78676
 C244 C 0.49924 0.83790 0.80532
 C245 C 0.53611 0.85729 0.79238
 C246 C 0.53553 0.88708 0.76168
 C247 C 0.49976 0.80512 0.83795
 C248 C 0.53713 0.78643 0.85056
 C249 C 0.53748 0.75717 0.88180
 C250 C 0.50078 0.74448 0.89943
 C251 C 0.46361 0.76141 0.88719
 C252 C 0.46294 0.79218 0.85744
 H253 H 0.49807 0.92341 0.72174
 H254 H 0.43274 0.83699 0.79430
 H255 H 0.56548 0.85024 0.80587
 H256 H 0.56621 0.79389 0.83668
 H257 H 0.50119 0.72137 0.92329
 H258 H 0.43357 0.80572 0.85051
 C259 C 0.49888 0.10123 0.25609
 C260 C 0.46206 0.11845 0.24316
 C261 C 0.46225 0.14960 0.21377
 C262 C 0.49961 0.16255 0.19527
 C263 C 0.53653 0.14341 0.20844
 C264 C 0.53600 0.11376 0.23928
 C265 C 0.50006 0.19516 0.16244
 C266 C 0.53742 0.21378 0.14964
 C267 C 0.53770 0.24288 0.11825
 C268 C 0.50097 0.25547 0.10063
 C269 C 0.46382 0.23862 0.11304
 C270 C 0.46319 0.20803 0.14297
 H271 H 0.49860 0.07743 0.27927
 H272 H 0.43306 0.16310 0.20606
 H273 H 0.56591 0.15052 0.19501
 H274 H 0.56654 0.20639 0.16347
 H275 H 0.50133 0.27847 0.07666
 H276 H 0.43382 0.19458 0.15005
 C277 C 0.50125 0.10054 0.74456
 C278 C 0.53803 0.11804 0.75725
 C279 C 0.53782 0.14936 0.78648
 C280 C 0.50048 0.16216 0.80511
 C281 C 0.46360 0.14274 0.79221
 C282 C 0.46415 0.11296 0.76149
 C283 C 0.49998 0.19489 0.83779
 C284 C 0.46262 0.21358 0.85045
 C285 C 0.46233 0.24279 0.88177
 C286 C 0.49906 0.25543 0.89940
 C287 C 0.53620 0.23851 0.88709
 C288 C 0.53682 0.20779 0.85728
 H289 H 0.50153 0.07664 0.72147
 H290 H 0.56695 0.16313 0.79399
 H291 H 0.43426 0.14976 0.80576
 H292 H 0.43353 0.20615 0.83657
 H293 H 0.49870 0.27851 0.92331
 H294 H 0.56618 0.19425 0.85031
 C295 C 0.50205 0.90019 0.25519
 C296 C 0.53884 0.88285 0.24237
 C297 C 0.53860 0.85149 0.21316
 C298 C 0.50119 0.83845 0.19473
 C299 C 0.46431 0.85771 0.20780
 C300 C 0.46491 0.88757 0.23846
 C301 C 0.50063 0.80559 0.16212
 C302 C 0.46323 0.78688 0.14950
 C303 C 0.46286 0.75754 0.11828
 C304 C 0.49956 0.74482 0.10069
 C305 C 0.53674 0.76177 0.11293
 C306 C 0.53744 0.79257 0.14267
 H307 H 0.50236 0.92411 0.27826
 H308 H 0.56775 0.83787 0.20553
 H309 H 0.43491 0.85052 0.19445
 H310 H 0.43414 0.79438 0.16331
 H311 H 0.49914 0.72167 0.07685
 H312 H 0.56683 0.80609 0.14962
 C313 C 0.74411 0.49910 0.89988
 C314 C 0.75721 0.46247 0.88269
 C315 C 0.78643 0.46273 0.85130
 C316 C 0.80462 0.50002 0.83799
 C317 C 0.79121 0.53680 0.85703
 C318 C 0.76055 0.53615 0.88701
 C319 C 0.83732 0.50049 0.80508
 C320 C 0.85036 0.53774 0.78665
 C321 C 0.88156 0.53797 0.75719
 C322 C 0.89881 0.50133 0.74414
 C323 C 0.88623 0.46432 0.76087
 C324 C 0.85647 0.46373 0.79173
 H325 H 0.72105 0.49874 0.92388
 H326 H 0.79422 0.43363 0.83792
 H327 H 0.80425 0.56617 0.84960
 H328 H 0.83693 0.56683 0.79445
 H329 H 0.92266 0.50166 0.72092
 H330 H 0.84930 0.43441 0.80498
 C331 C 0.25603 0.49906 0.10027
 C332 C 0.24285 0.46242 0.11737
 C333 C 0.21354 0.46266 0.14867
 C334 C 0.19534 0.49993 0.16199
 C335 C 0.20882 0.53673 0.14303
 C336 C 0.23958 0.53611 0.11314
 C337 C 0.16254 0.50039 0.19480
 C338 C 0.14954 0.53763 0.21328
 C339 C 0.11825 0.53785 0.24264
 C340 C 0.10088 0.50123 0.25555
 C341 C 0.11343 0.46422 0.23879
 C342 C 0.14328 0.46363 0.20801
 H343 H 0.27916 0.49872 0.07634
 H344 H 0.20567 0.43354 0.16199
 H345 H 0.19576 0.56609 0.15044
 H346 H 0.16308 0.56671 0.20560
 H347 H 0.07696 0.50155 0.27871
 H348 H 0.15043 0.43432 0.19472
 C349 C 0.74433 0.50098 0.09964
 C350 C 0.75743 0.53759 0.11690
 C351 C 0.78663 0.53730 0.14833
 C352 C 0.80481 0.50000 0.16159
 C353 C 0.79142 0.46325 0.14247
 C354 C 0.76076 0.46392 0.11248
 C355 C 0.83750 0.49946 0.19450
 C356 C 0.85040 0.46220 0.21299
 C357 C 0.88162 0.46192 0.24243
 C358 C 0.89900 0.49853 0.25545
 C359 C 0.88652 0.53554 0.23868
 C360 C 0.85677 0.53618 0.20780
 H361 H 0.72126 0.50135 0.07563
 H362 H 0.79442 0.56638 0.16179
 H363 H 0.80447 0.43388 0.14986
 H364 H 0.83683 0.43314 0.20523
 H365 H 0.92286 0.49817 0.27867
 H366 H 0.84970 0.56550 0.19450
 C367 C 0.25553 0.50076 0.90044
 C368 C 0.24240 0.53740 0.88331
 C369 C 0.21315 0.53714 0.85191
 C370 C 0.19498 0.49984 0.83851
 C371 C 0.20845 0.46306 0.85750
 C372 C 0.23911 0.46371 0.88750
 C373 C 0.16227 0.49934 0.80558
 C374 C 0.14921 0.46208 0.78710
 C375 C 0.11802 0.46185 0.75761
 C376 C 0.10078 0.49849 0.74457
 C377 C 0.11336 0.53550 0.76134
 C378 C 0.14313 0.53610 0.79222
 H379 H 0.27861 0.50111 0.92444
 H380 H 0.20532 0.56625 0.83859
 H381 H 0.19545 0.43368 0.84999
 H382 H 0.16263 0.43299 0.79491
 H383 H 0.07694 0.49817 0.72133
 H384 H 0.15031 0.56543 0.80547
 C385 C 0.27585 0.39838 0.08114
 C386 C 0.25936 0.42529 0.10026
 C387 C 0.72441 0.60167 0.08080
 C388 C 0.74092 0.57474 0.09987
 C389 C 0.72418 0.39841 0.91886
 C390 C 0.74069 0.42534 0.89976
 C391 C 0.27560 0.60144 0.91951
 C392 C 0.25900 0.57453 0.90042
 C393 C 0.08144 0.27635 0.39863
 C394 C 0.10043 0.25984 0.42564
 C395 C 0.08189 0.72315 0.60111
 C396 C 0.10089 0.73966 0.57411
 C397 C 0.91829 0.72335 0.39880
 C398 C 0.89932 0.73989 0.42581
 C399 C 0.91808 0.27647 0.60059
 C400 C 0.89908 0.25988 0.57359
 C401 C 0.39785 0.08245 0.27646
 C402 C 0.42483 0.10151 0.25989
 C403 C 0.60224 0.08227 0.72375
 C404 C 0.57526 0.10125 0.74040
 C405 C 0.39737 0.91775 0.72403
 C406 C 0.42437 0.89880 0.74070
 C407 C 0.60303 0.91873 0.27599
 C408 C 0.57608 0.89973 0.25922
 C409 C 0.39801 0.27636 0.91726
 C410 C 0.42504 0.25966 0.89840
 C411 C 0.60189 0.72361 0.91717
 C412 C 0.57480 0.74030 0.89837
 C413 C 0.39845 0.72379 0.08294
 C414 C 0.42553 0.74057 0.10172
 C415 C 0.60202 0.27643 0.08271
 C416 C 0.57498 0.25974 0.10158
 C417 C 0.27499 0.08176 0.60240
 C418 C 0.25832 0.10082 0.57555
 C419 C 0.72407 0.08079 0.39754
 C420 C 0.74097 0.10004 0.42417
 C421 C 0.72469 0.91802 0.60245
 C422 C 0.74144 0.89898 0.57562
 C423 C 0.27547 0.91803 0.39761
 C424 C 0.25876 0.89892 0.42442
 C425 C 0.08211 0.39790 0.72392
 C426 C 0.10112 0.42475 0.74073
 C427 C 0.08241 0.60185 0.27614
 C428 C 0.10141 0.57497 0.25944
 C429 C 0.91739 0.39787 0.27588
 C430 C 0.89842 0.42478 0.25920
 C431 C 0.91751 0.60195 0.72376
 C432 C 0.89847 0.57508 0.74045
 C433 C 0.72779 0.59949 0.92476
 C434 C 0.74481 0.57275 0.90587
 C435 C 0.27202 0.40039 0.92512
 C436 C 0.25492 0.42711 0.90628
 C437 C 0.27242 0.59947 0.07550
 C438 C 0.25536 0.57271 0.09435
 C439 C 0.72793 0.40057 0.07481
 C440 C 0.74499 0.42733 0.09365
 C441 C 0.92537 0.72743 0.59984
 C442 C 0.90636 0.74449 0.57320
 C443 C 0.92488 0.27219 0.39959
 C444 C 0.90583 0.25513 0.42621
 C445 C 0.07456 0.27249 0.59969
 C446 C 0.09357 0.25544 0.57304
 C447 C 0.07480 0.72736 0.40006
 C448 C 0.09383 0.74437 0.42673
 C449 C 0.59929 0.92487 0.72946
 C450 C 0.57230 0.90606 0.74626
 C451 C 0.40107 0.92513 0.27079
 C452 C 0.42811 0.90641 0.25397
 C453 C 0.59983 0.07613 0.27155
 C454 C 0.57281 0.09491 0.25476
 C455 C 0.40033 0.07513 0.72942
 C456 C 0.42735 0.09396 0.74616
 C457 C 0.60016 0.72945 0.07470
 C458 C 0.57339 0.74633 0.09375
 C459 C 0.40026 0.27078 0.07485
 C460 C 0.42711 0.25397 0.09388
 C461 C 0.59978 0.27070 0.92520
 C462 C 0.57291 0.25388 0.90622
 C463 C 0.40014 0.72917 0.92544
 C464 C 0.42694 0.74601 0.90639
 C465 C 0.73025 0.92487 0.40136
 C466 C 0.74701 0.90598 0.42826
 C467 C 0.27006 0.92435 0.59883
 C468 C 0.25332 0.90558 0.57183
 C469 C 0.27023 0.07552 0.40121
 C470 C 0.25336 0.09429 0.42813
 C471 C 0.72957 0.07537 0.59860
 C472 C 0.74635 0.09407 0.57159
 C473 C 0.92443 0.59899 0.27111
 C474 C 0.90553 0.57214 0.25425
 C475 C 0.92407 0.40086 0.72841
 C476 C 0.90518 0.42771 0.74527
 C477 C 0.07554 0.59894 0.72885
 C478 C 0.09443 0.57211 0.74573
 C479 C 0.07543 0.40076 0.27109
 C480 C 0.09439 0.42761 0.25429
   
