data_POSCAR
  _audit_creation_date              2014-09-24
  _audit_creation_method            'ToBaCCo'
  _symmetry_space_group_name_H-M    'P1'
  _symmetry_Int_Tables_number       1
  _symmetry_cell_setting            triclinic
  loop_
  _symmetry_equiv_pos_as_xyz
 x,y,z
_cell_length_a 48.3669
_cell_length_b 47.8591
_cell_length_c 49.7568
_cell_angle_alpha 90.006300
_cell_angle_beta 90.260000
_cell_angle_gamma 89.697300
loop_
  _atom_site_label
  _atom_site_type_symbol
  _atom_site_fract_x
  _atom_site_fract_y
  _atom_site_fract_z
O1 O 0.38550 0.34630 -0.02972
 O2 O 0.35949 0.39373 0.02319
 O3 O 0.39413 0.35186 0.02184
 O4 O 0.35234 0.38906 -0.02879
 O5 O 0.31689 0.36168 -0.02008
 O6 O 0.35988 0.32238 0.02860
 O7 O 0.32553 0.36429 0.03128
 O8 O 0.35006 0.31832 -0.02285
 Cu9 Cu 0.37635 0.37311 -0.00410
 Cu10 Cu 0.33463 0.33876 0.00494
 C11 C 0.37202 0.32432 -0.03539
 C12 C 0.33809 0.38692 0.03634
 C13 C 0.38427 0.33070 0.03368
 C14 C 0.32743 0.38199 -0.03288
 O15 O 0.67606 0.63351 0.02152
 O16 O 0.63085 0.65789 -0.03315
 O17 O 0.67423 0.62462 -0.02990
 O18 O 0.63473 0.66808 0.01820
 O19 O 0.66402 0.70264 0.01149
 O20 O 0.70088 0.66081 -0.03853
 O21 O 0.65808 0.69418 -0.03949
 O22 O 0.70523 0.66781 0.01345
 Cu23 Cu 0.65111 0.64244 -0.00522
 Cu24 Cu 0.68495 0.68481 -0.01412
 C25 C 0.69831 0.64635 0.02682
 C26 C 0.63633 0.68054 -0.04517
 C27 C 0.69433 0.63553 -0.04245
 C28 C 0.64301 0.69274 0.02317
 O29 O 0.63473 0.32448 1.03650
 O30 O 0.66804 0.36991 0.98736
 O31 O 0.63609 0.32673 0.98442
 O32 O 0.67001 0.36591 1.03943
 O33 O 0.70493 0.33603 1.03840
 O34 O 0.67214 0.29824 0.98278
 O35 O 0.70410 0.34140 0.98618
 O36 O 0.67013 0.29516 1.03510
 Cu37 Cu 0.64862 0.34966 1.01221
 Cu38 Cu 0.69141 0.31482 1.01049
 C39 C 0.64647 0.30203 1.04398
 C40 C 0.69161 0.36339 0.97827
 C41 C 0.64862 0.30592 0.97410
 C42 C 0.69336 0.35748 1.04827
 O43 O 0.39094 0.65012 1.01122
 O44 O 0.34928 0.61022 0.96370
 O45 O 0.38760 0.64548 0.96062
 O46 O 0.34528 0.61792 1.01673
 O47 O 0.31710 0.65410 1.01298
 O48 O 0.35899 0.68149 0.95765
 O49 O 0.31878 0.64470 0.96126
 O50 O 0.36102 0.68515 1.00977
 Cu51 Cu 0.37040 0.62723 0.98936
 Cu52 Cu 0.33604 0.66990 0.98502
 C53 C 0.38357 0.67445 1.01828
 C54 C 0.32713 0.62047 0.95423
 C55 C 0.38046 0.66853 0.94982
 C56 C 0.32384 0.63135 1.02427
 O57 O -0.02736 0.38203 0.32828
 O58 O 0.02365 0.35111 0.37470
 O59 O 0.02547 0.38966 0.33794
 O60 O -0.02826 0.34249 0.36439
 O61 O -0.01727 0.31115 0.33361
 O62 O 0.03530 0.35870 0.30643
 O63 O 0.03450 0.31971 0.34390
 O64 O -0.01704 0.35043 0.29754
 Cu65 Cu -0.00272 0.36957 0.35431
 Cu66 Cu 0.01010 0.33193 0.31726
 C67 C -0.03107 0.37145 0.30514
 C68 C 0.03745 0.32987 0.36736
 C69 C 0.03934 0.38224 0.31751
 C70 C -0.03168 0.31861 0.35365
 O71 O 0.02289 0.66757 0.63028
 O72 O -0.02600 0.61892 0.66110
 O73 O -0.03053 0.66246 0.63019
 O74 O 0.02713 0.62549 0.66422
 O75 O 0.02393 0.65514 0.69813
 O76 O -0.03499 0.68989 0.66562
 O77 O -0.02912 0.64662 0.69649
 O78 O 0.01852 0.69629 0.66479
 Cu79 Cu -0.00110 0.64080 0.64290
 Cu80 Cu -0.00582 0.67483 0.68474
 C81 C 0.02879 0.69030 0.64206
 C82 C -0.03578 0.62440 0.68408
 C83 C -0.04276 0.68234 0.64237
 C84 C 0.03526 0.63421 0.68707
 O85 O 1.02315 0.62306 0.34149
 O86 O 0.97018 0.66813 0.37270
 O87 O 0.97048 0.63210 0.33368
 O88 O 1.02251 0.65851 0.38135
 O89 O 1.03266 0.69235 0.35299
 O90 O 0.98054 0.66584 0.30514
 O91 O 0.98034 0.70193 0.34426
 O92 O 1.03311 0.65675 0.31286
 Cu93 Cu 0.99562 0.64203 0.36013
 Cu94 Cu 1.00780 0.68259 0.32598
 C95 C 1.03699 0.63214 0.32173
 C96 C 0.96621 0.69271 0.36374
 C97 C 0.96653 0.64447 0.31140
 C98 C 1.03628 0.68012 0.37545
 O99 O 0.96906 0.33304 0.61928
 O100 O 1.02287 0.37661 0.65056
 O101 O 1.02234 0.34015 0.61223
 O102 O 0.97063 0.36937 0.65897
 O103 O 0.97908 0.33478 0.68731
 O104 O 1.03068 0.30598 0.64098
 O105 O 1.03164 0.34286 0.67972
 O106 O 0.97820 0.29913 0.64814
 Cu107 Cu 0.99515 0.35812 0.63227
 Cu108 Cu 1.00587 0.31731 0.66694
 C109 C 0.96455 0.30864 0.62830
 C110 C 1.03629 0.36719 0.67058
 C111 C 1.03537 0.31804 0.61874
 C112 C 0.96628 0.35708 0.68119
 O113 O 0.38038 0.01570 0.33459
 O114 O 0.35294 -0.03737 0.38097
 O115 O 0.38056 -0.03834 0.33592
 O116 O 0.35399 0.01716 0.38010
 O117 O 0.31490 0.01750 0.35696
 O118 O 0.34075 -0.03918 0.31401
 O119 O 0.31316 -0.03605 0.35897
 O120 O 0.34102 0.01533 0.31187
 Cu121 Cu 0.37097 -0.01079 0.36018
 Cu122 Cu 0.32352 -0.01073 0.33309
 C123 C 0.36532 0.02447 0.31532
 C124 C 0.32805 -0.04518 0.37814
 C125 C 0.36527 -0.04808 0.31740
 C126 C 0.32985 0.02681 0.37597
 O127 O 0.62325 0.03110 0.65202
 O128 O 0.66829 -0.02391 0.62370
 O129 O 0.63044 -0.02197 0.66084
 O130 O 0.66014 0.02954 0.61427
 O131 O 0.69316 0.03875 0.64374
 O132 O 0.66260 -0.01189 0.69092
 O133 O 0.70040 -0.01413 0.65390
 O134 O 0.65562 0.04104 0.68192
 Cu135 Cu 0.64239 0.00267 0.63462
 Cu136 Cu 0.68121 0.01454 0.67056
 C137 C 0.63168 0.04519 0.67203
 C138 C 0.69194 -0.02851 0.63413
 C139 C 0.64128 -0.02550 0.68391
 C140 C 0.68172 0.04281 0.62101
 O141 O 0.33202 1.03905 0.63823
 O142 O 0.36599 0.98184 0.67631
 O143 O 0.33412 0.98502 0.63428
 O144 O 0.36640 1.03631 0.67915
 O145 O 0.33085 1.03390 0.70672
 O146 O 0.29754 0.98351 0.66065
 O147 O 0.32964 0.97965 0.70292
 O148 O 0.29681 1.03771 0.66632
 Cu149 Cu 0.35327 1.01086 0.65433
 Cu150 Cu 0.31011 1.00845 0.68685
 C151 C 0.30854 1.04805 0.64591
 C152 C 0.35338 0.97093 0.69605
 C153 C 0.31032 0.97567 0.63964
 C154 C 0.35437 1.04371 0.70064
 O155 O 0.60596 0.96525 0.35391
 O156 O 0.64543 1.01720 0.39202
 O157 O 0.60473 1.01943 0.35749
 O158 O 0.64837 0.96312 0.38605
 O159 O 0.67681 0.96677 0.35162
 O160 O 0.63443 1.02375 0.32420
 O161 O 0.67531 1.02082 0.35880
 O162 O 0.63448 0.96964 0.31962
 Cu163 Cu 0.62327 0.99090 0.37580
 Cu164 Cu 0.65820 0.99578 0.33519
 C165 C 0.61332 0.95862 0.33033
 C166 C 0.66714 1.02774 0.38218
 C167 C 0.61219 1.03103 0.33575
 C168 C 0.66983 0.95517 0.37342
 C169 C 0.81949 0.78291 0.48836
 C170 C 0.82079 0.78195 0.51680
 C171 C 0.80307 0.79935 0.53178
 C172 C 0.78406 0.81725 0.51908
 C173 C 0.78318 0.81870 0.49068
 C174 C 0.80101 0.80147 0.47567
 H175 H 0.80069 0.80234 0.45397
 H176 H 0.80389 0.79922 0.55349
 C177 C 0.15743 0.19073 0.47688
 C178 C 0.16094 0.19515 0.50470
 C179 C 0.18228 0.18112 0.51856
 C180 C 0.19973 0.16181 0.50537
 C181 C 0.19561 0.15723 0.47748
 C182 C 0.17463 0.17166 0.46379
 H183 H 0.17164 0.16795 0.44245
 H184 H 0.18356 0.18374 0.54012
 C185 C 0.15011 0.81078 0.51728
 C186 C 0.15665 0.81094 0.48952
 C187 C 0.17685 0.82940 0.48015
 C188 C 0.19029 0.84811 0.49742
 C189 C 0.18322 0.84866 0.52490
 C190 C 0.16320 0.83014 0.53438
 H191 H 0.15739 0.83141 0.55535
 H192 H 0.18145 0.82994 0.45883
 C193 C 0.82793 0.21036 0.49910
 C194 C 0.83044 0.20962 0.47075
 C195 C 0.81763 0.18790 0.45634
 C196 C 0.80234 0.16711 0.46939
 C197 C 0.79997 0.16785 0.49772
 C198 C 0.81243 0.18965 0.51211
 H199 H 0.81058 0.19005 0.53381
 H200 H 0.81895 0.18748 0.43460
 C201 C 0.48764 0.82890 0.78445
 C202 C 0.51655 0.83352 0.78541
 C203 C 0.53224 0.82093 0.80596
 C204 C 0.52001 0.80410 0.82558
 C205 C 0.49121 0.79933 0.82462
 C206 C 0.47543 0.81149 0.80387
 H207 H 0.45330 0.80806 0.80337
 H208 H 0.55444 0.82385 0.80657
 C209 C 0.48421 0.15166 0.19507
 C210 C 0.51327 0.15477 0.19468
 C211 C 0.52516 0.17348 0.17659
 C212 C 0.50893 0.19037 0.15955
 C213 C 0.47976 0.18783 0.16041
 C214 C 0.46788 0.16822 0.17779
 H215 H 0.44568 0.16546 0.17725
 H216 H 0.54749 0.17418 0.17548
 C217 C 0.52176 0.17276 0.80194
 C218 C 0.49286 0.17540 0.79754
 C219 C 0.47832 0.19672 0.81106
 C220 C 0.49158 0.21434 0.82957
 C221 C 0.52007 0.21062 0.83504
 C222 C 0.53473 0.18977 0.82112
 H223 H 0.55641 0.18615 0.82542
 H224 H 0.45660 0.20015 0.80680
 C225 C 0.51754 0.83042 0.19079
 C226 C 0.48838 0.83199 0.19293
 C227 C 0.47208 0.81429 0.17690
 C228 C 0.48397 0.79526 0.15886
 C229 C 0.51314 0.79323 0.15728
 C230 C 0.52944 0.81110 0.17311
 H231 H 0.55179 0.80948 0.17237
 H232 H 0.44976 0.81615 0.17736
 C233 C 0.81891 0.47043 0.84900
 C234 C 0.81421 0.49959 0.85069
 C235 C 0.83026 0.51743 0.83477
 C236 C 0.84936 0.50701 0.81621
 C237 C 0.85307 0.47781 0.81350
 C238 C 0.83829 0.46000 0.83064
 H239 H 0.84212 0.43769 0.83014
 H240 H 0.82830 0.53987 0.83706
 C241 C 0.20700 0.49126 0.16541
 C242 C 0.20784 0.52036 0.15987
 C243 C 0.18969 0.53832 0.17386
 C244 C 0.17053 0.52800 0.19254
 C245 C 0.16906 0.49885 0.19702
 C246 C 0.18764 0.48104 0.18382
 H247 H 0.18613 0.45867 0.18696
 H248 H 0.18959 0.56049 0.16959
 C249 C 0.78539 0.52520 0.17737
 C250 C 0.78572 0.49558 0.17686
 C251 C 0.80323 0.48119 0.19489
 C252 C 0.81955 0.49551 0.21375
 C253 C 0.81888 0.52504 0.21434
 C254 C 0.80202 0.53951 0.19597
 H255 H 0.80104 0.56212 0.19684
 H256 H 0.80443 0.45865 0.19441
 C257 C 0.18192 0.51041 0.84450
 C258 C 0.18569 0.48125 0.84701
 C259 C 0.17185 0.46331 0.82929
 C260 C 0.15445 0.47367 0.80896
 C261 C 0.15062 0.50294 0.80631
 C262 C 0.16420 0.52083 0.82449
 H263 H 0.16082 0.54320 0.82336
 H264 H 0.17429 0.44090 0.83167
 C265 C 0.32759 0.40564 0.05751
 C266 C 0.30357 0.39932 0.07162
 C267 C 0.29101 0.41826 0.09143
 N268 N 0.26590 0.41196 0.10175
 N269 N 0.25354 0.42918 0.11898
 C270 C 0.26587 0.45332 0.12669
 N271 N 0.29116 0.45950 0.11662
 N272 N 0.30351 0.44230 0.09926
 C273 C 0.25157 0.47323 0.14450
 C274 C 0.22363 0.47015 0.15068
 H275 H 0.29273 0.38009 0.06723
 H276 H 0.26271 0.49143 0.15146
 H277 H 0.33844 0.42496 0.06148
 H278 H 0.21335 0.45092 0.14514
 C279 C 0.71630 0.63621 0.04871
 C280 C 0.70823 0.61397 0.06494
 C281 C 0.72561 0.60230 0.08649
 N282 N 0.71609 0.58046 0.10106
 N283 N 0.73163 0.56894 0.12025
 C284 C 0.75731 0.57884 0.12565
 N285 N 0.76682 0.60082 0.11119
 N286 N 0.75124 0.61237 0.09194
 C287 C 0.77505 0.56537 0.14604
 C288 C 0.76667 0.54131 0.15949
 H289 H 0.68830 0.60432 0.06157
 H290 H 0.79566 0.57348 0.14926
 H291 H 0.73599 0.64633 0.05210
 H292 H 0.74633 0.53293 0.15543
 C293 C 0.70408 0.38173 0.95818
 C294 C 0.73021 0.37679 0.94760
 C295 C 0.74212 0.39542 0.92735
 N296 N 0.76889 0.39222 0.91996
 N297 N 0.78007 0.40937 0.90201
 C298 C 0.76483 0.43023 0.89069
 N299 N 0.73799 0.43326 0.89788
 N300 N 0.72684 0.41618 0.91590
 C301 C 0.77717 0.44991 0.87165
 C302 C 0.80547 0.44997 0.86679
 H303 H 0.74243 0.35921 0.95465
 H304 H 0.76388 0.46519 0.86197
 H305 H 0.69219 0.39971 0.95155
 H306 H 0.81826 0.43336 0.87500
 C307 C 0.31147 0.60337 0.93508
 C308 C 0.28403 0.60856 0.92801
 C309 C 0.26853 0.58844 0.91140
 N310 N 0.24095 0.59177 0.90727
 N311 N 0.22677 0.57304 0.89301
 C312 C 0.23968 0.55031 0.88238
 N313 N 0.26724 0.54710 0.88640
 N314 N 0.28138 0.56577 0.90065
 C315 C 0.22459 0.52920 0.86676
 C316 C 0.19624 0.53083 0.86195
 H317 H 0.27338 0.62672 0.93594
 H318 H 0.23641 0.51214 0.85819
 H319 H 0.32158 0.58462 0.92777
 H320 H 0.18484 0.54912 0.86855
 C321 C 0.05655 0.31682 0.38674
 C322 C 0.06675 0.28981 0.38315
 C323 C 0.08330 0.27541 0.40386
 N324 N 0.08922 0.24784 0.40106
 N325 N 0.10394 0.23437 0.41971
 C326 C 0.11335 0.24796 0.44188
 N327 N 0.10751 0.27557 0.44466
 N328 N 0.09267 0.28903 0.42605
 C329 C 0.13052 0.23347 0.46211
 C330 C 0.13597 0.20489 0.46042
 H331 H 0.06127 0.27828 0.36518
 H332 H 0.14037 0.24588 0.47758
 H333 H 0.06096 0.32792 0.40523
 H334 H 0.12709 0.19316 0.44390
 C335 C 0.04789 0.71000 0.62950
 C336 C 0.05340 0.70924 0.60205
 C337 C 0.07322 0.72841 0.58971
 N338 N 0.07319 0.73233 0.56269
 N339 N 0.09135 0.74949 0.55133
 C340 C 0.11032 0.76309 0.56663
 N341 N 0.11047 0.75896 0.59359
 N342 N 0.09218 0.74204 0.60494
 C343 C 0.13100 0.78153 0.55468
 C344 C 0.12878 0.79205 0.52860
 H345 H 0.04244 0.69471 0.58921
 H346 H 0.14859 0.78697 0.56710
 H347 H 0.05712 0.72602 0.64198
 H348 H 0.11124 0.78618 0.51630
 C349 C 0.94511 0.71098 0.37592
 C350 C 0.92851 0.70209 0.39708
 C351 C 0.90779 0.72035 0.40989
 N352 N 0.89285 0.71061 0.43087
 N353 N 0.87439 0.72693 0.44309
 C354 C 0.87011 0.75365 0.43476
 N355 N 0.88495 0.76337 0.41368
 N356 N 0.90345 0.74703 0.40145
 C357 C 0.85047 0.77222 0.44877
 C358 C 0.83660 0.76368 0.47186
 H359 H 0.93095 0.68106 0.40482
 H360 H 0.84817 0.79351 0.44171
 H361 H 0.94270 0.73197 0.36808
 H362 H 0.83991 0.74264 0.47924
 C363 C 0.94360 0.29068 0.61573
 C364 C 0.92803 0.29904 0.59347
 C365 C 0.90859 0.27998 0.57999
 N366 N 0.89446 0.28857 0.55784
 N367 N 0.87749 0.27120 0.54497
 C368 C 0.87403 0.24459 0.55381
 N369 N 0.88803 0.23607 0.57604
 N370 N 0.90498 0.25343 0.58890
 C371 C 0.85640 0.22466 0.53923
 C372 C 0.84257 0.23165 0.51548
 H373 H 0.93066 0.31980 0.58525
 H374 H 0.85572 0.20338 0.54660
 H375 H 0.94089 0.26993 0.62395
 H376 H 0.84422 0.25276 0.50798
 C377 C 0.37583 0.04555 0.29667
 C378 C 0.40382 0.05180 0.29509
 C379 C 0.41428 0.07264 0.27612
 N380 N 0.44163 0.07339 0.27037
 N381 N 0.45140 0.09213 0.25313
 C382 C 0.43418 0.11092 0.24115
 N383 N 0.40687 0.11038 0.24712
 N384 N 0.39706 0.09148 0.26421
 C385 C 0.44487 0.13204 0.22254
 C386 C 0.47126 0.12963 0.21164
 H387 H 0.41860 0.04034 0.30733
 H388 H 0.43196 0.14998 0.21806
 H389 H 0.36126 0.05565 0.28316
 H390 H 0.48338 0.11117 0.21632
 C391 C 0.61314 0.06627 0.68391
 C392 C 0.61729 0.07651 0.70985
 C393 C 0.59773 0.09590 0.72282
 N394 N 0.59912 0.10006 0.74976
 N395 N 0.58144 0.11731 0.76191
 C396 C 0.56179 0.13121 0.74753
 N397 N 0.56054 0.12724 0.72053
 N398 N 0.57810 0.10982 0.70841
 C399 C 0.54231 0.15058 0.76066
 C400 C 0.53919 0.15149 0.78850
 H401 H 0.63465 0.06890 0.72163
 H402 H 0.53018 0.16455 0.74811
 H403 H 0.59483 0.07241 0.67271
 H404 H 0.55255 0.13870 0.80103
 C405 C 0.36614 0.94812 0.71168
 C406 C 0.39131 0.93583 0.70475
 C407 C 0.40450 0.91414 0.72157
 N408 N 0.42855 0.90205 0.71362
 N409 N 0.44119 0.88311 0.72908
 C410 C 0.43024 0.87554 0.75310
 N411 N 0.40613 0.88754 0.76098
 N412 N 0.39347 0.90643 0.74550
 C413 C 0.44483 0.85602 0.77124
 C414 C 0.46997 0.84355 0.76436
 H415 H 0.40185 0.94252 0.68671
 H416 H 0.43662 0.85321 0.79127
 H417 H 0.35533 0.94093 0.72938
 H418 H 0.47794 0.84705 0.74441
 C419 C 0.59679 0.93787 0.31571
 C420 C 0.60226 0.93006 0.28928
 C421 C 0.58491 0.90964 0.27497
 N422 N 0.58947 0.90417 0.24860
 N423 N 0.57358 0.88610 0.23534
 C424 C 0.55261 0.87274 0.24800
 N425 N 0.54816 0.87810 0.27439
 N426 N 0.56400 0.89621 0.28763
 C427 C 0.53434 0.85335 0.23350
 C428 C 0.53659 0.84882 0.20593
 H429 H 0.61932 0.93950 0.27863
 H430 H 0.51827 0.84290 0.24471
 H431 H 0.57944 0.92869 0.32613
 H432 H 0.55400 0.85750 0.19521
 C433 C 0.38175 0.30523 0.94344
 C434 C 0.40524 0.31070 0.92823
 C435 C 0.41595 0.29087 0.90813
 N436 N 0.43945 0.29692 0.89461
 N437 N 0.45004 0.27879 0.87709
 C438 C 0.43750 0.25392 0.87236
 N439 N 0.41385 0.24796 0.88572
 N440 N 0.40326 0.26610 0.90327
 C441 C 0.45000 0.23297 0.85435
 C442 C 0.47582 0.23716 0.84271
 H443 H 0.41658 0.32985 0.93156
 H444 H 0.43987 0.21297 0.85212
 H445 H 0.37025 0.28619 0.94001
 H446 H 0.48619 0.25689 0.84588
 C447 C 0.61674 0.69111 0.93452
 C448 C 0.61864 0.71801 0.92403
 C449 C 0.59755 0.72977 0.90581
 N450 N 0.59913 0.75692 0.89822
 N451 N 0.58003 0.76806 0.88204
 C452 C 0.55861 0.75245 0.87282
 N453 N 0.55705 0.72526 0.88036
 N454 N 0.57612 0.71413 0.89661
 C455 C 0.53766 0.76441 0.85453
 C456 C 0.53844 0.79234 0.84658
 H457 H 0.63553 0.73137 0.93020
 H458 H 0.52210 0.75065 0.84628
 H459 H 0.59947 0.67796 0.92895
 H460 H 0.55531 0.80531 0.85355
 C461 C 0.40213 0.69042 0.03579
 C462 C 0.39323 0.71308 0.05104
 C463 C 0.41287 0.72899 0.06755
 N464 N 0.40416 0.74261 0.08990
 N465 N 0.42204 0.75669 0.10513
 C466 C 0.44919 0.75793 0.09834
 N467 N 0.45778 0.74470 0.07576
 N468 N 0.43999 0.73033 0.06073
 C469 C 0.46917 0.77345 0.11477
 C470 C 0.46476 0.77867 0.14198
 H471 H 0.37145 0.71838 0.05182
 H472 H 0.48788 0.78053 0.10514
 H473 H 0.42348 0.68358 0.03727
 H474 H 0.44525 0.77252 0.15076
 C475 C 0.63258 0.28375 0.06324
 C476 C 0.60409 0.28530 0.06695
 C477 C 0.58986 0.26797 0.08677
 N478 N 0.56215 0.26415 0.08485
 N479 N 0.54893 0.24873 0.10294
 C480 C 0.56296 0.23688 0.12375
 N481 N 0.59061 0.24095 0.12580
 N482 N 0.60387 0.25612 0.10757
 C483 C 0.54880 0.22010 0.14405
 C484 C 0.52279 0.20849 0.13954
 H485 H 0.59172 0.29910 0.05444
 H486 H 0.55957 0.21658 0.16286
 H487 H 0.64475 0.26829 0.07399
 H488 H 0.51242 0.21261 0.12061
 C489 C 0.29428 0.07060 0.63126
 C490 C 0.29882 0.07579 0.60410
 C491 C 0.28172 0.09604 0.58905
 N492 N 0.27922 0.09382 0.56196
 N493 N 0.26286 0.11127 0.54827
 C494 C 0.24858 0.13178 0.56114
 N495 N 0.25147 0.13431 0.58816
 N496 N 0.26760 0.11668 0.60189
 C497 C 0.22996 0.15088 0.54636
 C498 C 0.21957 0.14412 0.52095
 H499 H 0.31351 0.06302 0.59315
 H500 H 0.22398 0.17011 0.55617
 H501 H 0.27783 0.08167 0.64154
 H502 H 0.22586 0.12433 0.51236
 C503 C 0.68169 0.04701 0.39768
 C504 C 0.70652 0.05918 0.38972
 C505 C 0.72100 0.07940 0.40709
 N506 N 0.74668 0.08842 0.40059
 N507 N 0.75990 0.10662 0.41630
 C508 C 0.74785 0.11654 0.43904
 N509 N 0.72215 0.10761 0.44544
 N510 N 0.70900 0.08936 0.42981
 C511 C 0.76185 0.13679 0.45663
 C512 C 0.78897 0.14548 0.45247
 H513 H 0.71581 0.05345 0.37071
 H514 H 0.75008 0.14555 0.47308
 H515 H 0.67323 0.05241 0.41715
 H516 H 0.79984 0.13833 0.43474
 C517 C 0.71007 0.94937 0.62344
 C518 C 0.70171 0.93141 0.60293
 C519 C 0.72004 0.90958 0.59193
 N520 N 0.71078 0.89275 0.57193
 N521 N 0.72725 0.87334 0.56128
 C522 C 0.75363 0.86996 0.57026
 N523 N 0.76286 0.88668 0.59038
 N524 N 0.74637 0.90611 0.60104
 C525 C 0.77249 0.84956 0.55762
 C526 C 0.76429 0.83366 0.53553
 H527 H 0.68113 0.93349 0.59447
 H528 H 0.79375 0.84861 0.56450
 H529 H 0.73052 0.94709 0.63215
 H530 H 0.74319 0.83544 0.52833
 C531 C 0.31599 0.93534 0.39751
 C532 C 0.28797 0.93709 0.40354
 C533 C 0.27424 0.91773 0.42190
 N534 N 0.24970 0.92508 0.43298
 N535 N 0.23607 0.90724 0.44850
 C536 C 0.24637 0.88127 0.45326
 N537 N 0.27090 0.87385 0.44211
 N538 N 0.28470 0.89184 0.42682
 C539 C 0.23038 0.86078 0.46852
 C540 C 0.20904 0.86887 0.48555
 H541 H 0.27562 0.95383 0.39493
 H542 H 0.23505 0.83878 0.46591
 H543 H 0.32930 0.92074 0.40811
 H544 H 0.20608 0.89073 0.49047
 C545 C 0.05713 0.38513 0.68330
 C546 C 0.06955 0.37824 0.70773
 C547 C 0.08802 0.39763 0.72192
 N548 N 0.09537 0.39238 0.74777
 N549 N 0.11107 0.41033 0.76133
 C550 C 0.12015 0.43415 0.74950
 N551 N 0.11311 0.43923 0.72353
 N552 N 0.09727 0.42133 0.71000
 C553 C 0.13646 0.45471 0.76467
 C554 C 0.13958 0.45278 0.79247
 H555 H 0.06430 0.35880 0.71758
 H556 H 0.14533 0.47212 0.75389
 H557 H 0.06162 0.40500 0.67390
 H558 H 0.13219 0.43428 0.80266
 C559 C 0.05757 0.61360 0.30910
 C560 C 0.07031 0.62017 0.28482
 C561 C 0.08993 0.60098 0.27157
 N562 N 0.09871 0.60642 0.24623
 N563 N 0.11616 0.58906 0.23387
 C564 C 0.12559 0.56567 0.24647
 N565 N 0.11695 0.56035 0.27186
 N566 N 0.09941 0.57763 0.28417
 C567 C 0.14461 0.54599 0.23313
 C568 C 0.15193 0.54834 0.20610
 H569 H 0.06507 0.63954 0.27470
 H570 H 0.15296 0.52900 0.24506
 H571 H 0.06198 0.59375 0.31871
 H572 H 0.14528 0.56660 0.19489
 C573 C 0.94820 0.38350 0.28672
 C574 C 0.93116 0.40565 0.29439
 C575 C 0.91057 0.41826 0.27617
 N576 N 0.89454 0.43967 0.28500
 N577 N 0.87607 0.45169 0.26872
 C578 C 0.87291 0.44275 0.24299
 N579 N 0.88889 0.42126 0.23417
 N580 N 0.90737 0.40921 0.25046
 C581 C 0.85318 0.45651 0.22458
 C582 C 0.83738 0.47948 0.23262
 H583 H 0.93298 0.41423 0.31447
 H584 H 0.85214 0.44932 0.20397
 H585 H 0.94627 0.37465 0.26677
 H586 H 0.83935 0.48675 0.25310
 C587 C 0.94511 0.60448 0.69630
 C588 C 0.93525 0.60804 0.72230
 C589 C 0.91746 0.58733 0.73521
 N590 N 0.91122 0.59009 0.76160
 N591 N 0.89572 0.57112 0.77385
 C592 C 0.88580 0.54873 0.76016
 N593 N 0.89183 0.54608 0.73369
 N594 N 0.90743 0.56502 0.72143
 C595 C 0.86930 0.52735 0.77377
 C596 C 0.86585 0.52782 0.80152
 H597 H 0.94156 0.62606 0.73396
 H598 H 0.86014 0.51082 0.76189
 H599 H 0.93931 0.58619 0.68480
 H600 H 0.87356 0.54545 0.81291
 C601 C 0.70982 0.62011 0.93925
 C602 C 0.70761 0.59124 0.93607
 C603 C 0.72557 0.57643 0.91694
 N604 N 0.73249 0.54920 0.92091
 N605 N 0.74971 0.53618 0.90411
 C606 C 0.76035 0.54992 0.88264
 N607 N 0.75303 0.57695 0.87847
 N608 N 0.73610 0.59001 0.89537
 C609 C 0.77947 0.53635 0.86383
 C610 C 0.79418 0.51198 0.86993
 H611 H 0.69413 0.57924 0.94895
 H612 H 0.78253 0.54654 0.84466
 H613 H 0.72542 0.63114 0.92787
 H614 H 0.79066 0.50171 0.88898
 C615 C 0.31193 0.39679 0.94816
 C616 C 0.28345 0.39358 0.94511
 C617 C 0.26806 0.40889 0.92422
 N618 N 0.24137 0.41658 0.92835
 N619 N 0.22722 0.43020 0.90934
 C620 C 0.23917 0.43623 0.88539
 N621 N 0.26573 0.42822 0.88115
 N622 N 0.28001 0.41501 0.90030
 C623 C 0.22341 0.44997 0.86381
 C624 C 0.20212 0.46883 0.86909
 H625 H 0.27198 0.38079 0.95910
 H626 H 0.22932 0.44596 0.84318
 H627 H 0.32243 0.41214 0.93591
 H628 H 0.19831 0.47565 0.88951
 C629 C 0.30711 0.62152 0.04499
 C630 C 0.31000 0.59515 0.05669
 C631 C 0.29093 0.58565 0.07785
 N632 N 0.28727 0.55794 0.08234
 N633 N 0.26973 0.54920 0.10113
 C634 C 0.25537 0.56786 0.11631
 N635 N 0.25933 0.59555 0.11207
 N636 N 0.27663 0.60428 0.09310
 C637 C 0.23632 0.55853 0.13755
 C638 C 0.22549 0.53154 0.13790
 H639 H 0.32531 0.58057 0.04911
 H640 H 0.23109 0.57327 0.15323
 H641 H 0.29016 0.63480 0.05144
 H642 H 0.23055 0.51784 0.12132
 C643 C 0.70690 0.37151 0.06898
 C644 C 0.69818 0.39723 0.07912
 C645 C 0.71410 0.41144 0.10032
 N646 N 0.71302 0.43967 0.10267
 N647 N 0.72810 0.45271 0.12128
 C648 C 0.74458 0.43796 0.13840
 N649 N 0.74527 0.40971 0.13634
 N650 N 0.73045 0.39670 0.11755
 C651 C 0.76141 0.45200 0.15901
 C652 C 0.76885 0.48005 0.15664
 H653 H 0.68068 0.40802 0.07017
 H654 H 0.76817 0.43964 0.17600
 H655 H 0.72589 0.36237 0.07672
 H656 H 0.76190 0.49110 0.13886
 C657 C 0.93505 0.69633 0.63051
 C658 C 0.92639 0.69136 0.60419
 C659 C 0.90352 0.70736 0.59208
 N660 N 0.90089 0.70871 0.56497
 N661 N 0.88075 0.72387 0.55376
 C662 C 0.86234 0.73802 0.56926
 N663 N 0.86468 0.73629 0.59638
 N664 N 0.88499 0.72134 0.60759
 C665 C 0.84033 0.75523 0.55712
 C666 C 0.84189 0.76409 0.53046
 H667 H 0.93755 0.67666 0.59166
 H668 H 0.82310 0.76117 0.56968
 H669 H 0.92469 0.71240 0.64214
 H670 H 0.85987 0.75777 0.51906
 C671 C 0.94897 0.29992 0.36386
 C672 C 0.93244 0.30592 0.38611
 C673 C 0.91364 0.28510 0.39782
 N674 N 0.89794 0.29198 0.41939
 N675 N 0.88142 0.27317 0.43067
 C676 C 0.87997 0.24672 0.42083
 N677 N 0.89561 0.23987 0.39921
 N678 N 0.91211 0.25869 0.38790
 C679 C 0.86250 0.22540 0.43363
 C680 C 0.84638 0.23131 0.45616
 H681 H 0.93370 0.32622 0.39568
 H682 H 0.86339 0.20431 0.42581
 H683 H 0.94721 0.27967 0.35428
 H684 H 0.84643 0.25240 0.46390
 C685 C 0.05499 0.30702 0.60120
 C686 C 0.06675 0.28068 0.60525
 C687 C 0.08716 0.26878 0.58676
 N688 N 0.08769 0.24083 0.58241
 N689 N 0.10636 0.22955 0.56604
 C690 C 0.12549 0.24578 0.55380
 N691 N 0.12525 0.27372 0.55845
 N692 N 0.10625 0.28508 0.57450
 C693 C 0.14642 0.23314 0.53632
 C694 C 0.13990 0.21024 0.52038
 H695 H 0.05936 0.26742 0.62132
 H696 H 0.16686 0.24222 0.53538
 H697 H 0.06034 0.31878 0.58336
 H698 H 0.11863 0.20341 0.51883
 C699 C 0.05513 0.69050 0.39421
 C700 C 0.06994 0.71505 0.38996
 C701 C 0.08755 0.72764 0.41085
 N702 N 0.09823 0.75342 0.40679
 N703 N 0.11334 0.76572 0.42578
 C704 C 0.11845 0.75271 0.44957
 N705 N 0.10802 0.72677 0.45355
 N706 N 0.09278 0.71448 0.43456
 C707 C 0.13432 0.76673 0.47100
 C708 C 0.14145 0.79484 0.46881
 H709 H 0.06748 0.72635 0.37122
 H710 H 0.13996 0.75496 0.48879
 H711 H 0.05746 0.67954 0.41315
 H712 H 0.13713 0.80556 0.45006
 C713 C 0.62899 0.95477 0.70309
 C714 C 0.60569 0.93897 0.69673
 C715 C 0.59236 0.92039 0.71633
 N716 N 0.57026 0.90485 0.70877
 N717 N 0.55769 0.88825 0.72636
 C718 C 0.56672 0.88663 0.75221
 N719 N 0.58882 0.90218 0.75976
 N720 N 0.60142 0.91873 0.74216
 C721 C 0.55293 0.86866 0.77204
 C722 C 0.53060 0.85157 0.76536
 H723 H 0.59667 0.94048 0.67681
 H724 H 0.56031 0.86943 0.79260
 H725 H 0.63828 0.95302 0.72287
 H726 H 0.52309 0.85181 0.74487
 C727 C 0.37611 0.93034 0.29930
 C728 C 0.40445 0.92610 0.29644
 C729 C 0.41588 0.90599 0.27717
 N730 N 0.44288 0.90756 0.27015
 N731 N 0.45358 0.88958 0.25258
 C732 C 0.43769 0.86926 0.24152
 N733 N 0.41074 0.86751 0.24874
 N734 N 0.39998 0.88564 0.26616
 C735 C 0.44940 0.84892 0.22260
 C736 C 0.47491 0.85317 0.21034
 H737 H 0.41880 0.93901 0.30763
 H738 H 0.43785 0.83000 0.21888
 H739 H 0.36170 0.91895 0.28674
 H740 H 0.48582 0.87240 0.21443
 C741 C 0.59452 0.05270 0.32350
 C742 C 0.60095 0.06409 0.29852
 C743 C 0.58236 0.08307 0.28381
 N744 N 0.58863 0.09036 0.25824
 N745 N 0.57167 0.10668 0.24404
 C746 C 0.54780 0.11643 0.25491
 N747 N 0.54161 0.10936 0.28061
 N748 N 0.55856 0.09292 0.29481
 C749 C 0.52854 0.13371 0.23901
 C750 C 0.53242 0.13800 0.21156
 H751 H 0.61980 0.05769 0.28852
 H752 H 0.51068 0.14265 0.24893
 H753 H 0.57556 0.05865 0.33354
 H754 H 0.55128 0.13052 0.20228
 C755 C 0.36776 0.06375 0.71890
 C756 C 0.39426 0.07383 0.71396
 C757 C 0.40847 0.09336 0.73213
 N758 N 0.43476 0.10124 0.72669
 N759 N 0.44807 0.11881 0.74290
 C760 C 0.43558 0.12920 0.76518
 N761 N 0.40924 0.12139 0.77059
 N762 N 0.39593 0.10377 0.75439
 C763 C 0.45003 0.14870 0.78325
 C764 C 0.47774 0.15584 0.77953
 H765 H 0.40529 0.06690 0.69625
 H766 H 0.43870 0.15690 0.80024
 H767 H 0.35674 0.07031 0.73674
 H768 H 0.48880 0.14547 0.76359
 C769 C 0.62850 0.71067 0.04244
 C770 C 0.60477 0.70259 0.05610
 C771 C 0.59075 0.72196 0.07463
 N772 N 0.56752 0.71407 0.08776
 N773 N 0.55471 0.73174 0.10436
 C774 C 0.56472 0.75791 0.10837
 N775 N 0.58792 0.76572 0.09526
 N776 N 0.60068 0.74810 0.07873
 C777 C 0.55103 0.77798 0.12627
 C778 C 0.52697 0.77191 0.14036
 H779 H 0.59623 0.68196 0.05298
 H780 H 0.55988 0.79867 0.12769
 H781 H 0.63686 0.73136 0.04571
 H782 H 0.51728 0.75173 0.13781
 C783 C 0.40164 0.31598 0.05352
 C784 C 0.39392 0.29065 0.06501
 C785 C 0.41182 0.27580 0.08436
 N786 N 0.40571 0.24926 0.09175
 N787 N 0.42198 0.23540 0.10890
 C788 C 0.44487 0.24765 0.11945
 N789 N 0.45084 0.27427 0.11225
 N790 N 0.43465 0.28808 0.09499
 C791 C 0.46342 0.23244 0.13793
 C792 C 0.46073 0.20386 0.14268
 H793 H 0.37464 0.28099 0.05906
 H794 H 0.48000 0.24391 0.14749
 H795 H 0.42141 0.32509 0.05870
 H796 H 0.44295 0.19302 0.13453
 C797 C 0.63626 0.29036 0.95167
 C798 C 0.60897 0.29433 0.94346
 C799 C 0.59694 0.27830 0.92109
 N800 N 0.56919 0.27843 0.91710
 N801 N 0.55802 0.26374 0.89711
 C802 C 0.57420 0.24852 0.88026
 N803 N 0.60199 0.24863 0.88407
 N804 N 0.61315 0.26318 0.90417
 C805 C 0.56210 0.23208 0.85818
 C806 C 0.53373 0.22716 0.85665
 H807 H 0.59581 0.30885 0.95423
 H808 H 0.57593 0.22386 0.84307
 H809 H 0.64895 0.27479 0.94173
 H810 H 0.52080 0.23591 0.87227
 C811 C 0.39739 0.68047 0.92816
 C812 C 0.39870 0.70930 0.92429
 C813 C 0.41541 0.72233 0.90309
 N814 N 0.42396 0.74913 0.90602
 N815 N 0.43833 0.76166 0.88672
 C816 C 0.44436 0.74799 0.86354
 N817 N 0.43561 0.72125 0.86048
 N818 N 0.42155 0.70857 0.87997
 C819 C 0.45920 0.76213 0.84165
 C820 C 0.47689 0.78448 0.84657
 H821 H 0.38806 0.72302 0.93820
 H822 H 0.45693 0.75427 0.82135
 H823 H 0.41027 0.66666 0.91628
 H824 H 0.48166 0.79028 0.86712
 C825 C 0.68702 0.93217 0.38371
 C826 C 0.68418 0.92176 0.40964
 C827 C 0.70237 0.89954 0.42000
 N828 N 0.70446 0.89532 0.44686
 N829 N 0.72144 0.87579 0.45661
 C830 C 0.73680 0.85960 0.43986
 N831 N 0.73436 0.86348 0.41296
 N832 N 0.71754 0.88320 0.40320
 C833 C 0.75590 0.83830 0.45062
 C834 C 0.76480 0.83955 0.47730
 H835 H 0.66930 0.93115 0.42316
 H836 H 0.76284 0.82187 0.43733
 H837 H 0.70308 0.92392 0.37079
 H838 H 0.75773 0.85712 0.48915
 C839 C 0.29788 0.95562 0.62086
 C840 C 0.27060 0.94672 0.62284
 C841 C 0.25848 0.92756 0.60291
 N842 N 0.23110 0.92157 0.60368
 N843 N 0.21989 0.90456 0.58549
 C844 C 0.23565 0.89285 0.56591
 N845 N 0.26303 0.89874 0.56522
 N846 N 0.27422 0.91580 0.58335
 C847 C 0.22366 0.87407 0.54561
 C848 C 0.19544 0.86846 0.54445
 H849 H 0.25761 0.95455 0.63888
 H850 H 0.23755 0.86408 0.53152
 H851 H 0.31053 0.94834 0.60434
 H852 H 0.18207 0.87685 0.55993
 C853 C 0.31892 0.04875 0.39367
 C854 C 0.29161 0.05773 0.39120
 C855 C 0.27882 0.07795 0.40947
 N856 N 0.25128 0.08278 0.40754
 N857 N 0.23890 0.10066 0.42407
 C858 C 0.25360 0.11448 0.44315
 N859 N 0.28125 0.10983 0.44501
 N860 N 0.29366 0.09179 0.42849
 C861 C 0.23974 0.13415 0.46141
 C862 C 0.21100 0.13629 0.46165
 H863 H 0.27851 0.04874 0.37578
 H864 H 0.25213 0.14717 0.47452
 H865 H 0.33208 0.05710 0.40937
 H866 H 0.19909 0.12407 0.44743
 C867 C 0.69317 0.06337 0.60221
 C868 C 0.72144 0.06846 0.60063
 C869 C 0.73272 0.08934 0.58199
 N870 N 0.75872 0.08631 0.57220
 N871 N 0.76931 0.10543 0.55576
 C872 C 0.75440 0.12848 0.54882
 N873 N 0.72852 0.13164 0.55882
 N874 N 0.71778 0.11232 0.57493
 C875 C 0.76642 0.15054 0.53201
 C876 C 0.78681 0.14503 0.51302
 H877 H 0.73572 0.05589 0.61239
 H878 H 0.75851 0.17165 0.53410
 H879 H 0.67920 0.07356 0.58819
 H880 H 0.79248 0.12362 0.50848
 C881 C 0.94554 0.63403 0.29246
 C882 C 0.92841 0.61174 0.29903
 C883 C 0.90774 0.60032 0.28033
 N884 N 0.89186 0.57858 0.28820
 N885 N 0.87345 0.56742 0.27144
 C886 C 0.87018 0.57761 0.24614
 N887 N 0.88597 0.59948 0.23828
 N888 N 0.90441 0.61066 0.25508
 C889 C 0.85071 0.56457 0.22711
 C890 C 0.83567 0.54088 0.23407
 H891 H 0.93033 0.60201 0.31862
 H892 H 0.84951 0.57268 0.20681
 H893 H 0.94351 0.64412 0.27307
 H894 H 0.83772 0.53274 0.25424
 C895 C 0.94629 0.36850 0.70041
 C896 C 0.93984 0.39686 0.70148
 C897 C 0.92139 0.40813 0.72228
 N898 N 0.92215 0.43567 0.72873
 N899 N 0.90582 0.44591 0.74791
 C900 C 0.88800 0.42899 0.76116
 N901 N 0.88703 0.40154 0.75448
 N902 N 0.90353 0.39126 0.73551
 C903 C 0.86929 0.43992 0.78186
 C904 C 0.87323 0.46582 0.79416
 H905 H 0.94991 0.41128 0.68794
 H906 H 0.85168 0.42722 0.78710
 H907 H 0.93818 0.35453 0.71556
 H908 H 0.89105 0.47804 0.78857
 C909 C 0.05800 0.62028 0.70142
 C910 C 0.06255 0.59157 0.69997
 C911 C 0.08257 0.57784 0.71808
 N912 N 0.07994 0.55036 0.72427
 N913 N 0.09710 0.53827 0.74187
 C914 C 0.11762 0.55322 0.75374
 N915 N 0.12051 0.58053 0.74717
 N916 N 0.10323 0.59266 0.72979
 C917 C 0.13657 0.54061 0.77353
 C918 C 0.13140 0.51507 0.78602
 H919 H 0.04938 0.57877 0.68738
 H920 H 0.15501 0.55220 0.77866
 H921 H 0.06933 0.63250 0.71607
 H922 H 0.11309 0.50351 0.78043
 C923 C 0.06044 0.40114 0.30669
 C924 C 0.06584 0.40231 0.27922
 C925 C 0.08732 0.42042 0.26786
 N926 N 0.08470 0.43005 0.24232
 N927 N 0.10453 0.44548 0.23132
 C928 C 0.12791 0.45150 0.24533
 N929 N 0.13064 0.44167 0.27081
 N930 N 0.11061 0.42660 0.28196
 C931 C 0.15070 0.46681 0.23264
 C932 C 0.14605 0.48609 0.21210
 H933 H 0.05308 0.39041 0.26546
 H934 H 0.17161 0.46303 0.23967
 H935 H 0.07076 0.41544 0.32025
 H936 H 0.12508 0.49236 0.20714
   
