data_POSCAR
  _audit_creation_date              2014-09-24
  _audit_creation_method            'ToBaCCo'
  _symmetry_space_group_name_H-M    'P1'
  _symmetry_Int_Tables_number       1
  _symmetry_cell_setting            triclinic
  loop_
  _symmetry_equiv_pos_as_xyz
 x,y,z
_cell_length_a 26.3364
_cell_length_b 26.0749
_cell_length_c 33.9834
_cell_angle_alpha 89.566100
_cell_angle_beta 90.695500
_cell_angle_gamma 119.867200
loop_
  _atom_site_label
  _atom_site_type_symbol
  _atom_site_fract_x
  _atom_site_fract_y
  _atom_site_fract_z
C1 C -0.03658 0.47426 1.25511
 C2 C 0.02275 0.50792 1.25644
 C3 C 0.05568 0.52388 1.29415
 C4 C 0.05805 0.53096 1.22020
 C5 C -0.06925 0.46167 1.21745
 C6 C -0.07192 0.45038 1.29116
 C7 C 0.09041 0.58360 1.30386
 C8 C 0.12223 0.60037 1.33903
 C9 C 0.12050 0.55734 1.36552
 C10 C 0.08559 0.49720 1.35517
 C11 C 0.05360 0.48066 1.31988
 C12 C 0.04985 0.56810 1.19392
 C13 C 0.08234 0.58743 1.15929
 C14 C 0.12365 0.57020 1.15047
 C15 C 0.13356 0.53521 1.17785
 C16 C 0.10093 0.51573 1.21226
 C17 C -0.06215 0.42852 1.18793
 C18 C -0.09068 0.42025 1.15163
 C19 C -0.12679 0.44499 1.14450
 C20 C -0.13363 0.47811 1.17415
 C21 C -0.10562 0.48582 1.21051
 C22 C -0.10692 0.38903 1.29594
 C23 C -0.14047 0.36571 1.32978
 C24 C -0.14055 0.40338 1.35900
 C25 C -0.10505 0.46500 1.35424
 C26 C -0.07129 0.48825 1.32048
 H27 H 0.09267 0.61749 1.28411
 H28 H 0.14833 0.64726 1.34416
 H29 H 0.08306 0.46258 1.37433
 H30 H 0.02751 0.43422 1.31252
 H31 H 0.01810 0.58175 1.20011
 H32 H 0.07470 0.61530 1.13912
 H33 H 0.10869 0.48812 1.23261
 H34 H -0.03393 0.40987 1.19288
 H35 H -0.08359 0.39551 1.12905
 H36 H -0.16117 0.49758 1.16927
 H37 H -0.11117 0.51184 1.23297
 H38 H -0.10785 0.35921 1.27355
 H39 H -0.16720 0.31818 1.33286
 H40 H -0.10278 0.49533 1.37666
 H41 H -0.04468 0.53575 1.31717
 H42 H 0.16684 0.52320 1.17318
 C43 C 0.53016 0.50000 1.25377
 C44 C 0.50166 0.53156 1.25252
 C45 C 0.48522 0.55094 1.28893
 C46 C 0.48501 0.54802 1.21453
 C47 C 0.54557 0.47995 1.21735
 C48 C 0.54623 0.48266 1.29151
 C49 C 0.42659 0.53523 1.29478
 C50 C 0.41002 0.55291 1.32872
 C51 C 0.45199 0.58684 1.35768
 C52 C 0.51089 0.60355 1.35128
 C53 C 0.52741 0.58590 1.31726
 C54 C 0.44919 0.50480 1.18703
 C55 C 0.43473 0.52109 1.15115
 C56 C 0.45487 0.58115 1.14241
 C57 C 0.49034 0.62407 1.17027
 C58 C 0.50506 0.60770 1.20598
 C59 C 0.58435 0.52066 1.18987
 C60 C 0.59647 0.50082 1.15495
 C61 C 0.56991 0.43983 1.14702
 C62 C 0.53123 0.39941 1.17465
 C63 C 0.51973 0.41923 1.20970
 C64 C 0.60536 0.50317 1.30046
 C65 C 0.62143 0.48756 1.33594
 C66 C 0.57861 0.45001 1.36270
 C67 C 0.51921 0.42954 1.35374
 C68 C 0.50320 0.44570 1.31836
 H69 H 0.39349 0.50901 1.27300
 H70 H 0.36457 0.54077 1.33157
 H71 H 0.54429 0.63043 1.37271
 H72 H 0.57313 0.59976 1.31292
 H73 H 0.43248 0.45838 1.19335
 H74 H 0.40799 0.48625 1.13071
 H75 H 0.53257 0.64171 1.22689
 H76 H 0.60467 0.56772 1.19532
 H77 H 0.62554 0.53322 1.13392
 H78 H 0.51011 0.35229 1.16917
 H79 H 0.48956 0.38721 1.23053
 H80 H 0.63911 0.53178 1.28007
 H81 H 0.66741 0.50402 1.34223
 H82 H 0.48516 0.40163 1.37411
 H83 H 0.45731 0.42936 1.31185
 H84 H 0.50644 0.67055 1.16452
 C85 C 0.53221 1.02304 1.24136
 C86 C 0.50065 0.96305 1.24199
 C87 C 0.48941 0.93003 1.27936
 C88 C 0.47235 0.92733 1.20632
 C89 C 0.54693 1.05685 1.20398
 C90 C 0.55154 1.05769 1.27844
 C91 C 0.53392 0.92469 1.29858
 C92 C 0.52241 0.89303 1.33389
 C93 C 0.46681 0.86808 1.35125
 C94 C 0.42219 0.87323 1.33119
 C95 C 0.43339 0.90330 1.29546
 C96 C 0.48342 0.88193 1.19595
 C97 C 0.45380 0.84487 1.16427
 C98 C 0.41207 0.85223 1.14247
 C99 C 0.40028 0.89707 1.15329
 C100 C 0.43048 0.93465 1.18483
 C101 C 0.53124 1.10040 1.19846
 C102 C 0.54584 1.13374 1.16389
 C103 C 0.57737 1.12469 1.13391
 C104 C 0.59339 1.08108 1.13996
 C105 C 0.57810 1.04734 1.17450
 C106 C 0.51024 1.05404 1.30558
 C107 C 0.52809 1.08694 1.34032
 C108 C 0.58822 1.12519 1.34859
 C109 C 0.62929 1.12881 1.32087
 C110 C 0.61116 1.09571 1.28614
 H111 H 0.57731 0.94469 1.28609
 H112 H 0.55747 0.88927 1.34811
 H113 H 0.37780 0.85238 1.34185
 H114 H 0.39843 0.90635 1.28048
 H115 H 0.51471 0.87488 1.21267
 H116 H 0.46262 0.80957 1.15748
 H117 H 0.42030 0.96854 1.19307
 H118 H 0.50754 1.10864 1.22107
 H119 H 0.53343 1.16735 1.16194
 H120 H 0.61793 1.07298 1.11791
 H121 H 0.59132 1.01439 1.17850
 H122 H 0.46389 1.02592 1.29967
 H123 H 0.49399 1.08177 1.35995
 H124 H 0.67580 1.15768 1.32591
 H125 H 0.64367 1.09949 1.26532
 H126 H 0.36786 0.90311 1.13722
 C127 C 1.02629 0.52443 0.74686
 C128 C 0.96691 0.49955 0.74564
 C129 C 0.93299 0.48373 0.70808
 C130 C 0.93252 0.48671 0.78227
 C131 C 1.05950 0.54248 0.78469
 C132 C 1.06154 0.53662 0.71068
 C133 C 0.89694 0.50789 0.69950
 C134 C 0.86327 0.49248 0.66496
 C135 C 0.86398 0.45172 0.63858
 C136 C 0.90071 0.42795 0.64697
 C137 C 0.93468 0.44365 0.68152
 C138 C 0.93955 0.53242 0.80727
 C139 C 0.90797 0.51930 0.84225
 C140 C 0.86932 0.46035 0.85299
 C141 C 0.86151 0.41473 0.82740
 C142 C 0.89272 0.42792 0.79230
 C143 C 1.04983 0.50107 0.81438
 C144 C 1.08066 0.51901 0.85010
 C145 C 1.12266 0.57915 0.85680
 C146 C 1.13189 0.62020 0.82666
 C147 C 1.10100 0.60205 0.79104
 C148 C 1.09712 0.51122 0.70615
 C149 C 1.13205 0.52356 0.67286
 C150 C 1.13326 0.56263 0.64358
 C151 C 1.09672 0.58765 0.64828
 C152 C 1.06155 0.57485 0.68151
 H153 H 0.89498 0.53887 0.71962
 H154 H 0.83569 0.51168 0.65919
 H155 H 0.90372 0.39760 0.62690
 H156 H 0.96188 0.42416 0.68770
 H157 H 0.96956 0.57811 0.79970
 H158 H 0.91406 0.55524 0.86115
 H159 H 0.88637 0.39219 0.77310
 H160 H 1.01827 0.45475 0.80987
 H161 H 1.07079 0.48506 0.87184
 H162 H 1.16363 0.66668 0.83044
 H163 H 1.10907 0.63472 0.76845
 H164 H 1.09776 0.48165 0.72846
 H165 H 1.15908 0.50318 0.67045
 H166 H 1.09410 0.61678 0.62667
 H167 H 1.03467 0.59524 0.68466
 H168 H 0.83059 0.36895 0.83397
 C169 C 0.49885 0.53173 0.74583
 C170 C 0.52767 0.50063 0.74719
 C171 C 0.54685 0.48381 0.71111
 C172 C 0.53996 0.47988 0.78497
 C173 C 0.47819 0.54643 0.78207
 C174 C 0.48590 0.55231 0.70827
 C175 C 0.50648 0.44948 0.68173
 C176 C 0.52501 0.43167 0.64880
 C177 C 0.58423 0.44729 0.64505
 C178 C 0.62445 0.48226 0.67431
 C179 C 0.60588 0.49994 0.70719
 C180 C 0.51749 0.41917 0.79097
 C181 C 0.52859 0.39851 0.82616
 C182 C 0.56316 0.43815 0.85582
 C183 C 0.58559 0.49920 0.84984
 C184 C 0.57427 0.51985 0.81456
 C185 C 0.50048 0.60584 0.79230
 C186 C 0.48255 0.62054 0.82681
 C187 C 0.44113 0.57616 0.85123
 C188 C 0.41836 0.51648 0.84073
 C189 C 0.43668 0.50179 0.80630
 C190 C 0.53093 0.59105 0.68322
 C191 C 0.51765 0.61140 0.64854
 C192 C 0.45923 0.59285 0.63820
 C193 C 0.41432 0.55439 0.66360
 C194 C 0.42764 0.53451 0.69832
 H195 H 0.46058 0.43602 0.68451
 H196 H 0.49292 0.40619 0.62639
 H197 H 0.67030 0.49520 0.67201
 H198 H 0.63758 0.52622 0.72968
 H199 H 0.49092 0.38770 0.76844
 H200 H 0.51063 0.35134 0.83004
 H201 H 0.59228 0.56694 0.81029
 H202 H 0.53251 0.64077 0.77384
 H203 H 0.50088 0.66676 0.83439
 H204 H 0.38743 0.48110 0.85936
 H205 H 0.41887 0.45569 0.79864
 H206 H 0.57625 0.60607 0.69081
 H207 H 0.55301 0.64172 0.62976
 H208 H 0.36898 0.54084 0.65735
 H209 H 0.39241 0.50523 0.71757
 H210 H 0.61124 0.53108 0.87232
 C211 C 0.47970 -0.03829 0.75697
 C212 C 0.50573 0.02165 0.75702
 C213 C 0.51566 0.05501 0.71971
 C214 C 0.52674 0.05692 0.79365
 C215 C 0.46808 -0.07373 0.79345
 C216 C 0.45921 -0.07223 0.71988
 C217 C 0.57288 0.09070 0.70613
 C218 C 0.58282 0.12045 0.67020
 C219 C 0.53552 0.11539 0.64745
 C220 C 0.47837 0.08080 0.66168
 C221 C 0.46843 0.05042 0.69739
 C222 C 0.56784 0.05327 0.81839
 C223 C 0.58937 0.08907 0.85178
 C224 C 0.57003 0.12887 0.86117
 C225 C 0.52885 0.13248 0.83625
 C226 C 0.50761 0.09691 0.80276
 C227 C 0.43176 -0.07245 0.82273
 C228 C 0.41635 -0.11068 0.85507
 C229 C 0.43698 -0.15135 0.85868
 C230 C 0.47489 -0.15077 0.82963
 C231 C 0.48973 -0.11291 0.79726
 C232 C 0.39925 -0.11022 0.71371
 C233 C 0.37901 -0.14209 0.67877
 C234 C 0.41833 -0.13747 0.64941
 C235 C 0.47891 -0.09912 0.65599
 C236 C 0.49895 -0.06697 0.69095
 H237 H 0.60978 0.09493 0.72319
 H238 H 0.62753 0.14831 0.66076
 H239 H 0.44135 0.07695 0.64496
 H240 H 0.42400 0.02334 0.70767
 H241 H 0.58407 0.02358 0.81142
 H242 H 0.62165 0.08602 0.87019
 H243 H 0.47645 0.10086 0.78371
 H244 H 0.41416 -0.04284 0.82003
 H245 H 0.38830 -0.10761 0.87666
 H246 H 0.49206 -0.18086 0.83133
 H247 H 0.51768 -0.11466 0.77480
 H248 H 0.36804 -0.11469 0.73586
 H249 H 0.33223 -0.17092 0.67491
 H250 H 0.51143 -0.09277 0.63454
 H251 H 0.54551 -0.03793 0.69550
 H252 H 0.51427 0.16387 0.84174
 O253 O 0.39635 0.62570 0.95953
 O254 O 0.39280 0.72356 0.95110
 C255 C 0.36517 0.75176 0.94802
 O256 O 0.32429 0.74384 0.97113
 O257 O 0.22666 0.64399 0.96180
 C258 C 0.19962 0.58908 0.95404
 O259 O 0.20803 0.55186 0.97310
 O260 O 0.30369 0.55392 0.95155
 C261 C 0.35653 0.58178 0.94074
 O262 O 0.40583 0.64283 1.03848
 O263 O 0.40783 0.74263 1.02922
 C264 C 0.37537 0.75055 1.05280
 O265 O 0.31995 0.72432 1.04941
 O266 O 0.21904 0.62683 1.04121
 C267 C 0.21550 0.58264 1.05988
 O268 O 0.24053 0.55461 1.04882
 O269 O 0.33317 0.55099 1.02760
 C270 C 0.37840 0.58808 1.04654
 Cr271 Cr 0.39768 0.68204 0.99472
 Cr272 Cr 0.27379 0.68306 1.00568
 Cr273 Cr 0.27291 0.55604 1.00025
 O274 O 0.31483 0.64049 1.00020
 O275 O 0.59603 0.36231 0.95807
 O276 O 0.57230 0.25354 0.96729
 C277 C 0.60126 0.23594 0.94741
 O278 O 0.65449 0.25243 0.95435
 O279 O 0.76194 0.33662 0.96340
 C280 C 0.77806 0.38505 0.94523
 O281 O 0.76327 0.42234 0.95546
 O282 O 0.68021 0.44596 0.96880
 C283 C 0.63255 0.41564 0.94986
 O284 O 0.60048 0.37735 1.03717
 O285 O 0.58239 0.27075 1.04607
 C286 C 0.60256 0.23665 1.05348
 O287 O 0.64229 0.23554 1.03314
 O288 O 0.74848 0.32232 1.04226
 C289 C 0.78157 0.37575 1.05173
 O290 O 0.78172 0.41885 1.03384
 O291 O 0.69602 0.43824 1.04697
 C292 C 0.64312 0.41816 1.05631
 Cr293 Cr 0.59104 0.31711 1.00206
 Cr294 Cr 0.70073 0.28900 0.99836
 Cr295 Cr 0.72817 0.42800 1.00122
 O296 O 0.67334 0.34470 1.00058
 O297 O 0.64979 0.39357 0.54844
 O298 O 0.75034 0.40146 0.53575
 C299 C 0.76257 0.36444 0.55163
 O300 O 0.74004 0.31119 0.54054
 O301 O 0.64469 0.21032 0.52982
 C302 C 0.60222 0.20145 0.55183
 O303 O 0.57093 0.22523 0.54580
 O304 O 0.56043 0.31872 0.53616
 C305 C 0.59582 0.36365 0.55597
 O306 O 0.63193 0.39887 0.46984
 O307 O 0.73145 0.40440 0.45743
 C308 C 0.75785 0.37797 0.44611
 O309 O 0.75139 0.33085 0.46208
 O310 O 0.65427 0.23240 0.45086
 C311 C 0.59950 0.20366 0.44502
 O312 O 0.56347 0.20774 0.46737
 O313 O 0.56087 0.30588 0.45787
 C314 C 0.58753 0.36080 0.45026
 Cr315 Cr 0.68934 0.39626 0.50278
 Cr316 Cr 0.69577 0.27262 0.49598
 Cr317 Cr 0.56724 0.26613 0.50174
 O318 O 0.65105 0.31191 0.50015
 O319 O 0.33297 0.58119 0.53051
 O320 O 0.24498 0.59768 0.54433
 C321 C 0.22432 0.63118 0.55188
 O322 O 0.23772 0.67771 0.53240
 O323 O 0.34371 0.76391 0.54613
 C324 C 0.39814 0.78479 0.55199
 O325 O 0.43006 0.77412 0.52951
 O326 O 0.41485 0.66800 0.54013
 C327 C 0.38080 0.61407 0.54877
 O328 O 0.31523 0.58624 0.45214
 O329 O 0.22557 0.59989 0.46550
 C330 C 0.22474 0.64175 0.44630
 O331 O 0.25683 0.69587 0.45508
 O332 O 0.35956 0.78703 0.46854
 C333 C 0.39671 0.78670 0.44536
 O334 O 0.41934 0.75423 0.45073
 O335 O 0.40988 0.65113 0.46165
 C336 C 0.36851 0.60880 0.44273
 Cr337 Cr 0.28159 0.59431 0.49814
 Cr338 Cr 0.30072 0.72926 0.50050
 Cr339 Cr 0.41551 0.71071 0.49565
 O340 O 0.33255 0.67780 0.49815
 C341 C 0.43684 0.60801 0.39379
 C342 C 0.38238 0.58433 0.40809
 H343 H 0.47245 0.64466 0.40935
 H344 H 0.34632 0.54650 0.39396
 C345 C 0.45688 0.83717 0.38707
 C346 C 0.41164 0.82495 0.41054
 H347 H 0.48817 0.82400 0.39666
 H348 H 0.38355 0.84339 0.40454
 C349 C 0.15174 0.57116 0.39960
 C350 C 0.18750 0.62882 0.41388
 H351 H 0.14986 0.53519 0.41702
 H352 H 0.18890 0.66640 0.39932
 C353 C 0.59753 0.43300 0.39937
 C354 C 0.56524 0.38046 0.41687
 H355 H 0.64150 0.46251 0.41022
 H356 H 0.52318 0.34866 0.40443
 C357 C 0.60917 0.16054 0.38280
 C358 C 0.57529 0.16323 0.41112
 H359 H 0.65621 0.18850 0.38605
 H360 H 0.52817 0.13729 0.40954
 C361 C 0.82196 0.37717 0.39391
 C362 C 0.79811 0.40466 0.41291
 H363 H 0.81066 0.33263 0.40249
 H364 H 0.80580 0.44735 0.40267
 C365 C 0.58048 0.41682 1.11010
 C366 C 0.63148 0.44421 1.09101
 H367 H 0.54656 0.37380 1.09995
 H368 H 0.66739 0.48483 1.10266
 C369 C 0.84181 0.43696 1.10673
 C370 C 0.82092 0.38735 1.08560
 H371 H 0.83048 0.47020 1.09821
 H372 H 0.82748 0.35157 1.09574
 C373 C 0.59533 0.15865 1.09901
 C374 C 0.57850 0.19757 1.08794
 H375 H 0.62486 0.15298 1.07990
 H376 H 0.54658 0.20268 1.10448
 C377 C 0.43931 0.60138 1.10548
 C378 C 0.39836 0.56540 1.07958
 H379 H 0.46030 0.64872 1.10066
 H380 H 0.37491 0.51810 1.08396
 C381 C 0.15658 0.59049 1.11315
 C382 C 0.18055 0.56164 1.09591
 H383 H 0.16010 0.62961 1.09914
 H384 H 0.17523 0.52113 1.10866
 C385 C 0.37966 0.81259 1.10915
 C386 C 0.40540 0.79187 1.08539
 H387 H 0.33490 0.80197 1.10341
 H388 H 0.45148 0.80641 1.08954
 C389 C 0.60610 0.42891 0.61110
 C390 C 0.57219 0.38150 0.58886
 H391 H 0.65265 0.45423 0.60532
 H392 H 0.52609 0.35400 0.59511
 C393 C 0.54476 0.14862 0.61023
 C394 C 0.59001 0.16254 0.58633
 H395 H 0.51295 0.16188 0.60234
 H396 H 0.62013 0.14660 0.59277
 C397 C 0.82579 0.43521 0.60295
 C398 C 0.80489 0.38302 0.58471
 H399 H 0.81114 0.46541 0.59316
 H400 H 0.81616 0.35086 0.59569
 C401 C 0.44650 0.61703 0.60224
 C402 C 0.39603 0.58763 0.58204
 H403 H 0.47984 0.66029 0.59220
 H404 H 0.36399 0.54296 0.59046
 C405 C 0.39498 0.82842 0.61509
 C406 C 0.42648 0.82375 0.58598
 H407 H 0.34763 0.80258 0.61260
 H408 H 0.47369 0.84597 0.58726
 C409 C 0.17126 0.57523 0.61136
 C410 C 0.18218 0.61683 0.58401
 H411 H 0.19494 0.55119 0.60939
 H412 H 0.16241 0.64439 0.58554
 C413 C 0.42437 0.59387 0.88788
 C414 C 0.37229 0.56145 0.90506
 H415 H 0.45522 0.63678 0.90002
 H416 H 0.33935 0.52038 0.89189
 C417 C 0.15699 0.60008 0.89155
 C418 C 0.15659 0.56582 0.92144
 H419 H 0.18807 0.64710 0.89340
 H420 H 0.12835 0.51846 0.92090
 C421 C 0.42114 0.80700 0.88952
 C422 C 0.38080 0.79675 0.91692
 H423 H 0.44198 0.78010 0.89046
 H424 H 0.35686 0.82039 0.91682
 C425 C 0.57421 0.41357 0.89225
 C426 C 0.62004 0.44417 0.91647
 H427 H 0.54523 0.36687 0.89784
 H428 H 0.65138 0.49003 0.91050
 C429 C 0.83564 0.44825 0.88984
 C430 C 0.81504 0.39755 0.91021
 H431 H 0.82830 0.48295 0.90077
 H432 H 0.82470 0.36375 0.90086
 C433 C 0.59673 0.16849 0.89546
 C434 C 0.57135 0.19453 0.91466
 H435 H 0.63903 0.17581 0.90556
 H436 H 0.52766 0.18516 0.90666
   
