data_POSCAR
  _audit_creation_date              2014-09-24
  _audit_creation_method            'ToBaCCo'
  _symmetry_space_group_name_H-M    'P1'
  _symmetry_Int_Tables_number       1
  _symmetry_cell_setting            triclinic
  loop_
  _symmetry_equiv_pos_as_xyz
 x,y,z
_cell_length_a 33.4031
_cell_length_b 34.2052
_cell_length_c 32.4977
_cell_angle_alpha 91.172200
_cell_angle_beta 91.078400
_cell_angle_gamma 93.346900
loop_
  _atom_site_label
  _atom_site_type_symbol
  _atom_site_fract_x
  _atom_site_fract_y
  _atom_site_fract_z
C1 C 0.27237 0.46338 0.99456
 C2 C 0.24737 0.46469 1.03377
 C3 C 0.22270 0.49494 1.03589
 C4 C 0.22428 0.52122 0.99804
 C5 C 0.24032 0.46258 0.95950
 C6 C 0.21536 0.49265 0.96159
 C7 C 0.29327 0.50422 0.99148
 C8 C 0.26879 0.53442 0.99424
 H9 H 0.24803 0.44253 1.05708
 H10 H 0.20384 0.54569 0.99930
 H11 H 0.23603 0.44044 0.93550
 H12 H 0.32538 0.50882 0.98785
 C13 C 0.71782 0.53622 0.00277
 C14 C 0.74743 0.53256 0.03920
 C15 C 0.77368 0.50361 0.03438
 C16 C 0.76673 0.47958 -0.00618
 C17 C 0.74384 0.53937 -0.03553
 C18 C 0.76964 0.51036 -0.04001
 C19 C 0.69722 0.49491 -0.00035
 C20 C 0.72230 0.46581 -0.00611
 H21 H 0.74715 0.55089 0.06675
 H22 H 0.78691 0.45516 -0.01015
 H23 H 0.74274 0.56337 -0.05670
 H24 H 0.66581 0.48783 0.00489
 C25 C 0.05665 0.21440 0.50024
 C26 C 0.06010 0.23584 0.46216
 C27 C 0.02833 0.26102 0.45399
 C28 C -0.00266 0.25897 0.48525
 C29 C 0.05048 0.24533 0.53443
 C30 C 0.02010 0.26940 0.52637
 C31 C 0.01511 0.19258 0.49745
 C32 C -0.01553 0.21524 0.48800
 H33 H 0.08380 0.23144 0.44050
 H34 H -0.02826 0.27763 0.47981
 H35 H 0.06801 0.24746 0.56284
 H36 H 0.00920 0.16195 0.50402
 C37 C 0.94682 0.78060 0.48897
 C38 C 0.95736 0.75596 0.45096
 C39 C 0.99097 0.73532 0.45551
 C40 C 1.01027 0.73999 0.49894
 C41 C 0.94279 0.74963 0.52303
 C42 C 0.97592 0.72859 0.52799
 C43 C 0.98523 0.80485 0.50136
 C44 C 1.01814 0.78412 0.50625
 H45 H 0.93746 0.75230 0.42430
 H46 H 1.03745 0.72328 0.50362
 H47 H 0.91596 0.74214 0.53980
 H48 H 0.98628 0.83640 0.50582
 C49 C 0.48145 0.04338 0.21729
 C50 C 0.44366 0.03717 0.24340
 C51 C 0.44426 0.00547 0.26835
 C52 C 0.48233 -0.01761 0.26425
 C53 C 0.51665 0.04465 0.24834
 C54 C 0.51682 0.01315 0.27301
 C55 C 0.48317 0.00603 0.19522
 C56 C 0.48416 -0.02756 0.22053
 H57 H 0.41950 0.05694 0.24344
 H58 H 0.48415 -0.04273 0.28513
 H59 H 0.53847 0.06927 0.25179
 H60 H 0.47534 0.00196 0.16292
 C61 C 0.52477 -0.04134 0.79519
 C62 C 0.48908 -0.04517 0.76458
 C63 C 0.48828 -0.01562 0.73741
 C64 C 0.52216 0.01635 0.74378
 C65 C 0.56205 -0.03571 0.76856
 C66 C 0.56110 -0.00537 0.74208
 C67 C 0.51997 -0.00079 0.81565
 C68 C 0.51903 0.02907 0.78887
 H69 H 0.46606 -0.06882 0.76480
 H70 H 0.52059 0.04097 0.72215
 H71 H 0.58637 -0.05529 0.76953
 H72 H 0.51323 0.00421 0.84763
 C73 C 0.31519 0.01827 0.46660
 H74 H 0.31975 0.04080 0.49035
 C75 C 0.33915 0.01914 0.43201
 H76 H 0.36218 0.04250 0.42903
 C77 C 0.27991 -0.03996 0.44187
 H78 H 0.25725 -0.06326 0.44626
 C79 C 0.30356 -0.04042 0.40683
 H80 H 0.29899 -0.06403 0.38422
 N81 N 0.28582 -0.01055 0.47058
 C82 C 0.20608 0.04632 0.55444
 H83 H 0.20535 0.02623 0.57973
 C84 C 0.18241 0.07873 0.55527
 H85 H 0.16307 0.08345 0.58105
 C86 C 0.22987 0.06332 0.48849
 H87 H 0.24713 0.05656 0.46180
 C88 C 0.20696 0.09614 0.48822
 H89 H 0.20676 0.11443 0.46140
 Zn90 Zn 0.25621 -0.00806 0.51933
 N91 N 0.22884 0.03901 0.52116
 C92 C 0.30547 0.02425 0.58487
 N93 N 0.29438 -0.00893 0.56274
 C94 C 0.31396 -0.04234 0.56741
 C95 C 0.34549 -0.04357 0.59592
 C96 C 0.33803 0.02475 0.61257
 C97 C 0.18860 -0.05336 0.49123
 C98 C 0.15848 -0.08344 0.49099
 C99 C 0.18793 -0.10796 0.55308
 C100 C 0.21725 -0.07711 0.55244
 N101 N 0.21735 -0.05080 0.52152
 H102 H 0.29026 0.05081 0.57974
 H103 H 0.30542 -0.06794 0.54846
 H104 H 0.36009 -0.07071 0.59995
 H105 H 0.34741 0.05168 0.62904
 H106 H 0.18901 -0.03179 0.46734
 H107 H 0.13552 -0.08489 0.46693
 H108 H 0.18815 -0.12877 0.57775
 H109 H 0.23940 -0.07403 0.57705
 C110 C 0.18258 0.10371 0.52165
 C111 C 0.33315 -0.01022 0.40150
 C112 C 0.15777 -0.11092 0.52241
 C113 C 0.35896 -0.00931 0.61770
 C114 C 0.70399 0.04169 0.55280
 H115 H 0.70549 0.06590 0.53187
 C116 C 0.68106 0.04376 0.58814
 H117 H 0.66494 0.06970 0.59457
 C118 C 0.72144 -0.02256 0.56882
 H119 H 0.73596 -0.04888 0.56038
 C120 C 0.69896 -0.02166 0.60461
 H121 H 0.69655 -0.04719 0.62378
 N122 N 0.72335 0.00881 0.54371
 C123 C 0.79214 0.06708 0.44981
 H124 H 0.77715 0.05442 0.42251
 C125 C 0.81993 0.09884 0.44610
 H126 H 0.82503 0.11125 0.41612
 C127 C 0.80477 0.06576 0.52171
 H128 H 0.79878 0.05259 0.55110
 C129 C 0.83442 0.09614 0.51899
 H130 H 0.85141 0.10595 0.54636
 Zn131 Zn 0.74825 0.00702 0.49213
 N132 N 0.78453 0.05161 0.48732
 C133 C 0.69613 0.04086 0.43457
 N134 N 0.70567 0.00690 0.45247
 C135 C 0.68227 -0.02671 0.44602
 C136 C 0.64940 -0.02756 0.41872
 C137 C 0.66380 0.04126 0.40689
 C138 C 0.80629 -0.04364 0.51720
 C139 C 0.83058 -0.07547 0.51530
 C140 C 0.79791 -0.09579 0.45080
 C141 C 0.77420 -0.06348 0.45389
 N142 N 0.77849 -0.03835 0.48698
 H143 H 0.71281 0.06801 0.44249
 H144 H 0.68896 -0.05283 0.46239
 H145 H 0.63119 -0.05452 0.41356
 H146 H 0.65701 0.06837 0.39232
 H147 H 0.80970 -0.02294 0.54280
 H148 H 0.85285 -0.07912 0.53936
 H149 H 0.79466 -0.11535 0.42416
 H150 H 0.75318 -0.05809 0.42931
 C151 C 0.84290 0.11250 0.48061
 C152 C 0.67824 0.01170 0.61430
 C153 C 0.82667 -0.10174 0.48166
 C154 C 0.63989 0.00682 0.39896
 C155 C 0.45824 0.19777 1.04030
 H156 H 0.43744 0.19473 1.01436
 C157 C 0.45477 0.17184 1.07268
 H158 H 0.43138 0.14852 1.07166
 C159 C 0.51572 0.23045 1.07216
 H160 H 0.53993 0.25276 1.07124
 C161 C 0.51325 0.20514 1.10533
 H162 H 0.53573 0.20778 1.12984
 N163 N 0.48857 0.22607 1.04041
 C164 C 0.44960 0.31687 0.95933
 H165 H 0.47251 0.31763 0.93622
 C166 C 0.41991 0.34407 0.95865
 H167 H 0.41992 0.36591 0.93498
 C168 C 0.42252 0.28881 1.01965
 H169 H 0.42401 0.26790 1.04397
 C170 C 0.39235 0.31527 1.02003
 H171 H 0.37072 0.31448 1.04447
 Zn172 Zn 0.49321 0.25615 0.99266
 N173 N 0.45051 0.29013 0.98972
 C174 C 0.46764 0.22347 0.91368
 N175 N 0.49187 0.22054 0.94751
 C176 C 0.51723 0.19108 0.95093
 C177 C 0.52040 0.16406 0.91883
 C178 C 0.46955 0.19659 0.88079
 C179 C 0.54720 0.31798 1.01939
 C180 C 0.58221 0.34237 1.01896
 C181 C 0.60827 0.29989 0.96686
 C182 C 0.57253 0.27675 0.96769
 N183 N 0.54275 0.28619 0.99354
 H184 H 0.44712 0.24668 0.91199
 H185 H 0.53563 0.18912 0.97849
 H186 H 0.54107 0.14096 0.92174
 H187 H 0.45047 0.19902 0.85376
 H188 H 0.52306 0.32492 1.03951
 H189 H 0.58488 0.36844 1.03852
 H190 H 0.63140 0.29256 0.94559
 H191 H 0.56852 0.25181 0.94693
 C192 C 0.39138 0.34369 0.98973
 C193 C 0.48272 0.17526 1.10537
 C194 C 0.61276 0.33375 0.99178
 C195 C 0.49680 0.16704 0.88313
 C196 C 0.47827 0.80575 -0.02984
 H197 H 0.45278 0.80594 -0.00981
 C198 C 0.48240 0.83306 -0.06097
 H199 H 0.46005 0.85445 -0.06498
 C200 C 0.53925 0.77849 -0.04837
 H201 H 0.56206 0.75811 -0.04260
 C202 C 0.54450 0.80525 -0.07993
 H203 H 0.57101 0.80505 -0.09861
 N204 N 0.50610 0.77871 -0.02460
 C205 C 0.43791 0.68856 0.04125
 H206 H 0.45796 0.68569 0.06741
 C207 C 0.40224 0.66535 0.03790
 H208 H 0.39517 0.64411 0.06134
 C209 C 0.42388 0.71826 -0.02230
 H210 H 0.43290 0.73821 -0.04619
 C211 C 0.38775 0.69568 -0.02679
 H212 H 0.36902 0.69856 -0.05400
 Zn213 Zn 0.49781 0.74315 0.01864
 N214 N 0.44798 0.71444 0.01148
 C215 C 0.46343 0.78024 0.08660
 N216 N 0.49846 0.77329 0.06788
 C217 C 0.53376 0.79170 0.08080
 C218 C 0.53479 0.81830 0.11393
 C219 C 0.46292 0.80765 0.11896
 C220 C 0.54368 0.68679 -0.01642
 C221 C 0.57487 0.66173 -0.01977
 C222 C 0.59272 0.67595 0.05161
 C223 C 0.56158 0.70144 0.05338
 N224 N 0.53848 0.70707 0.01928
 H225 H 0.43552 0.76641 0.07480
 H226 H 0.56095 0.78670 0.06444
 H227 H 0.56304 0.83337 0.12323
 H228 H 0.43441 0.81499 0.13145
 H229 H 0.52415 0.69102 -0.04270
 H230 H 0.57927 0.64652 -0.04875
 H231 H 0.61075 0.67134 0.07894
 H232 H 0.55579 0.71642 0.08203
 C233 C 0.37654 0.66898 0.00370
 C234 C 0.51559 0.83256 -0.08661
 C235 C 0.60019 0.65655 0.01436
 C236 C 0.49890 0.82735 0.13279
 C237 C 1.04883 0.52828 0.19693
 H238 H 1.02898 0.55185 0.19989
 C239 C 1.07909 0.53082 0.16783
 H240 H 1.08190 0.55601 0.14821
 C241 C 1.07059 0.46745 0.21933
 H242 H 1.06771 0.44293 0.23959
 C243 C 1.10137 0.46890 0.19077
 H244 H 1.12155 0.44528 0.18897
 N245 N 1.04435 0.49644 0.22131
 C246 C 1.00575 0.44963 0.33063
 H247 H 1.00610 0.47821 0.34545
 C248 C 1.01014 0.41662 0.35448
 H249 H 1.01404 0.41993 0.38756
 C250 C 1.00120 0.41015 0.26972
 H251 H 0.99841 0.40794 0.23652
 C252 C 1.00528 0.37628 0.29250
 H253 H 1.00552 0.34802 0.27691
 Zn254 Zn 0.99977 0.49245 0.25745
 N255 N 1.00198 0.44603 0.28894
 C256 C 0.92629 0.45851 0.22083
 N257 N 0.95150 0.49125 0.22484
 C258 C 0.94433 0.52405 0.20354
 C259 C 0.91284 0.52390 0.17486
 C260 C 0.89437 0.45703 0.19216
 C261 C 1.03805 0.55001 0.31083
 C262 C 1.04092 0.58359 0.33632
 C263 C 0.97000 0.59046 0.32513
 C264 C 0.96837 0.55661 0.30024
 N265 N 1.00220 0.53737 0.29317
 H266 H 0.93150 0.43302 0.23872
 H267 H 0.96339 0.55034 0.20834
 H268 H 0.90855 0.54972 0.15690
 H269 H 0.87570 0.43028 0.18762
 H270 H 1.06446 0.53407 0.30490
 H271 H 1.06957 0.59352 0.35015
 H272 H 0.94293 0.60564 0.33039
 H273 H 0.94002 0.54571 0.28665
 C274 C 1.01039 0.37959 0.33528
 C275 C 1.10558 0.50074 0.16445
 C276 C 1.00665 0.60440 0.34316
 C277 C 0.88839 0.48969 0.16803
 C278 C -0.05950 0.47002 0.79909
 H279 H -0.03827 0.44731 0.79924
 C280 C -0.08904 0.47061 0.82895
 H281 H -0.09060 0.44826 0.85208
 C282 C -0.08171 0.52840 0.77057
 H283 H -0.07779 0.55197 0.74923
 C284 C -0.11203 0.52974 0.79940
 H285 H -0.13176 0.55378 0.79930
 N286 N -0.05608 0.49888 0.77094
 C287 C 0.02113 0.45208 0.67765
 H288 H 0.04436 0.47550 0.67872
 C289 C 0.02355 0.42088 0.64983
 H290 H 0.04885 0.42025 0.62950
 C291 C -0.04054 0.42485 0.70237
 H292 H -0.06573 0.42696 0.72252
 C293 C -0.03949 0.39309 0.67449
 H294 H -0.06387 0.37078 0.67325
 Zn295 Zn -0.01076 0.49960 0.73661
 N296 N -0.01053 0.45362 0.70317
 C297 C 0.05916 0.47258 0.77502
 N298 N 0.03486 0.50308 0.77259
 C299 C 0.03948 0.53426 0.79932
 C300 C 0.06874 0.53502 0.83078
 C301 C 0.08883 0.47226 0.80581
 C302 C -0.04466 0.54535 0.67652
 C303 C -0.04700 0.57525 0.64820
 C304 C 0.02140 0.59658 0.66596
 C305 C 0.02182 0.56727 0.69547
 N306 N -0.01097 0.54232 0.70010
 H307 H 0.05447 0.44757 0.75434
 H308 H 0.01932 0.55781 0.79718
 H309 H 0.07134 0.55937 0.85268
 H310 H 0.10733 0.44738 0.80803
 H311 H -0.07003 0.52465 0.68010
 H312 H -0.07480 0.57811 0.63115
 H313 H 0.04803 0.61563 0.66197
 H314 H 0.04863 0.56383 0.71389
 C315 C -0.00747 0.39145 0.64732
 C316 C -0.11501 0.50133 0.82982
 C317 C -0.01325 0.60058 0.64148
 C318 C 0.09303 0.50320 0.83483
 C319 C 0.11546 0.12129 0.50083
 C320 C 0.08619 0.14767 0.49423
 C321 C 0.09185 0.18755 0.50638
 C322 C 0.13118 0.20116 0.52046
 C323 C 0.16109 0.17377 0.52739
 C324 C 0.15259 0.13357 0.51811
 C325 C 0.19907 0.18764 0.54248
 N326 N 0.20723 0.22659 0.54873
 N327 N 0.18004 0.25247 0.54064
 C328 C 0.14260 0.24119 0.52646
 H329 H 0.10933 0.09091 0.49140
 H330 H 0.05936 0.13614 0.47817
 H331 H 0.22244 0.16789 0.54892
 H332 H 0.12280 0.26389 0.51909
 C333 C 0.62076 0.59057 -0.00261
 C334 C 0.64858 0.56242 -0.00652
 C335 C 0.68915 0.56986 0.00566
 C336 C 0.70199 0.60937 0.01676
 C337 C 0.67323 0.63845 0.02020
 C338 C 0.63213 0.62837 0.01152
 C339 C 0.68686 0.67719 0.03043
 N340 N 0.72653 0.68628 0.03678
 N341 N 0.75352 0.65939 0.03310
 C342 C 0.74272 0.62154 0.02303
 H343 H 0.58975 0.58267 -0.01112
 H344 H 0.63741 0.53496 -0.02038
 H345 H 0.66658 0.70058 0.03259
 H346 H 0.76640 0.60191 0.01910
 C347 C 0.85045 -0.16486 0.50509
 C348 C 0.87855 -0.19337 0.50656
 C349 C 0.91251 -0.19179 0.48134
 C350 C 0.91594 -0.16092 0.45202
 C351 C 0.88686 -0.13211 0.45059
 C352 C 0.85450 -0.13380 0.47801
 C353 C 0.89193 -0.10136 0.42263
 N354 N 0.92370 -0.09972 0.39738
 N355 N 0.95099 -0.12646 0.39850
 C356 C 0.94838 -0.15664 0.42486
 H357 H 0.82573 -0.16645 0.52623
 H358 H 0.87367 -0.21565 0.52909
 H359 H 0.87111 -0.07843 0.42067
 H360 H 0.97224 -0.17633 0.42435
 C361 C 0.33088 0.37381 0.96319
 C362 C 0.30202 0.40153 0.96470
 C363 C 0.30325 0.43146 0.99534
 C364 C 0.33511 0.43202 1.02572
 C365 C 0.36453 0.40364 1.02374
 C366 C 0.36210 0.37441 0.99229
 C367 C 0.39625 0.40581 1.05305
 N368 N 0.39798 0.43399 1.08296
 N369 N 0.37035 0.46031 1.08537
 C370 C 0.33926 0.46036 1.05798
 H371 H 0.32868 0.35138 0.93908
 H372 H 0.27900 0.39878 0.94109
 H373 H 0.41993 0.38560 1.05236
 H374 H 0.31864 0.48295 1.06189
 C375 C 0.87948 0.17492 0.50373
 C376 C 0.91300 0.20139 0.50459
 C377 C 0.94443 0.19647 0.47755
 C378 C 0.94070 0.16612 0.44713
 C379 C 0.90816 0.13768 0.44794
 C380 C 0.87701 0.14220 0.47664
 C381 C 0.90943 0.10467 0.42134
 N382 N 0.93912 0.10249 0.39365
 N383 N 0.96816 0.13061 0.39116
 C384 C 0.97003 0.16226 0.41699
 H385 H 0.85607 0.17899 0.52577
 H386 H 0.91559 0.22425 0.52822
 H387 H 0.88781 0.08010 0.42256
 H388 H 0.99448 0.18411 0.41390
 C389 C 0.33777 0.61767 -0.03735
 C390 C 0.31077 0.58514 -0.03978
 C391 C 0.28587 0.57541 -0.00677
 C392 C 0.28503 0.60182 0.02744
 C393 C 0.31227 0.63530 0.02960
 C394 C 0.34055 0.64169 -0.00190
 C395 C 0.31084 0.66108 0.06374
 N396 N 0.28457 0.65318 0.09417
 N397 N 0.25968 0.62132 0.09267
 C398 C 0.25913 0.59539 0.06051
 H399 H 0.35882 0.62223 -0.06200
 H400 H 0.31163 0.56553 -0.06633
 H401 H 0.33009 0.68759 0.06629
 H402 H 0.23806 0.57053 0.06105
 C403 C 0.12014 -0.16843 0.48992
 C404 C 0.08697 -0.19512 0.48661
 C405 C 0.05752 -0.19585 0.51664
 C406 C 0.06303 -0.17127 0.55216
 C407 C 0.09633 -0.14364 0.55527
 C408 C 0.12477 -0.14182 0.52336
 C409 C 0.09890 -0.11765 0.58952
 N410 N 0.07100 -0.12060 0.61926
 N411 N 0.04049 -0.14743 0.61692
 C412 C 0.03550 -0.17280 0.58440
 H413 H 0.14161 -0.16744 0.46533
 H414 H 0.08294 -0.21351 0.45912
 H415 H 0.12252 -0.09484 0.59296
 H416 H 0.01019 -0.19404 0.58408
 C417 C 0.67342 0.36991 1.02117
 C418 C 0.70209 0.40124 1.02107
 C419 C 0.70537 0.42546 0.98701
 C420 C 0.68184 0.41604 0.95109
 C421 C 0.65245 0.38451 0.95119
 C422 C 0.64748 0.36207 0.98717
 C423 C 0.62742 0.37821 0.91599
 N424 N 0.63258 0.40127 0.88284
 N425 N 0.66060 0.43057 0.88262
 C426 C 0.68518 0.43889 0.91567
 H427 H 0.66982 0.35308 1.04887
 H428 H 0.71925 0.40873 1.04905
 H429 H 0.60354 0.35556 0.91443
 H430 H 0.70702 0.46337 0.91405
 C431 C 0.49516 0.10785 1.12267
 C432 C 0.49594 0.07676 1.14920
 C433 C 0.48312 0.07999 1.19026
 C434 C 0.47450 0.11815 1.20540
 C435 C 0.47354 0.14993 1.17781
 C436 C 0.48320 0.14417 1.13609
 C437 C 0.46305 0.18664 1.19295
 N438 N 0.45574 0.19175 1.23350
 N439 N 0.45828 0.16264 1.25980
 C440 C 0.46760 0.12627 1.24728
 H441 H 0.50442 0.10358 1.09117
 H442 H 0.50754 0.05031 1.13679
 H443 H 0.46090 0.21138 1.17299
 H444 H 0.47021 0.10456 1.27053
 C445 C -0.00097 0.67021 0.62158
 C446 C -0.00419 0.70115 0.59460
 C447 C -0.02276 0.69508 0.55590
 C448 C -0.03753 0.65690 0.54368
 C449 C -0.03170 0.62490 0.56986
 C450 C -0.01482 0.63187 0.61010
 C451 C -0.04212 0.58689 0.55420
 N452 N -0.06018 0.58182 0.51659
 N453 N -0.06808 0.61210 0.49330
 C454 C -0.05750 0.64943 0.50559
 H455 H 0.01204 0.67645 0.65195
 H456 H 0.00741 0.73021 0.60423
 H457 H -0.03552 0.56108 0.57105
 H458 H -0.06423 0.67283 0.48519
 C459 C 0.52975 0.90103 -0.10514
 C460 C 0.53341 0.93103 -0.13311
 C461 C 0.52714 0.92392 -0.17572
 C462 C 0.52282 0.88402 -0.18997
 C463 C 0.51870 0.85341 -0.16109
 C464 C 0.52120 0.86243 -0.11843
 C465 C 0.51182 0.81465 -0.17592
 N466 N 0.51105 0.80684 -0.21697
 N467 N 0.51659 0.83516 -0.24410
 C468 C 0.52259 0.87329 -0.23211
 H469 H 0.53352 0.90807 -0.07256
 H470 H 0.54139 0.95986 -0.12046
 H471 H 0.50723 0.79044 -0.15532
 H472 H 0.52763 0.89451 -0.25582
 C473 C 0.98548 0.32049 0.37159
 C474 C 0.99005 0.29192 0.40095
 C475 C 1.02739 0.28689 0.42043
 C476 C 1.06136 0.31131 0.40838
 C477 C 1.05652 0.33952 0.37736
 C478 C 1.01807 0.34504 0.36030
 C479 C 1.09021 0.36290 0.36542
 N480 N 1.12600 0.35999 0.38499
 N481 N 1.13014 0.33572 0.41602
 C482 C 1.09915 0.31193 0.42879
 H483 H 0.95588 0.32447 0.35870
 H484 H 0.96375 0.27377 0.40880
 H485 H 1.08832 0.38371 0.34094
 H486 H 1.10451 0.29516 0.45569
 C487 C 0.51646 0.89711 0.14726
 C488 C 0.51179 0.93223 0.16791
 C489 C 0.48769 0.93458 0.20286
 C490 C 0.46853 0.89917 0.21743
 C491 C 0.47543 0.86278 0.19736
 C492 C 0.49806 0.86214 0.16088
 C493 C 0.45868 0.82807 0.21402
 N494 N 0.43357 0.82982 0.24616
 N495 N 0.42394 0.86392 0.26246
 C496 C 0.43998 0.89851 0.24883
 H497 H 0.53370 0.89764 0.11935
 H498 H 0.52766 0.95804 0.15608
 H499 H 0.46522 0.79959 0.20168
 H500 H 0.42890 0.92484 0.26177
 C501 C -0.00342 0.32144 0.62632
 C502 C 0.00424 0.29245 0.59707
 C503 C 0.00981 0.30155 0.55551
 C504 C 0.00619 0.34098 0.54336
 C505 C -0.00374 0.36990 0.57276
 C506 C -0.00652 0.36039 0.61483
 C507 C -0.00991 0.40797 0.55915
 N508 N -0.00370 0.41704 0.51932
 N509 N 0.00841 0.39067 0.49236
 C510 C 0.01389 0.35328 0.50321
 H511 H -0.00557 0.31366 0.65838
 H512 H 0.00669 0.26268 0.60718
 H513 H -0.01967 0.43058 0.57977
 H514 H 0.02530 0.33405 0.48074
 C515 C 0.46872 0.10923 0.84365
 C516 C 0.47441 0.07524 0.82076
 C517 C 0.51154 0.06911 0.80310
 C518 C 0.54247 0.09918 0.80559
 C519 C 0.53666 0.13375 0.82889
 C520 C 0.50015 0.13776 0.84961
 C521 C 0.56815 0.16287 0.83170
 N522 N 0.60319 0.15731 0.81263
 N523 N 0.60885 0.12458 0.79116
 C524 C 0.57979 0.09528 0.78714
 H525 H 0.44069 0.11189 0.85942
 H526 H 0.45052 0.05238 0.81905
 H527 H 0.56508 0.19005 0.84866
 H528 H 0.58612 0.06943 0.76946
 C529 C 1.01549 0.63650 0.41199
 C530 C 1.01262 0.66838 0.43897
 C531 C 1.00229 0.70502 0.42466
 C532 C 0.99972 0.71036 0.38143
 C533 C 1.00200 0.67771 0.35400
 C534 C 1.00855 0.64025 0.36972
 C535 C 0.99834 0.68380 0.31146
 N536 N 0.99377 0.72036 0.29743
 N537 N 0.99288 0.75117 0.32303
 C538 C 0.99597 0.74747 0.36441
 H539 H 1.02137 0.60820 0.42444
 H540 H 1.01643 0.66351 0.47153
 H541 H 0.99981 0.66000 0.28922
 H542 H 0.99660 0.77368 0.38347
 C543 C 1.12510 0.50044 0.09130
 C544 C 1.15335 0.49928 0.06032
 C545 C 1.19440 0.49975 0.07002
 C546 C 1.20727 0.50374 0.11185
 C547 C 1.17850 0.50465 0.14339
 C548 C 1.13707 0.50215 0.13290
 C549 C 1.19230 0.50907 0.18449
 N550 N 1.23222 0.51254 0.19317
 N551 N 1.25921 0.51222 0.16356
 C552 C 1.24810 0.50815 0.12329
 H553 H 1.09352 0.49897 0.08277
 H554 H 1.14299 0.49690 0.02854
 H555 H 1.17180 0.51042 0.20976
 H556 H 1.27122 0.50949 0.10062
 C557 C 0.60964 0.01445 0.64048
 C558 C 0.58152 0.01089 0.67136
 C559 C 0.59319 0.00381 0.71205
 C560 C 0.63479 0.00439 0.72231
 C561 C 0.66348 0.00756 0.69065
 C562 C 0.65050 0.01149 0.64929
 C563 C 0.70441 0.00779 0.70164
 N564 N 0.71574 0.00572 0.74178
 N565 N 0.68895 0.00377 0.77159
 C566 C 0.64898 0.00332 0.76331
 H567 H 0.59925 0.01822 0.60910
 H568 H 0.55022 0.01237 0.66287
 H569 H 0.72752 0.01034 0.67884
 H570 H 0.62889 0.00320 0.78897
 C571 C -0.17292 0.47473 0.86928
 C572 C -0.20072 0.47700 0.90056
 C573 C -0.20046 0.50993 0.92689
 C574 C -0.17019 0.54049 0.92280
 C575 C -0.14152 0.53789 0.89135
 C576 C -0.14359 0.50506 0.86382
 C577 C -0.11058 0.56761 0.88965
 N578 N -0.10901 0.59796 0.91721
 N579 N -0.13587 0.60039 0.94671
 C580 C -0.16614 0.57266 0.95062
 H581 H -0.17439 0.44913 0.84899
 H582 H -0.22277 0.45288 0.90408
 H583 H -0.08710 0.56674 0.86732
 H584 H -0.18591 0.57558 0.97616
 C585 C 0.40070 -0.01129 0.37248
 C586 C 0.42742 -0.00805 0.34034
 C587 C 0.41376 -0.00298 0.29993
 C588 C 0.37189 -0.00387 0.29146
 C589 C 0.34459 -0.00634 0.32440
 C590 C 0.35936 -0.00977 0.36529
 C591 C 0.30343 -0.00446 0.31520
 N592 N 0.29056 -0.00248 0.27551
 N593 N 0.31604 -0.00205 0.24448
 C594 C 0.35618 -0.00280 0.25106
 H595 H 0.41246 -0.01422 0.40351
 H596 H 0.45921 -0.00815 0.34744
 H597 H 0.28132 -0.00448 0.33903
 H598 H 0.37531 -0.00308 0.22461
 C599 C 0.15367 0.52952 0.87397
 C600 C 0.18314 0.52700 0.90468
 C601 C 0.18148 0.49602 0.93220
 C602 C 0.14834 0.46821 0.93027
 C603 C 0.11815 0.47098 0.89934
 C604 C 0.12162 0.50124 0.87015
 C605 C 0.08500 0.44360 0.89918
 N606 N 0.08281 0.41518 0.92766
 N607 N 0.11134 0.41239 0.95644
 C608 C 0.14394 0.43792 0.95878
 H609 H 0.15650 0.55308 0.85224
 H610 H 0.20815 0.54867 0.90616
 H611 H 0.06050 0.44482 0.87713
 H612 H 0.16576 0.43459 0.98327
 C613 C 0.60510 -0.01789 0.33484
 C614 C 0.57550 -0.01618 0.30424
 C615 C 0.54567 0.01066 0.30756
 C616 C 0.54416 0.03478 0.34338
 C617 C 0.57385 0.03259 0.37484
 C618 C 0.60533 0.00692 0.36974
 C619 C 0.57054 0.05575 0.41078
 N620 N 0.54005 0.08001 0.41427
 N621 N 0.51250 0.08248 0.38444
 C622 C 0.51347 0.06070 0.34920
 H623 H 0.62874 -0.03790 0.33065
 H624 H 0.57657 -0.03509 0.27717
 H625 H 0.59148 0.05440 0.43640
 H626 H 0.48986 0.06337 0.32645
 C627 C 0.81873 0.48927 0.14020
 C628 C 0.79145 0.49309 0.10770
 C629 C 0.80424 0.49559 0.06680
 C630 C 0.84572 0.49242 0.05874
 C631 C 0.87323 0.48775 0.09184
 C632 C 0.85966 0.48753 0.13281
 C633 C 0.91398 0.48402 0.08299
 N634 N 0.92647 0.48615 0.04367
 N635 N 0.90099 0.49183 0.01272
 C636 C 0.86133 0.49521 0.01900
 H637 H 0.80800 0.48904 0.17145
 H638 H 0.76003 0.49501 0.11469
 H639 H 0.93602 0.47933 0.10692
 H640 H 0.84278 0.50031 -0.00710
 C641 C 0.39048 0.00562 0.68642
 C642 C 0.42149 0.00379 0.71544
 C643 C 0.45669 -0.01410 0.70547
 C644 C 0.46130 -0.02972 0.66537
 C645 C 0.43084 -0.02574 0.63505
 C646 C 0.39429 -0.00937 0.64623
 C647 C 0.43852 -0.03775 0.59439
 N648 N 0.47286 -0.05529 0.58578
 N649 N 0.50023 -0.06129 0.61492
 C650 C 0.49556 -0.04924 0.65443
 H651 H 0.36298 0.01827 0.69569
 H652 H 0.41773 0.01577 0.74616
 H653 H 0.41794 -0.03293 0.56922
 H654 H 0.51881 -0.05472 0.67683
   
