data_POSCAR
  _audit_creation_date              2014-09-24
  _audit_creation_method            'ToBaCCo'
  _symmetry_space_group_name_H-M    'P1'
  _symmetry_Int_Tables_number       1
  _symmetry_cell_setting            triclinic
  loop_
  _symmetry_equiv_pos_as_xyz
 x,y,z
_cell_length_a 51.6805
_cell_length_b 30.4216
_cell_length_c 16.5553
_cell_angle_alpha 90.000400
_cell_angle_beta 89.999300
_cell_angle_gamma 89.999200
loop_
  _atom_site_label
  _atom_site_type_symbol
  _atom_site_fract_x
  _atom_site_fract_y
  _atom_site_fract_z
C1 C 0.72931 0.26783 0.54443
 C2 C 0.72948 0.26780 0.45919
 C3 C 0.75057 0.24987 0.41749
 C4 C 0.77155 0.23188 0.45972
 C5 C 0.77138 0.23185 0.54515
 C6 C 0.75026 0.24984 0.58682
 H7 H 0.75013 0.24984 0.65242
 H8 H 0.75060 0.24995 0.35192
 C9 C 0.22955 0.76799 0.54501
 C10 C 0.22938 0.76795 0.45989
 C11 C 0.25026 0.74982 0.41753
 C12 C 0.27131 0.73171 0.45918
 C13 C 0.27149 0.73169 0.54446
 C14 C 0.25058 0.74987 0.58681
 H15 H 0.25061 0.74996 0.65237
 H16 H 0.25013 0.74981 0.35200
 C17 C 0.27034 0.26748 -0.54287
 C18 C 0.27024 0.26764 -0.45777
 C19 C 0.24920 0.24983 -0.41569
 C20 C 0.22816 0.23178 -0.45764
 C21 C 0.22826 0.23161 -0.54309
 C22 C 0.24936 0.24948 -0.58499
 H23 H 0.24951 0.24942 -0.65056
 H24 H 0.24924 0.25004 -0.35012
 C25 C -0.22983 0.76789 -0.54295
 C26 C -0.22973 0.76771 -0.45784
 C27 C -0.25063 0.74946 -0.41572
 C28 C -0.27166 0.73134 -0.45763
 C29 C -0.27176 0.73152 -0.54307
 C30 C -0.25080 0.74983 -0.58502
 H31 H -0.25077 0.75006 -0.65059
 H32 H -0.25048 0.74938 -0.35015
 N33 N 0.02708 1.07865 -0.08613
 N34 N 0.04686 1.10556 -0.09618
 N35 N -0.02740 1.04808 -0.14203
 N36 N -0.04723 1.05323 -0.19131
 N37 N -0.02741 1.07864 -0.08605
 N38 N -0.04727 1.10542 -0.09572
 N39 N 0.02704 1.04807 -0.14208
 N40 N 0.04679 1.05335 -0.19169
 C41 C 0.05899 1.08937 -0.16239
 C42 C -0.05945 1.08918 -0.16175
 N43 N -0.02744 0.92290 -0.08611
 N44 N -0.04722 0.89597 -0.09613
 N45 N 0.02703 0.95346 -0.14204
 N46 N 0.04686 0.94830 -0.19131
 N47 N 0.02704 0.92292 -0.08604
 N48 N 0.04690 0.89614 -0.09568
 N49 N -0.02742 0.95347 -0.14207
 N50 N -0.04716 0.94817 -0.19168
 Mn51 Mn -0.00019 1.00077 -0.14304
 C52 C -0.05936 0.91214 -0.16233
 C53 C 0.05908 0.91236 -0.16171
 N54 N -0.02745 1.07865 0.08791
 N55 N -0.04722 1.10558 0.09803
 N56 N 0.02702 1.04807 0.14380
 N57 N 0.04684 1.05322 0.19313
 N58 N 0.02705 1.07863 0.08783
 N59 N 0.04690 1.10542 0.09757
 N60 N -0.02741 1.04807 0.14385
 N61 N -0.04714 1.05335 0.19351
 Mn62 Mn -0.00018 1.07921 0.00089
 C63 C -0.05934 1.08939 0.16426
 C64 C 0.05907 1.08917 0.16362
 N65 N 0.02708 0.92290 0.08789
 N66 N 0.04685 0.89597 0.09797
 N67 N -0.02739 0.95347 0.14381
 N68 N -0.04721 0.94830 0.19313
 N69 N -0.02741 0.92292 0.08782
 N70 N -0.04725 0.89612 0.09753
 N71 N 0.02705 0.95347 0.14384
 N72 N 0.04677 0.94818 0.19349
 Mn73 Mn -0.00018 0.92235 0.00089
 Mn74 Mn -0.00018 1.00077 0.14480
 Cl75 Cl -0.00018 1.00078 0.00088
 C76 C 0.05897 0.91214 0.16419
 C77 C -0.05943 0.91235 0.16358
 N78 N 0.52748 0.57717 -0.08855
 N79 N 0.54732 0.60398 -0.09828
 N80 N 0.47301 0.54663 -0.14456
 N81 N 0.45323 0.55191 -0.19405
 N82 N 0.47300 0.57718 -0.08856
 N83 N 0.45320 0.60407 -0.09844
 N84 N 0.52746 0.54662 -0.14453
 N85 N 0.54728 0.55180 -0.19388
 C86 C 0.55949 0.58776 -0.16435
 C87 C 0.44103 0.58792 -0.16460
 N88 N 0.47303 0.42145 -0.08856
 N89 N 0.45318 0.39468 -0.09826
 N90 N 0.52750 0.45200 -0.14456
 N91 N 0.54729 0.44675 -0.19403
 N92 N 0.52752 0.42144 -0.08858
 N93 N 0.54734 0.39457 -0.09846
 N94 N 0.47305 0.45201 -0.14454
 N95 N 0.45323 0.44687 -0.19384
 Mn96 Mn 0.50026 0.49931 -0.14554
 C97 C 0.44100 0.41092 -0.16430
 C98 C 0.55950 0.41075 -0.16460
 N99 N 0.47304 0.57717 0.08537
 N100 N 0.45322 0.60401 0.09524
 N101 N 0.52750 0.54661 0.14134
 N102 N 0.54723 0.55192 0.19098
 N103 N 0.52752 0.57718 0.08539
 N104 N 0.54729 0.60412 0.09544
 N105 N 0.47306 0.54660 0.14132
 N106 N 0.45328 0.55180 0.19078
 Mn107 Mn 0.50026 0.57774 -0.00159
 C108 C 0.44107 0.58778 0.16135
 C109 C 0.55942 0.58796 0.16166
 N110 N 0.52748 0.42145 0.08538
 N111 N 0.54731 0.39462 0.09526
 N112 N 0.47302 0.45202 0.14135
 N113 N 0.45327 0.44676 0.19093
 N114 N 0.47299 0.42144 0.08540
 N115 N 0.45320 0.39455 0.09541
 N116 N 0.52745 0.45203 0.14132
 N117 N 0.54723 0.44685 0.19077
 Mn118 Mn 0.50026 0.42088 -0.00160
 Mn119 Mn 0.50026 0.49931 0.14230
 Cl120 Cl 0.50026 0.49931 -0.00161
 C121 C 0.55945 0.41087 0.16136
 C122 C 0.44106 0.41074 0.16160
 C123 C 0.38407 0.39234 0.30123
 C124 C 0.37281 0.35475 0.26745
 C125 C 0.38373 0.33570 0.19842
 C126 C 0.40591 0.35402 0.16355
 C127 C 0.29183 0.28568 0.41239
 C128 C 0.40622 0.41070 0.26648
 C129 C 0.35032 0.33546 0.30464
 C130 C 0.33166 0.31953 0.33714
 C131 C 0.31005 0.30114 0.37686
 C132 C 0.41742 0.39161 0.19749
 H133 H 0.37580 0.40734 0.35468
 H134 H 0.37518 0.30658 0.17181
 H135 H 0.41409 0.33869 0.11033
 H136 H 0.41464 0.43971 0.29383
 C137 C -0.11661 0.89399 0.30221
 C138 C -0.12783 0.85647 0.26806
 C139 C -0.11684 0.83749 0.19909
 C140 C -0.09461 0.85581 0.16465
 C141 C -0.20852 0.78648 0.41226
 C142 C -0.09440 0.91235 0.26789
 C143 C -0.15029 0.83707 0.30494
 C144 C -0.16890 0.82094 0.33722
 C145 C -0.19041 0.80225 0.37676
 C146 C -0.08313 0.89331 0.19899
 H147 H -0.12494 0.90890 0.35566
 H148 H -0.12536 0.80841 0.17225
 H149 H -0.08636 0.84054 0.11147
 H150 H -0.08599 0.94129 0.29550
 C151 C 0.61660 0.66329 0.19875
 C152 C 0.62751 0.64431 0.26788
 C153 C 0.61630 0.60666 0.30159
 C154 C 0.59421 0.58816 0.26670
 C155 C 0.70803 0.71409 0.41412
 C156 C 0.59448 0.64483 0.16374
 C157 C 0.64990 0.66378 0.30529
 C158 C 0.66846 0.67988 0.33804
 C159 C 0.68994 0.69847 0.37814
 C160 C 0.58302 0.60718 0.19764
 H161 H 0.62510 0.69246 0.17220
 H162 H 0.62456 0.59172 0.35512
 H163 H 0.58583 0.55912 0.29402
 H164 H 0.58630 0.66011 0.11047
 C165 C 0.11623 1.10735 0.30236
 C166 C 0.12746 1.14490 0.26839
 C167 C 0.11649 1.16397 0.19948
 C168 C 0.09427 1.14570 0.16491
 C169 C 0.20808 1.21427 0.41402
 C170 C 0.09402 1.08904 0.26793
 C171 C 0.14991 1.16423 0.30545
 C172 C 0.16851 1.18024 0.33801
 C173 C 0.19000 1.19872 0.37802
 C174 C 0.08277 1.10817 0.19909
 H175 H 0.12455 1.09237 0.35576
 H176 H 0.12503 1.19308 0.17277
 H177 H 0.08602 1.16104 0.11179
 H178 H 0.08561 1.06007 0.29542
 C179 C 0.61663 0.39224 -0.30370
 C180 C 0.62788 0.35471 -0.26965
 C181 C 0.61690 0.33574 -0.20063
 C182 C 0.59468 0.35409 -0.16604
 C183 C 0.70895 0.28521 -0.41350
 C184 C 0.59443 0.41062 -0.26924
 C185 C 0.65040 0.33536 -0.30654
 C186 C 0.66908 0.31933 -0.33874
 C187 C 0.69072 0.30080 -0.37815
 C188 C 0.58318 0.39162 -0.20025
 H189 H 0.62494 0.40717 -0.35716
 H190 H 0.62543 0.30667 -0.17380
 H191 H 0.58646 0.33882 -0.11283
 H192 H 0.58602 0.43958 -0.29679
 C193 C 0.11654 0.83755 -0.19689
 C194 C 0.12755 0.85650 -0.26584
 C195 C 0.11633 0.89400 -0.30009
 C196 C 0.09410 0.91236 -0.26589
 C197 C 0.20827 0.78652 -0.40996
 C198 C 0.09429 0.85587 -0.16257
 C199 C 0.15003 0.83709 -0.30262
 C200 C 0.16865 0.82095 -0.33484
 C201 C 0.19016 0.80226 -0.37437
 C202 C 0.08281 0.89334 -0.19701
 H203 H 0.12506 0.80849 -0.16997
 H204 H 0.12468 0.90889 -0.35353
 H205 H 0.08569 0.94128 -0.29358
 H206 H 0.08602 0.84060 -0.10941
 C207 C 0.38394 0.60661 -0.30375
 C208 C 0.37272 0.64416 -0.26965
 C209 C 0.38370 0.66306 -0.20058
 C210 C 0.40589 0.64464 -0.16599
 C211 C 0.29179 0.71415 -0.41347
 C212 C 0.40611 0.58815 -0.26928
 C213 C 0.35023 0.66361 -0.30655
 C214 C 0.33158 0.67974 -0.33875
 C215 C 0.30998 0.69843 -0.37812
 C216 C 0.41737 0.60710 -0.20025
 H217 H 0.37562 0.59173 -0.35725
 H218 H 0.37519 0.69214 -0.17372
 H219 H 0.41412 0.65987 -0.11274
 H220 H 0.41450 0.55919 -0.29686
 C221 C -0.11690 1.16399 -0.19730
 C222 C -0.12789 1.14496 -0.26621
 C223 C -0.11667 1.10742 -0.30029
 C224 C -0.09445 1.08909 -0.26596
 C225 C -0.20848 1.21450 -0.41176
 C226 C -0.09466 1.14569 -0.16285
 C227 C -0.15035 1.16433 -0.30318
 C228 C -0.16894 1.18038 -0.33569
 C229 C -0.19042 1.19892 -0.37568
 C230 C -0.08317 1.10818 -0.19713
 H231 H -0.12542 1.19308 -0.17051
 H232 H -0.12501 1.09247 -0.35369
 H233 H -0.08604 1.06014 -0.29353
 H234 H -0.08640 1.16101 -0.10973
 C235 C 0.61661 0.60616 -0.30317
 C236 C 0.62781 0.64373 -0.26914
 C237 C 0.61684 0.66272 -0.20015
 C238 C 0.59464 0.64436 -0.16559
 C239 C 0.70823 0.71376 -0.41474
 C240 C 0.59443 0.58777 -0.26873
 C241 C 0.65022 0.66319 -0.30623
 C242 C 0.66877 0.67934 -0.33878
 C243 C 0.69021 0.69802 -0.37876
 C244 C 0.58317 0.60682 -0.19983
 H245 H 0.62493 0.59125 -0.35664
 H246 H 0.62535 0.69183 -0.17341
 H247 H 0.58640 0.65965 -0.11241
 H248 H 0.58604 0.55880 -0.29627
 C249 C 0.11626 1.16452 -0.19950
 C250 C 0.12717 1.14546 -0.26855
 C251 C 0.11592 1.10783 -0.30221
 C252 C 0.09380 1.08943 -0.26735
 C253 C 0.20789 1.21457 -0.41482
 C254 C 0.09411 1.14615 -0.16450
 C255 C 0.14960 1.16480 -0.30594
 C256 C 0.16821 1.18076 -0.33869
 C257 C 0.18975 1.19914 -0.37882
 C258 C 0.08261 1.10852 -0.19835
 H259 H 0.12479 1.19367 -0.17297
 H260 H 0.12418 1.09282 -0.35568
 H261 H 0.08539 1.06039 -0.29463
 H262 H 0.08593 1.16149 -0.11128
 C263 C 0.38351 0.33623 -0.19984
 C264 C 0.37252 0.35529 -0.26873
 C265 C 0.38378 0.39279 -0.30284
 C266 C 0.40601 0.41106 -0.26853
 C267 C 0.29163 0.28599 -0.41296
 C268 C 0.40577 0.35446 -0.16541
 C269 C 0.35002 0.33602 -0.30558
 C270 C 0.33137 0.32004 -0.33787
 C271 C 0.30979 0.30156 -0.37744
 C272 C 0.41728 0.39195 -0.19970
 H273 H 0.37496 0.30717 -0.17303
 H274 H 0.37544 0.40777 -0.35622
 H275 H 0.41444 0.44000 -0.29611
 H276 H 0.41402 0.33913 -0.11229
 C277 C -0.11630 0.89348 -0.30205
 C278 C -0.12753 0.85588 -0.26822
 C279 C -0.11660 0.83691 -0.19912
 C280 C -0.09445 0.85533 -0.16423
 C281 C -0.20831 0.78614 -0.41312
 C282 C -0.09417 0.91194 -0.26729
 C283 C -0.14997 0.83646 -0.30543
 C284 C -0.16858 0.82038 -0.33792
 C285 C -0.19014 0.80179 -0.37760
 C286 C -0.08297 0.89293 -0.19823
 H287 H -0.12457 0.90842 -0.35556
 H288 H -0.12512 0.80778 -0.17246
 H289 H -0.08626 0.84006 -0.11096
 H290 H -0.08578 0.94096 -0.29468
 C291 C 0.38409 0.60608 0.30069
 C292 C 0.37288 0.64371 0.26694
 C293 C 0.38379 0.66279 0.19796
 C294 C 0.40596 0.64445 0.16310
 C295 C 0.29254 0.71331 0.41360
 C296 C 0.40622 0.58771 0.26597
 C297 C 0.35051 0.66312 0.30433
 C298 C 0.33198 0.67917 0.33717
 C299 C 0.31056 0.69771 0.37745
 C300 C 0.41743 0.60684 0.19707
 H301 H 0.37580 0.59110 0.35414
 H302 H 0.37528 0.69196 0.17143
 H303 H 0.41417 0.65980 0.10994
 H304 H 0.41462 0.55868 0.29330
 C305 C -0.11656 1.16459 0.20170
 C306 C -0.12745 1.14550 0.27077
 C307 C -0.11620 1.10785 0.30433
 C308 C -0.09410 1.08945 0.26935
 C309 C -0.20815 1.21462 0.41712
 C310 C -0.09443 1.14622 0.16658
 C311 C -0.14986 1.16484 0.30826
 C312 C -0.16846 1.18078 0.34107
 C313 C -0.19000 1.19916 0.38120
 C314 C -0.08293 1.10856 0.20033
 H315 H -0.12510 1.19376 0.17525
 H316 H -0.12444 1.09283 0.35781
 H317 H -0.08569 1.06039 0.29655
 H318 H -0.08627 1.16157 0.11335
 C319 C 0.61647 0.39274 0.30066
 C320 C 0.62770 0.35512 0.26696
 C321 C 0.61679 0.33598 0.19802
 C322 C 0.59461 0.35426 0.16316
 C323 C 0.70819 0.28603 0.41363
 C324 C 0.59431 0.41105 0.26595
 C325 C 0.65010 0.33581 0.30433
 C326 C 0.66866 0.31987 0.33718
 C327 C 0.69012 0.30149 0.37747
 C328 C 0.58311 0.39186 0.19708
 H329 H 0.62474 0.40777 0.35408
 H330 H 0.62533 0.30682 0.17153
 H331 H 0.58640 0.33887 0.11003
 H332 H 0.58589 0.44007 0.29324
 C333 C 0.11586 0.89356 0.30411
 C334 C 0.12710 0.85593 0.27039
 C335 C 0.11620 0.83692 0.20128
 C336 C 0.09406 0.85533 0.16629
 C337 C 0.20791 0.78637 0.41538
 C338 C 0.09375 0.91199 0.26925
 C339 C 0.14954 0.83656 0.30769
 C340 C 0.16815 0.82053 0.34023
 C341 C 0.18972 0.80199 0.37993
 C342 C 0.08257 0.89295 0.20019
 H343 H 0.12412 0.90852 0.35762
 H344 H 0.12473 0.80778 0.17471
 H345 H 0.08589 0.84003 0.11302
 H346 H 0.08535 0.94102 0.29656
   
