data_POSCAR
  _audit_creation_date              2014-09-24
  _audit_creation_method            'ToBaCCo'
  _symmetry_space_group_name_H-M    'P1'
  _symmetry_Int_Tables_number       1
  _symmetry_cell_setting            triclinic
  loop_
  _symmetry_equiv_pos_as_xyz
 x,y,z
_cell_length_a 44.0716
_cell_length_b 44.0349
_cell_length_c 44.1110
_cell_angle_alpha 89.886500
_cell_angle_beta 90.006900
_cell_angle_gamma 90.044500
loop_
  _atom_site_label
  _atom_site_type_symbol
  _atom_site_fract_x
  _atom_site_fract_y
  _atom_site_fract_z
C1 C 0.24999 0.49981 1.00037
 C2 C 0.75000 0.50011 -0.00007
 C3 C 0.00024 0.25011 0.50100
 C4 C 0.99981 0.74976 0.49975
 C5 C 0.50014 -0.00024 0.24993
 C6 C 0.49987 0.00018 0.74955
 C7 C 0.29647 0.02282 0.46304
 H8 H 0.29729 0.04019 0.48034
 C9 C 0.31698 0.02359 0.43894
 H10 H 0.33363 0.04165 0.43756
 C11 C 0.27436 -0.02248 0.44411
 H12 H 0.25814 -0.04072 0.44652
 C13 C 0.29449 -0.02256 0.41963
 H14 H 0.29354 -0.04072 0.40313
 N15 N 0.27560 0.00012 0.46510
 C16 C 0.20367 0.03652 0.52230
 H17 H 0.20282 0.01916 0.53967
 C18 C 0.18320 0.06069 0.52303
 H19 H 0.16656 0.06205 0.54106
 C20 C 0.22579 0.05557 0.47707
 H21 H 0.24200 0.05318 0.45887
 C22 C 0.20571 0.08012 0.47694
 H23 H 0.20668 0.09670 0.45879
 Zn24 Zn 0.25004 -0.00006 0.49957
 N25 N 0.22453 0.03449 0.49966
 C26 C 0.27434 0.02240 0.55504
 N27 N 0.27556 -0.00022 0.53408
 C28 C 0.29638 -0.02293 0.53620
 C29 C 0.31687 -0.02368 0.56033
 C30 C 0.29444 0.02251 0.57955
 C31 C 0.20363 -0.03664 0.47677
 C32 C 0.18311 -0.06080 0.47603
 C33 C 0.20552 -0.08021 0.52217
 C34 C 0.22567 -0.05568 0.52205
 N35 N 0.22447 -0.03461 0.49945
 H36 H 0.25816 0.04064 0.55259
 H37 H 0.29719 -0.04032 0.51893
 H38 H 0.33348 -0.04175 0.56175
 H39 H 0.29351 0.04069 0.59603
 H40 H 0.20285 -0.01929 0.45939
 H41 H 0.16649 -0.06215 0.45799
 H42 H 0.20644 -0.09678 0.54034
 H43 H 0.24186 -0.05329 0.54027
 C44 C 0.18420 0.08264 0.50011
 C45 C 0.31601 0.00066 0.41708
 C46 C 0.18404 -0.08273 0.49897
 C47 C 0.31592 -0.00072 0.58216
 C48 C 0.70360 0.02286 0.53633
 H49 H 0.70282 0.04023 0.51897
 C50 C 0.68309 0.02365 0.56044
 H51 H 0.66649 0.04174 0.56174
 C52 C 0.72559 -0.02246 0.55544
 H53 H 0.74176 -0.04072 0.55309
 C54 C 0.70546 -0.02253 0.57992
 H55 H 0.70636 -0.04069 0.59649
 N56 N 0.72441 0.00014 0.53436
 C57 C 0.79641 0.03651 0.47697
 H58 H 0.79721 0.01914 0.45967
 C59 C 0.81694 0.06065 0.47616
 H60 H 0.83359 0.06199 0.45813
 C61 C 0.77434 0.05556 0.52214
 H62 H 0.75813 0.05318 0.54035
 C63 C 0.79449 0.08009 0.52218
 H64 H 0.79356 0.09666 0.54028
 Zn65 Zn 0.74997 -0.00006 0.49989
 N66 N 0.77555 0.03448 0.49963
 C67 C 0.72571 0.02232 0.44429
 N68 N 0.72445 -0.00026 0.46538
 C69 C 0.70360 -0.02298 0.46338
 C70 C 0.68312 -0.02378 0.43924
 C71 C 0.70561 0.02238 0.41977
 C72 C 0.79630 -0.03668 0.52286
 C73 C 0.81678 -0.06084 0.52369
 C74 C 0.79435 -0.08021 0.47760
 C75 C 0.77426 -0.05568 0.47763
 N76 N 0.77548 -0.03462 0.50017
 H77 H 0.74191 0.04057 0.44665
 H78 H 0.70276 -0.04034 0.48075
 H79 H 0.66649 -0.04186 0.43792
 H80 H 0.70658 0.04053 0.40319
 H81 H 0.79711 -0.01934 0.54018
 H82 H 0.83339 -0.06221 0.54175
 H83 H 0.79342 -0.09676 0.45949
 H84 H 0.75809 -0.05327 0.45940
 C85 C 0.81600 0.08259 0.49900
 C86 C 0.68400 0.00072 0.58238
 C87 C 0.81582 -0.08276 0.50082
 C88 C 0.68411 -0.00086 0.41729
 C89 C 0.47704 0.20324 1.03594
 H90 H 0.45968 0.20245 1.01862
 C91 C 0.47626 0.18271 1.06008
 H92 H 0.45818 0.16607 1.06146
 C93 C 0.52233 0.22532 1.05491
 H94 H 0.54058 0.24153 1.05250
 C95 C 0.52240 0.20517 1.07942
 H96 H 0.54056 0.20609 1.09596
 N97 N 0.49974 0.22412 1.03388
 C98 C 0.46330 0.29614 0.97652
 H99 H 0.48064 0.29701 0.95917
 C100 C 0.43915 0.31662 0.97574
 H101 H 0.43777 0.33329 0.95769
 C102 C 0.44432 0.27396 1.02176
 H103 H 0.44674 0.25774 1.03999
 C104 C 0.41979 0.29406 1.02184
 H105 H 0.40325 0.29308 1.03998
 Zn106 Zn 0.49992 0.24977 0.99941
 N107 N 0.46536 0.27525 0.99920
 C108 C 0.47761 0.22551 0.94386
 N109 N 0.50020 0.22431 0.96489
 C110 C 0.52295 0.20354 0.96283
 C111 C 0.52379 0.18310 0.93869
 C112 C 0.47759 0.20545 0.91935
 C113 C 0.53637 0.29617 1.02241
 C114 C 0.56050 0.31671 1.02331
 C115 C 0.58000 0.29450 0.97720
 C116 C 0.55549 0.27433 0.97716
 N117 N 0.53440 0.27542 0.99968
 H118 H 0.45933 0.24163 0.94627
 H119 H 0.54032 0.20274 0.98016
 H120 H 0.54190 0.16654 0.93732
 H121 H 0.45944 0.20637 0.90281
 H122 H 0.51900 0.29687 1.03972
 H123 H 0.56181 0.33325 1.04141
 H124 H 0.59659 0.29367 0.95911
 H125 H 0.55315 0.25821 0.95890
 C126 C 0.41724 0.31560 0.99864
 C127 C 0.49917 0.18366 1.08198
 C128 C 0.58247 0.31589 1.00047
 C129 C 0.50087 0.18404 0.91680
 C130 C 0.47702 0.79657 -0.03648
 H131 H 0.45969 0.79733 -0.01913
 C132 C 0.47614 0.81708 -0.06064
 H133 H 0.45805 0.83367 -0.06200
 C134 C 0.52229 0.77461 -0.05553
 H135 H 0.54056 0.75846 -0.05314
 C136 C 0.52228 0.79474 -0.08006
 H137 H 0.54039 0.79385 -0.09663
 N138 N 0.49975 0.77577 -0.03445
 C139 C 0.46362 0.70367 0.02307
 H140 H 0.48102 0.70287 0.04036
 C141 C 0.43949 0.68313 0.02397
 H142 H 0.43820 0.66648 0.04204
 C143 C 0.44443 0.72576 -0.02212
 H144 H 0.44675 0.74197 -0.04037
 C145 C 0.41992 0.70559 -0.02209
 H146 H 0.40330 0.70652 -0.04016
 Zn147 Zn 0.50006 0.75017 0.00006
 N148 N 0.46556 0.72455 0.00037
 C149 C 0.47777 0.77439 0.05560
 N150 N 0.50032 0.77567 0.03454
 C151 C 0.52302 0.79653 0.03656
 C152 C 0.52384 0.81699 0.06069
 C153 C 0.47773 0.79446 0.08010
 C154 C 0.53656 0.70384 -0.02291
 C155 C 0.56070 0.68335 -0.02377
 C156 C 0.58024 0.70574 0.02226
 C157 C 0.55572 0.72585 0.02226
 N158 N 0.53459 0.72465 -0.00023
 H159 H 0.45952 0.75819 0.05322
 H160 H 0.54036 0.79739 0.01922
 H161 H 0.54191 0.83363 0.06204
 H162 H 0.45960 0.79347 0.09666
 H163 H 0.51916 0.70305 -0.04019
 H164 H 0.56199 0.66676 -0.04182
 H165 H 0.59686 0.70665 0.04033
 H166 H 0.55339 0.74201 0.04049
 C167 C 0.41749 0.68407 0.00115
 C168 C 0.49901 0.81618 -0.08259
 C169 C 0.58269 0.68428 -0.00095
 C170 C 0.50096 0.81596 0.08262
 C171 C 1.03648 0.47682 0.20395
 H172 H 1.01909 0.45948 0.20329
 C173 C 1.06066 0.47581 0.18354
 H174 H 1.06201 0.45759 0.16713
 C175 C 1.05556 0.52231 0.22553
 H176 H 1.05316 0.54071 0.24148
 C177 C 1.08011 0.52215 0.20549
 H178 H 1.09670 0.54030 0.20625
 N179 N 1.03444 0.49974 0.22450
 C180 C 0.97660 0.46426 0.29653
 H181 H 0.95932 0.48169 0.29701
 C182 C 0.97572 0.44045 0.31746
 H183 H 0.95765 0.43944 0.33408
 C184 C 1.02188 0.44479 0.27495
 H185 H 1.04017 0.44691 0.25880
 C186 C 1.02185 0.42059 0.29551
 H187 H 1.03998 0.40401 0.29496
 Zn188 Zn 0.99985 0.50028 0.24991
 N189 N 0.99937 0.46594 0.27576
 C190 C 0.94422 0.47800 0.22563
 N191 N 0.96539 0.50050 0.22431
 C192 C 0.96350 0.52314 0.20335
 C193 C 0.93939 0.52396 0.18284
 C194 C 0.91973 0.47796 0.20550
 C195 C 1.02286 0.53702 0.29599
 C196 C 1.02367 0.56120 0.31639
 C197 C 0.97763 0.58067 0.29383
 C198 C 0.97767 0.55611 0.27381
 N199 N 1.00018 0.53498 0.27515
 H200 H 0.94649 0.45981 0.24192
 H201 H 0.98093 0.54043 0.20247
 H202 H 0.93814 0.54198 0.16613
 H203 H 0.90307 0.45988 0.20652
 H204 H 1.04015 0.51962 0.29690
 H205 H 1.04170 0.56254 0.33303
 H206 H 0.95951 0.59726 0.29283
 H207 H 0.95944 0.55371 0.25763
 C208 C 0.99860 0.41849 0.31699
 C209 C 1.08263 0.49872 0.18428
 C210 C 1.00081 0.58317 0.31534
 C211 C 0.91735 0.50113 0.18390
 C212 C -0.03635 0.47697 0.79685
 H213 H -0.01896 0.45966 0.79780
 C214 C -0.06050 0.47620 0.81731
 H215 H -0.06182 0.45821 0.83405
 C216 C -0.05548 0.52209 0.77446
 H217 H -0.05313 0.54025 0.75815
 C218 C -0.08002 0.52218 0.79453
 H219 H -0.09662 0.54027 0.79345
 N220 N -0.03437 0.49957 0.77587
 C221 C 0.02317 0.46283 0.70439
 H222 H 0.04051 0.48021 0.70345
 C223 C 0.02403 0.43851 0.68416
 H224 H 0.04212 0.43706 0.66760
 C225 C -0.02212 0.44388 0.72653
 H226 H -0.04039 0.44636 0.74264
 C227 C -0.02212 0.41918 0.70668
 H228 H -0.04025 0.40259 0.70774
 Zn229 Zn 0.00016 0.49971 0.75036
 N230 N 0.00044 0.46499 0.72515
 C231 C 0.05573 0.47757 0.77492
 N232 N 0.03467 0.50015 0.77591
 C233 C 0.03668 0.52302 0.79652
 C234 C 0.06079 0.52398 0.81702
 C235 C 0.08022 0.47766 0.79505
 C236 C -0.02280 0.53599 0.70374
 C237 C -0.02364 0.56005 0.68310
 C238 C 0.02249 0.57966 0.70536
 C239 C 0.02247 0.55522 0.72562
 N240 N -0.00009 0.53410 0.72456
 H241 H 0.05336 0.45920 0.75891
 H242 H 0.01933 0.54038 0.79715
 H243 H 0.06213 0.54217 0.83347
 H244 H 0.09677 0.45951 0.79431
 H245 H -0.04013 0.51859 0.70307
 H246 H -0.04172 0.56129 0.66651
 H247 H 0.04061 0.59628 0.70617
 H248 H 0.04072 0.55295 0.74179
 C249 C 0.00114 0.41653 0.68529
 C250 C -0.08249 0.49904 0.81616
 C251 C -0.00076 0.58204 0.68390
 C252 C 0.08271 0.50105 0.81631
 C253 C 0.02731 0.23081 0.50047
 C254 C 0.04904 0.21419 0.50015
 C255 C 0.07434 0.19357 0.49990
 C256 C 0.08764 0.18432 0.52726
 C257 C 0.11099 0.16283 0.52717
 C258 C 0.12112 0.15048 0.49973
 C259 C 0.10811 0.16005 0.47234
 C260 C 0.08476 0.18154 0.47243
 C261 C 0.14392 0.12711 0.49978
 C262 C 0.16254 0.10706 0.49989
 H263 H 0.07964 0.19336 0.54864
 H264 H 0.12079 0.15550 0.54848
 H265 H 0.11569 0.15055 0.45101
 H266 H 0.07453 0.18841 0.45116
 C267 C 0.73067 0.52717 -0.00025
 C268 C 0.71404 0.54891 -0.00040
 C269 C 0.69341 0.57422 -0.00056
 C270 C 0.68359 0.58687 0.02685
 C271 C 0.66212 0.61025 0.02675
 C272 C 0.65039 0.62106 -0.00075
 C273 C 0.66053 0.60868 -0.02817
 C274 C 0.68200 0.58531 -0.02808
 C275 C 0.62707 0.64391 -0.00079
 C276 C 0.60707 0.66257 -0.00085
 H277 H 0.69215 0.57836 0.04826
 H278 H 0.65434 0.61957 0.04809
 H279 H 0.65152 0.61678 -0.04956
 H280 H 0.68933 0.57557 -0.04939
 C281 C 0.97278 -0.23089 0.49982
 C282 C 0.95106 -0.21424 0.49992
 C283 C 0.92578 -0.19359 0.50010
 C284 C 0.91435 -0.18275 0.52766
 C285 C 0.89100 -0.16125 0.52781
 C286 C 0.87900 -0.15051 0.50040
 C287 C 0.89014 -0.16168 0.47284
 C288 C 0.91349 -0.18317 0.47269
 C289 C 0.85618 -0.12716 0.50054
 C290 C 0.83753 -0.10714 0.50066
 H291 H 0.92379 -0.19054 0.54897
 H292 H 0.88263 -0.15268 0.54924
 H293 H 0.88111 -0.15344 0.45152
 H294 H 0.92228 -0.19129 0.45125
 C295 C 0.26931 0.47274 1.00012
 C296 C 0.28592 0.45099 0.99989
 C297 C 0.30654 0.42568 0.99960
 C298 C 0.31640 0.41280 1.02695
 C299 C 0.33787 0.38942 1.02673
 C300 C 0.34954 0.37883 0.99917
 C301 C 0.33936 0.39142 0.97181
 C302 C 0.31790 0.41480 0.97203
 C303 C 0.37287 0.35598 0.99900
 C304 C 0.39287 0.33732 0.99884
 H305 H 0.30788 0.42115 1.04841
 H306 H 0.34568 0.37993 1.04802
 H307 H 0.34833 0.38349 0.95037
 H308 H 0.31054 0.42470 0.95076
 C309 C 0.97322 0.23071 0.50063
 C310 C 0.95150 0.21403 0.50032
 C311 C 0.92621 0.19336 0.49993
 C312 C 0.91608 0.18119 0.47241
 C313 C 0.89269 0.15970 0.47216
 C314 C 0.87934 0.15030 0.49943
 C315 C 0.88918 0.16278 0.52693
 C316 C 0.91258 0.18427 0.52718
 C317 C 0.85646 0.12697 0.49930
 C318 C 0.83777 0.10697 0.49917
 H319 H 0.92656 0.18795 0.45123
 H320 H 0.88534 0.15011 0.45078
 H321 H 0.87910 0.15558 0.54816
 H322 H 0.92034 0.19343 0.54860
 C323 C 0.26937 0.52686 0.00057
 C324 C 0.28603 0.54860 0.00072
 C325 C 0.30669 0.57391 0.00089
 C326 C 0.31830 0.58474 0.02839
 C327 C 0.33979 0.60813 0.02847
 C328 C 0.34976 0.62077 0.00105
 C329 C 0.33783 0.61022 -0.02643
 C330 C 0.31634 0.58683 -0.02651
 C331 C 0.37310 0.64364 0.00106
 C332 C 0.39311 0.66232 0.00109
 H333 H 0.31111 0.57480 0.04970
 H334 H 0.34896 0.61602 0.04984
 H335 H 0.34548 0.61975 -0.04777
 H336 H 0.30762 0.57852 -0.04791
 C337 C 0.02685 -0.23086 0.49979
 C338 C 0.04858 -0.21420 0.49977
 C339 C 0.07389 -0.19354 0.49969
 C340 C 0.08573 -0.18279 0.52713
 C341 C 0.10912 -0.16130 0.52703
 C342 C 0.12075 -0.15048 0.49948
 C343 C 0.10919 -0.16155 0.47205
 C344 C 0.08580 -0.18303 0.47216
 C345 C 0.14361 -0.12713 0.49935
 C346 C 0.16229 -0.10712 0.49920
 H347 H 0.07657 -0.19065 0.54855
 H348 H 0.11781 -0.15280 0.54837
 H349 H 0.11793 -0.15324 0.45063
 H350 H 0.07670 -0.19108 0.45081
 C351 C 0.73063 0.47305 1.00010
 C352 C 0.71397 0.45131 1.00022
 C353 C 0.69331 0.42601 1.00035
 C354 C 0.68169 0.41504 1.02784
 C355 C 0.66019 0.39166 1.02789
 C356 C 0.65022 0.37916 1.00045
 C357 C 0.66216 0.38983 0.97298
 C358 C 0.68366 0.41322 0.97293
 C359 C 0.62687 0.35630 1.00042
 C360 C 0.60685 0.33763 1.00043
 H361 H 0.68888 0.42488 1.04916
 H362 H 0.65102 0.38366 1.04925
 H363 H 0.65452 0.38041 0.95163
 H364 H 0.69239 0.42164 0.95154
 C365 C 0.50010 0.02680 1.23052
 C366 C 0.50002 0.04851 1.21381
 C367 C 0.49986 0.07377 1.19308
 C368 C 0.52730 0.08607 1.18270
 C369 C 0.52716 0.10939 1.16113
 C370 C 0.49958 0.12050 1.14985
 C371 C 0.47214 0.10849 1.16055
 C372 C 0.47228 0.08517 1.18212
 C373 C 0.49946 0.14330 1.12644
 C374 C 0.49934 0.16194 1.10639
 H375 H 0.54875 0.07731 1.19091
 H376 H 0.54851 0.11843 1.15292
 H377 H 0.45070 0.11683 1.15189
 H378 H 0.45094 0.07571 1.18988
 C379 C -0.00020 0.73027 0.52671
 C380 C -0.00024 0.71354 0.54840
 C381 C -0.00034 0.69282 0.57365
 C382 C 0.02712 0.68257 0.58596
 C383 C 0.02703 0.66105 0.60933
 C384 C -0.00051 0.64970 0.62047
 C385 C -0.02798 0.66025 0.60844
 C386 C -0.02789 0.68177 0.58507
 C387 C -0.00058 0.62636 0.64336
 C388 C -0.00065 0.60637 0.66208
 H389 H 0.04855 0.69085 0.57720
 H390 H 0.04841 0.65296 0.61840
 H391 H -0.04940 0.65154 0.61680
 H392 H -0.04925 0.68943 0.57561
 C393 C 0.49980 0.97313 -0.23105
 C394 C 0.49970 0.95140 -0.21436
 C395 C 0.49955 0.92612 -0.19365
 C396 C 0.47198 0.91469 -0.18266
 C397 C 0.47185 0.89135 -0.16111
 C398 C 0.49930 0.87935 -0.15045
 C399 C 0.52686 0.89050 -0.16175
 C400 C 0.52699 0.91384 -0.18331
 C401 C 0.49920 0.85654 -0.12705
 C402 C 0.49911 0.83790 -0.10700
 H403 H 0.45063 0.92413 -0.19039
 H404 H 0.45041 0.88299 -0.15243
 H405 H 0.54822 0.88147 -0.15358
 H406 H 0.54844 0.92262 -0.19154
 C407 C 1.00010 0.27025 0.47452
 C408 C 0.99991 0.28775 0.45345
 C409 C 0.99958 0.30963 0.42920
 C410 C 1.00282 0.30037 0.39899
 C411 C 1.00259 0.32195 0.37564
 C412 C 0.99913 0.35284 0.38245
 C413 C 0.99587 0.36203 0.41265
 C414 C 0.99610 0.34050 0.43595
 C415 C 0.99899 0.37527 0.35869
 C416 C 0.99883 0.39467 0.33936
 H417 H 1.00554 0.27655 0.39353
 H418 H 1.00514 0.31460 0.35235
 H419 H 0.99319 0.38585 0.41818
 H420 H 0.99359 0.34791 0.45922
 C421 C 0.50015 0.97269 0.23066
 C422 C 0.50021 0.95096 0.21406
 C423 C 0.50035 0.92569 0.19344
 C424 C 0.52792 0.91423 0.18257
 C425 C 0.52803 0.89092 0.16108
 C426 C 0.50058 0.87899 0.15037
 C427 C 0.47302 0.89016 0.16155
 C428 C 0.47290 0.91347 0.18305
 C429 C 0.50069 0.85622 0.12701
 C430 C 0.50081 0.83762 0.10699
 H431 H 0.54926 0.92363 0.19034
 H432 H 0.54948 0.88254 0.15249
 H433 H 0.45166 0.88118 0.15333
 H434 H 0.45145 0.92228 0.19118
 C435 C 0.00032 0.26880 0.52844
 C436 C 0.00042 0.28507 0.55041
 C437 C 0.00056 0.30542 0.57588
 C438 C 0.02813 0.31621 0.58746
 C439 C 0.02826 0.33765 0.61081
 C440 C 0.00080 0.34840 0.62266
 C441 C -0.02676 0.33725 0.61141
 C442 C -0.02688 0.31581 0.58806
 C443 C 0.00091 0.37184 0.64534
 C444 C 0.00101 0.39198 0.66382
 H445 H 0.04948 0.30846 0.57807
 H446 H 0.04970 0.34622 0.61924
 H447 H -0.04812 0.34551 0.62032
 H448 H -0.04833 0.30776 0.57914
 C449 C 0.49994 0.02724 0.76882
 C450 C 0.50004 0.04897 0.78542
 C451 C 0.50020 0.07425 0.80603
 C452 C 0.47277 0.08650 0.81637
 C453 C 0.47291 0.10983 0.83785
 C454 C 0.50049 0.12099 0.84907
 C455 C 0.52793 0.10903 0.83840
 C456 C 0.52778 0.08571 0.81692
 C457 C 0.50062 0.14377 0.87241
 C458 C 0.50073 0.16238 0.89242
 H459 H 0.45131 0.07770 0.80821
 H460 H 0.45156 0.11883 0.84604
 H461 H 0.54938 0.11741 0.84701
 H462 H 0.54912 0.07629 0.80919
 C463 C 0.99981 0.73053 0.47268
 C464 C 0.99988 0.71401 0.45090
 C465 C 1.00002 0.69351 0.42555
 C466 C 0.97258 0.68299 0.41342
 C467 C 0.97272 0.66164 0.38998
 C468 C 1.00030 0.65073 0.37858
 C469 C 1.02774 0.66158 0.39042
 C470 C 1.02760 0.68292 0.41386
 C471 C 1.00045 0.62748 0.35570
 C472 C 1.00060 0.60753 0.33704
 H473 H 0.95112 0.69092 0.42240
 H474 H 0.95137 0.65331 0.38108
 H475 H 1.04920 0.65319 0.38186
 H476 H 1.04894 0.69080 0.42317
 C477 C 1.23067 0.49953 0.02740
 C478 C 1.21405 0.49930 0.04912
 C479 C 1.19342 0.49903 0.07440
 C480 C 1.18433 0.52639 0.08775
 C481 C 1.16285 0.52625 0.11110
 C482 C 1.15038 0.49874 0.12117
 C483 C 1.15980 0.47135 0.10811
 C484 C 1.18127 0.47149 0.08477
 C485 C 1.12704 0.49872 0.14398
 C486 C 1.10702 0.49871 0.16261
 H487 H 1.19346 0.54782 0.07980
 H488 H 1.15564 0.54757 0.12096
 H489 H 1.15021 0.44996 0.11564
 H490 H 1.18803 0.45021 0.07450
 C491 C 0.52692 0.00014 0.73023
 C492 C 0.54865 0.00015 0.71362
 C493 C 0.57395 0.00022 0.69301
 C494 C 0.58567 0.02779 0.68225
 C495 C 0.60904 0.02786 0.66080
 C496 C 0.62078 0.00037 0.65002
 C497 C 0.60935 -0.02720 0.66110
 C498 C 0.58597 -0.02728 0.68255
 C499 C 0.64362 0.00045 0.62671
 C500 C 0.66228 0.00056 0.60673
 H501 H 0.57643 0.04918 0.69007
 H502 H 0.61763 0.04931 0.65230
 H503 H 0.61817 -0.04860 0.65283
 H504 H 0.57697 -0.04873 0.69060
 C505 C -0.23065 0.49999 0.97293
 C506 C -0.21400 0.49987 0.95123
 C507 C -0.19335 0.49972 0.92598
 C508 C -0.18249 0.47213 0.91455
 C509 C -0.16100 0.47200 0.89123
 C510 C -0.15028 0.49947 0.87923
 C511 C -0.16145 0.52706 0.89037
 C512 C -0.18294 0.52719 0.91370
 C513 C -0.12692 0.49936 0.85644
 C514 C -0.10690 0.49923 0.83783
 H515 H -0.19027 0.45076 0.92399
 H516 H -0.15242 0.45054 0.88287
 H517 H -0.15322 0.54844 0.88134
 H518 H -0.19108 0.54866 0.92247
 C519 C 0.47310 -0.00025 0.26926
 C520 C 0.45138 -0.00020 0.28588
 C521 C 0.42608 -0.00008 0.30649
 C522 C 0.41436 0.02752 0.31702
 C523 C 0.39098 0.02765 0.33846
 C524 C 0.37925 0.00018 0.34947
 C525 C 0.39068 -0.02742 0.33862
 C526 C 0.41406 -0.02755 0.31718
 C527 C 0.35640 0.00032 0.37277
 C528 C 0.33774 0.00046 0.39274
 H529 H 0.42360 0.04889 0.30902
 H530 H 0.38240 0.04912 0.34679
 H531 H 0.38186 -0.04879 0.34707
 H532 H 0.42307 -0.04902 0.30930
 C533 C 0.23061 0.50010 0.97338
 C534 C 0.21396 0.50033 0.95168
 C535 C 0.19332 0.50060 0.92641
 C536 C 0.18150 0.52816 0.91580
 C537 C 0.16004 0.52832 0.89243
 C538 C 0.15031 0.50091 0.87960
 C539 C 0.16244 0.47337 0.88993
 C540 C 0.18390 0.47321 0.91330
 C541 C 0.12702 0.50097 0.85674
 C542 C 0.10705 0.50102 0.83806
 H543 H 0.18851 0.54946 0.92589
 H544 H 0.15071 0.54974 0.88470
 H545 H 0.15499 0.45203 0.88025
 H546 H 0.19278 0.45176 0.92144
 C547 C 0.52718 -0.00021 0.26925
 C548 C 0.54891 -0.00023 0.28588
 C549 C 0.57420 -0.00031 0.30650
 C550 C 0.58592 -0.02789 0.31720
 C551 C 0.60927 -0.02798 0.33868
 C552 C 0.62099 -0.00049 0.34955
 C553 C 0.60956 0.02709 0.33852
 C554 C 0.58621 0.02718 0.31704
 C555 C 0.64380 -0.00058 0.37289
 C556 C 0.66243 -0.00070 0.39290
 H557 H 0.57669 -0.04927 0.30932
 H558 H 0.61785 -0.04943 0.34714
 H559 H 0.61838 0.04848 0.34686
 H560 H 0.57721 0.04863 0.30903
 C561 C 0.76934 0.50025 0.02695
 C562 C 0.78597 0.50037 0.04866
 C563 C 0.80661 0.50054 0.07393
 C564 C 0.81779 0.52814 0.08510
 C565 C 0.83927 0.52826 0.10844
 C566 C 0.84965 0.50080 0.12072
 C567 C 0.83815 0.47322 0.10984
 C568 C 0.81667 0.47309 0.08649
 C569 C 0.87298 0.50089 0.14354
 C570 C 0.89298 0.50099 0.16219
 H571 H 0.81028 0.54949 0.07544
 H572 H 0.84811 0.54971 0.11659
 H573 H 0.84611 0.45185 0.11908
 H574 H 0.80828 0.45162 0.07792
 C575 C 0.47284 0.00019 0.73021
 C576 C 0.45112 0.00015 0.71357
 C577 C 0.42584 0.00003 0.69293
 C578 C 0.41379 0.02750 0.68232
 C579 C 0.39045 0.02738 0.66084
 C580 C 0.37907 -0.00022 0.64988
 C581 C 0.39082 -0.02769 0.66081
 C582 C 0.41417 -0.02757 0.68229
 C583 C 0.35625 -0.00035 0.62654
 C584 C 0.33762 -0.00050 0.60653
 H585 H 0.42276 0.04897 0.69029
 H586 H 0.38160 0.04875 0.65245
 H587 H 0.38227 -0.04916 0.65240
 H588 H 0.42342 -0.04894 0.69023
   
