data_POSCAR
  _audit_creation_date              2014-09-24
  _audit_creation_method            'ToBaCCo'
  _symmetry_space_group_name_H-M    'P1'
  _symmetry_Int_Tables_number       1
  _symmetry_cell_setting            triclinic
  loop_
  _symmetry_equiv_pos_as_xyz
 x,y,z
_cell_length_a 59.9932
_cell_length_b 60.1303
_cell_length_c 60.7271
_cell_angle_alpha 90.047100
_cell_angle_beta 89.983700
_cell_angle_gamma 90.080500
loop_
  _atom_site_label
  _atom_site_type_symbol
  _atom_site_fract_x
  _atom_site_fract_y
  _atom_site_fract_z
C1 C 0.30272 0.38263 -0.00048
 C2 C 0.31343 0.37671 0.01916
 C3 C 0.32971 0.35999 0.01876
 C4 C 0.33461 0.34831 -0.00085
 C5 C 0.32278 0.35402 -0.02017
 C6 C 0.30732 0.37160 -0.02037
 C7 C 0.35190 0.33023 -0.00127
 C8 C 0.36278 0.32447 -0.02112
 C9 C 0.37816 0.30685 -0.02206
 C10 C 0.38390 0.29600 -0.00236
 C11 C 0.37405 0.30188 0.01776
 C12 C 0.35764 0.31851 0.01806
 H13 H 0.29037 0.39573 -0.00010
 H14 H 0.33866 0.35649 0.03380
 H15 H 0.32532 0.34466 -0.03515
 H16 H 0.35948 0.33377 -0.03597
 H17 H 0.39619 0.28284 -0.00263
 H18 H 0.34925 0.32197 0.03342
 C19 C 0.69741 0.61604 0.00300
 C20 C 0.68664 0.62213 0.02256
 C21 C 0.67030 0.63878 0.02190
 C22 C 0.66558 0.65045 0.00224
 C23 C 0.67722 0.64433 -0.01709
 C24 C 0.69274 0.62683 -0.01694
 C25 C 0.64883 0.66907 0.00207
 C26 C 0.63784 0.67545 -0.01755
 C27 C 0.62251 0.69321 -0.01779
 C28 C 0.61724 0.70370 0.00227
 C29 C 0.62746 0.69741 0.02204
 C30 C 0.64368 0.68067 0.02166
 H31 H 0.70974 0.60292 0.00337
 H32 H 0.66124 0.64235 0.03686
 H33 H 0.67466 0.65331 -0.03227
 H34 H 0.64096 0.66653 -0.03268
 H35 H 0.60501 0.71691 0.00259
 H36 H 0.65238 0.67699 0.03679
 C37 C 0.70435 0.38210 0.99930
 C38 C 0.69825 0.37237 0.97921
 C39 C 0.68132 0.35624 0.97898
 C40 C 0.66948 0.35067 0.99835
 C41 C 0.67566 0.36128 1.01824
 C42 C 0.69343 0.37650 1.01895
 C43 C 0.65073 0.33402 0.99777
 C44 C 0.64428 0.32234 1.01697
 C45 C 0.62624 0.30732 1.01676
 C46 C 0.61538 0.30316 0.99667
 C47 C 0.62190 0.31383 0.97722
 C48 C 0.63910 0.32961 0.97799
 H49 H 0.71769 0.39424 0.99963
 H50 H 0.67769 0.34798 0.96359
 H51 H 0.66656 0.35811 1.03326
 H52 H 0.65341 0.32463 1.03213
 H53 H 0.60192 0.29117 0.99596
 H54 H 0.64300 0.33856 0.96306
 C55 C 0.30047 0.61464 1.00129
 C56 C 0.31086 0.62058 0.98149
 C57 C 0.32652 0.63793 0.98150
 C58 C 0.33104 0.65021 1.00085
 C59 C 0.31976 0.64423 1.02042
 C60 C 0.30488 0.62619 1.02088
 C61 C 0.34720 0.66931 1.00054
 C62 C 0.35843 0.67597 1.01993
 C63 C 0.37299 0.69436 1.02000
 C64 C 0.37716 0.70537 1.00001
 C65 C 0.36684 0.69870 0.98040
 C66 C 0.35152 0.68109 0.98087
 H67 H 0.28857 0.60108 1.00138
 H68 H 0.33524 0.64156 0.96635
 H69 H 0.32211 0.65377 1.03533
 H70 H 0.35608 0.66673 1.03502
 H71 H 0.38881 0.71913 0.99954
 H72 H 0.34282 0.67695 0.96584
 C73 C -0.00061 0.30610 0.38716
 C74 C 0.01940 0.31536 0.37958
 C75 C 0.01891 0.32996 0.36159
 C76 C -0.00114 0.33432 0.35013
 C77 C -0.02090 0.32393 0.35767
 C78 C -0.02088 0.31033 0.37648
 C79 C -0.00137 0.34943 0.33037
 C80 C -0.02118 0.36018 0.32363
 C81 C -0.02168 0.37385 0.30481
 C82 C -0.00162 0.37781 0.29347
 C83 C 0.01843 0.36803 0.30018
 C84 C 0.01829 0.35336 0.31812
 H85 H -0.00029 0.29503 0.40120
 H86 H 0.03430 0.33795 0.35685
 H87 H -0.03639 0.32606 0.34887
 H88 H -0.03629 0.35822 0.33311
 H89 H -0.00146 0.38888 0.27942
 H90 H 0.03362 0.34493 0.32218
 C91 C 0.00685 0.69361 0.61308
 C92 C 0.02633 0.68300 0.62018
 C93 C 0.02522 0.66836 0.63811
 C94 C 0.00516 0.66523 0.64994
 C95 C -0.01401 0.67688 0.64287
 C96 C -0.01344 0.69062 0.62417
 C97 C 0.00432 0.65012 0.66965
 C98 C -0.01598 0.64034 0.67653
 C99 C -0.01703 0.62674 0.69538
 C100 C 0.00288 0.62187 0.70659
 C101 C 0.02336 0.63067 0.69971
 C102 C 0.02383 0.64528 0.68174
 H103 H 0.00763 0.70475 0.59910
 H104 H 0.04013 0.65937 0.64256
 H105 H -0.02942 0.67565 0.65199
 H106 H -0.03102 0.64304 0.66714
 H107 H 0.00258 0.61085 0.72068
 H108 H 0.03954 0.65296 0.67749
 C109 C 1.00289 0.70553 0.37677
 C110 C 0.98235 0.69964 0.36750
 C111 C 0.98136 0.68170 0.35280
 C112 C 1.00041 0.66871 0.34819
 C113 C 1.02079 0.67462 0.35842
 C114 C 1.02237 0.69338 0.37226
 C115 C 0.99895 0.64911 0.33284
 C116 C 1.01800 0.64136 0.32148
 C117 C 1.01691 0.62273 0.30743
 C118 C 0.99611 0.61251 0.30398
 C119 C 0.97678 0.62035 0.31430
 C120 C 0.97842 0.63814 0.32914
 H121 H 1.00353 0.71957 0.38793
 H122 H 0.96563 0.67824 0.34485
 H123 H 1.03546 0.66452 0.35592
 H124 H 1.03371 0.64998 0.32322
 H125 H 0.99475 0.59861 0.29271
 H126 H 0.96354 0.64312 0.33786
 C127 C 0.99793 0.29486 0.62151
 C128 C 0.97787 0.30137 0.63137
 C129 C 0.97802 0.31901 0.64649
 C130 C 0.99775 0.33108 0.65093
 C131 C 1.01761 0.32447 0.64023
 C132 C 1.01793 0.30608 0.62595
 C133 C 0.99753 0.35053 0.66649
 C134 C 1.01714 0.35726 0.67757
 C135 C 1.01727 0.37586 0.69167
 C136 C 0.99710 0.38710 0.69547
 C137 C 0.97723 0.38028 0.68545
 C138 C 0.97766 0.36247 0.67055
 H139 H 0.99793 0.28102 0.61009
 H140 H 0.96266 0.32302 0.65488
 H141 H 1.03287 0.33374 0.64256
 H142 H 1.03235 0.34787 0.67553
 H143 H 0.99665 0.40101 0.70681
 H144 H 0.96241 0.35826 0.66206
 C145 C 0.38473 -0.00126 0.30055
 C146 C 0.37878 0.01891 0.31050
 C147 C 0.36200 0.01904 0.32659
 C148 C 0.35027 -0.00060 0.33206
 C149 C 0.35600 -0.02049 0.32097
 C150 C 0.37367 -0.02120 0.30572
 C151 C 0.33221 -0.00046 0.34925
 C152 C 0.32643 -0.02019 0.36055
 C153 C 0.30899 -0.02058 0.37593
 C154 C 0.29806 -0.00068 0.38111
 C155 C 0.30391 0.01938 0.37086
 C156 C 0.32056 0.01927 0.35459
 H157 H 0.39791 -0.00128 0.28837
 H158 H 0.35848 0.03450 0.33496
 H159 H 0.34662 -0.03553 0.32395
 H160 H 0.33557 -0.03539 0.35771
 H161 H 0.28490 -0.00080 0.39331
 H162 H 0.32405 0.03460 0.34597
 C163 C 0.62031 0.00046 0.70621
 C164 C 0.62994 0.02045 0.69912
 C165 C 0.64503 0.02005 0.68151
 C166 C 0.64956 0.00019 0.66993
 C167 C 0.63911 -0.01963 0.67708
 C168 C 0.62494 -0.01983 0.69560
 C169 C 0.66506 0.00028 0.65047
 C170 C 0.67659 -0.01917 0.64402
 C171 C 0.69094 -0.01911 0.62572
 C172 C 0.69451 0.00088 0.61436
 C173 C 0.68393 0.02058 0.62079
 C174 C 0.66875 0.02001 0.63832
 H175 H 0.60891 0.00083 0.72003
 H176 H 0.65332 0.03537 0.67712
 H177 H 0.64171 -0.03495 0.66812
 H178 H 0.67485 -0.03435 0.65337
 H179 H 0.70608 0.00127 0.60068
 H180 H 0.65979 0.03508 0.64222
 C181 C 0.38217 1.00117 0.69843
 C182 C 0.37188 0.98091 0.69328
 C183 C 0.35561 0.98039 0.67668
 C184 C 0.35030 0.99966 0.66441
 C185 C 0.36129 1.01979 0.66982
 C186 C 0.37685 1.02073 0.68708
 C187 C 0.33347 0.99864 0.64605
 C188 C 0.32176 1.01787 0.63934
 C189 C 0.30641 1.01718 0.62178
 C190 C 0.30195 0.99657 0.61173
 C191 C 0.31276 0.97708 0.61846
 C192 C 0.32891 0.97837 0.63512
 H193 H 0.39441 1.00175 0.71151
 H194 H 0.34698 0.96491 0.67371
 H195 H 0.35823 1.03477 0.66048
 H196 H 0.32432 1.03343 0.64789
 H197 H 0.28970 0.99553 0.59868
 H198 H 0.33800 0.96345 0.63924
 C199 C 0.61526 0.99917 0.30208
 C200 C 0.62091 0.97963 0.31333
 C201 C 0.63727 0.98045 0.32980
 C202 C 0.64880 1.00040 0.33444
 C203 C 0.64336 1.01961 0.32220
 C204 C 0.62617 1.01939 0.30645
 C205 C 0.66630 1.00132 0.35206
 C206 C 0.67111 1.02154 0.36294
 C207 C 0.68791 1.02284 0.37891
 C208 C 0.69927 1.00345 0.38495
 C209 C 0.69454 0.98298 0.37490
 C210 C 0.67838 0.98212 0.35817
 H211 H 0.60244 0.99845 0.28955
 H212 H 0.64062 0.96553 0.33914
 H213 H 0.65263 1.03482 0.32471
 H214 H 0.66169 1.03639 0.35931
 H215 H 0.71202 1.00435 0.39754
 H216 H 0.67561 0.96651 0.34977
 O217 O 0.81463 0.84327 0.52417
 O218 O 0.84552 0.81481 0.48037
 O219 O 0.81459 0.84471 0.48151
 O220 O 0.84565 0.81324 0.52303
 O221 O 0.82020 0.78666 0.52226
 O222 O 0.78872 0.81854 0.48045
 O223 O 0.82004 0.78826 0.47933
 O224 O 0.78871 0.81714 0.52334
 Cu225 Cu 0.83265 0.83162 0.50240
 Cu226 Cu 0.80182 0.79996 0.50131
 C227 C 0.79632 0.83528 0.53105
 C228 C 0.83816 0.79671 0.47242
 C229 C 0.79638 0.83713 0.47394
 C230 C 0.83843 0.79454 0.52957
 O231 O 0.18998 0.16121 0.51882
 O232 O 0.16082 0.19493 0.47760
 O233 O 0.18971 0.16281 0.47613
 O234 O 0.16073 0.19297 0.52003
 O235 O 0.18761 0.21811 0.52096
 O236 O 0.21727 0.18718 0.47703
 O237 O 0.18794 0.21982 0.47838
 O238 O 0.21731 0.18583 0.52002
 Cu239 Cu 0.17265 0.17548 0.49804
 Cu240 Cu 0.20536 0.20518 0.49918
 C241 C 0.20864 0.16763 0.52636
 C242 C 0.16910 0.21328 0.47130
 C243 C 0.20847 0.16961 0.46923
 C244 C 0.16888 0.21087 0.52765
 O245 O 0.20009 0.82923 0.47845
 O246 O 0.17140 0.79638 0.52059
 O247 O 0.20139 0.82762 0.52087
 O248 O 0.17000 0.79817 0.47811
 O249 O 0.19614 0.77240 0.47616
 O250 O 0.22822 0.80256 0.51905
 O251 O 0.19764 0.77070 0.51886
 O252 O 0.22677 0.80402 0.47640
 Cu253 Cu 0.18309 0.81535 0.49971
 Cu254 Cu 0.21487 0.78482 0.49746
 C255 C 0.21847 0.82252 0.47053
 C256 C 0.17929 0.77779 0.52661
 C257 C 0.22032 0.82052 0.52690
 C258 C 0.17741 0.78015 0.47010
 O259 O 0.83262 0.19299 0.52282
 O260 O 0.80116 0.16670 0.47822
 O261 O 0.83334 0.19538 0.48014
 O262 O 0.80031 0.16437 0.52056
 O263 O 0.77559 0.19155 0.52186
 O264 O 0.80892 0.22284 0.48091
 O265 O 0.77613 0.19361 0.47938
 O266 O 0.80842 0.22062 0.52396
 Cu267 Cu 0.81936 0.17721 0.50034
 Cu268 Cu 0.78986 0.21003 0.50164
 C269 C 0.82606 0.21129 0.53092
 C270 C 0.78307 0.17527 0.47156
 C271 C 0.82688 0.21436 0.47366
 C272 C 0.78216 0.17237 0.52777
 O273 O 0.47798 0.83963 0.80979
 O274 O 0.52005 0.80732 0.83950
 O275 O 0.52103 0.83773 0.80900
 O276 O 0.47696 0.80947 0.83997
 O277 O 0.47518 0.78313 0.81465
 O278 O 0.51946 0.81197 0.78309
 O279 O 0.51855 0.78096 0.81420
 O280 O 0.47613 0.81372 0.78403
 Cu281 Cu 0.49927 0.82610 0.82710
 Cu282 Cu 0.49729 0.79477 0.79639
 C283 C 0.46992 0.83232 0.79187
 C284 C 0.52618 0.78850 0.83226
 C285 C 0.52742 0.83006 0.79059
 C286 C 0.46857 0.79153 0.83271
 O287 O 0.52337 0.18889 0.15776
 O288 O 0.48230 0.15852 0.19100
 O289 O 0.48017 0.18769 0.15951
 O290 O 0.52529 0.15916 0.18845
 O291 O 0.52596 0.18555 0.21379
 O292 O 0.48092 0.21493 0.18393
 O293 O 0.48275 0.18532 0.21591
 O294 O 0.52439 0.21572 0.18262
 Cu295 Cu 0.50266 0.17093 0.17168
 Cu296 Cu 0.50353 0.20314 0.20156
 C297 C 0.53087 0.20744 0.16447
 C298 C 0.47580 0.16652 0.20926
 C299 C 0.47304 0.20624 0.16649
 C300 C 0.53312 0.16721 0.20614
 O301 O 0.52213 0.16663 0.80519
 O302 O 0.47657 0.19668 0.83175
 O303 O 0.47910 0.16599 0.80163
 O304 O 0.51946 0.19826 0.83405
 O305 O 0.52115 0.22358 0.80776
 O306 O 0.47992 0.19150 0.77549
 O307 O 0.47809 0.22283 0.80625
 O308 O 0.52330 0.19148 0.77843
 Cu309 Cu 0.49915 0.17933 0.82071
 Cu310 Cu 0.50066 0.20987 0.78926
 C311 C 0.53035 0.17365 0.78726
 C312 C 0.47003 0.21515 0.82408
 C313 C 0.47282 0.17307 0.78294
 C314 C 0.52697 0.21652 0.82660
 O315 O 0.47949 0.80516 0.16400
 O316 O 0.51910 0.83672 0.19776
 O317 O 0.52245 0.80773 0.16634
 O318 O 0.47617 0.83542 0.19420
 O319 O 0.47567 0.80939 0.21985
 O320 O 0.52177 0.78052 0.19076
 O321 O 0.51890 0.81005 0.22277
 O322 O 0.47847 0.77856 0.18906
 Cu323 Cu 0.49937 0.82389 0.17809
 Cu324 Cu 0.49864 0.79191 0.20815
 C325 C 0.47236 0.78644 0.17064
 C326 C 0.52558 0.82892 0.21609
 C327 C 0.52978 0.78932 0.17343
 C328 C 0.46827 0.82750 0.21190
 O329 O 0.80986 0.48114 0.83660
 O330 O 0.83827 0.52552 0.80640
 O331 O 0.80926 0.52425 0.83806
 O332 O 0.83821 0.48267 0.80435
 O333 O 0.81075 0.48318 0.78011
 O334 O 0.78173 0.52535 0.81394
 O335 O 0.81124 0.52618 0.78170
 O336 O 0.78197 0.48190 0.81287
 Cu337 Cu 0.82659 0.50332 0.82379
 Cu338 Cu 0.79356 0.50424 0.79477
 C339 C 0.79105 0.47407 0.83012
 C340 C 0.83000 0.53307 0.78871
 C341 C 0.79055 0.53181 0.83187
 C342 C 0.82967 0.47612 0.78634
 O343 O 0.19313 0.47755 0.15898
 O344 O 0.15856 0.51729 0.18954
 O345 O 0.18964 0.52037 0.16018
 O346 O 0.16124 0.47428 0.18778
 O347 O 0.18587 0.47522 0.21481
 O348 O 0.21526 0.52121 0.18631
 O349 O 0.18367 0.51855 0.21612
 O350 O 0.21829 0.47816 0.18553
 Cu351 Cu 0.17313 0.49723 0.17151
 Cu352 Cu 0.20329 0.49832 0.20343
 C353 C 0.21172 0.47135 0.16682
 C354 C 0.16516 0.52470 0.20800
 C355 C 0.20738 0.52847 0.16826
 C356 C 0.16839 0.46708 0.20608
 O357 O 0.83239 0.48097 0.19771
 O358 O 0.80056 0.52386 0.16878
 O359 O 0.83070 0.52383 0.19962
 O360 O 0.80215 0.48100 0.16711
 O361 O 0.77559 0.47875 0.19222
 O362 O 0.80457 0.52182 0.22518
 O363 O 0.77386 0.52179 0.19376
 O364 O 0.80631 0.47875 0.22331
 Cu365 Cu 0.81907 0.50266 0.18081
 Cu366 Cu 0.78741 0.50011 0.21120
 C367 C 0.82507 0.47281 0.21557
 C368 C 0.78160 0.52975 0.17593
 C369 C 0.82286 0.52977 0.21812
 C370 C 0.78386 0.47285 0.17385
 O371 O 0.16065 0.47596 0.80968
 O372 O 0.19406 0.51629 0.84074
 O373 O 0.16273 0.51902 0.81140
 O374 O 0.19121 0.47344 0.83954
 O375 O 0.21725 0.47291 0.81381
 O376 O 0.18790 0.51854 0.78485
 O377 O 0.21973 0.51601 0.81464
 O378 O 0.18616 0.47515 0.78345
 Cu379 Cu 0.17459 0.49627 0.82791
 Cu380 Cu 0.20533 0.49563 0.79649
 C381 C 0.16763 0.46869 0.79132
 C382 C 0.21270 0.52278 0.83320
 C383 C 0.17019 0.52642 0.79329
 C384 C 0.20917 0.46559 0.83176
 N385 N 0.30156 0.38651 0.07823
 C386 C 0.28990 0.40581 0.07741
 N387 N 0.28702 0.41601 0.05776
 N388 N 0.29524 0.40711 0.03944
 C389 C 0.30667 0.38764 0.04001
 N390 N 0.30987 0.37760 0.05983
 C391 C 0.27868 0.41450 0.09642
 C392 C 0.26772 0.42265 0.11098
 C393 C 0.25315 0.43328 0.12648
 N394 N 0.23179 0.43747 0.12061
 N395 N 0.21845 0.44904 0.13385
 C396 C 0.22600 0.45683 0.15345
 N397 N 0.24738 0.45245 0.15944
 N398 N 0.26077 0.44089 0.14614
 N399 N 0.69541 0.61245 0.08222
 C400 C 0.70899 0.59443 0.08199
 N401 N 0.71443 0.58505 0.06245
 N402 N 0.70676 0.59349 0.04368
 C403 C 0.69334 0.61167 0.04369
 N404 N 0.68769 0.62089 0.06339
 C405 C 0.71910 0.58619 0.10179
 C406 C 0.72911 0.57851 0.11722
 C407 C 0.74267 0.56841 0.13392
 N408 N 0.76474 0.56565 0.13012
 N409 N 0.77726 0.55413 0.14411
 C410 C 0.76820 0.54496 0.16246
 N411 N 0.74611 0.54799 0.16645
 N412 N 0.73353 0.55950 0.15237
 N413 N 0.73676 0.40106 0.94119
 C414 C 0.72807 0.39602 0.92123
 N415 N 0.70996 0.38253 0.92009
 N416 N 0.70075 0.37450 0.93845
 C417 C 0.70930 0.37972 0.95857
 N418 N 0.72756 0.39308 0.95948
 C419 C 0.73749 0.40607 0.90191
 C420 C 0.74637 0.41580 0.88693
 C421 C 0.75811 0.42872 0.87078
 N422 N 0.74743 0.43753 0.85312
 N423 N 0.75806 0.45148 0.83962
 C424 C 0.77965 0.45716 0.84345
 N425 N 0.79026 0.44817 0.86105
 N426 N 0.77969 0.43422 0.87447
 N427 N 0.30006 0.60943 0.92247
 C428 C 0.28828 0.59019 0.92350
 N429 N 0.28491 0.58046 0.94332
 N430 N 0.29279 0.58977 0.96160
 C431 C 0.30435 0.60919 0.96080
 N432 N 0.30802 0.61874 0.94082
 C433 C 0.27747 0.58110 0.90444
 C434 C 0.26688 0.57269 0.88977
 C435 C 0.25276 0.56175 0.87407
 N436 N 0.23137 0.55718 0.87960
 N437 N 0.21846 0.54531 0.86619
 C438 C 0.22649 0.53761 0.84675
 N439 N 0.24789 0.54239 0.84108
 N440 N 0.26085 0.55426 0.85456
 N441 N 0.07917 0.30222 0.38727
 C442 C 0.07890 0.29163 0.40699
 N443 N 0.05943 0.28992 0.41813
 N444 N 0.04073 0.29824 0.40975
 C445 C 0.04075 0.30860 0.38989
 N446 N 0.06042 0.31062 0.37889
 C447 C 0.09819 0.28022 0.41517
 C448 C 0.11300 0.26918 0.42291
 C449 C 0.12880 0.25457 0.43313
 N450 N 0.12299 0.23313 0.43691
 N451 N 0.13631 0.21981 0.44839
 C452 C 0.15597 0.22742 0.45649
 N453 N 0.16194 0.24886 0.45248
 N454 N 0.14854 0.26224 0.44101
 N455 N 0.08670 0.69237 0.61152
 C456 C 0.08681 0.70304 0.59185
 N457 N 0.06731 0.70600 0.58102
 N458 N 0.04824 0.69883 0.58967
 C459 C 0.04790 0.68842 0.60951
 N460 N 0.06757 0.68512 0.62017
 C461 C 0.10662 0.71344 0.58351
 C462 C 0.12193 0.72379 0.57572
 C463 C 0.13829 0.73781 0.56548
 N464 N 0.13361 0.75962 0.56247
 N465 N 0.14726 0.77251 0.55082
 C466 C 0.16613 0.76406 0.54179
 N467 N 0.17100 0.74224 0.54508
 N468 N 0.15727 0.72930 0.55671
 N469 N 0.92339 0.71277 0.37996
 C470 C 0.92538 0.73260 0.39046
 N471 N 0.94579 0.74202 0.39242
 N472 N 0.96372 0.73186 0.38441
 C473 C 0.96197 0.71186 0.37413
 N474 N 0.94138 0.70260 0.37188
 C475 C 0.90677 0.74273 0.40135
 C476 C 0.89250 0.75202 0.41186
 C477 C 0.87726 0.76396 0.42569
 N478 N 0.85838 0.75425 0.43339
 N479 N 0.84552 0.76484 0.44794
 C480 C 0.85125 0.78540 0.45535
 N481 N 0.87008 0.79508 0.44748
 N482 N 0.88287 0.78453 0.43294
 N483 N 0.93865 0.26152 0.60607
 C484 C 0.91867 0.27122 0.60987
 N485 N 0.91790 0.29043 0.62158
 N486 N 0.93664 0.29970 0.62908
 C487 C 0.95678 0.29015 0.62503
 N488 N 0.95733 0.27080 0.61350
 C489 C 0.89907 0.26197 0.59990
 C490 C 0.88386 0.25335 0.59012
 C491 C 0.86747 0.24209 0.57701
 N492 N 0.87150 0.22103 0.57019
 N493 N 0.85786 0.21108 0.55599
 C494 C 0.83970 0.22185 0.54805
 N495 N 0.83551 0.24290 0.55507
 N496 N 0.84923 0.25290 0.56928
 N497 N 0.38907 0.07830 0.29779
 C498 C 0.40827 0.07711 0.28602
 N499 N 0.41822 0.05712 0.28326
 N500 N 0.40918 0.03882 0.29171
 C501 C 0.38982 0.03976 0.30327
 N502 N 0.38003 0.05993 0.30633
 C503 C 0.41717 0.09613 0.27476
 C504 C 0.42552 0.11070 0.26390
 C505 C 0.43645 0.12625 0.24958
 N506 N 0.44102 0.12020 0.22857
 N507 N 0.45297 0.13343 0.21555
 C508 C 0.46078 0.15321 0.22308
 N509 N 0.45599 0.15939 0.24410
 N510 N 0.44405 0.14610 0.25716
 N511 N 0.60406 0.06054 0.73743
 C512 C 0.60841 0.08028 0.72760
 N513 N 0.62059 0.08059 0.70879
 N514 N 0.62802 0.06164 0.70002
 C515 C 0.62345 0.04174 0.70971
 N516 N 0.61142 0.04165 0.72866
 C517 C 0.59871 0.10016 0.73645
 C518 C 0.58918 0.11562 0.74486
 C519 C 0.57636 0.13223 0.75612
 N520 N 0.56814 0.15022 0.74534
 N521 N 0.55406 0.16405 0.75544
 C522 C 0.54764 0.16020 0.77657
 N523 N 0.55608 0.14230 0.78729
 N524 N 0.57017 0.12857 0.77725
 N525 N 0.39919 0.94375 0.73335
 C526 C 0.39418 0.92333 0.72538
 N527 N 0.38114 0.92160 0.70720
 N528 N 0.37351 0.93985 0.69724
 C529 C 0.37873 0.96042 0.70508
 N530 N 0.39162 0.96192 0.72340
 C531 C 0.40387 0.90414 0.73562
 C532 C 0.41335 0.88934 0.74515
 C533 C 0.42601 0.87347 0.75756
 N534 N 0.43292 0.87884 0.77811
 N535 N 0.44648 0.86538 0.78916
 C536 C 0.45366 0.84607 0.78004
 N537 N 0.44657 0.84057 0.75948
 N538 N 0.43301 0.85411 0.74838
 N539 N 0.61106 0.91969 0.30324
 C540 C 0.59183 0.92021 0.29150
 N541 N 0.58170 0.93997 0.28794
 N542 N 0.59060 0.95870 0.29559
 C543 C 0.61000 0.95843 0.30709
 N544 N 0.61996 0.93849 0.31098
 C545 C 0.58319 0.90072 0.28088
 C546 C 0.57503 0.88580 0.27034
 C547 C 0.56430 0.86997 0.25621
 N548 N 0.55981 0.87572 0.23511
 N549 N 0.54803 0.86225 0.22219
 C550 C 0.54031 0.84252 0.22990
 N551 N 0.54501 0.83664 0.25101
 N552 N 0.55678 0.85018 0.26399
 N553 N 0.41003 0.27505 0.93811
 C554 C 0.40358 0.28429 0.91883
 N555 N 0.38902 0.30151 0.91914
 N556 N 0.38107 0.30911 0.93824
 C557 C 0.38733 0.29975 0.95771
 N558 N 0.40208 0.28261 0.95713
 C559 C 0.41170 0.27507 0.89855
 C560 C 0.41937 0.26569 0.88272
 C561 C 0.42959 0.25267 0.86567
 N562 N 0.43211 0.23053 0.86880
 N563 N 0.44411 0.21845 0.85480
 C564 C 0.45398 0.22805 0.83708
 N565 N 0.45114 0.25022 0.83371
 N566 N 0.43916 0.26235 0.84782
 N567 N 0.60942 0.69990 0.92394
 C568 C 0.59484 0.71713 0.92462
 N569 N 0.58924 0.72594 0.94436
 N570 N 0.59798 0.71795 0.96284
 C571 C 0.61271 0.70079 0.96244
 N572 N 0.61817 0.69186 0.94252
 C573 C 0.58574 0.72680 0.90495
 C574 C 0.57725 0.73659 0.88979
 C575 C 0.56620 0.75001 0.87356
 N576 N 0.56251 0.77179 0.87792
 N577 N 0.55040 0.78414 0.86427
 C578 C 0.54153 0.77519 0.84571
 N579 N 0.54544 0.75339 0.84118
 N580 N 0.55755 0.74097 0.85492
 N581 N 0.38819 0.70011 0.07781
 C582 C 0.40208 0.71791 0.07701
 N583 N 0.40647 0.72752 0.05735
 N584 N 0.39722 0.71970 0.03903
 C585 C 0.38319 0.70194 0.03955
 N586 N 0.37892 0.69225 0.05938
 C587 C 0.41186 0.72719 0.09649
 C588 C 0.42089 0.73661 0.11156
 C589 C 0.43253 0.74951 0.12775
 N590 N 0.43934 0.74047 0.14707
 N591 N 0.45158 0.75239 0.16114
 C592 C 0.45744 0.77367 0.15627
 N593 N 0.45046 0.78264 0.13698
 N594 N 0.43822 0.77077 0.12299
 N595 N 0.59401 0.27206 0.05329
 C596 C 0.60360 0.27611 0.07303
 N597 N 0.62105 0.29045 0.07418
 N598 N 0.62857 0.30047 0.05601
 C599 C 0.61892 0.29651 0.03608
 N600 N 0.60150 0.28204 0.03522
 C601 C 0.59482 0.26532 0.09223
 C602 C 0.58594 0.25537 0.10706
 C603 C 0.57384 0.24261 0.12305
 N604 N 0.56742 0.22161 0.11803
 N605 N 0.55417 0.21027 0.13155
 C606 C 0.54680 0.21956 0.15057
 N607 N 0.55340 0.24057 0.15571
 N608 N 0.56665 0.25195 0.14212
 N609 N 0.27122 0.05360 0.58930
 C610 C 0.27559 0.07375 0.59824
 N611 N 0.29006 0.07518 0.61535
 N612 N 0.29992 0.05692 0.62316
 C613 C 0.29567 0.03658 0.61416
 N614 N 0.28105 0.03543 0.59708
 C615 C 0.26502 0.09310 0.58918
 C616 C 0.25536 0.10819 0.58028
 C617 C 0.24296 0.12466 0.56835
 N618 N 0.25273 0.14380 0.56144
 N619 N 0.24163 0.15791 0.54854
 C620 C 0.22044 0.15327 0.54204
 N621 N 0.21072 0.13418 0.54913
 N622 N 0.22178 0.12013 0.56203
 N623 N 0.69617 0.08330 0.38734
 C624 C 0.70951 0.08354 0.40537
 N625 N 0.71494 0.06407 0.41514
 N626 N 0.70751 0.04489 0.40706
 C627 C 0.69434 0.04442 0.38888
 N628 N 0.68866 0.06405 0.37927
 C629 C 0.71958 0.10368 0.41320
 C630 C 0.72976 0.11918 0.42075
 C631 C 0.74369 0.13559 0.43096
 N632 N 0.76557 0.13101 0.43391
 N633 N 0.77832 0.14436 0.44602
 C634 C 0.76965 0.16282 0.45558
 N635 N 0.74778 0.16766 0.45229
 N636 N 0.73496 0.15420 0.44021
 N637 N 0.70924 0.92210 0.62078
 C638 C 0.72372 0.92336 0.60363
 N639 N 0.72749 0.94330 0.59402
 N640 N 0.71714 0.96143 0.60121
 C641 C 0.70260 0.96042 0.61832
 N642 N 0.69885 0.94034 0.62799
 C643 C 0.73506 0.90414 0.59527
 C644 C 0.74559 0.88944 0.58668
 C645 C 0.75914 0.87384 0.57483
 N646 N 0.78046 0.87933 0.56986
 N647 N 0.79249 0.86656 0.55648
 C648 C 0.78361 0.84785 0.54754
 N649 N 0.76231 0.84219 0.55274
 N650 N 0.75023 0.85504 0.56610
 N651 N 0.27879 0.93975 0.41153
 C652 C 0.28576 0.91985 0.40372
 N653 N 0.30094 0.91933 0.38716
 N654 N 0.30875 0.93824 0.37861
 C655 C 0.30164 0.95828 0.38629
 N656 N 0.28657 0.95859 0.40298
 C657 C 0.27613 0.89984 0.41240
 C658 C 0.26667 0.88414 0.42050
 C659 C 0.25398 0.86703 0.43120
 N660 N 0.26358 0.84768 0.43765
 N661 N 0.25203 0.83294 0.44949
 C662 C 0.23055 0.83714 0.45529
 N663 N 0.22100 0.85642 0.44858
 N664 N 0.23250 0.87108 0.43673
 N665 N 0.05495 0.40857 0.72533
 C666 C 0.07466 0.39825 0.72191
 N667 N 0.07541 0.38025 0.70845
 N668 N 0.05688 0.37288 0.69869
 C669 C 0.03697 0.38322 0.70205
 N670 N 0.03652 0.40122 0.71560
 C671 C 0.09420 0.40663 0.73268
 C672 C 0.10933 0.41512 0.74266
 C673 C 0.12561 0.42674 0.75556
 N674 N 0.14496 0.43404 0.74649
 N675 N 0.15878 0.44694 0.75805
 C676 C 0.15359 0.45307 0.77898
 N677 N 0.13430 0.44558 0.78801
 N678 N 0.12055 0.43268 0.77649
 N679 N 0.07452 0.61538 0.28985
 C680 C 0.07266 0.59741 0.27645
 N681 N 0.05238 0.58810 0.27331
 N682 N 0.03448 0.59639 0.28326
 C683 C 0.03606 0.61437 0.29677
 N684 N 0.05654 0.62370 0.29983
 C685 C 0.09167 0.58799 0.26558
 C686 C 0.10647 0.57883 0.25570
 C687 C 0.12258 0.56664 0.24309
 N688 N 0.11743 0.56001 0.22238
 N689 N 0.13129 0.54703 0.21110
 C690 C 0.15078 0.54016 0.22014
 N691 N 0.15602 0.54694 0.24086
 N692 N 0.14211 0.55993 0.25218
 N693 N 0.91957 0.38836 0.29965
 C694 C 0.91991 0.40130 0.28135
 N695 N 0.93958 0.40523 0.27118
 N696 N 0.95834 0.39649 0.27892
 C697 C 0.95829 0.38344 0.29719
 N698 N 0.93843 0.37959 0.30742
 C699 C 0.89997 0.41085 0.27241
 C700 C 0.88455 0.41980 0.26331
 C701 C 0.86801 0.43151 0.25080
 N702 N 0.87276 0.43758 0.22985
 N703 N 0.85864 0.45014 0.21847
 C704 C 0.83922 0.45708 0.22761
 N705 N 0.83433 0.45080 0.24858
 N706 N 0.84853 0.43823 0.26001
 N707 N 0.94296 0.59723 0.72932
 C708 C 0.92343 0.60216 0.71936
 N709 N 0.92358 0.61512 0.70108
 N710 N 0.94280 0.62295 0.69312
 C711 C 0.96254 0.61811 0.70315
 N712 N 0.96208 0.60504 0.72140
 C713 C 0.90312 0.59366 0.72862
 C714 C 0.88753 0.58546 0.73816
 C715 C 0.87103 0.57449 0.75139
 N716 N 0.85202 0.56616 0.74246
 N717 N 0.83826 0.55372 0.75458
 C718 C 0.84315 0.54913 0.77596
 N719 N 0.86205 0.55772 0.78483
 N720 N 0.87571 0.57018 0.77277
 N721 N 0.70790 0.61973 0.92419
 C722 C 0.72443 0.60441 0.92550
 N723 N 0.73079 0.59689 0.94554
 N724 N 0.72090 0.60431 0.96370
 C725 C 0.70424 0.61955 0.96261
 N726 N 0.69799 0.62719 0.94244
 C727 C 0.73479 0.59536 0.90616
 C728 C 0.74433 0.58641 0.89109
 C729 C 0.75659 0.57436 0.87465
 N730 N 0.77781 0.56802 0.87894
 N731 N 0.78875 0.55494 0.86495
 C732 C 0.77886 0.54769 0.84618
 N733 N 0.75764 0.55421 0.84177
 N734 N 0.74665 0.56729 0.85583
 N735 N 0.27201 0.40223 0.94191
 C736 C 0.27672 0.39243 0.92240
 N737 N 0.29147 0.37537 0.92185
 N738 N 0.30125 0.36842 0.94034
 C739 C 0.29664 0.37828 0.96004
 N740 N 0.28176 0.39531 0.96032
 C741 C 0.26625 0.40063 0.90282
 C742 C 0.25649 0.40908 0.88764
 C743 C 0.24379 0.42085 0.87142
 N744 N 0.25363 0.42932 0.85311
 N745 N 0.24234 0.44288 0.83979
 C746 C 0.22093 0.44853 0.84448
 N747 N 0.21112 0.43979 0.86267
 N748 N 0.22235 0.42622 0.87589
 N749 N 0.26793 0.59628 0.05945
 C750 C 0.27430 0.60447 0.07923
 N751 N 0.29049 0.62023 0.08004
 N752 N 0.30006 0.62746 0.06152
 C753 C 0.29378 0.61915 0.04160
 N754 N 0.27748 0.60346 0.04102
 C755 C 0.26419 0.59571 0.09879
 C756 C 0.25458 0.58673 0.11378
 C757 C 0.24191 0.57435 0.12962
 N758 N 0.25161 0.56581 0.14795
 N759 N 0.24035 0.55182 0.16090
 C760 C 0.21912 0.54580 0.15581
 N761 N 0.20946 0.55457 0.13759
 N762 N 0.22065 0.56857 0.12473
 N763 N 0.72431 0.41149 0.05861
 C764 C 0.71701 0.40374 0.07825
 N765 N 0.70146 0.38733 0.07862
 N766 N 0.69359 0.37888 0.05982
 C767 C 0.70101 0.38653 0.04004
 N768 N 0.71648 0.40305 0.03990
 C769 C 0.72652 0.41257 0.09812
 C770 C 0.73591 0.42101 0.11358
 C771 C 0.74856 0.43221 0.13032
 N772 N 0.73900 0.43880 0.14951
 N773 N 0.75049 0.45110 0.16389
 C774 C 0.77185 0.45725 0.15949
 N775 N 0.78135 0.45044 0.14037
 N776 N 0.76992 0.43814 0.12606
 N777 N 0.92797 0.70960 0.61840
 C778 C 0.92936 0.72288 0.60039
 N779 N 0.94935 0.72567 0.59043
 N780 N 0.96740 0.71549 0.59811
 C781 C 0.96623 0.70212 0.61610
 N782 N 0.94611 0.69938 0.62610
 C783 C 0.91021 0.73410 0.59168
 C784 C 0.89535 0.74439 0.58305
 C785 C 0.87933 0.75762 0.57141
 N786 N 0.88435 0.77898 0.56638
 N787 N 0.87090 0.79086 0.55355
 C788 C 0.85196 0.78179 0.54525
 N789 N 0.84680 0.76042 0.55048
 N790 N 0.86032 0.74849 0.56330
 N791 N 0.91960 0.29480 0.38351
 C792 C 0.92048 0.28185 0.40179
 N793 N 0.94042 0.27821 0.41155
 N794 N 0.95890 0.28722 0.40339
 C795 C 0.95825 0.30022 0.38512
 N796 N 0.93817 0.30385 0.37534
 C797 C 0.90088 0.27169 0.41088
 C798 C 0.88566 0.26215 0.41979
 C799 C 0.86920 0.24964 0.43167
 N800 N 0.87336 0.22812 0.43676
 N801 N 0.85949 0.21681 0.44968
 C802 C 0.84095 0.22662 0.45802
 N803 N 0.83665 0.24815 0.45274
 N804 N 0.85060 0.25951 0.43982
 N805 N 0.07797 0.29736 0.61396
 C806 C 0.07702 0.28167 0.59791
 N807 N 0.05688 0.27453 0.59077
 N808 N 0.03824 0.28263 0.59946
 C809 C 0.03895 0.29823 0.61562
 N810 N 0.05923 0.30553 0.62265
 C811 C 0.09677 0.27172 0.58893
 C812 C 0.11195 0.26180 0.58039
 C813 C 0.12809 0.24838 0.56908
 N814 N 0.12289 0.22705 0.56405
 N815 N 0.13640 0.21492 0.55153
 C816 C 0.15565 0.22365 0.54358
 N817 N 0.16103 0.24497 0.54886
 N818 N 0.14743 0.25717 0.56138
 N819 N 0.06276 0.72546 0.40339
 C820 C 0.08203 0.71471 0.39896
 N821 N 0.08156 0.69649 0.38575
 N822 N 0.06231 0.68937 0.37720
 C823 C 0.04286 0.70021 0.38155
 N824 N 0.04363 0.71838 0.39488
 C825 C 0.10237 0.72312 0.40826
 C826 C 0.11801 0.73205 0.41711
 C827 C 0.13464 0.74460 0.42875
 N828 N 0.15386 0.73511 0.43587
 N829 N 0.16804 0.74663 0.44844
 C830 C 0.16338 0.76795 0.45434
 N831 N 0.14424 0.77736 0.44701
 N832 N 0.13015 0.76591 0.43443
 N833 N 0.61165 0.92140 0.70256
 C834 C 0.59813 0.92207 0.72046
 N835 N 0.59337 0.94196 0.72974
 N836 N 0.60189 0.96061 0.72153
 C837 C 0.61554 0.96023 0.70366
 N838 N 0.62019 0.94015 0.69431
 C839 C 0.58896 0.90225 0.73006
 C840 C 0.58034 0.88698 0.73973
 C841 C 0.56902 0.87071 0.75295
 N842 N 0.56528 0.87514 0.77450
 N843 N 0.55272 0.86162 0.78662
 C844 C 0.54343 0.84313 0.77764
 N845 N 0.54741 0.83850 0.75608
 N846 N 0.55998 0.85211 0.74390
 N847 N 0.40461 0.93959 0.27217
 C848 C 0.39482 0.92003 0.27742
 N849 N 0.37763 0.91992 0.29194
 N850 N 0.37058 0.93890 0.30098
 C851 C 0.38044 0.95866 0.29583
 N852 N 0.39758 0.95848 0.28118
 C853 C 0.40309 0.89993 0.26762
 C854 C 0.41159 0.88439 0.25831
 C855 C 0.42340 0.86781 0.24595
 N856 N 0.43214 0.84958 0.25589
 N857 N 0.44571 0.83600 0.24481
 C858 C 0.45108 0.84034 0.22350
 N859 N 0.44208 0.85845 0.21360
 N860 N 0.42849 0.87192 0.22461
 N861 N 0.62244 0.07746 0.28986
 C862 C 0.60574 0.07656 0.27485
 N863 N 0.59621 0.05671 0.27016
 N864 N 0.60302 0.03830 0.28021
 C865 C 0.61967 0.03894 0.29538
 N866 N 0.62929 0.05897 0.29993
 C867 C 0.59757 0.09615 0.26414
 C868 C 0.58915 0.11129 0.25421
 C869 C 0.57743 0.12745 0.24132
 N870 N 0.57194 0.12244 0.22026
 N871 N 0.55847 0.13567 0.20886
 C872 C 0.54997 0.15438 0.21810
 N873 N 0.55573 0.15958 0.23913
 N874 N 0.56919 0.14626 0.25060
 N875 N 0.38693 0.08077 0.69713
 C876 C 0.40540 0.08013 0.71003
 N877 N 0.41490 0.06024 0.71449
 N878 N 0.40613 0.04155 0.70660
 C879 C 0.38750 0.04195 0.69390
 N880 N 0.37815 0.06199 0.68915
 C881 C 0.41418 0.09975 0.72041
 C882 C 0.42253 0.11483 0.73062
 C883 C 0.43352 0.13102 0.74425
 N884 N 0.44129 0.15043 0.73580
 N885 N 0.45325 0.16428 0.74830
 C886 C 0.45789 0.15912 0.76961
 N887 N 0.44992 0.13976 0.77799
 N888 N 0.43796 0.12598 0.76554
 N889 N 0.59959 0.73502 0.06148
 C890 C 0.60570 0.72641 0.08116
 N891 N 0.61955 0.70861 0.08162
 N892 N 0.62691 0.69963 0.06287
 C893 C 0.62064 0.70812 0.04304
 N894 N 0.60690 0.72605 0.04281
 C895 C 0.59654 0.73568 0.10097
 C896 C 0.58747 0.74451 0.11639
 C897 C 0.57520 0.75632 0.13297
 N898 N 0.56593 0.74555 0.15036
 N899 N 0.55213 0.75624 0.16398
 C900 C 0.54707 0.77798 0.16052
 N901 N 0.55660 0.78870 0.14325
 N902 N 0.57041 0.77806 0.12973
 N903 N 0.40280 0.26342 0.05566
 C904 C 0.39697 0.27144 0.07568
 N905 N 0.38306 0.28918 0.07688
 N906 N 0.37536 0.29864 0.05852
 C907 C 0.38133 0.29072 0.03836
 N908 N 0.39514 0.27287 0.03738
 C909 C 0.40643 0.26159 0.09506
 C910 C 0.41568 0.25233 0.11009
 C911 C 0.42810 0.24015 0.12627
 N912 N 0.43696 0.25042 0.14417
 N913 N 0.45068 0.23943 0.15760
 C914 C 0.45608 0.21789 0.15345
 N915 N 0.44699 0.20766 0.13565
 N916 N 0.43326 0.21860 0.12231
 N917 N 0.58249 0.28873 0.93780
 C918 C 0.59320 0.29138 0.91836
 N919 N 0.61289 0.30250 0.91795
 N920 N 0.62168 0.31049 0.93654
 C921 C 0.61113 0.30750 0.95616
 N922 N 0.59128 0.29663 0.95632
 C923 C 0.58457 0.28047 0.89914
 C924 C 0.57642 0.26986 0.88435
 C925 C 0.56565 0.25583 0.86845
 N926 N 0.56006 0.23477 0.87413
 N927 N 0.54832 0.22205 0.86043
 C928 C 0.54178 0.22993 0.84053
 N929 N 0.54759 0.25099 0.83474
 N930 N 0.55932 0.26376 0.84850
 N931 N 0.39074 0.73931 0.94153
 C932 C 0.38811 0.72896 0.92191
 N933 N 0.37751 0.70902 0.92121
 N934 N 0.36998 0.69967 0.93971
 C935 C 0.37291 0.70989 0.95950
 N936 N 0.38329 0.72997 0.95995
 C937 C 0.39839 0.73835 0.90273
 C938 C 0.40850 0.74729 0.88804
 C939 C 0.42198 0.75910 0.87243
 N940 N 0.42955 0.74914 0.85382
 N941 N 0.44398 0.75965 0.84070
 C942 C 0.45141 0.78036 0.84592
 N943 N 0.44366 0.79027 0.86447
 N944 N 0.42923 0.77982 0.87750
 N945 N 0.73461 0.94672 0.40371
 C946 C 0.72738 0.92612 0.39825
 N947 N 0.70967 0.92397 0.38451
 N948 N 0.69943 0.94199 0.37663
 C949 C 0.70653 0.96274 0.38228
 N950 N 0.72439 0.96465 0.39589
 C951 C 0.73799 0.90717 0.40802
 C952 C 0.74787 0.89264 0.41756
 C953 C 0.76072 0.87715 0.43025
 N954 N 0.75172 0.85781 0.43760
 N955 N 0.76324 0.84465 0.45114
 C956 C 0.78405 0.85052 0.45785
 N957 N 0.79299 0.86981 0.45032
 N958 N 0.78152 0.88289 0.43680
 N959 N 0.28631 0.93575 0.58177
 C960 C 0.29135 0.91627 0.59176
 N961 N 0.30424 0.91655 0.61011
 N962 N 0.31168 0.93580 0.61828
 C963 C 0.30640 0.95543 0.60845
 N964 N 0.29368 0.95493 0.58995
 C965 C 0.28151 0.89605 0.58368
 C966 C 0.27173 0.88029 0.57604
 C967 C 0.25845 0.86324 0.56588
 N968 N 0.26788 0.84477 0.55701
 N969 N 0.25557 0.83045 0.54538
 C970 C 0.23346 0.83421 0.54219
 N971 N 0.22410 0.85256 0.55133
 N972 N 0.23636 0.86678 0.56297
 N973 N 0.29186 0.07917 0.38014
 C974 C 0.27350 0.07807 0.39317
 N975 N 0.26480 0.05792 0.39816
 N976 N 0.27422 0.03942 0.39060
 C977 C 0.29271 0.04029 0.37772
 N978 N 0.30128 0.06059 0.37252
 C979 C 0.26380 0.09761 0.40280
 C980 C 0.25460 0.11269 0.41221
 C981 C 0.24245 0.12890 0.42477
 N982 N 0.22088 0.12483 0.43001
 N983 N 0.20995 0.13828 0.44365
 C984 C 0.22019 0.15628 0.45259
 N985 N 0.24177 0.16051 0.44716
 N986 N 0.25275 0.14698 0.43352
 N987 N 0.70880 0.06032 0.58159
 C988 C 0.70584 0.08002 0.59199
 N989 N 0.69455 0.08047 0.61134
 N990 N 0.68670 0.06168 0.62011
 C991 C 0.68999 0.04180 0.60989
 N992 N 0.70103 0.04159 0.59037
 C993 C 0.71674 0.09948 0.58353
 C994 C 0.72744 0.11448 0.57566
 C995 C 0.74174 0.13053 0.56535
 N996 N 0.76299 0.12477 0.56044
 N997 N 0.77604 0.13852 0.54911
 C998 C 0.76833 0.15857 0.54230
 N999 N 0.74709 0.16447 0.54743
 N1000 N 0.73397 0.15065 0.55876
 N1001 N 0.93471 0.58242 0.29068
 C1002 C 0.91564 0.59418 0.29305
 N1003 N 0.91633 0.61413 0.30350
 N1004 N 0.93562 0.62212 0.31111
 C1005 C 0.95488 0.61049 0.30842
 N1006 N 0.95394 0.59041 0.29821
 C1007 C 0.89572 0.58637 0.28245
 C1008 C 0.88035 0.57885 0.27201
 C1009 C 0.86392 0.56876 0.25800
 N1010 N 0.84489 0.55990 0.26634
 N1011 N 0.83114 0.54827 0.25343
 C1012 C 0.83604 0.54506 0.23180
 N1013 N 0.85497 0.55417 0.22352
 N1014 N 0.86864 0.56582 0.23638
 N1015 N 0.91754 0.38923 0.69798
 C1016 C 0.91812 0.40928 0.70825
 N1017 N 0.93777 0.42025 0.70983
 N1018 N 0.95634 0.41139 0.70174
 C1019 C 0.95602 0.39118 0.69174
 N1020 N 0.93617 0.38037 0.68980
 C1021 C 0.89903 0.41791 0.71961
 C1022 C 0.88446 0.42605 0.73064
 C1023 C 0.86904 0.43678 0.74524
 N1024 N 0.87532 0.44100 0.76626
 N1025 N 0.86233 0.45290 0.77954
 C1026 C 0.84255 0.46099 0.77228
 N1027 N 0.83612 0.45654 0.75127
 N1028 N 0.84919 0.44465 0.73793
 N1029 N 0.06155 0.60494 0.73992
 C1030 C 0.08164 0.60745 0.73008
 N1031 N 0.08287 0.61845 0.71062
 N1032 N 0.06446 0.62651 0.70124
 C1033 C 0.04419 0.62375 0.71095
 N1034 N 0.04320 0.61293 0.73055
 C1035 C 0.10080 0.59689 0.73958
 C1036 C 0.11553 0.58672 0.74854
 C1037 C 0.13120 0.57327 0.76039
 N1038 N 0.14933 0.56440 0.75030
 N1039 N 0.16232 0.54996 0.76095
 C1040 C 0.15748 0.54384 0.78196
 N1041 N 0.13943 0.55290 0.79199
 N1042 N 0.12653 0.56734 0.78140
 N1043 N 0.07841 0.37760 0.28890
 C1044 C 0.07758 0.38869 0.26947
 N1045 N 0.05757 0.39210 0.25976
 N1046 N 0.03892 0.38491 0.26924
 C1047 C 0.03951 0.37401 0.28881
 N1048 N 0.05969 0.37034 0.29838
 C1049 C 0.09715 0.39846 0.25989
 C1050 C 0.11227 0.40806 0.25089
 C1051 C 0.12847 0.42093 0.23902
 N1052 N 0.12449 0.42621 0.21771
 N1053 N 0.13775 0.44034 0.20709
 C1054 C 0.15550 0.44973 0.21739
 N1055 N 0.15968 0.44423 0.23870
 N1056 N 0.14632 0.43010 0.24937
   
