data_POSCAR
  _audit_creation_date              2014-09-24
  _audit_creation_method            'ToBaCCo'
  _symmetry_space_group_name_H-M    'P1'
  _symmetry_Int_Tables_number       1
  _symmetry_cell_setting            triclinic
  loop_
  _symmetry_equiv_pos_as_xyz
 x,y,z
_cell_length_a 51.7189
_cell_length_b 51.9938
_cell_length_c 52.0487
_cell_angle_alpha 89.997000
_cell_angle_beta 90.005400
_cell_angle_gamma 90.010800
loop_
  _atom_site_label
  _atom_site_type_symbol
  _atom_site_fract_x
  _atom_site_fract_y
  _atom_site_fract_z
N1 N 0.28739 0.23358 0.21620
 N2 N 0.27684 0.25356 0.20477
 C3 C 0.29111 0.25988 0.18407
 C4 C 0.31154 0.24298 0.18260
 C5 C 0.30872 0.22648 0.20314
 H6 H 0.28702 0.27553 0.17101
 H7 H 0.32120 0.21056 0.20817
 Cu8 Cu 0.24561 0.26950 0.21810
 Cu9 Cu 0.27267 0.21849 0.24716
 Cu10 Cu 0.21746 0.24717 0.27189
 N11 N 0.21489 0.28565 0.23231
 N12 N 0.20396 0.27690 0.25340
 C13 C 0.18315 0.29148 0.25892
 C14 C 0.18112 0.31025 0.24031
 C15 C 0.20142 0.30609 0.22371
 H16 H 0.17040 0.28859 0.27514
 H17 H 0.20590 0.31710 0.20665
 N18 N 0.23403 0.21692 0.28780
 N19 N 0.25503 0.20600 0.27830
 C20 C 0.26162 0.18589 0.29324
 C21 C 0.24398 0.18419 0.31297
 C22 C 0.22672 0.20400 0.30906
 H23 H 0.27793 0.17330 0.28999
 H24 H 0.21005 0.20851 0.32076
 H25 H 0.23488 0.22981 0.24071
 H26 H 0.25538 0.25182 0.26036
 N27 N 0.71172 -0.23420 0.21579
 N28 N 0.72210 -0.25439 0.20457
 C29 C 0.70789 -0.26069 0.18381
 C30 C 0.68767 -0.24356 0.18214
 C31 C 0.69053 -0.22694 0.20257
 H32 H 0.71189 -0.27647 0.17087
 H33 H 0.67822 -0.21084 0.20744
 Cu34 Cu 0.75306 -0.27053 0.21827
 Cu35 Cu 0.72640 -0.21907 0.24679
 Cu36 Cu 0.78165 -0.24773 0.27154
 N37 N 0.78403 -0.28649 0.23217
 N38 N 0.79516 -0.27750 0.25306
 C39 C 0.81613 -0.29189 0.25848
 C40 C 0.81803 -0.31079 0.23999
 C41 C 0.79752 -0.30693 0.22356
 H42 H 0.82904 -0.28878 0.27454
 H43 H 0.79292 -0.31808 0.20663
 N44 N 0.76506 -0.21748 0.28745
 N45 N 0.74403 -0.20659 0.27797
 C46 C 0.73750 -0.18642 0.29287
 C47 C 0.75519 -0.18467 0.31255
 C48 C 0.77244 -0.20448 0.30865
 H49 H 0.72120 -0.17381 0.28961
 H50 H 0.78918 -0.20893 0.32028
 H51 H 0.76408 -0.23063 0.24027
 H52 H 0.74360 -0.25226 0.26035
 N53 N 0.71276 0.23438 0.78329
 N54 N 0.72301 0.25472 0.79435
 C55 C 0.70874 0.26109 0.81504
 C56 C 0.68861 0.24387 0.81687
 C57 C 0.69161 0.22711 0.79656
 H58 H 0.71263 0.27699 0.82785
 H59 H 0.67937 0.21092 0.79182
 Cu60 Cu 0.75390 0.27094 0.78055
 Cu61 Cu 0.72752 0.21911 0.75243
 Cu62 Cu 0.78257 0.24790 0.72738
 N63 N 0.78479 0.28691 0.76649
 N64 N 0.79594 0.27787 0.74564
 C65 C 0.81685 0.29233 0.74014
 C66 C 0.81868 0.31131 0.75855
 C67 C 0.79821 0.30743 0.77500
 H68 H 0.82976 0.28918 0.72409
 H69 H 0.79359 0.31862 0.79191
 N70 N 0.76609 0.21744 0.71170
 N71 N 0.74517 0.20648 0.72133
 C72 C 0.73873 0.18614 0.70661
 C73 C 0.75637 0.18435 0.68689
 C74 C 0.77350 0.20433 0.69058
 H75 H 0.72254 0.17344 0.71002
 H76 H 0.79016 0.20880 0.67886
 H77 H 0.76518 0.23098 0.75880
 H78 H 0.74455 0.25233 0.73859
 N79 N 0.28721 -0.23425 0.78396
 N80 N 0.27671 -0.25431 0.79530
 C81 C 0.29098 -0.26066 0.81599
 C82 C 0.31136 -0.24370 0.81755
 C83 C 0.30851 -0.22713 0.79707
 H84 H 0.28694 -0.27639 0.82898
 H85 H 0.32096 -0.21117 0.79210
 Cu86 Cu 0.24555 -0.27029 0.78186
 Cu87 Cu 0.27252 -0.21915 0.75298
 Cu88 Cu 0.21732 -0.24787 0.72816
 N89 N 0.21482 -0.28644 0.76770
 N90 N 0.20384 -0.27764 0.74665
 C91 C 0.18299 -0.29218 0.74113
 C92 C 0.18103 -0.31097 0.75972
 C93 C 0.20136 -0.30689 0.77630
 H94 H 0.17020 -0.28923 0.72495
 H95 H 0.20587 -0.31790 0.79336
 N96 N 0.23392 -0.21759 0.71227
 N97 N 0.25490 -0.20667 0.72181
 C98 C 0.26145 -0.18649 0.70694
 C99 C 0.24382 -0.18475 0.68721
 C100 C 0.22658 -0.20460 0.69105
 H101 H 0.27772 -0.17385 0.71025
 H102 H 0.20989 -0.20908 0.67936
 H103 H 0.23471 -0.23058 0.75936
 H104 H 0.25524 -0.25249 0.73962
 N105 N 0.71353 -0.23274 0.78331
 N106 N 0.72276 -0.25371 0.79411
 C107 C 0.70832 -0.25945 0.81492
 C108 C 0.68914 -0.24112 0.81701
 C109 C 0.69294 -0.22448 0.79680
 H110 H 0.71161 -0.27551 0.82775
 H111 H 0.68176 -0.20748 0.79245
 Cu112 Cu 0.75309 -0.27100 0.78012
 Cu113 Cu 0.72913 -0.21724 0.75298
 Cu114 Cu 0.78306 -0.24741 0.72779
 N115 N 0.78346 -0.28778 0.76560
 N116 N 0.79499 -0.27833 0.74513
 C117 C 0.81542 -0.29318 0.73912
 C118 C 0.81664 -0.31288 0.75671
 C119 C 0.79626 -0.30903 0.77337
 H120 H 0.82851 -0.28978 0.72329
 H121 H 0.79131 -0.32066 0.78991
 N122 N 0.76819 -0.21598 0.71283
 N123 N 0.74756 -0.20447 0.72239
 C124 C 0.74220 -0.18354 0.70807
 C125 C 0.76031 -0.18198 0.68873
 C126 C 0.77650 -0.20269 0.69219
 H127 H 0.72645 -0.17029 0.71147
 H128 H 0.79315 -0.20754 0.68060
 H129 H 0.74476 -0.25089 0.73875
 H130 H 0.76607 -0.23084 0.75987
 N131 N 0.28730 0.23239 0.78305
 N132 N 0.27805 0.25333 0.79387
 C133 C 0.29253 0.25906 0.81465
 C134 C 0.31171 0.24074 0.81672
 C135 C 0.30791 0.22410 0.79650
 H136 H 0.28928 0.27509 0.82748
 H137 H 0.31909 0.20708 0.79210
 Cu138 Cu 0.24769 0.27063 0.77988
 Cu139 Cu 0.27164 0.21694 0.75277
 Cu140 Cu 0.21762 0.24712 0.72765
 N141 N 0.21729 0.28747 0.76540
 N142 N 0.20572 0.27804 0.74494
 C143 C 0.18530 0.29288 0.73894
 C144 C 0.18407 0.31261 0.75652
 C145 C 0.20450 0.30873 0.77312
 H146 H 0.17218 0.28947 0.72311
 H147 H 0.20946 0.32039 0.78961
 N148 N 0.23246 0.21569 0.71273
 N149 N 0.25313 0.20420 0.72224
 C150 C 0.25839 0.18320 0.70800
 C151 C 0.24018 0.18160 0.68875
 C152 C 0.22402 0.20233 0.69220
 H153 H 0.27412 0.16995 0.71144
 H154 H 0.20729 0.20715 0.68071
 H155 H 0.25593 0.25052 0.73845
 H156 H 0.23471 0.23048 0.75954
 N157 N 0.28769 -0.23217 0.21715
 N158 N 0.27840 -0.25313 0.20637
 C159 C 0.29285 -0.25891 0.18559
 C160 C 0.31206 -0.24062 0.18347
 C161 C 0.30831 -0.22394 0.20367
 H162 H 0.28955 -0.27497 0.17280
 H163 H 0.31955 -0.20695 0.20804
 Cu164 Cu 0.24806 -0.27039 0.22044
 Cu165 Cu 0.27213 -0.21671 0.24749
 Cu166 Cu 0.21818 -0.24693 0.27277
 N167 N 0.21769 -0.28723 0.23496
 N168 N 0.20621 -0.27783 0.25548
 C169 C 0.18578 -0.29266 0.26150
 C170 C 0.18445 -0.31233 0.24386
 C171 C 0.20484 -0.30843 0.22721
 H172 H 0.17271 -0.28927 0.27736
 H173 H 0.20971 -0.32002 0.21065
 N174 N 0.23310 -0.21550 0.28769
 N175 N 0.25371 -0.20398 0.27810
 C176 C 0.25898 -0.18295 0.29231
 C177 C 0.24084 -0.18137 0.31162
 C178 C 0.22471 -0.20214 0.30824
 H179 H 0.27466 -0.16965 0.28879
 H180 H 0.20802 -0.20697 0.31978
 H181 H 0.25647 -0.25024 0.26189
 H182 H 0.23520 -0.23022 0.24089
 N183 N 0.71279 0.23179 0.21721
 N184 N 0.72165 0.25310 0.20677
 C185 C 0.70721 0.25882 0.18597
 C186 C 0.68845 0.24012 0.18347
 C187 C 0.69246 0.22326 0.20347
 H188 H 0.71021 0.27514 0.17343
 H189 H 0.68158 0.20597 0.20755
 Cu190 Cu 0.75141 0.27099 0.22127
 Cu191 Cu 0.72851 0.21634 0.24745
 Cu192 Cu 0.78217 0.24691 0.27289
 N193 N 0.78203 0.28759 0.23553
 N194 N 0.79385 0.27799 0.25576
 C195 C 0.81435 0.29280 0.26163
 C196 C 0.81537 0.31265 0.24419
 C197 C 0.79473 0.30890 0.22781
 H198 H 0.82766 0.28927 0.27727
 H199 H 0.78956 0.32066 0.21146
 N200 N 0.76753 0.21529 0.28765
 N201 N 0.74703 0.20363 0.27799
 C202 C 0.74190 0.18252 0.29211
 C203 C 0.76002 0.18100 0.31144
 C204 C 0.77600 0.20191 0.30817
 H205 H 0.72631 0.16913 0.28854
 H206 H 0.79262 0.20686 0.31976
 H207 H 0.74379 0.24984 0.26239
 H208 H 0.76520 0.23066 0.24075
 C209 C 0.23566 0.00139 0.43161
 C210 C 0.23877 0.02415 0.44540
 C211 C 0.23927 0.02362 0.47231
 C212 C 0.23528 0.00032 0.48591
 C213 C 0.23144 -0.02240 0.47137
 C214 C 0.23236 -0.02187 0.44449
 C215 C 0.23523 -0.00033 0.51486
 C216 C 0.23934 -0.02359 0.52848
 C217 C 0.23874 -0.02412 0.55539
 C218 C 0.23543 -0.00137 0.56916
 C219 C 0.23203 0.02185 0.55625
 C220 C 0.23120 0.02236 0.52938
 H221 H 0.23592 0.00176 0.41076
 H222 H 0.24303 0.04148 0.48221
 H223 H 0.22766 -0.04065 0.48053
 H224 H 0.24325 -0.04143 0.51860
 H225 H 0.23560 -0.00173 0.59001
 H226 H 0.22732 0.04059 0.52020
 C227 C 0.76463 0.00080 0.56889
 C228 C 0.76136 0.02356 0.55515
 C229 C 0.76068 0.02306 0.52824
 C230 C 0.76468 -0.00022 0.51459
 C231 C 0.76867 -0.02293 0.52908
 C232 C 0.76792 -0.02243 0.55595
 C233 C 0.76461 -0.00084 0.48564
 C234 C 0.76053 -0.02412 0.47201
 C235 C 0.76107 -0.02461 0.44510
 C236 C 0.76430 -0.00183 0.43135
 C237 C 0.76768 0.02139 0.44427
 C238 C 0.76856 0.02187 0.47114
 H239 H 0.76451 0.00114 0.58974
 H240 H 0.75680 0.04091 0.51838
 H241 H 0.77246 -0.04116 0.51988
 H242 H 0.75670 -0.04198 0.48189
 H243 H 0.76407 -0.00217 0.41051
 H244 H 0.77241 0.04009 0.48034
 C245 C 0.43114 0.23650 -0.00040
 C246 C 0.44450 0.24012 0.02257
 C247 C 0.47156 0.24064 0.02267
 C248 C 0.48575 0.23619 -0.00017
 C249 C 0.47170 0.23187 -0.02314
 C250 C 0.44462 0.23272 -0.02327
 C251 C 0.51484 0.23625 -0.00003
 C252 C 0.52901 0.24092 -0.02283
 C253 C 0.55607 0.24046 -0.02274
 C254 C 0.56945 0.23670 0.00020
 C255 C 0.55598 0.23272 0.02305
 C256 C 0.52890 0.23179 0.02291
 H257 H 0.41016 0.23671 -0.00049
 H258 H 0.48119 0.24473 0.04063
 H259 H 0.48143 0.22777 -0.04104
 H260 H 0.51937 0.24513 -0.04076
 H261 H 0.59043 0.23694 0.00028
 H262 H 0.51918 0.22751 0.04078
 C263 C 0.56959 0.76349 -0.00024
 C264 C 0.55621 0.75984 0.02272
 C265 C 0.52915 0.75928 0.02279
 C266 C 0.51498 0.76374 -0.00005
 C267 C 0.52904 0.76810 -0.02301
 C268 C 0.55611 0.76725 -0.02312
 C269 C 0.48588 0.76359 0.00006
 C270 C 0.47173 0.75891 -0.02276
 C271 C 0.44466 0.75921 -0.02267
 C272 C 0.43127 0.76283 0.00029
 C273 C 0.44472 0.76684 0.02314
 C274 C 0.47179 0.76792 0.02300
 H275 H 0.59058 0.76328 -0.00031
 H276 H 0.51952 0.75513 0.04074
 H277 H 0.51931 0.77221 -0.04092
 H278 H 0.48139 0.75482 -0.04071
 H279 H 0.41029 0.76247 0.00036
 H280 H 0.48149 0.77220 0.04088
 C281 C -0.00076 0.43181 0.23441
 C282 C 0.02241 0.44506 0.23096
 C283 C 0.02248 0.47199 0.22996
 C284 C -0.00060 0.48618 0.23386
 C285 C -0.02375 0.47219 0.23803
 C286 C -0.02383 0.44526 0.23761
 C287 C -0.00051 0.51517 0.23381
 C288 C -0.02360 0.52935 0.22992
 C289 C -0.02354 0.55628 0.23084
 C290 C -0.00036 0.56954 0.23419
 C291 C 0.02272 0.55611 0.23737
 C292 C 0.02264 0.52917 0.23787
 H293 H -0.00081 0.41094 0.23472
 H294 H 0.04065 0.48145 0.22608
 H295 H -0.04184 0.48182 0.24186
 H296 H -0.04178 0.51986 0.22610
 H297 H -0.00031 0.59042 0.23444
 H298 H 0.04074 0.51955 0.24170
 C299 C -0.00045 0.56917 0.76586
 C300 C 0.02273 0.55591 0.76910
 C301 C 0.02280 0.52897 0.76993
 C302 C -0.00029 0.51480 0.76605
 C303 C -0.02346 0.52880 0.76208
 C304 C -0.02354 0.55572 0.76270
 C305 C -0.00023 0.48579 0.76594
 C306 C -0.02334 0.47160 0.76969
 C307 C -0.02329 0.44468 0.76863
 C308 C -0.00013 0.43142 0.76528
 C309 C 0.02298 0.44486 0.76225
 C310 C 0.02293 0.47180 0.76188
 H311 H -0.00051 0.59004 0.76567
 H312 H 0.04100 0.51950 0.77366
 H313 H -0.04157 0.51920 0.75825
 H314 H -0.04153 0.48105 0.77351
 H315 H -0.00009 0.41055 0.76494
 H316 H 0.04105 0.48141 0.75817
 C317 C 0.36979 0.24339 0.08421
 C318 C 0.36829 0.22219 0.10500
 C319 C 0.36642 0.24316 0.12569
 C320 C 0.36767 0.26438 0.10517
 C321 C 0.39935 0.24384 0.08720
 C322 C 0.39751 0.26485 0.10785
 C323 C 0.39810 0.22262 0.10771
 C324 C 0.39596 0.24363 0.12876
 C325 C 0.34747 0.24276 0.14659
 C326 C 0.33133 0.24265 0.16327
 C327 C 0.41676 0.24354 0.06504
 C328 C 0.43003 0.24248 0.04605
 H329 H 0.35923 0.24337 0.06564
 H330 H 0.35608 0.20466 0.10399
 H331 H 0.35489 0.28151 0.10436
 H332 H 0.40970 0.28240 0.10878
 H333 H 0.41085 0.20547 0.10855
 H334 H 0.40650 0.24370 0.14734
 C335 C 0.63082 0.75645 0.08453
 C336 C 0.63222 0.77752 0.10547
 C337 C 0.63409 0.75641 0.12603
 C338 C 0.63294 0.73533 0.10537
 C339 C 0.60126 0.75592 0.08744
 C340 C 0.60309 0.73477 0.10796
 C341 C 0.60240 0.77700 0.10810
 C342 C 0.60454 0.75586 0.12901
 C343 C 0.65296 0.75677 0.14699
 C344 C 0.66904 0.75683 0.16374
 C345 C 0.58390 0.75631 0.06522
 C346 C 0.57066 0.75743 0.04621
 H347 H 0.64142 0.75663 0.06599
 H348 H 0.64441 0.79507 0.10460
 H349 H 0.64576 0.71822 0.10449
 H350 H 0.59093 0.71720 0.10874
 H351 H 0.58962 0.79413 0.10904
 H352 H 0.59398 0.75560 0.14758
 C353 C 0.60275 0.26543 -0.10815
 C354 C 0.63260 0.26522 -0.10554
 C355 C 0.63397 0.24394 -0.12599
 C356 C 0.60442 0.24415 -0.12898
 C357 C 0.60113 0.24447 -0.08742
 C358 C 0.60250 0.22320 -0.10786
 C359 C 0.63070 0.24429 -0.08449
 C360 C 0.63232 0.22303 -0.10522
 C361 C 0.65285 0.24358 -0.14695
 C362 C 0.66892 0.24350 -0.16370
 C363 C 0.58376 0.24410 -0.06522
 C364 C 0.57052 0.24295 -0.04622
 H365 H 0.59041 0.28287 -0.10912
 H366 H 0.64523 0.28247 -0.10482
 H367 H 0.59386 0.24408 -0.14755
 H368 H 0.58989 0.20593 -0.10860
 H369 H 0.64131 0.24440 -0.06595
 H370 H 0.64468 0.20561 -0.10417
 C371 C 0.38058 0.77746 -0.09285
 C372 C 0.38794 0.77586 -0.12164
 C373 C 0.36630 0.75602 -0.12559
 C374 C 0.35869 0.75764 -0.09711
 C375 C 0.39934 0.75525 -0.08719
 C376 C 0.37768 0.73543 -0.09114
 C377 C 0.40701 0.75363 -0.11565
 C378 C 0.38502 0.73378 -0.11996
 C379 C 0.34730 0.75646 -0.14644
 C380 C 0.33115 0.75660 -0.16311
 C381 C 0.41685 0.75556 -0.06508
 C382 C 0.43018 0.75670 -0.04614
 H383 H 0.37894 0.79542 -0.08144
 H384 H 0.39194 0.79253 -0.13437
 H385 H 0.33864 0.75933 -0.08968
 H386 H 0.37366 0.71877 -0.07841
 H387 H 0.42707 0.75191 -0.12303
 H388 H 0.38658 0.71582 -0.13139
 C389 C 0.10566 0.39273 0.20877
 C390 C 0.12847 0.39404 0.22811
 C391 C 0.12459 0.36535 0.23408
 C392 C 0.10218 0.36374 0.21477
 C393 C 0.08690 0.39917 0.23072
 C394 C 0.08311 0.37045 0.23667
 C395 C 0.10931 0.40079 0.25003
 C396 C 0.10579 0.37182 0.25599
 C397 C 0.14506 0.34599 0.23630
 C398 C 0.16158 0.32976 0.23820
 C399 C 0.06502 0.41703 0.22962
 C400 C 0.04608 0.43054 0.22965
 H401 H 0.10538 0.40157 0.18935
 H402 H 0.14739 0.40349 0.22461
 H403 H 0.09948 0.34828 0.20031
 H404 H 0.06424 0.36089 0.24015
 H405 H 0.11208 0.41626 0.26447
 H406 H 0.10603 0.36302 0.27542
 C407 C 0.09189 0.61959 0.74621
 C408 C 0.09643 0.64213 0.76507
 C409 C 0.12528 0.63523 0.76588
 C410 C 0.12104 0.61292 0.74700
 C411 C 0.08741 0.60160 0.76923
 C412 C 0.11626 0.59462 0.77005
 C413 C 0.09167 0.62391 0.78811
 C414 C 0.12088 0.61727 0.78893
 C415 C 0.14586 0.65448 0.76368
 C416 C 0.16245 0.67065 0.76177
 C417 C 0.06542 0.58384 0.77034
 C418 C 0.04643 0.57040 0.77034
 H419 H 0.07978 0.62039 0.72862
 H420 H 0.08846 0.66185 0.76300
 H421 H 0.13336 0.60864 0.73006
 H422 H 0.12420 0.57490 0.77215
 H423 H 0.07940 0.62821 0.80507
 H424 H 0.13306 0.61655 0.80648
 C425 C -0.09488 0.62171 0.20966
 C426 C -0.12390 0.61485 0.21273
 C427 C -0.12619 0.63545 0.23379
 C428 C -0.09754 0.64257 0.23072
 C429 C -0.08825 0.60190 0.23055
 C430 C -0.09063 0.62253 0.25157
 C431 C -0.11690 0.59469 0.23360
 C432 C -0.11958 0.61562 0.25466
 C433 C -0.14677 0.65470 0.23600
 C434 C -0.16337 0.67085 0.23793
 C435 C -0.06624 0.58417 0.22950
 C436 C -0.04724 0.57076 0.22954
 H437 H -0.08452 0.62397 0.19112
 H438 H -0.13785 0.61194 0.19678
 H439 H -0.08980 0.66245 0.22952
 H440 H -0.07677 0.62555 0.26757
 H441 H -0.12462 0.57480 0.23473
 H442 H -0.12999 0.61332 0.27317
 C443 C -0.10868 0.39909 0.74734
 C444 C -0.10510 0.36969 0.74416
 C445 C -0.12571 0.36525 0.76492
 C446 C -0.12966 0.39438 0.76811
 C447 C -0.08794 0.39897 0.76848
 C448 C -0.10853 0.39458 0.78929
 C449 C -0.08409 0.36983 0.76531
 C450 C -0.10499 0.36514 0.78607
 C451 C -0.14621 0.34593 0.76258
 C452 C -0.16276 0.32972 0.76059
 C453 C -0.06599 0.41675 0.76971
 C454 C -0.04701 0.43020 0.76979
 H455 H -0.11005 0.41326 0.73145
 H456 H -0.10389 0.35926 0.72560
 H457 H -0.14866 0.40423 0.76925
 H458 H -0.10970 0.40505 0.80784
 H459 H -0.06514 0.35987 0.76421
 H460 H -0.10369 0.35099 0.80198
 C461 C 0.22181 0.11049 0.39985
 C462 C 0.24356 0.13092 0.39748
 C463 C 0.24286 0.12771 0.36813
 C464 C 0.22114 0.10765 0.37024
 C465 C 0.24251 0.08933 0.40110
 C466 C 0.24181 0.08620 0.37174
 C467 C 0.26425 0.10936 0.39903
 C468 C 0.26353 0.10652 0.36939
 C469 C 0.24306 0.14848 0.34908
 C470 C 0.24336 0.16502 0.33285
 C471 C 0.24193 0.06712 0.41842
 C472 C 0.24088 0.04798 0.43145
 H473 H 0.20466 0.11189 0.41260
 H474 H 0.24424 0.14954 0.40788
 H475 H 0.20341 0.10710 0.35823
 H476 H 0.24111 0.06758 0.36134
 H477 H 0.28197 0.10984 0.41105
 H478 H 0.28069 0.10504 0.35666
 C479 C 0.77890 0.10950 0.60103
 C480 C 0.75757 0.13040 0.60281
 C481 C 0.75757 0.12738 0.63219
 C482 C 0.77887 0.10685 0.63067
 C483 C 0.75778 0.08877 0.59947
 C484 C 0.75778 0.08582 0.62886
 C485 C 0.73645 0.10927 0.60095
 C486 C 0.73647 0.10662 0.63061
 C487 C 0.75740 0.14829 0.65109
 C488 C 0.75709 0.16498 0.66719
 C489 C 0.75829 0.06650 0.58220
 C490 C 0.75929 0.04737 0.56915
 H491 H 0.79636 0.11046 0.58865
 H492 H 0.75751 0.14895 0.59226
 H493 H 0.79633 0.10602 0.64306
 H494 H 0.75785 0.06728 0.63944
 H495 H 0.71901 0.11003 0.58855
 H496 H 0.71902 0.10562 0.64299
 C497 C 0.24798 -0.11744 0.59227
 C498 C 0.26610 -0.11981 0.61592
 C499 C 0.24280 -0.12794 0.63236
 C500 C 0.22469 -0.12594 0.60904
 C501 C 0.24257 -0.08934 0.59965
 C502 C 0.21929 -0.09750 0.61610
 C503 C 0.26066 -0.09137 0.62297
 C504 C 0.23740 -0.09982 0.63965
 C505 C 0.24293 -0.14884 0.65128
 C506 C 0.24318 -0.16548 0.66742
 C507 C 0.24200 -0.06707 0.58239
 C508 C 0.24092 -0.04793 0.56936
 H509 H 0.25235 -0.12441 0.57259
 H510 H 0.28537 -0.12920 0.61605
 H511 H 0.20986 -0.14035 0.60351
 H512 H 0.20003 -0.08808 0.61598
 H513 H 0.27547 -0.07694 0.62851
 H514 H 0.23301 -0.09275 0.65930
 C515 C 0.77671 -0.11187 0.40048
 C516 C 0.75409 -0.13114 0.39690
 C517 C 0.75658 -0.12805 0.36763
 C518 C 0.77917 -0.10915 0.37094
 C519 C 0.75712 -0.08966 0.40059
 C520 C 0.75961 -0.08664 0.37132
 C521 C 0.73451 -0.10853 0.39732
 C522 C 0.73701 -0.10581 0.36777
 C523 C 0.75628 -0.14885 0.34859
 C524 C 0.75590 -0.16542 0.33238
 C525 C 0.75778 -0.06748 0.41798
 C526 C 0.75888 -0.04840 0.43108
 H527 H 0.79304 -0.11414 0.41414
 H528 H 0.75183 -0.14966 0.40728
 H529 H 0.79755 -0.10955 0.35993
 H530 H 0.76188 -0.06812 0.36094
 H531 H 0.71617 -0.10803 0.40837
 H532 H 0.72068 -0.10346 0.35414
 C533 C 0.60405 0.78825 -0.10936
 C534 C 0.63387 0.78723 -0.10637
 C535 C 0.63481 0.76499 -0.12579
 C536 C 0.60530 0.76598 -0.12918
 C537 C 0.60152 0.76832 -0.08771
 C538 C 0.60246 0.74610 -0.10716
 C539 C 0.63104 0.76735 -0.08441
 C540 C 0.63221 0.74513 -0.10412
 C541 C 0.65387 0.76280 -0.14649
 C542 C 0.66987 0.76095 -0.16323
 C543 C 0.58388 0.76926 -0.06569
 C544 C 0.57051 0.76898 -0.04673
 H545 H 0.59228 0.80601 -0.11133
 H546 H 0.64702 0.80410 -0.10627
 H547 H 0.59493 0.76538 -0.14785
 H548 H 0.58929 0.72924 -0.10727
 H549 H 0.64146 0.76797 -0.06577
 H550 H 0.64397 0.72739 -0.10216
 C551 C 0.38115 0.25450 -0.09251
 C552 C 0.38825 0.25382 -0.12139
 C553 C 0.36594 0.23485 -0.12595
 C554 C 0.35860 0.23557 -0.09737
 C555 C 0.39924 0.23151 -0.08788
 C556 C 0.37692 0.21255 -0.09244
 C557 C 0.40665 0.23080 -0.11645
 C558 C 0.38400 0.21183 -0.12138
 C559 C 0.34694 0.23693 -0.14673
 C560 C 0.33098 0.23871 -0.16351
 C561 C 0.41687 0.23061 -0.06586
 C562 C 0.43023 0.23095 -0.04689
 H563 H 0.38020 0.27203 -0.08038
 H564 H 0.39267 0.27088 -0.13345
 H565 H 0.33868 0.23763 -0.08970
 H566 H 0.37245 0.19551 -0.08037
 H567 H 0.42658 0.22876 -0.12410
 H568 H 0.38489 0.19431 -0.13354
 C569 C 0.36991 0.76706 0.08464
 C570 C 0.36887 0.74503 0.10458
 C571 C 0.36626 0.76511 0.12606
 C572 C 0.36705 0.78714 0.10641
 C573 C 0.39943 0.76820 0.08785
 C574 C 0.39687 0.78833 0.10931
 C575 C 0.39863 0.74617 0.10751
 C576 C 0.39577 0.76625 0.12935
 C577 C 0.34729 0.76309 0.14688
 C578 C 0.33133 0.76135 0.16368
 C579 C 0.41699 0.76901 0.06575
 C580 C 0.43032 0.76863 0.04676
 H581 H 0.35944 0.76746 0.06602
 H582 H 0.35718 0.72721 0.10282
 H583 H 0.35379 0.80393 0.10616
 H584 H 0.40855 0.80616 0.11109
 H585 H 0.41186 0.72936 0.10776
 H586 H 0.40618 0.76582 0.14799
 C587 C 0.63076 0.23235 0.08454
 C588 C 0.63173 0.25433 0.10453
 C589 C 0.63439 0.23420 0.12596
 C590 C 0.63367 0.21221 0.10625
 C591 C 0.60124 0.23112 0.08774
 C592 C 0.60385 0.21094 0.10915
 C593 C 0.60197 0.25310 0.10746
 C594 C 0.60489 0.23297 0.12924
 C595 C 0.65335 0.23625 0.14680
 C596 C 0.66927 0.23805 0.16362
 C597 C 0.58369 0.23035 0.06565
 C598 C 0.57036 0.23081 0.04665
 H599 H 0.64122 0.23204 0.06592
 H600 H 0.64337 0.27219 0.10282
 H601 H 0.64696 0.19546 0.10596
 H602 H 0.59223 0.19308 0.11088
 H603 H 0.58869 0.26987 0.10772
 H604 H 0.59447 0.23330 0.14789
 C605 C -0.09457 0.61913 0.73672
 C606 C -0.12356 0.61183 0.73863
 C607 C -0.12736 0.63339 0.75846
 C608 C -0.09871 0.64095 0.75651
 C609 C -0.08871 0.60053 0.75890
 C610 C -0.09255 0.62213 0.77869
 C611 C -0.11734 0.59291 0.76084
 C612 C -0.12150 0.61481 0.78064
 C613 C -0.14832 0.65230 0.75822
 C614 C -0.16504 0.66843 0.75773
 C615 C -0.06641 0.58317 0.75952
 C616 C -0.04727 0.57000 0.76058
 H617 H -0.08328 0.62072 0.71863
 H618 H -0.13658 0.60785 0.72215
 H619 H -0.09125 0.66090 0.75474
 H620 H -0.07957 0.62619 0.79520
 H621 H -0.12477 0.57295 0.76261
 H622 H -0.13283 0.61330 0.79868
 C623 C -0.11095 0.39999 0.22192
 C624 C -0.10827 0.37038 0.22000
 C625 C -0.12762 0.36752 0.24219
 C626 C -0.13068 0.39685 0.24414
 C627 C -0.08893 0.40036 0.24173
 C628 C -0.10826 0.39752 0.26395
 C629 C -0.08595 0.37102 0.23978
 C630 C -0.10558 0.36790 0.26199
 C631 C -0.14861 0.34860 0.24252
 C632 C -0.16533 0.33247 0.24305
 C633 C -0.06666 0.41775 0.24105
 C634 C -0.04755 0.43096 0.23988
 H635 H -0.11290 0.41343 0.20545
 H636 H -0.10850 0.35904 0.20193
 H637 H -0.14935 0.40723 0.24589
 H638 H -0.10804 0.40887 0.28201
 H639 H -0.06733 0.36054 0.23801
 H640 H -0.10357 0.35448 0.27846
 C641 C 0.10587 0.39517 0.73535
 C642 C 0.12965 0.39638 0.75349
 C643 C 0.12696 0.36735 0.75835
 C644 C 0.10356 0.36587 0.74023
 C645 C 0.08815 0.40004 0.75853
 C646 C 0.08555 0.37100 0.76339
 C647 C 0.11154 0.40155 0.77668
 C648 C 0.10923 0.37223 0.78151
 C649 C 0.14799 0.34848 0.75810
 C650 C 0.16473 0.33238 0.75761
 C651 C 0.06583 0.41737 0.75906
 C652 C 0.04671 0.43056 0.76011
 H653 H 0.10429 0.40477 0.71637
 H654 H 0.14806 0.40660 0.74949
 H655 H 0.10053 0.35095 0.72527
 H656 H 0.06719 0.36068 0.76743
 H657 H 0.11455 0.41645 0.79165
 H658 H 0.11084 0.36262 0.80049
 C659 C 0.09429 0.61974 0.21959
 C660 C 0.09846 0.64111 0.23984
 C661 C 0.12702 0.63324 0.24181
 C662 C 0.12317 0.61211 0.22154
 C663 C 0.08804 0.60074 0.24135
 C664 C 0.11658 0.59281 0.24331
 C665 C 0.09192 0.62190 0.26159
 C666 C 0.12081 0.61427 0.26359
 C667 C 0.14816 0.65199 0.24216
 C668 C 0.16501 0.66799 0.24271
 C669 C 0.06564 0.58352 0.24069
 C670 C 0.04647 0.57039 0.23956
 H671 H 0.08313 0.62181 0.20148
 H672 H 0.09123 0.66116 0.23836
 H673 H 0.13625 0.60833 0.20506
 H674 H 0.12377 0.57275 0.24476
 H675 H 0.07887 0.62576 0.27808
 H676 H 0.13200 0.61223 0.28167
 C677 C 0.77326 -0.11500 0.59479
 C678 C 0.79037 -0.11785 0.61911
 C679 C 0.76614 -0.12474 0.63474
 C680 C 0.74902 -0.12225 0.61076
 C681 C 0.76882 -0.08661 0.60166
 C682 C 0.74461 -0.09355 0.61733
 C683 C 0.78593 -0.08911 0.62566
 C684 C 0.76170 -0.09635 0.64155
 C685 C 0.76423 -0.14553 0.65362
 C686 C 0.76245 -0.16229 0.66950
 C687 C 0.76960 -0.06465 0.58409
 C688 C 0.76937 -0.04580 0.57066
 H689 H 0.77805 -0.12254 0.57541
 H690 H 0.80915 -0.12815 0.62015
 H691 H 0.73384 -0.13618 0.60495
 H692 H 0.72572 -0.08344 0.61647
 H693 H 0.80119 -0.07534 0.63166
 H694 H 0.75693 -0.08896 0.66099
 C695 C 0.25272 -0.10714 0.39931
 C696 C 0.23135 -0.12755 0.39470
 C697 C 0.23491 -0.12411 0.36559
 C698 C 0.25628 -0.10406 0.36994
 C699 C 0.23198 -0.08601 0.39870
 C700 C 0.23554 -0.08264 0.36958
 C701 C 0.21057 -0.10602 0.39440
 C702 C 0.21417 -0.10296 0.36499
 C703 C 0.23687 -0.14487 0.34667
 C704 C 0.23867 -0.16163 0.33079
 C705 C 0.23102 -0.06407 0.41628
 C706 C 0.23109 -0.04523 0.42975
 H707 H 0.26854 -0.10864 0.41365
 H708 H 0.22966 -0.14625 0.40485
 H709 H 0.27510 -0.10342 0.35971
 H710 H 0.23723 -0.06393 0.35944
 H711 H 0.19178 -0.10658 0.40469
 H712 H 0.19833 -0.10141 0.35067
 C713 C 0.74681 0.10573 0.39792
 C714 C 0.76744 0.12712 0.39469
 C715 C 0.76583 0.12371 0.36541
 C716 C 0.74519 0.10268 0.36838
 C717 C 0.76851 0.08557 0.39850
 C718 C 0.76690 0.08223 0.36920
 C719 C 0.78919 0.10658 0.39558
 C720 C 0.78754 0.10355 0.36599
 C721 C 0.76398 0.14450 0.34650
 C722 C 0.76223 0.16127 0.33061
 C723 C 0.76932 0.06361 0.41609
 C724 C 0.76912 0.04477 0.42955
 H725 H 0.73009 0.10639 0.41129
 H726 H 0.76761 0.14582 0.40498
 H727 H 0.72707 0.10127 0.35703
 H728 H 0.76669 0.06354 0.35889
 H729 H 0.80727 0.10794 0.40699
 H730 H 0.80428 0.10284 0.35266
 C731 C 0.25348 0.10575 0.60282
 C732 C 0.23330 0.12763 0.60548
 C733 C 0.23419 0.12434 0.63482
 C734 C 0.25437 0.10281 0.63240
 C735 C 0.23132 0.08610 0.60187
 C736 C 0.23220 0.08288 0.63120
 C737 C 0.21109 0.10760 0.60423
 C738 C 0.21202 0.10469 0.63386
 C739 C 0.23616 0.14514 0.65368
 C740 C 0.23798 0.16189 0.66956
 C741 C 0.23043 0.06409 0.58437
 C742 C 0.23060 0.04522 0.57096
 H743 H 0.27050 0.10596 0.58983
 H744 H 0.23378 0.14627 0.59509
 H745 H 0.27219 0.10102 0.64416
 H746 H 0.23172 0.06423 0.64158
 H747 H 0.19330 0.10929 0.59242
 H748 H 0.19498 0.10444 0.64683
   
