data_POSCAR
  _audit_creation_date              2014-09-24
  _audit_creation_method            'ToBaCCo'
  _symmetry_space_group_name_H-M    'P1'
  _symmetry_Int_Tables_number       1
  _symmetry_cell_setting            triclinic
  loop_
  _symmetry_equiv_pos_as_xyz
 x,y,z
_cell_length_a 38.0686
_cell_length_b 37.0359
_cell_length_c 38.0690
_cell_angle_alpha 89.999300
_cell_angle_beta 90.000100
_cell_angle_gamma 90.000500
loop_
  _atom_site_label
  _atom_site_type_symbol
  _atom_site_fract_x
  _atom_site_fract_y
  _atom_site_fract_z
C1 C 0.59885 0.62426 0.65009
 C2 C 0.57252 0.65075 0.64921
 C3 C 0.57240 0.67736 0.62289
 C4 C 0.59890 0.67726 0.59720
 C5 C 0.62561 0.65118 0.59796
 C6 C 0.62566 0.62463 0.62458
 C7 C 0.59885 0.59761 0.67628
 C8 C 0.62584 0.57146 0.67810
 C9 C 0.65269 0.57248 0.65247
 C10 C 0.65252 0.59848 0.62567
 C11 C 0.67880 0.59862 0.59983
 C12 C 0.67886 0.62490 0.57321
 C13 C 0.65231 0.65125 0.57257
 H14 H 0.55186 0.65051 0.66881
 H15 H 0.59903 0.69788 0.57699
 H16 H 0.57853 0.59852 0.69616
 H17 H 0.67310 0.55211 0.65222
 H18 H 0.69950 0.57853 0.60059
 H19 H 0.65217 0.67144 0.55195
 C20 C 0.90010 0.37427 0.15115
 C21 C 0.92628 0.34763 0.15115
 C22 C 0.92810 0.32147 0.12416
 C23 C 0.90247 0.32249 0.09731
 C24 C 0.87568 0.34849 0.09748
 C25 C 0.87458 0.37464 0.12434
 C26 C 0.89921 0.40076 0.17748
 C27 C 0.87289 0.42737 0.17760
 C28 C 0.84721 0.42727 0.15109
 C29 C 0.84796 0.40119 0.12438
 C30 C 0.82258 0.40125 0.09769
 C31 C 0.82322 0.37490 0.07114
 C32 C 0.84983 0.34862 0.07120
 H33 H 0.94617 0.34853 0.17147
 H34 H 0.90222 0.30212 0.07691
 H35 H 0.91882 0.40053 0.19813
 H36 H 0.82699 0.44789 0.15096
 H37 H 0.80195 0.42144 0.09783
 H38 H 0.85060 0.32853 0.05050
 C39 C 0.40115 0.12425 -0.15009
 C40 C 0.42748 0.15074 -0.14921
 C41 C 0.42760 0.17735 -0.12289
 C42 C 0.40110 0.17725 -0.09720
 C43 C 0.37439 0.15117 -0.09796
 C44 C 0.37434 0.12462 -0.12458
 C45 C 0.40115 0.09761 -0.17627
 C46 C 0.37416 0.07145 -0.17809
 C47 C 0.34731 0.07248 -0.15247
 C48 C 0.34748 0.09847 -0.12567
 C49 C 0.32120 0.09861 -0.09983
 C50 C 0.32114 0.12489 -0.07321
 C51 C 0.34769 0.15124 -0.07257
 H52 H 0.44814 0.15051 -0.16882
 H53 H 0.40097 0.19788 -0.07699
 H54 H 0.42147 0.09851 -0.19616
 H55 H 0.32690 0.05210 -0.15221
 H56 H 0.30050 0.07852 -0.10059
 H57 H 0.34783 0.17143 -0.05195
 C58 C 0.09991 0.87427 0.34885
 C59 C 0.07372 0.84762 0.34885
 C60 C 0.07190 0.82147 0.37584
 C61 C 0.09753 0.82249 0.40269
 C62 C 0.12432 0.84849 0.40253
 C63 C 0.12542 0.87463 0.37566
 C64 C 0.10080 0.90076 0.32252
 C65 C 0.12711 0.92737 0.32240
 C66 C 0.15280 0.92726 0.34890
 C67 C 0.15204 0.90118 0.37561
 C68 C 0.17743 0.90125 0.40231
 C69 C 0.17679 0.87490 0.42886
 C70 C 0.15017 0.84862 0.42880
 H71 H 0.05384 0.84853 0.32853
 H72 H 0.09778 0.80212 0.42310
 H73 H 0.08119 0.90052 0.30186
 H74 H 0.17301 0.94789 0.34904
 H75 H 0.19805 0.92144 0.40217
 H76 H 0.14940 0.82853 0.44951
 N77 N 0.08291 0.18139 0.10833
 N78 N 0.07087 0.16823 0.13806
 C79 C 0.04289 0.18783 0.14835
 C80 C 0.03687 0.21437 0.12351
 C81 C 0.06271 0.20943 0.09843
 H82 H 0.02758 0.18284 0.17177
 H83 H 0.06685 0.22544 0.07504
 Cu84 Cu 0.09229 0.12591 0.15942
 Cu85 Cu 0.12461 0.16206 0.08534
 Cu86 Cu 0.16394 0.08749 0.12420
 N87 N 0.11408 0.08383 0.18082
 N88 N 0.14240 0.06920 0.16712
 C89 C 0.15212 0.04070 0.18680
 C90 C 0.12845 0.03704 0.21418
 C91 C 0.10464 0.06490 0.20951
 H92 H 0.17432 0.02345 0.18115
 H93 H 0.08225 0.07100 0.22593
 N94 N 0.18170 0.11001 0.08073
 N95 N 0.16702 0.13867 0.06624
 C96 C 0.18570 0.14817 0.03764
 C97 C 0.21329 0.12420 0.03377
 C98 C 0.20987 0.10033 0.06150
 H99 H 0.17955 0.17069 0.02067
 H100 H 0.22709 0.07798 0.06757
 H101 H 0.11882 0.10975 0.10330
 H102 H 0.14731 0.14030 0.12989
 N103 N 0.41712 0.81919 0.60759
 N104 N 0.43081 0.83381 0.63592
 C105 C 0.45951 0.81489 0.64536
 C106 C 0.46418 0.78704 0.62155
 C107 C 0.43680 0.79070 0.59788
 H108 H 0.47592 0.82098 0.66776
 H109 H 0.43115 0.77345 0.57567
 Cu110 Cu 0.40941 0.87590 0.65772
 Cu111 Cu 0.37420 0.83749 0.58606
 Cu112 Cu 0.33534 0.91205 0.62540
 N113 N 0.38805 0.91821 0.67914
 N114 N 0.35832 0.93137 0.66711
 C115 C 0.34842 0.95941 0.68731
 C116 C 0.37350 0.96435 0.71315
 C117 C 0.39834 0.93780 0.70712
 H118 H 0.32503 0.97542 0.68317
 H119 H 0.42177 0.93282 0.72243
 N120 N 0.31623 0.88866 0.58298
 N121 N 0.33073 0.86001 0.56830
 C122 C 0.31151 0.85033 0.54012
 C123 C 0.28377 0.87420 0.53671
 C124 C 0.28764 0.89816 0.56431
 H125 H 0.31758 0.82798 0.52290
 H126 H 0.27066 0.92068 0.57046
 H127 H 0.37989 0.89029 0.60269
 H128 H 0.35329 0.85974 0.63118
 N129 N 0.91709 0.68139 0.39167
 N130 N 0.92913 0.66822 0.36194
 C131 C 0.95712 0.68782 0.35166
 C132 C 0.96313 0.71437 0.37650
 C133 C 0.93729 0.70943 0.40157
 H134 H 0.97243 0.68283 0.32824
 H135 H 0.93315 0.72545 0.42496
 Cu136 Cu 0.90772 0.62591 0.34059
 Cu137 Cu 0.87539 0.66207 0.41465
 Cu138 Cu 0.83605 0.58750 0.37579
 N139 N 0.88592 0.58382 0.31918
 N140 N 0.85759 0.56921 0.33287
 C141 C 0.84787 0.54071 0.31320
 C142 C 0.87155 0.53704 0.28582
 C143 C 0.89536 0.56490 0.29049
 H144 H 0.82567 0.52346 0.31884
 H145 H 0.91776 0.57099 0.27409
 N146 N 0.81828 0.61002 0.41926
 N147 N 0.83297 0.63868 0.43375
 C148 C 0.81429 0.64818 0.46235
 C149 C 0.78670 0.62422 0.46622
 C150 C 0.79011 0.60034 0.43848
 H151 H 0.82044 0.67070 0.47932
 H152 H 0.77290 0.57799 0.43241
 H153 H 0.88117 0.60976 0.39670
 H154 H 0.85269 0.64031 0.37010
 N155 N 0.58288 0.31919 -0.10760
 N156 N 0.56919 0.33381 -0.13592
 C157 C 0.54050 0.31488 -0.14537
 C158 C 0.53583 0.28703 -0.12156
 C159 C 0.56321 0.29068 -0.09789
 H160 H 0.52409 0.32098 -0.16776
 H161 H 0.56886 0.27343 -0.07568
 Cu162 Cu 0.59059 0.37590 -0.15772
 Cu163 Cu 0.62581 0.33749 -0.08606
 Cu164 Cu 0.66466 0.41206 -0.12539
 N165 N 0.61194 0.41822 -0.17914
 N166 N 0.64167 0.43138 -0.16710
 C167 C 0.65157 0.45942 -0.18729
 C168 C 0.62650 0.46436 -0.21314
 C169 C 0.60165 0.43781 -0.20712
 H170 H 0.67496 0.47544 -0.18315
 H171 H 0.57823 0.43282 -0.22243
 N172 N 0.68376 0.38866 -0.08298
 N173 N 0.66927 0.36001 -0.06830
 C174 C 0.68850 0.35033 -0.04012
 C175 C 0.71623 0.37421 -0.03671
 C176 C 0.71235 0.39817 -0.06430
 H177 H 0.68243 0.32797 -0.02291
 H178 H 0.72933 0.42069 -0.07045
 H179 H 0.62011 0.39029 -0.10269
 H180 H 0.64671 0.35974 -0.13118
 C181 C -0.03038 0.28192 0.15570
 C182 C -0.04499 0.29492 0.12401
 C183 C -0.03193 0.28067 0.09215
 C184 C -0.00509 0.25493 0.09204
 C185 C 0.00885 0.24196 0.12368
 C186 C -0.00418 0.25549 0.15549
 H187 H -0.04007 0.29089 0.18095
 H188 H -0.04122 0.29039 0.06701
 H189 H 0.00451 0.24489 0.06711
 H190 H 0.00616 0.24591 0.18029
 C191 C 0.53564 0.72379 0.65344
 C192 C 0.54470 0.70546 0.62245
 C193 C 0.52720 0.71419 0.59111
 C194 C 0.50091 0.74055 0.59083
 C195 C 0.49195 0.75904 0.62180
 C196 C 0.50968 0.75046 0.65308
 H197 H 0.54895 0.71775 0.67789
 H198 H 0.53357 0.70027 0.56691
 H199 H 0.48791 0.74671 0.56627
 H200 H 0.50322 0.76398 0.67744
 C201 C 1.03193 0.78067 0.40786
 C202 C 1.04500 0.79491 0.37600
 C203 C 1.03039 0.78191 0.34430
 C204 C 1.00419 0.75548 0.34452
 C205 C 0.99116 0.74195 0.37632
 C206 C 1.00509 0.75493 0.40797
 H207 H 1.04122 0.79039 0.43300
 H208 H 1.04008 0.79088 0.31905
 H209 H 0.99385 0.74590 0.31971
 H210 H 0.99548 0.74489 0.43290
 C211 C 0.47281 0.21418 -0.09111
 C212 C 0.45530 0.20546 -0.12245
 C213 C 0.46436 0.22379 -0.15344
 C214 C 0.49032 0.25045 -0.15309
 C215 C 0.50805 0.25903 -0.12181
 C216 C 0.49909 0.24054 -0.09083
 H217 H 0.46643 0.20027 -0.06691
 H218 H 0.45105 0.21774 -0.17789
 H219 H 0.49678 0.26398 -0.17744
 H220 H 0.51210 0.24670 -0.06627
 C221 C 0.15889 -0.03581 0.27720
 C222 C 0.12755 -0.04453 0.29471
 C223 C 0.09657 -0.02620 0.28565
 C224 C 0.09692 0.00047 0.25969
 C225 C 0.12820 0.00905 0.24196
 C226 C 0.15917 -0.00944 0.25091
 H227 H 0.18309 -0.04972 0.28357
 H228 H 0.07211 -0.03224 0.29896
 H229 H 0.07257 0.01400 0.25323
 H230 H 0.18374 -0.00328 0.23791
 C231 C 0.59430 0.53190 -0.28039
 C232 C 0.62600 0.54490 -0.29500
 C233 C 0.65786 0.53066 -0.28194
 C234 C 0.65797 0.50492 -0.25510
 C235 C 0.62632 0.49194 -0.24116
 C236 C 0.59452 0.50548 -0.25419
 H237 H 0.56905 0.54087 -0.29008
 H238 H 0.68300 0.54038 -0.29123
 H239 H 0.68290 0.49488 -0.24549
 H240 H 0.56971 0.49590 -0.24385
 C241 C 0.34214 1.03065 0.78194
 C242 C 0.37400 1.04490 0.79501
 C243 C 0.40570 1.03189 0.78039
 C244 C 0.40548 1.00547 0.75420
 C245 C 0.37367 0.99193 0.74117
 C246 C 0.34203 1.00491 0.75511
 H247 H 0.31700 1.04037 0.79124
 H248 H 0.43095 1.04086 0.79008
 H249 H 0.43029 0.99589 0.74386
 H250 H 0.31710 0.99486 0.74550
 C251 C 0.84111 0.46420 0.22280
 C252 C 0.87245 0.45548 0.20529
 C253 C 0.90344 0.47380 0.21436
 C254 C 0.90308 0.50047 0.24032
 C255 C 0.87180 0.50905 0.25805
 C256 C 0.84083 0.49057 0.24908
 H257 H 0.81691 0.45029 0.21642
 H258 H 0.92789 0.46776 0.20105
 H259 H 0.92744 0.51399 0.24678
 H260 H 0.81627 0.49672 0.26208
 C261 C 0.28457 0.09256 -0.02851
 C262 C 0.29340 0.12471 -0.04595
 C263 C 0.27565 0.15668 -0.03712
 C264 C 0.24940 0.15645 -0.01144
 C265 C 0.24076 0.12436 0.00625
 C266 C 0.25868 0.09243 -0.00248
 H267 H 0.29806 0.06761 -0.03472
 H268 H 0.28185 0.18176 -0.05036
 H269 H 0.23625 0.18154 -0.00512
 H270 H 0.25244 0.06723 0.01050
 C271 C 0.71543 0.59257 0.52851
 C272 C 0.70660 0.62472 0.54595
 C273 C 0.72435 0.65668 0.53711
 C274 C 0.75059 0.65646 0.51143
 C275 C 0.75923 0.62437 0.49374
 C276 C 0.74132 0.59244 0.50248
 H277 H 0.70194 0.56762 0.53472
 H278 H 0.71814 0.68177 0.55035
 H279 H 0.76373 0.68155 0.50511
 H280 H 0.74755 0.56724 0.48950
 C281 C 0.78711 0.40668 0.02565
 C282 C 0.79596 0.37472 0.04339
 C283 C 0.77852 0.34256 0.03457
 C284 C 0.75249 0.34243 0.00868
 C285 C 0.74375 0.37436 -0.00924
 C286 C 0.76144 0.40646 -0.00060
 H287 H 0.80035 0.43177 0.03185
 H288 H 0.78473 0.31762 0.04806
 H289 H 0.73951 0.31723 0.00244
 H290 H 0.75511 0.43154 -0.01374
 C291 C 0.21289 0.90668 0.47436
 C292 C 0.20405 0.87472 0.45661
 C293 C 0.22149 0.84256 0.46543
 C294 C 0.24752 0.84243 0.49132
 C295 C 0.25625 0.87436 0.50925
 C296 C 0.23856 0.90646 0.50060
 H297 H 0.19965 0.93177 0.46815
 H298 H 0.21528 0.81762 0.45194
 H299 H 0.26049 0.81723 0.49756
 H300 H 0.24488 0.93154 0.51375
   
