data_POSCAR
  _audit_creation_date              2014-09-24
  _audit_creation_method            'ToBaCCo'
  _symmetry_space_group_name_H-M    'P1'
  _symmetry_Int_Tables_number       1
  _symmetry_cell_setting            triclinic
  loop_
  _symmetry_equiv_pos_as_xyz
 x,y,z
_cell_length_a 28.8981
_cell_length_b 28.7792
_cell_length_c 28.8976
_cell_angle_alpha 89.906400
_cell_angle_beta 89.998400
_cell_angle_gamma 90.128800
loop_
  _atom_site_label
  _atom_site_type_symbol
  _atom_site_fract_x
  _atom_site_fract_y
  _atom_site_fract_z
N1 N 0.57066 0.69882 0.60592
 N2 N 0.55248 0.67970 0.64314
 C3 C 0.51506 0.70439 0.65602
 C4 C 0.50986 0.74062 0.62522
 C5 C 0.54548 0.73625 0.59386
 H6 H 0.49327 0.69675 0.68548
 H7 H 0.55250 0.75860 0.56454
 Cu8 Cu 0.57968 0.62448 0.67088
 Cu9 Cu 0.62555 0.67381 0.57585
 Cu10 Cu 0.67442 0.57536 0.62490
 N11 N 0.60732 0.56925 0.69818
 N12 N 0.64446 0.55021 0.67996
 C13 C 0.65659 0.51283 0.70527
 C14 C 0.62538 0.50852 0.74107
 C15 C 0.59452 0.54459 0.73579
 H16 H 0.68586 0.49055 0.69823
 H17 H 0.56518 0.55226 0.75767
 N18 N 0.69974 0.60587 0.56916
 N19 N 0.68111 0.64338 0.55049
 C20 C 0.70615 0.65588 0.51311
 C21 C 0.74198 0.62480 0.50830
 C22 C 0.73711 0.59356 0.54413
 H23 H 0.69901 0.68536 0.49101
 H24 H 0.75923 0.56417 0.55135
 H25 H 0.61605 0.60591 0.59700
 H26 H 0.65343 0.64332 0.63422
 N27 N 0.93026 0.30014 0.10585
 N28 N 0.94852 0.31923 0.14299
 C29 C 0.98596 0.29454 0.15591
 C30 C 0.99104 0.25837 0.12515
 C31 C 0.95539 0.26270 0.09383
 H32 H 1.00774 0.30209 0.18539
 H33 H 0.94829 0.24038 0.06457
 Cu34 Cu 0.92115 0.37433 0.17052
 Cu35 Cu 0.87531 0.32511 0.07572
 Cu36 Cu 0.82650 0.42355 0.12472
 N37 N 0.89381 0.42955 0.19786
 N38 N 0.85663 0.44857 0.17970
 C39 C 0.84464 0.48597 0.20492
 C40 C 0.87596 0.49039 0.24057
 C41 C 0.90673 0.45425 0.23532
 H42 H 0.81539 0.50829 0.19786
 H43 H 0.93608 0.44659 0.25721
 N44 N 0.80114 0.39313 0.06907
 N45 N 0.81972 0.35566 0.05040
 C46 C 0.79479 0.34345 0.01290
 C47 C 0.75913 0.37473 0.00800
 C48 C 0.76393 0.40572 0.04393
 H49 H 0.80196 0.31410 -0.00927
 H50 H 0.74193 0.43519 0.05107
 H51 H 0.88467 0.39289 0.09665
 H52 H 0.84735 0.35543 0.13398
 N53 N 0.42942 0.19954 -0.10562
 N54 N 0.44763 0.18037 -0.14266
 C55 C 0.48515 0.20507 -0.15563
 C56 C 0.49038 0.24137 -0.12503
 C57 C 0.45468 0.23705 -0.09372
 H58 H 0.50698 0.19741 -0.18503
 H59 H 0.44763 0.25948 -0.06459
 Cu60 Cu 0.42031 0.12517 -0.17028
 Cu61 Cu 0.37431 0.17459 -0.07571
 Cu62 Cu 0.32512 0.07611 -0.12456
 N63 N 0.39252 0.06997 -0.19741
 N64 N 0.35522 0.05095 -0.17934
 C65 C 0.34315 0.01352 -0.20455
 C66 C 0.37459 0.00912 -0.24010
 C67 C 0.40547 0.04525 -0.23479
 H68 H 0.31379 -0.00879 -0.19758
 H69 H 0.43498 0.05287 -0.25655
 N70 N 0.29978 0.10671 -0.06913
 N71 N 0.31854 0.14421 -0.05053
 C72 C 0.29346 0.15675 -0.01329
 C73 C 0.25749 0.12569 -0.00852
 C74 C 0.26228 0.09442 -0.04419
 H75 H 0.30069 0.18620 0.00875
 H76 H 0.24007 0.06501 -0.05134
 H77 H 0.38350 0.10660 -0.09657
 H78 H 0.34649 0.14400 -0.13409
 N79 N 0.06973 0.80028 0.39409
 N80 N 0.05140 0.81951 0.35704
 C81 C 0.01402 0.79463 0.34402
 C82 C 0.00899 0.75824 0.37469
 C83 C 0.04468 0.76260 0.40601
 H84 H -0.00781 0.80227 0.31458
 H85 H 0.05184 0.74016 0.43520
 Cu86 Cu 0.07873 0.87495 0.32969
 Cu87 Cu 0.12474 0.82548 0.42414
 Cu88 Cu 0.17354 0.92441 0.37535
 N89 N 0.10606 0.93037 0.30238
 N90 N 0.14329 0.94948 0.32048
 C91 C 0.15532 0.98696 0.29524
 C92 C 0.12397 0.99132 0.25963
 C93 C 0.09318 0.95507 0.26487
 H94 H 0.18461 1.00934 0.30223
 H95 H 0.06381 0.94736 0.24297
 N96 N 0.19892 0.89380 0.43089
 N97 N 0.18035 0.85614 0.44949
 C98 C 0.20544 0.84370 0.48680
 C99 C 0.24121 0.87500 0.49163
 C100 C 0.23629 0.90628 0.45589
 H101 H 0.19835 0.81415 0.50886
 H102 H 0.25833 0.93584 0.44874
 H103 H 0.11554 0.89355 0.40332
 H104 H 0.15271 0.85650 0.36582
 C105 C 0.08925 0.16056 0.12561
 C106 C 0.12348 0.16058 0.09128
 C107 C 0.15761 0.12609 0.09117
 C108 C 0.15750 0.09159 0.12541
 C109 C 0.12331 0.09155 0.15975
 C110 C 0.08919 0.12605 0.15986
 H111 H 0.12355 0.18730 0.06477
 H112 H 0.18393 0.06489 0.12533
 H113 H 0.06270 0.12601 0.18645
 C114 C 0.40977 0.84045 0.62569
 C115 C 0.37553 0.84049 0.59134
 C116 C 0.34133 0.87492 0.59120
 C117 C 0.34139 0.90934 0.62542
 C118 C 0.37558 0.90934 0.65978
 C119 C 0.40977 0.87489 0.65990
 H120 H 0.37552 0.81385 0.56485
 H121 H 0.31490 0.93599 0.62534
 H122 H 0.43623 0.87489 0.68651
 C123 C 0.91066 0.65992 0.37417
 C124 C 0.91081 0.62531 0.34012
 C125 C 0.87664 0.59070 0.34026
 C126 C 0.84231 0.59069 0.37451
 C127 C 0.84209 0.62527 0.40859
 C128 C 0.87627 0.65989 0.40838
 H129 H 0.93738 0.62533 0.31362
 H130 H 0.81586 0.56389 0.37464
 H131 H 0.87615 0.68667 0.43474
 C132 C 0.59068 0.34136 -0.12622
 C133 C 0.62511 0.34119 -0.09211
 C134 C 0.65946 0.37561 -0.09207
 C135 C 0.65936 0.41024 -0.12623
 C136 C 0.62494 0.41045 -0.16040
 C137 C 0.59060 0.37599 -0.16035
 H138 H 0.62515 0.31440 -0.06567
 H139 H 0.68596 0.43689 -0.12623
 H140 H 0.56394 0.37612 -0.18678
 C141 C 0.02448 0.22527 0.12546
 C142 C 0.05407 0.19583 0.12559
 C143 C 0.47455 0.77566 0.62559
 C144 C 0.44498 0.80515 0.62571
 C145 C 0.97556 0.72492 0.37430
 C146 C 0.94595 0.69533 0.37415
 C147 C 0.52571 0.27652 -0.12565
 C148 C 0.55533 0.30606 -0.12602
 C149 C 0.12353 0.02650 0.22440
 C150 C 0.12333 0.05614 0.19491
 C151 C 0.62510 0.47538 -0.22534
 C152 C 0.62497 0.44586 -0.19567
 C153 C 0.37509 0.97406 0.72462
 C154 C 0.37540 0.94458 0.69505
 C155 C 0.87647 0.52560 0.27574
 C156 C 0.87667 0.55525 0.30517
 C157 C 0.22227 0.12588 0.02649
 C158 C 0.19276 0.12603 0.05594
 C159 C 0.77723 0.62500 0.47322
 C160 C 0.80680 0.62517 0.44377
 C161 C 0.72415 0.37505 -0.02732
 C162 C 0.69473 0.37536 -0.05689
 C163 C 0.27649 0.87493 0.52663
 C164 C 0.30608 0.87490 0.55602
   
