data_POSCAR
  _audit_creation_date              2014-09-24
  _audit_creation_method            'ToBaCCo'
  _symmetry_space_group_name_H-M    'P1'
  _symmetry_Int_Tables_number       1
  _symmetry_cell_setting            triclinic
  loop_
  _symmetry_equiv_pos_as_xyz
 x,y,z
_cell_length_a 45.9253
_cell_length_b 45.9087
_cell_length_c 31.1283
_cell_angle_alpha 90.074100
_cell_angle_beta 89.994100
_cell_angle_gamma 120.018500
loop_
  _atom_site_label
  _atom_site_type_symbol
  _atom_site_fract_x
  _atom_site_fract_y
  _atom_site_fract_z
C1 C 0.08481 0.52737 0.07847
 C2 C 0.08575 0.55761 0.07706
 C3 C 0.05868 0.55287 0.05208
 N4 N 0.04138 0.52065 0.03818
 C5 C 0.05726 0.50493 0.05421
 C6 C 0.05002 0.57797 0.04422
 C7 C 0.02209 0.57330 0.01960
 C8 C 0.01099 0.59634 0.01733
 C9 C -0.01677 0.58257 -0.00902
 C10 C -0.02199 0.55140 -0.02224
 N11 N 0.00220 0.54627 -0.00520
 C12 C -0.04860 0.52894 -0.04943
 C13 C -0.05720 0.49517 -0.05786
 C14 C -0.08381 0.47313 -0.08380
 C15 C -0.08476 0.44291 -0.08241
 C16 C -0.05863 0.44716 -0.05579
 N17 N -0.04192 0.47915 -0.04087
 C18 C -0.05055 0.42169 -0.04690
 C19 C -0.02312 0.42607 -0.02123
 C20 C -0.01287 0.40242 -0.01705
 C21 C 0.01487 0.41629 0.00935
 C22 C 0.02095 0.44809 0.02069
 N23 N -0.00268 0.45355 0.00252
 C24 C 0.04807 0.47093 0.04683
 H25 H 0.10259 0.52260 0.09538
 H26 H 0.10421 0.58042 0.09297
 H27 H -0.00593 0.47394 0.00819
 H28 H 0.02153 0.62044 0.03340
 H29 H -0.03168 0.59406 -0.01711
 H30 H -0.10101 0.47817 -0.10171
 H31 H -0.10265 0.42039 -0.09936
 H32 H 0.02923 0.40446 0.01858
 H33 H 0.00642 0.52671 -0.01269
 H34 H -0.02392 0.37785 -0.03201
 C35 C 0.52737 0.44252 -0.08140
 C36 C 0.55753 0.47189 -0.07977
 C37 C 0.55296 0.49374 -0.05354
 N38 N 0.52090 0.47844 -0.03907
 C39 C 0.50509 0.44708 -0.05599
 C40 C 0.57820 0.52734 -0.04473
 C41 C 0.57368 0.55041 -0.01940
 C42 C 0.59717 0.58437 -0.01557
 C43 C 0.58322 0.59829 0.01062
 C44 C 0.55153 0.57250 0.02214
 N45 N 0.54622 0.54333 0.00432
 C46 C 0.52864 0.57676 0.04815
 C47 C 0.49468 0.55187 0.05543
 C48 C 0.47219 0.55689 0.07967
 C49 C 0.44199 0.52754 0.07805
 C50 C 0.44681 0.50528 0.05297
 N51 N 0.47903 0.52029 0.03921
 C52 C 0.42175 0.47150 0.04485
 C53 C 0.42650 0.44826 0.02024
 C54 C 0.40343 0.41412 0.01763
 C55 C 0.41733 0.40014 -0.00850
 C56 C 0.44862 0.42608 -0.02125
 N57 N 0.45369 0.45540 -0.00415
 C58 C 0.47126 0.42191 -0.04802
 H59 H 0.52253 0.42024 -0.09914
 H60 H 0.58020 0.47658 -0.09631
 H61 H 0.47335 0.47918 -0.01129
 H62 H 0.62167 0.59788 -0.03060
 H63 H 0.59492 0.62455 0.01958
 H64 H 0.47691 0.57942 0.09667
 H65 H 0.41916 0.52311 0.09388
 H66 H 0.40585 0.37374 -0.01673
 H67 H 0.52601 0.51963 0.01027
 H68 H 0.37921 0.40056 0.03335
 C69 C 0.52694 1.08445 -0.08185
 C70 C 0.55711 1.08530 -0.08030
 C71 C 0.55263 1.05899 -0.05399
 N72 N 0.52060 1.04223 -0.03940
 C73 C 0.50473 1.05768 -0.05631
 C74 C 0.57792 1.05073 -0.04521
 C75 C 0.57350 1.02325 -0.01981
 C76 C 0.59705 1.01288 -0.01599
 C77 C 0.58318 0.98508 0.01027
 C78 C 0.55148 0.97912 0.02184
 N79 N 0.54609 1.00289 0.00399
 C80 C 0.52866 0.95201 0.04792
 C81 C 0.49470 0.94290 0.05528
 C82 C 0.47227 0.91542 0.07957
 C83 C 0.44206 0.91452 0.07804
 C84 C 0.44681 0.94153 0.05296
 N85 N 0.47900 0.95876 0.03912
 C86 C 0.42171 0.95018 0.04492
 C87 C 0.42639 0.97809 0.02030
 C88 C 0.40330 0.98912 0.01779
 C89 C 0.41711 1.01693 -0.00842
 C90 C 0.44836 1.02227 -0.02132
 N91 N 0.45350 0.99809 -0.00423
 C92 C 0.47092 1.04901 -0.04821
 H93 H 0.52203 1.10180 -0.09962
 H94 H 0.57973 1.10325 -0.09695
 H95 H 0.47314 0.99396 -0.01147
 H96 H 0.62152 1.02388 -0.03108
 H97 H 0.59494 0.97060 0.01924
 H98 H 0.47703 0.89767 0.09656
 H99 H 0.41925 0.89611 0.09393
 H100 H 0.40560 1.03180 -0.01661
 H101 H 0.52585 1.00632 0.00993
 H102 H 0.37913 0.97849 0.03362
 C103 C 1.08510 0.52745 0.41757
 C104 C 1.08610 0.55769 0.41915
 C105 C 1.05960 0.55328 0.44514
 N106 N 1.04261 0.52118 0.45950
 C107 C 1.05809 0.50523 0.44277
 C108 C 1.05134 0.57866 0.45380
 C109 C 1.02370 0.57418 0.47907
 C110 C 1.01313 0.59762 0.48273
 C111 C 0.98537 0.58376 0.50903
 C112 C 0.97960 0.55218 0.52084
 N113 N 1.00343 0.54683 0.50305
 C114 C 0.95262 0.52947 0.54718
 C115 C 0.94356 0.49554 0.55470
 C116 C 0.91627 0.47324 0.57936
 C117 C 0.91526 0.44297 0.57776
 C118 C 0.94203 0.44755 0.55227
 N119 N 0.95921 0.47971 0.53824
 C120 C 0.95045 0.42232 0.54394
 C121 C 0.97820 0.42685 0.51903
 C122 C 0.98892 0.40353 0.51608
 C123 C 1.01671 0.41729 0.48983
 C124 C 1.02234 0.44873 0.47734
 N125 N 0.99835 0.45404 0.49472
 C126 C 1.04920 0.47132 0.45064
 H127 H 1.10252 0.52251 0.40001
 H128 H 1.10425 0.58033 0.40271
 H129 H 0.99451 0.47392 0.48790
 H130 H 1.02402 0.62205 0.46752
 H131 H 0.97081 0.59547 0.51793
 H132 H 0.89869 0.47812 0.59663
 H133 H 0.89694 0.42023 0.59387
 H134 H 1.03139 0.40562 0.48137
 H135 H 1.00701 0.52671 0.50927
 H136 H 0.97813 0.37926 0.53168
 C137 C 0.44248 0.52701 0.41999
 C138 C 0.47175 0.55729 0.42156
 C139 C 0.49388 0.55276 0.44724
 N140 N 0.47887 0.52064 0.46140
 C141 C 0.44741 0.50477 0.44485
 C142 C 0.52752 0.57803 0.45568
 C143 C 0.55070 0.57352 0.48069
 C144 C 0.58474 0.59686 0.48384
 C145 C 0.59873 0.58302 0.51006
 C146 C 0.57290 0.55156 0.52230
 N147 N 0.54364 0.54628 0.50487
 C148 C 0.57716 0.52891 0.54874
 C149 C 0.55223 0.49504 0.55653
 C150 C 0.55714 0.47282 0.58146
 C151 C 0.52784 0.44256 0.57997
 C152 C 0.50572 0.44707 0.55425
 N153 N 0.52077 0.47917 0.54000
 C154 C 0.47209 0.42180 0.54582
 C155 C 0.44892 0.42628 0.52071
 C156 C 0.41490 0.40292 0.51745
 C157 C 0.40094 0.41673 0.49115
 C158 C 0.42676 0.44821 0.47899
 N159 N 0.45600 0.45353 0.49653
 C160 C 0.42251 0.47087 0.45253
 H161 H 0.42005 0.52209 0.40262
 H162 H 0.47620 0.57999 0.40533
 H163 H 0.47972 0.47351 0.48995
 H164 H 0.59825 0.62118 0.46836
 H165 H 0.62505 0.59465 0.51863
 H166 H 0.57957 0.47774 0.59883
 H167 H 0.52337 0.41987 0.59626
 H168 H 0.37463 0.40507 0.48250
 H169 H 0.51992 0.52634 0.51153
 H170 H 0.40139 0.37859 0.53291
 C171 C 0.44228 -0.08529 0.41863
 C172 C 0.47248 -0.08437 0.41709
 C173 C 0.49462 -0.05762 0.44278
 N174 N 0.47868 -0.04224 0.45979
 C175 C 0.44665 -0.05901 0.44512
 C176 C 0.52842 -0.04896 0.45095
 C177 C 0.55099 -0.02222 0.47791
 C178 C 0.58224 -0.01689 0.49081
 C179 C 0.59610 0.01096 0.51705
 C180 C 0.57303 0.02200 0.51959
 N181 N 0.54589 0.00198 0.49505
 C182 C 0.57775 0.04997 0.54424
 C183 C 0.55265 0.05859 0.55237
 C184 C 0.55743 0.08564 0.57747
 C185 C 0.52720 0.08468 0.57913
 C186 C 0.50473 0.05713 0.55487
 N187 N 0.52042 0.04127 0.53862
 C188 C 0.47073 0.04794 0.54767
 C189 C 0.44785 0.02081 0.52155
 C190 C 0.41608 0.01480 0.51026
 C191 C 0.40214 -0.01298 0.48389
 C192 C 0.42572 -0.02333 0.47968
 N193 N 0.45323 -0.00290 0.50339
 C194 C 0.42125 -0.05085 0.45407
 H195 H 0.41970 -0.10327 0.40188
 H196 H 0.47743 -0.10167 0.39922
 H197 H 0.47356 -0.00622 0.50906
 H198 H 0.59374 -0.03178 0.48258
 H199 H 0.62028 0.02160 0.53289
 H200 H 0.58027 0.10411 0.59331
 H201 H 0.52246 0.10245 0.59617
 H202 H 0.37758 -0.02401 0.46899
 H203 H 0.52625 0.00611 0.48781
 H204 H 0.40432 0.02923 0.51952
 O205 O 0.17861 0.41508 0.20801
 O206 O 0.23589 0.41503 0.29168
 O207 O 0.17857 0.41509 0.29165
 O208 O 0.23597 0.41514 0.20801
 O209 O 0.26321 0.47063 0.20842
 O210 O 0.20685 0.47059 0.29158
 O211 O 0.26319 0.47052 0.29156
 O212 O 0.20682 0.47057 0.20845
 Cu213 Cu 0.20444 0.40945 0.24983
 Cu214 Cu 0.23776 0.47606 0.25002
 C215 C 0.18291 0.44302 0.19421
 C216 C 0.25953 0.44295 0.30564
 C217 C 0.18289 0.44303 0.30563
 C218 C 0.25959 0.44309 0.19417
 O219 O 0.58421 0.76366 0.20873
 O220 O 0.58413 0.82113 0.29224
 O221 O 0.58397 0.76370 0.29240
 O222 O 0.58425 0.82105 0.20861
 O223 O 0.52878 0.79286 0.20862
 O224 O 0.52850 0.73648 0.29186
 O225 O 0.52865 0.79295 0.29175
 O226 O 0.52874 0.73644 0.20873
 Cu227 Cu 0.58977 0.79519 0.25051
 Cu228 Cu 0.52318 0.76194 0.25021
 C229 C 0.55630 0.74002 0.19474
 C230 C 0.55619 0.81687 0.30599
 C231 C 0.55599 0.74009 0.30619
 C232 C 0.55637 0.81678 0.19459
 O233 O 0.23655 0.82066 0.20890
 O234 O 0.17939 0.76320 0.29256
 O235 O 0.23669 0.82063 0.29260
 O236 O 0.17927 0.76325 0.20886
 O237 O 0.20755 0.73607 0.20891
 O238 O 0.26400 0.79248 0.29208
 O239 O 0.20769 0.73604 0.29205
 O240 O 0.26386 0.79251 0.20894
 Cu241 Cu 0.20515 0.79475 0.25076
 Cu242 Cu 0.23853 0.76154 0.25047
 C243 C 0.26016 0.81639 0.19486
 C244 C 0.18378 0.73961 0.30634
 C245 C 0.26035 0.81635 0.30639
 C246 C 0.18361 0.73967 0.19482
 O247 O 0.82165 0.58493 0.70840
 O248 O 0.76420 0.58444 0.79229
 O249 O 0.82167 0.58472 0.79204
 O250 O 0.76423 0.58479 0.70863
 O251 O 0.73710 0.52930 0.70847
 O252 O 0.79358 0.52923 0.79139
 O253 O 0.73708 0.52895 0.79159
 O254 O 0.79355 0.52943 0.70825
 Cu255 Cu 0.79574 0.59036 0.75037
 Cu256 Cu 0.76260 0.52374 0.74988
 C257 C 0.81743 0.55706 0.69428
 C258 C 0.74063 0.55642 0.80601
 C259 C 0.81745 0.55677 0.80571
 C260 C 0.74063 0.55687 0.69458
 O261 O 0.41559 0.23625 0.70940
 O262 O 0.41532 0.17882 0.79308
 O263 O 0.41545 0.23627 0.79307
 O264 O 0.41533 0.17879 0.70943
 O265 O 0.47081 0.20688 0.70983
 O266 O 0.47092 0.26342 0.79294
 O267 O 0.47080 0.20697 0.79297
 O268 O 0.47106 0.26339 0.70981
 Cu269 Cu 0.40979 0.20473 0.75125
 Cu270 Cu 0.47638 0.23790 0.75141
 C271 C 0.44357 0.25983 0.69556
 C272 C 0.44322 0.18307 0.80703
 C273 C 0.44339 0.25988 0.80701
 C274 C 0.44324 0.18300 0.69560
 O275 O 0.76347 0.17971 0.70769
 O276 O 0.82091 0.23721 0.79131
 O277 O 0.76352 0.17990 0.79138
 O278 O 0.82085 0.23704 0.70762
 O279 O 0.79270 0.26435 0.70783
 O280 O 0.73632 0.20816 0.79100
 O281 O 0.79274 0.26450 0.79097
 O282 O 0.73629 0.20799 0.70788
 Cu283 Cu 0.79500 0.20564 0.74951
 Cu284 Cu 0.76178 0.23900 0.74941
 C285 C 0.73987 0.18403 0.69375
 C286 C 0.81663 0.26087 0.80518
 C287 C 0.73993 0.18427 0.80525
 C288 C 0.81657 0.26066 0.69366
 C289 C 0.11298 0.44862 0.10812
 C290 C 0.14456 0.47685 0.11548
 C291 C 0.16766 0.47461 0.14230
 C292 C 0.06920 0.45953 0.06662
 C293 C 0.12823 0.41533 0.15343
 C294 C 0.10496 0.41769 0.12663
 C295 C 0.08836 0.45288 0.08471
 C296 C 0.15956 0.44401 0.16224
 H297 H 0.15097 0.50094 0.10150
 H298 H 0.19160 0.49711 0.14824
 H299 H 0.12126 0.39146 0.16845
 H300 H 0.08047 0.39573 0.12138
 C301 C 0.55079 0.66421 0.10903
 C302 C 0.58167 0.68714 0.12772
 C303 C 0.58401 0.71288 0.15437
 C304 C 0.53994 0.60936 0.06783
 C305 C 0.52481 0.69310 0.14274
 C306 C 0.52259 0.66765 0.11605
 C307 C 0.54654 0.63524 0.08579
 C308 C 0.55537 0.71562 0.16287
 H309 H 0.60361 0.68454 0.12273
 H310 H 0.60784 0.72978 0.16955
 H311 H 0.50233 0.69460 0.14843
 H312 H 0.49854 0.64996 0.10194
 C313 C 0.33515 0.88602 0.10801
 C314 C 0.31245 0.89417 0.12692
 C315 C 0.28700 0.87101 0.15403
 C316 C 0.38941 0.92939 0.06546
 C317 C 0.30666 0.83147 0.14246
 C318 C 0.33180 0.85445 0.11533
 C319 C 0.36379 0.91045 0.08408
 C320 C 0.28434 0.83968 0.16275
 H321 H 0.31498 0.91865 0.12169
 H322 H 0.27024 0.87806 0.16932
 H323 H 0.30521 0.80753 0.14830
 H324 H 0.34933 0.84794 0.10104
 C325 C 0.88759 0.55179 0.60824
 C326 C 0.89564 0.58261 0.62723
 C327 C 0.87229 0.58490 0.65398
 C328 C 0.93146 0.54088 0.56692
 C329 C 0.83271 0.52576 0.64183
 C330 C 0.85590 0.52361 0.61505
 C331 C 0.91227 0.54754 0.58493
 C332 C 0.84085 0.55625 0.66227
 H333 H 0.92022 0.60454 0.62241
 H334 H 0.87929 0.60867 0.66940
 H335 H 0.80869 0.50329 0.64735
 H336 H 0.84946 0.49959 0.60071
 C337 C 0.44952 0.33516 0.60886
 C338 C 0.41855 0.31236 0.62736
 C339 C 0.41607 0.28681 0.65442
 C340 C 0.46059 0.38950 0.56634
 C341 C 0.47535 0.30657 0.64360
 C342 C 0.47770 0.33182 0.61653
 C343 C 0.45386 0.36386 0.58494
 C344 C 0.44468 0.28414 0.66349
 H345 H 0.39662 0.31488 0.62186
 H346 H 0.39216 0.26997 0.66939
 H347 H 0.49781 0.30512 0.64972
 H348 H 0.50183 0.34942 0.60255
 C349 C 0.66451 0.11426 0.60712
 C350 C 0.66790 0.14585 0.61455
 C351 C 0.69316 0.16887 0.64160
 C352 C 0.61010 0.07081 0.56471
 C353 C 0.71283 0.12933 0.65287
 C354 C 0.68727 0.10613 0.62584
 C355 C 0.63578 0.08979 0.58326
 C356 C 0.71555 0.16069 0.66170
 H357 H 0.65033 0.15235 0.60041
 H358 H 0.69465 0.19284 0.64753
 H359 H 0.72964 0.12229 0.66801
 H360 H 0.68471 0.08163 0.62053
 C361 C 0.44885 0.11293 0.89260
 C362 C 0.41802 0.10474 0.87364
 C363 C 0.41559 0.12810 0.84707
 C364 C 0.46016 0.06911 0.93332
 C365 C 0.47462 0.16793 0.85937
 C366 C 0.47691 0.14475 0.88597
 C367 C 0.45330 0.08826 0.91560
 C368 C 0.44413 0.15966 0.83893
 H369 H 0.39619 0.08007 0.87831
 H370 H 0.39182 0.12100 0.83164
 H371 H 0.49701 0.19205 0.85396
 H372 H 0.50094 0.15129 0.90029
 C373 C 0.66510 0.55019 0.89266
 C374 C 0.68789 0.58122 0.87426
 C375 C 0.71351 0.58379 0.84725
 C376 C 0.61059 0.53893 0.93493
 C377 C 0.69386 0.52450 0.85790
 C378 C 0.66853 0.52206 0.88493
 C379 C 0.63630 0.54574 0.91645
 C380 C 0.71627 0.55522 0.83811
 H381 H 0.68530 0.60311 0.87981
 H382 H 0.73034 0.60774 0.83235
 H383 H 0.69538 0.50207 0.85172
 H384 H 0.65095 0.49789 0.89882
 C385 C 0.88629 0.33636 0.89177
 C386 C 0.89449 0.31366 0.87296
 C387 C 0.87132 0.28803 0.84596
 C388 C 0.92966 0.39103 0.93384
 C389 C 0.83165 0.30752 0.85747
 C390 C 0.85464 0.33283 0.88449
 C391 C 0.91073 0.36522 0.91547
 C392 C 0.83992 0.28520 0.83725
 H393 H 0.91904 0.31633 0.87815
 H394 H 0.87842 0.27128 0.83073
 H395 H 0.80765 0.30594 0.85163
 H396 H 0.84809 0.35036 0.89869
 C397 C 0.55042 0.88705 0.39161
 C398 C 0.58133 0.89513 0.37298
 C399 C 0.58377 0.87177 0.34638
 C400 C 0.53918 0.93092 0.43244
 C401 C 0.52461 0.83214 0.35795
 C402 C 0.52230 0.85533 0.38459
 C403 C 0.54601 0.91174 0.41468
 C404 C 0.55518 0.84029 0.33787
 H405 H 0.60321 0.91974 0.37796
 H406 H 0.60761 0.87878 0.33123
 H407 H 0.50218 0.80809 0.35225
 H408 H 0.49822 0.84888 0.39865
 C409 C 0.33511 0.44849 0.39159
 C410 C 0.33170 0.47670 0.38451
 C411 C 0.30633 0.47447 0.35774
 C412 C 0.38991 0.45944 0.43287
 C413 C 0.28656 0.41524 0.34614
 C414 C 0.31223 0.41759 0.37288
 C415 C 0.36405 0.45277 0.41489
 C416 C 0.28385 0.44390 0.33758
 H417 H 0.34937 0.50078 0.39863
 H418 H 0.30484 0.49696 0.35201
 H419 H 0.26969 0.39139 0.33095
 H420 H 0.31481 0.39565 0.37792
 C421 C 0.11437 0.66404 0.39276
 C422 C 0.14608 0.66772 0.38549
 C423 C 0.16899 0.69307 0.35854
 C424 C 0.07112 0.60932 0.43463
 C425 C 0.12912 0.71230 0.34710
 C426 C 0.10603 0.68664 0.37402
 C427 C 0.09000 0.63515 0.41635
 C428 C 0.16058 0.71527 0.33838
 H429 H 0.15274 0.65027 0.39964
 H430 H 0.19304 0.69476 0.35269
 H431 H 0.12192 0.72897 0.33192
 H432 H 0.08144 0.68386 0.37921
 C433 C 0.88753 0.55103 0.89133
 C434 C 0.85584 0.52288 0.88426
 C435 C 0.83268 0.52519 0.85761
 C436 C 0.93133 0.53976 0.93213
 C437 C 0.87228 0.58438 0.84614
 C438 C 0.89561 0.58195 0.87275
 C439 C 0.91219 0.54662 0.91439
 C440 C 0.84084 0.55578 0.83757
 H441 H 0.84938 0.49879 0.89828
 H442 H 0.80865 0.50274 0.85187
 H443 H 0.87930 0.60824 0.83103
 H444 H 0.92019 0.60384 0.87777
 C445 C 0.44925 0.33588 0.89264
 C446 C 0.47732 0.33218 0.88580
 C447 C 0.47497 0.30666 0.85916
 C448 C 0.46055 0.39103 0.93346
 C449 C 0.41588 0.28729 0.84725
 C450 C 0.41836 0.31311 0.87385
 C451 C 0.45371 0.36501 0.91570
 C452 C 0.44441 0.28431 0.83890
 H453 H 0.50139 0.34976 0.89999
 H454 H 0.49736 0.30496 0.85359
 H455 H 0.39205 0.27052 0.83197
 H456 H 0.39653 0.31592 0.87869
 C457 C 0.66465 0.11485 0.89198
 C458 C 0.66802 0.14640 0.88441
 C459 C 0.69326 0.16932 0.85734
 C460 C 0.61027 0.07154 0.93437
 C461 C 0.71296 0.12976 0.84632
 C462 C 0.68742 0.10666 0.87338
 C463 C 0.63593 0.09047 0.91584
 C464 C 0.71565 0.16106 0.83734
 H465 H 0.65044 0.15293 0.89846
 H466 H 0.69473 0.19324 0.85129
 H467 H 0.72978 0.12267 0.83127
 H468 H 0.68488 0.08219 0.87880
 C469 C 0.11288 0.44896 0.39126
 C470 C 0.14475 0.47695 0.38465
 C471 C 0.16787 0.47457 0.35802
 C472 C 0.06921 0.46045 0.43209
 C473 C 0.12791 0.41556 0.34566
 C474 C 0.10461 0.41808 0.37225
 C475 C 0.08829 0.45350 0.41431
 C476 C 0.15952 0.44404 0.33754
 H477 H 0.15136 0.50101 0.39901
 H478 H 0.19203 0.49691 0.35263
 H479 H 0.12074 0.39176 0.33019
 H480 H 0.07990 0.39631 0.37691
 C481 C 0.55005 0.66473 0.39283
 C482 C 0.52185 0.66805 0.38514
 C483 C 0.52420 0.69331 0.35809
 C484 C 0.53900 0.61036 0.43523
 C485 C 0.58350 0.71314 0.34736
 C486 C 0.58103 0.68758 0.37438
 C487 C 0.54571 0.63601 0.41669
 C488 C 0.55488 0.71578 0.33826
 H489 H 0.49772 0.65042 0.39907
 H490 H 0.50173 0.69474 0.35195
 H491 H 0.60742 0.73001 0.33243
 H492 H 0.60297 0.68508 0.37991
 C493 C 0.33584 0.88599 0.39297
 C494 C 0.31319 0.89425 0.37418
 C495 C 0.28755 0.87108 0.34720
 C496 C 0.39056 0.92936 0.43490
 C497 C 0.30692 0.83131 0.35868
 C498 C 0.33224 0.85430 0.38569
 C499 C 0.36473 0.91044 0.41660
 C500 C 0.28466 0.83963 0.33848
 H501 H 0.31591 0.91883 0.37936
 H502 H 0.27085 0.87822 0.33198
 H503 H 0.30529 0.80728 0.35283
 H504 H 0.34973 0.84771 0.39987
 C505 C 0.55093 0.88691 0.10877
 C506 C 0.52276 0.85522 0.11568
 C507 C 0.52496 0.83204 0.14239
 C508 C 0.54002 0.93080 0.06758
 C509 C 0.58412 0.87161 0.15426
 C510 C 0.58178 0.89496 0.12759
 C511 C 0.54666 0.91158 0.08554
 C512 C 0.55548 0.84018 0.16265
 H513 H 0.49872 0.84878 0.10147
 H514 H 0.50250 0.80802 0.14799
 H515 H 0.60792 0.87862 0.16954
 H516 H 0.60370 0.91954 0.12268
 C517 C 0.33496 0.44887 0.10759
 C518 C 0.31220 0.41793 0.12622
 C519 C 0.28663 0.41551 0.15322
 C520 C 0.38939 0.45994 0.06526
 C521 C 0.30628 0.47475 0.14209
 C522 C 0.33155 0.47705 0.11507
 C523 C 0.36371 0.45320 0.08377
 C524 C 0.28389 0.44413 0.16211
 H525 H 0.31477 0.39601 0.12087
 H526 H 0.26982 0.39163 0.16830
 H527 H 0.30478 0.49720 0.14807
 H528 H 0.34911 0.50114 0.10099
 C529 C 0.11406 0.66450 0.10779
 C530 C 0.14561 0.66784 0.11530
 C531 C 0.16855 0.69303 0.14250
 C532 C 0.07078 0.61025 0.06495
 C533 C 0.12902 0.71272 0.15380
 C534 C 0.10590 0.68723 0.12661
 C535 C 0.08968 0.63585 0.08371
 C536 C 0.16033 0.71540 0.16268
 H537 H 0.15213 0.65030 0.10107
 H538 H 0.19248 0.69449 0.14847
 H539 H 0.12196 0.72952 0.16900
 H540 H 0.08144 0.68471 0.12124
 C541 C 0.44861 0.11294 0.60932
 C542 C 0.41772 0.10500 0.62787
 C543 C 0.41544 0.12831 0.65475
 C544 C 0.45938 0.06910 0.56759
 C545 C 0.47473 0.16763 0.64362
 C546 C 0.47689 0.14448 0.61672
 C547 C 0.45279 0.08829 0.58579
 C548 C 0.44415 0.15961 0.66360
 H549 H 0.39572 0.08053 0.62259
 H550 H 0.39158 0.12140 0.66979
 H551 H 0.49727 0.19153 0.64958
 H552 H 0.50096 0.15083 0.60271
 C553 C 0.66476 0.55128 0.60915
 C554 C 0.68762 0.58217 0.62792
 C555 C 0.71339 0.58454 0.65447
 C556 C 0.60981 0.54030 0.56824
 C557 C 0.69377 0.52537 0.64256
 C558 C 0.66829 0.52312 0.61598
 C559 C 0.63573 0.54697 0.58607
 C560 C 0.71622 0.55592 0.66278
 H561 H 0.68494 0.60407 0.62308
 H562 H 0.73024 0.60837 0.66972
 H563 H 0.69535 0.50291 0.64811
 H564 H 0.65064 0.49906 0.60181
 C565 C 0.88617 0.33572 0.60687
 C566 C 0.89428 0.31294 0.62560
 C567 C 0.87112 0.28747 0.65269
 C568 C 0.92959 0.39001 0.56440
 C569 C 0.83167 0.30725 0.64143
 C570 C 0.85465 0.33242 0.61433
 C571 C 0.91062 0.36438 0.58298
 C572 C 0.83984 0.28486 0.66156
 H573 H 0.91873 0.31543 0.62026
 H574 H 0.87815 0.27066 0.66784
 H575 H 0.80776 0.30584 0.64740
 H576 H 0.84817 0.35000 0.60018
   
