data_POSCAR
  _audit_creation_date              2014-09-24
  _audit_creation_method            'ToBaCCo'
  _symmetry_space_group_name_H-M    'P1'
  _symmetry_Int_Tables_number       1
  _symmetry_cell_setting            triclinic
  loop_
  _symmetry_equiv_pos_as_xyz
 x,y,z
_cell_length_a 22.5425
_cell_length_b 22.9045
_cell_length_c 20.7569
_cell_angle_alpha 89.823400
_cell_angle_beta 90.512700
_cell_angle_gamma 89.714400
loop_
  _atom_site_label
  _atom_site_type_symbol
  _atom_site_fract_x
  _atom_site_fract_y
  _atom_site_fract_z
C1 C 0.25888 0.26312 0.24805
 C2 C 0.75714 0.76507 0.24897
 C3 C 0.74216 0.23951 0.74596
 C4 C 0.23787 0.73411 0.75391
 C5 C 0.10760 0.08929 0.00664
 H6 H 0.09725 0.09367 -0.04415
 C7 C 0.15268 0.12273 0.03410
 H8 H 0.17672 0.15338 0.00447
 C9 C 0.08846 0.04426 0.10729
 H10 H 0.06462 0.01246 0.13530
 C11 C 0.13231 0.07789 0.13703
 H12 H 0.14115 0.07253 0.18806
 N13 N 0.07602 0.05159 0.04348
 C14 C 0.01912 -0.06836 -0.10581
 H15 H -0.02789 -0.05943 -0.11040
 C16 C 0.04658 -0.10612 -0.14918
 H17 H 0.02073 -0.12582 -0.18749
 C18 C 0.11013 -0.05446 -0.05003
 H19 H 0.13481 -0.03445 -0.01116
 C20 C 0.13898 -0.09300 -0.09135
 H21 H 0.18589 -0.10159 -0.08464
 Zn22 Zn 0.01504 0.01051 0.00019
 N23 N 0.05133 -0.04240 -0.05818
 C24 C -0.03555 0.06920 -0.10971
 N25 N -0.03292 0.06670 -0.04417
 C26 C -0.06407 0.10522 -0.00776
 C27 C -0.10173 0.14628 -0.03682
 C28 C -0.07320 0.10919 -0.14078
 C29 C -0.04744 -0.08802 0.04576
 C30 C -0.08242 -0.12021 0.08798
 C31 C -0.08524 -0.03719 0.15924
 C32 C -0.05173 -0.00590 0.11469
 N33 N -0.03272 -0.03182 0.05953
 H34 H -0.00832 0.04060 -0.13828
 H35 H -0.06001 0.10402 0.04403
 H36 H -0.12701 0.17575 -0.00688
 H37 H -0.07500 0.11007 -0.19287
 H38 H -0.03214 -0.10823 0.00206
 H39 H -0.09345 -0.16497 0.07655
 H40 H -0.09908 -0.01654 0.20352
 H41 H -0.03965 0.03866 0.12518
 C42 C 0.10718 -0.11879 -0.14201
 C43 C 0.16455 0.11801 0.10028
 C44 C -0.10114 -0.09487 0.14571
 C45 C -0.10758 0.14783 -0.10411
 C46 C 0.07145 0.57085 0.53765
 H47 H 0.07411 0.57880 0.48635
 C48 C 0.10765 0.60204 0.58008
 H49 H 0.13819 0.63352 0.56052
 C50 C 0.02779 0.51995 0.62448
 H51 H -0.00442 0.48913 0.64188
 C52 C 0.06304 0.55021 0.66865
 H53 H 0.05812 0.54144 0.71958
 N54 N 0.03345 0.52981 0.56018
 C55 C 0.00818 0.42233 0.38928
 H56 H -0.03977 0.42264 0.38649
 C57 C 0.04090 0.39178 0.34362
 H58 H 0.01778 0.36848 0.30577
 C59 C 0.09629 0.45101 0.44338
 H60 H 0.11768 0.47315 0.48304
 C61 C 0.13079 0.42068 0.39890
 H62 H 0.17852 0.42095 0.40438
 Zn63 Zn -0.01279 0.48915 0.49833
 N64 N 0.03613 0.45151 0.43760
 C65 C -0.05710 0.55751 0.39337
 N66 N -0.06253 0.54480 0.45709
 C67 C -0.10356 0.57224 0.49401
 C68 C -0.14264 0.61289 0.46655
 C69 C -0.09510 0.59812 0.36399
 C70 C -0.03341 0.39139 0.57828
 C71 C -0.06704 0.34758 0.60718
 C72 C -0.15233 0.38091 0.54583
 C73 C -0.11767 0.42525 0.51973
 N74 N -0.05951 0.43025 0.53697
 H75 H -0.02329 0.53628 0.36515
 H76 H -0.10636 0.56183 0.54476
 H77 H -0.17547 0.63379 0.49657
 H78 H -0.09054 0.60667 0.31304
 H79 H 0.01341 0.39488 0.58934
 H80 H -0.04650 0.31768 0.64127
 H81 H -0.19864 0.37730 0.53218
 H82 H -0.13706 0.45508 0.48496
 C83 C 0.10302 0.39022 0.34837
 C84 C 0.10398 0.59164 0.64671
 C85 C -0.12706 0.34223 0.59067
 C86 C -0.13890 0.62617 0.40066
 C87 C 0.55762 0.07898 0.54264
 H88 H 0.55015 0.09363 0.49362
 C89 C 0.59310 0.11181 0.58429
 H90 H 0.61330 0.15126 0.56632
 C91 C 0.54099 0.00869 0.62442
 H92 H 0.52084 -0.03174 0.63963
 C93 C 0.57645 0.04001 0.66760
 H94 H 0.58321 0.02339 0.71600
 N95 N 0.53241 0.02854 0.56322
 C96 C 0.50515 -0.07812 0.39193
 H97 H 0.45721 -0.07831 0.38888
 C98 C 0.53827 -0.10815 0.34621
 H99 H 0.51542 -0.13132 0.30808
 C100 C 0.59278 -0.04896 0.44658
 H101 H 0.61376 -0.02616 0.48613
 C102 C 0.62772 -0.07891 0.40203
 H103 H 0.67546 -0.07820 0.40751
 Zn104 Zn 0.48425 -0.01250 0.50382
 N105 N 0.53259 -0.04948 0.44109
 C106 C 0.43736 0.05277 0.39799
 N107 N 0.43302 0.04287 0.46250
 C108 C 0.39404 0.07389 0.49873
 C109 C 0.35560 0.11438 0.46990
 C110 C 0.40002 0.09311 0.36725
 C111 C 0.44522 -0.12793 0.53044
 C112 C 0.41147 -0.17114 0.56007
 C113 C 0.36711 -0.09709 0.62675
 C114 C 0.40177 -0.05526 0.59581
 N115 N 0.43913 -0.07088 0.54760
 H116 H 0.47020 0.03005 0.37000
 H117 H 0.39312 0.06804 0.55021
 H118 H 0.32464 0.13830 0.49955
 H119 H 0.40377 0.09927 0.31579
 H120 H 0.47645 -0.14047 0.49392
 H121 H 0.41683 -0.21607 0.54512
 H122 H 0.33773 -0.08301 0.66453
 H123 H 0.39930 -0.01045 0.61127
 C124 C 0.60036 -0.10953 0.35132
 C125 C 0.60301 0.09237 0.64780
 C126 C 0.37131 -0.15603 0.60856
 C127 C 0.35810 0.12423 0.40328
 C128 C 0.61612 0.58017 0.00669
 H129 H 0.60999 0.58026 -0.04506
 C130 C 0.66046 0.61436 0.03465
 H131 H 0.68827 0.64095 0.00421
 C132 C 0.58643 0.54637 0.10939
 H133 H 0.55853 0.51895 0.13846
 C134 C 0.62961 0.58062 0.13941
 H135 H 0.63395 0.57963 0.19137
 N136 N 0.57898 0.54848 0.04426
 C137 C 0.54342 0.46889 -0.12478
 H138 H 0.51591 0.50479 -0.14125
 C139 C 0.57239 0.43390 -0.16978
 H140 H 0.56648 0.44287 -0.22067
 C141 C 0.58713 0.41521 -0.03875
 H142 H 0.59346 0.40902 0.01255
 C143 C 0.61638 0.37872 -0.08209
 H144 H 0.64557 0.34488 -0.06360
 Zn145 Zn 0.51626 0.50900 0.00124
 N146 N 0.55126 0.45904 -0.06060
 C147 C 0.41752 0.54261 -0.07274
 N148 N 0.46490 0.56381 -0.03945
 C149 C 0.47372 0.62227 -0.03353
 C150 C 0.43484 0.66188 -0.06326
 C151 C 0.37757 0.58065 -0.10327
 C152 C 0.45784 0.40824 0.04716
 C153 C 0.42313 0.37584 0.08942
 C154 C 0.41331 0.46123 0.15659
 C155 C 0.44650 0.49261 0.11187
 N156 N 0.46973 0.46532 0.05958
 H157 H 0.41089 0.49593 -0.07561
 H158 H 0.51063 0.63843 -0.00540
 H159 H 0.44283 0.70822 -0.05837
 H160 H 0.34023 0.56250 -0.12919
 H161 H 0.47473 0.38786 0.00416
 H162 H 0.41431 0.33031 0.07945
 H163 H 0.39629 0.48280 0.19898
 H164 H 0.45458 0.53862 0.11934
 C165 C 0.60953 0.38821 -0.14863
 C166 C 0.66638 0.61613 0.10192
 C167 C 0.40140 0.40223 0.14531
 C168 C 0.38621 0.64129 -0.09916
 N169 N 0.12155 -0.16093 -0.24843
 N170 N 0.15649 -0.19904 -0.27754
 C171 C 0.19532 -0.21991 -0.23284
 C172 C 0.18213 -0.19307 -0.17477
 N173 N 0.13633 -0.15662 -0.18684
 H174 H 0.20209 -0.20065 -0.12788
 N175 N 0.11462 0.33340 0.24990
 N176 N 0.15416 0.29917 0.22186
 C177 C 0.20336 0.29944 0.25943
 C178 C 0.19282 0.33618 0.31080
 N179 N 0.13680 0.35596 0.30356
 H180 H 0.22227 0.34483 0.35104
 N181 N 0.61234 -0.16568 0.25245
 N182 N 0.65199 -0.19950 0.22400
 C183 C 0.70118 -0.19950 0.26156
 C184 C 0.69047 -0.16328 0.31347
 N185 N 0.63439 -0.14354 0.30640
 H186 H 0.71992 -0.15471 0.35373
 N187 N 0.65727 0.37430 -0.25243
 N188 N 0.69290 0.33684 -0.28160
 C189 C 0.70202 0.29166 -0.24063
 C190 C 0.66953 0.30250 -0.18565
 N191 N 0.64301 0.35482 -0.19451
 H192 H 0.66665 0.27538 -0.14303
 N193 N -0.17198 0.23396 -0.10545
 N194 N -0.21220 0.25949 -0.14312
 C195 C -0.21543 0.22793 -0.19785
 C196 C -0.17475 0.18273 -0.19271
 N197 N -0.14892 0.18771 -0.13426
 H198 H -0.16697 0.14827 -0.22722
 N199 N -0.22902 0.68592 0.39970
 N200 N -0.25813 0.72281 0.36150
 C201 C -0.22613 0.72805 0.30717
 C202 C -0.17659 0.69270 0.31334
 N203 N -0.17990 0.66718 0.37173
 H204 H -0.14170 0.68685 0.27849
 N205 N 0.26928 0.18570 0.40016
 N206 N 0.24142 0.22263 0.36095
 C207 C 0.27409 0.22635 0.30691
 C208 C 0.32270 0.18996 0.31429
 N209 N 0.31818 0.16544 0.37308
 H210 H 0.35792 0.18288 0.28010
 N211 N 0.34759 0.73919 -0.12248
 N212 N 0.30757 0.76529 -0.15996
 C213 C 0.27836 0.72308 -0.19261
 C214 C 0.30412 0.67009 -0.17502
 N215 N 0.34626 0.68190 -0.13064
 H216 H 0.29509 0.62767 -0.19552
 N217 N -0.12599 -0.12718 0.25429
 N218 N -0.16150 -0.16503 0.28285
 C219 C -0.19340 -0.19165 0.23603
 C220 C -0.17711 -0.16727 0.17775
 N221 N -0.13454 -0.12822 0.19118
 H222 H -0.19527 -0.17551 0.13026
 N223 N -0.19346 0.25874 0.58807
 N224 N -0.22857 0.22988 0.62777
 C225 C -0.22040 0.25276 0.68711
 C226 C -0.17834 0.29628 0.68234
 N227 N -0.16282 0.29846 0.62011
 H228 H -0.16368 0.32607 0.71955
 N229 N 0.33980 -0.25693 0.62525
 N230 N 0.30376 -0.28766 0.66213
 C231 C 0.27469 -0.24942 0.70015
 C232 C 0.29605 -0.19412 0.68624
 N233 N 0.33605 -0.20058 0.63892
 H234 H 0.28468 -0.15383 0.71026
 N235 N 0.37814 0.36830 0.25364
 N236 N 0.34253 0.33044 0.28204
 C237 C 0.30916 0.30548 0.23527
 C238 C 0.32466 0.33092 0.17729
 N239 N 0.36818 0.36886 0.19076
 H240 H 0.30546 0.32406 0.12999
 N241 N 0.25348 0.17842 0.10054
 N242 N 0.27983 0.21751 0.13784
 C243 C 0.24831 0.22076 0.19273
 C244 C 0.20280 0.18070 0.18845
 N245 N 0.20712 0.15585 0.13013
 H246 H 0.16780 0.17328 0.22287
 N247 N 0.14115 0.61256 0.75505
 N248 N 0.17750 0.64890 0.78504
 C249 C 0.20274 0.68283 0.73955
 C250 C 0.17843 0.66687 0.68054
 N251 N 0.14090 0.62252 0.69218
 H252 H 0.18553 0.68773 0.63447
 N253 N 0.66533 0.10077 0.74420
 N254 N 0.70264 0.13791 0.77155
 C255 C 0.70306 0.18645 0.73447
 C256 C 0.66359 0.17791 0.68400
 N257 N 0.64167 0.12366 0.69118
 H258 H 0.65310 0.20813 0.64537
 N259 N 0.75460 0.67781 0.10298
 N260 N 0.77979 0.71799 0.13982
 C261 C 0.74668 0.72275 0.19346
 C262 C 0.70136 0.68248 0.18890
 N263 N 0.70739 0.65591 0.13162
 H264 H 0.66581 0.67556 0.22276
   
