data_POSCAR
  _audit_creation_date              2014-09-24
  _audit_creation_method            'ToBaCCo'
  _symmetry_space_group_name_H-M    'P1'
  _symmetry_Int_Tables_number       1
  _symmetry_cell_setting            triclinic
  loop_
  _symmetry_equiv_pos_as_xyz
 x,y,z
_cell_length_a 44.8043
_cell_length_b 45.3043
_cell_length_c 24.0802
_cell_angle_alpha 89.899600
_cell_angle_beta 90.203600
_cell_angle_gamma 119.458600
loop_
  _atom_site_label
  _atom_site_type_symbol
  _atom_site_fract_x
  _atom_site_fract_y
  _atom_site_fract_z
O1 O 0.45530 0.96539 0.55130
 O2 O 0.48948 1.03208 0.44741
 O3 O 0.46104 0.96613 0.44340
 O4 O 0.49256 1.03115 0.55559
 O5 O 0.54101 1.02966 0.55640
 O6 O 0.51093 0.96756 0.44503
 O7 O 0.53933 1.03354 0.44848
 O8 O 0.50377 0.96398 0.55325
 Cu9 Cu 0.46982 0.99869 0.49918
 Cu10 Cu 0.52851 0.99861 0.50084
 C11 C 0.47324 0.95319 0.57055
 C12 C 0.51997 1.04466 0.43003
 C13 C 0.48113 0.95601 0.42492
 C14 C 0.52250 1.04123 0.57534
 O15 O -0.03460 0.47223 0.43920
 O16 O 0.02939 0.49702 0.54979
 O17 O -0.03733 0.46939 0.54701
 O18 O 0.03200 0.50543 0.44203
 O19 O 0.03272 0.55433 0.44811
 O20 O -0.03412 0.51934 0.55392
 O21 O 0.03251 0.54703 0.55558
 O22 O -0.03394 0.52103 0.44592
 Cu23 Cu -0.00274 0.48116 0.49395
 Cu24 Cu -0.00049 0.54033 0.50164
 C25 C -0.04555 0.49194 0.42353
 C26 C 0.04212 0.52619 0.57157
 C27 C -0.04763 0.48849 0.56842
 C28 C 0.04387 0.53612 0.42671
 O29 O 0.51330 0.54284 0.54901
 O30 O 0.53854 0.50117 0.44275
 O31 O 0.50401 0.53373 0.44203
 O32 O 0.54545 0.50817 0.54965
 O33 O 0.49670 0.46089 0.56246
 O34 O 0.45575 0.48565 0.45319
 O35 O 0.49034 0.45325 0.45554
 O36 O 0.46437 0.49542 0.56021
 Cu37 Cu 0.53013 0.52628 0.49451
 Cu38 Cu 0.47189 0.46908 0.50908
 C39 C 0.48449 0.52626 0.57288
 C40 C 0.51909 0.47005 0.43140
 C41 C 0.47284 0.51403 0.42900
 C42 C 0.52812 0.47999 0.57457
 O43 O 0.38552 0.65733 -0.04440
 O44 O 0.38448 0.71352 -0.06236
 C45 C 0.36974 0.73058 -0.07280
 O46 O 0.34352 0.72665 -0.04592
 O47 O 0.28744 0.67009 -0.06597
 C48 C 0.27050 0.63872 -0.07643
 O49 O 0.27412 0.61671 -0.04846
 O50 O 0.33205 0.61749 -0.06403
 C51 C 0.36396 0.63193 -0.07279
 O52 O 0.38246 0.66744 0.06575
 O53 O 0.38481 0.72532 0.04792
 C54 C 0.36278 0.72964 0.07497
 O55 O 0.33111 0.71347 0.06391
 O56 O 0.27335 0.65869 0.04375
 C57 C 0.26858 0.63268 0.07142
 O58 O 0.28529 0.61743 0.06224
 O59 O 0.34147 0.61482 0.04656
 C60 C 0.36723 0.63591 0.07512
 Cr61 Cr 0.38253 0.69004 0.00169
 Cr62 Cr 0.30974 0.69132 -0.00103
 Cr63 Cr 0.30914 0.61839 -0.00090
 O64 O 0.33380 0.66657 -0.00008
 O65 O 0.61326 0.33718 -0.03628
 O66 O 0.61219 0.27994 -0.05361
 C67 C 0.62696 0.26340 -0.06767
 O68 O 0.65497 0.26834 -0.04572
 O69 O 0.71052 0.32404 -0.07244
 C70 C 0.72674 0.35527 -0.08440
 O71 O 0.72373 0.37743 -0.05646
 O72 O 0.66502 0.37646 -0.06511
 C73 C 0.63259 0.36121 -0.06877
 O74 O 0.62272 0.33132 0.07315
 O75 O 0.61880 0.27251 0.05609
 C76 C 0.64163 0.26743 0.07855
 O77 O 0.67248 0.28227 0.06246
 O78 O 0.72893 0.33686 0.03578
 C79 C 0.73553 0.36360 0.06273
 O80 O 0.71957 0.37986 0.05466
 O81 O 0.66286 0.38256 0.04582
 C82 C 0.63903 0.36325 0.07868
 Cr83 Cr 0.61860 0.30611 0.00953
 Cr84 Cr 0.69081 0.30385 -0.00482
 Cr85 Cr 0.69185 0.37724 -0.00511
 O86 O 0.66709 0.32901 -0.00012
 C87 C 0.41058 0.89322 -0.32352
 C88 C 0.42739 0.87618 -0.30206
 C89 C 0.45985 0.88460 -0.32476
 C90 C 0.47494 0.90972 -0.36606
 C91 C 0.45795 0.92654 -0.38621
 C92 C 0.42561 0.91782 -0.36463
 C93 C 0.47709 0.86791 -0.30621
 C94 C 0.46279 0.84272 -0.26608
 C95 C 0.43059 0.83336 -0.24208
 C96 C 0.41299 0.85097 -0.25936
 C97 C 0.38183 0.84311 -0.23288
 C98 C 0.36799 0.81857 -0.19169
 C99 C 0.38424 0.80047 -0.17548
 C100 C 0.41558 0.80730 -0.20078
 C101 C 0.43045 0.78750 -0.18388
 C102 C 0.41529 0.76275 -0.14298
 C103 C 0.38473 0.75660 -0.11715
 C104 C 0.36926 0.77554 -0.13391
 H105 H 0.38555 0.88796 -0.31010
 H106 H 0.49984 0.91604 -0.38268
 H107 H 0.41166 0.93016 -0.37948
 H108 H 0.50194 0.87428 -0.32312
 H109 H 0.47811 0.83144 -0.25410
 H110 H 0.36758 0.85591 -0.24227
 H111 H 0.34413 0.81362 -0.17243
 H112 H 0.45361 0.79010 -0.20174
 H113 H 0.42786 0.74843 -0.13143
 H114 H 0.34548 0.77088 -0.11469
 C115 C 0.09966 0.51973 -0.31916
 C116 C 0.11966 0.55365 -0.30081
 C117 C 0.11350 0.57850 -0.32606
 C118 C 0.08791 0.56941 -0.36680
 C119 C 0.06841 0.53572 -0.38433
 C120 C 0.07464 0.51109 -0.36019
 C121 C 0.13300 0.61241 -0.31080
 C122 C 0.15899 0.62252 -0.27168
 C123 C 0.16637 0.59892 -0.24543
 C124 C 0.14570 0.56378 -0.25891
 C125 C 0.15144 0.53998 -0.22949
 C126 C 0.17667 0.55011 -0.18878
 C127 C 0.19774 0.58432 -0.17637
 C128 C 0.19332 0.60925 -0.20525
 C129 C 0.21631 0.64364 -0.19295
 C130 C 0.24137 0.65268 -0.15214
 C131 C 0.24481 0.62800 -0.12195
 C132 C 0.22311 0.59375 -0.13491
 H133 H 0.10303 0.49929 -0.30346
 H134 H 0.08357 0.58876 -0.38554
 H135 H 0.06006 0.48483 -0.37307
 H136 H 0.12826 0.63149 -0.32961
 H137 H 0.17237 0.64917 -0.26208
 H138 H 0.13630 0.51306 -0.23604
 H139 H 0.17981 0.53087 -0.16691
 H140 H 0.21600 0.66435 -0.21441
 H141 H 0.25805 0.67942 -0.14404
 H142 H 0.22571 0.57437 -0.11243
 C143 C 0.48792 0.59082 -0.32337
 C144 C 0.45443 0.57437 -0.30078
 C145 C 0.43092 0.54183 -0.32193
 C146 C 0.44095 0.52639 -0.36267
 C147 C 0.47424 0.54289 -0.38417
 C148 C 0.49752 0.57530 -0.36435
 C149 C 0.39740 0.52467 -0.30240
 C150 C 0.38627 0.53916 -0.26278
 C151 C 0.40843 0.57156 -0.24043
 C152 C 0.44335 0.58906 -0.25845
 C153 C 0.46603 0.62032 -0.23296
 C154 C 0.45498 0.63420 -0.19178
 C155 C 0.42079 0.61798 -0.17504
 C156 C 0.39691 0.58672 -0.19985
 C157 C 0.36227 0.57204 -0.18335
 C158 C 0.35213 0.58706 -0.14282
 C159 C 0.37588 0.61737 -0.11695
 C160 C 0.41028 0.63286 -0.13360
 H161 H 0.50725 0.61585 -0.31089
 H162 H 0.42258 0.50142 -0.37796
 H163 H 0.52340 0.58876 -0.38041
 H164 H 0.37942 0.49967 -0.31809
 H165 H 0.36010 0.52375 -0.24970
 H166 H 0.49285 0.63452 -0.24314
 H167 H 0.47342 0.65807 -0.17308
 H168 H 0.34208 0.54916 -0.20140
 H169 H 0.32527 0.57453 -0.13157
 H170 H 0.42887 0.65653 -0.11451
 C171 C 0.58230 0.09762 -0.31243
 C172 C 0.56636 0.11602 -0.29365
 C173 C 0.53484 0.10891 -0.31895
 C174 C 0.52014 0.08424 -0.36109
 C175 C 0.53661 0.06655 -0.37927
 C176 C 0.56769 0.07351 -0.35428
 C177 C 0.51829 0.12663 -0.30239
 C178 C 0.53240 0.15158 -0.26173
 C179 C 0.56381 0.15979 -0.23545
 C180 C 0.58081 0.14136 -0.25116
 C181 C 0.61171 0.14883 -0.22386
 C182 C 0.62588 0.17369 -0.18336
 C183 C 0.61005 0.19228 -0.16825
 C184 C 0.57882 0.18575 -0.19389
 C185 C 0.56415 0.20573 -0.17689
 C186 C 0.57978 0.23074 -0.13623
 C187 C 0.61055 0.23688 -0.11097
 C188 C 0.62550 0.21747 -0.12739
 H189 H 0.60632 0.10131 -0.29629
 H190 H 0.49613 0.07916 -0.38021
 H191 H 0.58108 0.06026 -0.36720
 H192 H 0.49416 0.12131 -0.32136
 H193 H 0.51781 0.16390 -0.25169
 H194 H 0.62579 0.13580 -0.23243
 H195 H 0.64966 0.17847 -0.16371
 H196 H 0.54071 0.20290 -0.19424
 H197 H 0.56759 0.24537 -0.12462
 H198 H 0.64934 0.22193 -0.10836
 C199 C 0.88915 0.48553 -0.32903
 C200 C 0.87220 0.45125 -0.31180
 C201 C 0.88258 0.42930 -0.33635
 C202 C 0.90924 0.44162 -0.37566
 C203 C 0.92592 0.47582 -0.39196
 C204 C 0.91533 0.49743 -0.36815
 C205 C 0.86632 0.39514 -0.32162
 C206 C 0.83995 0.38210 -0.28297
 C207 C 0.82883 0.40288 -0.25684
 C208 C 0.84543 0.43811 -0.27119
 C209 C 0.83504 0.45915 -0.24396
 C210 C 0.80961 0.44647 -0.20393
 C211 C 0.79319 0.41231 -0.18948
 C212 C 0.80207 0.38980 -0.21610
 C213 C 0.78383 0.35520 -0.20035
 C214 C 0.75894 0.34397 -0.15876
 C215 C 0.75120 0.36665 -0.13143
 C216 C 0.76815 0.40073 -0.14778
 H217 H 0.88279 0.50401 -0.31355
 H218 H 0.91679 0.42437 -0.39370
 H219 H 0.92732 0.52395 -0.37966
 H220 H 0.87407 0.37819 -0.34022
 H221 H 0.82909 0.35551 -0.27396
 H222 H 0.84638 0.48589 -0.25186
 H223 H 0.80285 0.46375 -0.18378
 H224 H 0.78819 0.33609 -0.21905
 H225 H 0.74612 0.31741 -0.14735
 H226 H 0.76221 0.41856 -0.12743
 C227 C 0.59435 0.47956 -0.33203
 C228 C 0.57574 0.44822 -0.30386
 C229 C 0.54038 0.42819 -0.31651
 C230 C 0.52484 0.43885 -0.35652
 C231 C 0.54375 0.46976 -0.38471
 C232 C 0.57861 0.49002 -0.37158
 C233 C 0.52053 0.39747 -0.28932
 C234 C 0.53481 0.38609 -0.24929
 C235 C 0.56988 0.40492 -0.23502
 C236 C 0.59086 0.43620 -0.26353
 C237 C 0.62627 0.45418 -0.25121
 C238 C 0.64067 0.44243 -0.21194
 C239 C 0.62048 0.41253 -0.18283
 C240 C 0.58477 0.39338 -0.19354
 C241 C 0.56547 0.36358 -0.16181
 C242 C 0.58106 0.35332 -0.12178
 C243 C 0.61639 0.37219 -0.11181
 C244 C 0.63595 0.40178 -0.14275
 H245 H 0.62108 0.49684 -0.32433
 H246 H 0.49779 0.42283 -0.36561
 H247 H 0.59407 0.51415 -0.39206
 H248 H 0.49350 0.38199 -0.29897
 H249 H 0.51752 0.36201 -0.23081
 H250 H 0.64387 0.47740 -0.27175
 H251 H 0.66800 0.45711 -0.20408
 H252 H 0.53817 0.34771 -0.16618
 H253 H 0.56522 0.33037 -0.09851
 H254 H 0.66330 0.41679 -0.13522
 C255 C 0.89048 0.49048 0.32240
 C256 C 0.87786 0.45825 0.29707
 C257 C 0.89222 0.43803 0.31459
 C258 C 0.91738 0.44939 0.35624
 C259 C 0.92939 0.48121 0.38146
 C260 C 0.91575 0.50166 0.36371
 C261 C 0.88143 0.40639 0.29067
 C262 C 0.85667 0.39414 0.24933
 C263 C 0.84129 0.41302 0.23030
 C264 C 0.85169 0.44542 0.25510
 C265 C 0.83528 0.46365 0.23759
 C266 C 0.80978 0.45089 0.19727
 C267 C 0.79974 0.41967 0.17219
 C268 C 0.81553 0.40037 0.18778
 C269 C 0.80480 0.36920 0.15991
 C270 C 0.77918 0.35759 0.11940
 C271 C 0.76325 0.37648 0.10498
 C272 C 0.77385 0.40763 0.13153
 H273 H 0.88160 0.50787 0.31113
 H274 H 0.92764 0.43314 0.36887
 H275 H 0.92447 0.52645 0.38187
 H276 H 0.89232 0.39082 0.30406
 H277 H 0.84985 0.36937 0.23371
 H278 H 0.84121 0.48784 0.25480
 H279 H 0.79778 0.46574 0.18552
 H280 H 0.81574 0.35312 0.16797
 H281 H 0.77170 0.33350 0.09951
 H282 H 0.76195 0.42269 0.12052
 C283 C 0.51996 0.10778 0.33145
 C284 C 0.55352 0.12358 0.30958
 C285 C 0.57628 0.11268 0.32990
 C286 C 0.56531 0.08651 0.36965
 C287 C 0.53170 0.07086 0.39039
 C288 C 0.50941 0.08209 0.37077
 C289 C 0.60988 0.12793 0.31045
 C290 C 0.62153 0.15379 0.27127
 C291 C 0.59983 0.16538 0.24931
 C292 C 0.56514 0.14977 0.26843
 C293 C 0.54307 0.16055 0.24528
 C294 C 0.55428 0.18559 0.20503
 C295 C 0.58795 0.20121 0.18621
 C296 C 0.61142 0.19172 0.20829
 C297 C 0.64548 0.20903 0.18806
 C298 C 0.65526 0.23383 0.14687
 C299 C 0.63162 0.24240 0.12434
 C300 C 0.59806 0.22614 0.14480
 H301 H 0.50102 0.11467 0.31956
 H302 H 0.58308 0.07845 0.38440
 H303 H 0.48331 0.07099 0.38577
 H304 H 0.62747 0.11980 0.32574
 H305 H 0.64777 0.16391 0.25854
 H306 H 0.51656 0.14984 0.25668
 H307 H 0.53624 0.19274 0.18828
 H308 H 0.66527 0.20409 0.20300
 H309 H 0.68147 0.24607 0.13221
 H310 H 0.57953 0.23265 0.12812
 C311 C 0.52042 0.40269 0.33993
 C312 C 0.55253 0.42065 0.31287
 C313 C 0.57305 0.45563 0.32524
 C314 C 0.56193 0.47147 0.36352
 C315 C 0.53024 0.45323 0.39022
 C316 C 0.50961 0.41877 0.37787
 C317 C 0.60466 0.47476 0.29945
 C318 C 0.61642 0.46020 0.26091
 C319 C 0.59703 0.42556 0.24665
 C320 C 0.56484 0.40528 0.27382
 C321 C 0.54612 0.37035 0.26120
 C322 C 0.55789 0.35581 0.22252
 C323 C 0.58861 0.37537 0.19447
 C324 C 0.60874 0.41050 0.20605
 C325 C 0.63953 0.42914 0.17576
 C326 C 0.64942 0.41361 0.13545
 C327 C 0.62926 0.37897 0.12389
 C328 C 0.59905 0.35993 0.15419
 H329 H 0.50283 0.37625 0.33260
 H330 H 0.57815 0.49820 0.37257
 H331 H 0.48494 0.40401 0.39772
 H332 H 0.62051 0.50147 0.30899
 H333 H 0.64113 0.47698 0.24332
 H334 H 0.52217 0.35327 0.28075
 H335 H 0.54250 0.32890 0.21408
 H336 H 0.65640 0.45590 0.18129
 H337 H 0.67295 0.42901 0.11286
 H338 H 0.58310 0.33311 0.14554
 C339 C 0.10589 0.59793 0.32164
 C340 C 0.12177 0.58020 0.29948
 C341 C 0.11173 0.54751 0.32130
 C342 C 0.08631 0.53315 0.36243
 C343 C 0.07071 0.55102 0.38342
 C344 C 0.08091 0.58355 0.36275
 C345 C 0.12707 0.52922 0.30207
 C346 C 0.15258 0.54270 0.26213
 C347 C 0.16367 0.57515 0.23907
 C348 C 0.14737 0.59385 0.25694
 C349 C 0.15691 0.62532 0.23120
 C350 C 0.18182 0.63836 0.19011
 C351 C 0.19869 0.62098 0.17343
 C352 C 0.19018 0.58933 0.19812
 C353 C 0.20889 0.57331 0.18107
 C354 C 0.23413 0.58766 0.14054
 C355 C 0.24194 0.61854 0.11522
 C356 C 0.22411 0.63515 0.13212
 H357 H 0.11239 0.62315 0.30875
 H358 H 0.07883 0.50807 0.37834
 H359 H 0.06946 0.59810 0.37832
 H360 H 0.11938 0.50415 0.31831
 H361 H 0.16267 0.52656 0.24952
 H362 H 0.14517 0.64042 0.24115
 H363 H 0.18807 0.66249 0.17138
 H364 H 0.20509 0.54984 0.19859
 H365 H 0.24755 0.57421 0.12888
 H366 H 0.23010 0.65920 0.11335
 C367 C 0.48570 0.90077 0.31156
 C368 C 0.45103 0.88024 0.29570
 C369 C 0.42613 0.88558 0.32336
 C370 C 0.43592 0.91078 0.36446
 C371 C 0.47038 0.93058 0.37981
 C372 C 0.49503 0.92531 0.35281
 C373 C 0.39154 0.86555 0.31029
 C374 C 0.38085 0.83984 0.27115
 C375 C 0.40450 0.83323 0.24273
 C376 C 0.44025 0.85439 0.25406
 C377 C 0.46400 0.84918 0.22303
 C378 C 0.45331 0.82396 0.18295
 C379 C 0.41858 0.80251 0.17248
 C380 C 0.39363 0.80651 0.20270
 C381 C 0.35875 0.78334 0.19174
 C382 C 0.34924 0.75837 0.15125
 C383 C 0.37393 0.75521 0.12010
 C384 C 0.40867 0.77719 0.13154
 H385 H 0.50633 0.89823 0.29380
 H386 H 0.41659 0.91445 0.38536
 H387 H 0.52190 0.94021 0.36373
 H388 H 0.37239 0.86961 0.33093
 H389 H 0.35366 0.82589 0.26352
 H390 H 0.49131 0.86461 0.22793
 H391 H 0.47254 0.82117 0.15996
 H392 H 0.33802 0.78352 0.21390
 H393 H 0.32214 0.74151 0.14418
 H394 H 0.42807 0.77490 0.10815
 C395 C 0.40838 0.51102 0.32330
 C396 C 0.42475 0.54453 0.30209
 C397 C 0.45727 0.56782 0.32458
 C398 C 0.47280 0.55759 0.36526
 C399 C 0.45633 0.52434 0.38551
 C400 C 0.42394 0.50125 0.36434
 C401 C 0.47428 0.60133 0.30655
 C402 C 0.45961 0.61266 0.26723
 C403 C 0.42722 0.59071 0.24362
 C404 C 0.40997 0.55583 0.25993
 C405 C 0.37889 0.53342 0.23290
 C406 C 0.36498 0.54470 0.19180
 C407 C 0.38091 0.57883 0.17677
 C408 C 0.41188 0.60242 0.20332
 C409 C 0.42614 0.63696 0.18875
 C410 C 0.41118 0.64730 0.14803
 C411 C 0.38134 0.62385 0.12012
 C412 C 0.36608 0.58955 0.13520
 H413 H 0.38333 0.49185 0.30976
 H414 H 0.49772 0.57581 0.38168
 H415 H 0.41050 0.47539 0.37945
 H416 H 0.49927 0.61915 0.32326
 H417 H 0.47492 0.63882 0.25528
 H418 H 0.36495 0.50667 0.24169
 H419 H 0.34131 0.52647 0.17177
 H420 H 0.44862 0.65689 0.20846
 H421 H 0.42344 0.67408 0.13821
 H422 H 0.34273 0.57116 0.11457
   
