data_POSCAR
  _audit_creation_date              2014-09-24
  _audit_creation_method            'ToBaCCo'
  _symmetry_space_group_name_H-M    'P1'
  _symmetry_Int_Tables_number       1
  _symmetry_cell_setting            triclinic
  loop_
  _symmetry_equiv_pos_as_xyz
 x,y,z
_cell_length_a 40.0233
_cell_length_b 40.2974
_cell_length_c 48.0995
_cell_angle_alpha 90.151600
_cell_angle_beta 89.591100
_cell_angle_gamma 90.027800
loop_
  _atom_site_label
  _atom_site_type_symbol
  _atom_site_fract_x
  _atom_site_fract_y
  _atom_site_fract_z
C1 C 1.25077 0.24847 0.24990
 C2 C 0.75017 -0.25285 0.25021
 C3 C 0.75190 0.24700 -0.24998
 C4 C 1.25126 -0.25230 -0.24986
 C5 C 0.24837 0.25307 0.74998
 C6 C 0.74922 0.75311 0.74981
 C7 C 0.74874 0.25188 0.24995
 C8 C 0.24989 0.75326 0.24991
 O9 O 1.05809 0.01360 0.03505
 O10 O 0.94256 -0.01661 0.03598
 O11 O 0.98436 0.05557 0.03551
 O12 O 1.01642 -0.05877 0.03542
 O13 O 0.93782 0.03915 0.02011
 O14 O 1.06263 -0.04222 0.01901
 O15 O 0.95989 -0.06309 0.02092
 O16 O 1.04064 0.05997 0.02031
 C17 C 1.05477 0.04369 0.03890
 C18 C 0.94604 -0.04667 0.03979
 C19 C 0.95397 0.05293 0.03899
 C20 C 1.04681 -0.05541 0.03847
 O21 O 1.05663 -0.02061 -0.03434
 O22 O 0.94353 0.01715 -0.03340
 O23 O 1.01969 0.05427 -0.03360
 O24 O 0.98054 -0.05797 -0.03328
 O25 O 0.93530 -0.03828 -0.01735
 O26 O 1.06511 0.03493 -0.01832
 O27 O 1.03650 -0.06576 -0.01897
 O28 O 0.96381 0.06238 -0.01847
 Co29 Co 1.05476 -0.00338 0.00039
 Co30 Co 0.94565 0.00016 0.00129
 Co31 Co 1.00194 0.05231 0.00094
 Co32 Co 0.99851 -0.05571 0.00103
 O33 O 1.00021 -0.00166 0.00091
 C34 C 1.05125 -0.05047 -0.03800
 C35 C 0.94876 0.04699 -0.03717
 C36 C 1.04991 0.05001 -0.03695
 C37 C 0.95046 -0.05287 -0.03653
 O38 O 1.06223 0.54002 0.51825
 O39 O 0.93710 0.46110 0.51917
 O40 O 0.95961 0.56306 0.51858
 O41 O 1.03979 0.43821 0.51681
 O42 O 0.94240 0.51700 0.53419
 O43 O 1.05714 0.48393 0.53287
 O44 O 0.98379 0.44336 0.53349
 O45 O 1.01584 0.55772 0.53379
 C46 C 1.04612 0.55411 0.53722
 C47 C 0.95352 0.44676 0.53758
 C48 C 0.94568 0.54714 0.53763
 C49 C 1.05371 0.45377 0.53592
 O50 O 1.06348 0.46396 0.47852
 O51 O 0.93555 0.53760 0.48036
 O52 O 1.03722 0.56490 0.48008
 O53 O 0.96177 0.43683 0.48036
 O54 O 0.94260 0.48201 0.46503
 O55 O 1.05609 0.51957 0.46419
 O56 O 1.01761 0.44449 0.46377
 O57 O 0.98115 0.55722 0.46481
 Co58 Co 1.05397 0.50175 0.49854
 Co59 Co 0.94515 0.49953 0.49961
 Co60 Co 0.99857 0.55489 0.49929
 Co61 Co 1.00063 0.44651 0.49865
 O62 O 0.99958 0.50067 0.49903
 C63 C 1.04770 0.44942 0.45977
 C64 C 0.95111 0.55197 0.46128
 C65 C 1.05207 0.54962 0.46106
 C66 C 0.94735 0.45210 0.46142
 O67 O 0.55600 0.01822 0.53403
 O68 O 0.44278 -0.01932 0.53460
 O69 O 0.47997 0.05545 0.53393
 O70 O 0.51876 -0.05688 0.53385
 O71 O 0.43457 0.03610 0.51850
 O72 O 0.56414 -0.03737 0.51808
 O73 O 0.46284 -0.06464 0.51936
 O74 O 0.53594 0.06336 0.51894
 C75 C 0.55088 0.04811 0.53771
 C76 C 0.44808 -0.04916 0.53833
 C77 C 0.44972 0.05127 0.53719
 C78 C 0.54884 -0.05187 0.53719
 O79 O 0.55722 -0.01614 0.46470
 O80 O 0.44179 0.01435 0.46517
 O81 O 0.51559 0.05613 0.46493
 O82 O 0.48321 -0.05813 0.46502
 O83 O 0.43699 -0.04134 0.48126
 O84 O 0.56201 0.03974 0.48048
 O85 O 0.53967 -0.06246 0.47975
 O86 O 0.45928 0.06079 0.47995
 Co87 Co 0.55399 0.00093 0.49935
 Co88 Co 0.44489 -0.00237 0.49986
 Co89 Co 0.49787 0.05319 0.49945
 Co90 Co 0.50096 -0.05484 0.49948
 O91 O 0.49943 -0.00077 0.49954
 C92 C 0.55368 -0.04622 0.46091
 C93 C 0.44522 0.04440 0.46131
 C94 C 0.54597 0.05331 0.46149
 C95 C 0.45286 -0.05469 0.46185
 O96 O 0.56482 0.53745 0.01899
 O97 O 0.43711 0.46338 0.02125
 O98 O 0.46309 0.56441 0.01964
 O99 O 0.53887 0.43659 0.01901
 O100 O 0.44447 0.51910 0.03560
 O101 O 0.55804 0.48193 0.03427
 O102 O 0.48308 0.44409 0.03579
 O103 O 0.51924 0.55694 0.03473
 C104 C 0.54931 0.55180 0.03816
 C105 C 0.45301 0.44895 0.03991
 C106 C 0.44837 0.54919 0.03870
 C107 C 0.55331 0.45204 0.03792
 O108 O 0.56328 0.46075 -0.01988
 O109 O 0.43797 0.53924 -0.01845
 O110 O 0.54051 0.56262 -0.01910
 O111 O 0.46064 0.43745 -0.01719
 O112 O 0.44309 0.48309 -0.03307
 O113 O 0.55773 0.51656 -0.03485
 O114 O 0.51656 0.44271 -0.03405
 O115 O 0.48426 0.55697 -0.03412
 Co116 Co 0.55523 0.49926 -0.00028
 Co117 Co 0.44643 0.50111 0.00123
 Co118 Co 0.50168 0.55440 0.00031
 Co119 Co 0.49989 0.44602 0.00086
 O120 O 0.50081 0.50020 0.00052
 C121 C 0.54682 0.44615 -0.03821
 C122 C 0.45398 0.55321 -0.03748
 C123 C 0.55435 0.54667 -0.03824
 C124 C 0.44639 0.45290 -0.03612
 C125 C 1.18573 0.18378 0.22606
 C126 C 1.19337 0.18016 0.19782
 C127 C 1.22060 0.19719 0.18645
 C128 C 1.23940 0.21871 0.20290
 C129 C 1.23062 0.22464 0.23103
 C130 C 1.20455 0.20528 0.24261
 C131 C 1.17311 0.15954 0.18019
 C132 C 1.15639 0.14310 0.16461
 C133 C 1.13720 0.12473 0.14546
 C134 C 1.12121 0.10975 0.12838
 C135 C 1.10270 0.09266 0.10714
 C136 C 1.08270 0.11074 0.08886
 C137 C 1.06654 0.09468 0.06696
 C138 C 1.07025 0.06029 0.06303
 C139 C 1.08973 0.04215 0.08192
 C140 C 1.10592 0.05829 0.10380
 H141 H 1.16510 0.17018 0.23526
 H142 H 1.22732 0.19387 0.16475
 H143 H 1.26092 0.23035 0.19337
 H144 H 1.19825 0.20749 0.26446
 H145 H 1.08008 0.13736 0.09124
 H146 H 1.05155 0.10925 0.05286
 H147 H 1.09296 0.01561 0.07947
 H148 H 1.12140 0.04406 0.11779
 C149 C 1.18660 0.68302 0.72543
 C150 C 1.18387 0.69026 0.69713
 C151 C 1.20152 0.71706 0.68598
 C152 C 1.22276 0.73584 0.70272
 C153 C 1.22781 0.72749 0.73094
 C154 C 1.20783 0.70183 0.74226
 C155 C 1.16340 0.67015 0.67924
 C156 C 1.14701 0.65364 0.66344
 C157 C 1.12863 0.63474 0.64407
 C158 C 1.11354 0.61907 0.62684
 C159 C 1.09617 0.60098 0.60549
 C160 C 1.06154 0.60427 0.60266
 C161 C 1.04507 0.58844 0.58076
 C162 C 1.06312 0.56924 0.56133
 C163 C 1.09778 0.56547 0.56471
 C164 C 1.11418 0.58128 0.58663
 H165 H 1.17249 0.66274 0.73447
 H166 H 1.19887 0.72350 0.66425
 H167 H 1.23482 0.75706 0.69332
 H168 H 1.20930 0.69586 0.76415
 H169 H 1.04736 0.61951 0.61710
 H170 H 1.01834 0.59173 0.57875
 H171 H 1.11230 0.55070 0.55017
 H172 H 1.14099 0.57860 0.58860
 C173 C 0.70132 0.21635 0.68626
 C174 C 0.68376 0.18955 0.69752
 C175 C 0.68686 0.18227 0.72579
 C176 C 0.70835 0.20104 0.74246
 C177 C 0.72822 0.22671 0.73101
 C178 C 0.72281 0.23508 0.70283
 C179 C 0.66296 0.16955 0.67974
 C180 C 0.64635 0.15315 0.66398
 C181 C 0.62775 0.13437 0.64462
 C182 C 0.61257 0.11870 0.62741
 C183 C 0.59525 0.10045 0.60608
 C184 C 0.57452 0.11720 0.58745
 C185 C 0.55954 0.10003 0.56551
 C186 C 0.56518 0.06584 0.56186
 C187 C 0.58540 0.04902 0.58106
 C188 C 0.60039 0.06627 0.60297
 H189 H 0.69840 0.22284 0.66457
 H190 H 0.67283 0.16201 0.73493
 H191 H 0.71008 0.19506 0.76434
 H192 H 0.73475 0.25630 0.69334
 H193 H 0.57040 0.14366 0.58960
 H194 H 0.54396 0.11361 0.55117
 H195 H 0.59013 0.02268 0.57884
 H196 H 0.61644 0.05304 0.61721
 C197 C 0.72417 0.68240 0.19548
 C198 C 0.69000 0.67875 0.20066
 C199 C 0.67509 0.69577 0.22284
 C200 C 0.69403 0.71736 0.23918
 C201 C 0.72812 0.72328 0.23298
 C202 C 0.74314 0.70395 0.21175
 C203 C 0.67013 0.65848 0.18252
 C204 C 0.65377 0.64229 0.16653
 C205 C 0.63502 0.62425 0.14693
 C206 C 0.61938 0.60963 0.12946
 C207 C 0.60122 0.59314 0.10776
 C208 C 0.56689 0.59860 0.10483
 C209 C 0.54977 0.58462 0.08244
 C210 C 0.56689 0.56516 0.06264
 C211 C 0.60121 0.55917 0.06612
 C212 C 0.61826 0.57313 0.08853
 H213 H 0.73612 0.66890 0.17863
 H214 H 0.64876 0.69247 0.22745
 H215 H 0.68174 0.72908 0.25670
 H216 H 0.76960 0.70627 0.20730
 H217 H 0.55350 0.61415 0.11955
 H218 H 0.52330 0.58954 0.08034
 H219 H 0.61499 0.54409 0.05131
 H220 H 0.64485 0.56882 0.09058
 C221 C 0.81555 -0.18788 0.22729
 C222 C 0.80846 -0.18401 0.19909
 C223 C 0.78162 -0.20110 0.18740
 C224 C 0.76262 -0.22291 0.20353
 C225 C 0.77079 -0.22902 0.23162
 C226 C 0.79653 -0.20968 0.24351
 C227 C 0.82885 -0.16300 0.18181
 C228 C 0.84566 -0.14624 0.16644
 C229 C 0.86490 -0.12759 0.14743
 C230 C 0.88088 -0.11245 0.13034
 C231 C 0.89928 -0.09533 0.10898
 C232 C 0.91938 -0.11339 0.09045
 C233 C 0.93521 -0.09739 0.06825
 C234 C 0.93103 -0.06310 0.06428
 C235 C 0.91152 -0.04495 0.08343
 C236 C 0.89565 -0.06103 0.10562
 H237 H 0.83589 -0.17424 0.23672
 H238 H 0.77535 -0.19758 0.16573
 H239 H 0.74136 -0.23457 0.19381
 H240 H 0.80234 -0.21203 0.26536
 H241 H 0.92229 -0.13995 0.09285
 H242 H 0.95025 -0.11196 0.05394
 H243 H 0.90795 -0.01848 0.08094
 H244 H 0.88006 -0.04685 0.11980
 C245 C 0.81711 0.27414 0.69524
 C246 C 0.81956 0.30830 0.69982
 C247 C 0.80196 0.32279 0.72193
 C248 C 0.78086 0.30349 0.73865
 C249 C 0.77597 0.26937 0.73294
 C250 C 0.79606 0.25481 0.71190
 C251 C 0.83922 0.32852 0.68121
 C252 C 0.85501 0.34515 0.66494
 C253 C 0.87282 0.36422 0.64515
 C254 C 0.88751 0.38009 0.62768
 C255 C 0.90449 0.39848 0.60614
 C256 C 0.88616 0.41835 0.58793
 C257 C 0.90222 0.43461 0.56592
 C258 C 0.93687 0.43112 0.56179
 C259 C 0.95523 0.41170 0.58057
 C260 C 0.93910 0.39544 0.60255
 H261 H 0.83108 0.26247 0.67850
 H262 H 0.80436 0.34911 0.72615
 H263 H 0.76864 0.31558 0.75602
 H264 H 0.79452 0.22842 0.70777
 H265 H 0.85937 0.42087 0.59048
 H266 H 0.88745 0.44951 0.55190
 H267 H 0.98196 0.40861 0.57798
 H268 H 0.95355 0.38009 0.61648
 C269 C 0.30225 -0.17665 0.72310
 C270 C 0.32006 -0.19107 0.70108
 C271 C 0.31738 -0.22514 0.69618
 C272 C 0.29590 -0.24446 0.71244
 C273 C 0.27563 -0.22996 0.73338
 C274 C 0.28073 -0.19595 0.73943
 C275 C 0.34008 -0.17082 0.68280
 C276 C 0.35610 -0.15417 0.66672
 C277 C 0.37403 -0.13511 0.64705
 C278 C 0.38869 -0.11929 0.62956
 C279 C 0.40544 -0.10102 0.60786
 C280 C 0.42638 -0.11768 0.58905
 C281 C 0.44078 -0.10062 0.56671
 C282 C 0.43432 -0.06664 0.56286
 C283 C 0.41391 -0.04988 0.58225
 C284 C 0.39948 -0.06703 0.60457
 H285 H 0.30481 -0.15040 0.72754
 H286 H 0.33150 -0.23674 0.67949
 H287 H 0.29421 -0.27079 0.70810
 H288 H 0.26835 -0.18395 0.75676
 H289 H 0.43112 -0.14399 0.59136
 H290 H 0.45656 -0.11414 0.55224
 H291 H 0.40857 -0.02369 0.57987
 H292 H 0.38323 -0.05390 0.61897
 C293 C 0.27832 0.31326 0.19563
 C294 C 0.31241 0.31675 0.20091
 C295 C 0.32677 0.29954 0.22299
 C296 C 0.30738 0.27797 0.23916
 C297 C 0.27336 0.27228 0.23288
 C298 C 0.25891 0.29174 0.21172
 C299 C 0.33268 0.33724 0.18305
 C300 C 0.34927 0.35378 0.16731
 C301 C 0.36817 0.37240 0.14800
 C302 C 0.38381 0.38766 0.13077
 C303 C 0.40184 0.40508 0.10931
 C304 C 0.43620 0.39998 0.10568
 C305 C 0.45312 0.41488 0.08344
 C306 C 0.43577 0.43493 0.06448
 C307 C 0.40144 0.44059 0.06871
 C308 C 0.38460 0.42571 0.09097
 H309 H 0.26676 0.32691 0.17887
 H310 H 0.35301 0.30271 0.22770
 H311 H 0.31926 0.26615 0.25662
 H312 H 0.23253 0.28958 0.20719
 H313 H 0.44976 0.38397 0.11971
 H314 H 0.47959 0.41016 0.08076
 H315 H 0.38747 0.45607 0.05456
 H316 H 0.35800 0.42977 0.09355
 C317 C 0.81656 0.22077 -0.19524
 C318 C 0.81943 0.18662 -0.19969
 C319 C 0.80217 0.17180 -0.22165
 C320 C 0.78106 0.19078 -0.23838
 C321 C 0.77583 0.22490 -0.23283
 C322 C 0.79551 0.23977 -0.21189
 C323 C 0.83923 0.16680 -0.18111
 C324 C 0.85517 0.15060 -0.16483
 C325 C 0.87315 0.13207 -0.14499
 C326 C 0.88791 0.11663 -0.12746
 C327 C 0.90484 0.09864 -0.10585
 C328 C 0.89952 0.06452 -0.10260
 C329 C 0.91432 0.04750 -0.08055
 C330 C 0.93454 0.06449 -0.06138
 C331 C 0.94031 0.09863 -0.06515
 C332 C 0.92552 0.11556 -0.08722
 H333 H 0.83024 0.23270 -0.17862
 H334 H 0.80487 0.14548 -0.22576
 H335 H 0.76913 0.17846 -0.25563
 H336 H 0.79368 0.26616 -0.20786
 H337 H 0.88352 0.05116 -0.11685
 H338 H 0.90948 0.02120 -0.07825
 H339 H 0.95590 0.11234 -0.05082
 H340 H 0.92980 0.14197 -0.08949
 C341 C 0.82537 0.69596 0.27729
 C342 C 0.81050 0.67885 0.29937
 C343 C 0.77632 0.68239 0.30458
 C344 C 0.75731 0.70392 0.28844
 C345 C 0.77227 0.72333 0.26731
 C346 C 0.80638 0.71753 0.26108
 C347 C 0.83041 0.65859 0.31738
 C348 C 0.84679 0.64239 0.33327
 C349 C 0.86555 0.62434 0.35276
 C350 C 0.88119 0.60971 0.37016
 C351 C 0.89933 0.59320 0.39178
 C352 C 0.88228 0.57311 0.41085
 C353 C 0.89929 0.55916 0.43323
 C354 C 0.93358 0.56526 0.43682
 C355 C 0.95073 0.58480 0.41716
 C356 C 0.93364 0.59877 0.39481
 H357 H 0.85170 0.69275 0.27266
 H358 H 0.76440 0.66882 0.32135
 H359 H 0.73084 0.70615 0.29291
 H360 H 0.81865 0.72931 0.24363
 H361 H 0.85571 0.56872 0.40873
 H362 H 0.88550 0.54402 0.44793
 H363 H 0.97718 0.58981 0.41934
 H364 H 0.94704 0.61439 0.38021
 C365 C 0.31568 0.18386 0.27376
 C366 C 0.30798 0.18039 0.30199
 C367 C 0.28078 0.19752 0.31335
 C368 C 0.26207 0.21899 0.29690
 C369 C 0.27089 0.22477 0.26879
 C370 C 0.29694 0.20532 0.25722
 C371 C 0.32811 0.15978 0.31962
 C372 C 0.34471 0.14334 0.33522
 C373 C 0.36374 0.12499 0.35440
 C374 C 0.37958 0.11005 0.37153
 C375 C 0.39790 0.09304 0.39283
 C376 C 0.41789 0.11117 0.41118
 C377 C 0.43386 0.09522 0.43315
 C378 C 0.42995 0.06087 0.43709
 C379 C 0.41050 0.04266 0.41815
 C380 C 0.39450 0.05870 0.39620
 H381 H 0.33628 0.17018 0.26457
 H382 H 0.27401 0.19431 0.33503
 H383 H 0.24055 0.23070 0.30642
 H384 H 0.30327 0.20740 0.23537
 H385 H 0.42066 0.13776 0.40879
 H386 H 0.44884 0.10984 0.44730
 H387 H 0.40712 0.01615 0.42062
 H388 H 0.37902 0.04443 0.38216
 C389 C 0.30126 0.67232 -0.22171
 C390 C 0.31809 0.68689 -0.19943
 C391 C 0.31500 0.72095 -0.19461
 C392 C 0.29413 0.74012 -0.21127
 C393 C 0.27487 0.72547 -0.23256
 C394 C 0.28033 0.69147 -0.23844
 C395 C 0.33774 0.66689 -0.18094
 C396 C 0.35360 0.65055 -0.16473
 C397 C 0.37156 0.63196 -0.14499
 C398 C 0.38646 0.61659 -0.12753
 C399 C 0.40379 0.59894 -0.10599
 C400 C 0.43842 0.60228 -0.10324
 C401 C 0.45492 0.58685 -0.08124
 C402 C 0.43689 0.56799 -0.06163
 C403 C 0.40221 0.56418 -0.06491
 C404 C 0.38578 0.57961 -0.08694
 H405 H 0.30416 0.64609 -0.22609
 H406 H 0.32840 0.73267 -0.17773
 H407 H 0.29216 0.76644 -0.20700
 H408 H 0.26875 0.67937 -0.25597
 H409 H 0.45260 0.61723 -0.11783
 H410 H 0.48166 0.59015 -0.07930
 H411 H 0.38771 0.54967 -0.05023
 H412 H 0.35896 0.57689 -0.08885
 C413 C 1.19870 -0.22150 -0.18673
 C414 C 1.18169 -0.19465 -0.19825
 C415 C 1.18558 -0.18756 -0.22651
 C416 C 1.20741 -0.20652 -0.24292
 C417 C 1.22685 -0.23215 -0.23118
 C418 C 1.22055 -0.24042 -0.20305
 C419 C 1.16089 -0.17416 -0.18069
 C420 C 1.14435 -0.15727 -0.16510
 C421 C 1.12594 -0.13790 -0.14588
 C422 C 1.11098 -0.12179 -0.12869
 C423 C 1.09397 -0.10319 -0.10726
 C424 C 1.10000 -0.06916 -0.10408
 C425 C 1.08550 -0.05172 -0.08188
 C426 C 1.06495 -0.06822 -0.06250
 C427 C 1.05839 -0.10222 -0.06626
 C428 C 1.07285 -0.11957 -0.08847
 H429 H 1.19516 -0.22781 -0.16502
 H430 H 1.17199 -0.16723 -0.23583
 H431 H 1.20986 -0.20061 -0.26479
 H432 H 1.23216 -0.26162 -0.19339
 H433 H 1.11640 -0.05625 -0.11844
 H434 H 1.09093 -0.02552 -0.07956
 H435 H 1.04249 -0.11554 -0.05178
 H436 H 1.06807 -0.14591 -0.09069
 C437 C 1.17480 0.29969 0.27678
 C438 C 1.18915 0.31702 0.29889
 C439 C 1.22323 0.31357 0.30418
 C440 C 1.24265 0.29198 0.28809
 C441 C 1.22820 0.27239 0.26691
 C442 C 1.19419 0.27804 0.26062
 C443 C 1.16885 0.33757 0.31675
 C444 C 1.15221 0.35413 0.33249
 C445 C 1.13322 0.37278 0.35179
 C446 C 1.11747 0.38805 0.36901
 C447 C 1.09930 0.40548 0.39045
 C448 C 1.11641 0.42623 0.40889
 C449 C 1.09943 0.44112 0.43112
 C450 C 1.06509 0.43536 0.43523
 C451 C 1.04788 0.41520 0.41617
 C452 C 1.06494 0.40028 0.39395
 H453 H 1.14856 0.30282 0.27206
 H454 H 1.23478 0.32731 0.32095
 H455 H 1.26902 0.28985 0.29263
 H456 H 1.18231 0.26612 0.24314
 H457 H 1.14301 0.43037 0.40640
 H458 H 1.11329 0.45669 0.44536
 H459 H 1.02140 0.41040 0.41876
 H460 H 1.05148 0.38418 0.37984
 C461 C 0.71856 -0.20129 0.31329
 C462 C 0.69170 -0.18426 0.30168
 C463 C 0.68463 -0.18812 0.27346
 C464 C 0.70371 -0.20984 0.25713
 C465 C 0.72948 -0.22911 0.26893
 C466 C 0.73763 -0.22302 0.29706
 C467 C 0.67127 -0.16330 0.31905
 C468 C 0.65443 -0.14656 0.33447
 C469 C 0.63514 -0.12788 0.35350
 C470 C 0.61913 -0.11268 0.37058
 C471 C 0.60069 -0.09542 0.39191
 C472 C 0.58056 -0.11335 0.41043
 C473 C 0.56466 -0.09720 0.43258
 C474 C 0.56879 -0.06286 0.43650
 C475 C 0.58834 -0.04484 0.41735
 C476 C 0.60428 -0.06109 0.39522
 H477 H 0.72482 -0.19777 0.33498
 H478 H 0.66428 -0.17452 0.26410
 H479 H 0.69791 -0.21218 0.23526
 H480 H 0.75890 -0.23463 0.30672
 H481 H 0.57767 -0.13995 0.40808
 H482 H 0.54958 -0.11166 0.44689
 H483 H 0.59188 -0.01834 0.41980
 H484 H 0.61989 -0.04700 0.38104
 C485 C 0.70047 0.27799 -0.18622
 C486 C 0.68315 0.30476 -0.19756
 C487 C 0.68642 0.31167 -0.22592
 C488 C 0.70795 0.29266 -0.24259
 C489 C 0.72772 0.26714 -0.23105
 C490 C 0.72201 0.25903 -0.20279
 C491 C 0.66262 0.32529 -0.17978
 C492 C 0.64627 0.34223 -0.16406
 C493 C 0.62800 0.36172 -0.14478
 C494 C 0.61306 0.37797 -0.12764
 C495 C 0.59594 0.39683 -0.10639
 C496 C 0.56135 0.39366 -0.10274
 C497 C 0.54517 0.41030 -0.08091
 C498 C 0.56347 0.43023 -0.06236
 C499 C 0.59808 0.43387 -0.06658
 C500 C 0.61418 0.41725 -0.08843
 H501 H 0.69740 0.27179 -0.16444
 H502 H 0.67258 0.33191 -0.23512
 H503 H 0.70993 0.29846 -0.26451
 H504 H 0.73387 0.23791 -0.19322
 H505 H 0.54698 0.37788 -0.11646
 H506 H 0.51847 0.40707 -0.07823
 H507 H 0.61280 0.44917 -0.05275
 H508 H 0.64097 0.41987 -0.09103
 C509 C 1.18404 0.22582 -0.19466
 C510 C 1.19107 0.19207 -0.19175
 C511 C 1.21731 0.17784 -0.20688
 C512 C 1.23591 0.19702 -0.22549
 C513 C 1.22790 0.23076 -0.23007
 C514 C 1.20261 0.24509 -0.21325
 C515 C 1.17179 0.17208 -0.17289
 C516 C 1.15576 0.15520 -0.15708
 C517 C 1.13721 0.13552 -0.13840
 C518 C 1.12156 0.11896 -0.12210
 C519 C 1.10318 0.09974 -0.10209
 C520 C 1.06848 0.10322 -0.09984
 C521 C 1.05091 0.08628 -0.07907
 C522 C 1.06795 0.06578 -0.06027
 C523 C 1.10268 0.06172 -0.06319
 C524 C 1.12019 0.07866 -0.08398
 H525 H 1.16424 0.23728 -0.18252
 H526 H 1.22359 0.15191 -0.20412
 H527 H 1.25687 0.18526 -0.23580
 H528 H 1.19694 0.27128 -0.21487
 H529 H 1.05512 0.11951 -0.11377
 H530 H 1.02414 0.08981 -0.07734
 H531 H 1.11641 0.04597 -0.04908
 H532 H 1.14705 0.07582 -0.08558
 C533 C 1.18334 0.69186 0.27406
 C534 C 1.19245 0.68641 0.30166
 C535 C 1.22166 0.70074 0.31187
 C536 C 1.24080 0.72178 0.29512
 C537 C 1.23038 0.73047 0.26790
 C538 C 1.20248 0.71289 0.25719
 C539 C 1.17173 0.66666 0.31982
 C540 C 1.15466 0.65088 0.33580
 C541 C 1.13513 0.63307 0.35528
 C542 C 1.11895 0.61823 0.37248
 C543 C 1.10037 0.60078 0.39365
 C544 C 1.08072 0.61842 0.41284
 C545 C 1.06438 0.60173 0.43449
 C546 C 1.06761 0.56715 0.43726
 C547 C 1.08679 0.54953 0.41752
 C548 C 1.10309 0.56627 0.39591
 H549 H 1.16127 0.68009 0.26562
 H550 H 1.22963 0.69576 0.33293
 H551 H 1.26377 0.73127 0.30381
 H552 H 1.19483 0.71624 0.23584
 H553 H 1.07846 0.64515 0.41133
 H554 H 1.04969 0.61592 0.44930
 H555 H 1.08968 0.52287 0.41905
 H556 H 1.11827 0.55236 0.38122
 C557 C 0.68398 0.22460 0.30494
 C558 C 0.68107 0.19058 0.29989
 C559 C 0.69831 0.17624 0.27754
 C560 C 0.71951 0.19557 0.26098
 C561 C 0.72485 0.22952 0.26711
 C562 C 0.70513 0.24396 0.28844
 C563 C 0.66130 0.17030 0.31828
 C564 C 0.64543 0.15360 0.33439
 C565 C 0.62757 0.13451 0.35404
 C566 C 0.61282 0.11869 0.37145
 C567 C 0.59572 0.10049 0.39295
 C568 C 0.56097 0.10282 0.39577
 C569 C 0.54464 0.08690 0.41780
 C570 C 0.56295 0.06858 0.43735
 C571 C 0.59776 0.06576 0.43399
 C572 C 0.61402 0.08167 0.41194
 H573 H 0.67025 0.23612 0.32189
 H574 H 0.69554 0.15004 0.27300
 H575 H 0.73143 0.18366 0.24338
 H576 H 0.70697 0.27026 0.29285
 H577 H 0.54658 0.11738 0.38123
 H578 H 0.51778 0.08942 0.41980
 H579 H 0.61246 0.05167 0.44863
 H580 H 0.64094 0.07975 0.40996
 C581 C 0.71774 0.70199 -0.18695
 C582 C 0.69081 0.68483 -0.19842
 C583 C 0.68374 0.68834 -0.22668
 C584 C 0.70284 0.70986 -0.24314
 C585 C 0.72862 0.72934 -0.23145
 C586 C 0.73680 0.72351 -0.20331
 C587 C 0.67040 0.66409 -0.18084
 C588 C 0.65370 0.64753 -0.16519
 C589 C 0.63468 0.62901 -0.14586
 C590 C 0.61895 0.61387 -0.12859
 C591 C 0.60085 0.59652 -0.10710
 C592 C 0.60417 0.56212 -0.10426
 C593 C 0.58845 0.54571 -0.08216
 C594 C 0.56935 0.56360 -0.06254
 C595 C 0.56553 0.59803 -0.06594
 C596 C 0.58123 0.61437 -0.08806
 H597 H 0.72405 0.69874 -0.16526
 H598 H 0.66336 0.67462 -0.23596
 H599 H 0.69702 0.71194 -0.26501
 H600 H 0.75811 0.73520 -0.19369
 H601 H 0.61937 0.54807 -0.11883
 H602 H 0.59176 0.51915 -0.08013
 H603 H 0.55083 0.61242 -0.05126
 H604 H 0.57854 0.64101 -0.09003
 C605 C 0.77511 -0.18226 -0.19528
 C606 C 0.80946 -0.17915 -0.19991
 C607 C 0.82453 -0.19632 -0.22195
 C608 C 0.80559 -0.21759 -0.23863
 C609 C 0.77129 -0.22302 -0.23292
 C610 C 0.75616 -0.20347 -0.21187
 C611 C 0.82927 -0.15930 -0.18134
 C612 C 0.84552 -0.14341 -0.16503
 C613 C 0.86414 -0.12566 -0.14510
 C614 C 0.87972 -0.11121 -0.12745
 C615 C 0.89794 -0.09482 -0.10567
 C616 C 0.93234 -0.10003 -0.10297
 C617 C 0.94961 -0.08591 -0.08071
 C618 C 0.93259 -0.06651 -0.06080
 C619 C 0.89817 -0.06084 -0.06400
 C620 C 0.88097 -0.07496 -0.08628
 H621 H 0.76303 -0.16865 -0.17856
 H622 H 0.85100 -0.19344 -0.22615
 H623 H 0.81806 -0.22946 -0.25598
 H624 H 0.72959 -0.20545 -0.20776
 H625 H 0.94570 -0.11544 -0.11782
 H626 H 0.97615 -0.09061 -0.07885
 H627 H 0.88446 -0.04584 -0.04908
 H628 H 0.85433 -0.07082 -0.08815
 C629 C 0.80006 0.28281 0.31307
 C630 C 0.81724 0.30969 0.30155
 C631 C 0.81370 0.31689 0.27332
 C632 C 0.79211 0.29796 0.25694
 C633 C 0.77258 0.27223 0.26867
 C634 C 0.77845 0.26391 0.29678
 C635 C 0.83794 0.33001 0.31904
 C636 C 0.85443 0.34672 0.33459
 C637 C 0.87278 0.36585 0.35378
 C638 C 0.88768 0.38171 0.37097
 C639 C 0.90461 0.40001 0.39241
 C640 C 0.89924 0.43415 0.39550
 C641 C 0.91368 0.45136 0.41767
 C642 C 0.93351 0.43449 0.43710
 C643 C 0.93939 0.40035 0.43345
 C644 C 0.92498 0.38324 0.41126
 H645 H 0.80334 0.27643 0.33476
 H646 H 0.82743 0.33725 0.26401
 H647 H 0.78998 0.30389 0.23508
 H648 H 0.76674 0.24265 0.30641
 H649 H 0.88341 0.44735 0.38108
 H650 H 0.90883 0.47768 0.41991
 H651 H 0.95473 0.38677 0.44797
 H652 H 0.92923 0.35680 0.40911
 C653 C 0.27685 -0.18501 0.30534
 C654 C 0.31039 -0.17974 0.29856
 C655 C 0.32384 -0.19423 0.27457
 C656 C 0.30433 -0.21531 0.25819
 C657 C 0.27114 -0.22379 0.26618
 C658 C 0.25729 -0.20605 0.28907
 C659 C 0.33112 -0.16036 0.31682
 C660 C 0.34810 -0.14492 0.33294
 C661 C 0.36742 -0.12764 0.35273
 C662 C 0.38331 -0.11346 0.37037
 C663 C 0.40139 -0.09713 0.39229
 C664 C 0.43591 -0.10173 0.39499
 C665 C 0.45291 -0.08748 0.41739
 C666 C 0.43548 -0.06863 0.43743
 C667 C 0.40094 -0.06365 0.43423
 C668 C 0.38405 -0.07783 0.41183
 H669 H 0.26586 -0.17322 0.32350
 H670 H 0.34954 -0.18944 0.26859
 H671 H 0.31558 -0.22494 0.23933
 H672 H 0.23135 -0.20941 0.29498
 H673 H 0.44957 -0.11670 0.38002
 H674 H 0.47953 -0.09164 0.41927
 H675 H 0.38689 -0.04907 0.44921
 H676 H 0.35734 -0.07414 0.40999
 C677 C 0.31420 0.27856 -0.19599
 C678 C 0.30748 0.31227 -0.19213
 C679 C 0.28095 0.32704 -0.20615
 C680 C 0.26173 0.30844 -0.22461
 C681 C 0.26940 0.27478 -0.23016
 C682 C 0.29502 0.25989 -0.21443
 C683 C 0.32736 0.33158 -0.17336
 C684 C 0.34391 0.34777 -0.15753
 C685 C 0.36304 0.36654 -0.13874
 C686 C 0.37908 0.38227 -0.12225
 C687 C 0.39775 0.40051 -0.10192
 C688 C 0.39400 0.43493 -0.09958
 C689 C 0.41049 0.45226 -0.07853
 C690 C 0.43074 0.43522 -0.05954
 C691 C 0.43501 0.40076 -0.06251
 C692 C 0.41856 0.38352 -0.08357
 H693 H 0.33422 0.26668 -0.18471
 H694 H 0.27491 0.35293 -0.20263
 H695 H 0.24061 0.32058 -0.23405
 H696 H 0.30050 0.23372 -0.21680
 H697 H 0.37789 0.44827 -0.11369
 H698 H 0.40684 0.47882 -0.07676
 H699 H 0.45063 0.38704 -0.04828
 H700 H 0.42160 0.35687 -0.08523
 C701 C 1.17595 -0.19442 0.22529
 C702 C 1.18941 -0.18001 0.20133
 C703 C 1.22295 -0.18530 0.19453
 C704 C 1.24250 -0.20626 0.21078
 C705 C 1.22864 -0.22390 0.23365
 C706 C 1.19546 -0.21542 0.24165
 C707 C 1.16870 -0.16069 0.18311
 C708 C 1.15174 -0.14529 0.16702
 C709 C 1.13243 -0.12805 0.14728
 C710 C 1.11655 -0.11391 0.12970
 C711 C 1.09844 -0.09765 0.10783
 C712 C 1.11578 -0.07854 0.08823
 C713 C 1.09884 -0.06442 0.06589
 C714 C 1.06426 -0.06927 0.06282
 C715 C 1.04683 -0.08791 0.08293
 C716 C 1.06388 -0.10209 0.10527
 H717 H 1.15026 -0.18961 0.23128
 H718 H 1.23394 -0.17357 0.17640
 H719 H 1.26844 -0.20962 0.20487
 H720 H 1.18420 -0.22498 0.26049
 H721 H 1.14252 -0.07497 0.08997
 H722 H 1.11288 -0.05000 0.05085
 H723 H 1.02018 -0.09196 0.08116
 H724 H 1.05022 -0.11691 0.12029
 C725 C 1.22191 0.31849 0.69632
 C726 C 1.18783 0.31213 0.69335
 C727 C 1.17300 0.28600 0.70794
 C728 C 1.19198 0.26678 0.72606
 C729 C 1.22610 0.27404 0.73063
 C730 C 1.24094 0.29933 0.71439
 C731 C 1.16829 0.33192 0.67476
 C732 C 1.15216 0.34844 0.65896
 C733 C 1.13363 0.36751 0.64005
 C734 C 1.11815 0.38340 0.62337
 C735 C 1.10018 0.40166 0.60271
 C736 C 1.07956 0.38471 0.58411
 C737 C 1.06387 0.40186 0.56270
 C738 C 1.06868 0.43622 0.55963
 C739 C 1.08874 0.45326 0.57886
 C740 C 1.10449 0.43600 0.60026
 H741 H 1.23382 0.33820 0.68460
 H742 H 1.14679 0.28025 0.70510
 H743 H 1.17980 0.24595 0.73595
 H744 H 1.26740 0.30453 0.71606
 H745 H 1.07610 0.35812 0.58585
 H746 H 1.04837 0.38815 0.54831
 H747 H 1.09279 0.47975 0.57701
 H748 H 1.12047 0.44932 0.61456
 C749 C 0.72337 -0.18219 0.69524
 C750 C 0.68903 -0.17908 0.69989
 C751 C 0.67394 -0.19632 0.72182
 C752 C 0.69286 -0.21762 0.73837
 C753 C 0.72715 -0.22303 0.73264
 C754 C 0.74230 -0.20344 0.71171
 C755 C 0.66926 -0.15912 0.68147
 C756 C 0.65307 -0.14313 0.66527
 C757 C 0.63454 -0.12522 0.64547
 C758 C 0.61906 -0.11064 0.62791
 C759 C 0.60097 -0.09410 0.60622
 C760 C 0.56654 -0.09913 0.60345
 C761 C 0.54940 -0.08489 0.58124
 C762 C 0.56657 -0.06555 0.56145
 C763 C 0.60101 -0.06004 0.56473
 C764 C 0.61809 -0.07428 0.58696
 H765 H 0.73548 -0.16853 0.67861
 H766 H 0.64747 -0.19344 0.72604
 H767 H 0.68037 -0.22953 0.75564
 H768 H 0.76887 -0.20541 0.70759
 H769 H 0.55306 -0.11450 0.61819
 H770 H 0.52284 -0.08946 0.57931
 H771 H 0.61484 -0.04510 0.54991
 H772 H 0.64475 -0.07028 0.58888
 C773 C 0.68368 0.27831 0.19571
 C774 C 0.68045 0.31232 0.20069
 C775 C 0.69762 0.32693 0.22276
 C776 C 0.71904 0.30789 0.23911
 C777 C 0.72466 0.27397 0.23302
 C778 C 0.70505 0.25924 0.21199
 C779 C 0.66051 0.33228 0.18243
 C780 C 0.64457 0.34867 0.16633
 C781 C 0.62676 0.36738 0.14661
 C782 C 0.61223 0.38290 0.12906
 C783 C 0.59568 0.40082 0.10730
 C784 C 0.60098 0.43495 0.10413
 C785 C 0.58672 0.45184 0.08179
 C786 C 0.56712 0.43469 0.06229
 C787 C 0.56136 0.40055 0.06599
 C788 C 0.57560 0.38374 0.08834
 H789 H 0.67005 0.26657 0.17897
 H790 H 0.69463 0.35313 0.22724
 H791 H 0.73090 0.32000 0.25650
 H792 H 0.70714 0.23294 0.20762
 H793 H 0.61657 0.44839 0.11865
 H794 H 0.59148 0.47817 0.07953
 H795 H 0.54620 0.38675 0.05141
 H796 H 0.57139 0.35732 0.09057
 C797 C 0.80006 0.22093 0.18623
 C798 C 0.81732 0.19416 0.19762
 C799 C 0.81401 0.18720 0.22595
 C800 C 0.79248 0.20619 0.24257
 C801 C 0.77278 0.23173 0.23100
 C802 C 0.77851 0.23989 0.20277
 C803 C 0.83781 0.17361 0.17993
 C804 C 0.85412 0.15658 0.16432
 C805 C 0.87235 0.13699 0.14517
 C806 C 0.88726 0.12067 0.12812
 C807 C 0.90438 0.10182 0.10695
 C808 C 0.93914 0.10403 0.10411
 C809 C 0.95544 0.08751 0.08231
 C810 C 0.93708 0.06872 0.06301
 C811 C 0.90227 0.06601 0.06642
 C812 C 0.88604 0.08251 0.08825
 H813 H 0.80318 0.22713 0.16446
 H814 H 0.82780 0.16693 0.23515
 H815 H 0.79045 0.20037 0.26449
 H816 H 0.76666 0.26103 0.19322
 H817 H 0.95356 0.11897 0.11844
 H818 H 0.98230 0.08997 0.08025
 H819 H 0.88753 0.05157 0.05198
 H820 H 0.85912 0.08067 0.09024
 C821 C 0.81477 0.68847 0.72602
 C822 C 0.80777 0.68501 0.69773
 C823 C 0.78084 0.70212 0.68632
 C824 C 0.76171 0.72357 0.70278
 C825 C 0.76984 0.72937 0.73096
 C826 C 0.79560 0.70991 0.74257
 C827 C 0.82828 0.66438 0.68007
 C828 C 0.84510 0.64791 0.66438
 C829 C 0.86429 0.62947 0.64504
 C830 C 0.88018 0.61438 0.62778
 C831 C 0.89848 0.59705 0.60633
 C832 C 0.91812 0.61493 0.58739
 C833 C 0.93404 0.59858 0.56532
 C834 C 0.93044 0.56411 0.56188
 C835 C 0.91131 0.54619 0.58140
 C836 C 0.89537 0.56262 0.60345
 H837 H 0.83515 0.67478 0.73525
 H838 H 0.77458 0.69890 0.66460
 H839 H 0.74041 0.73524 0.69319
 H840 H 0.80138 0.71197 0.76447
 H841 H 0.92065 0.64160 0.58939
 H842 H 0.94875 0.61299 0.55072
 H843 H 0.90817 0.51960 0.57934
 H844 H 0.88016 0.54855 0.61795
 C845 C 0.27359 0.18864 0.69449
 C846 C 0.30768 0.19479 0.69095
 C847 C 0.32281 0.22077 0.70546
 C848 C 0.30416 0.23989 0.72419
 C849 C 0.27012 0.23264 0.72948
 C850 C 0.25489 0.20771 0.71317
 C851 C 0.32707 0.17459 0.67226
 C852 C 0.34321 0.15754 0.65659
 C853 C 0.36190 0.13767 0.63808
 C854 C 0.37767 0.12095 0.62192
 C855 C 0.39616 0.10153 0.60205
 C856 C 0.43086 0.10505 0.59989
 C857 C 0.44854 0.08793 0.57923
 C858 C 0.43159 0.06722 0.56042
 C859 C 0.39685 0.06311 0.56326
 C860 C 0.37925 0.08023 0.58395
 H861 H 0.26145 0.16904 0.68286
 H862 H 0.34903 0.22635 0.70221
 H863 H 0.31659 0.26052 0.73412
 H864 H 0.22845 0.20256 0.71540
 H865 H 0.44415 0.12151 0.61382
 H866 H 0.47531 0.09149 0.57756
 H867 H 0.38320 0.04720 0.54915
 H868 H 0.35238 0.07736 0.58548
 C869 C 0.27821 0.70049 0.18790
 C870 C 0.30743 0.68628 0.19811
 C871 C 0.31650 0.69185 0.22572
 C872 C 0.29732 0.71291 0.24261
 C873 C 0.26942 0.73040 0.23190
 C874 C 0.25903 0.72157 0.20467
 C875 C 0.32822 0.66652 0.17993
 C876 C 0.34535 0.65073 0.16395
 C877 C 0.36497 0.63290 0.14448
 C878 C 0.38123 0.61805 0.12728
 C879 C 0.39991 0.60056 0.10612
 C880 C 0.39740 0.56601 0.10392
 C881 C 0.41378 0.54921 0.08232
 C882 C 0.43280 0.56680 0.06252
 C883 C 0.43582 0.60142 0.06524
 C884 C 0.41941 0.61818 0.08689
 H885 H 0.27027 0.69541 0.16682
 H886 H 0.33858 0.68017 0.23415
 H887 H 0.30496 0.71638 0.26397
 H888 H 0.23606 0.73097 0.19598
 H889 H 0.38234 0.55211 0.11864
 H890 H 0.41106 0.52252 0.08082
 H891 H 0.45039 0.61560 0.05039
 H892 H 0.42150 0.64493 0.08836
   
