data_POSCAR
  _audit_creation_date              2014-09-24
  _audit_creation_method            'ToBaCCo'
  _symmetry_space_group_name_H-M    'P1'
  _symmetry_Int_Tables_number       1
  _symmetry_cell_setting            triclinic
  loop_
  _symmetry_equiv_pos_as_xyz
 x,y,z
_cell_length_a 43.4011
_cell_length_b 43.5885
_cell_length_c 43.7578
_cell_angle_alpha 90.135400
_cell_angle_beta 90.008800
_cell_angle_gamma 90.029300
loop_
  _atom_site_label
  _atom_site_type_symbol
  _atom_site_fract_x
  _atom_site_fract_y
  _atom_site_fract_z
C1 C 0.25041 0.27165 0.22741
 C2 C 0.27303 0.27122 0.20452
 C3 C 0.29620 0.24860 0.20429
 C4 C 0.29616 0.22610 0.22736
 C5 C 0.27335 0.22595 0.25008
 C6 C 0.25047 0.24887 0.25020
 C7 C 0.22772 0.29456 0.22781
 C8 C 0.20461 0.29482 0.25042
 C9 C 0.20479 0.27176 0.27293
 C10 C 0.22766 0.24902 0.27311
 C11 C 0.22802 0.22642 0.29588
 C12 C 0.25060 0.20321 0.29588
 C13 C 0.27312 0.20318 0.27270
 H14 H 0.27224 0.28833 0.18663
 H15 H 0.31414 0.20889 0.22798
 H16 H 0.22841 0.31246 0.21069
 H17 H 0.18686 0.27114 0.29014
 H18 H 0.21090 0.22727 0.31387
 H19 H 0.29030 0.18517 0.27189
 C20 C 0.74958 -0.27318 0.22748
 C21 C 0.72712 -0.27263 0.20439
 C22 C 0.70399 -0.24972 0.20363
 C23 C 0.70447 -0.22708 0.22690
 C24 C 0.72700 -0.22723 0.24989
 C25 C 0.74950 -0.25046 0.25029
 C26 C 0.77212 -0.29627 0.22794
 C27 C 0.79520 -0.29711 0.25083
 C28 C 0.79455 -0.27393 0.27357
 C29 C 0.77193 -0.25095 0.27352
 C30 C 0.77158 -0.22830 0.29637
 C31 C 0.74936 -0.20477 0.29613
 C32 C 0.72720 -0.20445 0.27262
 H33 H 0.72880 -0.28961 0.18642
 H34 H 0.68666 -0.20981 0.22830
 H35 H 0.77056 -0.31418 0.21088
 H36 H 0.81231 -0.27258 0.29084
 H37 H 0.78842 -0.22933 0.31461
 H38 H 0.71031 -0.18619 0.27165
 C39 C 0.74972 0.27288 0.77232
 C40 C 0.72730 0.27230 0.79545
 C41 C 0.70419 0.24936 0.79626
 C42 C 0.70465 0.22670 0.77301
 C43 C 0.72715 0.22687 0.74999
 C44 C 0.74962 0.25015 0.74953
 C45 C 0.77223 0.29602 0.77181
 C46 C 0.79527 0.29688 0.74890
 C47 C 0.79461 0.27369 0.72618
 C48 C 0.77201 0.25066 0.72628
 C49 C 0.77164 0.22799 0.70344
 C50 C 0.74945 0.20442 0.70374
 C51 C 0.72734 0.20407 0.72728
 H52 H 0.72901 0.28930 0.81340
 H53 H 0.68685 0.20939 0.77165
 H54 H 0.77067 0.31394 0.78886
 H55 H 0.81233 0.27237 0.70887
 H56 H 0.78846 0.22904 0.68518
 H57 H 0.71047 0.18578 0.72829
 C58 C 0.24920 -0.27102 0.77334
 C59 C 0.27169 -0.27033 0.79640
 C60 C 0.29499 -0.24783 0.79648
 C61 C 0.29515 -0.22559 0.77317
 C62 C 0.27252 -0.22571 0.75027
 C63 C 0.24961 -0.24865 0.75023
 C64 C 0.22647 -0.29392 0.77308
 C65 C 0.20347 -0.29492 0.75012
 C66 C 0.20430 -0.27201 0.72723
 C67 C 0.22714 -0.24921 0.72706
 C68 C 0.22770 -0.22685 0.70403
 C69 C 0.25019 -0.20354 0.70403
 C70 C 0.27250 -0.20321 0.72740
 H71 H 0.27073 -0.28720 0.81452
 H72 H 0.31319 -0.20843 0.77246
 H73 H 0.22788 -0.31158 0.79032
 H74 H 0.18655 -0.27074 0.70994
 H75 H 0.21078 -0.22793 0.68586
 H76 H 0.28965 -0.18516 0.72817
 C77 C 0.75042 -0.27127 0.77310
 C78 C 0.72799 -0.27059 0.79619
 C79 C 0.70473 -0.24805 0.79632
 C80 C 0.70457 -0.22581 0.77303
 C81 C 0.72715 -0.22592 0.75010
 C82 C 0.75001 -0.24888 0.75000
 C83 C 0.77312 -0.29418 0.77279
 C84 C 0.79608 -0.29517 0.74981
 C85 C 0.79525 -0.27225 0.72692
 C86 C 0.77244 -0.24945 0.72681
 C87 C 0.77189 -0.22707 0.70380
 C88 C 0.74944 -0.20374 0.70385
 C89 C 0.72717 -0.20341 0.72725
 H90 H 0.72895 -0.28746 0.81430
 H91 H 0.68656 -0.20862 0.77236
 H92 H 0.77171 -0.31186 0.79002
 H93 H 0.81297 -0.27099 0.70961
 H94 H 0.78878 -0.22814 0.68561
 H95 H 0.71006 -0.18534 0.72806
 C96 C 0.25046 0.27294 0.77218
 C97 C 0.27307 0.27253 0.79509
 C98 C 0.29622 0.24988 0.79527
 C99 C 0.29618 0.22737 0.77212
 C100 C 0.27340 0.22719 0.74937
 C101 C 0.25053 0.25013 0.74931
 C102 C 0.22778 0.29586 0.77183
 C103 C 0.20468 0.29608 0.74921
 C104 C 0.20486 0.27298 0.72663
 C105 C 0.22772 0.25024 0.72639
 C106 C 0.22808 0.22760 0.70355
 C107 C 0.25064 0.20439 0.70351
 C108 C 0.27316 0.20439 0.72670
 H109 H 0.27228 0.28965 0.81305
 H110 H 0.31415 0.21014 0.77144
 H111 H 0.22846 0.31377 0.78901
 H112 H 0.18693 0.27234 0.70942
 H113 H 0.21095 0.22841 0.68556
 H114 H 0.29032 0.18637 0.72747
 C115 C 0.25019 -0.27293 0.22709
 C116 C 0.27267 -0.27237 0.20403
 C117 C 0.29584 -0.24947 0.20332
 C118 C 0.29536 -0.22684 0.22660
 C119 C 0.27280 -0.22699 0.24955
 C120 C 0.25027 -0.25021 0.24990
 C121 C 0.22762 -0.29601 0.22751
 C122 C 0.20453 -0.29685 0.25037
 C123 C 0.20517 -0.27368 0.27311
 C124 C 0.22781 -0.25070 0.27309
 C125 C 0.22817 -0.22807 0.29596
 C126 C 0.25042 -0.20455 0.29576
 C127 C 0.27260 -0.20422 0.27229
 H128 H 0.27099 -0.28934 0.18605
 H129 H 0.31320 -0.20958 0.22803
 H130 H 0.22918 -0.31392 0.21044
 H131 H 0.18740 -0.27233 0.29036
 H132 H 0.21131 -0.22911 0.31418
 H133 H 0.28952 -0.18597 0.27135
 C134 C 0.75053 0.27135 0.22744
 C135 C 0.72811 0.27069 0.20433
 C136 C 0.70485 0.24814 0.20414
 C137 C 0.70467 0.22585 0.22739
 C138 C 0.72724 0.22595 0.25034
 C139 C 0.75010 0.24893 0.25049
 C140 C 0.77323 0.29428 0.22780
 C141 C 0.79620 0.29524 0.25079
 C142 C 0.79534 0.27229 0.27365
 C143 C 0.77253 0.24947 0.27371
 C144 C 0.77196 0.22705 0.29667
 C145 C 0.74951 0.20370 0.29656
 C146 C 0.72724 0.20339 0.27314
 H147 H 0.72909 0.28759 0.18625
 H148 H 0.68665 0.20865 0.22801
 H149 H 0.77183 0.31198 0.21060
 H150 H 0.81305 0.27101 0.29097
 H151 H 0.78884 0.22810 0.31488
 H152 H 0.71013 0.18531 0.27229
 O153 O 0.27622 0.02963 0.47020
 O154 O 0.27619 -0.03022 0.52946
 O155 O 0.27618 -0.03038 0.47023
 O156 O 0.27622 0.02981 0.52942
 O157 O 0.22534 0.02951 0.52969
 O158 O 0.22530 -0.03009 0.46996
 O159 O 0.22532 -0.02991 0.52974
 O160 O 0.22535 0.02933 0.46991
 Cu161 Cu 0.28131 -0.00029 0.49983
 Cu162 Cu 0.22022 -0.00029 0.49983
 C163 C 0.25079 0.03963 0.45989
 C164 C 0.25075 -0.04022 0.53977
 C165 C 0.25073 -0.04044 0.45994
 C166 C 0.25078 0.03988 0.53970
 O167 O 0.77450 0.02955 0.52990
 O168 O 0.77449 -0.03000 0.47009
 O169 O 0.77446 0.02944 0.47013
 O170 O 0.77446 -0.02987 0.52987
 O171 O 0.72359 -0.03021 0.52957
 O172 O 0.72359 0.02972 0.47042
 O173 O 0.72362 -0.03030 0.47035
 O174 O 0.72363 0.02981 0.52963
 Cu175 Cu 0.77959 -0.00022 0.50000
 Cu176 Cu 0.71850 -0.00025 0.49999
 C177 C 0.74907 0.03989 0.53993
 C178 C 0.74906 -0.04036 0.46006
 C179 C 0.74902 0.03976 0.46013
 C180 C 0.74903 -0.04021 0.53987
 O181 O 0.47068 0.27364 0.02981
 O182 O 0.53055 0.27372 -0.02977
 O183 O 0.47082 0.27395 -0.02999
 O184 O 0.53031 0.27341 0.02995
 O185 O 0.53054 0.22276 0.02916
 O186 O 0.47015 0.22330 -0.02996
 O187 O 0.53039 0.22308 -0.03012
 O188 O 0.47026 0.22298 0.02926
 Cu189 Cu 0.50060 0.27876 0.00002
 Cu190 Cu 0.50032 0.21794 -0.00045
 C191 C 0.46027 0.24830 0.03971
 C192 C 0.54072 0.24842 -0.04012
 C193 C 0.46026 0.24872 -0.04013
 C194 C 0.54062 0.24800 0.03974
 O195 O 0.53015 0.77711 0.03020
 O196 O 0.46989 0.77764 -0.02907
 O197 O 0.46994 0.77716 0.03019
 O198 O 0.53018 0.77759 -0.02906
 O199 O 0.52978 0.72694 -0.02988
 O200 O 0.47007 0.72653 0.02984
 O201 O 0.47016 0.72699 -0.02989
 O202 O 0.52988 0.72648 0.02985
 Cu203 Cu 0.50005 0.78246 0.00062
 Cu204 Cu 0.49997 0.72166 -0.00004
 C205 C 0.54028 0.75170 0.04019
 C206 C 0.45981 0.75240 -0.03965
 C207 C 0.45974 0.75177 0.04017
 C208 C 0.54019 0.75233 -0.03964
 O209 O 0.03022 0.47008 0.27617
 O210 O -0.03019 0.52937 0.27625
 O211 O -0.03001 0.46984 0.27631
 O212 O 0.03004 0.52954 0.27610
 O213 O 0.02981 0.52944 0.22566
 O214 O -0.03005 0.46958 0.22587
 O215 O -0.03000 0.52951 0.22581
 O216 O 0.02961 0.46945 0.22571
 Cu217 Cu 0.00002 0.49973 0.28127
 Cu218 Cu -0.00017 0.49950 0.22070
 C219 C 0.04014 0.45957 0.25092
 C220 C -0.04037 0.53963 0.25104
 C221 C -0.04024 0.45946 0.25112
 C222 C 0.04020 0.53968 0.25084
 O223 O 0.02967 0.53045 0.77460
 O224 O -0.03029 0.47066 0.77420
 O225 O 0.02942 0.47044 0.77437
 O226 O -0.03009 0.53059 0.77446
 O227 O -0.03030 0.53036 0.72402
 O228 O 0.03002 0.47100 0.72392
 O229 O -0.03024 0.47082 0.72376
 O230 O 0.02988 0.53047 0.72415
 Cu231 Cu -0.00033 0.50053 0.77947
 Cu232 Cu -0.00016 0.50066 0.71890
 C233 C 0.04002 0.54068 0.74945
 C234 C -0.04053 0.46053 0.74891
 C235 C 0.03994 0.46052 0.74913
 C236 C -0.04042 0.54070 0.74926
 C237 C 0.36635 0.24838 0.13391
 C238 C 0.35561 0.22071 0.14657
 C239 C 0.33274 0.22077 0.16905
 C240 C 0.32039 0.24851 0.18005
 C241 C 0.33137 0.27618 0.16764
 C242 C 0.35374 0.27610 0.14468
 C243 C 0.39054 0.24833 0.10966
 C244 C 0.41197 0.27251 0.10753
 C245 C 0.43435 0.27266 0.08457
 C246 C 0.43634 0.24830 0.06367
 C247 C 0.41533 0.22394 0.06587
 C248 C 0.39246 0.22412 0.08835
 H249 H 0.32459 0.19894 0.17758
 H250 H 0.32291 0.29807 0.17580
 H251 H 0.45052 0.29157 0.08354
 H252 H 0.41622 0.20502 0.04980
 H253 H 0.36090 0.29789 0.13524
 H254 H 0.41182 0.29120 0.12384
 H255 H 0.36502 0.19888 0.13937
 H256 H 0.37605 0.20543 0.08869
 C257 C 0.63476 0.75091 0.13388
 C258 C 0.64205 0.77775 0.15012
 C259 C 0.66484 0.77766 0.17268
 C260 C 0.68097 0.75052 0.18028
 C261 C 0.67327 0.72359 0.16382
 C262 C 0.65080 0.72389 0.14095
 C263 C 0.61051 0.75109 0.10973
 C264 C 0.59147 0.72534 0.10508
 C265 C 0.56887 0.72544 0.08232
 C266 C 0.56439 0.75148 0.06404
 C267 C 0.58315 0.77731 0.06874
 C268 C 0.60612 0.77703 0.09113
 H269 H 0.67019 0.79947 0.18320
 H270 H 0.68356 0.70166 0.16901
 H271 H 0.55455 0.70530 0.07937
 H272 H 0.58039 0.79760 0.05477
 H273 H 0.64611 0.70278 0.12873
 H274 H 0.59368 0.70518 0.11931
 H275 H 0.63002 0.79900 0.14558
 H276 H 0.62068 0.79705 0.09354
 C277 C 0.63503 0.24881 -0.13394
 C278 C 0.64228 0.22195 -0.15015
 C279 C 0.66505 0.22200 -0.17273
 C280 C 0.68119 0.24914 -0.18038
 C281 C 0.67352 0.27609 -0.16395
 C282 C 0.65109 0.27582 -0.14106
 C283 C 0.61079 0.24869 -0.10979
 C284 C 0.59183 0.27448 -0.10517
 C285 C 0.56929 0.27448 -0.08238
 C286 C 0.56477 0.24850 -0.06402
 C287 C 0.58342 0.22261 -0.06870
 C288 C 0.60635 0.22279 -0.09114
 H289 H 0.67036 0.20019 -0.18323
 H290 H 0.68381 0.29802 -0.16918
 H291 H 0.55503 0.29466 -0.07945
 H292 H 0.58062 0.20236 -0.05468
 H293 H 0.64644 0.29695 -0.12887
 H294 H 0.59406 0.29460 -0.11945
 H295 H 0.63023 0.20070 -0.14557
 H296 H 0.62085 0.20274 -0.09353
 C297 C 0.36536 0.75255 -0.13336
 C298 C 0.35471 0.78019 -0.14613
 C299 C 0.33173 0.78010 -0.16851
 C300 C 0.31917 0.75234 -0.17927
 C301 C 0.33001 0.72470 -0.16670
 C302 C 0.35250 0.72482 -0.14386
 C303 C 0.38974 0.75261 -0.10929
 C304 C 0.41105 0.72834 -0.10722
 C305 C 0.43357 0.72815 -0.08440
 C306 C 0.43583 0.75255 -0.06356
 C307 C 0.41498 0.77702 -0.06574
 C308 C 0.39197 0.77690 -0.08810
 H309 H 0.32369 0.80191 -0.17717
 H310 H 0.32138 0.70281 -0.17468
 H311 H 0.44961 0.70914 -0.08340
 H312 H 0.41607 0.79599 -0.04973
 H313 H 0.35958 0.70307 -0.13430
 H314 H 0.41068 0.70959 -0.12347
 H315 H 0.36431 0.80201 -0.13911
 H316 H 0.37567 0.79567 -0.08842
 C317 C 0.13430 0.36527 0.25069
 C318 C 0.14683 0.35441 0.22305
 C319 C 0.16927 0.33143 0.22296
 C320 C 0.18037 0.31909 0.25052
 C321 C 0.16809 0.33019 0.27817
 C322 C 0.14516 0.35268 0.27824
 C323 C 0.11005 0.38956 0.25076
 C324 C 0.10816 0.41099 0.27484
 C325 C 0.08522 0.43349 0.27506
 C326 C 0.06412 0.43558 0.25087
 C327 C 0.06608 0.41455 0.22664
 C328 C 0.08853 0.39158 0.22675
 H329 H 0.17768 0.32320 0.20115
 H330 H 0.17634 0.32173 0.29991
 H331 H 0.08436 0.44966 0.29388
 H332 H 0.04984 0.41551 0.20786
 H333 H 0.13580 0.35995 0.30000
 H334 H 0.12464 0.41075 0.29339
 H335 H 0.13958 0.36381 0.20135
 H336 H 0.08865 0.37517 0.20816
 C337 C 0.13407 0.63519 0.74990
 C338 C 0.14149 0.65109 0.72304
 C339 C 0.16429 0.67374 0.72301
 C340 C 0.18029 0.68178 0.75005
 C341 C 0.17238 0.66574 0.77702
 C342 C 0.14991 0.64277 0.77684
 C343 C 0.10992 0.61084 0.74981
 C344 C 0.09079 0.60642 0.77540
 C345 C 0.06831 0.58344 0.77539
 C346 C 0.06405 0.56470 0.74960
 C347 C 0.08290 0.56917 0.72393
 C348 C 0.10575 0.59177 0.72413
 H349 H 0.16977 0.68394 0.70120
 H350 H 0.18253 0.67130 0.79888
 H351 H 0.05390 0.58068 0.79540
 H352 H 0.08030 0.55485 0.70383
 H353 H 0.14510 0.63084 0.79798
 H354 H 0.09281 0.62100 0.79536
 H355 H 0.12959 0.64619 0.70184
 H356 H 0.12041 0.59398 0.70424
 C357 C -0.13519 0.63329 0.25103
 C358 C -0.15123 0.64052 0.22414
 C359 C -0.17382 0.66334 0.22399
 C360 C -0.18167 0.67959 0.25093
 C361 C -0.16553 0.67183 0.27794
 C362 C -0.14262 0.64932 0.27788
 C363 C -0.11081 0.60920 0.25104
 C364 C -0.10633 0.59033 0.27672
 C365 C -0.08328 0.56794 0.27682
 C366 C -0.06452 0.56352 0.25106
 C367 C -0.06905 0.58211 0.22529
 C368 C -0.09173 0.60486 0.22537
 H369 H -0.18410 0.66867 0.20216
 H370 H -0.17097 0.68217 0.29973
 H371 H -0.08047 0.55374 0.29691
 H372 H -0.05472 0.57938 0.20521
 H373 H -0.13059 0.64466 0.29904
 H374 H -0.12091 0.59250 0.29667
 H375 H -0.14644 0.62847 0.20302
 H376 H -0.09398 0.61931 0.20542
 C377 C -0.13517 0.36661 0.74868
 C378 C -0.15119 0.35935 0.77557
 C379 C -0.17376 0.33649 0.77572
 C380 C -0.18161 0.32023 0.74878
 C381 C -0.16549 0.32801 0.72177
 C382 C -0.14260 0.35057 0.72182
 C383 C -0.11080 0.39074 0.74868
 C384 C -0.09176 0.39510 0.77438
 C385 C -0.06913 0.41792 0.77452
 C386 C -0.06461 0.43656 0.74879
 C387 C -0.08332 0.43210 0.72299
 C388 C -0.10633 0.40965 0.72302
 H389 H -0.18401 0.33113 0.79756
 H390 H -0.17094 0.31765 0.69998
 H391 H -0.05483 0.42066 0.79463
 H392 H -0.08051 0.44634 0.70292
 H393 H -0.13059 0.35526 0.70066
 H394 H -0.09399 0.38061 0.79431
 H395 H -0.14641 0.37142 0.79669
 H396 H -0.12089 0.40745 0.70305
 C397 C 0.25073 0.13323 0.36597
 C398 C 0.27852 0.14381 0.35319
 C399 C 0.27849 0.16662 0.33081
 C400 C 0.25065 0.17908 0.32002
 C401 C 0.22285 0.16826 0.33255
 C402 C 0.22291 0.14594 0.35541
 C403 C 0.25076 0.10912 0.39015
 C404 C 0.22640 0.08788 0.39236
 C405 C 0.22624 0.06556 0.41524
 C406 C 0.25079 0.06345 0.43599
 C407 C 0.27533 0.08428 0.43370
 C408 C 0.27515 0.10708 0.41129
 H409 H 0.30042 0.17464 0.32219
 H410 H 0.20089 0.17682 0.32456
 H411 H 0.20719 0.04954 0.41634
 H412 H 0.29439 0.08331 0.44965
 H413 H 0.20103 0.13890 0.36496
 H414 H 0.20755 0.08813 0.37617
 H415 H 0.30042 0.13431 0.36023
 H416 H 0.29398 0.12335 0.41090
 C417 C 0.74925 0.13413 0.63364
 C418 C 0.77705 0.14727 0.64381
 C419 C 0.77714 0.16973 0.66665
 C420 C 0.74938 0.18022 0.67956
 C421 C 0.72155 0.16734 0.66914
 C422 C 0.72151 0.14442 0.64677
 C423 C 0.74919 0.10986 0.60952
 C424 C 0.72460 0.10743 0.58864
 C425 C 0.72440 0.08447 0.56628
 C426 C 0.74909 0.06387 0.56379
 C427 C 0.77383 0.06637 0.58429
 C428 C 0.77372 0.08886 0.60711
 H429 H 0.79909 0.17863 0.67435
 H430 H 0.69964 0.17511 0.67806
 H431 H 0.70517 0.08320 0.55053
 H432 H 0.79302 0.05054 0.58303
 H433 H 0.69963 0.13459 0.64002
 H434 H 0.70562 0.12350 0.58920
 H435 H 0.79888 0.14045 0.63398
 H436 H 0.79274 0.08942 0.62309
 C437 C 0.25052 -0.13386 0.63365
 C438 C 0.22268 -0.14668 0.64405
 C439 C 0.22257 -0.16894 0.66697
 C440 C 0.25033 -0.17958 0.67972
 C441 C 0.27819 -0.16704 0.66906
 C442 C 0.27827 -0.14429 0.64661
 C443 C 0.25060 -0.10975 0.60947
 C444 C 0.27509 -0.10760 0.58845
 C445 C 0.27530 -0.08479 0.56605
 C446 C 0.25072 -0.06405 0.56366
 C447 C 0.22609 -0.06626 0.58429
 C448 C 0.22619 -0.08859 0.60716
 H449 H 0.20058 -0.17757 0.67486
 H450 H 0.30010 -0.17493 0.67786
 H451 H 0.29444 -0.08374 0.55020
 H452 H 0.20699 -0.05032 0.58311
 H453 H 0.30018 -0.13471 0.63969
 H454 H 0.29396 -0.12380 0.58894
 H455 H 0.20084 -0.13975 0.63435
 H456 H 0.20727 -0.08892 0.62326
 C457 C 0.74920 -0.13455 0.36630
 C458 C 0.72145 -0.14487 0.35319
 C459 C 0.72148 -0.16778 0.33079
 C460 C 0.74930 -0.18060 0.32034
 C461 C 0.77707 -0.17006 0.33322
 C462 C 0.77700 -0.14763 0.35608
 C463 C 0.74915 -0.11030 0.39044
 C464 C 0.77368 -0.08925 0.39284
 C465 C 0.77380 -0.06678 0.41568
 C466 C 0.74908 -0.06433 0.43619
 C467 C 0.72439 -0.08497 0.43371
 C468 C 0.72458 -0.10791 0.41134
 H469 H 0.69956 -0.17558 0.32189
 H470 H 0.79902 -0.17891 0.32549
 H471 H 0.79298 -0.05092 0.41693
 H472 H 0.70518 -0.08374 0.44946
 H473 H 0.79884 -0.14078 0.36589
 H474 H 0.79267 -0.08978 0.37684
 H475 H 0.69957 -0.13509 0.35997
 H476 H 0.70561 -0.12402 0.41078
 C477 C 0.63452 0.75237 -0.13341
 C478 C 0.64728 0.72463 -0.14395
 C479 C 0.66972 0.72449 -0.16683
 C480 C 0.68061 0.75213 -0.17939
 C481 C 0.66815 0.77990 -0.16858
 C482 C 0.64521 0.78000 -0.14616
 C483 C 0.61018 0.75245 -0.10931
 C484 C 0.60807 0.77672 -0.08809
 C485 C 0.58509 0.77687 -0.06571
 C486 C 0.56415 0.75244 -0.06355
 C487 C 0.56630 0.72806 -0.08442
 C488 C 0.58879 0.72823 -0.10726
 H489 H 0.67828 0.70259 -0.17484
 H490 H 0.67623 0.80170 -0.17723
 H491 H 0.58408 0.79582 -0.04968
 H492 H 0.55019 0.70910 -0.08343
 H493 H 0.63569 0.80184 -0.13911
 H494 H 0.62443 0.79545 -0.08840
 H495 H 0.64016 0.70288 -0.13440
 H496 H 0.58908 0.70950 -0.12353
 C497 C 0.36624 0.24945 -0.13423
 C498 C 0.35372 0.27721 -0.14487
 C499 C 0.33137 0.27737 -0.16786
 C500 C 0.32035 0.24973 -0.18043
 C501 C 0.33260 0.22195 -0.16955
 C502 C 0.35545 0.22182 -0.14705
 C503 C 0.39041 0.24929 -0.10996
 C504 C 0.39224 0.22503 -0.08882
 C505 C 0.41514 0.22470 -0.06637
 C506 C 0.43628 0.24894 -0.06403
 C507 C 0.43436 0.27338 -0.08474
 C508 C 0.41194 0.27338 -0.10767
 H509 H 0.32298 0.29928 -0.17591
 H510 H 0.32441 0.20014 -0.17820
 H511 H 0.41597 0.20572 -0.05044
 H512 H 0.45062 0.29221 -0.08359
 H513 H 0.36480 0.19996 -0.13996
 H514 H 0.37574 0.20642 -0.08926
 H515 H 0.36094 0.29897 -0.13529
 H516 H 0.41185 0.29212 -0.12385
 C517 C 0.36518 0.75110 0.13372
 C518 C 0.34910 0.72409 0.14077
 C519 C 0.32659 0.72381 0.16359
 C520 C 0.31889 0.75075 0.18002
 C521 C 0.33508 0.77789 0.17245
 C522 C 0.35790 0.77795 0.14994
 C523 C 0.38946 0.75126 0.10963
 C524 C 0.39391 0.77718 0.09100
 C525 C 0.41689 0.77743 0.06865
 C526 C 0.43562 0.75159 0.06400
 C527 C 0.43110 0.72558 0.08231
 C528 C 0.40848 0.72550 0.10504
 H529 H 0.31626 0.70188 0.16877
 H530 H 0.32973 0.79969 0.18295
 H531 H 0.41969 0.79770 0.05465
 H532 H 0.44540 0.70542 0.07939
 H533 H 0.36997 0.79919 0.14541
 H534 H 0.37936 0.79720 0.09337
 H535 H 0.35378 0.70297 0.12857
 H536 H 0.40624 0.70536 0.11928
 C537 C 0.63474 0.24780 0.13374
 C538 C 0.64750 0.27553 0.14435
 C539 C 0.66990 0.27564 0.16728
 C540 C 0.68075 0.24798 0.17982
 C541 C 0.66828 0.22023 0.16894
 C542 C 0.64539 0.22015 0.14648
 C543 C 0.61046 0.24775 0.10958
 C544 C 0.60836 0.22352 0.08832
 C545 C 0.58543 0.22341 0.06588
 C546 C 0.56454 0.24785 0.06370
 C547 C 0.56667 0.27220 0.08461
 C548 C 0.58911 0.27199 0.10751
 H549 H 0.67845 0.29753 0.17534
 H550 H 0.67634 0.19842 0.17758
 H551 H 0.58442 0.20448 0.04982
 H552 H 0.55059 0.29117 0.08360
 H553 H 0.63586 0.19833 0.13937
 H554 H 0.62469 0.20478 0.08865
 H555 H 0.64042 0.29729 0.13482
 H556 H 0.58938 0.29069 0.12381
 C557 C -0.13450 0.63506 0.74953
 C558 C -0.14199 0.65091 0.72266
 C559 C -0.16480 0.67351 0.72264
 C560 C -0.18076 0.68155 0.74971
 C561 C -0.17279 0.66554 0.77668
 C562 C -0.15031 0.64261 0.77649
 C563 C -0.11031 0.61078 0.74945
 C564 C -0.09112 0.60649 0.77503
 C565 C -0.06864 0.58355 0.77505
 C566 C -0.06441 0.56473 0.74932
 C567 C -0.08329 0.56910 0.72365
 C568 C -0.10616 0.59166 0.72381
 H569 H -0.17034 0.68368 0.70084
 H570 H -0.18291 0.67111 0.79855
 H571 H -0.05420 0.58087 0.79506
 H572 H -0.08071 0.55472 0.70359
 H573 H -0.14545 0.63072 0.79763
 H574 H -0.09312 0.62112 0.79494
 H575 H -0.13012 0.64600 0.70145
 H576 H -0.12085 0.59379 0.70394
 C577 C -0.13430 0.36500 0.25109
 C578 C -0.15015 0.35746 0.22414
 C579 C -0.17265 0.33454 0.22394
 C580 C -0.18062 0.31852 0.25090
 C581 C -0.16463 0.32653 0.27797
 C582 C -0.14179 0.34914 0.27796
 C583 C -0.11008 0.38926 0.25115
 C584 C -0.10586 0.40839 0.27678
 C585 C -0.08300 0.43099 0.27688
 C586 C -0.06420 0.43537 0.25116
 C587 C -0.06847 0.41652 0.22546
 C588 C -0.09094 0.39356 0.22554
 H589 H -0.18278 0.32898 0.20207
 H590 H -0.17016 0.31634 0.29976
 H591 H -0.08038 0.44539 0.29692
 H592 H -0.05408 0.41921 0.20542
 H593 H -0.12990 0.35404 0.29916
 H594 H -0.12051 0.40625 0.29668
 H595 H -0.14530 0.36938 0.20300
 H596 H -0.09298 0.37891 0.20564
 C597 C 0.13427 0.36643 0.74913
 C598 C 0.14518 0.35383 0.72155
 C599 C 0.16815 0.33138 0.72156
 C600 C 0.18043 0.32033 0.74918
 C601 C 0.16929 0.33269 0.77677
 C602 C 0.14682 0.35563 0.77674
 C603 C 0.10997 0.39065 0.74911
 C604 C 0.08842 0.39265 0.77310
 C605 C 0.06592 0.41557 0.77327
 C606 C 0.06394 0.43657 0.74911
 C607 C 0.08508 0.43450 0.72495
 C608 C 0.10806 0.41205 0.72512
 H609 H 0.17642 0.32290 0.69979
 H610 H 0.17770 0.32450 0.79856
 H611 H 0.04967 0.41651 0.79203
 H612 H 0.08420 0.45065 0.70619
 H613 H 0.13953 0.36504 0.79847
 H614 H 0.08857 0.37625 0.79163
 H615 H 0.13582 0.36105 0.69980
 H616 H 0.12456 0.41183 0.70659
 C617 C 0.13495 0.63346 0.25058
 C618 C 0.14238 0.64951 0.27743
 C619 C 0.16528 0.67205 0.27748
 C620 C 0.18140 0.67982 0.25047
 C621 C 0.17355 0.66357 0.22352
 C622 C 0.15097 0.64071 0.22368
 C623 C 0.11061 0.60931 0.25062
 C624 C 0.10621 0.59044 0.27632
 C625 C 0.08317 0.56804 0.27648
 C626 C 0.06435 0.56358 0.25076
 C627 C 0.06883 0.58213 0.22496
 C628 C 0.09150 0.60492 0.22498
 H629 H 0.17073 0.68240 0.29927
 H630 H 0.18382 0.66891 0.20169
 H631 H 0.08041 0.55385 0.29658
 H632 H 0.05445 0.57937 0.20490
 H633 H 0.14617 0.62864 0.20256
 H634 H 0.12084 0.59265 0.29624
 H635 H 0.13037 0.64483 0.29859
 H636 H 0.09371 0.61936 0.20502
 C637 C 0.74918 -0.13396 0.63359
 C638 C 0.72142 -0.14440 0.64654
 C639 C 0.72148 -0.16719 0.66895
 C640 C 0.74933 -0.17975 0.67959
 C641 C 0.77710 -0.16910 0.66686
 C642 C 0.77701 -0.14680 0.64397
 C643 C 0.74912 -0.10982 0.60946
 C644 C 0.77354 -0.08865 0.60721
 C645 C 0.77367 -0.06629 0.58438
 C646 C 0.74905 -0.06407 0.56373
 C647 C 0.72446 -0.08483 0.56606
 C648 C 0.72465 -0.10767 0.58842
 H649 H 0.69957 -0.17508 0.67774
 H650 H 0.79907 -0.17774 0.67473
 H651 H 0.79276 -0.05032 0.58324
 H652 H 0.70533 -0.08377 0.55019
 H653 H 0.79885 -0.13987 0.63428
 H654 H 0.79244 -0.08899 0.62332
 H655 H 0.69952 -0.13480 0.63963
 H656 H 0.70577 -0.12388 0.58887
 C657 C 0.25058 -0.13446 0.36603
 C658 C 0.22278 -0.14749 0.35573
 C659 C 0.22271 -0.16988 0.33283
 C660 C 0.25048 -0.18041 0.31999
 C661 C 0.27831 -0.16763 0.33052
 C662 C 0.27834 -0.14476 0.35296
 C663 C 0.25063 -0.11026 0.39022
 C664 C 0.27516 -0.10795 0.41118
 C665 C 0.27535 -0.08505 0.43360
 C666 C 0.25070 -0.06439 0.43605
 C667 C 0.22602 -0.06677 0.41548
 C668 C 0.22614 -0.08920 0.39261
 H669 H 0.20075 -0.17870 0.32504
 H670 H 0.30023 -0.17543 0.32164
 H671 H 0.29453 -0.08386 0.44940
 H672 H 0.20687 -0.05089 0.41672
 H673 H 0.30022 -0.13501 0.35980
 H674 H 0.29409 -0.12407 0.41064
 H675 H 0.20094 -0.14065 0.36552
 H676 H 0.20718 -0.08967 0.37655
 C677 C 0.74920 0.13374 0.36664
 C678 C 0.77704 0.14663 0.35632
 C679 C 0.77714 0.16899 0.33350
 C680 C 0.74938 0.17965 0.32077
 C681 C 0.72152 0.16704 0.33136
 C682 C 0.72145 0.14419 0.35370
 C683 C 0.74913 0.10953 0.39070
 C684 C 0.72466 0.10730 0.41172
 C685 C 0.72445 0.08440 0.43402
 C686 C 0.74904 0.06366 0.43632
 C687 C 0.77366 0.06594 0.41568
 C688 C 0.77354 0.08836 0.39291
 H689 H 0.79912 0.17768 0.32566
 H690 H 0.69962 0.17494 0.32258
 H691 H 0.70533 0.08329 0.44988
 H692 H 0.79276 0.04999 0.41680
 H693 H 0.69955 0.13456 0.36057
 H694 H 0.70578 0.12350 0.41131
 H695 H 0.79888 0.13968 0.36600
 H696 H 0.79245 0.08876 0.37681
 C697 C 0.25073 0.13411 0.63340
 C698 C 0.27853 0.14476 0.64616
 C699 C 0.27852 0.16768 0.66853
 C700 C 0.25068 0.18019 0.67933
 C701 C 0.22287 0.16932 0.66680
 C702 C 0.22291 0.14688 0.64395
 C703 C 0.25075 0.10985 0.60927
 C704 C 0.22640 0.08857 0.60713
 C705 C 0.22625 0.06609 0.58430
 C706 C 0.25078 0.06386 0.56355
 C707 C 0.27530 0.08472 0.56576
 C708 C 0.27512 0.10768 0.58811
 H709 H 0.30045 0.17575 0.67714
 H710 H 0.20091 0.17791 0.67480
 H711 H 0.20721 0.05005 0.58325
 H712 H 0.29435 0.08365 0.54981
 H713 H 0.20103 0.13978 0.63441
 H714 H 0.20758 0.08892 0.62333
 H715 H 0.30043 0.13522 0.63912
 H716 H 0.29394 0.12397 0.58846
   
