data_POSCAR
  _audit_creation_date              2014-09-24
  _audit_creation_method            'ToBaCCo'
  _symmetry_space_group_name_H-M    'P1'
  _symmetry_Int_Tables_number       1
  _symmetry_cell_setting            triclinic
  loop_
  _symmetry_equiv_pos_as_xyz
 x,y,z
_cell_length_a 20.0160
_cell_length_b 20.0160
_cell_length_c 52.3069
_cell_angle_alpha 89.849600
_cell_angle_beta 90.150400
_cell_angle_gamma 119.884400
loop_
  _atom_site_label
  _atom_site_type_symbol
  _atom_site_fract_x
  _atom_site_fract_y
  _atom_site_fract_z
C1 C 0.00167 -0.00007 0.50011
 C2 C 0.99992 0.00168 0.16655
 C3 C -0.00124 0.99878 0.83333
 O4 O 0.46313 0.06126 0.02420
 O5 O 0.59375 0.06059 -0.02560
 O6 O 0.46704 0.06779 -0.02552
 O7 O 0.59684 0.06824 0.02409
 O8 O 0.53414 -0.05919 0.02447
 O9 O 0.40260 -0.05963 -0.02546
 O10 O 0.52930 -0.06683 -0.02523
 O11 O 0.40042 -0.06617 0.02426
 Cu12 Cu 0.53654 0.07721 -0.00074
 Cu13 Cu 0.46026 -0.07569 -0.00047
 C14 C 0.40945 -0.00283 0.03255
 C15 C 0.58341 -0.00372 -0.03372
 C16 C 0.41279 0.00449 -0.03382
 C17 C 0.58797 0.00508 0.03262
 O18 O -0.05920 0.53415 0.64219
 O19 O -0.05965 0.40261 0.69212
 O20 O -0.06684 0.52931 0.69189
 O21 O -0.06618 0.40043 0.64240
 O22 O 0.06124 0.46314 0.64246
 O23 O 0.06057 0.59376 0.69226
 O24 O 0.06777 0.46705 0.69218
 O25 O 0.06822 0.59686 0.64257
 Cu26 Cu -0.07571 0.46027 0.66713
 Cu27 Cu 0.07719 0.53655 0.66740
 C28 C 0.00507 0.58798 0.63404
 C29 C 0.00447 0.41280 0.70048
 C30 C -0.00373 0.58342 0.70038
 C31 C -0.00285 0.40947 0.63411
 O32 O 0.53596 0.59654 0.30841
 O33 O 0.40532 0.46536 0.35827
 O34 O 0.53183 0.59893 0.35812
 O35 O 0.40239 0.47002 0.30856
 O36 O 0.46535 0.40533 0.30839
 O37 O 0.59653 0.53598 0.35825
 O38 O 0.47000 0.40241 0.35810
 O39 O 0.59892 0.53184 0.30854
 Cu40 Cu 0.46249 0.53909 0.33334
 Cu41 Cu 0.53908 0.46251 0.33332
 C42 C 0.58979 0.58615 0.30016
 C43 C 0.41580 0.41145 0.36650
 C44 C 0.58614 0.58981 0.36650
 C45 C 0.41144 0.41581 0.30016
 C46 C -0.02370 0.14805 0.54763
 N47 N -0.04900 0.12729 0.57196
 N48 N -0.04475 0.17960 0.58859
 C49 C -0.01454 0.25435 0.58147
 N50 N 0.01060 0.27511 0.55713
 N51 N 0.00634 0.22279 0.54049
 C52 C -0.02143 0.09345 0.53047
 C53 C -0.01449 0.04954 0.51646
 C54 C -0.00844 0.31077 0.59963
 C55 C -0.00452 0.35688 0.61520
 C56 C 0.85184 0.82765 0.21396
 N57 N 0.87229 0.82292 0.23835
 N58 N 0.81987 0.77462 0.25491
 C59 C 0.74530 0.73000 0.24766
 N60 N 0.72485 0.73457 0.22326
 N61 N 0.77729 0.78289 0.20669
 C62 C 0.90651 0.88477 0.19686
 C63 C 0.95041 0.93578 0.18288
 C64 C 0.68873 0.67947 0.26574
 C65 C 0.64249 0.63714 0.28127
 C66 C 0.17004 0.02462 -0.12007
 N67 N 0.17417 0.04895 -0.09565
 N68 N 0.22277 0.04500 -0.07907
 C69 C 0.26829 0.01606 -0.08635
 N70 N 0.26432 -0.00811 -0.11079
 N71 N 0.21572 -0.00415 -0.12737
 C72 C 0.11256 0.02179 -0.13718
 C73 C 0.06120 0.01425 -0.15116
 C74 C 0.31908 0.01011 -0.06825
 C75 C 0.36161 0.00622 -0.05271
 C76 C 0.02714 0.85104 0.54756
 N77 N -0.00316 0.77637 0.54039
 N78 N -0.00755 0.72374 0.55702
 C79 C 0.01771 0.74412 0.58137
 N80 N 0.04818 0.81881 0.58852
 N81 N 0.05257 0.87142 0.57190
 C82 C 0.02490 0.90595 0.53042
 C83 C 0.01793 0.95010 0.51643
 C84 C 0.01134 0.68736 0.59952
 C85 C 0.00714 0.64094 0.61511
 C86 C 0.14855 0.17528 0.21393
 N87 N 0.22309 0.21991 0.20669
 N88 N 0.27569 0.26804 0.22326
 C89 C 0.25542 0.27255 0.24764
 N90 N 0.18086 0.22807 0.25487
 N91 N 0.12828 0.17995 0.23830
 C92 C 0.09370 0.11833 0.19684
 C93 C 0.04963 0.06744 0.18286
 C94 C 0.31216 0.32287 0.26573
 C95 C 0.35855 0.36503 0.28127
 C96 C 0.82455 -0.02639 -0.11951
 N97 N 0.77972 0.00340 -0.12693
 N98 N 0.73144 0.00792 -0.11045
 C99 C 0.72696 -0.01670 -0.08600
 N100 N 0.77164 -0.04666 -0.07861
 N101 N 0.81991 -0.05117 -0.09509
 C102 C 0.88170 -0.02427 -0.13651
 C103 C 0.93278 -0.01738 -0.15041
 C104 C 0.67650 -0.01019 -0.06801
 C105 C 0.63426 -0.00589 -0.05254
 C106 C 0.14804 -0.02369 0.11903
 N107 N 0.12728 -0.04897 0.09470
 N108 N 0.17958 -0.04472 0.07807
 C109 C 0.25434 -0.01452 0.08519
 N110 N 0.27509 0.01060 0.10953
 N111 N 0.22277 0.00634 0.12617
 C112 C 0.09343 -0.02142 0.13619
 C113 C 0.04952 -0.01448 0.15020
 C114 C 0.31075 -0.00842 0.06703
 C115 C 0.35687 -0.00450 0.05146
 C116 C 0.82764 0.85186 0.45270
 N117 N 0.78287 0.77731 0.45997
 N118 N 0.73456 0.72487 0.44341
 C119 C 0.72999 0.74531 0.41900
 N120 N 0.77461 0.81988 0.41175
 N121 N 0.82292 0.87230 0.42831
 C122 C 0.88475 0.90652 0.46980
 C123 C 0.93577 0.95042 0.48378
 C124 C 0.67946 0.68874 0.40092
 C125 C 0.63713 0.64250 0.38539
 C126 C 0.02460 0.17005 0.78673
 N127 N 0.04894 0.17418 0.76231
 N128 N 0.04499 0.22278 0.74573
 C129 C 0.01604 0.26830 0.75301
 N130 N -0.00813 0.26433 0.77745
 N131 N -0.00417 0.21573 0.79403
 C132 C 0.02177 0.11257 0.80384
 C133 C 0.01424 0.06121 0.81782
 C134 C 0.01009 0.31910 0.73491
 C135 C 0.00620 0.36162 0.71937
 C136 C 0.85102 0.02715 0.11910
 N137 N 0.77635 -0.00317 0.12627
 N138 N 0.72372 -0.00756 0.10964
 C139 C 0.74410 0.01772 0.08529
 N140 N 0.81880 0.04822 0.07814
 N141 N 0.87141 0.05260 0.09476
 C142 C 0.90594 0.02491 0.13624
 C143 C 0.95008 0.01794 0.15023
 C144 C 0.68734 0.01136 0.06714
 C145 C 0.64092 0.00715 0.05155
 C146 C 0.17526 0.14856 0.45273
 N147 N 0.21990 0.22310 0.45997
 N148 N 0.26803 0.27570 0.44340
 C149 C 0.27254 0.25544 0.41902
 N150 N 0.22806 0.18088 0.41179
 N151 N 0.17994 0.12829 0.42836
 C152 C 0.11832 0.09371 0.46983
 C153 C 0.06743 0.04965 0.48380
 C154 C 0.32286 0.31217 0.40093
 C155 C 0.36501 0.35856 0.38539
 C156 C -0.02641 0.82456 0.78618
 N157 N -0.05120 0.81991 0.76175
 N158 N -0.04669 0.77163 0.74528
 C159 C -0.01671 0.72697 0.75267
 N160 N 0.00792 0.73147 0.77711
 N161 N 0.00340 0.77975 0.79358
 C162 C -0.02429 0.88171 0.80317
 C163 C -0.01739 0.93279 0.81707
 C164 C -0.01021 0.67652 0.73467
 C165 C -0.00590 0.63427 0.71921
   
