data_POSCAR
  _audit_creation_date              2014-09-24
  _audit_creation_method            'ToBaCCo'
  _symmetry_space_group_name_H-M    'P1'
  _symmetry_Int_Tables_number       1
  _symmetry_cell_setting            triclinic
  loop_
  _symmetry_equiv_pos_as_xyz
 x,y,z
_cell_length_a 54.1432
_cell_length_b 53.2941
_cell_length_c 53.8932
_cell_angle_alpha 90.019800
_cell_angle_beta 89.836300
_cell_angle_gamma 89.813700
loop_
  _atom_site_label
  _atom_site_type_symbol
  _atom_site_fract_x
  _atom_site_fract_y
  _atom_site_fract_z
N1 N 0.59598 0.66402 0.61389
 N2 N 0.58601 0.65337 0.63346
 C3 C 0.56587 0.66659 0.64032
 C4 C 0.56300 0.68661 0.62414
 C5 C 0.58253 0.68430 0.60760
 H6 H 0.55408 0.66186 0.65582
 H7 H 0.58684 0.69655 0.59223
 Cu8 Cu 0.60030 0.62330 0.64813
 Cu9 Cu 0.62568 0.65087 0.59805
 Cu10 Cu 0.65226 0.59802 0.62441
 N11 N 0.61587 0.59403 0.66306
 N12 N 0.63614 0.58425 0.65371
 C13 C 0.64296 0.56436 0.66747
 C14 C 0.62603 0.56135 0.68668
 C15 C 0.60909 0.58068 0.68316
 H16 H 0.65911 0.55305 0.66363
 H17 H 0.59300 0.58486 0.69431
 N18 N 0.66582 0.61465 0.59472
 N19 N 0.65573 0.63479 0.58471
 C20 C 0.66918 0.64165 0.56480
 C21 C 0.68873 0.62502 0.56206
 C22 C 0.68594 0.60816 0.58142
 H23 H 0.66490 0.65746 0.55302
 H24 H 0.69780 0.59240 0.58565
 H25 H 0.62107 0.61401 0.60894
 H26 H 0.63994 0.63441 0.62969
 N27 N 0.90406 0.33458 0.11382
 N28 N 0.91374 0.34488 0.13367
 C29 C 0.93374 0.33153 0.14051
 C30 C 0.93689 0.31166 0.12405
 C31 C 0.91754 0.31435 0.10735
 H32 H 0.94509 0.33606 0.15632
 H33 H 0.91340 0.30258 0.09159
 Cu34 Cu 0.89918 0.37475 0.14857
 Cu35 Cu 0.87469 0.34812 0.09780
 Cu36 Cu 0.84851 0.40141 0.12400
 N37 N 0.88429 0.40462 0.16314
 N38 N 0.86451 0.41496 0.15340
 C39 C 0.85807 0.43520 0.16690
 C40 C 0.87470 0.43777 0.18624
 C41 C 0.89109 0.41795 0.18320
 H42 H 0.84230 0.44701 0.16298
 H43 H 0.90691 0.41366 0.19462
 N44 N 0.83505 0.38491 0.09425
 N45 N 0.84498 0.36461 0.08431
 C46 C 0.83162 0.35787 0.06436
 C47 C 0.81230 0.37474 0.06153
 C48 C 0.81513 0.39162 0.08087
 H49 H 0.83579 0.34196 0.05264
 H50 H 0.80341 0.40752 0.08505
 H51 H 0.87973 0.38482 0.10905
 H52 H 0.85982 0.36472 0.12915
 N53 N 0.40389 0.16590 -0.11366
 N54 N 0.41311 0.15614 -0.13409
 C55 C 0.43331 0.16920 -0.14078
 C56 C 0.43697 0.18825 -0.12365
 C57 C 0.41785 0.18550 -0.10670
 H58 H 0.44436 0.16528 -0.15706
 H59 H 0.41428 0.19687 -0.09047
 Cu60 Cu 0.39796 0.12713 -0.14970
 Cu61 Cu 0.37405 0.15301 -0.09798
 Cu62 Cu 0.34292 0.10625 -0.12980
 N63 N 0.38223 0.09814 -0.16479
 N64 N 0.36075 0.09002 -0.15682
 C65 C 0.35394 0.07003 -0.17040
 C66 C 0.37218 0.06523 -0.18790
 C67 C 0.38987 0.08352 -0.18372
 H68 H 0.33684 0.05996 -0.16778
 H69 H 0.40708 0.08594 -0.19360
 N70 N 0.33129 0.12016 -0.09796
 N71 N 0.34336 0.13760 -0.08561
 C72 C 0.33100 0.14278 -0.06450
 C73 C 0.31013 0.12782 -0.06340
 C74 C 0.31101 0.11369 -0.08498
 H75 H 0.33686 0.15637 -0.05088
 H76 H 0.29785 0.09973 -0.09090
 H77 H 0.37508 0.11672 -0.11232
 H78 H 0.35938 0.14170 -0.13089
 N79 N 0.09683 0.83389 0.38653
 N80 N 0.08760 0.84376 0.36625
 C81 C 0.06757 0.83056 0.35944
 C82 C 0.06396 0.81122 0.37638
 C83 C 0.08305 0.81408 0.39333
 H84 H 0.05651 0.83483 0.34334
 H85 H 0.08681 0.80271 0.40948
 Cu86 Cu 0.10259 0.87296 0.35069
 Cu87 Cu 0.12603 0.84744 0.40268
 Cu88 Cu 0.15255 0.90011 0.37608
 N89 N 0.11731 0.90296 0.33643
 N90 N 0.13684 0.91344 0.34641
 C91 C 0.14319 0.93371 0.33298
 C92 C 0.12673 0.93619 0.31347
 C93 C 0.11054 0.91628 0.31632
 H94 H 0.15854 0.94585 0.33730
 H95 H 0.09509 0.91170 0.30455
 N96 N 0.16574 0.88387 0.40611
 N97 N 0.15562 0.86386 0.41626
 C98 C 0.16879 0.85728 0.43641
 C99 C 0.18819 0.87393 0.43913
 C100 C 0.18561 0.89053 0.41953
 H101 H 0.16467 0.84136 0.44810
 H102 H 0.19724 0.90643 0.41541
 H103 H 0.12096 0.88389 0.39048
 H104 H 0.14153 0.86333 0.37134
 C105 C 0.11367 0.14576 0.11464
 C106 C 0.13497 0.13518 0.10403
 C107 C 0.14569 0.11411 0.11460
 C108 C 0.13523 0.10337 0.13592
 C109 C 0.11419 0.11383 0.14641
 C110 C 0.10335 0.13515 0.13571
 C111 C 0.09934 0.16617 0.10836
 N112 N 0.08073 0.16805 0.12510
 C113 C 0.08289 0.14928 0.14190
 C114 C 0.10817 0.09958 0.16684
 N115 N 0.12505 0.08088 0.16885
 C116 C 0.14168 0.08292 0.15014
 C117 C 0.16605 0.10797 0.10044
 N118 N 0.16777 0.12480 0.08171
 C119 C 0.14897 0.14152 0.08362
 H120 H 0.10220 0.17872 0.09282
 H121 H 0.07052 0.14619 0.15741
 H122 H 0.09272 0.10253 0.17932
 H123 H 0.15724 0.07046 0.14716
 H124 H 0.17866 0.09247 0.10350
 H125 H 0.14578 0.15707 0.07110
 C126 C 0.38491 0.85288 0.61583
 C127 C 0.36362 0.86348 0.60533
 C128 C 0.35297 0.88461 0.61591
 C129 C 0.36347 0.89540 0.63713
 C130 C 0.38451 0.88494 0.64750
 C131 C 0.39529 0.86355 0.63679
 C132 C 0.39922 0.83245 0.60947
 N133 N 0.41787 0.83062 0.62607
 C134 C 0.41575 0.84943 0.64285
 C135 C 0.39062 0.89930 0.66782
 N136 N 0.37381 0.91806 0.66985
 C137 C 0.35713 0.91596 0.65129
 C138 C 0.33265 0.89080 0.60185
 N139 N 0.33087 0.87394 0.58315
 C140 C 0.34961 0.85715 0.58499
 H141 H 0.39634 0.81987 0.59397
 H142 H 0.42817 0.85257 0.65824
 H143 H 0.40611 0.89638 0.68017
 H144 H 0.34162 0.92847 0.64834
 H145 H 0.32012 0.90638 0.60493
 H146 H 0.35277 0.84157 0.57246
 C147 C 0.88676 0.64679 0.38581
 C148 C 0.86548 0.63621 0.39631
 C149 C 0.85488 0.61522 0.38558
 C150 C 0.86542 0.60457 0.36423
 C151 C 0.88645 0.61502 0.35386
 C152 C 0.89719 0.63626 0.36471
 C153 C 0.90102 0.66712 0.39225
 N154 N 0.91967 0.66902 0.37557
 C155 C 0.91761 0.65035 0.35865
 C156 C 0.89258 0.60084 0.33336
 N157 N 0.87578 0.58220 0.33122
 C158 C 0.85910 0.58420 0.34989
 C159 C 0.83452 0.60904 0.39965
 N160 N 0.83267 0.62577 0.41849
 C161 C 0.85140 0.64246 0.41673
 H162 H 0.89809 0.67960 0.40786
 H163 H 0.93003 0.64730 0.34316
 H164 H 0.90806 0.60381 0.32095
 H165 H 0.84358 0.57176 0.35277
 H166 H 0.82199 0.59358 0.39647
 H167 H 0.85450 0.65793 0.42937
 C168 C 0.61499 0.35352 -0.11435
 C169 C 0.63621 0.36416 -0.10390
 C170 C 0.64676 0.38522 -0.11458
 C171 C 0.63621 0.39590 -0.13586
 C172 C 0.61524 0.38539 -0.14619
 C173 C 0.60457 0.36408 -0.13537
 C174 C 0.60080 0.33312 -0.10793
 N175 N 0.58219 0.33120 -0.12454
 C176 C 0.58421 0.34993 -0.14140
 C177 C 0.60909 0.39959 -0.16661
 N178 N 0.62583 0.41830 -0.16876
 C179 C 0.64248 0.41633 -0.15016
 C180 C 0.66707 0.39143 -0.10057
 N181 N 0.66895 0.37465 -0.08180
 C182 C 0.65028 0.35790 -0.08355
 H183 H 0.60375 0.32061 -0.09237
 H184 H 0.57179 0.35298 -0.15683
 H185 H 0.59366 0.39659 -0.17899
 H186 H 0.65796 0.42881 -0.14731
 H187 H 0.67955 0.40695 -0.10374
 H188 H 0.64722 0.34237 -0.07097
 C189 C -0.00758 0.27442 0.14278
 C190 C -0.00726 0.25573 0.12460
 C191 C -0.02544 0.25554 0.10625
 C192 C -0.04388 0.27395 0.10603
 C193 C -0.04450 0.29301 0.12425
 C194 C -0.02598 0.29289 0.14266
 C195 C 0.01172 0.23676 0.12476
 C196 C 0.02763 0.22089 0.12487
 C197 C 0.04627 0.20232 0.12497
 C198 C 0.06220 0.18646 0.12504
 H199 H 0.00643 0.27475 0.15710
 H200 H -0.02536 0.24113 0.09206
 H201 H -0.05752 0.27303 0.09147
 H202 H -0.02545 0.30695 0.15709
 C203 C 0.50880 0.72688 0.64515
 C204 C 0.50610 0.74319 0.62500
 C205 C 0.52197 0.74105 0.60458
 C206 C 0.54048 0.72269 0.60428
 C207 C 0.54337 0.70615 0.62445
 C208 C 0.52728 0.70850 0.64490
 C209 C 0.48705 0.76208 0.62526
 C210 C 0.47109 0.77790 0.62547
 C211 C 0.45239 0.79642 0.62570
 C212 C 0.43643 0.81223 0.62587
 H213 H 0.49663 0.72840 0.66108
 H214 H 0.52002 0.75355 0.58885
 H215 H 0.55231 0.72141 0.58814
 H216 H 0.52898 0.69631 0.66085
 C217 C 1.00848 0.77427 0.35762
 C218 C 1.00771 0.75608 0.37626
 C219 C 1.02553 0.75615 0.39496
 C220 C 1.04409 0.77433 0.39506
 C221 C 1.04519 0.79286 0.37636
 C222 C 1.02700 0.79249 0.35762
 C223 C 0.98866 0.73730 0.37617
 C224 C 0.97272 0.72156 0.37607
 C225 C 0.95407 0.70312 0.37592
 C226 C 0.93816 0.68736 0.37577
 H227 H 0.99475 0.77438 0.34302
 H228 H 1.02510 0.74213 0.40951
 H229 H 1.05746 0.77362 0.40989
 H230 H 1.02684 0.80615 0.34281
 C231 C 0.47411 0.24636 -0.10753
 C232 C 0.49425 0.24404 -0.12369
 C233 C 0.49575 0.22349 -0.13978
 C234 C 0.47718 0.20533 -0.13976
 C235 C 0.45678 0.20746 -0.12361
 C236 C 0.45551 0.22822 -0.10746
 C237 C 0.51332 0.26280 -0.12382
 C238 C 0.52925 0.27854 -0.12396
 C239 C 0.54787 0.29701 -0.12414
 C240 C 0.56375 0.31281 -0.12432
 H241 H 0.47274 0.26222 -0.09502
 H242 H 0.51129 0.22149 -0.15234
 H243 H 0.47897 0.18959 -0.15231
 H244 H 0.44009 0.23067 -0.09489
 C245 C 0.10592 -0.02316 0.25948
 C246 C 0.12605 -0.00701 0.25673
 C247 C 0.14640 -0.00938 0.27249
 C248 C 0.14664 -0.02782 0.29094
 C249 C 0.12649 -0.04420 0.29389
 C250 C 0.10611 -0.04162 0.27790
 C251 C 0.12583 0.01197 0.23774
 C252 C 0.12565 0.02787 0.22184
 C253 C 0.12544 0.04648 0.20321
 C254 C 0.12526 0.06238 0.18732
 H255 H 0.09004 -0.02147 0.24739
 H256 H 0.16211 0.00300 0.27050
 H257 H 0.16273 -0.02927 0.30270
 H258 H 0.09018 -0.05368 0.27965
 C259 C 0.64471 0.50607 -0.27494
 C260 C 0.62604 0.50585 -0.25698
 C261 C 0.60739 0.52402 -0.25766
 C262 C 0.60734 0.54235 -0.27620
 C263 C 0.62605 0.54287 -0.29453
 C264 C 0.64476 0.52436 -0.29353
 C265 C 0.62602 0.48697 -0.23789
 C266 C 0.62599 0.47115 -0.22192
 C267 C 0.62595 0.45260 -0.20323
 C268 C 0.62590 0.43675 -0.18729
 H269 H 0.65926 0.49207 -0.27459
 H270 H 0.59282 0.52401 -0.24382
 H271 H 0.59254 0.55599 -0.27597
 H272 H 0.65956 0.52376 -0.30701
 C273 C 0.35556 1.00664 0.77569
 C274 C 0.37315 1.00712 0.75664
 C275 C 0.39048 1.02651 0.75573
 C276 C 0.39022 1.04537 0.77376
 C277 C 0.37258 1.04512 0.79301
 C278 C 0.35525 1.02548 0.79375
 C279 C 0.37335 0.98780 0.73797
 C280 C 0.37349 0.97166 0.72230
 C281 C 0.37363 0.95280 0.70391
 C282 C 0.37372 0.93672 0.68817
 H283 H 0.34208 0.99169 0.77659
 H284 H 0.40416 1.02709 0.74102
 H285 H 0.40373 1.06020 0.77240
 H286 H 0.34152 1.02447 0.80831
 C287 C 0.89052 0.47344 0.24512
 C288 C 0.87522 0.49453 0.24306
 C289 C 0.85976 0.49711 0.22247
 C290 C 0.85958 0.47869 0.20399
 C291 C 0.87489 0.45737 0.20585
 C292 C 0.89038 0.45499 0.22667
 C293 C 0.87536 0.51349 0.26209
 C294 C 0.87548 0.52936 0.27803
 C295 C 0.87559 0.54793 0.29670
 C296 C 0.87569 0.56378 0.31266
 H297 H 0.90254 0.47122 0.26102
 H298 H 0.84786 0.51339 0.22067
 H299 H 0.84754 0.48135 0.18822
 H300 H 0.90229 0.43883 0.22892
 C301 C 0.27219 0.14526 -0.00650
 C302 C 0.25460 0.12610 -0.00614
 C303 C 0.25517 0.10745 -0.02439
 C304 C 0.27323 0.10795 -0.04298
 C305 C 0.29102 0.12717 -0.04358
 C306 C 0.29028 0.14581 -0.02506
 C307 C 0.23590 0.12567 0.01290
 C308 C 0.22022 0.12537 0.02881
 C309 C 0.20183 0.12510 0.04742
 C310 C 0.18609 0.12494 0.06328
 H311 H 0.27189 0.15983 0.00752
 H312 H 0.24165 0.09251 -0.02427
 H313 H 0.27325 0.09317 -0.05673
 H314 H 0.30347 0.16100 -0.02494
 C315 C 0.74253 0.60463 0.52129
 C316 C 0.74531 0.62550 0.50581
 C317 C 0.72965 0.64622 0.50870
 C318 C 0.71126 0.64610 0.52696
 C319 C 0.70827 0.62520 0.54266
 C320 C 0.72417 0.60445 0.53958
 C321 C 0.76420 0.62562 0.48697
 C322 C 0.78002 0.62570 0.47118
 C323 C 0.79852 0.62576 0.45269
 C324 C 0.81432 0.62578 0.43688
 H325 H 0.75453 0.58845 0.51919
 H326 H 0.73166 0.66251 0.49684
 H327 H 0.69958 0.66249 0.52883
 H328 H 0.72238 0.58795 0.55110
 C329 C 0.75898 0.39558 0.02066
 C330 C 0.75606 0.37467 0.00527
 C331 C 0.77148 0.35378 0.00823
 C332 C 0.78977 0.35378 0.02649
 C333 C 0.79289 0.37472 0.04211
 C334 C 0.77725 0.39563 0.03895
 C335 C 0.73724 0.37463 -0.01354
 C336 C 0.72148 0.37462 -0.02930
 C337 C 0.70303 0.37461 -0.04774
 C338 C 0.68727 0.37462 -0.06349
 H339 H 0.74717 0.41187 0.01850
 H340 H 0.76935 0.33746 -0.00357
 H341 H 0.80125 0.33726 0.02842
 H342 H 0.77915 0.41216 0.05041
 C343 C 0.24671 0.88918 0.47476
 C344 C 0.24412 0.87393 0.49572
 C345 C 0.22327 0.85869 0.49823
 C346 C 0.20509 0.85867 0.47986
 C347 C 0.20748 0.87394 0.45868
 C348 C 0.22855 0.88921 0.45637
 C349 C 0.26284 0.87391 0.51463
 C350 C 0.27853 0.87390 0.53045
 C351 C 0.29691 0.87390 0.54897
 C352 C 0.31261 0.87391 0.56477
 H353 H 0.26280 0.90103 0.47261
 H354 H 0.22106 0.84683 0.51441
 H355 H 0.18911 0.84682 0.48246
 H356 H 0.23121 0.90106 0.44031
   
