data_POSCAR
  _audit_creation_date              2014-09-24
  _audit_creation_method            'ToBaCCo'
  _symmetry_space_group_name_H-M    'P1'
  _symmetry_Int_Tables_number       1
  _symmetry_cell_setting            triclinic
  loop_
  _symmetry_equiv_pos_as_xyz
 x,y,z
_cell_length_a 56.4279
_cell_length_b 56.2752
_cell_length_c 56.5122
_cell_angle_alpha 94.427900
_cell_angle_beta 94.429600
_cell_angle_gamma 93.093600
loop_
  _atom_site_label
  _atom_site_type_symbol
  _atom_site_fract_x
  _atom_site_fract_y
  _atom_site_fract_z
C1 C 0.27281 0.47955 1.00932
 C2 C 0.26192 0.50038 1.00357
 C3 C 0.27594 0.52056 0.99881
 C4 C 0.30105 0.52044 1.00020
 C5 C 0.31148 0.49905 1.00568
 C6 C 0.29762 0.47868 1.01022
 C7 C 0.23580 0.50130 1.00315
 C8 C 0.22416 0.49698 1.02359
 C9 C 0.19920 0.49785 1.02371
 C10 C 0.18628 0.50287 1.00241
 C11 C 0.19775 0.50712 0.98181
 C12 C 0.22257 0.50645 0.98238
 H13 H 0.26193 0.46404 1.01305
 H14 H 0.26702 0.53666 0.99544
 H15 H 0.23483 0.49235 1.03912
 H16 H 0.23164 0.50984 0.96664
 H17 H 0.33047 0.49754 1.00521
 H18 H 0.16721 0.50419 1.00174
 C19 C 0.72321 0.48034 0.00458
 C20 C 0.73655 0.50016 -0.00199
 C21 C 0.72500 0.52041 -0.00847
 C22 C 0.70018 0.52109 -0.00820
 C23 C 0.68700 0.50101 -0.00179
 C24 C 0.69833 0.48050 0.00452
 C25 C 0.76266 0.49972 -0.00197
 C26 C 0.77374 0.50228 -0.02308
 C27 C 0.79867 0.50121 -0.02359
 C28 C 0.81211 0.49849 -0.00190
 C29 C 0.80122 0.49641 0.01942
 C30 C 0.77639 0.49659 0.01914
 H31 H 0.73226 0.46478 0.00969
 H32 H 0.73540 0.53565 -0.01361
 H33 H 0.76248 0.50368 -0.03924
 H34 H 0.76775 0.49509 0.03548
 H35 H 0.66784 0.50136 -0.00169
 H36 H 0.83132 0.49869 -0.00116
 C37 C 0.02287 0.22590 0.49393
 C38 C 0.00230 0.23769 0.49879
 C39 C -0.01840 0.22447 0.50339
 C40 C -0.01879 0.19945 0.50270
 C41 C 0.00207 0.18792 0.49816
 C42 C 0.02299 0.20096 0.49380
 C43 C 0.00230 0.26386 0.49842
 C44 C 0.00623 0.27456 0.47734
 C45 C 0.00669 0.29960 0.47655
 C46 C 0.00358 0.31353 0.49787
 C47 C -0.00003 0.30301 0.51916
 C48 C -0.00105 0.27808 0.51919
 H49 H 0.03876 0.23619 0.49022
 H50 H -0.03439 0.23363 0.50664
 H51 H 0.00957 0.26307 0.46185
 H52 H -0.00363 0.26971 0.53551
 H53 H 0.00213 0.16870 0.49853
 H54 H 0.00262 0.33267 0.49795
 C55 C 1.01936 0.77762 0.49725
 C56 C 0.99948 0.76368 0.50280
 C57 C 0.97874 0.77465 0.50852
 C58 C 0.97762 0.79946 0.50850
 C59 C 0.99769 0.81325 0.50310
 C60 C 1.01902 0.80274 0.49770
 C61 C 1.00065 0.73756 0.50314
 C62 C 0.99710 0.72651 0.52411
 C63 C 0.99925 0.70170 0.52516
 C64 C 1.00419 0.68827 0.50411
 C65 C 1.00753 0.69911 0.48295
 C66 C 1.00598 0.72386 0.48270
 H67 H 1.03542 0.76866 0.49401
 H68 H 0.96348 0.76382 0.51292
 H69 H 0.99410 0.73779 0.53985
 H70 H 1.00886 0.73252 0.46660
 H71 H 0.99598 0.83218 0.50193
 H72 H 1.00423 0.66902 0.50356
 C73 C 0.50048 0.01749 0.22568
 C74 C 0.50464 -0.00389 0.23609
 C75 C 0.50855 -0.02451 0.22167
 C76 C 0.50793 -0.02399 0.19683
 C77 C 0.50412 -0.00236 0.18668
 C78 C 0.50039 0.01847 0.20092
 C79 C 0.50401 -0.00494 0.26200
 C80 C 0.48259 -0.00199 0.27261
 C81 C 0.48156 -0.00369 0.29717
 C82 C 0.50247 -0.00770 0.31110
 C83 C 0.52412 -0.01048 0.30074
 C84 C 0.52467 -0.00932 0.27604
 H85 H 0.49720 0.03329 0.23689
 H86 H 0.51116 -0.04111 0.22978
 H87 H 0.46661 0.00088 0.26155
 H88 H 0.54112 -0.01175 0.26770
 H89 H 0.50446 -0.00166 0.16761
 H90 H 0.50201 -0.00805 0.33019
 C91 C 0.49123 0.02477 0.77574
 C92 C 0.49498 0.00333 0.76272
 C93 C 0.49660 -0.01779 0.77421
 C94 C 0.49415 -0.01795 0.79890
 C95 C 0.49074 0.00403 0.81169
 C96 C 0.48929 0.02533 0.80035
 C97 C 0.49665 0.00281 0.73683
 C98 C 0.51863 -0.00012 0.72733
 C99 C 0.52026 -0.00114 0.70261
 C100 C 0.49952 0.00049 0.68753
 C101 C 0.47734 0.00316 0.69681
 C102 C 0.47611 0.00463 0.72160
 H103 H 0.48982 0.04098 0.76667
 H104 H 0.49850 -0.03416 0.76335
 H105 H 0.53439 -0.00171 0.73921
 H106 H 0.45913 0.00647 0.72908
 H107 H 0.49050 0.00512 0.83086
 H108 H 0.50073 0.00022 0.66847
 C109 C 0.28438 0.02822 0.44871
 H110 H 0.28555 0.04225 0.46303
 C111 C 0.30057 0.02859 0.43126
 H112 H 0.31424 0.04299 0.43237
 C113 C 0.26615 -0.00849 0.43103
 H114 H 0.25315 -0.02324 0.43138
 C115 C 0.28197 -0.00881 0.41319
 H116 H 0.28058 -0.02361 0.39964
 N117 N 0.26776 0.00977 0.44842
 C118 C 0.21501 0.03543 0.49503
 H119 H 0.21584 0.02192 0.50764
 C120 C 0.19830 0.05270 0.49674
 H121 H 0.18659 0.05262 0.51105
 C122 C 0.22908 0.05151 0.46082
 H123 H 0.24070 0.05055 0.44649
 C124 C 0.21256 0.06915 0.46185
 H125 H 0.21166 0.08168 0.44825
 Zn126 Zn 0.24939 0.00885 0.47496
 N127 N 0.22989 0.03505 0.47723
 C128 C 0.27212 0.02687 0.52015
 N129 N 0.27115 0.00922 0.50218
 C130 C 0.28678 -0.00832 0.50234
 C131 C 0.30418 -0.00872 0.52121
 C132 C 0.28927 0.02716 0.53941
 C133 C 0.21135 -0.02137 0.45406
 C134 C 0.19391 -0.04011 0.45253
 C135 C 0.21238 -0.05363 0.48868
 C136 C 0.22951 -0.03466 0.48949
 N137 N 0.22863 -0.01894 0.47238
 H138 H 0.25993 0.04099 0.51940
 H139 H 0.28578 -0.02197 0.48766
 H140 H 0.31630 -0.02300 0.52109
 H141 H 0.29008 0.04156 0.55335
 H142 H 0.21084 -0.00838 0.44091
 H143 H 0.18025 -0.04165 0.43786
 H144 H 0.21291 -0.06544 0.50294
 H145 H 0.24294 -0.03205 0.50429
 C146 C 0.19665 0.06965 0.47981
 C147 C 0.29975 0.00970 0.41339
 C148 C 0.19406 -0.05635 0.47020
 C149 C 0.30568 0.00926 0.54003
 C150 C 0.71650 0.00977 0.54957
 H151 H 0.71627 0.02250 0.53617
 C152 C 0.70041 0.01109 0.56714
 H153 H 0.68777 0.02489 0.56704
 C154 C 0.73234 -0.02457 0.56495
 H155 H 0.74442 -0.03878 0.56374
 C156 C 0.71658 -0.02390 0.58284
 H157 H 0.71708 -0.03737 0.59552
 N158 N 0.73200 -0.00790 0.54876
 C159 C 0.78883 0.01591 0.50663
 H160 H 0.78819 0.00057 0.49376
 C161 C 0.80636 0.03425 0.50625
 H162 H 0.81897 0.03305 0.49277
 C163 C 0.77314 0.03585 0.53990
 H164 H 0.76044 0.03614 0.55327
 C165 C 0.79039 0.05472 0.54011
 H166 H 0.79080 0.06945 0.55368
 Zn167 Zn 0.75125 -0.01011 0.52279
 N168 N 0.77268 0.01699 0.52326
 C169 C 0.73204 0.00379 0.47839
 N170 N 0.73060 -0.01282 0.49456
 C171 C 0.71333 -0.03085 0.49177
 C172 C 0.69655 -0.03266 0.47210
 C173 C 0.71566 0.00263 0.45846
 C174 C 0.78690 -0.03600 0.54308
 C175 C 0.80331 -0.05359 0.54442
 C176 C 0.78511 -0.07254 0.50711
 C177 C 0.76894 -0.05458 0.50651
 N178 N 0.77023 -0.03671 0.52430
 H179 H 0.74558 0.01825 0.48112
 H180 H 0.71234 -0.04358 0.50512
 H181 H 0.68259 -0.04680 0.47052
 H182 H 0.71715 0.01600 0.44578
 H183 H 0.78771 -0.02140 0.55679
 H184 H 0.81646 -0.05261 0.55952
 H185 H 0.78435 -0.08616 0.49241
 H186 H 0.75593 -0.05450 0.49146
 C187 C 0.80744 0.05390 0.52325
 C188 C 0.70015 -0.00604 0.58394
 C189 C 0.80283 -0.07197 0.52608
 C190 C 0.69747 -0.01564 0.45521
 C191 C 0.46874 0.21548 1.04590
 H192 H 0.45458 0.21584 1.03192
 C193 C 0.46756 0.19838 1.06243
 H194 H 0.45217 0.18588 1.06129
 C195 C 0.50620 0.23117 1.06398
 H196 H 0.52152 0.24356 1.06409
 C197 C 0.50578 0.21430 1.08086
 H198 H 0.52087 0.21392 1.09385
 N199 N 0.48787 0.23138 1.04689
 C200 C 0.46325 0.28836 1.00496
 H201 H 0.47664 0.28835 0.99224
 C202 C 0.44606 0.30524 1.00447
 H203 H 0.44610 0.31794 0.99103
 C204 C 0.44725 0.27186 1.03807
 H205 H 0.44817 0.25921 1.05149
 C206 C 0.42970 0.28848 1.03824
 H207 H 0.41721 0.28840 1.05185
 Zn208 Zn 0.48911 0.25173 1.02187
 N209 N 0.46356 0.27211 1.02154
 C210 C 0.47016 0.23274 0.97552
 N211 N 0.48780 0.23181 0.99319
 C212 C 0.50471 0.21557 0.99152
 C213 C 0.50450 0.19961 0.97134
 C214 C 0.46926 0.21706 0.95500
 C215 C 0.52055 0.28779 1.04487
 C216 C 0.53965 0.30486 1.04722
 C217 C 0.55205 0.28852 1.00967
 C218 C 0.53272 0.27174 1.00804
 N219 N 0.51737 0.27177 1.02545
 H220 H 0.45658 0.24541 0.97739
 H221 H 0.51826 0.21494 1.00604
 H222 H 0.51789 0.18657 0.97057
 H223 H 0.45519 0.21814 0.94104
 H224 H 0.50786 0.28763 1.05827
 H225 H 0.54177 0.31757 1.06273
 H226 H 0.56356 0.28874 0.99521
 H227 H 0.52953 0.25933 0.99242
 C228 C 0.42911 0.30561 1.02142
 C229 C 0.48641 0.19739 1.08002
 C230 C 0.55551 0.30561 1.02928
 C231 C 0.48659 0.20018 0.95275
 C232 C 0.49002 0.78372 -0.04637
 H233 H 0.47774 0.78233 -0.03269
 C234 C 0.48751 0.80113 -0.06252
 H235 H 0.47292 0.81280 -0.06141
 C236 C 0.52420 0.77040 -0.06402
 H237 H 0.53886 0.75882 -0.06411
 C238 C 0.52239 0.78762 -0.08052
 H239 H 0.53572 0.78907 -0.09320
 N240 N 0.50816 0.76884 -0.04735
 C241 C 0.48667 0.70902 -0.00780
 H242 H 0.50230 0.70920 0.00458
 C243 C 0.46843 0.69136 -0.00753
 H244 H 0.47002 0.67818 0.00540
 C245 C 0.46578 0.72612 -0.03965
 H246 H 0.46505 0.73943 -0.05243
 C247 C 0.44702 0.70876 -0.03995
 H248 H 0.43193 0.70890 -0.05299
 Zn249 Zn 0.51170 0.74799 -0.02282
 N250 N 0.48503 0.72599 -0.02360
 C251 C 0.49911 0.76465 0.02302
 N252 N 0.51499 0.76727 0.00635
 C253 C 0.53251 0.78507 0.00920
 C254 C 0.53435 0.80134 0.02931
 C255 C 0.50035 0.78046 0.04343
 C256 C 0.53780 0.71407 -0.04599
 C257 C 0.55532 0.69768 -0.04833
 C258 C 0.57413 0.71374 -0.01015
 C259 C 0.55626 0.72991 -0.00858
 N260 N 0.53844 0.72959 -0.02626
 H261 H 0.48504 0.75070 0.02027
 H262 H 0.54465 0.78699 -0.00453
 H263 H 0.54791 0.81586 0.03082
 H264 H 0.48747 0.77811 0.05642
 H265 H 0.52321 0.71398 -0.05960
 H266 H 0.55434 0.68531 -0.06407
 H267 H 0.58760 0.71360 0.00455
 H268 H 0.55610 0.74200 0.00721
 C269 C 0.44830 0.69100 -0.02382
 C270 C 0.50402 0.80348 -0.07969
 C271 C 0.57354 0.69702 -0.03002
 C272 C 0.51791 0.79935 0.04662
 C273 C 1.04118 0.46515 0.21396
 H274 H 1.02696 0.45129 0.21233
 C275 C 1.05858 0.46482 0.19769
 H276 H 1.05752 0.45066 0.18348
 C277 C 1.05882 0.50123 0.23366
 H278 H 1.05854 0.51568 0.24735
 C279 C 1.07658 0.50161 0.21776
 H280 H 1.09011 0.51617 0.21973
 N281 N 1.04155 0.48320 0.23144
 C282 C 0.99744 0.45590 0.28446
 H283 H 0.98464 0.46952 0.28514
 C284 C 0.99662 0.43777 0.29992
 H285 H 0.98317 0.43767 0.31257
 C286 C 1.03137 0.44044 0.26798
 H287 H 1.04515 0.44184 0.25583
 C288 C 1.03124 0.42200 0.28319
 H289 H 1.04475 0.40908 0.28229
 Zn290 Zn 1.01558 0.48367 0.25067
 N291 N 1.01463 0.45693 0.26893
 C292 C 0.97000 0.46616 0.22887
 N293 N 0.98770 0.48369 0.22984
 C294 C 0.98670 0.50148 0.21490
 C295 C 0.96715 0.50237 0.19840
 C296 C 0.95010 0.46632 0.21255
 C297 C 1.03687 0.51323 0.28939
 C298 C 1.03893 0.53220 0.30700
 C299 C 1.00254 0.54660 0.28955
 C300 C 1.00117 0.52735 0.27226
 N301 N 1.01823 0.51116 0.27247
 H302 H 0.97137 0.45187 0.24052
 H303 H 1.00126 0.51491 0.21574
 H304 H 0.96689 0.51650 0.18643
 H305 H 0.93609 0.45233 0.21211
 H306 H 1.05000 0.49991 0.28933
 H307 H 1.05395 0.53356 0.32027
 H308 H 0.98847 0.55894 0.28943
 H309 H 0.98614 0.52507 0.25910
 C310 C 1.01381 0.42062 0.29958
 C311 C 1.07645 0.48338 0.19930
 C312 C 1.02151 0.54911 0.30736
 C313 C 0.94850 0.48463 0.19704
 C314 C -0.04440 0.49830 0.78396
 H315 H -0.03079 0.48548 0.78375
 C316 C -0.06227 0.49655 0.79956
 H317 H -0.06221 0.48233 0.81143
 C318 C -0.06005 0.53321 0.76962
 H319 H -0.05882 0.54772 0.75824
 C320 C -0.07824 0.53216 0.78502
 H321 H -0.09116 0.54571 0.78502
 N322 N -0.04361 0.51640 0.76939
 C323 C -0.00080 0.49235 0.71236
 H324 H 0.01232 0.50724 0.71364
 C325 C -0.00030 0.47393 0.69448
 H326 H 0.01352 0.47459 0.68224
 C327 C -0.03473 0.47355 0.72689
 H328 H -0.04837 0.47371 0.73928
 C329 C -0.03484 0.45465 0.70928
 H330 H -0.04864 0.44039 0.70831
 Zn331 Zn -0.01731 0.51850 0.75074
 N332 N -0.01775 0.49182 0.72817
 C333 C 0.02677 0.50293 0.76976
 N334 N 0.01047 0.51975 0.77190
 C335 C 0.01277 0.53709 0.79021
 C336 C 0.03213 0.53803 0.80728
 C337 C 0.04640 0.50321 0.78643
 C338 C -0.03592 0.54640 0.71595
 C339 C -0.03601 0.56461 0.70052
 C340 C 0.00070 0.58167 0.72139
 C341 C 0.00011 0.56311 0.73642
 N342 N -0.01794 0.54585 0.73332
 H343 H 0.02441 0.48901 0.75538
 H344 H -0.00070 0.54996 0.79173
 H345 H 0.03333 0.55164 0.82202
 H346 H 0.05921 0.48971 0.78437
 H347 H -0.04979 0.53218 0.71361
 H348 H -0.05002 0.56417 0.68626
 H349 H 0.01535 0.59510 0.72396
 H350 H 0.01447 0.56213 0.75002
 C351 C -0.01753 0.45478 0.69271
 C352 C -0.07942 0.51372 0.80037
 C353 C -0.01731 0.58236 0.70288
 C354 C 0.04919 0.52083 0.80561
 C355 C 0.08579 0.16266 0.48392
 C356 C 0.08748 0.18455 0.49769
 C357 C 0.06717 0.19739 0.50040
 C358 C 0.04490 0.18839 0.48947
 C359 C 0.04354 0.16667 0.47518
 C360 C 0.06383 0.15391 0.47246
 C361 C 0.10612 0.14837 0.48262
 C362 C 0.12254 0.13557 0.48182
 C363 C 0.14135 0.11931 0.48121
 C364 C 0.16420 0.12690 0.47577
 C365 C 0.18228 0.11081 0.47528
 C366 C 0.17769 0.08696 0.48031
 C367 C 0.15463 0.07956 0.48567
 C368 C 0.13664 0.09562 0.48613
 H369 H 0.10436 0.19141 0.50675
 H370 H 0.06872 0.21394 0.51169
 H371 H 0.02671 0.15946 0.46626
 H372 H 0.06231 0.13697 0.46179
 H373 H 0.16804 0.14522 0.47197
 H374 H 0.19989 0.11707 0.47127
 H375 H 0.15039 0.06123 0.48918
 H376 H 0.11900 0.08953 0.49027
 C377 C 0.66333 0.58391 -0.02266
 C378 C 0.68536 0.58602 -0.00924
 C379 C 0.69765 0.56563 -0.00500
 C380 C 0.68799 0.54287 -0.01407
 C381 C 0.66609 0.54102 -0.02797
 C382 C 0.65385 0.56140 -0.03220
 C383 C 0.64973 0.60455 -0.02557
 C384 C 0.63760 0.62137 -0.02764
 C385 C 0.62219 0.64079 -0.02970
 C386 C 0.63036 0.66418 -0.02168
 C387 C 0.61473 0.68266 -0.02225
 C388 C 0.59072 0.67792 -0.03085
 C389 C 0.58285 0.65440 -0.03925
 C390 C 0.59848 0.63601 -0.03867
 H391 H 0.69279 0.60334 -0.00164
 H392 H 0.71434 0.56760 0.00599
 H393 H 0.65836 0.52378 -0.03545
 H394 H 0.63680 0.55956 -0.04260
 H395 H 0.64869 0.66807 -0.01466
 H396 H 0.62137 0.70060 -0.01587
 H397 H 0.56441 0.65005 -0.04557
 H398 H 0.59192 0.61795 -0.04476
 C399 C 0.91387 -0.16442 0.52013
 C400 C 0.93584 -0.15499 0.53100
 C401 C 0.95645 -0.16709 0.52776
 C402 C 0.95539 -0.18882 0.51353
 C403 C 0.93313 -0.19856 0.50323
 C404 C 0.91249 -0.18636 0.50646
 C405 C 0.89320 -0.15071 0.52195
 C406 C 0.87659 -0.13820 0.52333
 C407 C 0.85770 -0.12211 0.52487
 C408 C 0.86324 -0.09819 0.53292
 C409 C 0.84535 -0.08202 0.53354
 C410 C 0.82156 -0.08954 0.52613
 C411 C 0.81610 -0.11371 0.51823
 C412 C 0.83409 -0.12989 0.51761
 H413 H 0.93712 -0.13801 0.54159
 H414 H 0.97329 -0.15932 0.53615
 H415 H 0.93180 -0.21515 0.49202
 H416 H 0.89559 -0.19375 0.49784
 H417 H 0.88148 -0.09194 0.53841
 H418 H 0.85026 -0.06349 0.53928
 H419 H 0.79794 -0.12008 0.51260
 H420 H 0.82962 -0.14838 0.51131
 C421 C 0.33436 0.41508 1.02112
 C422 C 0.34288 0.43689 1.03317
 C423 C 0.33046 0.45740 1.03026
 C424 C 0.30933 0.45640 1.01520
 C425 C 0.30039 0.43424 1.00384
 C426 C 0.31291 0.41371 1.00673
 C427 C 0.34874 0.39477 1.02212
 C428 C 0.36178 0.37850 1.02256
 C429 C 0.37845 0.36002 1.02263
 C430 C 0.40208 0.36562 1.01824
 C431 C 0.41849 0.34793 1.01791
 C432 C 0.41151 0.32431 1.02195
 C433 C 0.38773 0.31883 1.02650
 C434 C 0.37129 0.33661 1.02680
 H435 H 0.35949 0.43817 1.04431
 H436 H 0.33760 0.47416 1.03946
 H437 H 0.28427 0.43299 0.99199
 H438 H 0.30623 0.39695 0.99719
 H439 H 0.40783 0.38370 1.01506
 H440 H 0.43673 0.35282 1.01476
 H441 H 0.38178 0.30076 1.02944
 H442 H 0.35301 0.33207 1.03014
 C443 C 0.91809 0.15660 0.51321
 C444 C 0.92402 0.17771 0.52774
 C445 C 0.94437 0.19196 0.52418
 C446 C 0.95906 0.18511 0.50611
 C447 C 0.95269 0.16407 0.49141
 C448 C 0.93239 0.14994 0.49496
 C449 C 0.89793 0.14109 0.51722
 C450 C 0.88165 0.12701 0.51983
 C451 C 0.86304 0.10898 0.52202
 C452 C 0.83995 0.11516 0.52629
 C453 C 0.82184 0.09728 0.52716
 C454 C 0.82665 0.07304 0.52356
 C455 C 0.85001 0.06708 0.51970
 C456 C 0.86803 0.08491 0.51893
 H457 H 0.91312 0.18298 0.54199
 H458 H 0.94895 0.20798 0.53586
 H459 H 0.96342 0.15855 0.47712
 H460 H 0.92797 0.13366 0.48358
 H461 H 0.83588 0.13375 0.52862
 H462 H 0.80399 0.10239 0.53000
 H463 H 0.85436 0.04858 0.51727
 H464 H 0.88584 0.07992 0.51565
 C465 C 0.34497 0.58149 -0.01183
 C466 C 0.32154 0.57877 -0.02206
 C467 C 0.30689 0.55885 -0.01798
 C468 C 0.31551 0.54108 -0.00367
 C469 C 0.33921 0.54450 0.00674
 C470 C 0.35366 0.56440 0.00266
 C471 C 0.36055 0.60150 -0.01620
 C472 C 0.37471 0.61759 -0.01916
 C473 C 0.39282 0.63597 -0.02181
 C474 C 0.38690 0.65936 -0.02530
 C475 C 0.40491 0.67727 -0.02647
 C476 C 0.42902 0.67195 -0.02399
 C477 C 0.43470 0.64829 -0.02098
 C478 C 0.41674 0.63047 -0.01988
 H479 H 0.31466 0.59187 -0.03344
 H480 H 0.28921 0.55706 -0.02702
 H481 H 0.34661 0.53234 0.01884
 H482 H 0.37172 0.56649 0.01092
 H483 H 0.36844 0.66383 -0.02672
 H484 H 0.40001 0.69536 -0.02863
 H485 H 0.45308 0.64356 -0.01941
 H486 H 0.42152 0.61242 -0.01721
 C487 C 0.08000 -0.15407 0.48416
 C488 C 0.07713 -0.17781 0.47466
 C489 C 0.05714 -0.19212 0.47908
 C490 C 0.03945 -0.18290 0.49309
 C491 C 0.04287 -0.15882 0.50257
 C492 C 0.06286 -0.14467 0.49812
 C493 C 0.10043 -0.13913 0.47974
 C494 C 0.11718 -0.12589 0.47653
 C495 C 0.13671 -0.10924 0.47330
 C496 C 0.16022 -0.11484 0.47902
 C497 C 0.17899 -0.09788 0.47747
 C498 C 0.17444 -0.07506 0.47023
 C499 C 0.15075 -0.06982 0.46407
 C500 C 0.13205 -0.08679 0.46561
 H501 H 0.09026 -0.18523 0.46366
 H502 H 0.05532 -0.21008 0.47060
 H503 H 0.03072 -0.15088 0.51433
 H504 H 0.06503 -0.12635 0.50579
 H505 H 0.16402 -0.13216 0.48503
 H506 H 0.19704 -0.10255 0.48209
 H507 H 0.14658 -0.05233 0.45882
 H508 H 0.11391 -0.08220 0.46131
 C509 C 0.65554 0.41903 1.02011
 C510 C 0.65057 0.44183 1.02940
 C511 C 0.66475 0.46179 1.02471
 C512 C 0.68409 0.45920 1.01062
 C513 C 0.68921 0.43615 1.00173
 C514 C 0.67498 0.41620 1.00642
 C515 C 0.63994 0.39875 1.02367
 C516 C 0.62631 0.38207 1.02620
 C517 C 0.60935 0.36256 1.02865
 C518 C 0.58725 0.36720 1.03706
 C519 C 0.56999 0.34859 1.03785
 C520 C 0.57458 0.32501 1.03017
 C521 C 0.59706 0.32044 1.02222
 C522 C 0.61432 0.33911 1.02146
 H523 H 0.63554 0.44422 1.03999
 H524 H 0.66056 0.47926 1.03206
 H525 H 0.70380 0.43362 0.99059
 H526 H 0.67888 0.39865 0.99901
 H527 H 0.58316 0.38530 1.04252
 H528 H 0.55277 0.35278 1.04371
 H529 H 0.60121 0.30245 1.01644
 H530 H 0.63137 0.33532 1.01490
 C531 C 0.49146 0.08339 1.16677
 C532 C 0.50548 0.08381 1.18836
 C533 C 0.50796 0.06280 1.19984
 C534 C 0.49651 0.04112 1.18976
 C535 C 0.48203 0.04105 1.16833
 C536 C 0.47956 0.06203 1.15694
 C537 C 0.49010 0.10444 1.15391
 C538 C 0.48898 0.12142 1.14218
 C539 C 0.48763 0.14085 1.12709
 C540 C 0.49585 0.16406 1.13573
 C541 C 0.49523 0.18258 1.12055
 C542 C 0.48639 0.17807 1.09654
 C543 C 0.47805 0.15469 1.08814
 C544 C 0.47866 0.13626 1.10331
 H545 H 0.51487 0.10023 1.19607
 H546 H 0.51939 0.06335 1.21620
 H547 H 0.47273 0.02471 1.16032
 H548 H 0.46865 0.06151 1.14023
 H549 H 0.50286 0.16780 1.15411
 H550 H 0.50159 0.20042 1.12760
 H551 H 0.47155 0.15050 1.06968
 H552 H 0.47241 0.11833 1.09640
 C553 C -0.00790 0.66796 0.58932
 C554 C 0.00572 0.65813 0.57188
 C555 C 0.00808 0.66920 0.55085
 C556 C -0.00320 0.69053 0.54668
 C557 C -0.01678 0.70030 0.56470
 C558 C -0.01911 0.68908 0.58573
 C559 C -0.01034 0.65604 0.61070
 C560 C -0.01187 0.64521 0.62816
 C561 C -0.01311 0.63129 0.64839
 C562 C 0.00755 0.62195 0.65823
 C563 C 0.00627 0.60663 0.67646
 C564 C -0.01576 0.60038 0.68509
 C565 C -0.03638 0.61037 0.67552
 C566 C -0.03505 0.62571 0.65725
 H567 H 0.01469 0.64189 0.57458
 H568 H 0.01963 0.66131 0.53843
 H569 H -0.02652 0.71609 0.56239
 H570 H -0.02986 0.69676 0.59909
 H571 H 0.02460 0.62599 0.65138
 H572 H 0.02241 0.59896 0.68313
 H573 H -0.05355 0.60612 0.68196
 H574 H -0.05117 0.63280 0.64972
 C575 C 0.49725 0.91826 -0.16540
 C576 C 0.48469 0.93720 -0.15646
 C577 C 0.48353 0.95805 -0.16825
 C578 C 0.49504 0.96056 -0.18939
 C579 C 0.50740 0.94098 -0.19833
 C580 C 0.50852 0.92013 -0.18639
 C581 C 0.49884 0.89726 -0.15251
 C582 C 0.49989 0.88025 -0.14081
 C583 C 0.50082 0.86074 -0.12582
 C584 C 0.49587 0.86458 -0.10200
 C585 C 0.49681 0.84594 -0.08711
 C586 C 0.50270 0.82309 -0.09582
 C587 C 0.50767 0.81936 -0.11981
 C588 C 0.50671 0.83809 -0.13473
 H589 H 0.47569 0.93585 -0.14031
 H590 H 0.47281 0.97177 -0.16100
 H591 H 0.51722 0.94192 -0.21395
 H592 H 0.51847 0.90560 -0.19337
 H593 H 0.49140 0.88206 -0.09490
 H594 H 0.49333 0.84953 -0.06864
 H595 H 0.51206 0.80193 -0.12709
 H596 H 0.51055 0.83492 -0.15316
 C597 C 1.01370 0.33320 0.41232
 C598 C 1.00490 0.30944 0.41144
 C599 C 1.00302 0.29816 0.43249
 C600 C 1.00977 0.31053 0.45500
 C601 C 1.01919 0.33439 0.45534
 C602 C 1.02106 0.34553 0.43426
 C603 C 1.01433 0.34543 0.39092
 C604 C 1.01458 0.35650 0.37350
 C605 C 1.01459 0.37069 0.35338
 C606 C 0.99301 0.37570 0.34143
 C607 C 0.99278 0.39136 0.32340
 C608 C 1.01417 0.40228 0.31711
 C609 C 1.03583 0.39656 0.32874
 C610 C 1.03601 0.38090 0.34679
 H611 H 0.99897 0.29977 0.39451
 H612 H 0.99502 0.28016 0.43090
 H613 H 1.02582 0.34454 0.47176
 H614 H 1.02812 0.36390 0.43513
 H615 H 0.97631 0.36793 0.34643
 H616 H 0.97585 0.39517 0.31457
 H617 H 1.05257 0.40489 0.32453
 H618 H 1.05280 0.37728 0.35605
 C619 C 0.51497 0.91243 0.15122
 C620 C 0.49781 0.92846 0.14525
 C621 C 0.49553 0.94903 0.16014
 C622 C 0.51042 0.95393 0.18128
 C623 C 0.52753 0.93763 0.18730
 C624 C 0.52981 0.91700 0.17230
 C625 C 0.51717 0.89149 0.13542
 C626 C 0.51817 0.87435 0.12142
 C627 C 0.51836 0.85440 0.10390
 C628 C 0.49678 0.84413 0.09286
 C629 C 0.49667 0.82592 0.07460
 C630 C 0.51819 0.81767 0.06707
 C631 C 0.53982 0.82780 0.07859
 C632 C 0.53988 0.84608 0.09687
 H633 H 0.48615 0.92505 0.12905
 H634 H 0.48194 0.96102 0.15523
 H635 H 0.53935 0.94102 0.20338
 H636 H 0.54318 0.90472 0.17707
 H637 H 0.48002 0.85057 0.09801
 H638 H 0.47972 0.81883 0.06587
 H639 H 0.55667 0.82168 0.07338
 H640 H 0.55670 0.85394 0.10526
 C641 C -0.00817 0.34883 0.58210
 C642 C -0.02288 0.32792 0.57702
 C643 C -0.02004 0.31270 0.55676
 C644 C -0.00254 0.31835 0.54131
 C645 C 0.01238 0.33919 0.54684
 C646 C 0.00956 0.35429 0.56707
 C647 C -0.01156 0.36530 0.60215
 C648 C -0.01381 0.38001 0.61837
 C649 C -0.01578 0.39856 0.63698
 C650 C -0.02095 0.39301 0.65983
 C651 C -0.02188 0.41129 0.67796
 C652 C -0.01751 0.43531 0.67342
 C653 C -0.01269 0.44067 0.65030
 C654 C -0.01183 0.42242 0.63225
 H655 H -0.03672 0.32356 0.58850
 H656 H -0.03189 0.29686 0.55284
 H657 H 0.02625 0.34381 0.53549
 H658 H 0.02107 0.37041 0.57085
 H659 H -0.02399 0.37459 0.66370
 H660 H -0.02546 0.40661 0.69562
 H661 H -0.00966 0.45899 0.64615
 H662 H -0.00788 0.42693 0.61462
 C663 C 0.48358 0.09034 0.84408
 C664 C 0.46935 0.06992 0.84739
 C665 C 0.47073 0.04897 0.83273
 C666 C 0.48643 0.04815 0.81456
 C667 C 0.50018 0.06896 0.81090
 C668 C 0.49880 0.08991 0.82564
 C669 C 0.48353 0.11113 0.86056
 C670 C 0.48370 0.12800 0.87511
 C671 C 0.48418 0.14745 0.89326
 C672 C 0.46307 0.15407 0.90270
 C673 C 0.46377 0.17163 0.92169
 C674 C 0.48564 0.18274 0.93154
 C675 C 0.50671 0.17632 0.92156
 C676 C 0.50597 0.15877 0.90257
 H677 H 0.45753 0.07005 0.86162
 H678 H 0.45971 0.03332 0.83577
 H679 H 0.51259 0.06878 0.79721
 H680 H 0.51000 0.10559 0.82301
 H681 H 0.44613 0.14528 0.89575
 H682 H 0.44728 0.17595 0.92917
 H683 H 0.52378 0.18477 0.92854
 H684 H 0.52243 0.15374 0.89543
 C685 C 1.01821 0.65408 0.42022
 C686 C 1.00332 0.67311 0.41865
 C687 C 1.00030 0.68818 0.43892
 C688 C 1.01206 0.68431 0.46104
 C689 C 1.02742 0.66548 0.46229
 C690 C 1.03043 0.65047 0.44202
 C691 C 1.02001 0.63745 0.39987
 C692 C 1.02125 0.62290 0.38327
 C693 C 1.02238 0.60486 0.36397
 C694 C 1.01578 0.60964 0.34051
 C695 C 1.01584 0.59164 0.32200
 C696 C 1.02250 0.56862 0.32675
 C697 C 1.02940 0.56413 0.35038
 C698 C 1.02932 0.58213 0.36883
 H699 H 0.99368 0.67598 0.40188
 H700 H 0.98817 0.70236 0.43747
 H701 H 1.03696 0.66226 0.47900
 H702 H 1.04198 0.63579 0.44343
 H703 H 1.01036 0.62718 0.33656
 H704 H 1.01070 0.59573 0.30397
 H705 H 1.03426 0.54653 0.35470
 H706 H 1.03431 0.57820 0.38695
 C707 C 1.16328 0.48878 0.08618
 C708 C 1.18728 0.49674 0.08810
 C709 C 1.19928 0.49931 0.06761
 C710 C 1.18742 0.49413 0.04462
 C711 C 1.16324 0.48560 0.04319
 C712 C 1.15139 0.48301 0.06372
 C713 C 1.15048 0.48735 0.10713
 C714 C 1.13913 0.48649 0.12430
 C715 C 1.12484 0.48583 0.14428
 C716 C 1.11894 0.46410 0.15350
 C717 C 1.10364 0.46333 0.17179
 C718 C 1.09401 0.48431 0.18107
 C719 C 1.10047 0.50613 0.17200
 C720 C 1.11576 0.50685 0.15372
 H721 H 1.19663 0.50145 0.10544
 H722 H 1.21751 0.50661 0.07006
 H723 H 1.15339 0.48016 0.02630
 H724 H 1.13283 0.47659 0.06204
 H725 H 1.12586 0.44772 0.14630
 H726 H 1.09923 0.44632 0.17859
 H727 H 1.09311 0.52254 0.17848
 H728 H 1.12009 0.52375 0.14661
 C729 C 0.58662 -0.00579 0.67058
 C730 C 0.58540 0.00896 0.69152
 C731 C 0.56397 0.01001 0.70239
 C732 C 0.54350 -0.00359 0.69232
 C733 C 0.54510 -0.01879 0.67161
 C734 C 0.56651 -0.01985 0.66083
 C735 C 0.60803 -0.00575 0.65829
 C736 C 0.62539 -0.00577 0.64713
 C737 C 0.64544 -0.00590 0.63285
 C738 C 0.65705 0.01563 0.62815
 C739 C 0.67524 0.01560 0.61267
 C740 C 0.68202 -0.00600 0.60166
 C741 C 0.67055 -0.02758 0.60692
 C742 C 0.65238 -0.02750 0.62238
 H743 H 0.60084 0.02000 0.69915
 H744 H 0.56319 0.02202 0.71819
 H745 H 0.52972 -0.02970 0.66364
 H746 H 0.56726 -0.03133 0.64465
 H747 H 0.65176 0.03246 0.63610
 H748 H 0.68390 0.03247 0.60920
 H749 H 0.67507 -0.04448 0.59847
 H750 H 0.64336 -0.04426 0.62573
 C751 C -0.16693 0.50617 0.91241
 C752 C -0.15676 0.49401 0.93088
 C753 C -0.16810 0.49225 0.95181
 C754 C -0.19004 0.50272 0.95486
 C755 C -0.20021 0.51468 0.93576
 C756 C -0.18870 0.51642 0.91483
 C757 C -0.15462 0.50826 0.89123
 C758 C -0.14348 0.50967 0.87398
 C759 C -0.12922 0.51098 0.85403
 C760 C -0.11914 0.53299 0.84867
 C761 C -0.10348 0.53399 0.83071
 C762 C -0.09764 0.51292 0.81794
 C763 C -0.10841 0.49096 0.82303
 C764 C -0.12406 0.49001 0.84097
 H765 H -0.14000 0.48577 0.92909
 H766 H -0.15986 0.48183 0.96510
 H767 H -0.21653 0.52373 0.93713
 H768 H -0.19667 0.52603 0.90065
 H769 H -0.12288 0.54932 0.85879
 H770 H -0.09527 0.55113 0.82743
 H771 H -0.10452 0.47448 0.81330
 H772 H -0.13174 0.47287 0.84501
 C773 C 0.41581 0.00229 0.33029
 C774 C 0.43152 -0.01495 0.33673
 C775 C 0.45279 -0.01694 0.32586
 C776 C 0.45870 -0.00167 0.30835
 C777 C 0.44270 0.01548 0.30180
 C778 C 0.42138 0.01746 0.31275
 C779 C 0.39426 0.00446 0.34215
 C780 C 0.37661 0.00573 0.35280
 C781 C 0.35608 0.00662 0.36638
 C782 C 0.34696 -0.01422 0.37525
 C783 C 0.32823 -0.01330 0.39001
 C784 C 0.31832 0.00854 0.39614
 C785 C 0.32726 0.02933 0.38669
 C786 C 0.34604 0.02836 0.37192
 H787 H 0.42736 -0.02682 0.35025
 H788 H 0.46454 -0.03058 0.33101
 H789 H 0.44686 0.02762 0.28854
 H790 H 0.40937 0.03092 0.30769
 H791 H 0.35472 -0.03112 0.37122
 H792 H 0.32208 -0.02955 0.39729
 H793 H 0.31986 0.04636 0.39089
 H794 H 0.35299 0.04461 0.36518
 C795 C 0.15412 0.51785 0.91827
 C796 C 0.17326 0.50309 0.91710
 C797 C 0.18794 0.50015 0.93764
 C798 C 0.18354 0.51185 0.95963
 C799 C 0.16466 0.52716 0.96048
 C800 C 0.15005 0.53010 0.93994
 C801 C 0.13775 0.51930 0.89768
 C802 C 0.12345 0.52003 0.88080
 C803 C 0.10576 0.52033 0.86108
 C804 C 0.09450 0.49885 0.85076
 C805 C 0.07637 0.49900 0.83249
 C806 C 0.06921 0.52069 0.82428
 C807 C 0.08087 0.54221 0.83456
 C808 C 0.09902 0.54201 0.85286
 H809 H 0.17648 0.49341 0.90044
 H810 H 0.20221 0.48809 0.93650
 H811 H 0.16107 0.53666 0.97710
 H812 H 0.13529 0.54157 0.94105
 H813 H 0.09946 0.48197 0.85710
 H814 H 0.06753 0.48216 0.82523
 H815 H 0.07597 0.55917 0.82844
 H816 H 0.10760 0.55875 0.86075
 C817 C 0.58688 -0.01774 0.34715
 C818 C 0.56563 -0.03067 0.35032
 C819 C 0.54540 -0.02883 0.33484
 C820 C 0.54612 -0.01396 0.31596
 C821 C 0.56773 -0.00153 0.31251
 C822 C 0.58796 -0.00338 0.32806
 C823 C 0.60707 -0.01820 0.36428
 C824 C 0.62359 -0.01817 0.37915
 C825 C 0.64287 -0.01762 0.39746
 C826 C 0.65218 -0.03885 0.40425
 C827 C 0.67015 -0.03826 0.42284
 C828 C 0.67902 -0.01637 0.43488
 C829 C 0.66967 0.00488 0.42773
 C830 C 0.65174 0.00424 0.40916
 H831 H 0.56459 -0.04183 0.36504
 H832 H 0.52911 -0.03887 0.33775
 H833 H 0.56878 0.01024 0.29830
 H834 H 0.60428 0.00681 0.32551
 H835 H 0.64542 -0.05588 0.39534
 H836 H 0.67715 -0.05489 0.42775
 H837 H 0.67580 0.02198 0.43687
 H838 H 0.64454 0.02077 0.40417
 C839 C 0.84493 0.49074 0.08421
 C840 C 0.82393 0.47621 0.07923
 C841 C 0.80949 0.47818 0.05827
 C842 C 0.81599 0.49464 0.04204
 C843 C 0.83697 0.50935 0.04740
 C844 C 0.85132 0.50738 0.06832
 C845 C 0.86038 0.48847 0.10529
 C846 C 0.87407 0.48710 0.12251
 C847 C 0.89126 0.48609 0.14253
 C848 C 0.90037 0.46431 0.14788
 C849 C 0.91858 0.46371 0.16605
 C850 C 0.92795 0.48494 0.17902
 C851 C 0.91822 0.50665 0.17390
 C852 C 0.90003 0.50720 0.15576
 H853 H 0.81885 0.46324 0.09140
 H854 H 0.79351 0.46654 0.05451
 H855 H 0.84222 0.52247 0.03546
 H856 H 0.86749 0.51876 0.07204
 H857 H 0.89382 0.44788 0.13764
 H858 H 0.92586 0.44677 0.16939
 H859 H 0.92482 0.52323 0.18381
 H860 H 0.89313 0.52416 0.15174
 C861 C 0.41527 0.00649 0.64833
 C862 C 0.43221 -0.01010 0.64357
 C863 C 0.45220 -0.01135 0.65949
 C864 C 0.45558 0.00406 0.68045
 C865 C 0.43827 0.02046 0.68532
 C866 C 0.41825 0.02170 0.66929
 C867 C 0.39532 0.00816 0.63120
 C868 C 0.37919 0.00907 0.61608
 C869 C 0.36065 0.00959 0.59718
 C870 C 0.36566 0.00372 0.57366
 C871 C 0.34782 0.00372 0.55512
 C872 C 0.32462 0.00957 0.55983
 C873 C 0.31976 0.01564 0.58353
 C874 C 0.33768 0.01560 0.60210
 H875 H 0.43007 -0.02199 0.62742
 H876 H 0.46501 -0.02442 0.65544
 H877 H 0.44049 0.03267 0.70121
 H878 H 0.40527 0.03468 0.67310
 H879 H 0.38340 -0.00089 0.56965
 H880 H 0.35224 -0.00064 0.53705
 H881 H 0.30203 0.02001 0.58774
 H882 H 0.33360 0.02012 0.62027
   
