data_POSCAR
  _audit_creation_date              2014-09-24
  _audit_creation_method            'ToBaCCo'
  _symmetry_space_group_name_H-M    'P1'
  _symmetry_Int_Tables_number       1
  _symmetry_cell_setting            triclinic
  loop_
  _symmetry_equiv_pos_as_xyz
 x,y,z
_cell_length_a 28.2337
_cell_length_b 23.8352
_cell_length_c 22.7135
_cell_angle_alpha 90.386000
_cell_angle_beta 90.101800
_cell_angle_gamma 90.141300
loop_
  _atom_site_label
  _atom_site_type_symbol
  _atom_site_fract_x
  _atom_site_fract_y
  _atom_site_fract_z
C1 C 0.24091 0.28241 0.26230
 C2 C 0.24564 0.22530 0.25981
 C3 C 0.21812 0.19051 0.21695
 C4 C 0.27950 0.19502 0.29847
 C5 C 0.27501 0.31847 0.29572
 C6 C 0.20259 0.31170 0.22933
 C7 C 0.19339 0.14296 0.23609
 C8 C 0.16507 0.11205 0.19700
 C9 C 0.16053 0.12847 0.13751
 C10 C 0.18693 0.17516 0.11838
 C11 C 0.21607 0.20498 0.15723
 C12 C 0.28007 0.20389 0.35972
 C13 C 0.31374 0.17712 0.39494
 C14 C 0.34667 0.14007 0.36980
 C15 C 0.34569 0.13090 0.30849
 C16 C 0.31224 0.15779 0.27336
 C17 C 0.32419 0.31027 0.29072
 C18 C 0.35578 0.34381 0.32265
 C19 C 0.33889 0.38784 0.35798
 C20 C 0.29010 0.39797 0.36098
 C21 C 0.25834 0.36307 0.33073
 C22 C 0.21375 0.35753 0.19331
 C23 C 0.17881 0.38278 0.15892
 C24 C 0.13209 0.36233 0.15964
 C25 C 0.12064 0.31743 0.19658
 C26 C 0.15532 0.29314 0.23214
 H27 H 0.19486 0.13071 0.28190
 H28 H 0.14550 0.07720 0.21500
 H29 H 0.18510 0.18896 0.07304
 H30 H 0.23611 0.24041 0.14094
 H31 H 0.25478 0.23202 0.38009
 H32 H 0.31389 0.18506 0.44195
 H33 H 0.31271 0.15071 0.22621
 H34 H 0.33823 0.27803 0.26191
 H35 H 0.39347 0.33644 0.31853
 H36 H 0.27662 0.43238 0.38740
 H37 H 0.22070 0.37091 0.33457
 H38 H 0.24987 0.37269 0.19044
 H39 H 0.18873 0.41685 0.13012
 H40 H 0.08480 0.30117 0.19788
 H41 H 0.14557 0.25876 0.26063
 H42 H 0.37143 0.10409 0.28717
 C43 C 0.75520 0.21678 0.25734
 C44 C 0.74805 0.27262 0.24829
 C45 C 0.77800 0.30532 0.20719
 C46 C 0.71111 0.30459 0.28046
 C47 C 0.72219 0.18372 0.29398
 C48 C 0.79511 0.18595 0.22927
 C49 C 0.80354 0.35184 0.22824
 C50 C 0.83464 0.38057 0.19132
 C51 C 0.84022 0.36367 0.13220
 C52 C 0.81343 0.31807 0.11091
 C53 C 0.78232 0.28941 0.14788
 C54 C 0.71192 0.30829 0.34211
 C55 C 0.67966 0.34260 0.37188
 C56 C 0.64588 0.37394 0.34037
 C57 C 0.64548 0.37029 0.27865
 C58 C 0.67779 0.33603 0.24898
 C59 C 0.67665 0.17053 0.27326
 C60 C 0.64563 0.13911 0.30797
 C61 C 0.65955 0.12137 0.36432
 C62 C 0.70503 0.13501 0.38498
 C63 C 0.73648 0.16504 0.34960
 C64 C 0.78610 0.13713 0.19612
 C65 C 0.82252 0.11109 0.16458
 C66 C 0.86859 0.13361 0.16559
 C67 C 0.87794 0.18112 0.20048
 C68 C 0.84178 0.20635 0.23307
 H69 H 0.80068 0.36464 0.27395
 H70 H 0.85526 0.41451 0.21010
 H71 H 0.81706 0.30409 0.06566
 H72 H 0.76240 0.25402 0.13066
 H73 H 0.73853 0.28603 0.36708
 H74 H 0.68247 0.34562 0.41925
 H75 H 0.67715 0.33444 0.20131
 H76 H 0.66524 0.18464 0.23029
 H77 H 0.61037 0.13015 0.29154
 H78 H 0.71624 0.12219 0.42849
 H79 H 0.77158 0.17489 0.36605
 H80 H 0.75048 0.12045 0.19267
 H81 H 0.81410 0.07499 0.13732
 H82 H 0.91322 0.19905 0.20203
 H83 H 0.84990 0.24300 0.25967
 H84 H 0.62020 0.39427 0.25326
 C85 C 0.75756 0.78807 0.74388
 C86 C 0.75227 0.73122 0.74920
 C87 C 0.71594 0.69859 0.71595
 C88 C 0.78273 0.69811 0.78945
 C89 C 0.79698 0.81866 0.77431
 C90 C 0.72342 0.82294 0.70981
 C91 C 0.68602 0.66179 0.74642
 C92 C 0.65296 0.62893 0.71613
 C93 C 0.64891 0.63204 0.65467
 C94 C 0.67919 0.66868 0.62390
 C95 C 0.71248 0.70155 0.65436
 C96 C 0.78541 0.71127 0.84965
 C97 C 0.81638 0.68204 0.88626
 C98 C 0.84458 0.63845 0.86371
 C99 C 0.84072 0.62422 0.80361
 C100 C 0.80980 0.65360 0.76700
 C101 C 0.84399 0.79975 0.77079
 C102 C 0.87961 0.82556 0.80413
 C103 C 0.86981 0.87305 0.83907
 C104 C 0.82309 0.89405 0.83965
 C105 C 0.78716 0.86676 0.80809
 C106 C 0.67421 0.81640 0.71661
 C107 C 0.64279 0.84949 0.68446
 C108 C 0.65996 0.89128 0.64676
 C109 C 0.70888 0.89981 0.64198
 C110 C 0.74037 0.86547 0.67266
 H111 H 0.68829 0.65851 0.79389
 H112 H 0.63041 0.60088 0.74092
 H113 H 0.67829 0.67119 0.57642
 H114 H 0.73602 0.72865 0.62986
 H115 H 0.76422 0.74492 0.86795
 H116 H 0.81867 0.69389 0.93231
 H117 H 0.80810 0.64285 0.72063
 H118 H 0.85297 0.76403 0.74337
 H119 H 0.91513 0.80853 0.80209
 H120 H 0.81320 0.92958 0.86672
 H121 H 0.75126 0.88239 0.81136
 H122 H 0.66001 0.78589 0.74697
 H123 H 0.60504 0.84315 0.68974
 H124 H 0.72269 0.93217 0.61345
 H125 H 0.77809 0.87206 0.66736
 H126 H 0.86249 0.59188 0.78407
 C127 C 0.24177 0.71669 0.74223
 C128 C 0.24556 0.77379 0.74355
 C129 C 0.27874 0.80314 0.70336
 C130 C 0.21788 0.80888 0.78547
 C131 C 0.20322 0.68574 0.77326
 C132 C 0.27920 0.68297 0.71324
 C133 C 0.31351 0.83944 0.72600
 C134 C 0.34591 0.86522 0.68826
 C135 C 0.34368 0.85547 0.62704
 C136 C 0.30844 0.81965 0.60461
 C137 C 0.27594 0.79425 0.64229
 C138 C 0.21591 0.79527 0.84541
 C139 C 0.18652 0.82520 0.88359
 C140 C 0.15929 0.87055 0.86331
 C141 C 0.16348 0.88602 0.80354
 C142 C 0.19249 0.85543 0.76525
 C143 C 0.15628 0.70525 0.77250
 C144 C 0.12142 0.67909 0.80623
 C145 C 0.13177 0.63067 0.83877
 C146 C 0.17827 0.60912 0.83659
 C147 C 0.21351 0.63665 0.80462
 C148 C 0.26998 0.65373 0.66069
 C149 C 0.30625 0.62392 0.63267
 C150 C 0.35172 0.62174 0.65795
 C151 C 0.36030 0.64951 0.71150
 C152 C 0.32450 0.68062 0.73852
 H153 H 0.31627 0.84670 0.77301
 H154 H 0.37334 0.89134 0.70742
 H155 H 0.30598 0.81140 0.55774
 H156 H 0.24874 0.76724 0.62385
 H157 H 0.23621 0.76040 0.86235
 H158 H 0.18477 0.81229 0.92921
 H159 H 0.19385 0.86694 0.71922
 H160 H 0.14671 0.74162 0.74684
 H161 H 0.08600 0.69654 0.80626
 H162 H 0.18862 0.57284 0.86178
 H163 H 0.24925 0.62033 0.80593
 H164 H 0.23505 0.65494 0.64096
 H165 H 0.29863 0.60181 0.59193
 H166 H 0.39498 0.64786 0.73189
 H167 H 0.33194 0.70270 0.77935
 H168 H 0.14342 0.92009 0.78495
 O169 O 0.95776 0.01726 -0.06583
 O170 O 1.05653 0.06475 0.02826
 O171 O 1.05009 0.01293 -0.07272
 O172 O 0.96468 0.06841 0.03533
 O173 O 0.95992 -0.01516 0.07639
 O174 O 1.05364 -0.06616 -0.02287
 O175 O 1.05225 -0.01402 0.07850
 O176 O 0.96174 -0.06663 -0.02533
 Cu177 Cu 1.00735 0.04904 -0.02338
 Cu178 Cu 1.00690 -0.04870 0.03130
 C179 C 0.94370 -0.03321 -0.06244
 C180 C 1.07051 0.03406 0.07037
 C181 C 1.06710 -0.03580 -0.06548
 C182 C 0.94708 0.03574 0.07355
 O183 O 0.45437 0.48580 0.42606
 O184 O 0.54554 0.57647 0.49292
 O185 O 0.54636 0.48590 0.42617
 O186 O 0.45270 0.57156 0.49542
 O187 O 0.45486 0.51641 0.57314
 O188 O 0.54928 0.43255 0.50522
 O189 O 0.54699 0.52230 0.57134
 O190 O 0.45780 0.42929 0.50270
 Cu191 Cu 0.49989 0.53564 0.45242
 Cu192 Cu 0.50245 0.46985 0.54606
 C193 C 0.44076 0.44206 0.45276
 C194 C 0.56156 0.56521 0.54368
 C195 C 0.56329 0.44415 0.45373
 C196 C 0.43747 0.55794 0.54594
 O197 O 0.04479 0.48429 -0.07221
 O198 O -0.05223 0.43226 0.02026
 O199 O -0.04795 0.48981 -0.07646
 O200 O 0.03927 0.43071 0.02712
 O201 O 0.04298 0.51237 0.07352
 O202 O -0.04977 0.56774 -0.02341
 O203 O -0.04969 0.51024 0.07323
 O204 O 0.04185 0.56622 -0.02627
 Cu205 Cu -0.00403 0.45132 -0.03054
 Cu206 Cu -0.00352 0.54711 0.02941
 C207 C 0.05925 0.53435 -0.06571
 C208 C -0.06702 0.46188 0.06305
 C209 C -0.06430 0.53864 -0.06684
 C210 C 0.05628 0.46187 0.06764
 O211 O 0.45608 1.05941 0.47473
 O212 O 0.54866 0.98507 0.55941
 O213 O 0.54856 1.05441 0.47123
 O214 O 0.45730 0.99658 0.56841
 O215 O 0.44890 0.92336 0.50916
 O216 O 0.54115 0.98146 0.41144
 O217 O 0.53972 0.91148 0.50073
 O218 O 0.44950 0.98570 0.41578
 Cu219 Cu 0.50345 1.03128 0.52426
 Cu220 Cu 0.49426 0.94317 0.45336
 C221 C 0.43714 1.03482 0.43061
 C222 C 0.55922 0.93503 0.54469
 C223 C 0.56033 1.02820 0.42475
 C224 C 0.43765 0.95019 0.55570
 C225 C 1.13089 0.10300 0.09874
 C226 C 1.10556 0.05325 0.10897
 H227 H 1.12639 0.12224 0.05590
 H228 H 1.11331 0.02744 0.14671
 C229 C 0.61390 0.59485 0.62495
 C230 C 0.59727 0.60286 0.57035
 H231 H 0.60005 0.56011 0.65029
 H232 H 0.60879 0.63845 0.54476
 C233 C -0.12452 0.38975 0.09250
 C234 C -0.10419 0.43993 0.10208
 H235 H -0.11479 0.36608 0.05344
 H236 H -0.11453 0.46581 0.13913
 C237 C 0.37851 0.87981 0.58565
 C238 C 0.40205 0.92760 0.59648
 H239 H 0.38404 0.85811 0.54414
 H240 H 0.39514 0.95145 0.63624
 C241 C -0.12070 0.61155 -0.09651
 C242 C -0.10019 0.56177 -0.10702
 H243 H -0.11193 0.63398 -0.05624
 H244 H -0.10981 0.53697 -0.14526
 C245 C 0.38235 1.11271 0.40797
 C246 C 0.40083 1.06255 0.39471
 H247 H 0.39249 1.13358 0.44863
 H248 H 0.38852 1.03983 0.35616
 C249 C 1.12786 -0.10342 -0.09686
 C250 C 1.10209 -0.05735 -0.10796
 H251 H 1.12411 -0.12236 -0.05380
 H252 H 1.10624 -0.03406 -0.14824
 C253 C 0.61167 0.41212 0.36973
 C254 C 0.59912 0.40764 0.42636
 H255 H 0.59467 0.44367 0.34285
 H256 H 0.61348 0.37453 0.45332
 C257 C 0.90640 -0.10399 -0.12603
 C258 C 0.90538 -0.05272 -0.10132
 H259 H 0.93824 -0.12879 -0.12009
 H260 H 0.87773 -0.02307 -0.11177
 C261 C 0.37219 0.42517 0.38912
 C262 C 0.40554 0.40501 0.42499
 H263 H 0.36836 0.47007 0.38356
 H264 H 0.40661 0.36057 0.43468
 C265 C 0.09590 0.60710 -0.12614
 C266 C 0.09718 0.55512 -0.10394
 H267 H 0.06432 0.63188 -0.11816
 H268 H 0.12445 0.52566 -0.11655
 C269 C 0.62613 1.09243 0.40384
 C270 C 0.59569 1.05299 0.38499
 H271 H 0.62744 1.10325 0.45026
 H272 H 0.59671 1.03863 0.33966
 C273 C 0.09553 0.38510 0.11991
 C274 C 0.09228 0.43985 0.10811
 H275 H 0.06953 0.35623 0.10174
 H276 H 0.11541 0.46958 0.13029
 C277 C 0.62703 0.92612 0.61240
 C278 C 0.59312 0.90241 0.57950
 H279 H 0.63245 0.97113 0.61145
 H280 H 0.59087 0.85704 0.57665
 C281 C 0.90639 0.11116 0.12722
 C282 C 0.91075 0.05650 0.11456
 H283 H 0.93202 0.14064 0.10984
 H284 H 0.88787 0.02610 0.13556
 C285 C 0.39022 0.58915 0.63050
 C286 C 0.39876 0.59047 0.57261
 H287 H 0.41379 0.56613 0.65924
 H288 H 0.37776 0.61720 0.54439
   
