data_POSCAR
  _audit_creation_date              2014-09-24
  _audit_creation_method            'ToBaCCo'
  _symmetry_space_group_name_H-M    'P1'
  _symmetry_Int_Tables_number       1
  _symmetry_cell_setting            triclinic
  loop_
  _symmetry_equiv_pos_as_xyz
 x,y,z
_cell_length_a 16.5863
_cell_length_b 16.2324
_cell_length_c 34.5753
_cell_angle_alpha 97.509800
_cell_angle_beta 89.821000
_cell_angle_gamma 122.452100
loop_
  _atom_site_label
  _atom_site_type_symbol
  _atom_site_fract_x
  _atom_site_fract_y
  _atom_site_fract_z
C1 C -0.03994 -0.15006 0.47873
 C2 C 0.03846 -0.07510 0.50415
 C3 C 0.07990 -0.09985 0.53215
 C4 C 0.04422 -0.19919 0.53492
 C5 C -0.03322 -0.27325 0.50867
 C6 C -0.07618 -0.25009 0.48056
 C7 C 0.08432 0.02927 0.49892
 C8 C 0.08849 0.09923 0.52879
 C9 C 0.14380 0.20008 0.52559
 C10 C 0.19475 0.23065 0.49237
 C11 C 0.19007 0.16126 0.46204
 C12 C 0.13368 0.06047 0.46548
 H13 H -0.06963 -0.12960 0.45679
 H14 H 0.14093 -0.04118 0.55131
 H15 H 0.05255 0.07566 0.55514
 H16 H 0.13137 0.00601 0.44292
 H17 H -0.06046 -0.35005 0.50975
 H18 H 0.23969 0.30884 0.49078
 C19 C 1.01709 0.01306 0.12345
 C20 C 0.98008 0.05322 0.15072
 C21 C 1.04174 0.14468 0.17372
 C22 C 1.14088 0.19493 0.17054
 C23 C 1.17783 0.15448 0.14296
 C24 C 1.11628 0.06270 0.11924
 C25 C 0.88120 -0.01014 0.16102
 C26 C 0.86417 -0.07258 0.18847
 C27 C 0.77087 -0.13978 0.19736
 C28 C 0.69367 -0.14393 0.17846
 C29 C 0.70956 -0.08249 0.15023
 C30 C 0.80425 -0.01463 0.14195
 H31 H 0.96813 -0.05952 0.10686
 H32 H 1.01304 0.17272 0.19620
 H33 H 0.92421 -0.06991 0.20240
 H34 H 0.81834 0.03168 0.11972
 H35 H 1.25458 0.19332 0.14117
 H36 H 0.62109 -0.19784 0.18446
 C37 C 0.10655 1.06500 0.85475
 C38 C 0.01904 1.02309 0.83286
 C39 C -0.01950 0.93289 0.80811
 C40 C 0.02846 0.88315 0.80539
 C41 C 0.11398 0.92321 0.82909
 C42 C 0.15363 1.01418 0.85405
 C43 C -0.03883 1.06626 0.84010
 C44 C -0.02898 1.13857 0.81902
 C45 C -0.08883 1.17488 0.82496
 C46 C -0.15575 1.14100 0.85350
 C47 C -0.16649 1.06768 0.87470
 C48 C -0.10755 1.03060 0.86739
 H49 H 0.13384 1.13380 0.87443
 H50 H -0.08749 0.90120 0.79137
 H51 H 0.02197 1.16261 0.79687
 H52 H -0.11446 0.97355 0.88296
 H53 H 0.14994 0.88386 0.82792
 H54 H -0.20229 1.16863 0.85767
 O55 O 0.35740 -0.05342 -0.05251
 O56 O 0.43605 -0.12340 0.02979
 O57 O 0.30228 -0.09186 0.01594
 O58 O 0.49298 -0.08684 -0.03966
 O59 O 0.58833 0.07370 -0.01986
 O60 O 0.40260 0.06340 0.04280
 O61 O 0.54315 0.03402 0.05122
 O62 O 0.44962 0.10371 -0.02644
 Cu63 Cu 0.38794 -0.10467 -0.01418
 Cu64 Cu 0.50656 0.08456 0.01448
 C65 C 0.38647 0.03674 -0.05236
 C66 C 0.50414 -0.05675 0.05413
 C67 C 0.31942 -0.01536 0.03870
 C68 C 0.57252 -0.00587 -0.03971
 O69 O -0.07847 0.37426 0.69396
 O70 O 0.00241 0.54202 0.62248
 O71 O 0.01488 0.38552 0.62744
 O72 O -0.06008 0.53590 0.68847
 O73 O 0.08190 0.61794 0.72165
 O74 O 0.15951 0.48093 0.65776
 O75 O 0.14612 0.63540 0.65413
 O76 O 0.06755 0.45289 0.72323
 Cu77 Cu -0.04277 0.44731 0.65413
 Cu78 Cu 0.12870 0.55389 0.69182
 C79 C -0.02162 0.38648 0.72164
 C80 C 0.08520 0.62050 0.62727
 C81 C 0.10197 0.41107 0.63146
 C82 C -0.00036 0.60335 0.71548
 O83 O 0.42544 0.44007 0.37149
 O84 O 0.58233 0.62658 0.30975
 O85 O 0.40462 0.48399 0.30385
 O86 O 0.60688 0.58879 0.37869
 O87 O 0.63836 0.47830 0.35271
 O88 O 0.45008 0.38869 0.27359
 O89 O 0.63046 0.52891 0.28504
 O90 O 0.45924 0.33620 0.33994
 Cu91 Cu 0.50115 0.54533 0.34413
 Cu92 Cu 0.54899 0.42321 0.31001
 C93 C 0.41357 0.35507 0.36525
 C94 C 0.63346 0.60909 0.28701
 C95 C 0.39401 0.41962 0.27562
 C96 C 0.65589 0.54982 0.37878
 N97 N 0.23110 0.40606 0.60118
 N98 N 0.24531 0.35317 0.57284
 C99 C 0.15819 0.27515 0.55850
 C100 C 0.08948 0.28184 0.57892
 N101 N 0.13838 0.36495 0.60526
 H102 H 0.01227 0.23320 0.57435
 N103 N 0.77585 0.69036 0.25160
 N104 N 0.81471 0.75733 0.22783
 C105 C 0.75564 0.78952 0.22377
 C106 C 0.67941 0.74068 0.24621
 N107 N 0.69515 0.67989 0.26307
 H108 H 0.61760 0.74653 0.24919
 N109 N 0.34856 0.14796 -0.07528
 N110 N 0.28423 0.14350 -0.09953
 C111 C 0.23542 0.05166 -0.12036
 C112 C 0.27309 0.00024 -0.10818
 N113 N 0.34268 0.06264 -0.07988
 H114 H 0.24671 -0.07733 -0.11616
 N115 N 0.17467 0.78923 0.61191
 N116 N 0.16336 0.84055 0.58794
 C117 C 0.08475 0.77567 0.56336
 C118 C 0.04920 0.68277 0.57304
 N119 N 0.10671 0.69431 0.60327
 H120 H -0.01586 0.61378 0.56132
 N121 N 0.24966 0.40068 0.24733
 N122 N 0.18066 0.34231 0.21920
 C123 C 0.20538 0.28264 0.19949
 C124 C 0.29159 0.30606 0.21655
 N125 N 0.31646 0.37956 0.24630
 H126 H 0.32860 0.26822 0.21004
 N127 N 0.66586 -0.07468 -0.06183
 N128 N 0.73706 -0.05593 -0.08409
 C129 C 0.76276 0.02746 -0.09869
 C130 C 0.70499 0.06004 -0.08400
 N131 N 0.64597 -0.00589 -0.06131
 H132 H 0.70479 0.12417 -0.08931
 N133 N 0.15249 -0.09381 0.05212
 N134 N 0.09577 -0.07441 0.07277
 C135 C 0.15165 0.01722 0.09332
 C136 C 0.24558 0.05346 0.08439
 N137 N 0.24249 -0.01828 0.05871
 H138 H 0.30959 0.12467 0.09487
 N139 N 0.75269 0.52642 0.42276
 N140 N 0.82367 0.57787 0.45054
 C141 C 0.84835 0.67275 0.45437
 C142 C 0.78852 0.67725 0.42792
 N143 N 0.73032 0.58447 0.40899
 H144 H 0.78711 0.74078 0.42271
 N145 N -0.14889 0.29544 0.76262
 N146 N -0.16858 0.24108 0.79080
 C147 C -0.09027 0.23880 0.79860
 C148 C -0.02105 0.29461 0.77422
 N149 N -0.06104 0.32807 0.75227
 H150 H 0.04948 0.30677 0.77165
 N151 N 0.48579 -0.17066 0.09775
 N152 N 0.53810 -0.17943 0.12378
 C153 C 0.62676 -0.09653 0.12722
 C154 C 0.62666 -0.03595 0.10253
 N155 N 0.53758 -0.08507 0.08477
 H156 H 0.68600 0.03466 0.09671
 N157 N 0.32145 0.18533 0.37747
 N158 N 0.26124 0.13141 0.40227
 C159 C 0.24870 0.19274 0.42812
 C160 C 0.30354 0.28678 0.41811
 N161 N 0.34769 0.27862 0.38647
 H162 H 0.31187 0.35454 0.43250
 N163 N -0.10349 0.66498 0.73392
 N164 N -0.09773 0.73962 0.75753
 C165 C -0.01088 0.78986 0.77783
 C166 C 0.03609 0.74335 0.76588
 N167 N -0.02368 0.66627 0.73865
 H168 H 0.10849 0.76564 0.77460
   
