data_POSCAR
  _audit_creation_date              2014-09-24
  _audit_creation_method            'ToBaCCo'
  _symmetry_space_group_name_H-M    'P1'
  _symmetry_Int_Tables_number       1
  _symmetry_cell_setting            triclinic
  loop_
  _symmetry_equiv_pos_as_xyz
 x,y,z
_cell_length_a 36.7422
_cell_length_b 37.3374
_cell_length_c 37.8689
_cell_angle_alpha 89.943300
_cell_angle_beta 89.218500
_cell_angle_gamma 89.204600
loop_
  _atom_site_label
  _atom_site_type_symbol
  _atom_site_fract_x
  _atom_site_fract_y
  _atom_site_fract_z
N1 N 0.58278 0.68500 0.60888
 N2 N 0.56869 0.67113 0.63781
 C3 C 0.53997 0.69142 0.64833
 C4 C 0.53585 0.71952 0.62480
 C5 C 0.56355 0.71454 0.60003
 H6 H 0.52330 0.68651 0.67153
 H7 H 0.56960 0.73116 0.57741
 Cu8 Cu 0.58980 0.62835 0.65916
 Cu9 Cu 0.62539 0.66418 0.58518
 Cu10 Cu 0.66355 0.58796 0.62283
 N11 N 0.61138 0.58555 0.68002
 N12 N 0.64024 0.56993 0.66569
 C13 C 0.64976 0.54136 0.68534
 C14 C 0.62559 0.53879 0.71361
 C15 C 0.60153 0.56741 0.70932
 H16 H 0.67267 0.52368 0.67969
 H17 H 0.57871 0.57475 0.72618
 N18 N 0.68312 0.61027 0.57948
 N19 N 0.66852 0.63923 0.56515
 C20 C 0.68814 0.64809 0.53624
 C21 C 0.71647 0.62365 0.53212
 C22 C 0.71242 0.59999 0.56004
 H23 H 0.68261 0.67086 0.51939
 H24 H 0.72962 0.57716 0.56600
 H25 H 0.61757 0.61227 0.60243
 H26 H 0.64764 0.64083 0.62963
 N27 N 0.91752 0.31728 0.10406
 N28 N 0.93146 0.33123 0.13261
 C29 C 0.95970 0.31061 0.14300
 C30 C 0.96369 0.28213 0.11977
 C31 C 0.93635 0.28732 0.09530
 H32 H 0.97594 0.31542 0.16607
 H33 H 0.93001 0.27048 0.07311
 Cu34 Cu 0.91043 0.37418 0.15411
 Cu35 Cu 0.87519 0.33827 0.08106
 Cu36 Cu 0.83716 0.41486 0.11903
 N37 N 0.88895 0.41715 0.17516
 N38 N 0.86028 0.43291 0.16134
 C39 C 0.85072 0.46149 0.18119
 C40 C 0.87462 0.46383 0.20899
 C41 C 0.89858 0.43519 0.20429
 H42 H 0.82791 0.47926 0.17603
 H43 H 0.92115 0.42782 0.22086
 N44 N 0.81779 0.39247 0.07619
 N45 N 0.83236 0.36340 0.06172
 C46 C 0.81281 0.35445 0.03333
 C47 C 0.78455 0.37894 0.02971
 C48 C 0.78857 0.40273 0.05736
 H49 H 0.81828 0.33153 0.01655
 H50 H 0.77139 0.42560 0.06361
 H51 H 0.88313 0.39021 0.09786
 H52 H 0.85271 0.36191 0.12581
 N53 N 0.41412 0.18935 -0.10799
 N54 N 0.42762 0.17569 -0.13742
 C55 C 0.45587 0.19565 -0.14834
 C56 C 0.46030 0.22330 -0.12456
 C57 C 0.43326 0.21843 -0.09923
 H58 H 0.47222 0.19060 -0.17181
 H59 H 0.42782 0.23461 -0.07608
 Cu60 Cu 0.40699 0.13317 -0.15852
 Cu61 Cu 0.37286 0.16841 -0.08308
 Cu62 Cu 0.33659 0.09171 -0.11921
 N63 N 0.38678 0.08965 -0.17804
 N64 N 0.35930 0.07360 -0.16246
 C65 C 0.35048 0.04458 -0.18136
 C66 C 0.37360 0.04223 -0.21041
 C67 C 0.39637 0.07132 -0.20744
 H68 H 0.32866 0.02653 -0.17474
 H69 H 0.41810 0.07879 -0.22534
 N70 N 0.31735 0.11408 -0.07562
 N71 N 0.33111 0.14329 -0.06184
 C72 C 0.31213 0.15188 -0.03227
 C73 C 0.28510 0.12684 -0.02722
 C74 C 0.28927 0.10335 -0.05521
 H75 H 0.31766 0.17465 -0.01574
 H76 H 0.27287 0.08010 -0.06014
 H77 H 0.38244 0.11673 -0.10071
 H78 H 0.34991 0.14483 -0.12663
 N79 N 0.08997 0.80627 0.38867
 N80 N 0.07622 0.82100 0.36019
 C81 C 0.04781 0.80152 0.34960
 C82 C 0.04345 0.77303 0.37266
 C83 C 0.07081 0.77695 0.39720
 H84 H 0.03115 0.80761 0.32699
 H85 H 0.07637 0.76019 0.41980
 Cu86 Cu 0.09637 0.86463 0.34035
 Cu87 Cu 0.13123 0.82658 0.41309
 Cu88 Cu 0.16807 0.90389 0.37739
 N89 N 0.11735 0.90782 0.32038
 N90 N 0.14544 0.92301 0.33502
 C91 C 0.15405 0.95270 0.31672
 C92 C 0.13001 0.95638 0.28905
 C93 C 0.10716 0.92737 0.29221
 H94 H 0.17589 0.97039 0.32347
 H95 H 0.08452 0.92141 0.27535
 N96 N 0.18708 0.88048 0.42013
 N97 N 0.17299 0.85118 0.43385
 C98 C 0.19115 0.84253 0.46341
 C99 C 0.21794 0.86764 0.46855
 C100 C 0.21456 0.89119 0.44057
 H101 H 0.18490 0.81995 0.48014
 H102 H 0.23071 0.91476 0.43597
 H103 H 0.12232 0.87897 0.39746
 H104 H 0.15378 0.85120 0.36931
 C105 C 0.09366 0.11827 0.15810
 C106 C 0.06668 0.14525 0.15760
 C107 C 0.06731 0.17247 0.13174
 C108 C 0.09505 0.17138 0.10566
 C109 C 0.12215 0.14458 0.10584
 C110 C 0.12152 0.11798 0.13218
 C111 C 0.09319 0.09167 0.18432
 C112 C 0.12010 0.06438 0.18495
 C113 C 0.14823 0.06500 0.15929
 C114 C 0.14892 0.09125 0.13279
 C115 C 0.17671 0.09117 0.10700
 C116 C 0.17721 0.11714 0.07992
 C117 C 0.14994 0.14408 0.08010
 H118 H 0.04515 0.14419 0.17718
 H119 H 0.09546 0.19161 0.08510
 H120 H 0.07217 0.09317 0.20446
 H121 H 0.16970 0.04480 0.15999
 H122 H 0.19791 0.07100 0.10879
 H123 H 0.15049 0.16483 0.06006
 C124 C 0.39841 0.88187 0.65881
 C125 C 0.42615 0.85566 0.65922
 C126 C 0.42739 0.82796 0.63390
 C127 C 0.40087 0.82789 0.60734
 C128 C 0.37317 0.85406 0.60649
 C129 C 0.37181 0.88104 0.63241
 C130 C 0.39697 0.90901 0.68441
 C131 C 0.36878 0.93499 0.68474
 C132 C 0.34284 0.93427 0.65765
 C133 C 0.34407 0.90743 0.63173
 C134 C 0.31794 0.90676 0.60505
 C135 C 0.31932 0.88027 0.57851
 C136 C 0.34690 0.85371 0.57999
 H137 H 0.44674 0.85761 0.67913
 H138 H 0.40199 0.80736 0.58712
 H139 H 0.41787 0.90991 0.70430
 H140 H 0.32205 0.95487 0.65581
 H141 H 0.29646 0.92673 0.60580
 H142 H 0.34787 0.83266 0.56027
 C143 C 0.90160 0.62125 0.34051
 C144 C 0.93027 0.64572 0.33951
 C145 C 0.93293 0.67264 0.36542
 C146 C 0.90682 0.67374 0.39302
 C147 C 0.87800 0.64954 0.39428
 C148 C 0.87530 0.62326 0.36786
 C149 C 0.89911 0.59454 0.31471
 C150 C 0.87043 0.56986 0.31533
 C151 C 0.84466 0.57180 0.34325
 C152 C 0.84683 0.59841 0.36927
 C153 C 0.82109 0.60029 0.39694
 C154 C 0.82284 0.62704 0.42308
 C155 C 0.85207 0.65111 0.42180
 H156 H 0.95052 0.64292 0.31878
 H157 H 0.90904 0.69367 0.41366
 H158 H 0.91973 0.59275 0.29401
 H159 H 0.82322 0.55247 0.34561
 H160 H 0.79953 0.58078 0.39823
 H161 H 0.85554 0.67074 0.44233
 C162 C 0.60001 0.38048 -0.15754
 C163 C 0.57192 0.35540 -0.15840
 C164 C 0.56966 0.32795 -0.13287
 C165 C 0.59568 0.32683 -0.10587
 C166 C 0.62389 0.35167 -0.10473
 C167 C 0.62614 0.37855 -0.13073
 C168 C 0.60211 0.40771 -0.18298
 C169 C 0.63026 0.43296 -0.18255
 C170 C 0.65581 0.43110 -0.15510
 C171 C 0.65403 0.40399 -0.12945
 C172 C 0.67960 0.40216 -0.10232
 C173 C 0.67825 0.37492 -0.07655
 C174 C 0.64966 0.35015 -0.07774
 H175 H 0.55184 0.35809 -0.17877
 H176 H 0.59383 0.30638 -0.08559
 H177 H 0.58163 0.40941 -0.20328
 H178 H 0.67680 0.45085 -0.15284
 H179 H 0.70075 0.42207 -0.10115
 H180 H 0.64654 0.32996 -0.05757
 C181 C -0.01022 0.25343 0.12244
 C182 C 0.02930 0.26644 0.12198
 C183 C 0.05454 0.23978 0.12612
 C184 C 0.03832 0.20211 0.12994
 C185 C 0.01125 0.20596 0.16137
 C186 C -0.01407 0.23252 0.15722
 C187 C -0.01117 0.22456 0.09343
 C188 C 0.01407 0.19793 0.09747
 H189 H 0.03684 0.29431 0.11907
 H190 H 0.08348 0.24512 0.12704
 H191 H 0.01251 0.19115 0.18589
 H192 H -0.03421 0.23893 0.17759
 H193 H -0.02976 0.22459 0.07147
 H194 H 0.01654 0.17567 0.07912
 C195 C 0.50741 0.74900 0.62704
 C196 C 0.50915 0.77037 0.66156
 C197 C 0.48297 0.79634 0.66494
 C198 C 0.45723 0.79908 0.63304
 C199 C 0.48283 0.80349 0.60090
 C200 C 0.50893 0.77747 0.59769
 C201 C 0.46837 0.73490 0.62620
 C202 C 0.44223 0.76092 0.62954
 H203 H 0.52852 0.76462 0.68229
 H204 H 0.48018 0.81146 0.68921
 H205 H 0.48068 0.82550 0.58226
 H206 H 0.52870 0.77760 0.57620
 H207 H 0.46182 0.70676 0.62368
 H208 H 0.41343 0.75480 0.63016
 C209 C 1.01571 0.74653 0.37100
 C210 C 1.01657 0.71720 0.39964
 C211 C 0.98956 0.69288 0.39680
 C212 C 0.96380 0.69960 0.36575
 C213 C 0.95015 0.73850 0.37067
 C214 C 0.97713 0.76285 0.37365
 C215 C 1.01634 0.72584 0.33592
 C216 C 0.98925 0.70155 0.33296
 H217 H 1.03662 0.71504 0.42027
 H218 H 0.98695 0.67046 0.41490
 H219 H 0.92158 0.74633 0.37130
 H220 H 0.97145 0.79126 0.37714
 H221 H 1.03573 0.73075 0.31461
 H222 H 0.98578 0.68705 0.30855
 C223 C 0.48890 0.25187 -0.12667
 C224 C 0.48778 0.27994 -0.09695
 C225 C 0.51406 0.30508 -0.09998
 C226 C 0.53945 0.30027 -0.13232
 C227 C 0.55414 0.26153 -0.12941
 C228 C 0.52782 0.23640 -0.12625
 C229 C 0.48710 0.27386 -0.16089
 C230 C 0.51346 0.29898 -0.16408
 H231 H 0.46804 0.28053 -0.07542
 H232 H 0.51642 0.32679 -0.08113
 H233 H 0.58289 0.25442 -0.13022
 H234 H 0.53416 0.20800 -0.12411
 H235 H 0.46741 0.26927 -0.18146
 H236 H 0.51596 0.31465 -0.18800
 C237 C 0.12753 -0.01431 0.26170
 C238 C 0.09078 0.00573 0.26287
 C239 C 0.08719 0.03152 0.23768
 C240 C 0.12113 0.03547 0.21347
 C241 C 0.15272 0.04110 0.23900
 C242 C 0.15614 0.01524 0.26410
 C243 C 0.13105 -0.02840 0.22371
 C244 C 0.12749 -0.00255 0.19857
 H245 H 0.06877 -0.00087 0.28105
 H246 H 0.06148 0.04555 0.23443
 H247 H 0.17088 0.06376 0.23751
 H248 H 0.17735 0.01616 0.28367
 H249 H 0.13541 -0.05644 0.21712
 H250 H 0.12849 -0.00873 0.17056
 C251 C 0.62653 0.51216 -0.25914
 C252 C 0.66222 0.51227 -0.23844
 C253 C 0.66459 0.48627 -0.21330
 C254 C 0.63063 0.46237 -0.21059
 C255 C 0.59860 0.48886 -0.20541
 C256 C 0.59634 0.51476 -0.23058
 C257 C 0.62397 0.47383 -0.27360
 C258 C 0.62638 0.44793 -0.24840
 H259 H 0.68444 0.53040 -0.24399
 H260 H 0.68948 0.48234 -0.19876
 H261 H 0.57930 0.48741 -0.18351
 H262 H 0.57490 0.53496 -0.22970
 H263 H 0.62102 0.46751 -0.30139
 H264 H 0.62583 0.41963 -0.25489
 C265 C 0.37261 1.01405 0.76111
 C266 C 0.33590 1.01328 0.74228
 C267 C 0.33359 0.98721 0.71736
 C268 C 0.36865 0.96420 0.71292
 C269 C 0.39899 0.99142 0.70620
 C270 C 0.40113 1.01739 0.73123
 C271 C 0.37792 0.97588 0.77548
 C272 C 0.37561 0.94988 0.75047
 H273 H 0.31298 1.03069 0.74918
 H274 H 0.30805 0.98230 0.70442
 H275 H 0.41727 0.99038 0.68344
 H276 H 0.42135 1.03820 0.72952
 H277 H 0.38245 0.96977 0.80312
 H278 H 0.37779 0.92162 0.75700
 C279 C 0.87356 0.49165 0.23788
 C280 C 0.83768 0.49181 0.25914
 C281 C 0.83547 0.51751 0.28461
 C282 C 0.86980 0.54084 0.28698
 C283 C 0.90136 0.51379 0.29131
 C284 C 0.90341 0.48820 0.26582
 C285 C 0.87683 0.53004 0.22373
 C286 C 0.87463 0.55568 0.24923
 H287 H 0.81525 0.47412 0.25366
 H288 H 0.81049 0.52166 0.29960
 H289 H 0.92048 0.51462 0.31290
 H290 H 0.92442 0.46756 0.26599
 H291 H 0.88004 0.53655 0.19592
 H292 H 0.87565 0.58404 0.24300
 C293 C 0.25686 0.12449 0.00196
 C294 C 0.21775 0.12593 -0.01181
 C295 C 0.19176 0.12242 0.01386
 C296 C 0.20695 0.11820 0.05139
 C297 C 0.23326 0.08562 0.04822
 C298 C 0.25930 0.08916 0.02259
 C299 C 0.25795 0.15385 0.03038
 C300 C 0.23198 0.15049 0.05606
 H301 H 0.21106 0.12894 -0.03950
 H302 H 0.16295 0.12213 0.00789
 H303 H 0.23091 0.06080 0.06278
 H304 H 0.27901 0.06802 0.01660
 H305 H 0.27738 0.17541 0.03073
 H306 H 0.22956 0.16910 0.07801
 C307 C 0.74538 0.62424 0.50344
 C308 C 0.72960 0.62202 0.46618
 C309 C 0.75506 0.62399 0.43982
 C310 C 0.79440 0.62756 0.45287
 C311 C 0.79256 0.66100 0.47691
 C312 C 0.76718 0.65901 0.50333
 C313 C 0.77432 0.59412 0.50473
 C314 C 0.79978 0.59593 0.47839
 H315 H 0.70075 0.61970 0.46094
 H316 H 0.74773 0.62371 0.41215
 H317 H 0.80756 0.68541 0.47261
 H318 H 0.76194 0.68099 0.52153
 H319 H 0.77510 0.57309 0.52445
 H320 H 0.82199 0.57656 0.47598
 C321 C 0.75563 0.37817 0.00182
 C322 C 0.72666 0.40826 0.00367
 C323 C 0.70118 0.40627 -0.02196
 C324 C 0.70659 0.37451 -0.04742
 C325 C 0.74592 0.37806 -0.06154
 C326 C 0.77139 0.38020 -0.03588
 C327 C 0.73385 0.34338 0.00256
 C328 C 0.70845 0.34121 -0.02315
 H329 H 0.72584 0.42939 0.02327
 H330 H 0.67892 0.42558 -0.02390
 H331 H 0.75322 0.37829 -0.08941
 H332 H 0.80023 0.38257 -0.04191
 H333 H 0.73906 0.32155 0.02085
 H334 H 0.69339 0.31681 -0.02670
 C335 C 0.24449 0.87067 0.49841
 C336 C 0.24236 0.84149 0.52703
 C337 C 0.26673 0.84558 0.55341
 C338 C 0.29132 0.87836 0.54916
 C339 C 0.30877 0.87415 0.51212
 C340 C 0.28438 0.86994 0.48576
 C341 C 0.24011 0.90609 0.51864
 C342 C 0.26454 0.91036 0.54494
 H343 H 0.22347 0.81946 0.52697
 H344 H 0.26828 0.82715 0.57554
 H345 H 0.33789 0.87493 0.50699
 H346 H 0.29273 0.86683 0.45831
 H347 H 0.22033 0.92678 0.51193
 H348 H 0.26546 0.93536 0.55928
   
