data_POSCAR
  _audit_creation_date              2014-09-24
  _audit_creation_method            'ToBaCCo'
  _symmetry_space_group_name_H-M    'P1'
  _symmetry_Int_Tables_number       1
  _symmetry_cell_setting            triclinic
  loop_
  _symmetry_equiv_pos_as_xyz
 x,y,z
_cell_length_a 47.3134
_cell_length_b 46.9500
_cell_length_c 46.8617
_cell_angle_alpha 88.643600
_cell_angle_beta 89.359300
_cell_angle_gamma 87.530900
loop_
  _atom_site_label
  _atom_site_type_symbol
  _atom_site_fract_x
  _atom_site_fract_y
  _atom_site_fract_z
C1 C 0.75572 0.62132 0.99251
 C2 C 0.74725 0.37651 0.50378
 C3 C 0.23889 -0.12413 0.01554
 C4 C 0.26108 0.12859 0.50683
 C5 C 0.12341 0.49764 0.25790
 C6 C -0.12509 0.01483 0.24798
 C7 C 0.37253 0.49865 0.75579
 C8 C 0.62032 0.98457 0.75887
 C9 C -0.00160 0.25215 -0.12847
 C10 C 0.49310 0.25151 0.11873
 C11 C 1.01038 0.76064 0.60786
 C12 C 0.51234 0.74435 0.37411
 C13 C 0.42015 -0.03128 0.28104
 H14 H 0.42230 -0.01168 0.29216
 C15 C 0.43446 -0.05602 0.29107
 H16 H 0.44747 -0.05502 0.30986
 C17 C 0.40020 -0.05658 0.24364
 H18 H 0.38654 -0.05682 0.22534
 C19 C 0.41445 -0.08185 0.25278
 H20 H 0.41140 -0.10134 0.24153
 N21 N 0.40251 -0.03214 0.25840
 C22 C 0.38427 0.05715 0.23634
 H23 H 0.36232 0.05833 0.24309
 C24 C 0.39737 0.08180 0.22725
 H25 H 0.38517 0.10185 0.22692
 C26 C 0.42649 0.02925 0.22855
 H27 H 0.43763 0.00865 0.22924
 C28 C 0.44040 0.05346 0.21888
 H29 H 0.46232 0.05130 0.21210
 Zn30 Zn 0.37822 0.00039 0.25040
 N31 N 0.39887 0.03159 0.23684
 C32 C 0.37726 0.02678 0.30251
 N33 N 0.36055 0.01217 0.28511
 C34 C 0.33321 0.00735 0.29246
 C35 C 0.32205 0.01684 0.31857
 C36 C 0.36707 0.03655 0.32863
 C37 C 0.35254 0.00511 0.19642
 C38 C 0.33581 -0.00315 0.17399
 C39 C 0.31643 -0.03919 0.20520
 C40 C 0.33369 -0.03032 0.22705
 N41 N 0.35154 -0.00871 0.22225
 H42 H 0.39858 0.03133 0.29590
 H43 H 0.31996 -0.00372 0.27819
 H44 H 0.30029 0.01280 0.32409
 H45 H 0.38097 0.04814 0.34191
 H46 H 0.36711 0.02192 0.19274
 H47 H 0.33756 0.00773 0.15346
 H48 H 0.30303 -0.05699 0.20926
 H49 H 0.33375 -0.04154 0.24748
 C50 C 0.42576 0.08019 0.21821
 C51 C 0.43101 -0.08192 0.27743
 C52 C 0.31780 -0.02591 0.17805
 C53 C 0.33914 0.03161 0.33708
 C54 C 0.08339 1.02460 0.78443
 H55 H 0.08245 1.00433 0.79579
 C56 C 0.06731 1.04823 0.79411
 H57 H 0.05374 1.04575 0.81268
 C58 C 0.10361 1.05287 0.74768
 H59 H 0.11849 1.05506 0.73024
 C60 C 0.08776 1.07689 0.75643
 H61 H 0.09052 1.09703 0.74523
 N62 N 0.10154 1.02742 0.76190
 C63 C 0.12604 0.94473 0.72684
 H64 H 0.14791 0.94920 0.72262
 C65 C 0.11526 0.92003 0.71630
 H66 H 0.12934 0.90559 0.70465
 C67 C 0.08110 0.95927 0.74540
 H68 H 0.06778 0.97487 0.75631
 C69 C 0.06929 0.93468 0.73500
 H70 H 0.04693 0.93157 0.73820
 Zn71 Zn 0.12756 0.99690 0.75225
 N72 N 0.10913 0.96370 0.74129
 C73 C 0.16883 0.96404 0.78341
 N74 N 0.15133 0.98778 0.78409
 C75 C 0.14915 1.00379 0.80794
 C76 C 0.16338 0.99505 0.83285
 C77 C 0.18331 0.95446 0.80782
 C78 C 0.13398 1.01164 0.69547
 C79 C 0.14712 1.02070 0.67036
 C80 C 0.19122 1.02172 0.69580
 C81 C 0.17710 1.01274 0.72064
 N82 N 0.14890 1.00830 0.72001
 H83 H 0.17092 0.95185 0.76425
 H84 H 0.13576 1.02300 0.80802
 H85 H 0.16045 1.00753 0.85187
 H86 H 0.19628 0.93493 0.80696
 H87 H 0.11163 1.00766 0.69560
 H88 H 0.13461 1.02362 0.65123
 H89 H 0.21355 1.02573 0.69669
 H90 H 0.18851 1.00971 0.74042
 C91 C 0.08650 0.91471 0.72011
 C92 C 0.06983 1.07498 0.78037
 C93 C 0.17604 1.02618 0.67032
 C94 C 0.18004 0.96957 0.83323
 C95 C 0.58605 0.52350 0.26996
 H96 H 0.57912 0.50319 0.27811
 C97 C 0.57329 0.54887 0.27996
 H98 H 0.55634 0.54793 0.29563
 C99 C 0.61758 0.54957 0.24086
 H100 H 0.63530 0.54983 0.22614
 C101 C 0.60596 0.57530 0.25080
 H102 H 0.61456 0.59514 0.24322
 N103 N 0.60760 0.52431 0.25053
 C104 C 0.61762 0.43807 0.21767
 H105 H 0.64051 0.43710 0.21748
 C106 C 0.60306 0.41471 0.20908
 H107 H 0.61497 0.39586 0.20214
 C108 C 0.57459 0.46415 0.22674
 H109 H 0.56364 0.48360 0.23335
 C110 C 0.55905 0.44130 0.21769
 H111 H 0.53617 0.44322 0.21774
 Zn112 Zn 0.62747 0.49051 0.23892
 N113 N 0.60338 0.46186 0.22706
 C114 C 0.64374 0.45020 0.28164
 N115 N 0.64945 0.47629 0.27030
 C116 C 0.66867 0.49284 0.28257
 C117 C 0.68302 0.48315 0.30722
 C118 C 0.65788 0.43956 0.30575
 C119 C 0.67823 0.49852 0.20467
 C120 C 0.69182 0.50651 0.17911
 C121 C 0.64593 0.51523 0.15768
 C122 C 0.63338 0.50727 0.18342
 N123 N 0.64947 0.49946 0.20633
 H124 H 0.62759 0.43776 0.27262
 H125 H 0.67240 0.51379 0.27356
 H126 H 0.69802 0.49665 0.31694
 H127 H 0.65263 0.41883 0.31439
 H128 H 0.69059 0.49197 0.22314
 H129 H 0.71470 0.50622 0.17817
 H130 H 0.63242 0.52170 0.13998
 H131 H 0.61056 0.50764 0.18537
 C132 C 0.57340 0.41602 0.20918
 C133 C 0.58360 0.57515 0.27064
 C134 C 0.67553 0.51529 0.15525
 C135 C 0.67764 0.45611 0.31906
 C136 C 0.92861 0.47848 0.76612
 H137 H 0.93045 0.49873 0.77635
 C138 C 0.94372 0.45424 0.77664
 H139 H 0.95733 0.45616 0.79485
 C140 C 0.90729 0.45113 0.73109
 H141 H 0.89252 0.44973 0.71383
 C142 C 0.92188 0.42645 0.74091
 H143 H 0.91830 0.40647 0.73074
 N144 N 0.91056 0.47644 0.74395
 C145 C 0.88963 0.55967 0.70487
 H146 H 0.86712 0.55693 0.70336
 C147 C 0.90115 0.58449 0.69400
 H148 H 0.88722 0.60057 0.68398
 C149 C 0.93467 0.54192 0.72035
 H150 H 0.94755 0.52527 0.73077
 C151 C 0.94716 0.56665 0.70981
 H152 H 0.96971 0.56874 0.71212
 Zn153 Zn 0.88632 0.50809 0.73341
 N154 N 0.90629 0.53916 0.71803
 C155 C 0.86897 0.54791 0.77438
 N156 N 0.86633 0.52044 0.76662
 C157 C 0.85166 0.50192 0.78328
 C158 C 0.83887 0.51099 0.80885
 C159 C 0.85649 0.55783 0.79945
 C160 C 0.87388 0.49454 0.67814
 C161 C 0.85805 0.48660 0.65498
 C162 C 0.81716 0.48407 0.68615
 C163 C 0.83377 0.49253 0.70876
 N164 N 0.86169 0.49720 0.70439
 H165 H 0.88126 0.56223 0.76150
 H166 H 0.85033 0.48001 0.77698
 H167 H 0.82744 0.49597 0.82196
 H168 H 0.85920 0.57979 0.80502
 H169 H 0.89610 0.49846 0.67527
 H170 H 0.86841 0.48431 0.63440
 H171 H 0.79508 0.48000 0.69001
 H172 H 0.82445 0.49504 0.72975
 C173 C 0.93023 0.58845 0.69663
 C174 C 0.93996 0.42763 0.76437
 C175 C 0.82935 0.48095 0.65883
 C176 C 0.84132 0.53933 0.81723
 C177 C 0.26023 0.42177 -0.02984
 H178 H 0.26842 0.42592 -0.00895
 C179 C 0.26880 0.43795 -0.05353
 H180 H 0.28359 0.45457 -0.05057
 C181 C 0.23199 0.39417 -0.05904
 H182 H 0.21782 0.37697 -0.06121
 C183 C 0.24015 0.40967 -0.08332
 H184 H 0.23213 0.40409 -0.10391
 N185 N 0.24283 0.39980 -0.03310
 C186 C 0.24224 0.39325 0.05579
 H187 H 0.25932 0.37731 0.05671
 C188 C 0.23473 0.40809 0.08035
 H189 H 0.24610 0.40311 0.09989
 C190 C 0.20679 0.41902 0.02938
 H191 H 0.19589 0.42297 0.00940
 C192 C 0.19860 0.43445 0.05347
 H193 H 0.18126 0.45019 0.05182
 Zn194 Zn 0.23614 0.37552 -0.00105
 N195 N 0.22770 0.39827 0.03117
 C196 C 0.29394 0.35812 -0.00702
 N197 N 0.26909 0.35212 0.00622
 C198 C 0.26766 0.33043 0.02586
 C199 C 0.29222 0.31498 0.03422
 C200 C 0.31898 0.34334 0.00078
 C201 C 0.18002 0.35665 0.00446
 C202 C 0.15685 0.34117 -0.00321
 C203 C 0.18720 0.31469 -0.03584
 C204 C 0.20976 0.33082 -0.02766
 N205 N 0.20563 0.35190 -0.00846
 H206 H 0.29465 0.37500 -0.02299
 H207 H 0.24758 0.32591 0.03587
 H208 H 0.29076 0.29855 0.05070
 H209 H 0.33865 0.34918 -0.00935
 H210 H 0.17720 0.37297 0.02018
 H211 H 0.13646 0.34597 0.00668
 H212 H 0.19077 0.29873 -0.05193
 H213 H 0.23043 0.32719 -0.03734
 C214 C 0.21222 0.42856 0.07959
 C215 C 0.25941 0.43139 -0.08086
 C216 C 0.16013 0.32031 -0.02410
 C217 C 0.31845 0.32194 0.02218
 C218 C 0.78435 0.09559 1.01895
 H219 H 0.79566 0.09473 0.99878
 C220 C 0.79623 0.08247 1.04335
 H221 H 0.81667 0.07132 1.04165
 C222 C 0.74445 0.11219 1.04574
 H223 H 0.72457 0.12433 1.04678
 C224 C 0.75544 0.09927 1.07058
 H225 H 0.74367 0.10152 1.09040
 N226 N 0.75903 0.11031 1.02063
 C227 C 0.72281 0.12000 0.93576
 H228 H 0.71953 0.14296 0.93523
 C229 C 0.71474 0.10424 0.91267
 H230 H 0.70508 0.11525 0.89444
 C231 C 0.73904 0.07794 0.96056
 H232 H 0.74847 0.06788 0.97935
 C233 C 0.73061 0.06119 0.93809
 H234 H 0.73370 0.03822 0.93965
 Zn235 Zn 0.74566 0.13121 0.98814
 N236 N 0.73530 0.10682 0.95879
 C237 C 0.78370 0.15256 0.94707
 N238 N 0.77498 0.15468 0.97471
 C239 C 0.78835 0.17158 0.99305
 C240 C 0.81147 0.18714 0.98367
 C241 C 0.80615 0.16807 0.93673
 C242 C 0.68879 0.13764 1.00090
 C243 C 0.66317 0.15103 1.00882
 C244 C 0.68676 0.19557 1.01092
 C245 C 0.71199 0.18131 1.00252
 N246 N 0.71255 0.15276 0.99813
 H247 H 0.77379 0.13835 0.93293
 H248 H 0.78146 0.17246 1.01511
 H249 H 0.82215 0.20019 0.99855
 H250 H 0.81274 0.16569 0.91467
 H251 H 0.68987 0.11495 0.99726
 H252 H 0.64468 0.13836 1.01132
 H253 H 0.68672 0.21820 1.01488
 H254 H 0.73111 0.19294 0.99999
 C255 C 0.71862 0.07447 0.91363
 C256 C 0.78189 0.08454 1.06972
 C257 C 0.66196 0.18031 1.01432
 C258 C 0.82056 0.18545 0.95509
 C259 C 0.29157 0.57981 0.52468
 H260 H 0.30212 0.57525 0.50460
 C261 C 0.29994 0.56490 0.54957
 H262 H 0.31694 0.54877 0.54837
 C263 C 0.25742 0.60731 0.55070
 H264 H 0.24142 0.62441 0.55127
 C265 C 0.26518 0.59306 0.57605
 H266 H 0.25464 0.59916 0.59574
 N267 N 0.27070 0.60061 0.52571
 C268 C 0.24792 0.61443 0.43660
 H269 H 0.25130 0.63707 0.43518
 C270 C 0.23865 0.60038 0.41285
 H271 H 0.23493 0.61246 0.39319
 C272 C 0.24783 0.57167 0.46454
 H273 H 0.25097 0.56079 0.48491
 C274 C 0.23803 0.55680 0.44133
 H275 H 0.23395 0.53437 0.44397
 Zn276 Zn 0.26246 0.62281 0.49241
 N277 N 0.25241 0.60001 0.46173
 C278 C 0.31181 0.63040 0.46109
 N279 N 0.29562 0.64217 0.48225
 C280 C 0.30475 0.66444 0.49727
 C281 C 0.33075 0.67629 0.49042
 C282 C 0.33795 0.64117 0.45393
 C283 C 0.20672 0.63163 0.50440
 C284 C 0.18092 0.64527 0.51096
 C285 C 0.20311 0.69055 0.50617
 C286 C 0.22874 0.67587 0.49951
 N287 N 0.23010 0.64685 0.49939
 H288 H 0.30492 0.61194 0.45022
 H289 H 0.29215 0.67266 0.51487
 H290 H 0.33777 0.69401 0.50249
 H291 H 0.35037 0.63127 0.43702
 H292 H 0.20834 0.60859 0.50383
 H293 H 0.16288 0.63238 0.51537
 H294 H 0.20242 0.71360 0.50686
 H295 H 0.24740 0.68765 0.49477
 C296 C 0.23320 0.57126 0.41510
 C297 C 0.28695 0.57177 0.57579
 C298 C 0.17885 0.67511 0.51240
 C299 C 0.34780 0.66439 0.46863
 C300 C 0.77657 0.93175 0.46779
 H301 H 0.78597 0.93391 0.48852
 C302 C 0.78490 0.94914 0.44479
 H303 H 0.80065 0.96474 0.44813
 C304 C 0.74581 0.90766 0.43798
 H305 H 0.73133 0.89087 0.43501
 C306 C 0.75346 0.92453 0.41452
 H307 H 0.74431 0.92063 0.39398
 N308 N 0.75746 0.91138 0.46396
 C309 C 0.72600 0.88469 0.54743
 H310 H 0.72854 0.86202 0.54394
 C311 C 0.71442 0.89438 0.57297
 H312 H 0.70810 0.87886 0.58899
 C313 C 0.73143 0.93210 0.53037
 H314 H 0.73796 0.94661 0.51355
 C315 C 0.72003 0.94282 0.55592
 H316 H 0.71784 0.96566 0.55856
 Zn317 Zn 0.74955 0.88526 0.49418
 N318 N 0.73433 0.90343 0.52682
 C319 C 0.79575 0.87377 0.52941
 N320 N 0.78409 0.86589 0.50456
 C321 C 0.79817 0.84735 0.48695
 C322 C 0.82491 0.83562 0.49447
 C323 C 0.82239 0.86301 0.53746
 C324 C 0.69611 0.87515 0.47760
 C325 C 0.67300 0.86091 0.46810
 C326 C 0.70123 0.81680 0.47019
 C327 C 0.72412 0.83208 0.47957
 N328 N 0.72121 0.86085 0.48251
 H329 H 0.78483 0.88922 0.54273
 H330 H 0.78889 0.84206 0.46686
 H331 H 0.83596 0.82101 0.48023
 H332 H 0.83116 0.86988 0.55728
 H333 H 0.69428 0.89793 0.48061
 H334 H 0.65344 0.87305 0.46391
 H335 H 0.70389 0.79402 0.46735
 H336 H 0.74409 0.82102 0.48424
 C337 C 0.71132 0.92378 0.57759
 C338 C 0.77362 0.94529 0.41758
 C339 C 0.67539 0.83142 0.46389
 C340 C 0.83744 0.84379 0.51991
 C341 C -0.02811 0.27858 0.42905
 H342 H -0.00871 0.28977 0.43059
 C343 C -0.05192 0.28763 0.44493
 H344 H -0.05039 0.30554 0.45888
 C345 C -0.05419 0.24305 0.40753
 H346 H -0.05534 0.22610 0.39248
 C347 C -0.07845 0.25144 0.42287
 H348 H -0.09781 0.24056 0.41952
 N349 N -0.02974 0.25690 0.41044
 C350 C 0.05366 0.22000 0.38893
 H351 H 0.04857 0.21435 0.36743
 C352 C 0.07993 0.21153 0.39995
 H353 H 0.09473 0.19957 0.38657
 C354 C 0.04014 0.24182 0.43231
 H355 H 0.02460 0.25363 0.44486
 C356 C 0.06634 0.23362 0.44433
 H357 H 0.07062 0.23925 0.46608
 Zn358 Zn 0.00096 0.24733 0.38526
 N359 N 0.03449 0.23526 0.40486
 C360 C 0.03187 0.27620 0.34325
 N361 N 0.00955 0.27931 0.36160
 C362 C -0.00474 0.30493 0.36419
 C363 C 0.00445 0.32904 0.34927
 C364 C 0.04179 0.29965 0.32804
 C365 C -0.00924 0.19049 0.37530
 C366 C -0.01677 0.16694 0.35999
 C367 C -0.02428 0.19789 0.31857
 C368 C -0.01632 0.22088 0.33465
 N369 N -0.00922 0.21678 0.36252
 H370 H 0.04254 0.25563 0.34089
 H371 H -0.02282 0.30696 0.37835
 H372 H -0.00659 0.34942 0.35239
 H373 H 0.06014 0.29670 0.31425
 H374 H -0.00353 0.18792 0.39753
 H375 H -0.01693 0.14627 0.37073
 H376 H -0.03025 0.20159 0.29651
 H377 H -0.01623 0.24203 0.32501
 C378 C 0.08676 0.21854 0.42791
 C379 C -0.07772 0.27439 0.44145
 C380 C -0.02468 0.17049 0.33129
 C381 C 0.02853 0.32668 0.33153
 C382 C 1.01523 0.78719 0.09519
 H383 H 0.99513 0.79908 0.09565
 C384 C 1.03839 0.79851 0.08075
 H385 H 1.03578 0.81904 0.06987
 C386 C 1.04333 0.74669 0.11012
 H387 H 1.04546 0.72687 0.12220
 C388 C 1.06691 0.75707 0.09582
 H389 H 1.08681 0.74486 0.09698
 N390 N 1.01822 0.76193 0.10986
 C391 C 0.93809 0.72292 0.12789
 H392 H 0.94113 0.71927 0.15055
 C393 C 0.91433 0.71286 0.11489
 H394 H 0.89930 0.70139 0.12783
 C395 C 0.95435 0.74238 0.08388
 H396 H 0.97013 0.75385 0.07199
 C397 C 0.93071 0.73264 0.06989
 H398 H 0.92852 0.73667 0.04717
 Zn399 Zn 0.98823 0.74983 0.13367
 N400 N 0.95739 0.73755 0.11244
 C401 C 0.94758 0.78819 0.15693
 N402 N 0.97568 0.78085 0.15643
 C403 C 0.99465 0.79670 0.16995
 C404 C 0.98549 0.82133 0.18432
 C405 C 0.93754 0.81220 0.17128
 C406 C 1.00296 0.69292 0.14271
 C407 C 1.01179 0.66803 0.15731
 C408 C 1.01706 0.69549 0.19977
 C409 C 1.00761 0.71994 0.18439
 N410 N 1.00107 0.71819 0.15631
 H411 H 0.93278 0.77589 0.14565
 H412 H 1.01696 0.79068 0.16887
 H413 H 1.00088 0.83405 0.19449
 H414 H 0.91508 0.81766 0.17088
 H415 H 0.99761 0.69219 0.12037
 H416 H 1.01334 0.64824 0.14588
 H417 H 1.02254 0.69718 0.22202
 H418 H 1.00576 0.74025 0.19477
 C419 C 0.91029 0.71768 0.08551
 C420 C 1.06482 0.78361 0.08139
 C421 C 1.01919 0.66910 0.18616
 C422 C 0.95655 0.82942 0.18488
 C423 C 0.52961 0.28289 0.59365
 H424 H 0.50922 0.29423 0.59333
 C425 C 0.55222 0.29372 0.57798
 H426 H 0.54877 0.31311 0.56531
 C427 C 0.55917 0.24497 0.61203
 H428 H 0.56208 0.22645 0.62597
 C429 C 0.58231 0.25495 0.59659
 H430 H 0.60267 0.24371 0.59870
 N431 N 0.53356 0.25928 0.61077
 C432 C 0.45128 0.22591 0.63277
 H433 H 0.45565 0.22029 0.65480
 C434 C 0.42619 0.21774 0.62082
 H435 H 0.41134 0.20649 0.63420
 C436 C 0.46638 0.24550 0.58845
 H437 H 0.48231 0.25583 0.57576
 C438 C 0.44143 0.23754 0.57549
 H439 H 0.43841 0.24208 0.55295
 Zn440 Zn 0.50419 0.24829 0.63637
 N441 N 0.47069 0.23982 0.61675
 C442 C 0.47414 0.27605 0.68139
 N443 N 0.49578 0.27845 0.66222
 C444 C 0.51025 0.30287 0.65998
 C445 C 0.50166 0.32674 0.67561
 C446 C 0.46498 0.29932 0.69761
 C447 C 0.51731 0.19035 0.64072
 C448 C 0.52461 0.16407 0.65365
 C449 C 0.52908 0.18778 0.69850
 C450 C 0.52147 0.21369 0.68468
 N451 N 0.51586 0.21444 0.65627
 H452 H 0.46336 0.25636 0.68365
 H453 H 0.52804 0.30429 0.64551
 H454 H 0.51283 0.34625 0.67261
 H455 H 0.44700 0.29717 0.71187
 H456 H 0.51258 0.19162 0.61818
 H457 H 0.52566 0.14523 0.64074
 H458 H 0.53359 0.18756 0.72110
 H459 H 0.52008 0.23315 0.69660
 C460 C 0.42094 0.22343 0.59179
 C461 C 0.57919 0.28006 0.57984
 C462 C 0.53066 0.16250 0.68292
 C463 C 0.47820 0.32540 0.69411
 C464 C 0.45878 0.75841 0.94313
 H465 H 0.47892 0.75544 0.95367
 C466 C 0.43479 0.76782 0.95868
 H467 H 0.43669 0.77214 0.98115
 C468 C 0.43163 0.75666 0.90107
 H469 H 0.43063 0.75256 0.87849
 C470 C 0.40720 0.76540 0.91579
 H471 H 0.38752 0.76808 0.90425
 N472 N 0.45677 0.75341 0.91475
 C473 C 0.53094 0.70151 0.90394
 H474 H 0.52017 0.68858 0.88919
 C475 C 0.55714 0.69168 0.91411
 H476 H 0.56548 0.67097 0.90758
 C477 C 0.53422 0.74472 0.92853
 H478 H 0.52563 0.76587 0.93308
 C479 C 0.56066 0.73552 0.93946
 H480 H 0.57208 0.74954 0.95277
 Zn481 Zn 0.48730 0.74152 0.89083
 N482 N 0.52000 0.72770 0.91099
 C483 C 0.52226 0.76835 0.85135
 N484 N 0.49844 0.77244 0.86746
 C485 C 0.48483 0.79850 0.86883
 C486 C 0.49554 0.82194 0.85401
 C487 C 0.53383 0.79120 0.83645
 C488 C 0.46457 0.68893 0.88364
 C489 C 0.45605 0.66504 0.86952
 C490 C 0.46563 0.68915 0.82452
 C491 C 0.47447 0.71251 0.83959
 N492 N 0.47419 0.71173 0.86863
 H493 H 0.53280 0.74745 0.85090
 H494 H 0.46615 0.80138 0.88211
 H495 H 0.48483 0.84266 0.85595
 H496 H 0.55322 0.78758 0.82432
 H497 H 0.46427 0.68908 0.90672
 H498 H 0.44894 0.64693 0.88195
 H499 H 0.46628 0.68986 0.80141
 H500 H 0.48182 0.73106 0.82812
 C501 C 0.57265 0.70889 0.93166
 C502 C 0.40857 0.77138 0.94491
 C503 C 0.45673 0.66484 0.83959
 C504 C 0.52072 0.81855 0.83806
 C505 C 0.47300 -0.18483 0.32996
 N506 N 0.47353 -0.18629 0.35885
 N507 N 0.48482 -0.20912 0.37242
 C508 C 0.49622 -0.23154 0.35776
 N509 N 0.49531 -0.23022 0.32871
 N510 N 0.48378 -0.20735 0.31506
 C511 C 0.46228 -0.15844 0.31564
 N512 N 0.45645 -0.15725 0.28730
 N513 N 0.44671 -0.13292 0.27493
 C514 C 0.44286 -0.10884 0.29036
 N515 N 0.44891 -0.11016 0.31860
 N516 N 0.45836 -0.13444 0.33098
 C517 C 0.98215 0.32570 0.81875
 N518 N 1.00024 0.32653 0.84093
 N519 N 1.00623 0.30320 0.85682
 C520 C 0.99433 0.27805 0.85132
 N521 N 0.97661 0.27723 0.82872
 N522 N 0.97068 0.30055 0.81275
 C523 C 0.97332 0.35202 0.80303
 N524 N 0.95526 0.35114 0.78082
 N525 N 0.94537 0.37513 0.76807
 C526 C 0.95301 0.40100 0.77706
 N527 N 0.97137 0.40181 0.79909
 N528 N 0.98135 0.37779 0.81181
 C529 C 0.02358 1.17622 0.82907
 N530 N 0.02429 1.20182 0.81497
 N531 N 0.01602 1.22582 0.82793
 C532 C 0.00675 1.22512 0.85552
 N533 N 0.00625 1.19944 0.86953
 N534 N 0.01439 1.17551 0.85657
 C535 C 0.03378 1.14977 0.81546
 N536 N 0.03222 1.12431 0.82964
 N537 N 0.04293 1.10045 0.81816
 C538 C 0.05568 1.10108 0.79205
 N539 N 0.05691 1.12656 0.77777
 N540 N 0.04614 1.15043 0.78921
 C541 C 0.54233 0.67725 0.32104
 N542 N 0.51422 0.68355 0.32393
 N543 N 0.50498 0.70547 0.33953
 C544 C 0.52345 0.72165 0.35336
 N545 N 0.55164 0.71576 0.34967
 N546 N 0.56089 0.69406 0.33376
 C547 C 0.55248 0.65148 0.30627
 N548 N 0.57980 0.64850 0.29737
 N549 N 0.58946 0.62441 0.28555
 C550 C 0.57231 0.60222 0.28258
 N551 N 0.54496 0.60521 0.29151
 N552 N 0.53519 0.62945 0.30302
 C553 C 0.51975 0.32053 0.16700
 N554 N 0.53289 0.29434 0.16942
 N555 N 0.52370 0.27251 0.15504
 C556 C 0.50113 0.27600 0.13743
 N557 N 0.48751 0.30211 0.13566
 N558 N 0.49665 0.32396 0.15015
 C559 C 0.53215 0.34509 0.18020
 N560 N 0.51897 0.37138 0.17914
 N561 N 0.53165 0.39394 0.18905
 C562 C 0.55809 0.39103 0.20010
 N563 N 0.57102 0.36465 0.20141
 N564 N 0.55830 0.34214 0.19172
 C565 C 0.04290 0.82069 0.66400
 N566 N 0.06049 0.80551 0.64644
 N567 N 0.05047 0.78619 0.62933
 C568 C 0.02238 0.78125 0.62895
 N569 N 0.00493 0.79580 0.64736
 N570 N 0.01495 0.81528 0.66441
 C571 C 0.05399 0.84382 0.68065
 N572 N 0.03648 0.86201 0.69540
 N573 N 0.04672 0.88425 0.70850
 C574 C 0.07484 0.88914 0.70730
 N575 N 0.09224 0.87064 0.69283
 N576 N 0.08205 0.84850 0.67976
 C577 C 0.97536 0.69062 0.65258
 N578 N 1.00294 0.69656 0.65584
 N579 N 1.01363 0.71917 0.64256
 C580 C 0.99722 0.73661 0.62531
 N581 N 0.96943 0.73096 0.62278
 N582 N 0.95874 0.70846 0.63613
 C583 C 0.96380 0.66459 0.66519
 N584 N 0.93614 0.65928 0.66163
 N585 N 0.92564 0.63518 0.67173
 C586 C 0.94234 0.61528 0.68570
 N587 N 0.97007 0.62064 0.68935
 N588 N 0.98061 0.64483 0.67925
 C589 C 0.47228 0.17963 0.17010
 N590 N 0.45896 0.20545 0.17400
 N591 N 0.46629 0.22818 0.15856
 C592 C 0.48710 0.22599 0.13837
 N593 N 0.50097 0.20025 0.13516
 N594 N 0.49368 0.17752 0.15066
 C595 C 0.46192 0.15404 0.18471
 N596 N 0.47478 0.12801 0.18064
 N597 N 0.46377 0.10454 0.19189
 C598 C 0.43937 0.10622 0.20745
 N599 N 0.42679 0.13235 0.21177
 N600 N 0.43783 0.15578 0.20065
 C601 C 0.31480 0.47751 -0.17778
 N602 N 0.33311 0.49857 -0.17446
 N603 N 0.35063 0.50577 -0.19557
 C604 C 0.35077 0.49211 -0.22084
 N605 N 0.33180 0.47154 -0.22439
 N606 N 0.31422 0.46432 -0.20324
 C607 C 0.29792 0.46755 -0.15333
 N608 N 0.28037 0.44567 -0.15589
 N609 N 0.26731 0.43487 -0.13299
 C610 C 0.27136 0.44544 -0.10666
 N611 N 0.28858 0.46765 -0.10427
 N612 N 0.30157 0.47851 -0.12714
 C613 C 0.82208 0.99652 0.31928
 N614 N 0.84336 1.01473 0.32167
 N615 N 0.85910 1.02161 0.29902
 C616 C 0.85437 1.01048 0.27303
 N617 N 0.83248 0.99287 0.27061
 N618 N 0.81666 0.98604 0.29325
 C619 C 0.80726 0.98588 0.34483
 N620 N 0.78679 0.96676 0.34241
 N621 N 0.77549 0.95464 0.36558
 C622 C 0.78425 0.96103 0.39211
 N623 N 0.80443 0.98057 0.39449
 N624 N 0.81571 0.99275 0.37130
 C625 C 0.83345 0.04316 1.17203
 N626 N 0.81896 0.04267 1.19722
 N627 N 0.83174 0.03378 1.22124
 C628 C 0.85954 0.02506 1.22098
 N629 N 0.87398 0.02584 1.19575
 N630 N 0.86120 0.03464 1.17177
 C631 C 0.81966 0.05307 1.14546
 N632 N 0.83416 0.05231 1.12031
 N633 N 0.82203 0.06188 1.09622
 C634 C 0.79491 0.07262 1.09630
 N635 N 0.78039 0.07321 1.12150
 N636 N 0.79249 0.06358 1.14561
 C637 C 0.33042 0.52461 0.67945
 N638 N 0.32342 0.53697 0.70461
 N639 N 0.33628 0.52836 0.72865
 C640 C 0.35667 0.50704 0.72850
 N641 N 0.36325 0.49441 0.70331
 N642 N 0.35045 0.50306 0.67928
 C643 C 0.31779 0.53547 0.65265
 N644 N 0.32721 0.52536 0.62720
 N645 N 0.31704 0.53648 0.60279
 C646 C 0.29701 0.55811 0.60287
 N647 N 0.28739 0.56793 0.62840
 N648 N 0.29760 0.55688 0.65281
 C649 C 0.17831 0.52212 0.32297
 N650 N 0.16020 0.50089 0.32796
 N651 N 0.14342 0.49262 0.30736
 C652 C 0.14412 0.50520 0.28092
 N653 N 0.16266 0.52611 0.27588
 N654 N 0.17935 0.53445 0.29651
 C655 C 0.19475 0.53319 0.34632
 N656 N 0.20893 0.55749 0.34236
 N657 N 0.22177 0.56910 0.36408
 C658 C 0.22106 0.55684 0.39062
 N659 N 0.20729 0.53221 0.39445
 N660 N 0.19431 0.52065 0.37273
 C661 C 0.67371 0.01507 0.82238
 N662 N 0.65751 -0.00752 0.82817
 N663 N 0.64156 -0.01792 0.80797
 C664 C 0.64128 -0.00628 0.78109
 N665 N 0.65815 0.01589 0.77522
 N666 N 0.67394 0.02642 0.79548
 C667 C 0.68817 0.02901 0.84543
 N668 N 0.69743 0.05574 0.84127
 N669 N 0.70774 0.06984 0.86286
 C670 C 0.70935 0.05773 0.88943
 N671 N 0.70065 0.03072 0.89348
 N672 N 0.69008 0.01668 0.87190
 C673 C 0.66247 0.96003 0.68226
 N674 N 0.66435 0.98690 0.69196
 N675 N 0.65164 0.99444 0.71637
 C676 C 0.63657 0.97542 0.73202
 N677 N 0.63483 0.94860 0.72208
 N678 N 0.64760 0.94104 0.69785
 C679 C 0.67569 0.95123 0.65520
 N680 N 0.67503 0.92361 0.64760
 N681 N 0.68638 0.91512 0.62300
 C682 C 0.69877 0.93389 0.60484
 N683 N 0.69940 0.96165 0.61240
 N684 N 0.68808 0.97018 0.63716
 C685 C 0.16765 0.47476 0.18193
 N686 N 0.14631 0.49497 0.18116
 N687 N 0.13288 0.50271 0.20504
 C688 C 0.14005 0.49045 0.23070
 N689 N 0.16184 0.47057 0.23141
 N690 N 0.17534 0.46287 0.20752
 C691 C 0.18078 0.46452 0.15534
 N692 N 0.20201 0.44415 0.15603
 N693 N 0.21247 0.43333 0.13192
 C694 C 0.20210 0.44234 0.10616
 N695 N 0.18106 0.46298 0.10554
 N696 N 0.17063 0.47387 0.12965
 C697 C -0.17916 0.32448 0.48644
 N698 N -0.17831 0.34581 0.50536
 N699 N -0.20162 0.36139 0.51171
 C700 C -0.22676 0.35646 0.49930
 N701 N -0.22763 0.33454 0.48089
 N702 N -0.20432 0.31888 0.47459
 C703 C -0.15288 0.30954 0.47699
 N704 N -0.15359 0.28828 0.45794
 N705 N -0.12968 0.27655 0.44737
 C706 C -0.10410 0.28568 0.45529
 N707 N -0.10345 0.30672 0.47466
 N708 N -0.12736 0.31840 0.48532
 C709 C 0.31007 0.82152 0.99550
 N710 N 0.31210 0.84180 1.01545
 N711 N 0.28953 0.85814 1.02268
 C712 C 0.26401 0.85492 1.01027
 N713 N 0.26198 0.83399 0.99092
 N714 N 0.28452 0.81771 0.98363
 C715 C 0.33545 0.80606 0.98457
 N716 N 0.33368 0.78997 0.96107
 N717 N 0.35688 0.77833 0.94906
 C718 C 0.38283 0.78220 0.96008
 N719 N 0.38457 0.79783 0.98401
 N720 N 0.36131 0.80965 0.99596
 C721 C 1.16410 0.83443 0.03972
 N722 N 1.16346 0.86270 0.03299
 N723 N 1.18703 0.87545 0.02527
 C724 C 1.21223 0.86045 0.02382
 N725 N 1.21285 0.83212 0.03068
 N726 N 1.18924 0.81937 0.03849
 C727 C 1.13812 0.82073 0.04908
 N728 N 1.13894 0.79313 0.05838
 N729 N 1.11555 0.78119 0.06807
 C730 C 1.09039 0.79632 0.06876
 N731 N 1.08961 0.82386 0.05913
 N732 N 1.11300 0.83583 0.04950
 C733 C 0.67557 0.33280 0.53346
 N734 N 0.67322 0.36046 0.52448
 N735 N 0.69585 0.37395 0.51521
 C736 C 0.72178 0.36032 0.51437
 N737 N 0.72413 0.33259 0.52350
 N738 N 0.70145 0.31911 0.53289
 C739 C 0.65048 0.31837 0.54423
 N740 N 0.65277 0.29168 0.55598
 N741 N 0.63006 0.27926 0.56676
 C742 C 0.60415 0.29297 0.56610
 N743 N 0.60192 0.31956 0.55403
 N744 N 0.62461 0.33200 0.54334
 C745 C 0.32415 0.17794 0.54296
 N746 N 0.30765 0.16151 0.55982
 N747 N 0.28743 0.14659 0.54861
 C748 C 0.28287 0.14732 0.52001
 N749 N 0.29878 0.16465 0.50326
 N750 N 0.31915 0.17952 0.51448
 C751 C 0.34814 0.19194 0.55541
 N752 N 0.36725 0.20558 0.53877
 N753 N 0.39014 0.21616 0.55027
 C754 C 0.39479 0.21342 0.57881
 N755 N 0.37540 0.20009 0.59535
 N756 N 0.35260 0.18954 0.58390
 C757 C 0.81647 0.67024 0.03298
 N758 N 0.81121 0.67410 0.00472
 N759 N 0.79149 0.65938 -0.00777
 C760 C 0.77649 0.63996 0.00740
 N761 N 0.78128 0.63693 0.03588
 N762 N 0.80087 0.65170 0.04839
 C763 C 0.83982 0.68427 0.04654
 N764 N 0.84448 0.68002 0.07483
 N765 N 0.86663 0.69098 0.08710
 C766 C 0.88515 0.70654 0.07161
 N767 N 0.88035 0.71100 0.04327
 N768 N 0.85810 0.70004 0.03095
 C769 C 0.68219 0.66736 0.96365
 N770 N 0.69531 0.64731 0.94721
 N771 N 0.71919 0.63389 0.95567
 C772 C 0.73115 0.64006 0.98089
 N773 N 0.71806 0.66034 0.99731
 N774 N 0.69411 0.67384 0.98879
 C775 C 0.65443 0.67971 0.95507
 N776 N 0.64067 0.70051 0.97022
 N777 N 0.61477 0.71019 0.96276
 C778 C 0.60163 0.69918 0.94009
 N779 N 0.61560 0.67856 0.92499
 N780 N 0.64142 0.66905 0.93229
 C781 C 0.19245 0.17822 0.47176
 N782 N 0.20980 0.16224 0.45467
 N783 N 0.23209 0.14761 0.46538
 C784 C 0.23797 0.14828 0.49368
 N785 N 0.22121 0.16531 0.51054
 N786 N 0.19879 0.17989 0.49983
 C787 C 0.16597 0.19106 0.46032
 N788 N 0.14642 0.20420 0.47755
 N789 N 0.12137 0.21341 0.46729
 C790 C 0.11491 0.20967 0.43946
 N791 N 0.13469 0.19683 0.42229
 N792 N 0.15965 0.18767 0.43250
 C793 C 0.57043 0.05738 0.73244
 N794 N 0.57095 0.03322 0.71705
 N795 N 0.58553 0.00987 0.72609
 C796 C 0.60038 0.00984 0.75078
 N797 N 0.59892 0.03379 0.76661
 N798 N 0.58429 0.05708 0.75762
 C799 C 0.55764 0.08415 0.72070
 N800 N 0.55829 0.10860 0.73555
 N801 N 0.54917 0.13341 0.72382
 C802 C 0.53920 0.13476 0.69672
 N803 N 0.53826 0.11018 0.68207
 N804 N 0.54732 0.08538 0.69380
 C805 C 1.06911 0.56920 0.23694
 N806 N 1.06572 0.54364 0.22480
 N807 N 1.08207 0.52096 0.23228
 C808 C 1.10267 0.52296 0.25206
 N809 N 1.10539 0.54844 0.26479
 N810 N 1.08899 0.57111 0.25735
 C811 C 1.05367 0.59482 0.22590
 N812 N 1.05725 0.62069 0.23740
 N813 N 1.04554 0.64430 0.22536
 C814 C 1.03002 0.64291 0.20124
 N815 N 1.02613 0.61694 0.19009
 N816 N 1.03770 0.59338 0.20218
 C817 C 0.91285 0.93436 0.22738
 N818 N 0.92940 0.95609 0.23422
 N819 N 0.91774 0.98142 0.24116
 C820 C 0.88911 0.98594 0.24152
 N821 N 0.87279 0.96411 0.23452
 N822 N 0.88438 0.93889 0.22769
 C823 C 0.92495 0.90666 0.21837
 N824 N 0.90734 0.88604 0.21119
 N825 N 0.91756 0.86136 0.20128
 C826 C 0.94585 0.85617 0.19814
 N827 N 0.96359 0.87668 0.20575
 N828 N 0.95332 0.90150 0.21568
 C829 C 0.42498 0.42547 0.73806
 N830 N 0.43077 0.45133 0.72637
 N831 N 0.41471 0.47441 0.73261
 C832 C 0.39219 0.47257 0.75077
 N833 N 0.38689 0.44671 0.76289
 N834 N 0.40289 0.42364 0.75661
 C835 C 0.44075 0.39956 0.72896
 N836 N 0.43221 0.37345 0.73751
 N837 N 0.44472 0.34987 0.72716
 C838 C 0.46631 0.35143 0.70790
 N839 N 0.47515 0.37760 0.69978
 N840 N 0.46259 0.40121 0.71006
 C841 C 0.41820 0.56770 0.78526
 N842 N 0.42002 0.54183 0.79880
 N843 N 0.40658 0.51989 0.78876
 C844 C 0.39050 0.52300 0.76493
 N845 N 0.38943 0.54876 0.75095
 N846 N 0.40300 0.57067 0.76091
 C847 C 0.43025 0.59253 0.79826
 N848 N 0.43025 0.61818 0.78423
 N849 N 0.43920 0.64113 0.79709
 C850 C 0.44815 0.63931 0.82456
 N851 N 0.44833 0.61357 0.83841
 N852 N 0.43960 0.59063 0.82551
 C853 C -0.07100 0.07821 0.27530
 N854 N -0.06949 0.05161 0.28731
 N855 N -0.08546 0.03126 0.27774
 C856 C -0.10365 0.03671 0.25580
 N857 N -0.10460 0.06326 0.24347
 N858 N -0.08857 0.08356 0.25297
 C859 C -0.05633 0.10156 0.28817
 N860 N -0.05851 0.12833 0.27659
 N861 N -0.04774 0.15011 0.28987
 C862 C -0.03454 0.14601 0.31533
 N863 N -0.03203 0.11911 0.32664
 N864 N -0.04272 0.09731 0.31334
 C865 C 0.08005 0.42471 0.28612
 N866 N 0.06633 0.45070 0.28500
 N867 N 0.07974 0.47365 0.27586
 C868 C 0.10738 0.47152 0.26750
 N869 N 0.12105 0.44547 0.26903
 N870 N 0.10763 0.42255 0.27800
 C871 C 0.06578 0.39933 0.29662
 N872 N 0.07922 0.37329 0.29528
 N873 N 0.06703 0.35023 0.30579
 C874 C 0.04093 0.35223 0.31813
 N875 N 0.02739 0.37833 0.31929
 N876 N 0.03955 0.40144 0.30865
 C877 C 0.57532 0.91445 0.79173
 N878 N 0.60380 0.91259 0.78823
 N879 N 0.61767 0.93478 0.77817
 C880 C 0.60366 0.95975 0.77091
 N881 N 0.57506 0.96166 0.77463
 N882 N 0.56116 0.93943 0.78491
 C883 C 0.56048 0.88961 0.80281
 N884 N 0.53287 0.89181 0.81099
 N885 N 0.52003 0.86917 0.82185
 C886 C 0.53426 0.84348 0.82470
 N887 N 0.56178 0.84137 0.81623
 N888 N 0.57464 0.86397 0.80556
 C889 C 0.72313 0.56470 0.05547
 N890 N 0.70545 0.58104 0.03869
 N891 N 0.71562 0.59798 0.01826
 C892 C 0.74395 0.59928 0.01362
 N893 N 0.76161 0.58195 0.02971
 N894 N 0.75142 0.56515 0.05040
 C895 C 0.71152 0.54903 0.08012
 N896 N 0.72843 0.53808 0.10130
 N897 N 0.71719 0.52668 0.12497
 C898 C 0.68864 0.52584 0.12833
 N899 N 0.67193 0.53640 0.10685
 N900 N 0.68310 0.54782 0.08332
 C901 C 0.22582 1.07660 0.57224
 N902 N 0.20882 1.09257 0.55444
 N903 N 0.21980 1.10841 0.53355
 C904 C 0.24827 1.10898 0.52955
 N905 N 0.26522 1.09204 0.54673
 N906 N 0.25423 1.07636 0.56784
 C907 C 0.21348 1.06147 0.59680
 N908 N 0.22989 1.05088 0.61851
 N909 N 0.21814 1.03924 0.64176
 C910 C 0.18958 1.03768 0.64411
 N911 N 0.17333 1.04800 0.62217
 N912 N 0.18502 1.05976 0.59905
 C913 C 0.21877 0.91952 0.93754
 N914 N 0.22280 0.89078 0.93884
 N915 N 0.22936 0.87742 0.96335
 C916 C 0.23260 0.89217 0.98761
 N917 N 0.22834 0.92104 0.98634
 N918 N 0.22153 0.93446 0.96177
 C919 C 0.21057 0.93358 0.91036
 N920 N 0.20076 0.96119 0.90910
 N921 N 0.19166 0.97295 0.88449
 C922 C 0.19221 0.95761 0.86020
 N923 N 0.20242 0.93015 0.86154
 N924 N 0.21135 0.91837 0.88609
 C925 C 0.72327 0.41269 0.42332
 N926 N 0.72337 0.38416 0.42844
 N927 N 0.73129 0.37309 0.45362
 C928 C 0.73944 0.39004 0.47487
 N929 N 0.73932 0.41872 0.46972
 N930 N 0.73142 0.42984 0.44441
 C931 C 0.71310 0.42438 0.39573
 N932 N 0.71344 0.45270 0.38909
 N933 N 0.70285 0.46288 0.36440
 C934 C 0.69144 0.44511 0.34556
 N935 N 0.69145 0.41682 0.35223
 N936 N 0.70211 0.40667 0.37674
 C937 C 0.77274 0.43272 0.56721
 N938 N 0.75160 0.41469 0.57269
 N939 N 0.74253 0.39807 0.55236
 C940 C 0.75411 0.39886 0.52564
 N941 N 0.77479 0.41751 0.52007
 N942 N 0.78393 0.43407 0.54044
 C943 C 0.78550 0.44798 0.59052
 N944 N 0.80983 0.46170 0.58591
 N945 N 0.82327 0.47284 0.60753
 C946 C 0.81293 0.47074 0.63464
 N947 N 0.78825 0.45748 0.63915
 N948 N 0.77485 0.44622 0.61751
 C949 C 0.26474 -0.07428 0.08407
 N950 N 0.24530 -0.09438 0.08834
 N951 N 0.23623 -0.10914 0.06658
 C952 C 0.24613 -0.10436 0.03959
 N953 N 0.26555 -0.08409 0.03539
 N954 N 0.27455 -0.06925 0.05716
 C955 C 0.27666 -0.05999 0.10848
 N956 N 0.29582 -0.03957 0.10433
 N957 N 0.30826 -0.02821 0.12648
 C958 C 0.30217 -0.03690 0.15365
 N959 N 0.28275 -0.05713 0.15775
 N960 N 0.27021 -0.06841 0.13561
 C961 C 0.29658 0.07902 0.43982
 N962 N 0.31305 0.09622 0.45476
 N963 N 0.30229 0.11113 0.47644
 C964 C 0.27458 0.10952 0.48405
 N965 N 0.25839 0.09155 0.46958
 N966 N 0.26913 0.07668 0.44784
 C967 C 0.30786 0.06493 0.41419
 N968 N 0.29090 0.05008 0.39730
 N969 N 0.30083 0.03909 0.37300
 C970 C 0.32809 0.04262 0.36463
 N971 N 0.34502 0.05725 0.38176
 N972 N 0.33512 0.06823 0.40600
 C973 C 0.79450 0.58271 0.92018
 N974 N 0.78256 0.56619 0.94082
 N975 N 0.77096 0.57798 0.96408
 C976 C 0.77097 0.60671 0.96759
 N977 N 0.78297 0.62299 0.94681
 N978 N 0.79458 0.61126 0.92372
 C979 C 0.80671 0.57064 0.89389
 N980 N 0.81903 0.58817 0.87452
 N981 N 0.82985 0.57807 0.85031
 C982 C 0.82875 0.55001 0.84431
 N983 N 0.81634 0.53236 0.86372
 N984 N 0.80550 0.54249 0.88809
 C985 C 0.07774 0.72632 0.55688
 N986 N 0.07295 0.75498 0.55828
 N987 N 0.05119 0.76576 0.57349
 C988 C 0.03371 0.74833 0.58833
 N989 N 0.03813 0.71968 0.58602
 N990 N 0.05967 0.70893 0.57065
 C991 C 0.10305 0.71389 0.54269
 N992 N 0.10600 0.68522 0.54026
 N993 N 0.12980 0.67321 0.52994
 C994 C 0.15178 0.68928 0.52173
 N995 N 0.14872 0.71810 0.52383
 N996 N 0.12478 0.73019 0.53411
 C997 C 0.56196 0.22798 1.06417
 N998 N 0.53745 0.21401 1.06351
 N999 N 0.51553 0.22202 1.08000
 C1000 C 0.51737 0.24408 1.09808
 N1001 N 0.54170 0.25853 1.09797
 N1002 N 0.56356 0.25061 1.08142
 C1003 C 0.58715 0.21719 1.04861
 N1004 N 0.61168 0.23113 1.04934
 N1005 N 0.63529 0.21989 1.03764
 C1006 C 0.63531 0.19418 1.02493
 N1007 N 0.61061 0.18051 1.02386
 N1008 N 0.58700 0.19179 1.03544
 C1009 C 0.91995 0.23310 0.91048
 N1010 N 0.94260 0.23792 0.92698
 N1011 N 0.96723 0.24471 0.91502
 C1012 C 0.97009 0.24699 0.88612
 N1013 N 0.94728 0.24224 0.86982
 N1014 N 0.92276 0.23551 0.88173
 C1015 C 0.89333 0.22325 0.92284
 N1016 N 0.87253 0.21574 0.90521
 N1017 N 0.84916 0.20453 0.91567
 C1018 C 0.84551 0.20043 0.94421
 N1019 N 0.86609 0.20848 0.96199
 N1020 N 0.88964 0.21963 0.95148
 C1021 C 0.45078 0.70835 0.42900
 N1022 N 0.45538 0.73667 0.42957
 N1023 N 0.47579 0.74777 0.41349
 C1024 C 0.49217 0.73108 0.39593
 N1025 N 0.48832 0.70254 0.39664
 N1026 N 0.46803 0.69145 0.41270
 C1027 C 0.42557 0.69648 0.44255
 N1028 N 0.41933 0.66916 0.43752
 N1029 N 0.39494 0.65892 0.44651
 C1030 C 0.37573 0.67555 0.46094
 N1031 N 0.38222 0.70277 0.46659
 N1032 N 0.40664 0.71311 0.45742
 C1033 C 0.58208 0.77885 0.41566
 N1034 N 0.57616 0.75100 0.41997
 N1035 N 0.55398 0.74016 0.40731
 C1036 C 0.53699 0.75676 0.38980
 N1037 N 0.54323 0.78453 0.38558
 N1038 N 0.56514 0.79535 0.39833
 C1039 C 0.60624 0.79166 0.42911
 N1040 N 0.60820 0.82036 0.42769
 N1041 N 0.63008 0.83270 0.43894
 C1042 C 0.65111 0.81691 0.45197
 N1043 N 0.64926 0.78806 0.45337
 N1044 N 0.62715 0.77564 0.44220
 C1045 C 0.06522 0.27282 -0.07413
 N1046 N 0.06912 0.25220 -0.09373
 N1047 N 0.04779 0.24482 -0.10988
 C1048 C 0.02161 0.25769 -0.10711
 N1049 N 0.01771 0.27812 -0.08715
 N1050 N 0.03907 0.28548 -0.07094
 C1051 C 0.08955 0.28311 -0.05881
 N1052 N 0.08614 0.30441 -0.03984
 N1053 N 0.10854 0.31557 -0.02810
 C1054 C 0.13523 0.30598 -0.03494
 N1055 N 0.13854 0.28437 -0.05362
 N1056 N 0.11615 0.27314 -0.06529
 C1057 C 0.41996 0.27648 0.07115
 N1058 N 0.41924 0.25466 0.09057
 N1059 N 0.44228 0.24647 0.10514
 C1060 C 0.46698 0.25987 0.10109
 N1061 N 0.46775 0.28144 0.08123
 N1062 N 0.44468 0.28961 0.06659
 C1063 C 0.39397 0.28677 0.05672
 N1064 N 0.39446 0.30850 0.03714
 N1065 N 0.37053 0.31909 0.02557
 C1066 C 0.34518 0.30845 0.03318
 N1067 N 0.34482 0.28648 0.05255
 N1068 N 0.36874 0.27582 0.06406
 C1069 C 0.94351 0.80021 0.55982
 N1070 N 0.95293 0.77315 0.55434
 N1071 N 0.97478 0.76121 0.56861
 C1072 C 0.98802 0.77579 0.58900
 N1073 N 0.97908 0.80320 0.59364
 N1074 N 0.95726 0.81512 0.57943
 C1075 C 0.91726 0.81237 0.54715
 N1076 N 0.90586 0.83734 0.55685
 N1077 N 0.88079 0.84741 0.54770
 C1078 C 0.86606 0.83300 0.52842
 N1079 N 0.87769 0.80821 0.51826
 N1080 N 0.90279 0.79800 0.52758
   
