data_POSCAR
  _audit_creation_date              2014-09-24
  _audit_creation_method            'ToBaCCo'
  _symmetry_space_group_name_H-M    'P1'
  _symmetry_Int_Tables_number       1
  _symmetry_cell_setting            triclinic
  loop_
  _symmetry_equiv_pos_as_xyz
 x,y,z
_cell_length_a 48.7448
_cell_length_b 29.6952
_cell_length_c 20.5461
_cell_angle_alpha 89.673400
_cell_angle_beta 89.398000
_cell_angle_gamma 89.906500
loop_
  _atom_site_label
  _atom_site_type_symbol
  _atom_site_fract_x
  _atom_site_fract_y
  _atom_site_fract_z
O1 O 0.78661 0.26938 0.42940
 O2 O 0.74100 0.32901 0.54463
 O3 O 0.78869 0.28884 0.55226
 O4 O 0.74018 0.31206 0.42001
 O5 O 0.71772 0.24942 0.44355
 O6 O 0.76776 0.22443 0.57339
 O7 O 0.72021 0.26485 0.56781
 O8 O 0.76436 0.20608 0.45016
 Cu9 Cu 0.76623 0.30626 0.48446
 Cu10 Cu 0.74034 0.22984 0.51096
 C11 C 0.78320 0.22746 0.42036
 C12 C 0.72279 0.30696 0.57594
 C13 C 0.78684 0.25244 0.58463
 C14 C 0.72061 0.28504 0.40948
 O15 O 0.24443 0.80463 0.57597
 O16 O 0.28644 0.75424 0.44492
 O17 O 0.24629 0.81289 0.45085
 O18 O 0.28539 0.74755 0.57069
 O19 O 0.25618 0.69099 0.56469
 O20 O 0.21601 0.75487 0.44489
 O21 O 0.25711 0.69791 0.43881
 O22 O 0.21533 0.74799 0.57013
 Cu23 Cu 0.26856 0.78517 0.51133
 Cu24 Cu 0.23336 0.71742 0.50391
 C25 C 0.22245 0.78533 0.59461
 C26 C 0.27911 0.71708 0.42024
 C27 C 0.22293 0.79671 0.42619
 C28 C 0.27781 0.70823 0.58746
 O29 O 0.26312 0.29383 -0.58353
 O30 O 0.21334 0.27215 -0.45127
 O31 O 0.26036 0.31395 -0.46062
 O32 O 0.21603 0.25258 -0.57452
 O33 O 0.23762 0.18935 -0.55045
 O34 O 0.28207 0.25078 -0.43665
 O35 O 0.23505 0.20896 -0.42738
 O36 O 0.28476 0.23059 -0.55971
 Cu37 Cu 0.23606 0.28947 -0.51985
 Cu38 Cu 0.26203 0.21359 -0.49112
 C39 C 0.28254 0.26608 -0.59395
 C40 C 0.21561 0.23662 -0.41714
 C41 C 0.27884 0.29297 -0.42957
 C42 C 0.21919 0.21037 -0.58171
 O43 O -0.23248 0.77627 -0.57221
 O44 O -0.28205 0.73977 -0.44524
 O45 O -0.23885 0.79200 -0.44892
 O46 O -0.27652 0.72664 -0.56927
 O47 O -0.25186 0.66624 -0.54642
 O48 O -0.21229 0.73314 -0.42988
 O49 O -0.25538 0.68186 -0.42186
 O50 O -0.20757 0.71552 -0.55303
 Cu51 Cu -0.26009 0.76462 -0.51100
 Cu52 Cu -0.22920 0.69318 -0.48570
 C53 C -0.21154 0.75195 -0.58412
 C54 C -0.27706 0.70456 -0.41175
 C55 C -0.21884 0.77396 -0.41972
 C56 C -0.27096 0.68533 -0.57786
 N57 N 0.02882 1.07355 -0.09375
 N58 N 0.05069 1.09797 -0.10821
 N59 N -0.03006 1.04317 -0.12837
 N60 N -0.05118 1.04573 -0.16770
 N61 N -0.02906 1.07856 -0.09041
 N62 N -0.04961 1.10638 -0.10330
 N63 N 0.02751 1.03819 -0.13165
 N64 N 0.04839 1.03755 -0.17297
 C65 C 0.06260 1.07504 -0.15785
 C66 C -0.06314 1.08525 -0.15184
 N67 N -0.03395 0.92098 -0.05771
 N68 N -0.05453 0.89237 -0.06143
 N69 N 0.02453 0.94227 -0.11214
 N70 N 0.04482 0.93109 -0.15193
 N71 N 0.02358 0.91495 -0.06173
 N72 N 0.04317 0.88429 -0.06593
 N73 N -0.03313 0.94752 -0.10898
 N74 N -0.05323 0.93779 -0.14902
 Mn75 Mn -0.00275 0.99277 -0.12098
 C76 C -0.06646 0.90354 -0.11834
 C77 C 0.05627 0.89489 -0.12237
 N78 N -0.02717 1.09143 0.04920
 N79 N -0.04638 1.12261 0.05503
 N80 N 0.03021 1.05890 0.09564
 N81 N 0.05049 1.06815 0.13541
 N82 N 0.03048 1.08644 0.04535
 N83 N 0.05105 1.11523 0.04973
 N84 N -0.02732 1.06452 0.10016
 N85 N -0.04667 1.07651 0.14190
 Mn86 Mn 0.00074 1.08313 -0.02258
 C87 C -0.05841 1.11268 0.11300
 C88 C 0.06344 1.10314 0.10596
 N89 N 0.02486 0.92761 0.07638
 N90 N 0.04385 0.89742 0.08945
 N91 N -0.03070 0.96872 0.11957
 N92 N -0.05069 0.96848 0.16337
 N93 N -0.03259 0.93374 0.08109
 N94 N -0.05390 0.90860 0.09786
 N95 N 0.02701 0.96260 0.11475
 N96 N 0.04767 0.95710 0.15522
 Mn97 Mn -0.00460 0.92387 0.00963
 Mn98 Mn -0.00014 1.01375 0.10826
 Cl99 Cl -0.00169 1.00344 -0.00638
 C100 C 0.05796 0.91630 0.13835
 C101 C -0.06499 0.93086 0.14922
 N102 N 0.53166 0.56868 -0.07760
 N103 N 0.55139 0.59637 -0.09683
 N104 N 0.47156 0.54202 -0.11180
 N105 N 0.45046 0.54869 -0.15054
 N106 N 0.47417 0.57579 -0.07137
 N107 N 0.45495 0.60623 -0.08113
 N108 N 0.52899 0.53556 -0.11912
 N109 N 0.54663 0.53998 -0.16786
 C110 C 0.56071 0.57762 -0.15284
 C111 C 0.44034 0.58886 -0.13041
 N112 N 0.46786 0.41602 -0.05124
 N113 N 0.44753 0.38702 -0.05764
 N114 N 0.52552 0.43937 -0.10553
 N115 N 0.54604 0.43087 -0.14592
 N116 N 0.52556 0.41085 -0.05638
 N117 N 0.54608 0.38198 -0.06228
 N118 N 0.46796 0.44516 -0.09958
 N119 N 0.44780 0.43672 -0.14014
 Mn120 Mn 0.49841 0.49043 -0.10968
 C121 C 0.43508 0.40059 -0.11305
 C122 C 0.55860 0.39494 -0.11846
 N123 N 0.47612 0.58405 0.06726
 N124 N 0.45714 0.61551 0.07415
 N125 N 0.53259 0.54833 0.11156
 N126 N 0.55404 0.55375 0.14931
 N127 N 0.53360 0.57651 0.06213
 N128 N 0.55567 0.60204 0.06495
 N129 N 0.47492 0.55517 0.11575
 N130 N 0.45507 0.56610 0.15698
 Mn131 Mn 0.50400 0.57672 -0.00494
 C132 C 0.44414 0.60377 0.13021
 C133 C 0.56821 0.58734 0.11948
 N134 N 0.52755 0.41862 0.08433
 N135 N 0.54528 0.38688 0.10126
 N136 N 0.47115 0.45871 0.12846
 N137 N 0.45005 0.45884 0.16911
 N138 N 0.46971 0.42449 0.08840
 N139 N 0.44747 0.40041 0.10069
 N140 N 0.52849 0.45233 0.12539
 N141 N 0.54655 0.44437 0.17134
 Mn142 Mn 0.49773 0.41687 0.01633
 Mn143 Mn 0.50174 0.50370 0.12094
 Cl144 Cl 0.50049 0.49686 0.00564
 C145 C 0.55716 0.40389 0.15528
 C146 C 0.43555 0.42226 0.15134
 C147 C 0.30210 0.27468 0.35770
 C148 C 0.30191 0.31419 0.32045
 C149 C 0.32487 0.32737 0.27683
 C150 C 0.32961 0.37332 0.26558
 C151 C 0.35230 0.38744 0.22892
 C152 C 0.37065 0.35571 0.20244
 C153 C 0.36502 0.30969 0.21032
 C154 C 0.34239 0.29554 0.24745
 C155 C 0.39586 0.36975 0.16741
 C156 C 0.40974 0.40911 0.18318
 H157 H 0.28580 0.33878 0.32869
 H158 H 0.31612 0.39846 0.28670
 H159 H 0.35544 0.42319 0.22160
 H160 H 0.37858 0.28466 0.18921
 H161 H 0.33876 0.25980 0.25305
 H162 H 0.40490 0.34693 0.13219
 H163 H 0.31875 0.25081 0.35203
 H164 H 0.40214 0.43045 0.22192
 C165 C -0.19112 0.76590 0.36650
 C166 C -0.19146 0.80850 0.33739
 C167 C -0.16928 0.82501 0.29346
 C168 C -0.16495 0.87157 0.28765
 C169 C -0.14351 0.88845 0.24893
 C170 C -0.12597 0.85896 0.21482
 C171 C -0.13105 0.81250 0.21837
 C172 C -0.15241 0.79561 0.25738
 C173 C -0.10247 0.87541 0.17494
 C174 C -0.08930 0.91623 0.18661
 H175 H -0.20742 0.83204 0.35160
 H176 H -0.17795 0.89499 0.31400
 H177 H -0.14094 0.92455 0.24555
 H178 H -0.11817 0.78912 0.19163
 H179 H -0.15570 0.75961 0.25866
 H180 H -0.09408 0.85329 0.13794
 H181 H -0.17432 0.74299 0.35670
 H182 H -0.09607 0.93754 0.22616
 C183 C 0.71266 0.65892 0.37654
 C184 C 0.69234 0.67945 0.33933
 C185 C 0.67209 0.65480 0.30020
 C186 C 0.65665 0.67916 0.25481
 C187 C 0.63557 0.65847 0.22075
 C188 C 0.62950 0.61272 0.23144
 C189 C 0.64509 0.58821 0.27647
 C190 C 0.66623 0.60893 0.31054
 C191 C 0.60598 0.59052 0.20018
 C192 C 0.59354 0.60706 0.14416
 H193 H 0.69072 0.71586 0.33991
 H194 H 0.66050 0.71469 0.24668
 H195 H 0.62355 0.67901 0.18810
 H196 H 0.64056 0.55308 0.28620
 H197 H 0.67713 0.58926 0.34638
 H198 H 0.59796 0.56008 0.22260
 H199 H 0.71629 0.62305 0.37377
 H200 H 0.60217 0.63534 0.11771
 C201 C 0.20222 1.18622 0.37665
 C202 C 0.18147 1.20660 0.34005
 C203 C 0.16173 1.18122 0.29963
 C204 C 0.14709 1.20431 0.25123
 C205 C 0.12722 1.18223 0.21443
 C206 C 0.12144 1.13640 0.22558
 C207 C 0.13608 1.11334 0.27398
 C208 C 0.15599 1.13535 0.31057
 C209 C 0.09927 1.11219 0.19124
 C210 C 0.08706 1.12702 0.13367
 H211 H 0.17965 1.24298 0.34042
 H212 H 0.15082 1.23978 0.24232
 H213 H 0.11599 1.20161 0.17886
 H214 H 0.13181 1.07820 0.28423
 H215 H 0.16612 1.11654 0.34860
 H216 H 0.09215 1.08082 0.21265
 H217 H 0.20551 1.15027 0.37318
 H218 H 0.09461 1.15657 0.10834
 C219 C 0.70524 0.32962 -0.38138
 C220 C 0.68479 0.30710 -0.34574
 C221 C 0.66354 0.32995 -0.30582
 C222 C 0.64835 0.30428 -0.26066
 C223 C 0.62680 0.32361 -0.22512
 C224 C 0.61997 0.36923 -0.23424
 C225 C 0.63522 0.39493 -0.27924
 C226 C 0.65679 0.37561 -0.31469
 C227 C 0.59623 0.39056 -0.20107
 C228 C 0.58301 0.37285 -0.14606
 H229 H 0.68403 0.27064 -0.34742
 H230 H 0.65288 0.26887 -0.25356
 H231 H 0.61515 0.30226 -0.19229
 H232 H 0.63016 0.42999 -0.28777
 H233 H 0.66739 0.39631 -0.35032
 H234 H 0.58890 0.42224 -0.22086
 H235 H 0.70762 0.36567 -0.37681
 H236 H 0.59063 0.34295 -0.12202
 C237 C 0.20573 0.80656 -0.35933
 C238 C 0.18084 0.78815 -0.33768
 C239 C 0.16032 0.81365 -0.29894
 C240 C 0.14073 0.78992 -0.26185
 C241 C 0.11979 0.81279 -0.22861
 C242 C 0.11787 0.86000 -0.23245
 C243 C 0.13741 0.88370 -0.26971
 C244 C 0.15848 0.86088 -0.30242
 C245 C 0.09494 0.88528 -0.20192
 C246 C 0.07978 0.86946 -0.14858
 H247 H 0.17579 0.75383 -0.35064
 H248 H 0.14141 0.75348 -0.25931
 H249 H 0.10466 0.79324 -0.20195
 H250 H 0.13616 0.92002 -0.27420
 H251 H 0.17262 0.88027 -0.33223
 H252 H 0.09020 0.91834 -0.22145
 H253 H 0.21200 0.83926 -0.34185
 H254 H 0.08542 0.83838 -0.12447
 C255 C 0.29474 0.68148 -0.36805
 C256 C 0.31992 0.69753 -0.34670
 C257 C 0.33989 0.67030 -0.30986
 C258 C 0.36125 0.69277 -0.27861
 C259 C 0.38149 0.66865 -0.24599
 C260 C 0.38075 0.62133 -0.24383
 C261 C 0.35964 0.59870 -0.27588
 C262 C 0.33930 0.62290 -0.30850
 C263 C 0.40232 0.59505 -0.21086
 C264 C 0.41714 0.61258 -0.15940
 H265 H 0.32557 0.73196 -0.35834
 H266 H 0.36248 0.72919 -0.28002
 H267 H 0.39802 0.68727 -0.22408
 H268 H 0.35894 0.56223 -0.27577
 H269 H 0.32370 0.60423 -0.33379
 H270 H 0.40633 0.56089 -0.22671
 H271 H 0.28770 0.64816 -0.35458
 H272 H 0.41188 0.64514 -0.13944
 C273 C -0.19234 1.24286 -0.36555
 C274 C -0.19157 1.20222 -0.33100
 C275 C -0.16882 1.18878 -0.28722
 C276 C -0.16584 1.14303 -0.27128
 C277 C -0.14392 1.12820 -0.23339
 C278 C -0.12434 1.15889 -0.21044
 C279 C -0.12805 1.20492 -0.22345
 C280 C -0.15000 1.21981 -0.26159
 C281 C -0.09988 1.14361 -0.17377
 C282 C -0.08811 1.10138 -0.18415
 H283 H -0.20735 1.17749 -0.34034
 H284 H -0.18027 1.11844 -0.28920
 H285 H -0.14244 1.09265 -0.22217
 H286 H -0.11357 1.22935 -0.20531
 H287 H -0.15201 1.25554 -0.27062
 H288 H -0.08975 1.16713 -0.14187
 H289 H -0.17631 1.26753 -0.35955
 H290 H -0.09679 1.07920 -0.22006
 C291 C 0.70456 0.68983 -0.36371
 C292 C 0.67845 0.70842 -0.35533
 C293 C 0.65851 0.68927 -0.30820
 C294 C 0.63105 0.68431 -0.32643
 C295 C 0.61202 0.66465 -0.28361
 C296 C 0.62001 0.65076 -0.22111
 C297 C 0.64722 0.65736 -0.20189
 C298 C 0.66646 0.67587 -0.24542
 C299 C 0.60009 0.62991 -0.17549
 C300 C 0.58144 0.59775 -0.19639
 H301 H 0.67135 0.73416 -0.38880
 H302 H 0.62447 0.69478 -0.37440
 H303 H 0.59099 0.66074 -0.29907
 H304 H 0.65370 0.64730 -0.15367
 H305 H 0.68745 0.68013 -0.22986
 H306 H 0.60125 0.63779 -0.12417
 H307 H 0.71030 0.66094 -0.33434
 H308 H 0.58242 0.58608 -0.24621
 C309 C 0.19491 1.22722 -0.36639
 C310 C 0.19469 1.18665 -0.33180
 C311 C 0.17175 1.17271 -0.28862
 C312 C 0.16714 1.12657 -0.27865
 C313 C 0.14464 1.11178 -0.24182
 C314 C 0.12635 1.14301 -0.21390
 C315 C 0.13177 1.18916 -0.22087
 C316 C 0.15421 1.20398 -0.25809
 C317 C 0.10151 1.12844 -0.17770
 C318 C 0.08800 1.08835 -0.19149
 H319 H 0.21065 1.16210 -0.34180
 H320 H 0.18064 1.10182 -0.30067
 H321 H 0.14171 1.07593 -0.23530
 H322 H 0.11826 1.21382 -0.19868
 H323 H 0.15771 1.23982 -0.26270
 H324 H 0.09249 1.15137 -0.14262
 H325 H 0.17842 1.25128 -0.36017
 H326 H 0.09552 1.06655 -0.22976
 C327 C 0.29684 0.31857 -0.38596
 C328 C 0.31763 0.29810 -0.34983
 C329 C 0.33749 0.32330 -0.30945
 C330 C 0.35244 0.29987 -0.26194
 C331 C 0.37228 0.32182 -0.22493
 C332 C 0.37774 0.36789 -0.23492
 C333 C 0.36286 0.39126 -0.28259
 C334 C 0.34296 0.36936 -0.31940
 C335 C 0.39972 0.39210 -0.19984
 C336 C 0.41177 0.37682 -0.14233
 H337 H 0.31934 0.26172 -0.35068
 H338 H 0.34893 0.26425 -0.25382
 H339 H 0.38374 0.30217 -0.19006
 H340 H 0.36688 0.42659 -0.29198
 H341 H 0.33259 0.38848 -0.35672
 H342 H 0.40673 0.42381 -0.22037
 H343 H 0.29351 0.35450 -0.38283
 H344 H 0.40429 0.34680 -0.11805
 C345 C -0.20272 0.80153 -0.37523
 C346 C -0.17990 0.78430 -0.34328
 C347 C -0.16094 0.81257 -0.30571
 C348 C -0.14423 0.79194 -0.25911
 C349 C -0.12500 0.81709 -0.22505
 C350 C -0.12207 0.86351 -0.23729
 C351 C -0.13858 0.88406 -0.28438
 C352 C -0.15790 0.85894 -0.31823
 C353 C -0.10091 0.89069 -0.20495
 C354 C -0.08963 0.87881 -0.14531
 H355 H -0.17562 0.74854 -0.34608
 H356 H -0.14586 0.75613 -0.24951
 H357 H -0.11197 0.79970 -0.19080
 H358 H -0.13633 0.91959 -0.29545
 H359 H -0.16971 0.87575 -0.35545
 H360 H -0.09405 0.92133 -0.22893
 H361 H -0.20858 0.83644 -0.36935
 H362 H -0.09748 0.85035 -0.11787
 C363 C 0.29666 0.69448 0.37163
 C364 C 0.32180 0.71231 0.35107
 C365 C 0.34218 0.68657 0.31216
 C366 C 0.36211 0.71005 0.27580
 C367 C 0.38273 0.68685 0.24189
 C368 C 0.38397 0.63953 0.24430
 C369 C 0.36416 0.61609 0.28104
 C370 C 0.34340 0.63924 0.31441
 C371 C 0.40640 0.61379 0.21239
 C372 C 0.42133 0.62972 0.15877
 H373 H 0.32704 0.74637 0.36492
 H374 H 0.36190 0.74653 0.27420
 H375 H 0.39810 0.70619 0.21569
 H376 H 0.36490 0.57968 0.28445
 H377 H 0.32899 0.61997 0.34361
 H378 H 0.41079 0.58029 0.23078
 H379 H 0.29015 0.66189 0.35432
 H380 H 0.41597 0.66142 0.13599
 C381 C -0.19852 1.20252 0.37623
 C382 C -0.17665 1.22302 0.34343
 C383 C -0.15609 1.19737 0.30521
 C384 C -0.14052 1.21978 0.25725
 C385 C -0.12021 1.19688 0.22197
 C386 C -0.11501 1.15103 0.23447
 C387 C -0.13036 1.12884 0.28298
 C388 C -0.15068 1.15164 0.31801
 C389 C -0.09296 1.12572 0.20082
 C390 C -0.08098 1.13884 0.14181
 H391 H -0.17449 1.25929 0.34565
 H392 H -0.14399 1.25519 0.24731
 H393 H -0.10828 1.21556 0.18638
 H394 H -0.12645 1.09374 0.29427
 H395 H -0.16147 1.13355 0.35621
 H396 H -0.08619 1.09453 0.22319
 H397 H -0.20221 1.16683 0.37083
 H398 H -0.08821 1.16820 0.11574
 C399 C 0.70124 0.29595 0.35712
 C400 C 0.67502 0.27733 0.35453
 C401 C 0.65449 0.29283 0.30671
 C402 C 0.62696 0.29692 0.32630
 C403 C 0.60739 0.31401 0.28341
 C404 C 0.61488 0.32630 0.21948
 C405 C 0.64213 0.32008 0.19876
 C406 C 0.66189 0.30401 0.24223
 C407 C 0.59464 0.34679 0.17496
 C408 C 0.57681 0.38019 0.19707
 H409 H 0.66838 0.25465 0.39306
 H410 H 0.62074 0.28809 0.37552
 H411 H 0.58638 0.31773 0.30022
 H412 H 0.64829 0.32900 0.14955
 H413 H 0.68289 0.30024 0.22542
 H414 H 0.59558 0.33900 0.12354
 H415 H 0.70695 0.32223 0.32284
 H416 H 0.57849 0.39174 0.24679
 C417 C 0.20279 0.82746 0.37642
 C418 C 0.17812 0.80981 0.35560
 C419 C 0.15793 0.83672 0.31921
 C420 C 0.13405 0.81551 0.29779
 C421 C 0.11395 0.84000 0.26531
 C422 C 0.11736 0.88635 0.25346
 C423 C 0.14101 0.90786 0.27578
 C424 C 0.16130 0.88321 0.30798
 C425 C 0.09623 0.91258 0.21889
 C426 C 0.08055 0.89302 0.17053
 H427 H 0.17286 0.77551 0.36915
 H428 H 0.13082 0.77990 0.30670
 H429 H 0.09552 0.82268 0.25065
 H430 H 0.14391 0.94363 0.26767
 H431 H 0.17939 0.90063 0.32462
 H432 H 0.09363 0.94797 0.22996
 H433 H 0.21283 0.81271 0.40084
 H434 H 0.08493 0.85895 0.15504
   
