data_POSCAR
  _audit_creation_date              2014-09-24
  _audit_creation_method            'ToBaCCo'
  _symmetry_space_group_name_H-M    'P1'
  _symmetry_Int_Tables_number       1
  _symmetry_cell_setting            triclinic
  loop_
  _symmetry_equiv_pos_as_xyz
 x,y,z
_cell_length_a 24.2770
_cell_length_b 22.7376
_cell_length_c 26.1748
_cell_angle_alpha 83.215400
_cell_angle_beta 87.220800
_cell_angle_gamma 86.245400
loop_
  _atom_site_label
  _atom_site_type_symbol
  _atom_site_fract_x
  _atom_site_fract_y
  _atom_site_fract_z
C1 C 0.15410 1.20447 0.11011
 N2 N 0.11485 1.20166 0.14893
 C3 C 0.11951 1.15946 0.19005
 N4 N 0.16364 1.11952 0.19193
 C5 C 0.20305 1.12184 0.15319
 N6 N 0.19835 1.16456 0.11250
 C7 C 0.82086 0.71017 0.26466
 N8 N 0.79833 0.75833 0.23548
 C9 C 0.78747 0.81030 0.25587
 N10 N 0.80098 0.81459 0.30503
 C11 C 0.82270 0.76646 0.33468
 N12 N 0.83172 0.71416 0.31453
 C13 C 0.76016 1.31591 -0.20636
 N14 N 0.80383 1.30340 -0.23857
 C15 C 0.80408 1.25594 -0.26587
 N16 N 0.76056 1.22073 -0.26036
 C17 C 0.71717 1.23265 -0.22775
 N18 N 0.71725 1.27996 -0.20078
 C19 C 0.23695 0.78244 -0.17991
 N20 N 0.22344 0.79969 -0.22941
 C21 C 0.26363 0.81398 -0.26602
 N22 N 0.31744 0.80973 -0.25291
 C23 C 0.33098 0.79310 -0.20337
 N24 N 0.29054 0.78057 -0.16694
 C25 C 0.60049 1.05682 -0.03989
 H26 H 0.62311 1.04985 -0.00502
 C27 C 0.62006 1.09524 -0.08130
 H28 H 0.65738 1.11773 -0.07755
 C29 C 0.52647 1.03388 -0.08846
 H30 H 0.49050 1.00891 -0.09114
 C31 C 0.54553 1.07071 -0.13135
 H32 H 0.52367 1.07448 -0.16677
 N33 N 0.55480 1.02651 -0.04429
 C34 C 0.43916 1.03991 0.03047
 H35 H 0.45037 1.06729 -0.00463
 C36 C 0.39169 1.05543 0.05950
 H37 H 0.36663 1.09500 0.04642
 C38 C 0.45796 0.95493 0.09007
 H39 H 0.48402 0.91559 0.10146
 C40 C 0.41111 0.96880 0.12024
 H41 H 0.40175 0.93951 0.15471
 Zn42 Zn 0.53418 0.96553 0.00752
 N43 N 0.47076 0.99001 0.04594
 C44 C 0.62107 0.89349 0.05882
 N45 N 0.59130 0.94650 0.05431
 C46 C 0.59888 0.98831 0.08592
 C47 C 0.63802 0.97811 0.12361
 C48 C 0.66065 0.88120 0.09644
 C49 C 0.55234 0.88547 -0.06639
 C50 C 0.53384 0.85217 -0.10313
 C51 C 0.44669 0.84545 -0.05491
 C52 C 0.46658 0.87919 -0.01950
 N53 N 0.51773 0.90051 -0.02694
 H54 H 0.61367 0.86056 0.03373
 H55 H 0.57380 1.02959 0.08213
 H56 H 0.64227 1.01211 0.14846
 H57 H 0.68372 0.83861 0.09998
 H58 H 0.59252 0.90376 -0.07188
 H59 H 0.56079 0.84426 -0.13603
 H60 H 0.40456 0.83215 -0.04982
 H61 H 0.43932 0.89201 0.01158
 C62 C 0.37701 1.01953 0.10494
 C63 C 0.59349 1.10106 -0.12816
 C64 C 0.47926 0.83429 -0.09887
 C65 C 0.66946 0.92383 0.12951
 C66 C -0.05660 0.52570 1.08237
 H67 H -0.02651 0.48902 1.07994
 C68 C -0.07788 0.53767 1.13072
 H69 H -0.06362 0.50940 1.16418
 C70 C -0.10845 0.60867 1.04212
 H71 H -0.11933 0.63691 1.00742
 C72 C -0.13048 0.62258 1.08992
 H73 H -0.15852 0.66143 1.09156
 N74 N -0.07215 0.56080 1.03909
 C75 C 0.06564 0.48071 0.97546
 H76 H 0.08197 0.52283 0.96110
 C77 C 0.10189 0.43096 0.98617
 H78 H 0.14594 0.43527 0.97997
 C79 C -0.01121 0.42400 1.00283
 H80 H -0.05542 0.42186 1.00935
 C81 C 0.02364 0.37367 1.01548
 H82 H 0.00613 0.33262 1.03173
 Zn83 Zn -0.03945 0.54423 0.97390
 N84 N 0.01027 0.47654 0.98457
 C85 C 0.01023 0.65186 0.97543
 N86 N 0.00091 0.60990 0.94441
 C87 C 0.02603 0.61064 0.89669
 C88 C 0.06470 0.65269 0.87998
 C89 C 0.04804 0.69468 0.96017
 C90 C -0.14867 0.53139 0.94473
 C91 C -0.18833 0.50490 0.91983
 C92 C -0.11583 0.46617 0.86449
 C93 C -0.07749 0.49402 0.89017
 N94 N -0.09424 0.52454 0.93044
 H95 H -0.00904 0.65032 1.01352
 H96 H 0.01865 0.57651 0.87284
 H97 H 0.08653 0.65070 0.84309
 H98 H 0.05553 0.72632 0.98644
 H99 H -0.16150 0.55459 0.97728
 H100 H -0.23091 0.50975 0.93345
 H101 H -0.10130 0.43951 0.83434
 H102 H -0.03391 0.48775 0.88028
 C103 C 0.08087 0.37701 1.00739
 C104 C -0.11506 0.58697 1.13508
 C105 C -0.17189 0.46973 0.88043
 C106 C 0.07759 0.69399 0.91279
 C107 C 1.11124 -0.03106 0.52461
 H108 H 1.11537 -0.00829 0.48619
 C109 C 1.15790 -0.05957 0.54785
 H110 H 1.19704 -0.05846 0.52636
 C111 C 1.05557 -0.05851 0.59932
 H112 H 1.01542 -0.05769 0.61915
 C113 C 1.10111 -0.08760 0.62401
 H114 H 1.09563 -0.10883 0.66303
 N115 N 1.06110 -0.03191 0.55015
 C116 C 0.99653 0.10385 0.44344
 H117 H 0.97552 0.12698 0.47317
 C118 C 1.00548 0.13419 0.39455
 H119 H 0.99238 0.18076 0.38771
 C120 C 1.03760 0.01498 0.41574
 H121 H 1.04874 -0.03191 0.42406
 C122 C 1.04842 0.04398 0.36649
 H123 H 1.06849 0.01936 0.33709
 Zn124 Zn 0.99627 0.00434 0.51909
 N125 N 1.01298 0.04540 0.45331
 C126 C 0.99940 0.09918 0.57528
 N127 N 0.96460 0.05928 0.56258
 C128 C 0.91081 0.06045 0.57972
 C129 C 0.88991 0.10420 0.61015
 C130 C 0.98032 0.14354 0.60531
 C131 C 0.96050 -0.11240 0.52552
 C132 C 0.93215 -0.15727 0.50847
 C133 C 0.87627 -0.08246 0.45785
 C134 C 0.90525 -0.03883 0.47653
 N135 N 0.94760 -0.05453 0.50850
 H136 H 1.04208 0.09689 0.56132
 H137 H 0.88401 0.02800 0.56931
 H138 H 0.84686 0.10501 0.62314
 H139 H 1.00918 0.17454 0.61458
 H140 H 0.99492 -0.12442 0.54992
 H141 H 0.94543 -0.20283 0.52075
 H142 H 0.84476 -0.06929 0.43016
 H143 H 0.89640 0.00745 0.46284
 C144 C 1.03185 0.10421 0.35542
 C145 C 1.15315 -0.08867 0.59821
 C146 C 0.89079 -0.14265 0.47262
 C147 C 0.92472 0.14692 0.62283
 C148 C 0.14945 0.24949 1.06934
 C149 C 0.18894 0.26101 1.03027
 C150 C 0.16864 0.31080 1.00114
 C151 C 0.11803 0.32525 1.02425
 O152 O 0.10636 0.28813 1.06551
 H153 H 0.22828 0.23695 1.02442
 H154 H 0.18831 0.33376 0.96722
 C155 C -0.16239 0.65883 1.24247
 C156 C -0.14157 0.60703 1.26946
 C157 C -0.12371 0.57137 1.23302
 C158 C -0.13431 0.60423 1.18620
 O159 O -0.15857 0.65707 1.19207
 H160 H -0.13819 0.59710 1.31071
 H161 H -0.10361 0.52753 1.24026
 C162 C -0.23971 0.36351 0.82270
 C163 C -0.28372 0.38146 0.85365
 C164 C -0.26547 0.42608 0.87745
 C165 C -0.21124 0.43206 0.85969
 O166 O -0.19581 0.39426 0.82604
 H167 H -0.32402 0.36335 0.85908
 H168 H -0.28878 0.44938 0.90588
 C169 C 0.19409 0.76846 0.86038
 C170 C 0.19781 0.78025 0.91041
 C171 C 0.15294 0.75685 0.93620
 C172 C 0.12515 0.73170 0.90009
 O173 O 0.15024 0.73889 0.85380
 H174 H 0.23020 0.80212 0.92636
 H175 H 0.14363 0.75570 0.97711
 C176 C 1.08074 0.15862 0.23110
 C177 C 1.03644 0.19943 0.23461
 C178 C 1.01170 0.18445 0.28178
 C179 C 1.04251 0.13538 0.30345
 O180 O 1.08427 0.11950 0.27263
 H181 H 1.02422 0.23630 0.20659
 H182 H 0.97547 0.20665 0.29824
 C183 C 1.24938 -0.16157 0.68466
 C184 C 1.28680 -0.14570 0.64484
 C185 C 1.25591 -0.11787 0.60600
 C186 C 1.20173 -0.11838 0.62500
 O187 O 1.19787 -0.14538 0.67264
 H188 H 1.33139 -0.15207 0.64463
 H189 H 1.27171 -0.09806 0.56907
 C190 C 0.83968 -0.22812 0.38390
 C191 C 0.85910 -0.27484 0.41809
 C192 C 0.87730 -0.24948 0.45826
 C193 C 0.86826 -0.18892 0.44546
 O194 O 0.84461 -0.17611 0.40062
 H195 H 0.86144 -0.32166 0.41354
 H196 H 0.89700 -0.27275 0.49160
 C197 C 0.84966 0.24152 0.70256
 C198 C 0.89632 0.27343 0.69473
 C199 C 0.93088 0.24278 0.66336
 C200 C 0.90290 0.19413 0.65435
 O201 O 0.85342 0.19364 0.67801
 H202 H 0.90440 0.31391 0.71029
 H203 H 0.97156 0.25499 0.64902
 C204 C 0.25111 1.07911 0.15560
 C205 C 0.26023 1.03465 0.19532
 C206 C 0.30894 1.00594 0.18218
 C207 C 0.32602 1.03509 0.13521
 O208 O 0.29080 1.07959 0.11920
 H209 H 0.23448 1.02446 0.22974
 H210 H 0.32917 0.96843 0.20460
 C211 C 0.67349 1.19102 -0.21674
 C212 C 0.65321 1.15807 -0.25173
 C213 C 0.61696 1.12216 -0.22378
 C214 C 0.61881 1.13534 -0.17370
 O215 O 0.65298 1.17724 -0.16955
 H216 H 0.66452 1.15914 -0.29232
 H217 H 0.59455 1.08807 -0.23770
 C218 C 0.38795 0.79553 -0.18771
 C219 C 0.43419 0.79682 -0.22037
 C220 C 0.47651 0.80722 -0.19070
 C221 C 0.45271 0.81203 -0.14211
 O222 O 0.39907 0.80446 -0.14049
 H223 H 0.43634 0.79308 -0.26127
 H224 H 0.51876 0.81381 -0.20401
 C225 C 0.75993 0.86124 0.22548
 C226 C 0.75739 0.91839 0.23826
 C227 C 0.72468 0.95045 0.20297
 C228 C 0.70910 0.91029 0.17133
 O229 O 0.73095 0.85610 0.18488
 H230 H 0.77638 0.93452 0.27007
 H231 H 0.71310 0.99732 0.20150
   
