data_POSCAR
  _audit_creation_date              2014-09-24
  _audit_creation_method            'ToBaCCo'
  _symmetry_space_group_name_H-M    'P1'
  _symmetry_Int_Tables_number       1
  _symmetry_cell_setting            triclinic
  loop_
  _symmetry_equiv_pos_as_xyz
 x,y,z
_cell_length_a 52.0289
_cell_length_b 37.6970
_cell_length_c 34.8921
_cell_angle_alpha 89.967300
_cell_angle_beta 90.019200
_cell_angle_gamma 90.030500
loop_
  _atom_site_label
  _atom_site_type_symbol
  _atom_site_fract_x
  _atom_site_fract_y
  _atom_site_fract_z
C1 C 0.23180 0.23044 0.22983
 C2 C 0.23159 0.26818 0.23091
 C3 C 0.25068 0.28621 0.25150
 C4 C 0.27000 0.26811 0.27150
 C5 C 0.27031 0.23037 0.27138
 C6 C 0.25119 0.21239 0.25029
 H7 H 0.25138 0.18366 0.24983
 H8 H 0.25049 0.31499 0.25200
 C9 C 0.77062 0.26934 0.23172
 C10 C 0.76991 0.23154 0.23054
 C11 C 0.75006 0.21333 0.24941
 C12 C 0.73098 0.23137 0.26991
 C13 C 0.73194 0.26878 0.27222
 C14 C 0.75168 0.28713 0.25331
 H15 H 0.75157 0.31586 0.25446
 H16 H 0.74960 0.18458 0.24848
 C17 C 0.72924 0.73169 0.73676
 C18 C 0.73032 0.76911 0.73447
 C19 C 0.75035 0.78731 0.75288
 C20 C 0.76913 0.76939 0.77475
 C21 C 0.76792 0.73165 0.77667
 C22 C 0.74793 0.71359 0.75801
 H23 H 0.74754 0.68483 0.75872
 H24 H 0.75023 0.81605 0.75198
 C25 C 0.26833 0.76819 0.72815
 C26 C 0.26918 0.73076 0.73003
 C27 C 0.24973 0.71243 0.74960
 C28 C 0.22910 0.73027 0.76734
 C29 C 0.22875 0.76807 0.76610
 C30 C 0.24824 0.78626 0.74638
 H31 H 0.24795 0.81502 0.74562
 H32 H 0.25037 0.68368 0.74973
 O33 O 1.02605 0.04476 0.00320
 O34 O 0.97506 -0.00551 -0.04574
 O35 O 0.97603 0.04493 0.00532
 O36 O 1.02510 -0.00612 -0.04712
 O37 O 1.02590 -0.04555 -0.00041
 O38 O 0.97633 0.00483 0.05137
 O39 O 0.97573 -0.04550 0.00042
 O40 O 1.02636 0.00527 0.04987
 Cu41 Cu 1.00048 0.02349 -0.02574
 Cu42 Cu 1.00112 -0.02424 0.02994
 C43 C 1.03495 0.03365 0.03491
 C44 C 0.96666 -0.03411 -0.03110
 C45 C 0.96773 0.03356 0.03731
 C46 C 1.03402 -0.03447 -0.03258
 O47 O 0.47598 0.49340 0.45433
 O48 O 0.52612 0.54328 0.50559
 O49 O 0.52598 0.49256 0.45519
 O50 O 0.47607 0.54380 0.50557
 O51 O 0.47529 0.50354 0.55145
 O52 O 0.52589 0.45314 0.50193
 O53 O 0.52526 0.50392 0.55238
 O54 O 0.47576 0.45323 0.50031
 Cu55 Cu 0.50105 0.52225 0.47553
 Cu56 Cu 0.50048 0.47444 0.53113
 C57 C 0.46735 0.46469 0.46842
 C58 C 0.53425 0.53221 0.53778
 C59 C 0.53461 0.46419 0.47008
 C60 C 0.46713 0.53241 0.53717
 O61 O 0.02587 0.50340 -0.04800
 O62 O -0.02454 0.45405 0.00324
 O63 O -0.02414 0.50400 -0.04812
 O64 O 0.02551 0.45375 0.00418
 O65 O 0.02568 0.49453 0.04947
 O66 O -0.02417 0.54435 -0.00236
 O67 O -0.02439 0.49437 0.04902
 O68 O 0.02583 0.54409 -0.00261
 Cu69 Cu 0.00072 0.47472 -0.02673
 Cu70 Cu 0.00077 0.52338 0.02795
 C71 C 0.03440 0.53229 -0.03423
 C72 C -0.03315 0.46576 0.03485
 C73 C -0.03272 0.53276 -0.03408
 C74 C 0.03409 0.46556 0.03581
 O75 O 0.47524 1.04416 0.49872
 O76 O 0.52600 0.99428 0.54856
 O77 O 0.52527 1.04470 0.49749
 O78 O 0.47591 0.99324 0.54904
 O79 O 0.47550 0.95395 0.50222
 O80 O 0.52552 1.00453 0.45156
 O81 O 0.52558 0.95406 0.50268
 O82 O 0.47548 1.00480 0.45198
 Cu83 Cu 0.50063 1.02306 0.52811
 Cu84 Cu 0.50055 0.97534 0.47248
 C85 C 0.46667 1.03308 0.46681
 C86 C 0.53443 0.96557 0.53428
 C87 C 0.53388 1.03336 0.46569
 C88 C 0.46710 0.96491 0.53427
 C89 C 1.17538 0.17086 0.16931
 C90 C 1.18419 0.15971 0.20538
 C91 C 1.20299 0.17900 0.22490
 C92 C 1.21339 0.21032 0.20909
 C93 C 1.20512 0.22063 0.17222
 C94 C 1.18627 0.20131 0.15275
 C95 C 1.15475 0.15088 0.14928
 C96 C 1.15584 0.14527 0.10949
 C97 C 1.13640 0.12636 0.09081
 C98 C 1.11547 0.11261 0.11152
 C99 C 1.11435 0.11833 0.15127
 C100 C 1.13374 0.13728 0.16992
 C101 C 1.09488 0.09234 0.09181
 C102 C 1.08450 0.06163 0.10864
 C103 C 1.06506 0.04258 0.09018
 C104 C 1.05552 0.05386 0.05451
 C105 C 1.06590 0.08459 0.03769
 C106 C 1.08539 0.10359 0.05611
 H107 H 1.17650 0.13599 0.21864
 H108 H 1.20851 0.17007 0.25323
 H109 H 1.21356 0.24329 0.15792
 H110 H 1.17998 0.21053 0.12489
 H111 H 1.17195 0.15499 0.09287
 H112 H 1.13797 0.12196 0.06024
 H113 H 1.09825 0.10860 0.16789
 H114 H 1.13209 0.14172 0.20047
 H115 H 1.09165 0.05206 0.13590
 H116 H 1.05754 0.01897 0.10386
 H117 H 1.05895 0.09403 0.01026
 H118 H 1.09279 0.12738 0.04266
 C119 C 0.67161 0.67088 0.67712
 C120 C 0.67610 0.66555 0.71647
 C121 C 0.69485 0.68523 0.73571
 C122 C 0.70952 0.71062 0.71605
 C123 C 0.70545 0.71555 0.67663
 C124 C 0.68656 0.69611 0.65743
 C125 C 0.65144 0.65025 0.65673
 C126 C 0.65538 0.63859 0.61890
 C127 C 0.63634 0.61945 0.59965
 C128 C 0.61302 0.61128 0.61788
 C129 C 0.60908 0.62271 0.65572
 C130 C 0.62803 0.64210 0.67488
 C131 C 0.59282 0.59101 0.59742
 C132 C 0.57972 0.56321 0.61580
 C133 C 0.56077 0.54400 0.59641
 C134 C 0.55436 0.55243 0.55834
 C135 C 0.56739 0.58039 0.54005
 C136 C 0.58650 0.59936 0.55933
 H137 H 0.66528 0.64591 0.73236
 H138 H 0.69777 0.68086 0.76609
 H139 H 0.71683 0.73458 0.66073
 H140 H 0.68345 0.70118 0.62724
 H141 H 0.67335 0.64382 0.60429
 H142 H 0.64001 0.61054 0.57066
 H143 H 0.59113 0.61718 0.67026
 H144 H 0.62416 0.65121 0.70373
 H145 H 0.58438 0.55603 0.64505
 H146 H 0.55107 0.52263 0.61129
 H147 H 0.56291 0.58753 0.51073
 H148 H 0.59613 0.62090 0.54461
 C149 C -0.17301 0.32990 0.17214
 C150 C -0.18136 0.34011 0.20876
 C151 C -0.20008 0.32046 0.22809
 C152 C -0.21081 0.28969 0.21153
 C153 C -0.20291 0.28029 0.17422
 C154 C -0.18416 0.29993 0.15497
 C155 C -0.15263 0.35032 0.15204
 C156 C -0.15419 0.35658 0.11239
 C157 C -0.13486 0.37544 0.09347
 C158 C -0.11355 0.38855 0.11378
 C159 C -0.11202 0.38244 0.15344
 C160 C -0.13132 0.36350 0.17234
 C161 C -0.09291 0.40834 0.09363
 C162 C -0.08197 0.43882 0.11013
 C163 C -0.06257 0.45747 0.09109
 C164 C -0.05361 0.44596 0.05519
 C165 C -0.06450 0.41540 0.03876
 C166 C -0.08396 0.39685 0.05774
 H167 H -0.17345 0.36342 0.22253
 H168 H -0.20533 0.32870 0.25676
 H169 H -0.21163 0.25817 0.15933
 H170 H -0.17820 0.29139 0.12672
 H171 H -0.17055 0.34728 0.09603
 H172 H -0.13674 0.38019 0.06299
 H173 H -0.09565 0.39176 0.16975
 H174 H -0.12933 0.35861 0.20278
 H175 H -0.08868 0.44853 0.13757
 H176 H -0.05462 0.48095 0.10449
 H177 H -0.05802 0.40579 0.01117
 H178 H -0.09179 0.37320 0.04454
 C179 C 0.32673 0.82815 0.66930
 C180 C 0.32068 0.83538 0.70780
 C181 C 0.30157 0.81609 0.72668
 C182 C 0.28808 0.78919 0.70750
 C183 C 0.29365 0.78241 0.66883
 C184 C 0.31289 0.80152 0.64999
 C185 C 0.34745 0.84821 0.64948
 C186 C 0.34481 0.85813 0.61083
 C187 C 0.36435 0.87689 0.59223
 C188 C 0.38689 0.88634 0.61191
 C189 C 0.38954 0.87653 0.65055
 C190 C 0.37009 0.85758 0.66909
 C191 C 0.40759 0.90633 0.59218
 C192 C 0.41992 0.93485 0.61048
 C193 C 0.43925 0.95388 0.59172
 C194 C 0.44680 0.94461 0.55437
 C195 C 0.43458 0.91591 0.53621
 C196 C 0.41512 0.89706 0.55486
 H197 H 0.33062 0.85614 0.72331
 H198 H 0.29750 0.82187 0.75648
 H199 H 0.28323 0.76208 0.65334
 H200 H 0.31721 0.79502 0.62047
 H201 H 0.32747 0.85188 0.59507
 H202 H 0.36164 0.88454 0.56257
 H203 H 0.40687 0.88302 0.66626
 H204 H 0.37296 0.84979 0.69865
 H205 H 0.41432 0.94277 0.63911
 H206 H 0.44828 0.97586 0.60649
 H207 H 0.43994 0.90809 0.50744
 H208 H 0.40615 0.87495 0.54024
 C209 C -0.17252 0.66933 -0.17045
 C210 C -0.19838 0.66481 -0.15979
 C211 C -0.21771 0.68472 -0.17736
 C212 C -0.21154 0.70974 -0.20569
 C213 C -0.18582 0.71375 -0.21705
 C214 C -0.16647 0.69381 -0.19951
 C215 C -0.15193 0.64897 -0.15087
 C216 C -0.13132 0.63463 -0.17177
 C217 C -0.11187 0.61568 -0.15316
 C218 C -0.11258 0.61081 -0.11323
 C219 C -0.13321 0.62512 -0.09237
 C220 C -0.15266 0.64396 -0.11098
 C221 C -0.09185 0.59099 -0.09330
 C222 C -0.08220 0.60309 -0.05804
 C223 C -0.06293 0.58428 -0.03896
 C224 C -0.05289 0.55288 -0.05468
 C225 C -0.06244 0.54086 -0.09006
 C226 C -0.08169 0.55974 -0.10918
 H227 H -0.20367 0.64575 -0.13794
 H228 H -0.23746 0.68109 -0.16840
 H229 H -0.18072 0.73264 -0.23918
 H230 H -0.14672 0.69807 -0.20813
 H231 H -0.13035 0.63780 -0.20259
 H232 H -0.09610 0.60524 -0.16995
 H233 H -0.13443 0.62148 -0.06164
 H234 H -0.16814 0.65502 -0.09404
 H235 H -0.08938 0.62734 -0.04535
 H236 H -0.05594 0.59434 -0.01182
 H237 H -0.05514 0.51675 -0.10291
 H238 H -0.08895 0.54956 -0.13611
 C239 C 0.32688 1.17037 0.33113
 C240 C 0.31847 1.15998 0.29459
 C241 C 0.29968 1.17945 0.27525
 C242 C 0.28889 1.21020 0.29172
 C243 C 0.29684 1.21979 0.32896
 C244 C 0.31567 1.20030 0.34824
 C245 C 0.34736 1.15011 0.35117
 C246 C 0.34587 1.14374 0.39081
 C247 C 0.36522 1.12476 0.40958
 C248 C 0.38646 1.11168 0.38912
 C249 C 0.38795 1.11803 0.34951
 C250 C 0.36864 1.13707 0.33076
 C251 C 0.40702 1.09152 0.40902
 C252 C 0.41781 1.06117 0.39209
 C253 C 0.43717 1.04219 0.41082
 C254 C 0.44623 1.05322 0.44685
 C255 C 0.43546 1.08363 0.46374
 C256 C 0.41605 1.10253 0.44506
 H257 H 0.32642 1.13668 0.28087
 H258 H 0.29441 1.17109 0.24661
 H259 H 0.28808 1.24190 0.34377
 H260 H 0.32166 1.20895 0.37646
 H261 H 0.32954 1.15296 0.40724
 H262 H 0.36336 1.11984 0.44003
 H263 H 0.40428 1.10878 0.33309
 H264 H 0.37059 1.14207 0.30034
 H265 H 0.41103 1.05181 0.36454
 H266 H 0.44501 1.01884 0.39707
 H267 H 0.44203 1.09287 0.49145
 H268 H 0.40832 1.12606 0.45860
 C269 C 1.17272 -0.17056 -0.17196
 C270 C 1.17714 -0.16427 -0.21110
 C271 C 1.19552 -0.18395 -0.23105
 C272 C 1.20985 -0.21026 -0.21223
 C273 C 1.20601 -0.21585 -0.17284
 C274 C 1.18744 -0.19642 -0.15297
 C275 C 1.15257 -0.15055 -0.15115
 C276 C 1.13558 -0.16819 -0.12634
 C277 C 1.11627 -0.14947 -0.10725
 C278 C 1.11362 -0.11263 -0.11232
 C279 C 1.13077 -0.09500 -0.13700
 C280 C 1.14996 -0.11378 -0.15631
 C281 C 1.09308 -0.09270 -0.09197
 C282 C 1.08009 -0.06463 -0.11016
 C283 C 1.06092 -0.04574 -0.09092
 C284 C 1.05416 -0.05464 -0.05313
 C285 C 1.06701 -0.08281 -0.03500
 C286 C 1.08630 -0.10153 -0.05414
 H287 H 1.16594 -0.14468 -0.22649
 H288 H 1.19821 -0.17918 -0.26140
 H289 H 1.21720 -0.23556 -0.15762
 H290 H 1.18469 -0.20143 -0.12268
 H291 H 1.13693 -0.19661 -0.12228
 H292 H 1.10313 -0.16400 -0.08900
 H293 H 1.12960 -0.06657 -0.14104
 H294 H 1.16301 -0.09946 -0.17492
 H295 H 1.08452 -0.05750 -0.13948
 H296 H 1.05129 -0.02429 -0.10575
 H297 H 1.06236 -0.09018 -0.00581
 H298 H 1.09617 -0.12260 -0.03904
 C299 C 0.67477 0.32813 0.33406
 C300 C 0.68016 0.33589 0.29550
 C301 C 0.69886 0.31675 0.27562
 C302 C 0.71257 0.28953 0.29392
 C303 C 0.70759 0.28218 0.33268
 C304 C 0.68870 0.30111 0.35249
 C305 C 0.65453 0.34803 0.35482
 C306 C 0.63678 0.33015 0.37822
 C307 C 0.61732 0.34884 0.39702
 C308 C 0.61528 0.38587 0.39302
 C309 C 0.63324 0.40373 0.36989
 C310 C 0.65259 0.38501 0.35091
 C311 C 0.59446 0.40578 0.41273
 C312 C 0.58222 0.43444 0.39447
 C313 C 0.56280 0.45337 0.41306
 C314 C 0.55504 0.44396 0.45027
 C315 C 0.56713 0.41518 0.46847
 C316 C 0.58666 0.39638 0.44995
 H317 H 0.66954 0.35632 0.28049
 H318 H 0.70234 0.32277 0.24571
 H319 H 0.71825 0.26169 0.34753
 H320 H 0.68517 0.29491 0.38233
 H321 H 0.63763 0.30158 0.38132
 H322 H 0.60357 0.33419 0.41412
 H323 H 0.63254 0.43229 0.36677
 H324 H 0.66624 0.39952 0.33348
 H325 H 0.58743 0.44201 0.36556
 H326 H 0.55376 0.47527 0.39817
 H327 H 0.56169 0.40738 0.49722
 H328 H 0.59593 0.37479 0.46506
 C329 C 0.82611 -0.17057 -0.16626
 C330 C 0.81774 -0.16040 -0.20291
 C331 C 0.79883 -0.17988 -0.22205
 C332 C 0.78791 -0.21043 -0.20527
 C333 C 0.79583 -0.21975 -0.16793
 C334 C 0.81477 -0.20030 -0.14887
 C335 C 0.84668 -0.15035 -0.14632
 C336 C 0.84529 -0.14400 -0.10667
 C337 C 0.86477 -0.12526 -0.08793
 C338 C 0.88605 -0.11233 -0.10844
 C339 C 0.88743 -0.11860 -0.14808
 C340 C 0.86800 -0.13744 -0.16679
 C341 C 0.90673 -0.09234 -0.08859
 C342 C 0.91752 -0.06195 -0.10549
 C343 C 0.93695 -0.04306 -0.08683
 C344 C 0.94611 -0.05423 -0.05089
 C345 C 0.93537 -0.08469 -0.03402
 C346 C 0.91585 -0.10349 -0.05263
 H347 H 0.82579 -0.13726 -0.21685
 H348 H 0.79355 -0.17166 -0.25074
 H349 H 0.78694 -0.24160 -0.15279
 H350 H 0.82071 -0.20881 -0.12058
 H351 H 0.82893 -0.15310 -0.09018
 H352 H 0.86300 -0.12038 -0.05747
 H353 H 0.90379 -0.10944 -0.16453
 H354 H 0.86988 -0.14241 -0.19722
 H355 H 0.91067 -0.05247 -0.13296
 H356 H 0.94478 -0.01967 -0.10058
 H357 H 0.94201 -0.09402 -0.00638
 H358 H 0.90811 -0.12705 -0.03911
 C359 C 0.32937 0.32904 0.32672
 C360 C 0.33564 0.30451 0.29784
 C361 C 0.31635 0.28513 0.27938
 C362 C 0.29048 0.28979 0.28962
 C363 C 0.28412 0.31494 0.31766
 C364 C 0.30337 0.33428 0.33615
 C365 C 0.34984 0.34876 0.34734
 C366 C 0.34834 0.35368 0.38720
 C367 C 0.36758 0.37218 0.40673
 C368 C 0.38874 0.38626 0.38684
 C369 C 0.39026 0.38132 0.34697
 C370 C 0.37105 0.36271 0.32744
 C371 C 0.40905 0.40617 0.40761
 C372 C 0.41953 0.43732 0.39191
 C373 C 0.43844 0.45629 0.41165
 C374 C 0.44736 0.44450 0.44749
 C375 C 0.43696 0.41326 0.46312
 C376 C 0.41799 0.39434 0.44342
 H377 H 0.35549 0.29973 0.29013
 H378 H 0.32161 0.26608 0.25753
 H379 H 0.26425 0.31905 0.32577
 H380 H 0.29792 0.35341 0.35781
 H381 H 0.33240 0.34289 0.40339
 H382 H 0.36574 0.37584 0.43738
 H383 H 0.40645 0.39156 0.33091
 H384 H 0.37263 0.35958 0.29668
 H385 H 0.41281 0.44734 0.36460
 H386 H 0.44602 0.48028 0.39882
 H387 H 0.44345 0.40340 0.49062
 H388 H 0.41052 0.37020 0.45603
 C389 C 0.17048 0.66996 -0.17787
 C390 C 0.19636 0.65975 -0.17519
 C391 C 0.21553 0.67928 -0.19364
 C392 C 0.20942 0.70996 -0.21494
 C393 C 0.18329 0.71937 -0.21851
 C394 C 0.16414 0.69981 -0.20002
 C395 C 0.15021 0.64969 -0.15738
 C396 C 0.13002 0.66746 -0.13877
 C397 C 0.11120 0.64844 -0.11889
 C398 C 0.11212 0.61120 -0.11721
 C399 C 0.13224 0.59343 -0.13599
 C400 C 0.15107 0.61245 -0.15583
 C401 C 0.09222 0.59096 -0.09589
 C402 C 0.08231 0.55914 -0.11079
 C403 C 0.06361 0.54007 -0.09073
 C404 C 0.05438 0.55238 -0.05530
 C405 C 0.06430 0.58419 -0.04036
 C406 C 0.08300 0.60326 -0.06044
 H407 H 0.20191 0.63711 -0.15796
 H408 H 0.23531 0.67117 -0.18961
 H409 H 0.17746 0.74136 -0.23646
 H410 H 0.14428 0.70776 -0.20354
 H411 H 0.12897 0.69615 -0.13910
 H412 H 0.09579 0.66288 -0.10509
 H413 H 0.13364 0.56479 -0.13491
 H414 H 0.16623 0.59797 -0.17020
 H415 H 0.08876 0.54921 -0.13826
 H416 H 0.05630 0.51573 -0.10311
 H417 H 0.05764 0.59436 -0.01310
 H418 H 0.09051 0.62743 -0.04795
 C419 C 0.67128 1.17137 0.32558
 C420 C 0.66500 1.19817 0.29916
 C421 C 0.68434 1.21733 0.28060
 C422 C 0.71032 1.21037 0.28850
 C423 C 0.71664 1.18334 0.31450
 C424 C 0.69732 1.16403 0.33288
 C425 C 0.65080 1.15120 0.34562
 C426 C 0.65295 1.11433 0.35057
 C427 C 0.63380 1.09535 0.36978
 C428 C 0.61214 1.11285 0.38463
 C429 C 0.60999 1.14974 0.37967
 C430 C 0.62908 1.16870 0.36027
 C431 C 0.59193 1.09266 0.40528
 C432 C 0.58096 1.10616 0.43906
 C433 C 0.56214 1.08692 0.45872
 C434 C 0.55380 1.05383 0.44492
 C435 C 0.56469 1.04043 0.41102
 C436 C 0.58358 1.05960 0.39148
 H437 H 0.64511 1.20404 0.29255
 H438 H 0.67906 1.23769 0.26015
 H439 H 0.73656 1.17762 0.32106
 H440 H 0.70274 1.14380 0.35339
 H441 H 0.66935 1.10009 0.33930
 H442 H 0.63612 1.06701 0.37348
 H443 H 0.59340 1.16389 0.39049
 H444 H 0.62703 1.19714 0.35720
 H445 H 0.58723 1.13138 0.45060
 H446 H 0.55415 1.09797 0.48476
 H447 H 0.55866 1.01507 0.39957
 H448 H 0.59145 1.04873 0.36528
 C449 C 0.17153 0.32953 0.17794
 C450 C 0.19748 0.33623 0.16938
 C451 C 0.21693 0.31660 0.18703
 C452 C 0.21082 0.28986 0.21350
 C453 C 0.18496 0.28378 0.22293
 C454 C 0.16547 0.30324 0.20508
 C455 C 0.15089 0.34956 0.15812
 C456 C 0.12892 0.33199 0.14437
 C457 C 0.10981 0.35070 0.12474
 C458 C 0.11220 0.38741 0.11866
 C459 C 0.13406 0.40502 0.13273
 C460 C 0.15323 0.38629 0.15215
 C461 C 0.09204 0.40727 0.09755
 C462 C 0.08390 0.44073 0.11045
 C463 C 0.06506 0.45957 0.09046
 C464 C 0.05401 0.44546 0.05700
 C465 C 0.06216 0.41199 0.04408
 C466 C 0.08092 0.39307 0.06420
 H467 H 0.20271 0.35608 0.14834
 H468 H 0.23677 0.32172 0.17939
 H469 H 0.17988 0.26365 0.24376
 H470 H 0.14566 0.29789 0.21265
 H471 H 0.12671 0.30364 0.14822
 H472 H 0.09306 0.33649 0.11454
 H473 H 0.13654 0.43324 0.12818
 H474 H 0.16985 0.40057 0.16270
 H475 H 0.09191 0.45217 0.13629
 H476 H 0.05918 0.48526 0.10123
 H477 H 0.05403 0.40039 0.01840
 H478 H 0.08702 0.36752 0.05335
 C479 C 0.67206 0.82891 0.67522
 C480 C 0.69823 0.83428 0.66698
 C481 C 0.71712 0.81503 0.68644
 C482 C 0.71022 0.79007 0.71447
 C483 C 0.68412 0.78523 0.72331
 C484 C 0.66521 0.80426 0.70367
 C485 C 0.65197 0.84893 0.65418
 C486 C 0.62966 0.83171 0.64112
 C487 C 0.61073 0.85054 0.62128
 C488 C 0.61362 0.88705 0.61433
 C489 C 0.63592 0.90426 0.62741
 C490 C 0.65493 0.88538 0.64701
 C491 C 0.59337 0.90715 0.59370
 C492 C 0.58570 0.94079 0.60669
 C493 C 0.56653 0.95968 0.58745
 C494 C 0.55471 0.94546 0.55464
 C495 C 0.56245 0.91185 0.54156
 C496 C 0.58152 0.89286 0.56097
 H497 H 0.70405 0.85289 0.64499
 H498 H 0.73714 0.81917 0.67918
 H499 H 0.67838 0.76662 0.74537
 H500 H 0.64523 0.80002 0.71105
 H501 H 0.62699 0.80356 0.64592
 H502 H 0.59365 0.83665 0.61182
 H503 H 0.63876 0.93231 0.62215
 H504 H 0.67183 0.89939 0.65700
 H505 H 0.59429 0.95229 0.63208
 H506 H 0.56101 0.98549 0.59828
 H507 H 0.55374 0.90016 0.51637
 H508 H 0.58723 0.86714 0.55010
 C509 C 0.82989 0.17014 0.17748
 C510 C 0.80398 0.16418 0.16806
 C511 C 0.78453 0.18385 0.18565
 C512 C 0.79062 0.20986 0.21295
 C513 C 0.81644 0.21518 0.22319
 C514 C 0.83592 0.19571 0.20538
 C515 C 0.85055 0.15005 0.15785
 C516 C 0.87281 0.16745 0.14490
 C517 C 0.89200 0.14868 0.12558
 C518 C 0.88942 0.11207 0.11906
 C519 C 0.86726 0.09462 0.13231
 C520 C 0.84799 0.11343 0.15139
 C521 C 0.90968 0.09215 0.09831
 C522 C 0.91760 0.05861 0.11129
 C523 C 0.93653 0.03970 0.09160
 C524 C 0.94786 0.05382 0.05834
 C525 C 0.93994 0.08739 0.04537
 C526 C 0.92111 0.10640 0.06522
 H527 H 0.79879 0.14487 0.14644
 H528 H 0.76474 0.17932 0.17736
 H529 H 0.82152 0.23470 0.24467
 H530 H 0.85570 0.20046 0.21360
 H531 H 0.87517 0.19572 0.14917
 H532 H 0.90897 0.16275 0.11598
 H533 H 0.86465 0.06648 0.12740
 H534 H 0.83114 0.09929 0.16132
 H535 H 0.90932 0.04715 0.13694
 H536 H 0.94222 0.01393 0.10238
 H537 H 0.94828 0.09900 0.01984
 H538 H 0.91519 0.13203 0.05434
 C539 C 0.32929 0.67096 0.67526
 C540 C 0.30332 0.66405 0.66703
 C541 C 0.28388 0.68334 0.68508
 C542 C 0.29001 0.70993 0.71169
 C543 C 0.31591 0.71653 0.72044
 C544 C 0.33539 0.69738 0.70220
 C545 C 0.34988 0.65070 0.65564
 C546 C 0.37192 0.66803 0.64175
 C547 C 0.39106 0.64899 0.62260
 C548 C 0.38864 0.61220 0.61716
 C549 C 0.36668 0.59486 0.63129
 C550 C 0.34749 0.61392 0.65024
 C551 C 0.40888 0.59192 0.59675
 C552 C 0.41684 0.55863 0.61043
 C553 C 0.43576 0.53937 0.59112
 C554 C 0.44708 0.55290 0.55758
 C555 C 0.43912 0.58622 0.54388
 C556 C 0.42027 0.60555 0.56332
 H557 H 0.29804 0.64414 0.64609
 H558 H 0.26402 0.67792 0.67783
 H559 H 0.32104 0.73656 0.74133
 H560 H 0.35522 0.70293 0.70948
 H561 H 0.37417 0.69641 0.64519
 H562 H 0.40788 0.66300 0.61233
 H563 H 0.36417 0.56659 0.62722
 H564 H 0.33083 0.59981 0.66093
 H565 H 0.40862 0.54763 0.63636
 H566 H 0.44149 0.51383 0.60248
 H567 H 0.44746 0.59738 0.51813
 H568 H 0.41432 0.63096 0.55188
   
