data_POSCAR
  _audit_creation_date              2014-09-24
  _audit_creation_method            'ToBaCCo'
  _symmetry_space_group_name_H-M    'P1'
  _symmetry_Int_Tables_number       1
  _symmetry_cell_setting            triclinic
  loop_
  _symmetry_equiv_pos_as_xyz
 x,y,z
_cell_length_a 45.8153
_cell_length_b 45.8127
_cell_length_c 38.3370
_cell_angle_alpha 89.972700
_cell_angle_beta 89.926400
_cell_angle_gamma 91.597100
loop_
  _atom_site_label
  _atom_site_type_symbol
  _atom_site_fract_x
  _atom_site_fract_y
  _atom_site_fract_z
O1 O 0.02732 0.29952 -0.03010
 O2 O -0.03062 0.29779 0.03672
 O3 O 0.02669 0.29760 0.03761
 O4 O -0.02995 0.29911 -0.03086
 O5 O -0.03092 0.25093 -0.03234
 O6 O 0.02511 0.24941 0.03591
 O7 O -0.03124 0.24968 0.03572
 O8 O 0.02569 0.25135 -0.03206
 Cu9 Cu -0.00149 0.30336 0.00350
 Cu10 Cu -0.00297 0.24555 0.00160
 C11 C 0.03639 0.27571 -0.04249
 C12 C -0.04087 0.27341 0.04777
 C13 C 0.03550 0.27314 0.04844
 C14 C -0.04015 0.27518 -0.04317
 O15 O 0.47627 0.79803 0.53691
 O16 O 0.53310 0.79472 0.46895
 O17 O 0.47606 0.79805 0.46927
 O18 O 0.53327 0.79443 0.53670
 O19 O 0.52867 0.74634 0.53671
 O20 O 0.47223 0.74990 0.46909
 O21 O 0.52849 0.74662 0.46869
 O22 O 0.47239 0.74989 0.53706
 Cu23 Cu 0.50512 0.80117 0.50298
 Cu24 Cu 0.50004 0.74338 0.50289
 C25 C 0.46461 0.77449 0.54854
 C26 C 0.54044 0.77006 0.45719
 C27 C 0.46440 0.77450 0.45770
 C28 C 0.54070 0.76970 0.54821
 O29 O 0.97216 0.70815 -0.03274
 O30 O 1.02994 0.70568 0.03411
 O31 O 0.97272 0.70605 0.03497
 O32 O 1.02973 0.70827 -0.03348
 O33 O 1.03016 0.75636 -0.03171
 O34 O 0.97493 0.75421 0.03747
 O35 O 1.03131 0.75385 0.03618
 O36 O 0.97400 0.75623 -0.03050
 Cu37 Cu 1.00097 0.70218 0.00043
 Cu38 Cu 1.00273 0.75994 0.00311
 C39 C 0.96314 0.73269 -0.04310
 C40 C 1.04049 0.72942 0.04652
 C41 C 0.96428 0.72990 0.04799
 C42 C 1.03969 0.73284 -0.04437
 O43 O 0.52361 0.19782 0.53600
 O44 O 0.46668 0.20096 0.46804
 O45 O 0.52379 0.19754 0.46832
 O46 O 0.46644 0.20092 0.53584
 O47 O 0.47103 0.24903 0.53588
 O48 O 0.52738 0.24571 0.46794
 O49 O 0.47114 0.24907 0.46788
 O50 O 0.52730 0.24597 0.53586
 Cu51 Cu 0.49469 0.19445 0.50207
 Cu52 Cu 0.49960 0.25224 0.50187
 C53 C 0.53518 0.22146 0.54745
 C54 C 0.45925 0.22564 0.45636
 C55 C 0.53536 0.22112 0.45665
 C56 C 0.45903 0.22563 0.54741
 O57 O 0.70107 0.02275 -0.02988
 O58 O 0.70533 -0.03521 0.03686
 O59 O 0.70376 0.02208 0.03782
 O60 O 0.70223 -0.03450 -0.03066
 O61 O 0.75036 -0.03192 -0.03343
 O62 O 0.75190 0.02437 0.03474
 O63 O 0.75336 -0.03182 0.03450
 O64 O 0.74919 0.02457 -0.03314
 Cu65 Cu 0.69824 -0.00645 0.00383
 Cu66 Cu 0.75600 -0.00345 0.00031
 C67 C 0.72452 0.03348 -0.04294
 C68 C 0.73018 -0.04339 0.04723
 C69 C 0.72817 0.03283 0.04795
 C70 C 0.72610 -0.04294 -0.04361
 O71 O 0.20322 0.47305 0.53728
 O72 O 0.20098 0.52958 0.46873
 O73 O 0.20069 0.47224 0.46962
 O74 O 0.20313 0.53026 0.53637
 O75 O 0.25131 0.53102 0.53415
 O76 O 0.24884 0.47383 0.46697
 O77 O 0.24913 0.53042 0.46622
 O78 O 0.25140 0.47467 0.53489
 Cu79 Cu 0.19714 0.50115 0.50320
 Cu80 Cu 0.25497 0.50261 0.50025
 C81 C 0.22778 0.46431 0.54782
 C82 C 0.22476 0.53970 0.45588
 C83 C 0.22440 0.46311 0.45697
 C84 C 0.22770 0.54046 0.54670
 O85 O 0.29560 1.03344 0.03466
 O86 O 0.29491 0.97671 -0.03383
 O87 O 0.29323 1.03398 -0.03277
 O88 O 0.29759 0.97615 0.03397
 O89 O 0.24946 0.97362 0.03661
 O90 O 0.24520 1.03055 -0.03044
 O91 O 0.24676 0.97433 -0.03133
 O92 O 0.24759 1.02998 0.03753
 Cu93 Cu 0.30019 1.00530 0.00027
 Cu94 Cu 0.24247 1.00182 0.00339
 C95 C 0.27162 1.04153 0.04778
 C96 C 0.27060 0.96599 -0.04436
 C97 C 0.26839 1.04222 -0.04305
 C98 C 0.27418 0.96507 0.04670
 O99 O 0.79744 0.46838 0.46664
 O100 O 0.80090 0.52602 0.53381
 O101 O 0.79987 0.46866 0.53433
 O102 O 0.79796 0.52562 0.46622
 O103 O 0.74979 0.52443 0.46887
 O104 O 0.75174 0.46836 0.53717
 O105 O 0.75275 0.52493 0.53675
 O106 O 0.74929 0.46808 0.46927
 Cu107 Cu 0.80391 0.49723 0.50001
 Cu108 Cu 0.74609 0.49638 0.50335
 C109 C 0.77272 0.45849 0.45643
 C110 C 0.77734 0.53534 0.54667
 C111 C 0.77604 0.45877 0.54730
 C112 C 0.77345 0.53465 0.45590
 O113 O 0.22678 0.26905 0.29801
 O114 O 0.24137 0.20497 0.24340
 O115 O 0.26753 0.23030 0.29648
 O116 O 0.20125 0.24314 0.24516
 O117 O 0.22688 0.27126 0.20900
 O118 O 0.29310 0.25884 0.26072
 O119 O 0.26794 0.23279 0.20778
 O120 O 0.25277 0.29698 0.26198
 Cu121 Cu 0.23171 0.23409 0.27449
 Cu122 Cu 0.26270 0.26776 0.23116
 C123 C 0.23751 0.29393 0.28949
 C124 C 0.25689 0.20801 0.21610
 C125 C 0.29158 0.24266 0.28762
 C126 C 0.20279 0.25904 0.21804
 O127 O 0.70574 0.74018 0.25902
 O128 O 0.77225 0.72770 0.20763
 O129 O 0.74484 0.70079 0.25876
 O130 O 0.73247 0.76744 0.20775
 O131 O 0.75948 0.79300 0.24510
 O132 O 0.77098 0.72654 0.29672
 O133 O 0.79817 0.75346 0.24577
 O134 O 0.73164 0.76668 0.29648
 Cu135 Cu 0.73624 0.73147 0.22941
 Cu136 Cu 0.76759 0.76249 0.27493
 C137 C 0.70739 0.75531 0.28673
 C138 C 0.79655 0.73873 0.21776
 C139 C 0.75969 0.70234 0.28668
 C140 C 0.74434 0.79148 0.21740
 O141 O 0.79461 0.24083 0.24417
 O142 O 0.72948 0.22466 0.29797
 O143 O 0.75571 0.19944 0.24603
 O144 O 0.76909 0.26678 0.29648
 O145 O 0.74143 0.29089 0.25992
 O146 O 0.72864 0.22367 0.20894
 O147 O 0.70259 0.24921 0.26098
 O148 O 0.76781 0.26615 0.20780
 Cu149 Cu 0.76490 0.23056 0.27501
 Cu150 Cu 0.73243 0.25987 0.23061
 C151 C 0.79222 0.25593 0.21659
 C152 C 0.70495 0.23444 0.28882
 C153 C 0.74032 0.20014 0.21854
 C154 C 0.75717 0.29025 0.28713
 O155 O 0.27187 0.77387 0.29662
 O156 O 0.20686 0.75838 0.24264
 O157 O 0.23072 0.73325 0.29625
 O158 O 0.24731 0.79847 0.24301
 O159 O 0.27412 0.77217 0.20771
 O160 O 0.25759 0.70689 0.26108
 O161 O 0.23317 0.73147 0.20746
 O162 O 0.29815 0.74700 0.26136
 Cu163 Cu 0.23659 0.76862 0.27330
 Cu164 Cu 0.26841 0.73677 0.23078
 C165 C 0.29604 0.76275 0.28845
 C166 C 0.20899 0.74258 0.21559
 C167 C 0.24156 0.70898 0.28797
 C168 C 0.26314 0.79639 0.21597
 O169 O 0.75305 0.20061 0.76168
 O170 O 0.76941 0.26547 0.70773
 O171 O 0.79332 0.24102 0.76175
 O172 O 0.72840 0.22469 0.70779
 O173 O 0.70194 0.25167 0.74271
 O174 O 0.76680 0.26810 0.79650
 O175 O 0.74233 0.29197 0.74249
 O176 O 0.72609 0.22704 0.79665
 Cu177 Cu 0.76366 0.23030 0.73113
 Cu178 Cu 0.73163 0.26231 0.77319
 C179 C 0.73714 0.20279 0.78865
 C180 C 0.75844 0.28975 0.71568
 C181 C 0.79109 0.25713 0.78852
 C182 C 0.70414 0.23572 0.71581
 O183 O 0.29556 0.74909 0.74306
 O184 O 0.22845 0.73446 0.79417
 O185 O 0.25567 0.70835 0.74341
 O186 O 0.26911 0.77554 0.79417
 O187 O 0.24351 0.80029 0.75607
 O188 O 0.22994 0.73300 0.70535
 O189 O 0.20349 0.76002 0.75616
 O190 O 0.27028 0.77440 0.70517
 Cu191 Cu 0.26469 0.73938 0.77261
 Cu192 Cu 0.23428 0.76931 0.72672
 C193 C 0.29427 0.76399 0.71518
 C194 C 0.20465 0.74534 0.78418
 C195 C 0.24090 0.70926 0.71544
 C196 C 0.25825 0.79933 0.78406
 O197 O 0.25684 0.29899 0.74598
 O198 O 0.26818 0.23231 0.79741
 O199 O 0.29487 0.25862 0.74550
 O200 O 0.22997 0.27351 0.79832
 O201 O 0.20246 0.24780 0.76167
 O202 O 0.26762 0.23285 0.70867
 O203 O 0.24005 0.20720 0.76080
 O204 O 0.22897 0.27372 0.70930
 Cu205 Cu 0.26519 0.26835 0.77558
 Cu206 Cu 0.23209 0.23786 0.73128
 C207 C 0.24122 0.29768 0.71864
 C208 C 0.25560 0.20849 0.78816
 C209 C 0.29234 0.24357 0.71783
 C210 C 0.20519 0.26293 0.78929
 O211 O 0.74937 0.70089 0.74194
 O212 O 0.73275 0.76477 0.79572
 O213 O 0.70810 0.73801 0.74296
 O214 O 0.77474 0.72746 0.79464
 O215 O 0.79942 0.75668 0.75871
 O216 O 0.73305 0.76673 0.70678
 O217 O 0.75797 0.79325 0.75952
 O218 O 0.77494 0.72918 0.70589
 Cu219 Cu 0.73879 0.72991 0.77252
 Cu220 Cu 0.76885 0.76421 0.72893
 C221 C 0.76464 0.70414 0.71448
 C222 C 0.74276 0.78988 0.78702
 C223 C 0.70925 0.75399 0.71587
 C224 C 0.79830 0.74081 0.78585
 C225 C 0.27028 0.11003 0.12220
 C226 C 0.24495 0.09248 0.11587
 C227 C 0.24555 0.06996 0.09111
 C228 C 0.27149 0.06354 0.07334
 C229 C 0.29706 0.07985 0.08140
 C230 C 0.29644 0.10294 0.10521
 C231 C 0.26808 0.13520 0.14699
 C232 C 0.29068 0.15641 0.15149
 C233 C 0.28710 0.18001 0.17407
 C234 C 0.26126 0.18263 0.19324
 C235 C 0.23873 0.16160 0.18913
 C236 C 0.24162 0.13847 0.16552
 C237 C 0.21923 0.09727 0.13452
 C238 C 0.21781 0.11934 0.15941
 H239 H 0.19994 0.08355 0.13007
 H240 H 0.19747 0.12200 0.17336
 H241 H 0.22571 0.05719 0.08606
 H242 H 0.31756 0.07533 0.06864
 H243 H 0.30463 0.19623 0.17665
 H244 H 0.21839 0.16398 0.20323
 H245 H 0.31666 0.11486 0.11012
 H246 H 0.31093 0.15554 0.13718
 C247 C 0.77817 0.60578 0.62095
 C248 C 0.75524 0.58441 0.62102
 C249 C 0.75527 0.56143 0.59685
 C250 C 0.77833 0.55877 0.57310
 C251 C 0.80180 0.57904 0.57421
 C252 C 0.80171 0.60238 0.59769
 C253 C 0.77623 0.63107 0.64563
 C254 C 0.79610 0.65515 0.64514
 C255 C 0.79257 0.67873 0.66776
 C256 C 0.76948 0.67866 0.69179
 C257 C 0.74984 0.65464 0.69280
 C258 C 0.75265 0.63128 0.66953
 C259 C 0.73241 0.58603 0.64518
 C260 C 0.73141 0.60870 0.66931
 H261 H 0.71506 0.56947 0.64552
 H262 H 0.71329 0.60894 0.68751
 H263 H 0.73733 0.54548 0.59661
 H264 H 0.81993 0.57727 0.55625
 H265 H 0.80791 0.69712 0.66638
 H266 H 0.73157 0.65466 0.71082
 H267 H 0.82019 0.61748 0.59719
 H268 H 0.81409 0.65651 0.62699
 C269 C 0.73731 0.88986 0.12324
 C270 C 0.71014 0.89486 0.10715
 C271 C 0.70757 0.91774 0.08296
 C272 C 0.73225 0.93465 0.07267
 C273 C 0.75941 0.92863 0.08774
 C274 C 0.76187 0.90685 0.11288
 C275 C 0.73909 0.86571 0.14942
 C276 C 0.76409 0.86134 0.16991
 C277 C 0.76520 0.83773 0.19280
 C278 C 0.74164 0.81769 0.19546
 C279 C 0.71619 0.82239 0.17618
 C280 C 0.71450 0.84668 0.15390
 C281 C 0.68603 0.87628 0.11429
 C282 C 0.68839 0.85224 0.13641
 H283 H 0.66525 0.87984 0.10173
 H284 H 0.66937 0.83800 0.14024
 H285 H 0.68652 0.92150 0.07110
 H286 H 0.77897 0.94098 0.08038
 H287 H 0.78494 0.83461 0.20771
 H288 H 0.69766 0.80731 0.17881
 H289 H 0.78335 0.90318 0.12322
 H290 H 0.78294 0.87595 0.16876
 C291 C 0.23333 0.39724 0.62598
 C292 C 0.20867 0.39824 0.60383
 C293 C 0.20643 0.42082 0.57922
 C294 C 0.22912 0.44174 0.57521
 C295 C 0.25378 0.44035 0.59666
 C296 C 0.25583 0.41858 0.62190
 C297 C 0.23498 0.37275 0.65178
 C298 C 0.25748 0.37099 0.67667
 C299 C 0.25888 0.34700 0.69897
 C300 C 0.23806 0.32405 0.69692
 C301 C 0.21494 0.32608 0.67313
 C302 C 0.21302 0.35041 0.65100
 C303 C 0.18692 0.37617 0.60554
 C304 C 0.18932 0.35249 0.62816
 H305 H 0.16811 0.37680 0.58847
 H306 H 0.17228 0.33560 0.62785
 H307 H 0.18754 0.42145 0.56224
 H308 H 0.27160 0.45624 0.59392
 H309 H 0.27682 0.34605 0.71728
 H310 H 0.19842 0.30870 0.67184
 H311 H 0.27547 0.41849 0.63736
 H312 H 0.27423 0.38784 0.67932
 C313 C 0.89050 0.27051 0.12224
 C314 C 0.90588 0.24503 0.11413
 C315 C 0.92831 0.24608 0.08916
 C316 C 0.93692 0.27260 0.07314
 C317 C 0.92276 0.29819 0.08296
 C318 C 0.89970 0.29714 0.10687
 C319 C 0.86535 0.26798 0.14723
 C320 C 0.84599 0.29086 0.15322
 C321 C 0.82229 0.28702 0.17593
 C322 C 0.81783 0.26061 0.19383
 C323 C 0.83700 0.23778 0.18824
 C324 C 0.86010 0.24095 0.16437
 C325 C 0.89909 0.21873 0.13133
 C326 C 0.87718 0.21692 0.15655
 H327 H 0.91115 0.19930 0.12554
 H328 H 0.87297 0.19614 0.16940
 H329 H 0.93943 0.22618 0.08274
 H330 H 0.92900 0.31910 0.07157
 H331 H 0.80745 0.30476 0.17963
 H332 H 0.83306 0.21702 0.20130
 H333 H 0.88952 0.31743 0.11321
 H334 H 0.84833 0.31156 0.13992
 C335 C 0.39468 0.77610 0.62350
 C336 C 0.41347 0.75211 0.62213
 C337 C 0.43634 0.75183 0.59775
 C338 C 0.44146 0.77559 0.57527
 C339 C 0.42386 0.80003 0.57794
 C340 C 0.40065 0.80028 0.60161
 C341 C 0.36920 0.77453 0.64809
 C342 C 0.34730 0.79554 0.64855
 C343 C 0.32323 0.79232 0.67075
 C344 C 0.32066 0.76843 0.69349
 C345 C 0.34258 0.74768 0.69374
 C346 C 0.36637 0.75017 0.67072
 C347 C 0.40935 0.72855 0.64508
 C348 C 0.38662 0.72786 0.66928
 H349 H 0.42398 0.71037 0.64436
 H350 H 0.38439 0.70914 0.68647
 H351 H 0.45027 0.73311 0.59633
 H352 H 0.42758 0.81872 0.56103
 H353 H 0.30645 0.80852 0.67000
 H354 H 0.34042 0.72881 0.71075
 H355 H 0.38768 0.81956 0.60231
 H356 H 0.34791 0.81418 0.63134
 C357 C 0.11050 0.72923 0.12130
 C358 C 0.09097 0.75262 0.12019
 C359 C 0.06816 0.75243 0.09581
 C360 C 0.06384 0.72881 0.07298
 C361 C 0.08230 0.70499 0.07521
 C362 C 0.10545 0.70520 0.09891
 C363 C 0.13569 0.73121 0.14624
 C364 C 0.15808 0.71071 0.14690
 C365 C 0.18169 0.71421 0.16972
 C366 C 0.18332 0.73792 0.19280
 C367 C 0.16096 0.75821 0.19268
 C368 C 0.13760 0.75539 0.16919
 C369 C 0.09424 0.77604 0.14344
 C370 C 0.11677 0.77715 0.16780
 H371 H 0.07907 0.79377 0.14288
 H372 H 0.11832 0.79573 0.18526
 H373 H 0.05360 0.77068 0.09473
 H374 H 0.07923 0.68641 0.05800
 H375 H 0.19878 0.69835 0.16922
 H376 H 0.16234 0.77693 0.20998
 H377 H 0.11908 0.68639 0.09930
 H378 H 0.15814 0.69222 0.12951
 C379 C 0.60512 0.22139 0.62234
 C380 C 0.58567 0.24486 0.62098
 C381 C 0.56281 0.24454 0.59667
 C382 C 0.55831 0.22071 0.57419
 C383 C 0.57657 0.19676 0.57679
 C384 C 0.59981 0.19710 0.60041
 C385 C 0.63048 0.22362 0.64703
 C386 C 0.65292 0.20315 0.64777
 C387 C 0.67669 0.20691 0.67033
 C388 C 0.67842 0.23082 0.69311
 C389 C 0.65604 0.25109 0.69288
 C390 C 0.63255 0.24803 0.66962
 C391 C 0.58911 0.26851 0.64386
 C392 C 0.61174 0.26981 0.66807
 H393 H 0.57400 0.28628 0.64311
 H394 H 0.61341 0.28857 0.68524
 H395 H 0.54839 0.26288 0.59530
 H396 H 0.57335 0.17804 0.55984
 H397 H 0.69380 0.19107 0.66992
 H398 H 0.65750 0.26997 0.70991
 H399 H 0.61336 0.17823 0.60107
 H400 H 0.65286 0.18450 0.63061
 C401 C 0.72355 0.10372 0.88245
 C402 C 0.74659 0.08374 0.88262
 C403 C 0.74654 0.06080 0.90685
 C404 C 0.72341 0.05677 0.93050
 C405 C 0.69985 0.07561 0.92917
 C406 C 0.69993 0.09892 0.90559
 C407 C 0.72553 0.12910 0.85770
 C408 C 0.70547 0.15191 0.85784
 C409 C 0.70902 0.17568 0.83516
 C410 C 0.73234 0.17706 0.81144
 C411 C 0.75216 0.15428 0.81077
 C412 C 0.74929 0.13075 0.83406
 C413 C 0.76957 0.08675 0.85868
 C414 C 0.77064 0.10948 0.83455
 H415 H 0.78701 0.07124 0.85854
 H416 H 0.78889 0.11082 0.81655
 H417 H 0.76456 0.04594 0.90725
 H418 H 0.68166 0.07278 0.94705
 H419 H 0.69353 0.19308 0.83628
 H420 H 0.77057 0.15541 0.79297
 H421 H 0.68139 0.11292 0.90594
 H422 H 0.68731 0.15215 0.87575
 C423 C 0.22566 0.60966 0.38087
 C424 C 0.24862 0.58962 0.38180
 C425 C 0.24798 0.56670 0.40609
 C426 C 0.22433 0.56282 0.42905
 C427 C 0.20086 0.58171 0.42689
 C428 C 0.20152 0.60496 0.40324
 C429 C 0.22827 0.63506 0.35622
 C430 C 0.20830 0.65794 0.35582
 C431 C 0.21244 0.68174 0.33338
 C432 C 0.23626 0.68312 0.31039
 C433 C 0.25600 0.66027 0.31020
 C434 C 0.25255 0.63668 0.33333
 C435 C 0.27212 0.59257 0.35857
 C436 C 0.27380 0.61532 0.33447
 H437 H 0.28951 0.57701 0.35899
 H438 H 0.29244 0.61663 0.31705
 H439 H 0.26595 0.55181 0.40713
 H440 H 0.18228 0.57900 0.44421
 H441 H 0.19698 0.69920 0.33409
 H442 H 0.27479 0.66142 0.29297
 H443 H 0.18300 0.61898 0.40296
 H444 H 0.18976 0.65821 0.37317
 C445 C 0.26618 0.89910 0.87691
 C446 C 0.29025 0.90093 0.90002
 C447 C 0.29223 0.92353 0.92480
 C448 C 0.26976 0.94353 0.92806
 C449 C 0.24564 0.94126 0.90570
 C450 C 0.24393 0.91954 0.88025
 C451 C 0.26477 0.87465 0.85096
 C452 C 0.24302 0.87229 0.82508
 C453 C 0.24165 0.84827 0.80275
 C454 C 0.26175 0.82588 0.80572
 C455 C 0.28423 0.82857 0.83046
 C456 C 0.28615 0.85298 0.85264
 C457 C 0.31157 0.87959 0.89912
 C458 C 0.30925 0.85583 0.87643
 H459 H 0.32991 0.88084 0.91694
 H460 H 0.32587 0.83948 0.87744
 H461 H 0.31065 0.92484 0.94252
 H462 H 0.22799 0.95641 0.90788
 H463 H 0.22422 0.84682 0.78370
 H464 H 0.30021 0.81163 0.83248
 H465 H 0.22468 0.91873 0.86409
 H466 H 0.22682 0.88868 0.82169
 C467 C 0.76620 0.39045 0.37924
 C468 C 0.79088 0.39265 0.40139
 C469 C 0.79340 0.41551 0.42574
 C470 C 0.77098 0.43551 0.42949
 C471 C 0.74626 0.43287 0.40813
 C472 C 0.74394 0.41081 0.38314
 C473 C 0.76430 0.36578 0.35362
 C474 C 0.74185 0.36299 0.32867
 C475 C 0.74020 0.33887 0.30650
 C476 C 0.76072 0.31682 0.30873
 C477 C 0.78381 0.31989 0.33259
 C478 C 0.78599 0.34438 0.35460
 C479 C 0.81235 0.37150 0.39990
 C480 C 0.80968 0.34759 0.37748
 H481 H 0.83116 0.37305 0.41698
 H482 H 0.82651 0.33144 0.37796
 H483 H 0.81232 0.41711 0.44267
 H484 H 0.72864 0.44801 0.41068
 H485 H 0.72228 0.33713 0.28814
 H486 H 0.80009 0.30320 0.33404
 H487 H 0.72427 0.40975 0.36772
 H488 H 0.72532 0.37913 0.32585
 C489 C 0.10672 0.27590 0.88288
 C490 C 0.08598 0.25242 0.88398
 C491 C 0.06307 0.25255 0.90833
 C492 C 0.05988 0.27623 0.93107
 C493 C 0.07958 0.30012 0.92881
 C494 C 0.10281 0.29996 0.90517
 C495 C 0.13193 0.27401 0.85804
 C496 C 0.15540 0.29459 0.85750
 C497 C 0.17896 0.29117 0.83484
 C498 C 0.17950 0.26748 0.81175
 C499 C 0.15608 0.24711 0.81169
 C500 C 0.13271 0.24983 0.83509
 C501 C 0.08816 0.22900 0.86076
 C502 C 0.11075 0.22798 0.83644
 H503 H 0.07208 0.21120 0.86130
 H504 H 0.11142 0.20939 0.81900
 H505 H 0.04757 0.23425 0.90944
 H506 H 0.07742 0.31873 0.94593
 H507 H 0.19689 0.30708 0.83547
 H508 H 0.15662 0.22840 0.79440
 H509 H 0.11739 0.31885 0.90476
 H510 H 0.15633 0.31307 0.87491
 C511 C 0.60785 0.76401 0.37940
 C512 C 0.60763 0.78808 0.40256
 C513 C 0.58502 0.79044 0.42713
 C514 C 0.56323 0.76845 0.43005
 C515 C 0.56386 0.74433 0.40764
 C516 C 0.58571 0.74218 0.38246
 C517 C 0.63236 0.76225 0.35361
 C518 C 0.63344 0.74041 0.32781
 C519 C 0.65743 0.73884 0.30550
 C520 C 0.68104 0.75882 0.30845
 C521 C 0.67971 0.78132 0.33318
 C522 C 0.65541 0.78343 0.35535
 C523 C 0.63043 0.80909 0.40183
 C524 C 0.65406 0.80653 0.37918
 H525 H 0.63037 0.82743 0.41968
 H526 H 0.67152 0.82297 0.38024
 H527 H 0.58497 0.80890 0.44483
 H528 H 0.54731 0.72704 0.40952
 H529 H 0.65783 0.72138 0.28647
 H530 H 0.69763 0.79720 0.33520
 H531 H 0.58518 0.72298 0.36620
 H532 H 0.61606 0.72431 0.32444
 C533 C 0.89615 0.73745 0.88102
 C534 C 0.90217 0.71047 0.89706
 C535 C 0.92508 0.70874 0.92129
 C536 C 0.94104 0.73400 0.93159
 C537 C 0.93397 0.76093 0.91662
 C538 C 0.91212 0.76261 0.89149
 C539 C 0.87208 0.73833 0.85471
 C540 C 0.86684 0.76318 0.83427
 C541 C 0.84338 0.76340 0.81116
 C542 C 0.82436 0.73906 0.80817
 C543 C 0.82993 0.71378 0.82744
 C544 C 0.85410 0.71302 0.84998
 C545 C 0.88460 0.68568 0.88975
 C546 C 0.86060 0.68713 0.86746
 H547 H 0.88894 0.66504 0.90229
 H548 H 0.84716 0.66757 0.86347
 H549 H 0.92966 0.68784 0.93309
 H550 H 0.94554 0.78092 0.92403
 H551 H 0.83959 0.78306 0.79630
 H552 H 0.81565 0.69466 0.82458
 H553 H 0.90763 0.78394 0.88121
 H554 H 0.88066 0.78260 0.83561
 C555 C 0.39152 0.23260 0.37928
 C556 C 0.39186 0.20820 0.40196
 C557 C 0.41460 0.20547 0.42624
 C558 C 0.43644 0.22739 0.42931
 C559 C 0.43575 0.25177 0.40726
 C560 C 0.41377 0.25430 0.38241
 C561 C 0.36682 0.23483 0.35389
 C562 C 0.36552 0.25717 0.32872
 C563 C 0.34142 0.25911 0.30672
 C564 C 0.31790 0.23898 0.30931
 C565 C 0.31939 0.21604 0.33348
 C566 C 0.34380 0.21360 0.35538
 C567 C 0.36904 0.18722 0.40104
 C568 C 0.34529 0.19012 0.37867
 H569 H 0.36917 0.16861 0.41850
 H570 H 0.32785 0.17365 0.37956
 H571 H 0.41471 0.18680 0.44364
 H572 H 0.45234 0.26901 0.40923
 H573 H 0.34092 0.27691 0.28814
 H574 H 0.30155 0.20006 0.33526
 H575 H 0.41429 0.27371 0.36647
 H576 H 0.38282 0.27340 0.32557
 C577 C 0.72714 0.88746 0.88106
 C578 C 0.74995 0.90893 0.88189
 C579 C 0.74934 0.93166 0.90638
 C580 C 0.72583 0.93393 0.92958
 C581 C 0.70251 0.91354 0.92756
 C582 C 0.70315 0.89049 0.90375
 C583 C 0.72967 0.86242 0.85613
 C584 C 0.70989 0.83828 0.85583
 C585 C 0.71395 0.81492 0.83308
 C586 C 0.73749 0.81525 0.80969
 C587 C 0.75705 0.83935 0.80940
 C588 C 0.75370 0.86253 0.83285
 C589 C 0.77324 0.90764 0.85831
 C590 C 0.77481 0.88520 0.83392
 H591 H 0.79052 0.92429 0.85865
 H592 H 0.79327 0.88521 0.81622
 H593 H 0.76718 0.94770 0.90731
 H594 H 0.68402 0.91500 0.94505
 H595 H 0.69866 0.79647 0.83388
 H596 H 0.77565 0.83951 0.79186
 H597 H 0.68473 0.87531 0.90355
 H598 H 0.69157 0.83668 0.87348
 C599 C 0.22423 0.39236 0.38302
 C600 C 0.24738 0.41349 0.38343
 C601 C 0.24718 0.43655 0.40751
 C602 C 0.22375 0.43952 0.43069
 C603 C 0.20013 0.41945 0.42912
 C604 C 0.20037 0.39605 0.40574
 C605 C 0.22626 0.36703 0.35841
 C606 C 0.20606 0.34323 0.35846
 C607 C 0.20956 0.31965 0.33586
 C608 C 0.23297 0.31942 0.31227
 C609 C 0.25299 0.34314 0.31173
 C610 C 0.25017 0.36653 0.33501
 C611 C 0.27057 0.41155 0.35980
 C612 C 0.27168 0.38885 0.33572
 H613 H 0.28811 0.42792 0.35982
 H614 H 0.29006 0.38838 0.31792
 H615 H 0.26526 0.45233 0.40809
 H616 H 0.18171 0.42144 0.44662
 H617 H 0.19392 0.30150 0.33687
 H618 H 0.27147 0.34288 0.29404
 H619 H 0.18173 0.38115 0.40586
 H620 H 0.18780 0.34208 0.37624
 C621 C 0.26162 0.10967 0.88180
 C622 C 0.28878 0.10426 0.89769
 C623 C 0.29120 0.08118 0.92160
 C624 C 0.26640 0.06439 0.93178
 C625 C 0.23927 0.07077 0.91691
 C626 C 0.23693 0.09281 0.89206
 C627 C 0.26003 0.13404 0.85590
 C628 C 0.23499 0.13887 0.83565
 C629 C 0.23412 0.16259 0.81292
 C630 C 0.25796 0.18228 0.81015
 C631 C 0.28340 0.17716 0.82925
 C632 C 0.28485 0.15277 0.85139
 C633 C 0.31308 0.12260 0.89060
 C634 C 0.31094 0.14680 0.86868
 H635 H 0.33385 0.11872 0.90301
 H636 H 0.33012 0.16082 0.86484
 H637 H 0.31224 0.07712 0.93331
 H638 H 0.21962 0.05852 0.92420
 H639 H 0.21435 0.16604 0.79816
 H640 H 0.30215 0.19197 0.82654
 H641 H 0.21547 0.09676 0.88185
 H642 H 0.21594 0.12453 0.83685
 C643 C 0.76798 0.60222 0.37839
 C644 C 0.79236 0.60142 0.40101
 C645 C 0.79463 0.57865 0.42537
 C646 C 0.77219 0.55737 0.42870
 C647 C 0.74778 0.55858 0.40683
 C648 C 0.74575 0.58053 0.38180
 C649 C 0.76629 0.62690 0.35286
 C650 C 0.74417 0.62844 0.32747
 C651 C 0.74267 0.65258 0.30542
 C652 C 0.76301 0.67589 0.30823
 C653 C 0.78577 0.67411 0.33254
 C654 C 0.78782 0.64962 0.35441
 C655 C 0.81374 0.62387 0.40003
 C656 C 0.81123 0.64773 0.37771
 H657 H 0.83232 0.62339 0.41747
 H658 H 0.82795 0.66492 0.37861
 H659 H 0.81329 0.57814 0.44272
 H660 H 0.73015 0.54243 0.40908
 H661 H 0.72503 0.65333 0.28669
 H662 H 0.80194 0.69179 0.33440
 H663 H 0.72629 0.58047 0.36600
 H664 H 0.72780 0.61129 0.32422
 C665 C 0.10611 0.73862 0.87862
 C666 C 0.09977 0.71169 0.89544
 C667 C 0.07684 0.70946 0.91985
 C668 C 0.06142 0.73433 0.92973
 C669 C 0.06886 0.76125 0.91394
 C670 C 0.09057 0.76332 0.88853
 C671 C 0.13024 0.74008 0.85229
 C672 C 0.13559 0.76471 0.83100
 C673 C 0.15923 0.76570 0.80811
 C674 C 0.17833 0.74241 0.80618
 C675 C 0.17259 0.71724 0.82619
 C676 C 0.14818 0.71563 0.84851
 C677 C 0.11717 0.68759 0.88888
 C678 C 0.14138 0.68978 0.86671
 H679 H 0.11262 0.66701 0.90200
 H680 H 0.15474 0.67082 0.86341
 H681 H 0.07200 0.68863 0.93233
 H682 H 0.05769 0.78095 0.92096
 H683 H 0.16314 0.78522 0.79263
 H684 H 0.18692 0.69888 0.82411
 H685 H 0.09539 0.78465 0.87769
 H686 H 0.12173 0.78335 0.83154
 C687 C 0.60554 0.22051 0.38197
 C688 C 0.58577 0.24372 0.38255
 C689 C 0.56284 0.24361 0.40684
 C690 C 0.55859 0.22019 0.43001
 C691 C 0.57715 0.19643 0.42816
 C692 C 0.60048 0.19661 0.40459
 C693 C 0.63098 0.22257 0.35732
 C694 C 0.65378 0.20250 0.35745
 C695 C 0.67764 0.20615 0.33493
 C696 C 0.67909 0.22954 0.31134
 C697 C 0.65634 0.24938 0.31067
 C698 C 0.63277 0.24648 0.33392
 C699 C 0.58894 0.26689 0.35890
 C700 C 0.61162 0.26796 0.33468
 H701 H 0.57357 0.28445 0.35904
 H702 H 0.61308 0.28633 0.31688
 H703 H 0.54816 0.26177 0.40764
 H704 H 0.57410 0.17802 0.44565
 H705 H 0.69506 0.19067 0.33604
 H706 H 0.65760 0.26788 0.29302
 H707 H 0.61426 0.17790 0.40452
 H708 H 0.65395 0.18429 0.37527
 C709 C 0.88995 0.27352 0.88182
 C710 C 0.90989 0.25048 0.88327
 C711 C 0.93276 0.25136 0.90759
 C712 C 0.93672 0.27531 0.93003
 C713 C 0.91791 0.29882 0.92735
 C714 C 0.89471 0.29793 0.90369
 C715 C 0.86464 0.27072 0.85712
 C716 C 0.84186 0.29078 0.85624
 C717 C 0.81816 0.28652 0.83372
 C718 C 0.81679 0.26246 0.81113
 C719 C 0.83953 0.24259 0.81146
 C720 C 0.86301 0.24618 0.83468
 C721 C 0.90691 0.22670 0.86050
 C722 C 0.88426 0.22484 0.83634
 H723 H 0.92239 0.20925 0.86133
 H724 H 0.88294 0.20599 0.81927
 H725 H 0.94758 0.23335 0.90902
 H726 H 0.92068 0.31763 0.94426
 H727 H 0.80078 0.30208 0.83403
 H728 H 0.83839 0.22362 0.79454
 H729 H 0.88077 0.31651 0.90299
 H730 H 0.84158 0.30951 0.87325
 C731 C 0.39473 0.77552 0.38256
 C732 C 0.41388 0.75182 0.38392
 C733 C 0.43662 0.75179 0.40838
 C734 C 0.44128 0.77549 0.43099
 C735 C 0.42330 0.79966 0.42843
 C736 C 0.40018 0.79966 0.40466
 C737 C 0.36950 0.77372 0.35766
 C738 C 0.34732 0.79446 0.35689
 C739 C 0.32364 0.79109 0.33415
 C740 C 0.32174 0.76729 0.31122
 C741 C 0.34388 0.74676 0.31145
 C742 C 0.36727 0.74943 0.33490
 C743 C 0.41030 0.72831 0.36086
 C744 C 0.38780 0.72739 0.33647
 H745 H 0.42519 0.71035 0.36161
 H746 H 0.38600 0.70872 0.31916
 H747 H 0.45084 0.73329 0.40972
 H748 H 0.42666 0.81829 0.44548
 H749 H 0.30671 0.80712 0.33456
 H750 H 0.34227 0.72796 0.29430
 H751 H 0.38687 0.81871 0.40402
 H752 H 0.34750 0.81303 0.37418
 C753 C 0.27581 0.89521 0.12176
 C754 C 0.25248 0.91484 0.12130
 C755 C 0.25227 0.93762 0.09687
 C756 C 0.27543 0.94184 0.07332
 C757 C 0.29926 0.92336 0.07491
 C758 C 0.29944 0.90020 0.09869
 C759 C 0.27414 0.86998 0.14674
 C760 C 0.29451 0.84745 0.14683
 C761 C 0.29120 0.82375 0.16964
 C762 C 0.26783 0.82219 0.19327
 C763 C 0.24773 0.84472 0.19376
 C764 C 0.25034 0.86815 0.17031
 C765 C 0.22948 0.91167 0.14520
 C766 C 0.22869 0.88910 0.16955
 H767 H 0.21181 0.92692 0.14512
 H768 H 0.21040 0.88761 0.18750
 H769 H 0.23403 0.95222 0.09626
 H770 H 0.31749 0.92637 0.05712
 H771 H 0.30689 0.80652 0.16866
 H772 H 0.22927 0.84341 0.21148
 H773 H 0.31820 0.88649 0.09855
 H774 H 0.31272 0.84736 0.12898
 C775 C 0.77467 0.38872 0.62225
 C776 C 0.75185 0.40891 0.62132
 C777 C 0.75265 0.43183 0.59703
 C778 C 0.77631 0.43557 0.57407
 C779 C 0.79964 0.41650 0.57619
 C780 C 0.79883 0.39325 0.59985
 C781 C 0.77194 0.36337 0.64697
 C782 C 0.79180 0.34040 0.64746
 C783 C 0.78757 0.31668 0.67003
 C784 C 0.76375 0.31547 0.69303
 C785 C 0.74410 0.33840 0.69309
 C786 C 0.74765 0.36192 0.66986
 C787 C 0.72833 0.40611 0.64455
 C788 C 0.72652 0.38339 0.66867
 H789 H 0.71104 0.42178 0.64411
 H790 H 0.70787 0.38221 0.68610
 H791 H 0.73478 0.44685 0.59602
 H792 H 0.81823 0.41910 0.55887
 H793 H 0.80297 0.29917 0.66941
 H794 H 0.72532 0.33740 0.71035
 H795 H 0.81724 0.37910 0.60011
 H796 H 0.81034 0.34000 0.63013
 C797 C 0.73288 0.10021 0.12599
 C798 C 0.70845 0.09786 0.10348
 C799 C 0.70645 0.07513 0.07891
 C800 C 0.72920 0.05549 0.07526
 C801 C 0.75368 0.05830 0.09698
 C802 C 0.75545 0.08018 0.12222
 C803 C 0.73426 0.12476 0.15180
 C804 C 0.75641 0.12759 0.17712
 C805 C 0.75767 0.15165 0.19938
 C806 C 0.73704 0.17359 0.19689
 C807 C 0.71421 0.17044 0.17269
 C808 C 0.71242 0.14599 0.15058
 C809 C 0.68674 0.11878 0.10480
 C810 C 0.68898 0.14264 0.12735
 H811 H 0.66811 0.11713 0.08744
 H812 H 0.67201 0.15865 0.12671
 H813 H 0.68773 0.07341 0.06167
 H814 H 0.77155 0.04344 0.09449
 H815 H 0.77538 0.15346 0.21801
 H816 H 0.69785 0.18704 0.17105
 H817 H 0.77497 0.08141 0.13790
 H818 H 0.77299 0.11155 0.18016
 C819 C 0.23306 0.60885 0.62353
 C820 C 0.20891 0.60678 0.60057
 C821 C 0.20673 0.58380 0.57634
 C822 C 0.22905 0.56358 0.57347
 C823 C 0.25331 0.56614 0.59558
 C824 C 0.25524 0.58830 0.62048
 C825 C 0.23457 0.63360 0.64908
 C826 C 0.25634 0.63618 0.67488
 C827 C 0.25768 0.66034 0.69699
 C828 C 0.23753 0.68266 0.69385
 C829 C 0.21508 0.67982 0.66910
 C830 C 0.21318 0.65525 0.64716
 C831 C 0.18765 0.62818 0.60115
 C832 C 0.19005 0.65219 0.62345
 H833 H 0.16925 0.62675 0.58343
 H834 H 0.17343 0.66854 0.62225
 H835 H 0.18819 0.58228 0.55880
 H836 H 0.27085 0.55084 0.59369
 H837 H 0.27510 0.66191 0.71604
 H838 H 0.19907 0.69671 0.66694
 H839 H 0.27456 0.58929 0.63652
 H840 H 0.27256 0.61982 0.67844
 C841 C 0.89703 0.73199 0.12627
 C842 C 0.89703 0.70921 0.10131
 C843 C 0.91975 0.70784 0.07670
 C844 C 0.94176 0.72972 0.07554
 C845 C 0.94142 0.75250 0.09988
 C846 C 0.91954 0.75356 0.12510
 C847 C 0.87229 0.73294 0.15180
 C848 C 0.87136 0.75350 0.17906
 C849 C 0.84710 0.75463 0.20095
 C850 C 0.82306 0.73544 0.19623
 C851 C 0.82423 0.71407 0.17006
 C852 C 0.84880 0.71244 0.14819
 C853 C 0.87383 0.68864 0.10025
 C854 C 0.84998 0.69054 0.12276
 H855 H 0.87371 0.67127 0.08107
 H856 H 0.83221 0.67457 0.12025
 H857 H 0.91961 0.69047 0.05749
 H858 H 0.95817 0.76967 0.09937
 H859 H 0.84689 0.77118 0.22113
 H860 H 0.80597 0.69878 0.16662
 H861 H 0.92029 0.77184 0.14280
 H862 H 0.88906 0.76896 0.18391
 C863 C 0.39142 0.23274 0.62476
 C864 C 0.39097 0.20897 0.60116
 C865 C 0.41366 0.20613 0.57675
 C866 C 0.43617 0.22745 0.57443
 C867 C 0.43618 0.25131 0.59727
 C868 C 0.41428 0.25387 0.62228
 C869 C 0.36688 0.23502 0.65041
 C870 C 0.36652 0.25651 0.67665
 C871 C 0.34261 0.25861 0.69894
 C872 C 0.31833 0.23950 0.69561
 C873 C 0.31885 0.21734 0.67035
 C874 C 0.34311 0.21470 0.64815
 C875 C 0.36743 0.18877 0.60132
 C876 C 0.34377 0.19189 0.62385
 H877 H 0.36694 0.17066 0.58312
 H878 H 0.32576 0.17608 0.62236
 H879 H 0.41323 0.18792 0.55868
 H880 H 0.45329 0.26808 0.59584
 H881 H 0.34288 0.27577 0.71837
 H882 H 0.30041 0.20212 0.66800
 H883 H 0.41536 0.27287 0.63886
 H884 H 0.38445 0.27193 0.68044
 C885 C 0.10294 0.26763 0.12603
 C886 C 0.10218 0.29206 0.10343
 C887 C 0.07946 0.29438 0.07903
 C888 C 0.05815 0.27196 0.07571
 C889 C 0.05930 0.24755 0.09764
 C890 C 0.08121 0.24545 0.12265
 C891 C 0.12759 0.26584 0.15155
 C892 C 0.12914 0.24357 0.17676
 C893 C 0.15322 0.24199 0.19883
 C894 C 0.17647 0.26244 0.19628
 C895 C 0.17471 0.28535 0.17210
 C896 C 0.15028 0.28743 0.15015
 C897 C 0.12463 0.31345 0.10449
 C898 C 0.14842 0.31091 0.12690
 H899 H 0.12419 0.33208 0.08709
 H900 H 0.16558 0.32767 0.12609
 H901 H 0.07900 0.31306 0.06167
 H902 H 0.04313 0.22993 0.09544
 H903 H 0.15393 0.22422 0.21743
 H904 H 0.19234 0.30157 0.17038
 H905 H 0.08107 0.22598 0.13847
 H906 H 0.11205 0.22711 0.17989
 C907 C 0.60892 0.76283 0.62465
 C908 C 0.60805 0.78749 0.60242
 C909 C 0.58518 0.79012 0.57834
 C910 C 0.56370 0.76788 0.57500
 C911 C 0.56490 0.74324 0.59658
 C912 C 0.58705 0.74078 0.62125
 C913 C 0.63375 0.76077 0.64989
 C914 C 0.63559 0.73815 0.67465
 C915 C 0.65978 0.73649 0.69657
 C916 C 0.68284 0.75716 0.69425
 C917 C 0.68081 0.78032 0.67047
 C918 C 0.65633 0.78248 0.64869
 C919 C 0.63047 0.80890 0.60361
 C920 C 0.65432 0.80620 0.62583
 H921 H 0.62991 0.82771 0.58649
 H922 H 0.67142 0.82302 0.62518
 H923 H 0.58467 0.80900 0.56130
 H924 H 0.54859 0.72576 0.59441
 H925 H 0.66073 0.71851 0.71487
 H926 H 0.69830 0.79671 0.66894
 H927 H 0.58694 0.72119 0.63685
 H928 H 0.61864 0.72152 0.67754
   
