data_POSCAR
  _audit_creation_date              2014-09-24
  _audit_creation_method            'ToBaCCo'
  _symmetry_space_group_name_H-M    'P1'
  _symmetry_Int_Tables_number       1
  _symmetry_cell_setting            triclinic
  loop_
  _symmetry_equiv_pos_as_xyz
 x,y,z
_cell_length_a 39.0214
_cell_length_b 38.5896
_cell_length_c 24.0811
_cell_angle_alpha 89.858500
_cell_angle_beta 90.053400
_cell_angle_gamma 120.419400
loop_
  _atom_site_label
  _atom_site_type_symbol
  _atom_site_fract_x
  _atom_site_fract_y
  _atom_site_fract_z
O1 O 0.45370 0.96249 0.55341
 O2 O 0.49258 1.04053 0.44486
 O3 O 0.45357 0.96255 0.44499
 O4 O 0.49298 1.04047 0.55333
 O5 O 0.54961 1.04037 0.55296
 O6 O 0.51021 0.96247 0.44472
 O7 O 0.54921 1.04045 0.44449
 O8 O 0.51033 0.96239 0.55314
 Cu9 Cu 0.46749 1.00153 0.49917
 Cu10 Cu 0.53557 1.00142 0.49879
 C11 C 0.47556 0.94950 0.57191
 C12 C 0.52731 1.05341 0.42599
 C13 C 0.47537 0.94959 0.42628
 C14 C 0.52782 1.05331 0.57176
 O15 O 0.03834 0.54716 0.44602
 O16 O -0.03882 0.50955 0.55434
 O17 O 0.03821 0.54697 0.55437
 O18 O -0.03870 0.50967 0.44576
 O19 O -0.04068 0.45138 0.44589
 O20 O 0.03625 0.48867 0.55450
 O21 O -0.04080 0.45126 0.55449
 O22 O 0.03638 0.48887 0.44612
 Cu23 Cu -0.00008 0.53421 0.50011
 Cu24 Cu -0.00245 0.46414 0.50026
 C25 C 0.05016 0.52425 0.42749
 C26 C -0.05253 0.47422 0.57313
 C27 C 0.04998 0.52401 0.57306
 C28 C -0.05238 0.47438 0.42708
 O29 O 0.50704 0.54601 0.55483
 O30 O 0.54658 0.50851 0.44666
 O31 O 0.50690 0.54580 0.44647
 O32 O 0.54669 0.50866 0.55520
 O33 O 0.49036 0.45031 0.55554
 O34 O 0.45054 0.48745 0.44678
 O35 O 0.49024 0.45014 0.44697
 O36 O 0.45068 0.48765 0.55518
 Cu37 Cu 0.53251 0.53312 0.50076
 Cu38 Cu 0.46477 0.46297 0.50116
 C39 C 0.47230 0.52305 0.57355
 C40 C 0.52494 0.47315 0.42815
 C41 C 0.47213 0.52278 0.42798
 C42 C 0.52510 0.47336 0.57412
 O43 O 0.39127 0.65489 -0.04672
 O44 O 0.39039 0.72102 -0.06388
 C45 C 0.37161 0.73898 -0.07470
 O46 O 0.34178 0.73412 -0.04707
 O47 O 0.27611 0.66653 -0.06379
 C48 C 0.25806 0.62933 -0.07432
 O49 O 0.26265 0.60395 -0.04657
 O50 O 0.32922 0.60545 -0.06358
 C51 C 0.36600 0.62465 -0.07430
 O52 O 0.38969 0.66597 0.06388
 O53 O 0.39235 0.73388 0.04673
 C54 C 0.36756 0.73901 0.07432
 O55 O 0.33080 0.72131 0.06362
 O56 O 0.26340 0.65552 0.04689
 C57 C 0.25812 0.62518 0.07465
 O58 O 0.27540 0.60571 0.06403
 O59 O 0.34013 0.60357 0.04704
 C60 C 0.37023 0.62878 0.07464
 Cr61 Cr 0.38876 0.69286 0.00000
 Cr62 Cr 0.30408 0.69327 -0.00008
 Cr63 Cr 0.30295 0.60686 0.00022
 O64 O 0.33193 0.66433 0.00005
 O65 O 0.61101 0.33469 -0.06422
 O66 O 0.60905 0.26714 -0.04712
 C67 C 0.63416 0.26237 -0.07448
 O68 O 0.67087 0.28028 -0.06338
 O69 O 0.73784 0.34639 -0.04627
 C70 C 0.74294 0.37665 -0.07408
 O71 O 0.72542 0.39590 -0.06358
 O72 O 0.66018 0.39729 -0.04734
 C73 C 0.63017 0.37189 -0.07495
 O74 O 0.60889 0.34549 0.04633
 O75 O 0.61043 0.27976 0.06354
 C76 C 0.62949 0.26213 0.07465
 O77 O 0.65955 0.26732 0.04729
 O78 O 0.72480 0.33523 0.06431
 C79 C 0.74252 0.37239 0.07497
 O80 O 0.73769 0.39765 0.04725
 O81 O 0.67066 0.39544 0.06348
 C82 C 0.63385 0.37585 0.07402
 Cr83 Cr 0.61202 0.30787 -0.00036
 Cr84 Cr 0.69718 0.30839 0.00048
 Cr85 Cr 0.69740 0.39438 -0.00005
 O86 O 0.66887 0.33689 0.00003
 C87 C 0.40901 0.81633 -0.20686
 C88 C 0.41064 0.80197 -0.26030
 C89 C 0.42379 0.82863 -0.30651
 C90 C 0.43520 0.86947 -0.29900
 C91 C 0.43327 0.88375 -0.24563
 C92 C 0.42016 0.85710 -0.19942
 C93 C 0.41852 0.87206 -0.14648
 C94 C 0.42938 0.91218 -0.13941
 C95 C 0.44209 0.93821 -0.18461
 C96 C 0.44416 0.92436 -0.23717
 C97 C 0.42519 0.81361 -0.35950
 C98 C 0.41390 0.77338 -0.36666
 C99 C 0.40104 0.74730 -0.32148
 C100 C 0.39937 0.76127 -0.26882
 C101 C 0.44917 0.89695 -0.34592
 C102 C 0.46106 0.92049 -0.38402
 C103 C 0.39584 0.78918 -0.15961
 C104 C 0.38486 0.76645 -0.12058
 H105 H 0.40878 0.85296 -0.11005
 H106 H 0.42786 0.92310 -0.09865
 H107 H 0.45031 0.96930 -0.17895
 H108 H 0.45427 0.94581 -0.27100
 H109 H 0.43497 0.83274 -0.39590
 H110 H 0.41513 0.76238 -0.40749
 H111 H 0.39233 0.71609 -0.32725
 H112 H 0.38916 0.73982 -0.23498
 C113 C 0.18131 0.58924 -0.20588
 C114 C 0.13973 0.56841 -0.19695
 C115 C 0.11337 0.55501 -0.24305
 C116 C 0.12877 0.56256 -0.29780
 C117 C 0.17036 0.58319 -0.30673
 C118 C 0.19672 0.59657 -0.26061
 C119 C 0.23819 0.61713 -0.27055
 C120 C 0.25318 0.62428 -0.32450
 C121 C 0.22739 0.61120 -0.36958
 C122 C 0.18643 0.59087 -0.36105
 C123 C 0.07189 0.53421 -0.23307
 C124 C 0.05691 0.52682 -0.17912
 C125 C 0.08269 0.53998 -0.13406
 C126 C 0.12365 0.56056 -0.14262
 C127 C 0.10173 0.54922 -0.34474
 C128 C 0.07855 0.53788 -0.38287
 C129 C 0.20824 0.60326 -0.15882
 C130 C 0.23080 0.61505 -0.11997
 H131 H 0.25944 0.62788 -0.23684
 H132 H 0.28497 0.64008 -0.33134
 H133 H 0.23918 0.61682 -0.41141
 H134 H 0.16755 0.58126 -0.39742
 H135 H 0.05060 0.52337 -0.26674
 H136 H 0.02512 0.51076 -0.17226
 H137 H 0.07091 0.53419 -0.09222
 H138 H 0.14250 0.57016 -0.10622
 C139 C 0.40522 0.58733 -0.20584
 C140 C 0.39725 0.59476 -0.26062
 C141 C 0.41070 0.58187 -0.30667
 C142 C 0.43200 0.56163 -0.29765
 C143 C 0.43994 0.55418 -0.24286
 C144 C 0.42652 0.56709 -0.19682
 C145 C 0.43481 0.55932 -0.14245
 C146 C 0.45572 0.53931 -0.13380
 C147 C 0.46881 0.52664 -0.17880
 C148 C 0.46114 0.53393 -0.23279
 C149 C 0.40240 0.58962 -0.36103
 C150 C 0.38135 0.60949 -0.36966
 C151 C 0.36815 0.62205 -0.32464
 C152 C 0.37596 0.61489 -0.27065
 C153 C 0.44578 0.54837 -0.34451
 C154 C 0.45763 0.53701 -0.38254
 C155 C 0.39145 0.60045 -0.15883
 C156 C 0.37992 0.61141 -0.11998
 H157 H 0.42523 0.56857 -0.10610
 H158 H 0.46176 0.53358 -0.09193
 H159 H 0.48496 0.51103 -0.17187
 H160 H 0.47196 0.52350 -0.26641
 H161 H 0.41204 0.58040 -0.39736
 H162 H 0.37522 0.61515 -0.41152
 H163 H 0.35175 0.63741 -0.33156
 H164 H 0.36510 0.62527 -0.23699
 C165 C 0.59514 0.18547 -0.20669
 C166 C 0.60188 0.20125 -0.26134
 C167 C 0.58841 0.17477 -0.30758
 C168 C 0.56836 0.13269 -0.29888
 C169 C 0.56189 0.11693 -0.24423
 C170 C 0.57527 0.14340 -0.19800
 C171 C 0.56843 0.12695 -0.14377
 C172 C 0.54908 0.08553 -0.13545
 C173 C 0.53611 0.05964 -0.18065
 C174 C 0.54227 0.07497 -0.23449
 C175 C 0.59546 0.19121 -0.36181
 C176 C 0.61538 0.23266 -0.37013
 C177 C 0.62863 0.25856 -0.32494
 C178 C 0.62200 0.24322 -0.27107
 C179 C 0.55440 0.10549 -0.34594
 C180 C 0.54246 0.08215 -0.38414
 C181 C 0.60875 0.21249 -0.15945
 C182 C 0.62020 0.23506 -0.12039
 H183 H 0.57802 0.14586 -0.10729
 H184 H 0.54419 0.07346 -0.09370
 H185 H 0.52125 0.02750 -0.17397
 H186 H 0.53158 0.05358 -0.26826
 H187 H 0.58575 0.17227 -0.39827
 H188 H 0.62058 0.24475 -0.41189
 H189 H 0.64415 0.29072 -0.33165
 H190 H 0.63287 0.26459 -0.23727
 C191 C 0.81909 0.41291 -0.20641
 C192 C 0.85925 0.44374 -0.20037
 C193 C 0.88526 0.45611 -0.24687
 C194 C 0.87094 0.43758 -0.29915
 C195 C 0.83080 0.40671 -0.30517
 C196 C 0.80480 0.39431 -0.25865
 C197 C 0.76481 0.36330 -0.26565
 C198 C 0.75092 0.34507 -0.31712
 C199 C 0.77633 0.35725 -0.36262
 C200 C 0.81584 0.38771 -0.35696
 C201 C 0.92530 0.48700 -0.23978
 C202 C 0.93921 0.50516 -0.18828
 C203 C 0.91379 0.49302 -0.14282
 C204 C 0.87424 0.46269 -0.14855
 C205 C 0.89767 0.45021 -0.34645
 C206 C 0.92064 0.46121 -0.38486
 C207 C 0.79247 0.40035 -0.15898
 C208 C 0.77010 0.38972 -0.11991
 H209 H 0.74389 0.35278 -0.23151
 H210 H 0.72029 0.32134 -0.32171
 H211 H 0.76538 0.34301 -0.40252
 H212 H 0.83448 0.39615 -0.39354
 H213 H 0.94626 0.49748 -0.27387
 H214 H 0.96988 0.52880 -0.18365
 H215 H 0.92475 0.50720 -0.10289
 H216 H 0.85561 0.45429 -0.11196
 C217 C 0.59225 0.41077 -0.20674
 C218 C 0.58325 0.44175 -0.20009
 C219 C 0.56972 0.45459 -0.24625
 C220 C 0.56531 0.43638 -0.29881
 C221 C 0.57435 0.40543 -0.30548
 C222 C 0.58782 0.39255 -0.25930
 C223 C 0.59648 0.36141 -0.26693
 C224 C 0.59195 0.34351 -0.31868
 C225 C 0.57887 0.35618 -0.36386
 C226 C 0.57014 0.38678 -0.35758
 C227 C 0.56081 0.48556 -0.23853
 C228 C 0.56519 0.50335 -0.18673
 C229 C 0.57841 0.49079 -0.14161
 C230 C 0.58738 0.46036 -0.14796
 C231 C 0.55112 0.44931 -0.34573
 C232 C 0.53905 0.46040 -0.38394
 C233 C 0.60585 0.39747 -0.15955
 C234 C 0.61703 0.38607 -0.12065
 H235 H 0.60677 0.35052 -0.23307
 H236 H 0.59857 0.31965 -0.32374
 H237 H 0.57543 0.34219 -0.40398
 H238 H 0.56003 0.39559 -0.39393
 H239 H 0.55041 0.49637 -0.27234
 H240 H 0.55832 0.52705 -0.18160
 H241 H 0.58174 0.50470 -0.10144
 H242 H 0.59757 0.45162 -0.11163
 C243 C 0.81877 0.41159 0.20721
 C244 C 0.85869 0.44293 0.20081
 C245 C 0.88483 0.45584 0.24716
 C246 C 0.87087 0.43734 0.29965
 C247 C 0.83094 0.40604 0.30607
 C248 C 0.80482 0.39309 0.25969
 C249 C 0.76507 0.36158 0.26706
 C250 C 0.75155 0.34340 0.31875
 C251 C 0.77708 0.35614 0.36411
 C252 C 0.81635 0.38710 0.35809
 C253 C 0.92465 0.48717 0.23970
 C254 C 0.93823 0.50524 0.18797
 C255 C 0.91266 0.49260 0.14266
 C256 C 0.87332 0.46183 0.14876
 C257 C 0.89779 0.45029 0.34674
 C258 C 0.92082 0.46140 0.38507
 C259 C 0.79210 0.39819 0.15982
 C260 C 0.76969 0.38670 0.12078
 H261 H 0.74406 0.35063 0.23305
 H262 H 0.72113 0.31927 0.32361
 H263 H 0.76641 0.34193 0.40418
 H264 H 0.83509 0.39595 0.39458
 H265 H 0.94569 0.49805 0.27367
 H266 H 0.96874 0.52920 0.18304
 H267 H 0.92336 0.50673 0.10256
 H268 H 0.85456 0.45305 0.11229
 C269 C 0.59186 0.18476 0.20681
 C270 C 0.57011 0.14271 0.19807
 C271 C 0.55698 0.11606 0.24428
 C272 C 0.56579 0.13163 0.29896
 C273 C 0.58742 0.17369 0.30771
 C274 C 0.60046 0.20035 0.26149
 C275 C 0.62190 0.24228 0.27127
 C276 C 0.63018 0.25743 0.32516
 C277 C 0.61749 0.23136 0.37033
 C278 C 0.59635 0.18994 0.36196
 C279 C 0.53508 0.07412 0.23448
 C280 C 0.52638 0.05898 0.18062
 C281 C 0.53933 0.08504 0.13545
 C282 C 0.56097 0.12645 0.14382
 C283 C 0.55242 0.10426 0.34600
 C284 C 0.54088 0.08077 0.38418
 C285 C 0.60521 0.21196 0.15960
 C286 C 0.61627 0.23468 0.12055
 H287 H 0.63242 0.26378 0.23748
 H288 H 0.64651 0.28957 0.33190
 H289 H 0.62402 0.24329 0.41210
 H290 H 0.58707 0.17085 0.39840
 H291 H 0.52437 0.05260 0.26824
 H292 H 0.50944 0.02685 0.17390
 H293 H 0.53252 0.07313 0.09367
 H294 H 0.57034 0.14550 0.10735
 C295 C 0.59323 0.41146 0.20592
 C296 C 0.58921 0.39310 0.25839
 C297 C 0.57545 0.40538 0.30477
 C298 C 0.56574 0.43589 0.29836
 C299 C 0.56963 0.45415 0.24584
 C300 C 0.58343 0.44190 0.19949
 C301 C 0.58708 0.46059 0.14743
 C302 C 0.57741 0.49055 0.14132
 C303 C 0.56395 0.50257 0.18663
 C304 C 0.56001 0.48466 0.23837
 C305 C 0.57170 0.38662 0.35679
 C306 C 0.58120 0.35652 0.36283
 C307 C 0.59459 0.34446 0.31748
 C308 C 0.59864 0.36245 0.26578
 C309 C 0.55156 0.44845 0.34555
 C310 C 0.53957 0.45940 0.38390
 C311 C 0.60753 0.39908 0.15867
 C312 C 0.61949 0.38864 0.11973
 H313 H 0.59742 0.45227 0.11094
 H314 H 0.58039 0.50454 0.10121
 H315 H 0.55657 0.52592 0.18171
 H316 H 0.54940 0.49504 0.27233
 H317 H 0.56139 0.39498 0.39327
 H318 H 0.57812 0.34247 0.40291
 H319 H 0.60185 0.32102 0.32236
 H320 H 0.60918 0.35204 0.23177
 C321 C 0.18158 0.58835 0.20645
 C322 C 0.19699 0.59580 0.26118
 C323 C 0.17065 0.58300 0.30732
 C324 C 0.12908 0.56281 0.29844
 C325 C 0.11367 0.55537 0.24371
 C326 C 0.14001 0.56819 0.19758
 C327 C 0.12392 0.56042 0.14326
 C328 C 0.08298 0.54049 0.13475
 C329 C 0.05721 0.52791 0.17985
 C330 C 0.07220 0.53521 0.23378
 C331 C 0.18673 0.59076 0.36163
 C332 C 0.22768 0.61057 0.37011
 C333 C 0.25344 0.62304 0.32500
 C334 C 0.23845 0.61586 0.27107
 C335 C 0.10203 0.54958 0.34540
 C336 C 0.07881 0.53823 0.38350
 C337 C 0.20846 0.60131 0.15935
 C338 C 0.23096 0.61213 0.12042
 H339 H 0.14276 0.56961 0.10684
 H340 H 0.07119 0.53477 0.09293
 H341 H 0.02543 0.51236 0.17303
 H342 H 0.05093 0.52484 0.26748
 H343 H 0.16786 0.58161 0.39802
 H344 H 0.23947 0.61624 0.41193
 H345 H 0.28521 0.63835 0.33181
 H346 H 0.25969 0.62618 0.23733
 C347 C 0.40809 0.81639 0.20594
 C348 C 0.39162 0.80225 0.25932
 C349 C 0.40529 0.82892 0.30534
 C350 C 0.43536 0.86955 0.29770
 C351 C 0.45205 0.88361 0.24439
 C352 C 0.43835 0.85695 0.19837
 C353 C 0.45543 0.87168 0.14548
 C354 C 0.48531 0.91159 0.13828
 C355 C 0.49879 0.93764 0.18330
 C356 C 0.48241 0.92401 0.23580
 C357 C 0.38838 0.81412 0.35829
 C358 C 0.35880 0.77409 0.36557
 C359 C 0.34542 0.74800 0.32058
 C360 C 0.36152 0.76175 0.26797
 C361 C 0.44901 0.89706 0.34440
 C362 C 0.46076 0.92061 0.38236
 C363 C 0.39392 0.78922 0.15887
 C364 C 0.38201 0.76649 0.12000
 H365 H 0.44598 0.85256 0.10920
 H366 H 0.49811 0.92233 0.09757
 H367 H 0.52213 0.96856 0.17753
 H368 H 0.49389 0.94546 0.26949
 H369 H 0.39784 0.83327 0.39455
 H370 H 0.34620 0.76326 0.40635
 H371 H 0.32242 0.71696 0.32644
 H372 H 0.35015 0.74030 0.23427
 C373 C 0.40628 0.58816 0.20647
 C374 C 0.39820 0.59549 0.26116
 C375 C 0.41105 0.58201 0.30737
 C376 C 0.43189 0.56128 0.29859
 C377 C 0.43971 0.55370 0.24389
 C378 C 0.42688 0.56720 0.19770
 C379 C 0.43508 0.55933 0.14342
 C380 C 0.45532 0.53863 0.13501
 C381 C 0.46782 0.52538 0.18017
 C382 C 0.46024 0.53278 0.23406
 C383 C 0.40269 0.58971 0.36163
 C384 C 0.38218 0.61014 0.37002
 C385 C 0.36960 0.62332 0.32485
 C386 C 0.37743 0.61617 0.27095
 C387 C 0.44555 0.54792 0.34562
 C388 C 0.45739 0.53660 0.38383
 C389 C 0.39356 0.60234 0.15932
 C390 C 0.38298 0.61430 0.12039
 H391 H 0.42593 0.56900 0.10696
 H392 H 0.46130 0.53283 0.09322
 H393 H 0.48344 0.50923 0.17342
 H394 H 0.47058 0.52186 0.26781
 H395 H 0.41185 0.58002 0.39807
 H396 H 0.37602 0.61577 0.41181
 H397 H 0.35371 0.63920 0.33158
 H398 H 0.36703 0.62699 0.23716
   
