data_POSCAR
  _audit_creation_date              2014-09-24
  _audit_creation_method            'ToBaCCo'
  _symmetry_space_group_name_H-M    'P1'
  _symmetry_Int_Tables_number       1
  _symmetry_cell_setting            triclinic
  loop_
  _symmetry_equiv_pos_as_xyz
 x,y,z
_cell_length_a 36.4738
_cell_length_b 38.1816
_cell_length_c 38.0128
_cell_angle_alpha 83.238300
_cell_angle_beta 95.123100
_cell_angle_gamma 93.452500
loop_
  _atom_site_label
  _atom_site_type_symbol
  _atom_site_fract_x
  _atom_site_fract_y
  _atom_site_fract_z
C1 C 0.19592 0.27768 0.27276
 C2 C 0.22085 0.29914 0.24717
 C3 C 0.24420 0.27823 0.23106
 C4 C 0.23882 0.23856 0.24286
 C5 C 0.17482 0.25074 0.25120
 C6 C 0.19744 0.22982 0.23482
 C7 C 0.22166 0.25602 0.29949
 C8 C 0.24502 0.23497 0.28360
 H9 H 0.22080 0.32761 0.24277
 H10 H 0.25727 0.22224 0.23066
 H11 H 0.14498 0.24790 0.24839
 H12 H 0.22097 0.25644 0.32778
 C13 C 0.73159 0.79817 0.26779
 C14 C 0.75650 0.81721 0.24071
 C15 C 0.77933 0.79466 0.22626
 C16 C 0.77377 0.75586 0.24125
 C17 C 0.70975 0.76974 0.24838
 C18 C 0.73245 0.74688 0.23398
 C19 C 0.75754 0.77828 0.29578
 C20 C 0.78019 0.75520 0.28174
 H21 H 0.75610 0.84541 0.23348
 H22 H 0.79160 0.73801 0.23010
 H23 H 0.67998 0.76855 0.24479
 H24 H 0.75697 0.78076 0.32374
 C25 C 0.68964 0.27291 0.77847
 C26 C 0.71084 0.29792 0.75578
 C27 C 0.73688 0.28299 0.73693
 C28 C 0.73698 0.24241 0.74490
 C29 C 0.67128 0.24647 0.75424
 C30 C 0.69679 0.22981 0.73615
 C31 C 0.71772 0.25184 0.80328
 C32 C 0.74342 0.23551 0.78559
 H33 H 0.70674 0.32606 0.75286
 H34 H 0.75634 0.22967 0.73032
 H35 H 0.64192 0.24016 0.75250
 H36 H 0.71821 0.24985 0.83200
 C37 C 0.21723 0.76332 0.77380
 C38 C 0.23318 0.78979 0.74529
 C39 C 0.25769 0.77531 0.72473
 C40 C 0.26185 0.73546 0.73498
 C41 C 0.19869 0.73390 0.75380
 C42 C 0.22246 0.71883 0.73272
 C43 C 0.25034 0.74686 0.79551
 C44 C 0.27440 0.73160 0.77477
 H45 H 0.22728 0.81753 0.74185
 H46 H 0.28023 0.72306 0.71886
 H47 H 0.16951 0.72712 0.75417
 H48 H 0.25332 0.74523 0.82419
 C49 C 0.07658 0.05637 -0.00985
 H50 H 0.07530 0.06302 -0.03838
 C51 C 0.10064 0.07564 0.01224
 H52 H 0.11773 0.09739 0.00062
 C53 C 0.05600 0.01977 0.04007
 H54 H 0.03903 -0.00244 0.05075
 C55 C 0.07952 0.03835 0.06307
 H56 H 0.08045 0.02991 0.09130
 N57 N 0.05478 0.02915 0.00437
 C58 C 0.03426 -0.05134 -0.06828
 H59 H 0.00450 -0.05336 -0.07217
 C60 C 0.05516 -0.07329 -0.08465
 H61 H 0.04091 -0.09140 -0.10162
 C62 C 0.08847 -0.02488 -0.04151
 H63 H 0.10152 -0.00620 -0.02454
 C64 C 0.11036 -0.04623 -0.05728
 H65 H 0.14006 -0.04352 -0.05238
 Zn66 Zn 0.02287 0.00286 -0.02585
 N67 N 0.05114 -0.02744 -0.04751
 C68 C -0.01135 0.02777 -0.09440
 N69 N -0.00267 0.03485 -0.06032
 C70 C -0.01339 0.06482 -0.04902
 C71 C -0.03532 0.08807 -0.07154
 C72 C -0.03318 0.05039 -0.11796
 C73 C -0.01118 -0.05945 0.00960
 C74 C -0.03609 -0.07788 0.03197
 C75 C -0.06221 -0.02247 0.03801
 C76 C -0.03682 -0.00525 0.01584
 N77 N -0.01195 -0.02375 0.00208
 H78 H -0.00213 0.00424 -0.10328
 H79 H -0.00534 0.07049 -0.02213
 H80 H -0.04308 0.11134 -0.06102
 H81 H -0.04049 0.04368 -0.14470
 H82 H 0.00924 -0.07365 -0.00107
 H83 H -0.03438 -0.10615 0.03751
 H84 H -0.08151 -0.00686 0.04873
 H85 H -0.03664 0.02310 0.01010
 C86 C 0.09386 -0.07079 -0.07920
 C87 C 0.10189 0.06701 0.04920
 C88 C -0.06205 -0.05923 0.04676
 C89 C -0.04651 0.08057 -0.10647
 C90 C 0.04873 0.53588 0.52611
 H91 H 0.04916 0.54493 0.49808
 C92 C 0.07017 0.55394 0.55114
 H93 H 0.08661 0.57721 0.54202
 C94 C 0.02509 0.49542 0.57180
 H95 H 0.00744 0.47264 0.57971
 C96 C 0.04582 0.51286 0.59771
 H97 H 0.04381 0.50345 0.62553
 N98 N 0.02679 0.50724 0.53679
 C99 C 0.01098 0.44137 0.44991
 H100 H -0.01875 0.43881 0.44575
 C101 C 0.03268 0.42396 0.42967
 H102 H 0.01898 0.40805 0.41027
 C103 C 0.06423 0.46403 0.48169
 H104 H 0.07656 0.47924 0.50227
 C105 C 0.08694 0.44717 0.46207
 H106 H 0.11656 0.44988 0.46765
 Zn107 Zn -0.00316 0.48491 0.50193
 N108 N 0.02697 0.46128 0.47505
 C109 C -0.03419 0.52128 0.43661
 N110 N -0.02920 0.52062 0.47257
 C111 C -0.04180 0.54656 0.48922
 C112 C -0.06092 0.57408 0.46990
 C113 C -0.05330 0.54831 0.41616
 C114 C -0.03240 0.41677 0.52759
 C115 C -0.05588 0.39299 0.54687
 C116 C -0.08858 0.44227 0.56029
 C117 C -0.06448 0.46499 0.54084
 N118 N -0.03697 0.45209 0.52506
 H119 H -0.02343 0.50095 0.42360
 H120 H -0.03666 0.54610 0.51772
 H121 H -0.07033 0.59374 0.48469
 H122 H -0.05712 0.54808 0.38758
 H123 H -0.00996 0.40698 0.51545
 H124 H -0.05134 0.36501 0.54887
 H125 H -0.10957 0.45418 0.57247
 H126 H -0.06741 0.49310 0.53897
 C127 C 0.07134 0.42710 0.43543
 C128 C 0.06876 0.54241 0.58752
 C129 C -0.08435 0.40549 0.56394
 C130 C -0.06718 0.57528 0.43262
 C131 C 0.55325 0.05040 0.49835
 H132 H 0.54744 0.05651 0.46995
 C133 C 0.57228 0.07540 0.51807
 H134 H 0.58136 0.10063 0.50468
 C135 C 0.54592 0.01126 0.55073
 H136 H 0.53430 -0.01308 0.56359
 C137 C 0.56562 0.03519 0.57138
 H138 H 0.56892 0.02887 0.59997
 N139 N 0.53974 0.01941 0.51493
 C140 C 0.50996 -0.05928 0.44136
 H141 H 0.48076 -0.06280 0.44465
 C142 C 0.52646 -0.08118 0.42113
 H143 H 0.50975 -0.10146 0.40867
 C144 C 0.56740 -0.02922 0.45464
 H145 H 0.58327 -0.00938 0.46840
 C146 C 0.58499 -0.05035 0.43430
 H147 H 0.61448 -0.04663 0.43290
 Zn148 Zn 0.50608 -0.00822 0.48721
 N149 N 0.53052 -0.03403 0.45770
 C150 C 0.46730 0.02390 0.42383
 N151 N 0.47406 0.02355 0.45962
 C152 C 0.45857 0.04682 0.47751
 C153 C 0.43444 0.07118 0.45968
 C154 C 0.44325 0.04788 0.40481
 C155 C 0.49501 -0.06867 0.53628
 C156 C 0.47476 -0.09381 0.55749
 C157 C 0.41993 -0.06225 0.53753
 C158 C 0.44119 -0.03794 0.51665
 N159 N 0.47811 -0.04114 0.51677
 H160 H 0.48037 0.00553 0.41000
 H161 H 0.46485 0.04624 0.50594
 H162 H 0.42295 0.08884 0.47542
 H163 H 0.43800 0.04747 0.37635
 H164 H 0.52428 -0.07116 0.53525
 H165 H 0.48891 -0.11540 0.57296
 H166 H 0.39071 -0.05860 0.53598
 H167 H 0.42789 -0.01670 0.50005
 C168 C 0.56436 -0.07680 0.41728
 C169 C 0.57826 0.06808 0.55506
 C170 C 0.43667 -0.09070 0.55877
 C171 C 0.42609 0.07189 0.42263
 C172 C 0.57299 0.54294 0.03753
 H173 H 0.57633 0.54833 0.00938
 C174 C 0.59277 0.56369 0.06141
 H175 H 0.61120 0.58498 0.05120
 C176 C 0.54243 0.51045 0.08435
 H177 H 0.52234 0.49009 0.09314
 C178 C 0.56135 0.53073 0.10905
 H179 H 0.55569 0.52571 0.13673
 N180 N 0.54794 0.51734 0.04923
 C181 C 0.52263 0.44484 -0.03223
 H182 H 0.49287 0.44506 -0.03528
 C183 C 0.54086 0.42380 -0.05208
 H184 H 0.52447 0.40833 -0.07028
 C185 C 0.57935 0.46489 -0.00428
 H186 H 0.59430 0.48088 0.01438
 C187 C 0.59869 0.44426 -0.02357
 H188 H 0.62849 0.44472 -0.01954
 Zn189 Zn 0.51596 0.49514 0.01538
 N190 N 0.54199 0.46529 -0.00930
 C191 C 0.48585 0.52845 -0.05185
 N192 N 0.49435 0.53165 -0.01675
 C193 C 0.48677 0.56127 -0.00270
 C194 C 0.46882 0.58850 -0.02368
 C195 C 0.46778 0.55513 -0.07394
 C196 C 0.47677 0.43289 0.04467
 C197 C 0.44908 0.41427 0.06354
 C198 C 0.42423 0.46994 0.07085
 C199 C 0.45231 0.48733 0.05203
 N200 N 0.47789 0.46879 0.03933
 H201 H 0.49245 0.50503 -0.06280
 H202 H 0.49416 0.56358 0.02515
 H203 H 0.46252 0.61146 -0.01148
 H204 H 0.46091 0.55110 -0.10143
 H205 H 0.49770 0.41861 0.03485
 H206 H 0.44935 0.38582 0.06734
 H207 H 0.40439 0.48555 0.08077
 H208 H 0.45388 0.51581 0.04798
 C209 C 0.57958 0.42360 -0.04815
 C210 C 0.58648 0.55804 0.09766
 C211 C 0.42225 0.43291 0.07714
 C212 C 0.45840 0.58559 -0.05973
 C213 C 0.19157 -0.22070 -0.20438
 C214 C 0.20357 -0.19336 -0.18428
 C215 C 0.17823 -0.17544 -0.16525
 N216 N 0.19100 -0.14776 -0.14758
 N217 N 0.16820 -0.13064 -0.13097
 C218 C 0.13178 -0.14059 -0.13142
 N219 N 0.11904 -0.16839 -0.14897
 N220 N 0.14184 -0.18550 -0.16560
 C221 C 0.10617 -0.12141 -0.11385
 C222 C 0.11818 -0.09216 -0.09634
 H223 H 0.23228 -0.18411 -0.18345
 H224 H 0.07759 -0.13076 -0.11495
 H225 H 0.16282 -0.22979 -0.20553
 H226 H 0.14733 -0.08453 -0.09472
 C227 C 0.17064 0.29962 0.28926
 C228 C 0.18352 0.32240 0.31418
 C229 C 0.15809 0.34182 0.33172
 N230 N 0.17093 0.35994 0.35929
 N231 N 0.14791 0.37661 0.37611
 C232 C 0.11122 0.37584 0.36592
 N233 N 0.09846 0.35798 0.33817
 N234 N 0.12145 0.34122 0.32143
 C235 C 0.08524 0.39348 0.38458
 C236 C 0.09640 0.40955 0.41517
 H237 H 0.21275 0.32475 0.32215
 H238 H 0.05684 0.39340 0.37373
 H239 H 0.14141 0.29769 0.28116
 H240 H 0.12533 0.40977 0.42462
 C241 C 0.70867 -0.17669 0.28309
 C242 C 0.68168 -0.18809 0.30620
 C243 C 0.66343 -0.16304 0.32475
 N244 N 0.63498 -0.17441 0.34457
 N245 N 0.61890 -0.15205 0.36206
 C246 C 0.63082 -0.11752 0.36052
 N247 N 0.65934 -0.10621 0.34081
 N248 N 0.67529 -0.12851 0.32321
 C249 C 0.61398 -0.09255 0.38024
 C250 C 0.58155 -0.10123 0.39686
 H251 H 0.67441 -0.21603 0.31137
 H252 H 0.62702 -0.06637 0.38070
 H253 H 0.71584 -0.14867 0.27839
 H254 H 0.56723 -0.12648 0.39357
 C255 C 0.66316 0.29037 -0.20150
 C256 C 0.67630 0.31353 -0.17687
 C257 C 0.65238 0.33094 -0.15580
 N258 N 0.66789 0.35201 -0.13160
 N259 N 0.64697 0.36810 -0.11211
 C260 C 0.60967 0.36374 -0.11606
 N261 N 0.59411 0.34267 -0.14031
 N262 N 0.61506 0.32651 -0.15981
 C263 C 0.58622 0.38180 -0.09493
 C264 C 0.60126 0.40313 -0.06920
 H265 H 0.70578 0.31885 -0.17254
 H266 H 0.55676 0.37816 -0.10031
 H267 H 0.63378 0.28483 -0.20633
 H268 H 0.63100 0.40553 -0.06450
 C269 C -0.22825 0.21671 -0.19493
 C270 C -0.20192 0.19897 -0.20956
 C271 C -0.17228 0.18109 -0.18665
 N272 N -0.15076 0.15885 -0.19994
 N273 N -0.12426 0.14229 -0.17910
 C274 C -0.11819 0.14760 -0.14428
 N275 N -0.13945 0.17010 -0.13116
 N276 N -0.16598 0.18648 -0.15191
 C277 C -0.08986 0.12912 -0.12028
 C278 C -0.07096 0.10129 -0.12987
 H279 H -0.20304 0.19721 -0.23778
 H280 H -0.08617 0.13667 -0.09368
 H281 H -0.22685 0.21592 -0.16624
 H282 H -0.07713 0.09404 -0.15658
 C283 C -0.19518 0.73246 0.30204
 C284 C -0.18805 0.73141 0.33889
 C285 C -0.16452 0.70540 0.36012
 N286 N -0.14965 0.67941 0.34530
 N287 N -0.12938 0.65552 0.36541
 C288 C -0.12327 0.65679 0.40105
 N289 N -0.13803 0.68283 0.41573
 N290 N -0.15829 0.70665 0.39566
 C291 C -0.10174 0.63039 0.42413
 C292 C -0.08668 0.60197 0.41130
 H293 H -0.20011 0.74988 0.35337
 H294 H -0.09857 0.63391 0.45199
 H295 H -0.18124 0.71458 0.28826
 H296 H -0.09057 0.60028 0.38292
 C297 C 0.27118 0.21274 0.30229
 C298 C 0.27864 0.20982 0.33921
 C299 C 0.30590 0.18625 0.35860
 N300 N 0.32476 0.16436 0.34188
 N301 N 0.34908 0.14309 0.36034
 C302 C 0.35538 0.14299 0.39614
 N303 N 0.33655 0.16489 0.41271
 N304 N 0.31227 0.18608 0.39431
 C305 C 0.38175 0.11971 0.41744
 C306 C 0.40138 0.09528 0.40287
 H307 H 0.26454 0.22543 0.35517
 H308 H 0.38471 0.12215 0.44553
 H309 H 0.28660 0.19733 0.28711
 H310 H 0.39684 0.09402 0.37445
 C311 C 0.30525 0.71269 -0.21151
 C312 C 0.31859 0.70981 -0.17573
 C313 C 0.34784 0.68612 -0.16103
 N314 N 0.36050 0.68579 -0.12637
 N315 N 0.38549 0.66320 -0.11187
 C316 C 0.39875 0.64000 -0.13146
 N317 N 0.38623 0.64044 -0.16622
 N318 N 0.36125 0.66311 -0.18077
 C319 C 0.42465 0.61345 -0.11502
 C320 C 0.43801 0.61258 -0.07926
 H321 H 0.30717 0.72479 -0.15729
 H322 H 0.43175 0.59396 -0.13133
 H323 H 0.31920 0.69940 -0.22973
 H324 H 0.43102 0.63398 -0.06509
 C325 C -0.19573 -0.19432 0.20060
 C326 C -0.19084 -0.15928 0.18567
 C327 C -0.16477 -0.14767 0.15881
 N328 N -0.16251 -0.11312 0.14564
 N329 N -0.13904 -0.10155 0.12152
 C330 C -0.11684 -0.12405 0.10956
 N331 N -0.11909 -0.15872 0.12268
 N332 N -0.14266 -0.17035 0.14688
 C333 C -0.09033 -0.11102 0.08328
 C334 C -0.08742 -0.07515 0.07031
 H335 H -0.20660 -0.13885 0.19344
 H336 H -0.07290 -0.12992 0.07507
 H337 H -0.17969 -0.21414 0.19184
 H338 H -0.10596 -0.05789 0.07982
 C339 C -0.24231 0.30381 0.71462
 C340 C -0.21596 0.29221 0.69462
 C341 C -0.19507 0.31743 0.67048
 N342 N -0.16844 0.30616 0.65232
 N343 N -0.14937 0.32896 0.63065
 C344 C -0.15633 0.36386 0.62633
 N345 N -0.18300 0.37502 0.64439
 N346 N -0.20199 0.35229 0.66601
 C347 C -0.13540 0.38990 0.60322
 C348 C -0.10660 0.38097 0.58446
 H349 H -0.20995 0.26469 0.69634
 H350 H -0.14317 0.41684 0.60201
 H351 H -0.24637 0.33194 0.71192
 H352 H -0.10066 0.35329 0.58638
 C353 C 0.27619 -0.20300 0.69902
 C354 C 0.30499 -0.21337 0.68135
 C355 C 0.32423 -0.18798 0.65615
 N356 N 0.35737 -0.19524 0.64579
 N357 N 0.37539 -0.17182 0.62384
 C358 C 0.36079 -0.14039 0.61134
 N359 N 0.32748 -0.13339 0.62136
 N360 N 0.30960 -0.15666 0.64341
 C361 C 0.38009 -0.11383 0.58742
 C362 C 0.41699 -0.11605 0.58083
 H363 H 0.31548 -0.23944 0.68744
 H364 H 0.36468 -0.09123 0.57658
 H365 H 0.26868 -0.17571 0.69383
 H366 H 0.43167 -0.13821 0.59456
 C367 C 0.27038 0.29137 0.20732
 C368 C 0.27631 0.32718 0.19561
 C369 C 0.30511 0.34036 0.17192
 N370 N 0.30933 0.37552 0.16181
 N371 N 0.33560 0.38824 0.14094
 C372 C 0.35870 0.36629 0.12935
 N373 N 0.35442 0.33106 0.13938
 N374 N 0.32811 0.31831 0.16029
 C375 C 0.38836 0.38030 0.10683
 C376 C 0.39391 0.41663 0.09710
 H377 H 0.25984 0.34677 0.20399
 H378 H 0.40597 0.36149 0.09875
 H379 H 0.28703 0.27251 0.19777
 H380 H 0.37501 0.43382 0.10620
 C381 C 0.18149 0.20426 0.21398
 C382 C 0.20048 0.18544 0.19272
 C383 C 0.18023 0.15989 0.17111
 N384 N 0.19434 0.15062 0.14186
 N385 N 0.17504 0.12884 0.12133
 C386 C 0.14110 0.11541 0.12954
 N387 N 0.12738 0.12417 0.15911
 N388 N 0.14651 0.14607 0.17943
 C389 C 0.11866 0.09222 0.10700
 C390 C 0.12658 0.08813 0.07256
 H391 H 0.22949 0.19101 0.18964
 H392 H 0.09355 0.08011 0.11714
 H393 H 0.15179 0.19989 0.21326
 H394 H 0.14990 0.10302 0.06146
 C395 C 0.21147 0.69242 0.71077
 C396 C 0.17720 0.67404 0.71145
 C397 C 0.16403 0.64924 0.68584
 N398 N 0.13219 0.62974 0.69061
 N399 N 0.11851 0.60844 0.66685
 C400 C 0.13608 0.60594 0.63731
 N401 N 0.16802 0.62539 0.63253
 N402 N 0.18181 0.64664 0.65641
 C403 C 0.11998 0.58397 0.61001
 C404 C 0.08869 0.56178 0.61542
 H405 H 0.15889 0.67743 0.73148
 H406 H 0.13280 0.58571 0.58523
 H407 H 0.23073 0.68575 0.69279
 H408 H 0.07824 0.55823 0.64148
 C409 C 0.68742 0.20422 0.71286
 C410 C 0.65147 0.19665 0.69891
 C411 C 0.64287 0.16927 0.67481
 N412 N 0.61287 0.17174 0.65102
 N413 N 0.60428 0.14684 0.62947
 C414 C 0.62513 0.11829 0.63121
 N415 N 0.65492 0.11560 0.65529
 N416 N 0.66381 0.14076 0.67653
 C417 C 0.61469 0.08990 0.60864
 C418 C 0.59386 0.09638 0.57619
 H419 H 0.62923 0.21258 0.70356
 H420 H 0.62381 0.06362 0.61754
 H421 H 0.70959 0.19075 0.70394
 H422 H 0.58877 0.12345 0.56569
 C423 C 0.71981 0.71940 0.21391
 C424 C 0.68286 0.70782 0.20871
 C425 C 0.67104 0.67983 0.18599
 N426 N 0.63659 0.66445 0.18711
 N427 N 0.62525 0.63957 0.16623
 C428 C 0.64787 0.62928 0.14325
 N429 N 0.68225 0.64481 0.14197
 N430 N 0.69369 0.66952 0.16304
 C431 C 0.63512 0.60285 0.11901
 C432 C 0.60285 0.58188 0.12353
 H433 H 0.66193 0.71856 0.22214
 H434 H 0.65163 0.59987 0.09738
 H435 H 0.74023 0.70597 0.20224
 H436 H 0.58871 0.58296 0.14725
   
