data_POSCAR
  _audit_creation_date              2014-09-24
  _audit_creation_method            'ToBaCCo'
  _symmetry_space_group_name_H-M    'P1'
  _symmetry_Int_Tables_number       1
  _symmetry_cell_setting            triclinic
  loop_
  _symmetry_equiv_pos_as_xyz
 x,y,z
_cell_length_a 54.6230
_cell_length_b 54.6215
_cell_length_c 54.6424
_cell_angle_alpha 87.657500
_cell_angle_beta 87.770300
_cell_angle_gamma 87.782000
loop_
  _atom_site_label
  _atom_site_type_symbol
  _atom_site_fract_x
  _atom_site_fract_y
  _atom_site_fract_z
C1 C 0.79019 0.64126 1.00528
 C2 C 0.79585 0.62318 0.98495
 C3 C 0.77646 0.60947 0.97996
 C4 C 0.75322 0.61489 0.99589
 C5 C 0.76765 0.65657 0.99681
 C6 C 0.74832 0.64262 0.99191
 C7 C 0.78089 0.62564 1.02736
 C8 C 0.76151 0.61191 1.02245
 H9 H 0.81283 0.62296 0.97388
 H10 H 0.73750 0.60351 0.99196
 H11 H 0.76728 0.67640 0.99417
 H12 H 0.78783 0.62669 1.04565
 C13 C 0.78852 0.36478 0.47888
 C14 C 0.79331 0.38096 0.50029
 C15 C 0.77338 0.39505 0.50747
 C16 C 0.75047 0.39180 0.49262
 C17 C 0.76633 0.34985 0.48744
 C18 C 0.74644 0.36408 0.49459
 C19 C 0.77906 0.38246 0.45859
 C20 C 0.75914 0.39654 0.46580
 H21 H 0.81066 0.38080 0.50939
 H22 H 0.73429 0.40339 0.49848
 H23 H 0.76630 0.32995 0.48774
 H24 H 0.78653 0.38278 0.43985
 C25 C 0.28850 -0.13432 -0.02141
 C26 C 0.29342 -0.11929 -0.00086
 C27 C 0.27262 -0.10433 0.00680
 C28 C 0.25089 -0.10720 -0.00748
 C29 C 0.26735 -0.14857 -0.01348
 C30 C 0.24658 -0.13349 -0.00580
 C31 C 0.27983 -0.11727 -0.04070
 C32 C 0.25905 -0.10230 -0.03296
 H33 H 0.31070 -0.11992 0.00845
 H34 H 0.23481 -0.09546 -0.00149
 H35 H 0.26714 -0.16848 -0.01337
 H36 H 0.28687 -0.11726 -0.05961
 C37 C 0.28968 0.13758 0.50647
 C38 C 0.29511 0.11946 0.48611
 C39 C 0.27552 0.10601 0.48112
 C40 C 0.25236 0.11170 0.49708
 C41 C 0.26732 0.15317 0.49801
 C42 C 0.24781 0.13948 0.49311
 C43 C 0.28021 0.12206 0.52854
 C44 C 0.26066 0.10858 0.52363
 H45 H 0.31205 0.11909 0.47500
 H46 H 0.23648 0.10053 0.49315
 H47 H 0.26724 0.17298 0.49525
 H48 H 0.28723 0.12296 0.54681
 C49 C 0.13819 0.50766 0.28928
 C50 C 0.11991 0.48741 0.29478
 C51 C 0.10649 0.48239 0.27519
 C52 C 0.11238 0.49822 0.25195
 C53 C 0.15380 0.49901 0.26704
 C54 C 0.14014 0.49408 0.24752
 C55 C 0.12287 0.52977 0.27961
 C56 C 0.10943 0.52483 0.26005
 H57 H 0.11944 0.47634 0.31176
 H58 H 0.10123 0.49427 0.23607
 H59 H 0.17359 0.49615 0.26705
 H60 H 0.12391 0.54808 0.28648
 C61 C -0.13416 -0.02274 0.28874
 C62 C -0.11875 -0.00065 0.29354
 C63 C -0.10467 0.00682 0.27366
 C64 C -0.10723 -0.00848 0.25089
 C65 C -0.14918 -0.01461 0.26641
 C66 C -0.13496 -0.00714 0.24657
 C67 C -0.11685 -0.04159 0.28010
 C68 C -0.10208 -0.03373 0.25932
 H69 H -0.11932 0.00854 0.31084
 H70 H -0.09566 -0.00230 0.23478
 H71 H -0.16907 -0.01468 0.26632
 H72 H -0.11652 -0.06045 0.28730
 C73 C 0.36436 0.47786 0.78843
 C74 C 0.38048 0.49934 0.79325
 C75 C 0.39453 0.50667 0.77333
 C76 C 0.39131 0.49189 0.75040
 C77 C 0.34940 0.48644 0.76627
 C78 C 0.36359 0.49375 0.74639
 C79 C 0.38208 0.45768 0.77891
 C80 C 0.39613 0.46504 0.75900
 H81 H 0.38024 0.50841 0.81059
 H82 H 0.40288 0.49788 0.73423
 H83 H 0.32950 0.48667 0.76627
 H84 H 0.38245 0.43891 0.78633
 C85 C 0.63870 1.00681 0.78956
 C86 C 0.62102 0.98595 0.79505
 C87 C 0.60734 0.98101 0.77559
 C88 C 0.61246 0.99752 0.75257
 C89 C 0.65417 0.99873 0.76694
 C90 C 0.64026 0.99385 0.74755
 C91 C 0.62359 1.02763 0.78107
 C92 C 0.60922 1.02253 0.76075
 H93 H 0.62101 0.97466 0.81189
 H94 H 0.60111 0.99355 0.73684
 H95 H 0.67399 0.99610 0.76664
 H96 H 0.62481 1.04598 0.78785
 C97 C -0.02096 0.28817 -0.13689
 C98 C 0.00047 0.29291 -0.12067
 C99 C 0.00761 0.27297 -0.10654
 C100 C -0.00728 0.25009 -0.10978
 C101 C -0.01244 0.26596 -0.15175
 C102 C -0.00532 0.24605 -0.13748
 C103 C -0.04128 0.27873 -0.11924
 C104 C -0.03409 0.25880 -0.10510
 H105 H 0.00958 0.31026 -0.12082
 H106 H -0.00145 0.23389 -0.09815
 H107 H -0.01215 0.26594 -0.17165
 H108 H -0.05999 0.28625 -0.11893
 C109 C 0.50647 0.28889 0.13952
 C110 C 0.48618 0.29447 0.12131
 C111 C 0.48112 0.27495 0.10782
 C112 C 0.49696 0.25170 0.11356
 C113 C 0.49786 0.26652 0.15504
 C114 C 0.49290 0.24708 0.14131
 C115 C 0.52854 0.27936 0.12410
 C116 C 0.52357 0.25988 0.11058
 H117 H 0.47512 0.31145 0.12093
 H118 H 0.49299 0.23589 0.10235
 H119 H 0.49506 0.26639 0.17484
 H120 H 0.54685 0.28627 0.12510
 C121 C 1.00604 0.79014 0.63833
 C122 C 0.98648 0.79572 0.62135
 C123 C 0.98131 0.77541 0.60681
 C124 C 0.99677 0.75348 0.61195
 C125 C 0.99832 0.76864 0.65302
 C126 C 0.99323 0.74836 0.63830
 C127 C 1.02712 0.78175 0.62333
 C128 C 1.02197 0.76148 0.60878
 H129 H 0.97485 0.81235 0.62175
 H130 H 0.99287 0.73780 0.60045
 H131 H 0.99547 0.76825 0.67284
 H132 H 1.04551 0.78839 0.62477
 C133 C 0.47859 0.78770 0.36512
 C134 C 0.50005 0.79250 0.38127
 C135 C 0.50728 0.77257 0.39538
 C136 C 0.49244 0.74964 0.39218
 C137 C 0.48713 0.76551 0.35023
 C138 C 0.49435 0.74562 0.36447
 C139 C 0.45835 0.77820 0.38282
 C140 C 0.46561 0.75828 0.39693
 H141 H 0.50915 0.80985 0.38105
 H142 H 0.49835 0.73345 0.40378
 H143 H 0.48742 0.76552 0.33034
 H144 H 0.43961 0.78566 0.38316
 C145 C 0.39083 -0.00912 0.26549
 H146 H 0.39000 0.00852 0.27386
 C147 C 0.40425 -0.02875 0.27619
 H148 H 0.41392 -0.02624 0.29279
 C149 C 0.37832 -0.03434 0.23428
 H150 H 0.36770 -0.03665 0.21834
 C151 C 0.39151 -0.05444 0.24439
 H152 H 0.39117 -0.07208 0.23606
 N153 N 0.37821 -0.01222 0.24492
 C154 C 0.36534 0.06073 0.21124
 H155 H 0.34571 0.06054 0.20934
 C156 C 0.37820 0.08129 0.20312
 H157 H 0.36847 0.09704 0.19493
 C158 C 0.40205 0.04048 0.22431
 H159 H 0.41130 0.02448 0.23241
 C160 C 0.41562 0.06069 0.21641
 H161 H 0.43526 0.06027 0.21860
 Zn162 Zn 0.35812 0.01439 0.23318
 N163 N 0.37731 0.04103 0.22196
 C164 C 0.33779 0.04690 0.26818
 N165 N 0.33716 0.02379 0.25987
 C166 C 0.32396 0.00625 0.27219
 C167 C 0.31114 0.01155 0.29411
 C168 C 0.32519 0.05297 0.28992
 C169 C 0.35369 0.00001 0.18556
 C170 C 0.34238 -0.00818 0.16514
 C171 C 0.30348 -0.00598 0.18776
 C172 C 0.31556 0.00223 0.20784
 N173 N 0.34030 0.00465 0.20647
 H174 H 0.34887 0.06042 0.25860
 H175 H 0.32423 -0.01213 0.26548
 H176 H 0.30137 -0.00272 0.30426
 H177 H 0.32644 0.07120 0.29678
 H178 H 0.37330 0.00228 0.18496
 H179 H 0.35330 -0.01228 0.14873
 H180 H 0.28387 -0.00835 0.18905
 H181 H 0.30524 0.00633 0.22453
 C182 C 0.40353 0.08134 0.20590
 C183 C 0.40444 -0.05165 0.26562
 C184 C 0.31710 -0.01142 0.16630
 C185 C 0.31208 0.03505 0.30320
 C186 C 0.07908 1.03510 0.78428
 H187 H 0.07801 1.01703 0.79304
 C188 C 0.06596 1.05498 0.79438
 H189 H 0.05461 1.05222 0.81088
 C190 C 0.09609 1.06109 0.75274
 H191 H 0.10837 1.06358 0.73694
 C192 C 0.08329 1.08142 0.76221
 H193 H 0.08555 1.09940 0.75350
 N194 N 0.09381 1.03848 0.76385
 C195 C 0.10730 0.96693 0.73241
 H196 H 0.12710 0.96711 0.73089
 C197 C 0.09510 0.94720 0.72394
 H198 H 0.10551 0.93208 0.71587
 C199 C 0.06952 0.98661 0.74452
 H200 H 0.05968 1.00216 0.75230
 C201 C 0.05655 0.96715 0.73622
 H202 H 0.03670 0.96766 0.73772
 Zn203 Zn 0.11357 1.01159 0.75283
 N204 N 0.09447 0.98600 0.74265
 C205 C 0.13069 0.97677 0.78862
 N206 N 0.13285 1.00013 0.77932
 C207 C 0.14755 1.01607 0.78969
 C208 C 0.16114 1.00856 0.81002
 C209 C 0.14393 0.96854 0.80888
 C210 C 0.12150 1.02812 0.70449
 C211 C 0.13467 1.03513 0.68312
 C212 C 0.17224 1.02771 0.70463
 C213 C 0.15835 1.02082 0.72566
 N214 N 0.13342 1.02140 0.72526
 H215 H 0.11843 0.96456 0.78064
 H216 H 0.14855 1.03468 0.78225
 H217 H 0.17279 1.02133 0.81818
 H218 H 0.14205 0.94993 0.81617
 H219 H 0.10169 1.02805 0.70461
 H220 H 0.12499 1.04061 0.66673
 H221 H 0.19206 1.02735 0.70507
 H222 H 0.16749 1.01491 0.74217
 C223 C 0.06952 0.94726 0.72588
 C224 C 0.06826 1.07837 0.78332
 C225 C 0.16025 1.03498 0.68320
 C226 C 0.15926 0.98456 0.81968
 C227 C 0.58004 0.53641 0.28311
 H228 H 0.57925 0.51825 0.29170
 C229 C 0.56685 0.55605 0.29356
 H230 H 0.55572 0.55301 0.31018
 C231 C 0.59641 0.56289 0.25163
 H232 H 0.60848 0.56566 0.23572
 C233 C 0.58353 0.58299 0.26147
 H234 H 0.58551 0.60109 0.25292
 N235 N 0.59449 0.54016 0.26254
 C236 C 0.60832 0.46900 0.23039
 H237 H 0.62810 0.46938 0.22861
 C238 C 0.59621 0.44913 0.22207
 H239 H 0.60667 0.43413 0.21384
 C240 C 0.57052 0.48822 0.24312
 H241 H 0.56062 0.50362 0.25112
 C242 C 0.55763 0.46862 0.23499
 H243 H 0.53781 0.46889 0.23684
 Zn244 Zn 0.61441 0.51355 0.25115
 N245 N 0.59545 0.48789 0.24090
 C246 C 0.63202 0.47858 0.28654
 N247 N 0.63390 0.50204 0.27745
 C248 C 0.64843 0.51806 0.28795
 C249 C 0.66210 0.51052 0.30821
 C250 C 0.64536 0.47032 0.30672
 C251 C 0.62211 0.53061 0.20289
 C252 C 0.63522 0.53783 0.18156
 C253 C 0.67284 0.53032 0.20296
 C254 C 0.65901 0.52322 0.22395
 N255 N 0.63408 0.52374 0.22359
 H256 H 0.61989 0.46630 0.27847
 H257 H 0.64920 0.53674 0.28067
 H258 H 0.67360 0.52336 0.31649
 H259 H 0.64369 0.45164 0.31386
 H260 H 0.60230 0.53047 0.20303
 H261 H 0.62551 0.54342 0.16522
 H262 H 0.69267 0.52999 0.20336
 H263 H 0.66820 0.51718 0.24039
 C264 C 0.57066 0.44889 0.22445
 C265 C 0.56878 0.57958 0.28273
 C266 C 0.66080 0.53773 0.18160
 C267 C 0.66049 0.48643 0.31767
 C268 C 0.89377 0.49294 0.76441
 H269 H 0.89325 0.51057 0.77279
 C270 C 0.90708 0.47314 0.77496
 H271 H 0.91697 0.47551 0.79146
 C272 C 0.88056 0.46790 0.73337
 H273 H 0.86969 0.46571 0.71758
 C274 C 0.89363 0.44765 0.74333
 H275 H 0.89294 0.43002 0.73503
 N276 N 0.88083 0.49000 0.74401
 C277 C 0.86770 0.56298 0.71045
 H278 H 0.84803 0.56275 0.70882
 C279 C 0.88044 0.58349 0.70197
 H280 H 0.87059 0.59916 0.69380
 C281 C 0.90461 0.54283 0.72310
 H282 H 0.91397 0.52688 0.73117
 C283 C 0.91807 0.56301 0.71484
 H284 H 0.93776 0.56261 0.71672
 Zn285 Zn 0.86072 0.51672 0.73254
 N286 N 0.87982 0.54334 0.72110
 C287 C 0.84077 0.54925 0.76771
 N288 N 0.84003 0.52615 0.75941
 C289 C 0.82680 0.50865 0.77178
 C290 C 0.81400 0.51402 0.79369
 C291 C 0.82820 0.55539 0.78945
 C292 C 0.85576 0.50248 0.68497
 C293 C 0.84422 0.49433 0.66467
 C294 C 0.80554 0.49653 0.68768
 C295 C 0.81784 0.50471 0.70763
 N296 N 0.84258 0.50710 0.70602
 H297 H 0.85188 0.56273 0.75809
 H298 H 0.82698 0.49028 0.76508
 H299 H 0.80415 0.49981 0.80384
 H300 H 0.82950 0.57362 0.79627
 H301 H 0.87537 0.50472 0.68417
 H302 H 0.85497 0.49022 0.64816
 H303 H 0.78594 0.49416 0.68918
 H304 H 0.80769 0.50880 0.72443
 C305 C 0.90583 0.58357 0.70434
 C306 C 0.90683 0.45025 0.76442
 C307 C 0.81894 0.49110 0.66609
 C308 C 0.81501 0.53754 0.80274
 C309 C 0.26535 0.39128 -0.00760
 H310 H 0.27379 0.39057 0.01001
 C311 C 0.27601 0.40457 -0.02736
 H312 H 0.29263 0.41425 -0.02497
 C313 C 0.23404 0.37860 -0.03264
 H314 H 0.21808 0.36795 -0.03484
 C315 C 0.24409 0.39166 -0.05286
 H316 H 0.23571 0.39119 -0.07047
 N317 N 0.24476 0.37863 -0.01056
 C318 C 0.21132 0.36599 0.06247
 H319 H 0.20946 0.34635 0.06240
 C320 C 0.20315 0.37892 0.08292
 H321 H 0.19498 0.36924 0.09870
 C322 C 0.22427 0.40266 0.04200
 H323 H 0.23232 0.41187 0.02595
 C324 C 0.21633 0.41631 0.06209
 H325 H 0.21844 0.43596 0.06154
 Zn326 Zn 0.23312 0.35864 0.01618
 N327 N 0.22198 0.37791 0.04270
 C328 C 0.26823 0.33835 0.04871
 N329 N 0.25983 0.33769 0.02563
 C330 C 0.27206 0.32444 0.00813
 C331 C 0.29397 0.31157 0.01345
 C332 C 0.28996 0.32570 0.05480
 C333 C 0.18542 0.35415 0.00194
 C334 C 0.16501 0.34283 -0.00627
 C335 C 0.18769 0.30396 -0.00404
 C336 C 0.20776 0.31605 0.00420
 N337 N 0.20637 0.34078 0.00659
 H338 H 0.25872 0.34948 0.06219
 H339 H 0.26528 0.32469 -0.01022
 H340 H 0.30404 0.30173 -0.00078
 H341 H 0.29689 0.32696 0.07300
 H342 H 0.18481 0.37376 0.00418
 H343 H 0.14859 0.35373 -0.01042
 H344 H 0.18902 0.28436 -0.00643
 H345 H 0.22448 0.30574 0.00831
 C346 C 0.20584 0.40428 0.08279
 C347 C 0.26536 0.40459 -0.05023
 C348 C 0.16621 0.31756 -0.00952
 C349 C 0.30314 0.31252 0.03692
 C350 C 0.78463 0.07857 1.03663
 H351 H 0.79322 0.07771 1.01849
 C352 C 0.79503 0.06533 1.05633
 H353 H 0.81158 0.05411 1.05335
 C354 C 0.75324 0.09512 1.06299
 H355 H 0.73739 0.10727 1.06570
 C356 C 0.76301 0.08220 1.08314
 H357 H 0.75447 0.08424 1.10121
 N358 N 0.76413 0.09313 1.04029
 C359 C 0.73180 0.10703 0.96916
 H360 H 0.73007 0.12681 0.96954
 C361 C 0.72333 0.09499 0.94934
 H362 H 0.71503 0.10550 0.93438
 C363 C 0.74453 0.06916 0.98835
 H364 H 0.75258 0.05921 1.00372
 C365 C 0.73624 0.05633 0.96880
 H366 H 0.73802 0.03651 0.96907
 Zn367 Zn 0.75271 0.11304 1.01362
 N368 N 0.74237 0.09409 0.98801
 C369 C 0.78799 0.13064 0.97858
 N370 N 0.77898 0.13257 1.00203
 C371 C 0.78945 0.14724 1.01792
 C372 C 0.80958 0.16104 1.01024
 C373 C 0.80804 0.14410 0.97019
 C374 C 0.70448 0.12064 1.03061
 C375 C 0.68309 0.13369 1.03774
 C376 C 0.70439 0.17139 1.03015
 C377 C 0.72543 0.15761 1.02315
 N378 N 0.72514 0.13268 1.02375
 H379 H 0.77995 0.11840 0.96640
 H380 H 0.78223 0.14805 1.03660
 H381 H 0.81783 0.17269 1.02296
 H382 H 0.81510 0.14241 0.95150
 H383 H 0.70467 0.10083 1.03054
 H384 H 0.66678 0.12394 1.04331
 H385 H 0.70473 0.19122 1.02974
 H386 H 0.74184 0.16685 1.01710
 C387 C 0.72561 0.06944 0.94911
 C388 C 0.78419 0.06733 1.07982
 C389 C 0.68306 0.15929 1.03754
 C390 C 0.81894 0.15941 0.98614
 C391 C 0.28237 0.57995 0.53704
 H392 H 0.29096 0.57918 0.51889
 C393 C 0.29280 0.56669 0.55669
 H394 H 0.30938 0.55552 0.55368
 C395 C 0.25094 0.59636 0.56346
 H396 H 0.23507 0.60846 0.56620
 C397 C 0.26075 0.58340 0.58357
 H398 H 0.25222 0.58537 0.60165
 N399 N 0.26184 0.59446 0.54075
 C400 C 0.22961 0.60854 0.46960
 H401 H 0.22787 0.62832 0.47000
 C402 C 0.22120 0.59651 0.44974
 H403 H 0.21295 0.60703 0.43476
 C404 C 0.24231 0.57065 0.48878
 H405 H 0.25032 0.56069 0.50417
 C406 C 0.23409 0.55784 0.46919
 H407 H 0.23589 0.53801 0.46943
 Zn408 Zn 0.25046 0.61446 0.51414
 N409 N 0.24014 0.59558 0.48847
 C410 C 0.28587 0.63203 0.47922
 N411 N 0.27679 0.63394 0.50265
 C412 C 0.28733 0.64845 0.51864
 C413 C 0.30765 0.66205 0.51112
 C414 C 0.30611 0.64529 0.47098
 C415 C 0.20221 0.62207 0.53110
 C416 C 0.18085 0.63513 0.53827
 C417 C 0.20222 0.67281 0.53090
 C418 C 0.22324 0.65903 0.52385
 N419 N 0.22291 0.63410 0.52431
 H420 H 0.27776 0.61991 0.46696
 H421 H 0.28006 0.64925 0.53730
 H422 H 0.31598 0.67353 0.52393
 H423 H 0.31325 0.64358 0.45232
 H424 H 0.20237 0.60227 0.53092
 H425 H 0.16451 0.62538 0.54378
 H426 H 0.20260 0.69264 0.53060
 H427 H 0.23968 0.66826 0.51788
 C428 C 0.22351 0.57096 0.44948
 C429 C 0.28197 0.56860 0.58019
 C430 C 0.18086 0.66072 0.53821
 C431 C 0.31711 0.66039 0.48706
 C432 C 0.76632 0.89076 0.49269
 H433 H 0.77462 0.89019 0.51037
 C434 C 0.77712 0.90390 0.47291
 H435 H 0.79372 0.91361 0.47535
 C436 C 0.73520 0.87789 0.46752
 H437 H 0.71926 0.86724 0.46529
 C438 C 0.74540 0.89080 0.44728
 H439 H 0.73714 0.89021 0.42962
 N440 N 0.74575 0.87809 0.48968
 C441 C 0.71160 0.86616 0.56251
 H442 H 0.70966 0.84652 0.56254
 C443 C 0.70329 0.87925 0.58280
 H444 H 0.69492 0.86970 0.59856
 C445 C 0.72491 0.90265 0.54195
 H446 H 0.73317 0.91172 0.52594
 C447 C 0.71683 0.91645 0.56190
 H448 H 0.71903 0.93610 0.56125
 Zn449 Zn 0.73381 0.85837 0.51650
 N450 N 0.72251 0.87791 0.54278
 C451 C 0.76855 0.83826 0.54953
 N452 N 0.76034 0.83739 0.52639
 C453 C 0.77264 0.82386 0.50915
 C454 C 0.79442 0.81091 0.51480
 C455 C 0.79014 0.82554 0.55594
 C456 C 0.68622 0.85399 0.50193
 C457 C 0.66577 0.84268 0.49377
 C458 C 0.68818 0.80369 0.49661
 C459 C 0.70829 0.81577 0.50479
 N460 N 0.70705 0.84055 0.50687
 H461 H 0.75900 0.84960 0.56280
 H462 H 0.76603 0.82395 0.49073
 H463 H 0.80455 0.80085 0.50077
 H464 H 0.79692 0.82697 0.57418
 H465 H 0.68571 0.87363 0.50393
 H466 H 0.64943 0.85364 0.48942
 H467 H 0.68939 0.78405 0.49450
 H468 H 0.72492 0.80541 0.50912
 C469 C 0.70608 0.90460 0.58256
 C470 C 0.76664 0.90377 0.44997
 C471 C 0.66682 0.81736 0.49087
 C472 C 0.80340 0.81206 0.53834
 C473 C -0.00783 0.26604 0.39188
 H474 H 0.00979 0.27447 0.39111
 C475 C -0.02750 0.27662 0.40530
 H476 H -0.02503 0.29319 0.41501
 C477 C -0.03300 0.23481 0.37923
 H478 H -0.03529 0.21892 0.36854
 C479 C -0.05313 0.24480 0.39241
 H480 H -0.07076 0.23643 0.39200
 N481 N -0.01090 0.24552 0.37918
 C482 C 0.06207 0.21215 0.36613
 H483 H 0.06188 0.21043 0.34648
 C484 C 0.08259 0.20385 0.37894
 H485 H 0.09830 0.19572 0.36917
 C486 C 0.04183 0.22486 0.40292
 H487 H 0.02584 0.23287 0.41222
 C488 C 0.06200 0.21679 0.41645
 H489 H 0.06156 0.21874 0.43611
 Zn490 Zn 0.01571 0.23396 0.35905
 N491 N 0.04238 0.22275 0.37816
 C492 C 0.04810 0.26919 0.33868
 N493 N 0.02502 0.26075 0.33810
 C494 C 0.00743 0.27299 0.32491
 C495 C 0.01265 0.29494 0.31203
 C496 C 0.05410 0.29097 0.32602
 C497 C 0.00140 0.18630 0.35462
 C498 C -0.00679 0.16587 0.34332
 C499 C -0.00469 0.18860 0.30444
 C500 C 0.00354 0.20868 0.31650
 N501 N 0.00600 0.20727 0.34123
 H502 H 0.06166 0.25968 0.34976
 H503 H -0.01093 0.26618 0.32522
 H504 H -0.00165 0.30501 0.30224
 H505 H 0.07230 0.29792 0.32722
 H506 H 0.00371 0.18566 0.37421
 H507 H -0.01087 0.14942 0.35424
 H508 H -0.00711 0.18994 0.28484
 H509 H 0.00760 0.22542 0.30618
 C510 C 0.08261 0.20634 0.40431
 C511 C -0.05039 0.26598 0.40540
 C512 C -0.01009 0.16709 0.31806
 C513 C 0.03613 0.30415 0.31290
 C514 C 1.03734 0.78675 0.07821
 H515 H 1.01920 0.79535 0.07728
 C516 C 1.05709 0.79720 0.06514
 H517 H 1.05418 0.81382 0.05396
 C518 C 1.06362 0.75525 0.09482
 H519 H 1.06627 0.73933 0.10693
 C520 C 1.08383 0.76508 0.08206
 H521 H 1.10188 0.75652 0.08419
 N522 N 1.04093 0.76617 0.09272
 C523 C 0.96969 0.73390 0.10623
 H524 H 0.97003 0.73208 0.12601
 C525 C 0.94987 0.72551 0.09409
 H526 H 0.93487 0.71720 0.10453
 C527 C 0.98897 0.74676 0.06847
 H528 H 1.00438 0.75483 0.05861
 C529 C 0.96942 0.73856 0.05555
 H530 H 0.96973 0.74042 0.03573
 Zn531 Zn 1.01418 0.75470 0.11247
 N532 N 0.98859 0.74449 0.09339
 C533 C 0.97915 0.78999 0.12998
 N534 N 1.00258 0.78091 0.13200
 C535 C 1.01846 0.79127 0.14676
 C536 C 1.01079 0.81136 0.16058
 C537 C 0.97077 0.80999 0.14344
 C538 C 1.03108 0.70640 0.12009
 C539 C 1.03808 0.68495 0.13316
 C540 C 1.03036 0.70611 0.17084
 C541 C 1.02349 0.72722 0.15705
 N542 N 1.02420 0.72704 0.13212
 H543 H 0.96699 0.78202 0.11766
 H544 H 1.03712 0.78401 0.14766
 H545 H 1.02350 0.81951 0.17231
 H546 H 0.95210 0.81711 0.14168
 H547 H 1.03109 0.70667 0.10028
 H548 H 1.04366 0.66866 0.12341
 H549 H 1.02985 0.70638 0.19066
 H550 H 1.01743 0.74361 0.16628
 C551 C 0.94969 0.72791 0.06855
 C552 C 1.08057 0.78635 0.06726
 C553 C 1.03775 0.68481 0.15875
 C554 C 0.98671 0.82078 0.15885
 C555 C 0.53653 0.28317 0.57966
 H556 H 0.51838 0.29175 0.57879
 C557 C 0.55622 0.29362 0.56649
 H558 H 0.55324 0.31022 0.55529
 C559 C 0.56291 0.25173 0.59622
 H560 H 0.56562 0.23584 0.60835
 C561 C 0.58306 0.26156 0.58336
 H562 H 0.60113 0.25302 0.58542
 N563 N 0.54020 0.26262 0.59420
 C564 C 0.46903 0.23028 0.60792
 H565 H 0.46935 0.22855 0.62770
 C566 C 0.44926 0.22178 0.59579
 H567 H 0.43427 0.21347 0.60623
 C568 C 0.48836 0.24300 0.57013
 H569 H 0.50377 0.25105 0.56025
 C570 C 0.46886 0.23469 0.55722
 H571 H 0.46921 0.23645 0.53739
 Zn572 Zn 0.51354 0.25116 0.61406
 N573 N 0.48794 0.24085 0.59506
 C574 C 0.47853 0.28646 0.63158
 N575 N 0.50198 0.27741 0.63353
 C576 C 0.51794 0.28789 0.64813
 C577 C 0.51035 0.30810 0.66180
 C578 C 0.47023 0.30659 0.64491
 C579 C 0.53053 0.20291 0.62169
 C580 C 0.53775 0.18153 0.63474
 C581 C 0.53031 0.20277 0.67242
 C582 C 0.52321 0.22382 0.65864
 N583 N 0.52370 0.22356 0.63372
 H584 H 0.46630 0.27840 0.61940
 H585 H 0.53661 0.28065 0.64897
 H586 H 0.52314 0.31638 0.67337
 H587 H 0.45155 0.31370 0.64318
 H588 H 0.53037 0.20314 0.60189
 H589 H 0.54330 0.16523 0.62499
 H590 H 0.53000 0.20309 0.69223
 H591 H 0.51720 0.24022 0.66787
 C592 C 0.44913 0.22404 0.57024
 C593 C 0.57972 0.28279 0.56853
 C594 C 0.53768 0.18147 0.66032
 C595 C 0.48627 0.31753 0.66012
 C596 C 0.49051 0.76610 0.89249
 H597 H 0.50818 0.77445 0.89176
 C598 C 0.47083 0.77684 0.90575
 H599 H 0.47334 0.79345 0.91540
 C600 C 0.46526 0.73493 0.87987
 H601 H 0.46296 0.71900 0.86925
 C602 C 0.44512 0.74508 0.89290
 H603 H 0.42745 0.73679 0.89245
 N604 N 0.48742 0.74553 0.87987
 C605 C 0.56026 0.71175 0.86709
 H606 H 0.55996 0.70979 0.84748
 C607 C 0.58086 0.70365 0.87987
 H608 H 0.59652 0.69540 0.87011
 C609 C 0.54025 0.72500 0.90380
 H610 H 0.52433 0.73318 0.91307
 C611 C 0.56051 0.71712 0.91730
 H612 H 0.56021 0.71940 0.93691
 Zn613 Zn 0.51405 0.73378 0.85988
 N614 N 0.54066 0.72255 0.87909
 C615 C 0.54673 0.76872 0.83951
 N616 N 0.52359 0.76044 0.83887
 C617 C 0.50614 0.77273 0.82552
 C618 C 0.51160 0.79456 0.81252
 C619 C 0.55295 0.79036 0.82673
 C620 C 0.49955 0.68615 0.85548
 C621 C 0.49149 0.66569 0.84414
 C622 C 0.49411 0.68829 0.80521
 C623 C 0.50219 0.70840 0.81732
 N624 N 0.50435 0.70706 0.84209
 H625 H 0.56017 0.75917 0.85070
 H626 H 0.48774 0.76606 0.82578
 H627 H 0.49743 0.80467 0.80260
 H628 H 0.57121 0.79717 0.82797
 H629 H 0.50163 0.68556 0.87511
 H630 H 0.48728 0.64927 0.85505
 H631 H 0.49197 0.68956 0.78557
 H632 H 0.50643 0.72510 0.80699
 C633 C 0.58106 0.70653 0.90516
 C634 C 0.44789 0.76632 0.90580
 C635 C 0.48854 0.66682 0.81882
 C636 C 0.53515 0.80359 0.81344
 C637 C 0.45511 -0.15168 0.32442
 N638 N 0.45916 -0.12892 0.33206
 N639 N 0.45021 -0.10912 0.31989
 C640 C 0.43694 -0.11149 0.29971
 N641 N 0.43292 -0.13425 0.29205
 N642 N 0.44188 -0.15405 0.30421
 C643 C 0.46377 -0.17298 0.33818
 C644 C 0.47065 -0.19079 0.35011
 C645 C 0.42622 -0.09027 0.28736
 C646 C 0.41663 -0.07256 0.27729
 C647 C 0.95614 0.34916 0.82260
 N648 N 0.96099 0.37179 0.83008
 N649 N 0.95232 0.39179 0.81805
 C650 C 0.93855 0.38977 0.79816
 N651 N 0.93375 0.36714 0.79064
 N652 N 0.94242 0.34714 0.80268
 C653 C 0.96454 0.32767 0.83623
 C654 C 0.97124 0.30974 0.84811
 C655 C 0.92815 0.41125 0.78596
 C656 C 0.91880 0.42915 0.77599
 C657 C 0.01912 1.18148 0.83355
 N658 N 0.01705 1.17787 0.80932
 N659 N 0.02574 1.15713 0.79963
 C660 C 0.03672 1.13935 0.81389
 N661 N 0.03875 1.14294 0.83813
 N662 N 0.03007 1.16368 0.84782
 C663 C 0.01036 1.20408 0.84384
 C664 C 0.00318 1.22317 0.85239
 C665 C 0.04707 1.11751 0.80325
 C666 C 0.05636 1.09947 0.79421
 C667 C 0.51917 0.68146 0.33491
 N668 N 0.51553 0.67746 0.31101
 N669 N 0.52435 0.65695 0.30095
 C670 C 0.53703 0.63980 0.31451
 N671 N 0.54064 0.64379 0.33842
 N672 N 0.53182 0.66430 0.34848
 C673 C 0.51028 0.70387 0.34552
 C674 C 0.50298 0.72283 0.35425
 C675 C 0.54748 0.61824 0.30342
 C676 C 0.55683 0.60043 0.29401
 C677 C 0.52359 0.34915 0.17701
 N678 N 0.51727 0.37186 0.16779
 N679 N 0.52484 0.39175 0.17816
 C680 C 0.53893 0.38954 0.19808
 N681 N 0.54517 0.36684 0.20735
 N682 N 0.53761 0.34694 0.19698
 C683 C 0.51698 0.32779 0.16473
 C684 C 0.51199 0.31006 0.15374
 C685 C 0.54884 0.41082 0.20795
 C686 C 0.55820 0.42840 0.21574
 C687 C 0.02252 0.84863 0.67634
 N688 N 0.03632 0.84602 0.69645
 N689 N 0.04380 0.86569 0.70728
 C690 C 0.03769 0.88856 0.69835
 N691 N 0.02382 0.89116 0.67829
 N692 N 0.01634 0.87150 0.66746
 C693 C 0.01604 0.82753 0.66357
 C694 C 0.01117 0.81001 0.65218
 C695 C 0.04759 0.90960 0.70868
 C696 C 0.05698 0.92700 0.71682
 C697 C 0.96387 0.68622 0.66484
 N698 N 0.95144 0.68531 0.68681
 N699 N 0.94072 0.66483 0.69481
 C700 C 0.94209 0.64465 0.68108
 N701 N 0.95455 0.64556 0.65913
 N702 N 0.96527 0.66604 0.65112
 C703 C 0.97471 0.70850 0.65580
 C704 C 0.98353 0.72722 0.64782
 C705 C 0.92982 0.62289 0.68933
 C706 C 0.91911 0.60482 0.69617
 C707 C 0.46265 0.18404 0.16858
 N708 N 0.44603 0.18436 0.18767
 N709 N 0.43503 0.16393 0.19532
 C710 C 0.44028 0.14256 0.18409
 N711 N 0.45693 0.14223 0.16502
 N712 N 0.46794 0.16266 0.15738
 C713 C 0.47371 0.20623 0.15964
 C714 C 0.48265 0.22487 0.15163
 C715 C 0.42779 0.12077 0.19181
 C716 C 0.41694 0.10267 0.19822
 C717 C 0.32386 0.45443 -0.15082
 N718 N 0.33123 0.45918 -0.12813
 N719 N 0.31913 0.45037 -0.10824
 C720 C 0.29929 0.43656 -0.11044
 N721 N 0.29190 0.43184 -0.13313
 N722 N 0.30400 0.44065 -0.15303
 C723 C 0.33754 0.46300 -0.17220
 C724 C 0.34942 0.46986 -0.19005
 C725 C 0.28701 0.42604 -0.08908
 C726 C 0.27699 0.41660 -0.07127
 C727 C 0.82534 0.95354 0.34941
 N728 N 0.83251 0.95850 0.37212
 N729 N 0.82041 0.94966 0.39199
 C730 C 0.80077 0.93558 0.38976
 N731 N 0.79357 0.93065 0.36706
 N732 N 0.80566 0.93950 0.34718
 C733 C 0.83900 0.96219 0.32806
 C734 C 0.85088 0.96914 0.31023
 C735 C 0.78845 0.92508 0.41112
 C736 C 0.77837 0.91569 0.42893
 C737 C 0.83569 0.01751 1.18214
 N738 N 0.81160 0.01465 1.17834
 N739 N 0.80169 0.02348 1.15773
 C740 C 0.81558 0.03538 1.14028
 N741 N 0.83969 0.03820 1.14407
 N742 N 0.84960 0.02938 1.16468
 C743 C 0.84617 0.00865 1.20466
 C744 C 0.85483 0.00140 1.22370
 C745 C 0.80466 0.04589 1.11861
 C746 C 0.79538 0.05530 1.10072
 C747 C 0.33397 0.51868 0.68220
 N748 N 0.30987 0.51572 0.67847
 N749 N 0.29985 0.52459 0.65793
 C750 C 0.31363 0.53663 0.64049
 N751 N 0.33773 0.53955 0.64420
 N752 N 0.34776 0.53069 0.66474
 C753 C 0.34457 0.50975 0.70463
 C754 C 0.35331 0.50242 0.72360
 C755 C 0.30259 0.54715 0.61889
 C756 C 0.29323 0.55657 0.60105
 C757 C 0.17562 0.52451 0.34970
 N758 N 0.19589 0.53812 0.34755
 N759 N 0.20633 0.54554 0.36747
 C760 C 0.19684 0.53955 0.39013
 N761 N 0.17661 0.52587 0.39229
 N762 N 0.16618 0.51845 0.37237
 C763 C 0.16332 0.51802 0.32830
 C764 C 0.15236 0.51311 0.31053
 C765 C 0.20682 0.54933 0.41141
 C766 C 0.21469 0.55859 0.42900
 C767 C 0.67685 0.02330 0.84965
 N768 N 0.66764 0.01711 0.87238
 N769 N 0.67829 0.02442 0.89222
 C770 C 0.69849 0.03812 0.88993
 N771 N 0.70775 0.04424 0.86720
 N772 N 0.69710 0.03693 0.84736
 C773 C 0.66431 0.01696 0.82835
 C774 C 0.65313 0.01216 0.81067
 C775 C 0.70866 0.04783 0.91115
 C776 C 0.71667 0.05706 0.92869
 C777 C 0.66751 0.96409 0.68439
 N778 N 0.65457 0.96678 0.66371
 N779 N 0.66243 0.95581 0.64337
 C780 C 0.68349 0.94181 0.64311
 N781 N 0.69646 0.93915 0.66378
 N782 N 0.68859 0.95012 0.68412
 C783 C 0.65847 0.97504 0.70656
 C784 C 0.65045 0.98383 0.72523
 C785 C 0.69149 0.92922 0.62151
 C786 C 0.69814 0.91822 0.60360
 C787 C 0.16777 0.46372 0.18482
 N788 N 0.15650 0.46867 0.16340
 N789 N 0.16431 0.45762 0.14309
 C790 C 0.18362 0.44125 0.14359
 N791 N 0.19491 0.43632 0.16501
 N792 N 0.18710 0.44738 0.18532
 C793 C 0.15868 0.47482 0.20688
 C794 C 0.15055 0.48380 0.22542
 C795 C 0.19150 0.42869 0.12195
 C796 C 0.19804 0.41777 0.10397
 C797 C -0.15073 0.32427 0.45567
 N798 N -0.15298 0.30406 0.44244
 N799 N -0.13311 0.29199 0.43359
 C800 C -0.11041 0.29976 0.43771
 N801 N -0.10816 0.31995 0.45098
 N802 N -0.12802 0.33201 0.45983
 C803 C -0.17210 0.33793 0.46422
 C804 C -0.18995 0.34981 0.47102
 C805 C -0.08910 0.28753 0.42708
 C806 C -0.07134 0.27755 0.41755
 C807 C 0.34777 0.82543 0.95561
 N808 N 0.34537 0.80577 0.94165
 N809 N 0.36515 0.79353 0.93283
 C810 C 0.38793 0.80059 0.93773
 N811 N 0.39033 0.82023 0.95172
 N812 N 0.37055 0.83247 0.96054
 C813 C 0.32652 0.83928 0.96417
 C814 C 0.30878 0.85133 0.97102
 C815 C 0.40919 0.78818 0.92721
 C816 C 0.42693 0.77806 0.91779
 C817 C 1.18316 0.83800 0.01821
 N818 N 1.17872 0.81427 0.01413
 N819 N 1.15806 0.80437 0.02283
 C820 C 1.14119 0.81791 0.03583
 N821 N 1.14562 0.84164 0.03987
 N822 N 1.16628 0.85155 0.03118
 C823 C 1.20574 0.84842 0.00945
 C824 C 1.22484 0.85700 0.00226
 C825 C 1.11947 0.80694 0.04616
 C826 C 1.10154 0.79760 0.05541
 C827 C 0.68206 0.33462 0.51916
 N828 N 0.67811 0.31062 0.51592
 N829 N 0.65750 0.30065 0.52465
 C830 C 0.64018 0.31440 0.53686
 N831 N 0.64411 0.33840 0.54007
 N832 N 0.66473 0.34837 0.53133
 C833 C 0.70456 0.34515 0.51036
 C834 C 0.72359 0.35385 0.50314
 C835 C 0.61852 0.30340 0.54726
 C836 C 0.60063 0.29405 0.55659
 C837 C 0.34993 0.17531 0.52337
 N838 N 0.37268 0.16581 0.51776
 N839 N 0.39249 0.17641 0.52524
 C840 C 0.39016 0.19686 0.53853
 N841 N 0.36742 0.20641 0.54406
 N842 N 0.34760 0.19580 0.53658
 C843 C 0.32862 0.16286 0.51684
 C844 C 0.31091 0.15181 0.51191
 C845 C 0.41131 0.20703 0.54841
 C846 C 0.42878 0.21506 0.55775
 C847 C 0.85019 0.67946 0.02200
 N848 N 0.87293 0.67047 0.01559
 N849 N 0.89278 0.68108 0.02299
 C850 C 0.89048 0.70103 0.03699
 N851 N 0.86774 0.71007 0.04333
 N852 N 0.84789 0.69946 0.03594
 C853 C 0.82890 0.66692 0.01557
 C854 C 0.81125 0.65573 0.01070
 C855 C 0.91172 0.71112 0.04678
 C856 C 0.92926 0.71906 0.05608
 C857 C 0.68455 0.66945 0.96290
 N858 N 0.68406 0.68992 0.94800
 N859 N 0.66341 0.69752 0.93737
 C860 C 0.64265 0.68487 0.94131
 N861 N 0.64313 0.66442 0.95625
 N862 N 0.66378 0.65682 0.96687
 C863 C 0.70701 0.66065 0.97351
 C864 C 0.72587 0.65276 0.98208
 C865 C 0.62069 0.69255 0.92912
 C866 C 0.60247 0.69892 0.91844
 C867 C 0.18486 0.16730 0.46317
 N868 N 0.18507 0.18749 0.44787
 N869 N 0.16471 0.19547 0.43694
 C870 C 0.14354 0.18351 0.44097
 N871 N 0.14332 0.16335 0.45630
 N872 N 0.16368 0.15536 0.46722
 C873 C 0.20699 0.15809 0.47413
 C874 C 0.22560 0.14990 0.48298
 C875 C 0.12186 0.19162 0.42852
 C876 C 0.10384 0.19834 0.41768
 C877 C 0.57772 0.07868 0.72279
 N878 N 0.56558 0.09689 0.73497
 N879 N 0.55703 0.11688 0.72282
 C880 C 0.56040 0.11929 0.69814
 N881 N 0.57249 0.10106 0.68595
 N882 N 0.58105 0.08107 0.69810
 C883 C 0.58822 0.05788 0.73605
 C884 C 0.59772 0.04097 0.74747
 C885 C 0.55201 0.14119 0.68513
 C886 C 0.54532 0.15960 0.67399
 C887 C 1.07682 0.58179 0.22145
 N888 N 1.06544 0.60041 0.23365
 N889 N 1.05701 0.62043 0.22146
 C890 C 1.05976 0.62245 0.19670
 N891 N 1.07109 0.60381 0.18449
 N892 N 1.07952 0.58379 0.19668
 C893 C 1.08734 0.56101 0.23472
 C894 C 1.09695 0.54413 0.24610
 C895 C 1.05160 0.64440 0.18362
 C896 C 1.04513 0.66287 0.17244
 C897 C 0.93748 0.91629 0.22167
 N898 N 0.94864 0.89713 0.23393
 N899 N 0.95968 0.87890 0.22173
 C900 C 0.95989 0.87928 0.19689
 N901 N 0.94880 0.89848 0.18463
 N902 N 0.93775 0.91670 0.19683
 C903 C 0.92406 0.93495 0.23489
 C904 C 0.91211 0.94999 0.24621
 C905 C 0.97027 0.85890 0.18379
 C906 C 0.97820 0.84157 0.17258
 C907 C 0.43729 0.41398 0.72166
 N908 N 0.44785 0.39468 0.73422
 N909 N 0.45891 0.37627 0.72230
 C910 C 0.45972 0.37660 0.69745
 N911 N 0.44923 0.39594 0.68489
 N912 N 0.43817 0.41435 0.69681
 C913 C 0.42371 0.43278 0.73453
 C914 C 0.41155 0.44790 0.74554
 C915 C 0.47003 0.35600 0.68462
 C916 C 0.47787 0.33851 0.67363
 C917 C 0.43550 0.56684 0.77892
 N918 N 0.42535 0.58951 0.77416
 N919 N 0.43694 0.60945 0.77977
 C920 C 0.45902 0.60733 0.79033
 N921 N 0.46923 0.58466 0.79498
 N922 N 0.45764 0.56473 0.78937
 C923 C 0.42180 0.54544 0.77548
 C924 C 0.40969 0.52764 0.77384
 C925 C 0.47015 0.62859 0.79890
 C926 C 0.47888 0.64620 0.80733
 C927 C -0.06400 0.06726 0.27898
 N928 N -0.07442 0.08991 0.27481
 N929 N -0.06272 0.10985 0.28023
 C930 C -0.04025 0.10773 0.28998
 N931 N -0.02978 0.08508 0.29404
 N932 N -0.04147 0.06515 0.28862
 C933 C -0.07770 0.04581 0.27569
 C934 C -0.08971 0.02794 0.27413
 C935 C -0.02891 0.12896 0.29837
 C936 C -0.01999 0.14653 0.30668
 C937 C 0.07117 0.41796 0.27846
 N938 N 0.08197 0.39826 0.26751
 N939 N 0.07344 0.37593 0.27203
 C940 C 0.05382 0.37261 0.28763
 N941 N 0.04293 0.39233 0.29847
 N942 N 0.05147 0.41466 0.29395
 C943 C 0.08230 0.44134 0.27608
 C944 C 0.09272 0.46042 0.27515
 C945 C 0.04663 0.34833 0.29495
 C946 C 0.04143 0.32804 0.30241
 C947 C 0.57168 0.91677 0.77873
 N948 N 0.55158 0.91381 0.79376
 N949 N 0.54274 0.89160 0.79826
 C950 C 0.55372 0.87168 0.78787
 N951 N 0.57374 0.87467 0.77272
 N952 N 0.58257 0.89687 0.76822
 C953 C 0.58303 0.94004 0.77639
 C954 C 0.59356 0.95906 0.77550
 C955 C 0.54619 0.84754 0.79526
 C956 C 0.54071 0.82736 0.80281
 C957 C 0.72347 0.57836 0.07923
 N958 N 0.69863 0.58006 0.08079
 N959 N 0.68648 0.57129 0.10068
 C960 C 0.69881 0.56063 0.11964
 N961 N 0.72365 0.55888 0.11805
 N962 N 0.73580 0.56765 0.09816
 C963 C 0.73662 0.58922 0.05855
 C964 C 0.74784 0.59911 0.04173
 C965 C 0.68574 0.55214 0.14145
 C966 C 0.67454 0.54540 0.15980
 C967 C 0.22266 1.07514 0.58050
 N968 N 0.23506 1.06441 0.59937
 N969 N 0.22300 1.05570 0.61934
 C970 C 0.19816 1.05753 0.62106
 N971 N 0.18576 1.06822 0.60217
 N972 N 0.19783 1.07692 0.58220
 C973 C 0.23574 1.08596 0.55975
 C974 C 0.24694 1.09582 0.54291
 C975 C 0.18518 1.04913 0.64296
 C976 C 0.17401 1.04249 0.66136
 C977 C 0.22122 0.93651 0.91651
 N978 N 0.19646 0.93567 0.91612
 N979 N 0.18436 0.94643 0.89763
 C980 C 0.19664 0.95834 0.87897
 N981 N 0.22140 0.95925 0.87940
 N982 N 0.23350 0.94848 0.89789
 C983 C 0.23442 0.92338 0.93541
 C984 C 0.24580 0.91166 0.95062
 C985 C 0.18375 0.96848 0.85830
 C986 C 0.17273 0.97623 0.84075
 C987 C 0.72195 0.43764 0.41444
 N988 N 0.69709 0.43877 0.41486
 N989 N 0.68520 0.44980 0.39638
 C990 C 0.69779 0.46002 0.37691
 N991 N 0.72265 0.45895 0.37653
 N992 N 0.73454 0.44792 0.39502
 C993 C 0.73477 0.42409 0.43334
 C994 C 0.74573 0.41194 0.44854
 C995 C 0.68498 0.47028 0.35625
 C996 C 0.67399 0.47808 0.33871
 C997 C 0.77889 0.43670 0.56707
 N998 N 0.78904 0.45898 0.56464
 N999 N 0.79462 0.47085 0.58439
 C1000 C 0.79022 0.46081 0.60717
 N1001 N 0.77994 0.43859 0.60960
 N1002 N 0.77436 0.42672 0.58985
 C1003 C 0.77549 0.42273 0.54587
 C1004 C 0.77388 0.41042 0.52823
 C1005 C 0.79882 0.47224 0.62823
 C1006 C 0.80732 0.48120 0.64568
 C1007 C 0.27781 -0.06484 0.06632
 N1008 N 0.28724 -0.04220 0.06431
 N1009 N 0.29269 -0.03063 0.08428
 C1010 C 0.28889 -0.04133 0.10688
 N1011 N 0.27935 -0.06391 0.10890
 N1012 N 0.27389 -0.07548 0.08892
 C1013 C 0.27453 -0.07840 0.04481
 C1014 C 0.27304 -0.09032 0.02688
 C1015 C 0.29734 -0.03009 0.12813
 C1016 C 0.30568 -0.02125 0.14572
 C1017 C 0.27846 0.07060 0.41684
 N1018 N 0.29385 0.05082 0.41360
 N1019 N 0.29818 0.04217 0.39133
 C1020 C 0.28725 0.05303 0.37161
 N1021 N 0.27175 0.07272 0.37486
 N1022 N 0.26741 0.08137 0.39713
 C1023 C 0.27624 0.08180 0.44015
 C1024 C 0.27541 0.09225 0.45919
 C1025 C 0.29439 0.04572 0.34736
 C1026 C 0.30172 0.04043 0.32708
 C1027 C 0.78022 0.57364 0.91592
 N1028 N 0.79585 0.55400 0.91293
 N1029 N 0.80047 0.54524 0.89075
 C1030 C 0.78961 0.55585 0.87087
 N1031 N 0.77387 0.57540 0.87388
 N1032 N 0.76924 0.58415 0.89606
 C1033 C 0.77768 0.58499 0.93914
 C1034 C 0.77660 0.59556 0.95811
 C1035 C 0.79701 0.54842 0.84672
 C1036 C 0.80450 0.54303 0.82654
 C1037 C 0.07808 0.72330 0.57768
 N1038 N 0.08060 0.69866 0.58154
 N1039 N 0.10059 0.68648 0.57312
 C1040 C 0.11870 0.69857 0.56064
 N1041 N 0.11615 0.72320 0.55674
 N1042 N 0.09616 0.73538 0.56516
 C1043 C 0.05729 0.73663 0.58803
 C1044 C 0.04039 0.74812 0.59741
 C1045 C 0.14059 0.68554 0.55237
 C1046 C 0.15900 0.67439 0.54576
 C1047 C 0.58036 0.22168 1.07744
 N1048 N 0.59908 0.23402 1.06634
 N1049 N 0.61904 0.22192 1.05773
 C1050 C 0.62090 0.19711 1.06002
 N1051 N 0.60215 0.18476 1.07108
 N1052 N 0.58220 0.19687 1.07969
 C1053 C 0.55964 0.23483 1.08816
 C1054 C 0.54281 0.24609 1.09792
 C1055 C 0.64279 0.18410 1.05169
 C1056 C 0.66119 0.17296 1.04507
 C1057 C 0.91479 0.22162 0.93636
 N1058 N 0.89504 0.23411 0.94611
 N1059 N 0.87674 0.22211 0.95735
 C1060 C 0.87763 0.19725 0.95916
 N1061 N 0.89741 0.18478 0.94947
 N1062 N 0.91571 0.19678 0.93824
 C1063 C 0.93354 0.23449 0.92264
 C1064 C 0.94867 0.24545 0.91038
 C1065 C 0.85717 0.18427 0.96964
 C1066 C 0.83979 0.17311 0.97762
 C1067 C 0.41427 0.72125 0.43820
 N1068 N 0.41438 0.69640 0.43913
 N1069 N 0.39584 0.68462 0.45019
 C1070 C 0.37661 0.69733 0.46064
 N1071 N 0.37653 0.72218 0.45978
 N1072 N 0.39508 0.73396 0.44872
 C1073 C 0.43319 0.73397 0.42459
 C1074 C 0.44840 0.74489 0.41239
 C1075 C 0.35586 0.68466 0.47092
 C1076 C 0.33824 0.67378 0.47873
 C1077 C 0.56716 0.77801 0.43680
 N1078 N 0.58989 0.77330 0.42680
 N1079 N 0.60974 0.77878 0.43859
 C1080 C 0.60748 0.78915 0.46074
 N1081 N 0.58475 0.79374 0.47079
 N1082 N 0.56489 0.78826 0.45900
 C1083 C 0.54586 0.77466 0.42291
 C1084 C 0.52814 0.77306 0.41067
 C1085 C 0.62867 0.79760 0.47211
 C1086 C 0.64623 0.80594 0.48101
 C1087 C 0.06708 0.27832 -0.06455
 N1088 N 0.08990 0.27356 -0.07431
 N1089 N 0.10963 0.27902 -0.06231
 C1090 C 0.10715 0.28940 -0.04018
 N1091 N 0.08434 0.29404 -0.03036
 N1092 N 0.06460 0.28859 -0.04236
 C1093 C 0.04593 0.27501 -0.07866
 C1094 C 0.02833 0.27344 -0.09107
 C1095 C 0.12823 0.29783 -0.02861
 C1096 C 0.14571 0.30616 -0.01954
 C1097 C 0.41678 0.27827 0.07237
 N1098 N 0.41356 0.29377 0.05264
 N1099 N 0.39127 0.29824 0.04402
 C1100 C 0.37152 0.28735 0.05487
 N1101 N 0.37476 0.27174 0.07451
 N1102 N 0.39705 0.26727 0.08313
 C1103 C 0.44012 0.27592 0.08357
 C1104 C 0.45918 0.27497 0.09403
 C1105 C 0.34727 0.29463 0.04759
 C1106 C 0.32700 0.30205 0.04231
 C1107 C 0.91700 0.77789 0.57407
 N1108 N 0.89712 0.76856 0.58623
 N1109 N 0.87475 0.77293 0.57778
 C1110 C 0.87156 0.78676 0.55688
 N1111 N 0.89146 0.79598 0.54464
 N1112 N 0.91383 0.79161 0.55310
 C1113 C 0.94059 0.77575 0.58479
 C1114 C 0.95996 0.77509 0.59467
 C1115 C 0.84735 0.79406 0.54950
 C1116 C 0.82715 0.80153 0.54403
   
