data_POSCAR
  _audit_creation_date              2014-09-24
  _audit_creation_method            'ToBaCCo'
  _symmetry_space_group_name_H-M    'P1'
  _symmetry_Int_Tables_number       1
  _symmetry_cell_setting            triclinic
  loop_
  _symmetry_equiv_pos_as_xyz
 x,y,z
_cell_length_a 30.7146
_cell_length_b 30.8542
_cell_length_c 70.9839
_cell_angle_alpha 82.606600
_cell_angle_beta 93.709800
_cell_angle_gamma 120.184700
loop_
  _atom_site_label
  _atom_site_type_symbol
  _atom_site_fract_x
  _atom_site_fract_y
  _atom_site_fract_z
C1 C -0.00179 0.10342 0.52254
 H2 H 0.03315 0.10335 0.52146
 C3 C -0.00425 0.13574 0.53385
 H4 H 0.02914 0.16026 0.54150
 C5 C -0.08722 0.07164 0.51347
 H6 H -0.11914 0.04693 0.50529
 C7 C -0.09139 0.10357 0.52469
 H8 H -0.12690 0.10290 0.52513
 N9 N -0.04285 0.07211 0.51271
 C10 C -0.01344 -0.04796 0.50412
 H11 H -0.01163 -0.04432 0.48879
 C12 C -0.01213 -0.08849 0.51494
 H13 H -0.00861 -0.11551 0.50777
 C14 C -0.02312 -0.01858 0.53193
 H15 H -0.02917 0.00763 0.53850
 C16 C -0.02184 -0.05835 0.54327
 H17 H -0.02606 -0.06150 0.55849
 Zn18 Zn -0.03149 0.03330 0.49728
 N19 N -0.01939 -0.01434 0.51271
 C20 C 0.06745 0.07737 0.48147
 N21 N 0.02451 0.07976 0.48188
 C22 C 0.02038 0.11812 0.47185
 C23 C 0.06016 0.15591 0.46064
 C24 C 0.10838 0.11456 0.47039
 C25 C -0.12992 -0.04299 0.49045
 C26 C -0.16832 -0.07797 0.47969
 C27 C -0.11977 -0.03074 0.45135
 C28 C -0.08234 0.00298 0.46268
 N29 N -0.08755 -0.00417 0.48187
 H30 H 0.07023 0.04703 0.48984
 H31 H -0.01400 0.11939 0.47268
 H32 H 0.05580 0.18601 0.45281
 H33 H 0.14232 0.11215 0.47025
 H34 H -0.13271 -0.04828 0.50578
 H35 H -0.20076 -0.10941 0.48707
 H36 H -0.11343 -0.02447 0.43616
 H37 H -0.04803 0.03338 0.45611
 C38 C -0.01730 -0.09459 0.53478
 C39 C -0.04941 0.13630 0.53504
 C40 C -0.16301 -0.07324 0.45979
 C41 C 0.10502 0.15459 0.45981
 C42 C 1.14984 0.06880 0.14136
 H43 H 1.15093 0.10432 0.14159
 C44 C 1.18442 0.06642 0.13038
 H45 H 1.21186 0.10046 0.12213
 C46 C 1.11275 -0.01833 0.15219
 H47 H 1.08508 -0.05102 0.16091
 C48 C 1.14676 -0.02245 0.14137
 H49 H 1.14462 -0.05866 0.14177
 N50 N 1.11478 0.02682 0.15187
 C51 C 0.99287 0.05652 0.15887
 H52 H 0.99226 0.05541 0.17415
 C53 C 0.95455 0.05884 0.14784
 H54 H 0.92500 0.06025 0.15479
 C55 C 1.03043 0.05256 0.13150
 H56 H 1.05886 0.04814 0.12522
 C57 C 0.99304 0.05502 0.11995
 H58 H 0.99393 0.05332 0.10485
 Zn59 Zn 1.07218 0.03671 0.16663
 N60 N 1.02930 0.05260 0.15062
 C61 C 1.11289 0.13239 0.18108
 N62 N 1.11487 0.08926 0.18138
 C63 C 1.14993 0.08233 0.19186
 C64 C 1.18454 0.11928 0.20284
 C65 C 1.14693 0.17051 0.19190
 C66 C 0.99281 -0.06245 0.17442
 C67 C 0.95451 -0.10308 0.18546
 C68 C 0.99312 -0.06070 0.21334
 C69 C 1.03050 -0.02085 0.20178
 N70 N 1.02930 -0.02205 0.18266
 H71 H 1.08520 0.13741 0.17238
 H72 H 1.15098 0.04788 0.19162
 H73 H 1.21198 0.11268 0.21108
 H74 H 1.14482 0.20460 0.19152
 H75 H 0.99216 -0.06197 0.15914
 H76 H 0.92491 -0.13408 0.17854
 H77 H 0.99407 -0.05810 0.22845
 H78 H 1.05897 0.01203 0.20804
 C79 C 0.95366 0.05686 0.12814
 C80 C 1.18326 0.02038 0.13027
 C81 C 0.95368 -0.10197 0.20517
 C82 C 1.18342 0.16417 0.20298
 C83 C 0.02001 0.90137 0.86143
 H84 H -0.01434 0.86567 0.86059
 C85 C 0.05976 0.90343 0.87266
 H86 H 0.05542 0.86897 0.88049
 C87 C 0.06702 0.98926 0.85184
 H88 H 0.06979 1.02238 0.84346
 C89 C 0.10792 0.99307 0.86293
 H90 H 0.14183 1.02947 0.86310
 N91 N 0.02411 0.94386 0.85140
 C92 C -0.13034 0.91194 0.84277
 H93 H -0.13308 0.91452 0.82743
 C94 C -0.16879 0.90839 0.85353
 H95 H -0.20127 0.90744 0.84623
 C96 C -0.08284 0.91351 0.87057
 H97 H -0.04852 0.91750 0.87716
 C98 C -0.12036 0.90966 0.88188
 H99 H -0.11428 0.90976 0.89708
 Zn100 Zn -0.03186 0.93423 0.83598
 N101 N -0.08798 0.91550 0.85137
 C102 C -0.08748 0.84015 0.81977
 N103 N -0.04312 0.88409 0.82055
 C104 C -0.00203 0.89390 0.81074
 C105 C -0.00445 0.85914 0.79942
 C106 C -0.09162 0.80405 0.80855
 C107 C -0.01390 1.03353 0.82915
 C108 C -0.01258 1.07537 0.81833
 C109 C -0.02214 1.03557 0.79000
 C110 C -0.02342 0.99452 0.80134
 N111 N -0.01977 0.99398 0.82055
 H112 H -0.11943 0.83289 0.82794
 H113 H 0.03290 0.92895 0.81183
 H114 H 0.02895 0.86805 0.79178
 H115 H -0.12713 0.76919 0.80809
 H116 H -0.01216 1.03167 0.84448
 H117 H -0.00913 1.10588 0.82550
 H118 H -0.02630 1.03452 0.77478
 H119 H -0.02942 0.96228 0.79477
 C120 C -0.16348 0.90877 0.87339
 C121 C 0.10458 0.94968 0.87352
 C122 C -0.01766 1.07633 0.79848
 C123 C -0.04960 0.81337 0.79821
 O124 O 0.50608 0.03032 0.01468
 O125 O 0.57682 0.01336 -0.02123
 O126 O 0.49394 0.01723 -0.02105
 O127 O 0.59228 0.03291 0.01401
 O128 O 0.55263 -0.04926 0.02267
 O129 O 0.45249 -0.06493 -0.01235
 O130 O 0.53547 -0.06880 -0.01257
 O131 O 0.46653 -0.05185 0.02338
 Cu132 Cu 0.54643 0.03167 -0.00425
 Cu133 Cu 0.49782 -0.06693 0.00614
 C134 C 0.47391 -0.00823 0.02504
 C135 C 0.56796 -0.03089 -0.02296
 C136 C 0.45622 -0.02616 -0.02256
 C137 C 0.58954 -0.00522 0.02425
 O138 O -0.01051 0.45660 0.64842
 O139 O -0.01052 0.53208 0.68483
 O140 O -0.00728 0.44915 0.68530
 O141 O -0.00722 0.54280 0.64796
 O142 O -0.09042 0.50217 0.64793
 O143 O -0.09048 0.40654 0.68530
 O144 O -0.09373 0.48972 0.68489
 O145 O -0.09372 0.41571 0.64835
 Cu146 Cu -0.00059 0.49931 0.66663
 Cu147 Cu -0.10043 0.44936 0.66662
 C148 C -0.05233 0.42312 0.64227
 C149 C -0.05234 0.52372 0.69098
 C150 C -0.04854 0.41174 0.69157
 C151 C -0.04847 0.53893 0.64168
 O152 O 0.55305 0.60278 0.31086
 O153 O 0.45299 0.51810 0.34589
 O154 O 0.53603 0.60500 0.34613
 O155 O 0.46690 0.51925 0.31013
 O156 O 0.50642 0.47659 0.31874
 O157 O 0.57734 0.56414 0.35470
 O158 O 0.49441 0.47735 0.35450
 O159 O 0.59267 0.56023 0.31942
 Cu160 Cu 0.49829 0.56555 0.32741
 Cu161 Cu 0.54685 0.51551 0.33769
 C162 C 0.58993 0.59566 0.30923
 C163 C 0.45672 0.48301 0.35605
 C164 C 0.56854 0.59953 0.35648
 C165 C 0.47425 0.48302 0.30842
 N166 N -0.01210 0.23441 0.56723
 C167 C -0.05519 0.23561 0.56869
 N168 N -0.09672 0.20419 0.55914
 N169 N -0.09508 0.17257 0.54842
 C170 C -0.05187 0.17123 0.54690
 N171 N -0.01048 0.20286 0.55653
 C172 C -0.05659 0.26927 0.58052
 C173 C -0.05643 0.29764 0.59075
 C174 C -0.05532 0.33111 0.60330
 N175 N -0.09880 0.32541 0.60962
 N176 N -0.09773 0.35525 0.62186
 C177 C -0.05316 0.39177 0.62820
 N178 N -0.00966 0.39751 0.62179
 N179 N -0.01074 0.36765 0.60955
 N180 N 0.86936 0.82708 0.24632
 C181 C 0.82891 0.78994 0.23820
 N182 N 0.82985 0.78718 0.21933
 N183 N 0.86990 0.82088 0.20889
 C184 C 0.91048 0.85848 0.21693
 N185 N 0.90935 0.86075 0.23588
 C186 C 0.78540 0.75469 0.24945
 C187 C 0.74941 0.72568 0.25928
 C188 C 0.70749 0.69150 0.27144
 N189 N 0.70767 0.65192 0.28214
 N190 N 0.66984 0.62117 0.29401
 C191 C 0.63054 0.62895 0.29563
 N192 N 0.63033 0.66856 0.28485
 N193 N 0.66824 0.69936 0.27296
 N194 N 0.18177 -0.08844 -0.09417
 C195 C 0.22527 -0.04412 -0.09327
 N196 N 0.22938 -0.00165 -0.10322
 N197 N 0.19111 -0.00350 -0.11379
 C198 C 0.14734 -0.04788 -0.11476
 N199 N 0.14356 -0.09027 -0.10473
 C200 C 0.26609 -0.04214 -0.08165
 C201 C 0.30017 -0.04039 -0.07172
 C202 C 0.34074 -0.03750 -0.05971
 N203 N 0.38313 0.00756 -0.05836
 N204 N 0.42018 0.01083 -0.04671
 C205 C 0.41615 -0.03082 -0.03602
 N206 N 0.37371 -0.07601 -0.03745
 N207 N 0.33660 -0.07927 -0.04911
 N208 N -0.03168 0.81327 0.57617
 C209 C -0.03048 0.77659 0.56798
 N210 N -0.02395 0.78244 0.54892
 N211 N -0.01915 0.82362 0.53837
 C212 C -0.02053 0.86049 0.54651
 N213 N -0.02688 0.85439 0.56563
 C214 C -0.03560 0.73245 0.57946
 C215 C -0.03931 0.69619 0.58955
 C216 C -0.04233 0.65435 0.60206
 N217 N 0.00041 0.65468 0.60834
 N218 N -0.00184 0.61735 0.62073
 C219 C -0.04690 0.57839 0.62729
 N220 N -0.08977 0.57796 0.62091
 N221 N -0.08750 0.61539 0.60850
 N222 N 0.25249 0.28256 0.22564
 C223 C 0.28743 0.27557 0.23610
 N224 N 0.28838 0.23229 0.23568
 N225 N 0.25541 0.19709 0.22512
 C226 C 0.22021 0.20377 0.21459
 N227 N 0.21949 0.24732 0.21506
 C228 C 0.32225 0.31288 0.24785
 C229 C 0.35103 0.34383 0.25796
 C230 C 0.38430 0.38045 0.27024
 N231 N 0.41905 0.37361 0.28095
 N232 N 0.44846 0.40671 0.29293
 C233 C 0.44402 0.44769 0.29458
 N234 N 0.40933 0.45447 0.28377
 N235 N 0.37999 0.42143 0.27181
 N236 N 0.77704 -0.08046 -0.08631
 C237 C 0.73767 -0.07731 -0.09464
 N238 N 0.73010 -0.08050 -0.11356
 N239 N 0.76139 -0.08610 -0.12385
 C240 C 0.80142 -0.08871 -0.11563
 N241 N 0.80828 -0.08604 -0.09659
 C242 C 0.70545 -0.06925 -0.08354
 C243 C 0.67947 -0.06219 -0.07374
 C244 C 0.64942 -0.05408 -0.06151
 N245 N 0.61276 -0.09361 -0.05069
 N246 N 0.58645 -0.08608 -0.03860
 C247 C 0.59594 -0.03876 -0.03688
 N248 N 0.63258 0.00081 -0.04779
 N249 N 0.65893 -0.00674 -0.05990
 N250 N 0.28819 0.05713 0.09758
 C251 C 0.28723 0.01288 0.09720
 N252 N 0.25227 -0.02905 0.10768
 N253 N 0.21928 -0.02676 0.11825
 C254 C 0.22003 0.01754 0.11867
 N255 N 0.25523 0.05940 0.10813
 C256 C 0.32203 0.01034 0.08548
 C257 C 0.35080 0.00811 0.07539
 C258 C 0.38406 0.00469 0.06314
 N259 N 0.37973 -0.04064 0.06164
 N260 N 0.40906 -0.04443 0.04970
 C261 C 0.44373 -0.00302 0.03885
 N262 N 0.44818 0.04245 0.04043
 N263 N 0.41879 0.04622 0.05239
 N264 N 0.73137 0.81121 0.44710
 C265 C 0.73897 0.81549 0.42819
 N266 N 0.77853 0.85789 0.41987
 N267 N 0.80994 0.89465 0.43017
 C268 C 0.80317 0.89058 0.44922
 N269 N 0.76283 0.84805 0.45740
 C270 C 0.70659 0.77526 0.41709
 C271 C 0.68048 0.74223 0.40730
 C272 C 0.65030 0.70408 0.39506
 N273 N 0.65973 0.66624 0.39339
 N274 N 0.63327 0.63236 0.38128
 C275 C 0.59661 0.63534 0.37041
 N276 N 0.58720 0.67318 0.37219
 N277 N 0.61361 0.70699 0.38429
 N278 N -0.03194 0.15413 0.75709
 C279 C -0.03081 0.19197 0.76528
 N280 N -0.02436 0.19262 0.78434
 N281 N -0.01957 0.15624 0.79489
 C282 C -0.02088 0.11803 0.78675
 N283 N -0.02715 0.11781 0.76763
 C284 C -0.03590 0.23100 0.75380
 C285 C -0.03956 0.26357 0.74371
 C286 C -0.04254 0.30241 0.73119
 N287 N 0.00023 0.34485 0.72492
 N288 N -0.00198 0.37994 0.71253
 C289 C -0.04702 0.37383 0.70595
 N290 N -0.08991 0.33136 0.71232
 N291 N -0.08768 0.29619 0.72474
 N292 N 0.86920 0.04335 0.08703
 C293 C 0.82879 0.04003 0.09517
 N294 N 0.82980 0.04378 0.11404
 N295 N 0.86988 0.05018 0.12446
 C296 C 0.91042 0.05316 0.11640
 N297 N 0.90922 0.04973 0.09745
 C298 C 0.78524 0.03170 0.08394
 C299 C 0.74920 0.02464 0.07414
 C300 C 0.70723 0.01682 0.06199
 N301 N 0.66794 -0.03035 0.06053
 N302 N 0.62999 -0.03755 0.04865
 C303 C 0.63020 0.00222 0.03784
 N304 N 0.66954 0.04935 0.03940
 N305 N 0.70741 0.05653 0.05126
 N306 N 0.22991 0.23106 0.43663
 C307 C 0.22578 0.26941 0.42668
 N308 N 0.18223 0.27011 0.42756
 N309 N 0.14400 0.23363 0.43810
 C310 C 0.14781 0.19503 0.44812
 N311 N 0.19162 0.19454 0.44717
 C312 C 0.26662 0.30837 0.41509
 C313 C 0.30071 0.34078 0.40518
 C314 C 0.34127 0.37857 0.39318
 N315 N 0.33715 0.41627 0.38264
 N316 N 0.37425 0.45021 0.37098
 C317 C 0.41666 0.44749 0.36951
 N318 N 0.42069 0.40981 0.38015
 N319 N 0.38365 0.37594 0.39179
 N320 N -0.09684 0.69816 0.77409
 C321 C -0.05527 0.70833 0.76456
 N322 N -0.01219 0.75266 0.76604
 N323 N -0.01061 0.78581 0.77674
 C324 C -0.05203 0.77599 0.78635
 N325 N -0.09523 0.73140 0.78482
 C326 C -0.05664 0.67329 0.75273
 C327 C -0.05646 0.64510 0.74249
 C328 C -0.05535 0.61274 0.72994
 N329 N -0.01077 0.62080 0.72371
 N330 N -0.00968 0.59203 0.71147
 C331 C -0.05318 0.55424 0.70505
 N332 N -0.09775 0.54616 0.71137
 N333 N -0.09883 0.57494 0.72361
   
