data_POSCAR
  _audit_creation_date              2014-09-24
  _audit_creation_method            'ToBaCCo'
  _symmetry_space_group_name_H-M    'P1'
  _symmetry_Int_Tables_number       1
  _symmetry_cell_setting            triclinic
  loop_
  _symmetry_equiv_pos_as_xyz
 x,y,z
_cell_length_a 54.1089
_cell_length_b 54.3109
_cell_length_c 54.1565
_cell_angle_alpha 90.000200
_cell_angle_beta 89.967400
_cell_angle_gamma 89.975700
loop_
  _atom_site_label
  _atom_site_type_symbol
  _atom_site_fract_x
  _atom_site_fract_y
  _atom_site_fract_z
N1 N 0.15194 0.16921 0.22079
 N2 N 0.16921 0.15222 0.22057
 C3 C 0.16552 0.13678 0.23970
 C4 C 0.14473 0.14449 0.25273
 C5 C 0.13670 0.16522 0.24001
 H6 H 0.17713 0.12111 0.24371
 H7 H 0.12096 0.17671 0.24424
 Cu8 Cu 0.19462 0.15198 0.19505
 Cu9 Cu 0.15032 0.19534 0.19619
 Cu10 Cu 0.19570 0.19531 0.15088
 N11 N 0.22019 0.15218 0.16966
 N12 N 0.22040 0.16917 0.15241
 C13 C 0.23964 0.16516 0.13718
 C14 C 0.25239 0.14441 0.14519
 C15 C 0.23934 0.13673 0.16596
 H16 H 0.24388 0.17664 0.12146
 H17 H 0.24334 0.12106 0.17756
 N18 N 0.16914 0.22021 0.15246
 N19 N 0.15189 0.22021 0.16969
 C20 C 0.13658 0.23938 0.16582
 C21 C 0.14450 0.25219 0.14513
 C22 C 0.16523 0.23940 0.13719
 H23 H 0.12083 0.24368 0.17729
 H24 H 0.17669 0.24372 0.12145
 H25 H 0.16762 0.17613 0.16828
 H26 H 0.18756 0.19585 0.18820
 N27 N -0.15235 0.83078 0.22025
 N28 N -0.16958 0.84782 0.22001
 C29 C -0.16590 0.86323 0.23916
 C30 C -0.14519 0.85544 0.25213
 C31 C -0.13715 0.83474 0.23947
 H32 H -0.17746 0.87890 0.24333
 H33 H -0.12141 0.82329 0.24382
 Cu34 Cu -0.19509 0.84783 0.19463
 Cu35 Cu -0.15077 0.80461 0.19570
 Cu36 Cu -0.19613 0.80463 0.15041
 N37 N -0.22052 0.84786 0.16916
 N38 N -0.22077 0.83081 0.15196
 C39 C -0.24002 0.83479 0.13677
 C40 C -0.25276 0.85555 0.14478
 C41 C -0.23969 0.86328 0.16551
 H42 H -0.24428 0.82328 0.12108
 H43 H -0.24373 0.87892 0.17715
 N44 N -0.16960 0.77974 0.15201
 N45 N -0.15237 0.77975 0.16923
 C46 C -0.13707 0.76057 0.16537
 C47 C -0.14498 0.74777 0.14470
 C48 C -0.16570 0.76054 0.13676
 H49 H -0.12132 0.75628 0.17684
 H50 H -0.17715 0.75623 0.12102
 H51 H -0.16811 0.82380 0.16779
 H52 H -0.18804 0.80404 0.18772
 N53 N -0.15189 0.16901 -0.21995
 N54 N -0.16898 0.15183 -0.21958
 C55 C -0.16540 0.13657 -0.23888
 C56 C -0.14491 0.14459 -0.25207
 C57 C -0.13689 0.16528 -0.23940
 H58 H -0.17692 0.12087 -0.24302
 H59 H -0.12132 0.17689 -0.24390
 Cu60 Cu -0.19425 0.15176 -0.19393
 Cu61 Cu -0.15029 0.19520 -0.19538
 Cu62 Cu -0.19569 0.19515 -0.15003
 N63 N -0.21992 0.15175 -0.16866
 N64 N -0.22032 0.16892 -0.15159
 C65 C -0.23976 0.16514 -0.13658
 C66 C -0.25249 0.14437 -0.14457
 C67 C -0.23920 0.13644 -0.16511
 H68 H -0.24418 0.17680 -0.12104
 H69 H -0.24320 0.12077 -0.17672
 N70 N -0.16917 0.22009 -0.15165
 N71 N -0.15192 0.22008 -0.16888
 C72 C -0.13674 0.23936 -0.16512
 C73 C -0.14474 0.25223 -0.14450
 C74 C -0.16538 0.23937 -0.13649
 H75 H -0.12104 0.24370 -0.17664
 H76 H -0.17689 0.24373 -0.12079
 H77 H -0.16757 0.17630 -0.16740
 H78 H -0.18766 0.19572 -0.18745
 N79 N 0.15227 0.83074 -0.22031
 N80 N 0.16956 0.84772 -0.22012
 C81 C 0.16583 0.86317 -0.23923
 C82 C 0.14509 0.85544 -0.25218
 C83 C 0.13703 0.83476 -0.23951
 H84 H 0.17737 0.87887 -0.24336
 H85 H 0.12126 0.82337 -0.24382
 Cu86 Cu 0.19502 0.84774 -0.19467
 Cu87 Cu 0.15065 0.80458 -0.19572
 Cu88 Cu 0.19598 0.80462 -0.15038
 N89 N 0.22048 0.84776 -0.16920
 N90 N 0.22066 0.83078 -0.15193
 C91 C 0.23985 0.83481 -0.13667
 C92 C 0.25261 0.85555 -0.14469
 C93 C 0.23959 0.86323 -0.16548
 H94 H 0.24404 0.82336 -0.12092
 H95 H 0.24361 0.87889 -0.17710
 N96 N 0.16945 0.77971 -0.15199
 N97 N 0.15223 0.77971 -0.16922
 C98 C 0.13693 0.76054 -0.16535
 C99 C 0.14482 0.74775 -0.14465
 C100 C 0.16553 0.76052 -0.13671
 H101 H 0.12119 0.75625 -0.17682
 H102 H 0.17696 0.75622 -0.12096
 H103 H 0.16796 0.82383 -0.16782
 H104 H 0.18787 0.80396 -0.18767
 N105 N 0.16903 1.15206 0.77991
 N106 N 0.15223 1.16952 0.77981
 C107 C 0.13698 1.16598 0.76047
 C108 C 0.14464 1.14513 0.74772
 C109 C 0.16509 1.13686 0.76072
 H110 H 0.12148 1.17770 0.75605
 H111 H 0.17639 1.12098 0.75660
 Cu112 Cu 0.15201 1.19490 0.80525
 Cu113 Cu 0.19505 1.15036 0.80464
 Cu114 Cu 0.19552 1.19599 0.84944
 N115 N 0.15235 1.22044 0.83053
 N116 N 0.16944 1.22066 0.84774
 C117 C 0.16546 1.23982 0.86296
 C118 C 0.14468 1.25246 0.85495
 C119 C 0.13688 1.23954 0.83425
 H120 H 0.17688 1.24408 0.87874
 H121 H 0.12108 1.24362 0.82278
 N122 N 0.22025 1.16938 0.84802
 N123 N 0.21994 1.15192 0.83111
 C124 C 0.23910 1.13660 0.83501
 C125 C 0.25220 1.14475 0.85541
 C126 C 0.23963 1.16561 0.86315
 H127 H 0.24323 1.12074 0.82371
 H128 H 0.24422 1.17728 0.87862
 H129 H 0.17589 1.16823 0.83246
 H130 H 0.19590 1.18763 0.81221
 N131 N 0.83062 0.84733 0.77947
 N132 N 0.84766 0.83009 0.77957
 C133 C 0.86302 0.83373 0.76033
 C134 C 0.85522 0.85443 0.74745
 C135 C 0.83454 0.86251 0.76024
 H136 H 0.87886 0.82233 0.75625
 H137 H 0.82334 0.87848 0.75623
 Cu138 Cu 0.84844 0.80508 0.80543
 Cu139 Cu 0.80587 0.84975 0.80542
 Cu140 Cu 0.80505 0.80431 0.85008
 N141 N 0.84811 0.77976 0.83092
 N142 N 0.83122 0.77978 0.84836
 C143 C 0.83511 0.76057 0.86352
 C144 C 0.85560 0.74766 0.85525
 C145 C 0.86334 0.76045 0.83444
 H146 H 0.82373 0.75638 0.87936
 H147 H 0.87887 0.75606 0.82270
 N148 N 0.78014 0.83074 0.84832
 N149 N 0.78006 0.84779 0.83097
 C150 C 0.76063 0.86284 0.83462
 C151 C 0.74781 0.85497 0.85535
 C152 C 0.76079 0.83452 0.86348
 H153 H 0.75628 0.87848 0.82310
 H154 H 0.75655 0.82319 0.87930
 H155 H 0.82499 0.83163 0.83325
 H156 H 0.80480 0.81243 0.81300
 N157 N 0.16940 0.84705 1.22025
 N158 N 0.15210 0.83011 1.21985
 C159 C 0.13650 0.83398 1.23885
 C160 C 0.14446 0.85449 1.25191
 C161 C 0.16544 0.86225 1.23944
 H162 H 0.12058 0.82267 1.24285
 H163 H 0.17705 0.87780 1.24388
 Cu164 Cu 0.15207 0.80459 1.19461
 Cu165 Cu 0.19568 0.84848 1.19575
 Cu166 Cu 0.19533 0.80375 1.15007
 N167 N 0.15199 0.77955 1.16891
 N168 N 0.16903 0.77937 1.15162
 C169 C 0.16506 0.76019 1.13643
 C170 C 0.14436 0.74752 1.14457
 C171 C 0.13658 0.76043 1.16528
 H172 H 0.17654 0.75583 1.12071
 H173 H 0.12094 0.75621 1.17694
 N174 N 0.22036 0.83001 1.15181
 N175 N 0.22059 0.84690 1.16930
 C176 C 0.23980 0.86216 1.16543
 C177 C 0.25236 0.85455 1.14447
 C178 C 0.23943 0.83407 1.13637
 H179 H 0.24420 0.87772 1.17702
 H180 H 0.24351 0.82292 1.12037
 H181 H 0.17612 0.83142 1.16775
 H182 H 0.19602 0.81123 1.18734
 N183 N 0.83104 1.15246 1.21985
 N184 N 0.84787 1.16988 1.21988
 C185 C 0.86327 1.16626 1.23908
 C186 C 0.85565 1.14543 1.25185
 C187 C 0.83510 1.13722 1.23899
 H188 H 0.87885 1.17792 1.24338
 H189 H 0.82382 1.12135 1.24313
 Cu190 Cu 0.84781 1.19525 1.19448
 Cu191 Cu 0.80494 1.15074 1.19514
 Cu192 Cu 0.80485 1.19595 1.14985
 N193 N 0.84776 1.22061 1.16909
 N194 N 0.83092 1.22059 1.15163
 C195 C 0.83491 1.23973 1.13640
 C196 C 0.85544 1.25257 1.14466
 C197 C 0.86311 1.23980 1.16550
 H198 H 0.82361 1.24388 1.12051
 H199 H 0.87869 1.24409 1.17719
 N200 N 0.78007 1.16942 1.15137
 N201 N 0.78010 1.15224 1.16859
 C202 C 0.76080 1.13708 1.16481
 C203 C 0.74790 1.14504 1.14419
 C204 C 0.76074 1.16562 1.13619
 H205 H 0.75644 1.12145 1.17633
 H206 H 0.75634 1.17712 1.12053
 H207 H 0.82426 1.16833 1.16732
 H208 H 0.80399 1.18796 1.18706
 N209 N 0.47395 0.95640 0.97348
 N210 N 0.45509 0.94129 0.97042
 N211 N 0.52601 0.97350 0.95641
 N212 N 0.54490 0.97046 0.94128
 N213 N 0.52597 0.95642 0.97354
 N214 N 0.54482 0.94129 0.97057
 N215 N 0.47398 0.97349 0.95634
 N216 N 0.45513 0.97047 0.94116
 C217 C 0.44349 0.95028 0.95016
 C218 C 0.55646 0.95027 0.95035
 N219 N 0.52603 1.04363 0.97354
 N220 N 0.54488 1.05877 0.97051
 N221 N 0.47406 1.02651 0.95636
 N222 N 0.45522 1.02951 0.94121
 N223 N 0.47402 1.04359 0.97351
 N224 N 0.45515 1.05868 0.97050
 N225 N 0.52608 1.02653 0.95641
 N226 N 0.54496 1.02957 0.94126
 Mn227 Mn 0.50003 1.00001 0.95607
 C228 C 0.55654 1.04978 0.95027
 C229 C 0.44360 1.04968 0.95025
 N230 N 0.52601 0.95643 1.02669
 N231 N 0.54489 0.94132 1.02974
 N232 N 0.47397 0.97349 1.04379
 N233 N 0.45508 0.97045 1.05890
 N234 N 0.47402 0.95642 1.02663
 N235 N 0.45519 0.94129 1.02960
 N236 N 0.52599 0.97353 1.04383
 N237 N 0.54484 0.97051 1.05899
 Mn238 Mn 0.49999 0.95611 1.00009
 C239 C 0.55648 0.95032 1.04999
 C240 C 0.44354 0.95026 1.04982
 N241 N 0.47380 1.04361 1.02668
 N242 N 0.45492 1.05872 1.02974
 N243 N 0.52586 1.02656 1.04384
 N244 N 0.54473 1.02959 1.05896
 N245 N 0.52583 1.04364 1.02670
 N246 N 0.54467 1.05876 1.02967
 N247 N 0.47382 1.02651 1.04382
 N248 N 0.45495 1.02953 1.05899
 Mn249 Mn 0.49992 1.04392 1.00011
 Mn250 Mn 0.49991 1.00002 1.04413
 Cl251 Cl 0.49996 1.00002 1.00010
 C252 C 0.44330 1.04972 1.05000
 C253 C 0.55630 1.04978 1.04989
 N254 N 0.02641 0.47407 0.04386
 N255 N 0.02937 0.45525 0.05899
 N256 N 0.04360 0.52588 0.02675
 N257 N 0.05868 0.54474 0.02974
 N258 N 0.02642 0.52588 0.04387
 N259 N 0.02934 0.54472 0.05897
 N260 N 0.04358 0.47405 0.02673
 N261 N 0.05870 0.45520 0.02975
 C262 C 0.04962 0.44363 0.04998
 C263 C 0.04957 0.55631 0.04994
 N264 N 0.02650 0.52598 -0.04355
 N265 N 0.02945 0.54486 -0.05861
 N266 N 0.04363 0.47410 -0.02646
 N267 N 0.05873 0.45524 -0.02946
 N268 N 0.02648 0.47414 -0.04359
 N269 N 0.02944 0.45532 -0.05871
 N270 N 0.04365 0.52596 -0.02641
 N271 N 0.05874 0.54483 -0.02936
 Mn272 Mn 0.04393 0.50000 0.00015
 C273 C 0.04967 0.55646 -0.04955
 C274 C 0.04965 0.44368 -0.04969
 N275 N -0.02676 0.52597 0.04385
 N276 N -0.02974 0.54480 0.05896
 N277 N -0.04392 0.47419 0.02669
 N278 N -0.05903 0.45535 0.02966
 N279 N -0.02677 0.47418 0.04382
 N280 N -0.02974 0.45535 0.05892
 N281 N -0.04391 0.52599 0.02671
 N282 N -0.05902 0.54484 0.02970
 Mn283 Mn -0.00018 0.50003 0.04415
 C284 C -0.04997 0.55641 0.04992
 C285 C -0.04996 0.44377 0.04987
 N286 N -0.02673 0.47416 -0.04359
 N287 N -0.02970 0.45533 -0.05871
 N288 N -0.04388 0.52599 -0.02643
 N289 N -0.05898 0.54485 -0.02940
 N290 N -0.02670 0.52598 -0.04355
 N291 N -0.02964 0.54483 -0.05864
 N292 N -0.04390 0.47417 -0.02646
 N293 N -0.05902 0.45534 -0.02946
 Mn294 Mn -0.00011 0.50007 -0.04388
 Mn295 Mn -0.04421 0.50008 0.00013
 Cl296 Cl -0.00014 0.50004 0.00014
 C297 C -0.04995 0.44375 -0.04968
 C298 C -0.04988 0.55643 -0.04960
 N299 N 1.04389 0.02658 0.47366
 N300 N 1.05904 0.02958 0.45479
 N301 N 1.02679 0.04373 0.52563
 N302 N 1.02978 0.05885 0.54447
 N303 N 1.04396 0.02665 0.52564
 N304 N 1.05909 0.02967 0.54451
 N305 N 1.02675 0.04368 0.47367
 N306 N 1.02976 0.05878 0.45482
 C307 C 1.05001 0.04977 0.44320
 C308 C 1.05002 0.04987 0.55609
 N309 N 0.95644 0.02670 0.52577
 N310 N 0.94131 0.02973 0.54465
 N311 N 0.97356 0.04372 0.47378
 N312 N 0.97058 0.05883 0.45494
 N313 N 0.95638 0.02667 0.47379
 N314 N 0.94123 0.02972 0.45494
 N315 N 0.97360 0.04377 0.52573
 N316 N 0.97062 0.05889 0.54457
 Mn317 Mn 1.00018 0.04403 0.49970
 C318 C 0.95037 0.04992 0.55621
 C319 C 0.95032 0.04989 0.44334
 N320 N 1.04394 -0.02638 0.52569
 N321 N 1.05910 -0.02937 0.54453
 N322 N 1.02668 -0.04350 0.47380
 N323 N 1.02961 -0.05864 0.45497
 N324 N 1.04386 -0.02645 0.47371
 N325 N 1.05895 -0.02953 0.45481
 N326 N 1.02677 -0.04344 0.52574
 N327 N 1.02978 -0.05852 0.54461
 Mn328 Mn 1.04423 0.00010 0.49967
 C329 C 1.05006 -0.04953 0.55618
 C330 C 1.04984 -0.04972 0.44328
 N331 N 0.95635 -0.02636 0.47389
 N332 N 0.94119 -0.02935 0.45505
 N333 N 0.97358 -0.04341 0.52582
 N334 N 0.97061 -0.05853 0.54465
 N335 N 0.95641 -0.02633 0.52587
 N336 N 0.94128 -0.02938 0.54476
 N337 N 0.97350 -0.04346 0.47388
 N338 N 0.97047 -0.05856 0.45503
 Mn339 Mn 0.95608 0.00017 0.49983
 Mn340 Mn 1.00013 -0.04375 0.49981
 Cl341 Cl 1.00015 0.00014 0.49975
 C342 C 0.95021 -0.04955 0.44345
 C343 C 0.95037 -0.04958 0.55631
 C344 C 1.11286 0.11231 0.31658
 C345 C 1.13396 0.10192 0.30595
 C346 C 1.14453 0.11248 0.28489
 C347 C 1.13414 0.13374 0.27402
 C348 C 1.11281 0.14398 0.28506
 C349 C 1.10233 0.13335 0.30611
 C350 C 1.10198 0.10142 0.33823
 C351 C 1.09282 0.09234 0.35638
 C352 C 1.08192 0.08153 0.37806
 C353 C 1.09243 0.06047 0.38863
 C354 C 1.08198 0.05004 0.40980
 C355 C 1.06089 0.06061 0.42067
 C356 C 1.05036 0.08169 0.40987
 C357 C 1.06084 0.09208 0.38869
 H358 H 1.14227 0.08560 0.31394
 H359 H 1.16083 0.10380 0.27731
 H360 H 1.10399 0.16022 0.27765
 H361 H 1.08597 0.14156 0.31421
 H362 H 1.10873 0.05213 0.38054
 H363 H 1.09043 0.03377 0.41769
 H364 H 1.03408 0.09017 0.41781
 H365 H 1.05255 0.10837 0.38065
 C366 C 0.88726 -0.11196 0.31694
 C367 C 0.86616 -0.10151 0.30634
 C368 C 0.85558 -0.11207 0.28530
 C369 C 0.86598 -0.13329 0.27453
 C370 C 0.88723 -0.14363 0.28543
 C371 C 0.89776 -0.13303 0.30645
 C372 C 0.89817 -0.10109 0.33857
 C373 C 0.90734 -0.09203 0.35670
 C374 C 0.91826 -0.08124 0.37836
 C375 C 0.90776 -0.06018 0.38896
 C376 C 0.91823 -0.04978 0.41012
 C377 C 0.93932 -0.06037 0.42093
 C378 C 0.94985 -0.08143 0.41010
 C379 C 0.93935 -0.09181 0.38893
 H380 H 0.85788 -0.08518 0.31433
 H381 H 0.83929 -0.10350 0.27758
 H382 H 0.89587 -0.15990 0.27783
 H383 H 0.91410 -0.14128 0.31452
 H384 H 0.89146 -0.05184 0.38090
 H385 H 0.90978 -0.03352 0.41804
 H386 H 0.96614 -0.08992 0.41801
 H387 H 0.94764 -0.10809 0.38086
 C388 C 0.88744 0.11236 0.68281
 C389 C 0.89774 0.13356 0.69320
 C390 C 0.88720 0.14408 0.71428
 C391 C 0.86615 0.13351 0.72535
 C392 C 0.85590 0.11220 0.71464
 C393 C 0.86649 0.10172 0.69354
 C394 C 0.89840 0.10152 0.66117
 C395 C 0.90760 0.09247 0.64304
 C396 C 0.91852 0.08166 0.62137
 C397 C 0.93960 0.09220 0.61075
 C398 C 0.95007 0.08181 0.58956
 C399 C 0.93952 0.06076 0.57875
 C400 C 0.91844 0.05020 0.58962
 C401 C 0.90800 0.06061 0.61080
 H402 H 0.91396 0.14196 0.68502
 H403 H 0.89570 0.16044 0.72179
 H404 H 0.83974 0.10348 0.72247
 H405 H 0.85835 0.08530 0.68562
 H406 H 0.94790 0.10848 0.61880
 H407 H 0.96635 0.09028 0.58161
 H408 H 0.90998 0.03394 0.58172
 H409 H 0.89171 0.05229 0.61889
 C410 C 1.11280 -0.11200 0.68285
 C411 C 1.10227 -0.13304 0.69336
 C412 C 1.11272 -0.14361 0.71444
 C413 C 1.13395 -0.13329 0.72538
 C414 C 1.14439 -0.11210 0.71459
 C415 C 1.13388 -0.10157 0.69350
 C416 C 1.10194 -0.10112 0.66118
 C417 C 1.09281 -0.09204 0.64303
 C418 C 1.08192 -0.08123 0.62135
 C419 C 1.06082 -0.09175 0.61076
 C420 C 1.05036 -0.08137 0.58957
 C421 C 1.06092 -0.06034 0.57872
 C422 C 1.08203 -0.04980 0.58954
 C423 C 1.09246 -0.06021 0.61073
 H424 H 1.08594 -0.14129 0.68525
 H425 H 1.10407 -0.15986 0.72204
 H426 H 1.16067 -0.10355 0.72233
 H427 H 1.14220 -0.08527 0.68549
 H428 H 1.05249 -0.10800 0.61885
 H429 H 1.03406 -0.08983 0.58167
 H430 H 1.09051 -0.03357 0.58161
 H431 H 1.10877 -0.05190 0.61879
 C432 C 0.31637 1.11216 1.11328
 C433 C 0.30571 1.10178 1.13437
 C434 C 0.28462 1.11236 1.14495
 C435 C 0.27373 1.13363 1.13459
 C436 C 0.28479 1.14386 1.11329
 C437 C 0.30586 1.13320 1.10280
 C438 C 0.33809 1.10125 1.10235
 C439 C 0.35628 1.09219 1.09315
 C440 C 0.37802 1.08142 1.08216
 C441 C 0.38870 1.06036 1.09258
 C442 C 0.40991 1.04998 1.08206
 C443 C 0.42072 1.06056 1.06096
 C444 C 0.40982 1.08163 1.05052
 C445 C 0.38861 1.09199 1.06107
 H446 H 0.31370 1.08546 1.14267
 H447 H 0.27703 1.10368 1.16123
 H448 H 0.27735 1.16010 1.10450
 H449 H 0.31395 1.14143 1.08646
 H450 H 0.38067 1.05199 1.10888
 H451 H 0.41786 1.03371 1.09047
 H452 H 0.41770 1.09015 1.03424
 H453 H 0.38050 1.10827 1.05282
 C454 C 0.31662 0.88773 0.88711
 C455 C 0.30609 0.86670 0.89763
 C456 C 0.28500 0.85608 0.88719
 C457 C 0.27394 0.86630 0.86589
 C458 C 0.28485 0.88754 0.85549
 C459 C 0.30596 0.89810 0.86602
 C460 C 0.33833 0.89864 0.89800
 C461 C 0.35651 0.90772 0.90716
 C462 C 0.37824 0.91853 0.91811
 C463 C 0.38884 0.90799 0.93920
 C464 C 0.41003 0.91837 0.94971
 C465 C 0.42092 0.93943 0.93923
 C466 C 0.41009 0.94998 0.91813
 C467 C 0.38890 0.93958 0.90764
 H468 H 0.31419 0.85848 0.91397
 H469 H 0.27755 0.83985 0.89601
 H470 H 0.27727 0.89621 0.83921
 H471 H 0.31396 0.91438 0.85769
 H472 H 0.38075 0.89172 0.94748
 H473 H 0.41793 0.90988 0.96600
 H474 H 0.41802 0.96624 0.90969
 H475 H 0.38085 0.94792 0.89135
 C476 C 0.68330 0.88779 1.11297
 C477 C 0.69378 0.86673 1.10248
 C478 C 0.71485 0.85607 1.11294
 C479 C 0.72591 0.86630 1.13422
 C480 C 0.71505 0.88758 1.14459
 C481 C 0.69397 0.89817 1.13404
 C482 C 0.66161 0.89871 1.10210
 C483 C 0.64344 0.90778 1.09294
 C484 C 0.62171 0.91858 1.08200
 C485 C 0.61113 0.90803 1.06093
 C486 C 0.58993 0.91841 1.05042
 C487 C 0.57904 0.93947 1.06091
 C488 C 0.58986 0.95003 1.08200
 C489 C 0.61106 0.93963 1.09248
 H490 H 0.68568 0.85851 1.08615
 H491 H 0.72227 0.83981 1.10414
 H492 H 0.72265 0.89627 1.16085
 H493 H 0.68600 0.91450 1.14234
 H494 H 0.61922 0.89176 1.05264
 H495 H 0.58203 0.90992 1.03414
 H496 H 0.58192 0.96630 1.09044
 H497 H 0.61910 0.94797 1.10877
 C498 C 0.68333 1.11245 0.88715
 C499 C 0.69412 1.10190 0.86621
 C500 C 0.71524 1.11242 0.85565
 C501 C 0.72604 1.13378 0.86589
 C502 C 0.71480 1.14422 0.88700
 C503 C 0.69370 1.13364 0.89747
 C504 C 0.66164 1.10154 0.89810
 C505 C 0.64349 1.09245 0.90730
 C506 C 0.62177 1.08162 0.91826
 C507 C 0.61118 1.06055 0.90780
 C508 C 0.58999 1.05011 0.91827
 C509 C 0.57910 1.06066 0.93936
 C510 C 0.58993 1.08175 0.94984
 C511 C 0.61112 1.09216 0.93933
 H512 H 0.68623 1.08548 0.85802
 H513 H 0.72295 1.10361 0.83949
 H514 H 0.72212 1.16058 0.89567
 H515 H 0.68548 1.14200 0.91369
 H516 H 0.61926 1.05221 0.89151
 H517 H 0.58210 1.03384 0.90984
 H518 H 0.58199 1.09023 0.96611
 H519 H 0.61917 1.10845 0.94761
 C520 C 0.11201 0.31708 0.11276
 C521 C 0.13311 0.30652 0.10225
 C522 C 0.14368 0.28547 0.11274
 C523 C 0.13328 0.27462 0.13397
 C524 C 0.11203 0.28546 0.14439
 C525 C 0.10151 0.30652 0.13385
 C526 C 0.10113 0.33872 0.10189
 C527 C 0.09205 0.35685 0.09276
 C528 C 0.08125 0.37852 0.08187
 C529 C 0.09188 0.38907 0.06080
 C530 C 0.08152 0.41023 0.05033
 C531 C 0.06041 0.42111 0.06085
 C532 C 0.04977 0.41033 0.08193
 C533 C 0.06016 0.38917 0.09237
 H534 H 0.14141 0.31455 0.08592
 H535 H 0.15997 0.27782 0.10410
 H536 H 0.10340 0.27781 0.16067
 H537 H 0.08516 0.31455 0.14216
 H538 H 0.10819 0.38097 0.05250
 H539 H 0.09006 0.41811 0.03405
 H540 H 0.03347 0.41827 0.09038
 H541 H 0.05176 0.38114 0.10866
 C542 C -0.11246 0.31728 -0.11235
 C543 C -0.10197 0.30672 -0.13345
 C544 C -0.11246 0.28565 -0.14394
 C545 C -0.13365 0.27477 -0.13347
 C546 C -0.14409 0.28567 -0.11228
 C547 C -0.13355 0.30674 -0.10183
 C548 C -0.10157 0.33890 -0.10148
 C549 C -0.09247 0.35701 -0.09236
 C550 C -0.08164 0.37866 -0.08148
 C551 C -0.06055 0.38927 -0.09202
 C552 C -0.05016 0.41043 -0.08161
 C553 C -0.06077 0.42123 -0.06052
 C554 C -0.08186 0.41038 -0.04996
 C555 C -0.09223 0.38922 -0.06040
 H556 H -0.08564 0.31475 -0.14178
 H557 H -0.10383 0.27798 -0.16023
 H558 H -0.16037 0.27802 -0.10362
 H559 H -0.14186 0.31479 -0.08550
 H560 H -0.05219 0.38123 -0.10832
 H561 H -0.03387 0.41835 -0.09009
 H562 H -0.09038 0.41827 -0.03368
 H563 H -0.10853 0.38114 -0.05207
 C564 C 0.11224 0.68295 -0.11222
 C565 C 0.13332 0.69350 -0.10170
 C566 C 0.14391 0.71452 -0.11220
 C567 C 0.13357 0.72535 -0.13346
 C568 C 0.11233 0.71452 -0.14389
 C569 C 0.10178 0.69350 -0.13333
 C570 C 0.10134 0.66133 -0.10134
 C571 C 0.09223 0.64322 -0.09222
 C572 C 0.08139 0.62157 -0.08134
 C573 C 0.09195 0.61100 -0.06027
 C574 C 0.08156 0.58985 -0.04981
 C575 C 0.06048 0.57900 -0.06037
 C576 C 0.04988 0.58982 -0.08145
 C577 C 0.06030 0.61097 -0.09187
 H578 H 0.14158 0.68548 -0.08535
 H579 H 0.16019 0.72217 -0.10356
 H580 H 0.10374 0.72217 -0.16019
 H581 H 0.08546 0.68547 -0.14165
 H582 H 0.10826 0.61907 -0.05195
 H583 H 0.09007 0.58196 -0.03354
 H584 H 0.03359 0.58190 -0.08992
 H585 H 0.05195 0.61901 -0.10816
 C586 C -0.11248 0.68291 0.11242
 C587 C -0.13358 0.69343 0.10189
 C588 C -0.14416 0.71448 0.11235
 C589 C -0.13377 0.72535 0.13356
 C590 C -0.11252 0.71453 0.14399
 C591 C -0.10199 0.69349 0.13348
 C592 C -0.10159 0.66129 0.10158
 C593 C -0.09249 0.64317 0.09249
 C594 C -0.08166 0.62152 0.08166
 C595 C -0.09223 0.61096 0.06059
 C596 C -0.08185 0.58979 0.05016
 C597 C -0.06078 0.57893 0.06075
 C598 C -0.05018 0.58973 0.08183
 C599 C -0.06059 0.61090 0.09222
 H600 H -0.14186 0.68538 0.08557
 H601 H -0.16044 0.72212 0.10371
 H602 H -0.10391 0.72221 0.16026
 H603 H -0.08565 0.68547 0.14180
 H604 H -0.10852 0.61905 0.05225
 H605 H -0.09035 0.58190 0.03388
 H606 H -0.03391 0.58180 0.09032
 H607 H -0.05225 0.61895 0.10851
 C608 C 1.11221 0.11280 0.68275
 C609 C 1.10185 0.13399 0.69316
 C610 C 1.11237 0.14454 0.71424
 C611 C 1.13346 0.13403 0.72524
 C612 C 1.14373 0.11270 0.71452
 C613 C 1.13317 0.10220 0.69346
 C614 C 1.10137 0.10190 0.66110
 C615 C 1.09233 0.09273 0.64295
 C616 C 1.08158 0.08180 0.62127
 C617 C 1.06051 0.09226 0.61056
 C618 C 1.05016 0.08180 0.58937
 C619 C 1.06081 0.06074 0.57863
 C620 C 1.08189 0.05026 0.58957
 C621 C 1.09222 0.06076 0.61076
 H622 H 1.08561 0.14236 0.68500
 H623 H 1.10387 0.16090 0.72181
 H624 H 1.15992 0.10398 0.72229
 H625 H 1.14136 0.08579 0.68554
 H626 H 1.05212 0.10853 0.61856
 H627 H 1.03388 0.09021 0.58138
 H628 H 1.09043 0.03401 0.58172
 H629 H 1.10851 0.05250 0.61892
 C630 C 0.88828 -0.11280 0.68297
 C631 C 0.86724 -0.10225 0.69361
 C632 C 0.85654 -0.11284 0.71457
 C633 C 0.86671 -0.13423 0.72523
 C634 C 0.88797 -0.14463 0.71438
 C635 C 0.89863 -0.13398 0.69340
 C636 C 0.89916 -0.10189 0.66133
 C637 C 0.90818 -0.09270 0.64317
 C638 C 0.91888 -0.08172 0.62147
 C639 C 0.90819 -0.06068 0.61102
 C640 C 0.91849 -0.05012 0.58984
 C641 C 0.93959 -0.06052 0.57885
 C642 C 0.95028 -0.08158 0.58953
 C643 C 0.93996 -0.09212 0.61071
 H644 H 0.85908 -0.08584 0.68569
 H645 H 0.84030 -0.10417 0.72227
 H646 H 0.89644 -0.16099 0.72195
 H647 H 0.91494 -0.14230 0.68531
 H648 H 0.89188 -0.05248 0.61922
 H649 H 0.90991 -0.03386 0.58204
 H650 H 0.96658 -0.08995 0.58149
 H651 H 0.94839 -0.10839 0.61865
 C652 C 1.11182 -0.11305 0.31671
 C653 C 1.10121 -0.13399 0.30606
 C654 C 1.11177 -0.14456 0.28500
 C655 C 1.13314 -0.13431 0.27428
 C656 C 1.14363 -0.11322 0.28522
 C657 C 1.13303 -0.10271 0.30626
 C658 C 1.10097 -0.10214 0.33835
 C659 C 1.09197 -0.09292 0.35649
 C660 C 1.08127 -0.08191 0.37816
 C661 C 1.06020 -0.09229 0.38893
 C662 C 1.04988 -0.08174 0.41010
 C663 C 1.06058 -0.06067 0.42075
 C664 C 1.08167 -0.05028 0.40975
 C665 C 1.09195 -0.06086 0.38857
 H666 H 1.08478 -0.14215 0.31403
 H667 H 1.10310 -0.16073 0.27725
 H668 H 1.16001 -0.10471 0.27765
 H669 H 1.14140 -0.08650 0.31437
 H670 H 1.05177 -0.10857 0.38100
 H671 H 1.03360 -0.09009 0.41816
 H672 H 1.09024 -0.03402 0.41753
 H673 H 1.10826 -0.05268 0.38035
 C674 C 0.88814 0.11316 0.31682
 C675 C 0.89854 0.13430 0.30636
 C676 C 0.88802 0.14483 0.28526
 C677 C 0.86690 0.13433 0.27430
 C678 C 0.85661 0.11306 0.28508
 C679 C 0.86716 0.10259 0.30615
 C680 C 0.89900 0.10224 0.33846
 C681 C 0.90802 0.09302 0.35659
 C682 C 0.91876 0.08201 0.37824
 C683 C 0.93987 0.09238 0.38893
 C684 C 0.95022 0.08185 0.41009
 C685 C 0.93953 0.06081 0.42081
 C686 C 0.91841 0.05042 0.40989
 C687 C 0.90808 0.06099 0.38872
 H688 H 0.91479 0.14266 0.31450
 H689 H 0.89653 0.16116 0.27765
 H690 H 0.84040 0.10437 0.27736
 H691 H 0.85894 0.08623 0.31412
 H692 H 0.94829 0.10863 0.38095
 H693 H 0.96653 0.09020 0.41807
 H694 H 0.90984 0.03418 0.41772
 H695 H 0.89176 0.05279 0.38057
 C696 C 0.11195 0.31718 -0.11261
 C697 C 0.13308 0.30668 -0.10212
 C698 C 0.14370 0.28568 -0.11262
 C699 C 0.13334 0.27480 -0.13385
 C700 C 0.11205 0.28556 -0.14423
 C701 C 0.10147 0.30658 -0.13368
 C702 C 0.10106 0.33881 -0.10173
 C703 C 0.09200 0.35692 -0.09257
 C704 C 0.08123 0.37858 -0.08164
 C705 C 0.09185 0.38908 -0.06055
 C706 C 0.08151 0.41024 -0.05005
 C707 C 0.06043 0.42116 -0.06056
 C708 C 0.04979 0.41041 -0.08165
 C709 C 0.06015 0.38926 -0.09212
 H710 H 0.14137 0.31475 -0.08580
 H711 H 0.16002 0.27809 -0.10399
 H712 H 0.10346 0.27785 -0.16050
 H713 H 0.08510 0.31456 -0.14197
 H714 H 0.10814 0.38095 -0.05226
 H715 H 0.09004 0.41809 -0.03377
 H716 H 0.03351 0.41839 -0.09009
 H717 H 0.05177 0.38127 -0.10842
 C718 C -0.11219 0.31745 0.11252
 C719 C -0.13317 0.30685 0.10189
 C720 C -0.14369 0.28580 0.11232
 C721 C -0.13337 0.27500 0.13361
 C722 C -0.11225 0.28590 0.14416
 C723 C -0.10177 0.30697 0.13368
 C724 C -0.10135 0.33905 0.10167
 C725 C -0.09230 0.35714 0.09253
 C726 C -0.08153 0.37875 0.08164
 C727 C -0.09215 0.38928 0.06058
 C728 C -0.08181 0.41043 0.05013
 C729 C -0.06073 0.42128 0.06068
 C730 C -0.05009 0.41050 0.08175
 C731 C -0.06046 0.38936 0.09217
 H732 H -0.14139 0.31485 0.08551
 H733 H -0.15990 0.27811 0.10359
 H734 H -0.10372 0.27827 0.16050
 H735 H -0.08552 0.31508 0.14206
 H736 H -0.10845 0.38118 0.05228
 H737 H -0.09033 0.41831 0.03385
 H738 H -0.03381 0.41844 0.09021
 H739 H -0.05209 0.38132 0.10846
 C740 C -0.11205 0.68280 -0.11245
 C741 C -0.13306 0.69343 -0.10186
 C742 C -0.14361 0.71445 -0.11237
 C743 C -0.13327 0.72519 -0.13368
 C744 C -0.11213 0.71426 -0.14420
 C745 C -0.10162 0.69323 -0.13364
 C746 C -0.10121 0.66122 -0.10154
 C747 C -0.09217 0.64312 -0.09236
 C748 C -0.08142 0.62150 -0.08145
 C749 C -0.09208 0.61098 -0.06039
 C750 C -0.08175 0.58982 -0.04991
 C751 C -0.06064 0.57895 -0.06044
 C752 C -0.04996 0.58972 -0.08150
 C753 C -0.06032 0.61086 -0.09194
 H754 H -0.14129 0.68549 -0.08545
 H755 H -0.15984 0.72216 -0.10366
 H756 H -0.10358 0.72185 -0.16055
 H757 H -0.08534 0.68512 -0.14199
 H758 H -0.10840 0.61909 -0.05212
 H759 H -0.09031 0.58195 -0.03365
 H760 H -0.03366 0.58177 -0.08994
 H761 H -0.05191 0.61888 -0.10823
 C762 C 0.11185 0.68264 0.11258
 C763 C 0.10142 0.69322 0.13369
 C764 C 0.11197 0.71428 0.14414
 C765 C 0.13315 0.72507 0.13358
 C766 C 0.14350 0.71417 0.11234
 C767 C 0.13290 0.69313 0.10195
 C768 C 0.10094 0.66106 0.10177
 C769 C 0.09186 0.64297 0.09265
 C770 C 0.08109 0.62135 0.08176
 C771 C 0.06001 0.61074 0.09228
 C772 C 0.04965 0.58959 0.08185
 C773 C 0.06031 0.57882 0.06078
 C774 C 0.08139 0.58969 0.05023
 C775 C 0.09172 0.61084 0.06069
 H776 H 0.08511 0.68522 0.14208
 H777 H 0.10342 0.72198 0.16044
 H778 H 0.15976 0.72178 0.10362
 H779 H 0.14114 0.68506 0.08560
 H780 H 0.05162 0.61877 0.10858
 H781 H 0.03336 0.58165 0.09031
 H782 H 0.08993 0.58182 0.03395
 H783 H 0.10803 0.61894 0.05239
 C784 C 0.31720 1.11235 0.88763
 C785 C 0.30686 1.13356 0.89799
 C786 C 0.28578 1.14414 0.88752
 C787 C 0.27471 1.13361 0.86649
 C788 C 0.28537 1.11228 0.85620
 C789 C 0.30645 1.10175 0.86672
 C790 C 0.33880 1.10145 0.89849
 C791 C 0.35691 1.09232 0.90760
 C792 C 0.37854 1.08146 0.91845
 C793 C 0.38911 1.09197 0.93953
 C794 C 0.41028 1.08155 0.94998
 C795 C 0.42109 1.06051 0.93940
 C796 C 0.41028 1.04998 0.91831
 C797 C 0.38911 1.06043 0.90789
 H798 H 0.31508 1.14192 0.91419
 H799 H 0.27828 1.16051 0.89603
 H800 H 0.27756 1.10358 0.84005
 H801 H 0.31435 1.08532 0.85855
 H802 H 0.38104 1.10824 0.94785
 H803 H 0.41820 1.09000 0.96627
 H804 H 0.41820 1.03373 0.90983
 H805 H 0.38104 1.05215 0.89158
 C806 C 0.31703 0.88728 1.11195
 C807 C 0.30657 0.89754 1.13319
 C808 C 0.28555 0.88696 1.14375
 C809 C 0.27467 0.86588 1.13320
 C810 C 0.28538 0.85575 1.11177
 C811 C 0.30641 0.86639 1.10125
 C812 C 0.33866 0.89819 1.10114
 C813 C 0.35679 0.90736 1.09211
 C814 C 0.37845 0.91827 1.08137
 C815 C 0.38891 0.93930 1.09201
 C816 C 0.41009 0.94982 1.08168
 C817 C 0.42102 0.93936 1.06059
 C818 C 0.41032 0.91831 1.04994
 C819 C 0.38915 0.90782 1.06030
 H820 H 0.31468 0.91374 1.14160
 H821 H 0.27797 0.89539 1.16016
 H822 H 0.27766 0.83961 1.10302
 H823 H 0.31439 0.85830 1.08478
 H824 H 0.38074 0.94752 1.10831
 H825 H 0.41793 0.96607 1.09021
 H826 H 0.41833 0.90992 1.03365
 H827 H 0.38116 0.89155 1.05193
 C828 C 0.68277 1.11282 1.11209
 C829 C 0.69326 1.13386 1.10156
 C830 C 0.71438 1.14439 1.11200
 C831 C 0.72533 1.13399 1.13316
 C832 C 0.71449 1.11284 1.14363
 C833 C 0.69338 1.10236 1.13315
 C834 C 0.66114 1.10190 1.10126
 C835 C 0.64303 1.09272 1.09221
 C836 C 0.62139 1.08177 1.08145
 C837 C 0.61071 1.09221 1.06038
 C838 C 0.58954 1.08172 1.05002
 C839 C 0.57882 1.06067 1.06067
 C840 C 0.58974 1.05021 1.08175
 C841 C 0.61092 1.06073 1.09208
 H842 H 0.68515 1.14212 1.08526
 H843 H 0.72202 1.16064 1.10336
 H844 H 0.72221 1.10424 1.15989
 H845 H 0.68536 1.08607 1.14146
 H846 H 0.61871 1.10848 1.05200
 H847 H 0.58155 1.09012 1.03374
 H848 H 0.58190 1.03396 1.09028
 H849 H 0.61908 1.05250 1.10837
 C850 C 0.68297 0.88740 0.88792
 C851 C 0.69349 0.86633 0.89838
 C852 C 0.71452 0.85575 0.88780
 C853 C 0.72537 0.86612 0.86655
 C854 C 0.71455 0.88734 0.85620
 C855 C 0.69352 0.89787 0.86682
 C856 C 0.66136 0.89828 0.89882
 C857 C 0.64323 0.90743 0.90791
 C858 C 0.62158 0.91833 0.91871
 C859 C 0.61090 0.90785 0.93977
 C860 C 0.58972 0.91832 0.95016
 C861 C 0.57899 0.93938 0.93955
 C862 C 0.58990 0.94987 0.91847
 C863 C 0.61108 0.93937 0.90811
 H864 H 0.68544 0.85808 0.91473
 H865 H 0.72216 0.83948 0.89639
 H866 H 0.72222 0.89594 0.83992
 H867 H 0.68549 0.91420 0.85859
 H868 H 0.61891 0.89157 0.94812
 H869 H 0.58173 0.90991 0.96644
 H870 H 0.58204 0.96613 0.90996
 H871 H 0.61923 0.94761 0.89181
   
