data_POSCAR
  _audit_creation_date              2014-09-24
  _audit_creation_method            'ToBaCCo'
  _symmetry_space_group_name_H-M    'P1'
  _symmetry_Int_Tables_number       1
  _symmetry_cell_setting            triclinic
  loop_
  _symmetry_equiv_pos_as_xyz
 x,y,z
_cell_length_a 36.8293
_cell_length_b 35.9859
_cell_length_c 36.9114
_cell_angle_alpha 89.221500
_cell_angle_beta 88.897200
_cell_angle_gamma 90.276700
loop_
  _atom_site_label
  _atom_site_type_symbol
  _atom_site_fract_x
  _atom_site_fract_y
  _atom_site_fract_z
N1 N 0.31433 0.23570 0.21163
 N2 N 0.30127 0.26661 0.19782
 C3 C 0.32289 0.27793 0.16993
 C4 C 0.35117 0.25301 0.16633
 C5 C 0.34456 0.22626 0.19294
 H6 H 0.31826 0.30219 0.15306
 H7 H 0.36003 0.20124 0.19765
 Cu8 Cu 0.25665 0.28826 0.21684
 Cu9 Cu 0.29070 0.20958 0.25217
 Cu10 Cu 0.20985 0.24623 0.28517
 N11 N 0.21117 0.30837 0.23543
 N12 N 0.19297 0.29183 0.26211
 C13 C 0.16318 0.31187 0.27015
 C14 C 0.16296 0.34286 0.24760
 C15 C 0.19347 0.33944 0.22551
 H16 H 0.14339 0.30482 0.29118
 H17 H 0.20201 0.35825 0.20385
 N18 N 0.23152 0.20045 0.30494
 N19 N 0.26280 0.18711 0.29294
 C20 C 0.27134 0.15696 0.31295
 C21 C 0.24392 0.15076 0.33828
 C22 C 0.21918 0.17885 0.33270
 H23 H 0.29575 0.14069 0.30959
 H24 H 0.19455 0.18357 0.34832
 H25 H 0.23875 0.22724 0.24064
 H26 H 0.26441 0.25498 0.27414
 N27 N 0.68462 -0.24457 0.21230
 N28 N 0.70053 -0.27238 0.19582
 C29 C 0.68016 -0.28271 0.16772
 C30 C 0.64933 -0.26056 0.16671
 C31 C 0.65380 -0.23612 0.19516
 H32 H 0.68702 -0.30514 0.14969
 H33 H 0.63711 -0.21245 0.20178
 Cu34 Cu 0.74653 -0.29199 0.21253
 Cu35 Cu 0.70523 -0.22050 0.25426
 Cu36 Cu 0.79146 -0.24832 0.27791
 N37 N 0.79355 -0.30947 0.22878
 N38 N 0.81059 -0.29246 0.25476
 C39 C 0.84220 -0.30971 0.26083
 C40 C 0.84596 -0.33880 0.23672
 C41 C 0.81393 -0.33817 0.21734
 H42 H 0.86023 -0.30241 0.28240
 H43 H 0.80644 -0.35661 0.19583
 N44 N 0.76454 -0.20954 0.30394
 N45 N 0.73126 -0.19954 0.29558
 C46 C 0.72046 -0.17224 0.31794
 C47 C 0.74846 -0.16458 0.34105
 C48 C 0.77587 -0.18881 0.33167
 H49 H 0.69473 -0.15797 0.31671
 H50 H 0.80232 -0.19058 0.34378
 H51 H 0.75707 -0.23028 0.23687
 H52 H 0.73795 -0.26377 0.27151
 N53 N 0.68735 0.24227 0.78403
 N54 N 0.70760 0.26420 0.80359
 C55 C 0.68848 0.27430 0.83333
 C56 C 0.65432 0.25830 0.83197
 C57 C 0.65466 0.23789 0.80052
 H58 H 0.69861 0.29179 0.85452
 H59 H 0.63305 0.22029 0.79100
 Cu60 Cu 0.75720 0.27728 0.78891
 Cu61 Cu 0.70568 0.21880 0.74019
 Cu62 Cu 0.79063 0.24679 0.70913
 N63 N 0.80174 0.29776 0.76702
 N64 N 0.81448 0.28577 0.73588
 C65 C 0.84485 0.30481 0.72673
 C66 C 0.85245 0.32978 0.75400
 C67 C 0.82377 0.32486 0.77881
 H68 H 0.85906 0.30203 0.70103
 H69 H 0.81945 0.33952 0.80389
 N70 N 0.76225 0.20781 0.68562
 N71 N 0.72921 0.19804 0.69654
 C72 C 0.71658 0.17180 0.67422
 C73 C 0.74284 0.16497 0.64782
 C74 C 0.77168 0.18775 0.65646
 H75 H 0.69030 0.15842 0.67698
 H76 H 0.79785 0.18921 0.64272
 H77 H 0.76022 0.22215 0.75116
 H78 H 0.73955 0.26307 0.72750
 N79 N 0.30342 -0.23557 0.80864
 N80 N 0.29415 -0.26976 0.81797
 C81 C 0.31426 -0.28089 0.84617
 C82 C 0.33682 -0.25180 0.85525
 C83 C 0.32936 -0.22351 0.83086
 H84 H 0.31227 -0.30782 0.85945
 H85 H 0.34204 -0.19635 0.82921
 Cu86 Cu 0.25553 -0.29549 0.79327
 Cu87 Cu 0.28098 -0.20941 0.76839
 Cu88 Cu 0.23575 -0.26687 0.70943
 N89 N 0.21198 -0.31274 0.76950
 N90 N 0.20483 -0.30239 0.73616
 C91 C 0.17385 -0.31886 0.72600
 C92 C 0.15992 -0.33994 0.75500
 C93 C 0.18561 -0.33583 0.78188
 H94 H 0.16324 -0.31653 0.69896
 H95 H 0.18485 -0.34792 0.80886
 N96 N 0.25497 -0.21769 0.69501
 N97 N 0.26975 -0.19484 0.71824
 C98 C 0.27733 -0.16234 0.70127
 C99 C 0.26771 -0.16513 0.66532
 C100 C 0.25311 -0.20050 0.66250
 H101 H 0.28865 -0.13828 0.71428
 H102 H 0.24129 -0.21255 0.63873
 H103 H 0.23556 -0.24187 0.75780
 H104 H 0.28112 -0.25876 0.74268
 N105 N 0.69965 -0.23014 0.80384
 N106 N 0.70848 -0.26399 0.81410
 C107 C 0.68468 -0.27615 0.83976
 C108 C 0.65978 -0.24826 0.84598
 C109 C 0.67027 -0.21925 0.82312
 H110 H 0.68544 -0.30312 0.85301
 H111 H 0.65700 -0.19267 0.82008
 Cu112 Cu 0.75101 -0.28819 0.79370
 Cu113 Cu 0.72631 -0.20406 0.76486
 Cu114 Cu 0.77251 -0.26480 0.70803
 N115 N 0.79206 -0.31053 0.76874
 N116 N 0.79892 -0.30338 0.73427
 C117 C 0.82761 -0.32371 0.72332
 C118 C 0.84063 -0.34313 0.75309
 C119 C 0.81685 -0.33452 0.78129
 H120 H 0.83957 -0.32250 0.69632
 H121 H 0.81702 -0.34559 0.80868
 N122 N 0.75792 -0.21426 0.69287
 N123 N 0.74225 -0.19056 0.71520
 C124 C 0.73843 -0.15766 0.69798
 C125 C 0.75272 -0.16070 0.66327
 C126 C 0.76441 -0.19704 0.66073
 H127 H 0.72593 -0.13337 0.70970
 H128 H 0.77761 -0.20963 0.63756
 H129 H 0.72725 -0.25427 0.74161
 H130 H 0.77264 -0.23676 0.75530
 N131 N 0.30511 0.23111 0.79794
 N132 N 0.29337 0.26361 0.80881
 C133 C 0.31172 0.27362 0.83831
 C134 C 0.33551 0.24539 0.84720
 C135 C 0.33093 0.21908 0.82058
 H136 H 0.30871 0.29991 0.85184
 H137 H 0.34574 0.19339 0.81760
 Cu138 Cu 0.25462 0.28910 0.78381
 Cu139 Cu 0.28840 0.20868 0.75333
 Cu140 Cu 0.22227 0.25684 0.70610
 N141 N 0.21587 0.31459 0.75880
 N142 N 0.20361 0.30204 0.72806
 C143 C 0.17635 0.32392 0.71693
 C144 C 0.17148 0.35190 0.74187
 C145 C 0.19666 0.34476 0.76837
 H146 H 0.16066 0.31943 0.69290
 H147 H 0.19991 0.35985 0.79325
 N148 N 0.24431 0.21047 0.68866
 N149 N 0.26823 0.19125 0.70737
 C150 C 0.27714 0.16050 0.68882
 C151 C 0.25832 0.16083 0.65689
 C152 C 0.23771 0.19267 0.65759
 H153 H 0.29640 0.13975 0.69742
 H154 H 0.21919 0.20193 0.63700
 H155 H 0.27348 0.25790 0.72860
 H156 H 0.23716 0.23178 0.75427
 N157 N 0.30753 -0.23835 0.21294
 N158 N 0.28671 -0.25687 0.19087
 C159 C 0.30600 -0.26558 0.16089
 C160 C 0.34085 -0.25222 0.16470
 C161 C 0.34097 -0.23490 0.19786
 H162 H 0.29562 -0.28076 0.13819
 H163 H 0.36343 -0.22016 0.20962
 Cu164 Cu 0.23699 -0.26954 0.20376
 Cu165 Cu 0.28880 -0.21742 0.25793
 Cu166 Cu 0.19950 -0.23919 0.28109
 N167 N 0.19518 -0.29423 0.22616
 N168 N 0.18106 -0.28285 0.25702
 C169 C 0.15277 -0.30490 0.26659
 C170 C 0.14910 -0.33134 0.24018
 C171 C 0.17633 -0.32390 0.21488
 H172 H 0.13586 -0.30160 0.29060
 H173 H 0.18197 -0.33890 0.19022
 N174 N 0.22946 -0.20573 0.30965
 N175 N 0.26391 -0.19853 0.30173
 C176 C 0.27694 -0.17512 0.32656
 C177 C 0.24941 -0.16760 0.35133
 C178 C 0.21961 -0.18710 0.33960
 H179 H 0.30406 -0.16348 0.32619
 H180 H 0.19275 -0.18760 0.35198
 H181 H 0.24994 -0.25831 0.26693
 H182 H 0.23584 -0.21489 0.24294
 N183 N 0.69054 0.23258 0.19702
 N184 N 0.70591 0.26317 0.18403
 C185 C 0.68682 0.27568 0.15561
 C186 C 0.65829 0.25144 0.15054
 C187 C 0.66141 0.22437 0.17710
 H188 H 0.69292 0.30058 0.13988
 H189 H 0.64337 0.20096 0.18197
 Cu190 Cu 0.74924 0.28365 0.20562
 Cu191 Cu 0.70849 0.20657 0.23968
 Cu192 Cu 0.78418 0.24428 0.28019
 N193 N 0.79176 0.30435 0.22856
 N194 N 0.80474 0.28930 0.25826
 C195 C 0.83419 0.30861 0.26829
 C196 C 0.84004 0.33697 0.24336
 C197 C 0.81276 0.33360 0.21848
 H198 H 0.85083 0.30187 0.29126
 H199 H 0.80903 0.35081 0.19461
 N200 N 0.75964 0.19882 0.29832
 N201 N 0.73073 0.18448 0.28306
 C202 C 0.72028 0.15379 0.30191
 C203 C 0.74420 0.14819 0.32989
 C204 C 0.76846 0.17751 0.32704
 H205 H 0.69671 0.13702 0.29614
 H206 H 0.79091 0.18279 0.34474
 H207 H 0.73181 0.25272 0.26253
 H208 H 0.76197 0.22341 0.23355
 O209 O 0.28013 0.03058 0.46350
 O210 O 0.28904 -0.03635 0.53880
 O211 O 0.28326 -0.04107 0.46939
 O212 O 0.28611 0.03603 0.53353
 O213 O 0.22645 0.03297 0.54057
 O214 O 0.22358 -0.04378 0.47575
 O215 O 0.22950 -0.03875 0.54560
 O216 O 0.22056 0.02859 0.47037
 Cu217 Cu 0.29063 -0.00230 0.50073
 Cu218 Cu 0.21899 -0.00541 0.50862
 C219 C 0.24879 0.04064 0.45366
 C220 C 0.26090 -0.04892 0.55525
 C221 C 0.25302 -0.05592 0.46198
 C222 C 0.25680 0.04756 0.54802
 O223 O 0.71562 0.03183 0.53302
 O224 O 0.71873 -0.04275 0.46533
 O225 O 0.71866 -0.04103 0.53631
 O226 O 0.71337 0.02850 0.46240
 O227 O 0.77335 0.03203 0.46009
 O228 O 0.77848 -0.03594 0.53529
 O229 O 0.77857 -0.03957 0.46443
 O230 O 0.77546 0.03625 0.53009
 Cu231 Cu 0.71057 -0.00639 0.49981
 Cu232 Cu 0.78246 -0.00160 0.49746
 C233 C 0.74503 0.04734 0.54234
 C234 C 0.74929 -0.05298 0.45246
 C235 C 0.74939 -0.04997 0.54861
 C236 C 0.74253 0.04155 0.44831
 O237 O 0.46485 0.28280 0.03351
 O238 O 0.53158 0.28598 -0.04208
 O239 O 0.46096 0.28282 -0.03666
 O240 O 0.53503 0.28599 0.02879
 O241 O 0.53694 0.22471 0.03019
 O242 O 0.46408 0.22152 -0.03662
 O243 O 0.53515 0.22468 -0.04039
 O244 O 0.46719 0.22140 0.03429
 Cu245 Cu 0.49799 0.29055 -0.00436
 Cu246 Cu 0.50108 0.21689 -0.00335
 C247 C 0.45505 0.25162 0.04700
 C248 C 0.54473 0.25588 -0.05398
 C249 C 0.44968 0.25157 -0.04747
 C250 C 0.54774 0.25592 0.04162
 O251 O 0.53579 0.71596 0.03907
 O252 O 0.46264 0.71758 -0.02758
 O253 O 0.53378 0.71765 -0.03202
 O254 O 0.46585 0.71547 0.04224
 O255 O 0.46487 0.77690 0.04172
 O256 O 0.53474 0.77890 -0.03093
 O257 O 0.46395 0.77887 -0.02804
 O258 O 0.53501 0.77732 0.04065
 Cu259 Cu 0.49983 0.71049 0.00505
 Cu260 Cu 0.50005 0.78420 0.00569
 C261 C 0.54662 0.74633 0.05235
 C262 C 0.45011 0.74854 -0.03842
 C263 C 0.54549 0.74856 -0.04455
 C264 C 0.45382 0.74586 0.05461
 O265 O 0.03563 0.46385 0.27086
 O266 O -0.03678 0.53386 0.26903
 O267 O -0.03522 0.46080 0.27069
 O268 O 0.03296 0.53596 0.26911
 O269 O 0.03391 0.53541 0.20928
 O270 O -0.03367 0.46011 0.21092
 O271 O -0.03605 0.53260 0.20914
 O272 O 0.03716 0.46328 0.21095
 Cu273 Cu -0.00115 0.49839 0.27599
 Cu274 Cu 0.00036 0.49753 0.20405
 C275 C 0.04898 0.45211 0.24125
 C276 C -0.04794 0.54587 0.23874
 C277 C -0.04569 0.44726 0.24103
 C278 C 0.04428 0.54917 0.23885
 O279 O 0.03555 0.53943 0.72364
 O280 O -0.03226 0.46359 0.72179
 O281 O -0.03422 0.53696 0.72312
 O282 O 0.03867 0.46742 0.71937
 O283 O 0.03966 0.46560 0.77922
 O284 O -0.03587 0.53233 0.78265
 O285 O -0.03150 0.45979 0.78153
 O286 O 0.03407 0.53712 0.78347
 Cu287 Cu 0.00170 0.50189 0.71595
 Cu288 Cu 0.00132 0.49808 0.78768
 C289 C 0.04576 0.55173 0.75396
 C290 C -0.04288 0.44834 0.75143
 C291 C -0.04659 0.54763 0.75358
 C292 C 0.05223 0.45552 0.74862
 C293 C 0.39347 0.25992 0.07291
 C294 C 0.36870 0.26080 0.10180
 C295 C 0.37950 0.25281 0.13726
 C296 C 0.41653 0.24448 0.14365
 C297 C 0.44157 0.24277 0.11396
 C298 C 0.42977 0.25069 0.07841
 C299 C 0.47798 0.23413 0.12102
 N300 N 0.48868 0.22857 0.15559
 N301 N 0.46548 0.23121 0.18353
 C302 C 0.42991 0.23915 0.17880
 H303 H 0.38401 0.26610 0.04599
 H304 H 0.34064 0.26731 0.09626
 H305 H 0.49806 0.23200 0.09945
 H306 H 0.41279 0.24199 0.20264
 C307 C 0.60537 0.72783 0.07778
 C308 C 0.62986 0.72505 0.10594
 C309 C 0.62156 0.73904 0.14061
 C310 C 0.58593 0.75340 0.14708
 C311 C 0.56188 0.75815 0.11770
 C312 C 0.57194 0.74530 0.08282
 C313 C 0.52751 0.77382 0.12468
 N314 N 0.51705 0.78182 0.15905
 N315 N 0.53841 0.77479 0.18694
 C316 C 0.57207 0.76038 0.18223
 H317 H 0.61298 0.71701 0.05146
 H318 H 0.65616 0.71322 0.09970
 H319 H 0.50842 0.77893 0.10340
 H320 H 0.58668 0.75285 0.20623
 C321 C 0.60749 0.24799 -0.07689
 C322 C 0.63403 0.24940 -0.10430
 C323 C 0.62518 0.25936 -0.13989
 C324 C 0.58882 0.26898 -0.14777
 C325 C 0.56187 0.26780 -0.11975
 C326 C 0.57147 0.25719 -0.08414
 C327 C 0.52595 0.27694 -0.12847
 N328 N 0.51790 0.28731 -0.16282
 N329 N 0.54330 0.28920 -0.18896
 C330 C 0.57844 0.28054 -0.18262
 H331 H 0.61515 0.23989 -0.04971
 H332 H 0.66164 0.24191 -0.09781
 H333 H 0.50423 0.27591 -0.10835
 H334 H 0.59786 0.28317 -0.20481
 C335 C 0.41882 0.72240 -0.09103
 C336 C 0.39145 0.72212 -0.11653
 C337 C 0.36387 0.74871 -0.11575
 C338 C 0.36286 0.77511 -0.08763
 C339 C 0.39043 0.77513 -0.06122
 C340 C 0.41932 0.74909 -0.06370
 C341 C 0.38718 0.80042 -0.03251
 N342 N 0.35894 0.82441 -0.03113
 N343 N 0.33344 0.82467 -0.05617
 C344 C 0.33431 0.80077 -0.08422
 H345 H 0.44026 0.70198 -0.09313
 H346 H 0.39232 0.70152 -0.13767
 H347 H 0.40610 0.80099 -0.01062
 H348 H 0.31228 0.80167 -0.10310
 C349 C 0.07086 0.38762 0.24451
 C350 C 0.09847 0.36139 0.24665
 C351 C 0.13508 0.37235 0.24654
 C352 C 0.14391 0.41084 0.24514
 C353 C 0.11574 0.43744 0.24242
 C354 C 0.07910 0.42553 0.24219
 C355 C 0.12518 0.47535 0.24056
 N356 N 0.16050 0.48583 0.24227
 N357 N 0.18689 0.46099 0.24590
 C358 C 0.17984 0.42397 0.24761
 H359 H 0.04284 0.37827 0.24465
 H360 H 0.09117 0.33219 0.24793
 H361 H 0.10484 0.49670 0.23792
 H362 H 0.20238 0.40542 0.25160
 C363 C 0.10039 0.58000 0.77986
 C364 C 0.12800 0.60641 0.78037
 C365 C 0.12841 0.63723 0.75647
 C366 C 0.09738 0.64305 0.73441
 C367 C 0.06979 0.61521 0.73307
 C368 C 0.07224 0.58277 0.75512
 C369 C 0.03944 0.62190 0.71129
 N370 N 0.03644 0.65455 0.69297
 N371 N 0.06128 0.68129 0.69549
 C372 C 0.09116 0.67694 0.71595
 H373 H 0.10190 0.55632 0.79818
 H374 H 0.15024 0.60112 0.79843
 H375 H 0.01736 0.60222 0.70954
 H376 H 0.10849 0.70085 0.71899
 C377 C -0.10804 0.57073 0.22319
 C378 C -0.13349 0.59917 0.22164
 C379 C -0.12549 0.63505 0.23421
 C380 C -0.08928 0.64263 0.24535
 C381 C -0.06411 0.61305 0.24872
 C382 C -0.07390 0.57685 0.23781
 C383 C -0.02912 0.62107 0.26131
 N384 N -0.01924 0.65664 0.26767
 N385 N -0.04183 0.68474 0.26193
 C386 C -0.07615 0.67905 0.25051
 H387 H -0.11545 0.54334 0.21386
 H388 H -0.16025 0.59217 0.21214
 H389 H -0.00923 0.59959 0.26541
 H390 H -0.09199 0.70325 0.24395
 C391 C -0.10010 0.41867 0.77267
 C392 C -0.12500 0.38941 0.77430
 C393 C -0.11907 0.35648 0.75489
 C394 C -0.08510 0.35248 0.73590
 C395 C -0.06066 0.38320 0.73279
 C396 C -0.06851 0.41657 0.75122
 C397 C -0.02800 0.37873 0.71290
 N398 N -0.01940 0.34523 0.69895
 N399 N -0.04095 0.31578 0.70400
 C400 C -0.07304 0.31809 0.72241
 H401 H -0.10604 0.44369 0.78764
 H402 H -0.14990 0.39364 0.78970
 H403 H -0.00879 0.40120 0.70892
 H404 H -0.08768 0.29254 0.72776
 C405 C 0.27255 0.09509 0.41937
 C406 C 0.27143 0.12166 0.39174
 C407 C 0.24312 0.12192 0.36708
 C408 C 0.21581 0.09411 0.36964
 C409 C 0.21737 0.06628 0.39729
 C410 C 0.24567 0.06745 0.42300
 C411 C 0.19128 0.03749 0.39709
 N412 N 0.16493 0.03761 0.37194
 N413 N 0.16306 0.06419 0.34663
 C414 C 0.18766 0.09229 0.34449
 H415 H 0.29458 0.09641 0.43836
 H416 H 0.29268 0.14258 0.38987
 H417 H 0.19185 0.01432 0.41588
 H418 H 0.18522 0.11257 0.32283
 C419 C 0.72617 0.07396 0.60112
 C420 C 0.72539 0.10243 0.62637
 C421 C 0.74155 0.13709 0.61849
 C422 C 0.75733 0.14352 0.58351
 C423 C 0.75962 0.11395 0.55846
 C424 C 0.74391 0.07890 0.56752
 C425 C 0.77661 0.12093 0.52455
 N426 N 0.78910 0.15546 0.51590
 N427 N 0.78555 0.18356 0.53873
 C428 C 0.76987 0.17888 0.57201
 H429 H 0.71381 0.04742 0.60832
 H430 H 0.71286 0.09693 0.65270
 H431 H 0.77975 0.09950 0.50461
 H432 H 0.76650 0.20314 0.58856
 C433 C 0.23678 -0.10383 0.58865
 C434 C 0.23883 -0.13231 0.61431
 C435 C 0.26876 -0.13544 0.63696
 C436 C 0.29762 -0.10923 0.63306
 C437 C 0.29461 -0.07888 0.60821
 C438 C 0.26430 -0.07690 0.58493
 C439 C 0.32193 -0.05131 0.60817
 N440 N 0.35156 -0.05574 0.62899
 N441 N 0.35570 -0.08567 0.65002
 C442 C 0.32991 -0.11260 0.65262
 H443 H 0.21342 -0.10308 0.57125
 H444 H 0.21645 -0.15189 0.61672
 H445 H 0.31998 -0.02591 0.59252
 H446 H 0.33536 -0.13659 0.66945
 C447 C 0.72568 -0.11013 0.42459
 C448 C 0.72522 -0.13687 0.39766
 C449 C 0.74975 -0.13496 0.36830
 C450 C 0.77446 -0.10474 0.36525
 C451 C 0.77466 -0.07709 0.39238
 C452 C 0.75050 -0.08043 0.42286
 C453 C 0.79806 -0.04627 0.38703
 N454 N 0.82018 -0.04411 0.35730
 N455 N 0.82034 -0.07034 0.33225
 C456 C 0.79817 -0.10042 0.33510
 H457 H 0.70667 -0.11290 0.44724
 H458 H 0.70590 -0.15961 0.40005
 H459 H 0.79852 -0.02328 0.40542
 H460 H 0.79892 -0.12026 0.31340
 C461 C 0.60062 0.77573 -0.07377
 C462 C 0.62818 0.77657 -0.10013
 C463 C 0.62873 0.75080 -0.12815
 C464 C 0.59991 0.72482 -0.13078
 C465 C 0.57133 0.72444 -0.10439
 C466 C 0.57249 0.74936 -0.07485
 C467 C 0.54195 0.69991 -0.10936
 N468 N 0.54206 0.67669 -0.13799
 N469 N 0.56925 0.67657 -0.16226
 C470 C 0.59805 0.69990 -0.15975
 H471 H 0.60180 0.79533 -0.05179
 H472 H 0.64985 0.79685 -0.09806
 H473 H 0.51839 0.69945 -0.09152
 H474 H 0.61883 0.69915 -0.18080
 C475 C 0.42473 0.23212 -0.10589
 C476 C 0.39708 0.23022 -0.13104
 C477 C 0.36266 0.24519 -0.12350
 C478 C 0.35580 0.26105 -0.08898
 C479 C 0.38462 0.26488 -0.06427
 C480 C 0.41926 0.25007 -0.07287
 C481 C 0.37737 0.28239 -0.03109
 N482 N 0.34322 0.29358 -0.02256
 N483 N 0.31580 0.28823 -0.04488
 C484 C 0.32082 0.27212 -0.07756
 H485 H 0.45099 0.22037 -0.11269
 H486 H 0.40297 0.21767 -0.15698
 H487 H 0.39839 0.28705 -0.01170
 H488 H 0.29717 0.26718 -0.09363
 C489 C 0.39408 0.76501 0.07847
 C490 C 0.36656 0.76503 0.10480
 C491 C 0.37078 0.74610 0.13779
 C492 C 0.40315 0.72622 0.14423
 C493 C 0.43102 0.72568 0.11717
 C494 C 0.42622 0.74529 0.08401
 C495 C 0.46303 0.70603 0.12464
 N496 N 0.46638 0.68775 0.15676
 N497 N 0.43996 0.68778 0.18189
 C498 C 0.40848 0.70631 0.17673
 H499 H 0.39000 0.78007 0.05328
 H500 H 0.34188 0.78031 0.09957
 H501 H 0.48558 0.70523 0.10552
 H502 H 0.38791 0.70518 0.19802
 C503 C 0.60371 0.23102 0.06829
 C504 C 0.63034 0.22976 0.09453
 C505 C 0.62963 0.25447 0.12339
 C506 C 0.60112 0.28053 0.12643
 C507 C 0.57344 0.28140 0.10015
 C508 C 0.57532 0.25680 0.07029
 C509 C 0.54416 0.30588 0.10572
 N510 N 0.54360 0.32862 0.13471
 N511 N 0.57005 0.32839 0.15877
 C512 C 0.59870 0.30508 0.15571
 H513 H 0.60541 0.21170 0.04606
 H514 H 0.65186 0.20945 0.09217
 H515 H 0.52122 0.30676 0.08802
 H516 H 0.61905 0.30568 0.17642
 C517 C -0.09619 0.58277 0.72483
 C518 C -0.12281 0.61002 0.72410
 C519 C -0.12918 0.63294 0.75397
 C520 C -0.10503 0.63083 0.78369
 C521 C -0.07691 0.60373 0.78386
 C522 C -0.07373 0.57818 0.75479
 C523 C -0.05171 0.60476 0.81220
 N524 N -0.05494 0.63035 0.83859
 N525 N -0.08103 0.65572 0.83832
 C526 C -0.10572 0.65720 0.81166
 H527 H -0.09367 0.56452 0.70182
 H528 H -0.14009 0.61149 0.70069
 H529 H -0.02849 0.58679 0.81327
 H530 H -0.12440 0.68016 0.81196
 C531 C -0.10153 0.41846 0.26702
 C532 C -0.12933 0.39210 0.26741
 C533 C -0.12943 0.36351 0.24217
 C534 C -0.10023 0.36038 0.21694
 C535 C -0.07140 0.38669 0.21701
 C536 C -0.07280 0.41676 0.24160
 C537 C -0.04163 0.38110 0.19317
 N538 N -0.04171 0.35210 0.17009
 N539 N -0.06924 0.32804 0.16944
 C540 C -0.09841 0.33109 0.19212
 H541 H -0.10294 0.44093 0.28625
 H542 H -0.15136 0.39445 0.28713
 H543 H -0.01787 0.39876 0.19311
 H544 H -0.11965 0.31033 0.19082
 C545 C 0.07822 0.39381 0.73600
 C546 C 0.10715 0.36909 0.73390
 C547 C 0.14248 0.38032 0.74241
 C548 C 0.14883 0.41782 0.75207
 C549 C 0.11918 0.44273 0.75483
 C550 C 0.08367 0.43041 0.74695
 C551 C 0.12620 0.47967 0.76448
 N552 N 0.16069 0.49100 0.77043
 N553 N 0.18865 0.46792 0.76707
 C554 C 0.18397 0.43187 0.75788
 H555 H 0.05128 0.38408 0.72961
 H556 H 0.10170 0.34065 0.72631
 H557 H 0.10461 0.49966 0.76692
 H558 H 0.20788 0.41498 0.75444
 C559 C 0.09824 0.58060 0.26287
 C560 C 0.12357 0.60940 0.26324
 C561 C 0.12128 0.63929 0.23883
 C562 C 0.09231 0.64094 0.21426
 C563 C 0.06606 0.61196 0.21423
 C564 C 0.06975 0.58102 0.23822
 C565 C 0.03631 0.61585 0.19104
 N566 N 0.03394 0.64603 0.16883
 N567 N 0.05904 0.67277 0.16837
 C568 C 0.08806 0.67133 0.19036
 H569 H 0.10121 0.55750 0.28170
 H570 H 0.14546 0.60812 0.28241
 H571 H 0.01441 0.59585 0.19079
 H572 H 0.10723 0.69419 0.18927
 C573 C 0.73653 -0.11254 0.57398
 C574 C 0.73814 -0.13952 0.60134
 C575 C 0.75402 -0.13161 0.63457
 C576 C 0.76953 -0.09597 0.63993
 C577 C 0.76780 -0.06848 0.61207
 C578 C 0.75130 -0.07708 0.57882
 C579 C 0.78216 -0.03296 0.61878
 N580 N 0.79835 -0.02610 0.65069
 N581 N 0.80110 -0.05226 0.67633
 C582 C 0.78738 -0.08692 0.67203
 H583 H 0.72390 -0.11950 0.54866
 H584 H 0.72624 -0.16661 0.59680
 H585 H 0.78051 -0.01052 0.59913
 H586 H 0.79095 -0.10707 0.69361
 C587 C 0.22487 -0.08683 0.41021
 C588 C 0.22408 -0.11368 0.38346
 C589 C 0.25050 -0.14148 0.38182
 C590 C 0.27718 -0.14345 0.40894
 C591 C 0.27776 -0.11634 0.43653
 C592 C 0.25199 -0.08708 0.43632
 C593 C 0.30344 -0.12031 0.46411
 N594 N 0.32727 -0.14889 0.46340
 N595 N 0.32694 -0.17405 0.43731
 C596 C 0.30264 -0.17246 0.41023
 H597 H 0.20474 -0.06497 0.40982
 H598 H 0.20326 -0.11204 0.36316
 H599 H 0.30437 -0.10168 0.48675
 H600 H 0.30308 -0.19433 0.39049
 C601 C 0.74701 0.10526 0.42328
 C602 C 0.74789 0.13072 0.39457
 C603 C 0.74284 0.11924 0.35885
 C604 C 0.73703 0.08091 0.35206
 C605 C 0.73526 0.05515 0.38155
 C606 C 0.74079 0.06755 0.41727
 C607 C 0.72888 0.01747 0.37417
 N608 N 0.72569 0.00626 0.33948
 N609 N 0.72858 0.03015 0.31171
 C610 C 0.73433 0.06696 0.31676
 H611 H 0.75107 0.11518 0.45041
 H612 H 0.75238 0.15979 0.40041
 H613 H 0.72655 -0.00315 0.39563
 H614 H 0.73744 0.08462 0.29304
 C615 C 0.24244 0.07110 0.60892
 C616 C 0.24348 0.09814 0.63552
 C617 C 0.25948 0.13282 0.62819
 C618 C 0.27517 0.14035 0.59352
 C619 C 0.27437 0.11273 0.56649
 C620 C 0.25796 0.07778 0.57450
 C621 C 0.28933 0.12146 0.53204
 N622 N 0.30485 0.15523 0.52565
 N623 N 0.30627 0.18086 0.55128
 C624 C 0.29199 0.17461 0.58496
 H625 H 0.22978 0.04452 0.61540
 H626 H 0.23126 0.09214 0.66190
 H627 H 0.28860 0.10199 0.51004
 H628 H 0.29401 0.19641 0.60470
   
