data_POSCAR
  _audit_creation_date              2014-09-24
  _audit_creation_method            'ToBaCCo'
  _symmetry_space_group_name_H-M    'P1'
  _symmetry_Int_Tables_number       1
  _symmetry_cell_setting            triclinic
  loop_
  _symmetry_equiv_pos_as_xyz
 x,y,z
_cell_length_a 68.0865
_cell_length_b 68.1160
_cell_length_c 20.2202
_cell_angle_alpha 89.920200
_cell_angle_beta 90.096900
_cell_angle_gamma 120.029400
loop_
  _atom_site_label
  _atom_site_type_symbol
  _atom_site_fract_x
  _atom_site_fract_y
  _atom_site_fract_z
C1 C 0.24917 0.49894 0.52860
 C2 C 0.24901 0.49887 0.46114
 C3 C 0.23101 0.50007 0.42273
 C4 C 0.26678 0.49742 0.42258
 C5 C 0.26836 0.50008 0.56698
 C6 C 0.23007 0.49773 0.56722
 C7 C 0.21838 0.48335 0.37544
 C8 C 0.20082 0.48378 0.34080
 C9 C 0.19580 0.50108 0.35268
 C10 C 0.20872 0.51814 0.39869
 C11 C 0.22631 0.51771 0.43325
 C12 C 0.27121 0.47960 0.43317
 C13 C 0.28870 0.47901 0.39884
 C14 C 0.30174 0.49607 0.35312
 C15 C 0.29698 0.51351 0.34100
 C16 C 0.27951 0.51413 0.37536
 C17 C 0.29076 0.51759 0.55614
 C18 C 0.30873 0.51796 0.59083
 C19 C 0.30446 0.50098 0.63718
 C20 C 0.28213 0.48382 0.64936
 C21 C 0.26416 0.48342 0.61466
 C22 C 0.23426 0.51453 0.61426
 C23 C 0.21630 0.51406 0.64894
 C24 C 0.19402 0.49670 0.63732
 C25 C 0.18978 0.47957 0.59172
 C26 C 0.20773 0.48000 0.55707
 H27 H 0.22183 0.46970 0.36638
 H28 H 0.19105 0.47048 0.30529
 H29 H 0.20516 0.53171 0.40829
 H30 H 0.23613 0.53100 0.46863
 H31 H 0.26130 0.46634 0.46853
 H32 H 0.29219 0.46539 0.40836
 H33 H 0.27625 0.52792 0.36628
 H34 H 0.29431 0.53083 0.52046
 H35 H 0.32593 0.53138 0.58122
 H36 H 0.27863 0.47064 0.68522
 H37 H 0.24701 0.46986 0.62398
 H38 H 0.25139 0.52825 0.62301
 H39 H 0.21976 0.52737 0.68424
 H40 H 0.17261 0.46599 0.58259
 H41 H 0.20421 0.46666 0.52186
 H42 H 0.30694 0.52676 0.30562
 C43 C 0.50019 -0.25031 0.53521
 C44 C 0.50005 -0.25030 0.46774
 C45 C 0.50143 -0.26809 0.42896
 C46 C 0.49858 -0.23243 0.42960
 C47 C 0.50159 -0.23111 0.57395
 C48 C 0.49902 -0.26949 0.57340
 C49 C 0.51923 -0.27259 0.43928
 C50 C 0.51988 -0.28992 0.40421
 C51 C 0.50291 -0.30277 0.35798
 C52 C 0.48546 -0.29799 0.34630
 C53 C 0.48476 -0.28068 0.38139
 C54 C 0.51520 -0.21967 0.38222
 C55 C 0.51459 -0.20210 0.34831
 C56 C 0.49725 -0.19725 0.36102
 C57 C 0.48028 -0.21031 0.40691
 C58 C 0.48086 -0.22791 0.44080
 C59 C 0.48509 -0.23521 0.62197
 C60 C 0.48579 -0.21719 0.65703
 C61 C 0.50310 -0.19493 0.64486
 C62 C 0.51992 -0.19078 0.59817
 C63 C 0.51925 -0.20878 0.56314
 C64 C 0.48134 -0.29182 0.56274
 C65 C 0.48101 -0.30986 0.59670
 C66 C 0.49821 -0.30574 0.64217
 C67 C 0.51552 -0.28346 0.65433
 C68 C 0.51586 -0.26541 0.62032
 H69 H 0.53248 -0.26279 0.47484
 H70 H 0.53353 -0.29340 0.41342
 H71 H 0.47227 -0.30778 0.31053
 H72 H 0.47099 -0.27738 0.37246
 H73 H 0.52893 -0.22299 0.37268
 H74 H 0.52778 -0.19213 0.31278
 H75 H 0.46766 -0.23783 0.47630
 H76 H 0.47143 -0.25231 0.63129
 H77 H 0.47272 -0.22060 0.69314
 H78 H 0.53345 -0.17363 0.58857
 H79 H 0.53238 -0.20531 0.52721
 H80 H 0.46798 -0.29525 0.52760
 H81 H 0.46745 -0.32700 0.58703
 H82 H 0.52890 -0.28001 0.68951
 H83 H 0.52955 -0.24831 0.62943
 H84 H 0.46673 -0.20677 0.41689
 C85 C 1.25016 0.75047 0.53501
 C86 C 1.25025 0.75047 0.46755
 C87 C 1.26815 0.76970 0.42905
 C88 C 1.23239 0.73126 0.42905
 C89 C 1.23083 0.73264 0.57339
 C90 C 1.26937 0.76835 0.57349
 C91 C 1.27272 0.79200 0.43953
 C92 C 1.29005 0.81003 0.40443
 C93 C 1.30283 0.80594 0.35795
 C94 C 1.29799 0.78369 0.34620
 C95 C 1.28067 0.76566 0.38136
 C96 C 1.21981 0.73530 0.38138
 C97 C 1.20232 0.71724 0.34686
 C98 C 1.19738 0.69500 0.35926
 C99 C 1.21024 0.69090 0.40551
 C100 C 1.22776 0.70895 0.44001
 C101 C 1.23473 0.72004 0.62132
 C102 C 1.21658 0.70264 0.65588
 C103 C 1.19434 0.69778 0.64328
 C104 C 1.19040 0.71068 0.59669
 C105 C 1.20856 0.72810 0.56218
 C106 C 1.29167 0.77292 0.56294
 C107 C 1.30976 0.79056 0.59698
 C108 C 1.30571 0.80363 0.64245
 C109 C 1.28344 0.79871 0.65456
 C110 C 1.26535 0.78109 0.62045
 H111 H 1.26296 0.79542 0.47518
 H112 H 1.29352 0.82714 0.41382
 H113 H 1.30768 0.78025 0.31029
 H114 H 1.27731 0.74858 0.37229
 H115 H 1.22322 0.75238 0.37202
 H116 H 1.19250 0.72058 0.31107
 H117 H 1.23755 0.70555 0.47573
 H118 H 1.25179 0.72338 0.63093
 H119 H 1.21990 0.69286 0.69190
 H120 H 1.17331 0.70721 0.58663
 H121 H 1.20524 0.73791 0.52631
 H122 H 1.29506 0.76301 0.52776
 H123 H 1.32689 0.79410 0.58735
 H124 H 1.28005 0.80865 0.68973
 H125 H 1.24827 0.77773 0.62949
 H126 H 1.20662 0.67376 0.41525
 C127 C 0.75231 0.50447 0.53594
 C128 C 0.75252 0.50439 0.46848
 C129 C 0.77071 0.50339 0.43081
 C130 C 0.73462 0.50537 0.42886
 C131 C 0.73313 0.50348 0.57363
 C132 C 0.77128 0.50563 0.57550
 C133 C 0.78318 0.52009 0.38327
 C134 C 0.80066 0.51965 0.34844
 C135 C 0.80574 0.50243 0.36039
 C136 C 0.79308 0.48547 0.40679
 C137 C 0.77556 0.48586 0.44162
 C138 C 0.72977 0.52297 0.43790
 C139 C 0.71262 0.52343 0.40099
 C140 C 0.70032 0.50647 0.35423
 C141 C 0.70539 0.48916 0.34410
 C142 C 0.72251 0.48866 0.38101
 C143 C 0.71074 0.48587 0.56320
 C144 C 0.69281 0.48548 0.59793
 C145 C 0.69711 0.50255 0.64391
 C146 C 0.71944 0.51986 0.65551
 C147 C 0.73736 0.52027 0.62075
 C148 C 0.76680 0.48903 0.62363
 C149 C 0.78451 0.48964 0.66034
 C150 C 0.80689 0.50698 0.64972
 C151 C 0.81143 0.52386 0.60268
 C152 C 0.79371 0.52327 0.56601
 H153 H 0.77960 0.53365 0.37396
 H154 H 0.81031 0.53283 0.31253
 H155 H 0.79680 0.47200 0.41619
 H156 H 0.76585 0.47259 0.47719
 H157 H 0.73921 0.53626 0.47363
 H158 H 0.70890 0.53696 0.40904
 H159 H 0.72610 0.47505 0.37302
 H160 H 0.70719 0.47253 0.52796
 H161 H 0.67563 0.47192 0.58867
 H162 H 0.72303 0.53315 0.69105
 H163 H 0.75451 0.53390 0.62975
 H164 H 0.74961 0.47538 0.63197
 H165 H 0.78072 0.47649 0.69663
 H166 H 0.82865 0.53744 0.59411
 H167 H 0.79746 0.53648 0.53004
 H168 H 0.69602 0.47598 0.30798
 C169 C 0.49571 0.24778 0.53673
 C170 C 0.49585 0.24791 0.46927
 C171 C 0.49698 0.26704 0.43080
 C172 C 0.49480 0.22891 0.43039
 C173 C 0.49674 0.22970 0.57510
 C174 C 0.49448 0.26565 0.57552
 C175 C 0.48042 0.26274 0.38262
 C176 C 0.48105 0.28058 0.34675
 C177 C 0.49834 0.30290 0.35828
 C178 C 0.51515 0.30728 0.40537
 C179 C 0.51456 0.28943 0.44126
 C180 C 0.47712 0.20650 0.43986
 C181 C 0.47653 0.18878 0.40341
 C182 C 0.49345 0.19330 0.35670
 C183 C 0.51086 0.21564 0.34621
 C184 C 0.51149 0.23336 0.38266
 C185 C 0.51438 0.22496 0.56508
 C186 C 0.51472 0.20742 0.60003
 C187 C 0.49758 0.19459 0.64583
 C188 C 0.48026 0.19961 0.65713
 C189 C 0.47991 0.21713 0.62214
 C190 C 0.51099 0.27788 0.62379
 C191 C 0.51034 0.29508 0.65963
 C192 C 0.49304 0.30012 0.64798
 C193 C 0.47624 0.28765 0.60084
 C194 C 0.47688 0.27043 0.56504
 H195 H 0.46682 0.24558 0.37357
 H196 H 0.46799 0.27700 0.31034
 H197 H 0.52866 0.32448 0.41447
 H198 H 0.52773 0.29305 0.47729
 H199 H 0.46384 0.20277 0.47550
 H200 H 0.46292 0.17157 0.41172
 H201 H 0.52516 0.25053 0.37434
 H202 H 0.52775 0.23475 0.52990
 H203 H 0.52828 0.20380 0.59100
 H204 H 0.46692 0.18987 0.69252
 H205 H 0.46625 0.22062 0.63081
 H206 H 0.52461 0.27435 0.63289
 H207 H 0.52343 0.30453 0.69602
 H208 H 0.46269 0.29128 0.59148
 H209 H 0.46373 0.26090 0.52895
 H210 H 0.52401 0.21933 0.31012
 C211 C 0.75231 0.24851 0.53548
 C212 C 0.75219 0.24835 0.46802
 C213 C 0.73302 0.23023 0.42993
 C214 C 0.77123 0.26622 0.42889
 C215 C 0.77037 0.26770 0.57363
 C216 C 0.73442 0.22949 0.57463
 C217 C 0.73725 0.21772 0.38264
 C218 C 0.71932 0.20025 0.34767
 C219 C 0.69701 0.19522 0.35922
 C220 C 0.69271 0.20794 0.40529
 C221 C 0.71064 0.22545 0.44026
 C222 C 0.79365 0.27104 0.43895
 C223 C 0.81143 0.28819 0.40258
 C224 C 0.80696 0.30051 0.35535
 C225 C 0.78461 0.29546 0.34419
 C226 C 0.76683 0.27835 0.38056
 C227 C 0.77513 0.29005 0.56300
 C228 C 0.79250 0.30798 0.59835
 C229 C 0.80510 0.30370 0.64516
 C230 C 0.80010 0.28140 0.65691
 C231 C 0.78276 0.26349 0.62153
 C232 C 0.72221 0.23390 0.62252
 C233 C 0.70511 0.21614 0.65901
 C234 C 0.70017 0.19382 0.64841
 C235 C 0.71256 0.18934 0.60160
 C236 C 0.72969 0.20710 0.56511
 H237 H 0.75439 0.22125 0.37372
 H238 H 0.72283 0.19054 0.31203
 H239 H 0.67552 0.20426 0.41438
 H240 H 0.70708 0.23519 0.47562
 H241 H 0.79736 0.26159 0.47507
 H242 H 0.82865 0.29189 0.41142
 H243 H 0.74965 0.27479 0.37178
 H244 H 0.76546 0.29359 0.52717
 H245 H 0.79611 0.32514 0.58894
 H246 H 0.80967 0.27783 0.69306
 H247 H 0.77924 0.24635 0.63070
 H248 H 0.72570 0.25106 0.63089
 H249 H 0.69566 0.21981 0.69518
 H250 H 0.70894 0.17215 0.59319
 H251 H 0.73921 0.20340 0.52934
 H252 H 0.78094 0.30486 0.30769
 O253 O 1.03243 0.54962 0.12166
 O254 O 1.05704 0.54475 0.05594
 C255 C 1.05275 0.55480 0.10344
 O256 O 0.96868 0.44812 0.11184
 O257 O 0.94360 0.45477 0.05389
 C258 C 0.94822 0.44316 0.09570
 O259 O 1.03267 0.48202 0.11656
 O260 O 1.05739 0.51237 0.05324
 C261 C 1.05305 0.49742 0.09909
 O262 O 0.96884 0.51985 0.11652
 O263 O 0.94378 0.48858 0.05712
 C264 C 0.94838 0.50437 0.10028
 Zr265 Zr 1.00054 0.52486 0.08321
 O266 O 0.99865 0.52448 0.18770
 O267 O 1.00171 0.55641 0.07762
 Zr268 Zr 1.00050 0.47520 0.08050
 O269 O 0.99828 0.47337 0.18498
 O270 O 1.00306 0.44548 0.07822
 O271 O 1.02077 0.51005 0.09433
 O272 O 0.98091 0.49017 0.09458
 O273 O 0.96806 0.52101 -0.11234
 O274 O 0.94327 0.48928 -0.05391
 C275 C 0.94767 0.50550 -0.09550
 O276 O 1.03138 0.48236 -0.12561
 O277 O 1.05657 0.51217 -0.06171
 C278 C 1.05186 0.49746 -0.10846
 O279 O 0.96782 0.44904 -0.11771
 O280 O 0.94325 0.45524 -0.05597
 C281 C 0.94750 0.44399 -0.09978
 O282 O 1.03161 0.55098 -0.12139
 O283 O 1.05665 0.54532 -0.05996
 C284 C 1.05205 0.55597 -0.10509
 Zr285 Zr 1.00002 0.52554 -0.08346
 O286 O 0.99706 0.52455 -0.18782
 O287 O 1.00223 0.55766 -0.08107
 Zr288 Zr 0.99984 0.47581 -0.08639
 O289 O 0.99692 0.47488 -0.19074
 O290 O 1.00226 0.44601 -0.08742
 Zr291 Zr 1.03409 0.51720 -0.00245
 Zr292 Zr 0.96652 0.48353 -0.00064
 O293 O 0.98020 0.49093 -0.09665
 O294 O 1.02014 0.51081 -0.09851
 O295 O 0.98000 0.51889 0.00072
 O296 O 1.01992 0.48175 -0.00369
 O297 O 1.02015 0.53865 -0.00032
 O298 O 0.97991 0.46154 -0.00261
 H299 H 0.97087 0.48492 0.13385
 H300 H 1.03018 0.47536 -0.00451
 H301 H 0.96976 0.48598 -0.13508
 H302 H 1.03047 0.55529 0.00024
 H303 H 0.99016 0.43404 0.05184
 H304 H 0.98940 0.43435 -0.06138
 H305 H 1.00936 0.48940 -0.20794
 H306 H 1.00974 0.52308 -0.20597
 H307 H 0.99158 0.55695 -0.04667
 H308 H 1.00179 0.56120 0.12392
 H309 H 1.00959 0.52013 0.20450
 H310 H 1.01108 0.48755 0.20265
 O311 O 0.45076 0.48174 0.12109
 O312 O 0.45556 0.51161 0.05707
 C313 C 0.44542 0.49684 0.10366
 O314 O 0.55261 0.52020 0.11049
 O315 O 0.54597 0.48869 0.05162
 C316 C 0.55760 0.50479 0.09368
 O317 O 0.51912 0.55025 0.11825
 O318 O 0.48869 0.54477 0.05583
 C319 C 0.50377 0.55531 0.10143
 O320 O 0.48109 0.44849 0.11423
 O321 O 0.51200 0.45472 0.05303
 C322 C 0.49640 0.44346 0.09667
 Zr323 Zr 0.47588 0.47526 0.08264
 O324 O 0.47768 0.47431 0.18705
 O325 O 0.44364 0.44543 0.08342
 Zr326 Zr 0.52544 0.52498 0.08026
 O327 O 0.52739 0.52412 0.18464
 O328 O 0.55515 0.55730 0.07794
 O329 O 0.49055 0.51024 0.09473
 O330 O 0.51061 0.49036 0.09343
 O331 O 0.47936 0.44760 -0.11571
 O332 O 0.51104 0.45429 -0.05761
 C333 C 0.49483 0.44264 -0.09936
 O334 O 0.51772 0.54934 -0.12484
 O335 O 0.48801 0.54433 -0.05983
 C336 C 0.50253 0.55449 -0.10694
 O337 O 0.55142 0.51936 -0.11892
 O338 O 0.54540 0.48839 -0.05821
 C339 C 0.55656 0.50408 -0.10170
 O340 O 0.44966 0.48158 -0.12094
 O341 O 0.45521 0.51190 -0.05780
 C342 C 0.44467 0.49697 -0.10371
 Zr343 Zr 0.47496 0.47480 -0.08439
 O344 O 0.47585 0.47329 -0.18886
 O345 O 0.44263 0.44510 -0.08300
 Zr346 Zr 0.52460 0.52439 -0.08666
 O347 O 0.52551 0.52290 -0.19111
 O348 O 0.55432 0.55672 -0.08705
 Zr349 Zr 0.48322 0.51669 -0.00156
 Zr350 Zr 0.51714 0.48303 -0.00236
 O351 O 0.50959 0.48970 -0.09785
 O352 O 0.48958 0.50964 -0.09823
 O353 O 0.48172 0.46107 -0.00096
 O354 O 0.51867 0.53810 -0.00317
 O355 O 0.46192 0.48124 -0.00045
 O356 O 0.53904 0.51846 -0.00357
 H357 H 0.51597 0.48539 0.13212
 H358 H 0.52503 0.55475 -0.00362
 H359 H 0.51451 0.48445 -0.13676
 H360 H 0.44526 0.47484 0.00005
 H361 H 0.56660 0.55591 0.05147
 H362 H 0.56610 0.55544 -0.06187
 H363 H 0.51086 0.52059 -0.20800
 H364 H 0.47707 0.48741 -0.20648
 H365 H 0.44383 0.43381 -0.05511
 H366 H 0.44490 0.43375 0.05782
 H367 H 0.47945 0.48870 0.20420
 H368 H 0.51299 0.52210 0.20261
 O369 O 0.51628 -0.03217 0.12544
 O370 O 0.48669 -0.05696 0.05991
 C371 C 0.50108 -0.05255 0.10752
 O372 O 0.47872 0.03180 0.11184
 O373 O 0.51070 0.05673 0.05487
 C374 C 0.49435 0.05221 0.09593
 O375 O 0.44853 -0.03172 0.11858
 O376 O 0.45421 -0.05661 0.05682
 C377 C 0.44351 -0.05212 0.10189
 O378 O 0.55027 0.03156 0.12002
 O379 O 0.54445 0.05645 0.05831
 C380 C 0.55547 0.05196 0.10250
 Zr381 Zr 0.52352 -0.00019 0.08706
 O382 O 0.52380 0.00231 0.19146
 O383 O 0.55321 -0.00282 0.09007
 Zr384 Zr 0.47397 -0.00004 0.08120
 O385 O 0.47384 0.00249 0.18550
 O386 O 0.44170 -0.00261 0.07571
 O387 O 0.48849 -0.02032 0.09717
 O388 O 0.50850 0.01956 0.09626
 O389 O 0.55246 0.03193 -0.10986
 O390 O 0.54555 0.05682 -0.05229
 C391 C 0.55735 0.05234 -0.09352
 O392 O 0.45076 -0.03214 -0.12390
 O393 O 0.45554 -0.05694 -0.05841
 C394 C 0.44556 -0.05252 -0.10598
 O395 O 0.48050 0.03157 -0.11850
 O396 O 0.51122 0.05645 -0.05683
 C397 C 0.49571 0.05197 -0.10097
 O398 O 0.51903 -0.03163 -0.11697
 O399 O 0.48839 -0.05657 -0.05531
 C400 C 0.50364 -0.05204 -0.10029
 Zr401 Zr 0.52527 0.00003 -0.07961
 O402 O 0.52796 0.00264 -0.18391
 O403 O 0.55498 -0.00253 -0.07427
 Zr404 Zr 0.47553 -0.00016 -0.08558
 O405 O 0.47787 0.00239 -0.18997
 O406 O 0.44321 -0.00281 -0.08883
 Zr407 Zr 0.48267 -0.03387 0.00075
 Zr408 Zr 0.51648 0.03373 0.00072
 O409 O 0.51035 0.01963 -0.09480
 O410 O 0.49045 -0.02027 -0.09565
 O411 O 0.53838 0.02021 0.00423
 O412 O 0.46128 -0.01986 -0.00252
 O413 O 0.51809 -0.01985 0.00404
 O414 O 0.48105 0.02019 -0.00267
 H415 H 0.51325 0.02972 0.13524
 H416 H 0.44463 -0.03019 -0.00381
 H417 H 0.51584 0.02987 -0.13364
 H418 H 0.52441 -0.03017 0.00535
 H419 H 0.44351 0.01075 0.05104
 H420 H 0.44410 0.00977 -0.06220
 H421 H 0.47945 -0.01041 -0.20643
 H422 H 0.51342 -0.00934 -0.20243
 H423 H 0.56649 0.01073 -0.04919
 H424 H 0.56499 0.00993 0.06398
 H425 H 0.50935 -0.01044 0.20795
 H426 H 0.47643 -0.00947 0.20401
 C427 C 1.11339 0.51537 0.15035
 C428 C 1.10977 0.49928 0.19902
 C429 C 1.08761 0.48255 0.21504
 C430 C 1.06913 0.48189 0.18256
 C431 C 1.17891 0.50107 0.32169
 C432 C 1.09495 0.51475 0.11778
 C433 C 1.12878 0.49993 0.23245
 C434 C 1.14467 0.50042 0.26046
 C435 C 1.16319 0.50086 0.29338
 C436 C 1.07258 0.49798 0.13348
 H437 H 1.13046 0.52840 0.13757
 H438 H 1.08462 0.47001 0.25265
 H439 H 1.05218 0.46877 0.19594
 H440 H 1.09827 0.52744 0.08041
 C441 C 0.51983 0.60505 0.21666
 C442 C 0.50342 0.61092 0.20069
 C443 C 0.48705 0.59856 0.15254
 C444 C 0.48711 0.58044 0.12033
 C445 C 0.50320 0.67892 0.32335
 C446 C 0.51993 0.58694 0.18456
 C447 C 0.50338 0.62961 0.23381
 C448 C 0.50336 0.64523 0.26175
 C449 C 0.50332 0.66345 0.29478
 C450 C 0.50358 0.57442 0.13590
 H451 H 0.53257 0.61450 0.25391
 H452 H 0.47425 0.60294 0.13985
 H453 H 0.47425 0.57117 0.08324
 H454 H 0.53285 0.58279 0.19781
 C455 C 0.39347 -0.08592 0.21616
 C456 C 0.38781 -0.10818 0.20098
 C457 C 0.40035 -0.11214 0.15348
 C458 C 0.41846 -0.09393 0.12119
 C459 C 0.32010 -0.17644 0.32492
 C460 C 0.41158 -0.06768 0.18400
 C461 C 0.36920 -0.12693 0.23439
 C462 C 0.35364 -0.14257 0.26263
 C463 C 0.33550 -0.16084 0.29605
 C464 C 0.42430 -0.07145 0.13606
 H465 H 0.38389 -0.08266 0.25291
 H466 H 0.39613 -0.12931 0.14141
 H467 H 0.42789 -0.09748 0.08469
 H468 H 0.41558 -0.05063 0.19670
 C469 C 0.91462 0.52035 0.21523
 C470 C 0.89235 0.50387 0.19937
 C471 C 0.88837 0.48777 0.15052
 C472 C 0.90658 0.48803 0.11791
 C473 C 0.82411 0.50237 0.32549
 C474 C 0.93287 0.52066 0.18270
 C475 C 0.87359 0.50337 0.23357
 C476 C 0.85791 0.50295 0.26241
 C477 C 0.83962 0.50255 0.29637
 C478 C 0.92908 0.50444 0.13379
 H479 H 0.91788 0.53290 0.25298
 H480 H 0.87119 0.47494 0.13783
 H481 H 0.90301 0.47530 0.08052
 H482 H 0.94994 0.53352 0.19617
 C483 C 0.51306 0.39992 0.14504
 C484 C 0.49710 0.38774 0.19422
 C485 C 0.48065 0.39347 0.21065
 C486 C 0.48024 0.41143 0.17847
 C487 C 0.49859 0.32126 0.32233
 C488 C 0.51271 0.41790 0.11275
 C489 C 0.49774 0.36954 0.22848
 C490 C 0.49818 0.35434 0.25771
 C491 C 0.49852 0.33653 0.29240
 C492 C 0.49635 0.42395 0.12934
 H493 H 0.52587 0.39561 0.13193
 H494 H 0.46821 0.38414 0.24866
 H495 H 0.46742 0.41561 0.19249
 H496 H 0.52535 0.42713 0.07517
 C497 C 0.59937 0.11209 0.15028
 C498 C 0.61138 0.10826 0.19999
 C499 C 0.60533 0.08604 0.21731
 C500 C 0.58724 0.06769 0.18534
 C501 C 0.67854 0.17680 0.32444
 C502 C 0.58129 0.09379 0.11824
 C503 C 0.62978 0.12712 0.23360
 C504 C 0.64515 0.14287 0.26201
 C505 C 0.66314 0.16123 0.29555
 C506 C 0.57495 0.07135 0.13556
 H507 H 0.60392 0.12923 0.13647
 H508 H 0.61452 0.08289 0.25574
 H509 H 0.58285 0.05067 0.19992
 H510 H 0.57223 0.09726 0.08013
 C511 C 0.47990 0.08612 -0.21540
 C512 C 0.49605 0.10833 -0.19789
 C513 C 0.51189 0.11213 -0.14823
 C514 C 0.51169 0.09381 -0.11640
 C515 C 0.49752 0.17708 -0.32140
 C516 C 0.47965 0.06775 -0.18364
 C517 C 0.49649 0.12722 -0.23126
 C518 C 0.49688 0.14302 -0.25943
 C519 C 0.49730 0.16144 -0.29270
 C520 C 0.49561 0.07138 -0.13389
 H521 H 0.46755 0.08300 -0.25380
 H522 H 0.52446 0.12926 -0.13427
 H523 H 0.52421 0.09725 -0.07830
 H524 H 0.46705 0.05074 -0.19834
 C525 C 0.60658 0.52013 -0.21573
 C526 C 0.61260 0.50392 -0.19865
 C527 C 0.60056 0.48801 -0.14921
 C528 C 0.58246 0.48818 -0.11725
 C529 C 0.67964 0.50252 -0.32326
 C530 C 0.58848 0.52035 -0.18385
 C531 C 0.63097 0.50347 -0.23231
 C532 C 0.64631 0.50308 -0.26078
 C533 C 0.66426 0.50270 -0.29437
 C534 C 0.57613 0.50430 -0.13440
 H535 H 0.61580 0.53253 -0.25395
 H536 H 0.60509 0.47539 -0.13557
 H537 H 0.57337 0.47559 -0.07939
 H538 H 0.58409 0.53299 -0.19830
 C539 C 0.91297 0.39392 -0.21313
 C540 C 0.89081 0.38808 -0.19590
 C541 C 0.88715 0.40025 -0.14651
 C542 C 0.90557 0.41831 -0.11475
 C543 C 0.82239 0.32117 -0.32144
 C544 C 0.93143 0.41196 -0.18147
 C545 C 0.87187 0.36977 -0.22950
 C546 C 0.85612 0.35447 -0.25813
 C547 C 0.83785 0.33654 -0.29211
 C548 C 0.92796 0.42445 -0.13209
 H549 H 0.91599 0.38459 -0.25131
 H550 H 0.87005 0.39586 -0.13278
 H551 H 0.90225 0.42752 -0.07695
 H552 H 0.94841 0.41620 -0.19606
 C553 C 0.52007 -0.08580 -0.21385
 C554 C 0.50351 -0.10807 -0.19844
 C555 C 0.48695 -0.11205 -0.15112
 C556 C 0.48695 -0.09385 -0.11921
 C557 C 0.50338 -0.17632 -0.32057
 C558 C 0.52012 -0.06756 -0.18206
 C559 C 0.50350 -0.12681 -0.23135
 C560 C 0.50351 -0.14245 -0.25916
 C561 C 0.50348 -0.16073 -0.29208
 C562 C 0.50356 -0.07136 -0.13426
 H563 H 0.53297 -0.08252 -0.25046
 H564 H 0.47402 -0.12923 -0.13887
 H565 H 0.47392 -0.09742 -0.08280
 H566 H 0.53315 -0.05051 -0.19490
 C567 C 0.39547 0.48220 -0.22053
 C568 C 0.39003 0.49892 -0.20472
 C569 C 0.40241 0.51496 -0.15589
 C570 C 0.42015 0.51431 -0.12296
 C571 C 0.32299 0.50093 -0.32851
 C572 C 0.41321 0.48151 -0.18770
 C573 C 0.37175 0.49961 -0.23852
 C574 C 0.35642 0.50015 -0.26681
 C575 C 0.33842 0.50066 -0.30001
 C576 C 0.42576 0.49755 -0.13845
 H577 H 0.38599 0.46970 -0.25827
 H578 H 0.39836 0.52799 -0.14327
 H579 H 0.42946 0.52696 -0.08547
 H580 H 0.41706 0.46840 -0.20092
 C581 C 1.11205 0.59933 -0.15631
 C582 C 1.10804 0.61189 -0.20379
 C583 C 1.08575 0.60610 -0.21936
 C584 C 1.06752 0.58787 -0.18749
 C585 C 1.17659 0.68034 -0.32456
 C586 C 1.09385 0.58110 -0.12435
 C587 C 1.12680 0.63071 -0.23654
 C588 C 1.14250 0.64643 -0.26406
 C589 C 1.16089 0.66478 -0.29652
 C590 C 1.07135 0.57516 -0.13947
 H591 H 1.12924 0.60365 -0.14393
 H592 H 1.08245 0.61570 -0.25609
 H593 H 1.05044 0.58380 -0.20039
 H594 H 1.09745 0.57169 -0.08776
 C595 C 0.88758 0.49009 -0.14224
 C596 C 0.89160 0.50701 -0.18849
 C597 C 0.91389 0.52364 -0.20336
 C598 C 0.93211 0.52329 -0.17263
 C599 C 0.82420 0.50721 -0.31566
 C600 C 0.90579 0.48969 -0.11138
 C601 C 0.87294 0.50709 -0.22188
 C602 C 0.85748 0.50718 -0.25076
 C603 C 0.83951 0.50726 -0.28545
 C604 C 0.92830 0.50623 -0.12651
 H605 H 0.87039 0.47711 -0.13040
 H606 H 0.91720 0.53680 -0.23913
 H607 H 0.94918 0.53629 -0.18548
 H608 H 0.90222 0.47633 -0.07612
 C609 C 0.50998 0.39790 -0.14651
 C610 C 0.49316 0.38522 -0.19325
 C611 C 0.47672 0.39110 -0.20858
 C612 C 0.47715 0.40966 -0.17772
 C613 C 0.49278 0.31729 -0.31828
 C614 C 0.51046 0.41648 -0.11553
 C615 C 0.49296 0.36641 -0.22638
 C616 C 0.49281 0.35079 -0.25481
 C617 C 0.49272 0.33264 -0.28879
 C618 C 0.49409 0.42265 -0.13100
 H619 H 0.52281 0.39351 -0.13429
 H620 H 0.46364 0.38141 -0.24473
 H621 H 0.46428 0.41389 -0.19082
 H622 H 0.52372 0.42607 -0.07979
 C623 C 0.60913 0.08590 -0.20181
 C624 C 0.61478 0.10821 -0.18739
 C625 C 0.60194 0.11230 -0.14129
 C626 C 0.58338 0.09417 -0.11014
 C627 C 0.68218 0.17551 -0.31505
 C628 C 0.59060 0.06775 -0.17080
 C629 C 0.63346 0.12680 -0.22104
 C630 C 0.64896 0.14224 -0.25006
 C631 C 0.66696 0.16020 -0.28484
 C632 C 0.57741 0.07164 -0.12483
 H633 H 0.61894 0.08254 -0.23747
 H634 H 0.60615 0.12951 -0.12979
 H635 H 0.57364 0.09780 -0.07501
 H636 H 0.58653 0.05066 -0.18329
 C637 C 1.11169 0.51372 -0.15957
 C638 C 1.10752 0.49759 -0.20850
 C639 C 1.08519 0.48160 -0.22541
 C640 C 1.06705 0.48164 -0.19326
 C641 C 1.17547 0.49670 -0.32877
 C642 C 1.09360 0.51380 -0.12731
 C643 C 1.12615 0.49735 -0.24115
 C644 C 1.14172 0.49711 -0.26855
 C645 C 1.15993 0.49684 -0.30084
 C646 C 1.07104 0.49770 -0.14362
 H647 H 1.12893 0.52619 -0.14618
 H648 H 1.08179 0.46905 -0.26328
 H649 H 1.04994 0.46902 -0.20707
 H650 H 1.09731 0.52643 -0.08945
 C651 C 0.51683 0.60342 -0.22406
 C652 C 0.50030 0.60900 -0.20711
 C653 C 0.48444 0.59670 -0.15787
 C654 C 0.48512 0.57894 -0.12543
 C655 C 0.49835 0.67664 -0.32644
 C656 C 0.51756 0.58564 -0.19171
 C657 C 0.49968 0.62743 -0.23990
 C658 C 0.49917 0.64291 -0.26715
 C659 C 0.49865 0.66108 -0.29902
 C660 C 0.50174 0.57322 -0.14186
 H661 H 0.52919 0.61285 -0.26215
 H662 H 0.47156 0.60088 -0.14441
 H663 H 0.47264 0.56972 -0.08745
 H664 H 0.53055 0.58170 -0.20561
 C665 C 0.39692 -0.08702 -0.22421
 C666 C 0.39123 -0.10916 -0.20706
 C667 C 0.40341 -0.11278 -0.15748
 C668 C 0.42115 -0.09436 -0.12486
 C669 C 0.32339 -0.17864 -0.32620
 C670 C 0.41468 -0.06854 -0.19167
 C671 C 0.37276 -0.12818 -0.23985
 C672 C 0.35723 -0.14415 -0.26706
 C673 C 0.33900 -0.16280 -0.29884
 C674 C 0.42696 -0.07200 -0.14141
 H675 H 0.38758 -0.08404 -0.26256
 H676 H 0.39915 -0.12985 -0.14385
 H677 H 0.43026 -0.09767 -0.08656
 H678 H 0.41869 -0.05158 -0.20567
 C679 C 0.48289 -0.11281 0.15920
 C680 C 0.49868 -0.10919 0.20884
 C681 C 0.51514 -0.08705 0.22597
 C682 C 0.51589 -0.06857 0.19334
 C683 C 0.49717 -0.17858 0.32800
 C684 C 0.48360 -0.09439 0.12649
 C685 C 0.49812 -0.12820 0.24168
 C686 C 0.49770 -0.14415 0.26891
 C687 C 0.49733 -0.16277 0.30070
 C688 C 0.50017 -0.07203 0.14301
 H689 H 0.47008 -0.12988 0.14559
 H690 H 0.52745 -0.08407 0.26435
 H691 H 0.52885 -0.05161 0.20733
 H692 H 0.47120 -0.09771 0.08814
 C693 C 0.39579 0.48080 0.21915
 C694 C 0.38950 0.49679 0.20187
 C695 C 0.40165 0.51299 0.15321
 C696 C 0.41996 0.51313 0.12157
 C697 C 0.32033 0.49597 0.31976
 C698 C 0.41409 0.48089 0.18762
 C699 C 0.37051 0.49650 0.23388
 C700 C 0.35461 0.49627 0.26072
 C701 C 0.33606 0.49605 0.29236
 C702 C 0.42635 0.49702 0.13825
 H703 H 0.38649 0.46819 0.25683
 H704 H 0.39693 0.52546 0.13954
 H705 H 0.42901 0.52581 0.08389
 H706 H 0.41853 0.46826 0.20169
 C707 C 1.11311 0.59681 0.15482
 C708 C 1.10955 0.60898 0.20440
 C709 C 1.08743 0.60339 0.22137
 C710 C 1.06891 0.58572 0.18874
 C711 C 1.17881 0.67638 0.32551
 C712 C 1.09464 0.57915 0.12209
 C713 C 1.12859 0.62731 0.23753
 C714 C 1.14452 0.64272 0.26519
 C715 C 1.16308 0.66084 0.29760
 C716 C 1.07230 0.57342 0.13856
 H717 H 1.13017 0.60100 0.14134
 H718 H 1.08450 0.61272 0.25971
 H719 H 1.05197 0.58177 0.20268
 H720 H 1.09790 0.57002 0.08386
 C721 C 0.47621 0.08565 0.20473
 C722 C 0.49307 0.10796 0.19111
 C723 C 0.51013 0.11211 0.14539
 C724 C 0.51046 0.09401 0.11381
 C725 C 0.49312 0.17504 0.32001
 C726 C 0.47648 0.06754 0.17328
 C727 C 0.49305 0.12650 0.22517
 C728 C 0.49301 0.14188 0.25450
 C729 C 0.49301 0.15978 0.28959
 C730 C 0.49369 0.07148 0.12768
 H731 H 0.46292 0.08224 0.24008
 H732 H 0.52329 0.12932 0.13452
 H733 H 0.52395 0.09769 0.07899
 H734 H 0.46330 0.05045 0.18515
 C735 C 0.60912 0.52277 0.20322
 C736 C 0.61488 0.50623 0.18848
 C737 C 0.60218 0.48941 0.14181
 C738 C 0.58366 0.48903 0.11038
 C739 C 0.68231 0.50662 0.31727
 C740 C 0.59064 0.52244 0.17194
 C741 C 0.63355 0.50632 0.22235
 C742 C 0.64906 0.50645 0.25161
 C743 C 0.66707 0.50659 0.28673
 C744 C 0.57759 0.50548 0.12537
 H745 H 0.61883 0.53586 0.23931
 H746 H 0.60648 0.47650 0.13005
 H747 H 0.57402 0.47574 0.07479
 H748 H 0.58650 0.53538 0.18468
 C749 C 0.91490 0.39177 0.20575
 C750 C 0.89254 0.38598 0.19117
 C751 C 0.88834 0.39865 0.14456
 C752 C 0.90641 0.41714 0.11299
 C753 C 0.82529 0.31853 0.31895
 C754 C 0.93299 0.41023 0.17431
 C755 C 0.87400 0.36731 0.22501
 C756 C 0.85858 0.35180 0.25408
 C757 C 0.84061 0.33378 0.28882
 C758 C 0.92899 0.42322 0.12775
 H759 H 0.91835 0.38209 0.24179
 H760 H 0.87109 0.39434 0.13292
 H761 H 0.90269 0.42674 0.07741
 H762 H 0.95012 0.41439 0.18687
   
