data_POSCAR
  _audit_creation_date              2014-09-24
  _audit_creation_method            'ToBaCCo'
  _symmetry_space_group_name_H-M    'P1'
  _symmetry_Int_Tables_number       1
  _symmetry_cell_setting            triclinic
  loop_
  _symmetry_equiv_pos_as_xyz
 x,y,z
_cell_length_a 42.2948
_cell_length_b 41.8892
_cell_length_c 9.1867
_cell_angle_alpha 90.000200
_cell_angle_beta 90.000000
_cell_angle_gamma 90.000000
loop_
  _atom_site_label
  _atom_site_type_symbol
  _atom_site_fract_x
  _atom_site_fract_y
  _atom_site_fract_z
O1 O 0.22239 0.28065 0.10980
 O2 O 0.28371 0.21878 0.14771
 O3 O 0.22256 0.21837 0.10987
 O4 O 0.28352 0.28061 0.14781
 O5 O 0.27645 0.28074 0.38607
 O6 O 0.21536 0.21865 0.34792
 O7 O 0.27654 0.21850 0.38590
 O8 O 0.21534 0.28048 0.34808
 Cu9 Cu 0.25370 0.24960 0.10498
 Cu10 Cu 0.24526 0.24958 0.39080
 C11 C 0.20832 0.29097 0.22253
 C12 C 0.29071 0.20827 0.27326
 C13 C 0.20838 0.20806 0.22240
 C14 C 0.29050 0.29110 0.27340
 O15 O 0.78371 0.28031 0.35176
 O16 O 0.72275 0.21808 0.38971
 O17 O 0.78390 0.21847 0.35177
 O18 O 0.72258 0.28035 0.38967
 O19 O 0.71553 0.28017 0.15140
 O20 O 0.77674 0.21819 0.11358
 O21 O 0.71555 0.21835 0.15165
 O22 O 0.77664 0.28045 0.11350
 Cu23 Cu 0.75390 0.24929 0.39454
 Cu24 Cu 0.74545 0.24927 0.10872
 C25 C 0.79068 0.29082 0.22619
 C26 C 0.70856 0.20778 0.27720
 C27 C 0.79090 0.20796 0.22623
 C28 C 0.70851 0.29066 0.27695
 O29 O 0.77760 0.78072 0.88929
 O30 O 0.71628 0.71884 0.85139
 O31 O 0.77740 0.71846 0.88943
 O32 O 0.71645 0.78068 0.85146
 O33 O 0.72351 0.78082 0.61320
 O34 O 0.78461 0.71872 0.65138
 O35 O 0.72344 0.71857 0.61319
 O36 O 0.78465 0.78054 0.65101
 Cu37 Cu 0.74627 0.74968 0.89420
 Cu38 Cu 0.75472 0.74965 0.60839
 C39 C 0.79169 0.79102 0.77656
 C40 C 0.70930 0.70832 0.72585
 C41 C 0.79158 0.70814 0.77692
 C42 C 0.70946 0.79118 0.72588
 O43 O 0.28381 0.78138 0.84972
 O44 O 0.22249 0.71950 0.88763
 O45 O 0.28364 0.71955 0.84978
 O46 O 0.22269 0.78178 0.88776
 O47 O 0.21547 0.78151 0.64971
 O48 O 0.27658 0.71941 0.61152
 O49 O 0.21543 0.71968 0.64936
 O50 O 0.27664 0.78166 0.61152
 Cu51 Cu 0.25382 0.75055 0.89253
 Cu52 Cu 0.24536 0.75057 0.60672
 C53 C 0.29080 0.79189 0.72418
 C54 C 0.20841 0.70920 0.77491
 C55 C 0.29063 0.70906 0.72420
 C56 C 0.20851 0.79210 0.77526
 C57 C 0.97207 -0.06337 -0.10962
 C58 C 1.00094 -0.07819 -0.14021
 C59 C 1.02975 -0.06322 -0.11015
 C60 C 1.02993 -0.03172 -0.05438
 C61 C 1.00084 -0.01592 -0.02718
 C62 C 0.97179 -0.03185 -0.05390
 C63 C 0.94330 -0.01563 -0.02680
 C64 C 0.94326 0.01535 0.02782
 C65 C 0.97171 0.03170 0.05435
 C66 C 1.00080 0.01588 0.02710
 C67 C 1.05839 -0.01540 -0.02770
 C68 C 1.05835 0.01560 0.02666
 C69 C 1.02985 0.03181 0.05378
 C70 C 1.02958 0.06332 0.10951
 C71 C 1.00074 0.07817 0.14006
 C72 C 0.97190 0.06322 0.11002
 H73 H 0.92064 -0.02658 -0.04844
 H74 H 0.92057 0.02620 0.04991
 H75 H 1.08107 -0.02631 -0.04951
 H76 H 1.08101 0.02659 0.04811
 H77 H 1.00099 -0.10251 -0.18094
 H78 H 1.00072 0.10249 0.18076
 C79 C 0.52858 0.56324 0.60965
 C80 C 0.49975 0.57821 0.63961
 C81 C 0.47089 0.56335 0.60920
 C82 C 0.47062 0.53183 0.55363
 C83 C 0.49967 0.51589 0.52698
 C84 C 0.52877 0.53171 0.55414
 C85 C 0.55722 0.51535 0.52771
 C86 C 0.55718 0.48436 0.47331
 C87 C 0.52868 0.46813 0.44629
 C88 C 0.49963 0.48407 0.47290
 C89 C 0.44213 0.51559 0.52665
 C90 C 0.44209 0.48461 0.47220
 C91 C 0.47054 0.46826 0.44570
 C92 C 0.47073 0.43674 0.39009
 C93 C 0.49955 0.42177 0.36019
 C94 C 0.52841 0.43661 0.39072
 H95 H 0.57991 0.52621 0.54973
 H96 H 0.57984 0.47340 0.45176
 H97 H 0.41946 0.52655 0.54826
 H98 H 0.41940 0.47374 0.45021
 H99 H 0.49978 0.60253 0.68022
 H100 H 0.49952 0.39745 0.31955
 C101 C 0.02812 0.56352 -0.11025
 C102 C -0.00075 0.57842 -0.14016
 C103 C -0.02956 0.56352 -0.10945
 C104 C -0.02977 0.53203 -0.05360
 C105 C -0.00068 0.51613 -0.02723
 C106 C 0.02838 0.53199 -0.05468
 C107 C 0.05686 0.51568 -0.02843
 C108 C 0.05688 0.48469 0.02603
 C109 C 0.02842 0.46843 0.05334
 C110 C -0.00066 0.48433 0.02696
 C111 C -0.05823 0.51580 -0.02595
 C112 C -0.05821 0.48482 0.02849
 C113 C -0.02973 0.46848 0.05450
 C114 C -0.02948 0.43696 0.11003
 C115 C -0.00062 0.42203 0.13972
 C116 C 0.02821 0.43691 0.10900
 H117 H 0.07952 0.52657 -0.05067
 H118 H 0.07957 0.47377 0.04740
 H119 H -0.08091 0.52679 -0.04696
 H120 H -0.08087 0.47394 0.05092
 H121 H -0.00078 0.60274 -0.18088
 H122 H -0.00060 0.39770 0.18034
 C123 C 0.47161 0.93691 0.60899
 C124 C 0.50044 0.92202 0.63963
 C125 C 0.52929 0.93694 0.60988
 C126 C 0.52955 0.96848 0.55440
 C127 C 0.50048 0.98433 0.52691
 C128 C 0.47140 0.96843 0.55332
 C129 C 0.44294 0.98470 0.52604
 C130 C 0.44297 1.01568 0.47150
 C131 C 0.47145 1.03199 0.44526
 C132 C 0.50050 1.01614 0.47274
 C133 C 0.55803 0.98481 0.52841
 C134 C 0.55805 1.01581 0.47403
 C135 C 0.52958 1.03204 0.44641
 C136 C 0.52938 1.06354 0.39062
 C137 C 0.50056 1.07843 0.35985
 C138 C 0.47170 1.06352 0.38970
 H139 H 0.42025 0.97378 0.54745
 H140 H 0.42030 1.02656 0.44922
 H141 H 0.58069 0.97394 0.55082
 H142 H 0.58073 1.02679 0.45304
 H143 H 0.50042 0.89770 0.68025
 H144 H 0.50060 1.10275 0.31914
 C145 C 1.13657 0.14278 0.17936
 N146 N 1.15347 0.15227 0.06140
 N147 N 1.17699 0.17321 0.07543
 C148 C 1.18458 0.18533 0.20809
 N149 N 1.16786 0.17555 0.32621
 N150 N 1.14423 0.15475 0.31204
 C151 C 1.10969 0.12088 0.16303
 N152 N 1.08971 0.11553 0.27610
 N153 N 1.06454 0.09674 0.25979
 C154 C 1.05866 0.08231 0.13029
 N155 N 1.07860 0.08771 0.01711
 N156 N 1.10367 0.10664 0.03321
 C157 C 0.63581 0.64231 0.68169
 N158 N 0.65385 0.65045 0.56517
 N159 N 0.67752 0.67122 0.57941
 C160 C 0.68409 0.68447 0.71084
 N161 N 0.66622 0.67613 0.82754
 N162 N 0.64247 0.65548 0.81316
 C163 C 0.60883 0.62056 0.66487
 N164 N 0.58831 0.61589 0.77649
 N165 N 0.56311 0.59717 0.75969
 C166 C 0.55770 0.58215 0.63115
 N167 N 0.57817 0.58690 0.51935
 N168 N 0.60330 0.60573 0.53596
 C169 C -0.13631 0.35737 0.18220
 N170 N -0.15428 0.34910 0.06564
 N171 N -0.17779 0.32815 0.07981
 C172 C -0.18427 0.31483 0.21121
 N173 N -0.16647 0.32330 0.32795
 N174 N -0.14288 0.34414 0.31365
 C175 C -0.10948 0.37932 0.16546
 N176 N -0.08895 0.38405 0.27699
 N177 N -0.06385 0.40290 0.26017
 C178 C -0.05855 0.41800 0.13172
 N179 N -0.07904 0.41320 0.02003
 N180 N -0.10407 0.39423 0.03665
 C181 C 0.36436 0.85782 0.68015
 N182 N 0.34637 0.84965 0.56353
 N183 N 0.32267 0.82891 0.57772
 C184 C 0.31602 0.81572 0.70920
 N185 N 0.33386 0.82409 0.82599
 N186 N 0.35763 0.84471 0.81168
 C187 C 0.39136 0.87955 0.66346
 N188 N 0.41179 0.88430 0.77537
 N189 N 0.43700 0.90302 0.75877
 C190 C 0.44250 0.91796 0.63012
 N191 N 0.42213 0.91312 0.51801
 N192 N 0.39700 0.89429 0.53443
 C193 C -0.13662 0.64285 -0.17976
 N194 N -0.15352 0.65237 -0.06185
 N195 N -0.17704 0.67332 -0.07598
 C196 C -0.18462 0.68541 -0.20870
 N197 N -0.16790 0.67560 -0.32677
 N198 N -0.14428 0.65479 -0.31250
 C199 C -0.10973 0.62098 -0.16332
 N200 N -0.08977 0.61557 -0.27641
 N201 N -0.06459 0.59680 -0.25998
 C202 C -0.05866 0.58246 -0.13033
 N203 N -0.07859 0.58791 -0.01712
 N204 N -0.10368 0.60681 -0.03334
 C205 C 0.36439 1.14249 0.31754
 N206 N 0.34631 1.15058 0.43402
 N207 N 0.32257 1.17126 0.41973
 C208 C 0.31597 1.18449 0.28828
 N209 N 0.33388 1.17620 0.17162
 N210 N 0.35770 1.15563 0.18604
 C211 C 0.39143 1.12082 0.33442
 N212 N 0.41198 1.11618 0.22284
 N213 N 0.43720 1.09750 0.23968
 C214 C 0.44261 1.08247 0.36821
 N215 N 0.42212 1.08720 0.47998
 N216 N 0.39697 1.10600 0.46333
 C217 C 1.13679 -0.14253 -0.18130
 N218 N 1.14440 -0.15451 -0.31403
 N219 N 1.16800 -0.17534 -0.32835
 C220 C 1.18474 -0.18515 -0.21033
 N221 N 1.17721 -0.17301 -0.07762
 N222 N 1.15372 -0.15204 -0.06345
 C223 C 1.10993 -0.12062 -0.16475
 N224 N 1.10398 -0.10637 -0.03488
 N225 N 1.07890 -0.08747 -0.01848
 C226 C 1.05887 -0.08211 -0.13139
 N227 N 1.06469 -0.09654 -0.26095
 N228 N 1.08987 -0.11530 -0.27757
 C229 C 0.63528 0.35698 0.32038
 N230 N 0.64197 0.34380 0.18896
 N231 N 0.66562 0.32303 0.17486
 C232 C 0.68337 0.31457 0.29179
 N233 N 0.67677 0.32783 0.42318
 N234 N 0.65319 0.34871 0.43716
 C235 C 0.60841 0.37888 0.33680
 N236 N 0.60286 0.39373 0.46565
 N237 N 0.57782 0.41270 0.48185
 C238 C 0.55747 0.41758 0.36968
 N239 N 0.56290 0.40254 0.24120
 N240 N 0.58801 0.38369 0.22481
 C241 C 0.86508 -0.14284 -0.17995
 N242 N 0.84715 -0.15107 -0.06318
 N243 N 0.82352 -0.17189 -0.07717
 C244 C 0.81687 -0.18511 -0.20859
 N245 N 0.83464 -0.17669 -0.32551
 N246 N 0.85835 -0.15599 -0.31140
 C247 C 0.89200 -0.12101 -0.16350
 N248 N 0.91241 -0.11624 -0.27550
 N249 N 0.93755 -0.09742 -0.25911
 C250 C 0.94301 -0.08240 -0.13062
 N251 N 0.92266 -0.08726 -0.01843
 N252 N 0.89759 -0.10619 -0.03463
 C253 C 0.36367 0.35746 0.31765
 N254 N 0.34570 0.34919 0.43420
 N255 N 0.32213 0.32832 0.41992
 C256 C 0.31559 0.31507 0.28843
 N257 N 0.33340 0.32354 0.17170
 N258 N 0.35705 0.34430 0.18611
 C259 C 0.39057 0.37931 0.33451
 N260 N 0.41108 0.38407 0.22290
 N261 N 0.43624 0.40283 0.23979
 C262 C 0.44162 0.41783 0.36842
 N263 N 0.42115 0.41301 0.48020
 N264 N 0.39607 0.39413 0.46349
 C265 C 0.13510 0.64297 -0.18144
 N266 N 0.14175 0.65618 -0.31285
 N267 N 0.16543 0.67691 -0.32703
 C268 C 0.18324 0.68530 -0.21021
 N269 N 0.17667 0.67202 -0.07884
 N270 N 0.15307 0.65117 -0.06479
 C271 C 0.10819 0.62111 -0.16488
 N272 N 0.10271 0.60620 -0.03613
 N273 N 0.07764 0.58727 -0.01973
 C274 C 0.05719 0.58250 -0.13161
 N275 N 0.06256 0.59761 -0.25999
 N276 N 0.08769 0.61642 -0.27658
 C277 C 0.63658 1.14269 0.32050
 N278 N 0.64429 1.15459 0.18775
 N279 N 0.66797 1.17533 0.17348
 C280 C 0.68472 1.18510 0.29157
 N281 N 0.67709 1.17304 0.42429
 N282 N 0.65351 1.15216 0.43842
 C283 C 0.60963 1.12089 0.33693
 N284 N 0.60354 1.10674 0.46691
 N285 N 0.57841 1.08789 0.48309
 C286 C 0.55849 1.08247 0.36984
 N287 N 0.56445 1.09680 0.24019
 N288 N 0.58967 1.11551 0.22380
 C289 C 0.13513 0.35734 0.17917
 N290 N 0.14182 0.34416 0.31060
 N291 N 0.16546 0.32338 0.32467
 C292 C 0.18319 0.31490 0.20770
 N293 N 0.17658 0.32815 0.07630
 N294 N 0.15301 0.34905 0.06236
 C295 C 0.10826 0.37925 0.16280
 N296 N 0.10268 0.39408 0.03393
 N297 N 0.07763 0.41304 0.01777
 C298 C 0.05730 0.41793 0.13000
 N299 N 0.06276 0.40291 0.25850
 N300 N 0.08788 0.38406 0.27485
 C301 C 0.63628 0.85754 0.68188
 N302 N 0.64289 0.84434 0.81334
 N303 N 0.66654 0.82357 0.82766
 C304 C 0.68436 0.81514 0.71091
 N305 N 0.67783 0.82842 0.57949
 N306 N 0.65426 0.84930 0.56531
 C307 C 0.60939 0.87940 0.66513
 N308 N 0.60393 0.89430 0.53632
 N309 N 0.57887 0.91322 0.51973
 C310 C 0.55838 0.91799 0.63146
 N311 N 0.56371 0.90290 0.75991
 N312 N 0.58885 0.88410 0.77669
 C313 C 0.86454 0.14213 0.18202
 N314 N 0.84649 0.15024 0.06550
 N315 N 0.82276 0.17094 0.07977
 C316 C 0.81615 0.18416 0.21122
 N317 N 0.83404 0.17585 0.32792
 N318 N 0.85784 0.15527 0.31352
 C319 C 0.89158 0.12045 0.16518
 N320 N 0.91211 0.11581 0.27682
 N321 N 0.93734 0.09713 0.26002
 C322 C 0.94278 0.08213 0.13146
 N323 N 0.92231 0.08686 0.01964
 N324 N 0.89715 0.10565 0.03625
 C325 C 0.36390 0.64279 0.68031
 N326 N 0.34597 0.65106 0.56362
 N327 N 0.32236 0.67191 0.57776
 C328 C 0.31576 0.68512 0.70925
 N329 N 0.33352 0.67665 0.82610
 N330 N 0.35720 0.65592 0.81183
 C331 C 0.39081 0.62095 0.66367
 N332 N 0.41124 0.61615 0.77557
 N333 N 0.43638 0.59735 0.75898
 C334 C 0.44183 0.58236 0.63039
 N335 N 0.42146 0.58724 0.51831
 N336 N 0.39638 0.60616 0.53471
   
