data_POSCAR
  _audit_creation_date              2014-09-24
  _audit_creation_method            'ToBaCCo'
  _symmetry_space_group_name_H-M    'P1'
  _symmetry_Int_Tables_number       1
  _symmetry_cell_setting            triclinic
  loop_
  _symmetry_equiv_pos_as_xyz
 x,y,z
_cell_length_a 49.9134
_cell_length_b 10.6643
_cell_length_c 20.7978
_cell_angle_alpha 89.444000
_cell_angle_beta 89.893800
_cell_angle_gamma 91.279100
loop_
  _atom_site_label
  _atom_site_type_symbol
  _atom_site_fract_x
  _atom_site_fract_y
  _atom_site_fract_z
C1 C 0.80489 0.28207 0.43998
 C2 C 0.81746 0.30295 0.49933
 C3 C 0.80503 0.27524 0.55868
 C4 C 0.77704 0.24378 0.55880
 C5 C 0.76290 0.23523 0.49942
 C6 C 0.77692 0.25203 0.43997
 C7 C 0.76214 0.24608 0.38254
 C8 C 0.73495 0.21768 0.38257
 C9 C 0.72047 0.20462 0.44011
 C10 C 0.73447 0.21235 0.49944
 C11 C 0.76230 0.22706 0.61611
 C12 C 0.73506 0.19874 0.61581
 C13 C 0.72015 0.19809 0.55862
 C14 C 0.69162 0.17963 0.55818
 C15 C 0.67889 0.16625 0.49826
 C16 C 0.69239 0.18299 0.43985
 H17 H 0.77085 0.26754 0.33623
 H18 H 0.72559 0.20713 0.33619
 H19 H 0.77100 0.23885 0.66295
 H20 H 0.72632 0.17594 0.66189
 H21 H 0.83864 0.32725 0.49909
 H22 H 0.65732 0.15279 0.49633
 C23 C 0.19412 0.73066 0.55985
 C24 C 0.18050 0.71969 0.50139
 C25 C 0.19373 0.72863 0.44218
 C26 C 0.22204 0.74291 0.44104
 C27 C 0.23644 0.75265 0.49981
 C28 C 0.22243 0.74696 0.55936
 C29 C 0.23717 0.75695 0.61649
 C30 C 0.26477 0.77657 0.61562
 C31 C 0.27948 0.77785 0.55774
 C32 C 0.26494 0.76817 0.49893
 C33 C 0.23639 0.74571 0.38293
 C34 C 0.26395 0.76524 0.38190
 C35 C 0.27871 0.77540 0.43907
 C36 C 0.30679 0.79551 0.43798
 C37 C 0.32056 0.80973 0.49587
 C38 C 0.30800 0.79489 0.55615
 H39 H 0.22770 0.75054 0.66309
 H40 H 0.27390 0.79461 0.66151
 H41 H 0.22668 0.73206 0.33716
 H42 H 0.27337 0.77342 0.33524
 H43 H 0.15881 0.71036 0.50193
 H44 H 0.34215 0.82218 0.49326
 C45 C 0.19244 0.32701 -0.44289
 C46 C 0.18028 0.34807 -0.50278
 C47 C 0.19288 0.32362 -0.56178
 C48 C 0.22067 0.29354 -0.56081
 C49 C 0.23430 0.28162 -0.50092
 C50 C 0.22027 0.29964 -0.44201
 C51 C 0.23497 0.29609 -0.38435
 C52 C 0.26152 0.26158 -0.38315
 C53 C 0.27571 0.24064 -0.44003
 C54 C 0.26224 0.25293 -0.49984
 C55 C 0.23570 0.28033 -0.61753
 C56 C 0.26234 0.24638 -0.61628
 C57 C 0.27663 0.23680 -0.55838
 C58 C 0.30451 0.20777 -0.55665
 C59 C 0.31629 0.18561 -0.49633
 C60 C 0.30296 0.20707 -0.43861
 H61 H 0.22673 0.32355 -0.33888
 H62 H 0.27066 0.25218 -0.33643
 H63 H 0.22774 0.29862 -0.66458
 H64 H 0.27100 0.22571 -0.66227
 H65 H 0.15927 0.37097 -0.50329
 H66 H 0.33731 0.16289 -0.49347
 C67 C -0.30592 0.81118 -0.44223
 C68 C -0.31857 0.82656 -0.50197
 C69 C -0.30613 0.80032 -0.56101
 C70 C -0.27810 0.77466 -0.56038
 C71 C -0.26415 0.76728 -0.50068
 C72 C -0.27799 0.78693 -0.44174
 C73 C -0.26306 0.78820 -0.38442
 C74 C -0.23637 0.75612 -0.38333
 C75 C -0.22232 0.73309 -0.44020
 C76 C -0.23609 0.74117 -0.49981
 C77 C -0.26315 0.76099 -0.61720
 C78 C -0.23639 0.72937 -0.61609
 C79 C -0.22189 0.72302 -0.55838
 C80 C -0.19398 0.69501 -0.55690
 C81 C -0.18184 0.67685 -0.49670
 C82 C -0.19494 0.70122 -0.43898
 H83 H -0.27133 0.81704 -0.33920
 H84 H -0.22707 0.74979 -0.33667
 H85 H -0.27125 0.77704 -0.66429
 H86 H -0.22776 0.70779 -0.66200
 H87 H -0.33971 0.84685 -0.50197
 H88 H -0.16073 0.65553 -0.49423
 O89 O -0.03624 0.78906 0.12342
 O90 O -0.06620 0.89416 0.06041
 C91 C -0.06039 0.81999 0.10785
 O92 O 0.03762 1.23367 0.11429
 O93 O 0.06725 1.12124 0.05437
 C94 C 0.06173 1.20127 0.09872
 O95 O -0.03778 1.21040 0.12065
 O96 O -0.06721 1.09548 0.05872
 C97 C -0.06180 1.17179 0.10533
 O98 O 0.03870 0.78693 0.11484
 O99 O 0.06771 0.91153 0.05521
 C100 C 0.06260 0.82794 0.09946
 Zr101 Zr 0.00081 0.84562 0.08141
 O102 O 0.00311 0.82430 0.18237
 O103 O -0.00015 0.64908 0.07034
 Zr104 Zr -0.00010 1.16569 0.08051
 O105 O 0.00234 1.18335 0.18150
 O106 O -0.00343 1.36261 0.07159
 O107 O -0.02301 1.00189 0.09440
 O108 O 0.02316 1.00911 0.09297
 O109 O 0.03794 0.78740 -0.11412
 O110 O 0.06710 0.90967 -0.05532
 C111 C 0.06189 0.82732 -0.09920
 O112 O -0.03766 1.20803 -0.12200
 O113 O -0.06700 1.09651 -0.05711
 C114 C -0.06164 1.17067 -0.10540
 O115 O 0.03729 1.23320 -0.11632
 O116 O 0.06710 1.12125 -0.05602
 C117 C 0.06143 1.20114 -0.10104
 O118 O -0.03745 0.78892 -0.11761
 O119 O -0.06695 0.89645 -0.05495
 C120 C -0.06149 0.82163 -0.10167
 Zr121 Zr 0.00028 0.84628 -0.07929
 O122 O 0.00231 0.83400 -0.18062
 O123 O -0.00189 0.64843 -0.07149
 Zr124 Zr -0.00024 1.16641 -0.08014
 O125 O 0.00121 1.19236 -0.18092
 O126 O -0.00352 1.36264 -0.07030
 Zr127 Zr -0.03969 0.99992 0.00135
 Zr128 Zr 0.04009 1.01237 0.00007
 O129 O 0.02282 1.00975 -0.09232
 O130 O -0.02337 1.00290 -0.09229
 O131 O 0.02495 0.82609 0.00077
 O132 O -0.02407 1.18465 0.00034
 O133 O -0.02325 0.82006 0.00173
 O134 O 0.02415 1.19394 -0.00026
 H135 H 0.03459 1.01022 0.13184
 H136 H -0.03709 1.25346 0.00004
 H137 H 0.03415 1.01111 -0.13147
 H138 H -0.03583 0.74680 0.00234
 H139 H 0.01413 1.39683 0.05671
 H140 H 0.01454 1.39621 -0.05952
 H141 H 0.00042 1.10769 -0.19977
 H142 H -0.00922 0.90010 -0.19837
 H143 H 0.01481 0.62159 -0.05032
 H144 H -0.00012 0.61340 0.11449
 H145 H -0.00314 0.90353 0.20083
 H146 H -0.00767 1.11086 0.20037
 O147 O 0.46275 0.28106 0.12192
 O148 O 0.43343 0.38857 0.05827
 C149 C 0.43880 0.31506 0.10629
 O150 O 0.53939 0.71237 0.11191
 O151 O 0.56846 0.59616 0.05217
 C152 C 0.56331 0.67675 0.09662
 O153 O 0.46382 0.70128 0.11760
 O154 O 0.43380 0.58957 0.05571
 C155 C 0.43962 0.66558 0.10212
 O156 O 0.53733 0.26534 0.11346
 O157 O 0.56708 0.38433 0.05323
 C158 C 0.56146 0.30237 0.09786
 Zr159 Zr 0.50011 0.32997 0.07908
 O160 O 0.50187 0.30672 0.18000
 O161 O 0.49777 0.13365 0.06747
 Zr162 Zr 0.50128 0.64999 0.07823
 O163 O 0.50374 0.66521 0.17939
 O164 O 0.49935 0.84752 0.06987
 O165 O 0.47734 0.48959 0.09200
 O166 O 0.52356 0.49019 0.09059
 O167 O 0.53677 0.26681 -0.11644
 O168 O 0.56693 0.38498 -0.05818
 C169 C 0.56101 0.30313 -0.10196
 O170 O 0.46417 0.69846 -0.12417
 O171 O 0.43406 0.59049 -0.05978
 C172 C 0.43995 0.66457 -0.10779
 O173 O 0.53904 0.71354 -0.11786
 O174 O 0.56822 0.59718 -0.05796
 C175 C 0.56299 0.67881 -0.10251
 O176 O 0.46155 0.27810 -0.11981
 O177 O 0.43277 0.38972 -0.05718
 C178 C 0.43772 0.31384 -0.10377
 Zr179 Zr 0.49962 0.33078 -0.08162
 O180 O 0.50162 0.31845 -0.18296
 O181 O 0.49620 0.13316 -0.07400
 Zr182 Zr 0.50115 0.65069 -0.08231
 O183 O 0.50293 0.67543 -0.18313
 O184 O 0.49905 0.84756 -0.07280
 Zr185 Zr 0.46067 0.48976 -0.00108
 Zr186 Zr 0.54056 0.49113 -0.00224
 O187 O 0.52323 0.49106 -0.09457
 O188 O 0.47698 0.49059 -0.09467
 O189 O 0.52416 0.30709 -0.00154
 O190 O 0.47747 0.67227 -0.00196
 O191 O 0.47593 0.30762 -0.00059
 O192 O 0.52569 0.67490 -0.00244
 H193 H 0.53498 0.48970 0.12948
 H194 H 0.46495 0.74312 -0.00232
 H195 H 0.53457 0.49136 -0.13370
 H196 H 0.46285 0.23631 0.00020
 H197 H 0.51709 0.87926 0.05484
 H198 H 0.51720 0.87915 -0.06136
 H199 H 0.50086 0.59100 -0.20182
 H200 H 0.49018 0.38492 -0.20072
 H201 H 0.51263 0.10412 -0.05248
 H202 H 0.49706 0.09767 0.11153
 H203 H 0.50009 0.39117 0.19843
 H204 H 0.49214 0.59767 0.19795
 C205 C 0.35761 0.22135 0.28959
 N206 N 0.36360 0.15910 0.34455
 N207 N 0.34619 0.15302 0.39303
 C208 C 0.32190 0.20820 0.38897
 N209 N 0.31629 0.27228 0.33395
 N210 N 0.33365 0.27840 0.28518
 C211 C 0.37762 0.23403 0.23801
 N212 N 0.37275 0.30429 0.18471
 N213 N 0.39191 0.32498 0.14093
 C214 C 0.41659 0.27590 0.14878
 N215 N 0.42127 0.20374 0.20150
 N216 N 0.40211 0.18290 0.24519
 C217 C -0.14153 0.70753 0.28841
 N218 N -0.13556 0.64298 0.34272
 N219 N -0.15283 0.63655 0.39150
 C220 C -0.17693 0.69370 0.38829
 N221 N -0.18259 0.75925 0.33378
 N222 N -0.16536 0.76574 0.28479
 C223 C -0.12149 0.72359 0.23716
 N224 N -0.12661 0.79567 0.18466
 N225 N -0.10742 0.82123 0.14160
 C226 C -0.08245 0.77557 0.14944
 N227 N -0.07750 0.70144 0.20129
 N228 N -0.09669 0.67566 0.24427
 C229 C 0.64258 0.77502 0.28194
 N230 N 0.66722 0.72409 0.27922
 N231 N 0.68389 0.73283 0.32916
 C232 C 0.67688 0.79345 0.38374
 N233 N 0.65180 0.84066 0.38626
 N234 N 0.63510 0.83216 0.33669
 C235 C 0.62345 0.76247 0.22866
 N236 N 0.62875 0.68951 0.17723
 N237 N 0.61008 0.66834 0.13260
 C238 C 0.58553 0.72013 0.13754
 N239 N 0.58055 0.79564 0.18812
 N240 N 0.59917 0.81667 0.23269
 C241 C 0.14188 1.30824 0.28058
 N242 N 0.13514 1.37063 0.33437
 N243 N 0.15186 1.37702 0.38399
 C244 C 0.17620 1.32202 0.38245
 N245 N 0.18255 1.25745 0.32863
 N246 N 0.16586 1.25096 0.27868
 C247 C 0.12244 1.29480 0.22799
 N248 N 0.12762 1.22152 0.17663
 N249 N 0.10869 1.19811 0.13294
 C250 C 0.08396 1.24756 0.13882
 N251 N 0.07904 1.32341 0.18931
 N252 N 0.09795 1.34692 0.23292
 C253 C 0.64026 0.19675 -0.28481
 N254 N 0.66563 0.24448 -0.28081
 N255 N 0.68239 0.23738 -0.33063
 C256 C 0.67467 0.18203 -0.38651
 N257 N 0.64899 0.13697 -0.39017
 N258 N 0.63223 0.14360 -0.34059
 C259 C 0.62092 0.21060 -0.23206
 N260 N 0.62687 0.28291 -0.18039
 N261 N 0.60815 0.30660 -0.13657
 C262 C 0.58287 0.25813 -0.14258
 N263 N 0.57718 0.18327 -0.19339
 N264 N 0.59585 0.15982 -0.23719
 C265 C 0.14320 0.73684 -0.27913
 N266 N 0.13886 0.65435 -0.32732
 N267 N 0.15558 0.65049 -0.37713
 C268 C 0.17735 0.72876 -0.38093
 N269 N 0.18146 0.81293 -0.33310
 N270 N 0.16480 0.81643 -0.28296
 C271 C 0.12346 0.74726 -0.22706
 N272 N 0.12763 0.82932 -0.17847
 N273 N 0.10847 0.84884 -0.13528
 C274 C 0.08441 0.78721 -0.13903
 N275 N 0.08045 0.70309 -0.18685
 N276 N 0.09967 0.68306 -0.22987
 C277 C 0.36001 0.77122 -0.28926
 N278 N 0.33495 0.71981 -0.28499
 N279 N 0.31790 0.72940 -0.33401
 C280 C 0.32506 0.79106 -0.38920
 N281 N 0.35038 0.84063 -0.39307
 N282 N 0.36741 0.83146 -0.34429
 C283 C 0.37967 0.75472 -0.23769
 N284 N 0.40475 0.80497 -0.24430
 N285 N 0.42362 0.78081 -0.20109
 C286 C 0.41810 0.70590 -0.14945
 N287 N 0.39285 0.65760 -0.14204
 N288 N 0.37394 0.68174 -0.18537
 C289 C -0.14286 1.26036 -0.28631
 N290 N -0.16662 1.19605 -0.28419
 N291 N -0.18374 1.20256 -0.33322
 C292 C -0.17803 1.27414 -0.38621
 N293 N -0.15399 1.33688 -0.38787
 N294 N -0.13685 1.33052 -0.33916
 C295 C -0.12292 1.24749 -0.23502
 N296 N -0.09845 1.30455 -0.24129
 N297 N -0.07928 1.28446 -0.19827
 C298 C -0.08390 1.20719 -0.14706
 N299 N -0.10854 1.15197 -0.14003
 N300 N -0.12773 1.17178 -0.18323
 C301 C 0.64327 0.79521 -0.28411
 N302 N 0.66765 0.74183 -0.28125
 N303 N 0.68430 0.74914 -0.33142
 C304 C 0.67746 0.81055 -0.38644
 N305 N 0.65276 0.86174 -0.38893
 N306 N 0.63610 0.85469 -0.33900
 C307 C 0.62384 0.77927 -0.23149
 N308 N 0.62901 0.70339 -0.18042
 N309 N 0.61002 0.67699 -0.13689
 C310 C 0.58525 0.72605 -0.14274
 N311 N 0.58035 0.80447 -0.19292
 N312 N 0.59931 0.83078 -0.23640
 C313 C 0.14093 1.30962 -0.28582
 N314 N 0.16530 1.25623 -0.28256
 N315 N 0.18208 1.26330 -0.33249
 C316 C 0.17544 1.32479 -0.38762
 N317 N 0.15068 1.37545 -0.39064
 N318 N 0.13385 1.36841 -0.34099
 C319 C 0.12160 1.29576 -0.23285
 N320 N 0.09694 1.34598 -0.23816
 N321 N 0.07819 1.32211 -0.19382
 C322 C 0.08345 1.24773 -0.14225
 N323 N 0.10835 1.20010 -0.13608
 N324 N 0.12711 1.22398 -0.18047
 C325 C 0.35446 0.21500 -0.27926
 N326 N 0.35578 0.12180 -0.32295
 N327 N 0.33861 0.11652 -0.37186
 C328 C 0.31947 0.20414 -0.37913
 N329 N 0.31840 0.29809 -0.33563
 N330 N 0.33539 0.30281 -0.28635
 C331 C 0.37484 0.22806 -0.22884
 N332 N 0.37176 0.31245 -0.18117
 N333 N 0.39140 0.33458 -0.13930
 C334 C 0.41494 0.27386 -0.14374
 N335 N 0.41791 0.18793 -0.19084
 N336 N 0.39814 0.16494 -0.23244
 C337 C -0.14343 0.71738 -0.27970
 N338 N -0.16276 0.80377 -0.28748
 N339 N -0.17964 0.79691 -0.33692
 C340 C -0.17821 0.70205 -0.37985
 N341 N -0.15874 0.61623 -0.37203
 N342 N -0.14168 0.62368 -0.32299
 C343 C -0.12336 0.73194 -0.22874
 N344 N -0.09978 0.67103 -0.23187
 N345 N -0.08034 0.69508 -0.18957
 C346 C -0.08395 0.77971 -0.14214
 N347 N -0.10777 0.83816 -0.13817
 N348 N -0.12709 0.81504 -0.18077
 C349 C 0.35796 0.77542 0.27827
 N350 N 0.33653 0.69535 0.28407
 N351 N 0.31966 0.70411 0.33350
 C352 C 0.32334 0.79438 0.37850
 N353 N 0.34482 0.87404 0.37247
 N354 N 0.36178 0.86489 0.32337
 C355 C 0.37808 0.75796 0.22782
 N356 N 0.40227 0.81852 0.23092
 N357 N 0.42164 0.79304 0.18918
 C358 C 0.41741 0.70692 0.14244
 N359 N 0.39304 0.64838 0.13854
 N360 N 0.37374 0.67317 0.18054
 C361 C -0.14334 1.27149 0.28401
 N362 N -0.16716 1.20777 0.28259
 N363 N -0.18425 1.21381 0.33179
 C364 C -0.17840 1.28421 0.38437
 N365 N -0.15438 1.34714 0.38524
 N366 N -0.13729 1.34136 0.33625
 C367 C -0.12328 1.25668 0.23298
 N368 N -0.09871 1.31275 0.23833
 N369 N -0.07945 1.28993 0.19592
 C370 C -0.08406 1.21062 0.14633
 N371 N -0.10880 1.15635 0.14021
 N372 N -0.12807 1.17896 0.18276
 C373 C 0.64166 0.20117 0.27895
 N374 N 0.63695 0.11657 0.32687
 N375 N 0.65355 0.10913 0.37669
 C376 C 0.67556 0.18560 0.38076
 N377 N 0.67991 0.27241 0.33336
 N378 N 0.66341 0.27947 0.28317
 C379 C 0.62219 0.21477 0.22666
 N380 N 0.62687 0.29756 0.17777
 N381 N 0.60797 0.31942 0.13420
 C382 C 0.58371 0.25939 0.13786
 N383 N 0.57924 0.17469 0.18603
 N384 N 0.59820 0.15228 0.22940
 C385 C 0.14289 0.73691 0.28152
 N386 N 0.13779 0.65762 0.33157
 N387 N 0.15435 0.65336 0.38159
 C388 C 0.17671 0.72797 0.38362
 N389 N 0.18150 0.80935 0.33401
 N390 N 0.16500 0.81325 0.28373
 C391 C 0.12352 0.74734 0.22884
 N392 N 0.12802 0.82926 0.17945
 N393 N 0.10910 0.84892 0.13562
 C394 C 0.08503 0.78730 0.13949
 N395 N 0.08079 0.70321 0.18806
 N396 N 0.09974 0.68318 0.23174
   
