data_POSCAR
  _audit_creation_date              2014-09-24
  _audit_creation_method            'ToBaCCo'
  _symmetry_space_group_name_H-M    'P1'
  _symmetry_Int_Tables_number       1
  _symmetry_cell_setting            triclinic
  loop_
  _symmetry_equiv_pos_as_xyz
 x,y,z
_cell_length_a 34.6035
_cell_length_b 35.3519
_cell_length_c 47.6379
_cell_angle_alpha 89.976900
_cell_angle_beta 90.186200
_cell_angle_gamma 121.278400
loop_
  _atom_site_label
  _atom_site_type_symbol
  _atom_site_fract_x
  _atom_site_fract_y
  _atom_site_fract_z
C1 C -0.02491 0.47475 1.24650
 C2 C 0.02112 0.49973 1.24728
 C3 C 0.04665 0.50989 1.27411
 C4 C 0.04848 0.51890 1.22151
 C5 C -0.05034 0.46054 1.21954
 C6 C -0.05219 0.46012 1.27267
 C7 C 0.07694 0.55389 1.28155
 C8 C 0.10065 0.56428 1.30686
 C9 C 0.09518 0.53078 1.32578
 C10 C 0.06508 0.48625 1.31741
 C11 C 0.04135 0.47612 1.29201
 C12 C 0.04144 0.54649 1.20373
 C13 C 0.06847 0.56534 1.17998
 C14 C 0.10296 0.55688 1.17369
 C15 C 0.11009 0.52957 1.19170
 C16 C 0.08327 0.51096 1.21544
 C17 C -0.04046 0.43836 1.19896
 C18 C -0.06532 0.42446 1.17395
 C19 C -0.10088 0.43206 1.16919
 C20 C -0.11103 0.45371 1.19004
 C21 C -0.08607 0.46774 1.21493
 C22 C -0.08483 0.41524 1.27646
 C23 C -0.11007 0.40085 1.30114
 C24 C -0.10317 0.43108 1.32262
 C25 C -0.07110 0.47622 1.31849
 C26 C -0.04622 0.49064 1.29365
 H27 H 0.08215 0.58046 1.26770
 H28 H 0.12493 0.59894 1.31043
 H29 H 0.05740 0.45856 1.33080
 H30 H 0.01832 0.44177 1.28646
 H31 H 0.01525 0.55364 1.20835
 H32 H 0.06216 0.58614 1.16640
 H33 H 0.08952 0.49017 1.22908
 H34 H -0.01366 0.43159 1.20233
 H35 H -0.05653 0.40807 1.15827
 H36 H -0.13879 0.45924 1.18731
 H37 H -0.09460 0.48431 1.23066
 H38 H -0.09041 0.39122 1.26040
 H39 H -0.13521 0.36602 1.30333
 H40 H -0.06468 0.50037 1.33463
 H41 H -0.02196 0.52560 1.29089
 H42 H 0.13689 0.52307 1.18762
 C43 C 0.52345 0.49788 1.25356
 C44 C 0.49882 0.51795 1.25365
 C45 C 0.48894 0.53418 1.27988
 C46 C 0.48054 0.52500 1.22722
 C47 C 0.53861 0.48801 1.22683
 C48 C 0.53690 0.48524 1.27999
 C49 C 0.44466 0.52386 1.28518
 C50 C 0.43487 0.53990 1.30917
 C51 C 0.46913 0.56653 1.32855
 C52 C 0.51361 0.57717 1.32310
 C53 C 0.52349 0.56148 1.29887
 C54 C 0.45162 0.48922 1.20978
 C55 C 0.43429 0.49630 1.18511
 C56 C 0.44569 0.53929 1.17749
 C57 C 0.47425 0.57492 1.19517
 C58 C 0.49129 0.56779 1.21988
 C59 C 0.56322 0.52146 1.20701
 C60 C 0.57693 0.51175 1.18184
 C61 C 0.56677 0.46850 1.17616
 C62 C 0.54304 0.43534 1.19637
 C63 C 0.52920 0.44504 1.22146
 C64 C 0.58213 0.49763 1.28411
 C65 C 0.59552 0.48649 1.30887
 C66 C 0.56394 0.46265 1.33011
 C67 C 0.51840 0.44940 1.32571
 C68 C 0.50496 0.46034 1.30080
 H69 H 0.41757 0.50336 1.27065
 H70 H 0.40046 0.53194 1.31229
 H71 H 0.54076 0.59738 1.33763
 H72 H 0.55813 0.57082 1.29488
 H73 H 0.44243 0.45586 1.21535
 H74 H 0.41246 0.46831 1.17180
 H75 H 0.51323 0.59572 1.23321
 H76 H 0.57168 0.55508 1.21100
 H77 H 0.59495 0.53797 1.16667
 H78 H 0.53551 0.40190 1.19290
 H79 H 0.51075 0.41890 1.23662
 H80 H 0.60725 0.51639 1.26822
 H81 H 0.63065 0.49633 1.31129
 H82 H 0.49327 0.43118 1.34168
 H83 H 0.46967 0.44960 1.29781
 H84 H 0.48301 0.60829 1.19002
 C85 C 0.48280 1.02495 1.24923
 C86 C 0.46123 0.97991 1.24953
 C87 C 0.44728 0.95429 1.27615
 C88 C 0.45055 0.95380 1.22317
 C89 C 0.49313 1.05004 1.22249
 C90 C 0.49696 1.05151 1.27554
 C91 C 0.46068 0.92386 1.28162
 C92 C 0.44810 0.89951 1.30648
 C93 C 0.42139 0.90467 1.32678
 C94 C 0.40741 0.93500 1.32070
 C95 C 0.42004 0.95925 1.29571
 C96 C 0.48474 0.96125 1.20416
 C97 C 0.47411 0.93625 1.17950
 C98 C 0.42911 0.90330 1.17348
 C99 C 0.39511 0.89560 1.19276
 C100 C 0.40578 0.92045 1.21742
 C101 C 0.45887 1.04163 1.20322
 C102 C 0.46912 1.06553 1.17815
 C103 C 0.51410 1.09875 1.17165
 C104 C 0.54809 1.10722 1.19160
 C105 C 0.53764 1.08335 1.21662
 C106 C 0.48335 1.08190 1.28041
 C107 C 0.49573 1.10679 1.30511
 C108 C 0.52249 1.10226 1.32581
 C109 C 0.53684 1.07210 1.32029
 C110 C 0.52437 1.04727 1.29548
 H111 H 0.48108 0.91897 1.26655
 H112 H 0.45814 0.87540 1.30895
 H113 H 0.38809 0.94166 1.33552
 H114 H 0.40875 0.98216 1.29171
 H115 H 0.51962 0.98638 1.20846
 H116 H 0.50096 0.94304 1.16498
 H117 H 0.37901 0.91395 1.23196
 H118 H 0.42411 1.01634 1.20753
 H119 H 0.44163 1.05639 1.16357
 H120 H 0.58282 1.13353 1.18873
 H121 H 0.56448 1.09085 1.23147
 H122 H 0.46281 1.08625 1.26506
 H123 H 0.48540 1.13073 1.30717
 H124 H 0.55623 1.06591 1.33544
 H125 H 0.53581 1.02438 1.29194
 H126 H 0.36027 0.86996 1.18891
 C127 C 1.02648 0.49063 0.75300
 C128 C 0.98040 0.46706 0.75232
 C129 C 0.95481 0.45273 0.72539
 C130 C 0.95301 0.45370 0.77846
 C131 C 1.05201 0.50125 0.77980
 C132 C 1.05401 0.50560 0.72696
 C133 C 0.92123 0.46273 0.72002
 C134 C 0.89674 0.44949 0.69492
 C135 C 0.90533 0.42592 0.67459
 C136 C 0.93858 0.41535 0.68022
 C137 C 0.96278 0.42827 0.70548
 C138 C 0.95938 0.48494 0.79903
 C139 C 0.93297 0.47167 0.82334
 C140 C 0.89924 0.42700 0.82737
 C141 C 0.89247 0.39604 0.80645
 C142 C 0.91904 0.40927 0.78230
 C143 C 1.04761 0.46763 0.79754
 C144 C 1.07337 0.47811 0.82214
 C145 C 1.10408 0.52266 0.82977
 C146 C 1.10786 0.55610 0.81162
 C147 C 1.08250 0.54545 0.78692
 C148 C 1.08638 0.49389 0.72237
 C149 C 1.11163 0.50623 0.69770
 C150 C 1.10546 0.53097 0.67672
 C151 C 1.07354 0.54370 0.68203
 C152 C 1.04833 0.53128 0.70683
 H153 H 0.91411 0.48103 0.73526
 H154 H 0.87066 0.45726 0.69160
 H155 H 0.94624 0.39747 0.66499
 H156 H 0.98783 0.41930 0.70947
 H157 H 0.98471 0.51959 0.79622
 H158 H 0.93924 0.49631 0.83908
 H159 H 0.91317 0.38470 0.76657
 H160 H 1.02439 0.43323 0.79222
 H161 H 1.06780 0.45100 0.83550
 H162 H 1.13201 0.59074 0.81554
 H163 H 1.08680 0.57181 0.77320
 H164 H 1.09184 0.47467 0.73786
 H165 H 1.13704 0.49732 0.69582
 H166 H 1.06613 0.56159 0.66667
 H167 H 1.02385 0.54116 0.71014
 H168 H 0.86619 0.36157 0.80857
 C169 C 0.51234 0.53794 0.74630
 C170 C 0.53108 0.51242 0.74600
 C171 C 0.54191 0.49924 0.71908
 C172 C 0.54234 0.49728 0.77220
 C173 C 0.50396 0.55470 0.77268
 C174 C 0.50024 0.55134 0.71991
 C175 C 0.51297 0.45684 0.70817
 C176 C 0.52344 0.44404 0.68294
 C177 C 0.56347 0.47326 0.66841
 C178 C 0.59222 0.51593 0.67951
 C179 C 0.58136 0.52885 0.70453
 C180 C 0.50984 0.47495 0.79321
 C181 C 0.52155 0.46260 0.81825
 C182 C 0.56587 0.47190 0.82260
 C183 C 0.59784 0.49289 0.80110
 C184 C 0.58619 0.50540 0.77619
 C185 C 0.53961 0.58172 0.79108
 C186 C 0.53115 0.59726 0.81592
 C187 C 0.48690 0.58591 0.82274
 C188 C 0.45147 0.55932 0.80406
 C189 C 0.45997 0.54408 0.77922
 C190 C 0.53010 0.59283 0.70824
 C191 C 0.51787 0.60681 0.68419
 C192 C 0.47508 0.57984 0.67169
 C193 C 0.44557 0.53782 0.68333
 C194 C 0.45822 0.52360 0.70712
 H195 H 0.48220 0.43379 0.71914
 H196 H 0.50003 0.41131 0.67478
 H197 H 0.62363 0.53908 0.66922
 H198 H 0.60405 0.56171 0.71283
 H199 H 0.47551 0.46748 0.79034
 H200 H 0.49617 0.44660 0.83441
 H201 H 0.61175 0.52219 0.76022
 H202 H 0.57389 0.59069 0.78619
 H203 H 0.55902 0.61757 0.83000
 H204 H 0.41716 0.55062 0.80859
 H205 H 0.43205 0.52347 0.76525
 H206 H 0.56279 0.61444 0.71788
 H207 H 0.54190 0.63888 0.67548
 H208 H 0.41217 0.51639 0.67459
 H209 H 0.43482 0.49145 0.71602
 H210 H 0.63199 0.49964 0.80351
 C211 C 0.48096 -0.02661 0.75173
 C212 C 0.50743 0.01813 0.75052
 C213 C 0.51766 0.04125 0.72323
 C214 C 0.52619 0.04589 0.77609
 C215 C 0.46628 -0.05080 0.77866
 C216 C 0.46460 -0.05357 0.72588
 C217 C 0.56009 0.05772 0.71092
 C218 C 0.56987 0.07953 0.68511
 C219 C 0.53763 0.08608 0.67144
 C220 C 0.49497 0.06925 0.68399
 C221 C 0.48501 0.04675 0.70956
 C222 C 0.55170 0.03811 0.79570
 C223 C 0.56810 0.06383 0.82007
 C224 C 0.55953 0.09798 0.82513
 C225 C 0.53510 0.10644 0.80504
 C226 C 0.51870 0.08072 0.78076
 C227 C 0.43894 -0.04431 0.79723
 C228 C 0.42439 -0.06821 0.82231
 C229 C 0.43742 -0.09881 0.82961
 C230 C 0.46506 -0.10483 0.81056
 C231 C 0.47883 -0.08147 0.78536
 C232 C 0.41919 -0.07361 0.71814
 C233 C 0.40322 -0.09964 0.69396
 C234 C 0.43220 -0.10714 0.67703
 C235 C 0.47820 -0.08631 0.68526
 C236 C 0.49408 -0.05980 0.70928
 H237 H 0.58543 0.05327 0.72118
 H238 H 0.60265 0.09104 0.67584
 H239 H 0.46956 0.07423 0.67439
 H240 H 0.45207 0.03417 0.71894
 H241 H 0.55870 0.01198 0.79221
 H242 H 0.58672 0.05647 0.83518
 H243 H 0.49949 0.08760 0.76582
 H244 H 0.42879 -0.02080 0.79224
 H245 H 0.40435 -0.06119 0.83633
 H246 H 0.47461 -0.12909 0.81428
 H247 H 0.49950 -0.08725 0.77104
 H248 H 0.39616 -0.06856 0.73067
 H249 H 0.36828 -0.11246 0.68838
 H250 H 0.50208 -0.09171 0.67413
 H251 H 0.52929 -0.04480 0.71528
 H252 H 0.52874 0.13309 0.80805
 O253 O 0.41292 0.67369 0.96833
 O254 O 0.41474 0.74675 0.97904
 C255 C 0.38633 0.75154 0.96496
 O256 O 0.34450 0.73094 0.97066
 O257 O 0.26875 0.65658 0.97861
 C258 C 0.26342 0.62441 0.96361
 O259 O 0.28396 0.60401 0.96848
 O260 O 0.35857 0.60418 0.97712
 C261 C 0.39171 0.63272 0.96258
 O262 O 0.41562 0.65944 1.02381
 O263 O 0.41330 0.73054 1.03453
 C264 C 0.39147 0.74914 1.04080
 O265 O 0.35733 0.74311 1.02679
 O266 O 0.28320 0.66695 1.03473
 C267 C 0.26291 0.62564 1.03921
 O268 O 0.26903 0.59957 1.02414
 O269 O 0.34571 0.60415 1.03304
 C270 C 0.38778 0.62612 1.03829
 Cr271 Cr 0.41174 0.70138 1.00145
 Cr272 Cr 0.31467 0.69830 1.00267
 Cr273 Cr 0.31552 0.60533 1.00073
 O274 O 0.34728 0.66838 1.00161
 O275 O 0.58328 0.33750 0.97478
 O276 O 0.58704 0.26684 0.96760
 C277 C 0.60990 0.24968 0.96078
 O278 O 0.64611 0.25847 0.97340
 O279 O 0.71910 0.33505 0.96568
 C280 C 0.73741 0.37565 0.95959
 O281 O 0.72975 0.40206 0.97315
 O282 O 0.65214 0.39587 0.96705
 C283 C 0.61051 0.37217 0.96109
 O284 O 0.58750 0.32816 1.03095
 O285 O 0.58797 0.25575 1.02373
 C286 C 0.61753 0.25112 1.03660
 O287 O 0.65875 0.27147 1.02955
 O288 O 0.73340 0.34636 1.02174
 C289 C 0.73971 0.38020 1.03520
 O290 O 0.71909 0.40012 1.02941
 O291 O 0.64327 0.39760 1.02342
 C292 C 0.60903 0.36887 1.03714
 Cr293 Cr 0.58910 0.29848 0.99923
 Cr294 Cr 0.68793 0.30399 0.99762
 Cr295 Cr 0.68478 0.39633 0.99826
 O296 O 0.65394 0.33292 0.99836
 O297 O 0.65204 0.39186 0.52641
 O298 O 0.72993 0.39815 0.53302
 C299 C 0.75299 0.38038 0.53785
 O300 O 0.74959 0.34878 0.52310
 O301 O 0.67765 0.27305 0.53321
 C302 C 0.63646 0.25018 0.54013
 O303 O 0.60513 0.25078 0.52644
 O304 O 0.60141 0.32127 0.53596
 C305 C 0.62041 0.36220 0.54139
 O306 O 0.66198 0.39055 0.47032
 O307 O 0.74150 0.40092 0.47669
 C308 C 0.74862 0.37518 0.46188
 O309 O 0.73144 0.33453 0.46754
 O310 O 0.66155 0.25642 0.47744
 C311 C 0.62593 0.24760 0.46403
 O312 O 0.60217 0.26395 0.47062
 O313 O 0.59418 0.33193 0.48009
 C314 C 0.62000 0.36615 0.46554
 Cr315 Cr 0.69534 0.39302 0.50162
 Cr316 Cr 0.70367 0.30411 0.50035
 Cr317 Cr 0.60311 0.29337 0.50322
 O318 O 0.66737 0.33018 0.50166
 O319 O 0.33889 0.60308 0.52139
 O320 O 0.26736 0.60755 0.53103
 C321 C 0.24905 0.62955 0.53711
 O322 O 0.25573 0.66289 0.52291
 O323 O 0.33418 0.73366 0.53120
 C324 C 0.37616 0.75296 0.53618
 O325 O 0.40308 0.74725 0.52117
 O326 O 0.39671 0.67142 0.52982
 C327 C 0.37394 0.63041 0.53529
 O328 O 0.32474 0.60502 0.46585
 O329 O 0.25111 0.60574 0.47514
 C330 C 0.24726 0.63437 0.46117
 O331 O 0.26947 0.67526 0.46700
 O332 O 0.34598 0.74858 0.47515
 C333 C 0.37844 0.75266 0.46026
 O334 O 0.39815 0.73160 0.46534
 O335 O 0.39638 0.65798 0.47384
 C336 C 0.36647 0.62449 0.46017
 Cr337 Cr 0.29677 0.60772 0.49836
 Cr338 Cr 0.30246 0.70389 0.49903
 Cr339 Cr 0.39618 0.70093 0.49757
 O340 O 0.33179 0.67081 0.49823
 C341 C 0.48815 0.62642 0.36417
 C342 C 0.45825 0.58335 0.35410
 C343 C 0.41706 0.55665 0.36813
 C344 C 0.40524 0.57302 0.39124
 C345 C 0.43535 0.61643 0.40106
 C346 C 0.47691 0.64273 0.38751
 C347 C 0.42306 0.63296 0.42397
 C348 C 0.38064 0.60684 0.43682
 C349 C 0.35111 0.56365 0.42684
 C350 C 0.36341 0.54681 0.40441
 H351 H 0.39400 0.52309 0.36103
 H352 H 0.50038 0.67616 0.39466
 H353 H 0.44602 0.66640 0.43135
 H354 H 0.33993 0.51345 0.39713
 H355 H 0.51985 0.64796 0.35361
 H356 H 0.31836 0.54272 0.43643
 C357 C 0.36946 0.87057 0.36707
 C358 C 0.40880 0.87987 0.35221
 C359 C 0.43503 0.86320 0.36331
 C360 C 0.42189 0.83730 0.38771
 C361 C 0.38215 0.82791 0.40189
 C362 C 0.35641 0.84499 0.39151
 C363 C 0.36853 0.80112 0.42598
 C364 C 0.39405 0.78322 0.43594
 C365 C 0.43393 0.79338 0.42178
 C366 C 0.44781 0.82029 0.39801
 H367 H 0.46663 0.87117 0.35363
 H368 H 0.32564 0.83793 0.40202
 H369 H 0.33762 0.79349 0.43657
 H370 H 0.47852 0.82728 0.38744
 H371 H 0.34710 0.88107 0.35936
 H372 H 0.45438 0.78025 0.42897
 C373 C 0.12551 0.51034 0.36544
 C374 C 0.11831 0.54121 0.35084
 C375 C 0.13647 0.58369 0.36318
 C376 C 0.16189 0.59530 0.38804
 C377 C 0.16949 0.56431 0.40162
 C378 C 0.15073 0.52182 0.39031
 C379 C 0.19628 0.57659 0.42603
 C380 C 0.21586 0.61978 0.43688
 C381 C 0.20708 0.65001 0.42344
 C382 C 0.18024 0.63784 0.39935
 H383 H 0.12969 0.60789 0.35442
 H384 H 0.15636 0.49759 0.40039
 H385 H 0.20275 0.55291 0.43612
 H386 H 0.17454 0.66203 0.38929
 H387 H 0.11436 0.47779 0.35718
 H388 H 0.22146 0.68342 0.43132
 C389 C 0.62053 0.48310 0.36889
 C390 C 0.57882 0.45194 0.35669
 C391 C 0.55213 0.41047 0.36973
 C392 C 0.56749 0.39996 0.39415
 C393 C 0.61000 0.43126 0.40569
 C394 C 0.63600 0.47285 0.39309
 C395 C 0.62626 0.42031 0.42938
 C396 C 0.60071 0.37833 0.44188
 C397 C 0.55793 0.34775 0.43071
 C398 C 0.54150 0.35844 0.40701
 H399 H 0.52007 0.38598 0.36047
 H400 H 0.66852 0.49736 0.40182
 H401 H 0.65920 0.44439 0.43784
 H402 H 0.50876 0.33403 0.39851
 H403 H 0.64130 0.51560 0.35970
 H404 H 0.53762 0.31516 0.43986
 C405 C 0.50757 0.14353 0.36168
 C406 C 0.53450 0.12734 0.35117
 C407 C 0.57373 0.13722 0.36663
 C408 C 0.58599 0.16306 0.39118
 C409 C 0.55882 0.17930 0.40082
 C410 C 0.51959 0.16907 0.38606
 C411 C 0.57152 0.20600 0.42491
 C412 C 0.61144 0.21713 0.43959
 C413 C 0.63806 0.20036 0.43000
 C414 C 0.62545 0.17358 0.40604
 H415 H 0.59633 0.12692 0.35911
 H416 H 0.49803 0.18083 0.39339
 H417 H 0.55055 0.21861 0.43194
 H418 H 0.64682 0.16145 0.39898
 H419 H 0.47602 0.13543 0.35177
 H420 H 0.66902 0.20842 0.44078
 C421 C 0.86076 0.37484 0.36106
 C422 C 0.87080 0.41541 0.34921
 C423 C 0.85565 0.44067 0.36285
 C424 C 0.83051 0.42542 0.38773
 C425 C 0.82002 0.38423 0.39907
 C426 C 0.83550 0.35933 0.38567
 C427 C 0.79390 0.36839 0.42349
 C428 C 0.77816 0.39323 0.43695
 C429 C 0.78950 0.43457 0.42580
 C430 C 0.81532 0.45046 0.40135
 H431 H 0.86262 0.47176 0.35387
 H432 H 0.82804 0.32783 0.39420
 H433 H 0.78564 0.33655 0.43191
 H434 H 0.82311 0.48217 0.39300
 H435 H 0.87276 0.35512 0.35141
 H436 H 0.77767 0.45431 0.43566
 C437 C 0.62336 0.48715 1.13758
 C438 C 0.58073 0.45781 1.14929
 C439 C 0.55156 0.41772 1.13539
 C440 C 0.56504 0.40659 1.11057
 C441 C 0.60813 0.43608 1.09912
 C442 C 0.63690 0.47643 1.11270
 C443 C 0.62196 0.42434 1.07461
 C444 C 0.59347 0.38312 1.06166
 C445 C 0.55047 0.35438 1.07314
 C446 C 0.53632 0.36609 1.09725
 H447 H 0.51830 0.39512 1.14389
 H448 H 0.67011 0.49943 1.10430
 H449 H 0.65529 0.44670 1.06611
 H450 H 0.50314 0.34314 1.10571
 H451 H 0.64668 0.51804 1.14799
 H452 H 0.52775 0.32252 1.06356
 C453 C 0.85937 0.37579 1.13086
 C454 C 0.87221 0.41710 1.14281
 C455 C 0.85805 0.44365 1.12986
 C456 C 0.83045 0.42875 1.10589
 C457 C 0.81720 0.38693 1.09427
 C458 C 0.83221 0.36089 1.10678
 C459 C 0.78852 0.37158 1.07070
 C460 C 0.77239 0.39730 1.05884
 C461 C 0.78636 0.43909 1.07046
 C462 C 0.81525 0.45474 1.09365
 H463 H 0.86832 0.47590 1.13853
 H464 H 0.82235 0.32869 1.09822
 H465 H 0.77788 0.33921 1.06207
 H466 H 0.82516 0.48691 1.10227
 H467 H 0.86940 0.35446 1.14055
 H468 H 0.77468 0.45972 1.06173
 C469 C 0.49263 0.12913 1.13175
 C470 C 0.52493 0.12313 1.14611
 C471 C 0.56868 0.14261 1.13437
 C472 C 0.58008 0.16796 1.10977
 C473 C 0.54756 0.17420 1.09614
 C474 C 0.50386 0.15436 1.10720
 C475 C 0.55945 0.20058 1.07189
 C476 C 0.60369 0.22098 1.06114
 C477 C 0.63548 0.21376 1.07473
 C478 C 0.62378 0.18747 1.09872
 H479 H 0.59398 0.13719 1.14369
 H480 H 0.47846 0.15891 1.09710
 H481 H 0.53452 0.20579 1.06172
 H482 H 0.64915 0.18288 1.10884
 H483 H 0.45900 0.11628 1.13999
 H484 H 0.66976 0.22885 1.06700
 C485 C 0.38219 0.52032 1.14380
 C486 C 0.42801 0.54730 1.15122
 C487 C 0.45691 0.58294 1.13381
 C488 C 0.44016 0.59230 1.10966
 C489 C 0.39382 0.56567 1.10266
 C490 C 0.36519 0.52948 1.11974
 C491 C 0.37685 0.57612 1.07899
 C492 C 0.40569 0.61295 1.06223
 C493 C 0.45192 0.63852 1.06920
 C494 C 0.46896 0.62830 1.09265
 H495 H 0.49246 0.60351 1.13913
 H496 H 0.32958 0.50863 1.11471
 H497 H 0.34116 0.55604 1.07391
 H498 H 0.50460 0.64894 1.09768
 H499 H 0.35927 0.49281 1.15701
 H500 H 0.47501 0.66705 1.05675
 C501 C 0.14952 0.62102 1.14145
 C502 C 0.13162 0.57633 1.14847
 C503 C 0.14219 0.55030 1.13168
 C504 C 0.17096 0.56872 1.10856
 C505 C 0.18956 0.61390 1.10193
 C506 C 0.17833 0.63969 1.11840
 C507 C 0.21931 0.63249 1.07911
 C508 C 0.23054 0.60635 1.06281
 C509 C 0.21120 0.56129 1.06953
 C510 C 0.18177 0.54270 1.09215
 H511 H 0.12799 0.51561 1.13665
 H512 H 0.19218 0.67436 1.11365
 H513 H 0.23382 0.66722 1.07420
 H514 H 0.16773 0.50800 1.09694
 H515 H 0.14207 0.64179 1.15421
 H516 H 0.21918 0.54029 1.05745
 C517 C 0.37885 0.86749 1.13172
 C518 C 0.41745 0.87683 1.14726
 C519 C 0.44422 0.86008 1.13789
 C520 C 0.43213 0.83372 1.11362
 C521 C 0.39303 0.82431 1.09834
 C522 C 0.36680 0.84157 1.10747
 C523 C 0.38045 0.79737 1.07437
 C524 C 0.40618 0.77920 1.06545
 C525 C 0.44518 0.78900 1.08074
 C526 C 0.45809 0.81608 1.10454
 H527 H 0.47379 0.86667 1.14985
 H528 H 0.33679 0.83480 1.09597
 H529 H 0.35019 0.79005 1.06294
 H530 H 0.48816 0.82291 1.11600
 H531 H 0.35804 0.88049 1.13829
 H532 H 0.46566 0.77551 1.07441
 C533 C 0.59818 0.48921 0.62021
 C534 C 0.57574 0.45902 0.64218
 C535 C 0.56580 0.41523 0.63917
 C536 C 0.57825 0.40191 0.61481
 C537 C 0.60159 0.43281 0.59317
 C538 C 0.61117 0.47631 0.59603
 C539 C 0.61514 0.41973 0.56914
 C540 C 0.60508 0.37591 0.56627
 C541 C 0.58108 0.34529 0.58774
 C542 C 0.56802 0.35822 0.61184
 H543 H 0.54920 0.39162 0.65600
 H544 H 0.62869 0.50037 0.57955
 H545 H 0.63339 0.44361 0.55268
 H546 H 0.55006 0.33406 0.62819
 H547 H 0.60554 0.52289 0.62160
 H548 H 0.57309 0.31140 0.58614
 C549 C 0.51576 0.10024 0.62376
 C550 C 0.54889 0.11137 0.64465
 C551 C 0.59291 0.14743 0.64000
 C552 C 0.60370 0.17189 0.61508
 C553 C 0.56994 0.16097 0.59452
 C554 C 0.52611 0.12495 0.59903
 C555 C 0.58061 0.18639 0.56990
 C556 C 0.62486 0.22208 0.56542
 C557 C 0.65829 0.23198 0.58584
 C558 C 0.64775 0.20733 0.61049
 H559 H 0.61874 0.15713 0.65598
 H560 H 0.49985 0.11581 0.58342
 H561 H 0.55461 0.17833 0.55426
 H562 H 0.67406 0.21609 0.62601
 H563 H 0.48179 0.07219 0.62642
 H564 H 0.69256 0.25951 0.58303
 C565 C 0.86524 0.37045 0.63591
 C566 C 0.87921 0.41204 0.64784
 C567 C 0.86718 0.43996 0.63442
 C568 C 0.84069 0.42618 0.60994
 C569 C 0.82660 0.38419 0.59828
 C570 C 0.83936 0.35674 0.61131
 C571 C 0.79922 0.37001 0.57415
 C572 C 0.78493 0.39691 0.56182
 C573 C 0.79944 0.43874 0.57351
 C574 C 0.82735 0.45338 0.59721
 H575 H 0.87830 0.47242 0.64305
 H576 H 0.82868 0.32435 0.60274
 H577 H 0.78787 0.33748 0.56552
 H578 H 0.83784 0.48567 0.60588
 H579 H 0.87344 0.34799 0.64594
 H580 H 0.78898 0.46011 0.56439
 C581 C 0.47428 0.64113 0.64548
 C582 C 0.46079 0.59616 0.64729
 C583 C 0.43282 0.56694 0.62604
 C584 C 0.41828 0.58230 0.60357
 C585 C 0.43256 0.62763 0.60195
 C586 C 0.46060 0.65674 0.62296
 C587 C 0.41829 0.64310 0.57948
 C588 C 0.38921 0.61375 0.55872
 C589 C 0.37476 0.56862 0.56067
 C590 C 0.38944 0.55308 0.58278
 H591 H 0.42249 0.53231 0.62684
 H592 H 0.47153 0.69153 0.62217
 H593 H 0.42933 0.67792 0.57840
 H594 H 0.37802 0.51818 0.58371
 H595 H 0.49485 0.66431 0.66176
 H596 H 0.35242 0.54535 0.54492
 C597 C 0.36905 0.83232 0.65021
 C598 C 0.41551 0.86497 0.65288
 C599 C 0.44468 0.86849 0.63086
 C600 C 0.42813 0.84035 0.60739
 C601 C 0.38159 0.80849 0.60528
 C602 C 0.35242 0.80479 0.62674
 C603 C 0.36492 0.78052 0.58183
 C604 C 0.39427 0.78344 0.56046
 C605 C 0.44068 0.81502 0.56281
 C606 C 0.45742 0.84348 0.58597
 H607 H 0.48015 0.89389 0.63116
 H608 H 0.31666 0.78004 0.62560
 H609 H 0.32910 0.75599 0.58046
 H610 H 0.49330 0.86770 0.58722
 H611 H 0.34509 0.82619 0.66667
 H612 H 0.46399 0.81795 0.54663
 C613 C 0.14797 0.51666 0.64106
 C614 C 0.13054 0.54244 0.65125
 C615 C 0.13909 0.57987 0.63535
 C616 C 0.16488 0.59153 0.61064
 C617 C 0.18239 0.56555 0.60129
 C618 C 0.17347 0.52809 0.61652
 C619 C 0.20899 0.57763 0.57702
 C620 C 0.21876 0.61573 0.56184
 C621 C 0.20077 0.64120 0.57114
 C622 C 0.17409 0.62922 0.59530
 H623 H 0.12779 0.60152 0.64262
 H624 H 0.18618 0.50744 0.60943
 H625 H 0.22254 0.55757 0.57019
 H626 H 0.16099 0.64966 0.60213
 H627 H 0.14083 0.48643 0.65133
 H628 H 0.20780 0.67079 0.55997
 C629 C 0.50456 0.64565 0.85797
 C630 C 0.47728 0.60141 0.84923
 C631 C 0.43978 0.57202 0.86555
 C632 C 0.42897 0.58672 0.88991
 C633 C 0.45595 0.63150 0.89824
 C634 C 0.49392 0.66062 0.88224
 C635 C 0.44417 0.64641 0.92222
 C636 C 0.40577 0.61704 0.93801
 C637 C 0.37977 0.57240 0.92968
 C638 C 0.39123 0.55742 0.90589
 H639 H 0.41895 0.53766 0.85922
 H640 H 0.51508 0.69504 0.88830
 H641 H 0.46462 0.68088 0.92837
 H642 H 0.37027 0.52297 0.89982
 H643 H 0.53348 0.66892 0.84562
 H644 H 0.35001 0.54898 0.94135
 C645 C 0.14354 0.50458 0.86579
 C646 C 0.13090 0.53365 0.85453
 C647 C 0.14643 0.57444 0.86843
 C648 C 0.17427 0.58616 0.89226
 C649 C 0.18747 0.55714 0.90265
 C650 C 0.17164 0.51632 0.88938
 C651 C 0.21641 0.56952 0.92604
 C652 C 0.23183 0.61042 0.93945
 C653 C 0.21760 0.63858 0.92923
 C654 C 0.18923 0.62664 0.90583
 H655 H 0.13585 0.59684 0.86144
 H656 H 0.18144 0.49361 0.89704
 H657 H 0.22684 0.54732 0.93380
 H658 H 0.17928 0.64926 0.89822
 H659 H 0.13381 0.47346 0.85570
 H660 H 0.22903 0.67033 0.93904
 C661 C 0.38141 0.86573 0.86763
 C662 C 0.42291 0.87675 0.85503
 C663 C 0.44938 0.86204 0.86826
 C664 C 0.43446 0.83629 0.89267
 C665 C 0.39218 0.82433 0.90435
 C666 C 0.36614 0.83959 0.89181
 C667 C 0.37657 0.79705 0.92821
 C668 C 0.40318 0.78217 0.94075
 C669 C 0.44579 0.79542 0.92932
 C670 C 0.46121 0.82207 0.90548
 H671 H 0.48246 0.87161 0.86020
 H672 H 0.33361 0.83081 0.90048
 H673 H 0.34378 0.78733 0.93690
 H674 H 0.49387 0.83114 0.89688
 H675 H 0.35920 0.87517 0.85814
 H676 H 0.46693 0.78432 0.93843
 C677 C 0.62184 0.48967 0.86142
 C678 C 0.57921 0.46040 0.84950
 C679 C 0.55002 0.42012 0.86322
 C680 C 0.56372 0.40887 0.88807
 C681 C 0.60706 0.43825 0.89938
 C682 C 0.63564 0.47870 0.88606
 C683 C 0.62150 0.42650 0.92359
 C684 C 0.59335 0.38554 0.93680
 C685 C 0.54988 0.35691 0.92575
 C686 C 0.53521 0.36845 0.90159
 H687 H 0.51720 0.39707 0.85420
 H688 H 0.66885 0.50176 0.89458
 H689 H 0.65505 0.44910 0.93186
 H690 H 0.50182 0.34551 0.89327
 H691 H 0.64459 0.52129 0.85168
 H692 H 0.52751 0.32512 0.93542
 C693 C 0.85856 0.37171 0.86571
 C694 C 0.87095 0.41248 0.85313
 C695 C 0.85540 0.43866 0.86498
 C696 C 0.82732 0.42395 0.88872
 C697 C 0.81448 0.38252 0.90073
 C698 C 0.83054 0.35683 0.88921
 C699 C 0.78551 0.36722 0.92396
 C700 C 0.76918 0.39284 0.93560
 C701 C 0.78275 0.43436 0.92377
 C702 C 0.81143 0.44971 0.90049
 H703 H 0.86425 0.46994 0.85540
 H704 H 0.82130 0.32513 0.89830
 H705 H 0.77562 0.33525 0.93293
 H706 H 0.82097 0.48161 0.89159
 H707 H 0.87073 0.35127 0.85742
 H708 H 0.77062 0.45473 0.93225
 C709 C 0.61864 0.13926 0.86235
 C710 C 0.57528 0.12446 0.85139
 C711 C 0.54694 0.13571 0.86539
 C712 C 0.56196 0.16228 0.88950
 C713 C 0.60585 0.17763 0.90016
 C714 C 0.63380 0.16560 0.88654
 C715 C 0.62118 0.20528 0.92393
 C716 C 0.59328 0.21816 0.93692
 C717 C 0.54946 0.20202 0.92624
 C718 C 0.53391 0.17426 0.90286
 H719 H 0.51311 0.12382 0.85748
 H720 H 0.66757 0.17705 0.89435
 H721 H 0.65508 0.21758 0.93184
 H722 H 0.50013 0.16266 0.89500
 H723 H 0.64123 0.13128 0.85186
 H724 H 0.52709 0.21112 0.93586
   
