data_POSCAR
  _audit_creation_date              2014-09-24
  _audit_creation_method            'ToBaCCo'
  _symmetry_space_group_name_H-M    'P1'
  _symmetry_Int_Tables_number       1
  _symmetry_cell_setting            triclinic
  loop_
  _symmetry_equiv_pos_as_xyz
 x,y,z
_cell_length_a 48.9879
_cell_length_b 37.9717
_cell_length_c 35.6777
_cell_angle_alpha 90.005700
_cell_angle_beta 90.044600
_cell_angle_gamma 90.102500
loop_
  _atom_site_label
  _atom_site_type_symbol
  _atom_site_fract_x
  _atom_site_fract_y
  _atom_site_fract_z
C1 C 0.23036 0.22906 0.23359
 C2 C 0.22724 0.26596 0.23829
 C3 C 0.24611 0.28448 0.26026
 C4 C 0.26834 0.26773 0.27729
 C5 C 0.27242 0.23086 0.27205
 C6 C 0.25338 0.21252 0.24947
 H7 H 0.25567 0.18439 0.24556
 H8 H 0.24395 0.31277 0.26332
 C9 C 0.76687 0.26953 0.22252
 C10 C 0.76650 0.23198 0.22158
 C11 C 0.74658 0.21374 0.24214
 C12 C 0.72764 0.23124 0.26485
 C13 C 0.72798 0.26854 0.26650
 C14 C 0.74792 0.28688 0.24588
 H15 H 0.74762 0.31541 0.24651
 H16 H 0.74665 0.18517 0.24197
 C17 C 0.73419 0.73100 0.72635
 C18 C 0.73363 0.76831 0.72750
 C19 C 0.75403 0.78617 0.74786
 C20 C 0.77472 0.76829 0.76787
 C21 C 0.77406 0.73070 0.76776
 C22 C 0.75416 0.71295 0.74677
 H23 H 0.75425 0.68437 0.74632
 H24 H 0.75347 0.81468 0.74826
 C25 C 0.27374 0.76884 0.73737
 C26 C 0.27363 0.73151 0.73732
 C27 C 0.25411 0.71328 0.75866
 C28 C 0.23377 0.73084 0.77955
 C29 C 0.23417 0.76844 0.77951
 C30 C 0.25378 0.78652 0.75829
 H31 H 0.25383 0.81508 0.75903
 H32 H 0.25446 0.68475 0.75771
 O33 O 1.02881 -0.04559 0.00369
 O34 O 0.97230 0.00205 0.04914
 O35 O 0.97584 -0.04717 -0.00147
 O36 O 1.02525 0.00387 0.05438
 O37 O 1.02941 0.04184 0.00777
 O38 O 0.97532 -0.00497 -0.04409
 O39 O 0.97629 0.04452 0.00716
 O40 O 1.02842 -0.00702 -0.04268
 Cu41 Cu 1.00038 -0.02580 0.03092
 Cu42 Cu 1.00239 0.02269 -0.02244
 C43 C 1.03790 -0.03470 -0.02758
 C44 C 0.96519 0.03185 0.03636
 C45 C 0.96691 -0.03453 -0.03205
 C46 C 1.03616 0.03113 0.04017
 O47 O 0.52554 0.45662 0.49490
 O48 O 0.47525 0.50884 0.54751
 O49 O 0.47261 0.45903 0.49788
 O50 O 0.52833 0.50692 0.54498
 O51 O 0.52758 0.54734 0.50046
 O52 O 0.47334 0.49788 0.45179
 O53 O 0.47429 0.54801 0.50175
 O54 O 0.52658 0.49739 0.45074
 Cu55 Cu 0.50053 0.47888 0.52588
 Cu56 Cu 0.50042 0.52667 0.47165
 C57 C 0.53471 0.46819 0.46397
 C58 C 0.46597 0.53709 0.53340
 C59 C 0.46362 0.47019 0.46669
 C60 C 0.53729 0.53541 0.53091
 O61 O -0.02578 0.54161 -0.00320
 O62 O 0.02644 0.49217 0.04897
 O63 O 0.02726 0.54225 -0.00155
 O64 O -0.02673 0.49164 0.04606
 O65 O -0.02565 0.45205 0.00070
 O66 O 0.02911 0.50192 -0.04611
 O67 O 0.02752 0.45219 0.00401
 O68 O -0.02404 0.50238 -0.04888
 Cu69 Cu 0.00029 0.52089 0.02715
 Cu70 Cu 0.00189 0.47312 -0.02709
 C71 C -0.03381 0.53042 -0.03488
 C72 C 0.03575 0.46366 0.03550
 C73 C 0.03732 0.53074 -0.03197
 C74 C -0.03556 0.46341 0.03127
 O75 O 0.47602 1.04643 0.49773
 O76 O 0.52760 0.99625 0.55054
 O77 O 0.52896 1.04483 0.49950
 O78 O 0.47422 0.99778 0.54959
 O79 O 0.47463 0.95613 0.50633
 O80 O 0.52835 1.00410 0.45527
 O81 O 0.52720 0.95514 0.50668
 O82 O 0.47512 1.00483 0.45445
 Cu83 Cu 0.50163 1.02542 0.52879
 Cu84 Cu 0.50126 0.97601 0.47618
 C85 C 0.46691 1.03425 0.46701
 C86 C 0.53614 0.96713 0.53756
 C87 C 0.53788 1.03254 0.46878
 C88 C 0.46544 0.96867 0.53678
 C89 C 1.17309 0.16709 0.17974
 N90 N 1.16550 0.19727 0.19713
 N91 N 1.18399 0.21740 0.21422
 C92 C 1.21078 0.20805 0.21497
 N93 N 1.21811 0.17723 0.19834
 N94 N 1.19971 0.15740 0.18065
 C95 C 1.15291 0.14565 0.15973
 N96 N 1.16006 0.12773 0.12833
 N97 N 1.14154 0.10911 0.10942
 C98 C 1.11535 0.10723 0.12165
 N99 N 1.10827 0.12482 0.15330
 N100 N 1.12668 0.14397 0.17183
 C101 C 1.09493 0.08709 0.10061
 N102 N 1.07407 0.07070 0.11861
 N103 N 1.05549 0.05246 0.09938
 C104 C 1.05684 0.05057 0.06143
 N105 N 1.07757 0.06720 0.04342
 N106 N 1.09643 0.08488 0.06270
 C107 C 0.67872 0.66989 0.66462
 N108 N 0.69147 0.69780 0.64843
 N109 N 0.70923 0.71719 0.66788
 C110 C 0.71462 0.70964 0.70437
 N111 N 0.70225 0.68133 0.72027
 N112 N 0.68458 0.66189 0.70081
 C113 C 0.65852 0.64903 0.64372
 N114 N 0.64682 0.62025 0.65963
 N115 N 0.62801 0.60172 0.64117
 C116 C 0.62014 0.61134 0.60616
 N117 N 0.63188 0.64008 0.59020
 N118 N 0.65075 0.65857 0.60863
 C119 C 0.59894 0.59131 0.58625
 N120 N 0.58952 0.60231 0.55242
 N121 N 0.56993 0.58444 0.53474
 C122 C 0.55909 0.55488 0.55019
 N123 N 0.56857 0.54382 0.58395
 N124 N 0.58811 0.56173 0.60167
 C125 C -0.18032 0.33037 0.15911
 N126 N -0.18619 0.29684 0.14874
 N127 N -0.20343 0.27735 0.16885
 C128 C -0.21533 0.29033 0.20036
 N129 N -0.21005 0.32440 0.20981
 N130 N -0.19279 0.34393 0.18979
 C131 C -0.15997 0.35111 0.13846
 N132 N -0.15238 0.38348 0.15087
 N133 N -0.13300 0.40167 0.13320
 C134 C -0.12051 0.38817 0.10246
 N135 N -0.12822 0.35590 0.08988
 N136 N -0.14756 0.33767 0.10761
 C137 C -0.09862 0.40785 0.08366
 N138 N -0.08669 0.39502 0.05216
 N139 N -0.06659 0.41271 0.03543
 C140 C -0.05762 0.44380 0.04970
 N141 N -0.06954 0.45662 0.08120
 N142 N -0.08967 0.43897 0.09787
 C143 C 0.33227 0.83038 0.68090
 N144 N 0.33812 0.79684 0.69118
 N145 N 0.31975 0.77741 0.70938
 C146 C 0.29460 0.79042 0.71733
 N147 N 0.28899 0.82423 0.70744
 N148 N 0.30746 0.84385 0.68965
 C149 C 0.35222 0.85145 0.65996
 N150 N 0.34995 0.88705 0.65820
 N151 N 0.36790 0.90607 0.63872
 C152 C 0.38854 0.89011 0.61989
 N153 N 0.39073 0.85451 0.62154
 N154 N 0.37298 0.83554 0.64138
 C155 C 0.40813 0.91085 0.59795
 N156 N 0.42345 0.89515 0.57107
 N157 N 0.44139 0.91378 0.55121
 C158 C 0.44487 0.94870 0.55778
 N159 N 0.42962 0.96442 0.58476
 N160 N 0.41142 0.94586 0.60432
 C161 C -0.17166 0.66687 -0.17229
 N162 N -0.18834 0.68964 -0.15400
 N163 N -0.20573 0.70985 -0.17299
 C164 C -0.20675 0.70839 -0.21100
 N165 N -0.19051 0.68508 -0.22922
 N166 N -0.17323 0.66475 -0.21021
 C167 C -0.15186 0.64544 -0.15152
 N168 N -0.13700 0.62034 -0.16930
 N169 N -0.11856 0.60146 -0.15063
 C170 C -0.11419 0.60715 -0.11354
 N171 N -0.12906 0.63223 -0.09575
 N172 N -0.14760 0.65098 -0.11438
 C173 C -0.09345 0.58694 -0.09309
 N174 N -0.08668 0.59574 -0.05739
 N175 N -0.06763 0.57775 -0.03892
 C176 C -0.05473 0.55020 -0.05541
 N177 N -0.06155 0.54129 -0.09107
 N178 N -0.08052 0.55942 -0.10962
 C179 C 0.33411 1.17355 0.32330
 N180 N 0.33219 1.20879 0.32869
 N181 N 0.31276 1.22733 0.31166
 C182 C 0.29420 1.21162 0.28875
 N183 N 0.29659 1.17627 0.28308
 N184 N 0.31609 1.15765 0.29991
 C185 C 0.35465 1.15286 0.34363
 N186 N 0.35823 1.11812 0.33606
 N187 N 0.37628 1.09917 0.35538
 C188 C 0.39127 1.11421 0.38315
 N189 N 0.38771 1.14895 0.39068
 N190 N 0.36977 1.16793 0.37123
 C191 C 0.41081 1.09327 0.40499
 N192 N 0.42307 1.10717 0.43578
 N193 N 0.44075 1.08823 0.45571
 C194 C 0.44690 1.05473 0.44552
 N195 N 0.43468 1.04082 0.41470
 N196 N 0.41688 1.05971 0.39487
 C197 C 1.17936 -0.16875 -0.16032
 N198 N 1.18088 -0.16656 -0.19823
 N199 N 1.19838 -0.18652 -0.21726
 C200 C 1.21491 -0.20952 -0.19908
 N201 N 1.21396 -0.21102 -0.16106
 N202 N 1.19634 -0.19119 -0.14203
 C203 C 1.15923 -0.14775 -0.13968
 N204 N 1.15459 -0.15359 -0.10267
 N205 N 1.13564 -0.13525 -0.08437
 C206 C 1.12074 -0.11032 -0.10238
 N207 N 1.12552 -0.10435 -0.13931
 N208 N 1.14435 -0.12280 -0.15764
 C209 C 1.09950 -0.09045 -0.08257
 N210 N 1.08672 -0.06313 -0.09967
 N211 N 1.06719 -0.04531 -0.08203
 C212 C 1.05959 -0.05428 -0.04672
 N213 N 1.07234 -0.08163 -0.02959
 N214 N 1.09199 -0.09936 -0.04718
 C215 C 0.66936 0.32865 0.32429
 N216 N 0.69430 0.34227 0.31630
 N217 N 0.71286 0.32304 0.29831
 C218 C 0.70723 0.28948 0.28742
 N219 N 0.68198 0.27630 0.29473
 N220 N 0.66351 0.29533 0.31313
 C221 C 0.64911 0.34956 0.34482
 N222 N 0.62795 0.33358 0.36258
 N223 N 0.60980 0.35250 0.38170
 C224 C 0.61197 0.38812 0.38337
 N225 N 0.63302 0.40412 0.36539
 N226 N 0.65137 0.38516 0.34665
 C227 C 0.59193 0.40896 0.40436
 N228 N 0.58898 0.44393 0.39757
 N229 N 0.57066 0.46279 0.41646
 C230 C 0.55489 0.44745 0.44316
 N231 N 0.55797 0.41254 0.45012
 N232 N 0.57605 0.39359 0.43091
 C233 C 0.83368 -0.17227 -0.17732
 N234 N 0.81279 -0.15644 -0.19565
 N235 N 0.79396 -0.17565 -0.21332
 C236 C 0.79516 -0.21150 -0.21356
 N237 N 0.81655 -0.22695 -0.19578
 N238 N 0.83528 -0.20789 -0.17784
 C239 C 0.85388 -0.15140 -0.15646
 N240 N 0.87127 -0.16738 -0.13223
 N241 N 0.88920 -0.14853 -0.11254
 C242 C 0.89054 -0.11302 -0.11656
 N243 N 0.87326 -0.09703 -0.14097
 N244 N 0.85517 -0.11587 -0.16045
 C245 C 0.91024 -0.09239 -0.09457
 N246 N 0.91534 -0.05812 -0.10299
 N247 N 0.93340 -0.03962 -0.08308
 C248 C 0.94680 -0.05463 -0.05385
 N249 N 0.94158 -0.08882 -0.04534
 N250 N 0.92371 -0.10739 -0.06542
 C251 C 0.32252 0.33291 0.33592
 N252 N 0.32080 0.33445 0.29798
 N253 N 0.30349 0.31372 0.27943
 C254 C 0.28732 0.29064 0.29816
 N255 N 0.28851 0.28965 0.33617
 N256 N 0.30596 0.31026 0.35471
 C257 C 0.34245 0.35476 0.35609
 N258 N 0.34720 0.34964 0.39318
 N259 N 0.36599 0.36868 0.41111
 C260 C 0.38061 0.39363 0.39264
 N261 N 0.37573 0.39891 0.35562
 N262 N 0.35705 0.37975 0.33764
 C263 C 0.40180 0.41402 0.41215
 N264 N 0.41453 0.44128 0.39477
 N265 N 0.43410 0.45937 0.41224
 C266 C 0.44176 0.45070 0.44763
 N267 N 0.42903 0.42343 0.46499
 N268 N 0.40936 0.40547 0.44761
 C269 C 0.17529 0.67056 -0.16585
 N270 N 0.17368 0.70618 -0.16574
 N271 N 0.19232 0.72551 -0.18348
 C272 C 0.21361 0.71035 -0.20172
 N273 N 0.21488 0.67450 -0.20199
 N274 N 0.19615 0.65502 -0.18451
 C275 C 0.15492 0.64936 -0.14576
 N276 N 0.15343 0.61398 -0.15089
 N277 N 0.13489 0.59487 -0.13257
 C278 C 0.11736 0.61042 -0.10821
 N279 N 0.11894 0.64577 -0.10298
 N280 N 0.13732 0.66490 -0.12151
 C281 C 0.09688 0.58948 -0.08802
 N282 N 0.08266 0.60375 -0.05914
 N283 N 0.06388 0.58491 -0.04101
 C284 C 0.05851 0.55118 -0.05129
 N285 N 0.07270 0.53691 -0.08021
 N286 N 0.09163 0.55567 -0.09815
 C287 C 0.67470 1.16827 0.32841
 N288 N 0.68830 1.19548 0.34464
 N289 N 0.70522 1.21548 0.32455
 C290 C 0.70887 1.20928 0.28739
 N291 N 0.69565 1.18164 0.27138
 N292 N 0.67883 1.16157 0.29149
 C293 C 0.65542 1.14684 0.35017
 N294 N 0.64297 1.11852 0.33437
 N295 N 0.62493 1.09958 0.35373
 C296 C 0.61861 1.10834 0.38957
 N297 N 0.63111 1.13661 0.40542
 N298 N 0.64922 1.15549 0.38609
 C299 C 0.59812 1.08810 0.41053
 N300 N 0.58994 1.09881 0.44503
 N301 N 0.57085 1.08096 0.46366
 C302 C 0.55930 1.05170 0.44852
 N303 N 0.56758 1.04088 0.41410
 N304 N 0.58661 1.05880 0.39541
 C305 C 0.17056 0.32633 0.17790
 N306 N 0.17572 0.33345 0.21453
 N307 N 0.19357 0.31414 0.23380
 C308 C 0.20680 0.28686 0.21722
 N309 N 0.20197 0.28021 0.18039
 N310 N 0.18408 0.29943 0.16116
 C311 C 0.15068 0.34728 0.15663
 N312 N 0.14433 0.33855 0.12076
 N313 N 0.12618 0.35732 0.10145
 C314 C 0.11376 0.38558 0.11726
 N315 N 0.12015 0.39438 0.15311
 N316 N 0.13826 0.37554 0.17246
 C317 C 0.09364 0.40609 0.09595
 N318 N 0.08230 0.43555 0.11082
 N319 N 0.06394 0.45400 0.09150
 C320 C 0.05620 0.44361 0.05665
 N321 N 0.06754 0.41415 0.04179
 N322 N 0.08595 0.39577 0.06106
 C323 C 0.67260 0.82914 0.67560
 N324 N 0.69754 0.84308 0.68297
 N325 N 0.71681 0.82370 0.69930
 C326 C 0.71192 0.78965 0.70904
 N327 N 0.68666 0.77615 0.70250
 N328 N 0.66747 0.79535 0.68576
 C329 C 0.65174 0.84999 0.65620
 N330 N 0.63059 0.83383 0.63855
 N331 N 0.61209 0.85264 0.61994
 C332 C 0.61388 0.88829 0.61865
 N333 N 0.63489 0.90449 0.63658
 N334 N 0.65359 0.88565 0.65482
 C335 C 0.59365 0.90888 0.59774
 N336 N 0.59040 0.94382 0.60449
 N337 N 0.57197 0.96242 0.58545
 C338 C 0.55642 0.94682 0.55863
 N339 N 0.55980 0.91195 0.55174
 N340 N 0.57798 0.89327 0.57109
 C341 C 0.82644 0.16990 0.16967
 N342 N 0.79979 0.16011 0.16879
 N343 N 0.78079 0.17999 0.18505
 C344 C 0.78772 0.21036 0.20286
 N345 N 0.81454 0.21937 0.20487
 N346 N 0.83349 0.19979 0.18815
 C347 C 0.84721 0.14890 0.15035
 N348 N 0.87098 0.16397 0.13912
 N349 N 0.88960 0.14521 0.12071
 C350 C 0.88528 0.11058 0.11330
 N351 N 0.86161 0.09541 0.12481
 N352 N 0.84281 0.11431 0.14276
 C353 C 0.90583 0.09000 0.09303
 N354 N 0.90686 0.05444 0.09664
 N355 N 0.92581 0.03586 0.07861
 C356 C 0.94411 0.05215 0.05586
 N357 N 0.94291 0.08767 0.05200
 N358 N 0.92422 0.10629 0.07045
 C359 C 0.32832 0.67121 0.67383
 N360 N 0.32390 0.66385 0.71056
 N361 N 0.30644 0.68298 0.73061
 C362 C 0.29285 0.71031 0.71473
 N363 N 0.29678 0.71716 0.67775
 N364 N 0.31432 0.69808 0.65772
 C365 C 0.34828 0.65077 0.65221
 N366 N 0.35458 0.65982 0.61642
 N367 N 0.37318 0.64168 0.59721
 C368 C 0.38610 0.61380 0.61308
 N369 N 0.37972 0.60470 0.64881
 N370 N 0.36120 0.62288 0.66804
 C371 C 0.40680 0.59391 0.59218
 N372 N 0.41851 0.56492 0.60753
 N373 N 0.43736 0.54687 0.58876
 C374 C 0.44528 0.55720 0.55401
 N375 N 0.43361 0.58623 0.53865
 N376 N 0.41469 0.60425 0.55739
   
