data_POSCAR
  _audit_creation_date              2014-09-24
  _audit_creation_method            'ToBaCCo'
  _symmetry_space_group_name_H-M    'P1'
  _symmetry_Int_Tables_number       1
  _symmetry_cell_setting            triclinic
  loop_
  _symmetry_equiv_pos_as_xyz
 x,y,z
_cell_length_a 29.7412
_cell_length_b 29.1745
_cell_length_c 29.9725
_cell_angle_alpha 90.068900
_cell_angle_beta 89.965600
_cell_angle_gamma 90.046700
loop_
  _atom_site_label
  _atom_site_type_symbol
  _atom_site_fract_x
  _atom_site_fract_y
  _atom_site_fract_z
N1 N 0.57064 0.69611 0.60436
 N2 N 0.55247 0.67690 0.63967
 C3 C 0.51602 0.70121 0.65195
 C4 C 0.51084 0.73734 0.62251
 C5 C 0.54611 0.73293 0.59267
 H6 H 0.49455 0.69304 0.67996
 H7 H 0.55383 0.75534 0.56500
 Cu8 Cu 0.57783 0.62193 0.66638
 Cu9 Cu 0.62521 0.67266 0.57688
 Cu10 Cu 0.67462 0.57808 0.62629
 N11 N 0.60712 0.56964 0.69420
 N12 N 0.64562 0.55370 0.67941
 C13 C 0.65898 0.51886 0.70561
 C14 C 0.62683 0.51202 0.73860
 C15 C 0.59434 0.54507 0.73004
 H16 H 0.68941 0.49942 0.70020
 H17 H 0.56405 0.55153 0.74890
 N18 N 0.69888 0.60746 0.57227
 N19 N 0.68049 0.64399 0.55390
 C20 C 0.70491 0.65622 0.51798
 C21 C 0.74011 0.62566 0.51323
 C22 C 0.73519 0.59516 0.54818
 H23 H 0.69718 0.68469 0.49625
 H24 H 0.75674 0.56637 0.55567
 H25 H 0.61767 0.60529 0.59699
 H26 H 0.65027 0.64394 0.63486
 N27 N 0.92882 0.30214 0.10562
 N28 N 0.94347 0.31779 0.14404
 C29 C 0.97911 0.29271 0.15700
 C30 C 0.98772 0.25963 0.12471
 C31 C 0.95493 0.26697 0.09250
 H32 H 0.99788 0.29889 0.18725
 H33 H 0.94963 0.24771 0.06215
 Cu34 Cu 0.91576 0.37049 0.17289
 Cu35 Cu 0.87601 0.32736 0.07631
 Cu36 Cu 0.82660 0.42236 0.12531
 N37 N 0.88915 0.42567 0.19811
 N38 N 0.85384 0.44524 0.17995
 C39 C 0.84217 0.48210 0.20440
 C40 C 0.87206 0.48617 0.23954
 C41 C 0.90148 0.44981 0.23443
 H42 H 0.81456 0.50482 0.19667
 H43 H 0.92952 0.44140 0.25583
 N44 N 0.80389 0.39420 0.06998
 N45 N 0.82229 0.35756 0.05171
 C46 C 0.79845 0.34575 0.01526
 C47 C 0.76362 0.37667 0.01011
 C48 C 0.76819 0.40698 0.04533
 H49 H 0.80602 0.31699 -0.00623
 H50 H 0.74649 0.43566 0.05291
 H51 H 0.88498 0.39309 0.10084
 H52 H 0.84610 0.35476 0.13263
 N53 N 0.42836 0.19877 -0.10513
 N54 N 0.44528 0.18075 -0.14167
 C55 C 0.48154 0.20526 -0.15416
 C56 C 0.48789 0.24031 -0.12362
 C57 C 0.45351 0.23504 -0.09289
 H58 H 0.50222 0.19785 -0.18294
 H59 H 0.44689 0.25641 -0.06414
 Cu60 Cu 0.41862 0.12661 -0.16886
 Cu61 Cu 0.37456 0.17439 -0.07659
 Cu62 Cu 0.32615 0.07817 -0.12490
 N63 N 0.39136 0.07246 -0.19546
 N64 N 0.35476 0.05416 -0.17851
 C65 C 0.34249 0.01791 -0.20352
 C66 C 0.37323 0.01296 -0.23787
 C67 C 0.40384 0.04817 -0.23164
 H68 H 0.31369 -0.00366 -0.19681
 H69 H 0.43267 0.05583 -0.25232
 N70 N 0.30219 0.10752 -0.07063
 N71 N 0.32008 0.14465 -0.05274
 C72 C 0.29561 0.15691 -0.01683
 C73 C 0.26090 0.12579 -0.01163
 C74 C 0.26618 0.09491 -0.04627
 H75 H 0.30286 0.18593 0.00444
 H76 H 0.24490 0.06579 -0.05352
 H77 H 0.38324 0.10757 -0.09785
 H78 H 0.34718 0.14517 -0.13325
 N79 N 0.07123 0.80228 0.39438
 N80 N 0.05641 0.81795 0.35607
 C81 C 0.02066 0.79286 0.34322
 C82 C 0.01217 0.75977 0.37549
 C83 C 0.04513 0.76712 0.40755
 H84 H 0.00176 0.79901 0.31306
 H85 H 0.05058 0.74784 0.43780
 Cu86 Cu 0.08414 0.87062 0.32721
 Cu87 Cu 0.12428 0.82735 0.42344
 Cu88 Cu 0.17378 0.92226 0.37450
 N89 N 0.11075 0.92586 0.30212
 N90 N 0.14621 0.94533 0.32018
 C91 C 0.15785 0.98225 0.29586
 C92 C 0.12779 0.98645 0.26089
 C93 C 0.09829 0.95011 0.26598
 H94 H 0.18558 1.00489 0.30355
 H95 H 0.07013 0.94177 0.24467
 N96 N 0.19677 0.89391 0.42954
 N97 N 0.17826 0.85736 0.44782
 C98 C 0.20223 0.84542 0.48409
 C99 C 0.23731 0.87614 0.48910
 C100 C 0.23272 0.90649 0.45398
 H101 H 0.19458 0.81671 0.50555
 H102 H 0.25455 0.93507 0.44635
 H103 H 0.11541 0.89313 0.39914
 H104 H 0.15398 0.85473 0.36702
 N105 N 0.12523 0.12466 0.12472
 N106 N 0.37388 0.87592 0.62441
 N107 N 0.87479 0.62445 0.37596
 N108 N 0.62670 0.37727 -0.12482
 C109 C 0.03039 0.19921 0.08644
 C110 C 0.02195 0.22615 0.12468
 C111 C 0.04864 0.21866 0.16291
 C112 C 0.08212 0.18509 0.16298
 C113 C 0.09045 0.15893 0.12468
 C114 C 0.06458 0.16637 0.08636
 H115 H 0.01132 0.20373 0.05607
 H116 H 0.04342 0.23795 0.19329
 H117 H 0.10195 0.17974 0.19280
 H118 H 0.07061 0.14630 0.05655
 C119 C 0.46412 0.79651 0.58368
 C120 C 0.47552 0.77304 0.62300
 C121 C 0.45291 0.78400 0.66279
 C122 C 0.41981 0.81796 0.66330
 C123 C 0.40828 0.84114 0.62394
 C124 C 0.43058 0.83002 0.58411
 H125 H 0.48068 0.78859 0.55245
 H126 H 0.46117 0.76679 0.69368
 H127 H 0.40282 0.82595 0.69430
 H128 H 0.42224 0.84766 0.55345
 C129 C 0.95108 0.71865 0.33751
 C130 C 0.97794 0.72624 0.37562
 C131 C 0.96971 0.69931 0.41387
 C132 C 0.93558 0.66638 0.41405
 C133 C 0.90953 0.65882 0.37586
 C134 C 0.91764 0.68497 0.33755
 H135 H 0.95613 0.73794 0.30715
 H136 H 0.98892 0.70390 0.44415
 H137 H 0.92972 0.64631 0.44387
 H138 H 0.89766 0.67954 0.30782
 C139 C 0.54521 0.28769 -0.16390
 C140 C 0.52360 0.27566 -0.12388
 C141 C 0.53646 0.29768 -0.08414
 C142 C 0.57048 0.33076 -0.08440
 C143 C 0.59184 0.34289 -0.12445
 C144 C 0.57878 0.32121 -0.16422
 H145 H 0.53581 0.27165 -0.19512
 H146 H 0.52067 0.28893 -0.05273
 H147 H 0.57992 0.34728 -0.05341
 H148 H 0.59496 0.32997 -0.19544
 C149 C 0.16676 0.04543 0.21407
 C150 C 0.12712 0.02218 0.22590
 C151 C 0.08682 0.03334 0.20401
 C152 C 0.08615 0.06726 0.17114
 C153 C 0.12586 0.09012 0.15905
 C154 C 0.16618 0.07886 0.18071
 H155 H 0.19837 0.03736 0.23012
 H156 H 0.05568 0.01630 0.21266
 H157 H 0.05475 0.07536 0.15470
 H158 H 0.19711 0.09628 0.17197
 C159 C 0.58862 0.47175 -0.20027
 C160 C 0.62697 0.47886 -0.22716
 C161 C 0.66539 0.45176 -0.21900
 C162 C 0.66545 0.41901 -0.18501
 C163 C 0.62695 0.41183 -0.15905
 C164 C 0.58853 0.43827 -0.16698
 H165 H 0.55811 0.49119 -0.20523
 H166 H 0.69587 0.45602 -0.23822
 H167 H 0.69536 0.39871 -0.17928
 H168 H 0.55856 0.43312 -0.14708
 C169 C 0.33340 0.95522 0.71442
 C170 C 0.37338 0.97772 0.72656
 C171 C 0.41351 0.96621 0.70445
 C172 C 0.41369 0.93267 0.67113
 C173 C 0.37369 0.91043 0.65889
 C174 C 0.33352 0.92210 0.68070
 H175 H 0.30189 0.96357 0.73057
 H176 H 0.44491 0.98264 0.71327
 H177 H 0.44498 0.92425 0.65456
 H178 H 0.30236 0.90518 0.67186
 C179 C 0.83309 0.54500 0.28662
 C180 C 0.87274 0.52186 0.27465
 C181 C 0.91306 0.53310 0.29650
 C182 C 0.91377 0.56703 0.32944
 C183 C 0.87408 0.58980 0.34165
 C184 C 0.83371 0.57842 0.32008
 H185 H 0.80147 0.53685 0.27059
 H186 H 0.94420 0.51614 0.28775
 H187 H 0.94521 0.57523 0.34582
 H188 H 0.80279 0.59577 0.32892
 C189 C 0.21345 0.16636 0.04505
 C190 C 0.22583 0.12552 0.02340
 C191 C 0.20444 0.08441 0.03554
 C192 C 0.17163 0.08410 0.06894
 C193 C 0.15915 0.12496 0.09036
 C194 C 0.18016 0.16612 0.07798
 H195 H 0.22906 0.19862 0.03618
 H196 H 0.21348 0.05236 0.01970
 H197 H 0.15565 0.05205 0.07789
 H198 H 0.17109 0.19796 0.09424
 C199 C 0.78693 0.66609 0.45602
 C200 C 0.77501 0.62535 0.47803
 C201 C 0.79656 0.58430 0.46599
 C202 C 0.82905 0.58396 0.43228
 C203 C 0.84108 0.62473 0.41051
 C204 C 0.81993 0.66582 0.42282
 H205 H 0.77117 0.69829 0.46482
 H206 H 0.78785 0.55233 0.48211
 H207 H 0.84518 0.55196 0.42338
 H208 H 0.82867 0.69759 0.40631
 C209 C 0.70688 0.41786 -0.03672
 C210 C 0.72865 0.37689 -0.02498
 C211 C 0.71653 0.33608 -0.04687
 C212 C 0.68295 0.33618 -0.07946
 C213 C 0.66135 0.37716 -0.09123
 C214 C 0.67379 0.41804 -0.06981
 H215 H 0.71574 0.44989 -0.02071
 H216 H 0.73247 0.30393 -0.03832
 H217 H 0.67395 0.30435 -0.09579
 H218 H 0.65741 0.44997 -0.07836
 C219 C 0.28386 0.83536 0.54623
 C220 C 0.27244 0.87614 0.52405
 C221 C 0.29494 0.91687 0.53549
 C222 C 0.32796 0.91685 0.56864
 C223 C 0.33954 0.87602 0.59049
 C224 C 0.31733 0.83527 0.57892
 H225 H 0.26740 0.80337 0.53791
 H226 H 0.28665 0.94888 0.51924
 H227 H 0.34487 0.94859 0.57703
 H228 H 0.32570 0.80347 0.59554
   
