data_POSCAR
  _audit_creation_date              2014-09-24
  _audit_creation_method            'ToBaCCo'
  _symmetry_space_group_name_H-M    'P1'
  _symmetry_Int_Tables_number       1
  _symmetry_cell_setting            triclinic
  loop_
  _symmetry_equiv_pos_as_xyz
 x,y,z
_cell_length_a 25.0431
_cell_length_b 25.6599
_cell_length_c 25.4452
_cell_angle_alpha 92.351100
_cell_angle_beta 86.874800
_cell_angle_gamma 91.498800
loop_
  _atom_site_label
  _atom_site_type_symbol
  _atom_site_fract_x
  _atom_site_fract_y
  _atom_site_fract_z
C1 C 0.22896 0.28970 0.23103
 C2 C 0.26973 0.29027 0.19101
 C3 C 0.31062 0.25391 0.18946
 C4 C 0.31153 0.21773 0.22940
 C5 C 0.27143 0.21711 0.26996
 C6 C 0.22975 0.25303 0.27081
 C7 C 0.18762 0.32543 0.23189
 C8 C 0.14654 0.32506 0.27185
 C9 C 0.14789 0.28875 0.31182
 C10 C 0.18914 0.25247 0.31149
 C11 C 0.19086 0.21588 0.35118
 C12 C 0.23294 0.18042 0.35092
 C13 C 0.27260 0.18101 0.30960
 H14 H 0.26924 0.31847 0.16043
 H15 H 0.34395 0.19061 0.22962
 H16 H 0.18848 0.35435 0.20202
 H17 H 0.11679 0.28883 0.34318
 H18 H 0.15979 0.21524 0.38254
 H19 H 0.30403 0.15270 0.30739
 C20 C 0.74321 -0.28455 0.19377
 C21 C 0.70380 -0.28561 0.15662
 C22 C 0.66266 -0.24879 0.16011
 C23 C 0.66276 -0.21001 0.20088
 C24 C 0.70138 -0.20914 0.23885
 C25 C 0.74169 -0.24667 0.23542
 C26 C 0.78397 -0.32115 0.18981
 C27 C 0.82263 -0.32202 0.22786
 C28 C 0.82052 -0.28394 0.26979
 C29 C 0.78053 -0.24624 0.27353
 C30 C 0.77876 -0.20806 0.31483
 C31 C 0.73889 -0.16999 0.31817
 C32 C 0.70015 -0.17132 0.28026
 H33 H 0.70666 -0.31448 0.12450
 H34 H 0.63186 -0.18101 0.20386
 H35 H 0.78481 -0.35000 0.15739
 H36 H 0.85027 -0.28215 0.29906
 H37 H 0.80798 -0.20873 0.34458
 H38 H 0.66919 -0.14241 0.28278
 C39 C 0.74845 0.28707 0.79981
 C40 C 0.70937 0.28548 0.84136
 C41 C 0.66823 0.24710 0.84165
 C42 C 0.66573 0.21109 0.79828
 C43 C 0.70399 0.21285 0.75612
 C44 C 0.74573 0.25075 0.75696
 C45 C 0.79005 0.32467 0.80051
 C46 C 0.82861 0.32768 0.75834
 C47 C 0.82568 0.29067 0.71568
 C48 C 0.78457 0.25242 0.71483
 C49 C 0.78165 0.21581 0.67241
 C50 C 0.74014 0.17769 0.67157
 C51 C 0.70110 0.17707 0.71315
 H52 H 0.71163 0.31373 0.87414
 H53 H 0.63340 0.18249 0.79579
 H54 H 0.79166 0.35253 0.83369
 H55 H 0.85550 0.29018 0.68335
 H56 H 0.81120 0.21758 0.63977
 H57 H 0.66901 0.14787 0.71251
 C58 C 0.24562 -0.27452 0.79379
 C59 C 0.28542 -0.27299 0.83039
 C60 C 0.32750 -0.23567 0.82744
 C61 C 0.32809 -0.19817 0.78871
 C62 C 0.28842 -0.19919 0.75164
 C63 C 0.24725 -0.23784 0.75398
 C64 C 0.20473 -0.31282 0.79609
 C65 C 0.16605 -0.31662 0.75802
 C66 C 0.16736 -0.27892 0.71879
 C67 C 0.20754 -0.23965 0.71675
 C68 C 0.20878 -0.20227 0.67785
 C69 C 0.24970 -0.16377 0.67493
 C70 C 0.28937 -0.16238 0.71221
 H71 H 0.28335 -0.30086 0.86133
 H72 H 0.36008 -0.16889 0.78683
 H73 H 0.20422 -0.34104 0.82675
 H74 H 0.13703 -0.27886 0.69016
 H75 H 0.17804 -0.20333 0.64938
 H76 H 0.32035 -0.13215 0.71145
 C77 C 0.75510 -0.28585 0.76593
 C78 C 0.71434 -0.28458 0.80606
 C79 C 0.67893 -0.24262 0.81172
 C80 C 0.68583 -0.20105 0.77747
 C81 C 0.72631 -0.20183 0.73698
 C82 C 0.76084 -0.24454 0.73109
 C83 C 0.79042 -0.32766 0.76030
 C84 C 0.83130 -0.32898 0.71963
 C85 C 0.83539 -0.28819 0.68443
 C86 C 0.80138 -0.24580 0.69047
 C87 C 0.80784 -0.20441 0.65654
 C88 C 0.77374 -0.16201 0.66177
 C89 C 0.73293 -0.16070 0.70217
 H90 H 0.71105 -0.31593 0.83335
 H91 H 0.65916 -0.16836 0.78200
 H92 H 0.78475 -0.35921 0.78708
 H93 H 0.86644 -0.28852 0.65293
 H94 H 0.83923 -0.20538 0.62541
 H95 H 0.70695 -0.12756 0.70705
 C96 C 0.25262 0.30407 0.80249
 C97 C 0.28855 0.30206 0.84283
 C98 C 0.32237 0.25947 0.84536
 C99 C 0.32090 0.21922 0.80611
 C100 C 0.28539 0.22079 0.76552
 C101 C 0.25099 0.26324 0.76373
 C102 C 0.21791 0.34594 0.80050
 C103 C 0.18198 0.34777 0.76010
 C104 C 0.18048 0.30678 0.72174
 C105 C 0.21471 0.26466 0.72330
 C106 C 0.21297 0.22374 0.68518
 C107 C 0.24791 0.18206 0.68607
 C108 C 0.28377 0.18054 0.72664
 H109 H 0.28991 0.33342 0.87266
 H110 H 0.34804 0.18707 0.80630
 H111 H 0.21858 0.37710 0.83059
 H112 H 0.15168 0.30663 0.69149
 H113 H 0.18509 0.22473 0.65409
 H114 H 0.30984 0.14770 0.72850
 C115 C 0.25349 -0.28914 0.22192
 C116 C 0.29302 -0.28986 0.18051
 C117 C 0.33223 -0.24927 0.17617
 C118 C 0.33024 -0.20757 0.21400
 C119 C 0.29161 -0.20693 0.25617
 C120 C 0.25317 -0.24792 0.26017
 C121 C 0.21389 -0.32889 0.22526
 C122 C 0.17377 -0.32820 0.26670
 C123 C 0.17550 -0.28788 0.30572
 C124 C 0.21413 -0.24747 0.30227
 C125 C 0.21378 -0.20623 0.34008
 C126 C 0.25214 -0.16557 0.33685
 C127 C 0.29079 -0.16587 0.29445
 H128 H 0.29153 -0.32151 0.15125
 H129 H 0.35960 -0.17580 0.21126
 H130 H 0.21560 -0.36050 0.19585
 H131 H 0.14543 -0.28685 0.33809
 H132 H 0.18373 -0.20587 0.37244
 H133 H 0.31973 -0.13397 0.29065
 C134 C 0.73731 0.29499 0.22122
 C135 C 0.69909 0.29426 0.18270
 C136 C 0.66208 0.25241 0.17788
 C137 C 0.66274 0.21159 0.21313
 C138 C 0.70054 0.21186 0.25178
 C139 C 0.73807 0.25359 0.25583
 C140 C 0.77479 0.33640 0.22556
 C141 C 0.81353 0.33705 0.26419
 C142 C 0.81266 0.29603 0.29928
 C143 C 0.77587 0.25417 0.29496
 C144 C 0.77635 0.21283 0.32929
 C145 C 0.73917 0.17105 0.32516
 C146 C 0.70109 0.17117 0.28677
 H147 H 0.69838 0.32609 0.15602
 H148 H 0.63329 0.18001 0.21147
 H149 H 0.77243 0.36806 0.19915
 H150 H 0.84173 0.29591 0.32938
 H151 H 0.80478 0.21394 0.35994
 H152 H 0.67195 0.13927 0.28404
 O153 O 0.32577 0.06463 0.45898
 O154 O 0.33240 -0.03925 0.55453
 O155 O 0.33445 -0.03649 0.45182
 O156 O 0.33277 0.06177 0.56045
 O157 O 0.24444 0.05757 0.56650
 O158 O 0.24621 -0.04232 0.45791
 O159 O 0.24415 -0.04420 0.56064
 O160 O 0.23752 0.05920 0.46490
 Cu161 Cu 0.34009 0.01312 0.50567
 Cu162 Cu 0.23424 0.00693 0.51307
 C163 C 0.28058 0.07975 0.44583
 C164 C 0.28917 -0.05912 0.57424
 C165 C 0.29091 -0.05633 0.43637
 C166 C 0.28863 0.07656 0.58192
 O167 O 0.73220 0.06094 0.54319
 O168 O 0.73169 -0.04702 0.44158
 O169 O 0.71054 -0.03736 0.54524
 O170 O 0.72771 0.05657 0.44205
 O171 O 0.81555 0.05184 0.44231
 O172 O 0.79819 -0.04406 0.54666
 O173 O 0.81925 -0.05180 0.44573
 O174 O 0.81989 0.05440 0.54541
 Cu175 Cu 0.71742 0.00792 0.49184
 Cu176 Cu 0.82115 0.00248 0.49428
 C177 C 0.77677 0.07576 0.56168
 C178 C 0.77598 -0.06786 0.42654
 C179 C 0.75101 -0.05648 0.56412
 C180 C 0.77391 0.07109 0.42497
 O181 O 0.43700 0.25525 0.06715
 O182 O 0.54245 0.25275 -0.03953
 O183 O 0.43862 0.25767 -0.03522
 O184 O 0.54135 0.25545 0.06286
 O185 O 0.53804 0.16930 0.05867
 O186 O 0.43353 0.17154 -0.03772
 O187 O 0.53659 0.16662 -0.04380
 O188 O 0.43407 0.16906 0.06444
 Cu189 Cu 0.49026 0.26398 0.01423
 Cu190 Cu 0.48515 0.16050 0.01020
 C191 C 0.41776 0.21235 0.08401
 C192 C 0.55697 0.20906 -0.06015
 C193 C 0.41870 0.21502 -0.05331
 C194 C 0.55737 0.21200 0.07732
 O195 O 0.54923 0.67190 0.03276
 O196 O 0.44560 0.67682 -0.06363
 O197 O 0.54941 0.67443 -0.06885
 O198 O 0.44465 0.67194 0.03803
 O199 O 0.44735 0.75802 0.04519
 O200 O 0.55334 0.76053 -0.06243
 O201 O 0.44880 0.76295 -0.05756
 O202 O 0.55154 0.75799 0.04026
 Cu203 Cu 0.49686 0.66521 -0.01599
 Cu204 Cu 0.50053 0.76855 -0.00801
 C205 C 0.56806 0.71407 0.05291
 C206 C 0.42962 0.72060 -0.07712
 C207 C 0.56942 0.71761 -0.08381
 C208 C 0.42801 0.71427 0.05983
 O209 O 0.03561 0.45076 0.28151
 O210 O -0.05318 0.56227 0.29295
 O211 O -0.06752 0.46080 0.27902
 O212 O 0.05019 0.55202 0.27842
 O213 O 0.04970 0.55186 0.19163
 O214 O -0.06762 0.46495 0.19247
 O215 O -0.05389 0.56482 0.20635
 O216 O 0.03529 0.45136 0.19479
 Cu217 Cu -0.00881 0.50640 0.29149
 Cu218 Cu -0.00906 0.50850 0.18792
 C219 C 0.05080 0.43196 0.23652
 C220 C -0.06899 0.58250 0.25218
 C221 C -0.08743 0.44754 0.23519
 C222 C 0.07010 0.56696 0.23418
 O223 O 0.04454 0.56088 0.68106
 O224 O -0.04572 0.44699 0.68014
 O225 O -0.05803 0.54740 0.69558
 O226 O 0.05725 0.45983 0.68165
 O227 O 0.05759 0.45869 0.76833
 O228 O -0.05639 0.54481 0.78216
 O229 O -0.04633 0.44501 0.76689
 O230 O 0.04694 0.55979 0.76766
 Cu231 Cu -0.00056 0.50398 0.67611
 Cu232 Cu 0.00078 0.50181 0.77977
 C233 C 0.06113 0.58003 0.72394
 C234 C -0.06191 0.42674 0.72280
 C235 C -0.07663 0.56100 0.74159
 C236 C 0.07665 0.44398 0.72318
 C237 C 0.35242 0.25505 0.14623
 C238 C 0.37634 0.21178 0.12701
 H239 H 0.36191 0.29200 0.12831
 H240 H 0.36440 0.17418 0.14222
 C241 C 0.62198 0.75139 0.12394
 C242 C 0.61025 0.71129 0.09059
 H243 H 0.59704 0.78538 0.12459
 H244 H 0.62978 0.67435 0.09181
 C245 C 0.63051 0.24692 -0.11528
 C246 C 0.59694 0.20676 -0.10441
 H247 H 0.62995 0.28060 -0.08804
 H248 H 0.59953 0.17001 -0.12658
 C249 C 0.37081 0.76497 -0.13515
 C250 C 0.38778 0.72110 -0.11537
 H251 H 0.39028 0.80201 -0.12522
 H252 H 0.37096 0.68364 -0.12799
 C253 C 0.10410 0.36460 0.27461
 C254 C 0.08808 0.38824 0.23217
 H255 H 0.08593 0.37490 0.31315
 H256 H 0.10334 0.37624 0.19306
 C257 C 0.12833 0.64152 0.76058
 C258 C 0.09694 0.62637 0.72146
 H259 H 0.12698 0.61794 0.79508
 H260 H 0.09972 0.64544 0.68432
 C261 C -0.13863 0.63876 0.22210
 C262 C -0.10549 0.62669 0.25925
 H263 H -0.13749 0.61465 0.18602
 H264 H -0.10757 0.64612 0.29774
 C265 C -0.13193 0.36791 0.76062
 C266 C -0.09928 0.38172 0.71974
 H267 H -0.12987 0.39126 0.79703
 H268 H -0.10237 0.36308 0.68118
 C269 C 0.23377 0.14164 0.39276
 C270 C 0.27925 0.12099 0.40725
 H271 H 0.19600 0.13022 0.41231
 H272 H 0.31747 0.13462 0.39048
 C273 C 0.73634 0.13794 0.62796
 C274 C 0.77968 0.11793 0.60244
 H275 H 0.69709 0.12207 0.61937
 H276 H 0.81917 0.13098 0.61340
 C277 C 0.24831 -0.12436 0.63389
 C278 C 0.29202 -0.09926 0.61388
 H279 H 0.20979 -0.11685 0.61864
 H280 H 0.33121 -0.10839 0.62637
 C281 C 0.73584 -0.12864 0.36083
 C282 C 0.77846 -0.11089 0.38631
 H283 H 0.69770 -0.11024 0.36944
 H284 H 0.81747 -0.12673 0.37621
 C285 C 0.63534 0.75946 -0.14619
 C286 C 0.61207 0.71645 -0.12612
 H287 H 0.62090 0.79741 -0.13269
 H288 H 0.62401 0.67831 -0.14150
 C289 C 0.36029 0.25910 -0.11186
 C290 C 0.37870 0.21504 -0.09364
 H291 H 0.37265 0.29637 -0.09428
 H292 H 0.36442 0.17745 -0.10869
 C293 C 0.37285 0.75185 0.13525
 C294 C 0.38521 0.71136 0.10194
 H295 H 0.39709 0.78732 0.13164
 H296 H 0.36566 0.67366 0.10623
 C297 C 0.62200 0.25345 0.13705
 C298 C 0.59835 0.21027 0.11658
 H299 H 0.61262 0.29111 0.12257
 H300 H 0.60938 0.17212 0.12831
 C301 C -0.13086 0.63136 0.71281
 C302 C -0.12148 0.59673 0.74896
 H303 H -0.10464 0.63124 0.67739
 H304 H -0.14262 0.59770 0.78714
 C305 C -0.14620 0.37631 0.26875
 C306 C -0.13377 0.41142 0.23219
 H307 H -0.12118 0.37591 0.30223
 H308 H -0.15405 0.41103 0.19580
 C309 C 0.14343 0.39061 0.76153
 C310 C 0.12039 0.40659 0.71878
 H311 H 0.13309 0.40907 0.79968
 H312 H 0.13238 0.39090 0.67992
 C313 C 0.13146 0.63443 0.27044
 C314 C 0.11748 0.60196 0.23062
 H315 H 0.10620 0.63445 0.30647
 H316 H 0.13778 0.60370 0.19215
 C317 C 0.78244 -0.12001 0.62410
 C318 C 0.74234 -0.09373 0.60623
 H319 H 0.82263 -0.11395 0.60701
 H320 H 0.70154 -0.10171 0.62057
 C321 C 0.24988 -0.12313 0.37807
 C322 C 0.29326 -0.09617 0.39311
 H323 H 0.21167 -0.11618 0.39894
 H324 H 0.33227 -0.10486 0.37492
 C325 C 0.73667 0.12840 0.36246
 C326 C 0.77943 0.11146 0.38556
 H327 H 0.69793 0.10963 0.37035
 H328 H 0.81900 0.12739 0.37571
 C329 C 0.24586 0.14048 0.64429
 C330 C 0.28973 0.11613 0.62516
 H331 H 0.20801 0.13222 0.62655
 H332 H 0.32836 0.12699 0.64002
   
