data_POSCAR
  _audit_creation_date              2014-09-24
  _audit_creation_method            'ToBaCCo'
  _symmetry_space_group_name_H-M    'P1'
  _symmetry_Int_Tables_number       1
  _symmetry_cell_setting            triclinic
  loop_
  _symmetry_equiv_pos_as_xyz
 x,y,z
_cell_length_a 30.7103
_cell_length_b 30.3330
_cell_length_c 30.5708
_cell_angle_alpha 79.701200
_cell_angle_beta 93.272400
_cell_angle_gamma 103.573700
loop_
  _atom_site_label
  _atom_site_type_symbol
  _atom_site_fract_x
  _atom_site_fract_y
  _atom_site_fract_z
C1 C 0.57514 0.51443 0.00725
 C2 C 0.56682 0.55739 0.01017
 C3 C 0.52402 0.56287 0.01898
 C4 C 0.48816 0.52300 0.02537
 C5 C 0.49448 0.48044 0.01682
 C6 C 0.53786 0.47635 0.00668
 C7 C 0.54174 0.43572 -0.00724
 C8 C 0.50542 0.39823 -0.00616
 C9 C 0.46317 0.39989 0.00804
 C10 C 0.45712 0.44191 0.01816
 C11 C 0.44650 0.52386 0.04180
 C12 C 0.41076 0.48566 0.04507
 C13 C 0.41401 0.44544 0.03000
 C14 C 0.37668 0.40711 0.03012
 C15 C 0.38461 0.36508 0.02343
 C16 C 0.42671 0.36097 0.01150
 H17 H 0.57249 0.43289 -0.02081
 H18 H 0.51090 0.36819 -0.01744
 H19 H 0.44130 0.55342 0.05416
 H20 H 0.38102 0.48785 0.06097
 H21 H 0.59479 0.58688 0.00544
 H22 H 0.35700 0.33501 0.02645
 C23 C 0.00366 0.62929 0.47538
 C24 C -0.00141 0.61935 0.43209
 C25 C -0.00588 0.57461 0.42336
 C26 C -0.00863 0.53766 0.46001
 C27 C -0.00222 0.54737 0.50408
 C28 C 0.00317 0.59308 0.51179
 C29 C 0.00610 0.60110 0.55592
 C30 C 0.00541 0.56547 0.59165
 C31 C 0.00219 0.52018 0.58493
 C32 C -0.00231 0.51099 0.54074
 C33 C -0.02134 0.49117 0.45469
 C34 C -0.01970 0.45586 0.49020
 C35 C -0.00775 0.46531 0.53311
 C36 C -0.00356 0.42997 0.56908
 C37 C -0.00012 0.43929 0.61240
 C38 C 0.00162 0.48351 0.62111
 H39 H 0.00788 0.63488 0.56368
 H40 H 0.00700 0.57416 0.62455
 H41 H -0.03401 0.48119 0.42338
 H42 H -0.02933 0.42086 0.48391
 H43 H 0.00117 0.64760 0.40434
 H44 H 0.00266 0.41182 0.63972
 C45 C 0.57614 0.02062 0.57227
 C46 C 0.61875 0.01806 0.56021
 C47 C 0.62770 0.01218 0.51723
 C48 C 0.59183 0.00707 0.48567
 C49 C 0.55000 0.01486 0.49556
 C50 C 0.54260 0.02335 0.53843
 C51 C 0.50367 0.03814 0.54475
 C52 C 0.47054 0.03911 0.51192
 C53 C 0.47521 0.02622 0.47078
 C54 C 0.51581 0.01518 0.46205
 C55 C 0.59633 -0.00620 0.44454
 C56 C 0.56252 -0.00718 0.41239
 C57 C 0.52259 0.00509 0.41972
 C58 C 0.48891 0.00640 0.38620
 C59 C 0.44857 0.01633 0.39583
 C60 C 0.44114 0.02600 0.43755
 H61 H 0.49905 0.05109 0.57446
 H62 H 0.44175 0.05129 0.51899
 H63 H 0.62555 -0.01724 0.43679
 H64 H 0.56814 -0.01810 0.38181
 H65 H 0.64515 0.02106 0.58516
 H66 H 0.42261 0.01673 0.37037
 O67 O 0.43391 -0.03946 -0.08659
 O68 O 0.42335 -0.05299 0.03453
 O69 O 0.42438 0.01439 -0.03132
 O70 O 0.43594 -0.10587 -0.01963
 O71 O 0.50923 -0.08177 -0.01264
 O72 O 0.49783 0.03770 -0.02481
 O73 O 0.49669 -0.02878 0.04143
 O74 O 0.50731 -0.01581 -0.08010
 Cu75 Cu 0.42206 -0.04834 -0.02664
 Cu76 Cu 0.51014 -0.01986 -0.01854
 C77 C 0.47228 -0.02554 -0.10400
 C78 C 0.45806 -0.04281 0.05856
 C79 C 0.45925 0.04640 -0.02933
 C80 C 0.47471 -0.11422 -0.01375
 O81 O -0.07830 0.49464 1.03046
 O82 O 0.04381 0.50399 1.02890
 O83 O -0.02126 0.49221 0.97140
 O84 O -0.01255 0.50651 1.08893
 O85 O -0.02189 0.43135 1.10948
 O86 O -0.03387 0.41678 0.99207
 O87 O 0.03279 0.42856 1.04844
 O88 O -0.08914 0.41958 1.05264
 Cu89 Cu -0.01609 0.50689 1.02805
 Cu90 Cu -0.02925 0.41655 1.05285
 C91 C -0.10456 0.45546 1.04166
 C92 C 0.05905 0.46785 1.03774
 C93 C -0.02889 0.45203 0.96176
 C94 C -0.01518 0.47138 1.11920
 O95 O 0.02380 0.00984 0.41865
 O96 O 0.04134 0.13045 0.43270
 O97 O 0.09183 0.08048 0.40976
 O98 O -0.02509 0.05848 0.44552
 O99 O -0.00401 0.03848 0.51517
 O100 O 0.11215 0.06357 0.48006
 O101 O 0.05961 0.11165 0.50341
 O102 O 0.04588 -0.00873 0.48818
 Cu103 Cu 0.03095 0.07179 0.41956
 Cu104 Cu 0.05590 0.04951 0.50366
 C105 C 0.03171 -0.01999 0.45091
 C106 C 0.05233 0.14140 0.47059
 C107 C 0.12193 0.07556 0.43925
 C108 C -0.03434 0.04444 0.48643
 C109 C -0.37924 0.51300 1.00476
 C110 C -0.36084 0.47522 1.02216
 C111 C -0.31199 0.47830 1.02236
 N112 N -0.29522 0.44146 1.04095
 N113 N -0.25118 0.44411 1.04201
 C114 C -0.22216 0.48381 1.02459
 N115 N -0.23894 0.52057 1.00598
 N116 N -0.28292 0.51788 1.00485
 C117 C -0.17323 0.48787 1.02567
 C118 C -0.15351 0.45096 1.04186
 H119 H -0.38182 0.44371 1.03917
 H120 H -0.15207 0.52106 1.01263
 H121 H -0.35546 0.54537 0.99442
 H122 H -0.17455 0.41746 1.05406
 C123 C 0.33140 0.40750 1.03650
 C124 C 0.31194 0.44529 1.02308
 C125 C 0.26389 0.44236 1.02937
 N126 N 0.24661 0.48001 1.01613
 N127 N 0.20326 0.47779 1.02133
 C128 C 0.17549 0.43777 1.03994
 N129 N 0.19278 0.40015 1.05318
 N130 N 0.23611 0.40241 1.04810
 C131 C 0.12722 0.43423 1.04515
 C132 C 0.10771 0.47210 1.03476
 H133 H 0.33134 0.47719 1.00509
 H134 H 0.10638 0.40060 1.05730
 H135 H 0.30849 0.37467 1.04730
 H136 H 0.12860 0.50592 1.02347
 C137 C 0.01310 -0.32187 0.48163
 C138 C -0.00623 -0.28902 0.45488
 C139 C 0.00446 -0.24061 0.46089
 N140 N -0.01102 -0.20890 0.43095
 N141 N -0.00151 -0.16489 0.43587
 C142 C 0.02370 -0.15099 0.47102
 N143 N 0.03898 -0.18274 0.50110
 N144 N 0.02963 -0.22673 0.49607
 C145 C 0.03400 -0.10261 0.47711
 C146 C 0.02357 -0.06810 0.44452
 H147 H -0.02992 -0.29889 0.42878
 H148 H 0.05030 -0.09401 0.50784
 H149 H 0.03647 -0.31121 0.50766
 H150 H 0.00863 -0.07653 0.41323
 C151 C -0.00066 0.38327 0.56346
 C152 C 0.02732 0.37645 0.53217
 C153 C 0.03361 0.33064 0.52897
 N154 N 0.05332 0.32444 0.49265
 N155 N 0.05885 0.28301 0.48897
 C156 C 0.04528 0.24637 0.52174
 N157 N 0.02613 0.25269 0.55834
 N158 N 0.02026 0.29405 0.56185
 C159 C 0.04964 0.20016 0.51739
 C160 C 0.05549 0.18906 0.47619
 H161 H 0.04518 0.40562 0.50914
 H162 H 0.04403 0.17335 0.54646
 H163 H -0.01650 0.35431 0.58793
 H164 H 0.05753 0.21506 0.44657
 C165 C 0.57017 0.02064 -0.38220
 C166 C 0.52985 0.00199 -0.35966
 C167 C 0.52643 0.00082 -0.31156
 N168 N 0.48661 -0.01779 -0.29114
 N169 N 0.48306 -0.01943 -0.24761
 C170 C 0.51924 -0.00258 -0.22282
 N171 N 0.55906 0.01605 -0.24323
 N172 N 0.56258 0.01780 -0.28678
 C173 C 0.51608 -0.00484 -0.17455
 C174 C 0.47551 -0.02135 -0.15244
 H175 H 0.50046 -0.01476 -0.37673
 H176 H 0.54651 0.00660 -0.15599
 H177 H 0.59988 0.03001 -0.36188
 H178 H 0.44495 -0.03197 -0.17113
 C179 C 0.49637 0.00042 0.34025
 C180 C 0.46265 -0.02245 0.31436
 C181 C 0.46989 -0.02578 0.26801
 N182 N 0.43529 -0.04587 0.24331
 N183 N 0.44104 -0.04806 0.20095
 C184 C 0.48166 -0.03032 0.18175
 N185 N 0.51634 -0.01053 0.20655
 N186 N 0.51057 -0.00826 0.24888
 C187 C 0.48819 -0.03097 0.13459
 C188 C 0.45269 -0.04673 0.10665
 H189 H 0.42987 -0.03818 0.32826
 H190 H 0.52139 -0.01671 0.12112
 H191 H 0.52928 0.01489 0.32624
 H192 H 0.41933 -0.06025 0.11995
 C193 C 0.51665 -0.39255 0.01878
 C194 C 0.55042 -0.35317 0.02227
 C195 C 0.54153 -0.30684 0.01735
 N196 N 0.57595 -0.27043 0.02148
 N197 N 0.56908 -0.22805 0.01632
 C198 C 0.52752 -0.22040 0.00680
 N199 N 0.49294 -0.25681 0.00270
 N200 N 0.49984 -0.29926 0.00784
 C201 C 0.52113 -0.17309 0.00086
 C202 C 0.47950 -0.16213 -0.00812
 H203 H 0.58463 -0.35551 0.03008
 H204 H 0.55054 -0.14585 0.00382
 H205 H 0.48282 -0.38768 0.01492
 H206 H 0.44981 -0.18914 -0.01066
 C207 C 0.43218 0.31525 0.00442
 C208 C 0.39890 0.28480 -0.01544
 C209 C 0.40391 0.23907 -0.02121
 N210 N 0.44342 0.22624 -0.01229
 N211 N 0.44722 0.18457 -0.01731
 C212 C 0.41164 0.15409 -0.03135
 N213 N 0.37217 0.16694 -0.04027
 N214 N 0.36844 0.20871 -0.03545
 C215 C 0.41493 0.10731 -0.03545
 C216 C 0.45573 0.09418 -0.03085
 H217 H 0.36799 0.29456 -0.02715
 H218 H 0.38445 0.08246 -0.04127
 H219 H 0.46314 0.30517 0.01525
 H220 H 0.48628 0.11951 -0.02640
 C221 C -0.32801 0.01472 0.50485
 C222 C -0.29207 0.01050 0.53424
 C223 C -0.24645 0.01774 0.51792
 N224 N -0.21254 0.01163 0.54703
 N225 N -0.17095 0.01872 0.53268
 C226 C -0.16177 0.03221 0.48871
 N227 N -0.19566 0.03831 0.45959
 N228 N -0.23724 0.03121 0.47395
 C229 C -0.11601 0.04068 0.47255
 C230 C -0.08047 0.03498 0.50155
 H231 H -0.29677 0.00032 0.56967
 H232 H -0.11018 0.05200 0.43727
 H233 H -0.32038 0.02164 0.46991
 H234 H -0.08642 0.02353 0.53679
 C235 C 0.39688 0.03350 0.44674
 C236 C 0.37218 0.05723 0.41528
 C237 C 0.32842 0.06363 0.42620
 N238 N 0.30119 0.07947 0.39367
 N239 N 0.26083 0.08389 0.40340
 C240 C 0.24656 0.07293 0.44607
 N241 N 0.27403 0.05773 0.47856
 N242 N 0.31418 0.05312 0.46882
 C243 C 0.20155 0.07489 0.45764
 C244 C 0.16854 0.08253 0.42594
 H245 H 0.38492 0.07122 0.38216
 H246 H 0.19322 0.06650 0.49257
 H247 H 0.38326 0.01981 0.47955
 H248 H 0.17633 0.09069 0.39089
 C249 C -0.00650 0.57025 1.37801
 C250 C 0.00998 0.53740 1.36132
 C251 C 0.00582 0.53321 1.31394
 N252 N 0.01504 0.49607 1.30064
 N253 N 0.01025 0.49107 1.25808
 C254 C -0.00374 0.52316 1.22719
 N255 N -0.01252 0.56053 1.24040
 N256 N -0.00804 0.56537 1.28301
 C257 C -0.00928 0.51808 1.18010
 C258 C -0.01002 0.47656 1.16625
 H259 H 0.02701 0.51433 1.38304
 H260 H -0.01419 0.54738 1.15593
 H261 H -0.01602 0.59722 1.35373
 H262 H -0.00750 0.44659 1.19068
 C263 C 0.00412 0.49050 0.66816
 C264 C -0.02039 0.45803 0.70133
 C265 C -0.01929 0.46472 0.74784
 N266 N -0.03982 0.42976 0.77935
 N267 N -0.03942 0.43520 0.82165
 C268 C -0.01868 0.47594 0.83396
 N269 N 0.00162 0.51102 0.80241
 N270 N 0.00141 0.50550 0.76012
 C271 C -0.01786 0.48244 0.88054
 C272 C -0.03176 0.44576 0.91507
 H273 H -0.04169 0.42669 0.69297
 H274 H -0.00447 0.51670 0.88795
 H275 H 0.02503 0.52176 0.67697
 H276 H -0.04318 0.41114 0.90794
   
