data_POSCAR
  _audit_creation_date              2014-09-24
  _audit_creation_method            'ToBaCCo'
  _symmetry_space_group_name_H-M    'P1'
  _symmetry_Int_Tables_number       1
  _symmetry_cell_setting            triclinic
  loop_
  _symmetry_equiv_pos_as_xyz
 x,y,z
_cell_length_a 49.6943
_cell_length_b 49.0891
_cell_length_c 48.8680
_cell_angle_alpha 90.135700
_cell_angle_beta 90.028400
_cell_angle_gamma 89.807200
loop_
  _atom_site_label
  _atom_site_type_symbol
  _atom_site_fract_x
  _atom_site_fract_y
  _atom_site_fract_z
N1 N 0.18686 1.24080 0.16596
 N2 N 0.16626 1.23846 0.18259
 C3 C 0.14871 1.25881 0.17769
 C4 C 0.15872 1.27488 0.15664
 C5 C 0.18313 1.26268 0.14985
 H6 H 0.12993 1.26135 0.18851
 H7 H 0.19708 1.26884 0.13412
 Cu8 Cu 0.16348 1.20856 0.20845
 Cu9 Cu 0.21632 1.21460 0.16560
 Cu10 Cu 0.21565 1.16507 0.21580
 N11 N 0.16552 1.18304 0.23876
 N12 N 0.18587 1.16618 0.24161
 C13 C 0.18163 1.15037 0.26364
 C14 C 0.15713 1.15760 0.27537
 C15 C 0.14762 1.17860 0.25890
 H16 H 0.19529 1.13451 0.27018
 H17 H 0.12892 1.18968 0.26100
 N18 N 0.24399 1.16731 0.18775
 N19 N 0.24426 1.18621 0.16862
 C20 C 0.26538 1.18172 0.15194
 C21 C 0.27911 1.15880 0.16092
 C22 C 0.26492 1.15028 0.18374
 H23 H 0.26991 1.19376 0.13406
 H24 H 0.26923 1.13272 0.19630
 H25 H 0.19617 1.18184 0.18237
 H26 H 0.21233 1.20617 0.20688
 N27 N 0.81167 0.75455 0.16967
 N28 N 0.82944 0.75403 0.18955
 C29 C 0.84708 0.73368 0.18486
 C30 C 0.84002 0.72067 0.16069
 C31 C 0.81735 0.73454 0.15169
 H32 H 0.86417 0.72914 0.19776
 H33 H 0.80590 0.73061 0.13331
 Cu34 Cu 0.82879 0.78048 0.21928
 Cu35 Cu 0.78308 0.78160 0.16807
 Cu36 Cu 0.78294 0.83143 0.21816
 N37 N 0.82934 0.81013 0.24579
 N38 N 0.81148 0.82988 0.24531
 C39 C 0.81706 0.84781 0.26537
 C40 C 0.83985 0.83898 0.27931
 C41 C 0.84698 0.81485 0.26617
 H42 H 0.80549 0.86610 0.26908
 H43 H 0.86395 0.80181 0.27066
 N44 N 0.75567 0.82963 0.18899
 N45 N 0.75574 0.81065 0.16986
 C46 C 0.73522 0.81535 0.15249
 C47 C 0.72149 0.83850 0.16100
 C48 C 0.73510 0.84692 0.18429
 H49 H 0.73097 0.80311 0.13462
 H50 H 0.73060 0.86454 0.19677
 H51 H 0.80504 0.81120 0.18839
 H52 H 0.78152 0.79022 0.20946
 N53 N 0.81087 1.24502 -0.16849
 N54 N 0.82955 1.24438 -0.18749
 C55 C 0.84707 1.26478 -0.18295
 C56 C 0.83899 1.27899 -0.15979
 C57 C 0.81585 1.26580 -0.15123
 H58 H 0.86477 1.26854 -0.19517
 H59 H 0.80364 1.27069 -0.13359
 Cu60 Cu 0.82961 1.21613 -0.21547
 Cu61 Cu 0.78212 1.21815 -0.16674
 Cu62 Cu 0.78209 1.16778 -0.21675
 N63 N 0.82954 1.18791 -0.24350
 N64 N 0.81084 1.16908 -0.24387
 C65 C 0.81573 1.15168 -0.26460
 C66 C 0.83893 1.15991 -0.27812
 C67 C 0.84702 1.18313 -0.26402
 H68 H 0.80342 1.13413 -0.26906
 H69 H 0.86452 1.19547 -0.26800
 N70 N 0.75478 1.17001 -0.18754
 N71 N 0.75480 1.18914 -0.16853
 C72 C 0.73430 1.18462 -0.15113
 C73 C 0.72066 1.16148 -0.15950
 C74 C 0.73425 1.15284 -0.18272
 H75 H 0.72983 1.19712 -0.13348
 H76 H 0.72997 1.13494 -0.19483
 H77 H 0.80306 1.18692 -0.18568
 H78 H 0.78169 1.20894 -0.20799
 N79 N 0.18781 0.75909 -0.16740
 N80 N 0.16731 0.76172 -0.18417
 C81 C 0.14980 0.74135 -0.17967
 C82 C 0.15978 0.72505 -0.15883
 C83 C 0.18402 0.73701 -0.15161
 H84 H 0.13092 0.73900 -0.19037
 H85 H 0.19780 0.73040 -0.13584
 Cu86 Cu 0.16456 0.79204 -0.20956
 Cu87 Cu 0.21712 0.78523 -0.16635
 Cu88 Cu 0.21653 0.83565 -0.21564
 N89 N 0.16664 0.81819 -0.23931
 N90 N 0.18690 0.83510 -0.24167
 C91 C 0.18273 0.85130 -0.26344
 C92 C 0.15838 0.84427 -0.27555
 C93 C 0.14887 0.82298 -0.25954
 H94 H 0.19634 0.86725 -0.26959
 H95 H 0.13029 0.81191 -0.26205
 N96 N 0.24472 0.83282 -0.18745
 N97 N 0.24493 0.81361 -0.16863
 C98 C 0.26592 0.81774 -0.15172
 C99 C 0.27966 0.84073 -0.16023
 C100 C 0.26561 0.84968 -0.18301
 H101 H 0.27060 0.80513 -0.13426
 H102 H 0.26975 0.86764 -0.19500
 H103 H 0.19689 0.81831 -0.18273
 H104 H 0.21339 0.79441 -0.20753
 C105 C 0.54217 1.03745 -0.00785
 H106 H 0.54272 1.03726 0.01428
 C107 C 0.56051 1.05327 -0.02241
 H108 H 0.57521 1.06541 -0.01150
 C109 C 0.52289 1.02122 -0.04919
 H110 H 0.50859 1.00828 -0.05954
 C111 C 0.54091 1.03675 -0.06455
 H112 H 0.54027 1.03590 -0.08669
 N113 N 0.52377 1.02195 -0.02135
 C114 C 0.45993 1.00790 0.03809
 H115 H 0.45941 0.98587 0.03787
 C116 C 0.44149 1.02250 0.05395
 H117 H 0.42675 1.01172 0.06610
 C118 C 0.47920 1.04895 0.02184
 H119 H 0.49353 1.05918 0.00885
 C120 C 0.46109 1.06434 0.03741
 H121 H 0.46169 1.08638 0.03656
 Zn122 Zn 0.50112 0.99970 0.00015
 N123 N 0.47837 1.02124 0.02255
 C124 C 0.52290 0.97818 0.04956
 N125 N 0.52382 0.97739 0.02173
 C126 C 0.54231 0.96182 0.00830
 C127 C 0.56072 0.94601 0.02295
 C128 C 0.54098 0.96267 0.06500
 C129 C 0.46003 0.99162 -0.03790
 C130 C 0.44163 0.97707 -0.05377
 C131 C 0.46134 0.93518 -0.03712
 C132 C 0.47940 0.95053 -0.02155
 N133 N 0.47848 0.97824 -0.02230
 H134 H 0.50854 0.99118 0.05986
 H135 H 0.54289 0.96196 -0.01383
 H136 H 0.57549 0.93382 0.01209
 H137 H 0.54032 0.96357 0.08714
 H138 H 0.45944 1.01366 -0.03771
 H139 H 0.42687 0.98789 -0.06596
 H140 H 0.46199 0.91314 -0.03623
 H141 H 0.49375 0.94026 -0.00852
 C142 C 0.44202 1.05097 0.05353
 C143 C 0.55992 1.05285 -0.05101
 C144 C 0.44224 0.94860 -0.05330
 C145 C 0.56009 0.94651 0.05155
 C146 C -0.00564 0.54162 1.03701
 H147 H 0.01612 0.54219 1.03692
 C148 C -0.02015 0.56023 1.05289
 H149 H -0.00957 0.57514 1.06519
 C150 C -0.04610 0.52207 1.02042
 H151 H -0.05614 0.50758 1.00730
 C152 C -0.06138 0.54033 1.03600
 H153 H -0.08315 0.53967 1.03502
 N154 N -0.01873 0.52297 1.02129
 C155 C 0.03993 0.45824 1.00692
 H156 H 0.03979 0.45772 0.98478
 C157 C 0.05544 0.43948 1.02150
 H158 H 0.06741 0.42450 1.01060
 C159 C 0.02380 0.47780 1.04824
 H160 H 0.01099 0.49236 1.05857
 C161 C 0.03902 0.45938 1.06361
 H162 H 0.03808 0.45996 1.08576
 Zn163 Zn 0.00256 0.49998 0.99886
 N164 N 0.02459 0.47696 1.02040
 C165 C 0.05111 0.52200 0.97735
 N166 N 0.02373 0.52291 0.97654
 C167 C 0.01050 0.54162 0.96100
 C168 C 0.02486 0.56029 0.94527
 C169 C 0.06625 0.54033 0.96192
 C170 C -0.03468 0.45840 0.99072
 C171 C -0.05042 0.43989 0.97612
 C172 C -0.03437 0.45982 0.93403
 C173 C -0.01890 0.47800 0.94942
 N174 N -0.01945 0.47705 0.97726
 H175 H 0.06126 0.50745 0.99034
 H176 H -0.01127 0.54220 0.96113
 H177 H 0.01415 0.57526 0.93314
 H178 H 0.08802 0.53969 0.96287
 H179 H -0.03435 0.45780 1.01285
 H180 H -0.06238 0.42502 0.98701
 H181 H -0.03371 0.46053 0.91188
 H182 H -0.00619 0.49250 0.93909
 C183 C 0.05490 0.43999 1.05010
 C184 C -0.04827 0.55962 1.05230
 C185 C -0.05021 0.44057 0.94753
 C186 C 0.05298 0.55969 0.94581
 C187 C 1.03701 -0.00712 0.54165
 H188 H 1.03674 0.01492 0.54217
 C189 C 1.05264 -0.02158 0.56043
 H190 H 1.06455 -0.01068 0.57543
 C191 C 1.02115 -0.04831 0.52204
 H192 H 1.00841 -0.05864 0.50746
 C193 C 1.03649 -0.06356 0.54049
 H194 H 1.03572 -0.08561 0.53989
 N195 N 1.02177 -0.02059 0.52289
 C196 C 1.00758 0.03845 0.45788
 H197 H 0.98581 0.03829 0.45729
 C198 C 1.02193 0.05415 0.43914
 H199 H 1.01123 0.06622 0.42411
 C200 C 1.04820 0.02222 0.47761
 H201 H 1.05835 0.00931 0.49222
 C202 C 1.06333 0.03763 0.45921
 H203 H 1.08511 0.03672 0.45988
 Zn204 Zn 0.99968 0.00078 0.49976
 N205 N 1.02082 0.02299 0.47667
 C206 C 0.97812 0.05003 0.52182
 N207 N 0.97756 0.02232 0.52278
 C208 C 0.96231 0.00898 0.54156
 C209 C 0.94660 0.02357 0.56022
 C210 C 0.96269 0.06541 0.54014
 C211 C 0.99178 -0.03725 0.45800
 C212 C 0.97742 -0.05317 0.43936
 C213 C 0.93603 -0.03647 0.45934
 C214 C 0.95117 -0.02086 0.47764
 N215 N 0.97854 -0.02162 0.47672
 H216 H 0.99085 0.06026 0.50722
 H217 H 0.96263 -0.01305 0.54217
 H218 H 0.93466 0.01278 0.57521
 H219 H 0.96339 0.08745 0.53943
 H220 H 1.01354 -0.03709 0.45741
 H221 H 0.98811 -0.06541 0.42441
 H222 H 0.91425 -0.03560 0.46002
 H223 H 0.94101 -0.00781 0.49218
 C224 C 1.05006 0.05365 0.43976
 C225 C 1.05230 -0.05005 0.55990
 C226 C 0.94929 -0.05270 0.44000
 C227 C 0.94685 0.05204 0.55955
 C228 C 0.14632 0.33354 1.10959
 C229 C 0.12099 0.34235 1.11838
 C230 C 0.10846 0.32928 1.14029
 C231 C 0.12101 0.30725 1.15318
 C232 C 0.14643 0.29776 1.14430
 C233 C 0.15897 0.31151 1.12241
 C234 C 0.10746 0.36423 1.10438
 C235 C 0.09585 0.38219 1.09237
 C236 C 0.08193 0.40278 1.07799
 C237 C 0.06977 0.41997 1.06543
 H238 H 0.15620 0.34352 1.09261
 H239 H 0.08881 0.33594 1.14726
 H240 H 0.11045 0.29767 1.16989
 H241 H 0.17846 0.30531 1.11477
 C242 C -0.11129 0.66230 1.14720
 C243 C -0.11806 0.65505 1.12038
 C244 C -0.13880 0.66889 1.10688
 C245 C -0.15259 0.69005 1.12004
 C246 C -0.14580 0.69772 1.14695
 C247 C -0.12505 0.68346 1.16042
 C248 C -0.10338 0.63384 1.10645
 C249 C -0.09095 0.61637 1.09449
 C250 C -0.07626 0.59625 1.08016
 C251 C -0.06358 0.57937 1.06762
 H252 H -0.09526 0.65170 1.15786
 H253 H -0.14417 0.66349 1.08608
 H254 H -0.16828 0.70054 1.10888
 H255 H -0.11935 0.68854 1.18117
 C256 C -0.11235 0.33711 0.85342
 C257 C -0.11993 0.34533 0.87974
 C258 C -0.14126 0.33231 0.89292
 C259 C -0.15483 0.31096 0.87998
 C260 C -0.14720 0.30227 0.85361
 C261 C -0.12588 0.31575 0.84042
 C262 C -0.10536 0.36661 0.89355
 C263 C -0.09298 0.38410 0.90542
 C264 C -0.07830 0.40419 0.91968
 C265 C -0.06559 0.42098 0.93219
 H266 H -0.09585 0.34706 0.84301
 H267 H -0.14725 0.33846 0.91335
 H268 H -0.17098 0.30107 0.89091
 H269 H -0.11954 0.30989 0.82007
 C270 C 0.11069 0.66744 0.85463
 C271 C 0.12067 0.65683 0.87917
 C272 C 0.14380 0.66802 0.89095
 C273 C 0.15674 0.68994 0.87843
 C274 C 0.14668 0.70106 0.85391
 C275 C 0.12359 0.68937 0.84206
 C276 C 0.10670 0.63507 0.89274
 C277 C 0.09476 0.61721 0.90442
 C278 C 0.08050 0.59672 0.91845
 C279 C 0.06809 0.57962 0.93075
 H280 H 0.09279 0.65893 0.84533
 H281 H 0.15165 0.66002 0.91001
 H282 H 0.17433 0.69838 0.88830
 H283 H 0.11535 0.69712 0.82312
 C284 C 1.10583 0.14240 0.32908
 C285 C 1.11791 0.12048 0.34258
 C286 C 1.14329 0.11131 0.33430
 C287 C 1.15644 0.12376 0.31238
 C288 C 1.14435 0.14565 0.29818
 C289 C 1.11889 0.15492 0.30714
 C290 C 1.10389 0.10685 0.36434
 C291 C 1.09191 0.09512 0.38221
 C292 C 1.07762 0.08105 0.40269
 C293 C 1.06518 0.06873 0.41981
 H294 H 1.08615 0.14966 0.33532
 H295 H 1.15283 0.09432 0.34462
 H296 H 1.17594 0.11584 0.30660
 H297 H 1.10867 0.17167 0.29722
 C298 C 1.14483 -0.10862 0.66602
 C299 C 1.11963 -0.11771 0.65727
 C300 C 1.10757 -0.13982 0.67033
 C301 C 1.12045 -0.15262 0.69227
 C302 C 1.14574 -0.14345 0.70168
 C303 C 1.15781 -0.12134 0.68795
 C304 C 1.10577 -0.10385 0.63547
 C305 C 1.09392 -0.09195 0.61757
 C306 C 1.07974 -0.07771 0.59704
 C307 C 1.06737 -0.06526 0.57989
 H308 H 1.15436 -0.09148 0.65605
 H309 H 1.08802 -0.14703 0.66372
 H310 H 1.11025 -0.16950 0.70183
 H311 H 1.17718 -0.11347 0.69410
 C312 C 0.89019 -0.14614 0.33419
 C313 C 0.88052 -0.12134 0.34434
 C314 C 0.85713 -0.10994 0.33332
 C315 C 0.84354 -0.12311 0.31204
 C316 C 0.85317 -0.14803 0.30129
 C317 C 0.87668 -0.15941 0.31291
 C318 C 0.89495 -0.10725 0.36561
 C319 C 0.90716 -0.09517 0.38314
 C320 C 0.92163 -0.08071 0.40331
 C321 C 0.93415 -0.06809 0.42022
 H322 H 0.90833 -0.15516 0.34258
 H323 H 0.84946 -0.09071 0.34103
 H324 H 0.82561 -0.11343 0.30410
 H325 H 0.88498 -0.17846 0.30564
 C326 C 0.88901 0.14455 0.66686
 C327 C 0.87848 0.12057 0.65582
 C328 C 0.85455 0.10993 0.66624
 C329 C 0.84130 0.12303 0.68783
 C330 C 0.85183 0.14709 0.69951
 C331 C 0.87585 0.15774 0.68845
 C332 C 0.89263 0.10646 0.63432
 C333 C 0.90470 0.09440 0.61664
 C334 C 0.91910 0.07997 0.59633
 C335 C 0.93163 0.06739 0.57935
 H336 H 0.90756 0.15297 0.65894
 H337 H 0.84621 0.09134 0.65783
 H338 H 0.82296 0.11395 0.69530
 H339 H 0.88484 0.17613 0.69642
 C340 C 0.33245 1.10608 0.14301
 C341 C 0.34635 1.11917 0.12196
 C342 C 0.33877 1.14548 0.11410
 C343 C 0.31716 1.15854 0.12700
 C344 C 0.30276 1.14541 0.14796
 C345 C 0.31084 1.11908 0.15596
 C346 C 0.36780 1.10524 0.10787
 C347 C 0.38540 1.09327 0.09580
 C348 C 0.40556 1.07890 0.08139
 C349 C 0.42240 1.06633 0.06883
 H350 H 0.33809 1.08566 0.14921
 H351 H 0.34941 1.15582 0.09782
 H352 H 0.31179 1.17886 0.12043
 H353 H 0.30026 1.10820 0.17184
 C354 C 0.66814 1.14295 -0.10627
 C355 C 0.65464 1.12160 -0.11930
 C356 C 0.66229 1.11364 -0.14569
 C357 C 0.68353 1.12679 -0.15890
 C358 C 0.69749 1.14811 -0.14587
 C359 C 0.68938 1.15614 -0.11944
 C360 C 0.63348 1.10737 -0.10528
 C361 C 0.61608 1.09523 -0.09326
 C362 C 0.59610 1.08075 -0.07889
 C363 C 0.57940 1.06816 -0.06633
 H364 H 0.66245 1.14923 -0.08580
 H365 H 0.65196 1.09712 -0.15597
 H366 H 0.68893 1.12015 -0.17929
 H367 H 0.69965 1.17230 -0.10862
 C368 C 0.33301 0.85899 -0.10765
 C369 C 0.34668 0.88001 -0.12093
 C370 C 0.33891 0.88777 -0.14731
 C371 C 0.31736 0.87477 -0.16026
 C372 C 0.30321 0.85383 -0.14694
 C373 C 0.31146 0.84595 -0.12054
 C374 C 0.36808 0.89417 -0.10713
 C375 C 0.38565 0.90627 -0.09525
 C376 C 0.40580 0.92071 -0.08100
 C377 C 0.42263 0.93328 -0.06854
 H378 H 0.33879 0.85288 -0.08717
 H379 H 0.34937 0.90402 -0.15780
 H380 H 0.31184 0.88124 -0.18065
 H381 H 0.30105 0.83009 -0.10952
 C382 C 0.66435 0.85308 0.11132
 C383 C 0.65519 0.87840 0.12069
 C384 C 0.66724 0.89042 0.14357
 C385 C 0.68856 0.87734 0.15688
 C386 C 0.69821 0.85199 0.14745
 C387 C 0.68567 0.83994 0.12459
 C388 C 0.63395 0.89240 0.10639
 C389 C 0.61649 0.90440 0.09418
 C390 C 0.59644 0.91874 0.07963
 C391 C 0.57966 0.93125 0.06696
 H392 H 0.65517 0.84358 0.09360
 H393 H 0.66033 0.91006 0.15097
 H394 H 0.69759 0.88738 0.17430
 H395 H 0.69228 0.82043 0.11676
   
