data_POSCAR
  _audit_creation_date              2014-09-24
  _audit_creation_method            'ToBaCCo'
  _symmetry_space_group_name_H-M    'P1'
  _symmetry_Int_Tables_number       1
  _symmetry_cell_setting            triclinic
  loop_
  _symmetry_equiv_pos_as_xyz
 x,y,z
_cell_length_a 32.4147
_cell_length_b 31.9430
_cell_length_c 7.2326
_cell_angle_alpha 90.081800
_cell_angle_beta 90.353500
_cell_angle_gamma 90.079500
loop_
  _atom_site_label
  _atom_site_type_symbol
  _atom_site_fract_x
  _atom_site_fract_y
  _atom_site_fract_z
O1 O 0.22078 0.28739 0.06142
 O2 O 0.29656 0.20790 0.20076
 O3 O 0.22046 0.20582 0.08619
 O4 O 0.29612 0.28856 0.17866
 O5 O 0.27893 0.29199 0.47285
 O6 O 0.20080 0.21074 0.37671
 O7 O 0.27713 0.21018 0.49208
 O8 O 0.20296 0.29145 0.35454
 Cu9 Cu 0.26090 0.24683 0.10377
 Cu10 Cu 0.23757 0.25151 0.45231
 C11 C 0.19861 0.30309 0.18809
 C12 C 0.30028 0.19556 0.36640
 C13 C 0.19692 0.19459 0.21719
 C14 C 0.30078 0.30442 0.33810
 O15 O 0.79681 0.29005 0.30596
 O16 O 0.72079 0.20967 0.43455
 O17 O 0.79636 0.20911 0.31911
 O18 O 0.72107 0.29146 0.42430
 O19 O 0.70203 0.28918 0.13117
 O20 O 0.77744 0.20639 0.02606
 O21 O 0.70141 0.20795 0.14210
 O22 O 0.77729 0.28824 0.01338
 Cu23 Cu 0.76121 0.25033 0.39915
 Cu24 Cu 0.73703 0.24763 0.04995
 C25 C 0.80047 0.30271 0.14069
 C26 C 0.69762 0.19514 0.30712
 C27 C 0.80016 0.19370 0.15847
 C28 C 0.69851 0.30453 0.29222
 O29 O 0.72346 0.79650 0.57749
 O30 O 0.79672 0.71155 0.66261
 O31 O 0.72064 0.71502 0.55235
 O32 O 0.79860 0.79166 0.70464
 O33 O 0.77787 0.78792 0.99384
 O34 O 0.70156 0.70955 0.84366
 O35 O 0.77804 0.70633 0.95433
 O36 O 0.70246 0.79034 0.86579
 Cu37 Cu 0.76222 0.75433 0.59668
 Cu38 Cu 0.73762 0.74804 0.94255
 C39 C 0.69976 0.80748 0.70786
 C40 C 0.80047 0.69463 0.82002
 C41 C 0.69763 0.69908 0.67542
 C42 C 0.80184 0.80294 0.87251
 O43 O 0.29572 0.79048 0.84632
 O44 O 0.22182 0.70686 0.94668
 O45 O 0.29704 0.70982 0.82334
 O46 O 0.21906 0.78887 0.94826
 O47 O 0.20144 0.79076 0.65365
 O48 O 0.27793 0.71126 0.53008
 O49 O 0.20232 0.70955 0.65426
 O50 O 0.27792 0.79280 0.55181
 Cu51 Cu 0.26075 0.74875 0.91925
 Cu52 Cu 0.23739 0.75113 0.56929
 C53 C 0.30011 0.80573 0.68615
 C54 C 0.19882 0.69420 0.81533
 C55 C 0.30121 0.69739 0.65781
 C56 C 0.19703 0.80386 0.81766
 C57 C 1.02075 0.12678 0.12394
 C58 C 0.97877 0.12617 0.12012
 C59 C 0.96674 0.08549 0.07903
 N60 N 1.00068 0.06097 0.06277
 C61 C 1.03389 0.08620 0.09125
 C62 C 0.92505 0.07123 0.07069
 C63 C 0.91592 0.02809 0.09600
 C64 C 0.88154 0.01293 0.18646
 C65 C 0.88155 -0.02964 0.16637
 C66 C 0.91720 -0.04025 0.07160
 N67 N 0.93826 -0.00455 0.03127
 C68 C 0.92774 -0.08088 0.00454
 C69 C 0.96786 -0.08723 -0.06673
 C70 C 0.97842 -0.11321 -0.21265
 C71 C 1.02056 -0.11366 -0.22026
 C72 C 1.03431 -0.08618 -0.08539
 N73 N 1.00215 -0.06935 0.00632
 C74 C 1.07599 -0.07566 -0.05546
 C75 C 1.08708 -0.03291 -0.04889
 C76 C 1.12153 -0.01619 -0.13403
 C77 C 1.12024 0.02613 -0.10551
 C78 C 1.08604 0.03408 0.00288
 N79 N 1.06490 -0.00191 0.03073
 C80 C 1.07590 0.07358 0.07844
 H81 H 1.03888 0.15476 0.14528
 H82 H 0.95993 0.15301 0.15236
 H83 H 1.03914 -0.00566 0.11467
 H84 H 0.85835 0.03050 0.26010
 H85 H 0.85683 -0.04912 0.21473
 H86 H 0.95809 -0.12925 -0.30840
 H87 H 1.03876 -0.13045 -0.32078
 H88 H 1.14190 0.04855 -0.16116
 H89 H 0.96389 -0.00220 -0.05452
 H90 H 1.14449 -0.03231 -0.21503
 C91 C 0.47955 0.59981 0.76989
 C92 C 0.52197 0.59965 0.76938
 C93 C 0.53363 0.58198 0.60272
 N94 N 0.50016 0.57008 0.50415
 C95 C 0.46716 0.58216 0.60367
 C96 C 0.57412 0.57774 0.53593
 C97 C 0.58544 0.53906 0.45315
 C98 C 0.62196 0.53060 0.36125
 C99 C 0.62181 0.48865 0.32064
 C100 C 0.58622 0.47182 0.39560
 N101 N 0.56373 0.50295 0.47191
 C102 C 0.57592 0.42858 0.39682
 C103 C 0.53394 0.41551 0.38243
 C104 C 0.52103 0.37673 0.31781
 C105 C 0.47901 0.37653 0.32258
 C106 C 0.46683 0.41522 0.38949
 N107 N 0.50055 0.43953 0.42006
 C108 C 0.42509 0.42803 0.41148
 C109 C 0.41458 0.47107 0.40600
 C110 C 0.37836 0.48715 0.33243
 C111 C 0.37813 0.52922 0.36974
 C112 C 0.41511 0.53837 0.45884
 N113 N 0.43730 0.50264 0.47836
 C114 C 0.42638 0.57732 0.53951
 H115 H 0.46013 0.61067 0.88129
 H116 H 0.54190 0.61052 0.88009
 H117 H 0.46411 0.49927 0.55700
 H118 H 0.64708 0.55138 0.32867
 H119 H 0.64559 0.47259 0.24418
 H120 H 0.53942 0.35154 0.26238
 H121 H 0.45997 0.35120 0.27145
 H122 H 0.35262 0.54963 0.33792
 H123 H 0.53741 0.49913 0.55203
 H124 H 0.35413 0.47044 0.26003
 C125 C -0.02107 0.62691 -0.12655
 C126 C 0.02097 0.62707 -0.11988
 C127 C 0.03323 0.58639 -0.08220
 N128 N -0.00032 0.56139 -0.06488
 C129 C -0.03369 0.58622 -0.09123
 C130 C 0.07458 0.57332 -0.05283
 C131 C 0.08240 0.53358 0.02375
 C132 C 0.11164 0.52542 0.15899
 C133 C 0.11175 0.48288 0.18461
 C134 C 0.08248 0.46632 0.06433
 N135 N 0.06344 0.49764 -0.02839
 C136 C 0.07466 0.42313 0.03959
 C137 C 0.03325 0.40869 0.02683
 C138 C 0.02038 0.36814 0.06389
 C139 C -0.02159 0.36791 0.05212
 C140 C -0.03366 0.40846 0.01095
 N141 N 0.00000 0.43339 -0.00508
 C142 C -0.07502 0.42163 -0.01814
 C143 C -0.08292 0.46156 -0.09248
 C144 C -0.11304 0.47045 -0.22300
 C145 C -0.11342 0.51315 -0.24373
 C146 C -0.08329 0.52900 -0.12604
 N147 N -0.06362 0.49722 -0.03937
 C148 C -0.07517 0.57194 -0.09763
 H149 H -0.03962 0.65390 -0.16092
 H150 H 0.03978 0.65468 -0.13790
 H151 H -0.04155 0.50007 0.06570
 H152 H 0.13067 0.54787 0.23261
 H153 H 0.13089 0.46615 0.28269
 H154 H 0.03856 0.34135 0.10441
 H155 H -0.04052 0.34044 0.07140
 H156 H -0.13332 0.53052 -0.33654
 H157 H 0.04193 0.49432 -0.13553
 H158 H -0.13264 0.44838 -0.29593
 C159 C 0.47890 1.13169 0.44977
 C160 C 0.52082 1.13156 0.43477
 C161 C 0.53393 1.09115 0.47291
 N162 N 0.50087 1.06644 0.50808
 C163 C 0.46709 1.09120 0.49336
 C164 C 0.57529 1.07681 0.45918
 C165 C 0.58302 1.03347 0.44001
 C166 C 0.61205 1.01617 0.32247
 C167 C 0.61199 0.97384 0.35376
 C168 C 0.58288 0.96649 0.48901
 N169 N 0.56407 1.00271 0.53622
 C170 C 0.57509 0.92722 0.56999
 C171 C 0.53377 0.91387 0.59590
 C172 C 0.52160 0.87311 0.63301
 C173 C 0.47954 0.87291 0.63467
 C174 C 0.46685 0.91348 0.59754
 N175 N 0.50017 0.93856 0.57445
 C176 C 0.42539 0.92758 0.60086
 C177 C 0.41749 0.97047 0.63031
 C178 C 0.38788 0.98617 0.74910
 C179 C 0.38868 1.02892 0.73088
 C180 C 0.41838 1.03794 0.60012
 N181 N 0.43715 1.00232 0.54483
 C182 C 0.42592 1.07789 0.52547
 H183 H 0.45983 1.15907 0.43099
 H184 H 0.53877 1.15830 0.39196
 H185 H 0.45876 0.99957 0.43905
 H186 H 0.63104 1.03229 0.22266
 H187 H 0.63095 0.95096 0.28383
 H188 H 0.54050 0.84567 0.65346
 H189 H 0.46102 0.84582 0.66746
 H190 H 0.36946 1.05091 0.80484
 H191 H 0.54276 1.00660 0.64256
 H192 H 0.36807 0.96868 0.84094
 C193 C 1.16620 0.16334 0.18565
 C194 C 1.18404 0.11896 0.17666
 C195 C 1.15502 0.08869 0.14835
 C196 C 1.11052 0.10552 0.12249
 C197 C 1.10427 0.12990 0.30455
 C198 C 1.13264 0.16056 0.33577
 C199 C 1.14236 0.16913 0.00362
 C200 C 1.11378 0.13894 -0.02973
 H201 H 1.21599 0.11153 0.20844
 H202 H 1.16279 0.05592 0.16602
 H203 H 1.08061 0.12240 0.40487
 H204 H 1.13224 0.17937 0.46096
 H205 H 1.14758 0.19476 -0.09201
 H206 H 1.09490 0.13880 -0.15431
 C207 C 0.66480 0.66761 0.62768
 C208 C 0.62165 0.68300 0.68055
 C209 C 0.59112 0.65473 0.64652
 C210 C 0.60644 0.61255 0.56687
 C211 C 0.62944 0.62682 0.39118
 C212 C 0.66045 0.65498 0.42323
 C213 C 0.67062 0.62640 0.73255
 C214 C 0.64029 0.59795 0.70168
 H215 H 0.61512 0.71497 0.72241
 H216 H 0.55914 0.66444 0.65116
 H217 H 0.62045 0.61756 0.25218
 H218 H 0.67828 0.66867 0.31214
 H219 H 0.69649 0.62013 0.82452
 H220 H 0.64026 0.56750 0.76824
 C221 C -0.16721 0.33507 0.09729
 C222 C -0.14118 0.32460 -0.07288
 C223 C -0.11214 0.35393 -0.11271
 C224 C -0.11075 0.39113 0.02282
 C225 C -0.15546 0.40830 0.02342
 C226 C -0.18483 0.37879 0.05937
 C227 C -0.13574 0.34205 0.25472
 C228 C -0.10697 0.37166 0.21713
 H229 H -0.14556 0.29670 -0.15662
 H230 H -0.09193 0.35108 -0.23118
 H231 H -0.16356 0.44117 0.01709
 H232 H -0.21720 0.38664 0.07517
 H233 H -0.13681 0.32648 0.38796
 H234 H -0.08425 0.38140 0.31949
 C235 C 0.33263 0.83886 0.65841
 C236 C 0.35852 0.84768 0.83375
 C237 C 0.38806 0.87715 0.81165
 C238 C 0.39004 0.89560 0.61650
 C239 C 0.39364 0.85769 0.48442
 C240 C 0.36420 0.82777 0.50907
 C241 C 0.31579 0.88178 0.60005
 C242 C 0.34574 0.91137 0.57576
 H243 H 0.35393 0.83247 0.96624
 H244 H 0.40819 0.88686 0.92446
 H245 H 0.41652 0.85531 0.37595
 H246 H 0.36240 0.79982 0.42376
 H247 H 0.28346 0.88776 0.57035
 H248 H 0.33856 0.94209 0.52066
 C249 C -0.16739 0.66114 -0.15425
 C250 C -0.13568 0.67154 -0.00278
 C251 C -0.10651 0.64139 0.02138
 C252 C -0.11044 0.60395 -0.11336
 C253 C -0.15486 0.58830 -0.07558
 C254 C -0.18458 0.61812 -0.09949
 C255 C -0.14171 0.65277 -0.32900
 C256 C -0.11241 0.62304 -0.30752
 H257 H -0.13722 0.69920 0.08429
 H258 H -0.08364 0.64324 0.13142
 H259 H -0.16229 0.55751 -0.02200
 H260 H -0.21694 0.61225 -0.07151
 H261 H -0.14638 0.66837 -0.46071
 H262 H -0.09251 0.61349 -0.42022
 C263 C 0.33283 1.16352 0.41104
 C264 C 0.31556 1.11976 0.45072
 C265 C 0.34522 1.09053 0.48623
 C266 C 0.38988 1.10805 0.48506
 C267 C 0.39273 1.12721 0.29017
 C268 C 0.36369 1.15652 0.25280
 C269 C 0.35952 1.17448 0.57999
 C270 C 0.38891 1.14545 0.61956
 H271 H 0.28316 1.11164 0.43626
 H272 H 0.33728 1.05761 0.49260
 H273 H 0.41501 1.11746 0.18720
 H274 H 0.36205 1.17186 0.11910
 H275 H 0.35537 1.20249 0.66291
 H276 H 0.40965 1.14863 0.73721
 C277 C 1.16643 -0.16500 -0.14714
 C278 C 1.18002 -0.13017 -0.01325
 C279 C 1.15010 -0.10120 0.01991
 C280 C 1.10937 -0.10886 -0.08753
 C281 C 1.12202 -0.11257 -0.29077
 C282 C 1.15169 -0.14152 -0.32228
 C283 C 1.12696 -0.18299 -0.06190
 C284 C 1.09730 -0.15375 -0.02942
 H285 H 1.21005 -0.12895 0.05390
 H286 H 1.15474 -0.07569 0.11711
 H287 H 1.10892 -0.09361 -0.40091
 H288 H 1.16380 -0.14666 -0.46018
 H289 H 1.12310 -0.21570 -0.02470
 H290 H 1.06841 -0.16173 0.03696
 C291 C 0.66671 0.33804 0.32518
 C292 C 0.63108 0.32347 0.44796
 C293 C 0.60220 0.35358 0.47899
 C294 C 0.61044 0.39547 0.37841
 C295 C 0.65386 0.40710 0.45361
 C296 C 0.68332 0.37746 0.42212
 C297 C 0.64606 0.35413 0.14695
 C298 C 0.61708 0.38389 0.17493
 H299 H 0.62996 0.29302 0.51426
 H300 H 0.57708 0.34878 0.57531
 H301 H 0.66032 0.43441 0.53835
 H302 H 0.71465 0.38045 0.47444
 H303 H 0.65373 0.34343 0.00899
 H304 H 0.60026 0.39826 0.06134
 C305 C 0.83358 -0.16797 -0.08038
 C306 C 0.83214 -0.12878 -0.20197
 C307 C 0.86342 -0.10158 -0.17045
 C308 C 0.89391 -0.11495 -0.01814
 C309 C 0.86709 -0.12445 0.15305
 C310 C 0.83497 -0.15137 0.11987
 C311 C 0.87661 -0.18671 -0.10907
 C312 C 0.90796 -0.15961 -0.07217
 H313 H 0.80832 -0.12277 -0.30490
 H314 H 0.86618 -0.07253 -0.24727
 H315 H 0.87514 -0.11456 0.29231
 H316 H 0.81509 -0.16244 0.22971
 H317 H 0.88207 -0.21988 -0.13184
 H318 H 0.93902 -0.17142 -0.05283
 C319 C 0.33313 0.33777 0.36429
 C320 C 0.31816 0.37741 0.46326
 C321 C 0.34824 0.40693 0.48675
 C322 C 0.39046 0.39489 0.40234
 C323 C 0.39988 0.35316 0.50225
 C324 C 0.37032 0.32319 0.47926
 C325 C 0.35139 0.35349 0.18094
 C326 C 0.38095 0.38305 0.20122
 H327 H 0.28755 0.38077 0.52149
 H328 H 0.34312 0.43465 0.57025
 H329 H 0.42641 0.34833 0.59198
 H330 H 0.37214 0.29284 0.54618
 H331 H 0.34157 0.34288 0.04500
 H332 H 0.39616 0.39723 0.08346
 C333 C 0.16662 0.66117 -0.14985
 C334 C 0.13598 0.65495 -0.31101
 C335 C 0.10720 0.62494 -0.27971
 C336 C 0.11020 0.60431 -0.08752
 C337 C 0.15502 0.58742 -0.08566
 C338 C 0.18437 0.61733 -0.11532
 C339 C 0.13971 0.67038 0.01901
 C340 C 0.11070 0.64065 0.05251
 H341 H 0.13766 0.67128 -0.44230
 H342 H 0.08503 0.61567 -0.38529
 H343 H 0.16326 0.55457 -0.08020
 H344 H 0.21691 0.60985 -0.12734
 H345 H 0.14358 0.69772 0.10686
 H346 H 0.09000 0.64256 0.16966
 C347 C 0.66688 1.16447 0.34862
 C348 C 0.68461 1.12236 0.41343
 C349 C 0.65519 1.09334 0.45562
 C350 C 0.61032 1.10854 0.42439
 C351 C 0.60882 1.14821 0.54687
 C352 C 0.63764 1.17770 0.50444
 C353 C 0.63829 1.15331 0.18448
 C354 C 0.60921 1.12431 0.22424
 H355 H 0.71730 1.11665 0.43530
 H356 H 0.66334 1.06366 0.51861
 H357 H 0.58789 1.15208 0.66220
 H358 H 0.64059 1.20680 0.58120
 H359 H 0.64060 1.16673 0.04706
 H360 H 0.58726 1.11321 0.12118
 C361 C 0.16639 0.33547 0.14340
 C362 C 0.13666 0.32249 -0.01239
 C363 C 0.10772 0.35202 -0.05306
 C364 C 0.10972 0.39139 0.07135
 C365 C 0.10934 0.37519 0.27076
 C366 C 0.13851 0.34617 0.30837
 C367 C 0.18400 0.37768 0.08004
 C368 C 0.15448 0.40678 0.03978
 H369 H 0.13948 0.29361 -0.09056
 H370 H 0.08641 0.34841 -0.16842
 H371 H 0.08780 0.38599 0.37490
 H372 H 0.14138 0.33235 0.44490
 H373 H 0.21662 0.38335 0.05764
 H374 H 0.16236 0.43664 -0.02202
 C375 C 0.66745 0.84031 0.67368
 C376 C 0.64075 0.83098 0.50275
 C377 C 0.61158 0.86039 0.46767
 C378 C 0.61073 0.89656 0.60817
 C379 C 0.60767 0.87575 0.79994
 C380 C 0.63668 0.84602 0.83295
 C381 C 0.68494 0.88435 0.64138
 C382 C 0.65540 0.91396 0.60999
 H383 H 0.64485 0.80375 0.41473
 H384 H 0.59093 0.85832 0.34923
 H385 H 0.58537 0.88477 0.90405
 H386 H 0.63853 0.82970 0.96434
 H387 H 0.71741 0.89216 0.65597
 H388 H 0.66332 0.94692 0.60508
 C389 C 0.83251 0.16056 0.12771
 C390 C 0.86607 0.17347 -0.00981
 C391 C 0.89538 0.14352 -0.03705
 C392 C 0.88976 0.10373 0.08200
 C393 C 0.88534 0.11923 0.28153
 C394 C 0.85594 0.14862 0.30560
 C395 C 0.81590 0.11895 0.05087
 C396 C 0.84582 0.08954 0.02316
 H397 H 0.86540 0.20246 -0.08792
 H398 H 0.91914 0.14695 -0.14104
 H399 H 0.90391 0.10762 0.39592
 H400 H 0.84981 0.16171 0.44122
 H401 H 0.78406 0.11413 0.00852
 H402 H 0.83915 0.06043 -0.04853
 C403 C 0.33467 0.66622 0.61814
 C404 C 0.37748 0.68226 0.67653
 C405 C 0.40844 0.65428 0.64817
 C406 C 0.39382 0.61183 0.56756
 C407 C 0.35958 0.59707 0.69863
 C408 C 0.32882 0.62519 0.72414
 C409 C 0.34003 0.65322 0.41496
 C410 C 0.37140 0.62545 0.38838
 H411 H 0.38347 0.71429 0.71974
 H412 H 0.44030 0.66422 0.65923
 H413 H 0.35970 0.56681 0.76681
 H414 H 0.30270 0.61886 0.81317
 H415 H 0.32248 0.66636 0.30075
 H416 H 0.38082 0.61575 0.25110
   
