data_POSCAR
  _audit_creation_date              2014-09-24
  _audit_creation_method            'ToBaCCo'
  _symmetry_space_group_name_H-M    'P1'
  _symmetry_Int_Tables_number       1
  _symmetry_cell_setting            triclinic
  loop_
  _symmetry_equiv_pos_as_xyz
 x,y,z
_cell_length_a 57.2555
_cell_length_b 57.2793
_cell_length_c 16.7110
_cell_angle_alpha 90.034100
_cell_angle_beta 89.986200
_cell_angle_gamma 119.931900
loop_
  _atom_site_label
  _atom_site_type_symbol
  _atom_site_fract_x
  _atom_site_fract_y
  _atom_site_fract_z
C1 C 0.22736 0.49792 0.45817
 C2 C 0.22816 0.49931 0.54371
 C3 C 0.25068 0.50108 0.58380
 C4 C 0.27218 0.50103 0.54300
 C5 C 0.27094 0.49914 0.45819
 C6 C 0.24874 0.49749 0.41773
 H7 H 0.24872 0.49674 0.35288
 H8 H 0.25131 0.50209 0.64857
 C9 C 0.50212 -0.27084 0.45683
 C10 C 0.49881 -0.27219 0.54138
 C11 C 0.49789 -0.25126 0.58225
 C12 C 0.50139 -0.22804 0.54258
 C13 C 0.50486 -0.22661 0.45802
 C14 C 0.50559 -0.24764 0.41712
 H15 H 0.50695 -0.24664 0.35237
 H16 H 0.49661 -0.25227 0.64702
 C17 C 1.27020 0.77345 0.45498
 C18 C 1.26861 0.77453 0.53994
 C19 C 1.24675 0.75361 0.58065
 C20 C 1.22642 0.73137 0.53993
 C21 C 1.22782 0.73006 0.45575
 C22 C 1.24982 0.75071 0.41479
 H23 H 1.24989 0.74982 0.34999
 H24 H 1.24606 0.75416 0.64546
 C25 C 0.77439 0.50562 0.45880
 C26 C 0.77297 0.50223 0.54331
 C27 C 0.75028 0.49992 0.58381
 C28 C 0.73006 0.50271 0.54406
 C29 C 0.73193 0.50616 0.45952
 C30 C 0.75403 0.50769 0.41874
 H31 H 0.75473 0.50923 0.35398
 H32 H 0.74979 0.49871 0.64855
 C33 C 0.49384 0.26798 0.45901
 C34 C 0.49748 0.26999 0.54351
 C35 C 0.50028 0.24981 0.58348
 C36 C 0.49788 0.22706 0.54320
 C37 C 0.49448 0.22561 0.45869
 C38 C 0.49233 0.24587 0.41844
 H39 H 0.49076 0.24509 0.35368
 H40 H 0.50154 0.25040 0.64820
 C41 C 0.72997 0.22787 0.45758
 C42 C 0.72893 0.22897 0.54189
 C43 C 0.74968 0.25082 0.58305
 C44 C 0.77230 0.27129 0.54275
 C45 C 0.77308 0.27005 0.45764
 C46 C 0.75207 0.24831 0.41674
 H47 H 0.75243 0.24782 0.35188
 H48 H 0.74895 0.25072 0.64788
 O49 O 0.96311 0.44168 0.14955
 O50 O 0.93312 0.44691 0.07099
 C51 C 0.93889 0.43537 0.12810
 O52 O 1.03824 0.56162 0.13717
 O53 O 1.06793 0.55409 0.06456
 C54 C 1.06238 0.56743 0.11644
 O55 O 0.96288 0.52213 0.14481
 O56 O 0.93302 0.48595 0.06925
 C57 C 0.93869 0.50387 0.12445
 O58 O 1.03845 0.47710 0.14101
 O59 O 1.06802 0.51370 0.06629
 C60 C 1.06258 0.49531 0.11972
 Zr61 Zr 1.00061 0.47063 0.10010
 O62 O 1.00143 0.46802 0.22621
 O63 O 0.99973 0.43349 0.08776
 Zr64 Zr 1.00048 0.52965 0.09851
 O65 O 1.00321 0.53161 0.22494
 O66 O 0.99751 0.56504 0.09514
 O67 O 0.97662 0.48824 0.11554
 O68 O 1.02395 0.51192 0.11382
 O69 O 1.03779 0.47515 -0.13924
 O70 O 1.06769 0.51283 -0.06895
 C71 C 1.06198 0.49359 -0.11963
 O72 O 0.96238 0.52088 -0.14919
 O73 O 0.93277 0.48539 -0.07106
 C74 C 0.93826 0.50286 -0.12749
 O75 O 1.03776 0.56064 -0.14341
 O76 O 1.06770 0.55360 -0.07051
 C77 C 1.06197 0.56662 -0.12301
 O78 O 0.96253 0.44017 -0.14738
 O79 O 0.93283 0.44622 -0.06989
 C80 C 0.93839 0.43408 -0.12577
 Zr81 Zr 1.00020 0.46984 -0.10079
 O82 O 1.00321 0.46990 -0.22697
 O83 O 0.99712 0.43146 -0.09584
 Zr84 Zr 1.00015 0.52886 -0.10312
 O85 O 1.00309 0.53036 -0.22953
 O86 O 0.99703 0.56418 -0.10159
 Zr87 Zr 0.95997 0.47959 -0.00069
 Zr88 Zr 1.04069 0.51999 -0.00188
 O89 O 1.02355 0.51098 -0.11713
 O90 O 0.97613 0.48729 -0.11751
 O91 O 1.02468 0.47790 -0.00043
 O92 O 0.97675 0.52171 -0.00210
 O93 O 0.97667 0.45415 0.00031
 O94 O 1.02448 0.54593 -0.00280
 H95 H 1.03608 0.51821 0.16087
 H96 H 0.96454 0.52930 -0.00238
 H97 H 1.03552 0.51675 -0.16456
 H98 H 0.96434 0.43439 0.00107
 H99 H 1.01327 0.57887 0.06523
 H100 H 1.01277 0.57817 -0.07196
 H101 H 0.98811 0.51330 -0.25061
 H102 H 0.99047 0.47520 -0.24865
 H103 H 1.01173 0.43304 -0.06060
 H104 H 0.99944 0.42699 0.14286
 H105 H 1.00591 0.48584 0.24772
 H106 H 0.98870 0.51424 0.24604
 O107 O 0.44049 0.47741 0.14595
 O108 O 0.44631 0.51324 0.06946
 C109 C 0.43427 0.49543 0.12508
 O110 O 0.56069 0.52241 0.14213
 O111 O 0.55376 0.48573 0.06773
 C112 C 0.56671 0.50425 0.12086
 O113 O 0.52091 0.55822 0.14942
 O114 O 0.48537 0.55245 0.07148
 C115 C 0.50280 0.56429 0.12813
 O116 O 0.47601 0.43773 0.13773
 O117 O 0.51333 0.44541 0.06556
 C118 C 0.49442 0.43200 0.11723
 Zr119 Zr 0.46993 0.46937 0.09767
 O120 O 0.46613 0.46469 0.22333
 O121 O 0.43300 0.43324 0.08108
 Zr122 Zr 0.52894 0.52852 0.10260
 O123 O 0.52964 0.52652 0.22902
 O124 O 0.56433 0.56683 0.10346
 O125 O 0.48732 0.51078 0.11620
 O126 O 0.51109 0.48724 0.11493
 O127 O 0.47732 0.43898 -0.14263
 O128 O 0.51435 0.44628 -0.06932
 C129 C 0.49568 0.43317 -0.12195
 O130 O 0.52177 0.55911 -0.14670
 O131 O 0.48602 0.55311 -0.06937
 C132 C 0.50366 0.56517 -0.12534
 O133 O 0.56193 0.52381 -0.13866
 O134 O 0.55439 0.48647 -0.06704
 C135 C 0.56775 0.50544 -0.11850
 O136 O 0.44134 0.47868 -0.15002
 O137 O 0.44705 0.51411 -0.07173
 C138 C 0.43531 0.49682 -0.12875
 Zr139 Zr 0.47113 0.47072 -0.10334
 O140 O 0.47312 0.46971 -0.22976
 O141 O 0.43299 0.43513 -0.10397
 Zr142 Zr 0.53017 0.52987 -0.09871
 O143 O 0.53467 0.53175 -0.22448
 O144 O 0.56528 0.56824 -0.08846
 Zr145 Zr 0.47975 0.51975 -0.00015
 Zr146 Zr 0.52028 0.47963 -0.00064
 O147 O 0.51243 0.48876 -0.11610
 O148 O 0.48870 0.51232 -0.11678
 O149 O 0.47823 0.45349 -0.00317
 O150 O 0.52187 0.54518 0.00227
 O151 O 0.45440 0.47766 -0.00279
 O152 O 0.54628 0.52171 0.00206
 H153 H 0.51698 0.48099 0.16200
 H154 H 0.52926 0.56493 0.00299
 H155 H 0.51865 0.48303 -0.16362
 H156 H 0.43462 0.47017 -0.00344
 H157 H 0.57820 0.56535 0.07216
 H158 H 0.57983 0.56560 -0.06636
 H159 H 0.51631 0.52244 -0.24735
 H160 H 0.47443 0.48649 -0.25060
 H161 H 0.43421 0.42200 -0.06828
 H162 H 0.42584 0.42664 0.13543
 H163 H 0.48328 0.47872 0.24666
 H164 H 0.51226 0.52401 0.24903
 O165 O 0.47862 0.03737 0.14693
 O166 O 0.51442 0.06714 0.07003
 C167 C 0.49678 0.06152 0.12604
 O168 O 0.52370 -0.03812 0.13944
 O169 O 0.48680 -0.06781 0.06611
 C170 C 0.50549 -0.06225 0.11858
 O171 O 0.55892 0.03714 0.14831
 O172 O 0.55344 0.06705 0.07016
 C173 C 0.56516 0.06134 0.12694
 O174 O 0.43898 -0.03796 0.13970
 O175 O 0.44640 -0.06771 0.06702
 C176 C 0.43316 -0.06211 0.11916
 Zr177 Zr 0.47086 -0.00030 0.10045
 O178 O 0.46848 -0.00297 0.22686
 O179 O 0.43463 0.00085 0.09159
 Zr180 Zr 0.53002 -0.00034 0.09882
 O181 O 0.53179 -0.00283 0.22462
 O182 O 0.56839 0.00278 0.08923
 O183 O 0.51239 0.02359 0.11574
 O184 O 0.48882 -0.02361 0.11454
 O185 O 0.43866 -0.03796 -0.14010
 O186 O 0.44625 -0.06771 -0.06823
 C187 C 0.43293 -0.06211 -0.11992
 O188 O 0.55950 0.03749 -0.14825
 O189 O 0.55340 0.06719 -0.07104
 C190 C 0.56544 0.06162 -0.12717
 O191 O 0.52380 -0.03789 -0.14213
 O192 O 0.48681 -0.06767 -0.06913
 C193 C 0.50555 -0.06206 -0.12155
 O194 O 0.47875 0.03735 -0.14865
 O195 O 0.51429 0.06714 -0.07084
 C196 C 0.49676 0.06152 -0.12726
 Zr197 Zr 0.47044 -0.00023 -0.10040
 O198 O 0.46656 -0.00282 -0.22631
 O199 O 0.43496 0.00252 -0.09199
 Zr200 Zr 0.52957 -0.00021 -0.10241
 O201 O 0.52801 -0.00318 -0.22887
 O202 O 0.56795 0.00275 -0.10153
 Zr203 Zr 0.52041 0.04012 -0.00060
 Zr204 Zr 0.48015 -0.04057 -0.00099
 O205 O 0.48833 -0.02355 -0.11643
 O206 O 0.51195 0.02375 -0.11725
 O207 O 0.45409 -0.02452 0.00008
 O208 O 0.54583 0.02338 -0.00160
 O209 O 0.47830 0.02347 0.00020
 O210 O 0.52227 -0.02450 -0.00198
 H211 H 0.48288 -0.03550 0.16212
 H212 H 0.56559 0.03574 -0.00147
 H213 H 0.48227 -0.03548 -0.16396
 H214 H 0.47082 0.03578 0.00024
 H215 H 0.56570 -0.01462 0.06886
 H216 H 0.56638 -0.01257 -0.06997
 H217 H 0.52709 0.01245 -0.25015
 H218 H 0.48502 0.00630 -0.24838
 H219 H 0.42169 -0.01302 -0.06001
 H220 H 0.42869 0.00090 0.14726
 H221 H 0.48568 0.01165 0.24845
 H222 H 0.52056 0.00422 0.24698
 C223 C 1.17658 0.51623 0.38587
 C224 C 1.16583 0.49917 0.31966
 C225 C 1.17608 0.48246 0.29781
 C226 C 1.19663 0.48240 0.34269
 C227 C 1.20711 0.49880 0.41134
 C228 C 1.19716 0.51622 0.43099
 C229 C 1.14397 0.49842 0.27490
 C230 C 1.12547 0.49755 0.23794
 C231 C 1.10361 0.49647 0.19550
 C232 C 1.08488 0.49572 0.16024
 H233 H 1.16902 0.52950 0.40281
 H234 H 1.16791 0.46916 0.24664
 H235 H 1.20343 0.46853 0.32556
 H236 H 1.20548 0.53011 0.48072
 C237 C 0.51819 0.69213 0.30155
 C238 C 0.50053 0.66536 0.32292
 C239 C 0.48270 0.65965 0.38670
 C240 C 0.48286 0.68059 0.43004
 C241 C 0.50120 0.70778 0.41120
 C242 C 0.51842 0.71316 0.34477
 C243 C 0.50089 0.64371 0.28013
 C244 C 0.50126 0.62551 0.24499
 C245 C 0.50176 0.60415 0.20431
 C246 C 0.50223 0.58593 0.16964
 H247 H 0.53206 0.69679 0.25207
 H248 H 0.46860 0.63897 0.40294
 H249 H 0.46809 0.67537 0.47710
 H250 H 0.53299 0.73364 0.32817
 C251 C 0.32044 -0.15734 0.38340
 C252 C 0.33159 -0.16336 0.31763
 C253 C 0.32211 -0.19022 0.29642
 C254 C 0.30175 -0.21102 0.34127
 C255 C 0.29071 -0.20535 0.40918
 C256 C 0.30011 -0.17807 0.42843
 C257 C 0.35292 -0.14195 0.27239
 C258 C 0.37098 -0.12390 0.23541
 C259 C 0.39235 -0.10258 0.19332
 C260 C 0.41084 -0.08421 0.15863
 H261 H 0.32737 -0.13658 0.39974
 H262 H 0.33063 -0.19511 0.24559
 H263 H 0.29545 -0.23159 0.32441
 H264 H 0.29120 -0.17259 0.47677
 C265 C 0.83123 0.52445 0.31082
 C266 C 0.83613 0.50297 0.31980
 C267 C 0.82021 0.48184 0.37213
 C268 C 0.79975 0.48239 0.41627
 C269 C 0.79519 0.50425 0.40909
 C270 C 0.81079 0.52505 0.35497
 C271 C 0.85787 0.50291 0.27667
 C272 C 0.87627 0.50304 0.24123
 C273 C 0.89798 0.50332 0.20031
 C274 C 0.91657 0.50359 0.16564
 H275 H 0.84340 0.54089 0.27042
 H276 H 0.82377 0.46507 0.37935
 H277 H 0.78769 0.46597 0.45681
 H278 H 0.80754 0.54203 0.34842
 C279 C 0.51632 0.33695 0.36996
 C280 C 0.49520 0.33111 0.31674
 C281 C 0.47390 0.30461 0.30913
 C282 C 0.47359 0.28406 0.35501
 C283 C 0.49450 0.28984 0.40944
 C284 C 0.51605 0.31641 0.41583
 C285 C 0.49506 0.35236 0.27121
 C286 C 0.49482 0.37025 0.23394
 C287 C 0.49452 0.39141 0.19158
 C288 C 0.49436 0.40975 0.15674
 H289 H 0.53290 0.35739 0.37633
 H290 H 0.45744 0.29989 0.26826
 H291 H 0.45681 0.26372 0.34911
 H292 H 0.53253 0.32123 0.45668
 C293 C 0.69235 0.16987 0.31307
 C294 C 0.66574 0.16406 0.32417
 C295 C 0.66018 0.17950 0.37759
 C296 C 0.68110 0.20050 0.42031
 C297 C 0.70781 0.20614 0.41049
 C298 C 0.71330 0.19086 0.35584
 C299 C 0.64413 0.14212 0.28132
 C300 C 0.62601 0.12365 0.24576
 C301 C 0.60479 0.10195 0.20436
 C302 C 0.58668 0.08340 0.16905
 H303 H 0.69688 0.15808 0.27178
 H304 H 0.63967 0.17525 0.38639
 H305 H 0.67648 0.21229 0.46127
 H306 H 0.73375 0.19490 0.34736
 C307 C 0.51492 0.19074 -0.30172
 C308 C 0.49747 0.16388 -0.32293
 C309 C 0.47966 0.15791 -0.38688
 C310 C 0.47955 0.17866 -0.43036
 C311 C 0.49757 0.20593 -0.41151
 C312 C 0.51485 0.21159 -0.34509
 C313 C 0.49777 0.14233 -0.27949
 C314 C 0.49778 0.12400 -0.24408
 C315 C 0.49755 0.10230 -0.20330
 C316 C 0.49722 0.08368 -0.16867
 H317 H 0.52878 0.19559 -0.25212
 H318 H 0.46574 0.13717 -0.40303
 H319 H 0.46473 0.17321 -0.47739
 H320 H 0.52915 0.23216 -0.32850
 C321 C 0.67786 0.48679 -0.29780
 C322 C 0.66874 0.50458 -0.31780
 C323 C 0.68017 0.52205 -0.38266
 C324 C 0.70045 0.52160 -0.42792
 C325 C 0.70951 0.50334 -0.40990
 C326 C 0.69817 0.48627 -0.34296
 C327 C 0.64756 0.50489 -0.27218
 C328 C 0.62967 0.50520 -0.23501
 C329 C 0.60847 0.50552 -0.19281
 C330 C 0.59008 0.50563 -0.15806
 H331 H 0.66913 0.47315 -0.24763
 H332 H 0.67353 0.53620 -0.39798
 H333 H 0.70962 0.53626 -0.47538
 H334 H 0.70423 0.47174 -0.32704
 C335 C 0.84184 0.32136 -0.38770
 C336 C 0.83612 0.33261 -0.32159
 C337 C 0.80935 0.32312 -0.29914
 C338 C 0.78833 0.30269 -0.34326
 C339 C 0.79370 0.29162 -0.41161
 C340 C 0.82090 0.30095 -0.43194
 C341 C 0.85777 0.35411 -0.27750
 C342 C 0.87606 0.37228 -0.24159
 C343 C 0.89765 0.39374 -0.20060
 C344 C 0.91621 0.41215 -0.16626
 H345 H 0.86252 0.32830 -0.40500
 H346 H 0.80469 0.33171 -0.24800
 H347 H 0.76783 0.29642 -0.32564
 H348 H 0.82614 0.29201 -0.48074
 C349 C 0.48644 -0.19093 -0.29944
 C350 C 0.50460 -0.16417 -0.31957
 C351 C 0.52205 -0.15850 -0.38438
 C352 C 0.52119 -0.17946 -0.42950
 C353 C 0.50254 -0.20662 -0.41137
 C354 C 0.48552 -0.21197 -0.34441
 C355 C 0.50511 -0.14249 -0.27447
 C356 C 0.50544 -0.12422 -0.23766
 C357 C 0.50570 -0.10267 -0.19579
 C358 C 0.50576 -0.08417 -0.16122
 H359 H 0.47278 -0.19556 -0.24942
 H360 H 0.53645 -0.13784 -0.39993
 H361 H 0.53579 -0.17428 -0.47701
 H362 H 0.47069 -0.23242 -0.32839
 C363 C 0.34190 0.51855 -0.39377
 C364 C 0.33635 0.50266 -0.32519
 C365 C 0.30979 0.48729 -0.29833
 C366 C 0.28876 0.48728 -0.34080
 C367 C 0.29385 0.50237 -0.41196
 C368 C 0.32090 0.51858 -0.43645
 C369 C 0.35780 0.50170 -0.28304
 C370 C 0.37559 0.50056 -0.24784
 C371 C 0.39634 0.49907 -0.20659
 C372 C 0.41407 0.49787 -0.17120
 H373 H 0.36245 0.53088 -0.41445
 H374 H 0.30525 0.47493 -0.24521
 H375 H 0.26836 0.47432 -0.31984
 H376 H 0.32599 0.53175 -0.48777
 C377 C 1.16899 0.69454 -0.31307
 C378 C 1.16324 0.66790 -0.32263
 C379 C 1.17825 0.66201 -0.37678
 C380 C 1.19888 0.68265 -0.42137
 C381 C 1.20459 0.70940 -0.41267
 C382 C 1.18960 0.71520 -0.35769
 C383 C 1.14176 0.64657 -0.27756
 C384 C 1.12366 0.62856 -0.24054
 C385 C 1.10233 0.60727 -0.19820
 C386 C 1.08398 0.58886 -0.16314
 H387 H 1.15748 0.69933 -0.27142
 H388 H 1.17400 0.64148 -0.38459
 H389 H 1.21043 0.67777 -0.46255
 H390 H 1.19367 0.73568 -0.35009
 C391 C 0.84209 0.52039 -0.38639
 C392 C 0.83605 0.50254 -0.32257
 C393 C 0.80918 0.48506 -0.30166
 C394 C 0.78836 0.48514 -0.34524
 C395 C 0.79408 0.50247 -0.41149
 C396 C 0.82137 0.52052 -0.43007
 C397 C 0.85754 0.50217 -0.27902
 C398 C 0.87580 0.50206 -0.24354
 C399 C 0.89743 0.50216 -0.20281
 C400 C 0.91604 0.50241 -0.16838
 H401 H 0.86285 0.53434 -0.40224
 H402 H 0.80429 0.47118 -0.25213
 H403 H 0.76777 0.47081 -0.32890
 H404 H 0.82685 0.53536 -0.47699
 C405 C 0.47842 0.32007 -0.38356
 C406 C 0.49612 0.33169 -0.31925
 C407 C 0.51394 0.32260 -0.29935
 C408 C 0.51427 0.30213 -0.34415
 C409 C 0.49700 0.29063 -0.41065
 C410 C 0.47869 0.29964 -0.42846
 C411 C 0.49604 0.35307 -0.27418
 C412 C 0.49590 0.37113 -0.23754
 C413 C 0.49571 0.39248 -0.19594
 C414 C 0.49562 0.41093 -0.16153
 H415 H 0.46425 0.32669 -0.39880
 H416 H 0.52775 0.33147 -0.24959
 H417 H 0.52882 0.29607 -0.32834
 H418 H 0.46387 0.29033 -0.47550
 C419 C 0.68141 0.15915 -0.37766
 C420 C 0.66581 0.16443 -0.32410
 C421 C 0.67116 0.19090 -0.31323
 C422 C 0.69187 0.21198 -0.35636
 C423 C 0.70731 0.20674 -0.41111
 C424 C 0.70212 0.18019 -0.42069
 C425 C 0.64427 0.14262 -0.28078
 C426 C 0.62622 0.12416 -0.24508
 C427 C 0.60508 0.10241 -0.20375
 C428 C 0.58700 0.08378 -0.16870
 H429 H 0.67753 0.13876 -0.38623
 H430 H 0.65924 0.19520 -0.27175
 H431 H 0.69563 0.23232 -0.34796
 H432 H 0.71408 0.17578 -0.46164
 C433 C 1.19026 0.51154 -0.29502
 C434 C 1.16361 0.49329 -0.31612
 C435 C 1.15826 0.47632 -0.38208
 C436 C 1.17947 0.47794 -0.42779
 C437 C 1.20648 0.49690 -0.40895
 C438 C 1.21151 0.51322 -0.34053
 C439 C 1.14180 0.49257 -0.27137
 C440 C 1.12359 0.49239 -0.23467
 C441 C 1.10227 0.49257 -0.19291
 C442 C 1.08396 0.49295 -0.15856
 H443 H 1.19462 0.52479 -0.24406
 H444 H 1.13768 0.46191 -0.39843
 H445 H 1.17470 0.46412 -0.47740
 H446 H 1.23187 0.52822 -0.32408
 C447 C 0.52231 0.68174 -0.37329
 C448 C 0.50126 0.66589 -0.32067
 C449 C 0.47977 0.67078 -0.31132
 C450 C 0.47914 0.69123 -0.35530
 C451 C 0.49991 0.70679 -0.40955
 C452 C 0.52173 0.70218 -0.41722
 C453 C 0.50161 0.64437 -0.27736
 C454 C 0.50203 0.62627 -0.24194
 C455 C 0.50262 0.60502 -0.20115
 C456 C 0.50313 0.58683 -0.16654
 H457 H 0.53908 0.67819 -0.38076
 H458 H 0.46339 0.65864 -0.27066
 H459 H 0.46222 0.69456 -0.34839
 H460 H 0.53812 0.71422 -0.45789
 C461 C 0.33778 -0.17885 -0.37276
 C462 C 0.33195 -0.16378 -0.31864
 C463 C 0.30537 -0.16929 -0.30952
 C464 C 0.28474 -0.18955 -0.35504
 C465 C 0.29052 -0.20440 -0.41056
 C466 C 0.31716 -0.19915 -0.41828
 C467 C 0.35328 -0.14234 -0.27355
 C468 C 0.37121 -0.12418 -0.23657
 C469 C 0.39237 -0.10272 -0.19439
 C470 C 0.41070 -0.08423 -0.15958
 H471 H 0.35827 -0.17482 -0.38006
 H472 H 0.30065 -0.15777 -0.26772
 H473 H 0.26433 -0.19335 -0.34806
 H474 H 0.32197 -0.21064 -0.45996
 C475 C 0.52552 -0.16979 0.30882
 C476 C 0.50451 -0.16413 0.31700
 C477 C 0.48335 -0.17919 0.37024
 C478 C 0.48330 -0.19971 0.41561
 C479 C 0.50456 -0.20519 0.40872
 C480 C 0.52550 -0.19029 0.35421
 C481 C 0.50489 -0.14257 0.27185
 C482 C 0.50524 -0.12434 0.23489
 C483 C 0.50555 -0.10284 0.19284
 C484 C 0.50563 -0.08437 0.15817
 H485 H 0.54200 -0.15823 0.26787
 H486 H 0.46699 -0.17499 0.37698
 H487 H 0.46680 -0.21119 0.45653
 H488 H 0.54205 -0.19424 0.34792
 C489 C 0.32599 0.51552 0.30622
 C490 C 0.33219 0.49517 0.32098
 C491 C 0.31766 0.47544 0.37869
 C492 C 0.29728 0.47632 0.42240
 C493 C 0.29148 0.49713 0.40927
 C494 C 0.30567 0.51644 0.34990
 C495 C 0.35386 0.49495 0.27807
 C496 C 0.37222 0.49505 0.24249
 C497 C 0.39385 0.49531 0.20124
 C498 C 0.41234 0.49548 0.16631
 H499 H 0.33710 0.53086 0.26166
 H500 H 0.32225 0.45956 0.39043
 H501 H 0.28632 0.46107 0.46731
 H502 H 0.30140 0.53258 0.33879
 C503 C 1.15841 0.68288 0.37153
 C504 C 1.16404 0.66774 0.31717
 C505 C 1.19055 0.67299 0.30799
 C506 C 1.21134 0.69327 0.35315
 C507 C 1.20577 0.70838 0.40830
 C508 C 1.17916 0.70316 0.41662
 C509 C 1.14257 0.64672 0.27134
 C510 C 1.12442 0.62897 0.23378
 C511 C 1.10299 0.60794 0.19107
 C512 C 1.08453 0.58967 0.15601
 H513 H 1.13799 0.67903 0.37897
 H514 H 1.19512 0.66138 0.26608
 H515 H 1.23173 0.69706 0.34563
 H516 H 1.17452 0.71490 0.45774
 C517 C 0.47601 0.16880 0.31104
 C518 C 0.49760 0.16407 0.32036
 C519 C 0.51870 0.18011 0.37268
 C520 C 0.51799 0.20052 0.41659
 C521 C 0.49601 0.20488 0.40915
 C522 C 0.47526 0.18918 0.35496
 C523 C 0.49779 0.14236 0.27765
 C524 C 0.49774 0.12397 0.24252
 C525 C 0.49750 0.10227 0.20188
 C526 C 0.49718 0.08365 0.16730
 H527 H 0.45962 0.15653 0.27056
 H528 H 0.53555 0.17669 0.38006
 H529 H 0.53438 0.21269 0.45714
 H530 H 0.45820 0.19231 0.34817
 C531 C 0.66266 0.48315 0.37187
 C532 C 0.66826 0.50414 0.31848
 C533 C 0.69470 0.52549 0.31014
 C534 C 0.71544 0.52601 0.35554
 C535 C 0.70990 0.50525 0.41024
 C536 C 0.68339 0.48362 0.41727
 C537 C 0.64679 0.50406 0.27354
 C538 C 0.62871 0.50411 0.23683
 C539 C 0.60736 0.50424 0.19507
 C540 C 0.58893 0.50432 0.16051
 H541 H 0.64227 0.46652 0.37873
 H542 H 0.69923 0.54185 0.26909
 H543 H 0.73575 0.54281 0.34910
 H544 H 0.67877 0.46723 0.45824
 C545 C 0.81995 0.33987 0.37550
 C546 C 0.83546 0.33456 0.32167
 C547 C 0.82986 0.30805 0.30994
 C548 C 0.80916 0.28698 0.35302
 C549 C 0.79400 0.29226 0.40870
 C550 C 0.79922 0.31881 0.41855
 C551 C 0.85752 0.35633 0.27982
 C552 C 0.87617 0.37454 0.24522
 C553 C 0.89810 0.39579 0.20485
 C554 C 0.91680 0.41390 0.17012
 H555 H 0.82407 0.36030 0.38481
 H556 H 0.84173 0.30373 0.26832
 H557 H 0.80541 0.26664 0.34454
 H558 H 0.78752 0.32324 0.46050
   
