data_POSCAR
  _audit_creation_date              2014-09-24
  _audit_creation_method            'ToBaCCo'
  _symmetry_space_group_name_H-M    'P1'
  _symmetry_Int_Tables_number       1
  _symmetry_cell_setting            triclinic
  loop_
  _symmetry_equiv_pos_as_xyz
 x,y,z
_cell_length_a 39.4543
_cell_length_b 39.4989
_cell_length_c 39.5812
_cell_angle_alpha 89.945600
_cell_angle_beta 90.029300
_cell_angle_gamma 90.024900
loop_
  _atom_site_label
  _atom_site_type_symbol
  _atom_site_fract_x
  _atom_site_fract_y
  _atom_site_fract_z
N1 N 0.30299 0.23574 0.20861
 N2 N 0.28859 0.26233 0.19479
 C3 C 0.30671 0.27181 0.16755
 C4 C 0.33401 0.24996 0.16400
 C5 C 0.33069 0.22737 0.19066
 H6 H 0.30046 0.29309 0.15158
 H7 H 0.34717 0.20641 0.19674
 Cu8 Cu 0.24767 0.28215 0.21385
 Cu9 Cu 0.28492 0.21397 0.24891
 Cu10 Cu 0.21312 0.24961 0.28454
 N11 N 0.20792 0.30238 0.23482
 N12 N 0.19458 0.28956 0.26241
 C13 C 0.16764 0.30832 0.27154
 C14 C 0.16375 0.33448 0.24845
 C15 C 0.18990 0.32980 0.22549
 H16 H 0.15220 0.30325 0.29350
 H17 H 0.19546 0.34515 0.20360
 N18 N 0.23557 0.20914 0.30323
 N19 N 0.26290 0.19558 0.28967
 C20 C 0.27213 0.16843 0.30810
 C21 C 0.24954 0.16457 0.33465
 C22 C 0.22670 0.19095 0.33064
 H23 H 0.29378 0.15268 0.30254
 H24 H 0.20514 0.19657 0.34646
 H25 H 0.23510 0.22864 0.24206
 H26 H 0.26236 0.25708 0.26822
 N27 N 0.69647 -0.23568 0.20850
 N28 N 0.71077 -0.26236 0.19483
 C29 C 0.69265 -0.27185 0.16759
 C30 C 0.66536 -0.24989 0.16381
 C31 C 0.66882 -0.22724 0.19046
 H32 H 0.69899 -0.29322 0.15183
 H33 H 0.65255 -0.20613 0.19655
 Cu34 Cu 0.75168 -0.28218 0.21402
 Cu35 Cu 0.71463 -0.21386 0.24875
 Cu36 Cu 0.78669 -0.24934 0.28424
 N37 N 0.79163 -0.30232 0.23482
 N38 N 0.80524 -0.28927 0.26214
 C39 C 0.83234 -0.30786 0.27117
 C40 C 0.83612 -0.33427 0.24828
 C41 C 0.80961 -0.32976 0.22555
 H42 H 0.84791 -0.30241 0.29295
 H43 H 0.80368 -0.34519 0.20383
 N44 N 0.76420 -0.20893 0.30293
 N45 N 0.73676 -0.19544 0.28946
 C46 C 0.72750 -0.16837 0.30794
 C47 C 0.75019 -0.16451 0.33443
 C48 C 0.77311 -0.19078 0.33033
 H49 H 0.70575 -0.15271 0.30248
 H50 H 0.79474 -0.19637 0.34609
 H51 H 0.76439 -0.22852 0.24179
 H52 H 0.73732 -0.25682 0.26829
 N53 N 0.69719 0.23615 0.79095
 N54 N 0.71136 0.26299 0.80452
 C55 C 0.69313 0.27253 0.83164
 C56 C 0.66600 0.25047 0.83538
 C57 C 0.66953 0.22770 0.80896
 H58 H 0.69919 0.29400 0.84742
 H59 H 0.65326 0.20650 0.80310
 Cu60 Cu 0.75222 0.28289 0.78534
 Cu61 Cu 0.71552 0.21418 0.75092
 Cu62 Cu 0.78749 0.24979 0.71540
 N63 N 0.79212 0.30309 0.76453
 N64 N 0.80582 0.28998 0.73730
 C65 C 0.83286 0.30867 0.72825
 C66 C 0.83649 0.33520 0.75103
 C67 C 0.80996 0.33066 0.77372
 H68 H 0.84850 0.30319 0.70656
 H69 H 0.80393 0.34616 0.79535
 N70 N 0.76521 0.20912 0.69691
 N71 N 0.73781 0.19560 0.71042
 C72 C 0.72865 0.16837 0.69212
 C73 C 0.75136 0.16442 0.66569
 C74 C 0.77419 0.19083 0.66965
 H75 H 0.70694 0.15267 0.69763
 H76 H 0.79581 0.19641 0.65387
 H77 H 0.76524 0.22914 0.75791
 H78 H 0.73809 0.25714 0.73117
 N79 N 0.30379 -0.23708 0.79112
 N80 N 0.29018 -0.26453 0.80407
 C81 C 0.30835 -0.27407 0.83129
 C82 C 0.33488 -0.25140 0.83568
 C83 C 0.33104 -0.22826 0.80958
 H84 H 0.30269 -0.29596 0.84665
 H85 H 0.34679 -0.20653 0.80426
 Cu86 Cu 0.25008 -0.28513 0.78402
 Cu87 Cu 0.28535 -0.21484 0.75122
 Cu88 Cu 0.21312 -0.25004 0.71585
 N89 N 0.20902 -0.30411 0.76430
 N90 N 0.19474 -0.29026 0.73770
 C91 C 0.16708 -0.30826 0.72918
 C92 C 0.16359 -0.33509 0.75167
 C93 C 0.19087 -0.33144 0.77366
 H94 H 0.15089 -0.30209 0.70804
 H95 H 0.19723 -0.34741 0.79488
 N96 N 0.23547 -0.20939 0.69738
 N97 N 0.26297 -0.19602 0.71083
 C98 C 0.27217 -0.16879 0.69249
 C99 C 0.24939 -0.16471 0.66612
 C100 C 0.22647 -0.19102 0.67014
 H101 H 0.29400 -0.15322 0.69792
 H102 H 0.20479 -0.19650 0.65441
 H103 H 0.23595 -0.23065 0.75870
 H104 H 0.26288 -0.25728 0.73047
 N105 N 0.69694 -0.23628 0.79135
 N106 N 0.71049 -0.26377 0.80425
 C107 C 0.69243 -0.27327 0.83152
 C108 C 0.66603 -0.25052 0.83600
 C109 C 0.66983 -0.22737 0.80991
 H110 H 0.69806 -0.29520 0.84683
 H111 H 0.65411 -0.20561 0.80466
 Cu112 Cu 0.75034 -0.28455 0.78408
 Cu113 Cu 0.71525 -0.21415 0.75137
 Cu114 Cu 0.78712 -0.24968 0.71575
 N115 N 0.79119 -0.30365 0.76426
 N116 N 0.80541 -0.28990 0.73758
 C117 C 0.83296 -0.30800 0.72901
 C118 C 0.83642 -0.33478 0.75156
 C119 C 0.80927 -0.33100 0.77362
 H120 H 0.84908 -0.30193 0.70781
 H121 H 0.80293 -0.34690 0.79491
 N122 N 0.76487 -0.20901 0.69734
 N123 N 0.73752 -0.19550 0.71088
 C124 C 0.72835 -0.16828 0.69253
 C125 C 0.75100 -0.16436 0.66605
 C126 C 0.77382 -0.19075 0.67003
 H127 H 0.70663 -0.15260 0.69803
 H128 H 0.79537 -0.19637 0.65419
 H129 H 0.73739 -0.25670 0.73058
 H130 H 0.76460 -0.23016 0.75868
 N131 N 0.30258 0.23544 0.79155
 N132 N 0.28808 0.26192 0.80541
 C133 C 0.30627 0.27149 0.83256
 C134 C 0.33371 0.24981 0.83601
 C135 C 0.33041 0.22723 0.80940
 H136 H 0.29997 0.29272 0.84854
 H137 H 0.34700 0.20638 0.80326
 Cu138 Cu 0.24700 0.28157 0.78656
 Cu139 Cu 0.28445 0.21362 0.75138
 Cu140 Cu 0.21248 0.24903 0.71585
 N141 N 0.20727 0.30171 0.76549
 N142 N 0.19394 0.28892 0.73791
 C143 C 0.16703 0.30771 0.72870
 C144 C 0.16317 0.33385 0.75174
 C145 C 0.18928 0.32914 0.77475
 H146 H 0.15160 0.30266 0.70672
 H147 H 0.19489 0.34450 0.79661
 N148 N 0.23494 0.20864 0.69724
 N149 N 0.26235 0.19517 0.71076
 C150 C 0.27160 0.16804 0.69239
 C151 C 0.24893 0.16413 0.66591
 C152 C 0.22603 0.19043 0.66990
 H153 H 0.29332 0.15237 0.69793
 H154 H 0.20441 0.19598 0.65411
 H155 H 0.26170 0.25673 0.73217
 H156 H 0.23460 0.22809 0.75833
 N157 N 0.30339 -0.23486 0.20868
 N158 N 0.28864 -0.26111 0.19461
 C159 C 0.30674 -0.27064 0.16740
 C160 C 0.33438 -0.24917 0.16414
 C161 C 0.33130 -0.22676 0.19092
 H162 H 0.30022 -0.29168 0.15125
 H163 H 0.34810 -0.20611 0.19723
 Cu164 Cu 0.24739 -0.28060 0.21326
 Cu165 Cu 0.28545 -0.21318 0.24900
 Cu166 Cu 0.21320 -0.24835 0.28421
 N167 N 0.20753 -0.30064 0.23421
 N168 N 0.19434 -0.28795 0.26189
 C169 C 0.16735 -0.30664 0.27102
 C170 C 0.16326 -0.33262 0.24782
 C171 C 0.18936 -0.32791 0.22481
 H172 H 0.15203 -0.30168 0.29307
 H173 H 0.19482 -0.34318 0.20286
 N174 N 0.23596 -0.20825 0.30311
 N175 N 0.26348 -0.19486 0.28973
 C176 C 0.27287 -0.16789 0.30830
 C177 C 0.25017 -0.16400 0.33473
 C178 C 0.22711 -0.19015 0.33052
 H179 H 0.29469 -0.15229 0.30290
 H180 H 0.20539 -0.19565 0.34618
 H181 H 0.26237 -0.25627 0.26783
 H182 H 0.23550 -0.22722 0.24188
 N183 N 0.69725 0.23465 0.20810
 N184 N 0.71177 0.26113 0.19418
 C185 C 0.69366 0.27062 0.16694
 C186 C 0.66626 0.24888 0.16348
 C187 C 0.66948 0.22635 0.19018
 H188 H 0.69999 0.29184 0.15092
 H189 H 0.65287 0.20551 0.19636
 Cu190 Cu 0.75270 0.28099 0.21310
 Cu191 Cu 0.71524 0.21302 0.24847
 Cu192 Cu 0.78691 0.24886 0.28420
 N193 N 0.79224 0.30136 0.23429
 N194 N 0.80545 0.28874 0.26204
 C195 C 0.83223 0.30768 0.27129
 C196 C 0.83615 0.33374 0.24811
 C197 C 0.81019 0.32883 0.22498
 H198 H 0.84754 0.30281 0.29340
 H199 H 0.80467 0.34406 0.20298
 N200 N 0.76449 0.20843 0.30290
 N201 N 0.73720 0.19478 0.28930
 C202 C 0.72799 0.16765 0.30776
 C203 C 0.75055 0.16393 0.33436
 C204 C 0.77335 0.19034 0.33036
 H205 H 0.70638 0.15183 0.30217
 H206 H 0.79487 0.19606 0.34622
 H207 H 0.73775 0.25629 0.26755
 H208 H 0.76508 0.22765 0.24171
 C209 C 0.26577 0.10381 0.51778
 C210 C 0.26588 0.10388 0.48311
 C211 C 0.25592 0.07178 0.47306
 N212 N 0.24963 0.05217 0.50034
 C213 C 0.25574 0.07167 0.52771
 C214 C 0.25078 0.06165 0.43924
 C215 C 0.24504 0.02762 0.42977
 C216 C 0.23279 0.01741 0.39855
 C217 C 0.23291 -0.01739 0.39860
 C218 C 0.24522 -0.02750 0.42984
 N219 N 0.25261 0.00009 0.44868
 C220 C 0.25124 -0.06148 0.43937
 C221 C 0.25647 -0.07167 0.47317
 C222 C 0.26663 -0.10374 0.48319
 C223 C 0.26647 -0.10381 0.51785
 C224 C 0.25621 -0.07179 0.52783
 N225 N 0.25002 -0.05222 0.50049
 C226 C 0.25073 -0.06170 0.56160
 C227 C 0.24467 -0.02772 0.57101
 C228 C 0.23213 -0.01760 0.60213
 C229 C 0.23200 0.01721 0.60209
 C230 C 0.24446 0.02741 0.57094
 N231 N 0.25217 -0.00012 0.55216
 C232 C 0.25034 0.06143 0.56147
 H233 H 0.27219 0.12505 0.53381
 H234 H 0.27241 0.12518 0.46717
 H235 H 0.26546 -0.00005 0.52950
 H236 H 0.22479 0.03337 0.37779
 H237 H 0.22502 -0.03342 0.37787
 H238 H 0.27331 -0.12493 0.46721
 H239 H 0.27301 -0.12506 0.53386
 H240 H 0.22387 0.03318 0.62275
 H241 H 0.26572 0.00012 0.47146
 H242 H 0.22410 -0.03362 0.62283
 C243 C 0.73440 0.10363 0.48282
 C244 C 0.73456 0.10369 0.51749
 C245 C 0.74462 0.07160 0.52752
 N246 N 0.75069 0.05201 0.50021
 C247 C 0.74436 0.07151 0.47287
 C248 C 0.75001 0.06146 0.56131
 C249 C 0.75587 0.02744 0.57078
 C250 C 0.76834 0.01724 0.60194
 C251 C 0.76827 -0.01757 0.60194
 C252 C 0.75576 -0.02769 0.57079
 N253 N 0.74822 -0.00011 0.55196
 C254 C 0.74970 -0.06168 0.56137
 C255 C 0.74424 -0.07188 0.52761
 C256 C 0.73405 -0.10397 0.51773
 C257 C 0.73391 -0.10403 0.48306
 C258 C 0.74402 -0.07197 0.47296
 N259 N 0.75041 -0.05240 0.50022
 C260 C 0.74918 -0.06185 0.43912
 C261 C 0.75512 -0.02785 0.42961
 C262 C 0.76740 -0.01769 0.39837
 C263 C 0.76750 0.01711 0.39837
 C264 C 0.75529 0.02728 0.42960
 N265 N 0.74775 -0.00027 0.44848
 C266 C 0.74949 0.06129 0.43908
 H267 H 0.72784 0.12487 0.46680
 H268 H 0.72813 0.12497 0.53345
 H269 H 0.73466 -0.00023 0.47126
 H270 H 0.77644 0.03321 0.62263
 H271 H 0.77630 -0.03359 0.62265
 H272 H 0.72754 -0.12518 0.53379
 H273 H 0.72727 -0.12528 0.46714
 H274 H 0.77546 0.03310 0.37762
 H275 H 0.73495 -0.00009 0.52928
 H276 H 0.77528 -0.03369 0.37763
 C277 C 0.51760 0.26723 0.10341
 C278 C 0.48283 0.26736 0.10349
 C279 C 0.47268 0.25768 0.07139
 N280 N 0.50002 0.25155 0.05177
 C281 C 0.52751 0.25747 0.07126
 C282 C 0.43873 0.25257 0.06129
 C283 C 0.42915 0.24690 0.02734
 C284 C 0.39783 0.23463 0.01719
 C285 C 0.39783 0.23466 -0.01754
 C286 C 0.42915 0.24697 -0.02768
 N287 N 0.44807 0.25444 -0.00016
 C288 C 0.43868 0.25280 -0.06162
 C289 C 0.47255 0.25815 -0.07181
 C290 C 0.48250 0.26810 -0.10390
 C291 C 0.51727 0.26811 -0.10398
 C292 C 0.52738 0.25814 -0.07194
 N293 N 0.50001 0.25198 -0.05235
 C294 C 0.56130 0.25281 -0.06187
 C295 C 0.57086 0.24684 -0.02795
 C296 C 0.60213 0.23438 -0.01787
 C297 C 0.60213 0.23415 0.01686
 C298 C 0.57085 0.24648 0.02706
 N299 N 0.55197 0.25423 -0.00041
 C300 C 0.56136 0.25211 0.06103
 H301 H 0.53373 0.27343 0.12465
 H302 H 0.46687 0.27369 0.12479
 H303 H 0.52917 0.26740 -0.00032
 H304 H 0.37704 0.22662 0.03314
 H305 H 0.37702 0.22670 -0.03351
 H306 H 0.46640 0.27451 -0.12511
 H307 H 0.53326 0.27453 -0.12525
 H308 H 0.62289 0.22600 0.03278
 H309 H 0.47093 0.26753 -0.00017
 H310 H 0.62288 0.22642 -0.03387
 C311 C 0.48315 0.73256 0.10422
 C312 C 0.51792 0.73255 0.10431
 C313 C 0.52801 0.74227 0.07219
 N314 N 0.50063 0.74829 0.05255
 C315 C 0.47318 0.74227 0.07206
 C316 C 0.56193 0.74752 0.06209
 C317 C 0.57146 0.75320 0.02812
 C318 C 0.60272 0.76560 0.01793
 C319 C 0.60269 0.76551 -0.01681
 C320 C 0.57142 0.75304 -0.02690
 N321 N 0.55256 0.74553 0.00064
 C322 C 0.56188 0.74708 -0.06082
 C323 C 0.52801 0.74153 -0.07097
 C324 C 0.51807 0.73136 -0.10299
 C325 C 0.48330 0.73122 -0.10307
 C326 C 0.47318 0.74132 -0.07111
 N327 N 0.50055 0.74769 -0.05156
 C328 C 0.43925 0.74661 -0.06109
 C329 C 0.42970 0.75260 -0.02720
 C330 C 0.39841 0.76500 -0.01716
 C331 C 0.39844 0.76528 0.01757
 C332 C 0.42975 0.75305 0.02782
 N333 N 0.44863 0.74530 0.00038
 C334 C 0.43930 0.74750 0.06181
 H335 H 0.46706 0.72630 0.12547
 H336 H 0.53392 0.72628 0.12563
 H337 H 0.47147 0.73220 0.00052
 H338 H 0.62348 0.77372 0.03386
 H339 H 0.62344 0.77354 -0.03280
 H340 H 0.53417 0.72488 -0.12415
 H341 H 0.46732 0.72462 -0.12430
 H342 H 0.37766 0.77340 0.03346
 H343 H 0.52976 0.73233 0.00067
 H344 H 0.37762 0.77288 -0.03319
 C345 C 0.10331 0.51845 0.26349
 C346 C 0.10343 0.48372 0.26356
 C347 C 0.07136 0.47358 0.25344
 N348 N 0.05173 0.50089 0.24709
 C349 C 0.07118 0.52835 0.25334
 C350 C 0.06125 0.43967 0.24829
 C351 C 0.02723 0.43016 0.24230
 C352 C 0.01710 0.39888 0.23002
 C353 C -0.01774 0.39883 0.22997
 C354 C -0.02796 0.43009 0.24223
 N355 N -0.00039 0.44902 0.24971
 C356 C -0.06201 0.43947 0.24820
 C357 C -0.07233 0.47330 0.25336
 C358 C -0.10450 0.48320 0.26337
 C359 C -0.10462 0.51794 0.26333
 C360 C -0.07252 0.52807 0.25332
 N361 N -0.05287 0.50076 0.24712
 C362 C -0.06240 0.56197 0.24817
 C363 C -0.02838 0.57153 0.24224
 C364 C -0.01827 0.60286 0.23003
 C365 C 0.01657 0.60290 0.22995
 C366 C 0.02681 0.57160 0.24214
 N367 N -0.00075 0.55263 0.24960
 C368 C 0.06087 0.56218 0.24806
 H369 H 0.12451 0.53456 0.27006
 H370 H 0.12472 0.46777 0.27019
 H371 H -0.00067 0.52981 0.26268
 H372 H 0.03314 0.37812 0.22213
 H373 H -0.03373 0.37802 0.22206
 H374 H -0.12572 0.46710 0.26989
 H375 H -0.12594 0.53389 0.26982
 H376 H 0.03255 0.62374 0.22207
 H377 H -0.00045 0.47179 0.26285
 H378 H -0.03433 0.62366 0.22222
 C379 C 0.10348 0.48307 0.73650
 C380 C 0.10359 0.51780 0.73664
 C381 C 0.07150 0.52786 0.74673
 N382 N 0.05187 0.50049 0.75285
 C383 C 0.07133 0.47309 0.74650
 C384 C 0.06139 0.56173 0.75201
 C385 C 0.02735 0.57122 0.75792
 C386 C 0.01721 0.60249 0.77018
 C387 C -0.01764 0.60250 0.77018
 C388 C -0.02785 0.57123 0.75790
 N389 N -0.00027 0.55233 0.75045
 C390 C -0.06190 0.56179 0.75193
 C391 C -0.07220 0.52797 0.74659
 C392 C -0.10437 0.51808 0.73651
 C393 C -0.10448 0.48334 0.73636
 C394 C -0.07237 0.47320 0.74633
 N395 N -0.05273 0.50050 0.75269
 C396 C -0.06224 0.43927 0.75130
 C397 C -0.02822 0.42973 0.75722
 C398 C -0.01810 0.39835 0.76929
 C399 C 0.01674 0.39835 0.76940
 C400 C 0.02697 0.42972 0.75738
 N401 N -0.00059 0.44869 0.74997
 C402 C 0.06103 0.43921 0.75155
 H403 H 0.12469 0.46702 0.72990
 H404 H 0.12490 0.53380 0.73016
 H405 H -0.00053 0.47157 0.73700
 H406 H 0.03324 0.62327 0.77809
 H407 H -0.03364 0.62329 0.77807
 H408 H -0.12560 0.53418 0.73006
 H409 H -0.12579 0.46740 0.72977
 H410 H 0.03272 0.37749 0.77721
 H411 H -0.00031 0.52957 0.73732
 H412 H -0.03415 0.37750 0.77701
 C413 C 0.36092 0.27576 0.11236
 C414 C 0.36087 0.25063 0.13763
 C415 C 0.38680 0.22614 0.13740
 C416 C 0.41203 0.22679 0.11265
 C417 C 0.41195 0.25194 0.08766
 C418 C 0.38620 0.27637 0.08763
 H419 H 0.34154 0.29507 0.11151
 H420 H 0.38776 0.20633 0.15623
 H421 H 0.43166 0.20762 0.11292
 H422 H 0.38577 0.29596 0.06847
 C423 C 0.61371 0.77387 0.13837
 C424 C 0.63990 0.74951 0.13868
 C425 C 0.63989 0.72454 0.11317
 C426 C 0.61462 0.72395 0.08841
 C427 C 0.58875 0.74821 0.08847
 C428 C 0.58852 0.77321 0.11354
 H429 H 0.61236 0.79365 0.15715
 H430 H 0.65924 0.70524 0.11203
 H431 H 0.61516 0.70447 0.06918
 H432 H 0.56879 0.79226 0.11383
 C433 C 0.63927 0.27598 -0.11279
 C434 C 0.63914 0.25108 -0.13825
 C435 C 0.61303 0.22676 -0.13820
 C436 C 0.58781 0.22734 -0.11343
 C437 C 0.58808 0.25226 -0.08825
 C438 C 0.61400 0.27653 -0.08806
 H439 H 0.65881 0.29513 -0.11179
 H440 H 0.61191 0.20715 -0.15719
 H441 H 0.56805 0.20830 -0.11384
 H442 H 0.61458 0.29594 -0.06876
 C443 C 0.38772 0.77242 -0.13775
 C444 C 0.36158 0.74813 -0.13775
 C445 C 0.36129 0.72339 -0.11211
 C446 C 0.38649 0.72292 -0.08726
 C447 C 0.41248 0.74712 -0.08752
 C448 C 0.41286 0.77192 -0.11287
 H449 H 0.38900 0.79187 -0.15692
 H450 H 0.34168 0.70431 -0.11104
 H451 H 0.38581 0.70361 -0.06782
 H452 H 0.43268 0.79090 -0.11334
 C453 C 0.11152 0.36169 0.27279
 C454 C 0.13748 0.36150 0.24839
 C455 C 0.13803 0.38742 0.22393
 C456 C 0.11332 0.41277 0.22391
 C457 C 0.08762 0.41281 0.24834
 C458 C 0.08687 0.38709 0.27274
 H459 H 0.11001 0.34227 0.29198
 H460 H 0.15749 0.38832 0.20474
 H461 H 0.11418 0.43239 0.20478
 H462 H 0.06716 0.38674 0.29178
 C463 C 0.13833 0.61374 0.77661
 C464 C 0.13825 0.63960 0.75195
 C465 C 0.11217 0.63939 0.72750
 C466 C 0.08730 0.61419 0.72764
 C467 C 0.08779 0.58858 0.75212
 C468 C 0.11338 0.58860 0.77666
 H469 H 0.15755 0.61257 0.79602
 H470 H 0.11069 0.65850 0.70802
 H471 H 0.06767 0.61454 0.70850
 H472 H 0.11402 0.56906 0.79587
 C473 C -0.11320 0.63937 0.27309
 C474 C -0.13885 0.64014 0.24821
 C475 C -0.13877 0.61459 0.22327
 C476 C -0.11402 0.58928 0.22330
 C477 C -0.08877 0.58881 0.24818
 C478 C -0.08849 0.61403 0.27300
 H479 H -0.11186 0.65823 0.29280
 H480 H -0.15771 0.61381 0.20356
 H481 H -0.11450 0.57002 0.20384
 H482 H -0.06910 0.61402 0.29239
 C483 C -0.13857 0.38647 0.77602
 C484 C -0.13857 0.36091 0.75110
 C485 C -0.11292 0.36177 0.72624
 C486 C -0.08827 0.38719 0.72636
 C487 C -0.08861 0.41241 0.75119
 C488 C -0.11388 0.41186 0.77603
 H489 H -0.15750 0.38719 0.79571
 H490 H -0.11154 0.34291 0.70653
 H491 H -0.06888 0.38726 0.70699
 H492 H -0.11439 0.43111 0.79550
 C493 C 0.27458 0.11248 0.36154
 C494 C 0.24979 0.13813 0.36145
 C495 C 0.22527 0.13821 0.38729
 C496 C 0.22558 0.11339 0.41249
 C497 C 0.25042 0.08804 0.41245
 C498 C 0.27487 0.08771 0.38678
 H499 H 0.29387 0.11134 0.34220
 H500 H 0.20575 0.15737 0.38826
 H501 H 0.20641 0.11391 0.43207
 H502 H 0.29422 0.06827 0.38638
 C503 C 0.72646 0.11214 0.63908
 C504 C 0.75113 0.13793 0.63898
 C505 C 0.77552 0.13812 0.61301
 C506 C 0.77519 0.11331 0.58787
 C507 C 0.75045 0.08782 0.58808
 C508 C 0.72615 0.08737 0.61389
 H509 H 0.70729 0.11090 0.65853
 H510 H 0.79494 0.15740 0.61190
 H511 H 0.79424 0.11393 0.56818
 H512 H 0.70688 0.06784 0.61443
 C513 C 0.22537 -0.13850 0.61327
 C514 C 0.24964 -0.13821 0.63936
 C515 C 0.27421 -0.11232 0.63955
 C516 C 0.27452 -0.08755 0.61432
 C517 C 0.25033 -0.08809 0.58839
 C518 C 0.22571 -0.11368 0.58809
 H519 H 0.20604 -0.15786 0.61207
 H520 H 0.29327 -0.11100 0.65912
 H521 H 0.29371 -0.06793 0.61493
 H522 H 0.20673 -0.11437 0.56831
 C523 C 0.77438 -0.13844 0.38724
 C524 C 0.74994 -0.13816 0.36129
 C525 C 0.72526 -0.11241 0.36133
 C526 C 0.72502 -0.08772 0.38661
 C527 C 0.74940 -0.08822 0.41236
 C528 C 0.77412 -0.11370 0.41246
 H529 H 0.79381 -0.15769 0.38827
 H530 H 0.70604 -0.11112 0.34191
 H531 H 0.70576 -0.06818 0.38615
 H532 H 0.79325 -0.11436 0.43210
 C533 C 0.61334 0.77329 -0.13728
 C534 C 0.63944 0.74899 -0.13738
 C535 C 0.63976 0.72416 -0.11183
 C536 C 0.61461 0.72359 -0.08699
 C537 C 0.58865 0.74778 -0.08717
 C538 C 0.58825 0.77270 -0.11240
 H539 H 0.61206 0.79282 -0.15638
 H540 H 0.65935 0.70506 -0.11084
 H541 H 0.61529 0.70419 -0.06763
 H542 H 0.56844 0.79167 -0.11279
 C543 C 0.36079 0.27585 -0.11263
 C544 C 0.36067 0.25061 -0.13774
 C545 C 0.38660 0.22613 -0.13746
 C546 C 0.41191 0.22688 -0.11278
 C547 C 0.41187 0.25212 -0.08793
 C548 C 0.38614 0.27656 -0.08798
 H549 H 0.34141 0.29516 -0.11185
 H550 H 0.38749 0.20624 -0.15617
 H551 H 0.43154 0.20772 -0.11297
 H552 H 0.38577 0.29622 -0.06891
 C553 C 0.38720 0.77452 0.13748
 C554 C 0.36131 0.74997 0.13789
 C555 C 0.36147 0.72459 0.11292
 C556 C 0.38680 0.72381 0.08828
 C557 C 0.41249 0.74830 0.08810
 C558 C 0.41250 0.77369 0.11281
 H559 H 0.38805 0.79453 0.15606
 H560 H 0.34214 0.70520 0.11227
 H561 H 0.38645 0.70403 0.06934
 H562 H 0.43210 0.79290 0.11290
 C563 C 0.63925 0.27498 0.11207
 C564 C 0.63936 0.24968 0.13717
 C565 C 0.61344 0.22516 0.13683
 C566 C 0.58815 0.22596 0.11213
 C567 C 0.58819 0.25129 0.08732
 C568 C 0.61392 0.27574 0.08741
 H569 H 0.65861 0.29433 0.11133
 H570 H 0.61255 0.20521 0.15552
 H571 H 0.56851 0.20678 0.11229
 H572 H 0.61430 0.29547 0.06838
 C573 C -0.13844 0.61409 0.77660
 C574 C -0.13836 0.63985 0.75184
 C575 C -0.11243 0.63946 0.72727
 C576 C -0.08767 0.61418 0.72741
 C577 C -0.08817 0.58870 0.75201
 C578 C -0.11362 0.58888 0.77666
 H579 H -0.15756 0.61306 0.79610
 H580 H -0.11097 0.65849 0.70771
 H581 H -0.06813 0.61438 0.70820
 H582 H -0.11423 0.56942 0.79595
 C583 C -0.11197 0.36136 0.27272
 C584 C -0.13776 0.36091 0.24812
 C585 C -0.13831 0.38670 0.22354
 C586 C -0.11375 0.41219 0.22358
 C587 C -0.08822 0.41249 0.24820
 C588 C -0.08747 0.38690 0.27273
 H589 H -0.11048 0.34204 0.29201
 H590 H -0.15765 0.38740 0.20420
 H591 H -0.11459 0.43172 0.20436
 H592 H -0.06787 0.38677 0.29191
 C593 C 0.13733 0.38656 0.77639
 C594 C 0.13698 0.36090 0.75171
 C595 C 0.11130 0.36140 0.72700
 C596 C 0.08672 0.38685 0.72696
 C597 C 0.08729 0.41230 0.75158
 C598 C 0.11271 0.41197 0.77632
 H599 H 0.15657 0.38722 0.79583
 H600 H 0.10996 0.34219 0.70762
 H601 H 0.06722 0.38675 0.70769
 H602 H 0.11340 0.43139 0.79561
 C603 C 0.11117 0.64010 0.27237
 C604 C 0.13696 0.64042 0.24779
 C605 C 0.13733 0.61466 0.22323
 C606 C 0.11263 0.58929 0.22330
 C607 C 0.08713 0.58911 0.24794
 C608 C 0.08653 0.61470 0.27242
 H609 H 0.10980 0.65942 0.29164
 H610 H 0.15665 0.61386 0.20391
 H611 H 0.11336 0.56976 0.20412
 H612 H 0.06696 0.61491 0.29161
 C613 C 0.72601 -0.11226 0.63919
 C614 C 0.75074 -0.13795 0.63925
 C615 C 0.77520 -0.13814 0.61334
 C616 C 0.77486 -0.11339 0.58810
 C617 C 0.75007 -0.08800 0.58818
 C618 C 0.72570 -0.08755 0.61391
 H619 H 0.70679 -0.11104 0.65860
 H620 H 0.79467 -0.15735 0.61234
 H621 H 0.79397 -0.11399 0.56847
 H622 H 0.70639 -0.06807 0.61433
 C623 C 0.27523 -0.11202 0.36171
 C624 C 0.25045 -0.13770 0.36159
 C625 C 0.22593 -0.13793 0.38743
 C626 C 0.22620 -0.11321 0.41264
 C627 C 0.25101 -0.08781 0.41262
 C628 C 0.27548 -0.08735 0.38698
 H629 H 0.29451 -0.11078 0.34236
 H630 H 0.20644 -0.15713 0.38838
 H631 H 0.20702 -0.11382 0.43220
 H632 H 0.29480 -0.06786 0.38661
 C633 C 0.77501 0.13761 0.38692
 C634 C 0.75032 0.13756 0.36121
 C635 C 0.72540 0.11202 0.36147
 C636 C 0.72516 0.08732 0.38675
 C637 C 0.74978 0.08761 0.41228
 C638 C 0.77474 0.11286 0.41216
 H639 H 0.79464 0.15668 0.38774
 H640 H 0.70598 0.11094 0.34224
 H641 H 0.70572 0.06795 0.38650
 H642 H 0.79403 0.11334 0.43163
 C643 C 0.22467 0.13780 0.61331
 C644 C 0.24920 0.13771 0.63917
 C645 C 0.27402 0.11210 0.63914
 C646 C 0.27435 0.08738 0.61392
 C647 C 0.24991 0.08773 0.58824
 C648 C 0.22502 0.11303 0.58814
 H649 H 0.20513 0.15694 0.61230
 H650 H 0.29331 0.11096 0.65850
 H651 H 0.29373 0.06797 0.61435
 H652 H 0.20586 0.11355 0.56853
   
