data_POSCAR
  _audit_creation_date              2014-09-24
  _audit_creation_method            'ToBaCCo'
  _symmetry_space_group_name_H-M    'P1'
  _symmetry_Int_Tables_number       1
  _symmetry_cell_setting            triclinic
  loop_
  _symmetry_equiv_pos_as_xyz
 x,y,z
_cell_length_a 45.5060
_cell_length_b 45.2571
_cell_length_c 45.2068
_cell_angle_alpha 90.019500
_cell_angle_beta 89.928000
_cell_angle_gamma 89.983400
loop_
  _atom_site_label
  _atom_site_type_symbol
  _atom_site_fract_x
  _atom_site_fract_y
  _atom_site_fract_z
C1 C 0.21193 1.23492 0.19231
 C2 C 0.23377 1.21306 0.19269
 C3 C 0.23355 1.19154 0.21449
 C4 C 0.21149 1.19162 0.23618
 C5 C 0.18991 1.21324 0.23582
 C6 C 0.19013 1.23501 0.21376
 C7 C 0.20551 1.25722 0.17261
 N8 N 0.18051 1.27066 0.18177
 C9 C 0.17079 1.25736 0.20677
 C10 C 0.17027 1.20669 0.25808
 N11 N 0.17960 1.18178 0.27178
 C12 C 0.20465 1.17226 0.25866
 C13 C 0.25598 1.17208 0.20820
 N14 N 0.26963 1.18141 0.18327
 C15 C 0.25633 1.20633 0.17349
 H16 H 0.21754 1.26262 0.15264
 H17 H 0.15070 1.26289 0.21840
 H18 H 0.15024 1.21854 0.26328
 H19 H 0.21642 1.15227 0.26441
 H20 H 0.26136 1.15212 0.22024
 H21 H 0.26204 1.21805 0.15342
 C22 C 0.79008 0.76606 0.18756
 C23 C 0.76825 0.78795 0.18763
 C24 C 0.76831 0.80966 0.20926
 C25 C 0.79019 0.80975 0.23108
 C26 C 0.81176 0.78812 0.23101
 C27 C 0.81171 0.76615 0.20913
 C28 C 0.79652 0.74345 0.16820
 N29 N 0.82137 0.72999 0.17768
 C30 C 0.83097 0.74359 0.20256
 C31 C 0.83110 0.79473 0.25347
 N32 N 0.82162 0.81970 0.26699
 C33 C 0.79675 0.82919 0.25358
 C34 C 0.74582 0.82897 0.20278
 N35 N 0.73229 0.81934 0.17792
 C36 C 0.74573 0.79440 0.16836
 H37 H 0.78455 0.73776 0.14830
 H38 H 0.85087 0.73804 0.21444
 H39 H 0.85101 0.78283 0.25899
 H40 H 0.78487 0.84917 0.25919
 H41 H 0.74025 0.84897 0.21469
 H42 H 0.74009 0.78242 0.14843
 C43 C 0.78931 1.23337 -0.19030
 C44 C 0.76721 1.21179 -0.19008
 C45 C 0.76688 1.18995 -0.21158
 C46 C 0.78865 1.18944 -0.23356
 C47 C 0.81050 1.21077 -0.23378
 C48 C 0.81083 1.23287 -0.21203
 C49 C 0.79621 1.25592 -0.17105
 N50 N 0.82122 1.26894 -0.18074
 C51 C 0.83048 1.25512 -0.20565
 C52 C 0.82970 1.20371 -0.25629
 N53 N 0.81985 1.17877 -0.26955
 C54 C 0.79489 1.16973 -0.25593
 C55 C 0.74425 1.17092 -0.20476
 N56 N 0.73101 1.18083 -0.17981
 C57 C 0.74478 1.20568 -0.17054
 H58 H 0.78447 1.26180 -0.15104
 H59 H 0.85045 1.26027 -0.21765
 H60 H 0.84976 1.21527 -0.26198
 H61 H 0.78276 1.14985 -0.26130
 H62 H 0.73843 1.15089 -0.21647
 H63 H 0.73944 1.21780 -0.15059
 C64 C 0.20917 0.76917 -0.18810
 C65 C 0.23080 0.79124 -0.18817
 C66 C 0.23069 0.81280 -0.20994
 C67 C 0.20894 0.81256 -0.23189
 C68 C 0.18756 0.79075 -0.23182
 C69 C 0.18768 0.76893 -0.20981
 C70 C 0.20290 0.74655 -0.16872
 N71 N 0.17827 0.73276 -0.17832
 C72 C 0.16867 0.74616 -0.20329
 C73 C 0.16838 0.79697 -0.25454
 N74 N 0.17778 0.82187 -0.26820
 C75 C 0.20244 0.83171 -0.25464
 C76 C 0.25304 0.83227 -0.20353
 N77 N 0.26655 0.82290 -0.17856
 C78 C 0.25323 0.79795 -0.16888
 H79 H 0.21485 0.74103 -0.14877
 H80 H 0.14894 0.74028 -0.21532
 H81 H 0.14868 0.78480 -0.26019
 H82 H 0.21425 0.85168 -0.26038
 H83 H 0.25856 0.85218 -0.21559
 H84 H 0.25893 0.78611 -0.14888
 C85 C 0.54466 1.04204 -0.00765
 H86 H 0.54538 1.04167 0.01627
 C87 C 0.56466 1.05932 -0.02342
 H88 H 0.58044 1.07259 -0.01143
 C89 C 0.52320 1.02495 -0.05222
 H90 H 0.50747 1.01100 -0.06337
 C91 C 0.54280 1.04192 -0.06889
 H92 H 0.54188 1.04083 -0.09279
 N93 N 0.52440 1.02541 -0.02216
 C94 C 0.45522 1.00970 0.04272
 H95 H 0.45459 0.98581 0.04240
 C96 C 0.43536 1.02540 0.06026
 H97 H 0.41977 1.01337 0.07377
 C98 C 0.47630 1.05429 0.02526
 H99 H 0.49182 1.06547 0.01106
 C100 C 0.45684 1.07088 0.04247
 H101 H 0.45764 1.09476 0.04132
 Zn102 Zn 0.49971 1.00110 0.00112
 N103 N 0.47523 1.02425 0.02579
 C104 C 0.52384 0.97706 0.05403
 N105 N 0.52457 0.97658 0.02395
 C106 C 0.54449 0.95980 0.00908
 C107 C 0.56460 0.94237 0.02450
 C108 C 0.54357 0.95994 0.07034
 C109 C 0.45452 0.99287 -0.03967
 C110 C 0.43430 0.97735 -0.05687
 C111 C 0.45572 0.93169 -0.03953
 C112 C 0.47555 0.94811 -0.02263
 N113 N 0.47468 0.97815 -0.02310
 H114 H 0.50839 0.99113 0.06547
 H115 H 0.54484 0.96016 -0.01484
 H116 H 0.58011 0.92898 0.01221
 H117 H 0.54304 0.96104 0.09426
 H118 H 0.45406 1.01677 -0.03931
 H119 H 0.41860 0.98951 -0.07010
 H120 H 0.45639 0.90780 -0.03843
 H121 H 0.49120 0.93679 -0.00872
 C122 C 0.43590 1.05643 0.06017
 C123 C 0.56399 1.05929 -0.05449
 C124 C 0.43463 0.94631 -0.05684
 C125 C 0.56442 0.94240 0.05557
 C126 C -0.02182 0.52227 1.05278
 H127 H -0.00770 0.50647 1.06365
 C128 C -0.03874 0.54163 1.06981
 H129 H -0.03787 0.54009 1.09369
 C130 C -0.03980 0.54381 1.00860
 H131 H -0.03970 0.54474 0.98468
 C132 C -0.05708 0.56356 1.02475
 H133 H -0.07013 0.57979 1.01306
 N134 N -0.02279 0.52357 1.02274
 C135 C 0.05449 0.47530 1.02229
 H136 H 0.06541 0.49115 1.00821
 C137 C 0.07124 0.45574 1.03922
 H138 H 0.09498 0.45679 1.03797
 C139 C 0.01042 0.45358 1.03984
 H140 H -0.01335 0.45277 1.03970
 C141 C 0.02628 0.43361 1.05708
 H142 H 0.01451 0.41775 1.07054
 Zn143 Zn 0.00118 0.49885 0.99908
 N144 N 0.02463 0.47399 1.02303
 C145 C 0.04180 0.54414 0.98976
 N146 N 0.02496 0.52383 0.97553
 C147 C 0.02399 0.52265 0.94548
 C148 C 0.04070 0.54225 0.92854
 C149 C 0.05888 0.56413 0.97370
 C150 C -0.05196 0.47496 0.97592
 C151 C -0.06861 0.45530 0.95902
 C152 C -0.02355 0.43358 0.94089
 C153 C -0.00778 0.45365 0.95811
 N154 N -0.02210 0.47390 0.97504
 H155 H 0.04171 0.54497 1.01368
 H156 H 0.01000 0.50679 0.93454
 H157 H 0.03982 0.54082 0.90465
 H158 H 0.07177 0.58043 0.98547
 H159 H -0.06296 0.49068 0.99010
 H160 H -0.09235 0.45613 0.96040
 H161 H -0.01170 0.41784 0.92734
 H162 H 0.01599 0.45304 0.95815
 C163 C 0.05713 0.43445 1.05684
 C164 C -0.05664 0.56268 1.05580
 C165 C -0.05441 0.43416 0.94128
 C166 C 0.05840 0.56340 0.94264
 C167 C 1.03975 -0.01048 0.54445
 H168 H 1.03946 0.01340 0.54558
 C169 C 1.05696 -0.02662 0.56423
 H170 H 1.06975 -0.01495 0.58069
 C171 C 1.02230 -0.05460 0.52238
 H172 H 1.00839 -0.06545 0.50638
 C173 C 1.03915 -0.07162 0.54177
 H174 H 1.03846 -0.09547 0.54005
 N175 N 1.02303 -0.02460 0.52395
 C176 C 1.00812 0.04064 0.45464
 H177 H 0.98436 0.04047 0.45392
 C178 C 1.02393 0.05816 0.43484
 H179 H 1.01212 0.07182 0.41920
 C180 C 1.05226 0.02282 0.47594
 H181 H 1.06323 0.00852 0.49154
 C182 C 1.06895 0.04003 0.45654
 H183 H 1.09269 0.03876 0.45746
 Zn184 Zn 0.99909 -0.00092 0.49929
 N185 N 1.02240 0.02355 0.47475
 C186 C 0.97576 0.05217 0.52369
 N187 N 0.97496 0.02213 0.52442
 C188 C 0.95805 0.00751 0.54445
 C189 C 0.94078 0.02316 0.56462
 C190 C 0.95882 0.06870 0.54346
 C191 C 0.99047 -0.04129 0.45350
 C192 C 0.97486 -0.05835 0.43317
 C193 C 0.92963 -0.04088 0.45509
 C194 C 0.94613 -0.02413 0.47502
 N195 N 0.97600 -0.02476 0.47397
 H196 H 0.98993 0.06340 0.50816
 H197 H 0.95814 -0.01639 0.54481
 H198 H 0.92725 0.01108 0.58019
 H199 H 0.96015 0.09258 0.54289
 H200 H 1.01424 -0.04105 0.45291
 H201 H 0.98683 -0.07158 0.41724
 H202 H 0.90588 -0.03971 0.45593
 H203 H 0.93501 -0.01025 0.49093
 C204 C 1.05479 0.05792 0.43554
 C205 C 1.05674 -0.05763 0.56311
 C206 C 0.94400 -0.05821 0.43372
 C207 C 0.94110 0.05419 0.56438
 C208 C 0.08183 0.36275 1.09253
 C209 C 0.10728 0.37172 1.10735
 C210 C 0.11639 0.40121 1.10574
 C211 C 0.10010 0.42167 1.08935
 C212 C 0.16639 0.29175 1.16719
 C213 C 0.06551 0.38315 1.07616
 C214 C 0.12401 0.35051 1.12405
 C215 C 0.13769 0.33236 1.13786
 C216 C 0.15334 0.31066 1.15379
 C217 C 0.07445 0.41286 1.07438
 H218 H 0.07464 0.33995 1.09353
 H219 H 0.13604 0.40840 1.11718
 H220 H 0.10737 0.44444 1.08868
 H221 H 0.04614 0.37557 1.06454
 C222 C -0.11894 0.61275 1.08068
 C223 C -0.10682 0.62583 1.10593
 C224 C -0.07854 0.61791 1.11510
 C225 C -0.06233 0.59716 1.09899
 C226 C -0.16467 0.70843 1.16361
 C227 C -0.10276 0.59200 1.06452
 C228 C -0.12308 0.64790 1.12201
 C229 C -0.13645 0.66669 1.13531
 C230 C -0.15181 0.68904 1.15068
 C231 C -0.07420 0.58407 1.07342
 H232 H -0.14083 0.61871 1.07339
 H233 H -0.06889 0.62801 1.13453
 H234 H -0.04027 0.59184 1.10619
 H235 H -0.11264 0.58205 1.04515
 C236 C -0.07875 0.36217 0.90590
 C237 C -0.10446 0.37087 0.89136
 C238 C -0.11379 0.40030 0.89296
 C239 C -0.09750 0.42095 0.90911
 C240 C -0.16432 0.29017 0.83328
 C241 C -0.06244 0.38276 0.92203
 C242 C -0.12128 0.34944 0.87505
 C243 C -0.13512 0.33111 0.86163
 C244 C -0.15101 0.30923 0.84621
 C245 C -0.07163 0.41240 0.92385
 H246 H -0.07139 0.33942 0.90492
 H247 H -0.13363 0.40728 0.88175
 H248 H -0.10497 0.44366 0.90982
 H249 H -0.04289 0.37537 0.93348
 C250 C 0.12009 0.61430 0.91800
 C251 C 0.10777 0.62740 0.89287
 C252 C 0.07957 0.61921 0.88368
 C253 C 0.06363 0.59818 0.89967
 C254 C 0.16457 0.71099 0.83566
 C255 C 0.10418 0.59327 0.93405
 C256 C 0.12375 0.64976 0.87692
 C257 C 0.13687 0.66878 0.86373
 C258 C 0.15195 0.69139 0.84849
 C259 C 0.07570 0.58507 0.92514
 H260 H 0.14191 0.62046 0.92530
 H261 H 0.06978 0.62932 0.86434
 H262 H 0.04163 0.59266 0.89247
 H263 H 0.11421 0.58331 0.95333
 C264 C 1.07941 0.09411 0.36397
 C265 C 1.10502 0.10865 0.37294
 C266 C 1.11419 0.10679 0.40242
 C267 C 1.09784 0.09039 0.42286
 C268 C 1.16512 0.16756 0.29289
 C269 C 1.06303 0.07773 0.38434
 C270 C 1.12193 0.12520 0.35173
 C271 C 1.13582 0.13881 0.33356
 C272 C 1.15177 0.15446 0.31184
 C273 C 1.07206 0.07565 0.41403
 H274 H 1.07217 0.09530 0.34118
 H275 H 1.13397 0.11800 0.40961
 H276 H 1.10518 0.08948 0.44561
 H277 H 1.04356 0.06629 0.37674
 C278 C 1.07841 -0.11694 0.61831
 C279 C 1.10652 -0.10755 0.62661
 C280 C 1.11863 -0.08220 0.61373
 C281 C 1.10260 -0.06613 0.59284
 C282 C 1.16387 -0.16438 0.71003
 C283 C 1.06235 -0.10091 0.59742
 C284 C 1.12259 -0.12348 0.64889
 C285 C 1.13583 -0.13661 0.66787
 C286 C 1.15107 -0.15171 0.69044
 C287 C 1.07420 -0.07522 0.58456
 H288 H 1.06877 -0.13645 0.62825
 H289 H 1.14038 -0.07476 0.61998
 H290 H 1.11246 -0.04667 0.58308
 H291 H 1.04041 -0.10826 0.59183
 C292 C 0.92009 -0.09293 0.36122
 C293 C 0.89451 -0.10783 0.36974
 C294 C 0.88510 -0.10665 0.39920
 C295 C 0.90119 -0.09057 0.42007
 C296 C 0.83573 -0.16613 0.28836
 C297 C 0.93621 -0.07688 0.38203
 C298 C 0.87793 -0.12414 0.34811
 C299 C 0.86434 -0.13759 0.32962
 C300 C 0.84875 -0.15310 0.30756
 C301 C 0.92695 -0.07550 0.41171
 H302 H 0.92751 -0.09361 0.33844
 H303 H 0.86535 -0.11815 0.40605
 H304 H 0.89368 -0.09020 0.44281
 H305 H 0.95567 -0.06516 0.37478
 C306 C 0.89295 0.11366 0.59868
 C307 C 0.89126 0.10404 0.62805
 C308 C 0.90562 0.07807 0.63655
 C309 C 0.92169 0.06179 0.61583
 C310 C 0.83373 0.16419 0.70916
 C311 C 0.90904 0.09741 0.57789
 C312 C 0.87509 0.12089 0.64963
 C313 C 0.86180 0.13478 0.66805
 C314 C 0.84652 0.15077 0.69004
 C315 C 0.92363 0.07129 0.58625
 H316 H 0.88187 0.13372 0.59185
 H317 H 0.90456 0.07048 0.65926
 H318 H 0.93303 0.04204 0.62307
 H319 H 0.90984 0.10512 0.55524
 C320 C 0.40211 1.11584 0.10894
 C321 C 0.37285 1.10643 0.11046
 C322 C 0.36426 1.08063 0.09577
 C323 C 0.38478 1.06432 0.07956
 C324 C 0.29216 1.16626 0.16851
 C325 C 0.42270 1.09955 0.09270
 C326 C 0.35147 1.12329 0.12679
 C327 C 0.33315 1.13713 0.14021
 C328 C 0.31125 1.15300 0.15561
 C329 C 0.41425 1.07360 0.07780
 H330 H 0.40900 1.13576 0.12027
 H331 H 0.34164 1.07321 0.09670
 H332 H 0.37747 1.04471 0.06797
 H333 H 0.44527 1.10709 0.09203
 C334 C 0.63590 1.09406 -0.07893
 C335 C 0.62737 1.10892 -0.10465
 C336 C 0.59807 1.10777 -0.11394
 C337 C 0.57738 1.09174 -0.09761
 C338 C 0.70841 1.16627 -0.16460
 C339 C 0.61528 1.07804 -0.06257
 C340 C 0.64885 1.12507 -0.12154
 C341 C 0.66725 1.13833 -0.13540
 C342 C 0.68925 1.15354 -0.15130
 C343 C 0.58577 1.07667 -0.07173
 H344 H 0.65856 1.09470 -0.07160
 H345 H 0.59122 1.11924 -0.13381
 H346 H 0.55477 1.09137 -0.10505
 H347 H 0.62254 1.06632 -0.04302
 C348 C 0.36240 0.92272 -0.09142
 C349 C 0.37065 0.89692 -0.10633
 C350 C 0.39986 0.88730 -0.10526
 C351 C 0.42074 0.90338 -0.08927
 C352 C 0.28917 0.83789 -0.16384
 C353 C 0.38322 0.93883 -0.07545
 C354 C 0.34898 0.88030 -0.12246
 C355 C 0.33047 0.86665 -0.13574
 C356 C 0.30838 0.85099 -0.15102
 C357 C 0.41264 0.92934 -0.07416
 H358 H 0.33982 0.93031 -0.09199
 H359 H 0.40649 0.86737 -0.11677
 H360 H 0.44327 0.89568 -0.08897
 H361 H 0.37618 0.95845 -0.06370
 C362 C 0.63645 0.90708 0.07870
 C363 C 0.62821 0.89228 0.10458
 C364 C 0.59906 0.89366 0.11440
 C365 C 0.57823 0.90986 0.09845
 C366 C 0.70963 0.83416 0.16308
 C367 C 0.61569 0.92325 0.06272
 C368 C 0.64982 0.87595 0.12108
 C369 C 0.66831 0.86252 0.13461
 C370 C 0.69041 0.84709 0.15012
 C371 C 0.58633 0.92486 0.07241
 H372 H 0.65898 0.90626 0.07096
 H373 H 0.59243 0.88225 0.13439
 H374 H 0.55575 0.91041 0.10630
 H375 H 0.62273 0.93491 0.04304
   
