data_POSCAR
  _audit_creation_date              2014-09-24
  _audit_creation_method            'ToBaCCo'
  _symmetry_space_group_name_H-M    'P1'
  _symmetry_Int_Tables_number       1
  _symmetry_cell_setting            triclinic
  loop_
  _symmetry_equiv_pos_as_xyz
 x,y,z
_cell_length_a 20.4857
_cell_length_b 20.6017
_cell_length_c 29.0997
_cell_angle_alpha 92.333800
_cell_angle_beta 85.512600
_cell_angle_gamma 93.357900
loop_
  _atom_site_label
  _atom_site_type_symbol
  _atom_site_fract_x
  _atom_site_fract_y
  _atom_site_fract_z
C1 C -0.01574 0.66789 1.00059
 C2 C -0.01788 0.63725 1.04330
 C3 C -0.02251 0.56877 1.04302
 C4 C -0.01762 0.53118 1.00178
 C5 C -0.01217 0.56305 0.95985
 C6 C -0.01387 0.63130 0.95833
 C7 C -0.01651 0.45862 1.00262
 C8 C -0.04260 0.41863 0.96731
 C9 C -0.03909 0.35078 0.96709
 C10 C -0.01212 0.32260 1.00383
 C11 C 0.01256 0.36097 1.04020
 C12 C 0.01162 0.42899 1.03859
 H13 H -0.01425 0.72024 1.00026
 H14 H -0.03072 0.54378 1.07496
 H15 H -0.00511 0.53383 0.92854
 H16 H -0.06486 0.44034 0.93963
 H17 H -0.01071 0.27033 1.00406
 H18 H 0.03289 0.45918 1.06531
 C19 C 0.33398 0.01197 0.49820
 C20 C 0.36253 0.01845 0.54060
 C21 C 0.43091 0.01631 0.54125
 C22 C 0.47064 0.00558 0.50029
 C23 C 0.44056 -0.00268 0.45846
 C24 C 0.37287 0.00288 0.45678
 C25 C 0.54356 0.00509 0.50062
 C26 C 0.58399 0.03030 0.46358
 C27 C 0.65263 0.02775 0.46165
 C28 C 0.68073 0.00408 0.49994
 C29 C 0.64165 -0.01896 0.53866
 C30 C 0.57287 -0.02014 0.53763
 H31 H 0.28179 0.01681 0.49737
 H32 H 0.45325 0.02330 0.57367
 H33 H 0.47008 -0.01355 0.42696
 H34 H 0.56096 0.05069 0.43585
 H35 H 0.73334 0.00339 0.49953
 H36 H 0.54137 -0.03941 0.56585
 C37 C 0.15962 0.05196 0.27086
 H38 H 0.15956 0.08373 0.24225
 C39 C 0.21591 0.05059 0.29473
 H40 H 0.25802 0.08251 0.28471
 C41 C 0.10550 -0.02870 0.31812
 H42 H 0.06275 -0.06067 0.32631
 C43 C 0.16054 -0.03088 0.34342
 H44 H 0.15961 -0.06426 0.37128
 N45 N 0.10566 0.01289 0.28288
 C46 C -0.02197 -0.07124 0.17852
 H47 H -0.05182 -0.03165 0.17202
 C48 C -0.02923 -0.13001 0.15304
 H49 H -0.06542 -0.13553 0.12776
 C50 C 0.06197 -0.11266 0.21852
 H51 H 0.09828 -0.10601 0.24341
 C52 C 0.05523 -0.17245 0.19471
 H53 H 0.08637 -0.21097 0.20182
 Zn54 Zn 0.03157 0.01537 0.24737
 N55 N 0.02281 -0.06366 0.21090
 C56 C 0.05040 0.08260 0.16282
 N57 N 0.04346 0.08830 0.20965
 C58 C 0.04309 0.14759 0.23197
 C59 C 0.04897 0.20436 0.20708
 C60 C 0.05531 0.13817 0.13655
 C61 C -0.04648 0.03206 0.33295
 C62 C -0.10477 0.04119 0.36014
 C63 C -0.16144 0.04357 0.29064
 C64 C -0.10230 0.03382 0.26485
 N65 N -0.04642 0.02716 0.28613
 H66 H 0.05180 0.03512 0.14575
 H67 H 0.03749 0.15060 0.26926
 H68 H 0.04723 0.25103 0.22549
 H69 H 0.06004 0.13290 0.09928
 H70 H -0.00145 0.02990 0.34951
 H71 H -0.10378 0.04481 0.39730
 H72 H -0.20530 0.04748 0.27274
 H73 H -0.10097 0.03244 0.22770
 C74 C 0.00891 -0.18177 0.16178
 C75 C 0.21674 0.00891 0.33155
 C76 C -0.16328 0.04688 0.33896
 C77 C 0.05426 0.19995 0.15876
 C78 C -0.09488 0.09363 0.78562
 H79 H -0.12728 0.07983 0.75891
 C80 C -0.10604 0.14957 0.81324
 H81 H -0.14745 0.17754 0.80739
 C82 C -0.00256 0.07315 0.82582
 H83 H 0.03789 0.04314 0.83041
 C84 C -0.01176 0.12865 0.85408
 H85 H 0.02248 0.14064 0.87997
 N86 N -0.04309 0.05732 0.79178
 C87 C 0.06957 -0.03822 0.67754
 H88 H 0.03460 -0.07662 0.66772
 C89 C 0.12908 -0.02893 0.65102
 H90 H 0.13983 -0.06146 0.62162
 C91 C 0.09735 0.05147 0.72702
 H92 H 0.08490 0.08369 0.75603
 C93 C 0.15744 0.06223 0.70170
 H94 H 0.18989 0.10270 0.71187
 Zn95 Zn -0.02508 -0.01575 0.75174
 N96 N 0.05533 0.00090 0.71539
 C97 C -0.09715 0.00945 0.67649
 N98 N -0.09369 -0.03063 0.71209
 C99 C -0.14008 -0.07939 0.72084
 C100 C -0.19358 -0.08832 0.69388
 C101 C -0.14974 0.00212 0.64855
 C102 C 0.00117 -0.14601 0.76438
 C103 C 0.00466 -0.20302 0.78810
 C104 C -0.03489 -0.14645 0.85809
 C105 C -0.03763 -0.09032 0.83295
 N106 N -0.01950 -0.09096 0.78690
 H107 H -0.05970 0.04805 0.67046
 H108 H -0.13643 -0.11053 0.74943
 H109 H -0.23006 -0.12721 0.70170
 H110 H -0.15236 0.03573 0.62124
 H111 H 0.01449 -0.14607 0.72780
 H112 H 0.02200 -0.24573 0.76920
 H113 H -0.05060 -0.14507 0.89448
 H114 H -0.05562 -0.04675 0.85019
 C115 C 0.17438 0.02128 0.66349
 C116 C -0.06361 0.16836 0.84766
 C117 C -0.01390 -0.20397 0.83556
 C118 C -0.19939 -0.04675 0.65753
 N119 N 0.00544 -0.30250 0.15877
 N120 N -0.00296 -0.35286 0.12607
 C121 C -0.01321 -0.32648 0.08554
 C122 C -0.01252 -0.25878 0.09231
 C123 C -0.00030 -0.24613 0.13823
 H124 H -0.01785 -0.22261 0.06716
 H125 H 0.01509 -0.30870 0.19298
 H126 H 0.00316 -0.40137 0.13275
 N127 N 0.07871 0.31875 0.14588
 N128 N 0.06806 0.36109 0.11474
 C129 C 0.03763 0.32956 0.08005
 C130 C 0.02950 0.26398 0.08977
 C131 C 0.05580 0.25927 0.13173
 H132 H 0.00462 0.22521 0.07062
 H133 H 0.10110 0.33087 0.17634
 H134 H 0.08123 0.41064 0.11801
 N135 N 0.29254 0.06111 0.65437
 N136 N 0.34193 0.06000 0.62237
 C137 C 0.32108 0.02916 0.58401
 C138 C 0.25534 0.00964 0.59218
 C139 C 0.23902 0.03079 0.63726
 H140 H 0.22395 -0.01651 0.56867
 H141 H 0.29630 0.08154 0.68755
 H142 H 0.38874 0.08092 0.62695
 N143 N -0.31699 -0.07892 0.64642
 N144 N -0.36152 -0.07031 0.61361
 C145 C -0.32915 -0.03925 0.57785
 C146 C -0.26363 -0.02793 0.58745
 C147 C -0.25819 -0.05267 0.63060
 H148 H -0.22491 -0.00245 0.56682
 H149 H -0.32946 -0.09894 0.67851
 H150 H -0.41073 -0.08660 0.61745
 N151 N -0.01476 -0.32484 0.83994
 N152 N -0.01489 -0.37046 0.87394
 C153 C -0.01303 -0.33824 0.91534
 C154 C -0.01201 -0.27147 0.90801
 C155 C -0.01303 -0.26524 0.86061
 H156 H -0.01048 -0.23189 0.93349
 H157 H -0.01839 -0.33667 0.80498
 H158 H -0.01840 -0.42044 0.86670
 N159 N -0.11098 0.27726 0.86695
 N160 N -0.10439 0.32525 0.89814
 C161 C -0.06164 0.30890 0.92808
 C162 C -0.04028 0.24777 0.91519
 C163 C -0.07241 0.22919 0.87619
 H164 H -0.00487 0.22131 0.93143
 H165 H -0.14052 0.27873 0.83943
 H166 H -0.12909 0.36820 0.89855
 N167 N -0.27845 0.08154 0.35134
 N168 N -0.32979 0.07611 0.38555
 C169 C -0.30796 0.04660 0.42167
 C170 C -0.24216 0.03384 0.41108
 C171 C -0.22602 0.05545 0.36684
 H172 H -0.21074 0.00800 0.43129
 H173 H -0.28173 0.10218 0.31949
 H174 H -0.37604 0.09313 0.38216
 N175 N 0.33751 0.02184 0.33908
 N176 N 0.37842 0.01951 0.37175
 C177 C 0.34408 0.00343 0.41155
 C178 C 0.27815 -0.00535 0.40345
 C179 C 0.27612 0.00719 0.35714
 H180 H 0.23706 -0.01666 0.42800
 H181 H 0.35183 0.03396 0.30513
 H182 H 0.42864 0.03144 0.36680
   
