data_POSCAR
  _audit_creation_date              2014-09-24
  _audit_creation_method            'ToBaCCo'
  _symmetry_space_group_name_H-M    'P1'
  _symmetry_Int_Tables_number       1
  _symmetry_cell_setting            triclinic
  loop_
  _symmetry_equiv_pos_as_xyz
 x,y,z
_cell_length_a 60.6456
_cell_length_b 59.8400
_cell_length_c 60.6381
_cell_angle_alpha 89.912200
_cell_angle_beta 90.056000
_cell_angle_gamma 90.009800
loop_
  _atom_site_label
  _atom_site_type_symbol
  _atom_site_fract_x
  _atom_site_fract_y
  _atom_site_fract_z
C1 C 0.60882 0.64050 0.62498
 N2 N 0.60897 0.62455 0.64092
 C3 C 0.62493 0.60866 0.64104
 N4 N 0.64074 0.60871 0.62522
 C5 C 0.64059 0.62465 0.60927
 N6 N 0.62463 0.64054 0.60916
 C7 C 0.89202 0.35894 0.12514
 N8 N 0.87619 0.35899 0.10930
 C9 C 0.86026 0.37491 0.10942
 N10 N 0.86016 0.39079 0.12537
 C11 C 0.87599 0.39075 0.14121
 N12 N 0.89192 0.37483 0.14109
 C13 C 0.39114 0.14092 -0.12498
 N14 N 0.39102 0.12501 -0.14089
 C15 C 0.37508 0.10909 -0.14099
 N16 N 0.35927 0.10908 -0.12517
 C17 C 0.35939 0.12500 -0.10926
 N18 N 0.37533 0.14092 -0.10916
 C19 C 0.10827 0.85907 0.37437
 N20 N 0.12410 0.85908 0.39020
 C21 C 0.14003 0.87501 0.39008
 N22 N 0.14013 0.89093 0.37412
 C23 C 0.12431 0.89093 0.35828
 N24 N 0.10838 0.87499 0.35841
 N25 N 0.09916 0.16020 0.11455
 N26 N 0.09025 0.15078 0.13202
 C27 C 0.07239 0.16264 0.13811
 C28 C 0.07013 0.18029 0.12367
 C29 C 0.08728 0.17835 0.10892
 H30 H 0.06182 0.15880 0.15196
 H31 H 0.09084 0.18930 0.09517
 Cu32 Cu 0.10289 0.12395 0.14508
 Cu33 Cu 0.12545 0.14828 0.10043
 Cu34 Cu 0.14884 0.10100 0.12388
 N35 N 0.11650 0.09773 0.15834
 N36 N 0.13447 0.08884 0.14996
 C37 C 0.14040 0.07102 0.16219
 C38 C 0.12535 0.06875 0.17904
 C39 C 0.11040 0.08586 0.17623
 H40 H 0.15458 0.06053 0.15909
 H41 H 0.09622 0.08935 0.18646
 N42 N 0.16096 0.11574 0.09746
 N43 N 0.15205 0.13376 0.08852
 C44 C 0.16401 0.13979 0.07077
 C45 C 0.18113 0.12486 0.06856
 C46 C 0.17883 0.10984 0.08562
 H47 H 0.16057 0.15394 0.06020
 H48 H 0.18938 0.09570 0.08909
 H49 H 0.12106 0.11547 0.11020
 H50 H 0.13827 0.13351 0.12850
 N51 N 0.39998 0.83936 0.61472
 N52 N 0.40861 0.84846 0.63249
 C53 C 0.42652 0.83662 0.63859
 C54 C 0.42909 0.81931 0.62384
 C55 C 0.41208 0.82144 0.60892
 H56 H 0.43691 0.84024 0.65264
 H57 H 0.40877 0.81077 0.59492
 Cu58 Cu 0.39554 0.87486 0.64583
 Cu59 Cu 0.37375 0.85138 0.60046
 Cu60 Cu 0.35019 0.89846 0.62401
 N61 N 0.38219 0.90126 0.65890
 N62 N 0.36444 0.91041 0.65027
 C63 C 0.35862 0.92831 0.66237
 C64 C 0.37354 0.93038 0.67939
 C65 C 0.38828 0.91306 0.67682
 H66 H 0.34463 0.93901 0.65905
 H67 H 0.40232 0.90939 0.68722
 N68 N 0.33821 0.88392 0.59743
 N69 N 0.34719 0.86598 0.58846
 C70 C 0.33529 0.86007 0.57061
 C71 C 0.31815 0.87498 0.56838
 C72 C 0.32038 0.88988 0.58552
 H73 H 0.33878 0.84599 0.56002
 H74 H 0.30978 0.90396 0.58900
 H75 H 0.37811 0.88401 0.61070
 H76 H 0.36042 0.86581 0.62838
 N77 N 0.90104 0.66035 0.38562
 N78 N 0.90996 0.65092 0.36819
 C79 C 0.92785 0.66278 0.36209
 C80 C 0.93011 0.68042 0.37649
 C81 C 0.91293 0.67849 0.39121
 H82 H 0.93843 0.65894 0.34826
 H83 H 0.90936 0.68944 0.40492
 Cu84 Cu 0.89731 0.62413 0.35515
 Cu85 Cu 0.87470 0.64845 0.39972
 Cu86 Cu 0.85126 0.60125 0.37630
 N87 N 0.88366 0.59796 0.34192
 N88 N 0.86565 0.58909 0.35027
 C89 C 0.85969 0.57131 0.33805
 C90 C 0.87478 0.56903 0.32124
 C91 C 0.88976 0.58610 0.32405
 H92 H 0.84548 0.56084 0.34114
 H93 H 0.90397 0.58958 0.31385
 N94 N 0.83912 0.61598 0.40267
 N95 N 0.84805 0.63397 0.41160
 C96 C 0.83607 0.63999 0.42933
 C97 C 0.81892 0.62508 0.43153
 C98 C 0.82122 0.61009 0.41449
 H99 H 0.83953 0.65411 0.43988
 H100 H 0.81065 0.59597 0.41103
 H101 H 0.87904 0.61565 0.39001
 H102 H 0.86191 0.63375 0.37163
 N103 N 0.59958 0.34026 -0.11437
 N104 N 0.59069 0.34963 -0.13190
 C105 C 0.57278 0.33780 -0.13796
 C106 C 0.57045 0.32023 -0.12343
 C107 C 0.58763 0.32219 -0.10867
 H108 H 0.56222 0.34160 -0.15185
 H109 H 0.59116 0.31129 -0.09487
 Cu110 Cu 0.60344 0.37633 -0.14509
 Cu111 Cu 0.62594 0.35215 -0.10029
 Cu112 Cu 0.64952 0.39920 -0.12397
 N113 N 0.61714 0.40243 -0.15847
 N114 N 0.63517 0.41129 -0.15012
 C115 C 0.64116 0.42902 -0.16244
 C116 C 0.62608 0.43127 -0.17931
 C117 C 0.61107 0.41423 -0.17642
 H118 H 0.65538 0.43947 -0.15939
 H119 H 0.59685 0.41075 -0.18663
 N120 N 0.66160 0.38454 -0.09747
 N121 N 0.65261 0.36661 -0.08844
 C122 C 0.66457 0.36062 -0.07065
 C123 C 0.68177 0.37548 -0.06851
 C124 C 0.67951 0.39042 -0.08565
 H125 H 0.66108 0.34654 -0.06002
 H126 H 0.69014 0.40449 -0.08919
 H127 H 0.62169 0.38493 -0.11024
 H128 H 0.63879 0.36671 -0.12843
 C129 C -0.09204 0.34301 0.12503
 C130 C -0.07790 0.32885 0.12494
 C131 C -0.06103 0.31194 0.12483
 C132 C -0.06605 0.29019 0.11804
 C133 C -0.04968 0.27374 0.11794
 C134 C -0.02803 0.27886 0.12463
 C135 C -0.02316 0.30079 0.13141
 C136 C -0.03956 0.31721 0.13152
 C137 C -0.01062 0.26140 0.12451
 C138 C 0.01087 0.26649 0.11733
 C139 C 0.02723 0.25004 0.11720
 C140 C 0.02236 0.22831 0.12424
 C141 C 0.00105 0.22308 0.13142
 C142 C -0.01534 0.23950 0.13155
 C143 C 0.03921 0.21138 0.12406
 C144 C 0.05332 0.19720 0.12389
 H145 H -0.08261 0.28595 0.11278
 H146 H -0.05389 0.25710 0.11236
 H147 H -0.00673 0.30518 0.13692
 H148 H -0.03551 0.33398 0.13687
 H149 H 0.01494 0.28311 0.11154
 H150 H 0.04366 0.25425 0.11154
 H151 H -0.00288 0.20633 0.13696
 H152 H -0.03164 0.23514 0.13744
 C153 C 0.59195 0.65730 0.62486
 C154 C 0.57777 0.67142 0.62478
 C155 C 0.56084 0.68827 0.62470
 C156 C 0.56443 0.70868 0.61399
 C157 C 0.54800 0.72507 0.61391
 C158 C 0.52772 0.72123 0.62455
 C159 C 0.52429 0.70064 0.63526
 C160 C 0.54075 0.68429 0.63533
 C161 C 0.51025 0.73862 0.62446
 C162 C 0.48798 0.73268 0.62154
 C163 C 0.47154 0.74906 0.62143
 C164 C 0.47712 0.77157 0.62426
 C165 C 0.49921 0.77765 0.62719
 C166 C 0.51568 0.76130 0.62728
 C167 C 0.46019 0.78842 0.62413
 C168 C 0.44600 0.80252 0.62401
 H169 H 0.57990 0.71191 0.60566
 H170 H 0.55104 0.74062 0.60528
 H171 H 0.50898 0.69730 0.64383
 H172 H 0.53783 0.66857 0.64372
 H173 H 0.48330 0.71541 0.61904
 H174 H 0.45450 0.74418 0.61909
 H175 H 0.50370 0.79502 0.62945
 H176 H 0.53262 0.76637 0.62986
 C177 C 1.09234 0.84313 0.37449
 C178 C 1.07820 0.82896 0.37462
 C179 C 1.06133 0.81205 0.37477
 C180 C 1.06633 0.79032 0.38172
 C181 C 1.04995 0.77387 0.38189
 C182 C 1.02832 0.77897 0.37512
 C183 C 1.02347 0.80088 0.36816
 C184 C 1.03988 0.81729 0.36799
 C185 C 1.01090 0.76152 0.37532
 C186 C 0.98939 0.76664 0.38240
 C187 C 0.97302 0.75019 0.38262
 C188 C 0.97790 0.72843 0.37575
 C189 C 0.99922 0.72317 0.36866
 C190 C 1.01563 0.73958 0.36845
 C191 C 0.96103 0.71151 0.37600
 C192 C 0.94692 0.69732 0.37622
 H193 H 1.08286 0.78610 0.38706
 H194 H 1.05413 0.75725 0.38760
 H195 H 1.00706 0.80525 0.36258
 H196 H 1.03585 0.83404 0.36252
 H197 H 0.98531 0.78328 0.38806
 H198 H 0.95658 0.75443 0.38820
 H199 H 1.00316 0.70639 0.36325
 H200 H 1.03193 0.73519 0.36264
 C201 C 0.40799 0.15776 -0.12487
 C202 C 0.42215 0.17190 -0.12478
 C203 C 0.43905 0.18878 -0.12465
 C204 C 0.45984 0.18404 -0.11577
 C205 C 0.47627 0.20043 -0.11562
 C206 C 0.47211 0.22182 -0.12438
 C207 C 0.45115 0.22641 -0.13328
 C208 C 0.43475 0.20999 -0.13340
 C209 C 0.48955 0.23925 -0.12423
 C210 C 0.49246 0.25346 -0.14251
 C211 C 0.50888 0.26987 -0.14234
 C212 C 0.52259 0.27231 -0.12393
 C213 C 0.51983 0.25826 -0.10566
 C214 C 0.50343 0.24184 -0.10579
 C215 C 0.53947 0.28921 -0.12376
 C216 C 0.55361 0.30337 -0.12362
 H217 H 0.46337 0.16765 -0.10901
 H218 H 0.49232 0.19629 -0.10892
 H219 H 0.44735 0.24278 -0.13988
 H220 H 0.41869 0.21386 -0.14026
 H221 H 0.48224 0.25170 -0.15705
 H222 H 0.51092 0.28061 -0.15660
 H223 H 0.53031 0.26005 -0.09129
 H224 H 0.50142 0.23136 -0.09136
 C225 C 0.12442 -0.09315 0.34230
 C226 C 0.12452 -0.07903 0.32810
 C227 C 0.12464 -0.06218 0.31114
 C228 C 0.12560 -0.03954 0.31683
 C229 C 0.12570 -0.02316 0.30037
 C230 C 0.12486 -0.02922 0.27797
 C231 C 0.12391 -0.05203 0.27243
 C232 C 0.12380 -0.06838 0.28892
 C233 C 0.12496 -0.01183 0.26046
 C234 C 0.13730 -0.01489 0.24105
 C235 C 0.13737 0.00148 0.22457
 C236 C 0.12512 0.02110 0.22725
 C237 C 0.11280 0.02431 0.24648
 C238 C 0.11272 0.00798 0.26299
 C239 C 0.12519 0.03792 0.21026
 C240 C 0.12526 0.05200 0.19602
 H241 H 0.12632 -0.03456 0.33399
 H242 H 0.12673 -0.00576 0.30515
 H243 H 0.12296 -0.05722 0.25536
 H244 H 0.12299 -0.08585 0.28434
 H245 H 0.14712 -0.02981 0.23873
 H246 H 0.14702 -0.00115 0.20977
 H247 H 0.10321 0.03942 0.24870
 H248 H 0.10283 0.01070 0.27760
 C249 C 0.62508 0.59272 -0.34300
 C250 C 0.62520 0.57858 -0.32882
 C251 C 0.62531 0.56172 -0.31187
 C252 C 0.60602 0.55698 -0.30011
 C253 C 0.60612 0.54064 -0.28362
 C254 C 0.62555 0.52880 -0.27865
 C255 C 0.64487 0.53369 -0.29057
 C256 C 0.64473 0.55004 -0.30707
 C257 C 0.62568 0.51146 -0.26109
 C258 C 0.64365 0.50962 -0.24649
 C259 C 0.64373 0.49334 -0.22994
 C260 C 0.62589 0.47867 -0.22775
 C261 C 0.60795 0.48034 -0.24220
 C262 C 0.60783 0.49662 -0.25876
 C263 C 0.62596 0.46194 -0.21068
 C264 C 0.62602 0.44794 -0.19637
 H265 H 0.59092 0.56598 -0.30365
 H266 H 0.59107 0.53747 -0.27455
 H267 H 0.66001 0.52467 -0.28733
 H268 H 0.65974 0.55353 -0.31611
 H269 H 0.65750 0.52098 -0.24768
 H270 H 0.65767 0.49223 -0.21880
 H271 H 0.59408 0.46903 -0.24069
 H272 H 0.59390 0.49742 -0.26991
 C273 C 0.37494 1.09226 0.84217
 C274 C 0.37484 1.07813 0.82803
 C275 C 0.37471 1.06127 0.81113
 C276 C 0.35760 1.04560 0.81024
 C277 C 0.35744 1.02924 0.79381
 C278 C 0.37443 1.02832 0.77804
 C279 C 0.39157 1.04415 0.77910
 C280 C 0.39168 1.06051 0.79553
 C281 C 0.37427 1.01094 0.76058
 C282 C 0.39393 1.00019 0.75432
 C283 C 0.39376 0.98384 0.73788
 C284 C 0.37398 0.97803 0.72746
 C285 C 0.35434 0.98862 0.73355
 C286 C 0.35447 1.00496 0.75000
 C287 C 0.37383 0.96121 0.71052
 C288 C 0.37370 0.94714 0.69632
 H289 H 0.34441 1.04601 0.82227
 H290 H 0.34418 1.01712 0.79362
 H291 H 0.40472 1.04406 0.76703
 H292 H 0.40497 1.07260 0.79603
 H293 H 0.40938 1.00421 0.76234
 H294 H 0.40905 0.97569 0.73333
 H295 H 0.33895 0.98429 0.72555
 H296 H 0.33912 1.01314 0.75424
 C297 C 0.87587 0.40753 0.15808
 C298 C 0.87577 0.42162 0.17227
 C299 C 0.87565 0.43843 0.18922
 C300 C 0.86883 0.46021 0.18431
 C301 C 0.86870 0.47655 0.20076
 C302 C 0.87539 0.47130 0.22239
 C303 C 0.88222 0.44933 0.22715
 C304 C 0.88234 0.43303 0.21067
 C305 C 0.87526 0.48863 0.23989
 C306 C 0.86811 0.48340 0.26136
 C307 C 0.86800 0.49973 0.27782
 C308 C 0.87504 0.52148 0.27307
 C309 C 0.88217 0.52686 0.25178
 C310 C 0.88228 0.51057 0.23528
 C311 C 0.87495 0.53826 0.29005
 C312 C 0.87487 0.55231 0.30428
 H313 H 0.86355 0.46456 0.16777
 H314 H 0.86309 0.49322 0.19664
 H315 H 0.88773 0.44484 0.24356
 H316 H 0.88771 0.41622 0.21463
 H317 H 0.86234 0.46676 0.26535
 H318 H 0.86239 0.49540 0.29424
 H319 H 0.88771 0.54364 0.24794
 H320 H 0.88814 0.51504 0.21900
 C321 C 0.34267 0.12499 -0.09253
 C322 C 0.32861 0.12499 -0.07849
 C323 C 0.31182 0.12499 -0.06174
 C324 C 0.30751 0.14444 -0.04971
 C325 C 0.29120 0.14446 -0.03343
 C326 C 0.27897 0.12498 -0.02896
 C327 C 0.28344 0.10551 -0.04115
 C328 C 0.29975 0.10554 -0.05743
 C329 C 0.26164 0.12498 -0.01167
 C330 C 0.25917 0.10656 0.00258
 C331 C 0.24286 0.10657 0.01885
 C332 C 0.22879 0.12496 0.02110
 C333 C 0.23110 0.14336 0.00702
 C334 C 0.24742 0.14339 -0.00925
 C335 C 0.21199 0.12494 0.03784
 C336 C 0.19791 0.12491 0.05186
 H337 H 0.31680 0.15958 -0.05287
 H338 H 0.28835 0.15963 -0.02414
 H339 H 0.27412 0.09034 -0.03830
 H340 H 0.30290 0.09040 -0.06669
 H341 H 0.27005 0.09227 0.00133
 H342 H 0.24125 0.09227 0.02970
 H343 H 0.22026 0.15766 0.00858
 H344 H 0.24871 0.15769 -0.02014
 C345 C 0.65732 0.62471 0.59255
 C346 C 0.67137 0.62476 0.57851
 C347 C 0.68817 0.62483 0.56176
 C348 C 0.70962 0.61795 0.56688
 C349 C 0.72596 0.61802 0.55063
 C350 C 0.72102 0.62497 0.52900
 C351 C 0.69939 0.63185 0.52402
 C352 C 0.68309 0.63178 0.54030
 C353 C 0.73836 0.62504 0.51171
 C354 C 0.73350 0.61795 0.49012
 C355 C 0.74984 0.61799 0.47387
 C356 C 0.77123 0.62512 0.47896
 C357 C 0.77622 0.63222 0.50036
 C358 C 0.75992 0.63218 0.51664
 C359 C 0.78804 0.62513 0.46222
 C360 C 0.80213 0.62512 0.44821
 H361 H 0.71372 0.61248 0.58343
 H362 H 0.74237 0.61236 0.55491
 H363 H 0.69514 0.63756 0.50760
 H364 H 0.66654 0.63720 0.53618
 H365 H 0.71715 0.61208 0.48588
 H366 H 0.74581 0.61240 0.45737
 H367 H 0.79271 0.63784 0.50446
 H368 H 0.76410 0.63801 0.53302
 C369 C 0.84352 0.37495 0.09269
 C370 C 0.82944 0.37498 0.07863
 C371 C 0.81264 0.37504 0.06186
 C372 C 0.79583 0.39105 0.06235
 C373 C 0.77949 0.39112 0.04607
 C374 C 0.77975 0.37514 0.02906
 C375 C 0.79672 0.35910 0.02874
 C376 C 0.81305 0.35907 0.04503
 C377 C 0.76240 0.37520 0.01176
 C378 C 0.75333 0.35500 0.00410
 C379 C 0.73699 0.35507 -0.01218
 C380 C 0.72950 0.37531 -0.02103
 C381 C 0.73842 0.39549 -0.01354
 C382 C 0.75475 0.39546 0.00275
 C383 C 0.71268 0.37537 -0.03779
 C384 C 0.69858 0.37542 -0.05181
 H385 H 0.79532 0.40345 0.07535
 H386 H 0.76650 0.40350 0.04694
 H387 H 0.79753 0.34677 0.01572
 H388 H 0.82602 0.34664 0.04446
 H389 H 0.75866 0.33915 0.01090
 H390 H 0.73015 0.33936 -0.01783
 H391 H 0.73278 0.41125 -0.02032
 H392 H 0.76160 0.41126 0.00810
 C393 C 0.15677 0.87501 0.40682
 C394 C 0.17083 0.87502 0.42089
 C395 C 0.18761 0.87503 0.43768
 C396 C 0.19634 0.89524 0.44530
 C397 C 0.21264 0.89527 0.46162
 C398 C 0.22044 0.87503 0.47054
 C399 C 0.21156 0.85479 0.46275
 C400 C 0.19525 0.85481 0.44644
 C401 C 0.23776 0.87503 0.48787
 C402 C 0.25486 0.85914 0.48749
 C403 C 0.27116 0.85916 0.50382
 C404 C 0.27058 0.87502 0.52074
 C405 C 0.25365 0.89089 0.52128
 C406 C 0.23734 0.89092 0.50496
 C407 C 0.28735 0.87501 0.53755
 C408 C 0.30140 0.87500 0.55162
 H409 H 0.19059 0.91099 0.43858
 H410 H 0.21935 0.91110 0.46705
 H411 H 0.21701 0.83895 0.46949
 H412 H 0.18856 0.83906 0.44071
 H413 H 0.25581 0.84688 0.47441
 H414 H 0.28423 0.84683 0.50322
 H415 H 0.25301 0.90321 0.53434
 H416 H 0.22425 0.90317 0.50587
   
