data_POSCAR
  _audit_creation_date              2014-09-24
  _audit_creation_method            'ToBaCCo'
  _symmetry_space_group_name_H-M    'P1'
  _symmetry_Int_Tables_number       1
  _symmetry_cell_setting            triclinic
  loop_
  _symmetry_equiv_pos_as_xyz
 x,y,z
_cell_length_a 14.7870
_cell_length_b 14.3661
_cell_length_c 19.8173
_cell_angle_alpha 88.796000
_cell_angle_beta 89.656500
_cell_angle_gamma 90.021900
loop_
  _atom_site_label
  _atom_site_type_symbol
  _atom_site_fract_x
  _atom_site_fract_y
  _atom_site_fract_z
O1 O 0.16436 0.10755 0.05202
 O2 O -0.18038 -0.11355 0.03470
 O3 O -0.11270 0.16923 0.05946
 O4 O 0.09451 -0.17863 0.04065
 O5 O -0.16000 0.03343 0.08682
 O6 O 0.15087 -0.05596 0.08142
 O7 O -0.06015 -0.16332 0.07755
 O8 O 0.03675 0.15371 0.08785
 C9 C 0.11795 0.14379 0.09787
 C10 C -0.14263 -0.15358 0.08252
 C11 C -0.15170 0.11598 0.10141
 C12 C 0.13579 -0.14034 0.08754
 O13 O 0.16612 -0.10050 -0.05271
 O14 O -0.18146 0.11599 -0.03429
 O15 O 0.09265 0.18490 -0.04159
 O16 O -0.10985 -0.16571 -0.05914
 O17 O -0.15882 -0.03081 -0.08670
 O18 O 0.15141 0.06266 -0.08180
 O19 O 0.03928 -0.14744 -0.08834
 O20 O -0.06168 0.16763 -0.07770
 Co21 Co 0.14222 0.00332 -0.00022
 Co22 Co -0.15429 0.00137 0.00009
 Co23 Co -0.01129 0.15322 0.00559
 Co24 Co -0.00929 -0.14819 -0.00589
 O25 O -0.00747 0.00244 -0.00010
 C26 C 0.12042 -0.13646 -0.09866
 C27 C -0.14394 0.15641 -0.08239
 C28 C 0.13591 0.14699 -0.08821
 C29 C -0.14827 -0.11304 -0.10117
 O30 O 0.46170 0.34677 0.41259
 O31 O 0.56146 0.66296 0.42216
 O32 O 0.34957 0.55729 0.41855
 O33 O 0.66007 0.46545 0.41316
 O34 O 0.40698 0.67973 0.45893
 O35 O 0.61093 0.33025 0.44066
 O36 O 0.68141 0.61248 0.46505
 O37 O 0.33458 0.39408 0.44846
 C38 C 0.38060 0.35745 0.40258
 C39 C 0.64388 0.65262 0.41717
 C40 C 0.36524 0.64153 0.41222
 C41 C 0.64986 0.38322 0.39862
 O42 O 0.56060 0.33256 0.57797
 O43 O 0.46197 0.64857 0.58808
 O44 O 0.34824 0.43962 0.58214
 O45 O 0.65935 0.53022 0.58658
 O46 O 0.61121 0.66539 0.55881
 O47 O 0.40595 0.31663 0.54218
 O48 O 0.68063 0.38299 0.53423
 O49 O 0.33476 0.60275 0.55247
 Co50 Co 0.50998 0.34713 0.49474
 Co51 Co 0.51051 0.64858 0.50561
 Co52 Co 0.35779 0.49841 0.50035
 Co53 Co 0.65449 0.49783 0.49983
 O54 O 0.50752 0.49796 0.50011
 C55 C 0.64296 0.34319 0.58251
 C56 C 0.38072 0.63848 0.59836
 C57 C 0.36361 0.35538 0.58877
 C58 C 0.64930 0.61257 0.60092
 C59 C 0.27897 0.23716 0.22438
 C60 C 0.21930 0.26468 0.27596
 N61 N 0.12943 0.24994 0.26885
 C62 C 0.09640 0.20970 0.21267
 C63 C 0.15570 0.18251 0.16049
 N64 N 0.24609 0.19681 0.16789
 N65 N 0.36883 0.25190 0.23146
 C66 C 0.40188 0.29207 0.28764
 C67 C 0.34263 0.31916 0.33988
 N68 N 0.25221 0.30494 0.33248
 H69 H 0.02409 0.19947 0.20870
 H70 H 0.47420 0.30226 0.29159
 C71 C 0.79804 0.74431 0.24954
 C72 C 0.70332 0.75406 0.25001
 N73 N 0.66121 0.79192 0.19555
 C74 C 0.70949 0.82082 0.14063
 C75 C 0.80431 0.81149 0.14013
 N76 N 0.84640 0.77331 0.19475
 N77 N 0.84013 0.70640 0.30401
 C78 C 0.79182 0.67753 0.35894
 C79 C 0.69702 0.68708 0.35948
 N80 N 0.65496 0.72521 0.30484
 H81 H 0.67408 0.85141 0.09799
 H82 H 0.82720 0.64695 0.40160
 C83 C 0.79677 0.25528 0.75005
 C84 C 0.70215 0.24447 0.75016
 N85 N 0.66008 0.20693 0.80516
 C86 C 0.70829 0.17939 0.86004
 C87 C 0.80301 0.18990 0.86000
 N88 N 0.84506 0.22771 0.80483
 N89 N 0.83886 0.29277 0.69505
 C90 C 0.79067 0.32025 0.64015
 C91 C 0.69595 0.30978 0.64019
 N92 N 0.65387 0.27202 0.69537
 H93 H 0.67289 0.14904 0.90311
 H94 H 0.82609 0.35055 0.59708
 C95 C 0.28023 0.76196 0.77632
 C96 C 0.22118 0.74097 0.72317
 N97 N 0.13262 0.76374 0.72851
 C98 C 0.10017 0.80553 0.78453
 C99 C 0.15869 0.82587 0.83834
 N100 N 0.24789 0.80375 0.83267
 N101 N 0.36880 0.73919 0.77096
 C102 C 0.40122 0.69732 0.71497
 C103 C 0.34265 0.67680 0.66122
 N104 N 0.25348 0.69902 0.66687
 H105 H 0.02880 0.82196 0.78726
 H106 H 0.47259 0.68083 0.71224
 C107 C 0.25530 0.20107 0.75618
 C108 C 0.24009 0.29710 0.74924
 N109 N 0.19015 0.34097 0.79673
 C110 C 0.15473 0.29343 0.85096
 C111 C 0.16972 0.19664 0.85858
 N112 N 0.21995 0.15328 0.81029
 N113 N 0.30538 0.15719 0.70874
 C114 C 0.34092 0.20486 0.65461
 C115 C 0.32582 0.30129 0.64717
 N116 N 0.27552 0.34493 0.69514
 H117 H 0.11527 0.33116 0.88759
 H118 H 0.38060 0.16779 0.61781
 C119 C 0.77238 0.72021 0.77331
 C120 C 0.72893 0.77927 0.72635
 N121 N 0.72787 0.87244 0.73589
 C122 C 0.76805 0.90936 0.79062
 C123 C 0.81115 0.85025 0.83789
 N124 N 0.81240 0.75696 0.82792
 N125 N 0.77342 0.62704 0.76378
 C126 C 0.73319 0.59012 0.70906
 C127 C 0.69007 0.64923 0.66181
 N128 N 0.68888 0.74252 0.67177
 H129 H 0.76587 0.98393 0.79727
 H130 H 0.73532 0.51554 0.70242
 C131 C 0.25896 0.79855 0.24646
 C132 C 0.24223 0.70265 0.25323
 N133 N 0.19125 0.65991 0.20621
 C134 C 0.15629 0.70855 0.15266
 C135 C 0.17286 0.80479 0.14542
 N136 N 0.22402 0.84733 0.19296
 N137 N 0.30996 0.84127 0.29348
 C138 C 0.34493 0.79264 0.34702
 C139 C 0.32830 0.69641 0.35429
 N140 N 0.27713 0.65388 0.30675
 H141 H 0.11587 0.67237 0.11616
 H142 H 0.38535 0.82881 0.38353
 C143 C 0.77441 0.27747 0.22496
 C144 C 0.72789 0.21831 0.27056
 N145 N 0.72402 0.12576 0.25918
 C146 C 0.76416 0.08942 0.20391
 C147 C 0.81052 0.14865 0.15755
 N148 N 0.81460 0.24142 0.16980
 N149 N 0.77807 0.37013 0.23626
 C150 C 0.73747 0.40639 0.29141
 C151 C 0.69129 0.34712 0.33737
 N152 N 0.68757 0.25435 0.32567
 H153 H 0.75934 0.01514 0.19635
 H154 H 0.74172 0.48057 0.29940
   
