data_POSCAR
  _audit_creation_date              2014-09-24
  _audit_creation_method            'ToBaCCo'
  _symmetry_space_group_name_H-M    'P1'
  _symmetry_Int_Tables_number       1
  _symmetry_cell_setting            triclinic
  loop_
  _symmetry_equiv_pos_as_xyz
 x,y,z
_cell_length_a 39.1681
_cell_length_b 38.5126
_cell_length_c 38.3452
_cell_angle_alpha 90.089100
_cell_angle_beta 90.070200
_cell_angle_gamma 89.968300
loop_
  _atom_site_label
  _atom_site_type_symbol
  _atom_site_fract_x
  _atom_site_fract_y
  _atom_site_fract_z
N1 N 0.18625 1.25871 0.16321
 N2 N 0.16173 1.25767 0.18663
 C3 C 0.13902 1.28309 0.17985
 C4 C 0.15016 1.30081 0.15082
 C5 C 0.18004 1.28481 0.14074
 H6 H 0.11581 1.28787 0.19432
 H7 H 0.19560 1.29111 0.11834
 Cu8 Cu 0.16130 1.22207 0.22256
 Cu9 Cu 0.22339 1.22499 0.16245
 Cu10 Cu 0.22279 1.16152 0.22667
 N11 N 0.16102 1.18654 0.25855
 N12 N 0.18532 1.16296 0.26007
 C13 C 0.17858 1.14077 0.28628
 C14 C 0.14857 1.15118 0.30184
 C15 C 0.13792 1.18013 0.28375
 H16 H 0.19382 1.11828 0.29288
 H17 H 0.11473 1.19477 0.28809
 N18 N 0.25845 1.16447 0.19052
 N19 N 0.25867 1.18862 0.16607
 C20 C 0.28504 1.18263 0.14434
 C21 C 0.30206 1.15351 0.15581
 C22 C 0.28469 1.14250 0.18496
 H23 H 0.29083 1.19757 0.12124
 H24 H 0.29013 1.11955 0.20020
 H25 H 0.19689 1.18497 0.18602
 H26 H 0.22253 1.21383 0.21509
 N27 N 0.81002 0.73930 0.16351
 N28 N 0.83137 0.73759 0.18997
 C29 C 0.85434 0.71224 0.18395
 C30 C 0.84673 0.69738 0.15214
 C31 C 0.81861 0.71504 0.13976
 H32 H 0.87541 0.70568 0.20098
 H33 H 0.80593 0.71111 0.11500
 Cu34 Cu 0.82807 0.76957 0.22901
 Cu35 Cu 0.77396 0.77407 0.16093
 Cu36 Cu 0.77470 0.83789 0.22462
 N37 N 0.83210 0.80854 0.26092
 N38 N 0.81106 0.83514 0.25921
 C39 C 0.81996 0.85872 0.28353
 C40 C 0.84796 0.84606 0.30121
 C41 C 0.85521 0.81428 0.28634
 H42 H 0.80747 0.88347 0.28755
 H43 H 0.87601 0.79701 0.29299
 N44 N 0.74007 0.83595 0.18735
 N45 N 0.73976 0.81158 0.16306
 C46 C 0.71402 0.81803 0.14064
 C47 C 0.69752 0.84772 0.15150
 C48 C 0.71453 0.85854 0.18103
 H49 H 0.70821 0.80286 0.11763
 H50 H 0.70920 0.88162 0.19618
 H51 H 0.80255 0.81016 0.18818
 H52 H 0.76971 0.78555 0.21345
 N53 N 0.81327 1.25826 -0.16285
 N54 N 0.83726 1.25667 -0.18680
 C55 C 0.86035 1.28191 -0.18073
 C56 C 0.85008 1.30009 -0.15160
 C57 C 0.82025 1.28454 -0.14076
 H58 H 0.88328 1.28628 -0.19577
 H59 H 0.80525 1.29131 -0.11808
 Cu60 Cu 0.83655 1.22069 -0.22243
 Cu61 Cu 0.77581 1.22502 -0.16096
 Cu62 Cu 0.77437 1.16084 -0.22467
 N63 N 0.83568 1.18477 -0.25812
 N64 N 0.81112 1.16146 -0.25891
 C65 C 0.81710 1.13889 -0.28508
 C66 C 0.84687 1.14879 -0.30138
 C67 C 0.85818 1.17781 -0.28377
 H68 H 0.80152 1.11650 -0.29115
 H69 H 0.88142 1.19212 -0.28871
 N70 N 0.73952 1.16461 -0.18776
 N71 N 0.74009 1.18903 -0.16351
 C72 C 0.71412 1.18360 -0.14115
 C73 C 0.69655 1.15457 -0.15200
 C74 C 0.71318 1.14303 -0.18144
 H75 H 0.70899 1.19886 -0.11805
 H76 H 0.70716 1.12000 -0.19639
 H77 H 0.80136 1.18444 -0.18479
 H78 H 0.77540 1.21328 -0.21350
 N79 N 0.19174 0.74152 -0.16519
 N80 N 0.16887 0.74087 -0.19034
 C81 C 0.14657 0.71496 -0.18417
 C82 C 0.15621 0.69867 -0.15373
 C83 C 0.18483 0.71605 -0.14224
 H84 H 0.12443 0.70904 -0.19997
 H85 H 0.19892 0.71119 -0.11846
 Cu86 Cu 0.16879 0.77506 -0.22765
 Cu87 Cu 0.22733 0.77659 -0.16294
 Cu88 Cu 0.22639 0.84025 -0.22648
 N89 N 0.16781 0.81241 -0.26176
 N90 N 0.19032 0.83775 -0.26124
 C91 C 0.18275 0.86066 -0.28660
 C92 C 0.15407 0.84888 -0.30375
 C93 C 0.14505 0.81837 -0.28745
 H94 H 0.19644 0.88455 -0.29152
 H95 H 0.12307 0.80235 -0.29321
 N96 N 0.26094 0.83848 -0.18921
 N97 N 0.26130 0.81417 -0.16496
 C98 C 0.28688 0.82084 -0.14238
 C99 C 0.30321 0.85061 -0.15312
 C100 C 0.28628 0.86126 -0.18272
 H101 H 0.29263 0.80580 -0.11932
 H102 H 0.29147 0.88438 -0.19775
 H103 H 0.19900 0.81434 -0.18834
 H104 H 0.22876 0.78776 -0.21560
 Si105 Si 0.49975 1.00293 0.00168
 Si106 Si 0.00242 0.50104 0.99881
 Si107 Si 0.99860 -0.00151 0.49972
 C108 C 0.03017 0.42356 1.06760
 C109 C 0.06586 0.42337 1.06586
 C110 C 0.08275 0.44738 1.04460
 C111 C 0.06400 0.47132 1.02496
 C112 C 0.13358 0.32686 1.13393
 C113 C 0.01143 0.44746 1.04797
 C114 C 0.08498 0.39775 1.08496
 C115 C 0.10065 0.37582 1.10067
 C116 C 0.11859 0.34963 1.11874
 C117 C 0.02822 0.47150 1.02659
 H118 H 0.01681 0.40497 1.08378
 H119 H 0.11035 0.44728 1.04284
 H120 H 0.07752 0.48912 1.00813
 H121 H -0.01619 0.44694 1.04917
 C122 C -0.04295 0.55347 1.08139
 C123 C -0.06394 0.57755 1.06437
 C124 C -0.06535 0.57799 1.02789
 C125 C -0.04575 0.55460 1.00852
 C126 C -0.13433 0.67084 1.13428
 C127 C -0.02334 0.53002 1.06200
 C128 C -0.08339 0.60240 1.08417
 C129 C -0.09955 0.62362 1.10037
 C130 C -0.11836 0.64890 1.11887
 C131 C -0.02473 0.53040 1.02544
 H132 H -0.04148 0.55306 1.10960
 H133 H -0.08135 0.59663 1.01443
 H134 H -0.04681 0.55551 0.98031
 H135 H -0.00684 0.51208 1.07564
 C136 C -0.07870 0.44839 0.95327
 C137 C -0.06220 0.42411 0.93192
 C138 C -0.02651 0.42390 0.92991
 C139 C -0.00741 0.44763 0.94942
 C140 C -0.13180 0.32767 0.86556
 C141 C -0.05959 0.47216 0.97280
 C142 C -0.08172 0.39853 0.91314
 C143 C -0.09780 0.37662 0.89780
 C144 C -0.11629 0.35044 0.88024
 C145 C -0.02382 0.47190 0.97096
 H146 H -0.10629 0.44859 0.95525
 H147 H -0.01346 0.40508 0.91366
 H148 H 0.02020 0.44676 0.94806
 H149 H -0.07282 0.49012 0.98975
 C150 C 0.07089 0.57734 0.97011
 C151 C 0.06935 0.57708 0.93363
 C152 C 0.04818 0.55322 0.91649
 C153 C 0.02846 0.52986 0.93577
 C154 C 0.13822 0.67152 0.86413
 C155 C 0.05119 0.55402 0.98936
 C156 C 0.08865 0.60208 0.91396
 C157 C 0.10455 0.62352 0.89787
 C158 C 0.12286 0.64917 0.87948
 C159 C 0.02993 0.53010 0.97233
 H160 H 0.08702 0.59582 0.98365
 H161 H 0.04659 0.55298 0.88829
 H162 H 0.01177 0.51213 0.92205
 H163 H 0.05230 0.55484 1.01758
 C164 C 1.02661 0.06779 0.42275
 C165 C 1.06233 0.06640 0.42314
 C166 C 1.07911 0.04525 0.44740
 C167 C 1.06024 0.02535 0.47099
 C168 C 1.13142 0.13451 0.32766
 C169 C 1.00776 0.04790 0.44631
 C170 C 1.08164 0.08566 0.39780
 C171 C 1.09758 0.10141 0.37610
 C172 C 1.11597 0.11944 0.35020
 C173 C 1.02445 0.02660 0.47058
 H174 H 1.01335 0.08389 0.40395
 H175 H 1.10673 0.04376 0.44775
 H176 H 1.07371 0.00862 0.48897
 H177 H 0.98013 0.04883 0.44535
 C178 C 1.06671 -0.02946 0.57708
 C179 C 1.06593 -0.06580 0.57649
 C180 C 1.04529 -0.08306 0.55217
 C181 C 1.02540 -0.06405 0.52863
 C182 C 1.13645 -0.13439 0.67075
 C183 C 1.04684 -0.01048 0.55359
 C184 C 1.08557 -0.08521 0.60150
 C185 C 1.10183 -0.10108 0.62292
 C186 C 1.12062 -0.11923 0.64849
 C187 C 1.02617 -0.02763 0.52916
 H188 H 1.08241 -0.01583 0.59591
 H189 H 1.04429 -0.11117 0.55166
 H190 H 1.00916 -0.07788 0.51052
 H191 H 1.04741 0.01763 0.55464
 C192 C 0.97126 -0.07054 0.42198
 C193 C 0.93555 -0.06922 0.42204
 C194 C 0.91857 -0.04815 0.44625
 C195 C 0.93723 -0.02827 0.47014
 C196 C 0.86591 -0.13744 0.32666
 C197 C 0.98992 -0.05067 0.44583
 C198 C 0.91640 -0.08857 0.39653
 C199 C 0.90044 -0.10437 0.37480
 C200 C 0.88182 -0.12242 0.34899
 C201 C 0.97303 -0.02949 0.47009
 H202 H 0.98468 -0.08658 0.40323
 H203 H 0.89094 -0.04672 0.44635
 H204 H 0.92361 -0.01162 0.48809
 H205 H 1.01755 -0.05155 0.44514
 C206 C 0.95212 0.07987 0.55269
 C207 C 0.93130 0.06256 0.57670
 C208 C 0.93013 0.02623 0.57675
 C209 C 0.94990 0.00730 0.55311
 C210 C 0.86338 0.13164 0.67262
 C211 C 0.97189 0.06093 0.52900
 C212 C 0.91208 0.08193 0.60212
 C213 C 0.89636 0.09786 0.62390
 C214 C 0.87838 0.11621 0.64994
 C215 C 0.97085 0.02452 0.52907
 H216 H 0.95343 0.10797 0.55261
 H217 H 0.91428 0.01255 0.59535
 H218 H 0.94910 -0.02080 0.55379
 H219 H 0.98833 0.07479 0.51119
 C220 C 0.42463 1.03104 0.07180
 C221 C 0.42473 1.06736 0.07046
 C222 C 0.44824 1.08456 0.04911
 C223 C 0.47137 1.06550 0.02894
 C224 C 0.32968 1.13595 0.13859
 C225 C 0.44773 1.01200 0.05165
 C226 C 0.39974 1.08680 0.08987
 C227 C 0.37821 1.10269 0.10568
 C228 C 0.35233 1.12084 0.12367
 C229 C 0.47124 1.02909 0.03014
 H230 H 0.40639 1.01744 0.08802
 H231 H 0.44834 1.11265 0.04764
 H232 H 0.48878 1.07928 0.01205
 H233 H 0.44698 0.98390 0.05253
 C234 C 0.57513 1.07201 -0.02741
 C235 C 0.57456 1.07056 -0.06389
 C236 C 0.55065 1.04944 -0.08089
 C237 C 0.52758 1.02963 -0.06148
 C238 C 0.66910 1.13755 -0.13404
 C239 C 0.55211 1.05220 -0.00802
 C240 C 0.59945 1.08963 -0.08372
 C241 C 0.62087 1.10517 -0.09997
 C242 C 0.64660 1.12286 -0.11856
 C243 C 0.52819 1.03093 -0.02492
 H244 H 0.59367 1.08806 -0.01397
 H245 H 0.55019 1.04789 -0.10910
 H246 H 0.50985 1.01292 -0.07512
 H247 H 0.55322 1.05315 0.02019
 C248 C 0.42342 0.97461 -0.06717
 C249 C 0.42385 0.93828 -0.06604
 C250 C 0.44778 0.92115 -0.04504
 C251 C 0.47107 0.94028 -0.02510
 C252 C 0.33012 0.86867 -0.13523
 C253 C 0.44668 0.99372 -0.04725
 C254 C 0.39899 0.91872 -0.08553
 C255 C 0.37771 0.90263 -0.10153
 C256 C 0.35227 0.88415 -0.11988
 C257 C 0.47070 0.97669 -0.02619
 H258 H 0.40488 0.98815 -0.08314
 H259 H 0.44815 0.89306 -0.04373
 H260 H 0.48887 0.92655 -0.00854
 H261 H 0.44574 1.02182 -0.04803
 C262 C 0.55235 0.95598 0.08307
 C263 C 0.57589 0.93489 0.06552
 C264 C 0.57583 0.93376 0.02903
 C265 C 0.55249 0.95377 0.01017
 C266 C 0.67033 0.86556 0.13384
 C267 C 0.52898 0.97602 0.06420
 C268 C 0.60089 0.91533 0.08479
 C269 C 0.62232 0.89928 0.10060
 C270 C 0.64797 0.88090 0.11870
 C271 C 0.52887 0.97494 0.02762
 H272 H 0.55237 0.95727 0.11130
 H273 H 0.59408 0.91774 0.01516
 H274 H 0.55305 0.95298 -0.01806
 H275 H 0.51151 0.99266 0.07824
   
