data_POSCAR
  _audit_creation_date              2014-09-24
  _audit_creation_method            'ToBaCCo'
  _symmetry_space_group_name_H-M    'P1'
  _symmetry_Int_Tables_number       1
  _symmetry_cell_setting            triclinic
  loop_
  _symmetry_equiv_pos_as_xyz
 x,y,z
_cell_length_a 50.8033
_cell_length_b 23.8519
_cell_length_c 17.8585
_cell_angle_alpha 90.397100
_cell_angle_beta 89.946800
_cell_angle_gamma 90.911000
loop_
  _atom_site_label
  _atom_site_type_symbol
  _atom_site_fract_x
  _atom_site_fract_y
  _atom_site_fract_z
O1 O 0.78790 0.24497 0.42821
 O2 O 0.74463 0.29899 0.57617
 O3 O 0.78819 0.24272 0.57236
 O4 O 0.74428 0.30131 0.43005
 O5 O 0.72134 0.22201 0.42733
 O6 O 0.76472 0.16406 0.57172
 O7 O 0.72094 0.22085 0.57161
 O8 O 0.76485 0.16575 0.42506
 Cu9 Cu 0.76849 0.28000 0.50197
 Cu10 Cu 0.74073 0.18508 0.49884
 C11 C 0.78397 0.19597 0.40191
 C12 C 0.72507 0.26969 0.59853
 C13 C 0.78410 0.19324 0.59593
 C14 C 0.72520 0.27181 0.40463
 O15 O 0.26410 0.65340 0.56776
 O16 O 0.21951 0.71400 0.42880
 O17 O 0.26305 0.65805 0.42184
 O18 O 0.22028 0.70978 0.57344
 O19 O 0.24360 0.78853 0.57835
 O20 O 0.28614 0.73719 0.42696
 O21 O 0.24259 0.79312 0.43226
 O22 O 0.28740 0.73209 0.57056
 Cu23 Cu 0.23946 0.67581 0.49778
 Cu24 Cu 0.26713 0.77080 0.50265
 C25 C 0.28374 0.68184 0.59196
 C26 C 0.22336 0.76401 0.40695
 C27 C 0.28208 0.68870 0.39911
 C28 C 0.22444 0.75832 0.60114
 O29 O 0.26651 0.29647 -0.42643
 O30 O 0.21954 0.25708 -0.57422
 O31 O 0.26720 0.29982 -0.57076
 O32 O 0.21887 0.25452 -0.42939
 O33 O 0.20233 0.33937 -0.42657
 O34 O 0.25086 0.38494 -0.56811
 O35 O 0.20285 0.34175 -0.57027
 O36 O 0.25006 0.38150 -0.42118
 Cu37 Cu 0.24468 0.26854 -0.50065
 Cu38 Cu 0.22506 0.37066 -0.49641
 C39 C 0.26647 0.34562 -0.39876
 C40 C 0.20260 0.29196 -0.59628
 C41 C 0.26753 0.35026 -0.59303
 C42 C 0.20193 0.28874 -0.40472
 O43 O -0.25066 0.89323 -0.56825
 O44 O -0.29921 0.84879 -0.42574
 O45 O -0.25122 0.89100 -0.42150
 O46 O -0.29872 0.85094 -0.56957
 O47 O -0.28249 0.76570 -0.57183
 O48 O -0.23485 0.80590 -0.42611
 O49 O -0.28253 0.76407 -0.42719
 O50 O -0.23468 0.80777 -0.57040
 Cu51 Cu -0.27642 0.87977 -0.49604
 Cu52 Cu -0.25701 0.77741 -0.49921
 C53 C -0.23420 0.85808 -0.59315
 C54 C -0.29956 0.79833 -0.40319
 C55 C -0.23470 0.85529 -0.39920
 C56 C -0.29917 0.80088 -0.59444
 O57 O -0.03762 0.89207 0.13787
 O58 O -0.06382 0.94818 0.06642
 C59 C -0.06040 0.91151 0.11883
 O60 O 0.04757 1.07497 0.12587
 O61 O 0.07299 1.01250 0.06102
 C62 C 0.07016 1.05412 0.10726
 O63 O -0.02595 1.08561 0.13603
 O64 O -0.05791 1.04102 0.06615
 C65 C -0.05037 1.07625 0.11787
 O66 O 0.03542 0.86972 0.13133
 O67 O 0.06730 0.91628 0.06392
 C68 C 0.05980 0.87924 0.11271
 Zr69 Zr 0.00063 0.90956 0.09601
 O70 O 0.00370 0.91173 0.21424
 O71 O -0.00740 0.82224 0.09894
 Zr72 Zr 0.00889 1.05028 0.09323
 O73 O 0.01227 1.05095 0.21139
 O74 O 0.01074 1.13902 0.09204
 O75 O -0.01857 0.98550 0.10954
 O76 O 0.02749 0.97492 0.10839
 O77 O 0.03534 0.86610 -0.12795
 O78 O 0.06721 0.91413 -0.06184
 C79 C 0.05973 0.87594 -0.10967
 O80 O -0.02627 1.08189 -0.13836
 O81 O -0.05806 1.03915 -0.06652
 C82 C -0.05064 1.07305 -0.11933
 O83 O 0.04722 1.07091 -0.12981
 O84 O 0.07283 1.01029 -0.06357
 C85 C 0.06984 1.05046 -0.11119
 O86 O -0.03741 0.88782 -0.13496
 O87 O -0.06348 0.94564 -0.06484
 C88 C -0.06013 0.90780 -0.11645
 Zr89 Zr 0.00055 0.90651 -0.09272
 O90 O 0.00340 0.90370 -0.21096
 O91 O -0.00753 0.81917 -0.09001
 Zr92 Zr 0.00863 1.04737 -0.09556
 O93 O 0.01166 1.04380 -0.21376
 O94 O 0.01058 1.13607 -0.09815
 Zr95 Zr -0.03447 0.98737 0.00049
 Zr96 Zr 0.04354 0.96940 0.00003
 O97 O 0.02727 0.97157 -0.10817
 O98 O -0.01877 0.98204 -0.10873
 O99 O 0.02330 0.89162 0.00177
 O100 O -0.01349 1.06419 -0.00116
 O101 O -0.02280 0.90307 0.00188
 O102 O 0.03269 1.05438 -0.00154
 H103 H 0.03943 0.97308 0.15211
 H104 H -0.02344 1.09960 -0.00159
 H105 H 0.03909 0.96831 -0.15208
 H106 H -0.03650 0.87304 0.00240
 H107 H 0.02588 1.15021 0.06036
 H108 H 0.02562 1.14826 -0.06658
 H109 H -0.00462 1.02562 -0.23306
 H110 H -0.00947 0.93038 -0.23104
 H111 H 0.00665 0.80154 -0.06097
 H112 H 0.00576 0.80375 0.06671
 H113 H -0.01029 0.93637 0.23344
 H114 H -0.00351 1.03154 0.23172
 O115 O 0.46369 0.39064 0.13608
 O116 O 0.43686 0.44565 0.06510
 C117 C 0.44070 0.40909 0.11737
 O118 O 0.54671 0.57786 0.12410
 O119 O 0.57280 0.51713 0.05849
 C120 C 0.56954 0.55839 0.10501
 O121 O 0.47269 0.58444 0.13345
 O122 O 0.44117 0.53842 0.06323
 C123 C 0.44835 0.57403 0.11493
 O124 O 0.53676 0.37188 0.12904
 O125 O 0.56801 0.42034 0.06183
 C126 C 0.56100 0.38271 0.11034
 Zr127 Zr 0.50167 0.41022 0.09378
 O128 O 0.50484 0.41236 0.21199
 O129 O 0.49459 0.32254 0.09615
 Zr130 Zr 0.50826 0.55125 0.09171
 O131 O 0.51160 0.55128 0.20989
 O132 O 0.50913 0.64002 0.09228
 O133 O 0.48159 0.48505 0.10788
 O134 O 0.52779 0.47694 0.10626
 O135 O 0.53675 0.36865 -0.12969
 O136 O 0.56811 0.41879 -0.06418
 C137 C 0.56103 0.37989 -0.11147
 O138 O 0.47259 0.58277 -0.13874
 O139 O 0.44148 0.53691 -0.06782
 C140 C 0.44839 0.57204 -0.11967
 O141 O 0.54626 0.57502 -0.13091
 O142 O 0.57259 0.51529 -0.06550
 C143 C 0.56914 0.55567 -0.11255
 O144 O 0.46373 0.38689 -0.13700
 O145 O 0.43706 0.44296 -0.06624
 C146 C 0.44078 0.40546 -0.11809
 Zr147 Zr 0.50149 0.40768 -0.09522
 O148 O 0.50442 0.40626 -0.21349
 O149 O 0.49436 0.31999 -0.09422
 Zr150 Zr 0.50790 0.54883 -0.09735
 O151 O 0.51073 0.54420 -0.21555
 O152 O 0.50899 0.63749 -0.10156
 Zr153 Zr 0.46567 0.48630 -0.00114
 Zr154 Zr 0.54380 0.47261 -0.00225
 O155 O 0.52748 0.47413 -0.11041
 O156 O 0.48122 0.48215 -0.11059
 O157 O 0.52445 0.39380 -0.00079
 O158 O 0.48574 0.56422 -0.00258
 O159 O 0.47828 0.40269 -0.00033
 O160 O 0.53189 0.55693 -0.00328
 H161 H 0.53979 0.47562 0.14989
 H162 H 0.47547 0.59920 -0.00278
 H163 H 0.53941 0.47158 -0.15418
 H164 H 0.46492 0.37197 0.00027
 H165 H 0.52386 0.65227 0.05974
 H166 H 0.52295 0.65066 -0.06683
 H167 H 0.49404 0.52767 -0.23459
 H168 H 0.49086 0.43152 -0.23321
 H169 H 0.50822 0.30301 -0.06328
 H170 H 0.50799 0.30479 0.06397
 H171 H 0.49078 0.43678 0.23129
 H172 H 0.49558 0.53275 0.23010
 C173 C 0.31087 0.33705 0.34359
 C174 C 0.33123 0.35579 0.29646
 C175 C 0.32856 0.40647 0.25681
 C176 C 0.30550 0.43745 0.26518
 C177 C 0.28552 0.41913 0.31357
 C178 C 0.28803 0.36884 0.35328
 C179 C 0.34915 0.42571 0.21057
 C180 C 0.37260 0.39552 0.20495
 C181 C 0.37519 0.34494 0.24501
 C182 C 0.35441 0.32512 0.28974
 C183 C 0.39872 0.31535 0.24078
 C184 C 0.41977 0.33613 0.19858
 C185 C 0.41763 0.38652 0.15880
 C186 C 0.39375 0.41562 0.16128
 H187 H 0.31316 0.29844 0.37444
 H188 H 0.30303 0.47615 0.23500
 H189 H 0.26810 0.44430 0.31991
 H190 H 0.34712 0.46456 0.18017
 H191 H 0.35650 0.28637 0.32049
 H192 H 0.40101 0.27651 0.27105
 H193 H 0.43783 0.31261 0.19722
 H194 H 0.39187 0.45455 0.13106
 C195 C -0.19098 0.84361 0.34363
 C196 C -0.17051 0.86163 0.29643
 C197 C -0.17290 0.91208 0.25615
 C198 C -0.19587 0.94352 0.26388
 C199 C -0.21596 0.92593 0.31242
 C200 C -0.21367 0.87591 0.35281
 C201 C -0.15215 0.93065 0.20999
 C202 C -0.12881 0.90000 0.20511
 C203 C -0.12654 0.84958 0.24574
 C204 C -0.14747 0.83045 0.29036
 C205 C -0.10315 0.81945 0.24222
 C206 C -0.08192 0.83953 0.20023
 C207 C -0.08371 0.88979 0.15997
 C208 C -0.10745 0.91943 0.16168
 H209 H -0.18886 0.80518 0.37498
 H210 H -0.19817 0.98200 0.23311
 H211 H -0.23328 0.95147 0.31835
 H212 H -0.15397 0.96934 0.17911
 H213 H -0.14560 0.79185 0.32157
 H214 H -0.10112 0.78072 0.27291
 H215 H -0.06399 0.81556 0.19944
 H216 H -0.10908 0.95824 0.13102
 C217 C 0.68104 0.72920 0.31859
 C218 C 0.65958 0.70789 0.27736
 C219 C 0.63660 0.74009 0.27025
 C220 C 0.63593 0.79401 0.30187
 C221 C 0.65739 0.81494 0.34287
 C222 C 0.67987 0.78225 0.35314
 C223 C 0.61449 0.71737 0.23326
 C224 C 0.61510 0.66287 0.20325
 C225 C 0.63845 0.63155 0.20797
 C226 C 0.66052 0.65422 0.24504
 C227 C 0.63923 0.57769 0.17635
 C228 C 0.61695 0.55454 0.14163
 C229 C 0.59334 0.58439 0.13893
 C230 C 0.59264 0.63889 0.16932
 H231 H 0.69833 0.70370 0.32568
 H232 H 0.61855 0.81945 0.29653
 H233 H 0.65596 0.85590 0.36896
 H234 H 0.59669 0.74168 0.22899
 H235 H 0.67824 0.62972 0.24985
 H236 H 0.65701 0.55327 0.17895
 H237 H 0.61809 0.51275 0.11807
 H238 H 0.57466 0.66265 0.16652
 C239 C 0.18281 1.21959 0.32312
 C240 C 0.16151 1.19942 0.28028
 C241 C 0.13981 1.23430 0.26698
 C242 C 0.14040 1.28972 0.29360
 C243 C 0.16177 1.30972 0.33583
 C244 C 0.18287 1.27443 0.35315
 C245 C 0.11768 1.21287 0.22869
 C246 C 0.11710 1.15708 0.20311
 C247 C 0.13934 1.12306 0.21351
 C248 C 0.16134 1.14436 0.25223
 C249 C 0.13908 1.06795 0.18583
 C250 C 0.11678 1.04624 0.14964
 C251 C 0.09415 1.07876 0.14175
 C252 C 0.09454 1.13449 0.16801
 H253 H 0.19898 1.19182 0.33465
 H254 H 0.12407 1.31728 0.28319
 H255 H 0.16118 1.35226 0.35735
 H256 H 0.10079 1.23929 0.21984
 H257 H 0.17815 1.11779 0.26156
 H258 H 0.15603 1.04147 0.19268
 H259 H 0.11705 1.00348 0.12927
 H260 H 0.07733 1.16024 0.16105
 C261 C 0.68353 0.26430 -0.33217
 C262 C 0.66494 0.28916 -0.28470
 C263 C 0.67088 0.34126 -0.24993
 C264 C 0.69519 0.36776 -0.26357
 C265 C 0.71320 0.34382 -0.31299
 C266 C 0.70759 0.29200 -0.34837
 C267 C 0.65213 0.36687 -0.20389
 C268 C 0.62710 0.34221 -0.19472
 C269 C 0.62099 0.29051 -0.23033
 C270 C 0.64014 0.26371 -0.27379
 C271 C 0.59557 0.26731 -0.22358
 C272 C 0.57614 0.29594 -0.18401
 C273 C 0.58197 0.34754 -0.14880
 C274 C 0.60775 0.36957 -0.15277
 H275 H 0.67866 0.22458 -0.35907
 H276 H 0.70003 0.40777 -0.23749
 H277 H 0.73152 0.36622 -0.32360
 H278 H 0.65670 0.40692 -0.17736
 H279 H 0.63544 0.22407 -0.30115
 H280 H 0.59052 0.22775 -0.25055
 H281 H 0.55648 0.27783 -0.18130
 H282 H 0.61254 0.40909 -0.12558
 C283 C 0.18103 0.75670 -0.33245
 C284 C 0.16279 0.78105 -0.28344
 C285 C 0.17012 0.82919 -0.24122
 C286 C 0.19562 0.85185 -0.24838
 C287 C 0.21347 0.82810 -0.29854
 C288 C 0.20630 0.78067 -0.34148
 C289 C 0.15163 0.85479 -0.19419
 C290 C 0.12569 0.83384 -0.19057
 C291 C 0.11839 0.78569 -0.23278
 C292 C 0.13708 0.75911 -0.27803
 C293 C 0.09230 0.76582 -0.23065
 C294 C 0.07337 0.79446 -0.18925
 C295 C 0.08026 0.84293 -0.14802
 C296 C 0.10670 0.86146 -0.14743
 H297 H 0.17519 0.72042 -0.36573
 H298 H 0.20158 0.88872 -0.21648
 H299 H 0.23283 0.84723 -0.30431
 H300 H 0.15721 0.89198 -0.16227
 H301 H 0.13140 0.72239 -0.31075
 H302 H 0.08637 0.72892 -0.26254
 H303 H 0.05322 0.77895 -0.19025
 H304 H 0.11234 0.89857 -0.11566
 C305 C 0.32557 0.68532 -0.34000
 C306 C 0.34460 0.65902 -0.29602
 C307 C 0.33956 0.60459 -0.26817
 C308 C 0.31571 0.57724 -0.28538
 C309 C 0.29717 0.60292 -0.33090
 C310 C 0.30183 0.65721 -0.35910
 C311 C 0.35862 0.57793 -0.22483
 C312 C 0.38301 0.60430 -0.21089
 C313 C 0.38826 0.65836 -0.23993
 C314 C 0.36888 0.68573 -0.28127
 C315 C 0.41301 0.68373 -0.22830
 C316 C 0.43252 0.65555 -0.18917
 C317 C 0.42745 0.60205 -0.15951
 C318 C 0.40250 0.57694 -0.16981
 H319 H 0.32975 0.72695 -0.36146
 H320 H 0.31161 0.53550 -0.26481
 H321 H 0.27919 0.57993 -0.34412
 H322 H 0.35469 0.53624 -0.20338
 H323 H 0.37291 0.72724 -0.30335
 H324 H 0.41741 0.72504 -0.25035
 H325 H 0.45158 0.67580 -0.18163
 H326 H 0.39853 0.53547 -0.14780
 C327 C -0.17152 1.19020 -0.34459
 C328 C -0.15329 1.16558 -0.29645
 C329 C -0.16122 1.12011 -0.25088
 C330 C -0.18733 1.10023 -0.25432
 C331 C -0.20520 1.12401 -0.30397
 C332 C -0.19745 1.16912 -0.34953
 C333 C -0.14284 1.09472 -0.20377
 C334 C -0.11647 1.11335 -0.20314
 C335 C -0.10864 1.15887 -0.24887
 C336 C -0.12713 1.18505 -0.29450
 C337 C -0.08229 1.17693 -0.24933
 C338 C -0.06366 1.14940 -0.20634
 C339 C -0.07102 1.10365 -0.16120
 C340 C -0.09764 1.08646 -0.15891
 H341 H -0.16527 1.22470 -0.37999
 H342 H -0.19385 1.06594 -0.21923
 H343 H -0.22513 1.10727 -0.30652
 H344 H -0.14891 1.05987 -0.16881
 H345 H -0.12104 1.21981 -0.32969
 H346 H -0.07599 1.21180 -0.28392
 H347 H -0.04337 1.16391 -0.20883
 H348 H -0.10360 1.05130 -0.12441
 C349 C 0.68054 0.72415 -0.32709
 C350 C 0.65931 0.70318 -0.28491
 C351 C 0.63760 0.73773 -0.26949
 C352 C 0.63809 0.79355 -0.29350
 C353 C 0.65942 0.81439 -0.33490
 C354 C 0.68057 0.77955 -0.35411
 C355 C 0.61561 0.71566 -0.23149
 C356 C 0.61521 0.65960 -0.20807
 C357 C 0.63746 0.62586 -0.22065
 C358 C 0.65929 0.64775 -0.25930
 C359 C 0.63742 0.57050 -0.19500
 C360 C 0.61537 0.54835 -0.15840
 C361 C 0.59276 0.58065 -0.14816
 C362 C 0.59287 0.63653 -0.17269
 H363 H 0.69675 0.69669 -0.34014
 H364 H 0.62175 0.82085 -0.28147
 H365 H 0.65879 0.85732 -0.35415
 H366 H 0.59873 0.74187 -0.22094
 H367 H 0.67611 0.62143 -0.27024
 H368 H 0.65438 0.54421 -0.20356
 H369 H 0.61581 0.50545 -0.13950
 H370 H 0.57566 0.66206 -0.16390
 C371 C 0.18172 1.21430 -0.32951
 C372 C 0.16060 1.19393 -0.28632
 C373 C 0.13945 1.22951 -0.26877
 C374 C 0.14032 1.28549 -0.29189
 C375 C 0.16149 1.30566 -0.33435
 C376 C 0.18214 1.27002 -0.35541
 C377 C 0.11757 1.20834 -0.22953
 C378 C 0.11669 1.15211 -0.20708
 C379 C 0.13833 1.11713 -0.22192
 C380 C 0.16010 1.13819 -0.26172
 C381 C 0.13770 1.06142 -0.19742
 C382 C 0.11562 1.04021 -0.15984
 C383 C 0.09364 1.07400 -0.14731
 C384 C 0.09438 1.13013 -0.17059
 H385 H 0.19752 1.18621 -0.34412
 H386 H 0.12440 1.31349 -0.27827
 H387 H 0.16117 1.34884 -0.35267
 H388 H 0.10113 1.23539 -0.21729
 H389 H 0.17647 1.11103 -0.27434
 H390 H 0.15417 1.03412 -0.20782
 H391 H 0.11546 0.99692 -0.14222
 H392 H 0.07762 1.15669 -0.16010
 C393 C 0.31051 0.33324 -0.34135
 C394 C 0.33048 0.34947 -0.29137
 C395 C 0.32612 0.39320 -0.23922
 C396 C 0.30162 0.41961 -0.23789
 C397 C 0.28208 0.40442 -0.28980
 C398 C 0.28642 0.36118 -0.34194
 C399 C 0.34651 0.41051 -0.19073
 C400 C 0.37140 0.38580 -0.19565
 C401 C 0.37548 0.34174 -0.24763
 C402 C 0.35494 0.32341 -0.29433
 C403 C 0.40025 0.31737 -0.25346
 C404 C 0.42115 0.33755 -0.21012
 C405 C 0.41771 0.38222 -0.15932
 C406 C 0.39250 0.40531 -0.15108
 H407 H 0.31411 0.30007 -0.38177
 H408 H 0.29775 0.45267 -0.19767
 H409 H 0.26355 0.42623 -0.28898
 H410 H 0.34322 0.44406 -0.15068
 H411 H 0.35823 0.28988 -0.33446
 H412 H 0.40364 0.28341 -0.29277
 H413 H 0.44018 0.31840 -0.21727
 H414 H 0.38945 0.43931 -0.11164
 C415 C -0.19104 0.84088 -0.33986
 C416 C -0.17074 0.85746 -0.29112
 C417 C -0.17401 0.90442 -0.24351
 C418 C -0.19776 0.93365 -0.24531
 C419 C -0.21766 0.91777 -0.29569
 C420 C -0.21442 0.87136 -0.34347
 C421 C -0.15332 0.92188 -0.19616
 C422 C -0.12922 0.89375 -0.19743
 C423 C -0.12619 0.84657 -0.24493
 C424 C -0.14702 0.82841 -0.29074
 C425 C -0.10215 0.81881 -0.24711
 C426 C -0.08098 0.83837 -0.20427
 C427 C -0.08344 0.88581 -0.15768
 C428 C -0.10788 0.91272 -0.15343
 H429 H -0.18824 0.80522 -0.37686
 H430 H -0.20082 0.96910 -0.20839
 H431 H -0.23560 0.94166 -0.29715
 H432 H -0.15578 0.95793 -0.15968
 H433 H -0.14454 0.79241 -0.32742
 H434 H -0.09956 0.78249 -0.28301
 H435 H -0.06254 0.81640 -0.20825
 H436 H -0.11011 0.94917 -0.11760
 C437 C 0.32640 0.68792 0.33981
 C438 C 0.34470 0.66518 0.28990
 C439 C 0.33676 0.62236 0.23927
 C440 C 0.31046 0.60347 0.23922
 C441 C 0.29250 0.62509 0.29096
 C442 C 0.30037 0.66733 0.34176
 C443 C 0.35535 0.59835 0.19097
 C444 C 0.38191 0.61552 0.19442
 C445 C 0.38967 0.65870 0.24483
 C446 C 0.37099 0.68370 0.29145
 C447 C 0.41614 0.67543 0.24914
 C448 C 0.43499 0.64852 0.20574
 C449 C 0.42775 0.60468 0.15645
 C450 C 0.40098 0.58922 0.14988
 H451 H 0.33270 0.72021 0.37922
 H452 H 0.30389 0.57142 0.19998
 H453 H 0.27246 0.60893 0.29117
 H454 H 0.34930 0.56544 0.15219
 H455 H 0.37705 0.71653 0.33043
 H456 H 0.42237 0.70860 0.28725
 H457 H 0.45537 0.66180 0.21157
 H458 H 0.39506 0.55579 0.11182
 C459 C -0.17146 1.19326 0.34403
 C460 C -0.15325 1.16995 0.29424
 C461 C -0.16147 1.12751 0.24336
 C462 C -0.18789 1.10947 0.24304
 C463 C -0.20574 1.13165 0.29458
 C464 C -0.19766 1.17362 0.34549
 C465 C -0.14305 1.10309 0.19492
 C466 C -0.11640 1.11945 0.19839
 C467 C -0.10833 1.16218 0.24910
 C468 C -0.12683 1.18759 0.29596
 C469 C -0.08173 1.17806 0.25336
 C470 C -0.06310 1.15079 0.20953
 C471 C -0.07068 1.10743 0.15987
 C472 C -0.09755 1.09281 0.15346
 H473 H -0.16501 1.22536 0.38354
 H474 H -0.19464 1.07775 0.20359
 H475 H -0.22592 1.11625 0.29440
 H476 H -0.14932 1.07052 0.15591
 H477 H -0.12054 1.22009 0.33513
 H478 H -0.07525 1.21085 0.29172
 H479 H -0.04262 1.16337 0.21531
 H480 H -0.10373 1.05973 0.11519
 C481 C 0.68238 0.26977 0.33567
 C482 C 0.66406 0.29443 0.28786
 C483 C 0.67049 0.34551 0.25198
 C484 C 0.69521 0.37088 0.26443
 C485 C 0.71316 0.34656 0.31328
 C486 C 0.70688 0.29602 0.34967
 C487 C 0.65191 0.37100 0.20571
 C488 C 0.62674 0.34678 0.19655
 C489 C 0.62034 0.29575 0.23264
 C490 C 0.63915 0.26952 0.27717
 C491 C 0.59497 0.27249 0.22516
 C492 C 0.57584 0.30032 0.18420
 C493 C 0.58186 0.35135 0.14872
 C494 C 0.60758 0.37369 0.15378
 H495 H 0.67721 0.23099 0.36380
 H496 H 0.70047 0.41004 0.23745
 H497 H 0.73193 0.36754 0.32295
 H498 H 0.65678 0.41036 0.17852
 H499 H 0.63416 0.23051 0.30508
 H500 H 0.58974 0.23341 0.25240
 H501 H 0.55622 0.28204 0.18073
 H502 H 0.61243 0.41305 0.12686
 C503 C 0.18009 0.76373 0.34036
 C504 C 0.16194 0.78849 0.29211
 C505 C 0.16894 0.83837 0.25411
 C506 C 0.19397 0.86263 0.26525
 C507 C 0.21174 0.83828 0.31458
 C508 C 0.20496 0.78876 0.35270
 C509 C 0.15063 0.86378 0.20692
 C510 C 0.12517 0.84081 0.19902
 C511 C 0.11815 0.79115 0.23748
 C512 C 0.13669 0.76485 0.28286
 C513 C 0.09245 0.76935 0.23140
 C514 C 0.07362 0.79743 0.18957
 C515 C 0.08029 0.84715 0.15171
 C516 C 0.10634 0.86776 0.15519
 H517 H 0.17454 0.72577 0.36992
 H518 H 0.19965 0.90091 0.23671
 H519 H 0.23081 0.85826 0.32296
 H520 H 0.15596 0.90218 0.17800
 H521 H 0.13126 0.72682 0.31246
 H522 H 0.08673 0.73133 0.26047
 H523 H 0.05374 0.78043 0.18738
 H524 H 0.11174 0.90589 0.12611
   
