data_POSCAR
  _audit_creation_date              2014-09-24
  _audit_creation_method            'ToBaCCo'
  _symmetry_space_group_name_H-M    'P1'
  _symmetry_Int_Tables_number       1
  _symmetry_cell_setting            triclinic
  loop_
  _symmetry_equiv_pos_as_xyz
 x,y,z
_cell_length_a 29.8615
_cell_length_b 29.3999
_cell_length_c 33.7766
_cell_angle_alpha 88.434800
_cell_angle_beta 90.195700
_cell_angle_gamma 89.636000
loop_
  _atom_site_label
  _atom_site_type_symbol
  _atom_site_fract_x
  _atom_site_fract_y
  _atom_site_fract_z
C1 C 1.23924 0.24655 0.24710
 C2 C 0.74387 -0.25642 0.24985
 C3 C 0.73203 0.25433 -0.25226
 C4 C 1.23951 -0.23883 -0.25104
 C5 C 0.26306 0.24136 0.75165
 C6 C 0.76188 0.74517 0.75270
 C7 C 0.76080 0.25686 0.25053
 C8 C 0.25459 0.74885 0.25224
 O9 O 1.06029 0.02182 0.05462
 O10 O 0.91048 -0.05221 0.02558
 O11 O 0.95200 0.09012 0.02257
 O12 O 1.04922 -0.06273 0.04506
 O13 O 0.91292 0.03083 0.04371
 O14 O 1.10982 -0.03277 0.01954
 O15 O 0.97103 -0.06857 0.05539
 O16 O 1.03341 0.08542 0.03020
 C17 C 1.05334 0.06369 0.05794
 C18 C 0.92982 -0.06987 0.05470
 C19 C 0.92442 0.07164 0.04698
 C20 C 1.09165 -0.06437 0.04178
 O21 O 1.06960 -0.01713 -0.04650
 O22 O 0.90574 0.05321 -0.02883
 O23 O 1.04073 0.06737 -0.04916
 O24 O 0.95706 -0.08685 -0.02477
 O25 O 0.91710 -0.02873 -0.04787
 O26 O 1.09433 0.05084 -0.01127
 O27 O 1.03738 -0.08016 -0.03357
 O28 O 0.96506 0.07178 -0.05802
 Co29 Co 1.06156 0.00051 0.00403
 Co30 Co 0.91956 0.00090 -0.00190
 Co31 Co 0.99752 0.07316 -0.01253
 Co32 Co 1.00284 -0.06808 0.00939
 O33 O 0.99334 0.00365 -0.00150
 C34 C 1.06164 -0.05666 -0.05589
 C35 C 0.92404 0.07210 -0.05742
 C36 C 1.08082 0.07243 -0.04111
 C37 C 0.93059 -0.06905 -0.05078
 O38 O 1.09223 0.54925 0.52452
 O39 O 0.91628 0.44372 0.52811
 O40 O 0.95683 0.58102 0.53523
 O41 O 1.05217 0.41039 0.53469
 O42 O 0.92951 0.51778 0.55572
 O43 O 1.08328 0.47231 0.55185
 O44 O 0.97639 0.41998 0.55390
 O45 O 1.03231 0.57225 0.55017
 C46 C 1.07329 0.56925 0.55180
 C47 C 0.93532 0.42234 0.55546
 C48 C 0.93713 0.55836 0.56179
 C49 C 1.07648 0.43123 0.55836
 O50 O 1.08884 0.44089 0.47825
 O51 O 0.91723 0.55408 0.48259
 O52 O 1.05289 0.58080 0.47023
 O53 O 0.95198 0.41453 0.47405
 O54 O 0.92520 0.47926 0.45513
 O55 O 1.08024 0.51758 0.45154
 O56 O 1.02674 0.41825 0.45659
 O57 O 0.97651 0.57441 0.45455
 Co58 Co 1.07775 0.49521 0.50179
 Co59 Co 0.93044 0.49856 0.50525
 Co60 Co 1.00447 0.56970 0.50254
 Co61 Co 1.00190 0.42328 0.50492
 O62 O 1.00380 0.49665 0.50354
 C63 C 1.06744 0.42117 0.45222
 C64 C 0.93538 0.57280 0.45359
 C65 C 1.07412 0.55875 0.44511
 C66 C 0.93163 0.43851 0.44844
 O67 O 0.58025 0.01774 0.54910
 O68 O 0.42566 -0.02139 0.54704
 O69 O 0.47940 0.07726 0.54212
 O70 O 0.53013 -0.07844 0.54990
 O71 O 0.41827 0.05417 0.51873
 O72 O 0.59096 -0.05839 0.52403
 O73 O 0.45431 -0.08559 0.53198
 O74 O 0.55492 0.08112 0.52613
 C75 C 0.57275 0.05870 0.55403
 C76 C 0.43166 -0.06225 0.55522
 C77 C 0.43851 0.07418 0.54528
 C78 C 0.57122 -0.07771 0.55194
 O79 O 0.58192 -0.02488 0.44988
 O80 O 0.42794 0.02049 0.44549
 O81 O 0.53339 0.07222 0.44652
 O82 O 0.47807 -0.08088 0.45240
 O83 O 0.41779 -0.05544 0.47529
 O84 O 0.59306 0.05033 0.47452
 O85 O 0.55344 -0.08770 0.47040
 O86 O 0.45705 0.08281 0.46347
 Co87 Co 0.57807 -0.00360 0.49931
 Co88 Co 0.43080 -0.00066 0.49658
 Co89 Co 0.50614 0.07089 0.49466
 Co90 Co 0.50412 -0.07566 0.50094
 O91 O 0.50463 -0.00228 0.49789
 C92 C 0.57445 -0.06556 0.44432
 C93 C 0.43413 0.06164 0.43906
 C94 C 0.57458 0.07042 0.44599
 C95 C 0.43720 -0.07657 0.44901
 O96 O 0.57302 0.52305 0.04859
 O97 O 0.41863 0.47773 0.04921
 O98 O 0.47043 0.57832 0.04865
 O99 O 0.52490 0.42526 0.04931
 O100 O 0.40955 0.55473 0.02498
 O101 O 0.58398 0.44904 0.02238
 O102 O 0.44848 0.41572 0.03069
 O103 O 0.54546 0.58686 0.02945
 C104 C 0.56629 0.56362 0.05511
 C105 C 0.42527 0.43655 0.05513
 C106 C 0.42963 0.57380 0.05222
 C107 C 0.56591 0.42907 0.05090
 O108 O 0.57159 0.48358 -0.05169
 O109 O 0.41770 0.52665 -0.05031
 O110 O 0.51953 0.58094 -0.04957
 O111 O 0.47211 0.42475 -0.04718
 O112 O 0.41046 0.44874 -0.02508
 O113 O 0.58106 0.55864 -0.02535
 O114 O 0.54737 0.41943 -0.03036
 O115 O 0.44440 0.58861 -0.02925
 Co116 Co 0.56924 0.50353 -0.00146
 Co117 Co 0.42236 0.50203 -0.00040
 Co118 Co 0.49522 0.57600 -0.00030
 Co119 Co 0.49812 0.42897 0.00074
 O120 O 0.49608 0.50260 -0.00033
 C121 C 0.56528 0.44269 -0.05747
 C122 C 0.42231 0.56832 -0.05479
 C123 C 0.56049 0.57892 -0.05253
 C124 C 0.43125 0.42782 -0.05079
 C125 C 1.14965 0.16791 0.17160
 C126 C 1.15891 0.21348 0.16194
 C127 C 1.18725 0.23800 0.18643
 C128 C 1.20726 0.21785 0.22083
 C129 C 1.19293 0.17319 0.23198
 C130 C 1.16630 0.14743 0.20656
 C131 C 1.12192 0.14123 0.14451
 C132 C 1.11449 0.09479 0.15287
 C133 C 1.09080 0.06887 0.12523
 C134 C 1.07360 0.08987 0.09028
 C135 C 1.07952 0.13704 0.08379
 C136 C 1.10430 0.16257 0.11022
 C137 C 1.15650 0.10139 0.21500
 C138 C 1.13169 0.07535 0.18833
 C139 C 1.14008 0.23376 0.12757
 C140 C 1.11299 0.20879 0.10227
 H141 H 1.16914 0.08501 0.24194
 H142 H 1.12602 0.03971 0.19550
 H143 H 1.14670 0.26912 0.11995
 H144 H 1.09949 0.22558 0.07584
 H145 H 1.19317 0.27303 0.17818
 H146 H 1.20231 0.15819 0.26042
 H147 H 1.08636 0.03266 0.13054
 H148 H 1.06681 0.15370 0.05697
 C149 C 1.16756 0.67662 0.66388
 C150 C 1.16052 0.66971 0.70456
 C151 C 1.18403 0.69640 0.73150
 C152 C 1.21278 0.73212 0.71846
 C153 C 1.21879 0.73771 0.67675
 C154 C 1.19700 0.71006 0.64981
 C155 C 1.14408 0.64793 0.63536
 C156 C 1.15285 0.65374 0.59469
 C157 C 1.13068 0.62638 0.56769
 C158 C 1.09871 0.59474 0.58100
 C159 C 1.08981 0.58942 0.62176
 C160 C 1.11322 0.61543 0.64926
 C161 C 1.20459 0.71515 0.60887
 C162 C 1.18316 0.68722 0.58179
 C163 C 1.13022 0.63603 0.71747
 C164 C 1.10653 0.60978 0.69028
 H165 H 1.22751 0.74082 0.59763
 H166 H 1.19007 0.69215 0.55050
 H167 H 1.12434 0.63030 0.74884
 H168 H 1.08304 0.58466 0.70148
 H169 H 1.18072 0.68864 0.76290
 H170 H 1.24122 0.76269 0.66411
 H171 H 1.13703 0.63073 0.53622
 H172 H 1.06513 0.56488 0.63188
 C173 C 0.65168 0.16290 0.67650
 C174 C 0.63919 0.20869 0.67948
 C175 C 0.66402 0.23683 0.70389
 C176 C 0.70209 0.22018 0.72513
 C177 C 0.71205 0.17298 0.72331
 C178 C 0.68754 0.14461 0.69866
 C179 C 0.62816 0.13415 0.64815
 C180 C 0.64210 0.08883 0.64362
 C181 C 0.62211 0.06285 0.61415
 C182 C 0.58914 0.08248 0.58904
 C183 C 0.57411 0.12719 0.59539
 C184 C 0.59370 0.15329 0.62465
 C185 C 0.69932 0.09856 0.69460
 C186 C 0.67703 0.07116 0.66749
 C187 C 0.60329 0.22608 0.65662
 C188 C 0.58085 0.19879 0.62966
 H189 H 0.72681 0.08388 0.71175
 H190 H 0.68796 0.03621 0.66452
 H191 H 0.59318 0.26137 0.65886
 H192 H 0.55404 0.21376 0.61186
 H193 H 0.65538 0.27266 0.70448
 H194 H 0.73941 0.15771 0.73984
 H195 H 0.63369 0.02839 0.60950
 H196 H 0.54832 0.14233 0.57648
 C197 C 0.65937 0.65910 0.17590
 C198 C 0.64589 0.70354 0.18417
 C199 C 0.67229 0.72950 0.20909
 C200 C 0.71247 0.71183 0.22630
 C201 C 0.72501 0.66660 0.21756
 C202 C 0.69856 0.64021 0.19263
 C203 C 0.63319 0.63276 0.14748
 C204 C 0.64757 0.58885 0.13791
 C205 C 0.62406 0.56507 0.10905
 C206 C 0.58725 0.58558 0.08920
 C207 C 0.57252 0.62904 0.10004
 C208 C 0.59542 0.65283 0.12909
 C209 C 0.71130 0.59572 0.18307
 C210 C 0.68615 0.57041 0.15629
 C211 C 0.60710 0.72192 0.16614
 C212 C 0.58225 0.69697 0.13906
 H213 H 0.74136 0.58057 0.19591
 H214 H 0.69758 0.53654 0.14924
 H215 H 0.59633 0.75623 0.17245
 H216 H 0.55304 0.71271 0.12521
 H217 H 0.66286 0.76468 0.21328
 H218 H 0.75598 0.65207 0.22892
 H219 H 0.63564 0.53163 0.10074
 H220 H 0.54399 0.64484 0.08507
 C221 C 0.82631 -0.17651 0.16578
 C222 C 0.78752 -0.19769 0.15233
 C223 C 0.76193 -0.22383 0.17885
 C224 C 0.77348 -0.22852 0.21962
 C225 C 0.81294 -0.20605 0.23221
 C226 C 0.83958 -0.18075 0.20550
 C227 C 0.85341 -0.14919 0.13764
 C228 C 0.89300 -0.12871 0.15071
 C229 C 0.91880 -0.10306 0.12348
 C230 C 0.90419 -0.09702 0.08398
 C231 C 0.86424 -0.11751 0.07167
 C232 C 0.83906 -0.14404 0.09817
 C233 C 0.87919 -0.15947 0.21769
 C234 C 0.90561 -0.13417 0.19071
 C235 C 0.77464 -0.19224 0.11242
 C236 C 0.79983 -0.16560 0.08584
 H237 H 0.88996 -0.16254 0.24832
 H238 H 0.93596 -0.11852 0.20132
 H239 H 0.74462 -0.20844 0.10168
 H240 H 0.78858 -0.16197 0.05538
 H241 H 0.73299 -0.23998 0.16665
 H242 H 0.82284 -0.20816 0.26310
 H243 H 0.94953 -0.08720 0.13304
 H244 H 0.85312 -0.11342 0.04117
 C245 C 0.82196 0.32574 0.66487
 C246 C 0.78422 0.30372 0.65014
 C247 C 0.75549 0.28099 0.67639
 C248 C 0.76293 0.28071 0.71790
 C249 C 0.80134 0.30384 0.73183
 C250 C 0.83101 0.32584 0.70557
 C251 C 0.85252 0.34922 0.63704
 C252 C 0.89092 0.37075 0.65152
 C253 C 0.91961 0.39345 0.62466
 C254 C 0.90886 0.39553 0.58407
 C255 C 0.87043 0.37365 0.57021
 C256 C 0.84240 0.35008 0.59643
 C257 C 0.86963 0.34784 0.71911
 C258 C 0.89920 0.36972 0.69254
 C259 C 0.77573 0.30467 0.60919
 C260 C 0.80419 0.32775 0.58278
 H261 H 0.87712 0.34808 0.75051
 H262 H 0.92855 0.38625 0.70422
 H263 H 0.74661 0.28774 0.59746
 H264 H 0.79623 0.32812 0.55145
 H265 H 0.72779 0.26350 0.66342
 H266 H 0.80820 0.30444 0.76335
 H267 H 0.94909 0.41072 0.63529
 H268 H 0.86236 0.37508 0.53885
 C269 C 0.32832 -0.15649 0.67397
 C270 C 0.28478 -0.14114 0.68159
 C271 C 0.25704 -0.16742 0.70619
 C272 C 0.27280 -0.20813 0.72521
 C273 C 0.31711 -0.22268 0.71699
 C274 C 0.34471 -0.19720 0.69129
 C275 C 0.35645 -0.13058 0.64567
 C276 C 0.39889 -0.14760 0.63572
 C277 C 0.42422 -0.12437 0.60677
 C278 C 0.40746 -0.08418 0.58840
 C279 C 0.36557 -0.06679 0.59973
 C280 C 0.33958 -0.09025 0.62787
 C281 C 0.38793 -0.21241 0.68157
 C282 C 0.41448 -0.18814 0.65411
 C283 C 0.26923 -0.10039 0.66353
 C284 C 0.29636 -0.07513 0.63738
 H285 H 0.40103 -0.24380 0.69472
 H286 H 0.44724 -0.20153 0.64685
 H287 H 0.23568 -0.08812 0.66941
 H288 H 0.28299 -0.04408 0.62379
 H289 H 0.22248 -0.15686 0.70966
 H290 H 0.32979 -0.25471 0.72907
 H291 H 0.45652 -0.13779 0.59807
 H292 H 0.35217 -0.03637 0.58511
 C293 C 0.32246 0.33057 0.16717
 C294 C 0.28169 0.34790 0.18064
 C295 C 0.25482 0.32059 0.20528
 C296 C 0.26892 0.27651 0.21870
 C297 C 0.30963 0.25947 0.20318
 C298 C 0.33646 0.28630 0.17784
 C299 C 0.35037 0.35886 0.14039
 C300 C 0.39029 0.34077 0.12544
 C301 C 0.41565 0.36707 0.09857
 C302 C 0.40137 0.41122 0.08687
 C303 C 0.36197 0.42937 0.10313
 C304 C 0.33599 0.40305 0.12946
 C305 C 0.37701 0.26961 0.16274
 C306 C 0.40342 0.29634 0.13693
 C307 C 0.26836 0.39226 0.16907
 C308 C 0.29521 0.41949 0.14414
 H309 H 0.38830 0.23547 0.17072
 H310 H 0.43419 0.28197 0.12565
 H311 H 0.23692 0.40607 0.17943
 H312 H 0.28364 0.45345 0.13584
 H313 H 0.22242 0.33385 0.21368
 H314 H 0.32075 0.22524 0.21042
 H315 H 0.44599 0.35294 0.08619
 H316 H 0.35053 0.46313 0.09397
 C317 C 0.81745 0.17782 -0.16780
 C318 C 0.77913 0.19993 -0.15402
 C319 C 0.75257 0.22547 -0.18058
 C320 C 0.76253 0.22807 -0.22161
 C321 C 0.80187 0.20542 -0.23450
 C322 C 0.82945 0.18077 -0.20782
 C323 C 0.84535 0.15081 -0.13974
 C324 C 0.88442 0.12937 -0.15322
 C325 C 0.91094 0.10391 -0.12614
 C326 C 0.89750 0.09895 -0.08637
 C327 C 0.85811 0.12032 -0.07356
 C328 C 0.83224 0.14678 -0.09995
 C329 C 0.86860 0.15866 -0.22039
 C330 C 0.89581 0.13366 -0.19349
 C331 C 0.76762 0.19580 -0.11378
 C332 C 0.79357 0.16936 -0.08724
 H333 H 0.87834 0.16077 -0.25125
 H334 H 0.92575 0.11724 -0.20435
 H335 H 0.73801 0.21275 -0.10280
 H336 H 0.78334 0.16664 -0.05652
 H337 H 0.72421 0.24272 -0.16829
 H338 H 0.81055 0.20634 -0.26564
 H339 H 0.94129 0.08731 -0.13597
 H340 H 0.84805 0.11697 -0.04279
 C341 C 0.82651 0.66298 0.33413
 C342 C 0.84522 0.67725 0.29797
 C343 C 0.81818 0.70079 0.26996
 C344 C 0.77336 0.71360 0.27893
 C345 C 0.75506 0.69543 0.31462
 C346 C 0.78128 0.67097 0.34225
 C347 C 0.85467 0.63893 0.36405
 C348 C 0.83532 0.62400 0.39986
 C349 C 0.86210 0.60192 0.42849
 C350 C 0.90820 0.59531 0.42202
 C351 C 0.92726 0.61019 0.38583
 C352 C 0.90037 0.63174 0.35648
 C353 C 0.76301 0.65493 0.37823
 C354 C 0.78959 0.63176 0.40655
 C355 C 0.89081 0.66830 0.29087
 C356 C 0.91801 0.64634 0.31977
 H357 H 0.72797 0.66074 0.38475
 H358 H 0.77430 0.62024 0.43406
 H359 H 0.90581 0.67911 0.26304
 H360 H 0.95311 0.64080 0.31332
 H361 H 0.83249 0.70919 0.24134
 H362 H 0.72038 0.69989 0.32177
 H363 H 0.84710 0.59056 0.45620
 H364 H 0.96266 0.60481 0.38052
 C365 C 0.32963 0.16598 0.32531
 C366 C 0.31299 0.14609 0.29114
 C367 C 0.28588 0.17234 0.26491
 C368 C 0.27159 0.21710 0.27432
 C369 C 0.29195 0.23652 0.30784
 C370 C 0.32017 0.21143 0.33329
 C371 C 0.35796 0.13898 0.35316
 C372 C 0.37554 0.15984 0.38661
 C373 C 0.40158 0.13421 0.41341
 C374 C 0.40932 0.08755 0.40786
 C375 C 0.39177 0.06686 0.37400
 C376 C 0.36647 0.09284 0.34611
 C377 C 0.33880 0.23120 0.36691
 C378 C 0.36617 0.20585 0.39308
 C379 C 0.32347 0.10023 0.28419
 C380 C 0.34923 0.07391 0.31145
 H381 H 0.33188 0.26649 0.37324
 H382 H 0.37964 0.22225 0.41884
 H383 H 0.31087 0.08428 0.25789
 H384 H 0.35572 0.03850 0.30532
 H385 H 0.27633 0.15767 0.23714
 H386 H 0.28678 0.27145 0.31487
 H387 H 0.41461 0.15044 0.43947
 H388 H 0.39784 0.03100 0.36944
 C389 C 0.31989 0.67594 -0.16824
 C390 C 0.31503 0.72262 -0.16229
 C391 C 0.28909 0.74906 -0.18878
 C392 C 0.26697 0.72985 -0.22149
 C393 C 0.27493 0.68277 -0.22792
 C394 C 0.30010 0.65567 -0.20091
 C395 C 0.34700 0.64798 -0.14007
 C396 C 0.35157 0.60097 -0.14557
 C397 C 0.37652 0.57441 -0.11788
 C398 C 0.39738 0.59509 -0.08551
 C399 C 0.39316 0.64248 -0.08126
 C400 C 0.36777 0.66892 -0.10811
 C401 C 0.30608 0.60864 -0.20598
 C402 C 0.33099 0.58170 -0.17861
 C403 C 0.33648 0.74232 -0.12994
 C404 C 0.36247 0.71593 -0.10334
 H405 H 0.29099 0.59240 -0.23111
 H406 H 0.33430 0.54556 -0.18344
 H407 H 0.33309 0.77847 -0.12510
 H408 H 0.37838 0.73242 -0.07872
 H409 H 0.28750 0.78493 -0.18383
 H410 H 0.26282 0.66681 -0.25427
 H411 H 0.37971 0.53801 -0.12146
 H412 H 0.40883 0.65883 -0.05643
 C413 C 1.15523 -0.15194 -0.17636
 C414 C 1.13663 -0.19123 -0.19196
 C415 C 1.16236 -0.21804 -0.21733
 C416 C 1.20772 -0.20744 -0.22615
 C417 C 1.22462 -0.16650 -0.21018
 C418 C 1.19887 -0.13892 -0.18586
 C419 C 1.12897 -0.12455 -0.14860
 C420 C 1.14800 -0.08539 -0.13275
 C421 C 1.12409 -0.06109 -0.10449
 C422 C 1.08222 -0.07675 -0.09106
 C423 C 1.06294 -0.11522 -0.10818
 C424 C 1.08614 -0.13913 -0.13719
 C425 C 1.21647 -0.09898 -0.17012
 C426 C 1.19138 -0.07253 -0.14416
 C427 C 1.09280 -0.20362 -0.18115
 C428 C 1.06814 -0.17824 -0.15399
 H429 H 1.25019 -0.08839 -0.17750
 H430 H 1.20646 -0.04238 -0.13222
 H431 H 1.07780 -0.23383 -0.19303
 H432 H 1.03496 -0.18969 -0.14567
 H433 H 1.14591 -0.24683 -0.22933
 H434 H 1.25858 -0.15579 -0.21625
 H435 H 1.13924 -0.03175 -0.09114
 H436 H 1.03060 -0.12729 -0.09802
 C437 C 1.16012 0.32671 0.33010
 C438 C 1.14272 0.28592 0.31623
 C439 C 1.16763 0.26072 0.28912
 C440 C 1.20953 0.27637 0.27462
 C441 C 1.22539 0.31836 0.28904
 C442 C 1.20136 0.34312 0.31670
 C443 C 1.13542 0.35196 0.36031
 C444 C 1.15420 0.39149 0.37572
 C445 C 1.13164 0.41417 0.40575
 C446 C 1.09023 0.39805 0.41975
 C447 C 1.07125 0.35906 0.40328
 C448 C 1.09409 0.33545 0.37392
 C449 C 1.21856 0.38345 0.33202
 C450 C 1.19545 0.40715 0.36117
 C451 C 1.10105 0.27062 0.33038
 C452 C 1.07699 0.29514 0.35851
 H453 H 1.25050 0.39645 0.32182
 H454 H 1.21015 0.43775 0.37261
 H455 H 1.08703 0.23928 0.31980
 H456 H 1.04511 0.28204 0.36876
 H457 H 1.15423 0.22857 0.28018
 H458 H 1.25793 0.33107 0.28027
 H459 H 1.14618 0.44430 0.41824
 H460 H 1.03956 0.34628 0.41428
 C461 C 0.66389 -0.16739 0.32535
 C462 C 0.64899 -0.21121 0.31746
 C463 C 0.67403 -0.23838 0.29233
 C464 C 0.71486 -0.22315 0.27503
 C465 C 0.72808 -0.17791 0.28287
 C466 C 0.70300 -0.15025 0.30792
 C467 C 0.63877 -0.13946 0.35339
 C468 C 0.65427 -0.09585 0.36210
 C469 C 0.63169 -0.07050 0.39053
 C470 C 0.59459 -0.08913 0.41071
 C471 C 0.57866 -0.13227 0.40065
 C472 C 0.60064 -0.15760 0.37204
 C473 C 0.71688 -0.10596 0.31659
 C474 C 0.69291 -0.07921 0.34318
 C475 C 0.60984 -0.22766 0.33568
 C476 C 0.58610 -0.20132 0.36261
 H477 H 0.74693 -0.09210 0.30318
 H478 H 0.70519 -0.04557 0.34953
 H479 H 0.59791 -0.26151 0.32965
 H480 H 0.55657 -0.21557 0.37663
 H481 H 0.66203 -0.27242 0.28723
 H482 H 0.75787 -0.16333 0.27035
 H483 H 0.64413 -0.03730 0.39820
 H484 H 0.54984 -0.14658 0.41582
 C485 C 0.64813 0.34332 -0.18145
 C486 C 0.63648 0.29766 -0.18589
 C487 C 0.66214 0.27056 -0.21060
 C488 C 0.70055 0.28791 -0.23038
 C489 C 0.70966 0.33501 -0.22724
 C490 C 0.68403 0.36251 -0.20247
 C491 C 0.62376 0.37083 -0.15261
 C492 C 0.63662 0.41606 -0.14673
 C493 C 0.61565 0.44086 -0.11693
 C494 C 0.58300 0.42004 -0.09263
 C495 C 0.56944 0.37528 -0.10004
 C496 C 0.58967 0.35053 -0.12991
 C497 C 0.69479 0.40845 -0.19703
 C498 C 0.67147 0.43478 -0.16965
 C499 C 0.60078 0.27919 -0.16393
 C500 C 0.57777 0.30520 -0.13632
 H501 H 0.72225 0.42387 -0.21330
 H502 H 0.68160 0.46968 -0.16565
 H503 H 0.59137 0.24396 -0.16728
 H504 H 0.55125 0.28935 -0.11915
 H505 H 0.65414 0.23474 -0.21212
 H506 H 0.73724 0.35074 -0.24271
 H507 H 0.62624 0.47532 -0.11137
 H508 H 0.54431 0.35904 -0.08153
 C509 C 1.18487 0.16685 -0.15955
 C510 C 1.22907 0.15336 -0.16701
 C511 C 1.25327 0.17611 -0.19710
 C512 C 1.23359 0.21211 -0.22005
 C513 C 1.18926 0.22554 -0.21091
 C514 C 1.16469 0.20264 -0.18149
 C515 C 1.15942 0.14376 -0.12757
 C516 C 1.11508 0.15727 -0.12055
 C517 C 1.09048 0.13443 -0.09118
 C518 C 1.10990 0.09873 -0.06833
 C519 C 1.15487 0.08628 -0.07473
 C520 C 1.17973 0.10853 -0.10481
 C521 C 1.12044 0.21556 -0.17313
 C522 C 1.09592 0.19301 -0.14337
 C523 C 1.24837 0.11794 -0.14371
 C524 C 1.22414 0.09592 -0.11316
 H525 H 1.10454 0.24320 -0.18989
 H526 H 1.06172 0.20372 -0.13810
 H527 H 1.28254 0.10721 -0.14907
 H528 H 1.24027 0.06874 -0.09602
 H529 H 1.28791 0.16672 -0.20205
 H530 H 1.17401 0.25501 -0.22543
 H531 H 1.05585 0.14405 -0.08647
 H532 H 1.16971 0.05833 -0.05758
 C533 C 1.17240 0.66265 0.32876
 C534 C 1.21382 0.64646 0.31568
 C535 C 1.24036 0.67444 0.29103
 C536 C 1.22551 0.71846 0.27747
 C537 C 1.18338 0.73349 0.29243
 C538 C 1.15709 0.70613 0.31749
 C539 C 1.14534 0.63427 0.35618
 C540 C 1.10501 0.65171 0.37096
 C541 C 1.08080 0.62585 0.39887
 C542 C 1.09659 0.58277 0.41189
 C543 C 1.13619 0.56495 0.39566
 C544 C 1.16110 0.59094 0.36819
 C545 C 1.11602 0.72202 0.33213
 C546 C 1.09044 0.69529 0.35848
 C547 C 1.22829 0.60268 0.32801
 C548 C 1.20227 0.57529 0.35361
 H549 H 1.10380 0.75566 0.32355
 H550 H 1.05932 0.70909 0.36956
 H551 H 1.26017 0.58956 0.31800
 H552 H 1.21487 0.54194 0.36264
 H553 H 1.27284 0.66140 0.28295
 H554 H 1.17130 0.76765 0.28560
 H555 H 1.05027 0.63963 0.41120
 H556 H 1.14877 0.53200 0.40588
 C557 C 0.68039 0.17357 0.33394
 C558 C 0.72128 0.19136 0.34640
 C559 C 0.74661 0.21797 0.31992
 C560 C 0.73225 0.22708 0.28032
 C561 C 0.69149 0.20653 0.26834
 C562 C 0.66512 0.18101 0.29508
 C563 C 0.65314 0.14651 0.36220
 C564 C 0.61140 0.12978 0.35020
 C565 C 0.58514 0.10504 0.37770
 C566 C 0.60129 0.09606 0.41639
 C567 C 0.64359 0.11235 0.42750
 C568 C 0.66934 0.13810 0.40077
 C569 C 0.62358 0.16299 0.28381
 C570 C 0.59700 0.13818 0.31099
 C571 C 0.73623 0.18236 0.38535
 C572 C 0.71083 0.15594 0.41200
 H573 H 0.61126 0.16854 0.25385
 H574 H 0.56501 0.12534 0.30119
 H575 H 0.76791 0.19582 0.39533
 H576 H 0.72361 0.14974 0.44174
 H577 H 0.77752 0.23107 0.33114
 H578 H 0.68008 0.21058 0.23796
 H579 H 0.55267 0.09232 0.36900
 H580 H 0.65603 0.10587 0.45734
 C581 C 0.66870 0.67744 -0.16488
 C582 C 0.66634 0.66823 -0.20536
 C583 C 0.69602 0.69042 -0.23180
 C584 C 0.72896 0.72082 -0.21793
 C585 C 0.72763 0.73157 -0.17716
 C586 C 0.69901 0.70923 -0.15070
 C587 C 0.63884 0.65351 -0.13664
 C588 C 0.64243 0.66225 -0.09607
 C589 C 0.61575 0.63802 -0.06910
 C590 C 0.58492 0.60600 -0.08236
 C591 C 0.58033 0.59840 -0.12317
 C592 C 0.60788 0.62187 -0.15058
 C593 C 0.70061 0.71806 -0.11005
 C594 C 0.67306 0.69464 -0.08312
 C595 C 0.63462 0.63666 -0.21834
 C596 C 0.60588 0.61393 -0.19145
 H597 H 0.72395 0.74273 -0.09884
 H598 H 0.67587 0.70182 -0.05192
 H599 H 0.63222 0.62918 -0.24950
 H600 H 0.58223 0.58963 -0.20271
 H601 H 0.69411 0.68360 -0.26313
 H602 H 0.74832 0.75777 -0.16507
 H603 H 0.61907 0.64378 -0.03763
 H604 H 0.55676 0.57328 -0.13322
 C605 C 0.84716 -0.17255 -0.17255
 C606 C 0.81914 -0.15012 -0.20041
 C607 C 0.79337 -0.17579 -0.22647
 C608 C 0.79401 -0.22391 -0.22375
 C609 C 0.82511 -0.24530 -0.19717
 C610 C 0.85099 -0.22001 -0.17125
 C611 C 0.87167 -0.14594 -0.14316
 C612 C 0.89840 -0.16855 -0.11434
 C613 C 0.91927 -0.14326 -0.08485
 C614 C 0.91291 -0.09582 -0.08385
 C615 C 0.88731 -0.07365 -0.11395
 C616 C 0.86646 -0.09853 -0.14350
 C617 C 0.87917 -0.24144 -0.14289
 C618 C 0.90248 -0.21614 -0.11492
 C619 C 0.81621 -0.10239 -0.20068
 C620 C 0.83940 -0.07704 -0.17266
 H621 H 0.88245 -0.27818 -0.14175
 H622 H 0.92313 -0.23406 -0.09306
 H623 H 0.79495 -0.08453 -0.22210
 H624 H 0.83539 -0.04037 -0.17333
 H625 H 0.77234 -0.15786 -0.24783
 H626 H 0.82687 -0.28214 -0.19503
 H627 H 0.93907 -0.16059 -0.06202
 H628 H 0.88258 -0.03706 -0.11387
 C629 C 0.84215 0.34279 0.32592
 C630 C 0.85796 0.29961 0.31603
 C631 C 0.83265 0.27318 0.29055
 C632 C 0.79113 0.28904 0.27468
 C633 C 0.77622 0.33298 0.28525
 C634 C 0.80165 0.35993 0.31042
 C635 C 0.86727 0.36950 0.35476
 C636 C 0.85071 0.41217 0.36576
 C637 C 0.87337 0.43620 0.39499
 C638 C 0.91136 0.41695 0.41390
 C639 C 0.92809 0.37473 0.40177
 C640 C 0.90626 0.35088 0.37218
 C641 C 0.78663 0.40321 0.32142
 C642 C 0.81087 0.42899 0.34846
 C643 C 0.89797 0.28282 0.33305
 C644 C 0.92171 0.30802 0.36072
 H645 H 0.75551 0.41700 0.30949
 H646 H 0.79774 0.46187 0.35662
 H647 H 0.91055 0.24951 0.32554
 H648 H 0.95192 0.29347 0.37381
 H649 H 0.84403 0.23889 0.28500
 H650 H 0.74423 0.34614 0.27504
 H651 H 0.86021 0.46861 0.40440
 H652 H 0.95740 0.35986 0.41618
 C653 C 0.33325 -0.17054 0.33324
 C654 C 0.35238 -0.18324 0.29745
 C655 C 0.32630 -0.20703 0.27011
 C656 C 0.28210 -0.22260 0.27940
 C657 C 0.26349 -0.20529 0.31489
 C658 C 0.28858 -0.18042 0.34168
 C659 C 0.36018 -0.14569 0.36225
 C660 C 0.34008 -0.13182 0.39746
 C661 C 0.36559 -0.10865 0.42511
 C662 C 0.41128 -0.10004 0.41836
 C663 C 0.43117 -0.11408 0.38283
 C664 C 0.40541 -0.13648 0.35433
 C665 C 0.26955 -0.16560 0.37714
 C666 C 0.29485 -0.14162 0.40452
 C667 C 0.39746 -0.17226 0.28992
 C668 C 0.42365 -0.14980 0.31806
 H669 H 0.23485 -0.17288 0.38394
 H670 H 0.27896 -0.13101 0.43157
 H671 H 0.41288 -0.18185 0.26237
 H672 H 0.45840 -0.14271 0.31130
 H673 H 0.34102 -0.21332 0.24154
 H674 H 0.22921 -0.21039 0.32287
 H675 H 0.35002 -0.09809 0.45235
 H676 H 0.46624 -0.10719 0.37730
 C677 C 0.33689 0.32254 -0.16436
 C678 C 0.35895 0.28635 -0.18243
 C679 C 0.33530 0.25951 -0.20890
 C680 C 0.29040 0.27013 -0.21932
 C681 C 0.26847 0.30525 -0.19885
 C682 C 0.29157 0.33185 -0.17198
 C683 C 0.36145 0.35060 -0.13623
 C684 C 0.33895 0.38596 -0.11723
 C685 C 0.36220 0.41184 -0.08976
 C686 C 0.40761 0.40260 -0.08150
 C687 C 0.42984 0.36755 -0.10132
 C688 C 0.40679 0.34111 -0.12843
 C689 C 0.27020 0.36765 -0.15264
 C690 C 0.29350 0.39427 -0.12568
 C691 C 0.40430 0.27769 -0.17366
 C692 C 0.42792 0.30482 -0.14730
 H693 H 0.23515 0.37512 -0.15835
 H694 H 0.27578 0.42145 -0.11124
 H695 H 0.42174 0.24988 -0.18746
 H696 H 0.46288 0.29712 -0.14140
 H697 H 0.35203 0.23027 -0.22097
 H698 H 0.23331 0.31227 -0.20441
 H699 H 0.34497 0.43885 -0.07462
 H700 H 0.46467 0.35996 -0.09482
 C701 C 1.18409 -0.16779 0.16398
 C702 C 1.22712 -0.15547 0.17593
 C703 C 1.24891 -0.18119 0.20610
 C704 C 1.22837 -0.21968 0.22512
 C705 C 1.18472 -0.23096 0.21105
 C706 C 1.16258 -0.20516 0.18162
 C707 C 1.16163 -0.14207 0.13137
 C708 C 1.11862 -0.15498 0.11944
 C709 C 1.09694 -0.13006 0.08917
 C710 C 1.11792 -0.09263 0.07038
 C711 C 1.16164 -0.08068 0.08185
 C712 C 1.18357 -0.10525 0.11269
 C713 C 1.11963 -0.21726 0.16861
 C714 C 1.09786 -0.19236 0.13823
 C715 C 1.24807 -0.11826 0.15669
 C716 C 1.22667 -0.09358 0.12566
 H717 H 1.10266 -0.24623 0.18205
 H718 H 1.06465 -0.20263 0.12922
 H719 H 1.28142 -0.10827 0.16553
 H720 H 1.24406 -0.06521 0.11169
 H721 H 1.28262 -0.17156 0.21325
 H722 H 1.16848 -0.26210 0.22061
 H723 H 1.06331 -0.13944 0.08068
 H724 H 1.17786 -0.05161 0.06782
 C725 C 1.18227 0.32465 0.66936
 C726 C 1.21918 0.34434 0.68786
 C727 C 1.24606 0.31744 0.71341
 C728 C 1.23509 0.27144 0.72229
 C729 C 1.19957 0.25182 0.70096
 C730 C 1.17256 0.27836 0.67529
 C731 C 1.15372 0.35285 0.64263
 C732 C 1.11729 0.33282 0.62356
 C733 C 1.09101 0.35937 0.59735
 C734 C 1.10114 0.40555 0.58980
 C735 C 1.13719 0.42543 0.60987
 C736 C 1.16384 0.39906 0.63614
 C737 C 1.13574 0.25957 0.65575
 C738 C 1.10851 0.28638 0.63036
 C739 C 1.22836 0.39067 0.68062
 C740 C 1.20107 0.41760 0.65530
 H741 H 1.12786 0.22387 0.66016
 H742 H 1.08052 0.27055 0.61573
 H743 H 1.25678 0.40629 0.69477
 H744 H 1.20936 0.45314 0.65048
 H745 H 1.27539 0.33266 0.72632
 H746 H 1.19213 0.21603 0.70541
 H747 H 1.06332 0.34375 0.58206
 H748 H 1.14542 0.46084 0.60405
 C749 C 0.67645 -0.17988 0.66667
 C750 C 0.67077 -0.17324 0.70730
 C751 C 0.69856 -0.19717 0.73467
 C752 C 0.73204 -0.22794 0.72183
 C753 C 0.73467 -0.23552 0.68050
 C754 C 0.70831 -0.21084 0.65312
 C755 C 0.64832 -0.15423 0.63761
 C756 C 0.65529 -0.16015 0.59696
 C757 C 0.62973 -0.13472 0.56942
 C758 C 0.59634 -0.10463 0.58210
 C759 C 0.58861 -0.09984 0.62292
 C760 C 0.61523 -0.12415 0.65095
 C761 C 0.71347 -0.21664 0.61222
 C762 C 0.68775 -0.19136 0.58461
 C763 C 0.63744 -0.14269 0.71960
 C764 C 0.61001 -0.11880 0.69196
 H765 H 0.73807 -0.24050 0.60141
 H766 H 0.69322 -0.19641 0.55333
 H767 H 0.63246 -0.13721 0.75087
 H768 H 0.58476 -0.09567 0.70278
 H769 H 0.69441 -0.19178 0.76606
 H770 H 0.75678 -0.26083 0.66864
 H771 H 0.63542 -0.13861 0.53798
 H772 H 0.56303 -0.07638 0.63265
 C773 C 0.67665 0.33862 0.16849
 C774 C 0.72187 0.33128 0.15989
 C775 C 0.74850 0.30638 0.18683
 C776 C 0.73063 0.28704 0.22223
 C777 C 0.68593 0.29952 0.23193
 C778 C 0.65841 0.32340 0.20455
 C779 C 0.64801 0.36301 0.13921
 C780 C 0.60229 0.36943 0.14719
 C781 C 0.57489 0.39108 0.11829
 C782 C 0.59352 0.40687 0.08223
 C783 C 0.63967 0.40121 0.07544
 C784 C 0.66693 0.37897 0.10355
 C785 C 0.61283 0.33173 0.21218
 C786 C 0.58513 0.35392 0.18381
 C787 C 0.73971 0.34840 0.12410
 C788 C 0.71268 0.37195 0.09640
 H789 H 0.59823 0.32017 0.23997
 H790 H 0.55004 0.35889 0.19059
 H791 H 0.77475 0.34312 0.11724
 H792 H 0.72759 0.38428 0.06898
 H793 H 0.78322 0.30257 0.17946
 H794 H 0.67215 0.29070 0.26067
 H795 H 0.53944 0.39576 0.12381
 H796 H 0.65434 0.41328 0.04780
 C797 C 0.83764 0.17283 0.16880
 C798 C 0.85405 0.21533 0.17908
 C799 C 0.83066 0.24076 0.20687
 C800 C 0.78994 0.22503 0.22418
 C801 C 0.77519 0.18122 0.21360
 C802 C 0.79870 0.15526 0.18626
 C803 C 0.86096 0.14672 0.13831
 C804 C 0.84407 0.10432 0.12785
 C805 C 0.86556 0.08006 0.09834
 C806 C 0.90343 0.09802 0.07873
 C807 C 0.92020 0.14058 0.08964
 C808 C 0.89908 0.16504 0.11964
 C809 C 0.78320 0.11235 0.17531
 C810 C 0.80560 0.08724 0.14668
 C811 C 0.89283 0.23227 0.16045
 C812 C 0.91491 0.20760 0.13117
 H813 H 0.75322 0.09824 0.18868
 H814 H 0.79233 0.05444 0.13885
 H815 H 0.90588 0.26518 0.16817
 H816 H 0.94436 0.22214 0.11725
 H817 H 0.84328 0.27419 0.21339
 H818 H 0.74504 0.16672 0.22555
 H819 H 0.85218 0.04741 0.09017
 H820 H 0.94948 0.15451 0.07494
 C821 C 0.84890 0.65846 0.68283
 C822 C 0.85594 0.70543 0.68391
 C823 C 0.82884 0.73175 0.70795
 C824 C 0.79391 0.71213 0.73098
 C825 C 0.78999 0.66405 0.73184
 C826 C 0.81651 0.63733 0.70692
 C827 C 0.87472 0.63126 0.65468
 C828 C 0.86611 0.58455 0.65178
 C829 C 0.88819 0.55971 0.62252
 C830 C 0.91836 0.58167 0.59635
 C831 C 0.92813 0.62797 0.60122
 C832 C 0.90608 0.65301 0.62990
 C833 C 0.81024 0.59008 0.70449
 C834 C 0.83441 0.56421 0.67725
 C835 C 0.88868 0.72569 0.65959
 C836 C 0.91346 0.69986 0.63310
 H837 H 0.78552 0.57316 0.72299
 H838 H 0.82760 0.52816 0.67560
 H839 H 0.89449 0.76200 0.66042
 H840 H 0.93774 0.71693 0.61422
 H841 H 0.83312 0.76836 0.70704
 H842 H 0.76602 0.64697 0.75072
 H843 H 0.88064 0.52401 0.61914
 H844 H 0.95160 0.64512 0.58156
 C845 C 0.34166 0.16597 0.66658
 C846 C 0.30388 0.14541 0.68375
 C847 C 0.27962 0.16870 0.71253
 C848 C 0.29251 0.21272 0.72406
 C849 C 0.32924 0.23343 0.70440
 C850 C 0.35479 0.20974 0.67697
 C851 C 0.36711 0.14187 0.63611
 C852 C 0.40536 0.16224 0.61946
 C853 C 0.42943 0.13920 0.59051
 C854 C 0.41428 0.09712 0.57704
 C855 C 0.37552 0.07746 0.59354
 C856 C 0.35220 0.09935 0.62368
 C857 C 0.39298 0.22923 0.65940
 C858 C 0.41820 0.20562 0.63151
 C859 C 0.29056 0.10234 0.67114
 C860 C 0.31412 0.07984 0.64142
 H861 H 0.40358 0.26296 0.66739
 H862 H 0.44756 0.22176 0.61881
 H863 H 0.26137 0.08610 0.68403
 H864 H 0.30242 0.04693 0.63226
 H865 H 0.24979 0.15308 0.72472
 H866 H 0.33798 0.26824 0.71059
 H867 H 0.45903 0.15461 0.57753
 H868 H 0.36389 0.04505 0.58318
 C869 C 0.32968 0.66458 0.17220
 C870 C 0.28411 0.67289 0.16579
 C871 C 0.26028 0.69856 0.19282
 C872 C 0.28131 0.71880 0.22592
 C873 C 0.32603 0.70370 0.23427
 C874 C 0.35089 0.67914 0.20657
 C875 C 0.35539 0.63949 0.14257
 C876 C 0.40148 0.63204 0.14832
 C877 C 0.42615 0.61019 0.11883
 C878 C 0.40447 0.59512 0.08445
 C879 C 0.35796 0.60141 0.08011
 C880 C 0.33339 0.62397 0.10878
 C881 C 0.39673 0.66943 0.21219
 C882 C 0.42173 0.64685 0.18331
 C883 C 0.26304 0.65598 0.13202
 C884 C 0.28729 0.63188 0.10397
 H885 H 0.41368 0.68040 0.23865
 H886 H 0.45718 0.64103 0.18839
 H887 H 0.22762 0.66201 0.12692
 H888 H 0.26994 0.61988 0.07807
 H889 H 0.22497 0.70229 0.18739
 H890 H 0.34189 0.71057 0.26228
 H891 H 0.46191 0.60498 0.12253
 H892 H 0.34097 0.58987 0.05383
   
