data_POSCAR
  _audit_creation_date              2014-09-24
  _audit_creation_method            'ToBaCCo'
  _symmetry_space_group_name_H-M    'P1'
  _symmetry_Int_Tables_number       1
  _symmetry_cell_setting            triclinic
  loop_
  _symmetry_equiv_pos_as_xyz
 x,y,z
_cell_length_a 24.6832
_cell_length_b 24.6339
_cell_length_c 33.8628
_cell_angle_alpha 90.900300
_cell_angle_beta 89.427700
_cell_angle_gamma 89.832400
loop_
  _atom_site_label
  _atom_site_type_symbol
  _atom_site_fract_x
  _atom_site_fract_y
  _atom_site_fract_z
C1 C -0.00051 0.49970 0.98027
 C2 C 0.00137 0.50159 1.02047
 C3 C 0.00245 0.55386 1.04290
 C4 C 0.00220 0.45142 1.04421
 C5 C -0.00588 0.44749 0.95816
 C6 C 0.00254 0.54965 0.95637
 C7 C 0.04411 0.56379 1.06986
 C8 C 0.04582 0.61255 1.09137
 C9 C 0.00549 0.65236 1.08655
 C10 C -0.03664 0.64193 1.05980
 C11 C -0.03827 0.59308 1.03830
 C12 C 0.04242 0.41161 1.03813
 C13 C 0.04232 0.36454 1.06067
 C14 C 0.00235 0.35683 1.08976
 C15 C -0.03737 0.39695 1.09618
 C16 C -0.03729 0.44395 1.07368
 C17 C -0.04935 0.41227 0.96561
 C18 C -0.05302 0.36261 0.94527
 C19 C -0.01355 0.34776 0.91698
 C20 C 0.02921 0.38343 0.90899
 C21 C 0.03289 0.43303 0.92929
 C22 C -0.03838 0.56066 0.92915
 C23 C -0.03681 0.60805 0.90710
 C24 C 0.00586 0.64497 0.91170
 C25 C 0.04744 0.63357 0.93830
 C26 C 0.04594 0.58606 0.96036
 H27 H 0.07568 0.53383 1.07400
 H28 H 0.07878 0.61848 1.11172
 H29 H -0.06846 0.67164 1.05568
 H30 H -0.07137 0.58574 1.01817
 H31 H 0.07383 0.41707 1.01600
 H32 H 0.07348 0.33412 1.05552
 H33 H -0.06845 0.47435 1.07895
 H34 H -0.08020 0.42317 0.98730
 H35 H -0.08653 0.33591 0.95181
 H36 H 0.05991 0.37263 0.88716
 H37 H 0.06653 0.45978 0.92298
 H38 H -0.07200 0.53295 0.92547
 H39 H -0.06912 0.61618 0.88659
 H40 H 0.08095 0.66127 0.94219
 H41 H 0.07845 0.57777 0.98066
 H42 H -0.06851 0.39223 1.11852
 C43 C 0.49942 -0.00101 0.47927
 C44 C 0.50101 -0.00248 0.51947
 C45 C 0.45076 -0.00648 0.54373
 C46 C 0.55295 0.00081 0.54113
 C47 C 0.54967 -0.00229 0.45478
 C48 C 0.44739 0.00285 0.45783
 C49 C 0.43985 0.03264 0.57332
 C50 C 0.39181 0.03051 0.59535
 C51 C 0.35420 -0.01103 0.58843
 C52 C 0.36558 -0.05095 0.55949
 C53 C 0.41365 -0.04881 0.53739
 C54 C 0.58888 0.04412 0.53517
 C55 C 0.63798 0.04639 0.55533
 C56 C 0.65157 0.00568 0.58202
 C57 C 0.61528 -0.03703 0.58850
 C58 C 0.56623 -0.03935 0.56834
 C59 C 0.58785 -0.04427 0.45844
 C60 C 0.63557 -0.04413 0.43587
 C61 C 0.64564 -0.00227 0.40920
 C62 C 0.60698 0.03905 0.40495
 C63 C 0.55927 0.03889 0.42745
 C64 C 0.43509 -0.03558 0.42827
 C65 C 0.38608 -0.03264 0.40816
 C66 C 0.34886 0.00901 0.41703
 C67 C 0.36145 0.04801 0.44613
 C68 C 0.41050 0.04510 0.46626
 H69 H 0.46805 0.06545 0.57877
 H70 H 0.38367 0.06157 0.61764
 H71 H 0.33731 -0.08351 0.55371
 H72 H 0.42178 -0.07988 0.51512
 H73 H 0.57888 0.07610 0.51488
 H74 H 0.66511 0.07993 0.54999
 H75 H 0.53890 -0.07287 0.57354
 H76 H 0.58075 -0.07694 0.47888
 H77 H 0.66484 -0.07650 0.43933
 H78 H 0.61355 0.07164 0.38445
 H79 H 0.53017 0.07144 0.42406
 H80 H 0.46318 -0.06824 0.42117
 H81 H 0.37704 -0.06295 0.38568
 H82 H 0.33356 0.08070 0.45336
 H83 H 0.41974 0.07577 0.48843
 H84 H 0.62509 -0.06867 0.60913
 C85 C 0.11353 0.01036 0.26577
 H86 H 0.11695 0.01263 0.23396
 C87 C 0.16003 0.01196 0.28886
 H88 H 0.19946 0.01528 0.27480
 C89 C 0.05796 0.00375 0.32299
 H90 H 0.01810 0.00138 0.33625
 C91 C 0.10346 0.00522 0.34719
 H92 H 0.09811 0.00337 0.37887
 N93 N 0.06381 0.00554 0.28302
 C94 C -0.03728 -0.06810 0.19177
 H95 H -0.06990 -0.03877 0.19048
 C96 C -0.03888 -0.11523 0.16830
 H97 H -0.07273 -0.12192 0.14879
 C98 C 0.04589 -0.09577 0.21966
 H99 H 0.07829 -0.08873 0.24027
 C100 C 0.04583 -0.14335 0.19678
 H101 H 0.07852 -0.17243 0.19958
 Zn102 Zn 0.00306 0.00396 0.24931
 N103 N 0.00489 -0.05908 0.21660
 C104 C 0.00498 0.06618 0.17873
 N105 N 0.00565 0.06771 0.21892
 C106 C 0.00911 0.11558 0.23927
 C107 C 0.01029 0.16464 0.21928
 C108 C 0.00595 0.11441 0.15755
 C109 C -0.07182 -0.04185 0.30198
 C110 C -0.11958 -0.04521 0.32429
 C111 C -0.14748 0.04107 0.29821
 C112 C -0.09919 0.04292 0.27651
 N113 N -0.06219 0.00211 0.27914
 H114 H 0.00340 0.02773 0.16304
 H115 H 0.01030 0.11554 0.27120
 H116 H 0.01223 0.20225 0.23608
 H117 H 0.00460 0.11294 0.12559
 H118 H -0.04216 -0.07422 0.30294
 H119 H -0.12643 -0.08023 0.34253
 H120 H -0.17658 0.07386 0.29603
 H121 H -0.09160 0.07681 0.25743
 C122 C 0.00307 -0.15340 0.17085
 C123 C 0.15516 0.00908 0.33000
 C124 C -0.15783 -0.00320 0.32256
 C125 C 0.00823 0.16428 0.17794
 C126 C -0.01063 0.10650 0.76606
 H127 H -0.01058 0.10892 0.73418
 C128 C -0.01358 0.15385 0.78913
 H129 H -0.01563 0.19294 0.77501
 C130 C -0.00815 0.05261 0.82341
 H131 H -0.00668 0.01306 0.83667
 C132 C -0.01101 0.09902 0.84761
 H133 H -0.01118 0.09472 0.87935
 N134 N -0.00713 0.05721 0.78341
 C135 C 0.07395 -0.04576 0.69486
 H136 H 0.04491 -0.07831 0.69167
 C137 C 0.12230 -0.04720 0.67306
 H138 H 0.13043 -0.08082 0.65285
 C139 C 0.09929 0.03743 0.72546
 H140 H 0.09069 0.06992 0.74637
 C141 C 0.14814 0.03748 0.70435
 H142 H 0.17627 0.07049 0.70896
 Zn143 Zn -0.00261 -0.00446 0.74946
 N144 N 0.06307 -0.00349 0.72007
 C145 C -0.05718 -0.00140 0.67561
 N146 N -0.06313 -0.00188 0.71561
 C147 C -0.11297 0.00130 0.73301
 C148 C -0.15945 0.00356 0.70999
 C149 C -0.10269 0.00082 0.65146
 C150 C 0.03872 -0.07869 0.80348
 C151 C 0.04043 -0.12617 0.82545
 C152 C -0.04369 -0.15406 0.79559
 C153 C -0.04385 -0.10608 0.77421
 N154 N -0.00336 -0.06923 0.77885
 H155 H -0.01725 -0.00254 0.66232
 H156 H -0.11648 0.00176 0.76489
 H157 H -0.19896 0.00557 0.72415
 H158 H -0.09729 0.00080 0.61973
 H159 H 0.07090 -0.04916 0.80609
 H160 H 0.07390 -0.13317 0.84518
 H161 H -0.07635 -0.18272 0.79160
 H162 H -0.07619 -0.09862 0.75375
 C163 C 0.15988 -0.00516 0.67772
 C164 C -0.01335 0.15031 0.83035
 C165 C -0.00125 -0.16430 0.82165
 C166 C -0.15449 0.00305 0.66876
 C167 C 0.00274 -0.26183 0.16621
 C168 C -0.03877 -0.28193 0.13543
 C169 C 0.00602 -0.29743 0.10853
 C170 C 0.04774 -0.28035 0.13696
 C171 C 0.00580 -0.24449 0.08899
 C172 C -0.04033 -0.22489 0.11705
 C173 C 0.00241 -0.20534 0.14712
 C174 C 0.04845 -0.22336 0.11859
 H175 H 0.00134 -0.27068 0.19825
 H176 H -0.07426 -0.30825 0.14150
 H177 H 0.08453 -0.30325 0.14528
 H178 H 0.00736 -0.23969 0.05643
 H179 H -0.07760 -0.20360 0.10762
 H180 H 0.08531 -0.20000 0.11075
 C181 C 0.04800 0.23145 0.12286
 C182 C 0.00042 0.24829 0.09620
 C183 C 0.00290 0.30615 0.11389
 C184 C 0.05049 0.28990 0.14025
 C185 C -0.03801 0.29097 0.14651
 C186 C -0.04043 0.23260 0.12904
 C187 C 0.00710 0.21638 0.15546
 C188 C 0.00962 0.27430 0.17312
 H189 H 0.08349 0.20655 0.11335
 H190 H -0.00348 0.23801 0.06432
 H191 H 0.08796 0.31394 0.14469
 H192 H -0.07391 0.31462 0.15680
 H193 H -0.07791 0.20857 0.12458
 H194 H 0.01359 0.28615 0.20470
 C195 C 0.25300 -0.05342 0.65515
 C196 C 0.25600 -0.05330 0.60945
 C197 C 0.30212 -0.01141 0.61173
 C198 C 0.29969 -0.01163 0.65713
 C199 C 0.26101 0.03559 0.61090
 C200 C 0.21435 -0.00621 0.60890
 C201 C 0.21193 -0.00635 0.65431
 C202 C 0.25812 0.03548 0.65654
 H203 H 0.24934 -0.09003 0.67368
 H204 H 0.25454 -0.09014 0.59022
 H205 H 0.33526 -0.01403 0.67683
 H206 H 0.26464 0.07220 0.59237
 H207 H 0.17877 -0.00380 0.58921
 H208 H 0.25999 0.07236 0.67569
 C209 C -0.24683 0.05064 0.64678
 C210 C -0.25074 0.05003 0.60114
 C211 C -0.29574 0.00703 0.60383
 C212 C -0.29235 0.00771 0.64918
 C213 C -0.25348 -0.03893 0.60104
 C214 C -0.20790 0.00399 0.59860
 C215 C -0.20460 0.00466 0.64400
 C216 C -0.24960 -0.03826 0.64662
 H217 H -0.24367 0.08756 0.66582
 H218 H -0.25056 0.08675 0.58259
 H219 H -0.32753 0.00932 0.66985
 H220 H -0.25666 -0.07586 0.58200
 H221 H -0.17347 0.00237 0.57729
 H222 H -0.24873 -0.07469 0.66548
 C223 C 0.00156 -0.21570 0.89075
 C224 C -0.04060 -0.26212 0.89055
 C225 C 0.00588 -0.30381 0.88822
 C226 C 0.04814 -0.25793 0.88872
 C227 C 0.00458 -0.30343 0.84283
 C228 C -0.04200 -0.26129 0.84490
 C229 C 0.00020 -0.21535 0.84534
 C230 C 0.04675 -0.25699 0.84302
 H231 H 0.00013 -0.17914 0.91032
 H232 H -0.07653 -0.26454 0.91042
 H233 H 0.08550 -0.25596 0.90662
 H234 H 0.00601 -0.33998 0.82325
 H235 H -0.07947 -0.26364 0.82714
 H236 H 0.08267 -0.25453 0.82315
 C237 C -0.06031 0.24400 0.85341
 C238 C -0.05920 0.24963 0.89904
 C239 C -0.01595 0.29422 0.89526
 C240 C -0.01713 0.28915 0.84993
 C241 C 0.02959 0.25158 0.89699
 C242 C -0.01358 0.20638 0.90051
 C243 C -0.01474 0.20140 0.85514
 C244 C 0.02842 0.24603 0.85144
 H245 H -0.09736 0.24043 0.83526
 H246 H -0.09563 0.25056 0.91850
 H247 H -0.01865 0.32364 0.82926
 H248 H 0.06665 0.25514 0.91513
 H249 H -0.01204 0.17266 0.92181
 H250 H 0.06457 0.24415 0.83171
 C251 C -0.26598 -0.00404 0.32712
 C252 C -0.28516 -0.04757 0.35663
 C253 C -0.30232 -0.00205 0.38581
 C254 C -0.28365 0.04149 0.35653
 C255 C -0.24597 -0.00281 0.40484
 C256 C -0.22821 -0.04834 0.37539
 C257 C -0.20965 -0.00476 0.34612
 C258 C -0.22681 0.04068 0.37534
 H259 H -0.27381 -0.00471 0.29489
 H260 H -0.30972 -0.08386 0.34903
 H261 H -0.30566 0.07888 0.34825
 H262 H -0.23817 -0.00213 0.43707
 H263 H -0.20576 -0.08556 0.38349
 H264 H -0.20228 0.07699 0.38298
 C265 C 0.24655 0.05653 0.35465
 C266 C 0.25039 0.05319 0.40018
 C267 C 0.29625 0.01104 0.39520
 C268 C 0.29293 0.01444 0.34996
 C269 C 0.25492 -0.03558 0.39538
 C270 C 0.20848 0.00650 0.40011
 C271 C 0.20525 0.00989 0.35482
 C272 C 0.25111 -0.03218 0.34991
 H273 H 0.24268 0.09449 0.33766
 H274 H 0.24944 0.08871 0.42073
 H275 H 0.32811 0.01777 0.32947
 H276 H 0.25880 -0.07355 0.41236
 H277 H 0.17409 0.00312 0.42126
 H278 H 0.25099 -0.06741 0.32906
   
