data_POSCAR
  _audit_creation_date              2014-09-24
  _audit_creation_method            'ToBaCCo'
  _symmetry_space_group_name_H-M    'P1'
  _symmetry_Int_Tables_number       1
  _symmetry_cell_setting            triclinic
  loop_
  _symmetry_equiv_pos_as_xyz
 x,y,z
_cell_length_a 34.9733
_cell_length_b 34.9709
_cell_length_c 35.0420
_cell_angle_alpha 101.411500
_cell_angle_beta 78.407800
_cell_angle_gamma 104.528400
loop_
  _atom_site_label
  _atom_site_type_symbol
  _atom_site_fract_x
  _atom_site_fract_y
  _atom_site_fract_z
O1 O 0.56022 0.53034 0.03677
 O2 O 0.45405 0.51612 0.02952
 O3 O 0.49977 0.46946 0.03593
 O4 O 0.51542 0.57613 0.02784
 O5 O 0.52998 0.56131 -0.03694
 O6 O 0.51368 0.45508 -0.02892
 O7 O 0.46809 0.50188 -0.03530
 O8 O 0.57469 0.51544 -0.02800
 Cu9 Cu 0.50585 0.52438 0.03901
 Cu10 Cu 0.52294 0.50688 -0.03879
 C11 C 0.58550 0.52519 0.00577
 C12 C 0.44297 0.50719 -0.00409
 C13 C 0.50456 0.44422 0.00482
 C14 C 0.52535 0.58677 -0.00607
 O15 O 0.01935 0.55606 0.50755
 O16 O 0.02868 0.45145 0.49611
 O17 O 0.02168 0.49738 0.44880
 O18 O 0.02866 0.51017 0.55393
 O19 O -0.03701 0.49027 0.56810
 O20 O -0.04407 0.47810 0.46252
 O21 O -0.03710 0.43212 0.50975
 O22 O -0.04629 0.53644 0.52177
 Cu23 Cu 0.03117 0.50584 0.50014
 Cu24 Cu -0.04774 0.48246 0.51688
 C25 C -0.01517 0.56405 0.51655
 C26 C -0.00267 0.42408 0.50150
 C27 C -0.01229 0.48556 0.43771
 C28 C -0.00277 0.50161 0.57879
 O29 O 0.49880 0.02231 0.55110
 O30 O 0.50981 0.02816 0.44574
 O31 O 0.45204 0.02924 0.50466
 O32 O 0.55655 0.01904 0.49130
 O33 O 0.53628 -0.04659 0.47815
 O34 O 0.43208 -0.03650 0.49207
 O35 O 0.48929 -0.03747 0.43266
 O36 O 0.47889 -0.04337 0.53842
 Cu37 Cu 0.50644 0.03125 0.49955
 Cu38 Cu 0.48229 -0.04760 0.48409
 C39 C 0.48698 -0.01146 0.56281
 C40 C 0.50065 -0.00344 0.42140
 C41 C 0.42437 -0.00195 0.50010
 C42 C 0.56413 -0.01561 0.48251
 C43 C 0.50758 -0.07072 -0.08809
 C44 C 0.49634 -0.03647 -0.09324
 C45 C 0.49273 -0.00578 -0.06090
 C46 C 0.50229 -0.00802 -0.02421
 C47 C 0.51523 -0.04210 -0.02070
 C48 C 0.51650 -0.07411 -0.05183
 C49 C 0.49860 0.02462 0.01049
 C50 C 0.49230 0.01619 0.04932
 C51 C 0.49147 0.04662 0.08207
 C52 C 0.49381 0.08566 0.07608
 C53 C 0.49830 0.09481 0.03795
 C54 C 0.50179 0.06438 0.00533
 H55 H 0.50936 -0.09497 -0.11248
 H56 H 0.48198 0.01951 -0.06445
 H57 H 0.52450 -0.04404 0.00633
 H58 H 0.48801 -0.01417 0.05444
 H59 H 0.49234 0.10912 0.10128
 H60 H 0.50747 0.07204 -0.02399
 C61 C -0.07226 0.50503 1.08683
 C62 C -0.07531 0.51455 1.05071
 C63 C -0.04272 0.51450 1.01993
 C64 C -0.00832 0.50221 1.02365
 C65 C -0.00643 0.49204 1.06016
 C66 C -0.03776 0.49441 1.09216
 C67 C 0.02501 0.49974 0.98934
 C68 C 0.06475 0.50358 0.99494
 C69 C 0.09576 0.50109 0.96260
 C70 C 0.08716 0.49697 0.92433
 C71 C 0.04813 0.49394 0.91795
 C72 C 0.01720 0.49377 0.95039
 H73 H -0.09694 0.50589 1.11098
 H74 H -0.04446 0.52419 0.99303
 H75 H 0.01909 0.48176 1.06382
 H76 H 0.07193 0.50897 1.02440
 H77 H 0.11100 0.49623 0.89933
 H78 H -0.01310 0.48893 0.94494
 C79 C -0.09194 -0.09367 0.49893
 C80 C -0.05600 -0.09729 0.50842
 C81 C -0.02407 -0.06364 0.51032
 C82 C -0.02644 -0.02733 0.50010
 C83 C -0.06247 -0.02515 0.48926
 C84 C -0.09575 -0.05753 0.49001
 C85 C 0.00845 0.00805 0.50071
 C86 C 0.00267 0.04738 0.50556
 C87 C 0.03524 0.08046 0.50471
 C88 C 0.07392 0.07435 0.50174
 C89 C 0.08055 0.03580 0.49823
 C90 C 0.04792 0.00286 0.49637
 H91 H -0.11708 -0.11910 0.49850
 H92 H 0.00255 -0.06602 0.52000
 H93 H -0.06494 0.00168 0.47999
 H94 H -0.02717 0.05268 0.51027
 H95 H 0.09906 0.09978 0.50211
 H96 H 0.05368 -0.02681 0.49125
 N97 N -0.30695 0.52551 0.98079
 C98 C -0.29553 0.53546 1.01689
 N99 N -0.32303 0.54269 1.04912
 N100 N -0.36081 0.53999 1.04542
 C101 C -0.37242 0.52988 1.00936
 N102 N -0.34478 0.52282 0.97707
 C103 C -0.25553 0.53594 1.02140
 C104 C -0.22255 0.53521 1.02615
 C105 C -0.18410 0.53284 1.03280
 N106 N -0.17920 0.52851 1.06896
 N107 N -0.14436 0.52367 1.07482
 C108 C -0.11309 0.52296 1.04474
 N109 N -0.11812 0.52766 1.00857
 N110 N -0.15300 0.53248 1.00269
 N111 N 0.35269 0.49456 0.95526
 C112 C 0.32604 0.50157 0.98832
 N113 N 0.33832 0.50960 1.02394
 N114 N 0.37615 0.51084 1.02640
 C115 C 0.40305 0.50410 0.99333
 N116 N 0.39054 0.49580 0.95770
 C117 C 0.28564 0.50160 0.98551
 C118 C 0.25196 0.50193 0.98254
 C119 C 0.21221 0.50237 0.97790
 N120 N 0.18280 0.50434 1.00955
 N121 N 0.14589 0.50435 1.00485
 C122 C 0.13708 0.50248 0.96835
 N123 N 0.16680 0.50063 0.93683
 N124 N 0.20365 0.50062 0.94150
 N125 N 0.00948 -0.32929 0.51607
 C126 C -0.02734 -0.32074 0.52479
 N127 N -0.05996 -0.35061 0.53130
 N128 N -0.05593 -0.38791 0.52908
 C129 C -0.01913 -0.39669 0.52016
 N130 N 0.01353 -0.36661 0.51385
 C131 C -0.03196 -0.28098 0.52528
 C132 C -0.03630 -0.24795 0.52477
 C133 C -0.04187 -0.20908 0.52294
 N134 N -0.07751 -0.20474 0.51688
 N135 N -0.08221 -0.16910 0.51309
 C136 C -0.05145 -0.13645 0.51519
 N137 N -0.01584 -0.14099 0.52153
 N138 N -0.01112 -0.17664 0.52532
 N139 N 0.04057 0.33637 0.49245
 C140 C 0.00739 0.30727 0.49973
 N141 N -0.02910 0.31635 0.50661
 N142 N -0.03230 0.35348 0.50646
 C143 C 0.00087 0.38276 0.49937
 N144 N 0.03738 0.37352 0.49230
 C145 C 0.01094 0.26763 0.50121
 C146 C 0.01436 0.23453 0.50269
 C147 C 0.01924 0.19541 0.50439
 N148 N -0.01254 0.16386 0.50502
 N149 N -0.00763 0.12743 0.50575
 C150 C 0.02921 0.12126 0.50595
 N151 N 0.06085 0.15314 0.50551
 N152 N 0.05597 0.18952 0.50478
 N153 N 0.46882 -0.05100 -0.34585
 C154 C 0.47810 -0.01717 -0.31976
 N155 N 0.48992 0.01857 -0.33290
 N156 N 0.49240 0.02042 -0.37096
 C157 C 0.48329 -0.01342 -0.39726
 N158 N 0.47130 -0.04917 -0.38393
 C159 C 0.47753 -0.01942 -0.27917
 C160 C 0.47815 -0.02190 -0.24547
 C161 C 0.48032 -0.02594 -0.20602
 N162 N 0.47900 0.00519 -0.17610
 N163 N 0.48327 0.00172 -0.14004
 C164 C 0.48910 -0.03297 -0.13263
 N165 N 0.49012 -0.06405 -0.16277
 N166 N 0.48583 -0.06062 -0.19874
 N167 N 0.51167 0.03984 0.33131
 C168 C 0.49913 0.00714 0.30513
 N169 N 0.48823 -0.02934 0.31679
 N170 N 0.48955 -0.03294 0.35366
 C171 C 0.50188 -0.00016 0.38003
 N172 N 0.51298 0.03625 0.36813
 C173 C 0.49628 0.01153 0.26599
 C174 C 0.49392 0.01639 0.23350
 C175 C 0.49151 0.02345 0.19516
 N176 N 0.49175 -0.00623 0.16376
 N177 N 0.49093 0.00092 0.12798
 C178 C 0.48978 0.03796 0.12229
 N179 N 0.48930 0.06747 0.15401
 N180 N 0.49012 0.06035 0.18976
 N181 N 0.54443 -0.32183 -0.05012
 C182 C 0.53768 -0.29413 -0.01803
 N183 N 0.52759 -0.30538 0.01821
 N184 N 0.52429 -0.34326 0.02220
 C185 C 0.53085 -0.37111 -0.00996
 N186 N 0.54111 -0.35967 -0.04615
 C187 C 0.53859 -0.25411 -0.02280
 C188 C 0.53808 -0.22109 -0.02765
 C189 C 0.53579 -0.18261 -0.03427
 N190 N 0.53462 -0.15188 -0.00399
 N191 N 0.52956 -0.11705 -0.00978
 C192 C 0.52539 -0.11172 -0.04602
 N193 N 0.52694 -0.14261 -0.07628
 N194 N 0.53202 -0.17740 -0.07052
 N195 N 0.49117 0.35190 0.04614
 C196 C 0.49770 0.32511 0.01314
 N197 N 0.50553 0.33726 -0.02258
 N198 N 0.50700 0.37511 -0.02521
 C199 C 0.50066 0.40207 0.00778
 N200 N 0.49264 0.38976 0.04352
 C201 C 0.49762 0.28473 0.01610
 C202 C 0.49795 0.25105 0.01905
 C203 C 0.49850 0.21127 0.02351
 N204 N 0.50156 0.18238 -0.00836
 N205 N 0.50186 0.14546 -0.00391
 C206 C 0.49918 0.13613 0.03256
 N207 N 0.49622 0.16533 0.06431
 N208 N 0.49592 0.20219 0.05988
 N209 N -0.34891 -0.06142 0.46675
 C210 C -0.31875 -0.02899 0.47271
 N211 N -0.32694 0.00796 0.48125
 N212 N -0.36420 0.01233 0.48382
 C213 C -0.39451 -0.02012 0.47802
 N214 N -0.38616 -0.05706 0.46933
 C215 C -0.27908 -0.03392 0.47200
 C216 C -0.24609 -0.03838 0.47245
 C217 C -0.20724 -0.04388 0.47434
 N218 N -0.20278 -0.07964 0.48001
 N219 N -0.16720 -0.08420 0.48411
 C220 C -0.13475 -0.05318 0.48273
 N221 N -0.13941 -0.01746 0.47677
 N222 N -0.17499 -0.01287 0.47267
 N223 N 0.33701 0.04196 0.50984
 C224 C 0.30758 0.00892 0.50339
 N225 N 0.31633 -0.02767 0.49692
 N226 N 0.35347 -0.03112 0.49664
 C227 C 0.38307 0.00190 0.50288
 N228 N 0.37416 0.03852 0.50957
 C229 C 0.26798 0.01269 0.50220
 C230 C 0.23487 0.01614 0.50085
 C231 C 0.19570 0.02082 0.49921
 N232 N 0.16454 -0.01127 0.49743
 N233 N 0.12806 -0.00664 0.49655
 C234 C 0.12144 0.03022 0.49734
 N235 N 0.15292 0.06220 0.49895
 N236 N 0.18937 0.05760 0.49983
 N237 N -0.05282 0.46647 1.34487
 C238 C -0.01909 0.47511 1.31832
 N239 N 0.01685 0.48667 1.33096
 N240 N 0.01900 0.48952 1.36898
 C241 C -0.01473 0.48103 1.39567
 N242 N -0.05069 0.46932 1.38291
 C243 C -0.02159 0.47432 1.27780
 C244 C -0.02412 0.47488 1.24413
 C245 C -0.02801 0.47713 1.20469
 N246 N 0.00355 0.47687 1.17502
 N247 N 0.00031 0.48148 1.13900
 C248 C -0.03457 0.48663 1.13142
 N249 N -0.06609 0.48657 1.16130
 N250 N -0.06289 0.48193 1.19724
 N251 N -0.02767 0.49069 0.68385
 C252 C 0.00904 0.50145 0.69491
 N253 N 0.04156 0.51349 0.66818
 N254 N 0.03759 0.51442 0.63139
 C255 C 0.00095 0.50343 0.62010
 N256 N -0.03165 0.49162 0.64701
 C257 C 0.01381 0.49889 0.73396
 C258 C 0.01881 0.49668 0.76642
 C259 C 0.02580 0.49436 0.80476
 N260 N 0.06296 0.49422 0.81044
 N261 N 0.06987 0.49332 0.84623
 C262 C 0.03988 0.49246 0.87767
 N263 N 0.00262 0.49237 0.87169
 N264 N -0.00432 0.49328 0.83589
   
