data_POSCAR
  _audit_creation_date              2014-09-24
  _audit_creation_method            'ToBaCCo'
  _symmetry_space_group_name_H-M    'P1'
  _symmetry_Int_Tables_number       1
  _symmetry_cell_setting            triclinic
  loop_
  _symmetry_equiv_pos_as_xyz
 x,y,z
_cell_length_a 31.1484
_cell_length_b 32.7445
_cell_length_c 33.7263
_cell_angle_alpha 87.546700
_cell_angle_beta 89.899900
_cell_angle_gamma 91.759700
loop_
  _atom_site_label
  _atom_site_type_symbol
  _atom_site_fract_x
  _atom_site_fract_y
  _atom_site_fract_z
C1 C 0.19775 1.22590 0.19954
 C2 C 0.17900 1.26004 0.18074
 C3 C 0.19372 1.27546 0.14316
 C4 C 0.22828 1.25632 0.12533
 C5 C 0.24733 1.22229 0.14384
 C6 C 0.23196 1.20693 0.18103
 C7 C 0.18204 1.21002 0.23627
 C8 C 0.19985 1.17492 0.25489
 C9 C 0.23464 1.15688 0.23628
 C10 C 0.25055 1.17236 0.19952
 C11 C 0.28425 1.15326 0.18063
 C12 C 0.29918 1.16793 0.14305
 C13 C 0.28097 1.20286 0.12528
 H14 H 0.15261 1.27358 0.19564
 H15 H 0.24014 1.26759 0.09650
 H16 H 0.15576 1.22533 0.24951
 H17 H 0.24890 1.13000 0.25004
 H18 H 0.29871 1.12716 0.19545
 H19 H 0.29247 1.21446 0.09645
 C20 C 0.85599 0.78305 0.24358
 C21 C 0.87543 0.74970 0.22691
 C22 C 0.85617 0.72932 0.19524
 C23 C 0.81611 0.74278 0.18093
 C24 C 0.79644 0.77625 0.19726
 C25 C 0.81646 0.79648 0.22867
 C26 C 0.87603 0.80361 0.27448
 C27 C 0.85736 0.83771 0.29095
 C28 C 0.81742 0.85067 0.27592
 C29 C 0.79713 0.83040 0.24488
 C30 C 0.75819 0.84417 0.22918
 C31 C 0.73844 0.82485 0.19728
 C32 C 0.75738 0.79025 0.18205
 H33 H 0.90613 0.73990 0.23842
 H34 H 0.79991 0.72821 0.15679
 H35 H 0.90670 0.79316 0.28549
 H36 H 0.80191 0.87678 0.28734
 H37 H 0.74362 0.87064 0.24125
 H38 H 0.74202 0.77398 0.15842
 C39 C 0.83153 1.21781 -0.21697
 C40 C 0.85175 1.25357 -0.20360
 C41 C 0.84028 1.26947 -0.16715
 C42 C 0.80791 1.24898 -0.14397
 C43 C 0.78723 1.21340 -0.15707
 C44 C 0.79912 1.19767 -0.19362
 C45 C 0.84405 1.20141 -0.25285
 C46 C 0.82489 1.16454 -0.26571
 C47 C 0.79226 1.14510 -0.24212
 C48 C 0.77932 1.16126 -0.20633
 C49 C 0.74759 1.14095 -0.18259
 C50 C 0.73529 1.15665 -0.14614
 C51 C 0.75551 1.19278 -0.13365
 H52 H 0.87698 1.26886 -0.22139
 H53 H 0.79939 1.25958 -0.11517
 H54 H 0.86929 1.21744 -0.26973
 H55 H 0.77713 1.11678 -0.25138
 H56 H 0.73365 1.11240 -0.19224
 H57 H 0.74661 1.20478 -0.10540
 C58 C 0.13884 0.78088 -0.24304
 C59 C 0.11784 0.74666 -0.22455
 C60 C 0.13318 0.72889 -0.18872
 C61 C 0.17064 0.74624 -0.17171
 C62 C 0.19190 0.78058 -0.18988
 C63 C 0.17600 0.79790 -0.22569
 C64 C 0.12262 0.79891 -0.27818
 C65 C 0.14271 0.83402 -0.29614
 C66 C 0.18047 0.85026 -0.27908
 C67 C 0.19686 0.83271 -0.24380
 C68 C 0.23326 0.85006 -0.22589
 C69 C 0.24911 0.83344 -0.18993
 C70 C 0.22822 0.79849 -0.17213
 H71 H 0.08904 0.73401 -0.23804
 H72 H 0.18335 0.73419 -0.14400
 H73 H 0.09366 0.78609 -0.29120
 H74 H 0.19738 0.87648 -0.29290
 H75 H 0.24893 0.87714 -0.23963
 H76 H 0.23905 0.78571 -0.14394
 C77 C 0.56527 1.00824 -0.01865
 H78 H 0.56958 1.00706 0.01320
 C79 C 0.59333 1.03225 -0.04286
 H80 H 0.61924 1.04894 -0.02894
 C81 C 0.52749 0.98538 -0.07482
 H82 H 0.50245 0.96637 -0.08726
 C83 C 0.55475 1.00901 -0.10015
 H84 H 0.55003 1.00826 -0.13193
 N85 N 0.53300 0.98563 -0.03484
 C86 C 0.43729 0.96322 0.05870
 H87 H 0.43474 0.93018 0.05910
 C88 C 0.41075 0.98486 0.08313
 H89 H 0.38785 0.96820 0.10242
 C90 C 0.46964 1.02496 0.03236
 H91 H 0.49228 1.04051 0.01219
 C92 C 0.44376 1.04786 0.05634
 H93 H 0.44795 1.08076 0.05471
 Zn94 Zn 0.49864 0.95165 0.00013
 N95 N 0.46604 0.98343 0.03402
 C96 C 0.53789 0.91874 0.07017
 N97 N 0.53650 0.91833 0.02989
 C98 C 0.56444 0.89620 0.00926
 C99 C 0.59556 0.87348 0.02914
 C100 C 0.56850 0.89638 0.09130
 C101 C 0.42837 0.93957 -0.04942
 C102 C 0.39750 0.91795 -0.07073
 C103 C 0.43008 0.85504 -0.04846
 C104 C 0.46043 0.87792 -0.02760
 N105 N 0.45928 0.91945 -0.02880
 H106 H 0.51580 0.93696 0.08602
 H107 H 0.56299 0.89686 -0.02281
 H108 H 0.61790 0.85648 0.01211
 H109 H 0.56845 0.89712 0.12329
 H110 H 0.42759 0.97256 -0.04903
 H111 H 0.37279 0.93485 -0.08607
 H112 H 0.43134 0.82199 -0.04719
 H113 H 0.48457 0.86242 -0.01021
 C114 C 0.41334 1.02775 0.08188
 C115 C 0.58812 1.03299 -0.08435
 C116 C 0.39837 0.87502 -0.07074
 C117 C 0.59842 0.87386 0.07063
 C118 C -0.02612 0.56328 1.06452
 H119 H 0.00856 0.56331 1.06641
 C120 C -0.04908 0.59169 1.08508
 H121 H -0.03142 0.61362 1.10230
 C122 C -0.09042 0.53607 1.03736
 H123 H -0.10638 0.51517 1.01790
 C124 C -0.11461 0.56398 1.05730
 H125 H -0.14913 0.56382 1.05337
 N126 N -0.04699 0.53598 1.04153
 C127 C 0.04383 0.43858 1.02889
 H128 H 0.04439 0.43758 0.99687
 C129 C 0.06745 0.41088 1.05184
 H130 H 0.08553 0.38840 1.03691
 C131 C 0.01689 0.46773 1.08665
 H132 H -0.00362 0.48929 1.10010
 C133 C 0.03994 0.44047 1.11079
 H134 H 0.03730 0.44160 1.14275
 Zn135 Zn -0.01339 0.50047 1.01232
 N136 N 0.01946 0.46645 1.04647
 C137 C 0.06634 0.53382 0.98317
 N138 N 0.02296 0.53387 0.97868
 C139 C 0.00419 0.56050 0.95251
 C140 C 0.02927 0.58854 0.92945
 C141 C 0.09262 0.56140 0.96080
 C142 C -0.07657 0.43990 1.00437
 C143 C -0.10350 0.41214 0.98545
 C144 C -0.07261 0.43602 0.92256
 C145 C -0.04656 0.46380 0.94273
 N146 N -0.04917 0.46530 0.98291
 H147 H 0.08062 0.51330 1.00494
 H148 H -0.03046 0.56059 0.95032
 H149 H 0.01327 0.61021 0.90993
 H150 H 0.12706 0.56144 0.96525
 H151 H -0.07749 0.44134 1.03635
 H152 H -0.12527 0.39226 1.00303
 H153 H -0.07044 0.43562 0.89056
 H154 H -0.02403 0.48379 0.92630
 C155 C 0.06584 0.41175 1.09348
 C156 C -0.09409 0.59213 1.08169
 C157 C -0.10141 0.40960 0.94414
 C158 C 0.07424 0.58929 0.93358
 C159 C 1.06589 0.03502 0.54825
 H160 H 1.06718 0.06810 0.54717
 C161 C 1.09138 0.01331 0.57524
 H162 H 1.11248 0.02997 0.59478
 C163 C 1.03558 -0.02671 0.52501
 H164 H 1.01315 -0.04218 0.50594
 C165 C 1.06056 -0.04967 0.55156
 H166 H 1.05756 -0.08262 0.55145
 N167 N 1.03855 0.01486 0.52396
 C168 C 1.00997 0.10509 0.42975
 H169 H 0.97537 0.10520 0.43263
 C170 C 1.03052 0.12939 0.40006
 H171 H 1.01154 0.14836 0.38017
 C172 C 1.07656 0.07941 0.45172
 H173 H 1.09427 0.05950 0.47165
 C174 C 1.09845 0.10304 0.42217
 H175 H 1.13304 0.10168 0.42046
 Zn176 Zn 1.00158 0.04706 0.49209
 N177 N 1.03309 0.08088 0.45491
 C178 C 0.97483 0.12053 0.52540
 N179 N 0.97065 0.07903 0.52707
 C180 C 0.94735 0.05881 0.55628
 C181 C 0.92697 0.08040 0.58536
 C182 C 0.95504 0.14334 0.55391
 C183 C 0.98267 -0.00961 0.43516
 C184 C 0.95736 -0.03351 0.41051
 C185 C 0.89412 -0.00872 0.44207
 C186 C 0.92071 0.01465 0.46627
 N187 N 0.96415 0.01358 0.46253
 H188 H 0.99457 0.13602 0.50273
 H189 H 0.94558 0.02573 0.55754
 H190 H 0.91000 0.06329 0.60894
 H191 H 0.95931 0.17633 0.55256
 H192 H 1.01727 -0.00900 0.43213
 H193 H 0.97308 -0.05070 0.38830
 H194 H 0.85958 -0.00730 0.44510
 H195 H 0.90657 0.03418 0.48741
 C196 C 1.07519 0.12812 0.39556
 C197 C 1.08841 -0.02956 0.57774
 C198 C 0.91235 -0.03341 0.41394
 C199 C 0.93079 0.12337 0.58444
 C200 C 0.17482 0.30837 1.12189
 C201 C 0.14146 0.32959 1.13428
 C202 C 0.12239 0.36122 1.10795
 C203 C 0.08840 0.38179 1.11957
 H204 H 0.12689 0.32359 1.16307
 H205 H 0.13615 0.36718 1.07872
 H206 H 0.18779 0.31677 1.09267
 H207 H 0.07652 0.37657 1.14966
 C208 C -0.12146 0.69711 1.17885
 C209 C -0.13482 0.67520 1.14820
 C210 C -0.10743 0.64393 1.13198
 C211 C -0.12045 0.62266 1.10095
 H212 H -0.16529 0.68024 1.13393
 H213 H -0.07654 0.63863 1.14556
 H214 H -0.09048 0.68989 1.19160
 H215 H -0.15235 0.62755 1.08915
 C216 C -0.13521 0.30584 0.84667
 C217 C -0.14786 0.32848 0.87644
 C218 C -0.12000 0.36164 0.89124
 C219 C -0.12983 0.37925 0.92502
 H220 H -0.17847 0.32228 0.89097
 H221 H -0.09020 0.36971 0.87584
 H222 H -0.10494 0.31397 0.83200
 H223 H -0.15860 0.36871 0.94103
 C224 C 0.10946 0.69539 0.82895
 C225 C 0.12040 0.67419 0.86218
 C226 C 0.09153 0.64163 0.87958
 C227 C 0.10266 0.62031 0.91252
 H228 H 0.15008 0.68058 0.87751
 H229 H 0.06095 0.63560 0.86545
 H230 H 0.07969 0.68616 0.81471
 H231 H 0.13433 0.62588 0.92489
 C232 C 1.18383 0.15620 0.29069
 C233 C 1.14938 0.16802 0.31074
 C234 C 1.13312 0.14406 0.34593
 C235 C 1.09587 0.15313 0.36280
 H236 H 1.13144 0.19425 0.30099
 H237 H 1.15051 0.11763 0.35646
 H238 H 1.19977 0.12923 0.30234
 H239 H 1.07811 0.17852 0.35019
 C240 C 1.12270 -0.14708 0.66783
 C241 C 1.13078 -0.10848 0.65450
 C242 C 1.10668 -0.09052 0.62081
 C243 C 1.11402 -0.05148 0.60854
 H244 H 1.15363 -0.08897 0.66943
 H245 H 1.08163 -0.10899 0.60761
 H246 H 1.09832 -0.16506 0.65290
 H247 H 1.13864 -0.03381 0.62351
 C248 C 0.88034 -0.14218 0.32088
 C249 C 0.86731 -0.10947 0.33980
 C250 C 0.89590 -0.08941 0.36837
 C251 C 0.88372 -0.05649 0.38721
 H252 H 0.83643 -0.09636 0.33417
 H253 H 0.92739 -0.10163 0.37358
 H254 H 0.91158 -0.15376 0.32891
 H255 H 0.85127 -0.04604 0.38304
 C256 C 0.83769 0.14529 0.69968
 C257 C 0.86829 0.15945 0.67410
 C258 C 0.88156 0.13469 0.64096
 C259 C 0.91300 0.14806 0.61611
 H260 H 0.88491 0.18848 0.67755
 H261 H 0.86591 0.10510 0.63754
 H262 H 0.82211 0.11611 0.69360
 H263 H 0.92674 0.17858 0.61928
 C264 C 0.33350 1.14776 0.12120
 C265 C 0.34324 1.10844 0.12732
 C266 C 0.37538 1.08957 0.10235
 C267 C 0.38372 1.04981 0.10741
 H268 H 0.32631 1.08934 0.14957
 H269 H 0.39078 1.10823 0.07889
 H270 H 0.34976 1.16545 0.09741
 H271 H 0.36641 1.03193 0.13044
 C272 C 0.70325 1.13540 -0.11921
 C273 C 0.67464 1.10685 -0.13049
 C274 C 0.64508 1.08619 -0.10137
 C275 C 0.61762 1.05645 -0.11216
 H276 H 0.67271 1.09841 -0.16110
 H277 H 0.64623 1.09555 -0.07102
 H278 H 0.70297 1.14402 -0.08852
 H279 H 0.61649 1.04893 -0.14316
 C280 C 0.28569 0.85526 -0.17099
 C281 C 0.30922 0.83959 -0.14117
 C282 C 0.34288 0.86487 -0.12257
 C283 C 0.36578 0.85019 -0.09188
 H284 H 0.30370 0.80846 -0.12990
 H285 H 0.34857 0.89591 -0.13414
 H286 H 0.29347 0.88617 -0.18215
 H287 H 0.36083 0.81842 -0.08205
 C288 C 0.69846 0.84216 0.18058
 C289 C 0.68416 0.83556 0.14390
 C290 C 0.64646 0.85671 0.12781
 C291 C 0.63339 0.85107 0.09057
 H292 H 0.70129 0.81611 0.12458
 H293 H 0.63094 0.87821 0.14613
 H294 H 0.68146 0.86326 0.19841
 H295 H 0.65083 0.83013 0.07290
   
