data_POSCAR
  _audit_creation_date              2014-09-24
  _audit_creation_method            'ToBaCCo'
  _symmetry_space_group_name_H-M    'P1'
  _symmetry_Int_Tables_number       1
  _symmetry_cell_setting            triclinic
  loop_
  _symmetry_equiv_pos_as_xyz
 x,y,z
_cell_length_a 14.7335
_cell_length_b 14.9375
_cell_length_c 24.7759
_cell_angle_alpha 84.160200
_cell_angle_beta 90.606100
_cell_angle_gamma 92.142300
loop_
  _atom_site_label
  _atom_site_type_symbol
  _atom_site_fract_x
  _atom_site_fract_y
  _atom_site_fract_z
O1 O -0.10736 0.57228 0.94656
 O2 O -0.09840 0.38557 1.05548
 O3 O -0.09031 0.56089 1.05015
 O4 O -0.10106 0.39453 0.94880
 O5 O 0.04840 0.40061 0.94592
 O6 O 0.05949 0.56512 1.04532
 O7 O 0.05076 0.39342 1.05287
 O8 O 0.04256 0.57715 0.94260
 Cu9 Cu -0.11451 0.47666 1.00034
 Cu10 Cu 0.06506 0.48300 0.99561
 C11 C -0.03360 0.60925 0.92811
 C12 C -0.02225 0.36017 1.07472
 C13 C -0.01306 0.59353 1.06332
 C14 C -0.02726 0.36957 0.92981
 O15 O 0.61736 0.05567 0.43901
 O16 O 0.43108 0.08913 0.53183
 O17 O 0.60348 0.07858 0.54155
 O18 O 0.43816 0.06136 0.43011
 O19 O 0.42358 -0.08540 0.45265
 O20 O 0.59112 -0.06844 0.56217
 O21 O 0.41821 -0.05771 0.55392
 O22 O 0.60369 -0.09039 0.46067
 Cu23 Cu 0.52405 0.08585 0.48268
 Cu24 Cu 0.50770 -0.09049 0.50869
 C25 C 0.64580 -0.02295 0.43586
 C26 C 0.39341 0.02150 0.55903
 C27 C 0.62419 0.00806 0.57163
 C28 C 0.40061 -0.01480 0.42375
 C29 C 0.00294 -0.12470 0.21170
 C30 C -0.07089 -0.13039 0.25584
 C31 C -0.06440 -0.06271 0.28880
 C32 C 0.01399 0.00610 0.27451
 C33 C -0.00938 -0.03058 0.18217
 C34 C -0.00106 0.03787 0.21416
 C35 C 0.09263 -0.11899 0.24348
 C36 C 0.09899 -0.05077 0.27572
 H37 H -0.12839 -0.17751 0.25886
 H38 H 0.01856 0.06157 0.30119
 H39 H -0.02405 -0.01916 0.13910
 H40 H 0.14579 -0.16673 0.24156
 C41 C 0.10142 0.02960 0.71477
 C42 C 0.09688 -0.05253 0.75786
 C43 C 0.01982 -0.05983 0.78835
 C44 C -0.04657 0.01653 0.77303
 C45 C 0.01349 0.01753 0.68241
 C46 C -0.06366 0.01310 0.71196
 C47 C 0.08780 0.10990 0.74725
 C48 C 0.01069 0.10388 0.77723
 H49 H 0.14477 -0.10577 0.76119
 H50 H -0.10979 0.01218 0.79730
 H51 H 0.01225 0.01418 0.63891
 H52 H 0.13762 0.16489 0.74845
 C53 C 0.05221 -0.25625 0.08767
 C54 C -0.00697 -0.33289 0.09887
 C55 C -0.05921 -0.34132 0.14581
 C56 C -0.05392 -0.27600 0.18197
 C57 C 0.00334 -0.19838 0.17251
 C58 C 0.06052 -0.19064 0.12564
 C59 C 0.10190 -0.24207 0.03871
 C60 C 0.16256 -0.16882 0.02881
 C61 C 0.17564 -0.10837 0.06731
 C62 C 0.12571 -0.11894 0.11506
 H63 H 0.09330 -0.28575 0.00681
 H64 H 0.19993 -0.15922 -0.00885
 H65 H 0.22407 -0.05226 0.05992
 H66 H 0.13953 -0.06964 0.14301
 H67 H -0.10367 -0.40019 0.15517
 H68 H -0.09448 -0.28902 0.21800
 C69 C 0.05878 0.27829 0.15306
 C70 C -0.01918 0.29256 0.11888
 C71 C -0.09496 0.23292 0.12757
 C72 C -0.08967 0.15400 0.16219
 C73 C -0.00951 0.13251 0.19053
 C74 C 0.06401 0.19677 0.18833
 C75 C 0.13015 0.34423 0.15494
 C76 C 0.20714 0.32741 0.18699
 C77 C 0.21408 0.24592 0.21885
 C78 C 0.14303 0.18171 0.22000
 H79 H 0.12645 0.41070 0.13363
 H80 H 0.26120 0.37842 0.18762
 H81 H 0.27387 0.23318 0.24384
 H82 H 0.14999 0.12161 0.24698
 H83 H -0.15681 0.24297 0.10403
 H84 H -0.14712 0.10631 0.16429
 C85 C 0.25076 0.09528 0.58775
 C86 C 0.32168 0.03418 0.59844
 C87 C 0.32634 -0.01626 0.64900
 C88 C 0.25971 -0.01187 0.68769
 C89 C 0.18434 0.04239 0.67721
 C90 C 0.18439 0.10293 0.62848
 C91 C 0.24219 0.14687 0.53693
 C92 C 0.17477 0.20965 0.52787
 C93 C 0.11430 0.22208 0.56881
 C94 C 0.11865 0.16955 0.61847
 H95 H 0.28611 0.13888 0.50331
 H96 H 0.16967 0.24912 0.48889
 H97 H 0.06280 0.27187 0.56181
 H98 H 0.06957 0.18217 0.64852
 H99 H 0.38213 -0.06060 0.65861
 H100 H 0.26833 -0.05252 0.72577
 C101 C -0.30370 -0.04900 0.66249
 C102 C -0.30804 0.01479 0.61584
 C103 C -0.24003 0.08265 0.60793
 C104 C -0.16467 0.08320 0.64181
 C105 C -0.15345 0.01524 0.68445
 C106 C -0.22414 -0.05075 0.69597
 C107 C -0.37643 -0.11088 0.67689
 C108 C -0.36856 -0.17663 0.72067
 C109 C -0.28858 -0.18206 0.75095
 C110 C -0.21697 -0.11993 0.73883
 H111 H -0.44074 -0.10801 0.65555
 H112 H -0.42473 -0.22381 0.73103
 H113 H -0.28229 -0.23412 0.78438
 H114 H -0.15649 -0.12701 0.76333
 H115 H -0.24243 0.13321 0.57339
 H116 H -0.11211 0.13524 0.63302
 C117 C -0.05349 -0.22289 0.91198
 C118 C -0.03472 -0.30600 0.89203
 C119 C -0.00371 -0.30645 0.83906
 C120 C 0.01022 -0.22628 0.80595
 C121 C -0.00252 -0.14246 0.82541
 C122 C -0.03437 -0.14036 0.87912
 C123 C -0.08720 -0.21978 0.96488
 C124 C -0.09800 -0.13780 0.98588
 C125 C -0.07534 -0.05748 0.95478
 C126 C -0.04369 -0.05852 0.90204
 H127 H -0.10480 -0.28039 0.99064
 H128 H -0.12273 -0.13670 1.02680
 H129 H -0.08205 0.00601 0.97164
 H130 H -0.02501 0.00520 0.88011
 H131 H 0.01119 -0.36945 0.82345
 H132 H 0.03307 -0.22982 0.76483
 C133 C -0.09075 0.29568 0.84696
 C134 C -0.02667 0.30125 0.89008
 C135 C 0.04478 0.24129 0.89490
 C136 C 0.05449 0.17778 0.85840
 C137 C -0.00766 0.17027 0.81598
 C138 C -0.08159 0.22863 0.81017
 C139 C -0.16128 0.35713 0.83776
 C140 C -0.22288 0.35061 0.79508
 C141 C -0.21487 0.28415 0.76015
 C142 C -0.14456 0.22418 0.76720
 H143 H -0.16913 0.41190 0.86230
 H144 H -0.27668 0.39805 0.78875
 H145 H -0.26259 0.27987 0.72691
 H146 H -0.13946 0.17521 0.73838
 H147 H 0.09450 0.24386 0.92731
 H148 H 0.11139 0.13366 0.86334
 C149 C -0.22056 -0.11139 0.41222
 C150 C -0.27644 -0.03443 0.40437
 C151 C -0.25243 0.03425 0.36317
 C152 C -0.18202 0.02485 0.32741
 C153 C -0.13222 -0.05320 0.33136
 C154 C -0.14923 -0.12101 0.37469
 C155 C -0.22865 -0.17597 0.45821
 C156 C -0.17339 -0.25008 0.46477
 C157 C -0.10681 -0.26072 0.42698
 C158 C -0.09370 -0.19643 0.38280
 H159 H -0.27401 -0.16911 0.49121
 H160 H -0.18108 -0.29864 0.50011
 H161 H -0.06337 -0.31783 0.43273
 H162 H -0.03804 -0.20540 0.35600
 H163 H -0.29113 0.09474 0.35664
 H164 H -0.16852 0.07784 0.29496
 C165 C 0.34229 -0.00861 0.32703
 C166 C 0.32688 -0.02121 0.38358
 C167 C 0.23861 -0.04017 0.40299
 C168 C 0.16557 -0.04708 0.36730
 C169 C 0.17890 -0.03688 0.31116
 C170 C 0.26776 -0.01658 0.29043
 C171 C 0.43035 0.01079 0.30607
 C172 C 0.44451 0.02378 0.25022
 C173 C 0.37161 0.01780 0.21442
 C174 C 0.28411 -0.00210 0.23414
 H175 H 0.48881 0.01607 0.33254
 H176 H 0.51232 0.03897 0.23466
 H177 H 0.38285 0.02890 0.17111
 H178 H 0.22942 -0.00411 0.20498
 H179 H 0.22612 -0.04938 0.44627
 H180 H 0.09820 -0.06245 0.38367
   
