data_POSCAR
  _audit_creation_date              2014-09-24
  _audit_creation_method            'ToBaCCo'
  _symmetry_space_group_name_H-M    'P1'
  _symmetry_Int_Tables_number       1
  _symmetry_cell_setting            triclinic
  loop_
  _symmetry_equiv_pos_as_xyz
 x,y,z
_cell_length_a 47.5160
_cell_length_b 47.3406
_cell_length_c 37.9757
_cell_angle_alpha 90.100400
_cell_angle_beta 89.999600
_cell_angle_gamma 90.051900
loop_
  _atom_site_label
  _atom_site_type_symbol
  _atom_site_fract_x
  _atom_site_fract_y
  _atom_site_fract_z
O1 O 0.24363 0.27631 0.20660
 O2 O 0.28543 0.22164 0.25140
 O3 O 0.24383 0.22119 0.20665
 O4 O 0.28528 0.27636 0.25135
 O5 O 0.25495 0.27644 0.29531
 O6 O 0.21336 0.22150 0.25039
 O7 O 0.25499 0.22137 0.29525
 O8 O 0.21328 0.27611 0.25056
 Cu9 Cu 0.26755 0.24889 0.22456
 Cu10 Cu 0.23115 0.24884 0.27733
 C11 C 0.22118 0.28543 0.22081
 C12 C 0.27746 0.21225 0.28109
 C13 C 0.22131 0.21201 0.22067
 C14 C 0.27732 0.28571 0.28110
 O15 O 0.74385 0.22245 0.29011
 O16 O 0.78552 0.27716 0.24503
 O17 O 0.74389 0.27754 0.28987
 O18 O 0.78550 0.22245 0.24540
 O19 O 0.75518 0.22213 0.20141
 O20 O 0.71344 0.27704 0.24602
 O21 O 0.75508 0.27723 0.20125
 O22 O 0.71349 0.22242 0.24615
 Cu23 Cu 0.76770 0.24993 0.27204
 Cu24 Cu 0.73132 0.24968 0.21925
 C25 C 0.72142 0.21322 0.27594
 C26 C 0.77757 0.28651 0.21528
 C27 C 0.72140 0.28654 0.27570
 C28 C 0.77757 0.21297 0.21570
 O29 O 0.74392 0.77754 0.70814
 O30 O 0.78543 0.72260 0.75284
 O31 O 0.74379 0.72245 0.70809
 O32 O 0.78555 0.77731 0.75295
 O33 O 0.75512 0.77767 0.79672
 O34 O 0.71344 0.72270 0.75205
 O35 O 0.75511 0.72257 0.79682
 O36 O 0.71346 0.77731 0.75199
 Cu37 Cu 0.76768 0.74997 0.72607
 Cu38 Cu 0.73130 0.75007 0.77886
 C39 C 0.72145 0.78665 0.72229
 C40 C 0.77748 0.71331 0.78258
 C41 C 0.72134 0.71333 0.72229
 C42 C 0.77762 0.78684 0.78265
 O43 O 0.28546 0.77723 0.74658
 O44 O 0.24363 0.72266 0.79165
 O45 O 0.28527 0.72251 0.74687
 O46 O 0.24385 0.77778 0.79130
 O47 O 0.21339 0.77730 0.74755
 O48 O 0.25492 0.72226 0.70291
 O49 O 0.21327 0.72269 0.74770
 O50 O 0.25503 0.77733 0.70271
 Cu51 Cu 0.26755 0.75005 0.77354
 Cu52 Cu 0.23116 0.74989 0.72077
 C53 C 0.27750 0.78652 0.71684
 C54 C 0.22117 0.71348 0.77749
 C55 C 0.27730 0.71306 0.71716
 C56 C 0.22135 0.78690 0.77722
 O57 O 0.97466 -0.00629 -0.04562
 O58 O 1.02901 0.03570 -0.00040
 O59 O 1.02959 -0.00604 -0.04556
 O60 O 0.97458 0.03528 -0.00064
 O61 O 0.97473 0.00481 0.04324
 O62 O 1.02913 -0.03692 -0.00210
 O63 O 1.02965 0.00481 0.04304
 O64 O 0.97473 -0.03680 -0.00177
 Cu65 Cu 1.00200 0.01769 -0.02749
 Cu66 Cu 1.00211 -0.01904 0.02505
 C67 C 0.96541 -0.02875 -0.03145
 C68 C 1.03847 0.02756 0.02917
 C69 C 1.03851 -0.02875 -0.03170
 C70 C 0.96536 0.02721 0.02909
 O71 O 0.47391 0.49408 0.45469
 O72 O 0.52841 0.53593 0.49978
 O73 O 0.52879 0.49416 0.45473
 O74 O 0.47393 0.53565 0.49973
 O75 O 0.47397 0.50512 0.54355
 O76 O 0.52846 0.46344 0.49834
 O77 O 0.52884 0.50521 0.54339
 O78 O 0.47398 0.46355 0.49851
 Cu79 Cu 0.50129 0.51798 0.47280
 Cu80 Cu 0.50136 0.48130 0.52538
 C81 C 0.46465 0.47161 0.46883
 C82 C 0.53779 0.52787 0.52942
 C83 C 0.53779 0.47152 0.46868
 C84 C 0.46466 0.52756 0.52944
 O85 O 0.02877 0.50512 -0.04493
 O86 O -0.02599 0.46316 -0.00045
 O87 O -0.02612 0.50494 -0.04507
 O88 O 0.02846 0.46315 -0.00037
 O89 O 0.02871 0.49365 0.04362
 O90 O -0.02613 0.53533 -0.00097
 O91 O -0.02620 0.49359 0.04362
 O92 O 0.02835 0.53563 -0.00096
 Cu93 Cu 0.00132 0.48109 -0.02718
 Cu94 Cu 0.00122 0.51756 0.02580
 C95 C 0.03772 0.52772 -0.03070
 C96 C -0.03537 0.47113 0.02928
 C97 C -0.03542 0.52734 -0.03074
 C98 C 0.03775 0.47110 0.02940
 O99 O 0.47442 1.03565 0.49845
 O100 O 0.52929 0.99422 0.54335
 O101 O 0.52890 1.03595 0.49841
 O102 O 0.47441 0.99414 0.54339
 O103 O 0.47447 0.96356 0.49950
 O104 O 0.52934 1.00517 0.45473
 O105 O 0.52895 0.96344 0.49966
 O106 O 0.47447 1.00507 0.45456
 Cu107 Cu 0.50179 1.01802 0.52534
 Cu108 Cu 0.50186 0.98128 0.47267
 C109 C 0.46515 1.02752 0.46873
 C110 C 0.53829 0.97156 0.52934
 C111 C 0.53829 1.02786 0.46875
 C112 C 0.46515 0.97166 0.52920
 C113 C 1.17055 0.15286 0.16609
 C114 C 1.19703 0.16048 0.15280
 C115 C 1.21395 0.17984 0.17091
 C116 C 1.20490 0.19168 0.20307
 C117 C 1.17863 0.18325 0.21676
 C118 C 1.16158 0.16427 0.19830
 C119 C 1.15187 0.13379 0.14586
 C120 C 1.12377 0.14146 0.13961
 C121 C 1.10615 0.12389 0.11990
 C122 C 1.11616 0.09811 0.10655
 C123 C 1.14416 0.09024 0.11314
 C124 C 1.16197 0.10808 0.13235
 C125 C 1.09731 0.07962 0.08576
 C126 C 1.09454 0.05086 0.09407
 C127 C 1.07557 0.03380 0.07552
 C128 C 1.05943 0.04511 0.04792
 C129 C 1.06280 0.07373 0.03908
 C130 C 1.08138 0.09086 0.05801
 H131 H 1.20431 0.15203 0.12789
 H132 H 1.23403 0.18564 0.15950
 H133 H 1.17087 0.19174 0.24141
 H134 H 1.14131 0.15850 0.20918
 H135 H 1.11559 0.16128 0.14955
 H136 H 1.08458 0.13030 0.11535
 H137 H 1.15234 0.07050 0.10297
 H138 H 1.18354 0.10172 0.13698
 H139 H 1.10653 0.04178 0.11550
 H140 H 1.07345 0.01181 0.08285
 H141 H 1.05059 0.08307 0.01802
 H142 H 1.08333 0.11294 0.05099
 C143 C 0.66956 0.65366 0.66644
 C144 C 0.69761 0.65810 0.65620
 C145 C 0.71459 0.67729 0.67453
 C146 C 0.70392 0.69209 0.70374
 C147 C 0.67605 0.68707 0.71447
 C148 C 0.65900 0.66820 0.69587
 C149 C 0.65103 0.63461 0.64591
 C150 C 0.62396 0.64351 0.63610
 C151 C 0.60647 0.62582 0.61638
 C152 C 0.61556 0.59874 0.60644
 C153 C 0.64254 0.58970 0.61647
 C154 C 0.66023 0.60759 0.63580
 C155 C 0.59676 0.58006 0.58575
 C156 C 0.59252 0.55183 0.59578
 C157 C 0.57357 0.53472 0.57729
 C158 C 0.55883 0.54541 0.54811
 C159 C 0.56367 0.57345 0.53760
 C160 C 0.58230 0.59064 0.55637
 H161 H 0.70617 0.64726 0.63346
 H162 H 0.73599 0.68067 0.66569
 H163 H 0.66721 0.69818 0.73683
 H164 H 0.63751 0.66494 0.70446
 H165 H 0.61647 0.66433 0.64333
 H166 H 0.58567 0.63319 0.60922
 H167 H 0.65005 0.56896 0.60896
 H168 H 0.68097 0.60021 0.64320
 H169 H 0.60331 0.54325 0.61849
 H170 H 0.57031 0.51318 0.58597
 H171 H 0.55261 0.58232 0.51528
 H172 H 0.58541 0.61226 0.54793
 C173 C -0.17207 0.34625 0.16098
 C174 C -0.19821 0.33770 0.14725
 C175 C -0.21494 0.31817 0.16524
 C176 C -0.20609 0.30685 0.19768
 C177 C -0.18018 0.31592 0.21174
 C178 C -0.16335 0.33521 0.19354
 C179 C -0.15363 0.36604 0.14109
 C180 C -0.13703 0.38612 0.15886
 C181 C -0.11876 0.40380 0.14028
 C182 C -0.11681 0.40207 0.10339
 C183 C -0.13386 0.38241 0.08555
 C184 C -0.15192 0.36454 0.10416
 C185 C -0.09659 0.42018 0.08372
 C186 C -0.08206 0.40948 0.05431
 C187 C -0.06255 0.42618 0.03633
 C188 C -0.05685 0.45389 0.04754
 C189 C -0.07143 0.46471 0.07677
 C190 C -0.09118 0.44811 0.09454
 H191 H -0.20584 0.34617 0.12257
 H192 H -0.23482 0.31196 0.15358
 H193 H -0.17250 0.30772 0.23656
 H194 H -0.14316 0.34093 0.20466
 H195 H -0.13810 0.38818 0.18723
 H196 H -0.10573 0.41843 0.15496
 H197 H -0.13325 0.38078 0.05712
 H198 H -0.16411 0.34914 0.08959
 H199 H -0.08527 0.38793 0.04559
 H200 H -0.05150 0.41717 0.01405
 H201 H -0.06763 0.48607 0.08588
 H202 H -0.10233 0.45723 0.11666
 C203 C 0.32878 0.84709 0.66166
 C204 C 0.30155 0.84053 0.64961
 C205 C 0.28478 0.82106 0.66767
 C206 C 0.29478 0.80786 0.69832
 C207 C 0.32181 0.81473 0.71069
 C208 C 0.33864 0.83402 0.69251
 C209 C 0.34713 0.86693 0.64176
 C210 C 0.36527 0.88556 0.65961
 C211 C 0.38343 0.90328 0.64092
 C212 C 0.38376 0.90297 0.60390
 C213 C 0.36522 0.88475 0.58604
 C214 C 0.34719 0.86689 0.60474
 C215 C 0.40388 0.92105 0.58406
 C216 C 0.41713 0.91080 0.55349
 C217 C 0.43668 0.92740 0.53541
 C218 C 0.44362 0.95456 0.54761
 C219 C 0.43023 0.96494 0.57797
 C220 C 0.41051 0.94842 0.59591
 H221 H 0.29312 0.85054 0.62628
 H222 H 0.26398 0.81634 0.65759
 H223 H 0.33021 0.80480 0.73410
 H224 H 0.35966 0.83819 0.70222
 H225 H 0.36549 0.88644 0.68809
 H226 H 0.39763 0.91680 0.65555
 H227 H 0.36463 0.88424 0.55755
 H228 H 0.33373 0.85261 0.59013
 H229 H 0.41290 0.88966 0.54394
 H230 H 0.44675 0.91872 0.51221
 H231 H 0.43498 0.98586 0.58791
 H232 H 0.40036 0.95716 0.61900
 C233 C -0.17149 0.65241 -0.16257
 C234 C -0.16159 0.66554 -0.19337
 C235 C -0.17834 0.68493 -0.21144
 C236 C -0.20532 0.69186 -0.19901
 C237 C -0.21537 0.67859 -0.16841
 C238 C -0.19868 0.65902 -0.15047
 C239 C -0.15323 0.63246 -0.14278
 C240 C -0.15316 0.63237 -0.10575
 C241 C -0.13520 0.61442 -0.08715
 C242 C -0.11670 0.59623 -0.10510
 C243 C -0.11705 0.59604 -0.14212
 C244 C -0.13514 0.61385 -0.16072
 C245 C -0.09662 0.57809 -0.08535
 C246 C -0.09003 0.55076 -0.09734
 C247 C -0.07033 0.53419 -0.07948
 C248 C -0.05694 0.54448 -0.04906
 C249 C -0.06385 0.57159 -0.03672
 C250 C -0.08336 0.58824 -0.05472
 H251 H -0.14059 0.66134 -0.20312
 H252 H -0.16991 0.69491 -0.23482
 H253 H -0.23614 0.68336 -0.15828
 H254 H -0.20715 0.64897 -0.12717
 H255 H -0.16657 0.64663 -0.09107
 H256 H -0.13579 0.61483 -0.05866
 H257 H -0.10288 0.58255 -0.15682
 H258 H -0.13493 0.61306 -0.18921
 H259 H -0.10018 0.54210 -0.12049
 H260 H -0.06559 0.51330 -0.08953
 H261 H -0.05377 0.58020 -0.01347
 H262 H -0.08756 0.60935 -0.04505
 C263 C 0.32874 1.15169 0.33613
 C264 C 0.33861 1.16484 0.30533
 C265 C 0.32177 1.18412 0.28718
 C266 C 0.29473 1.19089 0.29953
 C267 C 0.28471 1.17759 0.33012
 C268 C 0.30148 1.15814 0.34814
 C269 C 0.34709 1.13189 0.35602
 C270 C 0.34711 1.13189 0.39305
 C271 C 0.36515 1.11409 0.41175
 C272 C 0.38376 1.09596 0.39390
 C273 C 0.38347 1.09568 0.35688
 C274 C 0.36531 1.11336 0.33818
 C275 C 0.40389 1.07795 0.41376
 C276 C 0.41059 1.05061 0.40189
 C277 C 0.43031 1.03415 0.41987
 C278 C 0.44363 1.04456 0.45028
 C279 C 0.43662 1.07169 0.46249
 C280 C 0.41707 1.08822 0.44437
 H281 H 0.35965 1.16076 0.29564
 H282 H 0.33018 1.19412 0.26381
 H283 H 0.26390 1.18224 0.34019
 H284 H 0.29304 1.14806 0.37144
 H285 H 0.33360 1.14611 0.40765
 H286 H 0.36452 1.11456 0.44024
 H287 H 0.39772 1.08223 0.34226
 H288 H 0.36557 1.11251 0.30970
 H289 H 0.40049 1.04185 0.37876
 H290 H 0.43512 1.01325 0.40992
 H291 H 0.44663 1.08039 0.48572
 H292 H 0.41279 1.10934 0.45394
 C293 C 1.17062 -0.15381 -0.16855
 C294 C 1.19709 -0.16136 -0.15520
 C295 C 1.21400 -0.18077 -0.17320
 C296 C 1.20495 -0.19272 -0.20530
 C297 C 1.17870 -0.18435 -0.21905
 C298 C 1.16166 -0.16533 -0.20071
 C299 C 1.15192 -0.13473 -0.14841
 C300 C 1.12383 -0.14245 -0.14213
 C301 C 1.10620 -0.12489 -0.12248
 C302 C 1.11620 -0.09907 -0.10919
 C303 C 1.14419 -0.09113 -0.11583
 C304 C 1.16200 -0.10897 -0.13499
 C305 C 1.09735 -0.08061 -0.08840
 C306 C 1.09450 -0.05188 -0.09675
 C307 C 1.07553 -0.03488 -0.07817
 C308 C 1.05947 -0.04622 -0.05050
 C309 C 1.06292 -0.07482 -0.04162
 C310 C 1.08150 -0.09189 -0.06057
 H311 H 1.20435 -0.15282 -0.13032
 H312 H 1.23406 -0.18651 -0.16174
 H313 H 1.17094 -0.19293 -0.24367
 H314 H 1.14140 -0.15962 -0.21163
 H315 H 1.11566 -0.16231 -0.15200
 H316 H 1.08464 -0.13135 -0.11789
 H317 H 1.15236 -0.07136 -0.10571
 H318 H 1.18357 -0.10256 -0.13963
 H319 H 1.10643 -0.04278 -0.11823
 H320 H 1.07334 -0.01290 -0.08553
 H321 H 1.05077 -0.08418 -0.02051
 H322 H 1.08351 -0.11395 -0.05351
 C323 C 0.66961 0.34616 0.33145
 C324 C 0.69769 0.34185 0.34164
 C325 C 0.71467 0.32268 0.32333
 C326 C 0.70398 0.30779 0.29419
 C327 C 0.67609 0.31269 0.28351
 C328 C 0.65904 0.33154 0.30210
 C329 C 0.65106 0.36517 0.35200
 C330 C 0.62403 0.35617 0.36188
 C331 C 0.60654 0.37380 0.38163
 C332 C 0.61558 0.40092 0.39152
 C333 C 0.64253 0.41006 0.38140
 C334 C 0.66022 0.39223 0.36205
 C335 C 0.59678 0.41954 0.41223
 C336 C 0.59246 0.44775 0.40220
 C337 C 0.57351 0.46480 0.42072
 C338 C 0.55884 0.45406 0.44994
 C339 C 0.56375 0.42605 0.46046
 C340 C 0.58238 0.40892 0.44166
 H341 H 0.70626 0.35276 0.36433
 H342 H 0.73609 0.31939 0.33213
 H343 H 0.66724 0.30151 0.26120
 H344 H 0.63752 0.33470 0.29355
 H345 H 0.61658 0.33531 0.35470
 H346 H 0.58576 0.36636 0.38885
 H347 H 0.65001 0.43084 0.38887
 H348 H 0.68093 0.39968 0.35459
 H349 H 0.60320 0.45636 0.37946
 H350 H 0.57020 0.48632 0.41204
 H351 H 0.55274 0.41714 0.48282
 H352 H 0.58555 0.38731 0.45011
 C353 C 0.82810 -0.15323 -0.16328
 C354 C 0.80193 -0.16164 -0.14952
 C355 C 0.78516 -0.18123 -0.16744
 C356 C 0.79399 -0.19274 -0.19983
 C357 C 0.81992 -0.18379 -0.21394
 C358 C 0.83679 -0.16445 -0.19580
 C359 C 0.84661 -0.13343 -0.14342
 C360 C 0.86330 -0.11350 -0.16122
 C361 C 0.88167 -0.09585 -0.14266
 C362 C 0.88363 -0.09748 -0.10577
 C363 C 0.86648 -0.11698 -0.08791
 C364 C 0.84832 -0.13482 -0.10649
 C365 C 0.90398 -0.07946 -0.08611
 C366 C 0.91846 -0.09020 -0.05674
 C367 C 0.93806 -0.07359 -0.03872
 C368 C 0.94390 -0.04592 -0.04985
 C369 C 0.92940 -0.03506 -0.07908
 C370 C 0.90956 -0.05159 -0.09689
 H371 H 0.79432 -0.15303 -0.12488
 H372 H 0.76527 -0.18733 -0.15576
 H373 H 0.82759 -0.19214 -0.23872
 H374 H 0.85700 -0.15884 -0.20694
 H375 H 0.86224 -0.11153 -0.18958
 H376 H 0.89477 -0.08133 -0.15735
 H377 H 0.86709 -0.11853 -0.05948
 H378 H 0.83606 -0.15012 -0.09190
 H379 H 0.91514 -0.11172 -0.04807
 H380 H 0.94905 -0.08263 -0.01645
 H381 H 0.93331 -0.01374 -0.08813
 H382 H 0.89847 -0.04244 -0.11900
 C383 C 0.32841 0.34667 0.33617
 C384 C 0.30120 0.34005 0.34824
 C385 C 0.28450 0.32047 0.33021
 C386 C 0.29453 0.30721 0.29955
 C387 C 0.32151 0.31416 0.28714
 C388 C 0.33828 0.33356 0.30530
 C389 C 0.34671 0.36660 0.35608
 C390 C 0.36482 0.38523 0.33826
 C391 C 0.38295 0.40301 0.35697
 C392 C 0.38330 0.40276 0.39399
 C393 C 0.36479 0.38455 0.41182
 C394 C 0.34678 0.36663 0.39311
 C395 C 0.40341 0.42088 0.41386
 C396 C 0.41668 0.41068 0.44440
 C397 C 0.43621 0.42732 0.46252
 C398 C 0.44313 0.45447 0.45038
 C399 C 0.42974 0.46480 0.42004
 C400 C 0.41003 0.44824 0.40206
 H401 H 0.29276 0.35009 0.37159
 H402 H 0.26373 0.31569 0.34033
 H403 H 0.32993 0.30419 0.26372
 H404 H 0.35928 0.33778 0.29557
 H405 H 0.36503 0.38606 0.30977
 H406 H 0.39713 0.41653 0.34236
 H407 H 0.36421 0.38409 0.44031
 H408 H 0.33336 0.35235 0.40770
 H409 H 0.41247 0.38956 0.45391
 H410 H 0.44629 0.41868 0.48569
 H411 H 0.43448 0.48571 0.41015
 H412 H 0.39987 0.45694 0.37899
 C413 C 0.16942 0.65397 -0.16659
 C414 C 0.19748 0.65844 -0.15638
 C415 C 0.21444 0.67760 -0.17470
 C416 C 0.20374 0.69234 -0.20389
 C417 C 0.17586 0.68731 -0.21457
 C418 C 0.15883 0.66846 -0.19596
 C419 C 0.15093 0.63489 -0.14613
 C420 C 0.12386 0.64375 -0.13624
 C421 C 0.10639 0.62601 -0.11665
 C422 C 0.11550 0.59891 -0.10692
 C423 C 0.14249 0.58993 -0.11701
 C424 C 0.16016 0.60786 -0.13620
 C425 C 0.09670 0.58015 -0.08644
 C426 C 0.09248 0.55195 -0.09675
 C427 C 0.07353 0.53476 -0.07845
 C428 C 0.05876 0.54534 -0.04919
 C429 C 0.06357 0.57334 -0.03839
 C430 C 0.08220 0.59061 -0.05697
 H431 H 0.20607 0.64764 -0.13368
 H432 H 0.23586 0.68100 -0.16591
 H433 H 0.16700 0.69836 -0.23691
 H434 H 0.13733 0.66519 -0.20453
 H435 H 0.11635 0.66457 -0.14333
 H436 H 0.08558 0.63333 -0.10944
 H437 H 0.15002 0.56917 -0.10967
 H438 H 0.18091 0.60052 -0.14367
 H439 H 0.10330 0.54346 -0.11952
 H440 H 0.07030 0.51325 -0.08734
 H441 H 0.05249 0.58213 -0.01600
 H442 H 0.08529 0.61221 -0.04832
 C443 C 0.66979 1.15364 0.33189
 C444 C 0.69784 1.15817 0.34211
 C445 C 0.71476 1.17734 0.32376
 C446 C 0.70405 1.19202 0.29454
 C447 C 0.67618 1.18691 0.28385
 C448 C 0.65918 1.16806 0.30247
 C449 C 0.65132 1.13459 0.35243
 C450 C 0.62424 1.14345 0.36227
 C451 C 0.60679 1.12577 0.38198
 C452 C 0.61594 1.09872 0.39187
 C453 C 0.64294 1.08972 0.38181
 C454 C 0.66058 1.10761 0.36250
 C455 C 0.59719 1.08004 0.41253
 C456 C 0.59298 1.05179 0.40244
 C457 C 0.57405 1.03467 0.42089
 C458 C 0.55931 1.04539 0.45010
 C459 C 0.56412 1.07344 0.46068
 C460 C 0.58272 1.09063 0.44195
 H461 H 0.70643 1.14742 0.36484
 H462 H 0.73617 1.18080 0.33257
 H463 H 0.66731 1.19792 0.26148
 H464 H 0.63769 1.16473 0.29390
 H465 H 0.61670 1.16424 0.35508
 H466 H 0.58598 1.13310 0.38917
 H467 H 0.65050 1.06900 0.38928
 H468 H 0.68133 1.10026 0.35506
 H469 H 0.60377 1.04320 0.37970
 H470 H 0.57082 1.01312 0.41216
 H471 H 0.55306 1.08233 0.48303
 H472 H 0.58581 1.11227 0.45044
 C473 C 0.16946 0.34506 0.16524
 C474 C 0.15888 0.33048 0.19456
 C475 C 0.17590 0.31160 0.21305
 C476 C 0.20377 0.30662 0.20232
 C477 C 0.21446 0.32146 0.17320
 C478 C 0.19752 0.34066 0.15498
 C479 C 0.15096 0.36416 0.14485
 C480 C 0.16018 0.39123 0.13502
 C481 C 0.14250 0.40916 0.11587
 C482 C 0.11552 0.40012 0.10573
 C483 C 0.10642 0.37298 0.11538
 C484 C 0.12390 0.35525 0.13493
 C485 C 0.09673 0.41885 0.08523
 C486 C 0.08232 0.40836 0.05570
 C487 C 0.06369 0.42558 0.03710
 C488 C 0.05880 0.45355 0.04794
 C489 C 0.07348 0.46415 0.07726
 C490 C 0.09244 0.44701 0.09558
 H491 H 0.13738 0.33371 0.20316
 H492 H 0.16705 0.30047 0.23535
 H493 H 0.23587 0.31811 0.16436
 H494 H 0.20609 0.35154 0.13232
 H495 H 0.18091 0.39860 0.14252
 H496 H 0.15002 0.42995 0.10859
 H497 H 0.08562 0.36562 0.10813
 H498 H 0.11640 0.33439 0.14195
 H499 H 0.08547 0.38679 0.04702
 H500 H 0.05267 0.41677 0.01465
 H501 H 0.07019 0.48564 0.08618
 H502 H 0.10320 0.45552 0.11841
 C503 C 0.66982 0.84620 0.66642
 C504 C 0.65919 0.83168 0.69577
 C505 C 0.67620 0.81285 0.71438
 C506 C 0.70408 0.80785 0.70374
 C507 C 0.71482 0.82263 0.67459
 C508 C 0.69789 0.84179 0.65626
 C509 C 0.65134 0.86520 0.64587
 C510 C 0.66056 0.89222 0.63586
 C511 C 0.64291 0.91005 0.61653
 C512 C 0.61595 0.90096 0.60638
 C513 C 0.60684 0.87387 0.61622
 C514 C 0.62429 0.85623 0.63595
 C515 C 0.59719 0.91958 0.58569
 C516 C 0.58280 0.90894 0.55622
 C517 C 0.56419 0.92607 0.53745
 C518 C 0.55931 0.95410 0.54804
 C519 C 0.57398 0.96486 0.57729
 C520 C 0.59291 0.94780 0.59579
 H521 H 0.63768 0.83492 0.70430
 H522 H 0.66730 0.80176 0.73669
 H523 H 0.73624 0.81927 0.66582
 H524 H 0.70650 0.85260 0.63358
 H525 H 0.68128 0.89964 0.64336
 H526 H 0.65044 0.93081 0.60910
 H527 H 0.58606 0.86646 0.60896
 H528 H 0.61679 0.83541 0.64309
 H529 H 0.58595 0.88732 0.54773
 H530 H 0.55319 0.91714 0.51507
 H531 H 0.57070 0.98639 0.58602
 H532 H 0.60365 0.95643 0.61855
 C533 C 0.82870 0.15188 0.16110
 C534 C 0.83858 0.16519 0.19185
 C535 C 0.82179 0.18464 0.20985
 C536 C 0.79480 0.19145 0.19739
 C537 C 0.78477 0.17799 0.16685
 C538 C 0.80149 0.15835 0.14898
 C539 C 0.84703 0.13191 0.14134
 C540 C 0.84708 0.13169 0.10431
 C541 C 0.86514 0.11378 0.08572
 C542 C 0.88374 0.09576 0.10368
 C543 C 0.88339 0.09567 0.14070
 C544 C 0.86520 0.11345 0.15929
 C545 C 0.90395 0.07771 0.08393
 C546 C 0.91072 0.05044 0.09588
 C547 C 0.93050 0.03395 0.07797
 C548 C 0.94380 0.04427 0.04754
 C549 C 0.93674 0.07133 0.03528
 C550 C 0.91714 0.08789 0.05332
 H551 H 0.85959 0.16109 0.20160
 H552 H 0.83021 0.19477 0.23318
 H553 H 0.76399 0.18265 0.15671
 H554 H 0.79304 0.14816 0.12573
 H555 H 0.83360 0.14583 0.08961
 H556 H 0.86455 0.11409 0.05723
 H557 H 0.89763 0.08231 0.15541
 H558 H 0.86543 0.11277 0.18778
 H559 H 0.90063 0.04176 0.11902
 H560 H 0.93536 0.01311 0.08796
 H561 H 0.94675 0.07996 0.01203
 H562 H 0.91282 0.10895 0.04370
 C563 C 0.32837 0.65211 0.66224
 C564 C 0.30115 0.65861 0.65020
 C565 C 0.28444 0.67818 0.66820
 C566 C 0.29449 0.69154 0.69879
 C567 C 0.32149 0.68469 0.71119
 C568 C 0.33827 0.66530 0.69306
 C569 C 0.34669 0.63222 0.64233
 C570 C 0.36486 0.61368 0.66014
 C571 C 0.38301 0.59595 0.64142
 C572 C 0.38331 0.59616 0.60440
 C573 C 0.36472 0.61428 0.58658
 C574 C 0.34671 0.63215 0.60530
 C575 C 0.40343 0.57810 0.58452
 C576 C 0.41662 0.58833 0.55393
 C577 C 0.43616 0.57175 0.53578
 C578 C 0.44314 0.54463 0.54793
 C579 C 0.42982 0.53428 0.57832
 C580 C 0.41011 0.55078 0.59633
 H581 H 0.29269 0.64850 0.62690
 H582 H 0.26365 0.68289 0.65810
 H583 H 0.32992 0.69474 0.73456
 H584 H 0.35928 0.66117 0.70277
 H585 H 0.36512 0.61289 0.68863
 H586 H 0.39724 0.58250 0.65603
 H587 H 0.36411 0.61471 0.55809
 H588 H 0.33323 0.64636 0.59071
 H589 H 0.41236 0.60943 0.54440
 H590 H 0.44618 0.58041 0.51257
 H591 H 0.43462 0.51339 0.58823
 H592 H 0.40001 0.54206 0.61945
   
