data_POSCAR
  _audit_creation_date              2014-09-24
  _audit_creation_method            'ToBaCCo'
  _symmetry_space_group_name_H-M    'P1'
  _symmetry_Int_Tables_number       1
  _symmetry_cell_setting            triclinic
  loop_
  _symmetry_equiv_pos_as_xyz
 x,y,z
_cell_length_a 49.1317
_cell_length_b 49.0997
_cell_length_c 44.9800
_cell_angle_alpha 89.997200
_cell_angle_beta 89.999900
_cell_angle_gamma 89.957500
loop_
  _atom_site_label
  _atom_site_type_symbol
  _atom_site_fract_x
  _atom_site_fract_y
  _atom_site_fract_z
C1 C -0.08424 0.30309 0.01430
 C2 C -0.08428 0.30300 -0.01620
 C3 C -0.05783 0.29724 -0.02508
 N4 N -0.04175 0.29372 -0.00100
 C5 C -0.05779 0.29741 0.02308
 C6 C -0.04948 0.29311 -0.05481
 C7 C -0.02206 0.28916 -0.06350
 C8 C -0.01383 0.28010 -0.09134
 C9 C 0.01414 0.28007 -0.09132
 C10 C 0.02236 0.28911 -0.06348
 N11 N 0.00015 0.29485 -0.04679
 C12 C 0.04977 0.29301 -0.05477
 C13 C 0.05812 0.29710 -0.02503
 C14 C 0.08457 0.30281 -0.01613
 C15 C 0.08452 0.30290 0.01437
 C16 C 0.05806 0.29727 0.02314
 N17 N 0.04203 0.29361 -0.00096
 C18 C 0.04967 0.29343 0.05284
 C19 C 0.02230 0.28969 0.06158
 C20 C 0.01410 0.28099 0.08953
 C21 C -0.01389 0.28102 0.08951
 C22 C -0.02206 0.28974 0.06156
 N23 N 0.00013 0.29525 0.04479
 C24 C -0.04942 0.29353 0.05279
 H25 H -0.10178 0.30649 0.02839
 H26 H -0.10187 0.30630 -0.03024
 H27 H 0.00014 0.30492 0.02427
 H28 H -0.02666 0.27422 -0.10982
 H29 H 0.02698 0.27416 -0.10979
 H30 H 0.10217 0.30607 -0.03016
 H31 H 0.10205 0.30626 0.02846
 H32 H -0.02674 0.27535 0.10805
 H33 H 0.00015 0.30476 -0.02642
 H34 H 0.02693 0.27530 0.10808
 C35 C 0.41457 0.79273 0.48516
 C36 C 0.41460 0.79405 0.51560
 C37 C 0.44166 0.79431 0.52443
 N38 N 0.45804 0.79333 0.50033
 C39 C 0.44161 0.79231 0.47627
 C40 C 0.45052 0.79408 0.55434
 C41 C 0.47810 0.79336 0.56355
 C42 C 0.48639 0.78882 0.59263
 C43 C 0.51433 0.78877 0.59258
 C44 C 0.52254 0.79329 0.56347
 N45 N 0.50030 0.79662 0.54603
 C46 C 0.55009 0.79392 0.55415
 C47 C 0.55888 0.79417 0.52422
 C48 C 0.58591 0.79385 0.51530
 C49 C 0.58586 0.79258 0.48485
 C50 C 0.55880 0.79222 0.47605
 N51 N 0.54244 0.79325 0.50017
 C52 C 0.54993 0.79132 0.44615
 C53 C 0.52237 0.79194 0.43689
 C54 C 0.51408 0.79458 0.40753
 C55 C 0.48612 0.79459 0.40758
 C56 C 0.47793 0.79195 0.43697
 N57 N 0.50017 0.78997 0.45461
 C58 C 0.45040 0.79136 0.44634
 H59 H 0.39664 0.79217 0.47119
 H60 H 0.39670 0.79443 0.52962
 H61 H 0.50021 0.78544 0.47706
 H62 H 0.47364 0.78542 0.61191
 H63 H 0.52712 0.78532 0.61181
 H64 H 0.60385 0.79419 0.52926
 H65 H 0.60376 0.79200 0.47083
 H66 H 0.47330 0.79659 0.38813
 H67 H 0.50027 0.80264 0.52396
 H68 H 0.52683 0.79657 0.38803
 C69 C 1.08566 0.69757 -0.01519
 C70 C 1.08565 0.69754 0.01529
 C71 C 1.05917 0.70318 0.02414
 N72 N 1.04312 0.70676 0.00004
 C73 C 1.05919 0.70323 -0.02405
 C74 C 1.05076 0.70710 0.05390
 C75 C 1.02331 0.71075 0.06260
 C76 C 1.01495 0.71953 0.09050
 C77 C 0.98697 0.71926 0.09045
 C78 C 0.97893 0.71034 0.06254
 N79 N 1.00119 0.70494 0.04582
 C80 C 0.95160 0.70629 0.05378
 C81 C 0.94328 0.70230 0.02408
 C82 C 0.91686 0.69653 0.01525
 C83 C 0.91688 0.69656 -0.01526
 C84 C 0.94330 0.70236 -0.02405
 N85 N 0.95934 0.70598 0.00003
 C86 C 0.95165 0.70643 -0.05373
 C87 C 0.97898 0.71051 -0.06246
 C88 C 0.98703 0.71952 -0.09033
 C89 C 1.01501 0.71977 -0.09037
 C90 C 1.02336 0.71090 -0.06250
 N91 N 1.00123 0.70504 -0.04576
 C92 C 1.05080 0.70721 -0.05381
 H93 H 1.10324 0.69427 -0.02925
 H94 H 1.10322 0.69422 0.02936
 H95 H 1.00134 0.69520 -0.02534
 H96 H 1.02769 0.72541 0.10905
 H97 H 0.97404 0.72491 0.10894
 H98 H 0.89931 0.69313 0.02931
 H99 H 0.89934 0.69319 -0.02934
 H100 H 1.02776 0.72572 -0.10889
 H101 H 1.00132 0.69517 0.02536
 H102 H 0.97411 0.72524 -0.10880
 C103 C 0.58591 0.20706 0.48535
 C104 C 0.58588 0.20576 0.51579
 C105 C 0.55882 0.20556 0.52462
 N106 N 0.54244 0.20658 0.50052
 C107 C 0.55887 0.20755 0.47646
 C108 C 0.54995 0.20586 0.55453
 C109 C 0.52237 0.20660 0.56374
 C110 C 0.51408 0.21123 0.59280
 C111 C 0.48614 0.21127 0.59274
 C112 C 0.47793 0.20666 0.56365
 N113 N 0.50018 0.20328 0.54622
 C114 C 0.45038 0.20598 0.55433
 C115 C 0.44160 0.20568 0.52440
 C116 C 0.41456 0.20591 0.51548
 C117 C 0.41461 0.20720 0.48503
 C118 C 0.44167 0.20763 0.47624
 N119 N 0.45804 0.20664 0.50036
 C120 C 0.45055 0.20861 0.44634
 C121 C 0.47811 0.20803 0.43707
 C122 C 0.48640 0.20549 0.40770
 C123 C 0.51436 0.20547 0.40776
 C124 C 0.52255 0.20801 0.43716
 N125 N 0.50030 0.20993 0.45480
 C126 C 0.55008 0.20856 0.44653
 H127 H 0.60384 0.20758 0.47138
 H128 H 0.60378 0.20533 0.52981
 H129 H 0.50027 0.21435 0.47727
 H130 H 0.52682 0.21469 0.61206
 H131 H 0.47334 0.21476 0.61195
 H132 H 0.39662 0.20553 0.52944
 H133 H 0.39672 0.20773 0.47101
 H134 H 0.52718 0.20354 0.38830
 H135 H 0.50021 0.19718 0.52418
 H136 H 0.47364 0.20356 0.38820
 C137 C 0.69714 -0.08503 -0.01579
 C138 C 0.69714 -0.08510 0.01470
 C139 C 0.70302 -0.05869 0.02361
 N140 N 0.70672 -0.04260 -0.00045
 C141 C 0.70303 -0.05858 -0.02458
 C142 C 0.70705 -0.05039 0.05338
 C143 C 0.71088 -0.02296 0.06210
 C144 C 0.71974 -0.01468 0.09000
 C145 C 0.71963 0.01331 0.08998
 C146 C 0.71073 0.02145 0.06209
 N147 N 0.70519 -0.00077 0.04535
 C148 C 0.70675 0.04882 0.05339
 C149 C 0.70280 0.05724 0.02371
 C150 C 0.69701 0.08371 0.01499
 C151 C 0.69711 0.08382 -0.01550
 C152 C 0.70297 0.05740 -0.02445
 N153 N 0.70655 0.04126 -0.00042
 C154 C 0.70714 0.04911 -0.05419
 C155 C 0.71111 0.02169 -0.06291
 C156 C 0.72020 0.01349 -0.09074
 C157 C 0.72021 -0.01450 -0.09077
 C158 C 0.71113 -0.02274 -0.06295
 N159 N 0.70540 -0.00054 -0.04624
 C160 C 0.70714 -0.05017 -0.05430
 H161 H 0.69370 -0.10256 -0.02989
 H162 H 0.69369 -0.10268 0.02872
 H163 H 0.69547 -0.00058 -0.02587
 H164 H 0.72555 -0.02750 0.10853
 H165 H 0.72535 0.02619 0.10848
 H166 H 0.69355 0.10121 0.02913
 H167 H 0.69375 0.10144 -0.02950
 H168 H 0.72610 -0.02733 -0.10926
 H169 H 0.69540 -0.00077 0.02491
 H170 H 0.72609 0.02635 -0.10920
 C171 C 0.20722 0.41451 0.48529
 C172 C 0.20587 0.41455 0.51573
 C173 C 0.20560 0.44163 0.52455
 N174 N 0.20660 0.45802 0.50045
 C175 C 0.20766 0.44156 0.47640
 C176 C 0.20585 0.45051 0.55446
 C177 C 0.20661 0.47809 0.56370
 C178 C 0.21123 0.48636 0.59277
 C179 C 0.21131 0.51431 0.59274
 C180 C 0.20674 0.52256 0.56365
 N181 N 0.20334 0.50032 0.54620
 C182 C 0.20612 0.55014 0.55436
 C183 C 0.20578 0.55893 0.52443
 C184 C 0.20603 0.58598 0.51551
 C185 C 0.20723 0.58592 0.48506
 C186 C 0.20760 0.55884 0.47626
 N187 N 0.20666 0.54247 0.50039
 C188 C 0.20848 0.54995 0.44636
 C189 C 0.20791 0.52238 0.43708
 C190 C 0.20531 0.51410 0.40771
 C191 C 0.20538 0.48612 0.40774
 C192 C 0.20801 0.47791 0.43712
 N193 N 0.20992 0.50016 0.45478
 C194 C 0.20866 0.45036 0.44647
 H195 H 0.20780 0.39657 0.47132
 H196 H 0.20547 0.39664 0.52975
 H197 H 0.21443 0.50020 0.47723
 H198 H 0.21466 0.47358 0.61203
 H199 H 0.21482 0.52709 0.61197
 H200 H 0.20571 0.60393 0.52947
 H201 H 0.20775 0.60382 0.47102
 H202 H 0.20342 0.47330 0.38828
 H203 H 0.19726 0.50031 0.52415
 H204 H 0.20330 0.52687 0.38822
 C205 C 0.28096 0.91650 0.01525
 C206 C 0.28080 0.91635 -0.01524
 C207 C 0.28734 0.94257 -0.02430
 N208 N 0.29171 0.95859 -0.00033
 C209 C 0.28757 0.94280 0.02386
 C210 C 0.29059 0.95090 -0.05418
 C211 C 0.29504 0.97822 -0.06294
 C212 C 0.30302 0.98636 -0.09118
 C213 C 0.30309 1.01437 -0.09124
 C214 C 0.29513 1.02266 -0.06303
 N215 N 0.29018 1.00049 -0.04601
 C216 C 0.29071 1.05004 -0.05443
 C217 C 0.28730 1.05858 -0.02463
 C218 C 0.28060 1.08485 -0.01588
 C219 C 0.28061 1.08496 0.01460
 C220 C 0.28732 1.05875 0.02357
 N221 N 0.29165 1.04278 -0.00047
 C222 C 0.29074 1.05041 0.05344
 C223 C 0.29525 1.02308 0.06215
 C224 C 0.30327 1.01489 0.09038
 C225 C 0.30335 0.98688 0.09039
 C226 C 0.29540 0.97867 0.06219
 N227 N 0.29041 1.00085 0.04520
 C228 C 0.29105 0.95135 0.05359
 H229 H 0.27686 0.89917 0.02943
 H230 H 0.27657 0.89887 -0.02916
 H231 H 0.28098 1.00079 0.02457
 H232 H 0.30791 0.97344 -0.10994
 H233 H 0.30802 1.02718 -0.11007
 H234 H 0.27634 1.10220 -0.02999
 H235 H 0.27636 1.10240 0.02858
 H236 H 0.30831 0.97402 0.10918
 H237 H 0.28077 1.00058 -0.02537
 H238 H 0.30815 1.02778 0.10917
 C239 C 0.79220 0.41411 0.48499
 C240 C 0.79342 0.41403 0.51543
 C241 C 0.79373 0.44108 0.52437
 N242 N 0.79287 0.45755 0.50033
 C243 C 0.79187 0.44120 0.47620
 C244 C 0.79346 0.44985 0.55431
 C245 C 0.79287 0.47743 0.56361
 C246 C 0.78837 0.48567 0.59271
 C247 C 0.78845 0.51363 0.59275
 C248 C 0.79301 0.52190 0.56367
 N249 N 0.79624 0.49967 0.54615
 C250 C 0.79375 0.54949 0.55443
 C251 C 0.79398 0.55838 0.52453
 C252 C 0.79371 0.58546 0.51571
 C253 C 0.79236 0.58552 0.48527
 C254 C 0.79193 0.55847 0.47637
 N255 N 0.79298 0.54201 0.50042
 C256 C 0.79095 0.54969 0.44644
 C257 C 0.79158 0.52214 0.43708
 C258 C 0.79424 0.51393 0.40770
 C259 C 0.79428 0.48596 0.40767
 C260 C 0.79163 0.47767 0.43703
 N261 N 0.78962 0.49989 0.45474
 C262 C 0.79102 0.45010 0.44631
 H263 H 0.79164 0.39621 0.47095
 H264 H 0.79372 0.39607 0.52938
 H265 H 0.78508 0.49985 0.47718
 H266 H 0.78490 0.47288 0.61195
 H267 H 0.78507 0.52639 0.61202
 H268 H 0.79410 0.60337 0.52975
 H269 H 0.79178 0.60347 0.47132
 H270 H 0.79630 0.47318 0.38818
 H271 H 0.80226 0.49969 0.52409
 H272 H 0.79623 0.52675 0.38825
 O273 O 0.23546 0.27263 0.21185
 O274 O 0.29216 0.25437 0.26159
 O275 O 0.27280 0.23510 0.21182
 O276 O 0.25476 0.29185 0.26167
 O277 O 0.22744 0.26455 0.28692
 O278 O 0.24548 0.20781 0.23708
 O279 O 0.26484 0.22708 0.28685
 O280 O 0.20813 0.24533 0.23710
 Cu281 Cu 0.26655 0.26624 0.23419
 Cu282 Cu 0.23372 0.23344 0.26453
 C283 C 0.21226 0.26194 0.21598
 C284 C 0.28803 0.23777 0.28272
 C285 C 0.26206 0.21191 0.21594
 C286 C 0.23818 0.28774 0.28281
 O287 O 0.75478 0.79207 0.23648
 O288 O 0.77269 0.73545 0.28658
 O289 O 0.79216 0.75454 0.23679
 O290 O 0.73537 0.77299 0.28632
 O291 O 0.70807 0.74563 0.26111
 O292 O 0.76487 0.72719 0.21156
 O293 O 0.74540 0.70810 0.26136
 O294 O 0.72749 0.76471 0.21126
 Cu295 Cu 0.76650 0.76653 0.26408
 Cu296 Cu 0.73371 0.73365 0.23377
 C297 C 0.73822 0.78791 0.21532
 C298 C 0.76195 0.71226 0.28253
 C299 C 0.78807 0.73786 0.21572
 C300 C 0.71218 0.76229 0.28220
 O301 O 0.79208 0.24525 0.23677
 O302 O 0.73554 0.22711 0.28674
 O303 O 0.75471 0.20781 0.23691
 O304 O 0.77292 0.26453 0.28661
 O305 O 0.74552 0.29186 0.26145
 O306 O 0.72730 0.23513 0.21174
 O307 O 0.70814 0.25444 0.26157
 O308 O 0.76468 0.27257 0.21160
 Cu309 Cu 0.76658 0.23341 0.26429
 Cu310 Cu 0.73365 0.26626 0.23404
 C311 C 0.78789 0.26187 0.21566
 C312 C 0.71234 0.23784 0.28269
 C313 C 0.73803 0.21193 0.21585
 C314 C 0.76217 0.28772 0.28253
 O315 O 0.27261 0.76523 0.21227
 O316 O 0.25431 0.70838 0.26177
 O317 O 0.23520 0.72781 0.21196
 O318 O 0.29174 0.74576 0.26201
 O319 O 0.26436 0.77304 0.28726
 O320 O 0.20781 0.75510 0.23719
 O321 O 0.22692 0.73567 0.28700
 O322 O 0.24523 0.79251 0.23751
 Cu323 Cu 0.26622 0.73404 0.23445
 Cu324 Cu 0.23331 0.76683 0.26479
 C325 C 0.26191 0.78843 0.21646
 C326 C 0.23764 0.71247 0.28284
 C327 C 0.21200 0.73853 0.21603
 C328 C 0.28756 0.76232 0.28317
 O329 O 0.77308 0.26376 0.71333
 O330 O 0.75514 0.20710 0.76331
 O331 O 0.73572 0.22630 0.71352
 O332 O 0.79251 0.24457 0.76311
 O333 O 0.76522 0.27192 0.78837
 O334 O 0.70843 0.25365 0.73878
 O335 O 0.72785 0.23445 0.78857
 O336 O 0.74579 0.29112 0.73859
 Cu337 Cu 0.76687 0.23267 0.73577
 Cu338 Cu 0.73407 0.26554 0.76613
 C339 C 0.76235 0.28697 0.71743
 C340 C 0.73857 0.21124 0.78447
 C341 C 0.71253 0.23700 0.71768
 C342 C 0.78842 0.26122 0.78420
 O343 O 0.29185 0.74648 0.73831
 O344 O 0.23526 0.72827 0.78818
 O345 O 0.25453 0.70896 0.73838
 O346 O 0.27252 0.76584 0.78804
 O347 O 0.24510 0.79306 0.76277
 O348 O 0.22711 0.73619 0.71312
 O349 O 0.20783 0.75550 0.76292
 O350 O 0.26444 0.77370 0.71303
 Cu351 Cu 0.26631 0.73464 0.76577
 Cu352 Cu 0.23335 0.76735 0.73541
 C353 C 0.28767 0.76306 0.71717
 C354 C 0.21204 0.73893 0.78408
 C355 C 0.23789 0.71301 0.71727
 C356 C 0.26174 0.78901 0.78388
 O357 O 0.20742 0.24480 0.76254
 O358 O 0.26412 0.22687 0.71265
 O359 O 0.24491 0.20741 0.76234
 O360 O 0.22660 0.26424 0.71279
 O361 O 0.25388 0.29154 0.73810
 O362 O 0.27218 0.23470 0.78765
 O363 O 0.29140 0.25417 0.73796
 O364 O 0.23470 0.27210 0.78784
 Cu365 Cu 0.23301 0.23308 0.73502
 Cu366 Cu 0.26579 0.26589 0.76544
 C367 C 0.21153 0.26137 0.78370
 C368 C 0.28730 0.23759 0.71681
 C369 C 0.26153 0.21150 0.78344
 C370 C 0.23725 0.28745 0.71700
 O371 O 0.73588 0.77301 0.71316
 O372 O 0.79250 0.75476 0.76299
 O373 O 0.77327 0.73552 0.71320
 O374 O 0.75509 0.79222 0.76299
 O375 O 0.72774 0.76490 0.78818
 O376 O 0.74592 0.70820 0.73840
 O377 O 0.76516 0.72744 0.78819
 O378 O 0.70852 0.74569 0.73834
 Cu379 Cu 0.76694 0.76664 0.73554
 Cu380 Cu 0.73407 0.73380 0.76582
 C381 C 0.71268 0.76232 0.71725
 C382 C 0.78836 0.73812 0.78408
 C383 C 0.76256 0.71232 0.71731
 C384 C 0.73845 0.78809 0.78408
 C385 C 0.28957 0.06998 0.07515
 C386 C 0.28806 0.08749 0.09389
 C387 C 0.28561 0.10875 0.11574
 C388 C 0.28741 0.13606 0.10696
 C389 C 0.28372 0.15685 0.12782
 C390 C 0.27821 0.15042 0.15757
 C391 C 0.27672 0.12310 0.16643
 C392 C 0.28042 0.10229 0.14555
 C393 C 0.27311 0.17189 0.17864
 C394 C 0.26834 0.19006 0.19590
 H395 H 0.29129 0.14128 0.08394
 H396 H 0.28481 0.17790 0.12070
 H397 H 0.27237 0.11790 0.18935
 H398 H 0.27888 0.08123 0.15254
 C399 C 0.79208 0.57028 0.57726
 C400 C 0.79020 0.58780 0.59592
 C401 C 0.78736 0.60899 0.61776
 C402 C 0.79223 0.63614 0.60983
 C403 C 0.78823 0.65694 0.63061
 C404 C 0.77933 0.65068 0.65940
 C405 C 0.77475 0.62349 0.66744
 C406 C 0.77876 0.60268 0.64665
 C407 C 0.77395 0.67223 0.68026
 C408 C 0.76899 0.69045 0.69738
 H409 H 0.79877 0.64125 0.58751
 H410 H 0.79172 0.67791 0.62413
 H411 H 0.76776 0.61843 0.68960
 H412 H 0.77483 0.58175 0.65296
 C413 C 0.70887 0.92978 0.07477
 C414 C 0.71088 0.91221 0.09338
 C415 C 0.71382 0.89105 0.11527
 C416 C 0.70799 0.86398 0.10777
 C417 C 0.71198 0.84322 0.12861
 C418 C 0.72181 0.84944 0.15706
 C419 C 0.72737 0.87654 0.16466
 C420 C 0.72338 0.89731 0.14381
 C421 C 0.72708 0.82791 0.17801
 C422 C 0.73192 0.80972 0.19524
 H423 H 0.70068 0.85891 0.08573
 H424 H 0.70771 0.82232 0.12246
 H425 H 0.73508 0.88157 0.18655
 H426 H 0.72805 0.91817 0.14980
 C427 C 0.20754 0.42971 0.57728
 C428 C 0.20944 0.41217 0.59592
 C429 C 0.21229 0.39096 0.61773
 C430 C 0.22112 0.39721 0.64655
 C431 C 0.22517 0.37637 0.66729
 C432 C 0.22038 0.34921 0.65928
 C433 C 0.21125 0.34301 0.63056
 C434 C 0.20721 0.36384 0.60983
 C435 C 0.22579 0.32762 0.68008
 C436 C 0.23078 0.30936 0.69715
 H437 H 0.22522 0.41811 0.65284
 H438 H 0.23234 0.38137 0.68940
 H439 H 0.20759 0.32207 0.62410
 H440 H 0.20049 0.35878 0.58756
 C441 C 0.92966 0.29166 0.07541
 C442 C 0.91211 0.28963 0.09400
 C443 C 0.89097 0.28665 0.11587
 C444 C 0.86394 0.29267 0.10842
 C445 C 0.84319 0.28862 0.12923
 C446 C 0.84938 0.27854 0.15758
 C447 C 0.87645 0.27279 0.16514
 C448 C 0.89721 0.27684 0.14432
 C449 C 0.82786 0.27319 0.17847
 C450 C 0.80969 0.26826 0.19565
 H451 H 0.85889 0.30016 0.08644
 H452 H 0.82232 0.29303 0.12312
 H453 H 0.88145 0.26488 0.18695
 H454 H 0.91804 0.27202 0.15026
 C455 C 0.42974 0.79241 0.57717
 C456 C 0.41221 0.79055 0.59581
 C457 C 0.39099 0.78775 0.61763
 C458 C 0.36383 0.79239 0.60957
 C459 C 0.34302 0.78842 0.63032
 C460 C 0.34927 0.77979 0.65922
 C461 C 0.37646 0.77546 0.66739
 C462 C 0.39728 0.77943 0.64662
 C463 C 0.32771 0.77444 0.68008
 C464 C 0.30950 0.76950 0.69721
 H465 H 0.35874 0.79872 0.58717
 H466 H 0.32206 0.79173 0.62374
 H467 H 0.38151 0.76868 0.68964
 H468 H 0.41821 0.77569 0.65304
 C469 C 0.07052 0.70896 0.07534
 C470 C 0.08803 0.71100 0.09398
 C471 C 0.10912 0.71397 0.11591
 C472 C 0.13620 0.70821 0.10844
 C473 C 0.15690 0.71222 0.12932
 C474 C 0.15061 0.72203 0.15776
 C475 C 0.12349 0.72752 0.16534
 C476 C 0.10278 0.72350 0.14445
 C477 C 0.17208 0.72733 0.17874
 C478 C 0.19022 0.73221 0.19597
 H479 H 0.14133 0.70093 0.08640
 H480 H 0.17781 0.70800 0.12319
 H481 H 0.11841 0.73520 0.18723
 H482 H 0.08191 0.72811 0.15041
 C483 C 0.57072 0.20757 0.57737
 C484 C 0.58821 0.20948 0.59606
 C485 C 0.60935 0.21232 0.61796
 C486 C 0.60301 0.22119 0.64675
 C487 C 0.62377 0.22518 0.66759
 C488 C 0.65094 0.22032 0.65971
 C489 C 0.65723 0.21117 0.63102
 C490 C 0.63648 0.20718 0.61019
 C491 C 0.67245 0.22567 0.68062
 C492 C 0.69066 0.23059 0.69776
 H493 H 0.58210 0.22533 0.65295
 H494 H 0.61869 0.23237 0.68968
 H495 H 0.67817 0.20745 0.62464
 H496 H 0.64161 0.20043 0.58795
 C497 C 0.70899 0.06897 0.92445
 C498 C 0.71104 0.08659 0.90590
 C499 C 0.71402 0.10783 0.88410
 C500 C 0.70833 0.13490 0.89176
 C501 C 0.71235 0.15572 0.87101
 C502 C 0.72208 0.14958 0.84251
 C503 C 0.72751 0.12247 0.83474
 C504 C 0.72349 0.10163 0.85550
 C505 C 0.72738 0.17117 0.82164
 C506 C 0.73225 0.18939 0.80448
 H507 H 0.70110 0.13992 0.91385
 H508 H 0.70818 0.17662 0.87729
 H509 H 0.73514 0.11749 0.81281
 H510 H 0.72805 0.08078 0.84939
 C511 C 0.20972 0.57071 0.42348
 C512 C 0.21125 0.58819 0.40475
 C513 C 0.21370 0.60934 0.38280
 C514 C 0.22126 0.60289 0.35360
 C515 C 0.22499 0.62365 0.33269
 C516 C 0.22116 0.65091 0.34092
 C517 C 0.21327 0.65731 0.37002
 C518 C 0.20954 0.63657 0.39092
 C519 C 0.22638 0.67240 0.31993
 C520 C 0.23126 0.69059 0.30276
 H521 H 0.22463 0.58190 0.34713
 H522 H 0.23121 0.61849 0.31027
 H523 H 0.21036 0.67833 0.37665
 H524 H 0.20380 0.64177 0.41348
 C525 C 0.28940 0.93130 0.92413
 C526 C 0.28787 0.91377 0.90543
 C527 C 0.28542 0.89246 0.88365
 C528 C 0.28004 0.89884 0.85385
 C529 C 0.27631 0.87798 0.83305
 C530 C 0.27797 0.85067 0.84197
 C531 C 0.28367 0.84433 0.87170
 C532 C 0.28738 0.86517 0.89248
 C533 C 0.27282 0.82915 0.82099
 C534 C 0.26803 0.81092 0.80382
 H535 H 0.27837 0.91988 0.84682
 H536 H 0.27181 0.88311 0.81014
 H537 H 0.28489 0.82330 0.87886
 H538 H 0.29142 0.86002 0.91549
 C539 C 0.78978 0.42934 0.42342
 C540 C 0.78825 0.41186 0.40469
 C541 C 0.78583 0.39072 0.38273
 C542 C 0.77854 0.39720 0.35345
 C543 C 0.77487 0.37646 0.33252
 C544 C 0.77847 0.34917 0.34079
 C545 C 0.78608 0.34274 0.36998
 C546 C 0.78975 0.36347 0.39090
 C547 C 0.77333 0.32772 0.31976
 C548 C 0.76851 0.30955 0.30253
 H549 H 0.77536 0.41821 0.34694
 H550 H 0.76887 0.38165 0.31004
 H551 H 0.78881 0.32171 0.37664
 H552 H 0.79527 0.35824 0.41352
 C553 C 0.06958 0.29114 0.92384
 C554 C 0.08715 0.28908 0.90526
 C555 C 0.10833 0.28609 0.88343
 C556 C 0.10202 0.27711 0.85467
 C557 C 0.12280 0.27305 0.83387
 C558 C 0.14996 0.27796 0.84175
 C559 C 0.15621 0.28723 0.87041
 C560 C 0.13544 0.29128 0.89120
 C561 C 0.17148 0.27261 0.82085
 C562 C 0.18968 0.26771 0.80369
 H563 H 0.08113 0.27294 0.84847
 H564 H 0.11775 0.26579 0.81181
 H565 H 0.17714 0.29099 0.87677
 H566 H 0.14054 0.29814 0.91341
 C567 C 0.57068 0.79003 0.42326
 C568 C 0.58815 0.78848 0.40451
 C569 C 0.60928 0.78604 0.38253
 C570 C 0.60276 0.77918 0.35315
 C571 C 0.62347 0.77550 0.33217
 C572 C 0.65077 0.77867 0.34052
 C573 C 0.65724 0.78586 0.36982
 C574 C 0.63655 0.78953 0.39078
 C575 C 0.67219 0.77351 0.31944
 C576 C 0.69034 0.76867 0.30219
 H577 H 0.58174 0.77633 0.34657
 H578 H 0.61824 0.76983 0.30961
 H579 H 0.67828 0.78826 0.37655
 H580 H 0.64181 0.79473 0.41348
 C581 C 0.93071 0.70826 0.92367
 C582 C 0.91311 0.71026 0.90512
 C583 C 0.89190 0.71320 0.88332
 C584 C 0.86500 0.70653 0.89065
 C585 C 0.84415 0.71058 0.86995
 C586 C 0.85011 0.72132 0.84183
 C587 C 0.87706 0.72771 0.83438
 C588 C 0.89791 0.72366 0.85509
 C589 C 0.82847 0.72670 0.82108
 C590 C 0.81022 0.73166 0.80401
 H591 H 0.86012 0.69854 0.91246
 H592 H 0.82338 0.70567 0.87598
 H593 H 0.88188 0.73612 0.81274
 H594 H 0.91863 0.72898 0.84924
 C595 C 0.42979 0.20993 0.42346
 C596 C 0.41230 0.21152 0.40474
 C597 C 0.39115 0.21401 0.38280
 C598 C 0.36396 0.20963 0.39086
 C599 C 0.34321 0.21333 0.36998
 C600 C 0.34955 0.22144 0.34092
 C601 C 0.37677 0.22551 0.33275
 C602 C 0.39754 0.22179 0.35365
 C603 C 0.32805 0.22659 0.31993
 C604 C 0.30987 0.23142 0.30272
 H605 H 0.35880 0.20371 0.41338
 H606 H 0.32223 0.21024 0.37657
 H607 H 0.38190 0.23188 0.31038
 H608 H 0.41849 0.22533 0.34722
 C609 C 0.70890 0.93005 0.92426
 C610 C 0.71087 0.91251 0.90563
 C611 C 0.71377 0.89136 0.88374
 C612 C 0.72368 0.89756 0.85534
 C613 C 0.72769 0.87678 0.83452
 C614 C 0.72179 0.84972 0.84205
 C615 C 0.71158 0.84358 0.87035
 C616 C 0.70758 0.86435 0.89116
 C617 C 0.72712 0.82816 0.82118
 C618 C 0.73205 0.80994 0.80404
 H619 H 0.72863 0.91837 0.84943
 H620 H 0.73568 0.88174 0.81274
 H621 H 0.70705 0.82272 0.87644
 H622 H 0.70001 0.85934 0.91311
 C623 C 0.21009 0.42953 0.42365
 C624 C 0.21177 0.41200 0.40497
 C625 C 0.21436 0.39082 0.38305
 C626 C 0.22155 0.39728 0.35374
 C627 C 0.22533 0.37652 0.33283
 C628 C 0.22193 0.34923 0.34116
 C629 C 0.21444 0.34280 0.37038
 C630 C 0.21067 0.36355 0.39128
 C631 C 0.22709 0.32775 0.32011
 C632 C 0.23189 0.30958 0.30286
 H633 H 0.22456 0.41829 0.34718
 H634 H 0.23122 0.38171 0.31032
 H635 H 0.21186 0.32177 0.37710
 H636 H 0.20522 0.35833 0.41392
 C637 C 0.28962 0.06950 0.92375
 C638 C 0.28816 0.08694 0.90495
 C639 C 0.28576 0.10815 0.88307
 C640 C 0.28874 0.13542 0.89161
 C641 C 0.28497 0.15623 0.87079
 C642 C 0.27821 0.14985 0.84135
 C643 C 0.27556 0.12256 0.83271
 C644 C 0.27934 0.10173 0.85355
 C645 C 0.27292 0.17136 0.82042
 C646 C 0.26798 0.18959 0.80331
 H647 H 0.29357 0.14060 0.91442
 H648 H 0.28695 0.17726 0.87774
 H649 H 0.27022 0.11741 0.81003
 H650 H 0.27688 0.08071 0.84676
 C651 C 0.78957 0.57053 0.42362
 C652 C 0.78794 0.58807 0.40494
 C653 C 0.78541 0.60927 0.38301
 C654 C 0.77856 0.60279 0.35361
 C655 C 0.77486 0.62355 0.33268
 C656 C 0.77799 0.65086 0.34107
 C657 C 0.78515 0.65729 0.37039
 C658 C 0.78884 0.63655 0.39132
 C659 C 0.77291 0.67232 0.31997
 C660 C 0.76817 0.69047 0.30267
 H661 H 0.77576 0.58176 0.34699
 H662 H 0.76923 0.61834 0.31009
 H663 H 0.78752 0.67834 0.37716
 H664 H 0.79403 0.64178 0.41402
 C665 C 0.07057 0.70910 0.92476
 C666 C 0.08808 0.71117 0.90612
 C667 C 0.10917 0.71418 0.88417
 C668 C 0.10282 0.72383 0.85569
 C669 C 0.12352 0.72788 0.83479
 C670 C 0.15063 0.72229 0.84231
 C671 C 0.15693 0.71236 0.87070
 C672 C 0.13624 0.70831 0.89158
 C673 C 0.17210 0.72763 0.82133
 C674 C 0.19024 0.73255 0.80411
 H675 H 0.08196 0.72851 0.84977
 H676 H 0.11844 0.73566 0.81294
 H677 H 0.17783 0.70807 0.87679
 H678 H 0.14137 0.70094 0.91359
 C679 C 0.57089 0.20990 0.42372
 C680 C 0.58840 0.21151 0.40503
 C681 C 0.60954 0.21403 0.38309
 C682 C 0.60303 0.22103 0.35373
 C683 C 0.62374 0.22477 0.33279
 C684 C 0.65103 0.22153 0.34113
 C685 C 0.65751 0.21422 0.37040
 C686 C 0.63681 0.21048 0.39133
 C687 C 0.67245 0.22669 0.32005
 C688 C 0.69057 0.23151 0.30277
 H689 H 0.58201 0.22392 0.34716
 H690 H 0.61852 0.23052 0.31024
 H691 H 0.67855 0.21177 0.37712
 H692 H 0.64206 0.20519 0.41400
 C693 C 0.93072 0.29126 0.92379
 C694 C 0.91314 0.28921 0.90522
 C695 C 0.89193 0.28622 0.88343
 C696 C 0.86493 0.29227 0.89097
 C697 C 0.84410 0.28819 0.87026
 C698 C 0.85018 0.27804 0.84191
 C699 C 0.87722 0.27227 0.83425
 C700 C 0.89806 0.27635 0.85497
 C701 C 0.82857 0.27265 0.82114
 C702 C 0.81031 0.26767 0.80407
 H703 H 0.85996 0.29980 0.91296
 H704 H 0.82325 0.29262 0.87646
 H705 H 0.88214 0.26432 0.81243
 H706 H 0.91886 0.27151 0.84895
 C707 C 0.42958 0.79005 0.42354
 C708 C 0.41202 0.78847 0.40490
 C709 C 0.39077 0.78600 0.38307
 C710 C 0.36356 0.78962 0.39147
 C711 C 0.34274 0.78592 0.37066
 C712 C 0.34906 0.77857 0.34137
 C713 C 0.37631 0.77526 0.33287
 C714 C 0.39713 0.77897 0.35369
 C715 C 0.32754 0.77343 0.32041
 C716 C 0.30936 0.76862 0.30321
 H717 H 0.35842 0.79494 0.41417
 H718 H 0.32175 0.78843 0.37750
 H719 H 0.38141 0.76948 0.31030
 H720 H 0.41811 0.77602 0.34700
 C721 C 0.29002 0.93077 0.07663
 C722 C 0.28860 0.91329 0.09538
 C723 C 0.28621 0.89202 0.11719
 C724 C 0.28956 0.86479 0.10865
 C725 C 0.28578 0.84392 0.12938
 C726 C 0.27863 0.85020 0.15874
 C727 C 0.27563 0.87746 0.16739
 C728 C 0.27941 0.89834 0.14664
 C729 C 0.27333 0.82862 0.17958
 C730 C 0.26838 0.81035 0.19664
 H731 H 0.29468 0.85969 0.08589
 H732 H 0.28804 0.82291 0.12243
 H733 H 0.26999 0.88252 0.19002
 H734 H 0.27666 0.91933 0.15343
 C735 C 0.79163 0.42899 0.57708
 C736 C 0.78965 0.41143 0.59570
 C737 C 0.78674 0.39021 0.61753
 C738 C 0.77848 0.39657 0.64654
 C739 C 0.77450 0.37576 0.66735
 C740 C 0.77876 0.34853 0.65923
 C741 C 0.78728 0.34222 0.63031
 C742 C 0.79126 0.36301 0.60951
 C743 C 0.77350 0.32700 0.68018
 C744 C 0.76865 0.30881 0.69739
 H745 H 0.77483 0.41753 0.65293
 H746 H 0.76781 0.38087 0.68961
 H747 H 0.79054 0.32124 0.62376
 H748 H 0.79754 0.35787 0.58711
 C749 C 0.70854 0.06972 0.07604
 C750 C 0.71048 0.08729 0.09462
 C751 C 0.71335 0.10848 0.11647
 C752 C 0.70703 0.13546 0.10903
 C753 C 0.71102 0.15628 0.12978
 C754 C 0.72134 0.15020 0.15805
 C755 C 0.72738 0.12318 0.16561
 C756 C 0.72338 0.10235 0.14485
 C757 C 0.72668 0.17181 0.17885
 C758 C 0.73161 0.19005 0.19594
 H759 H 0.69937 0.14042 0.08710
 H760 H 0.70639 0.17712 0.12367
 H761 H 0.73547 0.11827 0.18736
 H762 H 0.72843 0.08156 0.15077
 C763 C 0.20801 0.57098 0.57714
 C764 C 0.21005 0.58852 0.59577
 C765 C 0.21306 0.60971 0.61761
 C766 C 0.20838 0.63691 0.60967
 C767 C 0.21246 0.65768 0.63046
 C768 C 0.22125 0.65136 0.65928
 C769 C 0.22566 0.62413 0.66732
 C770 C 0.22157 0.60334 0.64652
 C771 C 0.22662 0.67288 0.68020
 C772 C 0.23154 0.69111 0.69734
 H773 H 0.20190 0.64206 0.58734
 H774 H 0.20909 0.67866 0.62397
 H775 H 0.23255 0.61902 0.68951
 H776 H 0.22534 0.58239 0.65284
 C777 C 0.93064 0.70808 0.07637
 C778 C 0.91301 0.71003 0.09490
 C779 C 0.89177 0.71293 0.11668
 C780 C 0.86483 0.70662 0.10916
 C781 C 0.84395 0.71063 0.12984
 C782 C 0.84993 0.72098 0.15812
 C783 C 0.87691 0.72701 0.16576
 C784 C 0.89780 0.72298 0.14507
 C785 C 0.82826 0.72637 0.17885
 C786 C 0.80998 0.73135 0.19588
 H787 H 0.85994 0.69893 0.08722
 H788 H 0.82315 0.70601 0.12366
 H789 H 0.88175 0.73512 0.18753
 H790 H 0.91855 0.72803 0.15107
 C791 C 0.42954 0.20778 0.57709
 C792 C 0.41198 0.20976 0.59568
 C793 C 0.39075 0.21270 0.61746
 C794 C 0.36364 0.20774 0.60951
 C795 C 0.34281 0.21182 0.63022
 C796 C 0.34900 0.22088 0.65897
 C797 C 0.37615 0.22556 0.66703
 C798 C 0.39699 0.22148 0.64631
 C799 C 0.32741 0.22627 0.67978
 C800 C 0.30917 0.23121 0.69688
 H801 H 0.35859 0.20107 0.58722
 H802 H 0.32188 0.20824 0.62372
 H803 H 0.38115 0.23267 0.68916
 H804 H 0.41789 0.22547 0.65264
 C805 C 0.07056 0.29154 0.07550
 C806 C 0.08810 0.28952 0.09412
 C807 C 0.10921 0.28656 0.11604
 C808 C 0.13622 0.29269 0.10868
 C809 C 0.15694 0.28869 0.12954
 C810 C 0.15074 0.27854 0.15785
 C811 C 0.12368 0.27268 0.16532
 C812 C 0.10295 0.27668 0.14445
 C813 C 0.17225 0.27323 0.17880
 C814 C 0.19043 0.26833 0.19598
 H815 H 0.14129 0.30024 0.08673
 H816 H 0.17781 0.29319 0.12349
 H817 H 0.11867 0.26472 0.18711
 H818 H 0.08214 0.27178 0.15033
 C819 C 0.57093 0.79216 0.57693
 C820 C 0.58846 0.79021 0.59556
 C821 C 0.60964 0.78731 0.61741
 C822 C 0.60321 0.77961 0.64657
 C823 C 0.62397 0.77554 0.66740
 C824 C 0.65123 0.77916 0.65913
 C825 C 0.65762 0.78716 0.63006
 C826 C 0.63687 0.79122 0.60924
 C827 C 0.67270 0.77375 0.68008
 C828 C 0.69086 0.76877 0.69726
 H829 H 0.58221 0.77643 0.65307
 H830 H 0.61880 0.76926 0.68979
 H831 H 0.67863 0.78993 0.62340
 H832 H 0.64207 0.79707 0.58672
   
