data_POSCAR
  _audit_creation_date              2014-09-24
  _audit_creation_method            'ToBaCCo'
  _symmetry_space_group_name_H-M    'P1'
  _symmetry_Int_Tables_number       1
  _symmetry_cell_setting            triclinic
  loop_
  _symmetry_equiv_pos_as_xyz
 x,y,z
_cell_length_a 45.9915
_cell_length_b 45.9602
_cell_length_c 45.7669
_cell_angle_alpha 89.902400
_cell_angle_beta 90.020600
_cell_angle_gamma 90.003600
loop_
  _atom_site_label
  _atom_site_type_symbol
  _atom_site_fract_x
  _atom_site_fract_y
  _atom_site_fract_z
C1 C 1.27266 0.21903 0.26552
 C2 C 1.25130 0.23424 0.24999
 C3 C 1.22993 0.21901 0.23458
 C4 C 1.22986 0.18845 0.23418
 C5 C 1.25125 0.17331 0.25017
 C6 C 1.27274 0.18837 0.26619
 C7 C 1.25130 0.26627 0.24988
 C8 C 1.27265 0.28148 0.23435
 C9 C 1.27274 0.31214 0.23366
 C10 C 1.25124 0.32720 0.24968
 C11 C 1.22987 0.31206 0.26566
 C12 C 1.22994 0.28150 0.26527
 H13 H 1.28889 0.23137 0.27739
 H14 H 1.21365 0.23118 0.22257
 H15 H 1.28888 0.26913 0.22250
 H16 H 1.21366 0.26933 0.27727
 H17 H 1.25107 0.14975 0.25010
 H18 H 1.25107 0.35076 0.24974
 C19 C 0.77167 -0.28180 0.26563
 C20 C 0.75014 -0.26659 0.25034
 C21 C 0.72867 -0.28183 0.23509
 C22 C 0.72868 -0.31239 0.23459
 C23 C 0.75023 -0.32752 0.25035
 C24 C 0.77183 -0.31246 0.26623
 C25 C 0.75012 -0.23457 0.25028
 C26 C 0.77165 -0.21933 0.23504
 C27 C 0.77168 -0.18875 0.23450
 C28 C 0.75012 -0.17364 0.25020
 C29 C 0.72856 -0.18876 0.26594
 C30 C 0.72859 -0.21934 0.26549
 H31 H 0.78799 -0.26945 0.27737
 H32 H 0.71227 -0.26966 0.22326
 H33 H 0.78807 -0.23148 0.22326
 H34 H 0.71218 -0.23151 0.27730
 H35 H 0.75012 -0.35109 0.25021
 H36 H 0.75012 -0.15008 0.25017
 C37 C 0.77232 0.21942 -0.23532
 C38 C 0.75080 0.23465 -0.25061
 C39 C 0.72927 0.21940 -0.26580
 C40 C 0.72921 0.18883 -0.26620
 C41 C 0.75076 0.17372 -0.25042
 C42 C 0.77234 0.18884 -0.23473
 C43 C 0.75081 0.26667 -0.25069
 C44 C 0.77231 0.28189 -0.26600
 C45 C 0.77241 0.31254 -0.26666
 C46 C 0.75080 0.32760 -0.25082
 C47 C 0.72928 0.31246 -0.23503
 C48 C 0.72932 0.28190 -0.23548
 H49 H 0.78875 0.23158 -0.22355
 H50 H 0.71285 0.23156 -0.27764
 H51 H 0.78863 0.26954 -0.27773
 H52 H 0.71293 0.26973 -0.22363
 H53 H 0.75075 0.15016 -0.25034
 H54 H 0.75064 0.35116 -0.25073
 C55 C 1.27190 -0.28176 -0.23454
 C56 C 1.25024 -0.26653 -0.24961
 C57 C 1.22861 -0.28174 -0.26465
 C58 C 1.22860 -0.31230 -0.26518
 C59 C 1.25028 -0.32746 -0.24963
 C60 C 1.27203 -0.31242 -0.23395
 C61 C 1.25023 -0.23452 -0.24965
 C62 C 1.27191 -0.21928 -0.26467
 C63 C 1.27194 -0.18870 -0.26521
 C64 C 1.25024 -0.17359 -0.24972
 C65 C 1.22853 -0.18872 -0.23419
 C66 C 1.22856 -0.21929 -0.23466
 H67 H 1.28834 -0.26943 -0.22294
 H68 H 1.21210 -0.26956 -0.27633
 H69 H 1.28844 -0.23143 -0.27629
 H70 H 1.21203 -0.23145 -0.22300
 H71 H 1.25015 -0.35102 -0.24978
 H72 H 1.25024 -0.15004 -0.24975
 C73 C 0.21921 0.27121 0.73540
 C74 C 0.23442 0.24980 0.75083
 C75 C 0.21922 0.22834 0.76623
 C76 C 0.18858 0.22819 0.76675
 C77 C 0.17354 0.24973 0.75070
 C78 C 0.18867 0.27121 0.73484
 C79 C 0.26642 0.24985 0.75086
 C80 C 0.28161 0.27130 0.76624
 C81 C 0.31225 0.27147 0.76679
 C82 C 0.32731 0.24996 0.75081
 C83 C 0.31220 0.22849 0.73497
 C84 C 0.28166 0.22847 0.73549
 H85 H 0.23137 0.28757 0.72349
 H86 H 0.23156 0.21208 0.77811
 H87 H 0.26926 0.28754 0.77807
 H88 H 0.26951 0.21212 0.72360
 H89 H 0.14999 0.24984 0.75051
 H90 H 0.35086 0.24986 0.75064
 C91 C 0.71861 0.77149 0.73443
 C92 C 0.73381 0.75012 0.74992
 C93 C 0.71863 0.72875 0.76544
 C94 C 0.68801 0.72864 0.76605
 C95 C 0.67293 0.75013 0.74996
 C96 C 0.68799 0.77161 0.73386
 C97 C 0.76581 0.75011 0.74989
 C98 C 0.78106 0.77148 0.76532
 C99 C 0.81162 0.77152 0.76577
 C100 C 0.82670 0.75010 0.74984
 C101 C 0.81158 0.72869 0.73393
 C102 C 0.78102 0.72874 0.73444
 H103 H 0.73094 0.78771 0.72249
 H104 H 0.73098 0.71252 0.77735
 H105 H 0.76893 0.78778 0.77727
 H106 H 0.76885 0.71244 0.72250
 H107 H 0.64938 0.75013 0.74998
 H108 H 0.85024 0.75010 0.74981
 C109 C 0.71934 0.27149 0.23465
 C110 C 0.73454 0.24982 0.24975
 C111 C 0.71930 0.22814 0.26480
 C112 C 0.68874 0.22811 0.26524
 C113 C 0.67366 0.24981 0.24964
 C114 C 0.68879 0.27152 0.23409
 C115 C 0.76653 0.24983 0.24982
 C116 C 0.78173 0.27151 0.26485
 C117 C 0.81228 0.27155 0.26541
 C118 C 0.82742 0.24986 0.24993
 C119 C 0.81234 0.22815 0.23439
 C120 C 0.78179 0.22816 0.23484
 H121 H 0.73150 0.28803 0.22298
 H122 H 0.73143 0.21161 0.27651
 H123 H 0.76956 0.28803 0.27646
 H124 H 0.76966 0.21163 0.22319
 H125 H 0.65012 0.24981 0.24959
 H126 H 0.85096 0.24987 0.24997
 C127 C 0.21872 0.77130 0.23445
 C128 C 0.23391 0.74989 0.24990
 C129 C 0.21873 0.72850 0.26536
 C130 C 0.18811 0.72839 0.26597
 C131 C 0.17304 0.74992 0.24993
 C132 C 0.18810 0.77143 0.23388
 C133 C 0.26591 0.74989 0.24988
 C134 C 0.28116 0.77131 0.26523
 C135 C 0.31172 0.77135 0.26569
 C136 C 0.32681 0.74990 0.24982
 C137 C 0.31168 0.72844 0.23398
 C138 C 0.28112 0.72847 0.23449
 H139 H 0.23106 0.78755 0.22256
 H140 H 0.23108 0.71224 0.27724
 H141 H 0.26901 0.78764 0.27714
 H142 H 0.26895 0.71213 0.22261
 H143 H 0.14948 0.74993 0.24994
 H144 H 0.35035 0.74990 0.24980
 O145 O 1.05040 0.01502 0.03640
 O146 O 0.95096 -0.01527 0.03642
 O147 O 0.98560 0.04960 0.03638
 O148 O 1.01577 -0.04990 0.03645
 O149 O 0.94535 0.03362 0.02036
 O150 O 1.05601 -0.03387 0.02043
 O151 O 0.96691 -0.05552 0.02041
 O152 O 1.03443 0.05529 0.02030
 C153 C 1.04765 0.04146 0.03968
 C154 C 0.95374 -0.04171 0.03977
 C155 C 0.95920 0.04673 0.03976
 C156 C 1.04219 -0.04711 0.03979
 O157 O 1.05033 -0.01532 -0.03611
 O158 O 0.95099 0.01519 -0.03614
 O159 O 1.01588 0.04964 -0.03618
 O160 O 0.98539 -0.04979 -0.03610
 O161 O 0.94520 -0.03370 -0.02008
 O162 O 1.05609 0.03353 -0.02016
 O163 O 1.03424 -0.05555 -0.02003
 O164 O 0.96705 0.05539 -0.02012
 Co165 Co 1.04805 -0.00016 0.00014
 Co166 Co 0.95328 -0.00005 0.00014
 Co167 Co 1.00073 0.04732 0.00010
 Co168 Co 1.00058 -0.04753 0.00017
 O169 O 1.00066 -0.00011 0.00014
 C170 C 1.04738 -0.04173 -0.03945
 C171 C 0.95385 0.04162 -0.03950
 C172 C 1.04229 0.04680 -0.03952
 C173 C 0.95897 -0.04694 -0.03943
 O174 O 1.05010 0.51525 0.53599
 O175 O 0.95070 0.48501 0.53594
 O176 O 0.98510 0.54987 0.53583
 O177 O 1.01567 0.45044 0.53600
 O178 O 0.94493 0.53388 0.51968
 O179 O 1.05587 0.46642 0.51989
 O180 O 0.96682 0.44475 0.52006
 O181 O 1.03398 0.55553 0.52000
 C182 C 1.04715 0.54166 0.53939
 C183 C 0.95357 0.45859 0.53937
 C184 C 0.95867 0.54709 0.53907
 C185 C 1.04209 0.45321 0.53929
 O186 O 1.05016 0.48507 0.46343
 O187 O 0.95072 0.51526 0.46330
 O188 O 1.01567 0.54991 0.46339
 O189 O 0.98525 0.45046 0.46348
 O190 O 0.94503 0.46639 0.47954
 O191 O 1.05587 0.53394 0.47956
 O192 O 1.03409 0.44479 0.47942
 O193 O 0.96679 0.55554 0.47919
 Co194 Co 1.04783 0.50017 0.49971
 Co195 Co 0.95302 0.50013 0.49962
 Co196 Co 1.00039 0.54757 0.49961
 Co197 Co 1.00045 0.45276 0.49973
 O198 O 1.00042 0.50016 0.49967
 C199 C 1.04736 0.45864 0.46009
 C200 C 0.95356 0.54169 0.45988
 C201 C 1.04210 0.54716 0.46014
 C202 C 0.95884 0.45329 0.46013
 O203 O 0.54989 0.01513 0.53639
 O204 O 0.45049 -0.01522 0.53643
 O205 O 0.48508 0.04969 0.53635
 O206 O 0.51532 -0.04982 0.53651
 O207 O 0.44483 0.03366 0.52039
 O208 O 0.55556 -0.03377 0.52050
 O209 O 0.46647 -0.05546 0.52043
 O210 O 0.53391 0.05537 0.52024
 C211 C 0.54709 0.04157 0.53966
 C212 C 0.45336 -0.04165 0.53982
 C213 C 0.45867 0.04687 0.53972
 C214 C 0.54174 -0.04702 0.53985
 O215 O 0.54985 -0.01530 0.46392
 O216 O 0.45048 0.01521 0.46386
 O217 O 0.51533 0.04966 0.46378
 O218 O 0.48498 -0.04978 0.46395
 O219 O 0.44476 -0.03368 0.47992
 O220 O 0.55555 0.03357 0.47982
 O221 O 0.53383 -0.05553 0.48005
 O222 O 0.46651 0.05543 0.47988
 Co223 Co 0.54756 -0.00009 0.50016
 Co224 Co 0.45279 -0.00001 0.50015
 Co225 Co 0.50021 0.04737 0.50007
 Co226 Co 0.50015 -0.04748 0.50023
 O227 O 0.50018 -0.00005 0.50015
 C228 C 0.54701 -0.04173 0.46064
 C229 C 0.45328 0.04165 0.46052
 C230 C 0.54172 0.04672 0.46040
 C231 C 0.45857 -0.04691 0.46059
 O232 O 0.54986 0.51510 0.03569
 O233 O 0.45044 0.48485 0.03573
 O234 O 0.48484 0.54970 0.03561
 O235 O 0.51544 0.45031 0.03564
 O236 O 0.44465 0.53373 0.01948
 O237 O 0.55560 0.46629 0.01947
 O238 O 0.46658 0.44460 0.01983
 O239 O 0.53370 0.55540 0.01980
 C240 C 0.54695 0.54151 0.03912
 C241 C 0.45332 0.45842 0.03914
 C242 C 0.45841 0.54691 0.03888
 C243 C 0.54185 0.45315 0.03893
 O244 O 0.54982 0.48505 -0.03692
 O245 O 0.45039 0.51511 -0.03689
 O246 O 0.51538 0.54983 -0.03684
 O247 O 0.48487 0.45037 -0.03681
 O248 O 0.44468 0.46624 -0.02066
 O249 O 0.55558 0.53389 -0.02069
 O250 O 0.53375 0.44473 -0.02099
 O251 O 0.46651 0.55539 -0.02102
 Co252 Co 0.54754 0.50008 -0.00061
 Co253 Co 0.45272 0.49999 -0.00059
 Co254 Co 0.50011 0.54744 -0.00061
 Co255 Co 0.50016 0.45264 -0.00059
 O256 O 0.50013 0.50004 -0.00060
 C257 C 0.54697 0.45863 -0.04032
 C258 C 0.45331 0.54153 -0.04035
 C259 C 0.54181 0.54712 -0.04008
 C260 C 0.45844 0.45307 -0.04005
 C261 C 1.16855 0.14364 0.18311
 N262 N 1.16866 0.17314 0.18402
 N263 N 1.18789 0.18728 0.20048
 C264 C 1.20783 0.17253 0.21667
 N265 N 1.20755 0.14297 0.21584
 N266 N 1.18830 0.12880 0.19938
 C267 C 1.14812 0.12815 0.16397
 N268 N 1.14832 0.09865 0.16250
 N269 N 1.13065 0.08471 0.14418
 C270 C 1.11213 0.09975 0.12665
 N271 N 1.11179 0.12924 0.12827
 N272 N 1.12944 0.14318 0.14661
 C273 C 1.09387 0.08448 0.10526
 N274 N 1.07681 0.09964 0.08639
 N275 N 1.06155 0.08588 0.06586
 C276 C 1.06277 0.05647 0.06350
 N277 N 1.07958 0.04129 0.08257
 N278 N 1.09486 0.05504 0.10307
 C279 C 1.16688 0.64309 0.68414
 N280 N 1.16691 0.67258 0.68525
 N281 N 1.18625 0.68665 0.70163
 C282 C 1.20638 0.67184 0.71753
 N283 N 1.20615 0.64229 0.71652
 N284 N 1.18679 0.62818 0.70015
 C285 C 1.14644 0.62770 0.66495
 N286 N 1.14674 0.59821 0.66325
 N287 N 1.12914 0.58437 0.64478
 C288 C 1.11063 0.59950 0.62733
 N289 N 1.11018 0.62897 0.62920
 N290 N 1.12774 0.64281 0.64769
 C291 C 1.09257 0.58435 0.60571
 N292 N 1.07562 0.59960 0.58680
 N293 N 1.06061 0.58595 0.56602
 C294 C 1.06199 0.55657 0.56344
 N295 N 1.07868 0.54130 0.58254
 N296 N 1.09370 0.55494 0.60329
 C297 C 0.66764 0.14392 0.68317
 N298 N 0.66770 0.17342 0.68408
 N299 N 0.68701 0.18760 0.70043
 C300 C 0.70706 0.17288 0.71649
 N301 N 0.70683 0.14332 0.71567
 N302 N 0.68750 0.12911 0.69934
 C303 C 0.64719 0.12840 0.66410
 N304 N 0.64745 0.09890 0.66262
 N305 N 0.62979 0.08493 0.64430
 C306 C 0.61124 0.09994 0.62680
 N307 N 0.61083 0.12943 0.62844
 N308 N 0.62846 0.14339 0.64677
 C309 C 0.59304 0.08465 0.60538
 N310 N 0.57600 0.09978 0.58647
 N311 N 0.56082 0.08601 0.56590
 C312 C 0.56212 0.05660 0.56352
 N313 N 0.57891 0.04144 0.58262
 N314 N 0.59410 0.05521 0.60317
 C315 C 0.66727 0.64295 0.18352
 N316 N 0.68714 0.62806 0.19960
 N317 N 0.70642 0.64217 0.21608
 C318 C 0.70659 0.67173 0.21713
 N319 N 0.68652 0.68652 0.20115
 N320 N 0.66727 0.67244 0.18467
 C321 C 0.64687 0.62755 0.16429
 N322 N 0.62814 0.64266 0.14706
 N323 N 0.61054 0.62882 0.12859
 C324 C 0.61099 0.59935 0.12672
 N325 N 0.62955 0.58422 0.14413
 N326 N 0.64717 0.59806 0.16257
 C327 C 0.59282 0.58419 0.10516
 N328 N 0.59391 0.55478 0.10275
 N329 N 0.57874 0.54114 0.08210
 C330 C 0.56195 0.55641 0.06309
 N331 N 0.56062 0.58580 0.06567
 N332 N 0.57577 0.59944 0.08635
 C333 C 0.83323 -0.14389 0.18370
 N334 N 0.81337 -0.12906 0.19978
 N335 N 0.79405 -0.14325 0.21618
 C336 C 0.79382 -0.17281 0.21713
 N337 N 0.81388 -0.18755 0.20115
 N338 N 0.83318 -0.17339 0.18475
 C339 C 0.85368 -0.12839 0.16456
 N340 N 0.87240 -0.14341 0.14731
 N341 N 0.89003 -0.12947 0.12892
 C342 C 0.88962 -0.09999 0.12715
 N343 N 0.87108 -0.08495 0.14458
 N344 N 0.85342 -0.09890 0.16295
 C345 C 0.90781 -0.08472 0.10566
 N346 N 0.90677 -0.05529 0.10334
 N347 N 0.92196 -0.04154 0.08274
 C348 C 0.93872 -0.05672 0.06370
 N349 N 0.94000 -0.08612 0.06619
 N350 N 0.92483 -0.09987 0.08682
 C351 C 0.83290 0.35665 0.68336
 N352 N 0.81284 0.37146 0.69920
 N353 N 0.79351 0.35727 0.71558
 C354 C 0.79340 0.32768 0.71679
 N355 N 0.81374 0.31301 0.70105
 N356 N 0.83304 0.32717 0.68466
 C357 C 0.85336 0.37213 0.66422
 N358 N 0.87223 0.35709 0.64715
 N359 N 0.88988 0.37100 0.62875
 C360 C 0.88934 0.40047 0.62678
 N361 N 0.87064 0.41552 0.64404
 N362 N 0.85297 0.40161 0.66242
 C363 C 0.90756 0.41569 0.60529
 N364 N 0.90645 0.44511 0.60284
 N365 N 0.92166 0.45882 0.58223
 C366 C 0.93853 0.44361 0.56331
 N367 N 0.93989 0.41422 0.56593
 N368 N 0.92469 0.40051 0.58657
 C369 C 0.33374 -0.14382 0.68435
 N370 N 0.31379 -0.12901 0.70034
 N371 N 0.29441 -0.14320 0.71664
 C372 C 0.29420 -0.17276 0.71759
 N373 N 0.31435 -0.18749 0.70172
 N374 N 0.33371 -0.17332 0.68541
 C375 C 0.35418 -0.12831 0.66523
 N376 N 0.37290 -0.14332 0.64798
 N377 N 0.39046 -0.12937 0.62953
 C378 C 0.38997 -0.09989 0.62770
 N379 N 0.37143 -0.08487 0.64515
 N380 N 0.35385 -0.09882 0.66358
 C381 C 0.40800 -0.08462 0.60610
 N382 N 0.40683 -0.05521 0.60370
 N383 N 0.42184 -0.04146 0.58296
 C384 C 0.43853 -0.05664 0.56386
 N385 N 0.43994 -0.08603 0.56643
 N386 N 0.42496 -0.09978 0.58719
 C387 C 0.33286 0.35627 0.18325
 N388 N 0.31290 0.37107 0.19922
 N389 N 0.29368 0.35687 0.21573
 C390 C 0.29359 0.32729 0.21695
 N391 N 0.31382 0.31262 0.20106
 N392 N 0.33302 0.32679 0.18454
 C393 C 0.35323 0.37177 0.16401
 N394 N 0.37204 0.35676 0.14686
 N395 N 0.38963 0.37069 0.12842
 C396 C 0.38910 0.40017 0.12650
 N397 N 0.37045 0.41520 0.14383
 N398 N 0.35283 0.40126 0.16225
 C399 C 0.40729 0.41543 0.10500
 N400 N 0.40618 0.44485 0.10260
 N401 N 0.42140 0.45859 0.08201
 C402 C 0.43827 0.44342 0.06306
 N403 N 0.43962 0.41402 0.06563
 N404 N 0.42442 0.40028 0.08625
 C405 C 0.83377 0.14398 -0.18375
 N406 N 0.81394 0.12916 -0.19989
 N407 N 0.79466 0.14335 -0.21634
 C408 C 0.79444 0.17291 -0.21730
 N409 N 0.81448 0.18764 -0.20126
 N410 N 0.83373 0.17348 -0.18480
 C411 C 0.85416 0.12847 -0.16455
 N412 N 0.87285 0.14347 -0.14722
 N413 N 0.89042 0.12951 -0.12878
 C414 C 0.88998 0.10002 -0.12702
 N415 N 0.87147 0.08501 -0.14452
 N416 N 0.85387 0.09897 -0.16294
 C417 C 0.90810 0.08473 -0.10548
 N418 N 0.90700 0.05530 -0.10317
 N419 N 0.92213 0.04152 -0.08253
 C420 C 0.93889 0.05667 -0.06344
 N421 N 0.94023 0.08607 -0.06593
 N422 N 0.92512 0.09985 -0.08659
 C423 C 0.83248 0.64348 0.31606
 N424 N 0.83256 0.67296 0.31482
 N425 N 0.81320 0.68710 0.29848
 C426 C 0.79287 0.67241 0.28273
 N427 N 0.79304 0.64283 0.28389
 N428 N 0.81242 0.62866 0.30023
 C429 C 0.85302 0.62802 0.33516
 N430 N 0.85269 0.59854 0.33693
 N431 N 0.87043 0.58464 0.35527
 C432 C 0.88913 0.59972 0.37252
 N433 N 0.88960 0.62919 0.37059
 N434 N 0.87189 0.64308 0.35223
 C435 C 0.90742 0.58452 0.39398
 N436 N 0.92454 0.59972 0.41271
 N437 N 0.93979 0.58603 0.43333
 C438 C 0.93849 0.55664 0.43594
 N439 N 0.92162 0.54141 0.41701
 N440 N 0.90636 0.55510 0.39642
 C441 C 0.33287 0.14416 0.31656
 N442 N 0.33303 0.17364 0.31532
 N443 N 0.31384 0.18784 0.29882
 C444 C 0.29360 0.17320 0.28290
 N445 N 0.29369 0.14362 0.28406
 N446 N 0.31290 0.12939 0.30055
 C447 C 0.35323 0.12861 0.33578
 N448 N 0.35282 0.09912 0.33747
 N449 N 0.37042 0.08513 0.35587
 C450 C 0.38907 0.10012 0.37325
 N451 N 0.38962 0.12959 0.37140
 N452 N 0.37204 0.14358 0.35299
 C453 C 0.40725 0.08480 0.39473
 N454 N 0.42438 0.09990 0.41354
 N455 N 0.43957 0.08611 0.43413
 C456 C 0.43821 0.05671 0.43663
 N457 N 0.42134 0.04158 0.41763
 N458 N 0.40613 0.05537 0.39707
 C459 C 0.33292 0.64343 -0.18452
 N460 N 0.33306 0.67291 -0.18578
 N461 N 0.31363 0.68709 -0.20201
 C462 C 0.29317 0.67243 -0.21762
 N463 N 0.29329 0.64285 -0.21645
 N464 N 0.31274 0.62864 -0.20023
 C465 C 0.35346 0.62795 -0.16548
 N466 N 0.35304 0.59846 -0.16366
 N467 N 0.37073 0.58454 -0.14530
 C468 C 0.38947 0.59959 -0.12808
 N469 N 0.39005 0.62905 -0.13006
 N470 N 0.37239 0.64297 -0.14845
 C471 C 0.40763 0.58437 -0.10654
 N472 N 0.42474 0.59956 -0.08778
 N473 N 0.43984 0.58586 -0.06705
 C474 C 0.43839 0.55648 -0.06438
 N475 N 0.42155 0.54127 -0.08334
 N476 N 0.40644 0.55496 -0.10403
 C477 C 1.16678 -0.14387 -0.18383
 N478 N 1.16680 -0.17336 -0.18481
 N479 N 1.18615 -0.18752 -0.20110
 C480 C 1.20629 -0.17279 -0.21703
 N481 N 1.20609 -0.14323 -0.21615
 N482 N 1.18672 -0.12905 -0.19987
 C483 C 1.14637 -0.12837 -0.16473
 N484 N 1.14672 -0.09888 -0.16315
 N485 N 1.12917 -0.08493 -0.14474
 C486 C 1.11064 -0.09996 -0.12724
 N487 N 1.11012 -0.12943 -0.12900
 N488 N 1.12765 -0.14338 -0.14743
 C489 C 1.09264 -0.08470 -0.10566
 N490 N 1.07567 -0.09985 -0.08671
 N491 N 1.06071 -0.08611 -0.06597
 C492 C 1.06217 -0.05672 -0.06346
 N493 N 1.07888 -0.04155 -0.08261
 N494 N 1.09385 -0.05528 -0.10332
 C495 C 1.16852 0.35679 0.31672
 N496 N 1.18829 0.37166 0.30051
 N497 N 1.20756 0.35752 0.28406
 C498 C 1.20783 0.32796 0.28317
 N499 N 1.18786 0.31318 0.29929
 N500 N 1.16862 0.32729 0.31574
 C501 C 1.14806 0.37224 0.33586
 N502 N 1.12936 0.35716 0.35313
 N503 N 1.11167 0.37105 0.37146
 C504 C 1.11200 0.40054 0.37315
 N505 N 1.13054 0.41563 0.35570
 N506 N 1.14825 0.40173 0.33739
 C507 C 1.09369 0.41576 0.39453
 N508 N 1.09466 0.44519 0.39678
 N509 N 1.07934 0.45889 0.41727
 C510 C 1.06250 0.44367 0.43626
 N511 N 1.06129 0.41426 0.43384
 N512 N 1.07660 0.40056 0.41333
 C513 C 0.66710 -0.14393 0.31672
 N514 N 0.68694 -0.12910 0.30056
 N515 N 0.70623 -0.14328 0.28417
 C516 C 0.70644 -0.17284 0.28329
 N517 N 0.68640 -0.18758 0.29935
 N518 N 0.66714 -0.17343 0.31575
 C519 C 0.64671 -0.12843 0.33587
 N520 N 0.62802 -0.14345 0.35321
 N521 N 0.61045 -0.12951 0.37160
 C522 C 0.61089 -0.10003 0.37330
 N523 N 0.62940 -0.08499 0.35578
 N524 N 0.64700 -0.09894 0.33740
 C525 C 0.59277 -0.08476 0.39479
 N526 N 0.59385 -0.05533 0.39703
 N527 N 0.57873 -0.04158 0.41763
 C528 C 0.56198 -0.05675 0.43674
 N529 N 0.56065 -0.08615 0.43433
 N530 N 0.57576 -0.09991 0.41371
 C531 C 0.66772 0.35713 -0.18420
 N532 N 0.66778 0.32764 -0.18527
 N533 N 0.68708 0.31355 -0.20167
 C534 C 0.70715 0.32834 -0.21765
 N535 N 0.70692 0.35790 -0.21667
 N536 N 0.68760 0.37202 -0.20027
 C537 C 0.64725 0.37254 -0.16506
 N538 N 0.64750 0.40203 -0.16342
 N539 N 0.62981 0.41588 -0.14505
 C540 C 0.61124 0.40076 -0.12767
 N541 N 0.61085 0.37128 -0.12948
 N542 N 0.62851 0.35743 -0.14785
 C543 C 0.59300 0.41592 -0.10620
 N544 N 0.57594 0.40068 -0.08740
 N545 N 0.56073 0.41433 -0.06679
 C546 C 0.56201 0.44372 -0.06425
 N547 N 0.57881 0.45899 -0.08324
 N548 N 0.59403 0.44534 -0.10383
 C549 C 1.14445 0.16772 -0.18323
 N550 N 1.17391 0.16762 -0.18436
 N551 N 1.18808 0.18693 -0.20076
 C552 C 1.17344 0.20721 -0.21667
 N553 N 1.14387 0.20706 -0.21562
 N554 N 1.12967 0.18773 -0.19923
 C555 C 1.12894 0.14724 -0.16410
 N556 N 1.09947 0.14760 -0.16246
 N557 N 1.08553 0.12990 -0.14411
 C558 C 1.10054 0.11120 -0.12674
 N559 N 1.12999 0.11070 -0.12855
 N560 N 1.14393 0.12838 -0.14691
 C561 C 1.08527 0.09295 -0.10530
 N562 N 1.10041 0.07579 -0.08649
 N563 N 1.08667 0.06055 -0.06590
 C564 C 1.05729 0.06189 -0.06341
 N565 N 1.04213 0.07879 -0.08242
 N566 N 1.05587 0.09404 -0.10298
 C567 C 1.14411 0.66804 0.31627
 N568 N 1.17357 0.66795 0.31507
 N569 N 1.18769 0.68722 0.29859
 C570 C 1.17301 0.70746 0.28266
 N571 N 1.14344 0.70731 0.28379
 N572 N 1.12929 0.68802 0.30026
 C573 C 1.12865 0.64760 0.33548
 N574 N 1.14368 0.62881 0.35272
 N575 N 1.12978 0.61116 0.37113
 C576 C 1.10032 0.61161 0.37293
 N577 N 1.08527 0.63023 0.35552
 N578 N 1.09918 0.64791 0.33713
 C579 C 1.08509 0.59336 0.39440
 N580 N 1.05568 0.59437 0.39666
 N581 N 1.04195 0.57910 0.41722
 C582 C 1.05712 0.56228 0.43628
 N583 N 1.08651 0.56103 0.43386
 N584 N 1.10024 0.57628 0.41328
 C585 C 0.64384 0.16633 0.31575
 N586 N 0.62906 0.18630 0.29969
 N587 N 0.64326 0.20568 0.28337
 C588 C 0.67280 0.20586 0.28246
 N589 N 0.68749 0.18568 0.29841
 N590 N 0.67332 0.16632 0.31474
 C591 C 0.62834 0.14589 0.33489
 N592 N 0.64332 0.12713 0.35220
 N593 N 0.62937 0.10957 0.37066
 C594 C 0.59991 0.11011 0.37246
 N595 N 0.58491 0.12869 0.35497
 N596 N 0.59887 0.14627 0.33652
 C597 C 0.58465 0.09207 0.39407
 N598 N 0.55526 0.09330 0.39646
 N599 N 0.54153 0.07829 0.41721
 C600 C 0.55669 0.06154 0.43634
 N601 N 0.58606 0.06007 0.43378
 N602 N 0.59979 0.07506 0.41301
 C603 C 0.64397 0.66833 -0.18362
 N604 N 0.67343 0.66825 -0.18479
 N605 N 0.68757 0.68750 -0.20128
 C606 C 0.67290 0.70773 -0.21724
 N607 N 0.64333 0.70757 -0.21613
 N608 N 0.62916 0.68829 -0.19966
 C609 C 0.62849 0.64788 -0.16444
 N610 N 0.59902 0.64818 -0.16282
 N611 N 0.58509 0.63048 -0.14448
 C612 C 0.60012 0.61183 -0.12706
 N613 N 0.62958 0.61139 -0.12883
 N614 N 0.64350 0.62907 -0.14720
 C615 C 0.58485 0.59353 -0.10565
 N616 N 0.59999 0.57641 -0.08681
 N617 N 0.58624 0.56110 -0.06628
 C618 C 0.55684 0.56232 -0.06389
 N619 N 0.54169 0.57919 -0.08293
 N620 N 0.55544 0.59452 -0.10343
 C621 C 0.85655 -0.16730 -0.18313
 N622 N 0.87133 -0.18708 -0.19936
 N623 N 0.85712 -0.20629 -0.21583
 C624 C 0.82758 -0.20649 -0.21673
 N625 N 0.81289 -0.18652 -0.20058
 N626 N 0.82707 -0.16733 -0.18411
 C627 C 0.87207 -0.14694 -0.16395
 N628 N 0.85711 -0.12825 -0.14662
 N629 N 0.87108 -0.11067 -0.12825
 C630 C 0.90054 -0.11109 -0.12656
 N631 N 0.91553 -0.12962 -0.14405
 N632 N 0.90155 -0.14723 -0.16241
 C633 C 0.91585 -0.09292 -0.10512
 N634 N 0.94527 -0.09399 -0.10287
 N635 N 0.95905 -0.07880 -0.08233
 C636 C 0.94393 -0.06198 -0.06329
 N637 N 0.91454 -0.06066 -0.06572
 N638 N 0.90075 -0.07585 -0.08628
 C639 C 0.85699 0.33336 0.31587
 N640 N 0.87184 0.31345 0.29987
 N641 N 0.85770 0.29406 0.28357
 C642 C 0.82816 0.29381 0.28261
 N643 N 0.81340 0.31392 0.29850
 N644 N 0.82752 0.33329 0.31481
 C645 C 0.87243 0.35382 0.33498
 N646 N 0.85739 0.37251 0.35224
 N647 N 0.87129 0.39010 0.37067
 C648 C 0.90074 0.38967 0.37247
 N649 N 0.91581 0.37116 0.35502
 N650 N 0.90191 0.35355 0.33661
 C651 C 0.91596 0.40775 0.39402
 N652 N 0.94536 0.40667 0.39637
 N653 N 0.95907 0.42172 0.41705
 C654 C 0.94387 0.43839 0.43616
 N655 N 0.91449 0.43972 0.43365
 N656 N 0.90078 0.42468 0.41293
 C657 C 0.35654 -0.16732 0.31669
 N658 N 0.37135 -0.18714 0.30055
 N659 N 0.35718 -0.20639 0.28410
 C660 C 0.32764 -0.20660 0.28315
 N661 N 0.31292 -0.18659 0.29920
 N662 N 0.32706 -0.16735 0.31565
 C663 C 0.37201 -0.14692 0.33587
 N664 N 0.35699 -0.12822 0.35314
 N665 N 0.37091 -0.11062 0.37153
 C666 C 0.40037 -0.11104 0.37330
 N667 N 0.41541 -0.12957 0.35586
 N668 N 0.40149 -0.14720 0.33748
 C669 C 0.41561 -0.09286 0.39478
 N670 N 0.44502 -0.09392 0.39710
 N671 N 0.45875 -0.07874 0.41768
 C672 C 0.44357 -0.06194 0.43669
 N673 N 0.41419 -0.06063 0.43420
 N674 N 0.40046 -0.07581 0.41360
 C675 C 0.35630 0.33193 -0.18328
 N676 N 0.37111 0.31196 -0.19923
 N677 N 0.35693 0.29263 -0.21558
 C678 C 0.32736 0.29244 -0.21665
 N679 N 0.31269 0.31268 -0.20078
 N680 N 0.32684 0.33198 -0.18442
 C681 C 0.37178 0.35242 -0.16420
 N682 N 0.35677 0.37121 -0.14702
 N683 N 0.37069 0.38890 -0.12871
 C684 C 0.40015 0.38849 -0.12695
 N685 N 0.41518 0.36987 -0.14430
 N686 N 0.40126 0.35215 -0.16259
 C687 C 0.41541 0.40678 -0.10558
 N688 N 0.44482 0.40582 -0.10335
 N689 N 0.45857 0.42112 -0.08287
 C690 C 0.44341 0.43792 -0.06385
 N691 N 0.41401 0.43913 -0.06625
 N692 N 0.40026 0.42385 -0.08676
 C693 C 1.14407 -0.16814 0.18367
 N694 N 1.12926 -0.18813 0.19966
 N695 N 1.14342 -0.20745 0.21610
 C696 C 1.17299 -0.20761 0.21722
 N697 N 1.18767 -0.18736 0.20131
 N698 N 1.17353 -0.16806 0.18486
 C699 C 1.12861 -0.14766 0.16450
 N700 N 1.14365 -0.12883 0.14731
 N701 N 1.12975 -0.11115 0.12892
 C702 C 1.10029 -0.11161 0.12707
 N703 N 1.08524 -0.13028 0.14443
 N704 N 1.09914 -0.14798 0.16281
 C705 C 1.08507 -0.09334 0.10560
 N706 N 1.05567 -0.09438 0.10326
 N707 N 1.04196 -0.07910 0.08269
 C708 C 1.05716 -0.06223 0.06369
 N709 N 1.08654 -0.06095 0.06620
 N710 N 1.10025 -0.07621 0.08680
 C711 C 1.14398 0.33255 0.68350
 N712 N 1.17346 0.33247 0.68456
 N713 N 1.18756 0.31323 0.70111
 C714 C 1.17279 0.29326 0.71725
 N715 N 1.14325 0.29352 0.71628
 N716 N 1.12912 0.31277 0.69973
 C717 C 1.12855 0.35296 0.66424
 N718 N 1.09907 0.35276 0.66266
 N719 N 1.08518 0.37041 0.64421
 C720 C 1.10025 0.38889 0.62668
 N721 N 1.12972 0.38923 0.62841
 N722 N 1.14361 0.37161 0.64687
 C723 C 1.08503 0.40711 0.60516
 N724 N 1.10020 0.42411 0.58625
 N725 N 1.08648 0.43933 0.56562
 C726 C 1.05709 0.43812 0.56320
 N727 N 1.04190 0.42137 0.58230
 N728 N 1.05562 0.40614 0.60290
 C729 C 0.64389 -0.16805 0.68358
 N730 N 0.62910 -0.18802 0.69962
 N731 N 0.64329 -0.20731 0.71608
 C732 C 0.67285 -0.20746 0.71717
 N733 N 0.68751 -0.18723 0.70121
 N734 N 0.67335 -0.16796 0.68475
 C735 C 0.62839 -0.14760 0.66441
 N736 N 0.64339 -0.12875 0.64721
 N737 N 0.62945 -0.11108 0.62883
 C738 C 0.59999 -0.11156 0.62703
 N739 N 0.58498 -0.13023 0.64440
 N740 N 0.59892 -0.14793 0.66276
 C741 C 0.58473 -0.09328 0.60559
 N742 N 0.55532 -0.09434 0.60327
 N743 N 0.54158 -0.07905 0.58273
 C744 C 0.55674 -0.06215 0.56374
 N745 N 0.58613 -0.06085 0.56622
 N746 N 0.59987 -0.07612 0.58679
 C747 C 0.64401 0.33329 0.18344
 N748 N 0.62919 0.31339 0.19953
 N749 N 0.64335 0.29401 0.21590
 C750 C 0.67289 0.29376 0.21681
 N751 N 0.68763 0.31387 0.20082
 N752 N 0.67349 0.33323 0.18444
 C753 C 0.62854 0.35373 0.16427
 N754 N 0.64355 0.37242 0.14690
 N755 N 0.62961 0.38999 0.12843
 C756 C 0.60015 0.38955 0.12669
 N757 N 0.58513 0.37105 0.14424
 N758 N 0.59906 0.35346 0.16269
 C759 C 0.58489 0.40762 0.10510
 N760 N 0.55548 0.40652 0.10281
 N761 N 0.54173 0.42156 0.08210
 C762 C 0.55688 0.43825 0.06291
 N763 N 0.58626 0.43960 0.06536
 N764 N 0.60002 0.42456 0.08610
 C765 C 0.85723 0.16639 0.18406
 N766 N 0.82775 0.16637 0.18510
 N767 N 0.81359 0.18572 0.20137
 C768 C 0.82829 0.20591 0.21724
 N769 N 0.85783 0.20574 0.21630
 N770 N 0.87202 0.18637 0.20003
 C771 C 0.87272 0.14596 0.16497
 N772 N 0.90219 0.14633 0.16332
 N773 N 0.91612 0.12875 0.14492
 C774 C 0.90110 0.11017 0.12750
 N775 N 0.87165 0.10964 0.12933
 N776 N 0.85772 0.12719 0.14774
 C777 C 0.91634 0.09213 0.10594
 N778 N 0.90117 0.07514 0.08706
 N779 N 0.91488 0.06014 0.06633
 C780 C 0.94425 0.06157 0.06376
 N781 N 0.95944 0.07830 0.08284
 N782 N 0.94573 0.09331 0.10355
 C783 C 0.85636 0.66753 0.68272
 N784 N 0.87118 0.68724 0.69900
 N785 N 0.85702 0.70644 0.71550
 C786 C 0.82748 0.70670 0.71638
 N787 N 0.81274 0.68680 0.70019
 N788 N 0.82688 0.66762 0.68368
 C789 C 0.87184 0.64717 0.66351
 N790 N 0.85684 0.62856 0.64612
 N791 N 0.87078 0.61098 0.62773
 C792 C 0.90025 0.61133 0.62610
 N793 N 0.91527 0.62978 0.64366
 N794 N 0.90132 0.64738 0.66203
 C795 C 0.91554 0.59314 0.60467
 N796 N 0.94496 0.59413 0.60250
 N797 N 0.95874 0.57892 0.58199
 C798 C 0.94361 0.56217 0.56288
 N799 N 0.91421 0.56094 0.56522
 N800 N 0.90043 0.57614 0.58575
 C801 C 0.35692 0.16726 0.68379
 N802 N 0.37178 0.18706 0.69993
 N803 N 0.35764 0.20628 0.71644
 C804 C 0.32810 0.20647 0.71744
 N805 N 0.31334 0.18648 0.70138
 N806 N 0.32745 0.16727 0.68488
 C807 C 0.37236 0.14689 0.66456
 N808 N 0.35730 0.12820 0.64729
 N809 N 0.37118 0.11061 0.62886
 C810 C 0.40064 0.11103 0.62706
 N811 N 0.41572 0.12954 0.64450
 N812 N 0.40183 0.14716 0.66292
 C813 C 0.41584 0.09285 0.60556
 N814 N 0.44525 0.09389 0.60323
 N815 N 0.45893 0.07869 0.58264
 C816 C 0.44372 0.06191 0.56363
 N817 N 0.41434 0.06063 0.56613
 N818 N 0.40065 0.07582 0.58674
 C819 C 0.35640 0.66719 0.18283
 N820 N 0.37125 0.68694 0.19905
 N821 N 0.35711 0.70617 0.21555
 C822 C 0.32757 0.70641 0.21648
 N823 N 0.31281 0.68647 0.20035
 N824 N 0.32693 0.66726 0.18385
 C825 C 0.37185 0.64683 0.16361
 N826 N 0.35681 0.62821 0.14625
 N827 N 0.37071 0.61064 0.12782
 C828 C 0.40018 0.61100 0.12612
 N829 N 0.41524 0.62944 0.14366
 N830 N 0.40133 0.64704 0.16207
 C831 C 0.41542 0.59284 0.10464
 N832 N 0.44483 0.59383 0.10241
 N833 N 0.45857 0.57866 0.08184
 C834 C 0.44339 0.56195 0.06274
 N835 N 0.41400 0.56072 0.06513
 N836 N 0.40026 0.57588 0.08572
   
