data_POSCAR
  _audit_creation_date              2014-09-24
  _audit_creation_method            'ToBaCCo'
  _symmetry_space_group_name_H-M    'P1'
  _symmetry_Int_Tables_number       1
  _symmetry_cell_setting            triclinic
  loop_
  _symmetry_equiv_pos_as_xyz
 x,y,z
_cell_length_a 43.6931
_cell_length_b 43.9448
_cell_length_c 40.7382
_cell_angle_alpha 86.307300
_cell_angle_beta 87.765700
_cell_angle_gamma 89.132200
loop_
  _atom_site_label
  _atom_site_type_symbol
  _atom_site_fract_x
  _atom_site_fract_y
  _atom_site_fract_z
N1 N 0.18437 0.25027 0.24808
 N2 N 0.19619 0.22790 0.26666
 C3 C 0.18219 0.22725 0.29675
 C4 C 0.16033 0.25033 0.29662
 C5 C 0.16233 0.26445 0.26544
 H6 H 0.18583 0.20984 0.31625
 H7 H 0.14765 0.28260 0.25564
 Cu8 Cu 0.22495 0.19856 0.24850
 Cu9 Cu 0.19636 0.25697 0.20217
 Cu10 Cu 0.24799 0.21160 0.16603
 N11 N 0.25366 0.17155 0.22542
 N12 N 0.26320 0.17681 0.19440
 C13 C 0.28275 0.15424 0.18620
 C14 C 0.28486 0.13365 0.21315
 C15 C 0.26613 0.14517 0.23742
 H16 H 0.29381 0.15236 0.16219
 H17 H 0.26190 0.13494 0.26200
 N18 N 0.23670 0.25161 0.14599
 N19 N 0.21755 0.26978 0.16127
 C20 C 0.21416 0.29598 0.14288
 C21 C 0.23158 0.29395 0.11416
 C22 C 0.24554 0.26544 0.11670
 H23 H 0.19932 0.31474 0.14943
 H24 H 0.26102 0.25564 0.09877
 H25 H 0.21226 0.20329 0.20047
 H26 H 0.24356 0.22859 0.21157
 N27 N 0.67089 0.76101 0.72862
 N28 N 0.66315 0.73828 0.74998
 C29 C 0.63777 0.74644 0.76738
 C30 C 0.62910 0.77554 0.75610
 C31 C 0.65068 0.78410 0.73170
 H32 H 0.62563 0.73178 0.78568
 H33 H 0.65062 0.80482 0.71589
 Cu34 Cu 0.68537 0.69878 0.75193
 Cu35 Cu 0.70319 0.75791 0.69389
 Cu36 Cu 0.73817 0.69008 0.69163
 N37 N 0.71808 0.66802 0.75600
 N38 N 0.73920 0.66487 0.73251
 C39 C 0.75759 0.64101 0.74097
 C40 C 0.74725 0.62842 0.77123
 C41 C 0.72214 0.64609 0.78010
 H42 H 0.77623 0.63257 0.72569
 H43 H 0.70732 0.64271 0.80188
 N44 N 0.73793 0.71831 0.65295
 N45 N 0.72457 0.74525 0.65410
 C46 C 0.72734 0.76018 0.62425
 C47 C 0.74281 0.74132 0.60323
 C48 C 0.74928 0.71495 0.62221
 H49 H 0.71789 0.78263 0.61807
 H50 H 0.76089 0.69470 0.61411
 H51 H 0.68850 0.71418 0.70209
 H52 H 0.71786 0.72585 0.73070
 N53 N 0.36736 0.81978 0.69149
 N54 N 0.35293 0.84346 0.70321
 C55 C 0.36654 0.85150 0.73023
 C56 C 0.39100 0.83197 0.73595
 C57 C 0.39119 0.81219 0.71071
 H58 H 0.35840 0.86953 0.74532
 H59 H 0.40639 0.79284 0.70760
 Cu60 Cu 0.31576 0.86021 0.68489
 Cu61 Cu 0.35160 0.80030 0.65355
 Cu62 Cu 0.27326 0.81269 0.64592
 N63 N 0.27276 0.86815 0.67903
 N64 N 0.25560 0.84908 0.66460
 C65 C 0.22602 0.85793 0.66801
 C66 C 0.22493 0.88376 0.68585
 C67 C 0.25496 0.88975 0.69210
 H68 H 0.20683 0.84570 0.65958
 H69 H 0.26311 0.90738 0.70681
 N70 N 0.29662 0.78172 0.62205
 N71 N 0.32636 0.77681 0.62493
 C72 C 0.33538 0.75451 0.60532
 C73 C 0.31011 0.74530 0.58922
 C74 C 0.28605 0.76301 0.60032
 H75 H 0.35857 0.74578 0.60284
 H76 H 0.26255 0.76227 0.59304
 H77 H 0.31664 0.83009 0.63663
 H78 H 0.31067 0.80652 0.67607
 N79 N 0.89968 0.30068 0.18979
 N80 N 0.88724 0.30364 0.21933
 C81 C 0.90948 0.30332 0.24129
 C82 C 0.93732 0.30037 0.22439
 C83 C 0.93031 0.29895 0.19168
 H84 H 0.90562 0.30472 0.26755
 H85 H 0.94602 0.29530 0.17108
 Cu86 Cu 0.84308 0.30656 0.22667
 Cu87 Cu 0.87453 0.29480 0.15272
 Cu88 Cu 0.79964 0.31233 0.15711
 N89 N 0.80112 0.32389 0.22615
 N90 N 0.78511 0.32806 0.19935
 C91 C 0.76061 0.34608 0.20587
 C92 C 0.76140 0.35345 0.23839
 C93 C 0.78720 0.33879 0.25043
 H94 H 0.74455 0.35465 0.18785
 H95 H 0.79677 0.34110 0.27421
 N96 N 0.81638 0.28327 0.12608
 N97 N 0.84590 0.27690 0.12456
 C98 C 0.85133 0.25436 0.10430
 C99 C 0.82376 0.24586 0.09250
 C100 C 0.80197 0.26484 0.10654
 H101 H 0.87349 0.24368 0.10021
 H102 H 0.77740 0.26388 0.10450
 H103 H 0.83863 0.32787 0.18077
 H104 H 0.82715 0.28705 0.18607
 N105 N 0.85541 0.67408 0.25634
 N106 N 0.85328 0.64433 0.25541
 C107 C 0.87776 0.63367 0.23831
 C108 C 0.89614 0.65818 0.22829
 C109 C 0.88129 0.68339 0.24010
 H110 H 0.88163 0.61007 0.23311
 H111 H 0.88835 0.70690 0.23641
 Cu112 Cu 0.81797 0.62290 0.27550
 Cu113 Cu 0.82347 0.69893 0.27634
 Cu114 Cu 0.77397 0.65863 0.33056
 N115 N 0.77869 0.60644 0.29167
 N116 N 0.76154 0.62063 0.31326
 C117 C 0.73520 0.60549 0.31921
 C118 C 0.73587 0.58051 0.30025
 C119 C 0.76385 0.58164 0.28319
 H120 H 0.71663 0.61268 0.33539
 H121 H 0.77221 0.56631 0.26503
 N122 N 0.78027 0.70259 0.33197
 N123 N 0.79754 0.71834 0.30988
 C124 C 0.79635 0.74796 0.31657
 C125 C 0.77760 0.75076 0.34435
 C126 C 0.76786 0.72161 0.35355
 H127 H 0.80932 0.76586 0.30323
 H128 H 0.75298 0.71473 0.37447
 H129 H 0.81935 0.66500 0.31189
 H130 H 0.78705 0.66883 0.28319
 N131 N 0.34925 0.20358 -0.21183
 N132 N 0.35570 0.17428 -0.20619
 C133 C 0.38556 0.16946 -0.21394
 C134 C 0.39825 0.19698 -0.22556
 C135 C 0.37456 0.21811 -0.22398
 H136 H 0.39681 0.14735 -0.21266
 H137 H 0.37567 0.24228 -0.23082
 Cu138 Cu 0.32406 0.14342 -0.19319
 Cu139 Cu 0.30869 0.22103 -0.20131
 Cu140 Cu 0.25234 0.17086 -0.18656
 N141 N 0.28833 0.11721 -0.19427
 N142 N 0.26018 0.12821 -0.19307
 C143 C 0.24028 0.10538 -0.19504
 C144 C 0.25688 0.07854 -0.19710
 C145 C 0.28731 0.08681 -0.19647
 H146 H 0.21561 0.10802 -0.19445
 H147 H 0.30722 0.07198 -0.19806
 N148 N 0.25047 0.21045 -0.16800
 N149 N 0.27247 0.23041 -0.17379
 C150 C 0.26695 0.25421 -0.15503
 C151 C 0.24028 0.24857 -0.13636
 C152 C 0.23031 0.22072 -0.14540
 H153 H 0.28233 0.27306 -0.15333
 H154 H 0.21106 0.20786 -0.13474
 H155 H 0.30501 0.18167 -0.17339
 H156 H 0.30067 0.17708 -0.21814
 N157 N 0.63007 0.30905 -0.19187
 N158 N 0.63935 0.33604 -0.20371
 C159 C 0.62163 0.34551 -0.22888
 C160 C 0.60021 0.32312 -0.23276
 C161 C 0.60613 0.30050 -0.20872
 H162 H 0.62474 0.36653 -0.24386
 H163 H 0.59470 0.27885 -0.20468
 Cu164 Cu 0.67520 0.35508 -0.18671
 Cu165 Cu 0.65148 0.28528 -0.15808
 Cu166 Cu 0.70931 0.32124 -0.12077
 N167 N 0.71494 0.36837 -0.17276
 N168 N 0.72859 0.35413 -0.14787
 C169 C 0.75579 0.36710 -0.14403
 C170 C 0.75934 0.39097 -0.16756
 C171 C 0.73295 0.39131 -0.18532
 H172 H 0.77160 0.35997 -0.12515
 H173 H 0.72756 0.40673 -0.20613
 N174 N 0.69264 0.28177 -0.10370
 N175 N 0.67037 0.26827 -0.11789
 C176 C 0.66394 0.24176 -0.10085
 C177 C 0.68340 0.23824 -0.07496
 C178 C 0.70139 0.26392 -0.07748
 H179 H 0.64682 0.22586 -0.10720
 H180 H 0.71968 0.26904 -0.06164
 H181 H 0.66390 0.32337 -0.13607
 H182 H 0.69429 0.30636 -0.16309
 N183 N 0.09379 0.79907 0.28903
 N184 N 0.10115 0.82382 0.27083
 C185 C 0.08165 0.82802 0.24626
 C186 C 0.06135 0.80422 0.24855
 C187 C 0.06966 0.78609 0.27594
 H188 H 0.08364 0.84562 0.22652
 H189 H 0.05974 0.76456 0.28481
 Cu190 Cu 0.13890 0.84430 0.27688
 Cu191 Cu 0.11762 0.78576 0.32721
 Cu192 Cu 0.18296 0.82797 0.34115
 N193 N 0.17145 0.87073 0.28664
 N194 N 0.19041 0.86396 0.31038
 C195 C 0.21213 0.88575 0.30933
 C196 C 0.20576 0.90720 0.28376
 C197 C 0.17969 0.89688 0.27033
 H198 H 0.23077 0.88615 0.32600
 H199 H 0.16780 0.90726 0.24963
 N200 N 0.17003 0.79108 0.36915
 N201 N 0.14461 0.77624 0.36436
 C202 C 0.14134 0.75330 0.38761
 C203 C 0.16587 0.75325 0.40788
 C204 C 0.18382 0.77736 0.39546
 H205 H 0.12290 0.73710 0.38915
 H206 H 0.20523 0.78432 0.40492
 H207 H 0.13627 0.82812 0.33496
 H208 H 0.16013 0.80174 0.31053
 N209 N 0.41926 0.34543 0.43564
 N210 N 0.39711 0.36019 0.45090
 C211 C 0.39244 0.34707 0.48139
 C212 C 0.41297 0.32300 0.48557
 C213 C 0.42967 0.32255 0.45606
 H214 H 0.37649 0.35553 0.49976
 H215 H 0.44853 0.30736 0.45022
 Cu216 Cu 0.37877 0.39735 0.43129
 Cu217 Cu 0.43318 0.35825 0.39088
 Cu218 Cu 0.42329 0.43583 0.37422
 N219 N 0.37097 0.44010 0.41878
 N220 N 0.38916 0.45530 0.39730
 C221 C 0.38080 0.48494 0.39582
 C222 C 0.35596 0.48842 0.41741
 C223 C 0.35017 0.45950 0.43144
 H224 H 0.39230 0.50269 0.38064
 H225 H 0.33311 0.45332 0.45057
 N226 N 0.45075 0.41043 0.34733
 N227 N 0.45419 0.38072 0.35347
 C228 C 0.47493 0.36998 0.33164
 C229 C 0.48490 0.39414 0.31071
 C230 C 0.46906 0.41936 0.32125
 H231 H 0.48295 0.34658 0.33177
 H232 H 0.47147 0.44263 0.31125
 H233 H 0.43107 0.39994 0.40867
 H234 H 0.40284 0.39418 0.37640
 N235 N -0.04628 -0.11939 0.95244
 N236 N -0.07461 -0.12341 0.96378
 C237 C -0.07819 -0.15254 0.97515
 C238 C -0.05054 -0.16769 0.97119
 C239 C -0.03063 -0.14600 0.95680
 H240 H -0.09888 -0.16155 0.98728
 H241 H -0.00658 -0.14923 0.95044
 Cu242 Cu -0.10331 -0.08982 0.96743
 Cu243 Cu -0.03303 -0.07976 0.93241
 Cu244 Cu -0.08103 -0.01814 0.94778
 N245 N -0.12525 -0.05528 0.98441
 N246 N -0.11721 -0.02704 0.97619
 C247 C -0.13650 -0.00790 0.99169
 C248 C -0.15719 -0.02533 1.01107
 C249 C -0.14938 -0.05523 1.00583
 H250 H -0.13497 0.01670 0.98993
 H251 H -0.16033 -0.07550 1.01690
 N252 N -0.04324 -0.01444 0.91988
 N253 N -0.02481 -0.03774 0.91396
 C254 C -0.00296 -0.02834 0.89142
 C255 C -0.00798 0.00224 0.88288
 C256 C -0.03356 0.01031 0.90149
 H257 H 0.01419 -0.04300 0.88052
 H258 H -0.04534 0.03213 0.90024
 H259 H -0.05915 -0.05731 0.96664
 H260 H -0.07535 -0.05927 0.92488
 N261 N 1.10506 0.65469 0.89895
 N262 N 1.12904 0.64012 0.91101
 C263 C 1.13338 0.64911 0.94150
 C264 C 1.11081 0.67043 0.94864
 C265 C 1.09348 0.67359 0.92104
 H266 H 1.15047 0.63959 0.95784
 H267 H 1.07270 0.68703 0.91813
 Cu268 Cu 1.15035 0.60889 0.88662
 Cu269 Cu 1.08785 0.64493 0.85780
 Cu270 Cu 1.11053 0.57486 0.83036
 N271 N 1.16484 0.57112 0.86859
 N272 N 1.14935 0.55828 0.84625
 C273 C 1.16333 0.53194 0.83907
 C274 C 1.18876 0.52784 0.85814
 C275 C 1.18905 0.55313 0.87666
 H276 H 1.15479 0.51621 0.82236
 H277 H 1.20499 0.55753 0.89540
 N278 N 1.07223 0.59603 0.81721
 N279 N 1.06429 0.62326 0.82680
 C280 C 1.03583 0.63031 0.81698
 C281 C 1.02527 0.60627 0.80057
 C282 C 1.04896 0.58505 0.80090
 H283 H 1.02287 0.65028 0.82371
 H284 H 1.04835 0.56243 0.79196
 H285 H 1.09885 0.60001 0.87013
 H286 H 1.12242 0.61840 0.83541
 N287 N 0.55050 0.11977 0.47323
 N288 N 0.57713 0.11294 0.48588
 C289 C 0.58363 0.13370 0.50734
 C290 C 0.55972 0.15466 0.50829
 C291 C 0.53901 0.14516 0.48634
 H292 H 0.60400 0.13332 0.52161
 H293 H 0.51732 0.15588 0.48031
 Cu294 Cu 0.60043 0.07726 0.47336
 Cu295 Cu 0.53423 0.09559 0.43949
 Cu296 Cu 0.56513 0.02206 0.43698
 N297 N 0.62303 0.04271 0.45693
 N298 N 0.60901 0.01977 0.44505
 C299 C 0.62975 -0.00253 0.43920
 C300 C 0.65824 0.00767 0.44690
 C301 C 0.65315 0.03638 0.45796
 H302 H 0.62458 -0.02410 0.42942
 H303 H 0.67005 0.05110 0.46711
 N304 N 0.52645 0.03482 0.41607
 N305 N 0.51562 0.06305 0.41626
 C306 C 0.49094 0.06567 0.39768
 C307 C 0.48591 0.03790 0.38493
 C308 C 0.50871 0.01868 0.39721
 H309 H 0.47783 0.08649 0.39332
 H310 H 0.51289 -0.00479 0.39165
 H311 H 0.54920 0.05788 0.46533
 H312 H 0.57117 0.06728 0.42591
 N313 N -0.06366 0.11158 0.51450
 N314 N -0.08972 0.10146 0.50471
 C315 C -0.10082 0.12155 0.48149
 C316 C -0.08054 0.14550 0.47712
 C317 C -0.05738 0.13843 0.49839
 H318 H -0.12181 0.11895 0.46879
 H319 H -0.03700 0.15151 0.50137
 Cu320 Cu -0.10497 0.06245 0.52323
 Cu321 Cu -0.03822 0.08832 0.54520
 Cu322 Cu -0.07785 0.03459 0.59553
 N323 N -0.12055 0.02511 0.54532
 N324 N -0.10955 0.01374 0.57321
 C325 C -0.12376 -0.01270 0.58223
 C326 C -0.14464 -0.01794 0.55862
 C327 C -0.14208 0.00646 0.53572
 H328 H -0.11907 -0.02703 0.60409
 H329 H -0.15458 0.00997 0.51336
 N330 N -0.03819 0.05151 0.60696
 N331 N -0.02273 0.07087 0.58675
 C332 C 0.00391 0.07721 0.59997
 C333 C 0.00539 0.06117 0.63008
 C334 C -0.02166 0.04509 0.63391
 H335 H 0.02086 0.09260 0.58860
 H336 H -0.02840 0.02937 0.65434
 H337 H -0.05859 0.04504 0.55071
 H338 H -0.07786 0.07770 0.57058
 N339 N 0.43098 0.63292 0.04153
 N340 N 0.40778 0.62556 0.02417
 C341 C 0.40166 0.64871 0.00209
 C342 C 0.42239 0.67163 0.00562
 C343 C 0.44060 0.66095 0.03093
 H344 H 0.38502 0.64789 -0.01681
 H345 H 0.46030 0.67204 0.03987
 Cu346 Cu 0.39137 0.58460 0.02756
 Cu347 Cu 0.44786 0.60465 0.07503
 Cu348 Cu 0.43533 0.52888 0.06242
 N349 N 0.38635 0.54232 0.01815
 N350 N 0.40488 0.52100 0.03038
 C351 C 0.39920 0.49463 0.01695
 C352 C 0.37580 0.49967 -0.00471
 C353 C 0.36791 0.53012 -0.00318
 H354 H 0.41135 0.47339 0.02235
 H355 H 0.35114 0.54274 -0.01763
 N356 N 0.46480 0.54195 0.09408
 N357 N 0.46959 0.57095 0.09861
 C358 C 0.49165 0.57287 0.12047
 C359 C 0.50104 0.54366 0.13036
 C360 C 0.48351 0.52459 0.11331
 H361 H 0.50051 0.59398 0.12824
 H362 H 0.48490 0.49996 0.11428
 H363 H 0.44366 0.57220 0.04192
 H364 H 0.41676 0.56858 0.07867
 N365 N 0.54623 -0.14604 0.08818
 N366 N 0.57462 -0.13762 0.08036
 C367 C 0.58449 -0.15134 0.05327
 C368 C 0.56118 -0.16907 0.04327
 C369 C 0.53727 -0.16535 0.06604
 H370 H 0.60623 -0.14688 0.04038
 H371 H 0.51458 -0.17477 0.06552
 Cu372 Cu 0.59533 -0.10469 0.10107
 Cu373 Cu 0.52208 -0.12920 0.12514
 Cu374 Cu 0.55412 -0.07092 0.15927
 N375 N 0.60418 -0.06351 0.11276
 N376 N 0.58711 -0.04971 0.13470
 C377 C 0.59715 -0.02110 0.13661
 C378 C 0.62208 -0.01700 0.11497
 C379 C 0.62613 -0.04439 0.10042
 H380 H 0.58722 -0.00459 0.15263
 H381 H 0.64323 -0.04976 0.08167
 N382 N 0.52140 -0.09390 0.18213
 N383 N 0.50859 -0.11682 0.16886
 C384 C 0.48430 -0.12619 0.18812
 C385 C 0.48196 -0.10805 0.21476
 C386 C 0.50586 -0.08794 0.21016
 H387 H 0.46839 -0.14340 0.18203
 H388 H 0.51030 -0.06910 0.22505
 H389 H 0.55002 -0.09330 0.10655
 H390 H 0.56453 -0.12133 0.13880
 N391 N 1.05026 0.37669 0.56117
 N392 N 1.05332 0.38894 0.53096
 C393 C 1.04409 0.36885 0.50990
 C394 C 1.03474 0.34275 0.52811
 C395 C 1.03927 0.34838 0.56051
 H396 H 1.04251 0.37358 0.48363
 H397 H 1.03238 0.33421 0.58215
 Cu398 Cu 1.06573 0.43117 0.52231
 Cu399 Cu 1.05282 0.40119 0.59860
 Cu400 Cu 1.07666 0.47363 0.58951
 N401 N 1.09012 0.46876 0.51973
 N402 N 1.09595 0.48432 0.54543
 C403 C 1.11896 0.50386 0.53690
 C404 C 1.12785 0.50024 0.50429
 C405 C 1.10885 0.47807 0.49430
 H406 H 1.12993 0.51787 0.55377
 H407 H 1.11052 0.46728 0.47118
 N408 N 1.04761 0.45979 0.62562
 N409 N 1.04044 0.43079 0.62970
 C410 C 1.01913 0.42684 0.65406
 C411 C 1.01177 0.45481 0.66582
 C412 C 1.03052 0.47541 0.64747
 H413 H 1.00798 0.40540 0.66071
 H414 H 1.03038 0.49994 0.64858
 H415 H 1.04851 0.44878 0.56538
 H416 H 1.08863 0.43284 0.56621
 C417 C 0.31004 -0.02919 0.28016
 C418 C 0.33774 -0.01316 0.27876
 C419 C 0.33922 0.01605 0.26261
 C420 C 0.31312 0.03011 0.24972
 C421 C 0.28532 0.01476 0.25267
 C422 C 0.28369 -0.01542 0.26661
 C423 C 0.36590 -0.02610 0.29330
 C424 C 0.37927 -0.05295 0.28243
 C425 C 0.41000 -0.06032 0.28900
 C426 C 0.42709 -0.04070 0.30718
 C427 C 0.41342 -0.01413 0.31886
 C428 C 0.38255 -0.00783 0.31281
 H429 H 0.30914 -0.05219 0.29142
 H430 H 0.36077 0.02807 0.26046
 H431 H 0.36677 -0.06635 0.26613
 H432 H 0.37181 0.01279 0.32128
 H433 H 0.26521 0.02623 0.24297
 H434 H 0.45124 -0.04523 0.31061
 C435 C 0.13896 -0.02842 0.74673
 C436 C 0.13432 -0.00177 0.76352
 C437 C 0.15898 0.01135 0.77835
 C438 C 0.18831 -0.00217 0.77645
 C439 C 0.19248 -0.02898 0.75967
 C440 C 0.16808 -0.04206 0.74440
 C441 C 0.10463 0.01432 0.76117
 C442 C 0.08450 0.01635 0.78867
 C443 C 0.05565 0.03049 0.78510
 C444 C 0.04691 0.04196 0.75377
 C445 C 0.06695 0.03998 0.72632
 C446 C 0.09583 0.02633 0.73024
 H447 H 0.11999 -0.03756 0.73434
 H448 H 0.15555 0.03257 0.79022
 H449 H 0.09122 0.00692 0.81259
 H450 H 0.11131 0.02427 0.70902
 H451 H 0.21514 -0.03901 0.75709
 H452 H 0.02446 0.05237 0.75069
 C453 C 0.66557 0.43708 0.24221
 C454 C 0.64448 0.46157 0.23985
 C455 C 0.65187 0.48944 0.25244
 C456 C 0.67988 0.49318 0.26711
 C457 C 0.70077 0.46877 0.26917
 C458 C 0.69357 0.44051 0.25731
 C459 C 0.61347 0.45797 0.22726
 C460 C 0.59510 0.43360 0.23950
 C461 C 0.56369 0.43364 0.23343
 C462 C 0.55085 0.45768 0.21387
 C463 C 0.56919 0.48175 0.20065
 C464 C 0.60050 0.48152 0.20720
 H465 H 0.65980 0.41522 0.23341
 H466 H 0.63542 0.50815 0.25145
 H467 H 0.60461 0.41607 0.25621
 H468 H 0.61477 0.50022 0.19755
 H469 H 0.72230 0.47150 0.28095
 H470 H 0.52643 0.45822 0.21007
 C471 C 0.85042 0.48803 0.78992
 C472 C 0.85843 0.51797 0.77869
 C473 C 0.83626 0.54143 0.78087
 C474 C 0.80666 0.53508 0.79411
 C475 C 0.79897 0.50489 0.80419
 C476 C 0.82071 0.48130 0.80234
 C477 C 0.89008 0.52430 0.76520
 C478 C 0.90515 0.50323 0.74542
 C479 C 0.93606 0.50681 0.73530
 C480 C 0.95172 0.53236 0.74411
 C481 C 0.93713 0.55394 0.76350
 C482 C 0.90618 0.54996 0.77377
 H483 H 0.86738 0.46986 0.78895
 H484 H 0.84206 0.56461 0.77253
 H485 H 0.89273 0.48380 0.73812
 H486 H 0.89519 0.56578 0.78993
 H487 H 0.77606 0.49971 0.81387
 H488 H 0.97571 0.53493 0.73677
 C489 C 0.24599 0.34883 -0.06635
 C490 C 0.25417 0.37258 -0.04715
 C491 C 0.25145 0.36862 -0.01275
 C492 C 0.24072 0.34122 0.00270
 C493 C 0.23271 0.31756 -0.01664
 C494 C 0.23509 0.32128 -0.05119
 C495 C 0.26560 0.40183 -0.06237
 C496 C 0.24837 0.41919 -0.08516
 C497 C 0.25735 0.44889 -0.09599
 C498 C 0.28414 0.46101 -0.08411
 C499 C 0.30253 0.44282 -0.06286
 C500 C 0.29287 0.41351 -0.05193
 H501 H 0.24809 0.35180 -0.09296
 H502 H 0.25781 0.38703 0.00197
 H503 H 0.22719 0.41015 -0.09326
 H504 H 0.30637 0.39984 -0.03457
 H505 H 0.22457 0.29627 -0.00477
 H506 H 0.29126 0.48383 -0.09239
 C507 C 0.72292 0.13373 0.01638
 C508 C 0.74451 0.11899 0.03671
 C509 C 0.76908 0.13554 0.04714
 C510 C 0.77133 0.16692 0.03859
 C511 C 0.74940 0.18151 0.01861
 C512 C 0.72533 0.16495 0.00687
 C513 C 0.73985 0.08690 0.04885
 C514 C 0.76321 0.06473 0.04570
 C515 C 0.75804 0.03430 0.05714
 C516 C 0.72923 0.02634 0.07143
 C517 C 0.70602 0.04825 0.07514
 C518 C 0.71146 0.07850 0.06379
 H519 H 0.70451 0.12048 0.00781
 H520 H 0.78553 0.12434 0.06326
 H521 H 0.78517 0.07113 0.03423
 H522 H 0.69355 0.09561 0.06625
 H523 H 0.75136 0.20570 0.01191
 H524 H 0.72462 0.00289 0.07962
 C525 C 0.22192 0.65057 0.47825
 C526 C 0.24625 0.63280 0.49073
 C527 C 0.26876 0.64677 0.50810
 C528 C 0.26699 0.67816 0.51304
 C529 C 0.24279 0.69576 0.49966
 C530 C 0.22026 0.68202 0.48223
 C531 C 0.24902 0.60016 0.48359
 C532 C 0.27702 0.58871 0.47109
 C533 C 0.27933 0.55892 0.46054
 C534 C 0.25337 0.54046 0.46311
 C535 C 0.22516 0.55155 0.47543
 C536 C 0.22321 0.58121 0.48616
 H537 H 0.20489 0.64015 0.46407
 H538 H 0.28723 0.63296 0.51836
 H539 H 0.29672 0.60343 0.46865
 H540 H 0.20134 0.58999 0.49512
 H541 H 0.24135 0.72002 0.50297
 H542 H 0.25486 0.51764 0.45448
 C543 C 0.75184 0.84301 0.44550
 C544 C 0.74889 0.84970 0.47874
 C545 C 0.74801 0.82569 0.50326
 C546 C 0.75052 0.79525 0.49487
 C547 C 0.75320 0.78901 0.46150
 C548 C 0.75447 0.81268 0.43667
 C549 C 0.75065 0.88174 0.48774
 C550 C 0.73375 0.90505 0.47099
 C551 C 0.73912 0.93570 0.47621
 C552 C 0.76099 0.94292 0.49862
 C553 C 0.77737 0.92004 0.51615
 C554 C 0.77195 0.88943 0.51082
 H555 H 0.75338 0.86157 0.42676
 H556 H 0.74636 0.83081 0.52894
 H557 H 0.71735 0.89942 0.45312
 H558 H 0.78564 0.87166 0.52301
 H559 H 0.75513 0.76565 0.45472
 H560 H 0.76518 0.96665 0.50254
 C561 C -0.00486 0.28449 0.33458
 C562 C 0.00804 0.27801 0.36531
 C563 C 0.03975 0.27302 0.36705
 C564 C 0.05862 0.27427 0.33845
 C565 C 0.04557 0.28170 0.30799
 C566 C 0.01382 0.28647 0.30564
 C567 C -0.01136 0.27365 0.39569
 C568 C -0.03465 0.25181 0.39775
 C569 C -0.04834 0.24263 0.42842
 C570 C -0.03960 0.25631 0.45667
 C571 C -0.01662 0.27830 0.45495
 C572 C -0.00300 0.28730 0.42425
 H573 H -0.02945 0.28760 0.33330
 H574 H 0.04940 0.26712 0.39071
 H575 H -0.03988 0.23994 0.37618
 H576 H 0.01551 0.30354 0.42275
 H577 H 0.06027 0.28263 0.28603
 H578 H -0.05010 0.24880 0.48025
 C579 C -0.00683 0.69899 0.13192
 C580 C 0.01037 0.72317 0.11710
 C581 C 0.01889 0.74698 0.13582
 C582 C 0.01056 0.74682 0.16938
 C583 C -0.00659 0.72265 0.18419
 C584 C -0.01580 0.69887 0.16546
 C585 C 0.01624 0.72591 0.08130
 C586 C -0.00470 0.74208 0.06158
 C587 C 0.00119 0.74693 0.02767
 C588 C 0.02815 0.73517 0.01333
 C589 C 0.04916 0.71825 0.03282
 C590 C 0.04314 0.71400 0.06702
 H591 H -0.01465 0.68138 0.11692
 H592 H 0.03170 0.76590 0.12404
 H593 H -0.02542 0.75139 0.07280
 H594 H 0.05890 0.70113 0.08257
 H595 H -0.01371 0.72294 0.20996
 H596 H 0.03238 0.73866 -0.01302
 C597 C 0.47872 0.24349 0.68094
 C598 C 0.49641 0.26148 0.65809
 C599 C 0.51766 0.28172 0.66912
 C600 C 0.52180 0.28361 0.70301
 C601 C 0.50471 0.26454 0.72573
 C602 C 0.48294 0.24475 0.71471
 C603 C 0.49420 0.25735 0.62270
 C604 C 0.46924 0.26935 0.60552
 C605 C 0.46676 0.26481 0.57186
 C606 C 0.48928 0.24728 0.55577
 C607 C 0.51427 0.23482 0.57304
 C608 C 0.51667 0.24033 0.60644
 H609 H 0.46252 0.22760 0.67238
 H610 H 0.53149 0.29531 0.65123
 H611 H 0.45227 0.28288 0.61835
 H612 H 0.53547 0.23051 0.62031
 H613 H 0.50815 0.26522 0.75187
 H614 H 0.48742 0.24343 0.52992
 C615 C 0.47478 0.79928 0.84498
 C616 C 0.50233 0.78918 0.85889
 C617 C 0.52938 0.78945 0.83897
 C618 C 0.52874 0.79978 0.80559
 C619 C 0.50073 0.80901 0.79198
 C620 C 0.47377 0.80906 0.81163
 C621 C 0.50222 0.77908 0.89439
 C622 C 0.47839 0.76072 0.90804
 C623 C 0.47580 0.75325 0.94200
 C624 C 0.49760 0.76413 0.96261
 C625 C 0.52182 0.78232 0.94939
 C626 C 0.52419 0.78943 0.91516
 H627 H 0.45396 0.79969 0.86030
 H628 H 0.55088 0.78210 0.84947
 H629 H 0.46192 0.75199 0.89193
 H630 H 0.54212 0.80434 0.90489
 H631 H 0.49998 0.81684 0.76625
 H632 H 0.49560 0.75863 0.98892
 C633 C 0.13546 0.25489 0.32098
 C634 C 0.13452 0.24308 0.35313
 C635 C 0.10585 0.25016 0.36518
 C636 C 0.09146 0.26557 0.33924
 O637 O 0.10959 0.26850 0.31259
 H638 H 0.15214 0.23000 0.36584
 H639 H 0.09632 0.24337 0.38939
 C640 C 0.60063 0.79214 0.76446
 C641 C 0.59120 0.81873 0.74777
 C642 C 0.56302 0.82516 0.76109
 C643 C 0.55734 0.80213 0.78511
 O644 O 0.58021 0.78206 0.78734
 H645 H 0.60310 0.83157 0.72776
 H646 H 0.54834 0.84436 0.75413
 C647 C 0.40975 0.83085 0.76527
 C648 C 0.40087 0.84437 0.79382
 C649 C 0.42354 0.83763 0.81507
 C650 C 0.44480 0.82071 0.79788
 O651 O 0.43654 0.81652 0.76753
 H652 H 0.38012 0.85731 0.79876
 H653 H 0.42466 0.84461 0.83998
 C654 C -0.03395 0.29748 0.23796
 C655 C -0.00673 0.29491 0.22004
 C656 C 0.01520 0.29124 0.24282
 C657 C -0.00025 0.29172 0.27314
 O658 O -0.03012 0.29566 0.27006
 H659 H -0.00322 0.29527 0.19358
 H660 H 0.03940 0.28797 0.23749
 C661 C -0.07566 0.65864 0.20748
 C662 C -0.06448 0.63484 0.18986
 C663 C -0.03978 0.64638 0.17183
 C664 C -0.03766 0.67621 0.18021
 O665 O -0.05940 0.68361 0.20179
 H666 H -0.07378 0.61220 0.18937
 H667 H -0.02535 0.63465 0.15439
 C668 C 0.42816 0.20227 0.76230
 C669 C 0.45175 0.18097 0.76363
 C670 C 0.47621 0.19507 0.74772
 C671 C 0.46573 0.22379 0.73784
 O672 O 0.43659 0.22826 0.74650
 H673 H 0.45110 0.15779 0.77431
 H674 H 0.49858 0.18518 0.74255
 C675 C 0.57865 0.32184 0.74298
 C676 C 0.57512 0.34331 0.71713
 C677 C 0.55314 0.33198 0.69856
 C678 C 0.54467 0.30457 0.71462
 O679 O 0.56006 0.29846 0.74164
 H680 H 0.58747 0.36435 0.71200
 H681 H 0.54434 0.34248 0.67603
 C682 C 0.04027 0.79728 0.22292
 C683 C 0.03054 0.81873 0.19923
 C684 C 0.01673 0.80263 0.17671
 C685 C 0.01898 0.77256 0.18837
 O686 O 0.03311 0.76917 0.21655
 H687 H 0.03443 0.84305 0.19771
 H688 H 0.00725 0.81155 0.15384
 C689 C 0.30207 0.10477 0.21584
 C690 C 0.32901 0.09871 0.19862
 C691 C 0.33748 0.06995 0.20978
 C692 C 0.31473 0.06061 0.23251
 O693 O 0.29328 0.08171 0.23626
 H694 H 0.34117 0.11360 0.18055
 H695 H 0.35743 0.05709 0.20184
 C696 C 0.75857 0.60019 0.78826
 C697 C 0.74468 0.58624 0.81610
 C698 C 0.76100 0.55998 0.82223
 C699 C 0.78376 0.55989 0.79772
 O700 O 0.78240 0.58438 0.77713
 H701 H 0.72471 0.59395 0.82992
 H702 H 0.75677 0.54295 0.84221
 C703 C 0.78577 0.41138 0.82753
 C704 C 0.81481 0.40389 0.83768
 C705 C 0.83215 0.42880 0.82876
 C706 C 0.81230 0.44986 0.81417
 O707 O 0.78409 0.43929 0.81337
 H708 H 0.82242 0.38276 0.85008
 H709 H 0.85617 0.43157 0.83322
 C710 C 0.22159 -0.06651 0.27235
 C711 C 0.21124 -0.04671 0.24734
 C712 C 0.23276 -0.02498 0.24251
 C713 C 0.25496 -0.03271 0.26490
 O714 O 0.24828 -0.05813 0.28312
 H715 H 0.19060 -0.04791 0.23371
 H716 H 0.23248 -0.00629 0.22391
 C717 C 0.19954 -0.10046 0.69797
 C718 C 0.16930 -0.10688 0.69323
 C719 C 0.15278 -0.08594 0.71023
 C720 C 0.17429 -0.06839 0.72409
 O721 O 0.20254 -0.07729 0.71657
 H722 H 0.16034 -0.12467 0.67927
 H723 H 0.12809 -0.08400 0.71227
 C724 C 0.74291 0.37649 0.25525
 C725 C 0.74711 0.38333 0.28735
 C726 C 0.72875 0.40792 0.29238
 C727 C 0.71447 0.41424 0.26310
 O728 O 0.72286 0.39511 0.24044
 H729 H 0.76244 0.37232 0.30479
 H730 H 0.72630 0.42010 0.31461
 C731 C 0.71090 0.55915 0.29653
 C732 C 0.68099 0.56398 0.30723
 C733 C 0.66520 0.53994 0.29735
 C734 C 0.68672 0.52210 0.28161
 O735 O 0.71452 0.53368 0.28111
 H736 H 0.67171 0.58300 0.32015
 H737 H 0.64096 0.53577 0.30141
 C738 C 0.24473 0.04788 0.79973
 C739 C 0.26186 0.02139 0.80318
 C740 C 0.24263 -0.00126 0.79636
 C741 C 0.21511 0.01309 0.78903
 O742 O 0.21632 0.04297 0.79138
 H743 H 0.28565 0.01892 0.80943
 H744 H 0.24831 -0.02529 0.79621
 C745 C 0.23343 0.31716 0.08664
 C746 C 0.22779 0.34776 0.08998
 C747 C 0.23054 0.36109 0.05897
 C748 C 0.23732 0.33753 0.03892
 O749 O 0.23910 0.31078 0.05570
 H750 H 0.22213 0.35896 0.11236
 H751 H 0.22706 0.38498 0.05178
 C752 C 0.74931 0.74747 0.56780
 C753 C 0.76159 0.72643 0.54721
 C754 C 0.76336 0.74124 0.51682
 C755 C 0.75199 0.77034 0.52110
 O756 O 0.74353 0.77410 0.55214
 H757 H 0.76848 0.70311 0.55355
 H758 H 0.77250 0.73191 0.49450
 C759 C 0.77156 0.77810 0.36254
 C760 C 0.77734 0.80758 0.35062
 C761 C 0.77036 0.82518 0.37637
 C762 C 0.76102 0.80500 0.40217
 O763 O 0.76168 0.77647 0.39360
 H764 H 0.78619 0.81523 0.32636
 H765 H 0.77308 0.84959 0.37643
 C766 C 0.22848 0.26547 -0.10846
 C767 C 0.20453 0.25596 -0.08740
 C768 C 0.20343 0.27595 -0.06319
 C769 C 0.22667 0.29628 -0.07140
 O770 O 0.24185 0.29005 -0.09894
 H771 H 0.19020 0.23628 -0.08891
 H772 H 0.18777 0.27557 -0.04192
 C773 C 0.68564 0.21181 -0.05115
 C774 C 0.66455 0.18874 -0.04749
 C775 C 0.67603 0.16824 -0.02455
 C776 C 0.70347 0.18024 -0.01596
 O777 O 0.70917 0.20685 -0.03200
 H778 H 0.64345 0.18693 -0.06024
 H779 H 0.66552 0.14705 -0.01553
 C780 C 0.17181 0.73050 0.43517
 C781 C 0.14988 0.71067 0.44871
 C782 C 0.16500 0.69087 0.46955
 C783 C 0.19505 0.70010 0.46741
 O784 O 0.19934 0.72428 0.44662
 H785 H 0.12591 0.70997 0.44310
 H786 H 0.15556 0.67126 0.48365
 C787 C 0.30830 0.72144 0.56569
 C788 C 0.33169 0.70142 0.55804
 C789 C 0.31957 0.68245 0.53685
 C790 C 0.28971 0.69248 0.53299
 O791 O 0.28291 0.71618 0.55045
 H792 H 0.35461 0.70042 0.56724
 H793 H 0.33115 0.66359 0.52561
 C794 C 0.81855 0.21886 0.07395
 C795 C 0.84070 0.19698 0.06783
 C796 C 0.82598 0.17461 0.05336
 C797 C 0.79604 0.18465 0.05137
 O798 O 0.79140 0.21150 0.06383
 H799 H 0.86453 0.19683 0.07413
 H800 H 0.83576 0.15339 0.04547
 C801 C 0.41838 0.30466 0.51633
 C802 C 0.39832 0.30350 0.54332
 C803 C 0.41321 0.28714 0.56743
 C804 C 0.44140 0.27956 0.55345
 O805 O 0.44448 0.28999 0.52227
 H806 H 0.37585 0.31405 0.54543
 H807 H 0.40477 0.28203 0.59247
 C808 C -0.04381 0.80088 -0.01625
 C809 C -0.06622 0.77954 -0.00843
 C810 C -0.05168 0.75556 0.00727
 C811 C -0.02145 0.76391 0.00770
 O812 O -0.01650 0.79145 -0.00654
 H813 H -0.09054 0.78183 -0.01227
 H814 H -0.06205 0.73507 0.01858
 C815 C 0.10280 0.68320 -0.01969
 C816 C 0.11905 0.67861 0.00854
 C817 C 0.10166 0.69197 0.03237
 C818 C 0.07607 0.70367 0.01678
 O819 O 0.07692 0.69844 -0.01481
 H820 H 0.14052 0.66636 0.01159
 H821 H 0.10692 0.69258 0.05804
 C822 C 0.55677 0.18061 0.52942
 C823 C 0.58015 0.19026 0.54785
 C824 C 0.56762 0.21272 0.56569
 C825 C 0.53743 0.21521 0.55693
 O826 O 0.53081 0.19584 0.53466
 H827 H 0.60341 0.18153 0.54872
 H828 H 0.57904 0.22538 0.58346
 C829 C -0.08121 0.17281 0.45457
 C830 C -0.09675 0.17665 0.42573
 C831 C -0.08706 0.20412 0.41137
 C832 C -0.06684 0.21487 0.43300
 O833 O -0.06331 0.19588 0.45894
 H834 H -0.11211 0.16083 0.41575
 H835 H -0.09353 0.21472 0.38791
 C836 C 0.42751 0.69874 0.98321
 C837 C 0.40735 0.70923 0.95975
 C838 C 0.42231 0.73201 0.94183
 C839 C 0.45058 0.73368 0.95563
 O840 O 0.45368 0.71364 0.98098
 H841 H 0.38482 0.70070 0.95560
 H842 H 0.41383 0.74533 0.92074
 C843 C 0.56047 0.81570 1.01208
 C844 C 0.58472 0.81508 0.98939
 C845 C 0.57372 0.80185 0.96299
 C846 C 0.54357 0.79520 0.97153
 O847 O 0.53550 0.80348 1.00141
 H848 H 0.60748 0.82396 0.99142
 H849 H 0.58609 0.79788 0.94011
 C850 C 0.01828 0.31696 0.51636
 C851 C 0.00686 0.29307 0.53651
 C852 C -0.00815 0.27541 0.51634
 C853 C -0.00483 0.28987 0.48526
 O854 O 0.01139 0.31506 0.48526
 H855 H 0.00903 0.28905 0.56280
 H856 H -0.01962 0.25426 0.52358
 C857 C 0.34043 0.51706 0.42557
 C858 C 0.35154 0.54573 0.41672
 C859 C 0.33056 0.56549 0.42938
 C860 C 0.30805 0.54740 0.44491
 O861 O 0.31406 0.51796 0.44257
 H862 H 0.37242 0.55156 0.40273
 H863 H 0.33131 0.59012 0.42672
 C864 C 0.81821 -0.01509 0.03356
 C865 C 0.80619 -0.03329 0.05952
 C866 C 0.78289 -0.01670 0.07268
 C867 C 0.78207 0.01044 0.05356
 O868 O 0.80385 0.01162 0.02992
 H869 H 0.81338 -0.05612 0.06769
 H870 H 0.76805 -0.02388 0.09354
 C871 C 0.64040 0.01056 0.10828
 C872 C 0.63237 0.03911 0.11818
 C873 C 0.65566 0.05764 0.10653
 C874 C 0.67623 0.03886 0.09062
 O875 O 0.66692 0.01033 0.09169
 H876 H 0.61200 0.04563 0.13214
 H877 H 0.65766 0.08173 0.10992
 C878 C 0.15530 0.51206 0.48562
 C879 C 0.16431 0.50266 0.45498
 C880 C 0.19160 0.51619 0.44739
 C881 C 0.19733 0.53311 0.47376
 O882 O 0.17524 0.53083 0.49708
 H883 H 0.15275 0.48723 0.44010
 H884 H 0.20566 0.51408 0.42517
 C885 C 0.20865 0.50046 -0.13916
 C886 C 0.20694 0.47656 -0.15933
 C887 C 0.22608 0.45459 -0.14652
 C888 C 0.23829 0.46671 -0.11959
 O889 O 0.22784 0.49465 -0.11504
 H890 H 0.19261 0.47487 -0.18019
 H891 H 0.22999 0.43201 -0.15511
 C892 C 0.68801 0.99182 0.44540
 C893 C 0.71487 1.00666 0.43637
 C894 C 0.73760 0.98643 0.44438
 C895 C 0.72296 0.96074 0.45798
 O896 O 0.69274 0.96386 0.45855
 H897 H 0.71752 1.03006 0.42679
 H898 H 0.76199 0.99052 0.44249
 C899 C 0.83504 0.95607 0.55640
 C900 C 0.83558 0.92917 0.57576
 C901 C 0.81381 0.91140 0.56349
 C902 C 0.80160 0.92903 0.53775
 O903 O 0.81451 0.95602 0.53355
 H904 H 0.85033 0.92308 0.59594
 H905 H 0.80758 0.88850 0.57233
 C906 C 0.36306 0.47726 -0.02553
 C907 C 0.37786 0.45037 -0.03240
 C908 C 0.35766 0.43490 -0.04932
 C909 C 0.33194 0.45343 -0.05154
 O910 O 0.33518 0.47937 -0.03726
 H911 H 0.40034 0.44257 -0.02508
 H912 H 0.36072 0.41216 -0.05779
 C913 C 0.50982 0.39423 0.28537
 C914 C 0.52851 0.36952 0.27911
 C915 C 0.55076 0.38066 0.25734
 C916 C 0.54370 0.41120 0.25168
 O917 O 0.51890 0.41947 0.26866
 H918 H 0.52699 0.34655 0.29025
 H919 H 0.57039 0.36832 0.24769
 C920 C 0.00727 0.02096 0.85596
 C921 C -0.00175 0.05029 0.84626
 C922 C 0.01573 0.05803 0.81871
 C923 C 0.03430 0.03296 0.81375
 O924 O 0.02932 0.01040 0.83638
 H925 H -0.01960 0.06406 0.85729
 H926 H 0.01475 0.07923 0.80370
 C927 C 0.03115 0.06061 0.65226
 C928 C 0.05979 0.07184 0.64325
 C929 C 0.07708 0.06573 0.66997
 C930 C 0.05762 0.05152 0.69343
 O931 O 0.02968 0.04837 0.68279
 H932 H 0.06735 0.08265 0.61978
 H933 H 0.10101 0.07099 0.67215
 C934 C 0.52574 0.53489 0.15274
 C935 C 0.54643 0.55507 0.16343
 C936 C 0.56574 0.53779 0.18254
 C937 C 0.55532 0.50828 0.18228
 O938 O 0.53092 0.50647 0.16424
 H939 H 0.54750 0.57943 0.15776
 H940 H 0.58483 0.54589 0.19554
 C941 C 0.45637 -0.10562 0.23900
 C942 C 0.43176 -0.12497 0.24250
 C943 C 0.41156 -0.11160 0.26376
 C944 C 0.42546 -0.08515 0.27171
 O945 O 0.45269 -0.08162 0.25681
 H946 H 0.42829 -0.14546 0.22984
 H947 H 0.38883 -0.11939 0.27127
 C948 C 0.98578 0.46066 0.68890
 C949 C 0.96615 0.43815 0.70158
 C950 C 0.94467 0.45252 0.72013
 C951 C 0.95265 0.48286 0.71759
 O952 O 0.97776 0.48790 0.69871
 H953 H 0.96716 0.41403 0.69773
 H954 H 0.92584 0.44191 0.73436
 C955 C 0.99381 0.60139 0.79055
 C956 C 0.96931 0.62095 0.79555
 C957 C 0.94436 0.60612 0.78565
 C958 C 0.95559 0.57870 0.77520
 O959 O 0.98556 0.57589 0.77813
 H960 H 0.96946 0.64297 0.80598
 H961 H 0.92086 0.61425 0.78625
 C962 C 0.46222 0.03176 0.36154
 C963 C 0.44516 0.05469 0.34611
 C964 C 0.42537 0.04040 0.32775
 C965 C 0.43147 0.00960 0.33332
 O966 O 0.45424 0.00419 0.35363
 H967 H 0.44687 0.07904 0.34798
 H968 H 0.40842 0.05126 0.31207
   
