data_POSCAR
  _audit_creation_date              2014-09-24
  _audit_creation_method            'ToBaCCo'
  _symmetry_space_group_name_H-M    'P1'
  _symmetry_Int_Tables_number       1
  _symmetry_cell_setting            triclinic
  loop_
  _symmetry_equiv_pos_as_xyz
 x,y,z
_cell_length_a 65.7614
_cell_length_b 65.5208
_cell_length_c 21.6378
_cell_angle_alpha 89.924700
_cell_angle_beta 90.062000
_cell_angle_gamma 119.870300
loop_
  _atom_site_label
  _atom_site_type_symbol
  _atom_site_fract_x
  _atom_site_fract_y
  _atom_site_fract_z
C1 C 0.24956 0.48833 0.53053
 C2 C 0.24666 0.48421 0.46863
 C3 C 0.22636 0.48279 0.43455
 C4 C 0.26398 0.48135 0.43149
 C5 C 0.27097 0.49189 0.56316
 C6 C 0.23152 0.48957 0.56860
 C7 C 0.21260 0.46329 0.39701
 C8 C 0.19398 0.46207 0.36293
 C9 C 0.18863 0.48040 0.36516
 C10 C 0.20274 0.50010 0.40300
 C11 C 0.22141 0.50126 0.43683
 C12 C 0.26820 0.46271 0.44299
 C13 C 0.28484 0.46042 0.40809
 C14 C 0.29772 0.47695 0.36202
 C15 C 0.29310 0.49534 0.34982
 C16 C 0.27624 0.49740 0.38405
 C17 C 0.29331 0.50971 0.54487
 C18 C 0.31333 0.51261 0.57533
 C19 C 0.31142 0.49803 0.62524
 C20 C 0.28895 0.48030 0.64381
 C21 C 0.26895 0.47741 0.61327
 C22 C 0.23696 0.51060 0.59881
 C23 C 0.21986 0.51228 0.63301
 C24 C 0.19726 0.49277 0.63904
 C25 C 0.19193 0.47154 0.60961
 C26 C 0.20894 0.46999 0.57446
 H27 H 0.21626 0.44893 0.39415
 H28 H 0.18376 0.44663 0.33454
 H29 H 0.20001 0.51498 0.40672
 H30 H 0.23224 0.51679 0.46423
 H31 H 0.25863 0.44999 0.47896
 H32 H 0.28797 0.44599 0.41778
 H33 H 0.27298 0.51174 0.37422
 H34 H 0.29523 0.52134 0.50696
 H35 H 0.33039 0.52636 0.55997
 H36 H 0.28663 0.46825 0.68084
 H37 H 0.25185 0.46353 0.62796
 H38 H 0.25432 0.52586 0.59467
 H39 H 0.22429 0.52884 0.65497
 H40 H 0.17450 0.45635 0.61233
 H41 H 0.20451 0.45361 0.55148
 H42 H 0.30230 0.50797 0.31342
 C43 C 0.47351 -0.25939 0.53886
 C44 C 0.47730 -0.25761 0.47660
 C45 C 0.48437 -0.27301 0.44344
 C46 C 0.47577 -0.23920 0.44002
 C47 C 0.47347 -0.23993 0.57370
 C48 C 0.47175 -0.27944 0.57550
 C49 C 0.50265 -0.27614 0.46625
 C50 C 0.50835 -0.29162 0.43719
 C51 C 0.49655 -0.30359 0.38344
 C52 C 0.47894 -0.29972 0.35892
 C53 C 0.47292 -0.28452 0.38874
 C54 C 0.49467 -0.22351 0.40316
 C55 C 0.49394 -0.20517 0.37203
 C56 C 0.47409 -0.20238 0.37664
 C57 C 0.45502 -0.21842 0.41261
 C58 C 0.45576 -0.23676 0.44359
 C59 C 0.45374 -0.24382 0.60785
 C60 C 0.45387 -0.22529 0.64030
 C61 C 0.47395 -0.20286 0.64054
 C62 C 0.49374 -0.19909 0.60658
 C63 C 0.49348 -0.21747 0.57346
 C64 C 0.45696 -0.30281 0.55687
 C65 C 0.45708 -0.32136 0.58856
 C66 C 0.47178 -0.31706 0.64006
 C67 C 0.48575 -0.29356 0.66026
 C68 C 0.48566 -0.27508 0.62834
 H69 H 0.51226 -0.26687 0.50723
 H70 H 0.52204 -0.29426 0.45676
 H71 H 0.46927 -0.30899 0.31805
 H72 H 0.45892 -0.28220 0.37003
 H73 H 0.51032 -0.22501 0.40010
 H74 H 0.50927 -0.19288 0.34622
 H75 H 0.44084 -0.24887 0.47118
 H76 H 0.43820 -0.26108 0.60859
 H77 H 0.43838 -0.22853 0.66584
 H78 H 0.50928 -0.18186 0.60463
 H79 H 0.50890 -0.21423 0.54759
 H80 H 0.44572 -0.30664 0.51688
 H81 H 0.44589 -0.33914 0.57189
 H82 H 0.49727 -0.28887 0.69964
 H83 H 0.49713 -0.25720 0.64382
 H84 H 0.43955 -0.21668 0.41705
 C85 C 1.24766 0.75617 0.52784
 C86 C 1.24606 0.75406 0.46492
 C87 C 1.26579 0.77034 0.42433
 C88 C 1.22452 0.73571 0.43344
 C89 C 1.22966 0.73791 0.56901
 C90 C 1.26767 0.77677 0.55834
 C91 C 1.26190 0.78269 0.37722
 C92 C 1.28051 0.79912 0.34118
 C93 C 1.30357 0.80351 0.35145
 C94 C 1.30714 0.79039 0.39746
 C95 C 1.28846 0.77387 0.43310
 C96 C 1.20222 0.73198 0.44959
 C97 C 1.18216 0.71451 0.42018
 C98 C 1.18406 0.70108 0.37254
 C99 C 1.20638 0.70517 0.35525
 C100 C 1.22641 0.72232 0.38551
 C101 C 1.22315 0.71412 0.56249
 C102 C 1.20562 0.69694 0.59976
 C103 C 1.19426 0.70322 0.64510
 C104 C 1.20150 0.72724 0.65258
 C105 C 1.21901 0.74436 0.61515
 C106 C 1.28029 0.77326 0.60543
 C107 C 1.29985 0.79239 0.63219
 C108 C 1.30729 0.81558 0.61210
 C109 C 1.29428 0.81895 0.56561
 C110 C 1.27446 0.79985 0.53995
 H111 H 1.24449 0.78009 0.36950
 H112 H 1.27649 0.80854 0.30686
 H113 H 1.32452 0.79308 0.40651
 H114 H 1.29176 0.76414 0.46841
 H115 H 1.20032 0.74255 0.48508
 H116 H 1.16512 0.71164 0.43419
 H117 H 1.24340 0.72493 0.37206
 H118 H 1.23156 0.70883 0.52806
 H119 H 1.20126 0.67896 0.59202
 H120 H 1.19339 0.73286 0.68709
 H121 H 1.22393 0.76265 0.62134
 H122 H 1.27533 0.75560 0.62043
 H123 H 1.30936 0.78860 0.66678
 H124 H 1.29932 0.83648 0.54926
 H125 H 1.26464 0.80306 0.50486
 H126 H 1.20836 0.69474 0.31953
 C127 C 0.75873 0.51112 0.53193
 C128 C 0.76021 0.51024 0.46906
 C129 C 0.78161 0.51311 0.43729
 C130 C 0.74035 0.50657 0.42888
 C131 C 0.73901 0.51235 0.56242
 C132 C 0.77654 0.51053 0.57308
 C133 C 0.80408 0.53141 0.45339
 C134 C 0.82397 0.53379 0.42346
 C135 C 0.82177 0.51851 0.37529
 C136 C 0.79930 0.50055 0.35809
 C137 C 0.77944 0.49787 0.38888
 C138 C 0.74384 0.52298 0.38259
 C139 C 0.72491 0.52072 0.34789
 C140 C 0.70215 0.50173 0.35837
 C141 C 0.69891 0.48491 0.40334
 C142 C 0.71785 0.48719 0.43798
 C143 C 0.72673 0.49709 0.61138
 C144 C 0.70775 0.49759 0.63902
 C145 C 0.70050 0.51337 0.61791
 C146 C 0.71308 0.52879 0.56928
 C147 C 0.73236 0.52864 0.54281
 C148 C 0.78252 0.49286 0.56678
 C149 C 0.79989 0.49287 0.60397
 C150 C 0.81161 0.51054 0.64901
 C151 C 0.80486 0.52770 0.65641
 C152 C 0.78752 0.52766 0.61900
 H153 H 0.80624 0.54388 0.48916
 H154 H 0.84112 0.54777 0.43744
 H155 H 0.79707 0.48818 0.32197
 H156 H 0.76234 0.48368 0.37537
 H157 H 0.76110 0.53804 0.37498
 H158 H 0.72820 0.53438 0.31477
 H159 H 0.71489 0.47415 0.47296
 H160 H 0.73155 0.48441 0.62745
 H161 H 0.69851 0.48496 0.67524
 H162 H 0.70818 0.54129 0.55204
 H163 H 0.74197 0.54112 0.50643
 H164 H 0.77382 0.47913 0.53255
 H165 H 0.80383 0.47893 0.59647
 H166 H 0.81326 0.54146 0.69073
 H167 H 0.78299 0.54133 0.62502
 H168 H 0.68160 0.47014 0.41239
 C169 C 0.49020 0.25065 0.53534
 C170 C 0.48999 0.24900 0.47259
 C171 C 0.48778 0.26621 0.43260
 C172 C 0.49141 0.22956 0.44138
 C173 C 0.48717 0.23085 0.57510
 C174 C 0.49285 0.27197 0.56699
 C175 C 0.46833 0.26948 0.43833
 C176 C 0.46629 0.28574 0.40077
 C177 C 0.48382 0.29925 0.35760
 C178 C 0.50310 0.29567 0.35117
 C179 C 0.50494 0.27912 0.38808
 C180 C 0.47461 0.21568 0.39707
 C181 C 0.47560 0.19709 0.36839
 C182 C 0.49366 0.19226 0.38302
 C183 C 0.51052 0.20631 0.42710
 C184 C 0.50954 0.22491 0.45561
 C185 C 0.50455 0.23410 0.61782
 C186 C 0.50191 0.21539 0.65470
 C187 C 0.48151 0.19304 0.65026
 C188 C 0.46382 0.19023 0.60869
 C189 C 0.46670 0.20885 0.57115
 C190 C 0.51105 0.29448 0.55100
 C191 C 0.51337 0.31441 0.58087
 C192 C 0.49786 0.31235 0.62840
 C193 C 0.47975 0.28960 0.64479
 C194 C 0.47738 0.26972 0.61445
 H195 H 0.45472 0.25938 0.47180
 H196 H 0.45117 0.28803 0.40607
 H197 H 0.51658 0.30537 0.31713
 H198 H 0.51992 0.27660 0.38258
 H199 H 0.46044 0.21894 0.38561
 H200 H 0.46189 0.18632 0.33601
 H201 H 0.52293 0.23567 0.48891
 H202 H 0.52032 0.25110 0.62202
 H203 H 0.51576 0.21890 0.68716
 H204 H 0.44781 0.17343 0.60431
 H205 H 0.45293 0.20615 0.53906
 H206 H 0.52356 0.29663 0.51549
 H207 H 0.52755 0.33152 0.56702
 H208 H 0.46702 0.28670 0.68008
 H209 H 0.46322 0.25251 0.62759
 H210 H 0.52458 0.20295 0.43929
 C211 C 0.76007 0.24161 0.52841
 C212 C 0.76227 0.23942 0.46657
 C213 C 0.74356 0.22005 0.42970
 C214 C 0.78330 0.25668 0.43202
 C215 C 0.77815 0.26183 0.56450
 C216 C 0.73931 0.22387 0.56292
 C217 C 0.74895 0.20558 0.39377
 C218 C 0.73176 0.18781 0.35711
 C219 C 0.70884 0.18415 0.35555
 C220 C 0.70355 0.19896 0.39090
 C221 C 0.72078 0.21675 0.42751
 C222 C 0.80559 0.25998 0.44588
 C223 C 0.82526 0.27659 0.41317
 C224 C 0.82292 0.29034 0.36694
 C225 C 0.80049 0.28661 0.35234
 C226 C 0.78084 0.26982 0.38441
 C227 C 0.78522 0.28509 0.54756
 C228 C 0.80270 0.30391 0.58095
 C229 C 0.81332 0.29999 0.63272
 C230 C 0.80565 0.27650 0.65045
 C231 C 0.78824 0.25772 0.61670
 C232 C 0.72408 0.23037 0.59039
 C233 C 0.70394 0.21360 0.62098
 C234 C 0.69907 0.19025 0.62607
 C235 C 0.71454 0.18382 0.59920
 C236 C 0.73450 0.20052 0.56771
 H237 H 0.76650 0.20804 0.39422
 H238 H 0.73639 0.17685 0.32992
 H239 H 0.68638 0.19734 0.38942
 H240 H 0.71646 0.22823 0.45335
 H241 H 0.80771 0.24971 0.48196
 H242 H 0.84236 0.27901 0.42464
 H243 H 0.76371 0.26728 0.37274
 H244 H 0.77727 0.28869 0.50830
 H245 H 0.80795 0.32165 0.56601
 H246 H 0.81303 0.27219 0.68949
 H247 H 0.78289 0.23987 0.63077
 H248 H 0.72756 0.24832 0.58693
 H249 H 0.69219 0.21890 0.64104
 H250 H 0.71097 0.16583 0.60120
 H251 H 0.74613 0.19527 0.54672
 H252 H 0.79804 0.29643 0.31566
 N253 N 0.97804 0.52469 0.03725
 N254 N 0.96055 0.52919 0.03846
 N255 N 1.02737 0.53897 0.08895
 N256 N 1.04433 0.55322 0.12646
 N257 N 1.02757 0.54999 0.03803
 N258 N 1.04488 0.57205 0.03928
 N259 N 0.97828 0.51382 0.08805
 N260 N 0.96119 0.51084 0.12541
 C261 C 0.95023 0.52043 0.09382
 C262 C 1.05512 0.57376 0.09482
 N263 N 1.02861 0.47972 0.08369
 N264 N 1.04614 0.47668 0.10164
 N265 N 0.97881 0.47106 0.11528
 N266 N 0.96131 0.46197 0.15516
 N267 N 0.97936 0.45440 0.08296
 N268 N 0.96236 0.43348 0.10031
 N269 N 1.02814 0.49637 0.11629
 N270 N 1.04534 0.50519 0.15703
 Mn271 Mn 1.00313 0.50508 0.10274
 C272 C 1.05642 0.49277 0.14734
 C273 C 0.95126 0.43855 0.14526
 N274 N 1.02801 0.54117 -0.09246
 N275 N 1.04563 0.56197 -0.10863
 N276 N 0.97893 0.49919 -0.12580
 N277 N 0.96125 0.48993 -0.16509
 N278 N 0.97858 0.51588 -0.09313
 N279 N 0.96061 0.51844 -0.10932
 N280 N 1.02824 0.52440 -0.12509
 N281 N 1.04596 0.53326 -0.16421
 Mn282 Mn 1.00305 0.53320 -0.02777
 C283 C 1.05663 0.55666 -0.15347
 C284 C 0.95000 0.50211 -0.15429
 N285 N 0.97959 0.44546 -0.04756
 N286 N 0.96211 0.42348 -0.04839
 N287 N 1.02888 0.48183 -0.09739
 N288 N 1.04618 0.48508 -0.13434
 N289 N 1.02893 0.47069 -0.04696
 N290 N 1.04618 0.46586 -0.04849
 N291 N 0.97955 0.45655 -0.09812
 N292 N 0.96206 0.44249 -0.13461
 Mn293 Mn 1.00414 0.46232 0.01819
 Mn294 Mn 1.00390 0.49045 -0.11223
 Cl295 Cl 1.00356 0.49777 -0.00476
 C296 C 0.95133 0.42194 -0.10299
 C297 C 1.05686 0.47511 -0.10310
 N298 N 0.48154 0.50603 0.12471
 N299 N 0.47145 0.51334 0.16481
 N300 N 0.49116 0.46610 0.08522
 N301 N 0.48795 0.44494 0.09764
 N302 N 0.50692 0.48184 0.12249
 N303 N 0.51501 0.47190 0.16091
 N304 N 0.46589 0.49026 0.08729
 N305 N 0.44466 0.48622 0.10129
 C306 C 0.44847 0.50078 0.14969
 C307 C 0.50299 0.44891 0.14494
 N308 N 0.49814 0.47428 -0.09478
 N309 N 0.50210 0.46116 -0.13385
 N310 N 0.46063 0.48583 -0.04534
 N311 N 0.43865 0.48106 -0.04908
 N312 N 0.47276 0.49842 -0.09305
 N313 N 0.45936 0.50255 -0.13052
 N314 N 0.48591 0.46168 -0.04719
 N315 N 0.48122 0.43971 -0.05253
 Mn316 Mn 0.47566 0.47574 0.02004
 C317 C 0.49149 0.43968 -0.10653
 C318 C 0.43816 0.49165 -0.10234
 N319 N 0.54977 0.52579 0.10759
 N320 N 0.56270 0.52013 0.14241
 N321 N 0.53631 0.56269 0.06227
 N322 N 0.53867 0.58391 0.06519
 N323 N 0.52445 0.54995 0.10999
 N324 N 0.51853 0.56216 0.14689
 N325 N 0.56193 0.53871 0.06045
 N326 N 0.58352 0.54224 0.06191
 Mn327 Mn 0.51571 0.51593 0.11689
 C328 C 0.58372 0.53060 0.11334
 C329 C 0.52762 0.58332 0.11845
 N330 N 0.51571 0.54258 -0.10787
 N331 N 0.50675 0.55252 -0.14360
 N332 N 0.55669 0.53401 -0.07125
 N333 N 0.57767 0.53663 -0.08054
 N334 N 0.54136 0.51854 -0.10991
 N335 N 0.55165 0.51044 -0.14719
 N336 N 0.53126 0.55811 -0.06980
 N337 N 0.53340 0.57899 -0.07861
 Mn338 Mn 0.50698 0.50843 -0.10227
 Mn339 Mn 0.54677 0.54862 -0.00472
 Cl340 Cl 0.51126 0.51216 0.00745
 C341 C 0.51811 0.57528 -0.12482
 C342 C 0.57432 0.52204 -0.12832
 N343 N 0.44636 -0.02309 0.04958
 N344 N 0.42456 -0.04074 0.05154
 N345 N 0.48325 0.02526 0.10225
 N346 N 0.48773 0.04233 0.14182
 N347 N 0.47135 0.02630 0.05476
 N348 N 0.46733 0.04401 0.06071
 N349 N 0.45853 -0.02428 0.09619
 N350 N 0.44537 -0.04278 0.13109
 C351 C 0.42425 -0.05285 0.10252
 C352 C 0.47766 0.05384 0.11510
 N353 N 0.54244 0.02554 0.07820
 N354 N 0.56349 0.04273 0.09406
 N355 N 0.50189 -0.02487 0.11006
 N356 N 0.49402 -0.04359 0.14619
 N357 N 0.51787 -0.02390 0.07194
 N358 N 0.52132 -0.04185 0.08090
 N359 N 0.52646 0.02464 0.11622
 N360 N 0.53610 0.04118 0.15868
 Mn361 Mn 0.49248 0.00014 0.10695
 C362 C 0.55914 0.05233 0.14429
 C363 C 0.50638 -0.05395 0.12723
 N364 N 0.47690 0.02848 -0.07787
 N365 N 0.47428 0.04697 -0.08749
 N366 N 0.46747 -0.02071 -0.12081
 N367 N 0.45755 -0.03904 -0.15836
 N368 N 0.45195 -0.02108 -0.08202
 N369 N 0.43120 -0.03974 -0.09142
 N370 N 0.49275 0.02887 -0.11548
 N371 N 0.50155 0.04770 -0.15109
 Mn372 Mn 0.46143 0.00271 -0.01400
 C373 C 0.48977 0.05872 -0.13344
 C374 C 0.43489 -0.05060 -0.13950
 N375 N 0.52337 -0.02186 -0.06009
 N376 N 0.52670 -0.04007 -0.06504
 N377 N 0.53586 0.02821 -0.10193
 N378 N 0.54949 0.04525 -0.14037
 N379 N 0.54805 0.02751 -0.05467
 N380 N 0.57030 0.04389 -0.05990
 N381 N 0.51077 -0.02133 -0.10657
 N382 N 0.50505 -0.03924 -0.14415
 Mn383 Mn 0.53319 0.00188 0.00895
 Mn384 Mn 0.50172 0.00375 -0.11196
 Cl385 Cl 0.49723 0.00215 -0.00249
 C386 C 0.51516 -0.05071 -0.11766
 C387 C 0.57086 0.05495 -0.11319
 C388 C 1.17048 0.47832 0.33063
 C389 C 1.16261 0.49466 0.32835
 C390 C 1.14291 0.49119 0.28869
 N391 N 1.13497 0.50671 0.29158
 N392 N 1.11715 0.50389 0.25627
 C393 C 1.10663 0.48546 0.21651
 N394 N 1.11462 0.46998 0.21337
 N395 N 1.13243 0.47278 0.24882
 C396 C 1.08675 0.48205 0.17775
 C397 C 1.07684 0.49642 0.18358
 H398 H 1.17045 0.51037 0.35628
 H399 H 1.07942 0.46761 0.14509
 H400 H 1.16105 0.46269 0.30231
 H401 H 1.08384 0.51057 0.21710
 C402 C 0.50209 0.67906 0.35641
 C403 C 0.49991 0.67361 0.29361
 C404 C 0.50471 0.65545 0.26938
 N405 N 0.50790 0.65412 0.20786
 N406 N 0.51200 0.63754 0.18560
 C407 C 0.51288 0.62159 0.22408
 N408 N 0.50951 0.62282 0.28547
 N409 N 0.50560 0.63949 0.30775
 C410 C 0.51670 0.60274 0.20051
 C411 C 0.52493 0.60297 0.14110
 H412 H 0.49527 0.68325 0.26130
 H413 H 0.51328 0.58837 0.23151
 H414 H 0.50905 0.67091 0.38703
 H415 H 0.52973 0.61788 0.11088
 C416 C 0.32325 -0.17913 0.31935
 C417 C 0.32249 -0.16513 0.27147
 C418 C 0.34391 -0.14545 0.24497
 N419 N 0.34223 -0.13298 0.19708
 N420 N 0.36133 -0.11456 0.17397
 C421 C 0.38283 -0.10787 0.19806
 N422 N 0.38453 -0.12036 0.24587
 N423 N 0.36543 -0.13881 0.26891
 C424 C 0.40399 -0.08713 0.17434
 C425 C 0.40328 -0.07419 0.12411
 H426 H 0.30606 -0.16807 0.25258
 H427 H 0.42052 -0.08178 0.19747
 H428 H 0.34038 -0.17609 0.33338
 H429 H 0.38694 -0.07972 0.09985
 C430 C 0.84316 0.52104 0.34574
 C431 C 0.84394 0.51543 0.28390
 C432 C 0.86506 0.51673 0.25664
 N433 N 0.86709 0.51598 0.19434
 N434 N 0.88589 0.51655 0.16935
 C435 C 0.90325 0.51770 0.20586
 N436 N 0.90114 0.51832 0.26809
 N437 N 0.88245 0.51794 0.29302
 C438 C 0.92374 0.51742 0.17971
 C439 C 0.92982 0.52151 0.11740
 H440 H 0.82887 0.51036 0.25435
 H441 H 0.93475 0.51435 0.21123
 H442 H 0.85908 0.52841 0.37307
 H443 H 0.91993 0.52613 0.08596
 C444 C 0.48132 0.31658 0.31932
 C445 C 0.50055 0.33765 0.29964
 C446 C 0.49782 0.35542 0.26468
 N447 N 0.51614 0.37769 0.25996
 N448 N 0.51387 0.39410 0.22931
 C449 C 0.49323 0.38878 0.20178
 N450 N 0.47499 0.36642 0.20583
 N451 N 0.47721 0.35006 0.23691
 C452 C 0.49041 0.40681 0.16843
 C453 C 0.50619 0.43074 0.17585
 H454 H 0.51807 0.34195 0.31343
 H455 H 0.47501 0.40119 0.13978
 H456 H 0.46380 0.31353 0.31054
 H457 H 0.52082 0.43645 0.20741
 C458 C 0.69131 0.16532 0.31515
 C459 C 0.66713 0.15560 0.32194
 C460 C 0.65013 0.13677 0.28141
 N461 N 0.62684 0.12740 0.29204
 N462 N 0.61114 0.11028 0.25619
 C463 C 0.61811 0.10187 0.20822
 N464 N 0.64142 0.11128 0.19741
 N465 N 0.65714 0.12842 0.23334
 C466 C 0.60083 0.08270 0.16888
 C467 C 0.57687 0.07210 0.18067
 H468 H 0.66016 0.16135 0.35899
 H469 H 0.60706 0.07657 0.13082
 H470 H 0.69775 0.15821 0.27994
 H471 H 0.57069 0.07812 0.21908
 C472 C 0.47799 0.17348 -0.31436
 C473 C 0.49541 0.17234 -0.27983
 C474 C 0.49075 0.15089 -0.24624
 N475 N 0.50882 0.14738 -0.23140
 N476 N 0.50490 0.12782 -0.20236
 C477 C 0.48279 0.11113 -0.18645
 N478 N 0.46474 0.11482 -0.20032
 N479 N 0.46863 0.13430 -0.22995
 C480 C 0.47829 0.08920 -0.15582
 C481 C 0.49421 0.08113 -0.16039
 H482 H 0.51339 0.18648 -0.28114
 H483 H 0.46163 0.07852 -0.13287
 H484 H 0.46092 0.15768 -0.31653
 H485 H 0.50996 0.09088 -0.18776
 C486 C 0.68105 0.51410 -0.35746
 C487 C 0.66956 0.50309 -0.30261
 C488 C 0.64930 0.50466 -0.27983
 N489 N 0.64445 0.50256 -0.21847
 N490 N 0.62638 0.50425 -0.19698
 C491 C 0.61226 0.50779 -0.23615
 N492 N 0.61685 0.50947 -0.29766
 N493 N 0.63512 0.50807 -0.31910
 C494 C 0.59255 0.51013 -0.21248
 C495 C 0.59307 0.51843 -0.15300
 H496 H 0.67643 0.49476 -0.27262
 H497 H 0.57828 0.50690 -0.24339
 H498 H 0.67511 0.52479 -0.38116
 H499 H 0.60849 0.52389 -0.12451
 C500 C 0.83128 0.31968 -0.33636
 C501 C 0.84310 0.31881 -0.28336
 C502 C 0.86266 0.34020 -0.25596
 N503 N 0.87300 0.33866 -0.20315
 N504 N 0.89101 0.35777 -0.17852
 C505 C 0.89938 0.37914 -0.20593
 N506 N 0.88904 0.38067 -0.25867
 N507 N 0.87102 0.36158 -0.28321
 C508 C 0.91956 0.40041 -0.18049
 C509 C 0.93063 0.40044 -0.12545
 H510 H 0.83833 0.30237 -0.26057
 H511 H 0.92601 0.41663 -0.20641
 H512 H 0.83645 0.33693 -0.35524
 H513 H 0.92411 0.38448 -0.09838
 C514 C 0.47371 -0.18347 -0.32529
 C515 C 0.49382 -0.16548 -0.29758
 C516 C 0.49417 -0.14524 -0.26733
 N517 N 0.51279 -0.13053 -0.23192
 N518 N 0.51378 -0.11165 -0.20584
 C519 C 0.49624 -0.10670 -0.21463
 N520 N 0.47765 -0.12136 -0.25025
 N521 N 0.47658 -0.14034 -0.27599
 C522 C 0.49745 -0.08551 -0.18788
 C523 C 0.51371 -0.07223 -0.14243
 H524 H 0.50984 -0.16634 -0.29724
 H525 H 0.48497 -0.08043 -0.20378
 H526 H 0.45715 -0.18385 -0.31992
 H527 H 0.52526 -0.07800 -0.12343
 C528 C 0.33319 0.50138 -0.34489
 C529 C 0.33380 0.49248 -0.28664
 C530 C 0.35559 0.49527 -0.25954
 N531 N 0.35502 0.48584 -0.20327
 N532 N 0.37446 0.48777 -0.17850
 C533 C 0.39522 0.49923 -0.20909
 N534 N 0.39581 0.50874 -0.26527
 N535 N 0.37636 0.50679 -0.29008
 C536 C 0.41676 0.50111 -0.18293
 C537 C 0.41687 0.49074 -0.12675
 H538 H 0.31799 0.48324 -0.25939
 H539 H 0.43284 0.51048 -0.20926
 H540 H 0.34954 0.51170 -0.36954
 H541 H 0.40085 0.48128 -0.10025
 C542 C 1.17590 0.68667 -0.31729
 C543 C 1.16622 0.66222 -0.32072
 C544 C 1.14618 0.64579 -0.28236
 N545 N 1.13700 0.62227 -0.28991
 N546 N 1.11862 0.60705 -0.25663
 C547 C 1.10870 0.61475 -0.21443
 N548 N 1.11793 0.63829 -0.20663
 N549 N 1.13632 0.65353 -0.24000
 C550 C 1.08811 0.59800 -0.17815
 C551 C 1.07757 0.57380 -0.18741
 H552 H 1.17277 0.65434 -0.35300
 H553 H 1.08091 0.60485 -0.14435
 H554 H 1.16836 0.69332 -0.28388
 H555 H 1.08466 0.56697 -0.22156
 C556 C 0.82989 0.51205 -0.31367
 C557 C 0.83931 0.49707 -0.31761
 C558 C 0.85944 0.50060 -0.27985
 N559 N 0.86874 0.48641 -0.28840
 N560 N 0.88727 0.48960 -0.25574
 C561 C 0.89721 0.50711 -0.21321
 N562 N 0.88784 0.52124 -0.20439
 N563 N 0.86931 0.51806 -0.23714
 C564 C 0.91795 0.51108 -0.17766
 C565 C 0.92888 0.49785 -0.18802
 H566 H 0.83262 0.48269 -0.35008
 H567 H 0.92501 0.52498 -0.14344
 H568 H 0.83767 0.52624 -0.28029
 H569 H 0.92200 0.48406 -0.22255
 C570 C 0.50105 0.33306 -0.34302
 C571 C 0.48827 0.33371 -0.29214
 C572 C 0.49203 0.35593 -0.26525
 N573 N 0.48050 0.35542 -0.21283
 N574 N 0.48338 0.37526 -0.18800
 C575 C 0.49785 0.39640 -0.21472
 N576 N 0.50937 0.39694 -0.26725
 N577 N 0.50654 0.37707 -0.29204
 C578 C 0.50075 0.41836 -0.18810
 C579 C 0.49010 0.41837 -0.13254
 H580 H 0.47538 0.31778 -0.26959
 H581 H 0.51123 0.43470 -0.21287
 H582 H 0.51465 0.34977 -0.36113
 H583 H 0.48001 0.40210 -0.10718
 C584 C 0.67739 0.17287 -0.34232
 C585 C 0.67583 0.15384 -0.30945
 C586 C 0.65410 0.13666 -0.27829
 N587 N 0.65463 0.12159 -0.23616
 N588 N 0.63505 0.10579 -0.20796
 C589 C 0.61419 0.10437 -0.22119
 N590 N 0.61363 0.11932 -0.26368
 N591 N 0.63324 0.13525 -0.29156
 C592 C 0.59237 0.08659 -0.19159
 C593 C 0.59254 0.07393 -0.14006
 H594 H 0.69117 0.15192 -0.30426
 H595 H 0.57582 0.08347 -0.21062
 H596 H 0.66265 0.17594 -0.34194
 H597 H 0.60903 0.07791 -0.11880
 C598 C 1.17937 0.49542 -0.32642
 C599 C 1.16122 0.47701 -0.29381
 C600 C 1.14306 0.47994 -0.26219
 N601 N 1.12862 0.46366 -0.22054
 N602 N 1.11178 0.46592 -0.19268
 C603 C 1.10868 0.48448 -0.20584
 N604 N 1.12304 0.50067 -0.24770
 N605 N 1.13997 0.49851 -0.27518
 C606 C 1.08961 0.48679 -0.17775
 C607 C 1.07695 0.47356 -0.12683
 H608 H 1.16056 0.46021 -0.29010
 H609 H 1.08546 0.49945 -0.19780
 H610 H 1.18117 0.51277 -0.32447
 H611 H 1.08184 0.46193 -0.10390
 C612 C 0.47240 0.66375 -0.33223
 C613 C 0.48660 0.66549 -0.28197
 C614 C 0.48865 0.64545 -0.25897
 N615 N 0.50365 0.64889 -0.21193
 N616 N 0.50648 0.63132 -0.19138
 C617 C 0.49441 0.60957 -0.21708
 N618 N 0.47928 0.60604 -0.26399
 N619 N 0.47646 0.62368 -0.28466
 C620 C 0.49781 0.59020 -0.19492
 C621 C 0.51417 0.59394 -0.14900
 H622 H 0.49736 0.68202 -0.25879
 H623 H 0.48746 0.57289 -0.21513
 H624 H 0.46161 0.64645 -0.35230
 H625 H 0.52456 0.61130 -0.12911
 C626 C 0.32734 -0.16458 -0.36434
 C627 C 0.33962 -0.16460 -0.31159
 C628 C 0.36027 -0.14301 -0.28955
 N629 N 0.36586 -0.14053 -0.22865
 N630 N 0.38411 -0.12081 -0.20764
 C631 C 0.39768 -0.10297 -0.24692
 N632 N 0.39241 -0.10563 -0.30808
 N633 N 0.37395 -0.12526 -0.32900
 C634 C 0.41726 -0.08082 -0.22349
 C635 C 0.41655 -0.07316 -0.16407
 H636 H 0.33307 -0.17995 -0.28227
 H637 H 0.43135 -0.06958 -0.25457
 H638 H 0.33318 -0.14780 -0.38710
 H639 H 0.40122 -0.08337 -0.13554
 C640 C 0.47303 -0.18248 0.34724
 C641 C 0.48740 -0.16940 0.29820
 C642 C 0.48715 -0.14873 0.27244
 N643 N 0.50160 -0.13683 0.22476
 N644 N 0.50212 -0.11775 0.20161
 C645 C 0.48822 -0.10979 0.22525
 N646 N 0.47369 -0.12172 0.27287
 N647 N 0.47317 -0.14085 0.29609
 C648 C 0.48908 -0.08841 0.20041
 C649 C 0.50435 -0.07565 0.15264
 H650 H 0.49930 -0.17430 0.27743
 H651 H 0.47781 -0.08250 0.22037
 H652 H 0.46017 -0.17816 0.36451
 H653 H 0.51557 -0.08164 0.13280
 C654 C 0.31563 0.47455 0.32680
 C655 C 0.33622 0.49408 0.30621
 C656 C 0.35434 0.49186 0.27225
 N657 N 0.37614 0.51080 0.26651
 N658 N 0.39281 0.50912 0.23593
 C659 C 0.38821 0.48847 0.20948
 N660 N 0.36633 0.46958 0.21462
 N661 N 0.34970 0.47121 0.24566
 C662 C 0.40648 0.48641 0.17568
 C663 C 0.43013 0.50300 0.18226
 H664 H 0.33976 0.51162 0.31792
 H665 H 0.40129 0.47104 0.14703
 H666 H 0.31332 0.45711 0.32073
 H667 H 0.43551 0.51757 0.21402
 C668 C 1.16253 0.68225 0.34362
 C669 C 1.16159 0.67562 0.28200
 C670 C 1.14041 0.65572 0.25545
 N671 N 1.13820 0.65267 0.19327
 N672 N 1.11933 0.63432 0.16891
 C673 C 1.10210 0.61827 0.20597
 N674 N 1.10439 0.62128 0.26810
 N675 N 1.12315 0.63970 0.29240
 C676 C 1.08158 0.59744 0.18044
 C677 C 1.07543 0.59531 0.11820
 H678 H 1.17659 0.68544 0.25214
 H679 H 1.07065 0.58342 0.21221
 H680 H 1.14668 0.67391 0.37122
 H681 H 1.08525 0.60977 0.08657
 C682 C 0.49513 0.17243 0.35490
 C683 C 0.48437 0.16190 0.29913
 C684 C 0.48573 0.14191 0.27289
 N685 N 0.47531 0.13272 0.21788
 N686 N 0.47612 0.11447 0.19363
 C687 C 0.48738 0.10471 0.22351
 N688 N 0.49783 0.11391 0.27854
 N689 N 0.49702 0.13218 0.30281
 C690 C 0.48817 0.08438 0.19741
 C691 C 0.47753 0.07442 0.14123
 H692 H 0.47491 0.16857 0.27291
 H693 H 0.49714 0.07702 0.22314
 H694 H 0.50574 0.16637 0.37822
 H695 H 0.46860 0.08180 0.11533
 C696 C 0.68125 0.49969 0.32675
 C697 C 0.68223 0.51237 0.27387
 C698 C 0.66136 0.51233 0.24937
 N699 N 0.66327 0.52546 0.19888
 N700 N 0.64473 0.52641 0.17770
 C701 C 0.62362 0.51429 0.20636
 N702 N 0.62168 0.50107 0.25666
 N703 N 0.64022 0.50013 0.27783
 C704 C 0.60314 0.51560 0.18462
 C705 C 0.60422 0.52915 0.13381
 H706 H 0.69866 0.52306 0.25016
 H707 H 0.58681 0.50577 0.20972
 H708 H 0.66427 0.48796 0.34697
 H709 H 0.62038 0.53885 0.10803
 C710 C 0.84394 0.30812 0.33375
 C711 C 0.84587 0.32911 0.31250
 C712 C 0.86646 0.34675 0.27838
 N713 N 0.86956 0.36862 0.26971
 N714 N 0.88796 0.38476 0.23821
 C715 C 0.90384 0.37956 0.21378
 N716 N 0.90065 0.35762 0.22202
 N717 N 0.88233 0.34151 0.25392
 C718 C 0.92411 0.39716 0.17850
 C719 C 0.93086 0.42095 0.17984
 H720 H 0.83218 0.33319 0.32288
 H721 H 0.93439 0.39138 0.15249
 H722 H 0.85870 0.30522 0.32897
 H723 H 0.92149 0.42702 0.20871
   
