data_POSCAR
  _audit_creation_date              2014-09-24
  _audit_creation_method            'ToBaCCo'
  _symmetry_space_group_name_H-M    'P1'
  _symmetry_Int_Tables_number       1
  _symmetry_cell_setting            triclinic
  loop_
  _symmetry_equiv_pos_as_xyz
 x,y,z
_cell_length_a 31.6918
_cell_length_b 31.5303
_cell_length_c 31.5269
_cell_angle_alpha 89.983900
_cell_angle_beta 89.902000
_cell_angle_gamma 89.893400
loop_
  _atom_site_label
  _atom_site_type_symbol
  _atom_site_fract_x
  _atom_site_fract_y
  _atom_site_fract_z
C1 C 0.16781 1.22354 0.22334
 C2 C 0.15003 1.25934 0.20385
 C3 C 0.16879 1.27798 0.16770
 C4 C 0.20482 1.25813 0.15012
 C5 C 0.22294 1.22234 0.16935
 C6 C 0.20455 1.20514 0.20620
 C7 C 0.14853 1.20520 0.25899
 C8 C 0.16600 1.16901 0.27883
 C9 C 0.20217 1.15032 0.26033
 C10 C 0.22165 1.16826 0.22463
 C11 C 0.25724 1.14898 0.20635
 C12 C 0.27666 1.16644 0.17008
 C13 C 0.25851 1.20274 0.15142
 H14 H 0.12091 1.27226 0.21654
 H15 H 0.21836 1.26932 0.12068
 H16 H 0.11914 1.21871 0.27010
 H17 H 0.21483 1.12108 0.27322
 H18 H 0.26870 1.11966 0.21989
 H19 H 0.27174 1.21540 0.12234
 C20 C 0.83347 0.77617 0.22300
 C21 C 0.85282 0.74084 0.20405
 C22 C 0.83495 0.72101 0.16812
 C23 C 0.79845 0.73940 0.15010
 C24 C 0.77892 0.77481 0.16859
 C25 C 0.79630 0.79307 0.20536
 C26 C 0.85164 0.79560 0.25859
 C27 C 0.83256 0.83124 0.27798
 C28 C 0.79606 0.84852 0.25889
 C29 C 0.77774 0.82955 0.22318
 C30 C 0.74181 0.84736 0.20428
 C31 C 0.72349 0.82896 0.16801
 C32 C 0.74301 0.79300 0.14997
 H33 H 0.88249 0.72986 0.21695
 H34 H 0.78552 0.72661 0.12099
 H35 H 0.88137 0.78334 0.27017
 H36 H 0.78224 0.87746 0.27124
 H37 H 0.72853 0.87623 0.21739
 H38 H 0.73136 0.77969 0.12066
 C39 C 0.83038 1.22380 -0.22315
 C40 C 0.84921 1.25937 -0.20440
 C41 C 0.83189 1.27811 -0.16770
 C42 C 0.79611 1.25924 -0.14899
 C43 C 0.77689 1.22371 -0.16744
 C44 C 0.79400 1.20600 -0.20473
 C45 C 0.84822 1.20506 -0.25932
 C46 C 0.82991 1.16891 -0.27829
 C47 C 0.79422 1.15069 -0.25847
 C48 C 0.77599 1.16925 -0.22237
 C49 C 0.74072 1.15073 -0.20288
 C50 C 0.72248 1.16874 -0.16626
 C51 C 0.74161 1.20483 -0.14829
 H52 H 0.87799 1.27200 -0.21799
 H53 H 0.78369 1.27117 -0.11933
 H54 H 0.87711 1.21823 -0.27215
 H55 H 0.78106 1.12125 -0.26999
 H56 H 0.72779 1.12174 -0.21590
 H57 H 0.73012 1.21778 -0.11870
 C58 C 0.16837 0.77759 -0.22408
 C59 C 0.15013 0.74163 -0.20537
 C60 C 0.16875 0.72192 -0.16971
 C61 C 0.20498 0.74088 -0.15186
 C62 C 0.22341 0.77691 -0.17018
 C63 C 0.20521 0.79520 -0.20655
 C64 C 0.14947 0.79696 -0.25934
 C65 C 0.16718 0.83341 -0.27807
 C66 C 0.20336 0.85138 -0.25938
 C67 C 0.22262 0.83236 -0.22412
 C68 C 0.25826 0.85081 -0.20536
 C69 C 0.27750 0.83224 -0.16958
 C70 C 0.25908 0.79566 -0.15181
 H71 H 0.12064 0.73012 -0.21814
 H72 H 0.21846 0.72819 -0.12294
 H73 H 0.12041 0.78397 -0.27185
 H74 H 0.21611 0.88089 -0.27123
 H75 H 0.26996 0.88038 -0.21812
 H76 H 0.27206 0.78217 -0.12303
 C77 C 0.56398 1.05699 -0.01381
 H78 H 0.56448 1.05834 0.02048
 C79 C 0.59270 1.08084 -0.03734
 H80 H 0.61532 1.10051 -0.02082
 C81 C 0.53509 1.02808 -0.07664
 H82 H 0.51338 1.00652 -0.09178
 C83 C 0.56335 1.05135 -0.10147
 H84 H 0.56264 1.04665 -0.13534
 N85 N 0.53568 1.03155 -0.03367
 C86 C 0.43601 1.01333 0.05991
 H87 H 0.43545 0.97905 0.06134
 C88 C 0.40722 1.03695 0.08368
 H89 H 0.38448 1.02051 0.10335
 C90 C 0.46510 1.07605 0.03083
 H91 H 0.48689 1.09111 0.00921
 C92 C 0.43676 1.10097 0.05400
 H93 H 0.43751 1.13482 0.04918
 Zn94 Zn 0.50003 0.99826 0.00106
 N95 N 0.46442 1.03309 0.03440
 C96 C 0.53482 0.96838 0.07878
 N97 N 0.53550 0.96481 0.03581
 C98 C 0.56384 0.93924 0.01597
 C99 C 0.59260 0.91542 0.03950
 C100 C 0.56314 0.94517 0.10362
 C101 C 0.43629 0.98357 -0.05786
 C102 C 0.40761 0.96014 -0.08175
 C103 C 0.43687 0.89591 -0.05210
 C104 C 0.46511 0.92065 -0.02882
 N105 N 0.46452 0.96362 -0.03232
 H106 H 0.51306 0.99003 0.09390
 H107 H 0.56439 0.93779 -0.01832
 H108 H 0.61530 0.89569 0.02298
 H109 H 0.56239 0.94999 0.13747
 H110 H 0.43580 1.01785 -0.05926
 H111 H 0.38504 0.97673 -0.10150
 H112 H 0.43760 0.86205 -0.04738
 H113 H 0.48679 0.90545 -0.00720
 C114 C 0.40740 1.08152 0.08136
 C115 C 0.59257 1.07868 -0.08192
 C116 C 0.40768 0.91557 -0.07948
 C117 C 0.59248 0.91779 0.08406
 C118 C -0.01264 0.56430 1.05826
 H119 H 0.02144 0.56472 1.06017
 C120 C -0.03642 0.59300 1.08204
 H121 H -0.02030 0.61553 1.10222
 C122 C -0.07468 0.53560 1.02808
 H123 H -0.08940 0.51399 1.00607
 C124 C -0.09973 0.56387 1.05121
 H125 H -0.13333 0.56326 1.04593
 N126 N -0.03199 0.53607 1.03226
 C127 C 0.06179 0.43628 1.01490
 H128 H 0.06388 0.43589 0.98064
 C129 C 0.08525 0.40743 1.03876
 H130 H 0.10536 0.38484 1.02253
 C131 C 0.03143 0.46497 1.07728
 H132 H 0.00945 0.48661 1.09209
 C133 C 0.05422 0.43654 1.10243
 H134 H 0.04874 0.43709 1.13619
 Zn135 Zn 0.00297 0.50025 0.99925
 N136 N 0.03582 0.46454 1.03438
 C137 C 0.08050 0.53553 0.97026
 N138 N 0.03781 0.53591 0.96609
 C139 C 0.01829 0.56405 0.94003
 C140 C 0.04189 0.59280 0.91624
 C141 C 0.10538 0.56388 0.94714
 C142 C -0.05561 0.43628 0.98415
 C143 C -0.07942 0.40761 0.96057
 C144 C -0.04925 0.43671 0.89652
 C145 C -0.02605 0.46495 0.92140
 N146 N -0.02989 0.46448 0.96435
 H147 H 0.09534 0.51395 0.99229
 H148 H -0.01579 0.56438 0.93810
 H149 H 0.02564 0.61526 0.89601
 H150 H 0.13899 0.56332 0.95239
 H151 H -0.05729 0.43589 1.01843
 H152 H -0.09939 0.38514 0.97705
 H153 H -0.04434 0.43739 0.86268
 H154 H -0.00430 0.48657 0.90632
 C155 C 0.08206 0.40735 1.08328
 C156 C -0.08072 0.59295 1.07917
 C157 C -0.07688 0.40763 0.91601
 C158 C 0.08618 0.59297 0.91922
 C159 C 1.05512 -0.01384 0.56368
 H160 H 1.05676 0.02042 0.56413
 C161 C 1.07880 -0.03753 0.59246
 H162 H 1.09863 -0.02116 0.61508
 C163 C 1.02581 -0.07646 0.53474
 H164 H 1.00420 -0.09144 0.51297
 C165 C 1.04889 -0.10145 0.56308
 H166 H 1.04402 -0.13527 0.56232
 N167 N 1.02961 -0.03352 0.53529
 C168 C 1.01288 0.06064 0.43550
 H169 H 0.97880 0.06273 0.43493
 C170 C 1.03682 0.08431 0.40690
 H171 H 1.02083 0.10458 0.38430
 C172 C 1.07474 0.03010 0.46445
 H173 H 1.08934 0.00798 0.48612
 C174 C 1.09996 0.05310 0.43628
 H175 H 1.13354 0.04763 0.43703
 Zn176 Zn 0.99692 0.00152 0.49934
 N177 N 1.03207 0.03449 0.46379
 C178 C 0.96815 0.07952 0.53464
 N179 N 0.96382 0.03663 0.53491
 C180 C 0.93771 0.01710 0.56296
 C181 C 0.91410 0.04090 0.59177
 C182 C 0.94521 0.10460 0.56306
 C183 C 0.98205 -0.05761 0.43541
 C184 C 0.95864 -0.08145 0.40662
 C185 C 0.89493 -0.05048 0.43520
 C186 C 0.91964 -0.02730 0.46360
 N187 N 0.96234 -0.03151 0.46343
 H188 H 0.99022 0.09436 0.51315
 H189 H 0.93566 -0.01715 0.56321
 H190 H 0.89389 0.02463 0.61420
 H191 H 0.95064 0.13835 0.56264
 H192 H 1.01614 -0.05957 0.43524
 H193 H 0.97504 -0.10176 0.38430
 H194 H 0.86131 -0.04524 0.43565
 H195 H 0.90464 -0.00524 0.48508
 C196 C 1.08111 0.08116 0.40710
 C197 C 1.07634 -0.08208 0.59234
 C198 C 0.91433 -0.07849 0.40629
 C199 C 0.91729 0.08540 0.59208
 C200 C 0.14800 0.31313 1.14672
 C201 C 0.11083 0.29777 1.11964
 C202 C 0.08926 0.32924 1.09984
 C203 C 0.10636 0.37395 1.10834
 C204 C 0.10701 0.37801 1.15717
 C205 C 0.12881 0.34647 1.17702
 C206 C 0.17521 0.34031 1.11635
 C207 C 0.15340 0.37171 1.09635
 H208 H 0.10207 0.26464 1.11635
 H209 H 0.06210 0.32288 1.07988
 H210 H 0.09529 0.40494 1.17494
 H211 H 0.13458 0.34719 1.21095
 H212 H 0.20927 0.33830 1.11363
 H213 H 0.16893 0.39487 1.07621
 C214 C -0.14410 0.68620 1.14671
 C215 C -0.17412 0.65287 1.12745
 C216 C -0.15427 0.62166 1.10512
 C217 C -0.10573 0.62600 1.10405
 C218 C -0.09769 0.67092 1.08711
 C219 C -0.11749 0.70208 1.10920
 C220 C -0.11354 0.65894 1.17358
 C221 C -0.09354 0.62786 1.15124
 H222 H -0.20782 0.65185 1.13362
 H223 H -0.17182 0.59471 1.09335
 H224 H -0.07805 0.67765 1.05967
 H225 H -0.11453 0.73530 1.10061
 H226 H -0.11063 0.66069 1.20779
 H227 H -0.07324 0.60468 1.16650
 C228 C -0.14507 0.31467 0.85376
 C229 C -0.17143 0.34243 0.88425
 C230 C -0.14889 0.37349 0.90379
 C231 C -0.10192 0.37465 0.89130
 C232 C -0.08556 0.32959 0.89988
 C233 C -0.10795 0.29853 0.88047
 C234 C -0.12552 0.34721 0.82303
 C235 C -0.10296 0.37841 0.84243
 H236 H -0.20542 0.34061 0.88771
 H237 H -0.16375 0.39689 0.92423
 H238 H -0.05829 0.32270 0.91953
 H239 H -0.09984 0.26521 0.88372
 H240 H -0.13139 0.34755 0.78912
 H241 H -0.09062 0.40477 0.82429
 C242 C 0.14847 0.68683 0.85179
 C243 C 0.17897 0.65418 0.87167
 C244 C 0.15952 0.62278 0.89401
 C245 C 0.11089 0.62624 0.89444
 C246 C 0.10171 0.67113 0.91095
 C247 C 0.12109 0.70248 0.88885
 C248 C 0.11884 0.65883 0.82477
 C249 C 0.09924 0.62757 0.84710
 H250 H 0.21276 0.65370 0.86590
 H251 H 0.17753 0.59629 0.90627
 H252 H 0.08165 0.67770 0.93813
 H253 H 0.11734 0.73570 0.89718
 H254 H 0.11626 0.66039 0.79051
 H255 H 0.07956 0.60396 0.83178
 C256 C 1.14490 0.14794 0.31372
 C257 C 1.17480 0.12852 0.34715
 C258 C 1.15482 0.10644 0.37841
 C259 C 1.10628 0.10575 0.37402
 C260 C 1.09431 0.15304 0.37200
 C261 C 1.11443 0.17513 0.34086
 C262 C 1.11812 0.11061 0.29794
 C263 C 1.09820 0.08877 0.32915
 H264 H 1.20853 0.13437 0.34814
 H265 H 1.17230 0.09456 0.40539
 H266 H 1.07407 0.16852 0.39512
 H267 H 1.11171 0.20936 0.33905
 H268 H 1.11513 0.10196 0.26474
 H269 H 1.07844 0.06148 0.32249
 C270 C 1.14430 -0.14479 0.68540
 C271 C 1.10700 -0.11817 0.70148
 C272 C 1.08469 -0.09859 0.67039
 C273 C 1.10130 -0.10694 0.62536
 C274 C 1.14821 -0.09446 0.62682
 C275 C 1.17067 -0.11415 0.65791
 C276 C 1.12501 -0.17534 0.65261
 C277 C 1.10254 -0.15578 0.62139
 H278 H 1.09872 -0.11508 0.73477
 H279 H 1.05733 -0.07896 0.67723
 H280 H 1.16312 -0.07393 0.60357
 H281 H 1.20464 -0.11073 0.65984
 H282 H 1.13095 -0.20926 0.65220
 H283 H 1.09037 -0.17379 0.59489
 C284 C 0.85259 -0.14682 0.31288
 C285 C 0.87993 -0.10995 0.29692
 C286 C 0.89913 -0.08753 0.32812
 C287 C 0.88982 -0.10355 0.37315
 C288 C 0.84117 -0.10390 0.37641
 C289 C 0.82191 -0.12656 0.34518
 C290 C 0.88218 -0.17355 0.34131
 C291 C 0.90160 -0.15091 0.37241
 H292 H 0.88378 -0.10197 0.26362
 H293 H 0.91914 -0.06044 0.32133
 H294 H 0.82302 -0.09134 0.40268
 H295 H 0.78814 -0.13232 0.34562
 H296 H 0.88489 -0.20782 0.34010
 H297 H 0.92125 -0.16598 0.39625
 C298 C 0.85094 0.14833 0.68646
 C299 C 0.82380 0.11853 0.65872
 C300 C 0.84576 0.09871 0.62727
 C301 C 0.89288 0.11033 0.62554
 C302 C 0.89250 0.15920 0.62203
 C303 C 0.87054 0.17887 0.65361
 C304 C 0.88787 0.12076 0.70181
 C305 C 0.90959 0.10116 0.67029
 H306 H 0.78972 0.11604 0.66051
 H307 H 0.83032 0.07894 0.60378
 H308 H 0.90452 0.17720 0.59540
 H309 H 0.86489 0.21284 0.65318
 H310 H 0.89637 0.11704 0.73497
 H311 H 0.93662 0.08094 0.67664
 C312 C 0.31348 1.14436 0.14798
 C313 C 0.34698 1.17476 0.12985
 C314 C 0.37852 1.15511 0.10791
 C315 C 0.37409 1.10635 0.10597
 C316 C 0.37109 1.09325 0.15292
 C317 C 0.33968 1.11301 0.17488
 C318 C 0.29836 1.11842 0.10977
 C319 C 0.32975 1.09876 0.08798
 H320 H 0.34752 1.20859 0.13621
 H321 H 0.40549 1.17292 0.09668
 H322 H 0.39358 1.07230 0.16830
 H323 H 0.33677 1.10918 0.20893
 H324 H 0.26548 1.11581 0.10054
 H325 H 0.32358 1.07955 0.06010
 C326 C 0.68588 1.14618 -0.14440
 C327 C 0.65922 1.17279 -0.11314
 C328 C 0.62803 1.15052 -0.09350
 C329 C 0.62567 1.10357 -0.10664
 C330 C 0.62139 1.10551 -0.15542
 C331 C 0.65271 1.12777 -0.17494
 C332 C 0.70140 1.10808 -0.11844
 C333 C 0.67021 1.08598 -0.09890
 H334 H 0.66173 1.20685 -0.10927
 H335 H 0.60529 1.16567 -0.07260
 H336 H 0.59464 1.09405 -0.17335
 H337 H 0.65218 1.13419 -0.20877
 H338 H 0.73439 1.09915 -0.11573
 H339 H 0.67667 1.05813 -0.07969
 C340 C 0.31421 0.85367 -0.14696
 C341 C 0.34703 0.82286 -0.12814
 C342 C 0.37840 0.84216 -0.10586
 C343 C 0.37452 0.89101 -0.10433
 C344 C 0.37250 0.90383 -0.15140
 C345 C 0.34126 0.88440 -0.17368
 C346 C 0.29873 0.88008 -0.10914
 C347 C 0.32996 0.89940 -0.08702
 H348 H 0.34734 0.78900 -0.13431
 H349 H 0.40493 0.82400 -0.09409
 H350 H 0.39546 0.92438 -0.16658
 H351 H 0.33889 0.88807 -0.20778
 H352 H 0.26572 0.88323 -0.10038
 H353 H 0.32353 0.91885 -0.05934
 C354 C 0.68656 0.85114 0.14634
 C355 C 0.70164 0.88911 0.11998
 C356 C 0.67020 0.91093 0.10053
 C357 C 0.62584 0.89320 0.10874
 C358 C 0.62852 0.84616 0.09593
 C359 C 0.65998 0.82418 0.11548
 C360 C 0.65338 0.86962 0.17701
 C361 C 0.62178 0.89160 0.15757
 H362 H 0.73455 0.89818 0.11695
 H363 H 0.67635 0.93868 0.08108
 H364 H 0.60582 0.83077 0.07531
 H365 H 0.66276 0.79010 0.11185
 H366 H 0.65305 0.86346 0.21088
 H367 H 0.59502 0.90309 0.17562
   
