data_POSCAR
  _audit_creation_date              2014-09-24
  _audit_creation_method            'ToBaCCo'
  _symmetry_space_group_name_H-M    'P1'
  _symmetry_Int_Tables_number       1
  _symmetry_cell_setting            triclinic
  loop_
  _symmetry_equiv_pos_as_xyz
 x,y,z
_cell_length_a 26.5403
_cell_length_b 26.5956
_cell_length_c 43.6572
_cell_angle_alpha 89.071200
_cell_angle_beta 92.464900
_cell_angle_gamma 89.343900
loop_
  _atom_site_label
  _atom_site_type_symbol
  _atom_site_fract_x
  _atom_site_fract_y
  _atom_site_fract_z
O1 O -0.04390 0.45166 1.02633
 O2 O -0.03579 0.55025 0.96648
 O3 O -0.03746 0.45242 0.96712
 O4 O -0.04398 0.54992 1.02568
 O5 O 0.03888 0.54728 1.03228
 O6 O 0.04554 0.45132 0.97258
 O7 O 0.04698 0.54955 0.97316
 O8 O 0.03909 0.44946 1.03181
 Cu9 Cu -0.04859 0.50127 0.99583
 Cu10 Cu 0.05093 0.49926 1.00302
 C11 C -0.00369 0.43333 1.03911
 C12 C 0.00703 0.56719 0.95970
 C13 C 0.00509 0.43506 0.95985
 C14 C -0.00371 0.56530 1.03903
 O15 O 0.55219 -0.03768 0.53166
 O16 O 0.44961 -0.04145 0.47205
 O17 O 0.54799 -0.04162 0.47211
 O18 O 0.45392 -0.03952 0.53150
 O19 O 0.45317 0.04344 0.52993
 O20 O 0.54517 0.04124 0.46902
 O21 O 0.44719 0.04147 0.47030
 O22 O 0.55128 0.04509 0.52853
 Cu23 Cu 0.50115 -0.04837 0.50207
 Cu24 Cu 0.49903 0.05111 0.49923
 C25 C 0.56973 0.00443 0.54014
 C26 C 0.43052 -0.00053 0.46119
 C27 C 0.56266 -0.00063 0.46035
 C28 C 0.43738 0.00223 0.54088
 C29 C 0.08542 0.00114 0.26354
 H30 H 0.08767 0.00467 0.23892
 C31 C 0.12939 0.00177 0.28229
 H32 H 0.16551 0.00526 0.27188
 C33 C 0.03548 -0.00840 0.30691
 H34 H -0.00117 -0.01174 0.31650
 C35 C 0.07844 -0.00803 0.32649
 H36 H 0.07425 -0.01092 0.35101
 N37 N 0.03972 -0.00469 0.27602
 C38 C -0.05945 -0.07631 0.20784
 H39 H -0.09190 -0.05129 0.20766
 C40 C -0.05997 -0.11846 0.18915
 H41 H -0.09287 -0.12552 0.17438
 C42 C 0.02332 -0.09685 0.22688
 H43 H 0.05555 -0.08872 0.24181
 C44 C 0.02455 -0.13913 0.20841
 H45 H 0.05784 -0.16313 0.20934
 Zn46 Zn -0.01836 -0.00646 0.24926
 N47 N -0.01784 -0.06581 0.22579
 C48 C -0.02081 0.04612 0.19209
 N49 N -0.01741 0.05104 0.22307
 C50 C -0.01194 0.09694 0.23602
 C51 C -0.01123 0.14040 0.21764
 C52 C -0.02031 0.08853 0.17287
 C53 C -0.08729 -0.04797 0.28922
 C54 C -0.12902 -0.04893 0.30764
 C55 C -0.15049 0.03554 0.29009
 C56 C -0.10863 0.03472 0.27181
 N57 N -0.07739 -0.00622 0.27221
 H58 H -0.02378 0.00933 0.18214
 H59 H -0.00855 0.09975 0.26072
 H60 H -0.00789 0.17666 0.22841
 H61 H -0.02276 0.08376 0.14827
 H62 H -0.06209 -0.08021 0.28889
 H63 H -0.13557 -0.08196 0.32168
 H64 H -0.17462 0.06868 0.28979
 H65 H -0.10092 0.06711 0.25764
 C66 C -0.01723 -0.15004 0.18896
 C67 C 0.12625 -0.00331 0.31423
 C68 C -0.16077 -0.00645 0.30857
 C69 C -0.01579 0.13651 0.18560
 C70 C 0.00904 0.10740 0.76377
 H71 H 0.00486 0.11148 0.73909
 C72 C 0.00847 0.14996 0.78210
 H73 H 0.00446 0.18680 0.77130
 C74 C 0.01985 0.05427 0.80770
 H75 H 0.02362 0.01694 0.81767
 C76 C 0.01950 0.09574 0.82688
 H77 H 0.02279 0.08970 0.85147
 N78 N 0.01539 0.06079 0.77674
 C79 C 0.08493 -0.03630 0.71066
 H80 H 0.06008 -0.06822 0.71148
 C81 C 0.12672 -0.03761 0.69230
 H82 H 0.13370 -0.07058 0.67881
 C83 C 0.10551 0.04583 0.72692
 H84 H 0.09752 0.07809 0.74066
 C85 C 0.14735 0.04634 0.70860
 H86 H 0.17120 0.07911 0.70840
 Zn87 Zn 0.01635 0.00458 0.75066
 N88 N 0.07478 0.00524 0.72719
 C89 C -0.03812 0.00805 0.69334
 N90 N -0.04226 0.00821 0.72429
 C91 C -0.08806 0.01193 0.73697
 C92 C -0.13220 0.01353 0.71834
 C93 C -0.08122 0.01005 0.67387
 C94 C 0.06040 -0.06780 0.79119
 C95 C 0.06292 -0.11112 0.80974
 C96 C -0.02251 -0.12987 0.79278
 C97 C -0.02317 -0.08652 0.77432
 N98 N 0.01754 -0.05593 0.77431
 H99 H -0.00143 0.00615 0.68364
 H100 H -0.09025 0.01308 0.76164
 H101 H -0.16839 0.01609 0.72880
 H102 H -0.07722 0.00887 0.64931
 H103 H 0.09256 -0.04324 0.79041
 H104 H 0.09753 -0.11987 0.82286
 H105 H -0.05610 -0.15252 0.79321
 H106 H -0.05659 -0.07717 0.76037
 C107 C 0.15816 0.00436 0.69086
 C108 C 0.01409 0.14443 0.81413
 C109 C 0.02081 -0.14258 0.81105
 C110 C -0.12905 0.01233 0.68634
 C111 C -0.01058 -0.31705 0.10545
 C112 C 0.03437 -0.34452 0.10199
 C113 C 0.03650 -0.38292 0.08059
 C114 C -0.00638 -0.39508 0.06234
 C115 C -0.05157 -0.36831 0.06616
 C116 C -0.05360 -0.32962 0.08738
 C117 C -0.01223 -0.27478 0.12732
 C118 C -0.05539 -0.26561 0.14411
 C119 C -0.05710 -0.22517 0.16415
 C120 C -0.01555 -0.19331 0.16802
 C121 C 0.02765 -0.20260 0.15142
 C122 C 0.02924 -0.24271 0.13123
 H123 H 0.07179 -0.40310 0.07836
 H124 H -0.08521 -0.37662 0.05233
 H125 H -0.09067 -0.21918 0.17692
 H126 H 0.05992 -0.17814 0.15358
 H127 H -0.08863 -0.30880 0.08911
 H128 H -0.08769 -0.29000 0.14203
 H129 H 0.06796 -0.33650 0.11592
 H130 H 0.06265 -0.24797 0.11821
 C131 C -0.01137 0.31142 0.10485
 C132 C 0.03536 0.33154 0.09739
 C133 C 0.03776 0.37153 0.07638
 C134 C -0.00652 0.39237 0.06234
 C135 C -0.05332 0.37279 0.07014
 C136 C -0.05571 0.33273 0.09115
 C137 C -0.01366 0.26750 0.12617
 C138 C -0.04724 0.22816 0.11985
 C139 C -0.04818 0.18593 0.13926
 C140 C -0.01560 0.18206 0.16547
 C141 C 0.01752 0.22170 0.17202
 C142 C 0.01852 0.26392 0.15257
 H143 H 0.07443 0.38566 0.07084
 H144 H -0.08814 0.38810 0.05981
 H145 H -0.07457 0.15631 0.13379
 H146 H 0.04336 0.21966 0.19189
 H147 H -0.09231 0.31848 0.09674
 H148 H -0.07213 0.22954 0.09954
 H149 H 0.07021 0.31555 0.10724
 H150 H 0.04446 0.29386 0.15822
 C151 C 0.32294 0.00379 0.60792
 C152 C 0.33533 -0.04085 0.59298
 C153 C 0.37302 -0.04145 0.57162
 C154 C 0.39888 0.00270 0.56441
 C155 C 0.38681 0.04730 0.57940
 C156 C 0.34946 0.04778 0.60104
 C157 C 0.28177 0.00458 0.63004
 C158 C 0.24929 0.04658 0.63143
 C159 C 0.20971 0.04676 0.65152
 C160 C 0.20134 0.00476 0.67045
 C161 C 0.23383 -0.03712 0.66928
 C162 C 0.27379 -0.03710 0.64944
 H163 H 0.38119 -0.07635 0.56029
 H164 H 0.40633 0.08185 0.57448
 H165 H 0.18478 0.07927 0.65170
 H166 H 0.22856 -0.06972 0.68392
 H167 H 0.34156 0.08263 0.61248
 H168 H 0.25364 0.07894 0.61646
 H169 H 0.31514 -0.07522 0.59724
 H170 H 0.29860 -0.06969 0.64944
 C171 C -0.30678 0.00958 0.60478
 C172 C -0.32838 -0.03662 0.59681
 C173 C -0.36937 -0.03840 0.57566
 C174 C -0.39002 0.00611 0.56211
 C175 C -0.36879 0.05243 0.57067
 C176 C -0.32757 0.05406 0.59162
 C177 C -0.26193 0.01130 0.62619
 C178 C -0.22106 0.04215 0.61953
 C179 C -0.17811 0.04277 0.63916
 C180 C -0.17528 0.01285 0.66601
 C181 C -0.21645 -0.01745 0.67293
 C182 C -0.25925 -0.01841 0.65313
 H183 H -0.38453 -0.07481 0.56978
 H184 H -0.38355 0.08761 0.56095
 H185 H -0.14711 0.06678 0.63340
 H186 H -0.21510 -0.04119 0.69335
 H187 H -0.31201 0.09023 0.59764
 H188 H -0.22193 0.06510 0.59879
 H189 H -0.31279 -0.07153 0.60642
 H190 H -0.29037 -0.04223 0.65894
 C191 C 0.01625 -0.31429 0.89428
 C192 C 0.05987 -0.33280 0.91013
 C193 C 0.05699 -0.37250 0.93133
 C194 C 0.01019 -0.39415 0.93754
 C195 C -0.03343 -0.37557 0.92139
 C196 C -0.03033 -0.33634 0.89989
 C197 C 0.01908 -0.27128 0.87247
 C198 C -0.00613 -0.27256 0.84357
 C199 C -0.00467 -0.23133 0.82339
 C200 C 0.02148 -0.18757 0.83183
 C201 C 0.04706 -0.18665 0.86072
 C202 C 0.04611 -0.22815 0.88073
 H203 H 0.09150 -0.38564 0.94315
 H204 H -0.07016 -0.39113 0.92539
 H205 H -0.02392 -0.23386 0.80111
 H206 H 0.06678 -0.15337 0.86828
 H207 H -0.06457 -0.32242 0.88811
 H208 H -0.02671 -0.30566 0.83653
 H209 H 0.09629 -0.31666 0.90601
 H210 H 0.06537 -0.22602 0.90304
 C211 C 0.01120 0.31579 0.89447
 C212 C 0.05583 0.33545 0.90774
 C213 C 0.05394 0.37465 0.92863
 C214 C 0.00736 0.39505 0.93672
 C215 C -0.03721 0.37590 0.92310
 C216 C -0.03531 0.33673 0.90222
 C217 C 0.01299 0.27272 0.87328
 C218 C -0.01988 0.27095 0.84720
 C219 C -0.01927 0.22959 0.82786
 C220 C 0.01417 0.18901 0.83419
 C221 C 0.04741 0.19106 0.86008
 C222 C 0.04682 0.23242 0.87939
 H223 H 0.08898 0.38867 0.93863
 H224 H -0.07372 0.39068 0.92888
 H225 H -0.04563 0.22896 0.80824
 H226 H 0.07406 0.16070 0.86538
 H227 H -0.07038 0.32200 0.89271
 H228 H -0.04604 0.30165 0.84170
 H229 H 0.09227 0.32057 0.90191
 H230 H 0.07225 0.23238 0.89947
 C231 C -0.32389 -0.00326 0.39269
 C232 C -0.35123 0.04118 0.39797
 C233 C -0.38825 0.04200 0.41979
 C234 C -0.39914 -0.00170 0.43664
 C235 C -0.37248 -0.04633 0.43102
 C236 C -0.33515 -0.04705 0.40941
 C237 C -0.28302 -0.00368 0.37039
 C238 C -0.27471 -0.04599 0.35225
 C239 C -0.23520 -0.04688 0.33207
 C240 C -0.20346 -0.00531 0.32936
 C241 C -0.21209 0.03721 0.34716
 C242 C -0.25125 0.03795 0.36752
 H243 H -0.40841 0.07688 0.42343
 H244 H -0.37978 -0.08057 0.44376
 H245 H -0.22973 -0.07991 0.31835
 H246 H -0.18771 0.06949 0.34587
 H247 H -0.31433 -0.08170 0.40633
 H248 H -0.29896 -0.07835 0.35347
 H249 H -0.34420 0.07536 0.38513
 H250 H -0.25587 0.07075 0.38154
 C251 C 0.30460 -0.00343 0.39564
 C252 C 0.32613 -0.04849 0.40767
 C253 C 0.36744 -0.04763 0.42862
 C254 C 0.38807 -0.00167 0.43806
 C255 C 0.36693 0.04336 0.42572
 C256 C 0.32570 0.04248 0.40474
 C257 C 0.25955 -0.00418 0.37427
 C258 C 0.25526 0.02901 0.34888
 C259 C 0.21221 0.02910 0.32926
 C260 C 0.17243 -0.00387 0.33468
 C261 C 0.17691 -0.03730 0.35995
 C262 C 0.21999 -0.03748 0.37950
 H263 H 0.38293 -0.08298 0.43762
 H264 H 0.38185 0.07941 0.43254
 H265 H 0.20970 0.05556 0.31013
 H266 H 0.14718 -0.06357 0.36451
 H267 H 0.30959 0.07783 0.39617
 H268 H 0.28533 0.05478 0.34409
 H269 H 0.31111 -0.08446 0.40078
 H270 H 0.22193 -0.06313 0.39904
   
