data_POSCAR
  _audit_creation_date              2014-09-24
  _audit_creation_method            'ToBaCCo'
  _symmetry_space_group_name_H-M    'P1'
  _symmetry_Int_Tables_number       1
  _symmetry_cell_setting            triclinic
  loop_
  _symmetry_equiv_pos_as_xyz
 x,y,z
_cell_length_a 32.0035
_cell_length_b 32.0041
_cell_length_c 32.0026
_cell_angle_alpha 96.752400
_cell_angle_beta 83.246800
_cell_angle_gamma 96.721700
loop_
  _atom_site_label
  _atom_site_type_symbol
  _atom_site_fract_x
  _atom_site_fract_y
  _atom_site_fract_z
O1 O 0.55079 0.50982 0.03817
 O2 O 0.43607 0.50261 0.03097
 O3 O 0.48940 0.44900 0.03895
 O4 O 0.49747 0.56342 0.03017
 O5 O 0.50885 0.55103 -0.03947
 O6 O 0.50077 0.43662 -0.03069
 O7 O 0.44745 0.49023 -0.03865
 O8 O 0.56217 0.49744 -0.03147
 Cu9 Cu 0.49229 0.50745 0.04159
 Cu10 Cu 0.50594 0.49258 -0.04210
 C11 C 0.57582 0.50463 0.00461
 C12 C 0.42241 0.49543 -0.00510
 C13 C 0.49396 0.42352 0.00564
 C14 C 0.50430 0.57651 -0.00616
 O15 O -0.03827 0.55244 0.50991
 O16 O -0.03108 0.43772 0.50269
 O17 O -0.03026 0.49915 0.56351
 O18 O -0.03906 0.49101 0.44908
 O19 O 0.03057 0.50235 0.43668
 O20 O 0.03937 0.51048 0.55111
 O21 O 0.03855 0.44905 0.49029
 O22 O 0.03135 0.56378 0.49751
 Cu23 Cu -0.04169 0.49395 0.50754
 Cu24 Cu 0.04199 0.50755 0.49265
 C25 C -0.00472 0.57746 0.50470
 C26 C 0.00500 0.42405 0.49550
 C27 C 0.00607 0.50595 0.57659
 C28 C -0.00576 0.49553 0.42359
 O29 O 0.50266 0.03099 0.56374
 O30 O 0.50992 0.03822 0.44902
 O31 O 0.44908 0.03898 0.51042
 O32 O 0.56350 0.03020 0.50233
 O33 O 0.55115 -0.03943 0.49093
 O34 O 0.43673 -0.03064 0.49903
 O35 O 0.49757 -0.03140 0.43762
 O36 O 0.49031 -0.03863 0.55234
 Cu37 Cu 0.50753 0.04163 0.50752
 Cu38 Cu 0.49271 -0.04205 0.49384
 C39 C 0.49548 -0.00508 0.57739
 C40 C 0.50473 0.00468 0.42398
 C41 C 0.42362 0.00569 0.50586
 C42 C 0.57662 -0.00614 0.49549
 C43 C 0.49814 -0.04053 -0.09255
 C44 C 0.50011 -0.08198 -0.08390
 C45 C 0.50186 -0.09139 -0.04266
 C46 C 0.50168 -0.05873 -0.00886
 C47 C 0.49968 -0.01650 -0.01724
 C48 C 0.49789 -0.00731 -0.05927
 C49 C 0.49592 0.03477 -0.06687
 C50 C 0.49569 0.06723 -0.03381
 C51 C 0.49742 0.05882 0.00808
 C52 C 0.49945 0.01659 0.01646
 C53 C 0.50342 -0.06713 0.03303
 C54 C 0.50322 -0.03467 0.06608
 C55 C 0.50126 0.00741 0.05848
 C56 C 0.50104 0.04063 0.09176
 C57 C 0.49902 0.08208 0.08311
 C58 C 0.49721 0.09148 0.04188
 H59 H 0.49453 0.04297 -0.09851
 H60 H 0.49413 0.09905 -0.04141
 H61 H 0.50497 -0.09896 0.04063
 H62 H 0.50463 -0.04288 0.09772
 H63 H 0.50027 -0.10730 -0.10964
 H64 H 0.49887 0.10740 0.10886
 C65 C 0.04261 0.50274 0.90858
 C66 C 0.08384 0.50095 0.91800
 C67 C 0.09247 0.49892 0.95944
 C68 C 0.05919 0.49866 0.99266
 C69 C 0.01716 0.50045 0.98346
 C70 C 0.00880 0.50250 0.94124
 C71 C -0.03309 0.50423 0.93281
 C72 C -0.06616 0.50396 0.96526
 C73 C -0.05858 0.50197 1.00734
 C74 C -0.01655 0.50019 1.01654
 C75 C 0.06677 0.49667 1.03474
 C76 C 0.03371 0.49644 1.06719
 C77 C -0.00818 0.49817 1.05877
 C78 C -0.04199 0.49795 1.09142
 C79 C -0.08323 0.49970 1.08200
 C80 C -0.09186 0.50169 1.04055
 H81 H -0.04068 0.50581 0.90099
 H82 H -0.09780 0.50535 0.95705
 H83 H 0.09841 0.49528 1.04295
 H84 H 0.04130 0.49487 1.09902
 H85 H 0.10959 0.50113 0.89268
 H86 H -0.10898 0.49953 1.10732
 C87 C -0.04041 -0.09257 0.50183
 C88 C -0.08186 -0.08392 0.49986
 C89 C -0.09130 -0.04268 0.49811
 C90 C -0.05865 -0.00889 0.49830
 C91 C -0.01642 -0.01726 0.50031
 C92 C -0.00721 -0.05929 0.50208
 C93 C 0.03488 -0.06688 0.50405
 C94 C 0.06731 -0.03383 0.50429
 C95 C 0.05888 0.00806 0.50257
 C96 C 0.01665 0.01644 0.50055
 C97 C -0.06709 0.03300 0.49657
 C98 C -0.03465 0.06605 0.49679
 C99 C 0.00744 0.05846 0.49876
 C100 C 0.04064 0.09173 0.49899
 C101 C 0.08209 0.08309 0.50101
 C102 C 0.09152 0.04186 0.50279
 H103 H 0.04310 -0.09852 0.50543
 H104 H 0.09915 -0.04142 0.50585
 H105 H -0.09892 0.04060 0.49502
 H106 H -0.04287 0.09769 0.49540
 H107 H -0.10717 -0.10966 0.49970
 H108 H 0.10739 0.10883 0.50117
 C109 C -0.24358 0.54036 1.04395
 C110 C -0.26220 0.54111 1.00150
 C111 C -0.29726 0.50662 1.01460
 C112 C -0.27932 0.50590 1.05695
 C113 C -0.21661 0.50542 1.02291
 C114 C -0.25170 0.47097 1.03599
 C115 C -0.23449 0.50614 0.98053
 C116 C -0.27028 0.47168 0.99356
 C117 C -0.34237 0.50673 1.01052
 C118 C -0.37965 0.50616 1.00763
 C119 C -0.17192 0.50440 1.02825
 C120 C -0.13538 0.50327 1.03339
 H121 H -0.23210 0.56860 1.06473
 H122 H -0.26703 0.56996 0.98728
 H123 H -0.29823 0.50581 1.08834
 H124 H -0.24691 0.44211 1.05022
 H125 H -0.21552 0.50622 0.94918
 H126 H -0.28175 0.44344 0.97279
 C127 C 0.23566 0.49824 1.01959
 C128 C 0.26230 0.46137 1.00192
 C129 C 0.29786 0.49364 0.98519
 C130 C 0.27195 0.53049 1.00293
 C131 C 0.21721 0.49497 0.97698
 C132 C 0.25281 0.52722 0.96027
 C133 C 0.24311 0.45812 0.95924
 C134 C 0.27936 0.49038 0.94260
 C135 C 0.34299 0.49349 0.98920
 C136 C 0.38028 0.49404 0.99205
 C137 C 0.17252 0.49608 0.97170
 C138 C 0.13598 0.49727 0.96659
 H139 H 0.21716 0.50149 1.05118
 H140 H 0.26672 0.43428 1.01909
 H141 H 0.28430 0.56025 1.02094
 H142 H 0.24843 0.55432 0.94310
 H143 H 0.23074 0.42837 0.94122
 H144 H 0.29781 0.48713 0.91098
 C145 C -0.02207 -0.23874 0.54594
 C146 C -0.05274 -0.27596 0.52827
 C147 C -0.01450 -0.29799 0.50668
 C148 C 0.01627 -0.26148 0.52435
 C149 C -0.02277 -0.21732 0.50554
 C150 C 0.01548 -0.23932 0.48394
 C151 C -0.05350 -0.25387 0.48788
 C152 C -0.01520 -0.27653 0.46630
 C153 C -0.01045 -0.34311 0.50675
 C154 C -0.00758 -0.38041 0.50614
 C155 C -0.02809 -0.17262 0.50453
 C156 C -0.03324 -0.13608 0.50341
 H157 H -0.02493 -0.22267 0.57868
 H158 H -0.08074 -0.29151 0.54650
 H159 H 0.04500 -0.26512 0.53936
 H160 H 0.04347 -0.22374 0.46571
 H161 H -0.08224 -0.25026 0.47286
 H162 H -0.01235 -0.29257 0.43354
 C163 C 0.05326 0.25303 0.51354
 C164 C 0.05359 0.27525 0.47304
 C165 C 0.01490 0.29712 0.49366
 C166 C 0.01451 0.27554 0.53416
 C167 C 0.02309 0.21647 0.49501
 C168 C -0.01561 0.23830 0.51564
 C169 C 0.02348 0.23800 0.45450
 C170 C -0.01531 0.26058 0.47512
 C171 C 0.01088 0.34224 0.49348
 C172 C 0.00801 0.37951 0.49400
 C173 C 0.02837 0.17177 0.49614
 C174 C 0.03349 0.13524 0.49733
 H175 H 0.08150 0.24945 0.52937
 H176 H 0.08200 0.29092 0.45552
 H177 H 0.01079 0.29146 0.56692
 H178 H -0.04400 0.22259 0.53317
 H179 H 0.02721 0.22205 0.42175
 H180 H -0.04355 0.26420 0.45930
 C181 C 0.52720 -0.03917 -0.25280
 C182 C 0.49072 -0.05737 -0.27960
 C183 C 0.49341 -0.01481 -0.29803
 C184 C 0.52990 0.00347 -0.27187
 C185 C 0.49450 -0.02300 -0.21734
 C186 C 0.49719 0.01959 -0.23572
 C187 C 0.45801 -0.04128 -0.24348
 C188 C 0.46068 0.00138 -0.26260
 C189 C 0.49338 -0.01080 -0.34317
 C190 C 0.49401 -0.00794 -0.38047
 C191 C 0.49548 -0.02828 -0.17263
 C192 C 0.49658 -0.03339 -0.13607
 H193 H 0.55458 -0.05589 -0.24829
 H194 H 0.48805 -0.08898 -0.29811
 H195 H 0.55947 0.02192 -0.28404
 H196 H 0.49987 0.05116 -0.21714
 H197 H 0.42845 -0.05973 -0.23130
 H198 H 0.43331 0.01810 -0.26715
 C199 C 0.54347 0.03721 0.24133
 C200 C 0.51370 0.05719 0.27805
 C201 C 0.50651 0.01471 0.29708
 C202 C 0.53630 -0.00536 0.26106
 C203 C 0.50510 0.02303 0.21647
 C204 C 0.49791 -0.01947 0.23545
 C205 C 0.47535 0.04308 0.25252
 C206 C 0.46816 0.00053 0.27220
 C207 C 0.50673 0.01063 0.34218
 C208 C 0.50622 0.00772 0.37945
 C209 C 0.50395 0.02836 0.17179
 C210 C 0.50272 0.03350 0.13526
 H211 H 0.57443 0.05235 0.22812
 H212 H 0.52021 0.08867 0.29603
 H213 H 0.56137 -0.02532 0.26508
 H214 H 0.49140 -0.05092 0.21741
 H215 H 0.45026 0.06304 0.24854
 H216 H 0.43719 -0.01460 0.28538
 C217 C 0.49992 -0.23488 0.01658
 C218 C 0.46912 -0.27142 -0.00210
 C219 C 0.50688 -0.29685 -0.01746
 C220 C 0.53770 -0.26103 0.00129
 C221 C 0.50579 -0.21631 -0.02612
 C222 C 0.54356 -0.24171 -0.04148
 C223 C 0.47500 -0.25216 -0.04485
 C224 C 0.51275 -0.27824 -0.06014
 C225 C 0.50685 -0.34188 -0.01305
 C226 C 0.50611 -0.37908 -0.00975
 C227 C 0.50476 -0.17164 -0.03141
 C228 C 0.50357 -0.13505 -0.03624
 H229 H 0.49462 -0.21651 0.04804
 H230 H 0.43851 -0.28414 0.01415
 H231 H 0.56349 -0.26521 0.02031
 H232 H 0.57416 -0.22897 -0.05774
 H233 H 0.44920 -0.24802 -0.06386
 H234 H 0.51805 -0.29657 -0.09163
 C235 C 0.52366 0.25228 0.04418
 C236 C 0.52945 0.27158 0.00146
 C237 C 0.49162 0.29689 0.01686
 C238 C 0.48583 0.27824 0.05951
 C239 C 0.49295 0.21636 0.02543
 C240 C 0.45510 0.24165 0.04084
 C241 C 0.49874 0.23498 -0.01724
 C242 C 0.46088 0.26101 -0.00191
 C243 C 0.49153 0.34192 0.01249
 C244 C 0.49220 0.37911 0.00923
 C245 C 0.49411 0.17171 0.03068
 C246 C 0.49540 0.13513 0.03548
 H247 H 0.54949 0.24820 0.06318
 H248 H 0.56003 0.28439 -0.01478
 H249 H 0.48050 0.29652 0.09102
 H250 H 0.42454 0.22881 0.05709
 H251 H 0.50407 0.21664 -0.04872
 H252 H 0.43505 0.26512 -0.02091
 C253 C -0.23374 0.01614 0.49191
 C254 C -0.26186 -0.00587 0.45774
 C255 C -0.29675 -0.01746 0.49297
 C256 C -0.26935 0.00463 0.52711
 C257 C -0.21621 -0.02614 0.49411
 C258 C -0.25113 -0.03770 0.52931
 C259 C -0.24359 -0.04823 0.45996
 C260 C -0.27918 -0.05971 0.49517
 C261 C -0.34177 -0.01303 0.49296
 C262 C -0.37897 -0.00973 0.49369
 C263 C -0.17155 -0.03144 0.49517
 C264 C -0.13496 -0.03627 0.49638
 H265 H -0.21451 0.04725 0.49059
 H266 H -0.26680 0.00726 0.42831
 H267 H -0.28046 0.02642 0.55471
 H268 H -0.24622 -0.05084 0.55875
 H269 H -0.23247 -0.07003 0.43237
 H270 H -0.29835 -0.09086 0.49650
 C271 C 0.23858 0.02852 0.54748
 C272 C 0.26037 -0.01150 0.52931
 C273 C 0.29697 0.01689 0.50827
 C274 C 0.27591 0.05681 0.52645
 C275 C 0.21642 0.02543 0.50700
 C276 C 0.25305 0.05379 0.48599
 C277 C 0.23746 -0.01450 0.48882
 C278 C 0.27477 0.01381 0.46782
 C279 C 0.34200 0.01253 0.50833
 C280 C 0.37920 0.00927 0.50764
 C281 C 0.17176 0.03066 0.50586
 C282 C 0.13517 0.03546 0.50459
 H283 H 0.22316 0.03462 0.58022
 H284 H 0.26390 -0.03839 0.54713
 H285 H 0.29221 0.08608 0.54193
 H286 H 0.24955 0.08069 0.46815
 H287 H 0.22113 -0.04375 0.47334
 H288 H 0.29015 0.00772 0.43506
 C289 C 0.01716 0.49775 1.23468
 C290 C 0.00025 0.52984 1.27100
 C291 C -0.01698 0.49291 1.29693
 C292 C 0.00000 0.46078 1.26133
 C293 C -0.02555 0.49399 1.21636
 C294 C -0.04279 0.45704 1.24227
 C295 C -0.04251 0.52608 1.25199
 C296 C -0.05968 0.48915 1.27858
 C297 C -0.01261 0.49294 1.34197
 C298 C -0.00935 0.49370 1.37917
 C299 C -0.03079 0.49503 1.17168
 C300 C -0.03559 0.49622 1.13509
 H301 H 0.04868 0.50130 1.21608
 H302 H 0.01800 0.55978 1.28332
 H303 H 0.01753 0.43393 1.26570
 H304 H -0.06054 0.42712 1.22993
 H305 H -0.06004 0.55295 1.24766
 H306 H -0.09122 0.48560 1.29712
 C307 C 0.04238 0.47458 0.74806
 C308 C -0.00041 0.47161 0.72923
 C309 C 0.01740 0.50832 0.70321
 C310 C 0.06012 0.51129 0.72138
 C311 C 0.02609 0.50701 0.78372
 C312 C 0.04391 0.54373 0.75772
 C313 C -0.01665 0.50404 0.76558
 C314 C 0.00109 0.54078 0.73883
 C315 C 0.01297 0.50841 0.65819
 C316 C 0.00967 0.50772 0.62101
 C317 C 0.03138 0.50585 0.82836
 C318 C 0.03621 0.50456 0.86494
 H319 H 0.05940 0.44734 0.75235
 H320 H -0.01869 0.44196 0.71701
 H321 H 0.09163 0.51428 0.70272
 H322 H 0.06219 0.57338 0.76996
 H323 H -0.04814 0.50104 0.78429
 H324 H -0.01593 0.56801 0.73451
   
