data_POSCAR
  _audit_creation_date              2014-09-24
  _audit_creation_method            'ToBaCCo'
  _symmetry_space_group_name_H-M    'P1'
  _symmetry_Int_Tables_number       1
  _symmetry_cell_setting            triclinic
  loop_
  _symmetry_equiv_pos_as_xyz
 x,y,z
_cell_length_a 34.9781
_cell_length_b 31.7209
_cell_length_c 20.6201
_cell_angle_alpha 80.669200
_cell_angle_beta 93.381800
_cell_angle_gamma 92.222200
loop_
  _atom_site_label
  _atom_site_type_symbol
  _atom_site_fract_x
  _atom_site_fract_y
  _atom_site_fract_z
N1 N 0.32002 0.34187 0.15404
 N2 N 0.30693 0.37899 0.16158
 C3 C 0.33290 0.41008 0.14009
 C4 C 0.36350 0.39095 0.11772
 C5 C 0.35416 0.34784 0.12731
 H6 H 0.32920 0.44391 0.13859
 H7 H 0.37076 0.32248 0.11496
 Cu8 Cu 0.25575 0.38238 0.19360
 Cu9 Cu 0.29221 0.28793 0.17619
 Cu10 Cu 0.21138 0.29157 0.26176
 N11 N 0.20087 0.37969 0.20859
 N12 N 0.18351 0.34327 0.23162
 C13 C 0.14583 0.34925 0.23394
 C14 C 0.13926 0.39183 0.21229
 C15 C 0.17470 0.41052 0.19690
 H16 H 0.12494 0.32462 0.25146
 H17 H 0.18077 0.44370 0.17734
 N18 N 0.23779 0.23862 0.26079
 N19 N 0.26822 0.23679 0.22669
 C20 C 0.28119 0.19666 0.23913
 C21 C 0.25763 0.17237 0.28318
 C22 C 0.23031 0.19992 0.29553
 H23 H 0.30704 0.18660 0.22053
 H24 H 0.20764 0.19286 0.32945
 H25 H 0.23696 0.30982 0.17662
 H26 H 0.26970 0.31074 0.25159
 N27 N 0.69680 -0.29625 0.15928
 N28 N 0.71690 -0.33110 0.17089
 C29 C 0.69539 -0.36379 0.15275
 C30 C 0.65992 -0.34841 0.12856
 C31 C 0.66183 -0.30541 0.13353
 H32 H 0.70485 -0.39626 0.15753
 H33 H 0.63948 -0.28253 0.11983
 Cu34 Cu 0.76891 -0.33119 0.21099
 Cu35 Cu 0.71758 -0.24252 0.18090
 Cu36 Cu 0.81195 -0.23071 0.21069
 N37 N 0.82492 -0.32160 0.22266
 N38 N 0.84130 -0.28304 0.21666
 C39 C 0.87951 -0.28650 0.21659
 C40 C 0.88764 -0.32943 0.22403
 C41 C 0.85240 -0.35082 0.22851
 H42 H 0.89979 -0.25972 0.21161
 H43 H 0.84701 -0.38486 0.23133
 N44 N 0.77611 -0.19053 0.23436
 N45 N 0.73904 -0.19550 0.22210
 C46 C 0.72059 -0.16496 0.24470
 C47 C 0.74743 -0.13943 0.27300
 C48 C 0.78252 -0.15642 0.26546
 H49 H 0.68978 -0.16248 0.24253
 H50 H 0.81041 -0.14561 0.28283
 H51 H 0.77800 -0.27202 0.15847
 H52 H 0.77229 -0.27384 0.24825
 N53 N 0.67732 0.24680 0.80343
 N54 N 0.69565 0.28226 0.81378
 C55 C 0.67173 0.30648 0.84011
 C56 C 0.63672 0.28467 0.84648
 C57 C 0.64138 0.24703 0.82273
 H58 H 0.67923 0.33739 0.85373
 H59 H 0.62007 0.22183 0.81875
 Cu60 Cu 0.74879 0.29314 0.79059
 Cu61 Cu 0.70036 0.20397 0.76203
 Cu62 Cu 0.79908 0.20640 0.77616
 N63 N 0.80440 0.29539 0.78798
 N64 N 0.82379 0.26087 0.78662
 C65 C 0.86152 0.27044 0.79153
 C66 C 0.86605 0.31351 0.79478
 C67 C 0.82922 0.32852 0.79195
 H68 H 0.88388 0.24786 0.79137
 H69 H 0.82110 0.36067 0.79497
 N70 N 0.76882 0.15893 0.74602
 N71 N 0.73103 0.15734 0.74337
 C72 C 0.71849 0.12112 0.72201
 C73 C 0.74990 0.09957 0.70890
 C74 C 0.78140 0.12442 0.72411
 H75 H 0.68871 0.11194 0.71395
 H76 H 0.81114 0.11794 0.71934
 H77 H 0.74777 0.21554 0.81841
 H78 H 0.75174 0.23446 0.72801
 N79 N 0.28014 -0.31075 0.85220
 N80 N 0.25953 -0.34579 0.87023
 C81 C 0.28228 -0.37583 0.90421
 C82 C 0.31908 -0.35860 0.90763
 C83 C 0.31677 -0.31723 0.87419
 H84 H 0.27287 -0.40789 0.92443
 H85 H 0.34001 -0.29385 0.86550
 Cu86 Cu 0.20541 -0.34923 0.84440
 Cu87 Cu 0.25784 -0.26051 0.79835
 Cu88 Cu 0.15928 -0.25726 0.80859
 N89 N 0.15057 -0.34853 0.82434
 N90 N 0.13253 -0.31238 0.80889
 C91 C 0.09511 -0.32094 0.79577
 C92 C 0.08959 -0.36489 0.80356
 C93 C 0.12535 -0.38137 0.82200
 H94 H 0.07372 -0.29694 0.78174
 H95 H 0.13259 -0.41472 0.83203
 N96 N 0.19183 -0.20615 0.78094
 N97 N 0.22887 -0.20796 0.77285
 C98 C 0.24207 -0.16914 0.74549
 C99 C 0.21194 -0.14157 0.73666
 C100 C 0.18056 -0.16591 0.75984
 H101 H 0.27125 -0.16163 0.73196
 H102 H 0.15128 -0.15575 0.75754
 H103 H 0.21268 -0.27388 0.85537
 H104 H 0.20298 -0.28189 0.76818
 N105 N 0.66685 -0.34869 0.79862
 N106 N 0.68336 -0.38590 0.80843
 C107 C 0.65797 -0.41650 0.83340
 C108 C 0.62410 -0.39707 0.84067
 C109 C 0.63073 -0.35412 0.81779
 H110 H 0.66475 -0.44956 0.85060
 H111 H 0.61160 -0.32833 0.81914
 Cu112 Cu 0.73851 -0.38926 0.80023
 Cu113 Cu 0.69517 -0.29548 0.77088
 Cu114 Cu 0.78502 -0.29651 0.83536
 N115 N 0.79294 -0.38658 0.82847
 N116 N 0.80950 -0.35256 0.84871
 C117 C 0.84631 -0.36097 0.86753
 C118 C 0.85334 -0.40181 0.85667
 C119 C 0.81884 -0.41719 0.83208
 H120 H 0.86708 -0.33784 0.88270
 H121 H 0.81299 -0.44813 0.81741
 N122 N 0.76324 -0.24463 0.78487
 N123 N 0.72884 -0.24507 0.75554
 C124 C 0.72267 -0.20672 0.71837
 C125 C 0.75476 -0.18071 0.72582
 C126 C 0.77980 -0.20559 0.76880
 H127 H 0.69690 -0.19841 0.68806
 H128 H 0.80866 -0.19675 0.78442
 H129 H 0.75743 -0.32600 0.76547
 H130 H 0.73856 -0.33931 0.84928
 N131 N 0.29338 0.30281 0.81184
 N132 N 0.27588 0.33943 0.80166
 C133 C 0.30034 0.37040 0.81725
 C134 C 0.33510 0.35232 0.83835
 C135 C 0.32972 0.30927 0.83455
 H136 H 0.29327 0.40357 0.81389
 H137 H 0.35050 0.28452 0.84757
 Cu138 Cu 0.22259 0.34318 0.77039
 Cu139 Cu 0.26648 0.24980 0.79658
 Cu140 Cu 0.18352 0.26534 0.69497
 N141 N 0.16816 0.34123 0.74636
 N142 N 0.15292 0.31139 0.71465
 C143 C 0.11531 0.31845 0.70159
 C144 C 0.10659 0.35429 0.72750
 C145 C 0.14076 0.36792 0.75556
 H146 H 0.09575 0.29852 0.67635
 H147 H 0.14536 0.39520 0.78076
 N148 N 0.21168 0.21186 0.70924
 N149 N 0.24175 0.20490 0.75096
 C150 C 0.25360 0.16496 0.75114
 C151 C 0.23000 0.14624 0.70702
 C152 C 0.20383 0.17683 0.68125
 H153 H 0.27866 0.15133 0.77872
 H154 H 0.18092 0.17390 0.64454
 H155 H 0.24073 0.28444 0.71631
 H156 H 0.20885 0.26642 0.78550
 N157 N 0.31563 -0.24582 0.15834
 N158 N 0.30206 -0.28543 0.16381
 C159 C 0.32796 -0.30994 0.14307
 C160 C 0.35939 -0.28415 0.12367
 C161 C 0.35048 -0.24366 0.13357
 H162 H 0.32461 -0.34404 0.14366
 H163 H 0.36840 -0.21494 0.12542
 Cu164 Cu 0.25275 -0.30111 0.20101
 Cu165 Cu 0.28825 -0.20081 0.18881
 Cu166 Cu 0.22671 -0.24187 0.31003
 N167 N 0.20263 -0.30923 0.23808
 N168 N 0.19304 -0.28695 0.28283
 C169 C 0.15737 -0.29887 0.30082
 C170 C 0.14376 -0.32990 0.26477
 C171 C 0.17323 -0.33585 0.22553
 H172 H 0.14226 -0.28521 0.33634
 H173 H 0.17324 -0.35772 0.19037
 N174 N 0.25026 -0.18422 0.30278
 N175 N 0.27010 -0.16686 0.25217
 C176 C 0.27687 -0.12512 0.25534
 C177 C 0.26125 -0.11641 0.31153
 C178 C 0.24478 -0.15448 0.34062
 H179 H 0.29229 -0.10293 0.21991
 H180 H 0.22797 -0.15947 0.38375
 H181 H 0.27845 -0.24716 0.26541
 H182 H 0.23502 -0.22922 0.21275
 N183 N 0.71821 0.30547 0.11039
 N184 N 0.73622 0.34251 0.11118
 C185 C 0.71186 0.37409 0.08892
 C186 C 0.67676 0.35567 0.07319
 C187 C 0.68183 0.31207 0.08705
 H188 H 0.71925 0.40785 0.08412
 H189 H 0.66066 0.28699 0.08122
 Cu190 Cu 0.79002 0.34580 0.13964
 Cu191 Cu 0.74383 0.25196 0.13996
 Cu192 Cu 0.82510 0.26085 0.24299
 N193 N 0.83827 0.34963 0.18954
 N194 N 0.85174 0.31681 0.23066
 C195 C 0.88568 0.32849 0.25791
 C196 C 0.89366 0.37084 0.23244
 C197 C 0.86295 0.38323 0.18931
 H198 H 0.90350 0.30755 0.29272
 H199 H 0.85898 0.41429 0.15972
 N200 N 0.79411 0.20712 0.24395
 N201 N 0.76482 0.20359 0.20155
 C202 C 0.74947 0.16378 0.21347
 C203 C 0.76978 0.14102 0.26625
 C204 C 0.79798 0.16937 0.28445
 H205 H 0.72408 0.15297 0.18768
 H206 H 0.81915 0.16316 0.32496
 H207 H 0.77049 0.28177 0.21251
 H208 H 0.80249 0.26902 0.14957
 C209 C 0.25077 0.04057 0.45022
 C210 C 0.24795 -0.00437 0.45338
 C211 C 0.23996 -0.02972 0.51396
 C212 C 0.23467 -0.01162 0.57046
 C213 C 0.23788 0.03307 0.56699
 C214 C 0.24548 0.05849 0.50681
 H215 H 0.24891 0.09281 0.50451
 H216 H 0.23609 -0.06399 0.51689
 C217 C 0.75256 -0.03769 0.43469
 C218 C 0.75642 0.00713 0.43292
 C219 C 0.76088 0.02309 0.49282
 C220 C 0.76065 -0.00435 0.55359
 C221 C 0.75970 -0.04899 0.55474
 C222 C 0.75547 -0.06505 0.49525
 H223 H 0.75353 -0.09933 0.49598
 H224 H 0.76145 0.05735 0.49211
 C225 C 0.47780 0.41060 -0.01758
 C226 C 0.46687 0.38939 -0.07115
 C227 C 0.49384 0.36591 -0.09626
 C228 C 0.53201 0.36455 -0.07103
 C229 C 0.54409 0.39052 -0.02324
 C230 C 0.51661 0.41342 0.00292
 H231 H 0.52493 0.43015 0.04366
 H232 H 0.48486 0.34775 -0.13503
 C233 C 0.46571 0.63588 0.04692
 C234 C 0.45181 0.60811 0.00293
 C235 C 0.47782 0.58427 -0.02451
 C236 C 0.51717 0.58789 -0.00902
 C237 C 0.53047 0.61118 0.04096
 C238 C 0.50469 0.63561 0.06742
 H239 H 0.51511 0.65512 0.10367
 H240 H 0.46774 0.56606 -0.06268
 C241 C 0.03319 0.49223 0.22539
 C242 C -0.00697 0.48998 0.23162
 C243 C -0.02673 0.52790 0.23065
 C244 C -0.00708 0.56754 0.23102
 C245 C 0.03355 0.56809 0.23557
 C246 C 0.05279 0.53120 0.22900
 H247 H 0.08370 0.53276 0.22845
 H248 H -0.05765 0.52608 0.23120
 C249 C -0.00090 0.44235 0.77569
 C250 C -0.03774 0.43227 0.80004
 C251 C -0.05761 0.46417 0.82280
 C252 C -0.04174 0.50552 0.82251
 C253 C -0.00512 0.51556 0.79747
 C254 C 0.01496 0.48361 0.77561
 H255 H 0.04284 0.49147 0.75569
 H256 H -0.08541 0.45642 0.84292
 N257 N 0.44176 0.45639 0.04663
 N258 N 0.41082 0.45124 0.08174
 C259 C 0.39770 0.41042 0.08506
 C260 C 0.42108 0.38894 0.05096
 C261 C 0.44829 0.41899 0.02674
 H262 H 0.41818 0.35609 0.04279
 H263 H 0.45733 0.48514 0.03522
 H264 H 0.39893 0.47527 0.10257
 N265 N 0.59294 0.57578 0.07345
 N266 N 0.62908 0.58705 0.09875
 C267 C 0.62871 0.62868 0.10485
 C268 C 0.59279 0.64467 0.08425
 C269 C 0.57130 0.61069 0.06500
 H270 H 0.58339 0.67687 0.08337
 H271 H 0.58441 0.54511 0.06516
 H272 H 0.65181 0.56630 0.11030
 N273 N 0.54368 0.29199 -0.09403
 N274 N 0.57077 0.27103 -0.11551
 C275 C 0.60140 0.29759 -0.12774
 C276 C 0.59332 0.33755 -0.11341
 C277 C 0.55625 0.33244 -0.09179
 H278 H 0.61149 0.36617 -0.11878
 H279 H 0.51694 0.27859 -0.08061
 H280 H 0.56818 0.23893 -0.12140
 N281 N 0.39001 0.56883 -0.01415
 N282 N 0.35498 0.57751 -0.03885
 C283 C 0.35344 0.61977 -0.06130
 C284 C 0.38899 0.63887 -0.05046
 C285 C 0.41117 0.60547 -0.01960
 H286 H 0.39747 0.67226 -0.06272
 H287 H 0.39910 0.53839 0.00652
 H288 H 0.33274 0.55470 -0.04050
 N289 N 0.04166 0.42256 0.18427
 N290 N 0.06964 0.39623 0.18126
 C291 C 0.10213 0.41224 0.20717
 C292 C 0.09463 0.44990 0.22861
 C293 C 0.05561 0.45526 0.21415
 H294 H 0.11483 0.46989 0.25255
 H295 H 0.01396 0.41850 0.16411
 H296 H 0.06661 0.36838 0.16025
 N297 N -0.00505 0.59569 0.76938
 N298 N 0.02175 0.62924 0.77187
 C299 C 0.05553 0.61195 0.79448
 C300 C 0.05116 0.56780 0.80694
 C301 C 0.01293 0.55890 0.79162
 H302 H 0.07283 0.54486 0.82577
 H303 H -0.03358 0.59919 0.75195
 H304 H 0.01601 0.66158 0.75764
 N305 N -0.01579 0.64709 0.20174
 N306 N -0.04499 0.67573 0.20189
 C307 C -0.07649 0.65297 0.22249
 C308 C -0.06794 0.60995 0.23757
 C309 C -0.02942 0.60742 0.22500
 H310 H -0.08746 0.58394 0.25542
 H311 H 0.01062 0.65563 0.18163
 H312 H -0.04274 0.70849 0.18456
 N313 N -0.03783 0.35187 0.81723
 N314 N -0.06500 0.31882 0.81400
 C315 C -0.09952 0.33657 0.80062
 C316 C -0.09527 0.38065 0.79420
 C317 C -0.05625 0.38910 0.80360
 H318 H -0.11760 0.40378 0.78244
 H319 H -0.00884 0.34747 0.83057
 H320 H -0.05897 0.28635 0.82263
 N321 N 0.29002 0.06811 0.35334
 N322 N 0.29189 0.10323 0.30902
 C323 C 0.26304 0.12848 0.31739
 C324 C 0.24189 0.10859 0.36863
 C325 C 0.25986 0.07050 0.39023
 H326 H 0.21793 0.12098 0.38977
 H327 H 0.30995 0.04391 0.35974
 H328 H 0.31334 0.11024 0.27544
 N329 N 0.72691 -0.00018 0.65517
 N330 N 0.72338 0.02773 0.69531
 C331 C 0.74911 0.05998 0.68072
 C332 C 0.76990 0.05254 0.62881
 C333 C 0.75470 0.01402 0.61367
 H334 H 0.79068 0.07381 0.60235
 H335 H 0.70871 -0.02691 0.65347
 H336 H 0.70265 0.02544 0.73026
 N337 N 0.19232 -0.03373 0.66424
 N338 N 0.18573 -0.06852 0.70735
 C339 C 0.21217 -0.09734 0.70206
 C340 C 0.23659 -0.08034 0.65360
 C341 C 0.22286 -0.04004 0.63043
 H342 H 0.25942 -0.09613 0.63469
 H343 H 0.17483 -0.00724 0.65576
 H344 H 0.16280 -0.07279 0.73823
 N345 N 0.70505 -0.06379 0.35589
 N346 N 0.70346 -0.09133 0.31420
 C347 C 0.73912 -0.10432 0.30840
 C348 C 0.76466 -0.08360 0.34768
 C349 C 0.74181 -0.05762 0.37623
 H350 H 0.79484 -0.08936 0.35844
 H351 H 0.68102 -0.05152 0.37324
 H352 H 0.67800 -0.10256 0.29307
 N353 N 0.55328 0.53858 -0.06565
 N354 N 0.58225 0.54265 -0.10508
 C355 C 0.59128 0.58462 -0.12176
 C356 C 0.56735 0.60804 -0.09167
 C357 C 0.54409 0.57785 -0.05613
 H358 H 0.56823 0.64222 -0.09195
 H359 H 0.54121 0.50952 -0.04368
 H360 H 0.59607 0.51710 -0.11875
 N361 N 0.40573 0.42603 -0.10865
 N362 N 0.37119 0.41630 -0.13219
 C363 C 0.36972 0.37469 -0.13878
 C364 C 0.40505 0.35716 -0.11899
 C365 C 0.42703 0.39087 -0.09991
 H366 H 0.41324 0.32439 -0.11684
 H367 H 0.41440 0.45630 -0.09862
 H368 H 0.34903 0.43788 -0.14271
 N369 N 0.45369 0.70898 0.06829
 N370 N 0.42588 0.73018 0.08757
 C371 C 0.39571 0.70316 0.10097
 C372 C 0.40476 0.66278 0.08995
 C373 C 0.44182 0.66803 0.06854
 H374 H 0.38690 0.63394 0.09613
 H375 H 0.48012 0.72270 0.05391
 H376 H 0.42774 0.76267 0.09110
 N377 N 0.60333 0.42947 0.01069
 N378 N 0.63819 0.42051 0.03609
 C379 C 0.64168 0.37778 0.04655
 C380 C 0.60753 0.35868 0.02729
 C381 C 0.58413 0.39268 0.00375
 H382 H 0.60077 0.32488 0.02986
 H383 H 0.59312 0.46034 -0.00219
 H384 H 0.65905 0.44342 0.04589
 N385 N -0.04967 0.56673 0.88380
 N386 N -0.07931 0.59327 0.89197
 C387 C -0.11146 0.57837 0.86304
 C388 C -0.10333 0.54253 0.83636
 C389 C -0.06430 0.53703 0.84858
 H390 H -0.12269 0.52455 0.80745
 H391 H -0.02135 0.57032 0.90153
 H392 H -0.07620 0.62005 0.91554
 N393 N -0.01618 0.41429 0.28722
 N394 N -0.04237 0.38306 0.28786
 C395 C -0.07198 0.39696 0.24618
 C396 C -0.06440 0.43895 0.21793
 C397 C -0.02851 0.44859 0.24476
 H398 H -0.08215 0.45939 0.18221
 H399 H 0.00952 0.41208 0.31585
 H400 H -0.03979 0.35287 0.31644
 N401 N 0.00859 0.38565 0.70623
 N402 N 0.03700 0.36238 0.69370
 C403 C 0.06898 0.37343 0.72752
 C404 C 0.06060 0.40502 0.76295
 C405 C 0.02193 0.41151 0.74886
 H406 H 0.07971 0.42056 0.79558
 H407 H -0.01932 0.38388 0.68560
 H408 H 0.03443 0.33955 0.66233
 N409 N 0.04944 0.62756 0.29998
 N410 N 0.07877 0.65404 0.30842
 C411 C 0.10589 0.64832 0.26719
 C412 C 0.09323 0.61721 0.23060
 C413 C 0.05724 0.60480 0.25277
 H414 H 0.10859 0.60436 0.19452
 H415 H 0.02526 0.62409 0.32798
 H416 H 0.08041 0.67468 0.34320
 N417 N 0.78992 -0.07471 0.66650
 N418 N 0.78902 -0.10966 0.71114
 C419 C 0.76220 -0.13712 0.69129
 C420 C 0.74537 -0.11903 0.63132
 C421 C 0.76392 -0.07946 0.61709
 H422 H 0.72386 -0.13334 0.60108
 H423 H 0.80914 -0.04890 0.66880
 H424 H 0.80697 -0.11475 0.75380
 N425 N 0.24240 -0.00971 0.33188
 N426 N 0.24735 -0.03902 0.29453
 C427 C 0.25898 -0.07494 0.33336
 C428 C 0.26208 -0.06821 0.39790
 C429 C 0.25174 -0.02613 0.39526
 H430 H 0.26974 -0.09135 0.44082
 H431 H 0.23050 0.01984 0.31396
 H432 H 0.24051 -0.03525 0.24396
 N433 N 0.72820 0.03720 0.32054
 N434 N 0.73187 0.07245 0.27724
 C435 C 0.76034 0.09726 0.29888
 C436 C 0.77574 0.07665 0.35859
 C437 C 0.75455 0.03839 0.37070
 H438 H 0.79790 0.08862 0.39034
 H439 H 0.70615 0.01459 0.31708
 H440 H 0.71397 0.07989 0.23490
 N441 N 0.25629 0.04200 0.68321
 N442 N 0.25508 0.07249 0.71978
 C443 C 0.23419 0.10453 0.68631
 C444 C 0.22146 0.09400 0.62610
 C445 C 0.23640 0.05425 0.62565
 H446 H 0.20608 0.11388 0.58615
 H447 H 0.27254 0.01467 0.69594
 H448 H 0.26956 0.07192 0.76566
   
