data_POSCAR
  _audit_creation_date              2014-09-24
  _audit_creation_method            'ToBaCCo'
  _symmetry_space_group_name_H-M    'P1'
  _symmetry_Int_Tables_number       1
  _symmetry_cell_setting            triclinic
  loop_
  _symmetry_equiv_pos_as_xyz
 x,y,z
_cell_length_a 46.9864
_cell_length_b 46.9726
_cell_length_c 46.9696
_cell_angle_alpha 93.687200
_cell_angle_beta 93.574800
_cell_angle_gamma 93.602800
loop_
  _atom_site_label
  _atom_site_type_symbol
  _atom_site_fract_x
  _atom_site_fract_y
  _atom_site_fract_z
C1 C 0.20791 0.50843 1.04645
 H2 H 0.20881 0.52388 1.03036
 C3 C 0.18762 0.51008 1.06684
 H4 H 0.17297 0.52701 1.06653
 C5 C 0.22496 0.46664 1.06550
 H6 H 0.23901 0.44931 1.06435
 C7 C 0.20491 0.46746 1.08629
 H8 H 0.20379 0.45088 1.10127
 N9 N 0.22596 0.48690 1.04606
 C10 C 0.29385 0.51698 0.99417
 H11 H 0.29256 0.49942 0.97796
 C12 C 0.31501 0.53912 0.99381
 H13 H 0.33000 0.53873 0.97720
 C14 C 0.27654 0.53842 1.03625
 H15 H 0.26193 0.53769 1.05310
 C16 C 0.29746 0.56103 1.03670
 H17 H 0.29875 0.57782 1.05375
 Zn18 Zn 0.24940 0.48440 1.01488
 N19 N 0.27514 0.51702 1.01513
 C20 C 0.22507 0.50191 0.96236
 N21 N 0.22446 0.48131 0.98147
 C22 C 0.20401 0.45930 0.97884
 C23 C 0.18283 0.45757 0.95646
 C24 C 0.20427 0.50097 0.93966
 C25 C 0.29185 0.45307 1.03901
 C26 C 0.31209 0.43259 1.03980
 C27 C 0.29109 0.41128 0.99449
 C28 C 0.27118 0.43219 0.99455
 N29 N 0.27211 0.45268 1.01651
 H30 H 0.24100 0.51963 0.96525
 H31 H 0.20370 0.44355 0.99466
 H32 H 0.16622 0.44036 0.95492
 H33 H 0.20444 0.51783 0.92497
 H34 H 0.29247 0.46998 1.05585
 H35 H 0.32827 0.43359 1.05738
 H36 H 0.29084 0.39558 0.97653
 H37 H 0.25582 0.43271 0.97652
 C38 C 0.31694 0.56125 1.01534
 C39 C 0.18587 0.48924 1.08675
 C40 C 0.31197 0.41176 1.01713
 C41 C 0.18279 0.47878 0.93689
 C42 C 0.79230 0.53865 -0.04659
 H43 H 0.79299 0.55540 -0.02959
 C44 C 0.81250 0.53950 -0.06713
 H45 H 0.82872 0.55705 -0.06607
 C46 C 0.77147 0.49433 -0.06768
 H47 H 0.75607 0.47632 -0.06722
 C48 C 0.79135 0.49434 -0.08863
 H49 H 0.79102 0.47645 -0.10443
 N50 N 0.77251 0.51618 -0.04706
 C51 C 0.70850 0.54598 0.00901
 H52 H 0.70938 0.52981 0.02437
 C53 C 0.68827 0.56641 0.01081
 H54 H 0.67361 0.56610 0.02772
 C55 C 0.72554 0.56522 -0.03272
 H56 H 0.73954 0.56413 -0.05009
 C57 C 0.70553 0.58604 -0.03172
 H58 H 0.70435 0.60113 -0.04819
 Zn59 Zn 0.74985 0.51443 -0.01530
 N60 N 0.72651 0.54566 -0.01256
 C61 C 0.77713 0.53546 0.03876
 N62 N 0.77563 0.51444 0.01725
 C63 C 0.79427 0.49342 0.01704
 C64 C 0.81546 0.49290 0.03912
 C65 C 0.79809 0.53574 0.06130
 C66 C 0.70431 0.47863 -0.04048
 C67 C 0.68305 0.45632 -0.04227
 C68 C 0.70449 0.43923 0.00098
 C69 C 0.72537 0.46187 0.00197
 N70 N 0.72481 0.48108 -0.01852
 H71 H 0.76258 0.55235 0.03815
 H72 H 0.79289 0.47730 -0.00060
 H73 H 0.83040 0.47625 0.03859
 H74 H 0.79946 0.55271 0.07817
 H75 H 0.70404 0.49455 -0.05614
 H76 H 0.66641 0.45493 -0.05944
 H77 H 0.70462 0.42444 0.01776
 H78 H 0.74133 0.46461 0.01967
 C79 C 0.68656 0.58641 -0.00991
 C80 C 0.81228 0.51695 -0.08808
 C81 C 0.68296 0.43664 -0.02117
 C82 C 0.81749 0.51433 0.06136
 C83 C -0.00867 0.29198 0.45298
 H84 H -0.02413 0.29110 0.46908
 C85 C -0.01030 0.31225 0.43261
 H86 H -0.02723 0.32690 0.43294
 C87 C 0.03313 0.27490 0.43387
 H88 H 0.05045 0.26086 0.43501
 C89 C 0.03232 0.29494 0.41310
 H90 H 0.04891 0.29605 0.39810
 N91 N 0.01286 0.27393 0.45334
 C92 C -0.01721 0.20611 0.50528
 H93 H 0.00034 0.20744 0.52145
 C94 C -0.03934 0.18496 0.50568
 H95 H -0.03895 0.16999 0.52230
 C96 C -0.03865 0.22335 0.46323
 H97 H -0.03792 0.23793 0.44638
 C98 C -0.06124 0.20242 0.46283
 H99 H -0.07803 0.20110 0.44581
 Zn100 Zn 0.01535 0.25054 0.48452
 N101 N -0.01725 0.22479 0.48432
 C102 C -0.00216 0.27496 0.53708
 N103 N 0.01842 0.27555 0.51793
 C104 C 0.04042 0.29602 0.52053
 C105 C 0.04216 0.31722 0.54293
 C106 C -0.00122 0.29579 0.55980
 C107 C 0.04670 0.20804 0.46035
 C108 C 0.06719 0.18779 0.45956
 C109 C 0.08843 0.20891 0.50485
 C110 C 0.06753 0.22882 0.50479
 N111 N 0.04707 0.22783 0.48286
 H112 H -0.01988 0.25902 0.53422
 H113 H 0.05615 0.29630 0.50467
 H114 H 0.05936 0.33384 0.54444
 H115 H -0.01807 0.29563 0.57454
 H116 H 0.02982 0.20738 0.44353
 H117 H 0.06621 0.17157 0.44199
 H118 H 0.10411 0.20920 0.52280
 H119 H 0.06699 0.24422 0.52282
 C120 C -0.06147 0.18298 0.48419
 C121 C 0.01055 0.31398 0.41268
 C122 C 0.08798 0.18797 0.48221
 C123 C 0.02097 0.31727 0.56255
 C124 C 0.96109 0.70775 0.54693
 H125 H 0.94432 0.70703 0.52998
 C126 C 0.96027 0.68757 0.56747
 H127 H 0.94273 0.67135 0.56646
 C128 C 1.00541 0.72862 0.56788
 H129 H 1.02341 0.74402 0.56736
 C130 C 1.00544 0.70877 0.58883
 H131 H 1.02334 0.70913 0.60457
 N132 N 0.98354 0.72755 0.54733
 C133 C 0.95367 0.79149 0.49137
 H134 H 0.96982 0.79058 0.47595
 C135 C 0.93326 0.81173 0.48965
 H136 H 0.93355 0.82637 0.47274
 C137 C 0.93450 0.77452 0.53316
 H138 H 0.93561 0.76054 0.55052
 C139 C 0.91369 0.79454 0.53224
 H140 H 0.89864 0.79575 0.54876
 Zn141 Zn 0.98525 0.75016 0.51557
 N142 N 0.95402 0.77350 0.51294
 C143 C 0.96418 0.72280 0.46153
 N144 N 0.98520 0.72432 0.48300
 C145 C 1.00621 0.70567 0.48313
 C146 C 1.00673 0.68447 0.46102
 C147 C 0.96389 0.70182 0.43896
 C148 C 1.02106 0.79575 0.54066
 C149 C 1.04336 0.81702 0.54238
 C150 C 1.06038 0.79550 0.49906
 C151 C 1.03775 0.77461 0.49813
 N152 N 1.01857 0.77521 0.51869
 H153 H 0.94729 0.73736 0.46219
 H154 H 1.02233 0.70707 0.50074
 H155 H 1.02338 0.66953 0.46149
 H156 H 0.94693 0.70044 0.42212
 H157 H 1.00517 0.79605 0.55636
 H158 H 1.04477 0.83369 0.55955
 H159 H 1.07513 0.79533 0.48223
 H160 H 1.03499 0.75862 0.48043
 C161 C 0.91330 0.81349 0.51043
 C162 C 0.98285 0.68783 0.58834
 C163 C 1.06300 0.81706 0.52121
 C164 C 0.98531 0.68241 0.43883
 C165 C 0.45365 -0.00865 0.29121
 H166 H 0.46977 -0.02409 0.29033
 C167 C 0.43322 -0.01033 0.31146
 H168 H 0.43349 -0.02722 0.32612
 C169 C 0.43453 0.03312 0.27419
 H170 H 0.43567 0.05047 0.26018
 C171 C 0.41371 0.03225 0.29421
 H172 H 0.39867 0.04878 0.29540
 N173 N 0.45403 0.01289 0.27320
 C174 C 0.50616 -0.01705 0.20536
 H175 H 0.52230 0.00054 0.20673
 C176 C 0.50665 -0.03918 0.18417
 H177 H 0.52334 -0.03868 0.16925
 C178 C 0.46411 -0.03858 0.22254
 H179 H 0.44723 -0.03788 0.23712
 C180 C 0.46377 -0.06118 0.20159
 H181 H 0.44675 -0.07798 0.20029
 Zn182 Zn 0.48525 0.01546 0.24983
 N183 N 0.48515 -0.01714 0.22403
 C184 C 0.53774 -0.00199 0.27427
 N185 N 0.51859 0.01858 0.27486
 C186 C 0.52110 0.04057 0.29538
 C187 C 0.54341 0.04231 0.31663
 C188 C 0.56038 -0.00104 0.29514
 C189 C 0.46112 0.04678 0.20740
 C190 C 0.46029 0.06732 0.18722
 C191 C 0.50547 0.08869 0.20839
 C192 C 0.50545 0.06775 0.22824
 N193 N 0.48358 0.04720 0.22719
 H194 H 0.53495 -0.01970 0.25829
 H195 H 0.50523 0.05629 0.29567
 H196 H 0.54485 0.05950 0.33328
 H197 H 0.57512 -0.01788 0.29497
 H198 H 0.44434 0.02984 0.20670
 H199 H 0.44275 0.06630 0.17101
 H200 H 0.52337 0.10444 0.20873
 H201 H 0.52345 0.06724 0.24363
 C202 C 0.48518 -0.06137 0.18214
 C203 C 0.41328 0.01047 0.31319
 C204 C 0.48287 0.08820 0.18747
 C205 C 0.56303 0.02113 0.31668
 C206 C 0.54667 -0.03934 0.70765
 H207 H 0.52977 -0.05616 0.70699
 C208 C 0.56717 -0.04015 0.68740
 H209 H 0.56618 -0.05774 0.67119
 C210 C 0.56752 0.00510 0.72840
 H211 H 0.56698 0.02314 0.74379
 C212 C 0.58843 0.00513 0.70849
 H213 H 0.60412 0.02308 0.70878
 N214 N 0.54704 -0.01683 0.72742
 C215 C 0.49123 -0.04661 0.79159
 H216 H 0.47579 -0.03048 0.79070
 C217 C 0.48955 -0.06696 0.81187
 H218 H 0.47267 -0.06665 0.82656
 C219 C 0.53300 -0.06578 0.77453
 H220 H 0.55034 -0.06468 0.76049
 C221 C 0.53213 -0.08653 0.79459
 H222 H 0.54866 -0.10156 0.79578
 Zn223 Zn 0.51531 -0.01513 0.75012
 N224 N 0.51276 -0.04628 0.77354
 C225 C 0.46130 -0.03639 0.72296
 N226 N 0.48272 -0.01533 0.72438
 C227 C 0.48279 0.00562 0.70568
 C228 C 0.46066 0.00604 0.68454
 C229 C 0.43870 -0.03678 0.70204
 C230 C 0.54038 0.02089 0.79560
 C231 C 0.54211 0.04328 0.81681
 C232 C 0.49876 0.06016 0.79535
 C233 C 0.49783 0.03744 0.77453
 N234 N 0.51840 0.01829 0.77512
 H235 H 0.46201 -0.05323 0.73755
 H236 H 0.50037 0.02178 0.70700
 H237 H 0.46108 0.02265 0.66957
 H238 H 0.42189 -0.05378 0.70074
 H239 H 0.55610 0.00502 0.79589
 H240 H 0.55930 0.04479 0.83343
 H241 H 0.48193 0.07490 0.79519
 H242 H 0.48012 0.03459 0.75858
 C243 C 0.51036 -0.08690 0.81360
 C244 C 0.58798 -0.01751 0.68757
 C245 C 0.52093 0.06290 0.81685
 C246 C 0.43850 -0.01543 0.68259
 C247 C 0.21724 -0.02428 0.50640
 C248 C 0.23400 0.00030 0.50089
 C249 C 0.22090 0.02578 0.49618
 C250 C 0.19126 0.02675 0.49728
 C251 C 0.17459 0.00207 0.50247
 C252 C 0.18753 -0.02348 0.50687
 C253 C 0.26519 -0.00066 0.50007
 C254 C 0.27835 0.00316 0.47444
 C255 C 0.30799 0.00191 0.47362
 C256 C 0.32458 -0.00253 0.49855
 C257 C 0.31159 -0.00603 0.52424
 C258 C 0.28188 -0.00542 0.52493
 H259 H 0.22728 -0.04406 0.50982
 H260 H 0.23381 0.04486 0.49211
 H261 H 0.26549 0.00664 0.45515
 H262 H 0.27180 -0.00814 0.54482
 H263 H 0.15160 0.00275 0.50303
 H264 H 0.34758 -0.00321 0.49798
 C265 C 0.77844 -0.02530 0.50278
 C266 C 0.76528 0.00031 0.49892
 C267 C 0.78197 0.02518 0.49415
 C268 C 0.81168 0.02451 0.49356
 C269 C 0.82468 -0.00116 0.49710
 C270 C 0.80809 -0.02610 0.50155
 C271 C 0.73408 0.00111 0.49987
 C272 C 0.72097 -0.00360 0.52536
 C273 C 0.69133 -0.00252 0.52632
 C274 C 0.67467 0.00263 0.50164
 C275 C 0.68762 0.00702 0.47608
 C276 C 0.71733 0.00658 0.47528
 H277 H 0.76559 -0.04459 0.50627
 H278 H 0.77188 0.04505 0.49140
 H279 H 0.73387 -0.00764 0.54445
 H280 H 0.72738 0.00998 0.45550
 H281 H 0.84768 -0.00172 0.49644
 H282 H 0.65167 0.00317 0.50231
 C283 C 0.52428 0.28240 0.99348
 C284 C 0.49969 0.26566 0.99902
 C285 C 0.47419 0.27879 1.00364
 C286 C 0.47322 0.30843 1.00242
 C287 C 0.49790 0.32507 0.99721
 C288 C 0.52347 0.31211 0.99291
 C289 C 0.50066 0.23446 0.99997
 C290 C 0.49606 0.22137 1.02548
 C291 C 0.49730 0.19174 1.02644
 C292 C 0.50250 0.17506 1.00174
 C293 C 0.50677 0.18799 0.97616
 C294 C 0.50618 0.21769 0.97536
 H295 H 0.54407 0.27235 0.99015
 H296 H 0.45511 0.26590 1.00773
 H297 H 0.49199 0.23428 1.04459
 H298 H 0.50949 0.22771 0.95556
 H299 H 0.49723 0.34806 0.99657
 H300 H 0.50316 0.15207 1.00241
 C301 C 0.52545 0.72139 -0.00206
 C302 C 0.49981 0.73455 0.00168
 C303 C 0.47489 0.71785 0.00623
 C304 C 0.47553 0.68813 0.00672
 C305 C 0.50122 0.67512 0.00328
 C306 C 0.52621 0.69173 -0.00096
 C307 C 0.49905 0.76575 0.00084
 C308 C 0.50282 0.77879 -0.02485
 C309 C 0.50176 0.80845 -0.02569
 C310 C 0.49754 0.82518 -0.00073
 C311 C 0.49408 0.81229 0.02501
 C312 C 0.49452 0.78257 0.02573
 H313 H 0.54478 0.73427 -0.00540
 H314 H 0.45501 0.72795 0.00891
 H315 H 0.50613 0.76582 -0.04415
 H316 H 0.49182 0.77257 0.04565
 H317 H 0.50176 0.65211 0.00386
 H318 H 0.49700 0.84819 -0.00132
 C319 C 0.99525 0.52431 0.28223
 C320 C 0.99979 0.49937 0.26550
 C321 C 1.00356 0.47374 0.27863
 C322 C 1.00247 0.47299 0.30830
 C323 C 0.99823 0.49800 0.32494
 C324 C 0.99477 0.52369 0.31196
 C325 C 1.00053 0.50011 0.23428
 C326 C 1.02616 0.49635 0.22109
 C327 C 1.02690 0.49742 0.19142
 C328 C 1.00189 0.50163 0.17483
 C329 C 0.97621 0.50508 0.18787
 C330 C 0.97560 0.50462 0.21760
 H331 H 0.99254 0.54418 0.27215
 H332 H 1.00687 0.45439 0.26572
 H333 H 1.04550 0.49306 0.23396
 H334 H 0.95573 0.50732 0.22772
 H335 H 0.99765 0.49748 0.34795
 H336 H 1.00241 0.50219 0.15182
 C337 C -0.00371 0.52572 0.72132
 C338 C 0.00089 0.50020 0.73438
 C339 C 0.00641 0.47561 0.71757
 C340 C 0.00699 0.47645 0.68786
 C341 C 0.00270 0.50205 0.67497
 C342 C -0.00249 0.52672 0.69168
 C343 C -0.00008 0.49920 0.76557
 C344 C -0.02558 0.50379 0.77871
 C345 C -0.02657 0.50253 0.80834
 C346 C -0.00190 0.49730 0.82497
 C347 C 0.02367 0.49303 0.81200
 C348 C 0.02450 0.49365 0.78230
 H349 H -0.00779 0.54481 0.73426
 H350 H 0.00973 0.45580 0.72755
 H351 H -0.04467 0.50789 0.76583
 H352 H 0.04430 0.49034 0.77225
 H353 H 0.00334 0.50274 0.65198
 H354 H -0.00259 0.49662 0.84796
 C355 C 0.10703 0.16519 0.48338
 C356 C 0.12197 0.14530 0.48464
 C357 C 0.13836 0.12123 0.48646
 C358 C 0.15152 0.10014 0.48834
 C359 C 0.16606 0.07495 0.49097
 C360 C 0.17784 0.05311 0.49361
 C361 C 0.66406 0.60584 -0.00967
 C362 C 0.64439 0.62111 -0.00920
 C363 C 0.62053 0.63789 -0.00831
 C364 C 0.59959 0.65136 -0.00721
 C365 C 0.57448 0.66622 -0.00551
 C366 C 0.55265 0.67819 -0.00367
 C367 C 0.89389 -0.16400 0.51026
 C368 C 0.87864 -0.14431 0.50984
 C369 C 0.86187 -0.12044 0.50898
 C370 C 0.84841 -0.09948 0.50790
 C371 C 0.83358 -0.07437 0.50619
 C372 C 0.82161 -0.05254 0.50432
 C373 C 0.33475 0.39270 1.01597
 C374 C 0.35464 0.37777 1.01474
 C375 C 0.37871 0.36137 1.01296
 C376 C 0.39980 0.34820 1.01113
 C377 C 0.42501 0.33365 1.00858
 C378 C 0.44685 0.32186 1.00600
 C379 C 0.91647 0.16023 0.48364
 C380 C 0.89874 0.14055 0.48374
 C381 C 0.87883 0.11687 0.48451
 C382 C 0.86251 0.09621 0.48572
 C383 C 0.84414 0.07158 0.48779
 C384 C 0.82904 0.05025 0.49011
 C385 C 0.33970 0.58332 0.01595
 C386 C 0.35939 0.60104 0.01592
 C387 C 0.38308 0.62095 0.01524
 C388 C 0.40375 0.63728 0.01413
 C389 C 0.42840 0.65565 0.01219
 C390 C 0.44975 0.67075 0.01000
 C391 C 0.08439 -0.15965 0.52100
 C392 C 0.10162 -0.13963 0.52026
 C393 C 0.12105 -0.11569 0.51873
 C394 C 0.13705 -0.09491 0.51687
 C395 C 0.15516 -0.07026 0.51404
 C396 C 0.17015 -0.04901 0.51108
 C397 C 0.65968 0.41523 0.97898
 C398 C 0.63966 0.39800 0.97967
 C399 C 0.61571 0.37857 0.98115
 C400 C 0.59493 0.36256 0.98297
 C401 C 0.57027 0.34446 0.98576
 C402 C 0.54901 0.32948 0.98871
 C403 C 0.48399 0.10733 1.16476
 C404 C 0.48519 0.12231 1.14492
 C405 C 0.48692 0.13876 1.12090
 C406 C 0.48871 0.15197 1.09984
 C407 C 0.49122 0.16654 1.07466
 C408 C 0.49376 0.17833 1.05282
 C409 C -0.01601 0.66511 0.60745
 C410 C -0.01479 0.64526 0.62242
 C411 C -0.01302 0.62122 0.63884
 C412 C -0.01119 0.60015 0.65202
 C413 C -0.00864 0.57496 0.66655
 C414 C -0.00607 0.55311 0.67832
 C415 C 0.51023 0.89376 -0.16385
 C416 C 0.50984 0.87856 -0.14413
 C417 C 0.50902 0.86187 -0.12022
 C418 C 0.50797 0.84848 -0.09922
 C419 C 0.50630 0.83374 -0.07406
 C420 C 0.50447 0.82187 -0.05218
 C421 C 1.01049 0.33529 0.39432
 C422 C 1.01019 0.35491 0.37900
 C423 C 1.00946 0.37872 0.36216
 C424 C 1.00848 0.39964 0.34866
 C425 C 1.00690 0.42473 0.33379
 C426 C 1.00513 0.44655 0.32181
 C427 C 0.48471 0.91773 0.16058
 C428 C 0.48478 0.89991 0.14093
 C429 C 0.48549 0.87989 0.11730
 C430 C 0.48663 0.86347 0.09667
 C431 C 0.48860 0.84498 0.07207
 C432 C 0.49080 0.82979 0.05075
 C433 C 0.02081 0.34048 0.58408
 C434 C 0.02011 0.36045 0.60143
 C435 C 0.01864 0.38433 0.62099
 C436 C 0.01684 0.40507 0.63711
 C437 C 0.01408 0.42969 0.65533
 C438 C 0.01116 0.45092 0.67041
 C439 C 0.52075 0.08441 0.84008
 C440 C 0.52003 0.10174 0.86006
 C441 C 0.51854 0.12127 0.88396
 C442 C 0.51670 0.13735 0.90471
 C443 C 0.51391 0.15554 0.92935
 C444 C 0.51097 0.17058 0.95061
 C445 C 0.98487 0.65961 0.41679
 C446 C 0.98505 0.63989 0.39908
 C447 C 0.98588 0.61618 0.37917
 C448 C 0.98711 0.59549 0.36285
 C449 C 0.98916 0.57083 0.34447
 C450 C 0.99144 0.54947 0.32936
 C451 C 1.16456 0.48932 0.10513
 C452 C 1.14494 0.48965 0.12048
 C453 C 1.12113 0.49039 0.13736
 C454 C 1.10022 0.49138 0.15090
 C455 C 1.07514 0.49298 0.16583
 C456 C 1.05333 0.49476 0.17785
 C457 C 0.60704 -0.01636 0.66478
 C458 C 0.62198 -0.01512 0.64489
 C459 C 0.63838 -0.01331 0.62081
 C460 C 0.65156 -0.01143 0.59973
 C461 C 0.66611 -0.00881 0.57453
 C462 C 0.67790 -0.00618 0.55269
 C463 C -0.16498 0.51584 0.89281
 C464 C -0.14511 0.51465 0.87782
 C465 C -0.12106 0.51292 0.86137
 C466 C -0.09999 0.51113 0.84817
 C467 C -0.07479 0.50861 0.83359
 C468 C -0.05295 0.50607 0.82178
 C469 C 0.39386 0.01034 0.33570
 C470 C 0.37859 0.00996 0.35538
 C471 C 0.36180 0.00915 0.37925
 C472 C 0.34833 0.00812 0.40021
 C473 C 0.33348 0.00646 0.42533
 C474 C 0.32151 0.00463 0.44717
 C475 C 0.15960 0.47897 0.91540
 C476 C 0.13964 0.47969 0.89810
 C477 C 0.11577 0.48120 0.87860
 C478 C 0.09504 0.48304 0.86254
 C479 C 0.07043 0.48586 0.84438
 C480 C 0.04920 0.48881 0.82938
 C481 C 0.58444 0.02095 0.33994
 C482 C 0.60168 0.02023 0.35995
 C483 C 0.62112 0.01873 0.38388
 C484 C 0.63714 0.01690 0.40465
 C485 C 0.65525 0.01411 0.42929
 C486 C 0.67024 0.01118 0.45054
 C487 C 0.84029 0.51478 0.08335
 C488 C 0.86001 0.51463 0.10102
 C489 C 0.88372 0.51383 0.12087
 C490 C 0.90441 0.51263 0.13714
 C491 C 0.92907 0.51061 0.15546
 C492 C 0.95043 0.50838 0.17052
 C493 C 0.41643 -0.01597 0.65987
 C494 C 0.39870 -0.01586 0.64020
 C495 C 0.37877 -0.01508 0.61654
 C496 C 0.36244 -0.01386 0.59590
 C497 C 0.34406 -0.01179 0.57129
 C498 C 0.32896 -0.00947 0.54997
   
