data_POSCAR
  _audit_creation_date              2014-09-24
  _audit_creation_method            'ToBaCCo'
  _symmetry_space_group_name_H-M    'P1'
  _symmetry_Int_Tables_number       1
  _symmetry_cell_setting            triclinic
  loop_
  _symmetry_equiv_pos_as_xyz
 x,y,z
_cell_length_a 29.2215
_cell_length_b 29.2432
_cell_length_c 21.2819
_cell_angle_alpha 89.543300
_cell_angle_beta 90.375300
_cell_angle_gamma 90.144200
loop_
  _atom_site_label
  _atom_site_type_symbol
  _atom_site_fract_x
  _atom_site_fract_y
  _atom_site_fract_z
C1 C 1.28735 0.20644 0.28138
 C2 C 1.25075 0.23056 0.25487
 C3 C 1.21406 0.20693 0.22808
 C4 C 1.21396 0.15908 0.22635
 C5 C 1.25051 0.13481 0.25420
 C6 C 1.28731 0.15845 0.28249
 C7 C 1.25109 0.28077 0.25451
 C8 C 1.28735 0.30455 0.22675
 C9 C 1.28760 0.35244 0.22470
 C10 C 1.25142 0.37659 0.25269
 C11 C 1.21517 0.35269 0.28146
 C12 C 1.21502 0.30487 0.28139
 H13 H 1.31527 0.22564 0.30190
 H14 H 1.18622 0.22627 0.20744
 H15 H 1.31485 0.28559 0.20508
 H16 H 1.18722 0.28632 0.30357
 H17 H 1.25031 0.09775 0.25371
 H18 H 1.25130 0.41355 0.25206
 C19 C 0.78696 -0.29845 0.27211
 C20 C 0.74978 -0.27661 0.24344
 C21 C 0.71451 -0.30248 0.21694
 C22 C 0.71640 -0.35025 0.21794
 C23 C 0.75366 -0.37229 0.24764
 C24 C 0.78898 -0.34631 0.27571
 C25 C 0.74737 -0.22649 0.24296
 C26 C 0.78309 -0.20065 0.21749
 C27 C 0.78170 -0.15287 0.21853
 C28 C 0.74444 -0.13084 0.24681
 C29 C 0.70875 -0.15677 0.27355
 C30 C 0.71016 -0.20455 0.27035
 H31 H 0.81353 -0.27755 0.29286
 H32 H 0.68589 -0.28531 0.19434
 H33 H 0.81181 -0.21781 0.19600
 H34 H 0.68316 -0.22508 0.29074
 H35 H 0.75510 -0.40928 0.24932
 H36 H 0.74327 -0.09388 0.24870
 C37 C 0.78897 0.20043 -0.23033
 C38 C 0.75209 0.22377 -0.25773
 C39 C 0.71590 0.19912 -0.28456
 C40 C 0.71648 0.15127 -0.28455
 C41 C 0.75333 0.12798 -0.25621
 C42 C 0.78953 0.15260 -0.22857
 C43 C 0.75065 0.27399 -0.25642
 C44 C 0.78654 0.29975 -0.28170
 C45 C 0.78527 0.34767 -0.28092
 C46 C 0.74788 0.36971 -0.25257
 C47 C 0.71210 0.34385 -0.22589
 C48 C 0.71350 0.29607 -0.22902
 H49 H 0.81653 0.21952 -0.20836
 H50 H 0.68749 0.21722 -0.30624
 H51 H 0.81505 0.28236 -0.30341
 H52 H 0.68628 0.27561 -0.20904
 H53 H 0.75364 0.09104 -0.25523
 H54 H 0.74641 0.40665 -0.25083
 C55 C 1.28592 -0.29538 -0.21776
 C56 C 1.24901 -0.27133 -0.24333
 C57 C 1.21231 -0.29489 -0.27001
 C58 C 1.21256 -0.34267 -0.27278
 C59 C 1.24946 -0.36699 -0.24580
 C60 C 1.28628 -0.34332 -0.21751
 C61 C 1.24931 -0.22122 -0.24335
 C62 C 1.28572 -0.19745 -0.27065
 C63 C 1.28599 -0.14969 -0.27209
 C64 C 1.24996 -0.12550 -0.24442
 C65 C 1.21358 -0.14936 -0.21621
 C66 C 1.21320 -0.19716 -0.21654
 H67 H 1.31383 -0.27611 -0.19739
 H68 H 1.18425 -0.27548 -0.28995
 H69 H 1.31331 -0.21618 -0.29241
 H70 H 1.18527 -0.21568 -0.19462
 H71 H 1.24956 -0.40403 -0.24706
 H72 H 1.25020 -0.08855 -0.24497
 C73 C 0.20361 0.28304 0.72311
 C74 C 0.22642 0.24601 0.75076
 C75 C 0.20137 0.21031 0.77796
 C76 C 0.15340 0.21179 0.77895
 C77 C 0.13060 0.24911 0.75037
 C78 C 0.15576 0.28470 0.72187
 C79 C 0.27669 0.24543 0.75219
 C80 C 0.30066 0.28194 0.77898
 C81 C 0.34858 0.28255 0.77963
 C82 C 0.37256 0.24636 0.75167
 C83 C 0.34858 0.20981 0.72402
 C84 C 0.30069 0.20929 0.72529
 H85 H 0.22359 0.31022 0.70205
 H86 H 0.21936 0.18204 0.80021
 H87 H 0.28183 0.30967 0.80029
 H88 H 0.28205 0.18145 0.70346
 H89 H 0.09361 0.25087 0.75026
 H90 H 0.40952 0.24664 0.75101
 C91 C 0.69922 0.78591 0.72017
 C92 C 0.72488 0.75038 0.74675
 C93 C 0.70275 0.71303 0.77446
 C94 C 0.65484 0.71104 0.77685
 C95 C 0.62909 0.74658 0.74877
 C96 C 0.65130 0.78413 0.72004
 C97 C 0.77510 0.75247 0.74663
 C98 C 0.79774 0.78927 0.77461
 C99 C 0.84564 0.79061 0.77757
 C100 C 0.87094 0.75512 0.74994
 C101 C 0.84816 0.71826 0.72092
 C102 C 0.80032 0.71704 0.72026
 H103 H 0.71674 0.81456 0.69822
 H104 H 0.72342 0.68620 0.79521
 H105 H 0.77761 0.81607 0.79550
 H106 H 0.78259 0.68871 0.69817
 H107 H 0.59208 0.74487 0.74966
 H108 H 0.90796 0.75618 0.75151
 C109 C 0.70054 0.28446 0.21973
 C110 C 0.72576 0.24876 0.24662
 C111 C 0.70320 0.21137 0.27352
 C112 C 0.65535 0.20969 0.27467
 C113 C 0.63003 0.24534 0.24662
 C114 C 0.65273 0.28277 0.21883
 C115 C 0.77588 0.25077 0.24772
 C116 C 0.79818 0.28783 0.27546
 C117 C 0.84601 0.28928 0.27897
 C118 C 0.87162 0.25372 0.25223
 C119 C 0.84915 0.21662 0.22357
 C120 C 0.80135 0.21518 0.22232
 H121 H 0.71820 0.31321 0.19829
 H122 H 0.72328 0.18432 0.29483
 H123 H 0.77785 0.31479 0.29557
 H124 H 0.78386 0.18668 0.20028
 H125 H 0.59302 0.24388 0.24684
 H126 H 0.90863 0.25496 0.25410
 C127 C 0.20270 0.78284 0.22016
 C128 C 0.22535 0.74559 0.24745
 C129 C 0.20020 0.71005 0.27477
 C130 C 0.15227 0.71190 0.27631
 C131 C 0.12956 0.74943 0.24809
 C132 C 0.15477 0.78498 0.21932
 C133 C 0.27562 0.74489 0.24904
 C134 C 0.29952 0.78124 0.27632
 C135 C 0.34733 0.78175 0.27723
 C136 C 0.37149 0.74579 0.24930
 C137 C 0.34766 0.70936 0.22113
 C138 C 0.29973 0.70884 0.22198
 H139 H 0.22302 0.80983 0.19926
 H140 H 0.21811 0.68166 0.29685
 H141 H 0.28080 0.80895 0.29780
 H142 H 0.28117 0.68110 0.19979
 H143 H 0.09257 0.75135 0.24861
 H144 H 0.40846 0.74631 0.24914
 O145 O 1.07792 0.02535 0.08447
 O146 O 0.92150 -0.02171 0.08086
 O147 O 0.97760 0.07959 0.08165
 O148 O 1.02315 -0.07682 0.08395
 O149 O 0.91380 0.05542 0.04691
 O150 O 1.08700 -0.05145 0.05140
 O151 O 0.94621 -0.08529 0.04782
 O152 O 1.05430 0.08885 0.04846
 C153 C 1.07742 0.06717 0.08820
 C154 C 0.92207 -0.06358 0.08552
 C155 C 0.93577 0.07875 0.08587
 C156 C 1.06502 -0.07592 0.08912
 O157 O 1.07906 -0.02191 -0.07047
 O158 O 0.92370 0.02634 -0.07475
 O159 O 1.02498 0.07945 -0.07334
 O160 O 0.97696 -0.07634 -0.07272
 O161 O 0.91336 -0.05047 -0.04107
 O162 O 1.08838 0.05479 -0.03786
 O163 O 1.05345 -0.08552 -0.03674
 O164 O 0.94823 0.08966 -0.04022
 Co165 Co 1.07490 0.00177 0.00682
 Co166 Co 0.92627 0.00239 0.00318
 Co167 Co 1.00121 0.07608 0.00421
 Co168 Co 1.00001 -0.07273 0.00559
 O169 O 1.00058 0.00183 0.00499
 C170 C 1.07730 -0.06367 -0.07519
 C171 C 0.92514 0.06812 -0.07977
 C172 C 1.06683 0.07821 -0.07754
 C173 C 0.93521 -0.07452 -0.07881
 O174 O 1.07727 0.52524 0.58248
 O175 O 0.92102 0.47829 0.58001
 O176 O 0.97622 0.57994 0.57962
 O177 O 1.02354 0.42389 0.58222
 O178 O 0.91256 0.55549 0.54496
 O179 O 1.08712 0.44880 0.54860
 O180 O 0.94658 0.41479 0.54745
 O181 O 1.05308 0.58887 0.54732
 C182 C 1.07632 0.56700 0.58682
 C183 C 0.92222 0.43642 0.58509
 C184 C 0.93436 0.57929 0.58357
 C185 C 1.06539 0.42468 0.58694
 O186 O 1.07832 0.47890 0.42710
 O187 O 0.92232 0.52545 0.42389
 O188 O 1.02421 0.57957 0.42491
 O189 O 0.97647 0.42380 0.42619
 O190 O 0.91279 0.44886 0.45876
 O191 O 1.08765 0.55553 0.46079
 O192 O 1.05327 0.41504 0.46067
 O193 O 0.94725 0.58903 0.45722
 Co194 Co 1.07430 0.50216 0.50470
 Co195 Co 0.92543 0.50208 0.50205
 Co196 Co 1.00019 0.57617 0.50234
 Co197 Co 0.99998 0.42756 0.50412
 O198 O 0.99995 0.50194 0.50335
 C199 C 1.07712 0.43711 0.42230
 C200 C 0.92359 0.56719 0.41849
 C201 C 1.06606 0.57869 0.42092
 C202 C 0.93468 0.42517 0.42070
 O203 O 0.57768 0.02099 0.57524
 O204 O 0.42094 -0.02478 0.57555
 O205 O 0.47618 0.07620 0.57445
 O206 O 0.52214 -0.08020 0.57690
 O207 O 0.41220 0.05168 0.54062
 O208 O 0.58580 -0.05618 0.54234
 O209 O 0.44507 -0.08870 0.54302
 O210 O 0.55305 0.08461 0.54026
 C211 C 0.57690 0.06288 0.57916
 C212 C 0.42213 -0.06649 0.58151
 C213 C 0.43433 0.07496 0.57938
 C214 C 0.56404 -0.07967 0.58139
 O215 O 0.57601 -0.02657 0.42038
 O216 O 0.42061 0.02198 0.41926
 O217 O 0.52283 0.07532 0.41896
 O218 O 0.47411 -0.07999 0.42134
 O219 O 0.41076 -0.05489 0.45467
 O220 O 0.58630 0.04991 0.45331
 O221 O 0.55085 -0.08988 0.45523
 O222 O 0.44640 0.08521 0.45284
 Co223 Co 0.57320 -0.00294 0.49783
 Co224 Co 0.42438 -0.00158 0.49747
 Co225 Co 0.49956 0.07210 0.49674
 Co226 Co 0.49811 -0.07648 0.49903
 O227 O 0.49880 -0.00222 0.49787
 C228 C 0.57430 -0.06831 0.41601
 C229 C 0.42207 0.06382 0.41448
 C230 C 0.56460 0.07363 0.41425
 C231 C 0.43228 -0.07879 0.41647
 O232 O 0.57900 0.52034 0.07290
 O233 O 0.42191 0.47556 0.07379
 O234 O 0.47652 0.57624 0.07240
 O235 O 0.52338 0.42025 0.07395
 O236 O 0.41276 0.55192 0.03773
 O237 O 0.58693 0.44371 0.03849
 O238 O 0.44615 0.41157 0.04159
 O239 O 0.55382 0.58433 0.03969
 C240 C 0.57798 0.56214 0.07792
 C241 C 0.42293 0.43383 0.07987
 C242 C 0.43464 0.57512 0.07679
 C243 C 0.56526 0.42065 0.07801
 O244 O 0.57683 0.47421 -0.08274
 O245 O 0.42140 0.52158 -0.08285
 O246 O 0.52428 0.57600 -0.08260
 O247 O 0.47449 0.42059 -0.08103
 O248 O 0.41129 0.44486 -0.04658
 O249 O 0.58764 0.55076 -0.04809
 O250 O 0.55136 0.41074 -0.04845
 O251 O 0.44758 0.58502 -0.04997
 Co252 Co 0.57426 0.49728 -0.00490
 Co253 Co 0.42521 0.49842 -0.00456
 Co254 Co 0.50049 0.57230 -0.00506
 Co255 Co 0.49893 0.42392 -0.00356
 O256 O 0.49972 0.49800 -0.00443
 C257 C 0.57517 0.43243 -0.08729
 C258 C 0.42303 0.56340 -0.08796
 C259 C 0.56608 0.57490 -0.08682
 C260 C 0.43263 0.42117 -0.08514
 C261 C 1.14707 0.12314 0.09951
 C262 C 1.13818 0.15776 0.15237
 C263 C 1.17596 0.13447 0.19229
 C264 C 1.18492 0.10006 0.13951
 C265 C 1.14041 0.10206 0.22198
 C266 C 1.10224 0.12510 0.18161
 C267 C 1.11147 0.09087 0.12900
 C268 C 1.14902 0.06735 0.16866
 H269 H 1.14950 0.13168 0.04869
 H270 H 1.13251 0.19479 0.14387
 H271 H 1.21916 0.08989 0.12223
 H272 H 1.13808 0.09355 0.27277
 H273 H 1.06787 0.13512 0.19855
 H274 H 1.15306 0.02986 0.17509
 C275 C 1.14592 0.62287 0.59948
 C276 C 1.13699 0.65690 0.65304
 C277 C 1.17463 0.63305 0.69264
 C278 C 1.18362 0.59924 0.63916
 C279 C 1.13892 0.60045 0.72151
 C280 C 1.10090 0.62404 0.68146
 C281 C 1.11016 0.59042 0.62816
 C282 C 1.14757 0.56634 0.66749
 H283 H 1.14847 0.63197 0.54885
 H284 H 1.13136 0.69400 0.64515
 H285 H 1.21786 0.58915 0.62184
 H286 H 1.13646 0.59136 0.77211
 H287 H 1.06651 0.63397 0.69843
 H288 H 1.15148 0.52878 0.67315
 C289 C 0.66279 0.08087 0.60556
 C290 C 0.66916 0.13301 0.61212
 C291 C 0.67831 0.12618 0.68285
 C292 C 0.67214 0.07412 0.67658
 C293 C 0.62696 0.13194 0.69677
 C294 C 0.61754 0.13850 0.62549
 C295 C 0.61147 0.08652 0.61930
 C296 C 0.62033 0.07950 0.68995
 H297 H 0.67768 0.05996 0.56757
 H298 H 0.68962 0.15501 0.58007
 H299 H 0.69434 0.04709 0.69718
 H300 H 0.61260 0.15319 0.73483
 H301 H 0.59474 0.16479 0.60428
 H302 H 0.59970 0.05739 0.72161
 C303 C 0.66397 0.57946 0.10611
 C304 C 0.67040 0.63150 0.11377
 C305 C 0.67898 0.62396 0.18456
 C306 C 0.67280 0.57202 0.17721
 C307 C 0.62748 0.62968 0.19767
 C308 C 0.61869 0.63701 0.12640
 C309 C 0.61250 0.58516 0.11906
 C310 C 0.62082 0.57735 0.18975
 H311 H 0.67910 0.55891 0.06793
 H312 H 0.69118 0.65372 0.08240
 H313 H 0.69501 0.54501 0.19786
 H314 H 0.61279 0.65052 0.23592
 H315 H 0.59617 0.66362 0.10535
 H316 H 0.59985 0.55501 0.22069
 C317 C 0.83578 -0.08110 0.10978
 C318 C 0.82921 -0.13326 0.11661
 C319 C 0.81969 -0.12689 0.18704
 C320 C 0.82600 -0.07484 0.18051
 C321 C 0.87096 -0.13291 0.20242
 C322 C 0.88072 -0.13904 0.13150
 C323 C 0.88702 -0.08708 0.12498
 C324 C 0.87777 -0.08046 0.19533
 H325 H 0.82112 -0.05993 0.07118
 H326 H 0.80886 -0.15494 0.08416
 H327 H 0.80358 -0.04810 0.20040
 H328 H 0.88506 -0.15444 0.24109
 H329 H 0.90353 -0.16530 0.11118
 H330 H 0.89833 -0.05865 0.22737
 C331 C 0.83622 0.41842 0.61096
 C332 C 0.82985 0.36621 0.61776
 C333 C 0.82099 0.37246 0.68841
 C334 C 0.82707 0.42458 0.68190
 C335 C 0.87243 0.36659 0.70289
 C336 C 0.88154 0.36061 0.63172
 C337 C 0.88763 0.41262 0.62520
 C338 C 0.87901 0.41910 0.69575
 H339 H 0.82114 0.43961 0.57269
 H340 H 0.80932 0.34454 0.58549
 H341 H 0.80502 0.45152 0.70205
 H342 H 0.88706 0.34509 0.74122
 H343 H 0.90423 0.33445 0.61094
 H344 H 0.89978 0.44093 0.72750
 C345 C 0.38264 -0.08056 0.69469
 C346 C 0.33056 -0.07419 0.68339
 C347 C 0.32356 -0.12590 0.69293
 C348 C 0.37517 -0.13267 0.70483
 C349 C 0.33008 -0.13431 0.62228
 C350 C 0.33729 -0.08251 0.61246
 C351 C 0.38888 -0.08916 0.62415
 C352 C 0.38197 -0.14080 0.63359
 H353 H 0.40489 -0.05835 0.72398
 H354 H 0.30963 -0.04636 0.70352
 H355 H 0.39030 -0.15350 0.74349
 H356 H 0.30800 -0.15640 0.59256
 H357 H 0.32159 -0.06200 0.57395
 H358 H 0.40349 -0.16795 0.61283
 C359 C 0.38271 0.42005 0.19293
 C360 C 0.33066 0.42669 0.18134
 C361 C 0.32330 0.37501 0.19108
 C362 C 0.37488 0.36800 0.20333
 C363 C 0.33005 0.36639 0.12047
 C364 C 0.33765 0.41816 0.11045
 C365 C 0.38922 0.41126 0.12243
 C366 C 0.38191 0.35967 0.13212
 H367 H 0.40495 0.44217 0.22236
 H368 H 0.31003 0.45493 0.20098
 H369 H 0.38990 0.34722 0.24213
 H370 H 0.30801 0.34442 0.09053
 H371 H 0.32212 0.43863 0.07178
 H372 H 0.40330 0.33230 0.11168
 C373 C 0.88600 0.08344 -0.19361
 C374 C 0.83385 0.07716 -0.18361
 C375 C 0.82721 0.12897 -0.19278
 C376 C 0.87893 0.13564 -0.20335
 C377 C 0.83362 0.13690 -0.12186
 C378 C 0.84043 0.08500 -0.11244
 C379 C 0.89212 0.09152 -0.12278
 C380 C 0.88563 0.14326 -0.13181
 H381 H 0.90812 0.06135 -0.22271
 H382 H 0.81293 0.04937 -0.20447
 H383 H 0.89438 0.15666 -0.24137
 H384 H 0.81165 0.15887 -0.09237
 H385 H 0.82434 0.06434 -0.07461
 H386 H 0.90727 0.17023 -0.11023
 C387 C 0.85400 0.62306 0.40367
 C388 C 0.86287 0.65661 0.34865
 C389 C 0.82527 0.63203 0.31004
 C390 C 0.81632 0.59875 0.36497
 C391 C 0.86106 0.59937 0.28257
 C392 C 0.89904 0.62362 0.32167
 C393 C 0.88982 0.59052 0.37641
 C394 C 0.85246 0.56582 0.33803
 H395 H 0.85143 0.63269 0.45391
 H396 H 0.86871 0.69378 0.35506
 H397 H 0.78214 0.58856 0.38281
 H398 H 0.86363 0.58969 0.23239
 H399 H 0.93341 0.63360 0.30429
 H400 H 0.84856 0.52818 0.33393
 C401 C 0.35358 0.12084 0.40547
 C402 C 0.36245 0.15612 0.35259
 C403 C 0.32335 0.13421 0.31384
 C404 C 0.31440 0.09915 0.36666
 C405 C 0.35747 0.10152 0.28265
 C406 C 0.39694 0.12315 0.32188
 C407 C 0.38779 0.08828 0.37454
 C408 C 0.34893 0.06615 0.33607
 H409 H 0.35227 0.12863 0.45642
 H410 H 0.36959 0.19277 0.36151
 H411 H 0.28028 0.08941 0.38518
 H412 H 0.35871 0.09373 0.23173
 H413 H 0.43124 0.13268 0.30378
 H414 H 0.34383 0.02885 0.32954
 C415 C 0.35390 0.61944 -0.09591
 C416 C 0.36191 0.65500 -0.14865
 C417 C 0.32281 0.63265 -0.18701
 C418 C 0.31476 0.59732 -0.13430
 C419 C 0.35717 0.60060 -0.21891
 C420 C 0.39663 0.62266 -0.18008
 C421 C 0.38836 0.58753 -0.12751
 C422 C 0.34953 0.56494 -0.16558
 H423 H 0.35286 0.62707 -0.04488
 H424 H 0.36876 0.69166 -0.13940
 H425 H 0.28091 0.58702 -0.11538
 H426 H 0.35812 0.59299 -0.26989
 H427 H 0.43065 0.63275 -0.19857
 H428 H 0.34494 0.52760 -0.17228
 C429 C 1.11787 -0.07893 -0.18695
 C430 C 1.16993 -0.07319 -0.17477
 C431 C 1.17610 -0.12505 -0.18245
 C432 C 1.12449 -0.13119 -0.19519
 C433 C 1.16866 -0.13293 -0.11167
 C434 C 1.16228 -0.08096 -0.10372
 C435 C 1.11072 -0.08698 -0.11628
 C436 C 1.11677 -0.13877 -0.12384
 H437 H 1.09636 -0.05661 -0.21745
 H438 H 1.19154 -0.04572 -0.19533
 H439 H 1.10939 -0.15207 -0.23345
 H440 H 1.18999 -0.15512 -0.08076
 H441 H 1.17791 -0.06040 -0.06557
 H442 H 1.09453 -0.16549 -0.10262
 C443 C 1.11855 0.42237 0.31061
 C444 C 1.17054 0.42863 0.32309
 C445 C 1.17735 0.37685 0.31528
 C446 C 1.12581 0.37020 0.30226
 C447 C 1.16969 0.36883 0.38602
 C448 C 1.16267 0.42071 0.39409
 C449 C 1.11115 0.41416 0.38126
 C450 C 1.11788 0.36244 0.37354
 H451 H 1.09695 0.44446 0.27993
 H452 H 1.19198 0.45632 0.30272
 H453 H 1.11100 0.34924 0.26388
 H454 H 1.19112 0.34685 0.41709
 H455 H 1.17802 0.44134 0.43236
 H456 H 1.09591 0.33540 0.39450
 C457 C 0.64277 -0.12539 0.40218
 C458 C 0.63316 -0.15827 0.34717
 C459 C 0.67082 -0.13386 0.30882
 C460 C 0.68052 -0.10124 0.36368
 C461 C 0.63536 -0.10042 0.28097
 C462 C 0.59728 -0.12451 0.31982
 C463 C 0.60731 -0.09205 0.37449
 C464 C 0.64479 -0.06754 0.33631
 H465 H 0.64547 -0.13552 0.45248
 H466 H 0.62734 -0.19555 0.35303
 H467 H 0.71499 -0.09177 0.38163
 H468 H 0.63273 -0.09028 0.23070
 H469 H 0.56266 -0.13380 0.30226
 H470 H 0.64924 -0.02992 0.33208
 C471 C 0.64429 0.37583 -0.09905
 C472 C 0.63564 0.34247 -0.15380
 C473 C 0.67363 0.36687 -0.19160
 C474 C 0.68236 0.39997 -0.13698
 C475 C 0.63823 0.39984 -0.22071
 C476 C 0.59983 0.37575 -0.18243
 C477 C 0.60888 0.40871 -0.12800
 C478 C 0.64668 0.43321 -0.16563
 H479 H 0.64646 0.36606 -0.04858
 H480 H 0.63005 0.30519 -0.14748
 H481 H 0.71651 0.40985 -0.11832
 H482 H 0.63614 0.40961 -0.27115
 H483 H 0.56553 0.36604 -0.20074
 H484 H 0.65090 0.47083 -0.17032
 C485 C 1.08259 0.11870 -0.19059
 C486 C 1.07738 0.17086 -0.17991
 C487 C 1.12941 0.17672 -0.18773
 C488 C 1.13498 0.12502 -0.19905
 C489 C 1.13708 0.16948 -0.11670
 C490 C 1.08496 0.16336 -0.10858
 C491 C 1.09046 0.11169 -0.11967
 C492 C 1.14237 0.11751 -0.12745
 H493 H 1.06010 0.09726 -0.22061
 H494 H 1.04999 0.19238 -0.20096
 H495 H 1.15570 0.10950 -0.23682
 H496 H 1.15942 0.19070 -0.08616
 H497 H 1.06452 0.17926 -0.07088
 H498 H 1.16891 0.09527 -0.10568
 C499 C 1.08136 0.61904 0.30773
 C500 C 1.07628 0.67124 0.31824
 C501 C 1.12827 0.67699 0.30996
 C502 C 1.13372 0.62526 0.29883
 C503 C 1.13623 0.66990 0.38097
 C504 C 1.08414 0.66387 0.38954
 C505 C 1.08953 0.61218 0.37863
 C506 C 1.14141 0.61790 0.37039
 H507 H 1.05871 0.59756 0.27799
 H508 H 1.04884 0.69275 0.29728
 H509 H 1.15425 0.60962 0.26095
 H510 H 1.15874 0.69117 0.41123
 H511 H 1.06387 0.67984 0.42737
 H512 H 1.16801 0.59568 0.39204
 C513 C 0.56469 0.14509 0.33450
 C514 C 0.59824 0.18038 0.36291
 C515 C 0.63163 0.17138 0.30889
 C516 C 0.59836 0.13639 0.27995
 C517 C 0.65529 0.13322 0.34759
 C518 C 0.62166 0.14214 0.40175
 C519 C 0.58849 0.10713 0.37301
 C520 C 0.62171 0.09779 0.31917
 H521 H 0.52712 0.14955 0.32939
 H522 H 0.58874 0.21460 0.38082
 H523 H 0.58898 0.13448 0.22942
 H524 H 0.69246 0.12722 0.35442
 H525 H 0.63107 0.14416 0.45231
 H526 H 0.63103 0.06343 0.30163
 C527 C 0.62263 0.64440 -0.09786
 C528 C 0.65661 0.63618 -0.15188
 C529 C 0.63271 0.67440 -0.19037
 C530 C 0.59900 0.68272 -0.13645
 C531 C 0.59991 0.63923 -0.21995
 C532 C 0.62348 0.60061 -0.18097
 C533 C 0.58993 0.60920 -0.12723
 C534 C 0.56592 0.64720 -0.16551
 H535 H 0.63183 0.64619 -0.04721
 H536 H 0.69372 0.63019 -0.14439
 H537 H 0.58901 0.71667 -0.11808
 H538 H 0.59066 0.63745 -0.27055
 H539 H 0.63325 0.56648 -0.19890
 H540 H 0.52834 0.65134 -0.17088
 C541 C 0.87896 -0.09799 -0.17599
 C542 C 0.90280 -0.13609 -0.21431
 C543 C 0.86923 -0.17154 -0.18687
 C544 C 0.84510 -0.13382 -0.14903
 C545 C 0.90197 -0.18111 -0.13144
 C546 C 0.93582 -0.14537 -0.15837
 C547 C 0.91153 -0.10786 -0.12073
 C548 C 0.87807 -0.14332 -0.09346
 H549 H 0.86974 -0.06345 -0.19392
 H550 H 0.91288 -0.13349 -0.26441
 H551 H 0.80786 -0.12786 -0.14363
 H552 H 0.91136 -0.21551 -0.11316
 H553 H 0.97343 -0.14978 -0.16199
 H554 H 0.86800 -0.14598 -0.04333
 C555 C 0.87812 0.35601 0.40711
 C556 C 0.84488 0.36504 0.35170
 C557 C 0.86924 0.32740 0.31404
 C558 C 0.90222 0.31829 0.36930
 C559 C 0.90240 0.36297 0.28606
 C560 C 0.87835 0.40102 0.32421
 C561 C 0.91117 0.39160 0.37929
 C562 C 0.93567 0.35416 0.34182
 H563 H 0.86827 0.35351 0.45735
 H564 H 0.80761 0.37065 0.35729
 H565 H 0.91193 0.28402 0.38775
 H566 H 0.91225 0.36541 0.23586
 H567 H 0.86881 0.43543 0.30611
 H568 H 0.97331 0.35008 0.33802
 C569 C 0.35706 -0.11996 0.36741
 C570 C 0.36472 -0.12859 0.29643
 C571 C 0.37131 -0.17993 0.31067
 C572 C 0.36334 -0.17160 0.38106
 C573 C 0.42314 -0.17289 0.31924
 C574 C 0.41695 -0.12110 0.30555
 C575 C 0.40883 -0.11304 0.37587
 C576 C 0.41528 -0.16436 0.38989
 H577 H 0.33007 -0.09785 0.38741
 H578 H 0.34372 -0.11428 0.25736
 H579 H 0.34134 -0.19280 0.41215
 H580 H 0.45085 -0.19438 0.29988
 H581 H 0.43908 -0.09976 0.27483
 H582 H 0.43585 -0.17942 0.42880
 C583 C 0.35735 0.37912 -0.13258
 C584 C 0.36441 0.37026 -0.20366
 C585 C 0.37153 0.31903 -0.18909
 C586 C 0.36414 0.32757 -0.11861
 C587 C 0.42341 0.32649 -0.18151
 C588 C 0.41667 0.37819 -0.19547
 C589 C 0.40915 0.38649 -0.12507
 C590 C 0.41612 0.33526 -0.11078
 H591 H 0.33039 0.40110 -0.11227
 H592 H 0.34296 0.38433 -0.24244
 H593 H 0.34263 0.30638 -0.08686
 H594 H 0.45137 0.30539 -0.20098
 H595 H 0.43834 0.39958 -0.22675
 H596 H 0.43711 0.32045 -0.07214
 C597 C 1.12015 -0.14614 0.09715
 C598 C 1.15553 -0.13910 0.15040
 C599 C 1.13208 -0.17780 0.18831
 C600 C 1.09694 -0.18493 0.13513
 C601 C 1.10047 -0.14289 0.21993
 C602 C 1.12362 -0.10380 0.18155
 C603 C 1.08864 -0.11117 0.12852
 C604 C 1.06503 -0.14964 0.16618
 H605 H 1.12812 -0.14718 0.04622
 H606 H 1.19249 -0.13317 0.14190
 H607 H 1.08607 -0.21847 0.11593
 H608 H 1.09249 -0.14191 0.27082
 H609 H 1.13428 -0.07008 0.20033
 H610 H 1.02753 -0.15354 0.17246
 C611 C 1.12068 0.35443 0.59659
 C612 C 1.15570 0.36188 0.65019
 C613 C 1.13191 0.32366 0.68853
 C614 C 1.09711 0.31613 0.63505
 C615 C 1.10020 0.35902 0.71901
 C616 C 1.12372 0.39763 0.68022
 C617 C 1.08908 0.38981 0.62690
 C618 C 1.06512 0.35182 0.66502
 H619 H 1.12898 0.35286 0.54580
 H620 H 1.19283 0.36723 0.64246
 H621 H 1.08628 0.28240 0.61649
 H622 H 1.09191 0.36050 0.76978
 H623 H 1.13439 0.43150 0.69846
 H624 H 1.02757 0.34807 0.67092
 C625 C 0.58141 -0.16554 0.60971
 C626 C 0.63358 -0.17187 0.61731
 C627 C 0.62676 -0.18042 0.68812
 C628 C 0.57468 -0.17439 0.68083
 C629 C 0.63278 -0.12896 0.70122
 C630 C 0.63935 -0.12016 0.62989
 C631 C 0.58738 -0.11411 0.62259
 C632 C 0.58033 -0.12243 0.69329
 H633 H 0.56042 -0.18077 0.57159
 H634 H 0.65540 -0.19253 0.58589
 H635 H 0.54750 -0.19636 0.70131
 H636 H 0.65408 -0.11418 0.73941
 H637 H 0.66579 -0.09758 0.60879
 H638 H 0.55835 -0.10153 0.72418
 C639 C 0.58274 0.33506 0.10615
 C640 C 0.63483 0.32887 0.11455
 C641 C 0.62742 0.32028 0.18519
 C642 C 0.57544 0.32622 0.17710
 C643 C 0.63328 0.37170 0.19844
 C644 C 0.64044 0.38055 0.12726
 C645 C 0.58854 0.38645 0.11922
 C646 C 0.58090 0.37813 0.18977
 H647 H 0.56210 0.31985 0.06766
 H648 H 0.65699 0.30818 0.08362
 H649 H 0.54836 0.30400 0.19732
 H650 H 0.65428 0.38636 0.23701
 H651 H 0.66696 0.40323 0.10654
 H652 H 0.55862 0.39900 0.22028
 C653 C 0.92052 0.12080 0.19712
 C654 C 0.92643 0.17276 0.18397
 C655 C 0.87451 0.17913 0.19106
 C656 C 0.86820 0.12767 0.20479
 C657 C 0.86704 0.17094 0.12038
 C658 C 0.91905 0.16433 0.11299
 C659 C 0.91278 0.11289 0.12651
 C660 C 0.86095 0.11925 0.13359
 H661 H 0.94260 0.09957 0.22830
 H662 H 0.95364 0.19470 0.20446
 H663 H 0.84709 0.11298 0.24317
 H664 H 0.84509 0.19199 0.08877
 H665 H 0.93980 0.17961 0.07471
 H666 H 0.83418 0.09694 0.11271
 C667 C 0.91766 0.66528 0.60989
 C668 C 0.86565 0.67213 0.61741
 C669 C 0.87326 0.68058 0.68805
 C670 C 0.92515 0.67396 0.68081
 C671 C 0.86681 0.62915 0.70207
 C672 C 0.85944 0.62047 0.63094
 C673 C 0.91126 0.61387 0.62373
 C674 C 0.91909 0.62206 0.69429
 H675 H 0.93838 0.68038 0.57146
 H676 H 0.84374 0.69313 0.58569
 H677 H 0.95250 0.69585 0.70104
 H678 H 0.84573 0.61461 0.74059
 H679 H 0.83255 0.59821 0.61028
 H680 H 0.94113 0.60090 0.72562
 C681 C 0.41919 0.11440 0.69225
 C682 C 0.42486 0.16659 0.68123
 C683 C 0.37292 0.17264 0.68922
 C684 C 0.36688 0.12089 0.70079
 C685 C 0.36510 0.16608 0.61826
 C686 C 0.41713 0.15983 0.61000
 C687 C 0.41119 0.10812 0.62140
 C688 C 0.35933 0.11406 0.62928
 H689 H 0.44155 0.09260 0.72228
 H690 H 0.45238 0.18789 0.70221
 H691 H 0.34601 0.10522 0.73870
 H692 H 0.34285 0.18771 0.58782
 H693 H 0.43775 0.17589 0.57216
 H694 H 0.33257 0.09213 0.60765
 C695 C 0.41862 0.61419 0.18964
 C696 C 0.42428 0.66643 0.17908
 C697 C 0.37226 0.67236 0.18634
 C698 C 0.36623 0.62056 0.19744
 C699 C 0.36502 0.66607 0.11522
 C700 C 0.41713 0.65994 0.10769
 C701 C 0.41120 0.60819 0.11863
 C702 C 0.35926 0.61400 0.12578
 H703 H 0.44078 0.59232 0.21984
 H704 H 0.45159 0.68769 0.20064
 H705 H 0.34508 0.60470 0.23491
 H706 H 0.34296 0.68778 0.08462
 H707 H 0.43804 0.67617 0.07028
 H708 H 0.33272 0.59211 0.10358
   
