data_POSCAR
  _audit_creation_date              2014-09-24
  _audit_creation_method            'ToBaCCo'
  _symmetry_space_group_name_H-M    'P1'
  _symmetry_Int_Tables_number       1
  _symmetry_cell_setting            triclinic
  loop_
  _symmetry_equiv_pos_as_xyz
 x,y,z
_cell_length_a 53.0321
_cell_length_b 35.3263
_cell_length_c 19.4214
_cell_angle_alpha 89.985300
_cell_angle_beta 89.986700
_cell_angle_gamma 90.013500
loop_
  _atom_site_label
  _atom_site_type_symbol
  _atom_site_fract_x
  _atom_site_fract_y
  _atom_site_fract_z
C1 C 0.73063 0.26958 0.53672
 C2 C 0.72816 0.26232 0.46502
 C3 C 0.74626 0.24039 0.43097
 C4 C 0.76802 0.22697 0.46456
 C5 C 0.77036 0.23298 0.53711
 C6 C 0.75227 0.25576 0.57064
 H7 H 0.75401 0.26011 0.62566
 H8 H 0.74429 0.23667 0.37579
 C9 C 0.23031 0.76776 0.53530
 C10 C 0.23035 0.76821 0.46247
 C11 C 0.25001 0.75031 0.42706
 C12 C 0.26984 0.73244 0.46197
 C13 C 0.27048 0.73267 0.53544
 C14 C 0.25029 0.75028 0.57048
 H15 H 0.24989 0.75060 0.62627
 H16 H 0.24997 0.75035 0.37119
 C17 C 0.27024 0.26482 -0.53581
 C18 C 0.26762 0.27147 -0.46444
 C19 C 0.24647 0.25727 -0.42976
 C20 C 0.22828 0.23471 -0.46325
 C21 C 0.23039 0.22925 -0.53614
 C22 C 0.25203 0.24311 -0.57013
 H23 H 0.25388 0.23967 -0.62538
 H24 H 0.24540 0.26140 -0.37451
 C25 C -0.22897 0.76302 -0.53464
 C26 C -0.23061 0.76724 -0.46245
 C27 C -0.25100 0.75112 -0.42719
 C28 C -0.26993 0.73033 -0.46134
 C29 C -0.26909 0.72796 -0.53500
 C30 C -0.24806 0.74342 -0.56960
 H31 H -0.24683 0.74154 -0.62523
 H32 H -0.25144 0.75375 -0.37156
 N33 N 0.02581 1.04254 0.12170
 N34 N 0.04428 1.04828 0.16606
 N35 N -0.02713 1.06864 0.07296
 N36 N -0.04569 1.09293 0.08302
 N37 N -0.02725 1.04232 0.12073
 N38 N -0.04588 1.04795 0.16460
 N39 N 0.02589 1.06879 0.07381
 N40 N 0.04440 1.09312 0.08423
 C41 C 0.05572 1.07985 0.14183
 C42 C -0.05723 1.07953 0.14022
 N43 N -0.02658 1.04202 -0.12291
 N44 N -0.04544 1.04687 -0.16637
 N45 N 0.02633 1.06854 -0.07445
 N46 N 0.04527 1.09228 -0.08381
 N47 N 0.02647 1.04206 -0.12188
 N48 N 0.04547 1.04700 -0.16480
 N49 N -0.02677 1.06841 -0.07534
 N50 N -0.04576 1.09199 -0.08510
 Mn51 Mn -0.00042 1.06904 -0.00078
 C52 C -0.05721 1.07810 -0.14203
 C53 C 0.05702 1.07838 -0.14031
 N54 N -0.02712 0.96066 0.12132
 N55 N -0.04502 0.95402 0.16700
 N56 N 0.02608 0.93452 0.07457
 N57 N 0.04478 0.91053 0.08533
 N58 N 0.02588 0.96098 0.12206
 N59 N 0.04441 0.95578 0.16638
 N60 N -0.02697 0.93428 0.07368
 N61 N -0.04476 0.90897 0.08564
 Mn62 Mn -0.00068 1.00163 0.12221
 C63 C -0.05595 0.92183 0.14375
 C64 C 0.05604 0.92429 0.14269
 N65 N 0.02648 0.96058 -0.12174
 N66 N 0.04470 0.95443 -0.16665
 N67 N -0.02672 0.93426 -0.07496
 N68 N -0.04552 0.91040 -0.08543
 N69 N -0.02649 0.96064 -0.12261
 N70 N -0.04508 0.95553 -0.16673
 N71 N 0.02638 0.93425 -0.07401
 N72 N 0.04455 0.90943 -0.08513
 Mn73 Mn -0.00002 1.00134 -0.12302
 Mn74 Mn -0.00031 0.93387 -0.00018
 Cl75 Cl -0.00036 1.00145 -0.00040
 C76 C 0.05586 0.92256 -0.14289
 C77 C -0.05679 0.92418 -0.14281
 N78 N 0.52704 0.54035 0.12097
 N79 N 0.54535 0.54634 0.16573
 N80 N 0.47392 0.56697 0.07416
 N81 N 0.45512 0.59084 0.08435
 N82 N 0.47400 0.54050 0.12166
 N83 N 0.45527 0.54559 0.16544
 N84 N 0.52696 0.56678 0.07342
 N85 N 0.54520 0.59148 0.08447
 C86 C 0.55656 0.57822 0.14200
 C87 C 0.44367 0.57704 0.14141
 N88 N 0.47358 0.54118 -0.12216
 N89 N 0.45528 0.54735 -0.16681
 N90 N 0.52682 0.56698 -0.07493
 N91 N 0.54607 0.59018 -0.08408
 N92 N 0.52659 0.54067 -0.12267
 N93 N 0.54563 0.54518 -0.16558
 N94 N 0.47372 0.56743 -0.07432
 N95 N 0.45551 0.59223 -0.08511
 Mn96 Mn 0.50035 0.56749 -0.00041
 C97 C 0.44413 0.57918 -0.14281
 C98 C 0.55759 0.57613 -0.14084
 N99 N 0.47378 0.45894 0.12117
 N100 N 0.45552 0.45305 0.16611
 N101 N 0.52660 0.43240 0.07244
 N102 N 0.54494 0.40776 0.08274
 N103 N 0.52682 0.45867 0.12027
 N104 N 0.54529 0.45265 0.16443
 N105 N 0.47357 0.43275 0.07319
 N106 N 0.45517 0.40830 0.08417
 Mn107 Mn 0.50042 0.49962 0.12180
 C108 C 0.44404 0.42147 0.14213
 C109 C 0.55646 0.42091 0.14014
 N110 N 0.52631 0.45928 -0.12336
 N111 N 0.54501 0.45412 -0.16719
 N112 N 0.47324 0.43319 -0.07528
 N113 N 0.45441 0.40936 -0.08544
 N114 N 0.47329 0.45973 -0.12264
 N115 N 0.45453 0.45474 -0.16628
 N116 N 0.52634 0.43279 -0.07593
 N117 N 0.54508 0.40883 -0.08619
 Mn118 Mn 0.49993 0.50021 -0.12344
 Mn119 Mn 0.49993 0.43233 -0.00141
 Cl120 Cl 0.50015 0.49991 -0.00083
 C121 C 0.55655 0.42261 -0.14323
 C122 C 0.44291 0.42331 -0.14230
 N123 N 0.31570 0.33552 0.39879
 C124 C 0.32710 0.31642 0.34694
 N125 N 0.31978 0.28043 0.33304
 N126 N 0.30170 0.26398 0.37025
 C127 C 0.29047 0.28287 0.42296
 N128 N 0.29765 0.31910 0.43594
 C129 C 0.34695 0.33404 0.30822
 C130 C 0.36376 0.34937 0.27708
 C131 C 0.38396 0.36811 0.24157
 N132 N 0.39355 0.35348 0.18257
 N133 N 0.41262 0.37064 0.15050
 C134 C 0.42270 0.40298 0.17642
 N135 N 0.41302 0.41759 0.23539
 N136 N 0.39396 0.40044 0.26743
 N137 N -0.19415 0.81342 0.32860
 C138 C -0.16999 0.81084 0.35083
 N139 N -0.16501 0.79174 0.40985
 N140 N -0.18367 0.77607 0.44595
 C141 C -0.20797 0.77919 0.42450
 N142 N -0.21280 0.79777 0.36469
 C143 C -0.15007 0.82926 0.31358
 C144 C -0.13348 0.84535 0.28279
 C145 C -0.11380 0.86502 0.24676
 N146 N -0.10449 0.89798 0.27195
 N147 N -0.08615 0.91624 0.23882
 C148 C -0.07652 0.90216 0.17933
 N149 N -0.08590 0.86918 0.15412
 N150 N -0.10425 0.85092 0.18727
 N151 N 0.69680 0.68568 0.32173
 C152 C 0.67285 0.68523 0.34603
 N153 N 0.66803 0.70013 0.40890
 N154 N 0.68667 0.71428 0.44694
 C155 C 0.71094 0.71356 0.42427
 N156 N 0.71543 0.69987 0.35987
 C157 C 0.65302 0.66757 0.30733
 C158 C 0.63627 0.65199 0.27636
 C159 C 0.61620 0.63283 0.24108
 N160 N 0.60637 0.64732 0.18226
 N161 N 0.58745 0.62973 0.15034
 C162 C 0.57776 0.59710 0.17620
 N163 N 0.58768 0.58262 0.23499
 N164 N 0.60659 0.60020 0.26689
 N165 N 0.16794 1.20128 0.40481
 C166 C 0.17328 1.18467 0.34372
 N167 N 0.19751 1.18373 0.32163
 N168 N 0.21588 1.19836 0.36018
 C169 C 0.21081 1.21392 0.42284
 N170 N 0.18631 1.21586 0.44326
 C171 C 0.15360 1.16696 0.30459
 C172 C 0.13679 1.15156 0.27359
 C173 C 0.11649 1.13278 0.23865
 N174 N 0.10654 1.10052 0.26498
 N175 N 0.08727 1.08347 0.23377
 C176 C 0.07730 1.09816 0.17522
 N177 N 0.08733 1.13043 0.14883
 N178 N 0.10661 1.14748 0.18006
 N179 N 0.67004 0.30948 -0.41202
 C180 C 0.67485 0.32094 -0.34686
 N181 N 0.69817 0.31539 -0.32021
 N182 N 0.71613 0.29904 -0.35790
 C183 C 0.71161 0.28782 -0.42388
 N184 N 0.68801 0.29316 -0.44951
 C185 C 0.65542 0.33884 -0.30711
 C186 C 0.63865 0.35396 -0.27549
 C187 C 0.61825 0.37211 -0.23996
 N188 N 0.60828 0.35653 -0.18220
 N189 N 0.58871 0.37280 -0.15086
 C190 C 0.57847 0.40511 -0.17639
 N191 N 0.58853 0.42067 -0.23409
 N192 N 0.60808 0.40442 -0.26538
 N193 N 0.19625 0.82043 -0.32929
 C194 C 0.17187 0.81576 -0.34847
 N195 N 0.16657 0.79485 -0.40518
 N196 N 0.18510 0.77936 -0.44194
 C197 C 0.20959 0.78447 -0.42356
 N198 N 0.21478 0.80494 -0.36606
 C199 C 0.15197 0.83366 -0.31045
 C200 C 0.13522 0.84919 -0.27941
 C201 C 0.11520 0.86816 -0.24362
 N202 N 0.10553 0.90085 -0.26891
 N203 N 0.08672 0.91832 -0.23643
 C204 C 0.07695 0.90368 -0.17755
 N205 N 0.08669 0.87098 -0.15219
 N206 N 0.10552 0.85350 -0.18471
 N207 N 0.33069 0.68944 -0.41837
 C208 C 0.32832 0.68573 -0.34932
 N209 N 0.30697 0.69809 -0.31837
 N210 N 0.28848 0.71339 -0.35560
 C211 C 0.29046 0.71675 -0.42530
 N212 N 0.31218 0.70473 -0.45539
 C213 C 0.34795 0.66800 -0.31002
 C214 C 0.36459 0.65252 -0.27846
 C215 C 0.38456 0.63348 -0.24262
 N216 N 0.39422 0.60082 -0.26804
 N217 N 0.41310 0.58338 -0.23582
 C218 C 0.42295 0.59802 -0.17709
 N219 N 0.41322 0.63069 -0.15158
 N220 N 0.39432 0.64815 -0.18385
 N221 N -0.18449 1.16285 -0.40222
 C222 C -0.17697 1.17812 -0.34170
 N223 N -0.18738 1.21116 -0.32054
 N224 N -0.20448 1.22869 -0.35945
 C225 C -0.21152 1.21423 -0.42154
 N226 N -0.20156 1.18040 -0.44103
 C227 C -0.15740 1.16032 -0.30234
 C228 C -0.14045 1.14534 -0.27125
 C229 C -0.11978 1.12746 -0.23643
 N230 N -0.10937 1.09549 -0.26254
 N231 N -0.08953 1.07959 -0.23201
 C232 C -0.07942 1.09518 -0.17444
 N233 N -0.08991 1.12714 -0.14823
 N234 N -0.10976 1.14306 -0.17880
 N235 N 0.68473 0.65979 -0.40296
 C236 C 0.67839 0.67341 -0.34013
 N237 N 0.68975 0.70524 -0.31675
 N238 N 0.70659 0.72329 -0.35568
 C239 C 0.71240 0.71064 -0.41999
 N240 N 0.70156 0.67788 -0.44181
 C241 C 0.65884 0.65555 -0.30075
 C242 C 0.64183 0.64085 -0.26945
 C243 C 0.62099 0.62353 -0.23446
 N244 N 0.61028 0.59174 -0.26033
 N245 N 0.59019 0.57649 -0.22994
 C246 C 0.58009 0.59258 -0.17279
 N247 N 0.59089 0.62436 -0.14678
 N248 N 0.61100 0.63964 -0.17722
 N249 N 0.18677 1.21218 -0.31969
 C250 C 0.17622 1.17927 -0.34097
 N251 N 0.18340 1.16429 -0.40206
 N252 N 0.20028 1.18203 -0.44128
 C253 C 0.21036 1.21574 -0.42162
 N254 N 0.20366 1.22989 -0.35900
 C255 C 0.15683 1.16132 -0.30113
 C256 C 0.14002 1.14624 -0.26965
 C257 C 0.11947 1.12819 -0.23457
 N258 N 0.10933 1.09592 -0.26022
 N259 N 0.08955 1.07988 -0.22964
 C260 C 0.07922 1.09562 -0.17248
 N261 N 0.08945 1.12788 -0.14670
 N262 N 0.10925 1.14394 -0.17733
 N263 N 0.29977 0.32967 -0.33276
 C264 C 0.32439 0.32254 -0.34638
 N265 N 0.33040 0.29871 -0.39850
 N266 N 0.31236 0.28261 -0.43611
 C267 C 0.28765 0.29001 -0.42333
 N268 N 0.28170 0.31355 -0.37042
 C269 C 0.34395 0.34037 -0.30704
 C270 C 0.36077 0.35535 -0.27544
 C271 C 0.38120 0.37329 -0.23969
 N272 N 0.39143 0.40564 -0.26474
 N273 N 0.41098 0.42172 -0.23319
 C274 C 0.42097 0.40597 -0.17558
 N275 N 0.41065 0.37361 -0.15041
 N276 N 0.39109 0.35751 -0.18202
 N277 N -0.18447 0.83937 -0.40587
 C278 C -0.17560 0.82387 -0.34676
 N279 N -0.18504 0.79026 -0.32513
 N280 N -0.20267 0.77252 -0.36180
 C281 C -0.21134 0.78762 -0.42162
 N282 N -0.20212 0.82162 -0.44255
 C283 C -0.15585 0.84211 -0.30873
 C284 C -0.13893 0.85707 -0.27748
 C285 C -0.11843 0.87472 -0.24154
 N286 N -0.10881 0.85888 -0.18357
 N287 N -0.08925 0.87475 -0.15154
 C288 C -0.07867 0.90694 -0.17659
 N289 N -0.08839 0.92275 -0.23450
 N290 N -0.10793 0.90690 -0.26647
 N291 N 0.32120 0.71645 0.33754
 C292 C 0.32439 0.67843 0.34143
 N293 N 0.30933 0.65798 0.38390
 N294 N 0.29176 0.67509 0.42185
 C295 C 0.28885 0.71326 0.41895
 N296 N 0.30365 0.73358 0.37547
 C297 C 0.34415 0.66028 0.30330
 C298 C 0.36112 0.64515 0.27255
 C299 C 0.38172 0.62717 0.23753
 N300 N 0.39167 0.64272 0.17973
 N301 N 0.41133 0.62659 0.14863
 C302 C 0.42169 0.59443 0.17443
 N303 N 0.41165 0.57889 0.23218
 N304 N 0.39200 0.59501 0.26325
 N305 N -0.16953 1.19994 0.40403
 C306 C -0.17496 1.18316 0.34315
 N307 N -0.19926 1.18168 0.32180
 N308 N -0.21761 1.19599 0.36083
 C309 C -0.21244 1.21177 0.42323
 N310 N -0.18788 1.21421 0.44295
 C311 C -0.15528 1.16583 0.30349
 C312 C -0.13847 1.15068 0.27211
 C313 C -0.11816 1.13207 0.23696
 N314 N -0.10829 1.09966 0.26284
 N315 N -0.08898 1.08275 0.23158
 C316 C -0.07889 1.09772 0.17342
 N317 N -0.08884 1.13014 0.14744
 N318 N -0.10816 1.14706 0.17874
 N319 N 0.68842 0.33551 0.38394
 C320 C 0.67316 0.31453 0.34298
 N321 N 0.67618 0.27642 0.34113
 N322 N 0.69379 0.25975 0.37962
 C323 C 0.70877 0.28065 0.42169
 N324 N 0.70600 0.31888 0.42241
 C325 C 0.65352 0.33247 0.30408
 C326 C 0.63681 0.34803 0.27298
 C327 C 0.61668 0.36704 0.23776
 N328 N 0.60671 0.35236 0.17927
 N329 N 0.58761 0.36970 0.14771
 C330 C 0.57787 0.40225 0.17368
 N331 N 0.58793 0.41691 0.23213
 N332 N 0.60701 0.39959 0.26365
 N333 N 0.18348 0.78864 0.32682
 C334 C 0.17450 0.82289 0.34654
 N335 N 0.18404 0.83951 0.40381
 N336 N 0.20187 0.82227 0.44056
 C337 C 0.21065 0.78767 0.42162
 N338 N 0.20131 0.77140 0.36358
 C339 C 0.15468 0.84087 0.30836
 C340 C 0.13776 0.85591 0.27723
 C341 C 0.11731 0.87384 0.24151
 N342 N 0.10699 0.90610 0.26663
 N343 N 0.08756 0.92230 0.23470
 C344 C 0.07779 0.90676 0.17662
 N345 N 0.08819 0.87449 0.15141
 N346 N 0.10763 0.85827 0.18339
   
