data_POSCAR
  _audit_creation_date              2014-09-24
  _audit_creation_method            'ToBaCCo'
  _symmetry_space_group_name_H-M    'P1'
  _symmetry_Int_Tables_number       1
  _symmetry_cell_setting            triclinic
  loop_
  _symmetry_equiv_pos_as_xyz
 x,y,z
_cell_length_a 51.4773
_cell_length_b 51.5090
_cell_length_c 51.3279
_cell_angle_alpha 89.754000
_cell_angle_beta 89.542400
_cell_angle_gamma 89.665100
loop_
  _atom_site_label
  _atom_site_type_symbol
  _atom_site_fract_x
  _atom_site_fract_y
  _atom_site_fract_z
C1 C 0.26932 0.25003 0.23144
 C2 C 0.26900 0.23064 0.25078
 C3 C 0.24958 0.23035 0.27017
 C4 C 0.23031 0.24978 0.27003
 C5 C 0.23028 0.26932 0.25086
 C6 C 0.24987 0.26927 0.23164
 H7 H 0.28393 0.21573 0.25075
 H8 H 0.21527 0.24969 0.28491
 H9 H 0.24998 0.28427 0.21679
 C10 C 0.72896 -0.24959 0.23007
 C11 C 0.72946 -0.23022 0.24941
 C12 C 0.74846 -0.23028 0.26882
 C13 C 0.76744 -0.24990 0.26898
 C14 C 0.76793 -0.26953 0.24990
 C15 C 0.74845 -0.26904 0.23065
 H16 H 0.71462 -0.21530 0.25009
 H17 H 0.78229 -0.24917 0.28373
 H18 H 0.74846 -0.28393 0.21596
 C19 C 0.73155 0.25165 0.76630
 C20 C 0.75107 0.27060 0.76623
 C21 C 0.77065 0.27111 0.74677
 C22 C 0.77002 0.25186 0.72724
 C23 C 0.75072 0.23268 0.72715
 C24 C 0.73158 0.23277 0.74673
 H25 H 0.75031 0.28533 0.78115
 H26 H 0.78495 0.25105 0.71233
 H27 H 0.71663 0.21805 0.74674
 C28 C 0.26696 -0.24999 0.77332
 C29 C 0.26685 -0.23086 0.75381
 C30 C 0.24795 -0.23087 0.73430
 C31 C 0.22901 -0.25039 0.73439
 C32 C 0.22851 -0.26995 0.75379
 C33 C 0.24778 -0.26929 0.77325
 H34 H 0.28156 -0.21592 0.75377
 H35 H 0.21427 -0.24967 0.71952
 H36 H 0.24860 -0.28420 0.78810
 C37 C 0.73142 -0.25003 0.76949
 C38 C 0.75091 -0.26923 0.76943
 C39 C 0.77041 -0.26993 0.74989
 C40 C 0.76978 -0.25053 0.73033
 C41 C 0.75052 -0.23109 0.73023
 C42 C 0.73142 -0.23103 0.74985
 H43 H 0.75017 -0.28405 0.78439
 H44 H 0.78466 -0.24984 0.71537
 H45 H 0.71649 -0.21613 0.74984
 C46 C 0.27066 0.25010 0.76926
 C47 C 0.25142 0.26956 0.76892
 C48 C 0.23124 0.26880 0.75076
 C49 C 0.23045 0.24859 0.73257
 C50 C 0.24985 0.22929 0.73217
 C51 C 0.26979 0.23014 0.75070
 H52 H 0.25163 0.28491 0.78328
 H53 H 0.21512 0.24841 0.71822
 H54 H 0.28468 0.21520 0.75067
 C55 C 0.26780 -0.25014 0.23197
 C56 C 0.26705 -0.23091 0.25153
 C57 C 0.24777 -0.23089 0.27106
 C58 C 0.22873 -0.25024 0.27101
 C59 C 0.22884 -0.26954 0.25184
 C60 C 0.24838 -0.26943 0.23257
 H61 H 0.28188 -0.21617 0.25229
 H62 H 0.21376 -0.25027 0.28596
 H63 H 0.24775 -0.28413 0.21763
 C64 C 0.73043 0.25186 0.22942
 C65 C 0.74963 0.27113 0.22971
 C66 C 0.76881 0.27120 0.24904
 C67 C 0.76861 0.25167 0.26823
 C68 C 0.74957 0.23224 0.26828
 C69 C 0.73056 0.23251 0.24879
 H70 H 0.74966 0.28611 0.21485
 H71 H 0.78334 0.25158 0.28319
 H72 H 0.71582 0.21760 0.24870
 O73 O 0.22652 0.02468 0.47640
 O74 O 0.22635 -0.02595 0.52731
 O75 O 0.22644 0.02457 0.52718
 O76 O 0.22624 -0.02588 0.47656
 O77 O 0.26909 -0.02630 0.47623
 O78 O 0.26928 0.02418 0.52679
 O79 O 0.26920 -0.02634 0.52692
 O80 O 0.26936 0.02426 0.47608
 Cu81 Cu 0.22209 -0.00060 0.50189
 Cu82 Cu 0.27352 -0.00109 0.50146
 C83 C 0.24798 0.03315 0.46752
 C84 C 0.24776 -0.03481 0.53585
 C85 C 0.24790 0.03300 0.53568
 C86 C 0.24763 -0.03475 0.46774
 O87 O 0.77118 0.02539 0.52392
 O88 O 0.77088 -0.02515 0.47339
 O89 O 0.77100 0.02538 0.47321
 O90 O 0.77110 -0.02517 0.52414
 O91 O 0.72826 -0.02486 0.52465
 O92 O 0.72815 0.02571 0.47371
 O93 O 0.72803 -0.02485 0.47393
 O94 O 0.72833 0.02574 0.52440
 Cu95 Cu 0.77533 0.00007 0.49862
 Cu96 Cu 0.72390 0.00046 0.49923
 C97 C 0.74980 0.03426 0.53278
 C98 C 0.74940 -0.03365 0.46500
 C99 C 0.74956 0.03422 0.46474
 C100 C 0.74970 -0.03369 0.53311
 O101 O 0.47555 0.23012 0.02470
 O102 O 0.52628 0.23029 -0.02625
 O103 O 0.52614 0.23035 0.02444
 O104 O 0.47571 0.23024 -0.02602
 O105 O 0.47536 0.27306 -0.02621
 O106 O 0.52575 0.27317 0.02430
 O107 O 0.52591 0.27311 -0.02644
 O108 O 0.47517 0.27293 0.02457
 Cu109 Cu 0.50095 0.22596 -0.00076
 Cu110 Cu 0.50050 0.27736 -0.00095
 C111 C 0.46667 0.25149 0.03337
 C112 C 0.53478 0.25172 -0.03509
 C113 C 0.53460 0.25178 0.03302
 C114 C 0.46691 0.25163 -0.03479
 O115 O 0.52433 0.77197 0.02612
 O116 O 0.47380 0.77194 -0.02426
 O117 O 0.47378 0.77186 0.02645
 O118 O 0.52444 0.77198 -0.02461
 O119 O 0.52471 0.72917 -0.02449
 O120 O 0.47405 0.72904 0.02653
 O121 O 0.47415 0.72912 -0.02416
 O122 O 0.52465 0.72915 0.02624
 Cu123 Cu 0.49906 0.77623 0.00090
 Cu124 Cu 0.49943 0.72483 0.00104
 C125 C 0.53314 0.75056 0.03483
 C126 C 0.46528 0.75053 -0.03281
 C127 C 0.46522 0.75043 0.03523
 C128 C 0.53327 0.75059 -0.03329
 O129 O 0.02476 0.47534 0.22943
 O130 O -0.02604 0.52594 0.22935
 O131 O 0.02454 0.52591 0.22956
 O132 O -0.02579 0.47543 0.22922
 O133 O -0.02639 0.47522 0.27219
 O134 O 0.02412 0.52555 0.27253
 O135 O -0.02645 0.52577 0.27232
 O136 O 0.02422 0.47501 0.27240
 Cu137 Cu -0.00057 0.50068 0.22509
 Cu138 Cu -0.00118 0.50035 0.27667
 C139 C 0.03318 0.46648 0.25092
 C140 C -0.03495 0.53454 0.25082
 C141 C 0.03296 0.53438 0.25110
 C142 C -0.03475 0.46670 0.25064
 O143 O 0.02579 0.52393 0.77245
 O144 O -0.02508 0.47401 0.77109
 O145 O 0.02532 0.47323 0.77185
 O146 O -0.02484 0.52448 0.77171
 O147 O -0.02421 0.52484 0.72874
 O148 O 0.02712 0.47474 0.72889
 O149 O -0.02361 0.47423 0.72813
 O150 O 0.02628 0.52513 0.72950
 Cu151 Cu 0.00023 0.49887 0.77609
 Cu152 Cu 0.00147 0.49978 0.72451
 C153 C 0.03467 0.53318 0.75120
 C154 C -0.03298 0.46548 0.74938
 C155 C 0.03488 0.46534 0.75040
 C156 C -0.03322 0.53336 0.75021
 C157 C 0.32903 0.25047 0.17196
 C158 C 0.32082 0.27372 0.18377
 C159 C 0.30152 0.27357 0.20307
 C160 C 0.28993 0.25016 0.21101
 C161 C 0.29814 0.22691 0.19924
 C162 C 0.31747 0.22705 0.17996
 C163 C 0.34948 0.25063 0.15143
 N164 N 0.35809 0.22811 0.14062
 N165 N 0.37643 0.22826 0.12216
 C166 C 0.38695 0.25094 0.11370
 N167 N 0.37835 0.27346 0.12452
 N168 N 0.36002 0.27331 0.14299
 C169 C 0.40736 0.25110 0.09313
 C170 C 0.41757 0.27465 0.08375
 C171 C 0.43678 0.27478 0.06435
 C172 C 0.44628 0.25137 0.05390
 C173 C 0.43610 0.22782 0.06328
 C174 C 0.41686 0.22769 0.08264
 H175 H 0.32936 0.29211 0.17819
 H176 H 0.29587 0.29177 0.21202
 H177 H 0.28935 0.20860 0.20468
 H178 H 0.32323 0.20878 0.17124
 H179 H 0.41071 0.29305 0.09136
 H180 H 0.44421 0.29326 0.05756
 H181 H 0.44298 0.20944 0.05564
 H182 H 0.40947 0.20919 0.08940
 C183 C 0.67020 0.75053 0.17178
 C184 C 0.67812 0.77380 0.18333
 C185 C 0.69729 0.77379 0.20245
 C186 C 0.70935 0.75044 0.21065
 C187 C 0.70118 0.72713 0.19887
 C188 C 0.68194 0.72721 0.17982
 C189 C 0.64984 0.75056 0.15149
 N190 N 0.64163 0.72797 0.14084
 N191 N 0.62337 0.72798 0.12261
 C192 C 0.61251 0.75058 0.11421
 N193 N 0.62072 0.77317 0.12485
 N194 N 0.63898 0.77316 0.14310
 C195 C 0.59218 0.75058 0.09389
 C196 C 0.58162 0.77405 0.08458
 C197 C 0.56249 0.77405 0.06541
 C198 C 0.55343 0.75057 0.05512
 C199 C 0.56396 0.72709 0.06442
 C200 C 0.58312 0.72710 0.08356
 H201 H 0.66962 0.79218 0.17748
 H202 H 0.70326 0.79242 0.20987
 H203 H 0.70868 0.70844 0.20497
 H204 H 0.67616 0.70886 0.17152
 H205 H 0.58814 0.79250 0.09207
 H206 H 0.55478 0.79247 0.05868
 H207 H 0.55741 0.70866 0.05690
 H208 H 0.59079 0.70865 0.09026
 C209 C 0.67209 0.25167 -0.17399
 C210 C 0.68390 0.22831 -0.18200
 C211 C 0.70315 0.22831 -0.20136
 C212 C 0.71104 0.25166 -0.21318
 C213 C 0.69921 0.27501 -0.20524
 C214 C 0.67998 0.27502 -0.18587
 C215 C 0.65171 0.25169 -0.15339
 N216 N 0.64089 0.27430 -0.14499
 N217 N 0.62262 0.27432 -0.12647
 C218 C 0.61436 0.25173 -0.11555
 N219 N 0.62517 0.22912 -0.12396
 N220 N 0.64346 0.22910 -0.14247
 C221 C 0.59400 0.25174 -0.09493
 C222 C 0.58490 0.22826 -0.08429
 C223 C 0.56569 0.22827 -0.06489
 C224 C 0.55516 0.25174 -0.05563
 C225 C 0.56426 0.27522 -0.06623
 C226 C 0.58345 0.27522 -0.08566
 H227 H 0.67838 0.20998 -0.17324
 H228 H 0.71213 0.21005 -0.20685
 H229 H 0.70460 0.29326 -0.21425
 H230 H 0.67124 0.29336 -0.18028
 H231 H 0.59257 0.20982 -0.09095
 H232 H 0.55911 0.20983 -0.05714
 H233 H 0.55655 0.29365 -0.05953
 H234 H 0.59000 0.29367 -0.09338
 C235 C 0.32647 0.75017 -0.16798
 C236 C 0.31883 0.72683 -0.17971
 C237 C 0.29952 0.72678 -0.19869
 C238 C 0.28735 0.75004 -0.20635
 C239 C 0.29492 0.77336 -0.19460
 C240 C 0.31426 0.77344 -0.17564
 C241 C 0.34708 0.75024 -0.14794
 N242 N 0.35525 0.77285 -0.13731
 N243 N 0.37379 0.77291 -0.11936
 C244 C 0.38496 0.75037 -0.11124
 N245 N 0.37678 0.72775 -0.12185
 N246 N 0.35825 0.72769 -0.13982
 C247 C 0.40560 0.75042 -0.09123
 C248 C 0.41640 0.72697 -0.08213
 C249 C 0.43577 0.72701 -0.06321
 C250 C 0.44485 0.75050 -0.05296
 C251 C 0.43412 0.77396 -0.06209
 C252 C 0.41471 0.77392 -0.08098
 H253 H 0.32787 0.70856 -0.17437
 H254 H 0.29438 0.70854 -0.20766
 H255 H 0.28568 0.79156 -0.19988
 H256 H 0.31957 0.79176 -0.16697
 H257 H 0.40986 0.70851 -0.08958
 H258 H 0.44363 0.70860 -0.05661
 H259 H 0.44067 0.79240 -0.05458
 H260 H 0.40687 0.79235 -0.08753
 C261 C 0.17084 0.32871 0.25093
 C262 C 0.17916 0.31725 0.22747
 C263 C 0.19841 0.29800 0.22745
 C264 C 0.20980 0.28976 0.25089
 C265 C 0.20150 0.30121 0.27434
 C266 C 0.18224 0.32045 0.27437
 C267 C 0.15041 0.34915 0.25094
 N268 N 0.14171 0.35967 0.27364
 N269 N 0.12337 0.37801 0.27365
 C270 C 0.11294 0.38666 0.25096
 N271 N 0.12165 0.37615 0.22826
 N272 N 0.13998 0.35779 0.22825
 C273 C 0.09252 0.40710 0.25096
 C274 C 0.08239 0.41661 0.22739
 C275 C 0.06317 0.43588 0.22738
 C276 C 0.05358 0.44608 0.25094
 C277 C 0.06367 0.43658 0.27451
 C278 C 0.08293 0.41734 0.27452
 H279 H 0.17076 0.32305 0.20906
 H280 H 0.20414 0.28930 0.20910
 H281 H 0.21016 0.29553 0.29268
 H282 H 0.17639 0.32890 0.29279
 H283 H 0.08932 0.40920 0.20887
 H284 H 0.05580 0.44277 0.20888
 H285 H 0.05671 0.44403 0.29301
 H286 H 0.09026 0.41048 0.29304
 C287 C 0.17074 0.67087 0.75340
 C288 C 0.18240 0.67841 0.77678
 C289 C 0.20136 0.69772 0.77695
 C290 C 0.20927 0.71030 0.75368
 C291 C 0.19735 0.70251 0.73027
 C292 C 0.17849 0.68313 0.73017
 C293 C 0.15063 0.65037 0.75320
 N294 N 0.13999 0.64250 0.73045
 N295 N 0.12191 0.62412 0.73022
 C296 C 0.11365 0.61280 0.75273
 N297 N 0.12428 0.62067 0.77550
 N298 N 0.14239 0.63904 0.77573
 C299 C 0.09347 0.59237 0.75242
 C300 C 0.08416 0.58135 0.77578
 C301 C 0.06507 0.56215 0.77542
 C302 C 0.05490 0.55349 0.75168
 C303 C 0.06425 0.56445 0.72833
 C304 C 0.08328 0.58367 0.72869
 H305 H 0.17677 0.66951 0.79511
 H306 H 0.20887 0.70337 0.79569
 H307 H 0.20320 0.71047 0.71162
 H308 H 0.17009 0.67767 0.71173
 H309 H 0.09156 0.58759 0.79441
 H310 H 0.05830 0.55409 0.79375
 H311 H 0.05682 0.55822 0.70970
 H312 H 0.08999 0.59168 0.71032
 C313 C -0.17314 0.67176 0.25028
 C314 C -0.18115 0.68371 0.27353
 C315 C -0.20040 0.70295 0.27343
 C316 C -0.21244 0.71086 0.25002
 C317 C -0.20422 0.69863 0.22673
 C318 C -0.18490 0.67948 0.22689
 C319 C -0.15264 0.65140 0.25039
 N320 N -0.14418 0.64051 0.22778
 N321 N -0.12575 0.62225 0.22786
 C322 C -0.11499 0.61407 0.25056
 N323 N -0.12345 0.62495 0.27317
 N324 N -0.14187 0.64322 0.27309
 C325 C -0.09448 0.59372 0.25064
 C326 C -0.08413 0.58450 0.27423
 C327 C -0.06484 0.56530 0.27429
 C328 C -0.05539 0.55489 0.25077
 C329 C -0.06569 0.56412 0.22718
 C330 C -0.08502 0.58328 0.22712
 H331 H -0.17266 0.67811 0.29196
 H332 H -0.20643 0.71072 0.29208
 H333 H -0.21173 0.70447 0.20798
 H334 H -0.17905 0.67085 0.20855
 H335 H -0.09096 0.59208 0.29272
 H336 H -0.05731 0.55862 0.29281
 H337 H -0.05885 0.55650 0.20871
 H338 H -0.09251 0.58992 0.20858
 C339 C -0.17028 0.32900 0.74717
 C340 C -0.18254 0.32123 0.77041
 C341 C -0.20187 0.30232 0.77031
 C342 C -0.20961 0.29038 0.74688
 C343 C -0.19703 0.29830 0.72360
 C344 C -0.17776 0.31730 0.72377
 C345 C -0.14984 0.34918 0.74737
 N346 N -0.13848 0.35740 0.72484
 N347 N -0.12016 0.37557 0.72507
 C348 C -0.11240 0.38629 0.74784
 N349 N -0.12375 0.37805 0.77036
 N350 N -0.14207 0.35991 0.77013
 C351 C -0.09203 0.40653 0.74816
 C352 C -0.08349 0.41687 0.77189
 C353 C -0.06432 0.43596 0.77225
 C354 C -0.05326 0.44521 0.74891
 C355 C -0.06179 0.43491 0.72517
 C356 C -0.08094 0.41577 0.72480
 H357 H -0.17711 0.32965 0.78886
 H358 H -0.20983 0.29646 0.78897
 H359 H -0.20265 0.29077 0.70485
 H360 H -0.16886 0.32295 0.70544
 H361 H -0.09157 0.41022 0.79026
 H362 H -0.05820 0.44348 0.79088
 H363 H -0.05365 0.44161 0.70684
 H364 H -0.08705 0.40827 0.70617
 C365 C 0.24907 0.17072 0.32946
 C366 C 0.22581 0.17891 0.31774
 C367 C 0.22598 0.19820 0.29850
 C368 C 0.24941 0.20978 0.29055
 C369 C 0.27267 0.20159 0.30224
 C370 C 0.27251 0.18228 0.32145
 C371 C 0.24889 0.15027 0.34991
 N372 N 0.27141 0.14167 0.36062
 N373 N 0.27125 0.12333 0.37899
 C374 C 0.24856 0.11281 0.38748
 N375 N 0.22603 0.12142 0.37677
 N376 N 0.22619 0.13974 0.35838
 C377 C 0.24839 0.09240 0.40797
 C378 C 0.22482 0.08221 0.41740
 C379 C 0.22468 0.06301 0.43673
 C380 C 0.24810 0.05351 0.44706
 C381 C 0.27167 0.06367 0.43762
 C382 C 0.27181 0.08290 0.41833
 H383 H 0.20741 0.17038 0.32333
 H384 H 0.20779 0.20384 0.28961
 H385 H 0.29099 0.21038 0.29678
 H386 H 0.29078 0.17653 0.33011
 H387 H 0.20641 0.08908 0.40989
 H388 H 0.20619 0.05559 0.44357
 H389 H 0.29006 0.05678 0.44517
 H390 H 0.29032 0.09027 0.41153
 C391 C 0.75055 0.17322 0.66820
 C392 C 0.77391 0.18086 0.67986
 C393 C 0.77398 0.20017 0.69891
 C394 C 0.75070 0.21232 0.70673
 C395 C 0.72735 0.20476 0.69504
 C396 C 0.72727 0.18543 0.67601
 C397 C 0.75045 0.15261 0.64811
 N398 N 0.72780 0.14443 0.63760
 N399 N 0.72770 0.12586 0.61962
 C400 C 0.75025 0.11468 0.61134
 N401 N 0.77290 0.12288 0.62183
 N402 N 0.77300 0.14143 0.63984
 C403 C 0.75013 0.09402 0.59129
 C404 C 0.77357 0.08322 0.58201
 C405 C 0.77346 0.06382 0.56305
 C406 C 0.74992 0.05472 0.55296
 C407 C 0.72648 0.06546 0.56228
 C408 C 0.72659 0.08490 0.58120
 H409 H 0.79219 0.17182 0.67440
 H410 H 0.79222 0.20530 0.70782
 H411 H 0.70915 0.21399 0.70043
 H412 H 0.70893 0.18012 0.66740
 H413 H 0.79207 0.08977 0.58932
 H414 H 0.79186 0.05595 0.55630
 H415 H 0.70800 0.05890 0.55491
 H416 H 0.70817 0.09274 0.58790
 C417 C 0.24789 -0.17158 0.67469
 C418 C 0.27127 -0.18334 0.68260
 C419 C 0.27128 -0.20253 0.70194
 C420 C 0.24793 -0.21040 0.71382
 C421 C 0.22456 -0.19861 0.70599
 C422 C 0.22453 -0.17944 0.68664
 C423 C 0.24785 -0.15128 0.65410
 N424 N 0.22522 -0.14051 0.64579
 N425 N 0.22519 -0.12231 0.62727
 C426 C 0.24779 -0.11409 0.61626
 N427 N 0.27042 -0.12486 0.62457
 N428 N 0.27045 -0.14306 0.64308
 C429 C 0.24776 -0.09382 0.59564
 C430 C 0.27125 -0.08476 0.58490
 C431 C 0.27124 -0.06563 0.56551
 C432 C 0.24774 -0.05512 0.55636
 C433 C 0.22425 -0.06419 0.56705
 C434 C 0.22426 -0.08329 0.58648
 H435 H 0.28961 -0.17784 0.67378
 H436 H 0.28956 -0.21148 0.70734
 H437 H 0.20629 -0.20399 0.71506
 H438 H 0.20617 -0.17074 0.68113
 H439 H 0.28971 -0.09240 0.59148
 H440 H 0.28967 -0.05908 0.55768
 H441 H 0.20581 -0.05649 0.56045
 H442 H 0.20580 -0.08981 0.59428
 C443 C 0.74864 -0.17077 0.32769
 C444 C 0.77190 -0.17861 0.31543
 C445 C 0.77183 -0.19785 0.29633
 C446 C 0.74850 -0.20974 0.28904
 C447 C 0.72524 -0.20191 0.30125
 C448 C 0.72529 -0.18264 0.32034
 C449 C 0.74873 -0.15039 0.34802
 N450 N 0.72620 -0.14206 0.35921
 N451 N 0.72629 -0.12378 0.37749
 C452 C 0.74893 -0.11305 0.38539
 N453 N 0.77147 -0.12138 0.37421
 N454 N 0.77137 -0.13964 0.35592
 C455 C 0.74905 -0.09272 0.40578
 C456 C 0.77260 -0.08240 0.41465
 C457 C 0.77271 -0.06327 0.43388
 C458 C 0.74928 -0.05396 0.44465
 C459 C 0.72574 -0.06423 0.43578
 C460 C 0.72562 -0.08340 0.41659
 H461 H 0.79023 -0.16983 0.32052
 H462 H 0.79001 -0.20323 0.28701
 H463 H 0.70700 -0.21095 0.29629
 H464 H 0.70702 -0.17716 0.32942
 H465 H 0.79101 -0.08912 0.40679
 H466 H 0.79119 -0.05575 0.44028
 H467 H 0.70734 -0.05749 0.44368
 H468 H 0.70712 -0.09088 0.41022
 C469 C 0.67168 0.75028 -0.17108
 C470 C 0.68354 0.77355 -0.17907
 C471 C 0.70292 0.77344 -0.19830
 C472 C 0.71088 0.75007 -0.21001
 C473 C 0.69903 0.72681 -0.20206
 C474 C 0.67968 0.72691 -0.18281
 C475 C 0.65112 0.75037 -0.15067
 N476 N 0.64031 0.72782 -0.14225
 N477 N 0.62185 0.72789 -0.12392
 C478 C 0.61337 0.75051 -0.11322
 N479 N 0.62417 0.77306 -0.12165
 N480 N 0.64265 0.77300 -0.13997
 C481 C 0.59282 0.75056 -0.09280
 C482 C 0.58341 0.77405 -0.08241
 C483 C 0.56406 0.77407 -0.06314
 C484 C 0.55370 0.75060 -0.05378
 C485 C 0.56309 0.72711 -0.06415
 C486 C 0.58240 0.72709 -0.08344
 H487 H 0.67794 0.79190 -0.17041
 H488 H 0.71191 0.79163 -0.20381
 H489 H 0.70447 0.70855 -0.21099
 H490 H 0.67091 0.70864 -0.17723
 H491 H 0.59096 0.79248 -0.08915
 H492 H 0.55725 0.79250 -0.05555
 H493 H 0.55552 0.70869 -0.05737
 H494 H 0.58918 0.70863 -0.09097
 C495 C 0.33047 0.25081 -0.17234
 C496 C 0.31866 0.22742 -0.17962
 C497 C 0.29935 0.22721 -0.19858
 C498 C 0.29141 0.25038 -0.21078
 C499 C 0.30324 0.27377 -0.20358
 C500 C 0.32254 0.27399 -0.18458
 C501 C 0.35082 0.25100 -0.15204
 N502 N 0.36148 0.27366 -0.14405
 N503 N 0.37966 0.27379 -0.12573
 C504 C 0.38799 0.25128 -0.11462
 N505 N 0.37735 0.22864 -0.12263
 N506 N 0.35916 0.22850 -0.14093
 C507 C 0.40820 0.25140 -0.09418
 C508 C 0.41747 0.22797 -0.08349
 C509 C 0.43652 0.22805 -0.06423
 C510 C 0.44671 0.25157 -0.05517
 C511 C 0.43744 0.27500 -0.06582
 C512 C 0.41843 0.27492 -0.08511
 H513 H 0.32419 0.20922 -0.17054
 H514 H 0.29034 0.20893 -0.20340
 H515 H 0.29776 0.29189 -0.21285
 H516 H 0.33127 0.29235 -0.17953
 H517 H 0.41007 0.20949 -0.09000
 H518 H 0.44323 0.20966 -0.05644
 H519 H 0.44490 0.29346 -0.05927
 H520 H 0.41173 0.29333 -0.09288
 C521 C 0.32688 0.75002 0.17309
 C522 C 0.31908 0.77320 0.18518
 C523 C 0.29978 0.77318 0.20448
 C524 C 0.28749 0.74991 0.21232
 C525 C 0.29548 0.72670 0.19993
 C526 C 0.31486 0.72679 0.18071
 C527 C 0.34744 0.75007 0.15266
 N528 N 0.35574 0.72754 0.14164
 N529 N 0.37420 0.72760 0.12331
 C530 C 0.38515 0.75018 0.11518
 N531 N 0.37685 0.77272 0.12620
 N532 N 0.35840 0.77266 0.14454
 C533 C 0.40569 0.75025 0.09475
 C534 C 0.41617 0.77375 0.08556
 C535 C 0.43548 0.77381 0.06626
 C536 C 0.44480 0.75037 0.05572
 C537 C 0.43437 0.72687 0.06492
 C538 C 0.41503 0.72681 0.08419
 H539 H 0.32778 0.79152 0.17965
 H540 H 0.29393 0.79178 0.21231
 H541 H 0.28770 0.70806 0.20565
 H542 H 0.32052 0.70850 0.17195
 H543 H 0.40945 0.79217 0.09323
 H544 H 0.44311 0.79225 0.05960
 H545 H 0.44112 0.70847 0.05720
 H546 H 0.40743 0.70834 0.09080
 C547 C 0.67168 0.25197 0.16995
 C548 C 0.67940 0.27530 0.18164
 C549 C 0.69846 0.27527 0.20088
 C550 C 0.71025 0.25192 0.20889
 C551 C 0.70258 0.22861 0.19717
 C552 C 0.68352 0.22862 0.17794
 C553 C 0.65138 0.25197 0.14959
 N554 N 0.64322 0.22937 0.13894
 N555 N 0.62496 0.22935 0.12070
 C556 C 0.61407 0.25194 0.11230
 N557 N 0.62224 0.27454 0.12294
 N558 N 0.64049 0.27456 0.14119
 C559 C 0.59372 0.25191 0.09200
 C560 C 0.58311 0.27536 0.08271
 C561 C 0.56394 0.27532 0.06357
 C562 C 0.55491 0.25183 0.05329
 C563 C 0.56549 0.22837 0.06258
 C564 C 0.58468 0.22841 0.08169
 H565 H 0.67065 0.29363 0.17603
 H566 H 0.70370 0.29351 0.20978
 H567 H 0.71157 0.21035 0.20266
 H568 H 0.67814 0.21031 0.16931
 H569 H 0.58960 0.29382 0.09019
 H570 H 0.55619 0.29374 0.05684
 H571 H 0.55896 0.20993 0.05507
 H572 H 0.59239 0.20997 0.08838
 C573 C -0.17076 0.67125 0.74996
 C574 C -0.17835 0.68326 0.72661
 C575 C -0.19755 0.70255 0.72656
 C576 C -0.20995 0.71047 0.74991
 C577 C -0.20214 0.69820 0.77329
 C578 C -0.18286 0.67899 0.77328
 C579 C -0.15035 0.65079 0.74998
 N580 N -0.14238 0.63974 0.77265
 N581 N -0.12406 0.62137 0.77268
 C582 C -0.11292 0.61324 0.75004
 N583 N -0.12089 0.62429 0.72737
 N584 N -0.13920 0.64267 0.72734
 C585 C -0.09252 0.59277 0.75008
 C586 C -0.08171 0.58372 0.72654
 C587 C -0.06250 0.56442 0.72658
 C588 C -0.05361 0.55376 0.75016
 C589 C -0.06439 0.56281 0.77369
 C590 C -0.08363 0.58207 0.77365
 H591 H -0.16959 0.67764 0.70822
 H592 H -0.20326 0.71031 0.70784
 H593 H -0.20998 0.70400 0.79199
 H594 H -0.17735 0.67031 0.79169
 H595 H -0.08809 0.59149 0.70802
 H596 H -0.05459 0.55789 0.70811
 H597 H -0.05798 0.55500 0.79219
 H598 H -0.09150 0.58857 0.79214
 C599 C -0.17222 0.33036 0.24949
 C600 C -0.18411 0.32218 0.27285
 C601 C -0.20325 0.30305 0.27269
 C602 C -0.21094 0.29163 0.24918
 C603 C -0.19910 0.29983 0.22582
 C604 C -0.17997 0.31897 0.22596
 C605 C -0.15184 0.35061 0.24966
 N606 N -0.14087 0.35913 0.22706
 N607 N -0.12255 0.37729 0.22723
 C608 C -0.11440 0.38770 0.24999
 N609 N -0.12537 0.37918 0.27259
 N610 N -0.14370 0.36104 0.27243
 C611 C -0.09398 0.40791 0.25017
 C612 C -0.08500 0.41807 0.27381
 C613 C -0.06576 0.43711 0.27397
 C614 C -0.05508 0.44647 0.25049
 C615 C -0.06405 0.43634 0.22685
 C616 C -0.08325 0.41727 0.22669
 H617 H -0.17872 0.33058 0.29131
 H618 H -0.21227 0.29741 0.29097
 H619 H -0.20435 0.29116 0.20743
 H620 H -0.17118 0.32472 0.20761
 H621 H -0.09280 0.41131 0.29227
 H622 H -0.05929 0.44451 0.29252
 H623 H -0.05622 0.44312 0.20841
 H624 H -0.08970 0.40991 0.20812
 C625 C 0.17216 0.32802 0.75076
 C626 C 0.19851 0.33469 0.74851
 C627 C 0.21776 0.31543 0.74883
 C628 C 0.21093 0.28916 0.75078
 C629 C 0.18461 0.28242 0.75273
 C630 C 0.16540 0.30171 0.75303
 C631 C 0.15183 0.34838 0.75073
 N632 N 0.12873 0.34447 0.76306
 N633 N 0.11045 0.36288 0.76313
 C634 C 0.11443 0.38582 0.75063
 N635 N 0.13747 0.38968 0.73819
 N636 N 0.15586 0.37138 0.73835
 C637 C 0.09408 0.40617 0.75058
 C638 C 0.09260 0.42416 0.72998
 C639 C 0.07315 0.44321 0.72977
 C640 C 0.05522 0.44502 0.75046
 C641 C 0.05689 0.42724 0.77120
 C642 C 0.07595 0.40779 0.77111
 H643 H 0.20426 0.35483 0.74686
 H644 H 0.23797 0.32099 0.74723
 H645 H 0.17899 0.26224 0.75434
 H646 H 0.14522 0.29602 0.75467
 H647 H 0.10627 0.42327 0.71386
 H648 H 0.07234 0.45676 0.71359
 H649 H 0.04323 0.42816 0.78734
 H650 H 0.07672 0.39424 0.78728
 C651 C 0.16960 0.67155 0.25177
 C652 C 0.17754 0.68356 0.22839
 C653 C 0.19669 0.70267 0.22843
 C654 C 0.20840 0.71020 0.25183
 C655 C 0.20046 0.69826 0.27521
 C656 C 0.18128 0.67916 0.27519
 C657 C 0.14930 0.65123 0.25170
 N658 N 0.14089 0.64024 0.27433
 N659 N 0.12269 0.62197 0.27425
 C660 C 0.11211 0.61387 0.25154
 N661 N 0.12053 0.62486 0.22892
 N662 N 0.13872 0.64314 0.22900
 C663 C 0.09185 0.59351 0.25144
 C664 C 0.08167 0.58449 0.22782
 C665 C 0.06259 0.56529 0.22772
 C666 C 0.05321 0.55468 0.25122
 C667 C 0.06337 0.56369 0.27483
 C668 C 0.08248 0.58286 0.27494
 H669 H 0.16890 0.67828 0.21001
 H670 H 0.20212 0.71179 0.21015
 H671 H 0.20934 0.70345 0.29350
 H672 H 0.17571 0.67029 0.29354
 H673 H 0.08843 0.59223 0.20935
 H674 H 0.05517 0.55880 0.20919
 H675 H 0.05657 0.55592 0.29328
 H676 H 0.08986 0.58934 0.29349
 C677 C 0.75026 -0.17169 0.67072
 C678 C 0.77363 -0.17957 0.68243
 C679 C 0.77371 -0.19883 0.70170
 C680 C 0.75044 -0.21068 0.70969
 C681 C 0.72708 -0.20283 0.69799
 C682 C 0.72698 -0.18356 0.67874
 C683 C 0.75016 -0.15120 0.65032
 N684 N 0.72751 -0.14279 0.63970
 N685 N 0.72743 -0.12438 0.62140
 C686 C 0.74999 -0.11359 0.61290
 N687 N 0.77263 -0.12201 0.62350
 N688 N 0.77272 -0.14040 0.64182
 C689 C 0.74990 -0.09310 0.59250
 C690 C 0.77336 -0.08271 0.58302
 C691 C 0.77329 -0.06344 0.56376
 C692 C 0.74976 -0.05407 0.55355
 C693 C 0.72630 -0.06441 0.56305
 C694 C 0.72637 -0.08371 0.58228
 H695 H 0.79191 -0.17080 0.67682
 H696 H 0.79198 -0.20418 0.71061
 H697 H 0.70888 -0.21183 0.70352
 H698 H 0.70863 -0.17804 0.67010
 H699 H 0.79185 -0.08947 0.59042
 H700 H 0.79170 -0.05588 0.55687
 H701 H 0.70784 -0.05762 0.55560
 H702 H 0.70794 -0.09124 0.58913
 C703 C 0.24748 -0.17211 0.33067
 C704 C 0.22419 -0.17973 0.31887
 C705 C 0.22427 -0.19880 0.29957
 C706 C 0.24764 -0.21070 0.29164
 C707 C 0.27091 -0.20317 0.30350
 C708 C 0.27084 -0.18409 0.32276
 C709 C 0.24744 -0.15178 0.35105
 N710 N 0.27004 -0.14368 0.36174
 N711 N 0.27004 -0.12538 0.37999
 C712 C 0.24745 -0.11438 0.38837
 N713 N 0.22484 -0.12249 0.37770
 N714 N 0.22484 -0.14078 0.35943
 C715 C 0.24747 -0.09399 0.40869
 C716 C 0.22400 -0.08330 0.41803
 C717 C 0.22405 -0.06410 0.43719
 C718 C 0.24757 -0.05509 0.44743
 C719 C 0.27103 -0.06574 0.43809
 C720 C 0.27098 -0.08498 0.41897
 H721 H 0.20584 -0.17088 0.32442
 H722 H 0.20608 -0.20399 0.29059
 H723 H 0.28918 -0.21227 0.29809
 H724 H 0.28913 -0.17881 0.33150
 H725 H 0.20553 -0.08977 0.41058
 H726 H 0.20564 -0.05629 0.44396
 H727 H 0.28949 -0.05925 0.44558
 H728 H 0.28943 -0.09274 0.41223
 C729 C 0.74953 0.17246 0.32739
 C730 C 0.72613 0.18413 0.31938
 C731 C 0.72616 0.20351 0.30024
 C732 C 0.74956 0.21167 0.28864
 C733 C 0.77294 0.20002 0.29662
 C734 C 0.77294 0.18065 0.31577
 C735 C 0.74952 0.15189 0.34771
 N736 N 0.77214 0.14111 0.35602
 N737 N 0.77214 0.12266 0.37429
 C738 C 0.74951 0.11418 0.38503
 N739 N 0.72688 0.12496 0.37671
 N740 N 0.72689 0.14342 0.35845
 C741 C 0.74951 0.09366 0.40539
 C742 C 0.72602 0.08443 0.41597
 C743 C 0.72603 0.06512 0.43519
 C744 C 0.74953 0.05460 0.44430
 C745 C 0.77302 0.06381 0.43373
 C746 C 0.77301 0.08309 0.41449
 H747 H 0.70775 0.17838 0.32796
 H748 H 0.70786 0.21236 0.29476
 H749 H 0.79125 0.20564 0.28780
 H750 H 0.79131 0.17204 0.32138
 H751 H 0.70755 0.09210 0.40943
 H752 H 0.70760 0.05846 0.44293
 H753 H 0.79147 0.05611 0.44032
 H754 H 0.79147 0.08973 0.40680
 C755 C 0.24901 0.16944 0.67363
 C756 C 0.22583 0.17746 0.68595
 C757 C 0.22610 0.19677 0.70500
 C758 C 0.24953 0.20853 0.71217
 C759 C 0.27270 0.20048 0.69991
 C760 C 0.27245 0.18117 0.68089
 C761 C 0.24878 0.14909 0.65328
 N762 N 0.27127 0.14070 0.64206
 N763 N 0.27110 0.12251 0.62371
 C764 C 0.24841 0.11193 0.61573
 N765 N 0.22590 0.12032 0.62695
 N766 N 0.22608 0.13850 0.64533
 C767 C 0.24824 0.09172 0.59523
 C768 C 0.22469 0.08154 0.58623
 C769 C 0.22457 0.06253 0.56688
 C770 C 0.24800 0.05322 0.55611
 C771 C 0.27155 0.06337 0.56511
 C772 C 0.27167 0.08241 0.58441
 H773 H 0.20744 0.16879 0.68092
 H774 H 0.20797 0.20233 0.71432
 H775 H 0.29102 0.20944 0.70470
 H776 H 0.29066 0.17557 0.67176
 H777 H 0.20628 0.08827 0.59410
 H778 H 0.20609 0.05510 0.56039
 H779 H 0.28994 0.05662 0.55721
 H780 H 0.29018 0.08978 0.59087
   
