data_POSCAR
  _audit_creation_date              2014-09-24
  _audit_creation_method            'ToBaCCo'
  _symmetry_space_group_name_H-M    'P1'
  _symmetry_Int_Tables_number       1
  _symmetry_cell_setting            triclinic
  loop_
  _symmetry_equiv_pos_as_xyz
 x,y,z
_cell_length_a 37.8793
_cell_length_b 39.4119
_cell_length_c 22.0883
_cell_angle_alpha 89.863400
_cell_angle_beta 89.886600
_cell_angle_gamma 118.071900
loop_
  _atom_site_label
  _atom_site_type_symbol
  _atom_site_fract_x
  _atom_site_fract_y
  _atom_site_fract_z
C1 C 0.46522 0.91813 0.55128
 C2 C 0.45501 0.90074 0.49406
 C3 C 0.46524 0.92220 0.44059
 C4 C 0.48575 0.96277 0.44330
 C5 C 0.49677 0.98138 0.50024
 C6 C 0.48744 0.95905 0.55432
 C7 C 0.50412 0.97811 0.60889
 C8 C 0.52582 1.01791 0.61145
 C9 C 0.53199 1.04089 0.55964
 C10 C 0.51884 1.02235 0.50286
 C11 C 0.49628 0.98514 0.39036
 C12 C 0.51843 1.02489 0.39282
 C13 C 0.52937 1.04445 0.44850
 C14 C 0.55344 1.08509 0.45124
 C15 C 0.56632 1.10254 0.50792
 C16 C 0.55452 1.08167 0.56239
 H17 H 0.50224 0.96254 0.65010
 H18 H 0.53920 1.03034 0.65444
 H19 H 0.48824 0.97211 0.34607
 H20 H 0.52786 1.03975 0.35000
 H21 H 0.43815 0.86968 0.49065
 H22 H 0.58283 1.13368 0.50968
 C23 C 0.08275 0.55613 0.55755
 C24 C 0.10367 0.56782 0.50273
 C25 C 0.08457 0.55443 0.44722
 C26 C 0.04319 0.52815 0.44609
 C27 C 0.02120 0.51687 0.50107
 C28 C 0.04105 0.53081 0.55708
 C29 C 0.01864 0.51928 0.61097
 C30 C -0.02209 0.49362 0.61010
 C31 C -0.04232 0.47924 0.55519
 C32 C -0.02064 0.49123 0.50005
 C33 C 0.02360 0.51172 0.39168
 C34 C -0.01716 0.48633 0.39079
 C35 C -0.04049 0.47712 0.44397
 C36 C -0.08254 0.45194 0.44318
 C37 C -0.10271 0.43892 0.49874
 C38 C -0.08347 0.45249 0.55410
 H39 H 0.03235 0.52988 0.65453
 H40 H -0.03751 0.48505 0.65316
 H41 H 0.03974 0.51768 0.34921
 H42 H -0.02987 0.47328 0.34783
 H43 H 0.13552 0.58753 0.50327
 H44 H -0.13470 0.41982 0.49940
 C45 C 0.44774 0.53529 0.55457
 C46 C 0.44194 0.54837 0.49815
 C47 C 0.44984 0.53522 0.44385
 C48 C 0.46547 0.50903 0.44482
 C49 C 0.47304 0.49627 0.50108
 C50 C 0.46351 0.50878 0.55620
 C51 C 0.47213 0.49599 0.61101
 C52 C 0.48827 0.47080 0.61184
 C53 C 0.49990 0.45958 0.55813
 C54 C 0.49090 0.47149 0.50208
 C55 C 0.47348 0.49512 0.39085
 C56 C 0.49028 0.47050 0.39187
 C57 C 0.50007 0.45903 0.44687
 C58 C 0.51832 0.43495 0.44782
 C59 C 0.52590 0.42245 0.50319
 C60 C 0.51856 0.43542 0.55872
 H61 H 0.46712 0.50552 0.65439
 H62 H 0.49134 0.46022 0.65561
 H63 H 0.46683 0.50313 0.34711
 H64 H 0.49537 0.46042 0.34886
 H65 H 0.42974 0.56836 0.49612
 H66 H 0.54128 0.40516 0.50258
 O67 O 0.39555 0.66295 -0.05277
 O68 O 0.39614 0.72816 -0.07194
 C69 C 0.37821 0.74746 -0.08445
 O70 O 0.34867 0.74509 -0.05363
 O71 O 0.28121 0.68274 -0.06873
 C72 C 0.26205 0.64716 -0.08035
 O73 O 0.26677 0.62187 -0.05066
 O74 O 0.33275 0.61829 -0.06969
 C75 C 0.36969 0.63458 -0.08252
 O76 O 0.39527 0.67482 0.06752
 O77 O 0.39971 0.74190 0.04812
 C78 C 0.37586 0.74957 0.07858
 O79 O 0.33873 0.73431 0.06773
 O80 O 0.26980 0.67372 0.05225
 C81 C 0.26349 0.64382 0.08242
 O82 O 0.28012 0.62335 0.06982
 O83 O 0.34428 0.61653 0.05098
 C84 C 0.37533 0.63940 0.08024
 Cr85 Cr 0.39446 0.70103 -0.00218
 Cr86 Cr 0.31065 0.70777 -0.00059
 Cr87 Cr 0.30714 0.62213 0.00009
 O88 O 0.33738 0.67696 -0.00087
 O89 O 0.60357 0.32119 -0.06675
 O90 O 0.60617 0.25726 -0.04567
 C91 C 0.63210 0.25267 -0.07633
 O92 O 0.66927 0.27101 -0.06546
 O93 O 0.73478 0.33514 -0.04871
 C94 C 0.73777 0.36318 -0.08091
 O95 O 0.71779 0.38080 -0.07011
 O96 O 0.65030 0.38140 -0.04966
 C97 C 0.62079 0.35674 -0.07964
 O98 O 0.60207 0.33325 0.05386
 O99 O 0.60797 0.27102 0.07449
 C100 C 0.62907 0.25475 0.08677
 O101 O 0.65934 0.25981 0.05538
 O102 O 0.72260 0.32552 0.07219
 C103 C 0.73921 0.36135 0.08219
 O104 O 0.73252 0.38451 0.05001
 O105 O 0.66330 0.38135 0.07040
 C106 C 0.62643 0.36259 0.08358
 Cr107 Cr 0.60708 0.29676 0.00389
 Cr108 Cr 0.69532 0.29885 0.00328
 Cr109 Cr 0.68998 0.37996 0.00023
 O110 O 0.66409 0.32516 0.00244
 C111 C 0.42966 0.84529 -0.29530
 C112 C 0.44567 0.83594 -0.34599
 C113 C 0.45724 0.85998 -0.39648
 C114 C 0.45340 0.89381 -0.39703
 C115 C 0.43572 0.90126 -0.34605
 N116 N 0.42452 0.87722 -0.29727
 C117 C 0.41771 0.82081 -0.24035
 N118 N 0.38759 0.81920 -0.20463
 C119 C 0.37474 0.79653 -0.15430
 C120 C 0.39261 0.77375 -0.13737
 C121 C 0.42433 0.77578 -0.17290
 C122 C 0.43698 0.79924 -0.22403
 H123 H 0.47044 0.85263 -0.43445
 H124 H 0.43007 0.92575 -0.34542
 H125 H 0.35038 0.79608 -0.12802
 H126 H 0.43934 0.75907 -0.16146
 H127 H 0.44892 0.81011 -0.34718
 H128 H 0.46190 0.80065 -0.24998
 C129 C 0.15421 0.59887 -0.28339
 C130 C 0.15116 0.62470 -0.32453
 C131 C 0.12702 0.61058 -0.37555
 C132 C 0.10593 0.57096 -0.38592
 C133 C 0.10987 0.54606 -0.34432
 N134 N 0.13360 0.56043 -0.29486
 C135 C 0.18070 0.61208 -0.22962
 N136 N 0.19124 0.58716 -0.20224
 C137 C 0.21638 0.59732 -0.15397
 C138 C 0.23292 0.63478 -0.13070
 C139 C 0.22180 0.66069 -0.15737
 C140 C 0.19558 0.64945 -0.20629
 H141 H 0.12520 0.63060 -0.40750
 H142 H 0.09462 0.51530 -0.35170
 H143 H 0.22397 0.57632 -0.13468
 H144 H 0.23334 0.68972 -0.14039
 H145 H 0.16794 0.65548 -0.31894
 H146 H 0.18714 0.66997 -0.22487
 C147 C 0.41837 0.57938 -0.29074
 C148 C 0.44263 0.60455 -0.33609
 C149 C 0.45208 0.58980 -0.38724
 C150 C 0.43830 0.55002 -0.39305
 C151 C 0.41300 0.52574 -0.34736
 N152 N 0.40376 0.54081 -0.29819
 C153 C 0.40727 0.59384 -0.23613
 N154 N 0.37081 0.57217 -0.21006
 C155 C 0.35835 0.58430 -0.16076
 C156 C 0.38339 0.62012 -0.13448
 C157 C 0.42149 0.64245 -0.15980
 C158 C 0.43348 0.62948 -0.21057
 H159 H 0.47112 0.60968 -0.42163
 H160 H 0.39983 0.49480 -0.35140
 H161 H 0.32887 0.56601 -0.14234
 H162 H 0.44182 0.67020 -0.14097
 H163 H 0.45367 0.63528 -0.33274
 H164 H 0.46307 0.64707 -0.22919
 C165 C 0.58199 0.14798 -0.27785
 C166 C 0.54416 0.11579 -0.28398
 C167 C 0.53522 0.09350 -0.33630
 C168 C 0.56395 0.10261 -0.38256
 C169 C 0.60149 0.13510 -0.37420
 N170 N 0.60944 0.15632 -0.32286
 C171 C 0.59325 0.17334 -0.22415
 N172 N 0.63279 0.19551 -0.21170
 C173 C 0.64580 0.22046 -0.16453
 C174 C 0.61826 0.22461 -0.12665
 C175 C 0.57730 0.20213 -0.13874
 C176 C 0.56469 0.17656 -0.18730
 H177 H 0.50529 0.06983 -0.34131
 H178 H 0.62491 0.14326 -0.40790
 H179 H 0.67767 0.23732 -0.15723
 H180 H 0.55497 0.20457 -0.11108
 H181 H 0.52159 0.10765 -0.24900
 H182 H 0.53301 0.16044 -0.19649
 C183 C 0.84360 0.41159 -0.28738
 C184 C 0.85253 0.38635 -0.32113
 C185 C 0.87672 0.39988 -0.37253
 C186 C 0.89211 0.43838 -0.39016
 C187 C 0.88225 0.46261 -0.35593
 N188 N 0.85847 0.44879 -0.30614
 C189 C 0.81727 0.39861 -0.23333
 N190 N 0.79720 0.41815 -0.21688
 C191 C 0.77205 0.40769 -0.16838
 C192 C 0.76596 0.37576 -0.13285
 C193 C 0.78693 0.35563 -0.14839
 C194 C 0.81259 0.36696 -0.19831
 H195 H 0.88327 0.38034 -0.39881
 H196 H 0.89319 0.49237 -0.36909
 H197 H 0.75673 0.42423 -0.15793
 H198 H 0.78345 0.33100 -0.12211
 H199 H 0.84027 0.35629 -0.30918
 H200 H 0.82885 0.35130 -0.20857
 C201 C 0.56379 0.40731 -0.28502
 C202 C 0.57016 0.44512 -0.29336
 C203 C 0.55522 0.45443 -0.34485
 C204 C 0.53294 0.42613 -0.38784
 C205 C 0.52789 0.38876 -0.37808
 N206 N 0.54277 0.38040 -0.32752
 C207 C 0.57893 0.39563 -0.23125
 N208 N 0.56141 0.35777 -0.21531
 C209 C 0.57384 0.34471 -0.16703
 C210 C 0.60602 0.37042 -0.13150
 C211 C 0.62471 0.40954 -0.14743
 C212 C 0.61142 0.42221 -0.19713
 H213 H 0.56197 0.48410 -0.35164
 H214 H 0.51115 0.36590 -0.40981
 H215 H 0.55869 0.31426 -0.15678
 H216 H 0.64996 0.43041 -0.12191
 H217 H 0.58617 0.46742 -0.26056
 H218 H 0.62720 0.45236 -0.20910
 C219 C 0.84614 0.41905 0.28555
 C220 C 0.87654 0.45713 0.29157
 C221 C 0.90024 0.46797 0.34342
 C222 C 0.89455 0.44096 0.38924
 C223 C 0.86345 0.40320 0.38141
 N224 N 0.84078 0.39336 0.33046
 C225 C 0.81978 0.40570 0.23181
 N226 N 0.80047 0.36739 0.21926
 C227 C 0.77517 0.35268 0.17158
 C228 C 0.76772 0.37703 0.13316
 C229 C 0.78714 0.41662 0.14544
 C230 C 0.81303 0.43103 0.19458
 H231 H 0.92237 0.49786 0.34828
 H232 H 0.85781 0.38115 0.41497
 H233 H 0.76067 0.32193 0.16418
 H234 H 0.78200 0.43647 0.11749
 H235 H 0.88240 0.47847 0.25676
 H236 H 0.82664 0.46150 0.20378
 C237 C 0.58784 0.15773 0.29796
 C238 C 0.61650 0.16170 0.34135
 C239 C 0.60494 0.13786 0.39217
 C240 C 0.56499 0.10931 0.39956
 C241 C 0.53697 0.10738 0.35609
 N242 N 0.54893 0.13126 0.30716
 C243 C 0.59895 0.18215 0.24309
 N244 N 0.57228 0.19234 0.21875
 C245 C 0.58099 0.21519 0.16879
 C246 C 0.61831 0.22880 0.13992
 C247 C 0.64585 0.21790 0.16363
 C248 C 0.63635 0.19472 0.21511
 H249 H 0.62757 0.14100 0.42486
 H250 H 0.50549 0.08737 0.36154
 H251 H 0.55877 0.22266 0.15174
 H252 H 0.67497 0.22767 0.14285
 H253 H 0.64748 0.18330 0.33659
 H254 H 0.65792 0.18640 0.23227
 C255 C 0.56625 0.40883 0.28992
 C256 C 0.58083 0.44728 0.30793
 C257 C 0.56492 0.45566 0.35922
 C258 C 0.53424 0.42599 0.39219
 C259 C 0.52024 0.38802 0.37278
 N260 N 0.53623 0.38048 0.32258
 C261 C 0.58247 0.39835 0.23623
 N262 N 0.55888 0.36503 0.20657
 C263 C 0.57195 0.35334 0.15742
 C264 C 0.61118 0.37555 0.13569
 C265 C 0.63609 0.40983 0.16596
 C266 C 0.62193 0.42129 0.21606
 H267 H 0.57652 0.48529 0.37332
 H268 H 0.49666 0.36447 0.39745
 H269 H 0.55181 0.32650 0.13590
 H270 H 0.66667 0.42771 0.15128
 H271 H 0.60388 0.47076 0.28249
 H272 H 0.64212 0.44736 0.23937
 C273 C 0.15713 0.59611 0.28828
 C274 C 0.12528 0.60451 0.29720
 C275 C 0.10145 0.59082 0.34902
 C276 C 0.10903 0.56859 0.39145
 C277 C 0.14096 0.56079 0.38102
 N278 N 0.16373 0.57437 0.33028
 C279 C 0.18338 0.60923 0.23415
 N280 N 0.20415 0.59019 0.21891
 C281 C 0.22942 0.60049 0.17070
 C282 C 0.23536 0.63207 0.13440
 C283 C 0.21449 0.65238 0.14944
 C284 C 0.18854 0.64111 0.19919
 H285 H 0.07703 0.59743 0.35604
 H286 H 0.14762 0.54377 0.41302
 H287 H 0.24502 0.58408 0.16118
 H288 H 0.21839 0.67711 0.12307
 H289 H 0.11826 0.62083 0.26442
 H290 H 0.17357 0.65781 0.21055
 C291 C 0.43434 0.85497 0.27903
 C292 C 0.47484 0.87984 0.29173
 C293 C 0.48494 0.90232 0.34394
 C294 C 0.45491 0.90067 0.38280
 C295 C 0.41491 0.87609 0.36820
 N296 N 0.40578 0.85422 0.31743
 C297 C 0.42131 0.82920 0.22566
 N298 N 0.38221 0.81324 0.20883
 C299 C 0.36724 0.78829 0.16190
 C300 C 0.39211 0.77766 0.12869
 C301 C 0.43256 0.79371 0.14515
 C302 C 0.44723 0.81931 0.19355
 H303 H 0.51617 0.92080 0.35436
 H304 H 0.39102 0.87399 0.39751
 H305 H 0.33583 0.77661 0.15101
 H306 H 0.45279 0.78608 0.12122
 H307 H 0.49863 0.88226 0.26205
 H308 H 0.47822 0.83020 0.20612
 C309 C 0.42436 0.57983 0.28313
 C310 C 0.46438 0.59122 0.29860
 C311 C 0.47278 0.57625 0.35069
 C312 C 0.44148 0.54990 0.38692
 C313 C 0.40200 0.53878 0.36967
 N314 N 0.39450 0.55371 0.31877
 C315 C 0.41357 0.59551 0.22950
 N316 N 0.37722 0.57426 0.20322
 C317 C 0.36467 0.58728 0.15508
 C318 C 0.38907 0.62411 0.13115
 C319 C 0.42659 0.64658 0.15780
 C320 C 0.43895 0.63243 0.20676
 H321 H 0.50360 0.58532 0.36302
 H322 H 0.37722 0.51842 0.39686
 H323 H 0.33539 0.56908 0.13628
 H324 H 0.44634 0.67524 0.14111
 H325 H 0.48896 0.61116 0.27072
 H326 H 0.46755 0.65073 0.22740
   
