data_POSCAR
  _audit_creation_date              2014-09-24
  _audit_creation_method            'ToBaCCo'
  _symmetry_space_group_name_H-M    'P1'
  _symmetry_Int_Tables_number       1
  _symmetry_cell_setting            triclinic
  loop_
  _symmetry_equiv_pos_as_xyz
 x,y,z
_cell_length_a 20.9689
_cell_length_b 20.9908
_cell_length_c 34.2145
_cell_angle_alpha 78.233100
_cell_angle_beta 99.162100
_cell_angle_gamma 84.084800
loop_
  _atom_site_label
  _atom_site_type_symbol
  _atom_site_fract_x
  _atom_site_fract_y
  _atom_site_fract_z
O1 O 0.03530 0.53021 1.04763
 O2 O 0.04903 0.44014 0.96712
 O3 O 0.04993 0.56216 0.97223
 O4 O 0.03438 0.40895 1.04182
 O5 O -0.07304 0.42998 1.02421
 O6 O -0.05688 0.58137 0.95151
 O7 O -0.05825 0.45602 0.94853
 O8 O -0.07157 0.55175 1.02686
 Cu9 Cu 0.05286 0.48369 1.00904
 Cu10 Cu -0.07576 0.50688 0.98537
 C11 C -0.02039 0.55625 1.05099
 C12 C -0.00222 0.43114 0.94487
 C13 C -0.00059 0.59823 0.95017
 C14 C -0.02180 0.39368 1.04521
 O15 O 0.58399 -0.02048 0.54555
 O16 O 0.44436 -0.05090 0.47553
 O17 O 0.56819 -0.04854 0.47386
 O18 O 0.46182 -0.02213 0.54626
 O19 O 0.44208 0.08405 0.51776
 O20 O 0.54778 0.05715 0.44430
 O21 O 0.42267 0.05510 0.44685
 O22 O 0.56560 0.08498 0.51544
 Cu23 Cu 0.51675 -0.04619 0.51298
 Cu24 Cu 0.49245 0.08094 0.47791
 C25 C 0.59852 0.03735 0.54263
 C26 C 0.40882 -0.00303 0.44994
 C27 C 0.57666 -0.00025 0.44702
 C28 C 0.43420 0.03535 0.54457
 C29 C -0.04481 -0.14786 0.23676
 C30 C -0.10155 -0.14001 0.25923
 C31 C -0.10409 -0.08590 0.27549
 C32 C -0.04907 -0.04426 0.26770
 C33 C -0.05112 -0.08301 0.20553
 C34 C -0.05322 -0.02893 0.22150
 C35 C 0.01617 -0.14745 0.26809
 C36 C 0.01444 -0.09293 0.28404
 H37 H -0.13586 -0.17507 0.26255
 H38 H -0.05079 0.00006 0.28075
 H39 H -0.04988 -0.08058 0.17371
 H40 H 0.05826 -0.18514 0.27537
 C41 C 0.11631 0.07023 0.72374
 C42 C 0.11506 0.00551 0.75397
 C43 C 0.06294 0.00557 0.77310
 C44 C 0.01665 0.07100 0.76058
 C45 C 0.05018 0.08320 0.69503
 C46 C -0.00184 0.08310 0.71415
 C47 C 0.11303 0.12253 0.74877
 C48 C 0.06088 0.12348 0.76805
 H49 H 0.15136 -0.03736 0.75907
 H50 H -0.02595 0.07143 0.77615
 H51 H 0.04527 0.08733 0.66256
 H52 H 0.14878 0.15605 0.75073
 C53 C -0.03482 -0.33690 0.14047
 N54 N 0.02362 -0.36885 0.13807
 N55 N 0.02812 -0.40357 0.10984
 C56 C -0.02564 -0.40746 0.08295
 N57 N -0.08417 -0.37606 0.08560
 N58 N -0.08864 -0.34124 0.11377
 C59 C -0.03895 -0.29411 0.16920
 N60 N -0.09576 -0.25570 0.16784
 N61 N -0.09811 -0.21179 0.19088
 C62 C -0.04388 -0.20497 0.21641
 N63 N 0.01271 -0.24424 0.21824
 N64 N 0.01511 -0.28807 0.19511
 C65 C -0.03537 0.21813 0.12460
 N66 N -0.08566 0.26820 0.11471
 N67 N -0.08164 0.32439 0.08929
 C68 C -0.02688 0.33257 0.07339
 N69 N 0.02355 0.28277 0.08370
 N70 N 0.01915 0.22639 0.10855
 C71 C -0.04031 0.15471 0.15047
 N72 N -0.00611 0.09928 0.14573
 N73 N -0.01067 0.04102 0.16838
 C74 C -0.04881 0.03604 0.19708
 N75 N -0.08249 0.09155 0.20231
 N76 N -0.07875 0.14994 0.17910
 C77 C 0.31198 0.05918 0.62727
 N78 N 0.34839 0.00046 0.63037
 N79 N 0.38779 -0.00665 0.60422
 C80 C 0.39233 0.04471 0.57398
 N81 N 0.35640 0.10375 0.57101
 N82 N 0.31673 0.11081 0.59715
 C83 C 0.26542 0.06479 0.65458
 N84 N 0.22329 0.12076 0.64946
 N85 N 0.17760 0.12323 0.67234
 C86 C 0.17245 0.06987 0.70118
 N87 N 0.21543 0.01443 0.70664
 N88 N 0.26099 0.01194 0.68383
 C89 C -0.24421 0.06838 0.62106
 N90 N -0.26663 0.00945 0.62682
 N91 N -0.31774 -0.00051 0.60137
 C92 C -0.34877 0.04833 0.56947
 N93 N -0.32688 0.10764 0.56409
 N94 N -0.27510 0.11726 0.58919
 C95 C -0.18464 0.07725 0.64703
 N96 N -0.14555 0.12013 0.63212
 N97 N -0.08812 0.12356 0.65411
 C98 C -0.06825 0.08510 0.69207
 N99 N -0.10799 0.04330 0.70738
 N100 N -0.16501 0.03911 0.68512
 C101 C 0.02219 -0.22743 0.87701
 N102 N 0.07470 -0.27035 0.89880
 N103 N 0.06703 -0.32679 0.92236
 C104 C 0.00652 -0.34296 0.92480
 N105 N -0.04620 -0.30015 0.90281
 N106 N -0.03850 -0.24331 0.87941
 C107 C 0.03191 -0.16574 0.85080
 N108 N -0.01846 -0.11678 0.83370
 N109 N -0.00861 -0.06151 0.80958
 C110 C 0.05183 -0.05348 0.80153
 N111 N 0.10198 -0.10243 0.81877
 N112 N 0.09229 -0.15727 0.84307
 C113 C 0.01914 0.30588 0.86577
 N114 N 0.07104 0.33104 0.88271
 N115 N 0.06376 0.37184 0.90728
 C116 C 0.00417 0.38969 0.91553
 N117 N -0.04803 0.36512 0.89828
 N118 N -0.04065 0.32381 0.87388
 C119 C 0.02863 0.25911 0.83983
 N120 N -0.01916 0.22395 0.82839
 N121 N -0.00904 0.18047 0.80570
 C122 C 0.04909 0.17085 0.79351
 N123 N 0.09660 0.20623 0.80491
 N124 N 0.08668 0.24926 0.82774
 C125 C -0.29182 -0.03299 0.37087
 N126 N -0.31284 0.02914 0.37350
 N127 N -0.35567 0.03983 0.39720
 C128 C -0.37861 -0.01127 0.41934
 N129 N -0.35752 -0.07330 0.41669
 N130 N -0.31522 -0.08392 0.39274
 C131 C -0.24393 -0.04560 0.34534
 N132 N -0.23281 -0.10585 0.33707
 N133 N -0.18875 -0.11827 0.31460
 C134 C -0.15359 -0.07115 0.29979
 N135 N -0.16453 -0.01084 0.30814
 N136 N -0.20909 0.00180 0.33038
 C137 C 0.23961 -0.03961 0.38017
 N138 N 0.28540 -0.08988 0.40229
 N139 N 0.33953 -0.07803 0.42414
 C140 C 0.35027 -0.01544 0.42438
 N141 N 0.30467 0.03496 0.40208
 N142 N 0.25026 0.02308 0.38039
 C143 C 0.18001 -0.05331 0.35622
 N144 N 0.12984 -0.00463 0.33822
 N145 N 0.07644 -0.01746 0.31600
 C146 C 0.07137 -0.07934 0.31085
 N147 N 0.12148 -0.12793 0.32904
 N148 N 0.17461 -0.11524 0.35144
   
