data_POSCAR
  _audit_creation_date              2014-09-24
  _audit_creation_method            'ToBaCCo'
  _symmetry_space_group_name_H-M    'P1'
  _symmetry_Int_Tables_number       1
  _symmetry_cell_setting            triclinic
  loop_
  _symmetry_equiv_pos_as_xyz
 x,y,z
_cell_length_a 34.1687
_cell_length_b 34.1795
_cell_length_c 34.2695
_cell_angle_alpha 89.999400
_cell_angle_beta 90.134200
_cell_angle_gamma 89.866200
loop_
  _atom_site_label
  _atom_site_type_symbol
  _atom_site_fract_x
  _atom_site_fract_y
  _atom_site_fract_z
C1 C 0.32008 0.36786 1.36997
 N2 N 0.33417 0.38594 1.33767
 C3 C 0.36649 0.37167 1.31958
 N4 N 0.38456 0.33918 1.33364
 C5 C 0.37048 0.32109 1.36593
 N6 N 0.33817 0.33538 1.38400
 C7 C 1.17962 0.63427 0.87304
 N8 N 1.16158 0.66672 0.88715
 C9 C 1.12903 0.68088 0.86922
 N10 N 1.11469 0.66273 0.83701
 C11 C 1.13273 0.63028 0.82289
 N12 N 1.16526 0.61614 0.84083
 C13 C 0.67877 -0.13396 0.12709
 N14 N 0.66455 -0.11590 0.15936
 C15 C 0.63217 -0.13005 0.17729
 N16 N 0.61417 -0.16243 0.16310
 C17 C 0.62837 -0.18050 0.13083
 N18 N 0.66077 -0.16634 0.11290
 C19 C -0.18030 1.13252 -0.37075
 N20 N -0.16614 1.11454 -0.33833
 C21 C -0.13377 1.12871 -0.32025
 N22 N -0.11570 1.16103 -0.33443
 C23 C -0.12985 1.17903 -0.36685
 N24 N -0.16223 1.16483 -0.38493
 C25 C 0.67865 0.63415 0.62778
 N26 N 0.66436 0.61621 0.66005
 C27 C 0.63196 0.63056 0.67792
 N28 N 0.61400 0.66301 0.66365
 C29 C 0.62828 0.68097 0.63137
 N30 N 0.66069 0.66660 0.61352
 C31 C 0.82002 0.36744 0.12998
 N32 N 0.83424 0.38529 0.16240
 C33 C 0.86662 0.37092 0.18043
 N34 N 0.88464 0.33852 0.16617
 C35 C 0.87044 0.32065 0.13375
 N36 N 0.83805 0.33504 0.11574
 C37 C 0.31948 0.13161 0.86981
 N38 N 0.33358 0.11367 0.83740
 C39 C 0.36585 0.12795 0.81936
 N40 N 0.38387 0.16031 0.83359
 C41 C 0.36979 0.17824 0.86598
 N42 N 0.33752 0.16396 0.88401
 C43 C 0.18008 0.86638 0.37282
 N44 N 0.16210 0.83406 0.38710
 C45 C 0.12960 0.81989 0.36921
 N46 N 0.11525 0.83789 0.33690
 C47 C 0.13323 0.87021 0.32261
 N48 N 0.16571 0.88437 0.34050
 Zn49 Zn 0.04820 0.97750 0.00890
 Zn50 Zn 0.00785 1.04856 -0.02213
 Zn51 Zn -0.03024 0.96994 -0.02974
 Zn52 Zn -0.02311 1.00837 0.04862
 O53 O 0.00063 1.00105 0.00137
 O54 O 0.08822 1.00602 -0.00909
 O55 O -0.01674 1.05199 -0.06808
 O56 O -0.00604 0.92551 -0.04426
 O57 O 0.05823 1.05875 -0.03218
 O58 O 0.05179 0.93141 -0.01542
 O59 O -0.04494 0.99394 -0.07411
 O60 O -0.06910 0.98381 0.05181
 O61 O -0.01018 1.08867 0.00639
 O62 O -0.07467 0.95521 -0.00601
 O63 O -0.03327 1.05877 0.05886
 O64 O 0.00545 0.99037 0.08873
 O65 O 0.05846 0.96758 0.05922
 C66 C 0.08907 1.03906 -0.02585
 C67 C -0.03768 1.02796 -0.08694
 C68 C 0.02793 0.91257 -0.03658
 C69 C -0.08776 0.96268 0.02779
 C70 C -0.02691 1.08959 0.03934
 C71 C 0.03866 0.97382 0.08983
 Zn72 Zn 0.47654 0.00838 0.45074
 Zn73 Zn 0.46952 -0.03003 0.52907
 Zn74 Zn 0.54792 -0.02243 0.49073
 Zn75 Zn 0.50756 0.04859 0.52162
 O76 O 0.50034 0.00109 0.49808
 O77 O 0.43053 -0.01618 0.44739
 O78 O 0.49375 -0.07441 0.54370
 O79 O 0.55809 -0.03243 0.44045
 O80 O 0.42507 -0.04480 0.50517
 O81 O 0.50505 -0.00964 0.41075
 O82 O 0.55159 -0.06849 0.51513
 O83 O 0.55796 0.05885 0.53177
 O84 O 0.45483 -0.00605 0.57336
 O85 O 0.58796 0.00617 0.50875
 O86 O 0.48303 0.05201 0.56749
 O87 O 0.48948 0.08867 0.49303
 O88 O 0.46638 0.05877 0.44044
 C89 C 0.41193 -0.03734 0.47134
 C90 C 0.52774 -0.08732 0.53619
 C91 C 0.53825 -0.02621 0.40977
 C92 C 0.58881 0.03923 0.52548
 C93 C 0.46210 0.02796 0.58625
 C94 C 0.47276 0.08959 0.45999
 Zn95 Zn 1.00821 0.45078 0.47855
 Zn96 Zn 1.04829 0.52174 0.50968
 Zn97 Zn 0.96985 0.52943 0.47097
 Zn98 Zn 0.97707 0.49096 0.54933
 O99 O 1.00081 0.49827 0.50209
 O100 O 1.05863 0.44052 0.46853
 O101 O 1.05174 0.56783 0.48539
 O102 O 0.95523 0.50548 0.42657
 O103 O 1.08842 0.49319 0.49170
 O104 O 0.98367 0.44741 0.43258
 O105 O 0.99391 0.57383 0.45650
 O106 O 0.93100 0.51558 0.55250
 O107 O 1.05847 0.53167 0.56002
 O108 O 0.92536 0.54422 0.49470
 O109 O 1.00553 0.50891 0.58948
 O110 O 0.96702 0.44056 0.55949
 O111 O 0.99025 0.41068 0.50700
 C112 C 1.08940 0.46018 0.47489
 C113 C 1.02784 0.58671 0.46422
 C114 C 0.96264 0.47147 0.41372
 C115 C 0.91229 0.53676 0.52849
 C116 C 1.03867 0.52546 0.59061
 C117 C 0.97346 0.40976 0.53992
 Zn118 Zn 0.47655 0.49237 0.95139
 Zn119 Zn 0.54787 0.52305 0.99129
 Zn120 Zn 0.46946 0.53080 1.02973
 Zn121 Zn 0.50777 0.45213 1.02226
 O122 O 0.50037 0.49963 0.99871
 O123 O 0.50497 0.51033 0.91135
 O124 O 0.55139 0.56911 1.01564
 O125 O 0.42494 0.54562 1.00586
 O126 O 0.55797 0.53301 0.94100
 O127 O 0.43047 0.51700 0.94807
 O128 O 0.49358 0.57517 1.04430
 O129 O 0.48328 0.44875 1.06815
 O130 O 0.58802 0.49442 1.00933
 O131 O 0.45489 0.50684 1.07407
 O132 O 0.55820 0.44179 1.03239
 O133 O 0.48977 0.41207 0.99371
 O134 O 0.46653 0.44199 0.94114
 C135 C 0.53813 0.52684 0.91034
 C136 C 0.52752 0.58801 1.03672
 C137 C 0.41180 0.53817 0.97203
 C138 C 0.46229 0.47281 1.08693
 C139 C 0.58899 0.46138 1.02609
 C140 C 0.47300 0.41117 0.96071
 C141 C 1.28716 0.38151 0.38749
 C142 C 1.25765 0.39339 0.40267
 C143 C 1.22273 0.40716 0.41984
 C144 C 1.19261 0.41895 0.43384
 C145 C 1.15697 0.43292 0.44931
 C146 C 1.12626 0.44514 0.46159
 C147 C 0.21278 0.62067 0.89032
 C148 C 0.24251 0.60858 0.90506
 C149 C 0.27770 0.59432 0.92146
 C150 C 0.30804 0.58195 0.93463
 C151 C 0.34391 0.56715 0.94896
 C152 C 0.37479 0.55416 0.96013
 C153 C -0.28633 0.88042 0.10886
 C154 C -0.25668 0.89249 0.09421
 C155 C -0.22159 0.90672 0.07791
 C156 C -0.19131 0.91906 0.06485
 C157 C -0.15552 0.93381 0.05064
 C158 C -0.12470 0.94676 0.03957
 C159 C 0.78672 0.11892 0.61177
 C160 C 0.75715 0.10696 0.59671
 C161 C 0.72218 0.09301 0.57976
 C162 C 0.69202 0.08102 0.56598
 C163 C 0.65636 0.06680 0.55076
 C164 C 0.62565 0.05440 0.53867
 C165 C 0.38790 0.28800 0.37944
 C166 C 0.40280 0.25833 0.39144
 C167 C 0.41948 0.22324 0.40553
 C168 C 0.43299 0.19299 0.41769
 C169 C 0.44789 0.15724 0.43212
 C170 C 0.45976 0.12648 0.44469
 C171 C 0.88760 0.21196 0.61954
 C172 C 0.90261 0.24149 0.60757
 C173 C 0.91949 0.27642 0.59360
 C174 C 0.93321 0.30656 0.58161
 C175 C 0.94834 0.34220 0.56740
 C176 C 0.96037 0.37291 0.55503
 C177 C 0.11161 0.71395 -0.11725
 C178 C 0.09664 0.74359 -0.10535
 C179 C 0.07987 0.77868 -0.09139
 C180 C 0.06636 0.80895 -0.07934
 C181 C 0.05162 0.84475 -0.06492
 C182 C 0.04013 0.87559 -0.05224
 C183 C 0.61099 0.78649 1.11725
 C184 C 0.59605 0.75688 1.10534
 C185 C 0.57930 0.72183 1.09142
 C186 C 0.56581 0.69158 1.07940
 C187 C 0.55110 0.65580 1.06503
 C188 C 0.53964 0.62498 1.05238
 C189 C 0.38079 0.39011 1.28480
 C190 C 0.39277 0.40499 1.25527
 C191 C 0.40686 0.42160 1.22032
 C192 C 0.41906 0.43496 1.19016
 C193 C 0.43365 0.44949 1.15450
 C194 C 0.44648 0.46081 1.12378
 C195 C 0.61779 -0.11164 0.21207
 C196 C 0.60584 -0.09671 0.24160
 C197 C 0.59190 -0.07992 0.27654
 C198 C 0.57993 -0.06628 0.30668
 C199 C 0.56574 -0.05123 0.34230
 C200 C 0.55338 -0.03926 0.37298
 C201 C -0.11940 1.11038 -0.28535
 C202 C -0.10739 1.09558 -0.25571
 C203 C -0.09326 1.07905 -0.22064
 C204 C -0.08104 1.06575 -0.19040
 C205 C -0.06641 1.05127 -0.15464
 C206 C -0.05354 1.03997 -0.12385
 C207 C 1.11821 0.61176 0.78819
 C208 C 1.10619 0.59668 0.75872
 C209 C 1.09221 0.57971 0.72384
 C210 C 1.08024 0.56590 0.69375
 C211 C 1.06607 0.55066 0.65814
 C212 C 1.05374 0.53858 0.62745
 C213 C 0.71357 0.61957 0.60961
 C214 C 0.74323 0.60737 0.59499
 C215 C 0.77834 0.59300 0.57869
 C216 C 0.80863 0.58058 0.56561
 C217 C 0.84445 0.56575 0.55138
 C218 C 0.87530 0.55274 0.54028
 C219 C 0.78703 0.38123 1.11254
 C220 C 0.75745 0.39332 1.09750
 C221 C 0.72247 0.40739 1.08053
 C222 C 0.69230 0.41945 1.06671
 C223 C 0.65662 0.43373 1.05144
 C224 C 0.62588 0.44617 1.03930
 C225 C 0.28660 1.11795 -0.11274
 C226 C 0.25712 1.10603 -0.09763
 C227 C 0.22223 1.09221 -0.08057
 C228 C 0.19214 1.08037 -0.06667
 C229 C 0.15654 1.06635 -0.05130
 C230 C 0.12587 1.05410 -0.03910
 C231 C 0.21320 -0.12000 0.39004
 C232 C 0.24290 -0.10787 0.40470
 C233 C 0.27804 -0.09356 0.42100
 C234 C 0.30834 -0.08115 0.43408
 C235 C 0.34415 -0.06631 0.44832
 C236 C 0.37498 -0.05331 0.45945
 C237 C 0.61095 -0.28595 0.61770
 C238 C 0.59608 -0.25629 0.60564
 C239 C 0.57944 -0.22119 0.59151
 C240 C 0.56603 -0.19091 0.57932
 C241 C 0.55139 -0.15511 0.56475
 C242 C 0.53994 -0.12428 0.55196
 C243 C 1.11124 0.78507 0.38365
 C244 C 1.09633 0.75549 0.39561
 C245 C 1.07960 0.72048 0.40957
 C246 C 1.06611 0.69026 0.42159
 C247 C 1.05140 0.65450 0.43596
 C248 C 1.03995 0.62368 0.44859
 C249 C -0.11217 1.28764 0.12004
 C250 C -0.09725 1.25806 0.10793
 C251 C -0.08050 1.22306 0.09374
 C252 C -0.06691 1.19288 0.08155
 C253 C -0.05191 1.15720 0.06712
 C254 C -0.03997 1.12646 0.05458
 C255 C 0.38815 0.21309 0.88041
 C256 C 0.40301 0.24268 0.89245
 C257 C 0.41969 0.27770 0.90653
 C258 C 0.43321 0.30789 0.91863
 C259 C 0.44814 0.34358 0.93299
 C260 C 0.46002 0.37432 0.94548
 C261 C 0.61750 0.61224 0.71268
 C262 C 0.60553 0.59735 0.74220
 C263 C 0.59158 0.58058 0.77713
 C264 C 0.57963 0.56694 0.80725
 C265 C 0.56549 0.55187 0.84286
 C266 C 0.55317 0.53989 0.87354
 C267 C 0.38017 0.10969 0.78447
 C268 C 0.39219 0.09500 0.75485
 C269 C 0.40636 0.07862 0.71979
 C270 C 0.41864 0.06546 0.68957
 C271 C 0.43333 0.05113 0.65384
 C272 C 0.44623 0.03992 0.62309
 C273 C 0.11870 0.88855 0.28780
 C274 C 0.10664 0.90345 0.25823
 C275 C 0.09259 0.92020 0.22324
 C276 C 0.08054 0.93381 0.19307
 C277 C 0.06627 0.94884 0.15740
 C278 C 0.05384 0.96079 0.12668
 C279 C 0.88105 0.38914 0.21533
 C280 C 0.89308 0.40389 0.24496
 C281 C 0.90720 0.42039 0.28002
 C282 C 0.91941 0.43369 0.31026
 C283 C 0.93400 0.44817 0.34601
 C284 C 0.94683 0.45948 0.37680
   
