data_POSCAR
  _audit_creation_date              2014-09-24
  _audit_creation_method            'ToBaCCo'
  _symmetry_space_group_name_H-M    'P1'
  _symmetry_Int_Tables_number       1
  _symmetry_cell_setting            triclinic
  loop_
  _symmetry_equiv_pos_as_xyz
 x,y,z
_cell_length_a 41.8699
_cell_length_b 27.7108
_cell_length_c 27.7537
_cell_angle_alpha 89.868600
_cell_angle_beta 90.073000
_cell_angle_gamma 90.093100
loop_
  _atom_site_label
  _atom_site_type_symbol
  _atom_site_fract_x
  _atom_site_fract_y
  _atom_site_fract_z
C1 C 1.24953 0.25034 0.25031
 C2 C 0.74990 -0.24860 0.25108
 C3 C 0.74961 0.25071 -0.24899
 C4 C 1.25000 -0.25043 -0.24963
 C5 C 0.25055 0.25006 0.74961
 C6 C 0.75027 0.74863 0.74793
 C7 C 0.75073 0.24837 0.24795
 C8 C 0.25019 0.74976 0.24916
 O9 O 1.04432 0.08571 0.08515
 O10 O 1.07984 0.04126 0.04083
 C11 C 1.07315 0.07347 0.07308
 O12 O 0.95545 -0.08694 0.08582
 O13 O 0.92023 -0.04322 0.03980
 C14 C 0.92672 -0.07525 0.07250
 O15 O 1.04493 -0.08399 0.08917
 O16 O 1.08019 -0.04002 0.04345
 C17 C 1.07368 -0.07141 0.07683
 O18 O 0.95480 0.08923 0.07934
 O19 O 0.92001 0.04015 0.03826
 C20 C 0.92617 0.07511 0.06784
 Zr21 Zr 0.99977 0.06134 0.05823
 O22 O 0.99642 0.06517 0.13421
 O23 O 1.00104 0.13730 0.05144
 Zr24 Zr 1.00026 -0.06054 0.06197
 O25 O 0.99704 -0.05742 0.13803
 O26 O 1.00344 -0.13675 0.06437
 O27 O 1.02859 0.00095 0.06982
 O28 O 0.97228 0.00034 0.06882
 O29 O 0.95517 0.08409 -0.08676
 O30 O 0.92004 0.03861 -0.04215
 C31 C 0.92644 0.07137 -0.07425
 O32 O 1.04532 -0.08749 -0.08550
 O33 O 1.08032 -0.04219 -0.04081
 C34 C 1.07399 -0.07463 -0.07306
 O35 O 0.95592 -0.09159 -0.08262
 O36 O 0.92052 -0.04513 -0.04024
 C37 C 0.92709 -0.07895 -0.07088
 O38 O 1.04470 0.08241 -0.08970
 O39 O 1.08005 0.03907 -0.04352
 C40 C 1.07347 0.07028 -0.07701
 Zr41 Zr 1.00010 0.05803 -0.06309
 O42 O 0.99719 0.05477 -0.13919
 O43 O 1.00216 0.13431 -0.06548
 Zr44 Zr 1.00055 -0.06364 -0.05972
 O45 O 0.99741 -0.06491 -0.13586
 O46 O 1.00409 -0.13983 -0.05780
 Zr47 Zr 1.04802 -0.00077 -0.00024
 Zr48 Zr 0.95267 -0.00193 -0.00093
 O49 O 0.97257 -0.00333 -0.07046
 O50 O 1.02900 -0.00273 -0.07064
 O51 O 0.97134 0.06863 -0.00286
 O52 O 1.02819 -0.07062 0.00155
 O53 O 1.02783 0.06872 -0.00239
 O54 O 0.97195 -0.07207 0.00118
 H55 H 0.95783 0.00111 0.09705
 H56 H 1.04252 -0.09903 0.00237
 H57 H 0.95820 -0.00412 -0.09884
 H58 H 1.04199 0.09739 -0.00301
 H59 H 0.98578 -0.14979 0.04458
 H60 H 0.98628 -0.15206 -0.03782
 H61 H 1.01559 -0.04600 -0.14864
 H62 H 1.01608 0.03683 -0.15077
 H63 H 0.98771 0.14643 -0.04008
 H64 H 1.00073 0.15023 0.08470
 H65 H 1.01275 0.04317 0.14760
 H66 H 1.01591 -0.03949 0.14993
 O67 O 1.04420 0.58701 0.58496
 O68 O 1.07962 0.54266 0.54040
 C69 C 1.07300 0.57470 0.57284
 O70 O 0.95570 0.41386 0.58569
 O71 O 0.92052 0.45804 0.54033
 C72 C 0.92694 0.42581 0.57285
 O73 O 1.04487 0.41743 0.58850
 O74 O 1.08003 0.46139 0.54267
 C75 C 1.07359 0.42998 0.57604
 O76 O 0.95461 0.59020 0.57928
 O77 O 0.91978 0.54147 0.53784
 C78 C 0.92596 0.57619 0.56770
 Zr79 Zr 0.99967 0.56269 0.55802
 O80 O 0.99631 0.56609 0.63403
 O81 O 1.00088 0.63868 0.55163
 Zr82 Zr 1.00020 0.44083 0.56138
 O83 O 0.99703 0.44412 0.63745
 O84 O 1.00351 0.36463 0.56378
 O85 O 1.02852 0.50230 0.56932
 O86 O 0.97218 0.50166 0.56840
 O87 O 0.95500 0.58738 0.41494
 O88 O 0.91987 0.53964 0.45716
 C89 C 0.92629 0.57379 0.42662
 O90 O 1.04547 0.41452 0.41433
 O91 O 1.08054 0.45977 0.45914
 C92 C 1.07418 0.42730 0.42691
 O93 O 0.95573 0.41002 0.41707
 O94 O 0.92024 0.45627 0.45959
 C95 C 0.92689 0.42244 0.42897
 O96 O 1.04445 0.58440 0.40996
 O97 O 1.07982 0.54072 0.45570
 C98 C 1.07324 0.57210 0.42233
 Zr99 Zr 0.99993 0.55967 0.43669
 O100 O 0.99650 0.55560 0.36067
 O101 O 1.00230 0.63585 0.43308
 Zr102 Zr 1.00041 0.43800 0.43968
 O103 O 0.99735 0.43685 0.36354
 O104 O 1.00399 0.36182 0.44114
 Zr105 Zr 1.04784 0.50076 0.49919
 Zr106 Zr 0.95248 0.49951 0.49867
 O107 O 0.97236 0.49835 0.42911
 O108 O 1.02881 0.49895 0.42882
 O109 O 0.97122 0.57009 0.49701
 O110 O 1.02805 0.43087 0.50089
 O111 O 1.02769 0.57025 0.49735
 O112 O 0.97183 0.42941 0.50062
 H113 H 0.95780 0.50235 0.59672
 H114 H 1.04237 0.40245 0.50167
 H115 H 0.95787 0.49775 0.40085
 H116 H 1.04187 0.59891 0.49674
 H117 H 0.98603 0.35150 0.54368
 H118 H 0.98639 0.34948 0.46148
 H119 H 1.01559 0.45571 0.35088
 H120 H 1.01585 0.53896 0.34884
 H121 H 0.98966 0.64834 0.46043
 H122 H 1.00042 0.65140 0.58497
 H123 H 1.01300 0.54464 0.64733
 H124 H 1.01589 0.46210 0.64928
 O125 O 0.54406 0.08710 0.58416
 O126 O 0.57945 0.04210 0.54019
 C127 C 0.57287 0.07455 0.57230
 O128 O 0.45490 -0.08518 0.58598
 O129 O 0.41958 -0.04121 0.54038
 C130 C 0.42612 -0.07319 0.57310
 O131 O 0.54445 -0.08222 0.58933
 O132 O 0.57964 -0.03915 0.54275
 C133 C 0.57319 -0.07008 0.57651
 O134 O 0.45476 0.09124 0.57865
 O135 O 0.41971 0.04208 0.53826
 C136 C 0.42606 0.07729 0.56748
 Zr137 Zr 0.49948 0.06270 0.55740
 O138 O 0.49618 0.06699 0.63337
 O139 O 0.50098 0.13861 0.55005
 Zr140 Zr 0.49976 -0.05906 0.56200
 O141 O 0.49654 -0.05546 0.63805
 O142 O 0.50295 -0.13523 0.56520
 O143 O 0.52819 0.00232 0.56936
 O144 O 0.47186 0.00194 0.56853
 O145 O 0.45506 0.08506 0.41212
 O146 O 0.41996 0.04005 0.45698
 C147 C 0.42636 0.07257 0.42475
 O148 O 0.54454 -0.08581 0.41315
 O149 O 0.57968 -0.04199 0.45916
 C150 C 0.57324 -0.07341 0.42602
 O151 O 0.45492 -0.09200 0.41883
 O152 O 0.41966 -0.04396 0.45983
 C153 C 0.42613 -0.07869 0.43017
 O154 O 0.54419 0.08209 0.40905
 O155 O 0.57950 0.03927 0.45567
 C156 C 0.57295 0.07004 0.42180
 Zr157 Zr 0.49959 0.05840 0.43616
 O158 O 0.49639 0.05451 0.36011
 O159 O 0.50203 0.13463 0.43323
 Zr160 Zr 0.49975 -0.06329 0.44051
 O161 O 0.49589 -0.06646 0.36454
 O162 O 0.50385 -0.13939 0.44388
 Zr163 Zr 0.54748 -0.00006 0.49927
 Zr164 Zr 0.45197 -0.00079 0.49894
 O165 O 0.47186 -0.00293 0.42938
 O166 O 0.52828 -0.00254 0.42897
 O167 O 0.47091 0.06960 0.49639
 O168 O 0.52757 -0.06985 0.50158
 O169 O 0.52746 0.06949 0.49664
 O170 O 0.47124 -0.07100 0.50156
 H171 H 0.45753 0.00301 0.59690
 H172 H 0.54194 -0.09821 0.50238
 H173 H 0.45746 -0.00398 0.40104
 H174 H 0.54173 0.09804 0.49579
 H175 H 0.48528 -0.14850 0.54558
 H176 H 0.48572 -0.15166 0.46319
 H177 H 0.51263 -0.04518 0.35106
 H178 H 0.51542 0.03699 0.34842
 H179 H 0.48774 0.14710 0.45869
 H180 H 0.50077 0.15180 0.58321
 H181 H 0.51260 0.04520 0.64688
 H182 H 0.51536 -0.03735 0.64984
 O183 O 0.54401 0.58931 0.08559
 O184 O 0.57947 0.54326 0.04273
 C185 C 0.57277 0.57612 0.07436
 O186 O 0.45499 0.41669 0.08896
 O187 O 0.41989 0.46012 0.04258
 C188 C 0.42627 0.42841 0.07560
 O189 O 0.54465 0.41982 0.09246
 O190 O 0.57986 0.46221 0.04529
 C191 C 0.57341 0.43159 0.07934
 O192 O 0.45465 0.59284 0.07978
 O193 O 0.41973 0.54302 0.03995
 C194 C 0.42596 0.57856 0.06886
 Zr195 Zr 0.49957 0.56455 0.05884
 O196 O 0.49622 0.56997 0.13472
 O197 O 0.50095 0.64034 0.05027
 Zr198 Zr 0.49989 0.44273 0.06506
 O199 O 0.49659 0.44768 0.14101
 O200 O 0.50307 0.36664 0.06967
 O201 O 0.52829 0.50423 0.07160
 O202 O 0.47203 0.50386 0.07072
 O203 O 0.45504 0.58464 -0.08631
 O204 O 0.41986 0.54012 -0.04089
 C205 C 0.42629 0.57222 -0.07357
 O206 O 0.54481 0.41245 -0.08198
 O207 O 0.57989 0.45868 -0.03841
 C208 C 0.57353 0.42565 -0.07005
 O209 O 0.45526 0.40805 -0.07766
 O210 O 0.42006 0.45713 -0.03784
 C211 C 0.42651 0.42184 -0.06682
 O212 O 0.54450 0.58197 -0.08967
 O213 O 0.57981 0.53993 -0.04228
 C214 C 0.57326 0.57025 -0.07659
 Zr215 Zr 0.49988 0.55876 -0.06230
 O216 O 0.49678 0.55428 -0.13834
 O217 O 0.50231 0.63494 -0.06621
 Zr218 Zr 0.50004 0.43707 -0.05650
 O219 O 0.49657 0.43481 -0.13258
 O220 O 0.50368 0.36091 -0.05374
 Zr221 Zr 0.54769 0.50099 0.00158
 Zr222 Zr 0.45236 0.50036 0.00110
 O223 O 0.47222 0.49734 -0.06844
 O224 O 0.52860 0.49766 -0.06871
 O225 O 0.47112 0.57080 -0.00231
 O226 O 0.52771 0.43125 0.00480
 O227 O 0.52770 0.57055 -0.00187
 O228 O 0.47151 0.43014 0.00461
 H229 H 0.45761 0.50517 0.09898
 H230 H 0.54193 0.40272 0.00606
 H231 H 0.45781 0.49597 -0.09673
 H232 H 0.54202 0.59905 -0.00301
 H233 H 0.48564 0.35303 0.04981
 H234 H 0.48664 0.34901 -0.03210
 H235 H 0.51509 0.45263 -0.14579
 H236 H 0.51534 0.53541 -0.14963
 H237 H 0.48769 0.64770 -0.04136
 H238 H 0.50051 0.65405 0.08321
 H239 H 0.51231 0.54785 0.14859
 H240 H 0.51566 0.46535 0.15257
 C241 C 1.17774 0.17230 0.16626
 C242 C 1.18160 0.22227 0.16131
 C243 C 1.20551 0.24631 0.18682
 C244 C 1.22642 0.22111 0.21794
 C245 C 1.22194 0.17074 0.22294
 C246 C 1.19831 0.14667 0.19679
 C247 C 1.15118 0.14727 0.14172
 C248 C 1.15674 0.10509 0.11519
 C249 C 1.13144 0.08124 0.09253
 C250 C 1.10003 0.09859 0.09693
 C251 C 1.09457 0.14074 0.12378
 C252 C 1.11994 0.16502 0.14565
 H253 H 1.20736 0.28513 0.18307
 H254 H 1.23558 0.14964 0.24840
 H255 H 1.13649 0.04917 0.07174
 H256 H 1.07071 0.15524 0.12761
 H257 H 1.19516 0.10821 0.20204
 H258 H 1.18073 0.09096 0.11158
 H259 H 1.16586 0.24279 0.13804
 H260 H 1.11510 0.19729 0.16634
 C261 C 1.17801 0.67213 0.66626
 C262 C 1.18118 0.72232 0.66287
 C263 C 1.20522 0.74615 0.68821
 C264 C 1.22693 0.72056 0.71773
 C265 C 1.22332 0.66989 0.72089
 C266 C 1.19951 0.64605 0.69489
 C267 C 1.15128 0.64728 0.64196
 C268 C 1.15671 0.60553 0.61469
 C269 C 1.13130 0.58205 0.59199
 C270 C 1.09993 0.59940 0.59690
 C271 C 1.09457 0.64106 0.62451
 C272 C 1.12004 0.66492 0.64657
 H273 H 1.20651 0.78512 0.68576
 H274 H 1.23776 0.64824 0.74483
 H275 H 1.13624 0.55028 0.57068
 H276 H 1.07073 0.65552 0.62880
 H277 H 1.19701 0.60732 0.69881
 H278 H 1.18066 0.59148 0.61048
 H279 H 1.16479 0.74320 0.64099
 H280 H 1.11528 0.69684 0.66783
 C281 C 0.67756 0.17268 0.66687
 C282 C 0.68144 0.22269 0.66215
 C283 C 0.70535 0.24668 0.68776
 C284 C 0.72634 0.22145 0.71876
 C285 C 0.72184 0.17105 0.72360
 C286 C 0.69816 0.14703 0.69737
 C287 C 0.65098 0.14770 0.64205
 C288 C 0.65639 0.10504 0.61614
 C289 C 0.63110 0.08139 0.59313
 C290 C 0.59980 0.09949 0.59639
 C291 C 0.59447 0.14207 0.62263
 C292 C 0.61982 0.16608 0.64492
 H293 H 0.70720 0.28551 0.68412
 H294 H 0.73551 0.14987 0.74894
 H295 H 0.63603 0.04883 0.57304
 H296 H 0.57071 0.15712 0.62570
 H297 H 0.69503 0.10855 0.70252
 H298 H 0.68027 0.09036 0.61327
 H299 H 0.66574 0.24331 0.63892
 H300 H 0.61502 0.19867 0.66511
 C301 C 0.67683 0.67202 0.17117
 C302 C 0.68735 0.71722 0.15514
 C303 C 0.71161 0.74149 0.17964
 C304 C 0.72638 0.72101 0.22068
 C305 C 0.71451 0.67628 0.23755
 C306 C 0.69067 0.65156 0.21236
 C307 C 0.65033 0.64737 0.14622
 C308 C 0.65402 0.60005 0.12932
 C309 C 0.62893 0.57706 0.10526
 C310 C 0.59953 0.60059 0.09888
 C311 C 0.59582 0.64780 0.11630
 C312 C 0.62114 0.67119 0.13928
 H313 H 0.71839 0.77697 0.16690
 H314 H 0.72307 0.66070 0.27090
 H315 H 0.63235 0.54071 0.09222
 H316 H 0.57346 0.66686 0.11161
 H317 H 0.68215 0.61726 0.22609
 H318 H 0.67643 0.58119 0.13423
 H319 H 0.67658 0.73395 0.12378
 H320 H 0.61783 0.70769 0.15224
 C321 C 0.82169 -0.16883 0.16916
 C322 C 0.80747 -0.21004 0.14940
 C323 C 0.78394 -0.23508 0.17494
 C324 C 0.77285 -0.21810 0.21989
 C325 C 0.78767 -0.17666 0.23939
 C326 C 0.81168 -0.15236 0.21432
 C327 C 0.84837 -0.14476 0.14416
 C328 C 0.87810 -0.14047 0.16707
 C329 C 0.90367 -0.11844 0.14344
 C330 C 0.89975 -0.09941 0.09685
 C331 C 0.86983 -0.10330 0.07414
 C332 C 0.84442 -0.12637 0.09741
 H333 H 0.77505 -0.26849 0.15991
 H334 H 0.78124 -0.16363 0.27479
 H335 H 0.92641 -0.11568 0.16190
 H336 H 0.86618 -0.08897 0.03827
 H337 H 0.82278 -0.12095 0.23044
 H338 H 0.88158 -0.15471 0.20308
 H339 H 0.81556 -0.22401 0.11510
 H340 H 0.82159 -0.12934 0.07926
 C341 C 0.82129 0.33416 0.67151
 C342 C 0.80018 0.30403 0.64638
 C343 C 0.77649 0.27823 0.67089
 C344 C 0.77247 0.28319 0.72125
 C345 C 0.79374 0.31421 0.74589
 C346 C 0.81770 0.33929 0.72143
 C347 C 0.84815 0.35797 0.64615
 C348 C 0.87929 0.35439 0.66460
 C349 C 0.90489 0.37592 0.64047
 C350 C 0.89983 0.40200 0.59764
 C351 C 0.86859 0.40573 0.57929
 C352 C 0.84303 0.38355 0.60311
 H353 H 0.76248 0.25296 0.65015
 H354 H 0.79222 0.31805 0.78464
 H355 H 0.92861 0.37245 0.65567
 H356 H 0.86388 0.42559 0.54640
 H357 H 0.83376 0.36230 0.74166
 H358 H 0.88388 0.33429 0.69739
 H359 H 0.80296 0.29869 0.60796
 H360 H 0.81920 0.38684 0.58825
 C361 C 0.32111 -0.16538 0.67185
 C362 C 0.29948 -0.19418 0.64621
 C363 C 0.27600 -0.22058 0.67042
 C364 C 0.27283 -0.21762 0.72106
 C365 C 0.29461 -0.18791 0.74623
 C366 C 0.31831 -0.16215 0.72203
 C367 C 0.34776 -0.14112 0.64666
 C368 C 0.37896 -0.14484 0.66484
 C369 C 0.40441 -0.12315 0.64067
 C370 C 0.39914 -0.09688 0.59803
 C371 C 0.36786 -0.09297 0.57995
 C372 C 0.34242 -0.11516 0.60392
 H373 H 0.26146 -0.24464 0.64909
 H374 H 0.29364 -0.18556 0.78515
 H375 H 0.42819 -0.12674 0.65564
 H376 H 0.36304 -0.07301 0.54714
 H377 H 0.33476 -0.14015 0.74265
 H378 H 0.38372 -0.16521 0.69742
 H379 H 0.30166 -0.19802 0.60752
 H380 H 0.31852 -0.11167 0.58935
 C381 C 0.32089 0.33505 0.17216
 C382 C 0.30017 0.30474 0.14653
 C383 C 0.27660 0.27835 0.17060
 C384 C 0.27244 0.28290 0.22095
 C385 C 0.29342 0.31393 0.24608
 C386 C 0.31717 0.33970 0.22206
 C387 C 0.34763 0.35946 0.14742
 C388 C 0.37866 0.35612 0.16627
 C389 C 0.40421 0.37821 0.14272
 C390 C 0.39918 0.40455 0.10006
 C391 C 0.36803 0.40810 0.08133
 C392 C 0.34250 0.38544 0.10466
 H393 H 0.26279 0.25306 0.14959
 H394 H 0.29175 0.31740 0.28485
 H395 H 0.42788 0.37483 0.15812
 H396 H 0.36340 0.42808 0.04847
 H397 H 0.33296 0.36285 0.24260
 H398 H 0.38320 0.33575 0.19892
 H399 H 0.30315 0.29978 0.10809
 H400 H 0.31871 0.38857 0.08962
 C401 C 0.82124 0.16572 -0.17107
 C402 C 0.80140 0.19745 -0.14571
 C403 C 0.77775 0.22375 -0.16968
 C404 C 0.77259 0.21801 -0.21974
 C405 C 0.79283 0.18594 -0.24473
 C406 C 0.81655 0.15994 -0.22075
 C407 C 0.84793 0.14083 -0.14630
 C408 C 0.84343 0.11886 -0.10111
 C409 C 0.86888 0.09600 -0.07771
 C410 C 0.89940 0.09532 -0.09878
 C411 C 0.90388 0.11761 -0.14380
 C412 C 0.87839 0.13987 -0.16741
 H413 H 0.76467 0.25000 -0.14887
 H414 H 0.79053 0.18166 -0.28336
 H415 H 0.86478 0.07935 -0.04291
 H416 H 0.92708 0.11751 -0.16105
 H417 H 0.83153 0.13565 -0.24122
 H418 H 0.82016 0.11902 -0.08412
 H419 H 0.80513 0.20353 -0.10757
 H420 H 0.88260 0.15706 -0.20193
 C421 C 0.82182 0.67106 0.33242
 C422 C 0.81028 0.71511 0.34970
 C423 C 0.78636 0.73976 0.32474
 C424 C 0.77300 0.72077 0.28197
 C425 C 0.78601 0.67743 0.26390
 C426 C 0.80943 0.65224 0.28951
 C427 C 0.84818 0.64627 0.35757
 C428 C 0.84497 0.59800 0.37220
 C429 C 0.87020 0.57458 0.39554
 C430 C 0.89926 0.59878 0.40344
 C431 C 0.90243 0.64701 0.38854
 C432 C 0.87697 0.67071 0.36627
 H433 H 0.77891 0.77446 0.33847
 H434 H 0.77853 0.66332 0.22936
 H435 H 0.86723 0.53732 0.40656
 H436 H 0.92453 0.66650 0.39449
 H437 H 0.81881 0.61897 0.27483
 H438 H 0.82288 0.57863 0.36581
 H439 H 0.82005 0.73072 0.38230
 H440 H 0.87992 0.70790 0.35498
 C441 C 0.32097 0.16547 0.32806
 C442 C 0.30078 0.19642 0.35366
 C443 C 0.27717 0.22275 0.32972
 C444 C 0.27241 0.21761 0.27953
 C445 C 0.29293 0.18605 0.25437
 C446 C 0.31671 0.16024 0.27829
 C447 C 0.34771 0.14101 0.35271
 C448 C 0.34276 0.11610 0.39615
 C449 C 0.36830 0.09361 0.41957
 C450 C 0.39929 0.09634 0.40027
 C451 C 0.40417 0.12160 0.35694
 C452 C 0.37859 0.14347 0.33326
 H453 H 0.26385 0.24857 0.35071
 H454 H 0.29085 0.18220 0.21566
 H455 H 0.36382 0.07445 0.45296
 H456 H 0.42773 0.12417 0.34108
 H457 H 0.33211 0.13660 0.25776
 H458 H 0.31908 0.11369 0.41168
 H459 H 0.30424 0.20193 0.39195
 H460 H 0.38300 0.16301 0.30007
 C461 C 0.32113 0.66422 -0.17174
 C462 C 0.30001 0.69354 -0.14595
 C463 C 0.27649 0.71995 -0.16995
 C464 C 0.27280 0.71657 -0.22052
 C465 C 0.29414 0.68644 -0.24584
 C466 C 0.31785 0.66056 -0.22182
 C467 C 0.34780 0.63991 -0.14679
 C468 C 0.34248 0.61333 -0.10445
 C469 C 0.36796 0.59110 -0.08065
 C470 C 0.39925 0.59570 -0.09847
 C471 C 0.40448 0.62265 -0.14069
 C472 C 0.37898 0.64430 -0.16474
 H473 H 0.26238 0.74439 -0.14854
 H474 H 0.29280 0.68384 -0.28473
 H475 H 0.36317 0.57065 -0.04813
 H476 H 0.42827 0.62686 -0.15536
 H477 H 0.33395 0.63814 -0.24248
 H478 H 0.31857 0.60946 -0.09010
 H479 H 0.30266 0.69776 -0.10736
 H480 H 0.38367 0.66518 -0.19701
 C481 C 1.17920 -0.17234 -0.16458
 C482 C 1.18217 -0.22254 -0.16106
 C483 C 1.20585 -0.24659 -0.18673
 C484 C 1.22740 -0.22120 -0.21668
 C485 C 1.22410 -0.17050 -0.21980
 C486 C 1.20064 -0.14644 -0.19348
 C487 C 1.15252 -0.14740 -0.14057
 C488 C 1.15791 -0.10552 -0.11343
 C489 C 1.13244 -0.08192 -0.09119
 C490 C 1.10107 -0.09934 -0.09649
 C491 C 1.09578 -0.14116 -0.12397
 C492 C 1.12128 -0.16508 -0.14555
 H493 H 1.20695 -0.28556 -0.18423
 H494 H 1.23846 -0.14902 -0.24400
 H495 H 1.13732 -0.05003 -0.06998
 H496 H 1.07194 -0.15569 -0.12858
 H497 H 1.19828 -0.10772 -0.19748
 H498 H 1.18188 -0.09143 -0.10900
 H499 H 1.16583 -0.24327 -0.13893
 H500 H 1.11655 -0.19706 -0.16679
 C501 C 1.17909 0.32900 0.33546
 C502 C 1.18272 0.27903 0.34043
 C503 C 1.20621 0.25478 0.31452
 C504 C 1.22693 0.27980 0.28299
 C505 C 1.22279 0.33025 0.27815
 C506 C 1.19956 0.35451 0.30471
 C507 C 1.15255 0.35398 0.35972
 C508 C 1.15800 0.39628 0.38616
 C509 C 1.13259 0.42002 0.40843
 C510 C 1.10123 0.40238 0.40367
 C511 C 1.09591 0.36009 0.37696
 C512 C 1.12135 0.33597 0.35547
 H513 H 1.20787 0.21596 0.31826
 H514 H 1.23636 0.35124 0.25251
 H515 H 1.13750 0.45222 0.42917
 H516 H 1.07210 0.34534 0.37288
 H517 H 1.19657 0.39300 0.29952
 H518 H 1.18196 0.41060 0.38998
 H519 H 1.16704 0.25863 0.36391
 H520 H 1.11662 0.30361 0.33482
 C521 C 0.67843 -0.16705 0.33103
 C522 C 0.69066 -0.21008 0.34997
 C523 C 0.71419 -0.23552 0.32510
 C524 C 0.72729 -0.21730 0.28181
 C525 C 0.71455 -0.17390 0.26316
 C526 C 0.69049 -0.14914 0.28750
 C527 C 0.65179 -0.14233 0.35524
 C528 C 0.62291 -0.13488 0.33067
 C529 C 0.59723 -0.11282 0.35387
 C530 C 0.60031 -0.09686 0.40163
 C531 C 0.62943 -0.10370 0.42596
 C532 C 0.65486 -0.12684 0.40309
 H533 H 0.72159 -0.27015 0.33927
 H534 H 0.72245 -0.15969 0.22885
 H535 H 0.57508 -0.10776 0.33432
 H536 H 0.63232 -0.09192 0.46291
 H537 H 0.68095 -0.11625 0.27203
 H538 H 0.62011 -0.14686 0.29377
 H539 H 0.68103 -0.22503 0.38301
 H540 H 0.67702 -0.13232 0.42252
 C541 C 0.67885 0.32878 -0.16331
 C542 C 0.68272 0.27880 -0.15860
 C543 C 0.70636 0.25485 -0.18456
 C544 C 0.72701 0.28008 -0.21605
 C545 C 0.72278 0.33053 -0.22053
 C546 C 0.69937 0.35454 -0.19388
 C547 C 0.65217 0.35346 -0.13868
 C548 C 0.65737 0.39607 -0.11255
 C549 C 0.63191 0.41934 -0.08980
 C550 C 0.60067 0.40092 -0.09357
 C551 C 0.59557 0.35834 -0.11993
 C552 C 0.62108 0.33470 -0.14195
 H553 H 0.70814 0.21602 -0.18098
 H554 H 0.73642 0.35168 -0.24596
 H555 H 0.63667 0.45189 -0.06952
 H556 H 0.57186 0.34304 -0.12337
 H557 H 0.69632 0.39305 -0.19885
 H558 H 0.68120 0.41100 -0.10932
 H559 H 0.66713 0.25812 -0.13523
 H560 H 0.61644 0.30209 -0.16225
 C561 C 1.17825 0.16768 -0.17140
 C562 C 1.19236 0.14803 -0.21263
 C563 C 1.21595 0.17364 -0.23759
 C564 C 1.22734 0.21851 -0.22046
 C565 C 1.21247 0.23807 -0.17922
 C566 C 1.18836 0.21297 -0.15502
 C567 C 1.15161 0.14239 -0.14721
 C568 C 1.12198 0.16537 -0.14215
 C569 C 1.09648 0.14155 -0.12000
 C570 C 1.10036 0.09467 -0.10150
 C571 C 1.13015 0.07185 -0.10615
 C572 C 1.15546 0.09529 -0.12944
 H573 H 1.22457 0.15868 -0.27108
 H574 H 1.21897 0.27358 -0.16629
 H575 H 1.07385 0.16010 -0.11665
 H576 H 1.13374 0.03573 -0.09229
 H577 H 1.17732 0.22917 -0.12372
 H578 H 1.11850 0.20160 -0.15590
 H579 H 1.18414 0.11374 -0.22667
 H580 H 1.17817 0.07698 -0.13303
 C581 C 1.17817 0.66888 0.32674
 C582 C 1.19187 0.64972 0.28499
 C583 C 1.21565 0.67516 0.26018
 C584 C 1.22799 0.71953 0.27788
 C585 C 1.21325 0.73848 0.31983
 C586 C 1.18894 0.71353 0.34379
 C587 C 1.15140 0.64371 0.35101
 C588 C 1.12204 0.66723 0.35725
 C589 C 1.09654 0.64361 0.37975
 C590 C 1.10014 0.59638 0.39751
 C591 C 1.12965 0.57300 0.39163
 C592 C 1.15493 0.59623 0.36796
 H593 H 1.22374 0.66031 0.22633
 H594 H 1.21998 0.77355 0.33366
 H595 H 1.07413 0.66260 0.38398
 H596 H 1.13302 0.53659 0.40479
 H597 H 1.17825 0.72940 0.37553
 H598 H 1.11877 0.70376 0.34420
 H599 H 1.18318 0.61593 0.27040
 H600 H 1.17740 0.57745 0.36350
 C601 C 0.67820 0.16707 0.32796
 C602 C 0.69781 0.14302 0.29495
 C603 C 0.72166 0.16801 0.26996
 C604 C 0.72743 0.21756 0.27870
 C605 C 0.70730 0.24119 0.31195
 C606 C 0.68325 0.21633 0.33636
 C607 C 0.65135 0.14160 0.35166
 C608 C 0.62085 0.16256 0.35224
 C609 C 0.59533 0.13887 0.37436
 C610 C 0.59988 0.09400 0.39699
 C611 C 0.63040 0.07295 0.39644
 C612 C 0.65587 0.09637 0.37355
 H613 H 0.73440 0.14848 0.24242
 H614 H 0.70989 0.27954 0.31832
 H615 H 0.57213 0.15609 0.37440
 H616 H 0.63454 0.03829 0.41343
 H617 H 0.66831 0.23579 0.36150
 H618 H 0.61669 0.19717 0.33514
 H619 H 0.69373 0.10528 0.28689
 H620 H 0.67920 0.07954 0.37359
 C621 C 0.67810 0.66729 -0.17141
 C622 C 0.69782 0.64313 -0.20415
 C623 C 0.72154 0.66815 -0.22942
 C624 C 0.72703 0.71787 -0.22119
 C625 C 0.70682 0.74157 -0.18809
 C626 C 0.68288 0.71667 -0.16348
 C627 C 0.65139 0.64177 -0.14753
 C628 C 0.62057 0.66157 -0.14871
 C629 C 0.59517 0.63785 -0.12632
 C630 C 0.60015 0.59417 -0.10162
 C631 C 0.63103 0.57436 -0.10039
 C632 C 0.65638 0.59772 -0.12361
 H633 H 0.73442 0.64848 -0.25670
 H634 H 0.70928 0.77998 -0.18198
 H635 H 0.57169 0.65416 -0.12774
 H636 H 0.63557 0.54076 -0.08166
 H637 H 0.66781 0.73615 -0.13851
 H638 H 0.61610 0.69527 -0.16738
 H639 H 0.69394 0.60525 -0.21178
 H640 H 0.67999 0.58185 -0.12222
 C641 C 0.82216 -0.17193 -0.16930
 C642 C 0.80155 -0.20381 -0.14545
 C643 C 0.77796 -0.22876 -0.17102
 C644 C 0.77347 -0.22086 -0.22098
 C645 C 0.79433 -0.18813 -0.24423
 C646 C 0.81832 -0.16415 -0.21881
 C647 C 0.84883 -0.14884 -0.14325
 C648 C 0.84314 -0.12012 -0.10263
 C649 C 0.86854 -0.09733 -0.07901
 C650 C 0.90014 -0.10386 -0.09496
 C651 C 0.90570 -0.13348 -0.13516
 C652 C 0.88027 -0.15541 -0.15927
 H653 H 0.76428 -0.25541 -0.15147
 H654 H 0.79244 -0.18193 -0.28265
 H655 H 0.86339 -0.07444 -0.04846
 H656 H 0.92968 -0.13919 -0.14852
 H657 H 0.83415 -0.13980 -0.23792
 H658 H 0.81899 -0.11457 -0.08985
 H659 H 0.80464 -0.21099 -0.10734
 H660 H 0.88512 -0.17784 -0.19033
 C661 C 0.82243 0.32796 0.33100
 C662 C 0.80170 0.29626 0.35485
 C663 C 0.77828 0.27106 0.32917
 C664 C 0.77403 0.27863 0.27910
 C665 C 0.79506 0.31112 0.25586
 C666 C 0.81891 0.33525 0.28136
 C667 C 0.84896 0.35131 0.35715
 C668 C 0.84313 0.38012 0.39771
 C669 C 0.86844 0.40321 0.42129
 C670 C 0.90003 0.39710 0.40515
 C671 C 0.90572 0.36727 0.36511
 C672 C 0.88041 0.34493 0.34116
 H673 H 0.76448 0.24460 0.34878
 H674 H 0.79334 0.31713 0.21738
 H675 H 0.86324 0.42591 0.45202
 H676 H 0.92971 0.36160 0.35174
 H677 H 0.83485 0.35943 0.26224
 H678 H 0.81898 0.38554 0.41050
 H679 H 0.80455 0.28949 0.39308
 H680 H 0.88538 0.32237 0.31020
 C681 C 0.32185 -0.17487 0.33268
 C682 C 0.30981 -0.21936 0.34832
 C683 C 0.28569 -0.24277 0.32241
 C684 C 0.27243 -0.22226 0.27990
 C685 C 0.28628 -0.17836 0.26353
 C686 C 0.30981 -0.15449 0.29021
 C687 C 0.34809 -0.15081 0.35923
 C688 C 0.34476 -0.10304 0.37514
 C689 C 0.36987 -0.08001 0.39932
 C690 C 0.39904 -0.10397 0.40689
 C691 C 0.40232 -0.15177 0.39083
 C692 C 0.37694 -0.17515 0.36770
 H693 H 0.27797 -0.27779 0.33527
 H694 H 0.27931 -0.16255 0.22943
 H695 H 0.36673 -0.04307 0.41106
 H696 H 0.42449 -0.17114 0.39630
 H697 H 0.31953 -0.12085 0.27667
 H698 H 0.32269 -0.08364 0.36895
 H699 H 0.31929 -0.23625 0.38054
 H700 H 0.38006 -0.21191 0.35539
 C701 C 0.32247 0.32603 -0.16453
 C702 C 0.31030 0.28149 -0.14915
 C703 C 0.28633 0.25829 -0.17552
 C704 C 0.27369 0.27912 -0.21800
 C705 C 0.28735 0.32291 -0.23419
 C706 C 0.31070 0.34669 -0.20710
 C707 C 0.34856 0.34985 -0.13764
 C708 C 0.34527 0.39765 -0.12186
 C709 C 0.37035 0.42060 -0.09767
 C710 C 0.39944 0.39652 -0.08990
 C711 C 0.40266 0.34861 -0.10568
 C712 C 0.37730 0.32530 -0.12887
 H713 H 0.27828 0.22327 -0.16317
 H714 H 0.28038 0.33856 -0.26835
 H715 H 0.36725 0.45760 -0.08606
 H716 H 0.42475 0.32911 -0.09998
 H717 H 0.32049 0.38040 -0.22034
 H718 H 0.32325 0.41714 -0.12817
 H719 H 0.31955 0.26447 -0.11686
 H720 H 0.38033 0.28845 -0.14099
 C721 C 1.17858 -0.16863 0.17167
 C722 C 1.19243 -0.14965 0.21345
 C723 C 1.21607 -0.17533 0.23824
 C724 C 1.22809 -0.21982 0.22051
 C725 C 1.21320 -0.23858 0.17851
 C726 C 1.18905 -0.21334 0.15454
 C727 C 1.15186 -0.14328 0.14755
 C728 C 1.12243 -0.16673 0.14131
 C729 C 1.09694 -0.14296 0.11904
 C730 C 1.10060 -0.09565 0.10154
 C731 C 1.13020 -0.07233 0.10738
 C732 C 1.15549 -0.09572 0.13083
 H733 H 1.22432 -0.16055 0.27208
 H734 H 1.21969 -0.27369 0.16463
 H735 H 1.07448 -0.16193 0.11475
 H736 H 1.13363 -0.03587 0.09434
 H737 H 1.17822 -0.22905 0.12275
 H738 H 1.11908 -0.20332 0.15420
 H739 H 1.18397 -0.11579 0.22806
 H740 H 1.17804 -0.07703 0.13532
 C741 C 1.17852 0.33274 0.67036
 C742 C 1.19282 0.35242 0.71154
 C743 C 1.21635 0.32675 0.73655
 C744 C 1.22751 0.28178 0.71953
 C745 C 1.21252 0.26225 0.67828
 C746 C 1.18846 0.28741 0.65404
 C747 C 1.15186 0.35802 0.64622
 C748 C 1.12208 0.33521 0.64167
 C749 C 1.09657 0.35901 0.61956
 C750 C 1.10054 0.40571 0.60059
 C751 C 1.13049 0.42835 0.60472
 C752 C 1.15584 0.40493 0.62797
 H753 H 1.22509 0.34175 0.77000
 H754 H 1.21885 0.22670 0.66540
 H755 H 1.07383 0.34054 0.61660
 H756 H 1.13420 0.46428 0.59044
 H757 H 1.17729 0.27120 0.62277
 H758 H 1.11850 0.29912 0.65577
 H759 H 1.18477 0.38678 0.72550
 H760 H 1.17867 0.42308 0.63113
 C761 C 0.67888 -0.16844 0.66776
 C762 C 0.69920 -0.14462 0.70011
 C763 C 0.72287 -0.17011 0.72502
 C764 C 0.72753 -0.21999 0.71694
 C765 C 0.70719 -0.24315 0.68354
 C766 C 0.68328 -0.21780 0.65937
 C767 C 0.65195 -0.14262 0.64479
 C768 C 0.62105 -0.16224 0.64674
 C769 C 0.59541 -0.13814 0.62538
 C770 C 0.60024 -0.09427 0.60092
 C771 C 0.63122 -0.07469 0.59887
 C772 C 0.65681 -0.09843 0.62106
 H773 H 0.73639 -0.15072 0.75193
 H774 H 0.70937 -0.28153 0.67710
 H775 H 0.57189 -0.15434 0.62732
 H776 H 0.63569 -0.04103 0.58019
 H777 H 0.66787 -0.23695 0.63451
 H778 H 0.61670 -0.19611 0.66518
 H779 H 0.69580 -0.10666 0.70777
 H780 H 0.68048 -0.08276 0.61898
 C781 C 0.67916 0.33212 0.16917
 C782 C 0.69988 0.35573 0.20105
 C783 C 0.72364 0.32998 0.22545
 C784 C 0.72803 0.28006 0.21722
 C785 C 0.70736 0.25717 0.18407
 C786 C 0.68325 0.28275 0.16058
 C787 C 0.65221 0.35826 0.14680
 C788 C 0.62098 0.34044 0.15155
 C789 C 0.59534 0.36489 0.13055
 C790 C 0.60050 0.40720 0.10358
 C791 C 0.63188 0.42479 0.09863
 C792 C 0.65745 0.40089 0.12062
 H793 H 0.73744 0.34922 0.25215
 H794 H 0.70934 0.21879 0.17750
 H795 H 0.57154 0.35014 0.13475
 H796 H 0.63671 0.45688 0.07761
 H797 H 0.66746 0.26382 0.13608
 H798 H 0.61643 0.30770 0.17181
 H799 H 0.69672 0.39373 0.20872
 H800 H 0.68141 0.41505 0.11636
 C801 C 0.82146 0.16892 0.16387
 C802 C 0.81555 0.15682 0.21200
 C803 C 0.79231 0.18156 0.23817
 C804 C 0.77324 0.21752 0.21627
 C805 C 0.77966 0.22931 0.16757
 C806 C 0.80349 0.20531 0.14185
 C807 C 0.84766 0.14542 0.13757
 C808 C 0.87567 0.17121 0.12715
 C809 C 0.90126 0.14838 0.10436
 C810 C 0.89890 0.09971 0.09069
 C811 C 0.87048 0.07432 0.10016
 C812 C 0.84519 0.09688 0.12399
 H813 H 0.78942 0.17310 0.27604
 H814 H 0.76747 0.25859 0.14955
 H815 H 0.92284 0.16877 0.09723
 H816 H 0.86815 0.03668 0.09026
 H817 H 0.80829 0.21573 0.10491
 H818 H 0.87790 0.20874 0.13753
 H819 H 0.82973 0.12937 0.22979
 H820 H 0.82370 0.07654 0.13189
 C821 C 0.82114 0.66901 0.66435
 C822 C 0.81548 0.65745 0.71266
 C823 C 0.79215 0.68217 0.73866
 C824 C 0.77291 0.71776 0.71648
 C825 C 0.77923 0.72916 0.66766
 C826 C 0.80299 0.70498 0.64202
 C827 C 0.84745 0.64576 0.63821
 C828 C 0.87661 0.66999 0.63268
 C829 C 0.90215 0.64746 0.60952
 C830 C 0.89869 0.60063 0.59087
 C831 C 0.86915 0.57682 0.59572
 C832 C 0.84379 0.59913 0.61961
 H833 H 0.78935 0.67404 0.77661
 H834 H 0.76701 0.75829 0.64944
 H835 H 0.92458 0.66670 0.60611
 H836 H 0.86589 0.54056 0.58204
 H837 H 0.80773 0.71510 0.60498
 H838 H 0.87970 0.70607 0.64691
 H839 H 0.82986 0.63037 0.73065
 H840 H 0.82136 0.58002 0.62373
 C841 C 0.32210 0.17342 0.66423
 C842 C 0.31024 0.15297 0.70681
 C843 C 0.28698 0.17693 0.73372
 C844 C 0.27355 0.22078 0.71738
 C845 C 0.28628 0.24141 0.67489
 C846 C 0.31012 0.21798 0.64867
 C847 C 0.34814 0.14942 0.63754
 C848 C 0.37683 0.17405 0.62840
 C849 C 0.40215 0.15063 0.60549
 C850 C 0.39895 0.10251 0.59032
 C851 C 0.36992 0.07829 0.59842
 C852 C 0.34487 0.10138 0.62238
 H853 H 0.27991 0.16137 0.76787
 H854 H 0.27840 0.27646 0.66245
 H855 H 0.42423 0.17017 0.59956
 H856 H 0.36687 0.04110 0.58735
 H857 H 0.31942 0.23486 0.61635
 H858 H 0.37989 0.21105 0.64007
 H859 H 0.31990 0.11927 0.72023
 H860 H 0.32289 0.08182 0.62906
 C861 C 0.32135 0.67415 0.16539
 C862 C 0.30931 0.65375 0.20785
 C863 C 0.28589 0.67762 0.23458
 C864 C 0.27220 0.72163 0.21834
 C865 C 0.28545 0.74216 0.17584
 C866 C 0.30940 0.71870 0.14983
 C867 C 0.34761 0.65023 0.13889
 C868 C 0.37615 0.67520 0.12948
 C869 C 0.40162 0.65199 0.10662
 C870 C 0.39874 0.60369 0.09174
 C871 C 0.36987 0.57913 0.10020
 C872 C 0.34468 0.60200 0.12409
 H873 H 0.27892 0.66178 0.26866
 H874 H 0.27789 0.77727 0.16310
 H875 H 0.42353 0.67190 0.10044
 H876 H 0.36703 0.54184 0.08935
 H877 H 0.31887 0.73565 0.11766
 H878 H 0.37897 0.71235 0.14087
 H879 H 0.31900 0.62014 0.22141
 H880 H 0.32286 0.58207 0.13088
   
