data_POSCAR
  _audit_creation_date              2014-09-24
  _audit_creation_method            'ToBaCCo'
  _symmetry_space_group_name_H-M    'P1'
  _symmetry_Int_Tables_number       1
  _symmetry_cell_setting            triclinic
  loop_
  _symmetry_equiv_pos_as_xyz
 x,y,z
_cell_length_a 35.2043
_cell_length_b 35.0053
_cell_length_c 8.2750
_cell_angle_alpha 89.669100
_cell_angle_beta 90.003300
_cell_angle_gamma 90.001200
loop_
  _atom_site_label
  _atom_site_type_symbol
  _atom_site_fract_x
  _atom_site_fract_y
  _atom_site_fract_z
C1 C 0.36753 0.26863 0.34027
 C2 C 0.36794 0.22955 0.33184
 C3 C 0.33074 0.21806 0.30466
 N4 N 0.30782 0.24897 0.29589
 C5 C 0.33014 0.27994 0.31749
 C6 C 0.31860 0.17956 0.29565
 C7 C 0.28039 0.16780 0.27294
 C8 C 0.26784 0.13038 0.29032
 C9 C 0.22954 0.13045 0.25994
 C10 C 0.21936 0.16791 0.22462
 N11 N 0.25069 0.19039 0.23050
 C12 C 0.18184 0.17980 0.18675
 C13 C 0.16976 0.21833 0.17722
 C14 C 0.13284 0.22995 0.14398
 C15 C 0.13254 0.26903 0.15244
 C16 C 0.16927 0.28021 0.19007
 N17 N 0.19184 0.24916 0.20533
 C18 C 0.18119 0.31863 0.20512
 C19 C 0.21902 0.33053 0.23494
 C20 C 0.23104 0.36827 0.22880
 C21 C 0.26937 0.36820 0.25925
 C22 C 0.27999 0.33041 0.28329
 N23 N 0.24897 0.30773 0.27103
 C24 C 0.31776 0.31837 0.31397
 H25 H 0.39205 0.28663 0.36031
 H26 H 0.39279 0.21163 0.34573
 H27 H 0.24787 0.27877 0.29587
 H28 H 0.28450 0.10553 0.32310
 H29 H 0.21117 0.10567 0.26494
 H30 H 0.10854 0.21211 0.11747
 H31 H 0.10805 0.28712 0.13215
 H32 H 0.28745 0.39320 0.26082
 H33 H 0.25228 0.21872 0.19426
 H34 H 0.21410 0.39335 0.20255
 C35 C 0.63358 0.26966 0.34947
 C36 C 0.63326 0.23058 0.34059
 C37 C 0.67015 0.21936 0.30585
 N38 N 0.69281 0.25037 0.29283
 C39 C 0.67062 0.28118 0.31940
 C40 C 0.68216 0.18096 0.29215
 C41 C 0.72010 0.16916 0.26434
 C42 C 0.73233 0.13152 0.27377
 C43 C 0.77067 0.13167 0.24358
 C44 C 0.78109 0.16940 0.21638
 N45 N 0.74994 0.19197 0.22651
 C46 C 0.81877 0.18149 0.18403
 C47 C 0.83101 0.21996 0.17876
 C48 C 0.86827 0.23137 0.15320
 C49 C 0.86862 0.27045 0.16157
 C50 C 0.83151 0.28185 0.19155
 N51 N 0.80871 0.25087 0.20205
 C52 C 0.81936 0.32033 0.20232
 C53 C 0.78121 0.33204 0.22734
 C54 C 0.76863 0.36953 0.21334
 C55 C 0.73033 0.36930 0.24409
 C56 C 0.72023 0.33170 0.27611
 N57 N 0.75155 0.30927 0.26823
 C58 C 0.68273 0.31965 0.31190
 H59 H 0.60920 0.28753 0.37427
 H60 H 0.60866 0.21251 0.35882
 H61 H 0.75310 0.28075 0.30141
 H62 H 0.71550 0.10647 0.30188
 H63 H 0.78889 0.10676 0.24407
 H64 H 0.89276 0.21343 0.13150
 H65 H 0.89338 0.28844 0.14599
 H66 H 0.71193 0.39407 0.24110
 H67 H 0.74866 0.22076 0.19817
 H68 H 0.78525 0.39453 0.18230
 C69 C 0.86789 0.73051 0.85043
 C70 C 0.86809 0.76962 0.84244
 C71 C 0.83117 0.78088 0.80824
 N72 N 0.80857 0.74985 0.79462
 C73 C 0.83084 0.71895 0.82034
 C74 C 0.81908 0.81932 0.79561
 C75 C 0.78113 0.83123 0.76831
 C76 C 0.76891 0.86884 0.77849
 C77 C 0.73056 0.86882 0.74832
 C78 C 0.72014 0.83120 0.72045
 N79 N 0.75129 0.80858 0.73013
 C80 C 0.68246 0.81925 0.68794
 C81 C 0.67025 0.78080 0.68249
 C82 C 0.63300 0.76940 0.65682
 C83 C 0.63273 0.73028 0.66495
 C84 C 0.66984 0.71892 0.69484
 N85 N 0.69260 0.74987 0.70564
 C86 C 0.68199 0.68049 0.70503
 C87 C 0.72006 0.66862 0.72924
 C88 C 0.73239 0.63116 0.71426
 C89 C 0.77073 0.63110 0.74413
 C90 C 0.78110 0.66857 0.77675
 N91 N 0.74985 0.69113 0.76991
 C92 C 0.81874 0.68042 0.81225
 H93 H 0.89234 0.71263 0.87470
 H94 H 0.89265 0.78768 0.86095
 H95 H 0.74838 0.71953 0.80359
 H96 H 0.78574 0.89378 0.80701
 H97 H 0.71235 0.89373 0.74930
 H98 H 0.60848 0.78736 0.63517
 H99 H 0.60802 0.71228 0.64918
 H100 H 0.78900 0.60625 0.74029
 H101 H 0.75261 0.77990 0.70121
 H102 H 0.71560 0.60637 0.68308
 C103 C 0.36643 0.72996 0.66197
 C104 C 0.36623 0.76907 0.65413
 C105 C 0.32913 0.78055 0.68252
 N106 N 0.30678 0.74968 0.70702
 C107 C 0.32941 0.71868 0.69438
 C108 C 0.31707 0.81902 0.68983
 C109 C 0.27954 0.83103 0.72473
 C110 C 0.26943 0.86859 0.75566
 C111 C 0.23114 0.86877 0.78640
 C112 C 0.21856 0.83128 0.77350
 N113 N 0.24823 0.80858 0.73327
 C114 C 0.18043 0.81953 0.79937
 C115 C 0.16820 0.78103 0.81025
 C116 C 0.13114 0.76970 0.84211
 C117 C 0.13131 0.73060 0.84946
 C118 C 0.16845 0.71905 0.82133
 N119 N 0.19081 0.74998 0.79749
 C120 C 0.18053 0.68049 0.81384
 C121 C 0.21818 0.66853 0.77937
 C122 C 0.22855 0.63097 0.74867
 C123 C 0.26688 0.63094 0.71861
 C124 C 0.27920 0.66845 0.73151
 N125 N 0.24943 0.69107 0.77118
 C126 C 0.31724 0.68027 0.70576
 H127 H 0.39103 0.71191 0.64445
 H128 H 0.39072 0.78699 0.63103
 H129 H 0.25086 0.71960 0.80269
 H130 H 0.28783 0.89336 0.75805
 H131 H 0.21452 0.89373 0.81684
 H132 H 0.10652 0.78774 0.85959
 H133 H 0.10678 0.71271 0.87210
 H134 H 0.28365 0.60606 0.68849
 H135 H 0.24668 0.78007 0.70148
 H136 H 0.21029 0.60610 0.74610
 O137 O 1.03787 -0.04436 0.07596
 O138 O 0.96410 0.02701 0.16608
 O139 O 0.96398 -0.04410 0.07517
 O140 O 1.03811 0.02681 0.16672
 O141 O 1.03826 0.04486 -0.08981
 O142 O 0.96413 -0.02603 -0.18136
 O143 O 0.96432 0.04508 -0.09044
 O144 O 1.03808 -0.02631 -0.18057
 Cu145 Cu 1.00100 -0.01055 0.14665
 Cu146 Cu 1.00123 0.01132 -0.16117
 C147 C 1.05036 -0.04747 -0.06710
 C148 C 0.95175 0.04813 0.05254
 C149 C 0.95157 -0.04710 -0.06810
 C150 C 1.05067 0.04786 0.05343
 O151 O 0.46276 0.47313 0.33480
 O152 O 0.53653 0.54442 0.42627
 O153 O 0.53675 0.47341 0.33442
 O154 O 0.46258 0.54421 0.42635
 O155 O 0.46265 0.52595 0.68264
 O156 O 0.53683 0.45514 0.59070
 O157 O 0.53666 0.52615 0.68255
 O158 O 0.46290 0.45488 0.59109
 Cu159 Cu 0.49964 0.51072 0.35482
 Cu160 Cu 0.49976 0.48861 0.66239
 C161 C 0.45040 0.45192 0.44797
 C162 C 0.54905 0.54734 0.56938
 C163 C 0.54931 0.45229 0.44751
 C164 C 0.45011 0.54708 0.56954
 O165 O 0.03665 0.52741 -0.16753
 O166 O -0.03734 0.45618 -0.07483
 O167 O -0.03737 0.52740 -0.16791
 O168 O 0.03656 0.45614 -0.07470
 O169 O 0.03655 0.47387 0.18136
 O170 O -0.03738 0.54513 0.08815
 O171 O -0.03742 0.47391 0.18122
 O172 O 0.03657 0.54514 0.08853
 Cu173 Cu -0.00037 0.48992 -0.14680
 Cu174 Cu -0.00042 0.51140 0.16034
 C175 C 0.04909 0.54836 -0.05461
 C176 C -0.04983 0.45295 0.06835
 C177 C -0.04985 0.54834 -0.05507
 C178 C 0.04899 0.45290 0.06857
 O179 O 0.53657 1.02663 0.31643
 O180 O 0.46263 0.95547 0.41067
 O181 O 0.46254 1.02663 0.31692
 O182 O 0.53657 0.95550 0.41034
 O183 O 0.53668 0.97344 0.66615
 O184 O 0.46265 1.04457 0.57272
 O185 O 0.46267 0.97340 0.66648
 O186 O 0.53661 1.04456 0.57223
 Cu187 Cu 0.49956 0.98917 0.33804
 Cu188 Cu 0.49966 1.01089 0.64494
 C189 C 0.54908 1.04763 0.42896
 C190 C 0.45019 0.95237 0.55397
 C191 C 0.45011 1.04765 0.42957
 C192 C 0.54912 0.95243 0.55349
 C193 C 1.15497 0.15195 0.16310
 C194 C 1.13126 0.12767 0.14104
 C195 C 1.10335 0.09954 0.11323
 C196 C 1.07937 0.07578 0.08732
 C197 C 0.65360 0.65108 0.67982
 C198 C 0.62983 0.62689 0.65749
 C199 C 0.60181 0.59890 0.62934
 C200 C 0.57776 0.57523 0.60325
 C201 C -0.15384 0.34831 0.17875
 C202 C -0.13018 0.37271 0.15671
 C203 C -0.10235 0.40099 0.12876
 C204 C -0.07844 0.42488 0.10262
 C205 C 0.34561 0.84839 0.66528
 C206 C 0.36944 0.87260 0.64323
 C207 C 0.39746 0.90068 0.61512
 C208 C 0.42149 0.92442 0.58871
 C209 C -0.15434 0.65254 -0.16467
 C210 C -0.13056 0.62824 -0.14296
 C211 C -0.10257 0.60010 -0.11533
 C212 C -0.07855 0.57631 -0.08935
 C213 C 0.34550 1.15166 0.31904
 C214 C 0.36928 1.12739 0.34098
 C215 C 0.39730 1.09929 0.36893
 C216 C 0.42136 1.07556 0.39513
 C217 C 1.15372 -0.15249 -0.17660
 C218 C 1.13019 -0.12805 -0.15437
 C219 C 1.10254 -0.09967 -0.12647
 C220 C 1.07880 -0.07567 -0.10064
 C221 C 0.65424 0.34897 0.33689
 C222 C 0.63038 0.37307 0.35917
 C223 C 0.60227 0.40097 0.38730
 C224 C 0.57814 0.42454 0.41346
 C225 C 0.84741 -0.15121 -0.17897
 C226 C 0.87108 -0.12693 -0.15652
 C227 C 0.89896 -0.09879 -0.12827
 C228 C 0.92291 -0.07502 -0.10210
 C229 C 0.34620 0.34777 0.33853
 C230 C 0.36994 0.37201 0.36045
 C231 C 0.39786 0.40013 0.38820
 C232 C 0.42180 0.42392 0.41410
 C233 C 0.15354 0.65265 -0.16334
 C234 C 0.12975 0.62836 -0.14185
 C235 C 0.10177 0.60018 -0.11448
 C236 C 0.07777 0.57637 -0.08869
 C237 C 0.65379 1.15145 0.31716
 C238 C 0.63000 1.12721 0.33945
 C239 C 0.60194 1.09918 0.36776
 C240 C 0.57785 1.07550 0.39424
 C241 C 0.15282 0.34815 0.17988
 C242 C 0.12918 0.37253 0.15756
 C243 C 0.10139 0.40084 0.12936
 C244 C 0.07754 0.42478 0.10305
 C245 C 0.65395 0.84866 0.66372
 C246 C 0.63010 0.87285 0.64190
 C247 C 0.60200 0.90087 0.61406
 C248 C 0.57790 0.92455 0.58790
 C249 C 0.84727 0.15213 0.15991
 C250 C 0.87108 0.12793 0.13841
 C251 C 0.89908 0.09986 0.11121
 C252 C 0.92309 0.07610 0.08580
 C253 C 0.34556 0.65080 0.68040
 C254 C 0.36930 0.62657 0.65801
 C255 C 0.39728 0.59855 0.62981
 C256 C 0.42134 0.57489 0.60363
   
