data_POSCAR
  _audit_creation_date              2014-09-24
  _audit_creation_method            'ToBaCCo'
  _symmetry_space_group_name_H-M    'P1'
  _symmetry_Int_Tables_number       1
  _symmetry_cell_setting            triclinic
  loop_
  _symmetry_equiv_pos_as_xyz
 x,y,z
_cell_length_a 37.8666
_cell_length_b 36.3756
_cell_length_c 37.4022
_cell_angle_alpha 90.446900
_cell_angle_beta 90.136900
_cell_angle_gamma 90.015600
loop_
  _atom_site_label
  _atom_site_type_symbol
  _atom_site_fract_x
  _atom_site_fract_y
  _atom_site_fract_z
C1 C 0.60229 0.62429 0.65290
 C2 C 0.57549 0.65088 0.65316
 C3 C 0.57418 0.67798 0.62668
 C4 C 0.59984 0.67837 0.59966
 C5 C 0.62694 0.65207 0.59910
 C6 C 0.62817 0.62489 0.62583
 C7 C 0.60365 0.59713 0.67928
 C8 C 0.63075 0.57074 0.67924
 C9 C 0.65643 0.57144 0.65218
 C10 C 0.65525 0.59826 0.62546
 C11 C 0.68073 0.59883 0.59834
 C12 C 0.67959 0.62574 0.57166
 C13 C 0.65280 0.65240 0.57229
 H14 H 0.55566 0.65029 0.67394
 H15 H 0.59868 0.69927 0.57918
 H16 H 0.58369 0.59657 0.70003
 H17 H 0.67728 0.55110 0.65159
 H18 H 0.70147 0.57837 0.59819
 H19 H 0.65206 0.67322 0.55171
 C20 C 0.90046 0.36977 0.15149
 C21 C 0.92672 0.34259 0.15066
 C22 C 0.92680 0.31547 0.12370
 C23 C 0.89996 0.31540 0.09767
 C24 C 0.87344 0.34229 0.09826
 C25 C 0.87370 0.36968 0.12517
 C26 C 0.90066 0.39717 0.17805
 C27 C 0.87445 0.42447 0.17862
 C28 C 0.84779 0.42420 0.15250
 C29 C 0.84728 0.39705 0.12567
 C30 C 0.82090 0.39684 0.09926
 C31 C 0.82047 0.36951 0.07259
 C32 C 0.84677 0.34233 0.07221
 H33 H 0.94736 0.34268 0.17082
 H34 H 0.89955 0.29459 0.07684
 H35 H 0.92124 0.39718 0.19818
 H36 H 0.82759 0.44532 0.15305
 H37 H 0.80060 0.41787 0.09941
 H38 H 0.84674 0.32133 0.05156
 C39 C 0.39826 0.12656 -0.15234
 C40 C 0.42484 0.15347 -0.15212
 C41 C 0.42585 0.18051 -0.12516
 C42 C 0.39986 0.18085 -0.09848
 C43 C 0.37308 0.15426 -0.09840
 C44 C 0.37228 0.12691 -0.12534
 C45 C 0.39725 0.09926 -0.17902
 C46 C 0.37052 0.07242 -0.17922
 C47 C 0.34481 0.07285 -0.15213
 C48 C 0.34555 0.09988 -0.12521
 C49 C 0.31995 0.10037 -0.09814
 C50 C 0.32051 0.12773 -0.07151
 C51 C 0.34714 0.15456 -0.07173
 H52 H 0.44493 0.15332 -0.17272
 H53 H 0.40037 0.20171 -0.07770
 H54 H 0.41721 0.09891 -0.19978
 H55 H 0.32421 0.05223 -0.15176
 H56 H 0.29938 0.07963 -0.09783
 H57 H 0.34789 0.17557 -0.05110
 C58 C 0.09879 0.87672 0.35061
 C59 C 0.07081 0.85149 0.34987
 C60 C 0.06855 0.82363 0.37562
 C61 C 0.09449 0.82142 0.40248
 C62 C 0.12278 0.84635 0.40343
 C63 C 0.12494 0.87414 0.37740
 C64 C 0.10117 0.90438 0.32482
 C65 C 0.12944 0.92929 0.32529
 C66 C 0.15538 0.92676 0.35202
 C67 C 0.15328 0.89936 0.37812
 C68 C 0.17912 0.89666 0.40485
 C69 C 0.17725 0.86892 0.43061
 C70 C 0.14904 0.84386 0.42986
 H71 H 0.05093 0.85373 0.32917
 H72 H 0.09278 0.80003 0.42244
 H73 H 0.08116 0.90648 0.30414
 H74 H 0.17717 0.94602 0.35259
 H75 H 0.20089 0.91603 0.40561
 H76 H 0.14738 0.82255 0.44984
 N77 N 0.08377 0.18191 0.11035
 N78 N 0.07144 0.16816 0.14024
 C79 C 0.04235 0.18707 0.14996
 C80 C 0.03631 0.21385 0.12476
 C81 C 0.06299 0.20989 0.10001
 H82 H 0.02650 0.18167 0.17335
 H83 H 0.06689 0.22607 0.07622
 Cu84 Cu 0.09424 0.12650 0.16305
 Cu85 Cu 0.12564 0.16256 0.08691
 Cu86 Cu 0.16591 0.08716 0.12562
 N87 N 0.11661 0.08346 0.18377
 N88 N 0.14470 0.06837 0.16916
 C89 C 0.15479 0.03936 0.18885
 C90 C 0.13170 0.03614 0.21712
 C91 C 0.10778 0.06440 0.21317
 H92 H 0.17708 0.02179 0.18295
 H93 H 0.08566 0.07045 0.23046
 N94 N 0.18340 0.11021 0.08155
 N95 N 0.16821 0.13920 0.06708
 C96 C 0.18665 0.14913 0.03798
 C97 C 0.21457 0.12519 0.03396
 C98 C 0.21181 0.10082 0.06186
 H99 H 0.18042 0.17217 0.02102
 H100 H 0.22955 0.07832 0.06756
 H101 H 0.11985 0.10943 0.10554
 H102 H 0.14915 0.14078 0.13206
 N103 N 0.41989 0.81723 0.60835
 N104 N 0.43341 0.83346 0.63680
 C105 C 0.46266 0.81517 0.64694
 C106 C 0.46765 0.78615 0.62352
 C107 C 0.44017 0.78821 0.59933
 H108 H 0.47898 0.82216 0.66975
 H109 H 0.43509 0.76963 0.57720
 Cu110 Cu 0.41105 0.87646 0.65810
 Cu111 Cu 0.37648 0.83431 0.58578
 Cu112 Cu 0.33673 0.91148 0.62313
 N113 N 0.38878 0.91990 0.67867
 N114 N 0.35954 0.93331 0.66491
 C115 C 0.34910 0.96251 0.68450
 C116 C 0.37311 0.96763 0.71188
 C117 C 0.39798 0.94027 0.70747
 H118 H 0.32563 0.97859 0.67946
 H119 H 0.42068 0.93537 0.72437
 N120 N 0.31765 0.88553 0.58089
 N121 N 0.33248 0.85588 0.56689
 C122 C 0.31294 0.84438 0.53877
 C123 C 0.28473 0.86802 0.53499
 C124 C 0.28847 0.89376 0.56193
 H125 H 0.31884 0.82079 0.52209
 H126 H 0.27107 0.91672 0.56722
 H127 H 0.38186 0.88861 0.60125
 H128 H 0.35500 0.85852 0.63086
 N129 N 0.91391 0.68704 0.38914
 N130 N 0.92781 0.67165 0.36051
 C131 C 0.95691 0.69049 0.35114
 C132 C 0.96147 0.71900 0.37523
 C133 C 0.93384 0.71609 0.39904
 H134 H 0.97361 0.68403 0.32855
 H135 H 0.92857 0.73394 0.42166
 Cu136 Cu 0.90675 0.62834 0.33845
 Cu137 Cu 0.87082 0.66838 0.41102
 Cu138 Cu 0.83236 0.59161 0.37117
 N139 N 0.88494 0.58549 0.31623
 N140 N 0.85564 0.57138 0.32901
 C141 C 0.84645 0.54187 0.30911
 C142 C 0.87140 0.53730 0.28264
 C143 C 0.89544 0.56535 0.28782
 H144 H 0.82367 0.52465 0.31379
 H145 H 0.91893 0.57039 0.27223
 N146 N 0.81278 0.61598 0.41397
 N147 N 0.82721 0.64534 0.42905
 C148 C 0.80804 0.65493 0.45798
 C149 C 0.78053 0.63034 0.46121
 C150 C 0.78423 0.60606 0.43300
 H151 H 0.81397 0.67758 0.47590
 H152 H 0.76761 0.58261 0.42716
 H153 H 0.87695 0.61448 0.39449
 H154 H 0.85022 0.64498 0.36505
 N155 N 0.58353 0.31647 -0.11072
 N156 N 0.57083 0.33094 -0.14018
 C157 C 0.54210 0.31169 -0.15057
 C158 C 0.53670 0.28393 -0.12625
 C159 C 0.56337 0.28769 -0.10133
 H160 H 0.52596 0.31763 -0.17371
 H161 H 0.56757 0.27096 -0.07795
 Cu162 Cu 0.59272 0.37400 -0.16139
 Cu163 Cu 0.62484 0.33616 -0.08628
 Cu164 Cu 0.66355 0.41370 -0.12243
 N165 N 0.61423 0.41814 -0.18081
 N166 N 0.64206 0.43330 -0.16560
 C167 C 0.65203 0.46274 -0.18468
 C168 C 0.62916 0.46621 -0.21320
 C169 C 0.60545 0.43763 -0.21000
 H170 H 0.67432 0.48024 -0.17838
 H171 H 0.58375 0.43140 -0.22789
 N172 N 0.68139 0.38976 -0.07890
 N173 N 0.66677 0.36001 -0.06536
 C174 C 0.68541 0.34960 -0.03645
 C175 C 0.71289 0.37398 -0.03162
 C176 C 0.70965 0.39912 -0.05882
 H177 H 0.67972 0.32583 -0.02029
 H178 H 0.72704 0.42208 -0.06386
 H179 H 0.61800 0.38973 -0.10326
 H180 H 0.64791 0.35992 -0.13057
 C181 C 0.00010 0.26858 0.09386
 C182 C -0.03961 0.25848 0.09451
 C183 C -0.04566 0.28874 0.12294
 C184 C -0.00624 0.29906 0.12223
 C185 C -0.03895 0.26114 0.15320
 C186 C -0.03255 0.23062 0.12480
 C187 C 0.00677 0.24102 0.12409
 C188 C 0.00080 0.27114 0.15247
 H189 H 0.01631 0.27165 0.06938
 H190 H -0.05563 0.25247 0.07029
 H191 H 0.00445 0.32746 0.12111
 H192 H -0.05529 0.25823 0.17761
 H193 H -0.04306 0.20216 0.12592
 H194 H 0.01774 0.27607 0.17630
 C195 C 0.52410 0.75447 0.65435
 C196 C 0.51723 0.71256 0.65587
 C197 C 0.54550 0.70659 0.62683
 C198 C 0.55263 0.74822 0.62534
 C199 C 0.51739 0.70986 0.59724
 C200 C 0.48884 0.71611 0.62625
 C201 C 0.49603 0.75764 0.62477
 C202 C 0.52418 0.75179 0.59575
 H203 H 0.52685 0.77298 0.67792
 H204 H 0.51382 0.69686 0.68093
 H205 H 0.57914 0.76125 0.62502
 H206 H 0.51482 0.69121 0.57374
 H207 H 0.46230 0.70315 0.62656
 H208 H 0.52677 0.76822 0.57101
 C209 C 0.98370 0.78899 0.37507
 C210 C 1.01259 0.79367 0.40421
 C211 C 1.04055 0.79735 0.37465
 C212 C 1.01196 0.79300 0.34549
 C213 C 1.04688 0.75554 0.37474
 C214 C 1.01856 0.75154 0.40428
 C215 C 0.99011 0.74728 0.37516
 C216 C 1.01805 0.75093 0.34564
 H217 H 0.95741 0.80246 0.37527
 H218 H 1.01050 0.81152 0.42832
 H219 H 1.00844 0.80943 0.32087
 H220 H 1.07309 0.74188 0.37453
 H221 H 1.02099 0.73419 0.42844
 H222 H 1.02034 0.73324 0.32145
 C223 C 0.50138 0.22824 -0.09626
 C224 C 0.46168 0.23824 -0.09603
 C225 C 0.45503 0.20856 -0.12490
 C226 C 0.49448 0.19836 -0.12512
 C227 C 0.46104 0.23682 -0.15470
 C228 C 0.46799 0.26676 -0.12583
 C229 C 0.50734 0.25649 -0.12601
 C230 C 0.50083 0.22696 -0.15490
 H231 H 0.51808 0.22465 -0.07212
 H232 H 0.44609 0.24355 -0.07146
 H233 H 0.50518 0.16996 -0.12477
 H234 H 0.44413 0.24014 -0.17874
 H235 H 0.45737 0.29520 -0.12619
 H236 H 0.51725 0.22260 -0.17910
 C237 C 0.13301 0.01684 0.28606
 C238 C 0.10330 -0.01171 0.29207
 C239 C 0.13149 -0.04174 0.29694
 C240 C 0.16123 -0.01348 0.29123
 C241 C 0.13056 -0.05062 0.25664
 C242 C 0.10237 -0.02031 0.25151
 C243 C 0.13205 0.00786 0.24585
 C244 C 0.16026 -0.02210 0.25062
 H245 H 0.13397 0.04492 0.29787
 H246 H 0.07986 -0.00764 0.30942
 H247 H 0.18572 -0.01023 0.30729
 H248 H 0.12958 -0.07866 0.24474
 H249 H 0.07817 -0.02285 0.23486
 H250 H 0.18375 -0.02630 0.23337
 C251 C 0.60125 0.52318 -0.24852
 C252 C 0.63020 0.55283 -0.25326
 C253 C 0.63162 0.54356 -0.29348
 C254 C 0.60267 0.51425 -0.28903
 C255 C 0.66064 0.51465 -0.28689
 C256 C 0.65914 0.52365 -0.24638
 C257 C 0.63021 0.49438 -0.24202
 C258 C 0.63165 0.48506 -0.28213
 H259 H 0.57684 0.52641 -0.23243
 H260 H 0.62967 0.58095 -0.24152
 H261 H 0.57943 0.51052 -0.30684
 H262 H 0.68546 0.51044 -0.30207
 H263 H 0.68243 0.52748 -0.22866
 H264 H 0.63218 0.45688 -0.29371
 C265 C 0.37168 0.98664 0.78105
 C266 C 0.39979 1.01691 0.78765
 C267 C 0.36998 1.04512 0.79319
 C268 C 0.34182 1.01512 0.78690
 C269 C 0.37014 1.05434 0.75308
 C270 C 0.39996 1.02578 0.74723
 C271 C 0.37185 0.99590 0.74103
 C272 C 0.34205 1.02407 0.74649
 H273 H 0.37238 0.95848 0.79226
 H274 H 0.42356 1.01409 0.80485
 H275 H 0.31753 1.00995 0.80261
 H276 H 0.36945 1.08244 0.74171
 H277 H 0.42385 1.02989 0.73060
 H278 H 0.31825 1.02699 0.72938
 C279 C 0.84461 0.50134 0.22581
 C280 C 0.87446 0.49547 0.19813
 C281 C 0.87465 0.45417 0.20679
 C282 C 0.84481 0.45973 0.23417
 C283 C 0.90273 0.46040 0.23611
 C284 C 0.90251 0.50200 0.22768
 C285 C 0.87267 0.50747 0.25501
 C286 C 0.87286 0.46626 0.26375
 H287 H 0.82071 0.51849 0.22185
 H288 H 0.87517 0.50727 0.17086
 H289 H 0.82107 0.44202 0.23664
 H290 H 0.92693 0.44397 0.24090
 H291 H 0.92632 0.51956 0.22502
 H292 H 0.87213 0.45454 0.29105
 C293 C 0.24839 0.09624 -0.02267
 C294 C 0.25270 0.12660 -0.05113
 C295 C 0.29256 0.12797 -0.04305
 C296 C 0.28854 0.09761 -0.01492
 C297 C 0.28665 0.15791 -0.01431
 C298 C 0.24653 0.15650 -0.02216
 C299 C 0.24259 0.12616 0.00595
 C300 C 0.28236 0.12753 0.01410
 H301 H 0.23234 0.07087 -0.02582
 H302 H 0.24069 0.12627 -0.07823
 H303 H 0.30613 0.07338 -0.01215
 H304 H 0.30196 0.18363 -0.01034
 H305 H 0.22910 0.18082 -0.02513
 H306 H 0.29428 0.12784 0.04124
 C307 C 0.72622 0.59820 0.49486
 C308 C 0.73521 0.59683 0.53521
 C309 C 0.70677 0.62625 0.54240
 C310 C 0.69755 0.62758 0.50232
 C311 C 0.73416 0.65711 0.53778
 C312 C 0.76286 0.62771 0.53031
 C313 C 0.75360 0.62903 0.49032
 C314 C 0.72528 0.65845 0.49738
 H315 H 0.72292 0.57387 0.47708
 H316 H 0.73987 0.57111 0.55025
 H317 H 0.67043 0.62747 0.49099
 H318 H 0.73724 0.68134 0.55574
 H319 H 0.79001 0.62783 0.54157
 H320 H 0.72145 0.68380 0.48151
 C321 C 0.78084 0.37122 -0.01244
 C322 C 0.78756 0.40063 0.01697
 C323 C 0.79196 0.36979 0.04456
 C324 C 0.78551 0.34035 0.01542
 C325 C 0.75224 0.37111 0.05313
 C326 C 0.74753 0.40196 0.02520
 C327 C 0.74121 0.37252 -0.00381
 C328 C 0.74552 0.34170 0.02375
 H329 H 0.79234 0.37133 -0.03971
 H330 H 0.80516 0.42487 0.01438
 H331 H 0.80066 0.31466 0.01082
 H332 H 0.74067 0.37101 0.08038
 H333 H 0.73160 0.42730 0.02894
 H334 H 0.72807 0.31738 0.02655
 C335 C 0.25058 0.83632 0.47918
 C336 C 0.21048 0.83693 0.48739
 C337 C 0.20548 0.86681 0.45884
 C338 C 0.24525 0.86615 0.45035
 C339 C 0.21127 0.89725 0.48704
 C340 C 0.21657 0.86743 0.51587
 C341 C 0.25624 0.86682 0.50730
 C342 C 0.25128 0.89662 0.47883
 H343 H 0.26697 0.81122 0.47607
 H344 H 0.19392 0.81211 0.49124
 H345 H 0.25685 0.86559 0.42313
 H346 H 0.19483 0.92233 0.49010
 H347 H 0.20505 0.86800 0.54314
 H348 H 0.26835 0.92116 0.47555
   
