data_POSCAR
  _audit_creation_date              2014-09-24
  _audit_creation_method            'ToBaCCo'
  _symmetry_space_group_name_H-M    'P1'
  _symmetry_Int_Tables_number       1
  _symmetry_cell_setting            triclinic
  loop_
  _symmetry_equiv_pos_as_xyz
 x,y,z
_cell_length_a 42.8036
_cell_length_b 39.1172
_cell_length_c 19.4284
_cell_angle_alpha 89.908000
_cell_angle_beta 89.993900
_cell_angle_gamma 89.882300
loop_
  _atom_site_label
  _atom_site_type_symbol
  _atom_site_fract_x
  _atom_site_fract_y
  _atom_site_fract_z
O1 O 0.22617 0.28445 0.17972
 O2 O 0.28476 0.21691 0.20664
 O3 O 0.22666 0.21836 0.16787
 O4 O 0.28423 0.28291 0.22191
 O5 O 0.26883 0.27702 0.32959
 O6 O 0.21082 0.21319 0.27528
 O7 O 0.26913 0.21122 0.31422
 O8 O 0.21079 0.27940 0.28759
 Cu9 Cu 0.25700 0.25131 0.18329
 Cu10 Cu 0.23830 0.24470 0.31243
 C11 C 0.20824 0.29329 0.22866
 C12 C 0.28708 0.20257 0.26510
 C13 C 0.20868 0.20480 0.21227
 C14 C 0.28671 0.29063 0.28522
 O15 O 0.78557 0.27924 0.28688
 O16 O 0.73006 0.20796 0.31070
 O17 O 0.78698 0.21372 0.27240
 O18 O 0.72705 0.27484 0.32882
 O19 O 0.71381 0.28464 0.22084
 O20 O 0.76892 0.21721 0.16623
 O21 O 0.70957 0.22011 0.20941
 O22 O 0.77103 0.28348 0.17832
 Cu23 Cu 0.75880 0.24362 0.31077
 Cu24 Cu 0.73942 0.25158 0.18253
 C25 C 0.78854 0.29268 0.22760
 C26 C 0.70934 0.20300 0.26499
 C27 C 0.78803 0.20471 0.20975
 C28 C 0.71030 0.29042 0.28470
 O29 O 0.71222 0.71699 0.78222
 O30 O 0.76978 0.78508 0.81601
 O31 O 0.71155 0.78349 0.77722
 O32 O 0.77018 0.71909 0.82548
 O33 O 0.78601 0.71614 0.71776
 O34 O 0.72718 0.78103 0.66918
 O35 O 0.78534 0.78239 0.70791
 O36 O 0.72813 0.71468 0.67438
 Cu37 Cu 0.73930 0.75134 0.81100
 Cu38 Cu 0.75822 0.74820 0.68153
 C39 C 0.71012 0.70447 0.72203
 C40 C 0.78756 0.79521 0.76769
 C41 C 0.70922 0.79331 0.71511
 C42 C 0.78856 0.70691 0.78037
 O43 O 0.22994 0.72359 0.83784
 O44 O 0.28845 0.78462 0.77505
 O45 O 0.23188 0.79012 0.81625
 O46 O 0.28811 0.71922 0.79370
 O47 O 0.27246 0.71336 0.68625
 O48 O 0.21076 0.77684 0.71627
 O49 O 0.26956 0.77946 0.66990
 O50 O 0.21549 0.71256 0.73119
 Cu51 Cu 0.26114 0.75487 0.81663
 Cu52 Cu 0.24058 0.74514 0.68981
 C53 C 0.21273 0.70754 0.79553
 C54 C 0.28883 0.79280 0.71185
 C55 C 0.21076 0.79446 0.77112
 C56 C 0.29059 0.70498 0.73516
 C57 C 1.02932 0.05657 0.07019
 C58 C 1.00132 0.07315 0.08685
 C59 C 0.97261 0.06167 0.06165
 C60 C 0.97170 0.03308 0.01715
 C61 C 0.99981 0.01555 0.00090
 C62 C 1.02849 0.02658 0.02958
 C63 C 1.05533 0.00659 0.01919
 C64 C 1.05451 -0.02229 -0.02254
 C65 C 1.02729 -0.03128 -0.05891
 C66 C 0.99922 -0.01321 -0.04380
 C67 C 0.94342 0.02119 -0.01047
 C68 C 0.94285 -0.00665 -0.05477
 C69 C 0.97041 -0.02431 -0.07177
 C70 C 0.96985 -0.05275 -0.11630
 C71 C 0.99796 -0.06782 -0.13679
 C72 C 1.02682 -0.05835 -0.10803
 H73 H 1.07711 0.01267 0.04468
 H74 H 1.07549 -0.03757 -0.02481
 H75 H 0.92137 0.03331 0.00157
 H76 H 0.92051 -0.01398 -0.07613
 H77 H 1.00192 0.09598 0.11844
 H78 H 0.99695 -0.08826 -0.17424
 C79 C 0.46952 0.43041 0.45253
 C80 C 0.49784 0.41637 0.43031
 C81 C 0.52653 0.42968 0.45157
 C82 C 0.52717 0.45855 0.49532
 C83 C 0.49866 0.47346 0.51764
 C84 C 0.46971 0.45911 0.49690
 C85 C 0.44181 0.47427 0.51992
 C86 C 0.44228 0.50289 0.56237
 C87 C 0.47062 0.51828 0.58158
 C88 C 0.49911 0.50319 0.55968
 C89 C 0.55553 0.47330 0.51618
 C90 C 0.55596 0.50221 0.55771
 C91 C 0.52806 0.51809 0.57870
 C92 C 0.52834 0.54843 0.61842
 C93 C 0.50006 0.56258 0.64064
 C94 C 0.47130 0.54830 0.62232
 H95 H 0.41926 0.46428 0.50511
 H96 H 0.42006 0.51290 0.57967
 H97 H 0.57778 0.46286 0.50012
 H98 H 0.57851 0.51198 0.57314
 H99 H 0.49755 0.39429 0.39657
 H100 H 0.50037 0.58624 0.66972
 C101 C -0.03069 0.44858 0.11553
 C102 C -0.00229 0.43460 0.13755
 C103 C 0.02634 0.44878 0.11811
 C104 C 0.02677 0.47880 0.07730
 C105 C -0.00182 0.49346 0.05467
 C106 C -0.03066 0.47824 0.07355
 C107 C -0.05863 0.49322 0.05035
 C108 C -0.05833 0.52185 0.00773
 C109 C -0.03009 0.53755 -0.01126
 C110 C -0.00154 0.52328 0.01266
 C111 C 0.05500 0.49468 0.05901
 C112 C 0.05529 0.52369 0.01761
 C113 C 0.02732 0.53854 -0.00590
 C114 C 0.02746 0.56794 -0.04843
 C115 C -0.00081 0.58126 -0.07269
 C116 C -0.02951 0.56678 -0.05447
 H117 H -0.08114 0.48294 0.06471
 H118 H -0.08059 0.53143 -0.01026
 H119 H 0.07726 0.48492 0.07672
 H120 H 0.07780 0.53418 0.00388
 H121 H -0.00246 0.41130 0.16794
 H122 H -0.00049 0.60390 -0.10501
 C123 C 0.47157 0.93468 0.55226
 C124 C 0.50004 0.92377 0.57990
 C125 C 0.52809 0.94028 0.56393
 C126 C 0.52759 0.96953 0.52097
 C127 C 0.49914 0.98005 0.49011
 C128 C 0.47098 0.96257 0.50584
 C129 C 0.44293 0.97393 0.47602
 C130 C 0.44259 1.00144 0.43075
 C131 C 0.47013 1.01929 0.41485
 C132 C 0.49878 1.00844 0.44426
 C133 C 0.55443 0.98942 0.51063
 C134 C 0.55381 1.01792 0.46763
 C135 C 0.52682 1.02662 0.42993
 C136 C 0.52652 1.05359 0.38036
 C137 C 0.49779 1.06287 0.35042
 C138 C 0.46965 1.04778 0.37026
 H139 H 0.42088 0.96169 0.48724
 H140 H 0.42042 1.00845 0.40790
 H141 H 0.57602 0.98364 0.53729
 H142 H 0.57471 1.03323 0.46570
 H143 H 0.50040 0.90161 0.61355
 H144 H 0.49689 1.08334 0.31290
 C145 C 1.13840 0.13540 0.14777
 C146 C 1.14127 0.14438 0.21801
 C147 C 1.16506 0.16667 0.23933
 C148 C 1.18605 0.18090 0.19145
 C149 C 1.18337 0.17140 0.12193
 C150 C 1.16001 0.14897 0.10040
 C151 C 1.11184 0.11269 0.12674
 C152 C 1.10662 0.10272 0.05799
 C153 C 1.08042 0.08344 0.04044
 C154 C 1.05897 0.07326 0.09088
 C155 C 1.06436 0.08210 0.15973
 C156 C 1.09056 0.10167 0.17799
 C157 C 1.11998 0.13169 0.26645
 C158 C 1.09512 0.11091 0.24685
 H159 H 1.12223 0.13844 0.32031
 H160 H 1.07896 0.10230 0.28615
 H161 H 1.16668 0.17350 0.29329
 H162 H 1.19916 0.18159 0.08348
 H163 H 1.07637 0.07725 -0.01315
 H164 H 1.04769 0.07437 0.19878
 H165 H 1.15910 0.14305 0.04628
 H166 H 1.12205 0.11008 0.01673
 C167 C 0.63713 0.63269 0.67297
 C168 C 0.64227 0.64262 0.74210
 C169 C 0.66649 0.66550 0.75821
 C170 C 0.68599 0.67853 0.70633
 C171 C 0.68152 0.66758 0.63830
 C172 C 0.65752 0.64500 0.62174
 C173 C 0.60998 0.60980 0.65733
 C174 C 0.60154 0.60059 0.58971
 C175 C 0.57540 0.58023 0.57761
 C176 C 0.55734 0.56799 0.63244
 C177 C 0.56542 0.57699 0.69995
 C178 C 0.59140 0.59796 0.71274
 C179 C 0.62306 0.62991 0.79459
 C180 C 0.59836 0.60782 0.78029
 H181 H 0.62711 0.63726 0.84760
 H182 H 0.58413 0.59882 0.82272
 H183 H 0.66988 0.67346 0.81110
 H184 H 0.69632 0.67696 0.59722
 H185 H 0.56895 0.57437 0.52502
 H186 H 0.55107 0.56811 0.74236
 H187 H 0.65528 0.63774 0.56848
 H188 H 0.61432 0.60940 0.54532
 C189 C -0.13770 0.36519 0.18881
 C190 C -0.15531 0.35141 0.13383
 C191 C -0.17987 0.32867 0.14726
 C192 C -0.18693 0.31858 0.21487
 C193 C -0.16956 0.33232 0.26936
 C194 C -0.14536 0.35544 0.25668
 C195 C -0.11106 0.38866 0.17192
 C196 C -0.09223 0.40406 0.22268
 C197 C -0.06677 0.42435 0.20407
 C198 C -0.05960 0.43000 0.13466
 C199 C -0.07840 0.41531 0.08371
 C200 C -0.10416 0.39504 0.10173
 C201 C -0.14787 0.35967 0.06561
 C202 C -0.12270 0.38079 0.04989
 H203 H -0.16138 0.34911 0.02356
 H204 H -0.11756 0.38588 -0.00378
 H205 H -0.19295 0.31805 0.10458
 H206 H -0.17451 0.32498 0.32201
 H207 H -0.05230 0.43535 0.24403
 H208 H -0.07254 0.41920 0.02995
 H209 H -0.13267 0.36488 0.30063
 H210 H -0.09651 0.40051 0.27690
 C211 C 0.36262 0.85998 0.64629
 C212 C 0.34665 0.83963 0.59742
 C213 C 0.32157 0.81884 0.61827
 C214 C 0.31260 0.81742 0.68771
 C215 C 0.32807 0.83815 0.73558
 C216 C 0.35257 0.85927 0.71530
 C217 C 0.39013 0.88060 0.62281
 C218 C 0.40772 0.90129 0.66777
 C219 C 0.43382 0.91900 0.64408
 C220 C 0.44295 0.91677 0.57514
 C221 C 0.42564 0.89653 0.52958
 C222 C 0.39923 0.87858 0.55282
 C223 C 0.35637 0.83944 0.52855
 C224 C 0.38214 0.85840 0.50679
 H225 H 0.34416 0.82394 0.49103
 H226 H 0.38897 0.85699 0.45314
 H227 H 0.30987 0.80275 0.58095
 H228 H 0.32148 0.83773 0.78941
 H229 H 0.44710 0.93447 0.67982
 H230 H 0.43295 0.89461 0.47628
 H231 H 0.36362 0.87425 0.75488
 H232 H 0.40195 0.90404 0.72146
 C233 C -0.13725 0.64134 -0.15822
 C234 C -0.15800 0.65516 -0.10882
 C235 C -0.18317 0.67577 -0.12980
 C236 C -0.18774 0.68392 -0.19971
 C237 C -0.16723 0.66983 -0.24861
 C238 C -0.14247 0.64876 -0.22832
 C239 C -0.11008 0.62034 -0.13332
 C240 C -0.08824 0.60510 -0.17819
 C241 C -0.06263 0.58705 -0.15226
 C242 C -0.05821 0.58355 -0.08117
 C243 C -0.07992 0.59822 -0.03597
 C244 C -0.10591 0.61621 -0.06142
 C245 C -0.15309 0.64915 -0.03854
 C246 C -0.12748 0.63035 -0.01534
 H247 H -0.16899 0.65972 -0.00068
 H248 H -0.12443 0.62697 0.03964
 H249 H -0.19861 0.68634 -0.09098
 H250 H -0.16999 0.67538 -0.30292
 H251 H -0.04595 0.57601 -0.18784
 H252 H -0.07627 0.59597 0.01909
 H253 H -0.12739 0.63912 -0.26830
 H254 H -0.09033 0.60699 -0.23336
 C255 C 0.36085 1.12927 0.29940
 C256 C 0.34244 1.14125 0.35500
 C257 C 0.31779 1.16421 0.34309
 C258 C 0.31142 1.17622 0.27647
 C259 C 0.32940 1.16401 0.22131
 C260 C 0.35369 1.14076 0.23242
 C261 C 0.38782 1.10591 0.31482
 C262 C 0.40776 1.09265 0.26344
 C263 C 0.43369 1.07271 0.28112
 C264 C 0.44021 1.06530 0.35019
 C265 C 0.42016 1.07770 0.40150
 C266 C 0.39404 1.09763 0.38446
 C267 C 0.34924 1.13103 0.42245
 C268 C 0.37460 1.10986 0.43690
 H269 H 0.33511 1.14012 0.46497
 H270 H 0.37926 1.10327 0.49013
 H271 H 0.30416 1.17355 0.38621
 H272 H 0.32492 1.17275 0.16931
 H273 H 0.44905 1.06350 0.24087
 H274 H 0.42550 1.07255 0.45512
 H275 H 0.36687 1.13263 0.18806
 H276 H 0.40404 1.09775 0.20951
 C277 C 1.13607 -0.13829 -0.18641
 C278 C 1.13060 -0.17064 -0.21617
 C279 C 1.15589 -0.19108 -0.23648
 C280 C 1.18647 -0.18242 -0.21688
 C281 C 1.19152 -0.15192 -0.18042
 C282 C 1.16676 -0.12931 -0.16803
 C283 C 1.10853 -0.11642 -0.16960
 C284 C 1.11068 -0.08093 -0.15969
 C285 C 1.08401 -0.06180 -0.14355
 C286 C 1.05529 -0.07805 -0.13013
 C287 C 1.05311 -0.11345 -0.14289
 C288 C 1.07888 -0.13197 -0.16717
 C289 C 1.10009 -0.18346 -0.21994
 C290 C 1.07500 -0.16534 -0.19191
 H291 H 1.09584 -0.20870 -0.24084
 H292 H 1.05206 -0.17702 -0.19230
 H293 H 1.15147 -0.21550 -0.26102
 H294 H 1.21480 -0.14500 -0.16362
 H295 H 1.08602 -0.03426 -0.14065
 H296 H 1.03118 -0.12670 -0.13536
 H297 H 1.17156 -0.10569 -0.14123
 H298 H 1.13260 -0.06770 -0.16686
 C299 C 0.63524 0.35648 0.35022
 C300 C 0.65343 0.33856 0.39937
 C301 C 0.67855 0.31799 0.37791
 C302 C 0.68575 0.31457 0.30774
 C303 C 0.66812 0.33297 0.25933
 C304 C 0.64331 0.35372 0.28011
 C305 C 0.60775 0.37691 0.37498
 C306 C 0.58771 0.39493 0.33006
 C307 C 0.56173 0.41246 0.35543
 C308 C 0.55524 0.41273 0.42600
 C309 C 0.57506 0.39523 0.47138
 C310 C 0.60124 0.37740 0.44648
 C311 C 0.64607 0.34067 0.46949
 C312 C 0.62054 0.35966 0.49253
 H313 H 0.66005 0.32707 0.50717
 H314 H 0.61563 0.36014 0.54725
 H315 H 0.69196 0.30390 0.41589
 H316 H 0.67321 0.33096 0.20487
 H317 H 0.54645 0.42572 0.31979
 H318 H 0.56974 0.39512 0.52597
 H319 H 0.63053 0.36692 0.24029
 H320 H 0.59139 0.39554 0.27520
 C321 C 0.86090 -0.13215 -0.19222
 C322 C 0.84272 -0.14545 -0.13748
 C323 C 0.81814 -0.16816 -0.15111
 C324 C 0.81162 -0.17853 -0.21868
 C325 C 0.82929 -0.16487 -0.27292
 C326 C 0.85351 -0.14191 -0.26007
 C327 C 0.88791 -0.10928 -0.17515
 C328 C 0.90774 -0.09505 -0.22564
 C329 C 0.93374 -0.07568 -0.20666
 C330 C 0.94039 -0.06978 -0.13715
 C331 C 0.92045 -0.08310 -0.08661
 C332 C 0.89430 -0.10257 -0.10496
 C333 C 0.84970 -0.13681 -0.06930
 C334 C 0.87502 -0.11596 -0.05337
 H335 H 0.83573 -0.14688 -0.02742
 H336 H 0.87981 -0.11059 0.00031
 H337 H 0.80471 -0.17860 -0.10870
 H338 H 0.82469 -0.17230 -0.32563
 H339 H 0.94904 -0.06572 -0.24630
 H340 H 0.92590 -0.07904 -0.03271
 H341 H 0.86644 -0.13265 -0.30388
 H342 H 0.90394 -0.09897 -0.27989
 C343 C 0.36109 0.35749 0.35035
 C344 C 0.34243 0.34028 0.39955
 C345 C 0.31759 0.31947 0.37801
 C346 C 0.31122 0.31488 0.30771
 C347 C 0.32945 0.33234 0.25912
 C348 C 0.35395 0.35345 0.27997
 C349 C 0.38819 0.37835 0.37543
 C350 C 0.40836 0.39619 0.33068
 C351 C 0.43417 0.41379 0.35633
 C352 C 0.44041 0.41433 0.42705
 C353 C 0.42027 0.39727 0.47232
 C354 C 0.39420 0.37945 0.44714
 C355 C 0.34912 0.34324 0.46988
 C356 C 0.37451 0.36227 0.49312
 H357 H 0.33480 0.33014 0.50757
 H358 H 0.37897 0.36327 0.54799
 H359 H 0.30376 0.30603 0.41615
 H360 H 0.32503 0.32938 0.20456
 H361 H 0.44966 0.42672 0.32073
 H362 H 0.42535 0.39734 0.52701
 H363 H 0.36726 0.36588 0.24007
 H364 H 0.40491 0.39656 0.27573
 C365 C 0.13826 0.64344 -0.12941
 C366 C 0.14421 0.64612 -0.20090
 C367 C 0.16913 0.66616 -0.22485
 C368 C 0.18842 0.68385 -0.17865
 C369 C 0.18310 0.68028 -0.10776
 C370 C 0.15843 0.66033 -0.08334
 C371 C 0.11040 0.62321 -0.10621
 C372 C 0.10152 0.62031 -0.03651
 C373 C 0.07481 0.60205 -0.01788
 C374 C 0.05656 0.58595 -0.06802
 C375 C 0.06509 0.58860 -0.13740
 C376 C 0.09173 0.60711 -0.15686
 C377 C 0.12500 0.62925 -0.24822
 C378 C 0.09941 0.61005 -0.22666
 H379 H 0.12966 0.63114 -0.30293
 H380 H 0.08515 0.59769 -0.26537
 H381 H 0.17306 0.66853 -0.27979
 H382 H 0.19767 0.69351 -0.07087
 H383 H 0.06817 0.60066 0.03586
 H384 H 0.05070 0.57645 -0.17623
 H385 H 0.15539 0.65885 -0.02834
 H386 H 0.11456 0.63228 0.00431
 C387 C 0.63530 1.13497 0.30631
 C388 C 0.62959 1.16719 0.27588
 C389 C 0.65472 1.18791 0.25615
 C390 C 0.68527 1.17969 0.27696
 C391 C 0.69049 1.14938 0.31420
 C392 C 0.66598 1.12646 0.32603
 C393 C 0.60796 1.11274 0.32222
 C394 C 0.61055 1.07728 0.33248
 C395 C 0.58401 1.05778 0.34751
 C396 C 0.55493 1.07364 0.35952
 C397 C 0.55238 1.10903 0.34658
 C398 C 0.57806 1.12788 0.32326
 C399 C 0.59893 1.17960 0.27076
 C400 C 0.57389 1.16118 0.29803
 H401 H 0.59446 1.20474 0.24935
 H402 H 0.55079 1.17254 0.29658
 H403 H 0.65014 1.21220 0.23098
 H404 H 0.71375 1.14281 0.33193
 H405 H 0.58639 1.03027 0.35063
 H406 H 0.53021 1.12201 0.35314
 H407 H 0.67091 1.10296 0.35337
 H408 H 0.63273 1.06434 0.32638
 C409 C 0.13386 0.36551 0.19106
 C410 C 0.15230 0.35300 0.13603
 C411 C 0.17710 0.33039 0.14904
 C412 C 0.18364 0.31925 0.21625
 C413 C 0.16555 0.33190 0.27080
 C414 C 0.14109 0.35482 0.25857
 C415 C 0.10691 0.38873 0.17456
 C416 C 0.08710 0.40265 0.22540
 C417 C 0.06148 0.42287 0.20699
 C418 C 0.05512 0.42992 0.13771
 C419 C 0.07483 0.41661 0.08675
 C420 C 0.10072 0.39640 0.10457
 C421 C 0.14544 0.36242 0.06811
 C422 C 0.12010 0.38347 0.05270
 H423 H 0.15958 0.35287 0.02601
 H424 H 0.11547 0.38954 -0.00080
 H425 H 0.19078 0.32067 0.10633
 H426 H 0.17010 0.32379 0.32318
 H427 H 0.04632 0.43278 0.24693
 H428 H 0.06961 0.42157 0.03302
 H429 H 0.12787 0.36336 0.30255
 H430 H 0.09075 0.39800 0.27951
 C431 C 0.63602 0.86425 0.65998
 C432 C 0.65638 0.85112 0.60894
 C433 C 0.68069 0.82869 0.62736
 C434 C 0.68498 0.81874 0.69618
 C435 C 0.66520 0.83241 0.74679
 C436 C 0.64113 0.85488 0.72914
 C437 C 0.60934 0.88662 0.63772
 C438 C 0.58711 0.89998 0.68416
 C439 C 0.56143 0.91857 0.66027
 C440 C 0.55745 0.92470 0.58981
 C441 C 0.57991 0.91260 0.54329
 C442 C 0.60568 0.89357 0.56660
 C443 C 0.65198 0.85984 0.53966
 C444 C 0.62718 0.88059 0.51895
 H445 H 0.66767 0.84998 0.50061
 H446 H 0.62448 0.88606 0.46457
 H447 H 0.69586 0.81842 0.58774
 H448 H 0.66804 0.82538 0.80037
 H449 H 0.54418 0.92763 0.69681
 H450 H 0.57659 0.91689 0.48861
 H451 H 0.62659 0.86419 0.77038
 H452 H 0.58868 0.89575 0.73888
 C453 C 0.86331 0.13777 0.15041
 C454 C 0.84681 0.15660 0.09972
 C455 C 0.82133 0.17734 0.11871
 C456 C 0.81242 0.18016 0.18800
 C457 C 0.82844 0.16093 0.23775
 C458 C 0.85338 0.13991 0.21939
 C459 C 0.89113 0.11708 0.12867
 C460 C 0.90926 0.09784 0.17543
 C461 C 0.93546 0.07977 0.15303
 C462 C 0.94414 0.08023 0.08366
 C463 C 0.92639 0.09920 0.03646
 C464 C 0.89988 0.11745 0.05835
 C465 C 0.85631 0.15530 0.03076
 C466 C 0.88231 0.13622 0.01057
 H467 H 0.84370 0.16964 -0.00813
 H468 H 0.88891 0.13638 -0.04330
 H469 H 0.80921 0.19224 0.07989
 H470 H 0.82192 0.16244 0.29154
 H471 H 0.94910 0.06534 0.19004
 H472 H 0.93338 0.09980 -0.01719
 H473 H 0.86482 0.12609 0.26029
 H474 H 0.90382 0.09646 0.22951
 C475 C 0.36476 0.63259 0.69698
 C476 C 0.34612 0.64512 0.64226
 C477 C 0.32147 0.66783 0.65559
 C478 C 0.31527 0.67911 0.72279
 C479 C 0.33364 0.66659 0.77706
 C480 C 0.35797 0.64352 0.76453
 C481 C 0.39145 0.60909 0.68007
 C482 C 0.41132 0.59491 0.73058
 C483 C 0.43666 0.57439 0.71174
 C484 C 0.44269 0.56731 0.64235
 C485 C 0.42291 0.58089 0.59174
 C486 C 0.39727 0.60135 0.61000
 C487 C 0.35260 0.63561 0.57427
 C488 C 0.37776 0.61441 0.55845
 H489 H 0.33831 0.64521 0.53241
 H490 H 0.38210 0.60829 0.50490
 H491 H 0.30760 0.67748 0.61305
 H492 H 0.32937 0.67485 0.82941
 H493 H 0.45190 0.56431 0.75142
 H494 H 0.42790 0.57594 0.53792
 H495 H 0.37144 0.63504 0.80825
 H496 H 0.40791 0.59958 0.78474
   
