data_POSCAR
  _audit_creation_date              2014-09-24
  _audit_creation_method            'ToBaCCo'
  _symmetry_space_group_name_H-M    'P1'
  _symmetry_Int_Tables_number       1
  _symmetry_cell_setting            triclinic
  loop_
  _symmetry_equiv_pos_as_xyz
 x,y,z
_cell_length_a 48.3485
_cell_length_b 48.1441
_cell_length_c 28.1491
_cell_angle_alpha 90.085500
_cell_angle_beta 90.087600
_cell_angle_gamma 92.877200
loop_
  _atom_site_label
  _atom_site_type_symbol
  _atom_site_fract_x
  _atom_site_fract_y
  _atom_site_fract_z
C1 C -0.02909 0.27192 0.02924
 C2 C -0.03284 0.26679 -0.02052
 C3 C -0.00949 0.26143 -0.04836
 C4 C 0.01736 0.26112 -0.02934
 C5 C 0.02092 0.26705 0.01969
 C6 C -0.00191 0.27326 0.04759
 H7 H 0.00145 0.27572 0.08549
 H8 H -0.01199 0.25937 -0.08649
 C9 C 0.47414 0.78641 0.52818
 C10 C 0.47622 0.78815 0.47781
 C11 C 0.50240 0.78674 0.45656
 C12 C 0.52621 0.78293 0.48355
 C13 C 0.52399 0.77925 0.53322
 C14 C 0.49801 0.78126 0.55489
 H15 H 0.49657 0.77938 0.59319
 H16 H 0.50437 0.78822 0.41827
 C17 C 1.02112 0.71913 0.03162
 C18 C 1.02175 0.72152 -0.01900
 C19 C 0.99688 0.72499 -0.04418
 C20 C 0.97116 0.72576 -0.02074
 C21 C 0.97038 0.72018 0.02882
 C22 C 0.99505 0.71762 0.05403
 H23 H 0.99357 0.71526 0.09221
 H24 H 0.99785 0.72795 -0.08230
 C25 C 0.52171 0.25723 0.52431
 C26 C 0.52137 0.25745 0.47410
 C27 C 0.49602 0.25877 0.45025
 C28 C 0.47120 0.26041 0.47533
 C29 C 0.47144 0.26001 0.52552
 C30 C 0.49678 0.25820 0.54941
 H31 H 0.49722 0.25847 0.58793
 H32 H 0.49571 0.25966 0.41175
 C33 C 0.70729 -0.04391 0.02990
 C34 C 0.71410 -0.04578 -0.01939
 C35 C 0.71913 -0.02128 -0.04567
 C36 C 0.71715 0.00502 -0.02522
 C37 C 0.70852 0.00707 0.02239
 C38 C 0.70373 -0.01718 0.04918
 H39 H 0.69919 -0.01469 0.08658
 H40 H 0.72463 -0.02259 -0.08292
 C41 C 0.24707 0.48774 0.53162
 C42 C 0.25368 0.48901 0.48275
 C43 C 0.25440 0.51480 0.45951
 C44 C 0.24802 0.53915 0.48366
 C45 C 0.23874 0.53733 0.53145
 C46 C 0.23888 0.51165 0.55506
 H47 H 0.23318 0.51036 0.59226
 H48 H 0.26055 0.51603 0.42252
 C49 C 0.29243 1.04064 0.03405
 C50 C 0.28574 1.04080 -0.01566
 C51 C 0.27810 1.01523 -0.03804
 C52 C 0.27909 0.98987 -0.01390
 C53 C 0.28964 0.98963 0.03289
 C54 C 0.29572 1.01478 0.05644
 H55 H 0.30127 1.01379 0.09366
 H56 H 0.27209 1.01468 -0.07510
 C57 C 0.77966 0.51075 0.52405
 C58 C 0.76995 0.50786 0.47669
 C59 C 0.76485 0.48101 0.45798
 C60 C 0.76760 0.45715 0.48585
 C61 C 0.77706 0.46017 0.53347
 C62 C 0.78374 0.48696 0.55121
 H63 H 0.79090 0.48945 0.58758
 H64 H 0.75757 0.47864 0.42169
 O65 O 0.23796 0.21995 0.23279
 O66 O 0.22831 0.27823 0.31481
 O67 O 0.20149 0.25714 0.24121
 O68 O 0.26478 0.24026 0.30512
 O69 O 0.28933 0.26825 0.25728
 O70 O 0.22570 0.28708 0.19629
 O71 O 0.25407 0.30599 0.26857
 O72 O 0.26109 0.24853 0.18390
 Cu73 Cu 0.23059 0.24616 0.27841
 Cu74 Cu 0.26006 0.28021 0.22157
 C75 C 0.25090 0.22447 0.19420
 C76 C 0.23985 0.30197 0.30603
 C77 C 0.20281 0.27501 0.20806
 C78 C 0.28785 0.25136 0.29189
 O79 O 0.74904 0.78213 0.25261
 O80 O 0.76463 0.72430 0.33280
 O81 O 0.79188 0.75378 0.27030
 O82 O 0.72125 0.75400 0.31784
 O83 O 0.70671 0.72410 0.26259
 O84 O 0.77813 0.72260 0.21660
 O85 O 0.74885 0.69434 0.27848
 O86 O 0.73626 0.75161 0.19705
 Cu87 Cu 0.75786 0.75660 0.29910
 Cu88 Cu 0.74081 0.72020 0.23317
 C89 C 0.74108 0.77653 0.21050
 C90 C 0.75949 0.69942 0.31896
 C91 C 0.79718 0.73818 0.23541
 C92 C 0.70196 0.73903 0.29867
 O93 O 0.79153 0.22889 0.25029
 O94 O 0.72910 0.21704 0.32437
 O95 O 0.75699 0.18725 0.26499
 O96 O 0.76441 0.25881 0.31035
 O97 O 0.74180 0.27354 0.24767
 O98 O 0.72868 0.20077 0.20895
 O99 O 0.70410 0.23454 0.26705
 O100 O 0.76492 0.23956 0.18969
 Cu101 Cu 0.76302 0.22161 0.29366
 Cu102 Cu 0.73204 0.23860 0.22268
 C103 C 0.78855 0.23503 0.20675
 C104 C 0.70606 0.22468 0.30862
 C105 C 0.74189 0.18178 0.22889
 C106 C 0.75490 0.27840 0.28618
 O107 O 0.26904 0.79219 0.20246
 O108 O 0.25838 0.71831 0.23528
 O109 O 0.23425 0.75224 0.17699
 O110 O 0.29323 0.75884 0.26018
 O111 O 0.26492 0.77023 0.31783
 O112 O 0.20581 0.76187 0.23543
 O113 O 0.23128 0.73018 0.29439
 O114 O 0.24026 0.80357 0.25913
 Cu115 Cu 0.26650 0.75421 0.21288
 Cu116 Cu 0.23261 0.76786 0.28221
 C117 C 0.25625 0.81050 0.22488
 C118 C 0.24368 0.71188 0.27138
 C119 C 0.20998 0.75588 0.19215
 C120 C 0.28901 0.76521 0.30329
 O121 O 0.77048 0.24104 0.66555
 O122 O 0.74915 0.18067 0.74033
 O123 O 0.72609 0.20757 0.67217
 O124 O 0.79342 0.21259 0.73231
 O125 O 0.77652 0.23982 0.78709
 O126 O 0.70975 0.23753 0.72323
 O127 O 0.73036 0.20897 0.79156
 O128 O 0.75472 0.26890 0.72040
 Cu129 Cu 0.76147 0.20769 0.69707
 Cu130 Cu 0.74121 0.24164 0.76102
 C131 C 0.76639 0.26542 0.68065
 C132 C 0.73576 0.18464 0.77835
 C133 C 0.70647 0.22175 0.68723
 C134 C 0.79647 0.22667 0.77025
 O135 O 0.29250 0.75701 0.77377
 O136 O 0.22062 0.75276 0.81819
 O137 O 0.25349 0.71899 0.77760
 O138 O 0.26046 0.79172 0.81691
 O139 O 0.24787 0.80590 0.74585
 O140 O 0.23749 0.73253 0.70838
 O141 O 0.20621 0.76886 0.74956
 O142 O 0.27764 0.77039 0.70360
 Cu143 Cu 0.25816 0.75396 0.80381
 Cu144 Cu 0.24056 0.77078 0.71995
 C145 C 0.29724 0.76384 0.73080
 C146 C 0.20117 0.76027 0.79146
 C147 C 0.24463 0.71329 0.73610
 C148 C 0.25596 0.81119 0.78798
 O149 O 0.19672 0.24802 0.75162
 O150 O 0.25500 0.23811 0.66925
 O151 O 0.22963 0.20838 0.73508
 O152 O 0.21912 0.27658 0.68250
 O153 O 0.24894 0.29644 0.73317
 O154 O 0.25841 0.22756 0.78796
 O155 O 0.28356 0.25764 0.72218
 O156 O 0.22589 0.26834 0.80276
 Cu157 Cu 0.22232 0.24080 0.70422
 Cu158 Cu 0.25714 0.26438 0.76671
 C159 C 0.20147 0.26009 0.79126
 C160 C 0.27932 0.24640 0.68192
 C161 C 0.24530 0.20620 0.77091
 C162 C 0.23202 0.29813 0.69877
 O163 O 0.74614 0.70365 0.71542
 O164 O 0.74817 0.76944 0.78099
 O165 O 0.71604 0.74661 0.71702
 O166 O 0.78108 0.72828 0.77652
 O167 O 0.80526 0.74648 0.71664
 O168 O 0.74098 0.76802 0.66116
 O169 O 0.77442 0.78932 0.72530
 O170 O 0.77003 0.72357 0.65670
 Cu171 Cu 0.74559 0.73479 0.75334
 Cu172 Cu 0.77515 0.75879 0.68417
 C173 C 0.75709 0.70249 0.67465
 C174 C 0.76143 0.79067 0.76448
 C175 C 0.71761 0.76106 0.67924
 C176 C 0.80421 0.73424 0.75646
 C177 C 0.27397 0.08602 0.05428
 C178 C 0.27397 0.10997 0.08263
 C179 C 0.29190 0.11261 0.12218
 C180 C 0.31018 0.09165 0.13169
 C181 C 0.31070 0.06824 0.10237
 C182 C 0.29270 0.06499 0.06295
 C183 C 0.29115 0.13605 0.15173
 C184 C 0.27302 0.15712 0.14162
 C185 C 0.25580 0.15496 0.10092
 C186 C 0.25619 0.13126 0.07200
 C187 C 0.23830 0.17646 0.09011
 C188 C 0.23743 0.19965 0.11987
 C189 C 0.25377 0.20141 0.16099
 C190 C 0.27162 0.18025 0.17174
 H191 H 0.25877 0.08359 0.02609
 H192 H 0.32428 0.09346 0.16162
 H193 H 0.32588 0.05309 0.11004
 H194 H 0.30460 0.13785 0.18258
 H195 H 0.24269 0.12941 0.04120
 H196 H 0.22511 0.17522 0.05894
 H197 H 0.22347 0.21588 0.11153
 H198 H 0.28423 0.18178 0.20363
 C199 C 0.76113 0.55500 0.55413
 C200 C 0.76506 0.58152 0.57446
 C201 C 0.79195 0.59140 0.58822
 C202 C 0.81436 0.57433 0.58209
 C203 C 0.81021 0.54782 0.56223
 C204 C 0.78370 0.53819 0.54750
 C205 C 0.79594 0.61802 0.60830
 C206 C 0.77328 0.63459 0.61589
 C207 C 0.74634 0.62445 0.60276
 C208 C 0.74248 0.59818 0.58154
 C209 C 0.72356 0.64052 0.61203
 C210 C 0.72732 0.66613 0.63501
 C211 C 0.75393 0.67641 0.64779
 C212 C 0.77695 0.66084 0.63762
 H213 H 0.74061 0.54740 0.54314
 H214 H 0.83508 0.58148 0.59263
 H215 H 0.82777 0.53500 0.55732
 H216 H 0.81656 0.62562 0.61875
 H217 H 0.72184 0.59051 0.57130
 H218 H 0.70279 0.63301 0.60243
 H219 H 0.70942 0.67797 0.64299
 H220 H 0.79745 0.66869 0.64825
 C221 C 0.72367 0.91059 0.05528
 C222 C 0.72269 0.88792 0.08652
 C223 C 0.70483 0.88777 0.12616
 C224 C 0.68730 0.90972 0.13253
 C225 C 0.68758 0.93172 0.10020
 C226 C 0.70584 0.93271 0.06096
 C227 C 0.70494 0.86580 0.15889
 C228 C 0.72212 0.84355 0.15159
 C229 C 0.73893 0.84307 0.11048
 C230 C 0.73947 0.86546 0.07870
 C231 C 0.75502 0.82019 0.10186
 C232 C 0.75482 0.79817 0.13401
 C233 C 0.73914 0.79903 0.17580
 C234 C 0.72279 0.82172 0.18461
 H235 H 0.73928 0.91133 0.02776
 H236 H 0.67316 0.90979 0.16236
 H237 H 0.67292 0.94767 0.10567
 H238 H 0.69164 0.86599 0.18989
 H239 H 0.75279 0.86530 0.04773
 H240 H 0.76780 0.81937 0.07035
 H241 H 0.76759 0.78077 0.12699
 H242 H 0.71051 0.82220 0.21677
 C243 C 0.22918 0.44483 0.57412
 C244 C 0.23392 0.42006 0.59848
 C245 C 0.26132 0.41366 0.61057
 C246 C 0.28350 0.43183 0.59718
 C247 C 0.27865 0.45590 0.57151
 C248 C 0.25156 0.46250 0.55983
 C249 C 0.26615 0.38900 0.63509
 C250 C 0.24406 0.37012 0.64616
 C251 C 0.21677 0.37616 0.63281
 C252 C 0.21182 0.40129 0.60986
 C253 C 0.19490 0.35668 0.64184
 C254 C 0.20003 0.33131 0.66329
 C255 C 0.22695 0.32532 0.67735
 C256 C 0.24889 0.34495 0.66929
 H257 H 0.20827 0.44995 0.56482
 H258 H 0.30462 0.42720 0.60589
 H259 H 0.29605 0.46946 0.56066
 H260 H 0.28713 0.38423 0.64461
 H261 H 0.19087 0.40595 0.59994
 H262 H 0.17390 0.36086 0.63162
 H263 H 0.18288 0.31638 0.66929
 H264 H 0.26976 0.34019 0.67948
 C265 C 0.92540 0.25299 0.05641
 C266 C 0.90328 0.25274 0.08839
 C267 C 0.90477 0.27006 0.12892
 C268 C 0.92821 0.28789 0.13600
 C269 C 0.94979 0.28879 0.10296
 C270 C 0.94863 0.27162 0.06219
 C271 C 0.88279 0.26933 0.16151
 C272 C 0.85898 0.25212 0.15308
 C273 C 0.85722 0.23552 0.11150
 C274 C 0.87956 0.23554 0.07998
 C275 C 0.83298 0.21936 0.10177
 C276 C 0.81059 0.21969 0.13283
 C277 C 0.81238 0.23551 0.17467
 C278 C 0.83666 0.25154 0.18504
 H279 H 0.92460 0.23818 0.02739
 H280 H 0.92968 0.30146 0.16675
 H281 H 0.96708 0.30357 0.10883
 H282 H 0.88405 0.28238 0.19295
 H283 H 0.87827 0.22258 0.04840
 H284 H 0.83124 0.20670 0.06995
 H285 H 0.79192 0.20719 0.12460
 H286 H 0.83784 0.26399 0.21718
 C287 C 0.43867 0.77192 0.58990
 C288 C 0.41318 0.77499 0.61277
 C289 C 0.39618 0.79663 0.59887
 C290 C 0.40560 0.81563 0.56409
 C291 C 0.43130 0.81287 0.54246
 C292 C 0.44769 0.79050 0.55392
 C293 C 0.37006 0.79887 0.61983
 C294 C 0.36095 0.78013 0.65532
 C295 C 0.37851 0.75932 0.67082
 C296 C 0.40437 0.75667 0.64908
 C297 C 0.36981 0.74133 0.70762
 C298 C 0.34372 0.74353 0.72823
 C299 C 0.32566 0.76335 0.71175
 C300 C 0.33448 0.78174 0.67543
 H301 H 0.45123 0.75474 0.59940
 H302 H 0.39307 0.83262 0.55356
 H303 H 0.43820 0.82798 0.51601
 H304 H 0.35681 0.81514 0.60846
 H305 H 0.41758 0.74035 0.66033
 H306 H 0.38308 0.72541 0.72021
 H307 H 0.33727 0.72910 0.75604
 H308 H 0.32074 0.79729 0.66290
 C309 C 0.06955 0.73543 0.04965
 C310 C 0.09304 0.73555 0.07914
 C311 C 0.09214 0.72013 0.12180
 C312 C 0.06833 0.70382 0.13308
 C313 C 0.04545 0.70297 0.10277
 C314 C 0.04538 0.71889 0.06060
 C315 C 0.11499 0.72131 0.15265
 C316 C 0.13911 0.73713 0.14074
 C317 C 0.14059 0.75146 0.09690
 C318 C 0.11740 0.75096 0.06674
 C319 C 0.16527 0.76609 0.08406
 C320 C 0.18813 0.76682 0.11463
 C321 C 0.18639 0.75361 0.15900
 C322 C 0.16185 0.73876 0.17192
 H323 H 0.06992 0.74913 0.01920
 H324 H 0.06746 0.69148 0.16526
 H325 H 0.02799 0.68913 0.11219
 H326 H 0.11401 0.70988 0.18584
 H327 H 0.11836 0.76238 0.03354
 H328 H 0.16690 0.77697 0.05043
 H329 H 0.20695 0.77836 0.10422
 H330 H 0.16063 0.72824 0.20595
 C331 C 0.56175 0.23495 0.56193
 C332 C 0.58725 0.23690 0.58579
 C333 C 0.59805 0.26313 0.60187
 C334 C 0.58348 0.28702 0.59266
 C335 C 0.55866 0.28498 0.56717
 C336 C 0.54783 0.25902 0.55144
 C337 C 0.62330 0.26508 0.62649
 C338 C 0.63836 0.24130 0.63376
 C339 C 0.62803 0.21526 0.61611
 C340 C 0.60231 0.21314 0.59300
 C341 C 0.64377 0.19178 0.62145
 C342 C 0.66950 0.19406 0.64405
 C343 C 0.67956 0.21966 0.66276
 C344 C 0.66384 0.24321 0.65779
 H345 H 0.55297 0.21485 0.55070
 H346 H 0.59147 0.30728 0.60457
 H347 H 0.54784 0.30364 0.55962
 H348 H 0.63142 0.28513 0.63932
 H349 H 0.59426 0.19312 0.57991
 H350 H 0.63627 0.17172 0.60785
 H351 H 0.68139 0.17570 0.64769
 H352 H 0.67176 0.26308 0.67165
 C353 C 0.70788 0.04951 0.93249
 C354 C 0.71693 0.07228 0.90452
 C355 C 0.74466 0.07441 0.88836
 C356 C 0.76303 0.05420 0.90168
 C357 C 0.75402 0.03206 0.93066
 C358 C 0.72646 0.02957 0.94633
 C359 C 0.75353 0.09660 0.85901
 C360 C 0.73526 0.11715 0.84674
 C361 C 0.70784 0.11559 0.86442
 C362 C 0.69872 0.09293 0.89254
 C363 C 0.69005 0.13688 0.85396
 C364 C 0.69933 0.15952 0.82630
 C365 C 0.72623 0.16079 0.80755
 C366 C 0.74409 0.13948 0.81757
 H367 H 0.68633 0.04703 0.94258
 H368 H 0.78435 0.05552 0.88975
 H369 H 0.76852 0.01663 0.94061
 H370 H 0.77468 0.09801 0.84608
 H371 H 0.67759 0.09155 0.90554
 H372 H 0.66905 0.13615 0.86750
 H373 H 0.68536 0.17588 0.81887
 H374 H 0.76502 0.14071 0.80366
 C375 C 0.24190 0.57124 0.41425
 C376 C 0.24562 0.59754 0.39288
 C377 C 0.26045 0.61923 0.41743
 C378 C 0.27241 0.61398 0.46163
 C379 C 0.26912 0.58769 0.48207
 C380 C 0.25307 0.56638 0.45948
 C381 C 0.26302 0.64588 0.39761
 C382 C 0.25139 0.65111 0.35313
 C383 C 0.23760 0.62927 0.32741
 C384 C 0.23456 0.60263 0.34768
 C385 C 0.22693 0.63461 0.28202
 C386 C 0.22951 0.66144 0.26277
 C387 C 0.24226 0.68324 0.28911
 C388 C 0.25327 0.67798 0.33406
 H389 H 0.22985 0.55476 0.39630
 H390 H 0.28423 0.63023 0.48050
 H391 H 0.27870 0.58409 0.51616
 H392 H 0.27398 0.66259 0.41690
 H393 H 0.22353 0.58596 0.32845
 H394 H 0.21649 0.61811 0.26160
 H395 H 0.22096 0.66534 0.22796
 H396 H 0.26335 0.69489 0.35409
 C397 C 0.27813 0.95582 0.91798
 C398 C 0.26996 0.92970 0.89870
 C399 C 0.25199 0.91133 0.92481
 C400 C 0.24113 0.91999 0.96814
 C401 C 0.24886 0.94614 0.98647
 C402 C 0.26829 0.96379 0.96269
 C403 C 0.24540 0.88449 0.90757
 C404 C 0.25607 0.87588 0.86403
 C405 C 0.27274 0.89470 0.83651
 C406 C 0.27984 0.92141 0.85426
 C407 C 0.28229 0.88631 0.79193
 C408 C 0.27593 0.85934 0.77533
 C409 C 0.26055 0.84021 0.80357
 C410 C 0.25050 0.84861 0.84773
 H411 H 0.29282 0.96949 0.89911
 H412 H 0.22692 0.90640 0.98816
 H413 H 0.24029 0.95231 1.02017
 H414 H 0.23217 0.87023 0.92824
 H415 H 0.29321 0.93560 0.83374
 H416 H 0.29486 0.90051 0.77012
 H417 H 0.28382 0.85309 0.74115
 H418 H 0.23832 0.83391 0.86928
 C419 C 0.77115 0.42175 0.42123
 C420 C 0.76446 0.39546 0.40155
 C421 C 0.74607 0.37666 0.42586
 C422 C 0.73354 0.38506 0.46806
 C423 C 0.73970 0.41159 0.48662
 C424 C 0.75933 0.42973 0.46441
 C425 C 0.74053 0.34981 0.40764
 C426 C 0.75260 0.34177 0.36479
 C427 C 0.76991 0.36104 0.33927
 C428 C 0.77600 0.38764 0.35812
 C429 C 0.78097 0.35328 0.29541
 C430 C 0.77532 0.32653 0.27736
 C431 C 0.75910 0.30705 0.30341
 C432 C 0.74769 0.31471 0.34700
 H433 H 0.78591 0.43587 0.40342
 H434 H 0.71902 0.37113 0.48672
 H435 H 0.72962 0.41772 0.51905
 H436 H 0.72686 0.33521 0.42678
 H437 H 0.78973 0.40222 0.33905
 H438 H 0.79407 0.36785 0.27521
 H439 H 0.78424 0.32075 0.24369
 H440 H 0.73494 0.29962 0.36682
 C441 C 0.06572 0.26996 0.94478
 C442 C 0.08759 0.26478 0.91391
 C443 C 0.08355 0.24528 0.87670
 C444 C 0.05778 0.23103 0.87144
 C445 C 0.03617 0.23610 0.90259
 C446 C 0.03975 0.25554 0.94002
 C447 C 0.10521 0.24054 0.84509
 C448 C 0.13094 0.25500 0.85041
 C449 C 0.13508 0.27423 0.88812
 C450 C 0.11336 0.27909 0.91947
 C451 C 0.16091 0.28834 0.89384
 C452 C 0.18245 0.28356 0.86242
 C453 C 0.17851 0.26477 0.82443
 C454 C 0.15262 0.25054 0.81863
 H455 H 0.06868 0.28633 0.97091
 H456 H 0.05434 0.21588 0.84325
 H457 H 0.01679 0.22411 0.89797
 H458 H 0.10203 0.22569 0.81633
 H459 H 0.11652 0.29397 0.94820
 H460 H 0.16445 0.30308 0.92260
 H461 H 0.20218 0.29482 0.86764
 H462 H 0.14942 0.23585 0.78968
 C463 C 0.56236 0.75899 0.43738
 C464 C 0.58765 0.75977 0.41265
 C465 C 0.60398 0.78498 0.41030
 C466 C 0.59424 0.80917 0.43076
 C467 C 0.56869 0.80838 0.45376
 C468 C 0.55306 0.78322 0.45853
 C469 C 0.62967 0.78572 0.38719
 C470 C 0.63896 0.76179 0.36515
 C471 C 0.62215 0.73688 0.36559
 C472 C 0.59677 0.73592 0.38991
 C473 C 0.63112 0.71335 0.34175
 C474 C 0.65670 0.71435 0.31846
 C475 C 0.67395 0.73869 0.31948
 C476 C 0.66486 0.76241 0.34267
 H477 H 0.54983 0.73974 0.43993
 H478 H 0.60626 0.82873 0.42860
 H479 H 0.56125 0.82736 0.46868
 H480 H 0.64234 0.80495 0.38614
 H481 H 0.58408 0.71669 0.39094
 H482 H 0.61845 0.69414 0.34137
 H483 H 0.66340 0.69581 0.30093
 H484 H 0.67797 0.78136 0.34314
 C485 C 0.94084 0.72202 0.90823
 C486 C 0.91515 0.72655 0.88645
 C487 C 0.89564 0.74254 0.91018
 C488 C 0.90250 0.75478 0.95392
 C489 C 0.92791 0.75027 0.97516
 C490 C 0.94696 0.73274 0.95403
 C491 C 0.86953 0.74609 0.88996
 C492 C 0.86267 0.73426 0.84574
 C493 C 0.88239 0.71900 0.82106
 C494 C 0.90840 0.71499 0.84177
 C495 C 0.87582 0.70829 0.77580
 C496 C 0.85016 0.71298 0.75503
 C497 C 0.83033 0.72762 0.77978
 C498 C 0.83656 0.73797 0.82534
 H499 H 0.95516 0.70873 0.89077
 H500 H 0.88813 0.76774 0.97198
 H501 H 0.93264 0.76063 1.00856
 H502 H 0.85458 0.75815 0.90859
 H503 H 0.92335 0.70297 0.82311
 H504 H 0.89070 0.69673 0.75614
 H505 H 0.84571 0.70515 0.71959
 H506 H 0.82147 0.74984 0.84401
 C507 C 0.42838 0.24399 0.43206
 C508 C 0.40431 0.24948 0.40664
 C509 C 0.39874 0.27727 0.39515
 C510 C 0.41687 0.29910 0.41056
 C511 C 0.44025 0.29346 0.43729
 C512 C 0.44605 0.26597 0.44817
 C513 C 0.37510 0.28281 0.36870
 C514 C 0.35646 0.26104 0.35496
 C515 C 0.36144 0.23336 0.36803
 C516 C 0.38559 0.22770 0.39310
 C517 C 0.34198 0.21185 0.35619
 C518 C 0.31780 0.21773 0.33173
 C519 C 0.31319 0.24504 0.31758
 C520 C 0.33264 0.26659 0.32898
 H521 H 0.43319 0.22274 0.44005
 H522 H 0.41286 0.32049 0.40225
 H523 H 0.45400 0.31052 0.44927
 H524 H 0.37102 0.30408 0.35936
 H525 H 0.38960 0.20645 0.40265
 H526 H 0.34533 0.19056 0.36624
 H527 H 0.30287 0.20093 0.32319
 H528 H 0.32880 0.28776 0.31873
 C529 C 0.73708 0.92225 0.92420
 C530 C 0.73774 0.89725 0.89868
 C531 C 0.71585 0.87688 0.90371
 C532 C 0.69339 0.88216 0.93333
 C533 C 0.69261 0.90738 0.95781
 C534 C 0.71460 0.92747 0.95405
 C535 C 0.71666 0.85168 0.87882
 C536 C 0.73880 0.84683 0.84820
 C537 C 0.76038 0.86745 0.84232
 C538 C 0.75987 0.89241 0.86801
 C539 C 0.78203 0.86279 0.81056
 C540 C 0.78230 0.83793 0.78482
 C541 C 0.76122 0.81713 0.79110
 C542 C 0.73955 0.82174 0.82299
 H543 H 0.75414 0.93763 0.92110
 H544 H 0.67633 0.86687 0.93728
 H545 H 0.67491 0.91118 0.97999
 H546 H 0.69997 0.83597 0.88294
 H547 H 0.77653 0.90816 0.86380
 H548 H 0.79866 0.87842 0.80545
 H549 H 0.79919 0.83481 0.76046
 H550 H 0.72299 0.80595 0.82763
 C551 C 0.24027 0.44065 0.45577
 C552 C 0.24469 0.41706 0.42814
 C553 C 0.26817 0.41672 0.39831
 C554 C 0.28722 0.43967 0.39777
 C555 C 0.28283 0.46294 0.42598
 C556 C 0.25930 0.46367 0.45505
 C557 C 0.27199 0.39365 0.36901
 C558 C 0.25271 0.37087 0.36941
 C559 C 0.22970 0.37085 0.40036
 C560 C 0.22577 0.39400 0.42941
 C561 C 0.21084 0.34775 0.40137
 C562 C 0.21444 0.32508 0.37135
 C563 C 0.23675 0.32528 0.33944
 C564 C 0.25596 0.34819 0.33897
 H565 H 0.22162 0.44141 0.47691
 H566 H 0.30539 0.43972 0.37527
 H567 H 0.29773 0.48050 0.42493
 H568 H 0.28978 0.39355 0.34559
 H569 H 0.20792 0.39416 0.45270
 H570 H 0.19319 0.34732 0.42508
 H571 H 0.19941 0.30763 0.37235
 H572 H 0.27345 0.34837 0.31490
 C573 C 0.26854 0.07013 0.91993
 C574 C 0.26920 0.09547 0.89521
 C575 C 0.28966 0.11649 0.90618
 C576 C 0.30978 0.11138 0.94046
 C577 C 0.30905 0.08612 0.96488
 C578 C 0.28787 0.06542 0.95633
 C579 C 0.28947 0.14236 0.88315
 C580 C 0.26902 0.14745 0.84922
 C581 C 0.24902 0.12608 0.83743
 C582 C 0.24921 0.10030 0.86049
 C583 C 0.22886 0.13092 0.80311
 C584 C 0.22816 0.15681 0.78113
 C585 C 0.24747 0.17852 0.79321
 C586 C 0.26803 0.17362 0.82720
 H587 H 0.25179 0.05491 0.91273
 H588 H 0.32595 0.12704 0.94878
 H589 H 0.32513 0.08285 0.99080
 H590 H 0.30498 0.15860 0.89206
 H591 H 0.23358 0.08413 0.85181
 H592 H 0.21346 0.11475 0.79352
 H593 H 0.21207 0.15995 0.75517
 H594 H 0.28312 0.19012 0.83663
 C595 C 0.78133 0.55617 0.44505
 C596 C 0.77343 0.58010 0.42128
 C597 C 0.74821 0.57942 0.39572
 C598 C 0.73091 0.55521 0.39579
 C599 C 0.73820 0.53204 0.42180
 C600 C 0.76336 0.53228 0.44698
 C601 C 0.74053 0.60300 0.37087
 C602 C 0.75728 0.62759 0.37258
 C603 C 0.78186 0.62876 0.39998
 C604 C 0.79003 0.60484 0.42353
 C605 C 0.79786 0.65384 0.40312
 C606 C 0.78994 0.67733 0.37834
 C607 C 0.76625 0.67588 0.34940
 C608 C 0.74985 0.65103 0.34709
 H609 H 0.80118 0.55639 0.46296
 H610 H 0.71140 0.55441 0.37670
 H611 H 0.72385 0.51405 0.42294
 H612 H 0.72143 0.60229 0.35054
 H613 H 0.80908 0.60557 0.44402
 H614 H 0.81661 0.65521 0.42431
 H615 H 0.80287 0.69634 0.38037
 H616 H 0.73135 0.64994 0.32519
 C617 C 0.05640 0.73915 0.92016
 C618 C 0.08251 0.73826 0.89840
 C619 C 0.10005 0.71658 0.90985
 C620 C 0.09063 0.69541 0.94085
 C621 C 0.06454 0.69628 0.96187
 C622 C 0.04765 0.71865 0.95319
 C623 C 0.12685 0.71660 0.89071
 C624 C 0.13622 0.73780 0.85965
 C625 C 0.11825 0.75878 0.84647
 C626 C 0.09160 0.75901 0.86623
 C627 C 0.12734 0.77933 0.81399
 C628 C 0.15412 0.77936 0.79528
 C629 C 0.17246 0.75925 0.80952
 C630 C 0.16335 0.73843 0.84164
 H631 H 0.04340 0.75637 0.91300
 H632 H 0.10363 0.67843 0.94950
 H633 H 0.05793 0.67999 0.98646
 H634 H 0.14046 0.70026 0.90029
 H635 H 0.07805 0.77544 0.85689
 H636 H 0.11379 0.79544 0.80320
 H637 H 0.16076 0.79557 0.77056
 H638 H 0.17731 0.72262 0.85226
 C639 C 0.56570 0.23739 0.44737
 C640 C 0.59005 0.23899 0.42028
 C641 C 0.59517 0.26177 0.38928
 C642 C 0.57632 0.28291 0.38702
 C643 C 0.55259 0.28153 0.41521
 C644 C 0.54712 0.25885 0.44561
 C645 C 0.61893 0.26299 0.36086
 C646 C 0.63799 0.24208 0.36380
 C647 C 0.63348 0.21982 0.39606
 C648 C 0.60933 0.21823 0.42370
 C649 C 0.65329 0.19961 0.40012
 C650 C 0.67722 0.20132 0.37218
 C651 C 0.68131 0.22288 0.33904
 C652 C 0.66163 0.24320 0.33508
 H653 H 0.56101 0.21927 0.46913
 H654 H 0.57998 0.30055 0.36359
 H655 H 0.53836 0.29818 0.41324
 H656 H 0.62263 0.28026 0.33658
 H657 H 0.60564 0.20099 0.44803
 H658 H 0.65030 0.18254 0.42493
 H659 H 0.69227 0.18553 0.37577
 H660 H 0.66499 0.26017 0.31011
 C661 C 0.93404 0.24854 0.91983
 C662 C 0.90827 0.24854 0.89724
 C663 C 0.88904 0.26831 0.91025
 C664 C 0.89624 0.28809 0.94532
 C665 C 0.92211 0.28804 0.96769
 C666 C 0.94125 0.26796 0.95588
 C667 C 0.86297 0.26787 0.88803
 C668 C 0.85608 0.24793 0.85288
 C669 C 0.87559 0.22837 0.83977
 C670 C 0.90146 0.22875 0.86211
 C671 C 0.86898 0.20869 0.80440
 C672 C 0.84326 0.20832 0.78199
 C673 C 0.82355 0.22747 0.79474
 C674 C 0.83006 0.24723 0.83045
 H675 H 0.94801 0.23244 0.91070
 H676 H 0.88189 0.30362 0.95546
 H677 H 0.92721 0.30392 0.99400
 H678 H 0.84812 0.28296 0.89808
 H679 H 0.91631 0.21362 0.85211
 H680 H 0.88372 0.19360 0.79397
 H681 H 0.83875 0.19282 0.75476
 H682 H 0.81507 0.26219 0.84038
 C683 C 0.42734 0.77377 0.45297
 C684 C 0.40446 0.77600 0.42265
 C685 C 0.40648 0.79397 0.38299
 C686 C 0.43083 0.81042 0.37574
 C687 C 0.45303 0.80899 0.40727
 C688 C 0.45170 0.79052 0.44599
 C689 C 0.38417 0.79521 0.35123
 C690 C 0.35946 0.77946 0.35959
 C691 C 0.35691 0.76268 0.40076
 C692 C 0.37958 0.76066 0.43153
 C693 C 0.33168 0.74818 0.41046
 C694 C 0.30932 0.74993 0.37932
 C695 C 0.31209 0.76550 0.33736
 C696 C 0.33718 0.78027 0.32757
 H697 H 0.42616 0.75900 0.48199
 H698 H 0.43263 0.82456 0.34586
 H699 H 0.47139 0.82233 0.40126
 H700 H 0.38597 0.80855 0.32025
 H701 H 0.37779 0.74735 0.46255
 H702 H 0.32925 0.73547 0.44205
 H703 H 0.29006 0.73843 0.38725
 H704 H 0.33919 0.79253 0.29537
 C705 C 0.27887 0.95661 0.09982
 C706 C 0.27961 0.92995 0.11982
 C707 C 0.29601 0.90985 0.09845
 C708 C 0.31189 0.91696 0.05824
 C709 C 0.31070 0.94338 0.03821
 C710 C 0.29374 0.96313 0.05816
 C711 C 0.29566 0.88277 0.11673
 C712 C 0.27878 0.87533 0.15562
 C713 C 0.26277 0.89551 0.17754
 C714 C 0.26345 0.92276 0.15974
 C715 C 0.24584 0.88791 0.21626
 C716 C 0.24418 0.86041 0.23232
 C717 C 0.25950 0.84002 0.21008
 C718 C 0.27713 0.84782 0.17215
 H719 H 0.26563 0.97180 0.11507
 H720 H 0.32463 0.90186 0.04152
 H721 H 0.32237 0.94819 0.00619
 H722 H 0.30798 0.86730 0.09994
 H723 H 0.25087 0.93813 0.17616
 H724 H 0.23348 0.90311 0.23360
 H725 H 0.23050 0.85503 0.26168
 H726 H 0.28914 0.83236 0.15470
 C727 C 0.78946 0.41122 0.55460
 C728 C 0.78551 0.38765 0.58369
 C729 C 0.77117 0.38987 0.62721
 C730 C 0.76114 0.41541 0.64099
 C731 C 0.76399 0.43830 0.61092
 C732 C 0.77758 0.43634 0.56703
 C733 C 0.76617 0.36636 0.65560
 C734 C 0.77440 0.34035 0.64041
 C735 C 0.78865 0.33787 0.59695
 C736 C 0.79453 0.36166 0.56912
 C737 C 0.79619 0.31151 0.58173
 C738 C 0.78921 0.28784 0.60894
 C739 C 0.77482 0.29019 0.65201
 C740 C 0.76783 0.31666 0.66765
 H741 H 0.80039 0.40966 0.52119
 H742 H 0.75010 0.41741 0.67420
 H743 H 0.75461 0.45735 0.62124
 H744 H 0.75506 0.36815 0.68885
 H745 H 0.80527 0.35981 0.53555
 H746 H 0.80711 0.30915 0.54850
 H747 H 0.79492 0.26770 0.59613
 H748 H 0.75667 0.31886 0.70073
 C749 C 0.72738 0.04292 0.07931
 C750 C 0.72538 0.06802 0.10417
 C751 C 0.70275 0.08486 0.09547
 C752 C 0.68195 0.07569 0.06350
 C753 C 0.68369 0.05022 0.04011
 C754 C 0.70677 0.03414 0.04675
 C755 C 0.70116 0.11040 0.11918
 C756 C 0.72160 0.11903 0.15224
 C757 C 0.74360 0.10163 0.16225
 C758 C 0.74550 0.07640 0.13784
 C759 C 0.76353 0.10988 0.19628
 C760 C 0.76216 0.13545 0.21932
 C761 C 0.74103 0.15344 0.20839
 C762 C 0.72058 0.14493 0.17512
 H763 H 0.74479 0.03002 0.08548
 H764 H 0.66417 0.08801 0.05712
 H765 H 0.66692 0.04297 0.01701
 H766 H 0.68405 0.12350 0.11195
 H767 H 0.76262 0.06329 0.14504
 H768 H 0.78041 0.09672 0.20463
 H769 H 0.77826 0.14156 0.24459
 H770 H 0.70411 0.15857 0.16660
 C771 C 0.24231 0.56957 0.60130
 C772 C 0.23730 0.59518 0.62265
 C773 C 0.21951 0.61360 0.60021
 C774 C 0.20587 0.60540 0.55811
 C775 C 0.21089 0.57982 0.53720
 C776 C 0.22992 0.56219 0.55764
 C777 C 0.21628 0.64015 0.61947
 C778 C 0.23065 0.64851 0.66086
 C779 C 0.24742 0.62956 0.68438
 C780 C 0.25063 0.60305 0.66516
 C781 C 0.26132 0.63768 0.72618
 C782 C 0.25947 0.66463 0.74371
 C783 C 0.24387 0.68408 0.71960
 C784 C 0.22909 0.67571 0.67851
 H785 H 0.25697 0.55604 0.61730
 H786 H 0.19189 0.61907 0.54071
 H787 H 0.20074 0.57422 0.50396
 H788 H 0.20315 0.65451 0.60165
 H789 H 0.26404 0.58881 0.68265
 H790 H 0.27410 0.62337 0.74483
 H791 H 0.27107 0.67051 0.77542
 H792 H 0.21682 0.69047 0.65986
 C793 C 0.93806 0.73066 0.09532
 C794 C 0.91211 0.72750 0.11740
 C795 C 0.89191 0.70797 0.09929
 C796 C 0.89828 0.69148 0.06008
 C797 C 0.92411 0.69488 0.03816
 C798 C 0.94393 0.71488 0.05492
 C799 C 0.86555 0.70559 0.12009
 C800 C 0.85905 0.72264 0.15853
 C801 C 0.87941 0.74182 0.17710
 C802 C 0.90583 0.74405 0.15656
 C803 C 0.87289 0.75880 0.21552
 C804 C 0.84630 0.75722 0.23484
 C805 C 0.82568 0.73863 0.21617
 C806 C 0.83235 0.72115 0.17822
 H807 H 0.95331 0.74615 0.10829
 H808 H 0.88313 0.67631 0.04589
 H809 H 0.92847 0.68233 0.00736
 H810 H 0.84999 0.69081 0.10588
 H811 H 0.92132 0.75899 0.17051
 H812 H 0.88826 0.77355 0.23027
 H813 H 0.84179 0.77090 0.26410
 H814 H 0.81669 0.70667 0.16354
 C815 C 0.42255 0.24547 0.54807
 C816 C 0.39835 0.24954 0.57407
 C817 C 0.39805 0.27138 0.60769
 C818 C 0.42166 0.28913 0.61390
 C819 C 0.44537 0.28536 0.58697
 C820 C 0.44601 0.26362 0.55378
 C821 C 0.37427 0.27507 0.63480
 C822 C 0.35061 0.25743 0.62834
 C823 C 0.35049 0.23611 0.59377
 C824 C 0.37447 0.23215 0.56703
 C825 C 0.32639 0.21904 0.58686
 C826 C 0.30284 0.22273 0.61463
 C827 C 0.30320 0.24329 0.65008
 C828 C 0.32710 0.26074 0.65632
 H829 H 0.42324 0.22805 0.52386
 H830 H 0.42173 0.30601 0.63942
 H831 H 0.46328 0.29952 0.59187
 H832 H 0.37420 0.29160 0.66103
 H833 H 0.37456 0.21561 0.54082
 H834 H 0.32584 0.20271 0.56029
 H835 H 0.28461 0.20908 0.60921
 H836 H 0.32745 0.27694 0.68315
 C837 C 0.06291 0.28307 0.06609
 C838 C 0.08734 0.27743 0.09042
 C839 C 0.09485 0.24956 0.09580
 C840 C 0.07836 0.22793 0.07533
 C841 C 0.05461 0.23383 0.04984
 C842 C 0.04673 0.26133 0.04525
 C843 C 0.11874 0.24374 0.12137
 C844 C 0.13574 0.26546 0.14029
 C845 C 0.12892 0.29339 0.13317
 C846 C 0.10450 0.29919 0.10895
 C847 C 0.14680 0.31505 0.15011
 C848 C 0.17117 0.30907 0.17397
 C849 C 0.17749 0.28141 0.18243
 C850 C 0.15970 0.25967 0.16573
 H851 H 0.05674 0.30430 0.06234
 H852 H 0.08390 0.20650 0.07887
 H853 H 0.04209 0.21691 0.03414
 H854 H 0.12426 0.22235 0.12609
 H855 H 0.09904 0.32058 0.10408
 H856 H 0.14205 0.33657 0.14461
 H857 H 0.18484 0.32602 0.18661
 H858 H 0.16491 0.23829 0.17162
 C859 C 0.57217 0.78930 0.56496
 C860 C 0.59570 0.78089 0.58927
 C861 C 0.59458 0.75539 0.61422
 C862 C 0.56998 0.73865 0.61394
 C863 C 0.54699 0.74673 0.58811
 C864 C 0.54804 0.77186 0.56277
 C865 C 0.61814 0.74692 0.63848
 C866 C 0.64305 0.76322 0.63684
 C867 C 0.64424 0.78842 0.61093
 C868 C 0.62047 0.79731 0.58804
 C869 C 0.66933 0.80417 0.60775
 C870 C 0.69311 0.79502 0.62971
 C871 C 0.69216 0.77027 0.65616
 C872 C 0.66695 0.75453 0.65995
 H873 H 0.57274 0.80930 0.54748
 H874 H 0.56870 0.71905 0.63286
 H875 H 0.52847 0.73311 0.58720
 H876 H 0.61723 0.72744 0.65785
 H877 H 0.62142 0.81670 0.56835
 H878 H 0.67063 0.82345 0.58787
 H879 H 0.71227 0.80753 0.62650
 H880 H 0.66612 0.73525 0.67989
   
