data_POSCAR
  _audit_creation_date              2014-09-24
  _audit_creation_method            'ToBaCCo'
  _symmetry_space_group_name_H-M    'P1'
  _symmetry_Int_Tables_number       1
  _symmetry_cell_setting            triclinic
  loop_
  _symmetry_equiv_pos_as_xyz
 x,y,z
_cell_length_a 37.8430
_cell_length_b 37.8526
_cell_length_c 37.9480
_cell_angle_alpha 89.999200
_cell_angle_beta 90.124300
_cell_angle_gamma 89.874900
loop_
  _atom_site_label
  _atom_site_type_symbol
  _atom_site_fract_x
  _atom_site_fract_y
  _atom_site_fract_z
C1 C 0.32231 0.36592 1.36676
 N2 N 0.33529 0.38197 1.33755
 C3 C 0.36450 0.36882 1.32148
 N4 N 0.38056 0.33946 1.33446
 C5 C 0.36758 0.32341 1.36365
 N6 N 0.33838 0.33658 1.37972
 C7 C 1.17741 0.63631 0.87019
 N8 N 1.16141 0.66563 0.88324
 C9 C 1.13199 0.67870 0.86734
 N10 N 1.11875 0.66261 0.83823
 C11 C 1.13475 0.63329 0.82517
 N12 N 1.16415 0.62023 0.84108
 C13 C 0.67664 -0.13604 0.12990
 N14 N 0.66348 -0.12001 0.15906
 C15 C 0.63422 -0.13308 0.17495
 N16 N 0.61825 -0.16235 0.16184
 C17 C 0.63139 -0.17839 0.13268
 N18 N 0.66068 -0.16530 0.11679
 C19 C -0.17799 1.13440 -0.36751
 N20 N -0.16494 1.11842 -0.33821
 C21 C -0.13571 1.13151 -0.32212
 N22 N -0.11967 1.16073 -0.33519
 C23 C -0.13271 1.17671 -0.36448
 N24 N -0.16194 1.16361 -0.38057
 C25 C 0.67652 0.63619 0.63054
 N26 N 0.66057 0.66551 0.61738
 C27 C 0.63127 0.67874 0.63322
 N28 N 0.61808 0.66279 0.66238
 C29 C 0.63403 0.63347 0.67554
 N30 N 0.66332 0.62025 0.65970
 C31 C 0.82226 0.36549 0.13319
 N32 N 0.83830 0.33622 0.12008
 C33 C 0.86755 0.32297 0.13611
 N34 N 0.88062 0.33886 0.16541
 C35 C 0.86459 0.36814 0.17854
 N36 N 0.83534 0.38137 0.16249
 C37 C 0.32176 0.13355 0.86664
 N38 N 0.33475 0.11761 0.83735
 C39 C 0.36392 0.13077 0.82131
 N40 N 0.37994 0.16001 0.83442
 C41 C 0.36695 0.17595 0.86370
 N42 N 0.33779 0.16279 0.87973
 C43 C 0.17785 0.86426 0.37003
 N44 N 0.16457 0.88024 0.34084
 C45 C 0.13522 0.86717 0.32497
 N46 N 0.11927 0.83796 0.33815
 C47 C 0.13252 0.82197 0.36735
 N48 N 0.16189 0.83505 0.38321
 Zn49 Zn 0.00699 1.04417 -0.01936
 Zn50 Zn -0.02714 0.97305 -0.02642
 Zn51 Zn 0.04382 0.98007 0.00818
 Zn52 Zn -0.02049 1.00746 0.04448
 O53 O 0.00075 1.00115 0.00167
 O54 O -0.01542 1.04734 -0.06071
 O55 O -0.00518 0.93309 -0.03982
 O56 O 0.07977 1.00605 -0.00814
 O57 O -0.04071 0.99485 -0.06633
 O58 O 0.05238 1.05363 -0.02864
 O59 O 0.04713 0.93859 -0.01400
 O60 O 0.00552 0.99113 0.08050
 O61 O -0.06710 0.95947 -0.00485
 O62 O 0.05333 0.97089 0.05352
 O63 O -0.06189 0.98510 0.04745
 O64 O -0.02985 1.05287 0.05398
 O65 O -0.00936 1.08019 0.00661
 C66 C -0.03431 1.02566 -0.07778
 C67 C 0.02560 0.92155 -0.03308
 C68 C 0.08032 1.03594 -0.02316
 C69 C 0.03555 0.97629 0.08127
 C70 C -0.07877 0.96604 0.02577
 C71 C -0.02435 1.08081 0.03644
 Zn72 Zn 0.54359 -0.01988 0.49147
 Zn73 Zn 0.47266 -0.02692 0.52584
 Zn74 Zn 0.50676 0.04419 0.51891
 Zn75 Zn 0.47921 0.00749 0.45497
 O76 O 0.50051 0.00118 0.49784
 O77 O 0.54695 -0.06133 0.51371
 O78 O 0.45912 -0.00513 0.56569
 O79 O 0.55217 0.05369 0.52828
 O80 O 0.49465 -0.06685 0.53933
 O81 O 0.57956 0.00615 0.50783
 O82 O 0.48441 0.04736 0.56020
 O83 O 0.46986 0.05290 0.44543
 O84 O 0.43268 -0.04053 0.50413
 O85 O 0.49038 0.08020 0.49289
 O86 O 0.43780 -0.01488 0.45186
 O87 O 0.50517 -0.00886 0.41904
 O88 O 0.55302 -0.02911 0.44617
 C89 C 0.52543 -0.07837 0.53272
 C90 C 0.46552 0.02566 0.57718
 C91 C 0.58012 0.03605 0.52283
 C92 C 0.47538 0.08083 0.46301
 C93 C 0.42096 -0.03396 0.47348
 C94 C 0.53520 -0.02372 0.41836
 Zn95 Zn 1.00728 0.45521 0.48124
 Zn96 Zn 1.04392 0.51922 0.50886
 Zn97 Zn 0.97294 0.52637 0.47421
 Zn98 Zn 0.97968 0.49192 0.54511
 O99 O 1.00091 0.49822 0.50231
 O100 O 1.05271 0.44569 0.47199
 O101 O 1.04711 0.56069 0.48670
 O102 O 0.95944 0.50461 0.43429
 O103 O 1.07995 0.49321 0.49254
 O104 O 0.98491 0.45209 0.43988
 O105 O 0.99480 0.56630 0.46084
 O106 O 0.93821 0.51435 0.54807
 O107 O 1.05337 0.52840 0.55421
 O108 O 0.93294 0.54001 0.49579
 O109 O 1.00561 0.50821 0.58116
 O110 O 0.97041 0.44651 0.55456
 O111 O 0.99100 0.41921 0.50717
 C112 C 1.08060 0.46334 0.47748
 C113 C 1.02554 0.57778 0.46761
 C114 C 0.96595 0.47381 0.42282
 C115 C 0.92128 0.53345 0.52640
 C116 C 1.03559 0.52304 0.58195
 C117 C 0.97598 0.41859 0.53698
 Zn118 Zn 0.47921 0.49315 0.95555
 Zn119 Zn 0.47260 0.52757 1.02643
 Zn120 Zn 0.50690 0.45640 1.01948
 Zn121 Zn 0.54353 0.52039 0.99200
 O122 O 0.50052 0.49942 0.99841
 O123 O 0.43774 0.51558 0.95247
 O124 O 0.45914 0.50580 1.06630
 O125 O 0.49058 0.42043 0.99348
 O126 O 0.43256 0.54123 1.00474
 O127 O 0.46996 0.44775 0.94604
 O128 O 0.48458 0.45327 1.06078
 O129 O 0.57958 0.49432 1.00836
 O130 O 0.49450 0.56748 1.03987
 O131 O 0.55234 0.44682 1.02883
 O132 O 0.54679 0.56184 1.01420
 O133 O 0.55291 0.52959 0.94668
 O134 O 0.50510 0.50944 0.91959
 C135 C 0.42085 0.53468 0.97409
 C136 C 0.46565 0.47499 1.07778
 C137 C 0.47555 0.41982 0.96362
 C138 C 0.58024 0.46443 1.02338
 C139 C 0.52524 0.57894 1.03321
 C140 C 0.53509 0.52424 0.91888
 C141 C 1.23290 0.40239 0.41146
 C142 C 1.20849 0.37287 0.42462
 C143 C 1.17779 0.38496 0.43899
 C144 C 1.17450 0.42538 0.43880
 C145 C 1.17953 0.43615 0.40014
 C146 C 1.21021 0.42408 0.38578
 C147 C 1.23847 0.42658 0.44347
 C148 C 1.20775 0.43868 0.45785
 C149 C 1.26580 0.38935 0.39571
 C150 C 1.29252 0.37846 0.38227
 C151 C 1.14130 0.43850 0.45385
 C152 C 1.11372 0.44962 0.46524
 H153 H 1.21479 0.34493 0.42284
 H154 H 1.15779 0.36739 0.44953
 H155 H 1.16064 0.45191 0.38533
 H156 H 1.21759 0.42949 0.35868
 H157 H 1.26425 0.43357 0.45392
 H158 H 1.20721 0.45603 0.48063
 C159 C 0.26751 0.59906 0.91327
 C160 C 0.30049 0.61459 0.89568
 C161 C 0.33140 0.60190 0.90912
 C162 C 0.32635 0.57490 0.93886
 C163 C 0.30252 0.54619 0.92304
 C164 C 0.27160 0.55889 0.90960
 C165 C 0.27229 0.60654 0.95277
 C166 C 0.30326 0.59382 0.96624
 C167 C 0.23435 0.61267 0.89839
 C168 C 0.20742 0.62379 0.88543
 C169 C 0.35980 0.56106 0.95284
 C170 C 0.38756 0.54926 0.96320
 H171 H 0.29964 0.63390 0.87454
 H172 H 0.35703 0.61034 0.89950
 H173 H 0.30931 0.51831 0.92250
 H174 H 0.25191 0.54189 0.89754
 H175 H 0.25306 0.62056 0.96874
 H176 H 0.31057 0.59694 0.99374
 C177 C -0.23182 0.90187 0.08615
 C178 C -0.23361 0.91015 0.04656
 C179 C -0.20270 0.92283 0.03319
 C180 C -0.17309 0.92596 0.06073
 C181 C -0.16970 0.88893 0.07688
 C182 C -0.20057 0.87626 0.09023
 C183 C -0.21952 0.93633 0.10353
 C184 C -0.18867 0.94899 0.09018
 C185 C -0.26491 0.88830 0.10093
 C186 C -0.29177 0.87720 0.11381
 C187 C -0.13971 0.93976 0.04685
 C188 C -0.11200 0.95151 0.03657
 H189 H -0.25705 0.90637 0.03047
 H190 H -0.19966 0.92991 0.00564
 H191 H -0.14522 0.87394 0.07769
 H192 H -0.20252 0.85043 0.10250
 H193 H -0.23381 0.94965 0.12447
 H194 H -0.17654 0.97315 0.09969
 C195 C 0.73250 0.09772 0.58808
 C196 C 0.73770 0.07685 0.55377
 C197 C 0.70694 0.06458 0.53958
 C198 C 0.67405 0.07439 0.56110
 C199 C 0.67527 0.11478 0.56453
 C200 C 0.70600 0.12704 0.57871
 C201 C 0.71223 0.07268 0.61253
 C202 C 0.68152 0.06042 0.59836
 C203 C 0.76543 0.11093 0.60364
 C204 C 0.79219 0.12188 0.61699
 C205 C 0.64082 0.06109 0.54625
 C206 C 0.61323 0.04985 0.53500
 H207 H 0.76326 0.07215 0.54169
 H208 H 0.70615 0.04937 0.51534
 H209 H 0.65390 0.13221 0.55648
 H210 H 0.71096 0.15498 0.58281
 H211 H 0.72122 0.06520 0.63868
 H212 H 0.66421 0.04245 0.61239
 C213 C 0.41146 0.23359 0.40047
 C214 C 0.40487 0.22767 0.43992
 C215 C 0.41873 0.19685 0.45238
 C216 C 0.43784 0.17495 0.42418
 C217 C 0.46558 0.19996 0.40854
 C218 C 0.45170 0.23082 0.39607
 C219 C 0.39660 0.20057 0.38228
 C220 C 0.41046 0.16976 0.39473
 C221 C 0.39619 0.26663 0.38708
 C222 C 0.38301 0.29349 0.37609
 C223 C 0.45236 0.14162 0.43770
 C224 C 0.46339 0.11398 0.44908
 H225 H 0.39060 0.24609 0.45662
 H226 H 0.41634 0.18888 0.47975
 H227 H 0.49362 0.19397 0.40738
 H228 H 0.46785 0.25127 0.38421
 H229 H 0.37694 0.20132 0.36141
 H230 H 0.40268 0.14413 0.38453
 C231 C 0.91140 0.26620 0.59879
 C232 C 0.88358 0.29434 0.58974
 C233 C 0.89760 0.32504 0.57744
 C234 C 0.93810 0.32466 0.57537
 C235 C 0.94718 0.29233 0.55267
 C236 C 0.93314 0.26158 0.56498
 C237 C 0.93652 0.28426 0.62500
 C238 C 0.95056 0.31500 0.61268
 C239 C 0.89598 0.23327 0.61205
 C240 C 0.88272 0.20652 0.62302
 C241 C 0.95280 0.35788 0.56202
 C242 C 0.96393 0.38547 0.55076
 H243 H 0.85532 0.29049 0.59272
 H244 H 0.88134 0.34748 0.56989
 H245 H 0.96325 0.29347 0.52903
 H246 H 0.93717 0.23640 0.55190
 H247 H 0.94275 0.27380 0.65092
 H248 H 0.96882 0.33088 0.62805
 C249 C 0.08814 0.76852 -0.09594
 C250 C 0.08320 0.79685 -0.12450
 C251 C 0.06936 0.82770 -0.11213
 C252 C 0.06180 0.82721 -0.07241
 C253 C 0.09709 0.81699 -0.05512
 C254 C 0.11091 0.78617 -0.06749
 C255 C 0.05152 0.76428 -0.07911
 C256 C 0.03767 0.79517 -0.06672
 C257 C 0.10341 0.73546 -0.10923
 C258 C 0.11660 0.70861 -0.12019
 C259 C 0.04741 0.86058 -0.05892
 C260 C 0.03675 0.88830 -0.04739
 H261 H 0.08993 0.79299 -0.15203
 H262 H 0.06423 0.85027 -0.12905
 H263 H 0.11007 0.83260 -0.03490
 H264 H 0.13573 0.77538 -0.05786
 H265 H 0.03770 0.73926 -0.07712
 H266 H 0.01198 0.79661 -0.05412
 C267 C 0.58764 0.73188 1.09596
 C268 C 0.56772 0.71061 1.12405
 C269 C 0.55389 0.67976 1.11170
 C270 C 0.56134 0.67323 1.07249
 C271 C 0.60167 0.67551 1.06899
 C272 C 0.61548 0.70631 1.08132
 C273 C 0.56097 0.73701 1.06583
 C274 C 0.54714 0.70615 1.05348
 C275 C 0.60288 0.76492 1.10922
 C276 C 0.61604 0.79174 1.12018
 C277 C 0.54697 0.63988 1.05903
 C278 C 0.53634 0.61218 1.04753
 H279 H 0.56470 0.71906 1.15122
 H280 H 0.53902 0.66178 1.12828
 H281 H 0.61798 0.65473 1.05779
 H282 H 0.64360 0.71191 1.08067
 H283 H 0.55358 0.76260 1.05517
 H284 H 0.52789 0.70531 1.03225
 C285 C 0.40207 0.41331 1.23029
 C286 C 0.43061 0.39040 1.21289
 C287 C 0.44313 0.40404 1.18217
 C288 C 0.42590 0.43930 1.17179
 C289 C 0.43156 0.46358 1.20372
 C290 C 0.41902 0.44990 1.23450
 C291 C 0.37353 0.41817 1.20188
 C292 C 0.38605 0.43183 1.17113
 C293 C 0.38864 0.39822 1.26324
 C294 C 0.37764 0.38511 1.29000
 C295 C 0.43956 0.45350 1.13854
 C296 C 0.45121 0.46400 1.11092
 H297 H 0.44018 0.36562 1.22375
 H298 H 0.46342 0.39094 1.16673
 H299 H 0.44425 0.48923 1.20228
 H300 H 0.42098 0.46384 1.25943
 H301 H 0.34589 0.41152 1.20560
 H302 H 0.36916 0.43689 1.14852
 C303 C 0.59680 -0.08821 0.26608
 C304 C 0.59906 -0.11371 0.29744
 C305 C 0.58682 -0.09972 0.32814
 C306 C 0.57348 -0.06156 0.32452
 C307 C 0.54561 -0.06285 0.29509
 C308 C 0.55787 -0.07686 0.26436
 C309 C 0.61689 -0.05507 0.27799
 C310 C 0.60462 -0.04105 0.30874
 C311 C 0.61000 -0.10360 0.23315
 C312 C 0.62096 -0.11680 0.20641
 C313 C 0.56019 -0.04689 0.35773
 C314 C 0.54897 -0.03576 0.38529
 H315 H 0.60940 -0.14044 0.29569
 H316 H 0.58667 -0.11445 0.35268
 H317 H 0.51863 -0.05353 0.29811
 H318 H 0.54139 -0.07955 0.24106
 H319 H 0.63878 -0.04362 0.26354
 H320 H 0.61600 -0.01759 0.32063
 C321 C -0.09803 1.08721 -0.23065
 C322 C -0.11092 1.04951 -0.22313
 C323 C -0.09836 1.03588 -0.19226
 C324 C -0.07416 1.06130 -0.17199
 C325 C -0.09609 1.09511 -0.16724
 C326 C -0.10863 1.10872 -0.19805
 C327 C -0.05756 1.08492 -0.22905
 C328 C -0.04501 1.07130 -0.19822
 C329 C -0.11148 1.10225 -0.26370
 C330 C -0.12251 1.11530 -0.29054
 C331 C -0.06048 1.04714 -0.13865
 C332 C -0.04880 1.03666 -0.11097
 H333 H -0.12835 1.03483 -0.24051
 H334 H -0.10502 1.00953 -0.18319
 H335 H -0.10135 1.10729 -0.14187
 H336 H -0.12462 1.13255 -0.19907
 H337 H -0.04028 1.09322 -0.25028
 H338 H -0.01698 1.06794 -0.19305
 C339 C 1.09716 0.58808 0.73418
 C340 C 1.07030 0.55823 0.73961
 C341 C 1.05803 0.54407 0.70890
 C342 C 1.07383 0.56116 0.67581
 C343 C 1.11400 0.55774 0.68040
 C344 C 1.12627 0.57190 0.71109
 C345 C 1.07831 0.61493 0.71033
 C346 C 1.06606 0.60079 0.67967
 C347 C 1.11039 0.60362 0.76706
 C348 C 1.12140 0.61693 0.79377
 C349 C 1.06053 0.54634 0.64263
 C350 C 1.04933 0.53513 0.61506
 H351 H 1.06171 0.54902 0.76529
 H352 H 1.03892 0.52273 0.70827
 H353 H 1.13128 0.54527 0.66126
 H354 H 1.15406 0.57155 0.71824
 H355 H 1.07488 0.64263 0.71695
 H356 H 1.05213 0.61639 0.66004
 C357 C 0.76811 0.59794 0.58685
 C358 C 0.78977 0.57626 0.61340
 C359 C 0.82063 0.56354 0.60004
 C360 C 0.82688 0.57371 0.56140
 C361 C 0.82422 0.61417 0.56060
 C362 C 0.79332 0.62692 0.57398
 C363 C 0.76304 0.57341 0.55502
 C364 C 0.79396 0.56066 0.54163
 C365 C 0.73501 0.61160 0.60163
 C366 C 0.70813 0.62280 0.61450
 C367 C 0.86028 0.55983 0.54750
 C368 C 0.88802 0.54803 0.53721
 H369 H 0.78158 0.57132 0.64036
 H370 H 0.83887 0.54770 0.61556
 H371 H 0.84477 0.63130 0.55038
 H372 H 0.78740 0.65496 0.57522
 H373 H 0.73744 0.56668 0.54395
 H374 H 0.79485 0.54301 0.51910
 C375 C 0.73271 0.40248 1.08878
 C376 C 0.73645 0.41510 1.05051
 C377 C 0.70568 0.42744 1.03628
 C378 C 0.67424 0.42593 1.06174
 C379 C 0.68635 0.44644 1.09450
 C380 C 0.71707 0.43411 1.10870
 C381 C 0.70304 0.37491 1.08786
 C382 C 0.67230 0.38724 1.07364
 C383 C 0.76566 0.38919 1.10438
 C384 C 0.79243 0.37814 1.11772
 C385 C 0.64100 0.43930 1.04685
 C386 C 0.61339 0.45058 1.03556
 H387 H 0.76106 0.41440 1.03588
 H388 H 0.70393 0.43731 1.00947
 H389 H 0.67206 0.46872 1.10555
 H390 H 0.72909 0.44583 1.13192
 H391 H 0.70592 0.34804 1.09748
 H392 H 0.64886 0.37093 1.07110
 C393 C 0.23245 1.09701 -0.08885
 C394 C 0.22279 1.11485 -0.05381
 C395 C 0.19210 1.10271 -0.03950
 C396 C 0.17411 1.07395 -0.06166
 C397 C 0.20234 1.04516 -0.06644
 C398 C 0.23302 1.05729 -0.08074
 C399 C 0.20005 1.10250 -0.11264
 C400 C 0.16940 1.09038 -0.09835
 C401 C 0.26531 1.11009 -0.10452
 C402 C 0.29201 1.12101 -0.11790
 C403 C 0.14095 1.06078 -0.04669
 C404 C 0.11340 1.04965 -0.03537
 H405 H 0.23866 1.13518 -0.04133
 H406 H 0.18167 1.11264 -0.01477
 H407 H 0.19859 1.01768 -0.05920
 H408 H 0.25553 1.04020 -0.08574
 H409 H 0.20108 1.11484 -0.13844
 H410 H 0.14419 1.09235 -0.11193
 C411 C 0.26783 -0.09842 0.41292
 C412 C 0.30051 -0.10923 0.39157
 C413 C 0.33138 -0.09650 0.40493
 C414 C 0.32661 -0.07419 0.43836
 C415 C 0.30650 -0.09811 0.46408
 C416 C 0.27557 -0.11087 0.45069
 C417 C 0.26922 -0.05794 0.41465
 C418 C 0.30011 -0.04520 0.42802
 C419 C 0.23471 -0.11206 0.39813
 C420 C 0.20781 -0.12320 0.38523
 C421 C 0.36001 -0.06031 0.45227
 C422 C 0.38773 -0.04852 0.46259
 H423 H 0.29949 -0.12549 0.36802
 H424 H 0.35680 -0.10187 0.39283
 H425 H 0.31572 -0.10446 0.49044
 H426 H 0.25828 -0.12814 0.46559
 H427 H 0.24781 -0.04078 0.40616
 H428 H 0.30515 -0.01713 0.43098
 C429 C 0.58766 -0.23140 0.59614
 C430 C 0.60655 -0.19839 0.61010
 C431 C 0.59281 -0.16755 0.59760
 C432 C 0.56151 -0.17270 0.57235
 C433 C 0.53481 -0.19502 0.59302
 C434 C 0.54858 -0.22592 0.60555
 C435 C 0.58921 -0.22815 0.55586
 C436 C 0.57547 -0.19730 0.54336
 C437 C 0.60283 -0.26448 0.60957
 C438 C 0.61595 -0.29134 0.62063
 C439 C 0.54720 -0.13932 0.55872
 C440 C 0.53659 -0.11161 0.54711
 H441 H 0.62876 -0.19917 0.62824
 H442 H 0.60325 -0.14191 0.60505
 H443 H 0.50754 -0.18726 0.59743
 H444 H 0.53309 -0.24464 0.62068
 H445 H 0.60010 -0.24833 0.53867
 H446 H 0.57458 -0.19105 0.51544
 C447 C 1.08793 0.73065 0.40489
 C448 C 1.11594 0.70271 0.41395
 C449 C 1.10213 0.67193 0.42628
 C450 C 1.06163 0.67204 0.42837
 C451 C 1.04908 0.68157 0.39106
 C452 C 1.06291 0.71241 0.37871
 C453 C 1.06618 0.73515 0.43871
 C454 C 1.05235 0.70433 0.45106
 C455 C 1.10317 0.76366 0.39162
 C456 C 1.11630 0.79046 0.38064
 C457 C 1.04725 0.63871 0.44182
 C458 C 1.03663 0.61102 0.45332
 H459 H 1.14417 0.70674 0.41094
 H460 H 1.11854 0.64960 0.43382
 H461 H 1.03091 0.66556 0.37573
 H462 H 1.05659 0.72281 0.35278
 H463 H 1.06199 0.76033 0.45177
 H464 H 1.03630 0.70310 0.47470
 C465 C -0.08852 1.23335 0.09901
 C466 C -0.08718 1.20364 0.12653
 C467 C -0.07326 1.17288 0.11404
 C468 C -0.06203 1.17483 0.07524
 C469 C -0.03644 1.20618 0.07329
 C470 C -0.05038 1.23698 0.08580
 C471 C -0.10913 1.21780 0.06781
 C472 C -0.09521 1.18706 0.05532
 C473 C -0.10384 1.26632 0.11246
 C474 C -0.11704 1.29311 0.12354
 C475 C -0.04744 1.14156 0.06170
 C476 C -0.03636 1.11395 0.05032
 H477 H -0.09633 1.20653 0.15348
 H478 H -0.07047 1.14942 0.13028
 H479 H -0.00974 1.20437 0.06302
 H480 H -0.03563 1.26154 0.08624
 H481 H -0.13259 1.22990 0.05648
 H482 H -0.10675 1.17283 0.03329
 C483 C 0.41161 0.26727 0.90132
 C484 C 0.41733 0.26746 0.94138
 C485 C 0.43121 0.29824 0.95379
 C486 C 0.43802 0.32582 0.92494
 C487 C 0.40233 0.33051 0.90620
 C488 C 0.38846 0.29975 0.89379
 C489 C 0.44786 0.27623 0.88559
 C490 C 0.46175 0.30703 0.89801
 C491 C 0.39635 0.23428 0.88797
 C492 C 0.38321 0.20748 0.87695
 C493 C 0.45255 0.35909 0.93840
 C494 C 0.46358 0.38670 0.94974
 H495 H 0.41107 0.24536 0.95848
 H496 H 0.43685 0.30250 0.98153
 H497 H 0.38912 0.35579 0.90293
 H498 H 0.36337 0.29869 0.87991
 H499 H 0.46142 0.25982 0.86641
 H500 H 0.48721 0.31703 0.88949
 C501 C 0.59656 0.58871 0.76663
 C502 C 0.60271 0.54872 0.76985
 C503 C 0.59046 0.53471 0.80059
 C504 C 0.57327 0.56207 0.82505
 C505 C 0.54443 0.57978 0.80262
 C506 C 0.55667 0.59378 0.77192
 C507 C 0.61373 0.60465 0.79967
 C508 C 0.60149 0.59065 0.83036
 C509 C 0.60976 0.60409 0.73373
 C510 C 0.62073 0.61726 0.70699
 C511 C 0.56000 0.54740 0.85824
 C512 C 0.54881 0.53628 0.88581
 H513 H 0.61555 0.53283 0.74977
 H514 H 0.59279 0.50681 0.80684
 H515 H 0.51681 0.58116 0.81018
 H516 H 0.53954 0.60716 0.75319
 H517 H 0.63377 0.62512 0.79902
 H518 H 0.61106 0.59913 0.85599
 C519 C 0.40163 0.08673 0.72990
 C520 C 0.39700 0.04656 0.72660
 C521 C 0.40962 0.03305 0.69575
 C522 C 0.42560 0.06106 0.67128
 C523 C 0.45385 0.07968 0.69360
 C524 C 0.44126 0.09317 0.72440
 C525 C 0.38367 0.10216 0.69700
 C526 C 0.39626 0.08867 0.66620
 C527 C 0.38812 0.10164 0.76292
 C528 C 0.37708 0.11461 0.78975
 C529 C 0.43934 0.04703 0.63797
 C530 C 0.45104 0.03662 0.61032
 H531 H 0.38489 0.03019 0.74671
 H532 H 0.40832 0.00512 0.68942
 H533 H 0.48137 0.08203 0.68591
 H534 H 0.45797 0.10706 0.74308
 H535 H 0.36284 0.12191 0.69782
 H536 H 0.38623 0.09688 0.64065
 C537 C 0.09750 0.91193 0.23375
 C538 C 0.12685 0.92280 0.20809
 C539 C 0.11451 0.93678 0.17733
 C540 C 0.07403 0.93852 0.17524
 C541 C 0.06268 0.95935 0.20805
 C542 C 0.07503 0.94536 0.23884
 C543 C 0.07394 0.88658 0.21270
 C544 C 0.06161 0.90054 0.18197
 C545 C 0.11080 0.89657 0.26671
 C546 C 0.12184 0.88340 0.29348
 C547 C 0.06066 0.95316 0.14199
 C548 C 0.04938 0.96427 0.11439
 H549 H 0.15486 0.91983 0.21362
 H550 H 0.13194 0.94578 0.15651
 H551 H 0.04641 0.98299 0.20719
 H552 H 0.06933 0.95701 0.26434
 H553 H 0.06748 0.85998 0.22121
 H554 H 0.04459 0.88590 0.16415
 C555 C 0.90232 0.41231 0.26999
 C556 C 0.94267 0.41012 0.27354
 C557 C 0.95520 0.42373 0.30435
 C558 C 0.92616 0.43820 0.32862
 C559 C 0.90045 0.40732 0.33369
 C560 C 0.88793 0.39372 0.30289
 C561 C 0.89331 0.45154 0.27523
 C562 C 0.90586 0.46517 0.30608
 C563 C 0.88887 0.39728 0.23695
 C564 C 0.87783 0.38427 0.21011
 C565 C 0.93983 0.45235 0.36195
 C566 C 0.95149 0.46283 0.38962
 H567 H 0.95989 0.39892 0.25359
 H568 H 0.98317 0.42418 0.31079
 H569 H 0.89273 0.39706 0.35925
 H570 H 0.86948 0.37181 0.30207
 H571 H 0.87841 0.46722 0.25638
 H572 H 0.90172 0.49251 0.31367
   
