data_POSCAR
  _audit_creation_date              2014-09-24
  _audit_creation_method            'ToBaCCo'
  _symmetry_space_group_name_H-M    'P1'
  _symmetry_Int_Tables_number       1
  _symmetry_cell_setting            triclinic
  loop_
  _symmetry_equiv_pos_as_xyz
 x,y,z
_cell_length_a 31.3575
_cell_length_b 31.3488
_cell_length_c 31.4322
_cell_angle_alpha 90.040000
_cell_angle_beta 90.063600
_cell_angle_gamma 89.816800
loop_
  _atom_site_label
  _atom_site_type_symbol
  _atom_site_fract_x
  _atom_site_fract_y
  _atom_site_fract_z
C1 C 0.33676 0.33319 1.38865
 C2 C 0.30010 0.34951 1.40846
 C3 C 0.27974 0.38584 1.39210
 C4 C 0.29611 0.40631 1.35601
 C5 C 0.33274 0.39040 1.33583
 C6 C 0.35319 0.35365 1.35216
 C7 C 0.35686 0.29637 1.40427
 C8 C 0.39297 0.27976 1.38379
 C9 C 0.40945 0.30010 1.34768
 C10 C 0.38972 0.33700 1.33165
 C11 C 0.40542 0.35716 1.29507
 C12 C 0.38498 0.39349 1.27883
 C13 C 0.34888 0.41015 1.29920
 H14 H 0.28714 0.33369 1.43627
 H15 H 0.28007 0.43430 1.34337
 H16 H 0.34413 0.28036 1.43208
 H17 H 0.43728 0.28698 1.33183
 H18 H 0.43321 0.34437 1.27891
 H19 H 0.33315 0.43814 1.28624
 C20 C 1.16433 0.66883 0.89134
 C21 C 1.20119 0.65264 0.91101
 C22 C 1.22161 0.61639 0.89451
 C23 C 1.20513 0.59591 0.85841
 C24 C 1.16834 0.61169 0.83837
 C25 C 1.14781 0.64833 0.85484
 C26 C 1.14411 0.70557 0.90709
 C27 C 1.10780 0.72200 0.88671
 C28 C 1.09126 0.70159 0.85061
 C29 C 1.11110 0.66482 0.83446
 C30 C 1.09531 0.64463 0.79787
 C31 C 1.11584 0.60843 0.78148
 C32 C 1.15211 0.59191 0.80173
 H33 H 1.21422 0.66849 0.93882
 H34 H 1.22120 0.56800 0.84565
 H35 H 1.15689 0.72164 0.93489
 H36 H 1.06329 0.71459 0.83485
 H37 H 1.06738 0.65731 0.78182
 H38 H 1.16790 0.56400 0.78866
 C39 C 0.66269 -0.16868 0.10840
 C40 C 0.69944 -0.15259 0.08874
 C41 C 0.71977 -0.11646 0.10527
 C42 C 0.70337 -0.09596 0.14137
 C43 C 0.66670 -0.11161 0.16143
 C44 C 0.64622 -0.14816 0.14494
 C45 C 0.64255 -0.20534 0.09266
 C46 C 0.60637 -0.22168 0.11308
 C47 C 0.58988 -0.20125 0.14920
 C48 C 0.60964 -0.16455 0.16535
 C49 C 0.59393 -0.14436 0.20199
 C50 C 0.61442 -0.10826 0.21838
 C51 C 0.65056 -0.09182 0.19811
 H52 H 0.71253 -0.16838 0.06092
 H53 H 0.71949 -0.06815 0.15406
 H54 H 0.65530 -0.22144 0.06484
 H55 H 0.56201 -0.21418 0.16500
 H56 H 0.56610 -0.15697 0.21807
 H57 H 0.66632 -0.06399 0.21120
 C58 C -0.16422 1.16625 -0.38926
 C59 C -0.20098 1.15023 -0.40902
 C60 C -0.22147 1.11418 -0.39251
 C61 C -0.20513 1.09371 -0.35631
 C62 C -0.16840 1.10932 -0.33618
 C63 C -0.14782 1.14577 -0.35267
 C64 C -0.14396 1.20280 -0.40500
 C65 C -0.10776 1.21905 -0.38454
 C66 C -0.09133 1.19871 -0.34838
 C67 C -0.11118 1.16211 -0.33221
 C68 C -0.09552 1.14197 -0.29553
 C69 C -0.11609 1.10596 -0.27912
 C70 C -0.15230 1.08958 -0.29944
 H71 H -0.21391 1.16607 -0.43691
 H72 H -0.22126 1.06594 -0.34356
 H73 H -0.15657 1.21893 -0.43285
 H74 H -0.06343 1.21168 -0.33264
 H75 H -0.06764 1.15455 -0.27943
 H76 H -0.16813 1.06183 -0.28634
 C77 C 0.66308 0.66895 0.60911
 C78 C 0.69989 0.65270 0.58951
 C79 C 0.72021 0.61643 0.60600
 C80 C 0.70372 0.59596 0.64198
 C81 C 0.66697 0.61177 0.66198
 C82 C 0.64651 0.64847 0.64554
 C83 C 0.64295 0.70574 0.59340
 C84 C 0.60670 0.72225 0.61374
 C85 C 0.59010 0.70187 0.64976
 C86 C 0.60984 0.66503 0.66588
 C87 C 0.59404 0.64486 0.70241
 C88 C 0.61450 0.60860 0.71876
 C89 C 0.65072 0.59201 0.69854
 H90 H 0.71305 0.66846 0.56179
 H91 H 0.71983 0.56804 0.65464
 H92 H 0.65578 0.72179 0.56567
 H93 H 0.56217 0.71493 0.66549
 H94 H 0.56614 0.65759 0.71844
 H95 H 0.66647 0.56407 0.71159
 C96 C 0.83608 0.33292 0.11120
 C97 C 0.79937 0.34930 0.09145
 C98 C 0.77907 0.38562 0.10792
 C99 C 0.79554 0.40600 0.14408
 C100 C 0.83222 0.39003 0.16421
 C101 C 0.85261 0.35330 0.14775
 C102 C 0.85614 0.29611 0.09544
 C103 C 0.89231 0.27946 0.11586
 C104 C 0.90888 0.29974 0.15203
 C105 C 0.88919 0.33661 0.16819
 C106 C 0.90500 0.35670 0.20483
 C107 C 0.88463 0.39301 0.22120
 C108 C 0.84847 0.40971 0.20089
 H109 H 0.78635 0.33354 0.06359
 H110 H 0.77956 0.43399 0.15681
 H111 H 0.84334 0.28015 0.06759
 H112 H 0.93676 0.28659 0.16783
 H113 H 0.93284 0.34387 0.22091
 H114 H 0.83280 0.43769 0.21394
 C115 C 0.33517 0.16627 0.88909
 C116 C 0.29854 0.15008 0.90885
 C117 C 0.27815 0.11396 0.89230
 C118 C 0.29444 0.09359 0.85602
 C119 C 0.33104 0.10937 0.83587
 C120 C 0.35152 0.14590 0.85242
 C121 C 0.35533 0.20289 0.90489
 C122 C 0.39138 0.21931 0.88442
 C123 C 0.40778 0.19907 0.84820
 C124 C 0.38802 0.16240 0.83197
 C125 C 0.40366 0.14237 0.79524
 C126 C 0.38320 0.10628 0.77877
 C127 C 0.34712 0.08972 0.79907
 H128 H 0.28566 0.16584 0.93680
 H129 H 0.27838 0.06577 0.84323
 H130 H 0.34275 0.21895 0.93279
 H131 H 0.43558 0.21216 0.83246
 H132 H 0.43144 0.15507 0.77915
 H133 H 0.33138 0.06191 0.78593
 C134 C 0.16265 0.83103 0.39161
 C135 C 0.19945 0.84717 0.41124
 C136 C 0.21967 0.88333 0.39470
 C137 C 0.20310 0.90380 0.35867
 C138 C 0.16638 0.88810 0.33865
 C139 C 0.14601 0.85152 0.35512
 C140 C 0.14261 0.79435 0.40734
 C141 C 0.10637 0.77796 0.38695
 C142 C 0.08972 0.79836 0.35087
 C143 C 0.10938 0.83508 0.33474
 C144 C 0.09353 0.85524 0.29813
 C145 C 0.11392 0.89137 0.28176
 C146 C 0.15010 0.90785 0.30202
 H147 H 0.21267 0.83141 0.43901
 H148 H 0.21914 0.93163 0.34598
 H149 H 0.15548 0.77827 0.43511
 H150 H 0.06182 0.78539 0.33509
 H151 H 0.06567 0.84260 0.28206
 H152 H 0.16579 0.93570 0.28895
 Zn153 Zn 0.00845 1.05243 -0.02428
 Zn154 Zn -0.03296 0.96664 -0.03257
 Zn155 Zn 0.05229 0.97510 0.00989
 Zn156 Zn -0.02564 1.00889 0.05278
 O157 O 0.00048 1.00071 0.00140
 O158 O -0.01819 1.05602 -0.07440
 O159 O -0.00643 0.91814 -0.04820
 O160 O 0.09600 1.00608 -0.00968
 O161 O -0.04881 0.99269 -0.08104
 O162 O 0.06338 1.06342 -0.03523
 O163 O 0.05640 0.92481 -0.01650
 O164 O 0.00514 0.98921 0.09665
 O165 O -0.08153 0.95066 -0.00680
 O166 O 0.06312 0.96431 0.06479
 O167 O -0.07578 0.98224 0.05608
 O168 O -0.03672 1.06388 0.06384
 O169 O -0.01129 1.09631 0.00666
 C170 C -0.04088 1.02978 -0.09501
 C171 C 0.03060 0.90414 -0.03963
 C172 C 0.09696 1.04196 -0.02819
 C173 C 0.04129 0.97108 0.09804
 C174 C -0.09597 0.95905 0.02995
 C175 C -0.02969 1.09743 0.04252
 Zn176 Zn 0.47442 0.00908 0.44705
 Zn177 Zn 0.46695 -0.03289 0.53243
 Zn178 Zn 0.55226 -0.02466 0.49026
 Zn179 Zn 0.50845 0.05279 0.52422
 O180 O 0.50046 0.00103 0.49854
 O181 O 0.42426 -0.01756 0.44359
 O182 O 0.49338 -0.08135 0.54821
 O183 O 0.56319 -0.03556 0.43540
 O184 O 0.41844 -0.04891 0.50652
 O185 O 0.50529 -0.01067 0.40329
 O186 O 0.55626 -0.07490 0.51672
 O187 O 0.56337 0.06378 0.53530
 O188 O 0.45103 -0.00672 0.58080
 O189 O 0.59596 0.00633 0.50992
 O190 O 0.48173 0.05656 0.57426
 O191 O 0.48882 0.09659 0.49315
 O192 O 0.46342 0.06405 0.43590
 C193 C 0.40404 -0.04066 0.46970
 C194 C 0.53039 -0.09545 0.53979
 C195 C 0.54144 -0.02881 0.40205
 C196 C 0.59695 0.04228 0.52835
 C197 C 0.45896 0.03038 0.59479
 C198 C 0.47048 0.09764 0.45720
 Zn199 Zn 1.05305 0.52492 0.50972
 Zn200 Zn 0.97558 0.49109 0.55285
 Zn201 Zn 0.96758 0.53314 0.46746
 Zn202 Zn 1.00974 0.44751 0.47560
 O203 O 1.00142 0.49922 0.50135
 O204 O 1.06404 0.53573 0.56461
 O205 O 0.92531 0.51778 0.55635
 O206 O 0.99367 0.58168 0.45180
 O207 O 1.00644 0.51070 0.59670
 O208 O 1.05663 0.57519 0.48336
 O209 O 0.91898 0.54908 0.49341
 O210 O 0.98310 0.44382 0.42550
 O211 O 0.96475 0.43613 0.56378
 O212 O 0.95180 0.50700 0.41897
 O213 O 0.99024 0.40370 0.50648
 O214 O 1.06472 0.43651 0.46464
 O215 O 1.09694 0.49399 0.49001
 C216 C 1.04246 0.52888 0.59796
 C217 C 0.90480 0.54083 0.53027
 C218 C 1.03059 0.59577 0.46031
 C219 C 0.96008 0.46993 0.40494
 C220 C 0.97184 0.40260 0.54234
 C221 C 1.09815 0.45805 0.47158
 Zn222 Zn 0.47468 0.49148 0.94723
 Zn223 Zn 0.46693 0.53365 1.03259
 Zn224 Zn 0.50901 0.44794 1.02444
 Zn225 Zn 0.55235 0.52521 0.99037
 O226 O 0.50068 0.49963 0.99871
 O227 O 0.42444 0.51825 0.94370
 O228 O 0.45126 0.50758 1.08108
 O229 O 0.48937 0.40412 0.99356
 O230 O 0.41828 0.54965 1.00664
 O231 O 0.46376 0.43652 0.93628
 O232 O 0.48249 0.44436 1.07453
 O233 O 0.59626 0.49425 1.01007
 O234 O 0.49314 0.58216 1.04826
 O235 O 0.56400 0.43685 1.03540
 O236 O 0.55604 0.57550 1.01673
 O237 O 0.56320 0.53596 0.93549
 O238 O 0.50547 0.51100 0.90340
 C239 C 0.40401 0.54138 0.96977
 C240 C 0.45956 0.47052 1.09510
 C241 C 0.47088 0.40301 0.95770
 C242 C 0.59746 0.45831 1.02848
 C243 C 0.53008 0.59617 1.03976
 C244 C 0.54151 0.52912 0.90214
 C245 C 1.24321 0.40055 0.41048
 C246 C 1.21052 0.41347 0.42607
 C247 C 1.17179 0.42865 0.44327
 C248 C 1.13835 0.44186 0.45689
 C249 C 0.25831 0.60168 0.91267
 C250 C 0.29116 0.58848 0.92779
 C251 C 0.33007 0.57265 0.94410
 C252 C 0.36366 0.55868 0.95667
 C253 C -0.24154 0.89896 0.08615
 C254 C -0.20871 0.91210 0.07124
 C255 C -0.16982 0.92788 0.05518
 C256 C -0.13626 0.94181 0.04283
 C257 C 0.74195 0.09970 0.58914
 C258 C 0.70923 0.08689 0.57362
 C259 C 0.67050 0.07175 0.55652
 C260 C 0.63708 0.05853 0.54298
 C261 C 0.41120 0.24306 0.39839
 C262 C 0.42643 0.21023 0.41147
 C263 C 0.44308 0.17137 0.42705
 C264 C 0.45623 0.13787 0.44064
 C265 C 0.91166 0.25758 0.60002
 C266 C 0.92709 0.29026 0.58711
 C267 C 0.94404 0.32898 0.57185
 C268 C 0.95742 0.36241 0.55858
 C269 C 0.08941 0.75863 -0.09867
 C270 C 0.07398 0.79142 -0.08568
 C271 C 0.05720 0.83027 -0.07020
 C272 C 0.04420 0.86382 -0.05656
 C273 C 0.58810 0.74172 1.09851
 C274 C 0.57280 0.70894 1.08560
 C275 C 0.55619 0.67008 1.07022
 C276 C 0.54338 0.63651 1.05665
 C277 C 0.40039 0.41282 1.24028
 C278 C 0.41338 0.42806 1.20757
 C279 C 0.42888 0.44457 1.16881
 C280 C 0.44256 0.45731 1.13533
 C281 C 0.59903 -0.08892 0.25699
 C282 C 0.58615 -0.07355 0.28972
 C283 C 0.57093 -0.05666 0.32847
 C284 C 0.55768 -0.04328 0.36191
 C285 C -0.10066 1.08674 -0.24046
 C286 C -0.08757 1.07169 -0.20766
 C287 C -0.07187 1.05543 -0.16881
 C288 C -0.05802 1.04289 -0.13527
 C289 C 1.10033 0.58905 0.74294
 C290 C 1.08736 0.57366 0.71026
 C291 C 1.07204 0.55672 0.67155
 C292 C 1.05872 0.54333 0.63813
 C293 C 0.75897 0.60088 0.58691
 C294 C 0.79185 0.58770 0.57195
 C295 C 0.83081 0.57193 0.55578
 C296 C 0.86443 0.55803 0.54330
 C297 C 0.74253 0.40043 1.08956
 C298 C 0.70984 0.41345 1.07399
 C299 C 0.67111 0.42875 1.05679
 C300 C 0.63767 0.44205 1.04317
 C301 C 0.24169 1.09934 -0.08931
 C302 C 0.20907 1.08648 -0.07371
 C303 C 0.17043 1.07135 -0.05649
 C304 C 0.13707 1.05816 -0.04286
 C305 C 0.25841 -0.10118 0.41375
 C306 C 0.29128 -0.08793 0.42856
 C307 C 0.33019 -0.07200 0.44449
 C308 C 0.36376 -0.05796 0.45678
 C309 C 0.58845 -0.24106 0.59914
 C310 C 0.57319 -0.20822 0.58611
 C311 C 0.55665 -0.16932 0.57054
 C312 C 0.54384 -0.13575 0.55681
 C313 C 1.08821 0.74134 0.40151
 C314 C 1.07299 0.70855 0.41443
 C315 C 1.05651 0.66968 0.42983
 C316 C 1.04379 0.63611 0.44342
 C317 C -0.08946 1.24279 0.10115
 C318 C -0.07415 1.20999 0.08804
 C319 C -0.05737 1.17117 0.07249
 C320 C -0.04409 1.13767 0.05897
 C321 C 0.41072 0.25789 0.89992
 C322 C 0.42610 0.29061 0.91287
 C323 C 0.44302 0.32936 0.92816
 C324 C 0.45641 0.36282 0.94145
 C325 C 0.59901 0.58926 0.75726
 C326 C 0.58610 0.57387 0.78991
 C327 C 0.57089 0.55693 0.82859
 C328 C 0.55767 0.54355 0.86199
 C329 C 0.39867 0.08714 0.74008
 C330 C 0.41187 0.07220 0.70728
 C331 C 0.42773 0.05605 0.66845
 C332 C 0.44171 0.04355 0.63497
 C333 C 0.09846 0.91070 0.24318
 C334 C 0.08562 0.92611 0.21045
 C335 C 0.07052 0.94311 0.17169
 C336 C 0.05739 0.95656 0.13823
 C337 C 0.90022 0.41228 0.25978
 C338 C 0.91338 0.42746 0.29249
 C339 C 0.92909 0.44393 0.33126
 C340 C 0.94294 0.45666 0.36472
   
