data_POSCAR
  _audit_creation_date              2014-09-24
  _audit_creation_method            'ToBaCCo'
  _symmetry_space_group_name_H-M    'P1'
  _symmetry_Int_Tables_number       1
  _symmetry_cell_setting            triclinic
  loop_
  _symmetry_equiv_pos_as_xyz
 x,y,z
_cell_length_a 39.2043
_cell_length_b 40.3905
_cell_length_c 39.1578
_cell_angle_alpha 90.009800
_cell_angle_beta 90.102000
_cell_angle_gamma 90.017700
loop_
  _atom_site_label
  _atom_site_type_symbol
  _atom_site_fract_x
  _atom_site_fract_y
  _atom_site_fract_z
O1 O 0.40511 0.35856 -0.03087
 O2 O 0.36153 0.40214 0.03823
 O3 O 0.40720 0.35557 0.03503
 O4 O 0.35886 0.40363 -0.02788
 O5 O 0.31805 0.36592 -0.02838
 O6 O 0.36719 0.31706 0.03520
 O7 O 0.32034 0.36481 0.03800
 O8 O 0.36528 0.31982 -0.03107
 Cu9 Cu 0.38713 0.38375 0.00379
 Cu10 Cu 0.33858 0.33801 0.00363
 C11 C 0.39302 0.33176 -0.04254
 C12 C 0.33323 0.39156 0.04934
 C13 C 0.39600 0.32785 0.04528
 C14 C 0.33030 0.39328 -0.03885
 O15 O 0.63540 0.59962 0.03111
 O16 O 0.59432 0.64242 -0.04017
 O17 O 0.63808 0.59465 -0.03487
 O18 O 0.59177 0.64666 0.02565
 O19 O 0.63342 0.68355 0.02537
 O20 O 0.68040 0.63068 -0.03644
 O21 O 0.63562 0.67964 -0.04078
 O22 O 0.67807 0.63536 0.03026
 Cu23 Cu 0.61079 0.61718 -0.00462
 Cu24 Cu 0.66127 0.66095 -0.00565
 C25 C 0.66354 0.61004 0.04292
 C26 C 0.60737 0.66869 -0.05208
 C27 C 0.66712 0.60336 -0.04583
 C28 C 0.60438 0.67383 0.03584
 O29 O 0.65761 0.39358 0.98159
 O30 O 0.61792 0.34382 1.04749
 O31 O 0.67429 0.37926 1.04577
 O32 O 0.61258 0.34784 0.98264
 O33 O 0.64876 0.30808 0.96890
 O34 O 0.71013 0.33932 1.03222
 O35 O 0.65258 0.30213 1.03614
 O36 O 0.69497 0.35414 0.97019
 Cu37 Cu 0.63805 0.37017 1.01603
 Cu38 Cu 0.67961 0.32169 1.00148
 C39 C 0.68284 0.38299 0.96474
 C40 C 0.62745 0.31436 1.05256
 C41 C 0.70299 0.36487 1.04954
 C42 C 0.62012 0.32228 0.96518
 O43 O 0.35943 0.59737 0.96764
 O44 O 0.40423 0.64622 1.03234
 O45 O 0.36007 0.59878 1.03362
 O46 O 0.40383 0.64466 0.96615
 O47 O 0.36288 0.68221 0.96552
 O48 O 0.31772 0.63482 1.03298
 O49 O 0.36294 0.68344 1.03201
 O50 O 0.31743 0.63384 0.96677
 Cu51 Cu 0.38605 0.61817 0.99999
 Cu52 Cu 0.33601 0.66238 0.99927
 C53 C 0.33065 0.60686 0.95656
 C54 C 0.39159 0.67319 1.04296
 C55 C 0.33124 0.60837 1.04440
 C56 C 0.39128 0.67132 0.95458
 O57 O -0.04194 0.39275 0.34421
 O58 O 0.02504 0.35394 0.39610
 O59 O 0.02369 0.39911 0.34947
 O60 O -0.04082 0.35018 0.39339
 O61 O -0.03481 0.30957 0.35611
 O62 O 0.02889 0.36060 0.30974
 O63 O 0.03114 0.31454 0.35745
 O64 O -0.03714 0.35315 0.30567
 Cu65 Cu -0.00908 0.37791 0.37456
 Cu66 Cu -0.00249 0.33049 0.32824
 C67 C -0.05093 0.37974 0.31604
 C68 C 0.03931 0.32755 0.38587
 C69 C 0.03703 0.38867 0.32211
 C70 C -0.04833 0.32138 0.38304
 O71 O 0.02153 0.65053 0.61122
 O72 O -0.04142 0.61953 0.67339
 O73 O -0.04278 0.65590 0.61697
 O74 O 0.02314 0.60660 0.65732
 O75 O 0.03326 0.64614 0.69505
 O76 O -0.03109 0.69849 0.65045
 O77 O -0.03035 0.66183 0.70725
 O78 O 0.03437 0.69134 0.64653
 Cu79 Cu -0.01176 0.62904 0.63736
 Cu80 Cu 0.00253 0.67853 0.67847
 C81 C 0.03860 0.67645 0.61833
 C82 C -0.04642 0.63530 0.70108
 C83 C -0.04735 0.68581 0.62533
 C84 C 0.03924 0.61734 0.68302
 O85 O 0.97009 0.64639 0.41085
 O86 O 1.02903 0.59620 0.36024
 O87 O 1.03562 0.64089 0.40687
 O88 O 0.96323 0.60124 0.36460
 O89 O 0.96420 0.63884 0.32364
 O90 O 1.03580 0.68052 0.36802
 O91 O 1.03058 0.63464 0.32015
 O92 O 0.96994 0.68516 0.37105
 Cu93 Cu 0.99941 0.61731 0.38952
 Cu94 Cu 1.00020 0.66368 0.34156
 C95 C 0.96024 0.67438 0.39999
 C96 C 1.03985 0.60661 0.33170
 C97 C 1.04757 0.66781 0.39534
 C98 C 0.95163 0.61281 0.33685
 O99 O 0.97150 0.35349 0.58803
 O100 O 1.03084 0.40385 0.63832
 O101 O 1.03714 0.35871 0.59183
 O102 O 0.96496 0.39939 0.63306
 O103 O 0.96543 0.36221 0.67445
 O104 O 1.03664 0.31931 0.63091
 O105 O 1.03199 0.36576 0.67876
 O106 O 0.97075 0.31523 0.62836
 Cu107 Cu 1.00119 0.38269 0.60890
 Cu108 Cu 1.00139 0.33683 0.65737
 C109 C 0.96104 0.32587 0.59936
 C110 C 1.04144 0.39368 0.66707
 C111 C 1.04854 0.33162 0.60348
 C112 C 0.95293 0.38802 0.66067
 O113 O 0.35789 -0.03264 0.40081
 O114 O 0.40228 0.03220 0.35346
 O115 O 0.35615 0.03147 0.40023
 O116 O 0.40350 -0.03182 0.35328
 O117 O 0.36358 -0.03301 0.31340
 O118 O 0.31532 0.03087 0.36128
 O119 O 0.36249 0.03141 0.31342
 O120 O 0.31686 -0.03378 0.36208
 Cu121 Cu 0.38392 -0.00014 0.38086
 Cu122 Cu 0.33539 -0.00128 0.33355
 C123 C 0.32979 -0.04405 0.38996
 C124 C 0.39040 0.04265 0.32535
 C125 C 0.32776 0.04190 0.38906
 C126 C 0.39204 -0.04291 0.32523
 O127 O 0.59775 0.03455 0.64344
 O128 O 0.64500 -0.02991 0.59818
 O129 O 0.59803 -0.02955 0.64444
 O130 O 0.64475 0.03413 0.59748
 O131 O 0.68480 0.03501 0.63725
 O132 O 0.63694 -0.02908 0.68531
 O133 O 0.68504 -0.02931 0.63795
 O134 O 0.63675 0.03550 0.68424
 Cu135 Cu 0.61746 0.00220 0.61692
 Cu136 Cu 0.66489 0.00304 0.66535
 C137 C 0.60886 0.04587 0.67152
 C138 C 0.67321 -0.04024 0.60986
 C139 C 0.60908 -0.03993 0.67293
 C140 C 0.67277 0.04520 0.60895
 O141 O 0.35715 1.03384 0.59642
 O142 O 0.40352 0.97093 0.64476
 O143 O 0.35762 0.96978 0.59766
 O144 O 0.40300 1.03502 0.64377
 O145 O 0.36326 1.03554 0.68370
 O146 O 0.31675 0.96977 0.63644
 O147 O 0.36369 0.97099 0.68462
 O148 O 0.31628 1.03438 0.63520
 Cu149 Cu 0.38431 1.00239 0.61677
 Cu150 Cu 0.33585 1.00275 0.66401
 C151 C 0.32879 1.04463 0.60717
 C152 C 0.39186 0.96034 0.67288
 C153 C 0.32952 0.95874 0.60884
 C154 C 0.39129 1.04620 0.67162
 O155 O 0.64444 1.02715 0.40090
 O156 O 0.59962 0.96264 0.35313
 O157 O 0.64572 0.96311 0.40027
 O158 O 0.59860 1.02671 0.35330
 O159 O 0.63853 1.02784 0.31357
 O160 O 0.68647 0.96360 0.36136
 O161 O 0.63935 0.96349 0.31319
 O162 O 0.68557 1.02784 0.36245
 Cu163 Cu 0.61810 0.99485 0.38077
 Cu164 Cu 0.66659 0.99586 0.33361
 C165 C 0.67290 1.03804 0.39045
 C166 C 0.61139 0.95235 0.32495
 C167 C 0.67417 0.95275 0.38924
 C168 C 0.61007 1.03777 0.32529
 C169 C 0.79370 0.89209 0.47007
 C170 C 0.78107 0.90540 0.50053
 C171 C 0.79371 0.89588 0.53248
 C172 C 0.82103 0.87315 0.53420
 C173 C 0.83448 0.85951 0.50356
 C174 C 0.82088 0.86912 0.47138
 C175 C 0.83397 0.85461 0.44153
 C176 C 0.85959 0.83078 0.44315
 C177 C 0.87325 0.82062 0.47468
 C178 C 0.86077 0.83534 0.50520
 C179 C 0.83445 0.86282 0.56574
 C180 C 0.86027 0.83927 0.56733
 C181 C 0.87357 0.82503 0.53746
 C182 C 0.89838 0.79978 0.53905
 C183 C 0.91054 0.78572 0.50876
 C184 C 0.89809 0.79524 0.47667
 H185 H 0.82405 0.86107 0.41661
 H186 H 0.86813 0.82001 0.41937
 H187 H 0.82475 0.87243 0.58961
 H188 H 0.86928 0.83192 0.59234
 H189 H 0.76096 0.92381 0.49935
 H190 H 0.93012 0.76680 0.51029
 C191 C 0.11534 0.21800 0.46638
 C192 C 0.10449 0.23062 0.49786
 C193 C 0.11667 0.21830 0.52897
 C194 C 0.13948 0.19127 0.52892
 C195 C 0.15053 0.17770 0.49733
 C196 C 0.13848 0.19110 0.46595
 C197 C 0.15065 0.17783 0.43508
 C198 C 0.17416 0.15198 0.43490
 C199 C 0.18638 0.13833 0.46556
 C200 C 0.17437 0.15120 0.49713
 C201 C 0.15226 0.17808 0.55958
 C202 C 0.17553 0.15211 0.55939
 C203 C 0.18698 0.13836 0.52853
 C204 C 0.21160 0.11285 0.52815
 C205 C 0.22259 0.10013 0.49684
 C206 C 0.21117 0.11290 0.46562
 H207 H 0.14258 0.18766 0.41068
 H208 H 0.18298 0.14308 0.41039
 H209 H 0.14476 0.18801 0.58411
 H210 H 0.18482 0.14326 0.58376
 H211 H 0.08553 0.25015 0.49826
 H212 H 0.24069 0.07982 0.49677
 C213 C 0.11871 0.77959 0.53165
 C214 C 0.10746 0.76715 0.50021
 C215 C 0.11968 0.77927 0.46906
 C216 C 0.14284 0.80601 0.46899
 C217 C 0.15426 0.81950 0.50052
 C218 C 0.14232 0.80619 0.53195
 C219 C 0.15493 0.81936 0.56274
 C220 C 0.17848 0.84519 0.56280
 C221 C 0.19040 0.85888 0.53209
 C222 C 0.17821 0.84593 0.50058
 C223 C 0.15553 0.81907 0.43826
 C224 C 0.17891 0.84496 0.43833
 C225 C 0.19059 0.85877 0.46913
 C226 C 0.21514 0.88437 0.46937
 C227 C 0.22630 0.89716 0.50065
 C228 C 0.21503 0.88446 0.53192
 H229 H 0.14721 0.80952 0.58721
 H230 H 0.18756 0.85404 0.58726
 H231 H 0.14780 0.80915 0.41377
 H232 H 0.18807 0.85375 0.41391
 H233 H 0.08801 0.74808 0.49979
 H234 H 0.24422 0.91763 0.50065
 C235 C 0.89261 0.20509 0.46151
 C236 C 0.90564 0.21775 0.49212
 C237 C 0.89384 0.20712 0.52402
 C238 C 0.86917 0.18156 0.52545
 C239 C 0.85616 0.16785 0.49458
 C240 C 0.86804 0.17959 0.46252
 C241 C 0.85416 0.16641 0.43235
 C242 C 0.82882 0.14233 0.43347
 C243 C 0.81642 0.13045 0.46480
 C244 C 0.83028 0.14323 0.49572
 C245 C 0.85628 0.17015 0.55678
 C246 C 0.83099 0.14595 0.55791
 C247 C 0.81753 0.13228 0.52775
 C248 C 0.79086 0.10875 0.52864
 C249 C 0.77804 0.09605 0.49792
 C250 C 0.78973 0.10695 0.46610
 H251 H 0.86240 0.17493 0.40750
 H252 H 0.81870 0.13356 0.40940
 H253 H 0.86523 0.18016 0.58080
 H254 H 0.82169 0.13847 0.58273
 H255 H 0.92533 0.23659 0.49101
 H256 H 0.75852 0.07704 0.49885
 C257 C 0.46837 0.89260 0.79140
 C258 C 0.49957 0.90519 0.77993
 C259 C 0.53082 0.89233 0.79098
 C260 C 0.53106 0.86683 0.81569
 C261 C 0.49962 0.85415 0.82825
 C262 C 0.46816 0.86725 0.81624
 C263 C 0.43743 0.85383 0.82844
 C264 C 0.43745 0.82782 0.85178
 C265 C 0.46819 0.81415 0.86372
 C266 C 0.49963 0.82749 0.85191
 C267 C 0.56179 0.85287 0.82723
 C268 C 0.56180 0.82674 0.85037
 C269 C 0.53108 0.81358 0.86289
 C270 C 0.53090 0.78616 0.88524
 C271 C 0.49974 0.77372 0.89697
 C272 C 0.46843 0.78680 0.88629
 H273 H 0.41301 0.86301 0.81970
 H274 H 0.41303 0.81814 0.85988
 H275 H 0.58619 0.86165 0.81806
 H276 H 0.58623 0.81661 0.85792
 H277 H 0.49952 0.92537 0.76165
 H278 H 0.49993 0.75356 0.91527
 C279 C 0.53564 0.20118 0.10331
 C280 C 0.50533 0.21617 0.09248
 C281 C 0.47346 0.20640 0.10515
 C282 C 0.47181 0.18014 0.12907
 C283 C 0.50246 0.16489 0.14058
 C284 C 0.53444 0.17534 0.12748
 C285 C 0.56448 0.16059 0.13985
 C286 C 0.56332 0.13648 0.16517
 C287 C 0.53205 0.12590 0.17882
 C288 C 0.50124 0.13991 0.16611
 C289 C 0.44053 0.16954 0.14277
 C290 C 0.43930 0.14479 0.16750
 C291 C 0.46930 0.12986 0.17973
 C292 C 0.46840 0.10601 0.20610
 C293 C 0.49901 0.09250 0.21819
 C294 C 0.53076 0.10252 0.20564
 H295 H 0.58930 0.16806 0.13055
 H296 H 0.58731 0.12657 0.17423
 H297 H 0.41666 0.18064 0.13495
 H298 H 0.41455 0.13796 0.17748
 H299 H 0.50664 0.23574 0.07356
 H300 H 0.49808 0.07359 0.23784
 C301 C 0.53243 0.21810 0.88760
 C302 C 0.50119 0.23003 0.89975
 C303 C 0.46992 0.21790 0.88781
 C304 C 0.46955 0.19182 0.86380
 C305 C 0.50089 0.17894 0.85142
 C306 C 0.53243 0.19212 0.86329
 C307 C 0.56303 0.17954 0.84984
 C308 C 0.56281 0.15448 0.82545
 C309 C 0.53200 0.14103 0.81344
 C310 C 0.50067 0.15335 0.82650
 C311 C 0.43870 0.17895 0.85114
 C312 C 0.43849 0.15393 0.82670
 C313 C 0.46912 0.14080 0.81400
 C314 C 0.46911 0.11619 0.78834
 C315 C 0.50026 0.10395 0.77639
 C316 C 0.53158 0.11633 0.78788
 H317 H 0.58755 0.18928 0.85755
 H318 H 0.58714 0.14610 0.81574
 H319 H 0.41434 0.18840 0.85967
 H320 H 0.41400 0.14528 0.81756
 H321 H 0.50108 0.24881 0.91954
 H322 H 0.50012 0.08413 0.75768
 C323 C 0.53010 0.79272 0.10169
 C324 C 0.49856 0.78103 0.09004
 C325 C 0.46767 0.79274 0.10313
 C326 C 0.46799 0.81851 0.12748
 C327 C 0.49971 0.83124 0.13924
 C328 C 0.53089 0.81839 0.12623
 C329 C 0.56190 0.83069 0.13902
 C330 C 0.56245 0.85483 0.16438
 C331 C 0.53200 0.86764 0.17790
 C332 C 0.50027 0.85594 0.16508
 C333 C 0.43755 0.83100 0.14129
 C334 C 0.43809 0.85530 0.16648
 C335 C 0.46911 0.86798 0.17890
 C336 C 0.46989 0.89150 0.20563
 C337 C 0.50142 0.90296 0.21757
 C338 C 0.53235 0.89098 0.20476
 H339 H 0.58612 0.82136 0.12994
 H340 H 0.58707 0.86299 0.17367
 H341 H 0.41296 0.82175 0.13308
 H342 H 0.41388 0.86358 0.17656
 H343 H 0.49800 0.76197 0.07052
 H344 H 0.50196 0.92178 0.23734
 C345 C 0.78764 0.46789 0.88495
 C346 C 0.77428 0.49815 0.89606
 C347 C 0.78114 0.52798 0.87912
 C348 C 0.80299 0.52773 0.85037
 C349 C 0.81771 0.49737 0.83939
 C350 C 0.81036 0.46744 0.85701
 C351 C 0.82496 0.43771 0.84547
 C352 C 0.84624 0.43719 0.81712
 C353 C 0.85337 0.46630 0.79886
 C354 C 0.83889 0.49672 0.80998
 C355 C 0.80952 0.55672 0.83156
 C356 C 0.82982 0.55596 0.80239
 C357 C 0.84473 0.52628 0.79117
 C358 C 0.86450 0.52495 0.76105
 C359 C 0.87860 0.49493 0.75066
 C360 C 0.87356 0.46560 0.76901
 H361 H 0.81981 0.41438 0.85801
 H362 H 0.85634 0.41349 0.80917
 H363 H 0.79838 0.58020 0.83878
 H364 H 0.83343 0.57883 0.78848
 H365 H 0.75808 0.49840 0.91848
 H366 H 0.89451 0.49465 0.72802
 C367 C 0.10867 0.53133 0.21161
 C368 C 0.09508 0.50079 0.22171
 C369 C 0.10748 0.47072 0.20906
 C370 C 0.13355 0.47099 0.18423
 C371 C 0.14726 0.50169 0.17300
 C372 C 0.13467 0.53198 0.18657
 C373 C 0.14920 0.56194 0.17558
 C374 C 0.17560 0.56229 0.15182
 C375 C 0.18865 0.53268 0.13821
 C376 C 0.17438 0.50204 0.14894
 C377 C 0.14707 0.44135 0.17125
 C378 C 0.17367 0.44169 0.14781
 C379 C 0.18774 0.47168 0.13635
 C380 C 0.21553 0.47210 0.11344
 C381 C 0.22885 0.50253 0.10276
 C382 C 0.21626 0.53277 0.11498
 H383 H 0.14063 0.58548 0.18557
 H384 H 0.18610 0.58608 0.14472
 H385 H 0.13761 0.41750 0.17948
 H386 H 0.18339 0.41807 0.13918
 H387 H 0.07429 0.50038 0.23994
 H388 H 0.24909 0.50261 0.08393
 C389 C 0.76104 0.47505 0.13789
 C390 C 0.75208 0.50459 0.12188
 C391 C 0.76957 0.53420 0.12813
 C392 C 0.79735 0.53416 0.15120
 C393 C 0.80705 0.50413 0.16754
 C394 C 0.78902 0.47434 0.16062
 C395 C 0.79875 0.44506 0.17733
 C396 C 0.82562 0.44495 0.20067
 C397 C 0.84342 0.47422 0.20848
 C398 C 0.83404 0.50415 0.19177
 C399 C 0.81478 0.56352 0.15937
 C400 C 0.84084 0.56364 0.18354
 C401 C 0.85073 0.53433 0.20014
 C402 C 0.87605 0.53453 0.22580
 C403 C 0.88561 0.50471 0.24122
 C404 C 0.86953 0.47471 0.23342
 H405 H 0.78544 0.42200 0.17270
 H406 H 0.83182 0.42179 0.21311
 H407 H 0.80790 0.58690 0.14778
 H408 H 0.85291 0.58707 0.18936
 H409 H 0.73097 0.50436 0.10391
 H410 H 0.90609 0.50493 0.25989
 C411 C 0.10982 0.46890 0.78815
 C412 C 0.09665 0.49969 0.77812
 C413 C 0.10833 0.52945 0.79222
 C414 C 0.13352 0.52864 0.81800
 C415 C 0.14693 0.49773 0.82901
 C416 C 0.13493 0.46773 0.81421
 C417 C 0.14919 0.43757 0.82512
 C418 C 0.17471 0.43678 0.84996
 C419 C 0.18710 0.46611 0.86480
 C420 C 0.17308 0.49693 0.85420
 C421 C 0.14647 0.55802 0.83221
 C422 C 0.17217 0.55725 0.85664
 C423 C 0.18586 0.52706 0.86799
 C424 C 0.21273 0.52625 0.89200
 C425 C 0.22555 0.49569 0.90275
 C426 C 0.21384 0.46566 0.88916
 H427 H 0.14114 0.41424 0.81421
 H428 H 0.18502 0.41289 0.85700
 H429 H 0.13730 0.58205 0.82416
 H430 H 0.18148 0.58071 0.86619
 H431 H 0.07647 0.50054 0.75916
 H432 H 0.24505 0.49535 0.92243
 C433 C 0.31535 0.41198 0.07467
 C434 C 0.28161 0.41092 0.07937
 C435 C 0.26495 0.43771 0.09868
 C436 C 0.23107 0.44140 0.09949
 H437 H 0.26621 0.39256 0.06628
 H438 H 0.28091 0.45645 0.11052
 H439 H 0.33002 0.43150 0.08680
 H440 H 0.21469 0.42257 0.08852
 C441 C 0.67871 0.59172 0.07147
 C442 C 0.71137 0.59429 0.08091
 C443 C 0.72472 0.57067 0.10618
 C444 C 0.75801 0.56434 0.10967
 H445 H 0.72843 0.61130 0.06803
 H446 H 0.70653 0.55549 0.11999
 H447 H 0.66266 0.57330 0.08363
 H448 H 0.77665 0.57963 0.09671
 C449 C 0.69744 0.40530 0.93908
 C450 C 0.73003 0.40466 0.92925
 C451 C 0.74297 0.43211 0.90815
 C452 C 0.77617 0.43724 0.90253
 H453 H 0.74729 0.38586 0.93883
 H454 H 0.72472 0.44994 0.89832
 H455 H 0.68125 0.42548 0.93057
 H456 H 0.79485 0.41942 0.91137
 C457 C 0.31268 0.58514 0.93246
 C458 C 0.27909 0.58672 0.92690
 C459 C 0.26231 0.55983 0.90790
 C460 C 0.22839 0.55668 0.90642
 H461 H 0.26385 0.60596 0.93871
 H462 H 0.27816 0.54074 0.89660
 H463 H 0.32719 0.56487 0.92156
 H464 H 0.21214 0.57585 0.91685
 C465 C 0.06490 0.31208 0.40824
 C466 C 0.07516 0.28065 0.40498
 C467 C 0.09610 0.26566 0.43217
 C468 C 0.10081 0.23290 0.43475
 H469 H 0.06583 0.26544 0.38416
 H470 H 0.10577 0.28169 0.45220
 H471 H 0.07339 0.32638 0.43011
 H472 H 0.09193 0.21675 0.41451
 C473 C 0.06273 0.68939 0.59285
 C474 C 0.07609 0.71986 0.59472
 C475 C 0.09628 0.73307 0.56610
 C476 C 0.10376 0.76537 0.56343
 H477 H 0.07017 0.73582 0.61617
 H478 H 0.10350 0.71623 0.54580
 H479 H 0.06777 0.67419 0.57059
 H480 H 0.09702 0.78190 0.58412
 C481 C 0.93803 0.69407 0.42241
 C482 C 0.93228 0.72649 0.41850
 C483 C 0.91450 0.74472 0.44585
 C484 C 0.91144 0.77773 0.44603
 H485 H 0.94266 0.73973 0.39681
 H486 H 0.90513 0.73077 0.46758
 H487 H 0.92826 0.68167 0.44494
 H488 H 0.91971 0.79199 0.42413
 C489 C 0.93785 0.30658 0.57752
 C490 C 0.93053 0.27455 0.58227
 C491 C 0.91117 0.25684 0.55561
 C492 C 0.90773 0.22386 0.55495
 H493 H 0.94074 0.26120 0.60400
 H494 H 0.90121 0.27119 0.53439
 H495 H 0.92825 0.31897 0.55488
 H496 H 0.91659 0.20909 0.57628
 C497 C 0.41057 0.06738 0.30679
 C498 C 0.40694 0.07371 0.27349
 C499 C 0.43377 0.09278 0.25607
 C500 C 0.43622 0.09444 0.22208
 H501 H 0.38673 0.06212 0.25882
 H502 H 0.45424 0.10308 0.27147
 H503 H 0.43187 0.07825 0.32052
 H504 H 0.41584 0.08513 0.20602
 C505 C 0.58794 0.07070 0.68909
 C506 C 0.59174 0.07880 0.72197
 C507 C 0.56514 0.09889 0.73845
 C508 C 0.56308 0.10263 0.77231
 H509 H 0.61227 0.06832 0.73706
 H510 H 0.54478 0.10867 0.72257
 H511 H 0.56640 0.08056 0.67494
 H512 H 0.58346 0.09385 0.78868
 C513 C 0.41241 0.93595 0.69151
 C514 C 0.40830 0.92880 0.72456
 C515 C 0.43467 0.90895 0.74178
 C516 C 0.43682 0.90614 0.77573
 H517 H 0.38777 0.93984 0.73916
 H518 H 0.45494 0.89856 0.72626
 H519 H 0.43400 0.92557 0.67791
 H520 H 0.41662 0.91548 0.79193
 C521 C 0.59104 0.92799 0.30600
 C522 C 0.59411 0.92275 0.27246
 C523 C 0.56727 0.90391 0.25474
 C524 C 0.56428 0.90331 0.22073
 H525 H 0.61394 0.93500 0.25791
 H526 H 0.54735 0.89261 0.27005
 H527 H 0.57005 0.91660 0.31967
 H528 H 0.58413 0.91368 0.20477
 C529 C 0.41273 0.31456 0.93108
 C530 C 0.40922 0.28238 0.92409
 C531 C 0.43549 0.26598 0.90337
 C532 C 0.43836 0.23306 0.90159
 H533 H 0.38952 0.26782 0.93638
 H534 H 0.45516 0.28121 0.89183
 H535 H 0.43362 0.32825 0.91964
 H536 H 0.41873 0.21729 0.91226
 C537 C 0.58806 0.68670 0.92174
 C538 C 0.59168 0.71916 0.91634
 C539 C 0.56518 0.73685 0.89697
 C540 C 0.56257 0.76984 0.89738
 H541 H 0.61149 0.73301 0.92938
 H542 H 0.54516 0.72245 0.88484
 H543 H 0.56699 0.67364 0.90980
 H544 H 0.58256 0.78477 0.90874
 C545 C 0.41171 0.69253 0.06748
 C546 C 0.40742 0.72498 0.07261
 C547 C 0.43392 0.74328 0.09139
 C548 C 0.43591 0.77633 0.09131
 H549 H 0.38681 0.73823 0.06018
 H550 H 0.45451 0.72923 0.10298
 H551 H 0.43345 0.68017 0.07897
 H552 H 0.41546 0.79112 0.08064
 C553 C 0.60751 0.29477 0.07690
 C554 C 0.60422 0.26195 0.07496
 C555 C 0.57594 0.24605 0.09343
 C556 C 0.56814 0.21414 0.08951
 H557 H 0.61944 0.24774 0.05712
 H558 H 0.55918 0.26147 0.10870
 H559 H 0.59089 0.30852 0.09390
 H560 H 0.58475 0.19780 0.07522
 C561 C 0.31073 0.06869 0.58566
 C562 C 0.27766 0.07601 0.58893
 C563 C 0.26098 0.09541 0.56182
 C564 C 0.22716 0.09907 0.55970
 H565 H 0.26267 0.06549 0.60947
 H566 H 0.27675 0.10500 0.54131
 H567 H 0.32479 0.07862 0.56413
 H568 H 0.21086 0.09055 0.58021
 C569 C 0.69010 0.06057 0.41120
 C570 C 0.72239 0.07025 0.40628
 C571 C 0.73944 0.08961 0.43324
 C572 C 0.77334 0.09302 0.43496
 H573 H 0.73684 0.06163 0.38444
 H574 H 0.72393 0.09930 0.45388
 H575 H 0.67705 0.06865 0.43417
 H576 H 0.78918 0.08408 0.41428
 C577 C 0.69211 0.93554 0.58933
 C578 C 0.72566 0.93046 0.59235
 C579 C 0.74333 0.91115 0.56587
 C580 C 0.77733 0.91017 0.56333
 H581 H 0.74023 0.94288 0.61212
 H582 H 0.72805 0.89929 0.54623
 H583 H 0.67838 0.92401 0.56840
 H584 H 0.79309 0.92115 0.58306
 C585 C 0.31256 0.93113 0.41122
 C586 C 0.27962 0.92310 0.40821
 C587 C 0.26376 0.90305 0.43531
 C588 C 0.23006 0.89855 0.43771
 H589 H 0.26410 0.93351 0.38796
 H590 H 0.28001 0.89372 0.45561
 H591 H 0.32712 0.92127 0.43250
 H592 H 0.21332 0.90680 0.41739
 C593 C 0.06439 0.41563 0.68642
 C594 C 0.07238 0.41167 0.71941
 C595 C 0.09127 0.43826 0.73711
 C596 C 0.09625 0.43871 0.77096
 H597 H 0.06310 0.39046 0.73357
 H598 H 0.09971 0.45929 0.72211
 H599 H 0.07323 0.43762 0.67321
 H600 H 0.08893 0.41753 0.78624
 C601 C 0.06290 0.58480 0.31246
 C602 C 0.07109 0.58893 0.27958
 C603 C 0.09017 0.56244 0.26208
 C604 C 0.09506 0.56172 0.22826
 H605 H 0.06183 0.61014 0.26538
 H606 H 0.09874 0.54154 0.27724
 H607 H 0.07169 0.56278 0.32566
 H608 H 0.08766 0.58269 0.21269
 C609 C 0.92352 0.39660 0.29447
 C610 C 0.90528 0.42201 0.30675
 C611 C 0.88556 0.44584 0.28604
 C612 C 0.88119 0.44471 0.25205
 H613 H 0.90738 0.42814 0.33361
 H614 H 0.87659 0.46748 0.29971
 H615 H 0.92170 0.38939 0.26794
 H616 H 0.88821 0.42306 0.23744
 C617 C 0.93046 0.62172 0.72720
 C618 C 0.90817 0.59776 0.71984
 C619 C 0.89143 0.57818 0.74682
 C620 C 0.87070 0.55335 0.73812
 H621 H 0.90455 0.59036 0.69344
 H622 H 0.89950 0.58107 0.77316
 H623 H 0.93353 0.62995 0.75338
 H624 H 0.86456 0.54972 0.71135
 C625 C 0.68399 0.58160 0.93232
 C626 C 0.71571 0.58591 0.92047
 C627 C 0.73190 0.55856 0.90149
 C628 C 0.76477 0.55867 0.89233
 H629 H 0.73018 0.60802 0.92654
 H630 H 0.71683 0.53652 0.89657
 H631 H 0.67069 0.55883 0.92596
 H632 H 0.78006 0.58075 0.89592
 C633 C 0.31276 0.41322 0.93799
 C634 C 0.28094 0.40753 0.92685
 C635 C 0.26396 0.43333 0.90633
 C636 C 0.23013 0.43465 0.90173
 H637 H 0.26684 0.38586 0.93504
 H638 H 0.27942 0.45383 0.89732
 H639 H 0.32543 0.43586 0.93009
 H640 H 0.21421 0.41415 0.90972
 C641 C 0.31465 0.58837 0.06815
 C642 C 0.28228 0.59255 0.07815
 C643 C 0.26593 0.56615 0.09832
 C644 C 0.23208 0.56377 0.10189
 H645 H 0.26724 0.61325 0.06896
 H646 H 0.28190 0.54632 0.10802
 H647 H 0.32834 0.56661 0.07693
 H648 H 0.21577 0.58365 0.09303
 C649 C 0.72740 0.37794 0.07185
 C650 C 0.72027 0.40319 0.09277
 C651 C 0.74714 0.42198 0.11060
 C652 C 0.73821 0.44675 0.13127
 H653 H 0.69422 0.41205 0.09484
 H654 H 0.77360 0.41869 0.10336
 H655 H 0.75309 0.36801 0.07120
 H656 H 0.71139 0.45060 0.13677
 C657 C 0.93060 0.70427 0.60500
 C658 C 0.92781 0.73726 0.60584
 C659 C 0.90967 0.75365 0.57752
 C660 C 0.91128 0.78619 0.57181
 H661 H 0.94154 0.75186 0.62461
 H662 H 0.89677 0.73820 0.55883
 H663 H 0.91738 0.69088 0.58489
 H664 H 0.92320 0.80256 0.59022
 C665 C 0.92920 0.30302 0.40292
 C666 C 0.92306 0.27068 0.39878
 C667 C 0.90441 0.25321 0.42593
 C668 C 0.90462 0.22030 0.42921
 H669 H 0.93448 0.25689 0.37798
 H670 H 0.89277 0.26791 0.44599
 H671 H 0.91834 0.31548 0.42494
 H672 H 0.91538 0.20478 0.40940
 C673 C 0.07331 0.31529 0.58444
 C674 C 0.08289 0.28394 0.58991
 C675 C 0.10297 0.26707 0.56340
 C676 C 0.10423 0.23410 0.56084
 H677 H 0.07279 0.26991 0.61123
 H678 H 0.11399 0.28196 0.54315
 H679 H 0.08271 0.32793 0.56186
 H680 H 0.09383 0.21872 0.58096
 C681 C 0.07288 0.68349 0.41430
 C682 C 0.08351 0.71447 0.40855
 C683 C 0.10446 0.73082 0.43477
 C684 C 0.10663 0.76375 0.43725
 H685 H 0.07373 0.72869 0.38718
 H686 H 0.11530 0.71568 0.45495
 H687 H 0.08206 0.67066 0.43689
 H688 H 0.09638 0.77934 0.41720
 C689 C 0.58803 0.93583 0.69129
 C690 C 0.59131 0.92895 0.72453
 C691 C 0.56435 0.90951 0.74140
 C692 C 0.56237 0.90590 0.77530
 H693 H 0.61170 0.93988 0.73949
 H694 H 0.54378 0.89988 0.72569
 H695 H 0.56665 0.92545 0.67727
 H696 H 0.58295 0.91442 0.79158
 C697 C 0.41324 0.93314 0.30664
 C698 C 0.40971 0.92647 0.27337
 C699 C 0.43660 0.90738 0.25600
 C700 C 0.43855 0.90481 0.22199
 H701 H 0.38911 0.93739 0.25871
 H702 H 0.45706 0.89716 0.27145
 H703 H 0.43489 0.92298 0.32037
 H704 H 0.41801 0.91405 0.20610
 C705 C 0.58888 0.06169 0.30658
 C706 C 0.59150 0.06722 0.27302
 C707 C 0.56455 0.08636 0.25570
 C708 C 0.56183 0.08814 0.22168
 H709 H 0.61141 0.05541 0.25820
 H710 H 0.54482 0.09758 0.27129
 H711 H 0.56781 0.07263 0.32052
 H712 H 0.58165 0.07785 0.20562
 C713 C 0.41173 0.07127 0.68956
 C714 C 0.40822 0.07876 0.72262
 C715 C 0.43479 0.09903 0.73916
 C716 C 0.43738 0.10244 0.77305
 H717 H 0.38813 0.06764 0.73774
 H718 H 0.45481 0.10924 0.72320
 H719 H 0.43293 0.08175 0.67544
 H720 H 0.41738 0.09327 0.78960
 C721 C 0.58396 0.69354 0.05978
 C722 C 0.58895 0.72569 0.06623
 C723 C 0.56294 0.74353 0.08617
 C724 C 0.56133 0.77657 0.08805
 H725 H 0.61000 0.73897 0.05469
 H726 H 0.54251 0.72912 0.09751
 H727 H 0.56181 0.68132 0.07059
 H728 H 0.58175 0.79166 0.07782
 C729 C 0.41802 0.30830 0.06812
 C730 C 0.41465 0.27567 0.07300
 C731 C 0.44219 0.25729 0.09041
 C732 C 0.44263 0.22420 0.09259
 H733 H 0.39338 0.26234 0.06181
 H734 H 0.46387 0.27116 0.10005
 H735 H 0.44018 0.32082 0.07858
 H736 H 0.42078 0.21003 0.08399
 C737 C 0.59455 0.30902 0.94127
 C738 C 0.59618 0.27833 0.92849
 C739 C 0.56713 0.26480 0.90907
 C740 C 0.56438 0.23244 0.90202
 H741 H 0.61766 0.26245 0.93449
 H742 H 0.54659 0.28146 0.90206
 H743 H 0.57221 0.32410 0.93626
 H744 H 0.58524 0.21600 0.90849
 C745 C 0.41117 0.68934 0.92880
 C746 C 0.40757 0.72164 0.92221
 C747 C 0.43385 0.73839 0.90158
 C748 C 0.43678 0.77137 0.89994
 H749 H 0.38774 0.73595 0.93458
 H750 H 0.45342 0.72323 0.88980
 H751 H 0.43224 0.67599 0.91732
 H752 H 0.41715 0.78702 0.91076
 C753 C 0.69277 0.92872 0.41037
 C754 C 0.72618 0.92277 0.40741
 C755 C 0.74363 0.90447 0.43488
 C756 C 0.77762 0.90310 0.43761
 H757 H 0.74088 0.93410 0.38711
 H758 H 0.72823 0.89440 0.45541
 H759 H 0.67895 0.91814 0.43173
 H760 H 0.79361 0.91220 0.41711
 C761 C 0.31217 0.93334 0.58834
 C762 C 0.27950 0.92465 0.59219
 C763 C 0.26361 0.90362 0.56584
 C764 C 0.22992 0.89880 0.56358
 H765 H 0.26417 0.93517 0.61248
 H766 H 0.27980 0.89402 0.54568
 H767 H 0.32649 0.92328 0.56704
 H768 H 0.21318 0.90730 0.58374
 C769 C 0.30966 0.06660 0.40975
 C770 C 0.27683 0.07463 0.40561
 C771 C 0.26027 0.09506 0.43196
 C772 C 0.22647 0.09912 0.43396
 H773 H 0.26191 0.06402 0.38501
 H774 H 0.27612 0.10486 0.45236
 H775 H 0.32359 0.07672 0.43133
 H776 H 0.21001 0.09042 0.41360
 C777 C 0.69109 0.06944 0.58791
 C778 C 0.72438 0.07594 0.59106
 C779 C 0.74141 0.09487 0.56385
 C780 C 0.77534 0.09667 0.56091
 H781 H 0.73929 0.06473 0.61133
 H782 H 0.72569 0.10521 0.54365
 H783 H 0.67713 0.07984 0.56651
 H784 H 0.79167 0.08729 0.58105
 C785 C 0.92383 0.59459 0.32025
 C786 C 0.91724 0.59609 0.28680
 C787 C 0.89435 0.57113 0.27183
 C788 C 0.89265 0.56527 0.23827
 H789 H 0.93120 0.61296 0.27044
 H790 H 0.88085 0.55466 0.28906
 H791 H 0.91078 0.57626 0.33572
 H792 H 0.90524 0.58158 0.22031
 C793 C 0.92446 0.40600 0.67627
 C794 C 0.91650 0.40401 0.70934
 C795 C 0.89218 0.42808 0.72344
 C796 C 0.89091 0.43514 0.75675
 H797 H 0.93028 0.38742 0.72618
 H798 H 0.87742 0.44297 0.70571
 H799 H 0.91166 0.42417 0.66037
 H800 H 0.90500 0.42012 0.77485
 C801 C 0.06444 0.59509 0.69850
 C802 C 0.07173 0.59479 0.73179
 C803 C 0.09091 0.56652 0.74583
 C804 C 0.09352 0.56090 0.77934
 H805 H 0.06089 0.61319 0.74875
 H806 H 0.10137 0.54847 0.72818
 H807 H 0.07399 0.57527 0.68243
 H808 H 0.08395 0.57897 0.79740
 C809 C 0.06166 0.41050 0.30517
 C810 C 0.06953 0.40869 0.27206
 C811 C 0.08927 0.43591 0.25675
 C812 C 0.09281 0.43965 0.22304
 H813 H 0.05913 0.38920 0.25612
 H814 H 0.09930 0.45494 0.27357
 H815 H 0.07118 0.43116 0.32013
 H816 H 0.08381 0.42064 0.20572
   
