data_POSCAR
  _audit_creation_date              2014-09-24
  _audit_creation_method            'ToBaCCo'
  _symmetry_space_group_name_H-M    'P1'
  _symmetry_Int_Tables_number       1
  _symmetry_cell_setting            triclinic
  loop_
  _symmetry_equiv_pos_as_xyz
 x,y,z
_cell_length_a 27.4424
_cell_length_b 27.2828
_cell_length_c 65.5734
_cell_angle_alpha 86.039400
_cell_angle_beta 90.718500
_cell_angle_gamma 120.247800
loop_
  _atom_site_label
  _atom_site_type_symbol
  _atom_site_fract_x
  _atom_site_fract_y
  _atom_site_fract_z
C1 C -0.02758 0.08489 0.52887
 H2 H 0.00997 0.08137 0.52939
 C3 C -0.03264 0.12135 0.54132
 H4 H 0.00088 0.14455 0.55174
 C5 C -0.11717 0.05686 0.51490
 H6 H -0.14955 0.03193 0.50437
 C7 C -0.12365 0.09384 0.52694
 H8 H -0.16121 0.09719 0.52550
 N9 N -0.06959 0.05319 0.51616
 C10 C -0.02990 -0.08053 0.50854
 H11 H -0.02057 -0.07565 0.49230
 C12 C -0.03001 -0.12495 0.52063
 H13 H -0.02025 -0.15388 0.51362
 C14 C -0.05769 -0.05115 0.53720
 H15 H -0.07043 -0.02379 0.54356
 C16 C -0.05848 -0.09484 0.54975
 H17 H -0.07002 -0.09921 0.56579
 Zn18 Zn -0.05285 0.00884 0.49991
 N19 N -0.04365 -0.04475 0.51697
 C20 C 0.06136 0.05823 0.48374
 N21 N 0.01348 0.06133 0.48471
 C22 C 0.00960 0.10402 0.47432
 C23 C 0.05368 0.14421 0.46151
 C24 C 0.10691 0.09798 0.47105
 C25 C -0.16115 -0.07679 0.48907
 C26 C -0.19971 -0.11619 0.47604
 C27 C -0.13480 -0.06333 0.44777
 C28 C -0.09780 -0.02539 0.46131
 N29 N -0.11068 -0.03344 0.48161
 H30 H 0.06394 0.02454 0.49243
 H31 H -0.02868 0.10590 0.47563
 H32 H 0.04925 0.17734 0.45316
 H33 H 0.14418 0.09419 0.46985
 H34 H -0.17005 -0.08287 0.50537
 H35 H -0.23717 -0.15193 0.48317
 H36 H -0.12244 -0.05335 0.43177
 H37 H -0.05757 0.00914 0.45553
 C38 C -0.04540 -0.13299 0.54147
 C39 C -0.08078 0.12697 0.54035
 C40 C -0.18606 -0.11192 0.45494
 C41 C 0.10271 0.14090 0.45942
 C42 C 1.12603 0.03254 0.13819
 H43 H 1.12110 0.06954 0.13666
 C44 C 1.16586 0.03018 0.12604
 H45 H 1.19024 0.06520 0.11485
 C46 C 1.09809 -0.05846 0.15433
 H47 H 1.07191 -0.09247 0.16559
 C48 C 1.13842 -0.06221 0.14267
 H49 H 1.14293 -0.09933 0.14516
 N50 N 1.09269 -0.01154 0.15179
 C51 C 0.95877 0.02847 0.15752
 H52 H 0.96090 0.03688 0.17349
 C53 C 0.91775 0.03082 0.14528
 H54 H 0.88855 0.04139 0.15189
 C55 C 0.99192 0.00090 0.12981
 H56 H 1.01944 -0.01273 0.12396
 C57 C 0.95161 0.00250 0.11710
 H58 H 0.94989 -0.00815 0.10141
 Zn59 Zn 1.04290 0.00082 0.16732
 N60 N 0.99473 0.01360 0.14964
 C61 C 1.09363 0.11602 0.17895
 N62 N 1.08978 0.06440 0.18221
 C63 C 1.12283 0.05603 0.19592
 C64 C 1.15983 0.09960 0.20773
 C65 C 1.13151 0.16159 0.19009
 C66 C 0.95962 -0.11305 0.17753
 C67 C 0.91870 -0.15858 0.19008
 C68 C 0.95282 -0.09970 0.21870
 C69 C 0.99254 -0.05530 0.20562
 N70 N 0.99535 -0.06258 0.18544
 H71 H 1.06817 0.12219 0.16750
 H72 H 1.11957 0.01478 0.19792
 H73 H 1.18328 0.09030 0.21919
 H74 H 1.13477 0.20258 0.18691
 H75 H 0.96183 -0.11731 0.16134
 H76 H 0.89001 -0.19823 0.18353
 H77 H 0.95024 -0.09237 0.23457
 H78 H 1.01932 -0.01434 0.21152
 C79 C 0.91327 0.01673 0.12487
 C80 C 1.17311 -0.01735 0.12827
 C81 C 0.91475 -0.15194 0.21094
 C82 C 1.16516 0.15368 0.20487
 C83 C 0.08639 0.96378 0.86056
 H84 H 0.04606 0.92465 0.86133
 C85 C 0.13047 0.96757 0.87234
 H86 H 0.12276 0.93133 0.88253
 C87 C 0.14340 1.05878 0.84674
 H88 H 0.14800 1.09391 0.83659
 C89 C 0.18933 1.06412 0.85804
 H90 H 0.22925 1.10361 0.85633
 N91 N 0.09312 1.00919 0.84837
 C92 C -0.07842 0.97845 0.84341
 H93 H -0.08410 0.97721 0.82705
 C94 C -0.11835 0.97987 0.85606
 H95 H -0.15385 0.98006 0.84883
 C96 C -0.02144 0.98606 0.87170
 H97 H 0.01702 0.99027 0.87783
 C98 C -0.06022 0.98706 0.88490
 H99 H -0.05136 0.98838 0.90102
 Zn100 Zn 0.02908 0.99597 0.83327
 N101 N -0.03052 0.98275 0.85132
 C102 C -0.04116 0.88618 0.81735
 N103 N 0.01116 0.93296 0.81802
 C104 C 0.05575 0.93764 0.80745
 C105 C 0.04845 0.89558 0.79487
 C106 C -0.05037 0.84263 0.80492
 C107 C 0.04488 1.10490 0.82308
 C108 C 0.04089 1.14590 0.81028
 C109 C 0.03682 1.09396 0.78133
 C110 C 0.04014 1.05375 0.79465
 N111 N 0.04266 1.05904 0.81516
 H112 H -0.07582 0.88307 0.82613
 H113 H 0.09702 0.97495 0.80851
 H114 H 0.08452 0.90058 0.78641
 H115 H -0.09243 0.80627 0.80401
 H116 H 0.04581 1.10757 0.83948
 H117 H 0.03905 1.18010 0.81699
 H118 H 0.03347 1.08805 0.76511
 H119 H 0.03758 1.01682 0.78856
 C120 C -0.10893 0.98627 0.87722
 C121 C 0.18314 1.01808 0.87116
 C122 C 0.03474 1.13953 0.78915
 C123 C -0.00526 0.84775 0.79319
 C124 C 0.65169 0.02483 -0.01901
 C125 C 0.67632 0.02322 -0.00038
 C126 C 0.64855 0.01585 0.01826
 C127 C 0.59395 0.00901 0.01844
 C128 C 0.56958 0.01351 -0.00031
 C129 C 0.59893 0.02222 -0.01909
 C130 C 0.57562 0.02971 -0.03739
 C131 C 0.52410 0.02805 -0.03731
 C132 C 0.49276 0.01659 -0.01901
 C133 C 0.51598 0.00971 -0.00027
 C134 C 0.56334 -0.00170 0.03680
 C135 C 0.50990 -0.00769 0.03680
 C136 C 0.48606 -0.00042 0.01853
 C137 C 0.43290 -0.00362 0.01848
 C138 C 0.41065 0.00301 -0.00014
 C139 C 0.43950 0.01318 -0.01881
 H140 H 0.59778 0.03840 -0.05192
 H141 H 0.50949 0.03629 -0.05181
 H142 H 0.58021 -0.00605 0.05138
 H143 H 0.48766 -0.01794 0.05136
 H144 H 0.71731 0.02628 -0.00038
 H145 H 0.37001 0.00070 -0.00009
 C146 C -0.07962 0.36559 0.65058
 C147 C -0.07255 0.34104 0.66902
 C148 C -0.06137 0.36839 0.68719
 C149 C -0.05850 0.42156 0.68727
 C150 C -0.06540 0.44729 0.66875
 C151 C -0.07622 0.41925 0.65035
 C152 C -0.08387 0.44541 0.63233
 C153 C -0.07705 0.49957 0.63201
 C154 C -0.06520 0.52853 0.64993
 C155 C -0.06086 0.50153 0.66860
 C156 C -0.04941 0.44937 0.70540
 C157 C -0.04602 0.50207 0.70530
 C158 C -0.05112 0.52908 0.68705
 C159 C -0.04567 0.58347 0.68664
 C160 C -0.04744 0.61055 0.66800
 C161 C -0.05688 0.58409 0.64971
 H162 H -0.09498 0.42452 0.61819
 H163 H -0.08151 0.51834 0.61754
 H164 H -0.04507 0.43048 0.71987
 H165 H -0.03854 0.52187 0.71965
 H166 H -0.07349 0.30079 0.66909
 H167 H -0.04194 0.65287 0.66775
 C168 C 0.39326 0.41231 0.31386
 C169 C 0.36309 0.38679 0.33230
 C170 C 0.38522 0.40805 0.35110
 C171 C 0.43913 0.45707 0.35175
 C172 C 0.47074 0.48347 0.33329
 C173 C 0.44788 0.46115 0.31425
 C174 C 0.47991 0.48894 0.29620
 C175 C 0.53446 0.53513 0.29687
 C176 C 0.55801 0.55748 0.31553
 C177 C 0.52533 0.53241 0.33386
 C178 C 0.46190 0.48071 0.37034
 C179 C 0.51492 0.52933 0.37084
 C180 C 0.54728 0.55596 0.35280
 C181 C 0.60157 0.60489 0.35317
 C182 C 0.63426 0.62713 0.33510
 C183 C 0.61356 0.60402 0.31641
 H184 H 0.46337 0.47535 0.28130
 H185 H 0.55775 0.55357 0.28254
 H186 H 0.43876 0.46192 0.38469
 H187 H 0.53068 0.54532 0.38560
 H188 H 0.32183 0.34873 0.33210
 H189 H 0.67631 0.66402 0.33547
 C190 C -0.09091 0.23810 0.58181
 C191 C -0.14025 0.18926 0.57613
 C192 C -0.13750 0.15389 0.56224
 C193 C -0.08546 0.16696 0.55346
 C194 C -0.03679 0.21751 0.55825
 C195 C -0.03932 0.25206 0.57239
 C196 C -0.09220 0.27247 0.59834
 C197 C -0.05222 0.33094 0.59841
 C198 C -0.04877 0.36145 0.61515
 C199 C -0.08674 0.33500 0.63186
 C200 C -0.12809 0.27730 0.63153
 C201 C -0.13061 0.24630 0.61505
 H202 H -0.17588 0.11535 0.55895
 H203 H 0.00385 0.23001 0.55137
 H204 H -0.01563 0.40555 0.61524
 H205 H -0.15738 0.25578 0.64437
 H206 H -0.00016 0.28863 0.57644
 H207 H -0.02265 0.35313 0.58572
 H208 H -0.18100 0.17767 0.58265
 H209 H -0.16124 0.20127 0.61588
 C210 C 0.78104 0.72531 0.25188
 C211 C 0.76953 0.73536 0.23156
 C212 C 0.81327 0.77345 0.21795
 C213 C 0.86929 0.80253 0.22446
 C214 C 0.88093 0.79101 0.24456
 C215 C 0.83735 0.75281 0.25810
 C216 C 0.73465 0.68904 0.26696
 C217 C 0.74060 0.65259 0.28170
 C218 C 0.69989 0.62327 0.29729
 C219 C 0.65233 0.62949 0.29837
 C220 C 0.64519 0.66435 0.28336
 C221 C 0.68593 0.69373 0.26771
 H222 H 0.80302 0.78186 0.20259
 H223 H 0.92376 0.81249 0.24994
 H224 H 0.70611 0.59674 0.30886
 H225 H 0.60905 0.67019 0.28417
 H226 H 0.84758 0.74647 0.27370
 H227 H 0.77732 0.64762 0.28139
 H228 H 0.72661 0.71440 0.22629
 H229 H 0.68055 0.72208 0.25675
 C230 C 0.31125 0.02645 -0.08778
 C231 C 0.30937 0.07592 -0.09403
 C232 C 0.26900 0.07378 -0.10776
 C233 C 0.23017 0.02235 -0.11597
 C234 C 0.23457 -0.02616 -0.11076
 C235 C 0.27387 -0.02437 -0.09668
 C236 C 0.34911 0.02670 -0.07116
 C237 C 0.36933 -0.01174 -0.07034
 C238 C 0.39940 -0.01571 -0.05355
 C239 C 0.41196 0.02019 -0.03758
 C240 C 0.39357 0.05985 -0.03865
 C241 C 0.36220 0.06280 -0.05512
 H242 H 0.26706 0.11207 -0.11132
 H243 H 0.20673 -0.06619 -0.11721
 H244 H 0.41217 -0.04743 -0.05287
 H245 H 0.40219 0.08755 -0.02638
 H246 H 0.27319 -0.06364 -0.09225
 H247 H 0.36128 -0.03954 -0.08250
 H248 H 0.33835 0.11629 -0.08801
 H249 H 0.34648 0.09200 -0.05479
 C250 C -0.05454 0.73094 0.58174
 C251 C -0.01011 0.76008 0.56716
 C252 C -0.00778 0.80326 0.55364
 C253 C -0.04961 0.81837 0.55455
 C254 C -0.09495 0.78789 0.56865
 C255 C -0.09738 0.74473 0.58208
 C256 C -0.05445 0.68926 0.59753
 C257 C -0.10507 0.63979 0.60410
 C258 C -0.10572 0.60414 0.62061
 C259 C -0.05574 0.61723 0.63072
 C260 C -0.00495 0.66549 0.62384
 C261 C -0.00422 0.70109 0.60735
 H262 H 0.02765 0.82608 0.54293
 H263 H -0.12832 0.79795 0.56948
 H264 H -0.14534 0.56727 0.62588
 H265 H 0.03387 0.67643 0.63165
 H266 H -0.13183 0.72359 0.59325
 H267 H -0.14433 0.62931 0.59672
 H268 H 0.02323 0.74998 0.56640
 H269 H 0.03524 0.73926 0.60289
 C270 C 0.27434 0.28229 0.24520
 C271 C 0.22788 0.28349 0.23632
 C272 C 0.19312 0.24271 0.22297
 C273 C 0.20472 0.20049 0.21761
 C274 C 0.25333 0.20176 0.22541
 C275 C 0.28692 0.24123 0.23925
 C276 C 0.30733 0.32100 0.26147
 C277 C 0.36383 0.33594 0.26497
 C278 C 0.39222 0.36635 0.28173
 C279 C 0.36592 0.38510 0.29482
 C280 C 0.31051 0.37238 0.29093
 C281 C 0.28137 0.34027 0.27464
 H282 H 0.15618 0.24342 0.21742
 H283 H 0.26522 0.17151 0.22117
 H284 H 0.43444 0.37434 0.28467
 H285 H 0.28901 0.38572 0.30097
 H286 H 0.32161 0.23787 0.24574
 H287 H 0.38614 0.32338 0.25503
 H288 H 0.21747 0.31529 0.23991
 H289 H 0.23772 0.32884 0.27299
 C290 C 0.78334 0.01134 -0.08361
 C291 C 0.83959 0.03006 -0.07869
 C292 C 0.87460 0.02187 -0.09150
 C293 C 0.85462 -0.00595 -0.10977
 C294 C 0.79787 -0.02436 -0.11468
 C295 C 0.76283 -0.01596 -0.10176
 C296 C 0.74622 0.01852 -0.06925
 C297 C 0.69038 -0.02556 -0.06503
 C298 C 0.65824 -0.02187 -0.04946
 C299 C 0.68137 0.02587 -0.03787
 C300 C 0.73595 0.07110 -0.04270
 C301 C 0.76791 0.06770 -0.05836
 H302 H 0.91805 0.03967 -0.08714
 H303 H 0.77920 -0.04724 -0.12809
 H304 H 0.61640 -0.05752 -0.04572
 H305 H 0.75446 0.10818 -0.03386
 H306 H 0.71957 -0.03090 -0.10600
 H307 H 0.67259 -0.06421 -0.07297
 H308 H 0.85671 0.05064 -0.06470
 H309 H 0.81031 0.10292 -0.06152
 C310 C 0.29339 -0.02098 0.08734
 C311 C 0.24489 -0.07187 0.09454
 C312 C 0.20653 -0.07113 0.10822
 C313 C 0.21614 -0.01960 0.11532
 C314 C 0.26627 0.03071 0.10906
 C315 C 0.30387 0.03016 0.09509
 C316 C 0.33097 -0.02036 0.07091
 C317 C 0.38871 0.02139 0.06955
 C318 C 0.42219 0.02620 0.05278
 C319 C 0.39942 -0.01200 0.03739
 C320 C 0.34249 -0.05503 0.03908
 C321 C 0.30857 -0.05896 0.05554
 H322 H 0.16844 -0.11076 0.11263
 H323 H 0.27617 0.07106 0.11464
 H324 H 0.46568 0.06051 0.05161
 H325 H 0.32380 -0.08456 0.02725
 H326 H 0.34011 0.07044 0.08986
 H327 H 0.40802 0.05123 0.08122
 H328 H 0.23589 -0.11235 0.08936
 H329 H 0.26425 -0.09091 0.05568
 C330 C 0.71488 0.75716 0.41623
 C331 C 0.69108 0.76202 0.43421
 C332 C 0.72348 0.80549 0.44708
 C333 C 0.78085 0.84632 0.44219
 C334 C 0.80344 0.84086 0.42368
 C335 C 0.77116 0.79722 0.41109
 C336 C 0.68159 0.71140 0.40241
 C337 C 0.70596 0.68288 0.39367
 C338 C 0.67829 0.64556 0.37848
 C339 C 0.62560 0.63580 0.37180
 C340 C 0.59983 0.66203 0.38119
 C341 C 0.62748 0.69932 0.39648
 H342 H 0.70195 0.80759 0.46037
 H343 H 0.84726 0.86778 0.41908
 H344 H 0.69891 0.62588 0.37137
 H345 H 0.55957 0.65572 0.37600
 H346 H 0.79054 0.79487 0.39718
 H347 H 0.74729 0.69082 0.39816
 H348 H 0.64741 0.73184 0.43842
 H349 H 0.60797 0.72106 0.40285
 C350 C -0.00854 0.24481 0.74982
 C351 C 0.03130 0.26897 0.76516
 C352 C 0.04580 0.23516 0.77794
 C353 C 0.02094 0.17658 0.77554
 C354 C -0.01902 0.15262 0.76025
 C355 C -0.03333 0.18625 0.74752
 C356 C -0.02341 0.28014 0.73572
 C357 C -0.07907 0.25810 0.72902
 C358 C -0.09191 0.28807 0.71386
 C359 C -0.04961 0.34104 0.70536
 C360 C 0.00542 0.36452 0.71263
 C361 C 0.01845 0.33436 0.72772
 H362 H 0.07680 0.25492 0.78955
 H363 H -0.03993 0.10748 0.75823
 H364 H -0.13454 0.26929 0.70834
 H365 H 0.03872 0.40507 0.70600
 H366 H -0.06340 0.16634 0.73566
 H367 H -0.11252 0.21699 0.73515
 H368 H 0.05093 0.31391 0.76740
 H369 H 0.06178 0.35228 0.73237
 C370 C 0.78558 0.01326 0.08511
 C371 C 0.79816 -0.03075 0.08583
 C372 C 0.83882 -0.02998 0.09901
 C373 C 0.86787 0.01478 0.11181
 C374 C 0.85410 0.05792 0.11160
 C375 C 0.81350 0.05730 0.09831
 C376 C 0.74629 0.01482 0.06965
 C377 C 0.76023 0.06598 0.05828
 C378 C 0.72691 0.06648 0.04208
 C379 C 0.67883 0.01602 0.03709
 C380 C 0.66358 -0.03483 0.04878
 C381 C 0.69698 -0.03542 0.06498
 H382 H 0.84788 -0.06430 0.09908
 H383 H 0.87589 0.09297 0.12127
 H384 H 0.73955 0.10593 0.03301
 H385 H 0.62686 -0.07422 0.04496
 H386 H 0.80433 0.09155 0.09820
 H387 H 0.79833 0.10516 0.06128
 H388 H 0.77791 -0.06491 0.07571
 H389 H 0.68492 -0.07537 0.07359
 C390 C 0.23129 0.26133 0.41622
 C391 C 0.17406 0.23325 0.41115
 C392 C 0.13284 0.19374 0.42510
 C393 C 0.14766 0.18101 0.44449
 C394 C 0.20495 0.20776 0.44947
 C395 C 0.24644 0.24770 0.43546
 C396 C 0.27441 0.30397 0.40119
 C397 C 0.32600 0.30588 0.39810
 C398 C 0.36363 0.34199 0.38238
 C399 C 0.35027 0.37674 0.36961
 C400 C 0.30002 0.37663 0.37316
 C401 C 0.26263 0.34093 0.38889
 H402 H 0.08914 0.17280 0.42066
 H403 H 0.21746 0.19887 0.46436
 H404 H 0.40205 0.34118 0.37964
 H405 H 0.28909 0.40311 0.36336
 H406 H 0.29017 0.26873 0.43983
 H407 H 0.33609 0.27765 0.40718
 H408 H 0.16106 0.24142 0.39625
 H409 H 0.22383 0.34135 0.39114
 C410 C -0.02328 0.72552 0.75112
 C411 C -0.05011 0.70695 0.77055
 C412 C -0.04539 0.74641 0.78420
 C413 C -0.01358 0.80505 0.77865
 C414 C 0.01205 0.82337 0.75908
 C415 C 0.00718 0.78418 0.74549
 C416 C -0.02736 0.68456 0.73643
 C417 C 0.01934 0.69779 0.72376
 C418 C 0.01402 0.66318 0.70818
 C419 C -0.03778 0.61425 0.70518
 C420 C -0.08377 0.59909 0.71839
 C421 C -0.07862 0.63397 0.73393
 H422 H -0.06536 0.73121 0.79923
 H423 H 0.03577 0.86826 0.75423
 H424 H 0.04981 0.67549 0.69803
 H425 H -0.12424 0.56171 0.71606
 H426 H 0.02690 0.79991 0.73044
 H427 H 0.05972 0.73577 0.72556
 H428 H -0.07377 0.66204 0.77535
 H429 H -0.11545 0.62282 0.74331
   
