data_POSCAR
  _audit_creation_date              2014-09-24
  _audit_creation_method            'ToBaCCo'
  _symmetry_space_group_name_H-M    'P1'
  _symmetry_Int_Tables_number       1
  _symmetry_cell_setting            triclinic
  loop_
  _symmetry_equiv_pos_as_xyz
 x,y,z
_cell_length_a 54.6606
_cell_length_b 54.5720
_cell_length_c 54.3981
_cell_angle_alpha 90.054800
_cell_angle_beta 90.076500
_cell_angle_gamma 90.029400
loop_
  _atom_site_label
  _atom_site_type_symbol
  _atom_site_fract_x
  _atom_site_fract_y
  _atom_site_fract_z
O1 O 0.35557 0.32253 -0.02466
 O2 O 0.32184 0.35594 0.02332
 O3 O 0.35560 0.32220 0.02307
 O4 O 0.32193 0.35640 -0.02443
 O5 O 0.29326 0.32781 -0.02480
 O6 O 0.32700 0.29353 0.02279
 O7 O 0.29318 0.32732 0.02302
 O8 O 0.32694 0.29387 -0.02502
 Cu9 Cu 0.34162 0.34216 -0.00064
 Cu10 Cu 0.30719 0.30774 -0.00104
 C11 C 0.34704 0.30249 -0.03283
 C12 C 0.30176 0.34735 0.03118
 C13 C 0.34708 0.30203 0.03085
 C14 C 0.30186 0.34797 -0.03256
 O15 O 0.64425 0.67784 -0.02437
 O16 O 0.67729 0.64384 0.02368
 O17 O 0.64382 0.67783 0.02339
 O18 O 0.67765 0.64374 -0.02406
 O19 O 0.70653 0.67214 -0.02382
 O20 O 0.67262 0.70630 0.02371
 O21 O 0.70616 0.67226 0.02400
 O22 O 0.67307 0.70630 -0.02412
 Cu23 Cu 0.65785 0.65795 -0.00038
 Cu24 Cu 0.69251 0.69213 -0.00004
 C25 C 0.65300 0.69787 -0.03226
 C26 C 0.69736 0.65224 0.03187
 C27 C 0.65243 0.69786 0.03149
 C28 C 0.69787 0.65209 -0.03185
 O29 O 0.67852 0.35559 0.97569
 O30 O 0.64461 0.32195 1.02332
 O31 O 0.67852 0.35558 1.02343
 O32 O 0.64454 0.32207 0.97556
 O33 O 0.67293 0.29321 0.97548
 O34 O 0.70698 0.32680 1.02342
 O35 O 0.67301 0.29311 1.02331
 O36 O 0.70697 0.32678 0.97560
 Cu37 Cu 0.65868 0.34170 0.99951
 Cu38 Cu 0.69284 0.30706 0.99946
 C39 C 0.69852 0.34694 0.96769
 C40 C 0.65300 0.30179 1.03127
 C41 C 0.69855 0.34695 1.03140
 C42 C 0.65292 0.30194 0.96751
 O43 O 0.35580 0.67688 1.02604
 O44 O 0.32239 0.64372 0.97756
 O45 O 0.35654 0.67709 0.97834
 O46 O 0.32182 0.64333 1.02531
 O47 O 0.29346 0.67221 1.02513
 O48 O 0.32828 0.70608 0.97807
 O49 O 0.29405 0.67263 0.97730
 O50 O 0.32750 0.70583 1.02585
 Cu51 Cu 0.34198 0.65734 1.00183
 Cu52 Cu 0.30795 0.69210 1.00156
 C53 C 0.34739 0.69703 1.03401
 C54 C 0.30252 0.65250 0.96933
 C55 C 0.34839 0.69736 0.97039
 C56 C 0.30172 0.65198 1.03307
 O57 O 0.02368 0.32155 0.35612
 O58 O -0.02376 0.35530 0.32210
 O59 O -0.02386 0.32167 0.35618
 O60 O 0.02371 0.35525 0.32218
 O61 O 0.02365 0.32652 0.29348
 O62 O -0.02400 0.29288 0.32755
 O63 O -0.02389 0.32655 0.29342
 O64 O 0.02362 0.29276 0.32748
 Cu65 Cu -0.00006 0.34133 0.34204
 Cu66 Cu -0.00018 0.30676 0.30760
 C67 C 0.03159 0.30142 0.34761
 C68 C -0.03168 0.34674 0.30192
 C69 C -0.03186 0.30155 0.34770
 C70 C 0.03160 0.34665 0.30202
 O71 O 0.02329 0.67772 0.64413
 O72 O -0.02439 0.64471 0.67844
 O73 O -0.02420 0.67814 0.64422
 O74 O 0.02315 0.64420 0.67824
 O75 O 0.02360 0.67307 0.70680
 O76 O -0.02383 0.70708 0.67270
 O77 O -0.02402 0.67360 0.70698
 O78 O 0.02374 0.70665 0.67262
 Cu79 Cu -0.00058 0.65827 0.65839
 Cu80 Cu -0.00009 0.69302 0.69266
 C81 C 0.03146 0.69782 0.65250
 C82 C -0.03217 0.65350 0.69855
 C83 C -0.03192 0.69840 0.65262
 C84 C 0.03129 0.65283 0.69831
 O85 O 1.02358 0.64488 0.32080
 O86 O 0.97609 0.67876 0.35455
 O87 O 0.97605 0.64474 0.32087
 O88 O 1.02361 0.67883 0.35453
 O89 O 1.02354 0.70735 0.32568
 O90 O 0.97590 0.67318 0.29194
 O91 O 0.97594 0.70728 0.32568
 O92 O 1.02350 0.67334 0.29188
 Cu93 Cu 0.99984 0.65894 0.34060
 Cu94 Cu 0.99971 0.69317 0.30587
 C95 C 1.03147 0.65332 0.30059
 C96 C 0.96810 0.69880 0.34590
 C97 C 0.96804 0.65312 0.30066
 C98 C 1.03152 0.69890 0.34588
 O99 O 0.97665 0.32185 0.64442
 O100 O 1.02475 0.35542 0.67780
 O101 O 1.02416 0.32121 0.64433
 O102 O 0.97726 0.35623 0.67776
 O103 O 0.97681 0.32806 0.70696
 O104 O 1.02382 0.29295 0.67343
 O105 O 1.02438 0.32722 0.70698
 O106 O 0.97622 0.29361 0.67355
 Cu107 Cu 1.00074 0.34151 0.65814
 Cu108 Cu 1.00026 0.30761 0.69317
 C109 C 0.96841 0.30200 0.65326
 C110 C 1.03258 0.34707 0.69809
 C111 C 1.03184 0.30113 0.65314
 C112 C 0.96924 0.34817 0.69807
 O113 O 0.32265 -0.02278 0.35659
 O114 O 0.35615 0.02464 0.32235
 O115 O 0.32248 0.02477 0.35625
 O116 O 0.35642 -0.02296 0.32277
 O117 O 0.32783 -0.02342 0.29396
 O118 O 0.29381 0.02440 0.32753
 O119 O 0.32755 0.02427 0.29355
 O120 O 0.29399 -0.02324 0.32785
 Cu121 Cu 0.34231 0.00095 0.34238
 Cu122 Cu 0.30791 0.00046 0.30781
 C123 C 0.30259 -0.03089 0.34811
 C124 C 0.34758 0.03238 0.30212
 C125 C 0.30235 0.03253 0.34765
 C126 C 0.34794 -0.03116 0.30266
 O127 O 0.67813 -0.02421 0.64351
 O128 O 0.64373 0.02359 0.67635
 O129 O 0.67799 0.02338 0.64304
 O130 O 0.64374 -0.02400 0.67668
 O131 O 0.67180 -0.02372 0.70600
 O132 O 0.70612 0.02375 0.67229
 O133 O 0.67181 0.02396 0.70567
 O134 O 0.70625 -0.02392 0.67277
 Cu135 Cu 0.65807 -0.00034 0.65695
 Cu136 Cu 0.69184 0.00005 0.69214
 C137 C 0.69805 -0.03204 0.65251
 C138 C 0.65188 0.03175 0.69661
 C139 C 0.69789 0.03147 0.65190
 C140 C 0.65190 -0.03177 0.69707
 O141 O 0.31995 1.02262 0.64577
 O142 O 0.35361 0.97484 0.67940
 O143 O 0.31980 0.97503 0.64555
 O144 O 0.35385 1.02244 0.67949
 O145 O 0.32540 1.02254 0.70836
 O146 O 0.29126 0.97504 0.67434
 O147 O 0.32514 0.97485 0.70825
 O148 O 0.29143 1.02271 0.67457
 Cu149 Cu 0.33967 0.99873 0.65965
 Cu150 Cu 0.30543 0.99878 0.69430
 C151 C 0.29997 1.03065 0.65441
 C152 C 0.34514 0.96688 0.69956
 C153 C 0.29972 0.96713 0.65412
 C154 C 0.34546 1.03043 0.69969
 O155 O 0.67912 1.02496 0.35584
 O156 O 0.64541 0.97708 0.32223
 O157 O 0.67928 0.97737 0.35602
 O158 O 0.64521 1.02468 0.32208
 O159 O 0.67365 1.02472 0.29320
 O160 O 0.70779 0.97732 0.32721
 O161 O 0.67386 0.97705 0.29335
 O162 O 0.70762 1.02500 0.32702
 Cu163 Cu 0.65939 1.00102 0.34195
 Cu164 Cu 0.69361 1.00103 0.30728
 C165 C 0.69912 1.03297 0.34719
 C166 C 0.65387 0.96908 0.30206
 C167 C 0.69934 0.96944 0.34743
 C168 C 0.65358 1.03259 0.30185
 O169 O 0.85649 0.82221 0.47624
 O170 O 0.82301 0.85566 0.52436
 O171 O 0.85673 0.82188 0.52400
 O172 O 0.82289 0.85610 0.47662
 O173 O 0.79419 0.82752 0.47639
 O174 O 0.82810 0.79323 0.52385
 O175 O 0.79432 0.82707 0.52420
 O176 O 0.82785 0.79357 0.47602
 Cu177 Cu 0.84267 0.84184 0.50033
 Cu178 Cu 0.80822 0.80745 0.50010
 C179 C 0.84790 0.80219 0.46809
 C180 C 0.80295 0.84709 0.53230
 C181 C 0.84821 0.80173 0.53184
 C182 C 0.80278 0.84768 0.46860
 O183 O 0.14392 0.17770 0.47694
 O184 O 0.17733 0.14385 0.52483
 O185 O 0.14348 0.17749 0.52469
 O186 O 0.17771 0.14402 0.47708
 O187 O 0.20626 0.17275 0.47745
 O188 O 0.17198 0.20627 0.52515
 O189 O 0.20588 0.17258 0.52528
 O190 O 0.17241 0.20649 0.47732
 Cu191 Cu 0.15774 0.15787 0.50084
 Cu192 Cu 0.19202 0.19243 0.50134
 C193 C 0.15243 0.19786 0.46914
 C194 C 0.19730 0.15243 0.53305
 C195 C 0.15187 0.19759 0.53287
 C196 C 0.19781 0.15265 0.46931
 O197 O 0.17723 0.85548 0.47545
 O198 O 0.14337 0.82100 0.52249
 O199 O 0.17685 0.85498 0.52313
 O200 O 0.14355 0.82155 0.47473
 O201 O 0.17224 0.79299 0.47456
 O202 O 0.20563 0.82650 0.52303
 O203 O 0.17208 0.79246 0.52240
 O204 O 0.20599 0.82699 0.47526
 Cu205 Cu 0.15734 0.84111 0.49893
 Cu206 Cu 0.19188 0.80684 0.49877
 C207 C 0.19743 0.84719 0.46759
 C208 C 0.15196 0.80089 0.53034
 C209 C 0.19692 0.84648 0.53116
 C210 C 0.15216 0.80156 0.46659
 O211 O 0.85582 0.17832 0.52372
 O212 O 0.82223 0.14482 0.47559
 O213 O 0.85607 0.17854 0.47597
 O214 O 0.82211 0.14450 0.52332
 O215 O 0.79349 0.17314 0.52340
 O216 O 0.82753 0.20726 0.47597
 O217 O 0.79363 0.17348 0.47559
 O218 O 0.82726 0.20702 0.52379
 Cu219 Cu 0.84194 0.15866 0.49964
 Cu220 Cu 0.80759 0.19312 0.49969
 C221 C 0.84728 0.19838 0.53180
 C222 C 0.80220 0.15340 0.46757
 C223 C 0.84763 0.19870 0.46807
 C224 C 0.80201 0.15298 0.53126
 O225 O 0.52430 0.82206 0.85541
 O226 O 0.47577 0.85520 0.82236
 O227 O 0.47684 0.82169 0.85650
 O228 O 0.52330 0.85570 0.82143
 O229 O 0.52294 0.82691 0.79279
 O230 O 0.47640 0.79282 0.82795
 O231 O 0.47533 0.82640 0.79374
 O232 O 0.52393 0.79321 0.82683
 Cu233 Cu 0.50008 0.84158 0.84179
 Cu234 Cu 0.49960 0.80693 0.80742
 C235 C 0.53220 0.80196 0.84679
 C236 C 0.46745 0.84648 0.80241
 C237 C 0.46891 0.80144 0.84827
 C238 C 0.53090 0.84712 0.80115
 O239 O 0.47628 0.14453 0.17765
 O240 O 0.52387 0.17822 0.14386
 O241 O 0.52380 0.14449 0.17777
 O242 O 0.47635 0.17820 0.14368
 O243 O 0.47626 0.20696 0.17234
 O244 O 0.52381 0.17319 0.20650
 O245 O 0.52386 0.20698 0.17253
 O246 O 0.47621 0.17324 0.20638
 Cu247 Cu 0.50008 0.15847 0.15785
 Cu248 Cu 0.50003 0.19300 0.19234
 C249 C 0.46830 0.15312 0.19777
 C250 C 0.53181 0.19834 0.15241
 C251 C 0.53173 0.15307 0.19794
 C252 C 0.46838 0.19832 0.15216
 O253 O 0.52345 0.14478 0.82061
 O254 O 0.47621 0.17861 0.85480
 O255 O 0.47595 0.14450 0.82126
 O256 O 0.52373 0.17873 0.85440
 O257 O 0.52332 0.20722 0.82552
 O258 O 0.47543 0.17289 0.79227
 O259 O 0.47573 0.20706 0.82587
 O260 O 0.52301 0.17321 0.79166
 Cu261 Cu 0.49989 0.15880 0.84068
 Cu262 Cu 0.49934 0.19297 0.80591
 C263 C 0.53108 0.15319 0.80029
 C264 C 0.46807 0.19860 0.84616
 C265 C 0.46769 0.15283 0.80113
 C266 C 0.53149 0.19881 0.84567
 O267 O 0.47659 0.82131 0.14585
 O268 O 0.52443 0.85547 0.17900
 O269 O 0.52410 0.82149 0.14526
 O270 O 0.47692 0.85544 0.17941
 O271 O 0.47727 0.82707 0.20840
 O272 O 0.52454 0.79303 0.17417
 O273 O 0.52486 0.82707 0.20797
 O274 O 0.47695 0.79287 0.17478
 Cu275 Cu 0.50047 0.84129 0.15946
 Cu276 Cu 0.50094 0.80713 0.19426
 C277 C 0.46878 0.80126 0.15464
 C278 C 0.53262 0.84712 0.19914
 C279 C 0.53219 0.80147 0.15385
 C280 C 0.46921 0.84708 0.19972
 O281 O 0.85535 0.52494 0.82273
 O282 O 0.82210 0.47657 0.85590
 O283 O 0.85611 0.47739 0.82230
 O284 O 0.82149 0.52417 0.85642
 O285 O 0.79302 0.52404 0.82750
 O286 O 0.82772 0.47718 0.79330
 O287 O 0.79365 0.47636 0.82696
 O288 O 0.82694 0.52480 0.79375
 Cu289 Cu 0.84162 0.50077 0.84226
 Cu290 Cu 0.80745 0.50057 0.80746
 C291 C 0.84685 0.53293 0.80257
 C292 C 0.80220 0.46840 0.84711
 C293 C 0.84788 0.46952 0.80196
 C294 C 0.80137 0.53194 0.84780
 O295 O 0.17786 0.47574 0.14403
 O296 O 0.14402 0.52347 0.17754
 O297 O 0.17786 0.52332 0.14382
 O298 O 0.14392 0.47586 0.17767
 O299 O 0.17234 0.47593 0.20663
 O300 O 0.20635 0.52347 0.17272
 O301 O 0.17246 0.52362 0.20650
 O302 O 0.20635 0.47581 0.17294
 Cu303 Cu 0.15804 0.49958 0.15786
 Cu304 Cu 0.19225 0.49971 0.19262
 C305 C 0.19789 0.46782 0.15274
 C306 C 0.15246 0.53153 0.19772
 C307 C 0.19789 0.53132 0.15248
 C308 C 0.15231 0.46797 0.19792
 O309 O 0.85540 0.47566 0.17718
 O310 O 0.82080 0.52306 0.14401
 O311 O 0.85503 0.52322 0.17740
 O312 O 0.82129 0.47547 0.14361
 O313 O 0.79304 0.47499 0.17266
 O314 O 0.82684 0.52284 0.20653
 O315 O 0.79255 0.52268 0.17307
 O316 O 0.82721 0.47518 0.20631
 Cu317 Cu 0.84097 0.49939 0.15762
 Cu318 Cu 0.80705 0.49887 0.19258
 C319 C 0.84725 0.46754 0.19742
 C320 C 0.80079 0.53081 0.15287
 C321 C 0.84672 0.53100 0.19772
 C322 C 0.80141 0.46727 0.15234
 O323 O 0.17895 0.52422 0.85552
 O324 O 0.14533 0.47640 0.82174
 O325 O 0.17914 0.47663 0.85559
 O326 O 0.14499 0.52400 0.82180
 O327 O 0.17343 0.52419 0.79292
 O328 O 0.20766 0.47673 0.82679
 O329 O 0.17379 0.47651 0.79288
 O330 O 0.20745 0.52440 0.82670
 Cu331 Cu 0.15924 0.50030 0.84156
 Cu332 Cu 0.19346 0.50047 0.80690
 C333 C 0.19894 0.53228 0.84689
 C334 C 0.15381 0.46847 0.80156
 C335 C 0.19922 0.46876 0.84698
 C336 C 0.15335 0.53200 0.80160
 C337 C 0.28830 0.36085 0.04927
 C338 C 0.27691 0.37268 0.06406
 C339 C 0.26328 0.38738 0.08120
 C340 C 0.27554 0.40359 0.09696
 C341 C 0.26222 0.41900 0.11254
 C342 C 0.23660 0.41825 0.11241
 C343 C 0.22435 0.40178 0.09693
 C344 C 0.23767 0.38637 0.08135
 C345 C 0.22289 0.43522 0.12724
 C346 C 0.21144 0.44987 0.13915
 H347 H 0.29533 0.40460 0.09691
 H348 H 0.27187 0.43175 0.12436
 H349 H 0.20455 0.40114 0.09660
 H350 H 0.22801 0.37399 0.06914
 C351 C 0.71056 0.63851 0.05000
 C352 C 0.72175 0.62651 0.06480
 C353 C 0.73520 0.61162 0.08193
 C354 C 0.76069 0.61384 0.08359
 C355 C 0.77394 0.59830 0.09910
 C356 C 0.76175 0.58048 0.11300
 C357 C 0.73623 0.57851 0.11162
 C358 C 0.72298 0.59405 0.09611
 C359 C 0.77551 0.56344 0.12769
 C360 C 0.78705 0.54875 0.13948
 H361 H 0.77033 0.62727 0.07260
 H362 H 0.79368 0.59989 0.09993
 H363 H 0.72664 0.56471 0.12219
 H364 H 0.70329 0.59209 0.09487
 C365 C 0.71205 0.36052 0.94972
 C366 C 0.72348 0.37242 0.93503
 C367 C 0.73718 0.38719 0.91803
 C368 C 0.76280 0.38703 0.91871
 C369 C 0.77612 0.40254 0.90326
 C370 C 0.76386 0.41829 0.88707
 C371 C 0.73825 0.41817 0.88611
 C372 C 0.72493 0.40265 0.90156
 C373 C 0.77750 0.43541 0.87238
 C374 C 0.78884 0.45022 0.86057
 H375 H 0.77244 0.37523 0.93146
 H376 H 0.79592 0.40257 0.90424
 H377 H 0.72859 0.43036 0.87374
 H378 H 0.70512 0.40301 0.90096
 C379 C 0.28914 0.63908 0.95106
 C380 C 0.27781 0.62730 0.93614
 C381 C 0.26419 0.61266 0.91888
 C382 C 0.23858 0.61361 0.91868
 C383 C 0.22527 0.59823 0.90302
 C384 C 0.23753 0.58185 0.88749
 C385 C 0.26315 0.58117 0.88741
 C386 C 0.27646 0.59655 0.90307
 C387 C 0.22384 0.56491 0.87257
 C388 C 0.21242 0.55025 0.86057
 H389 H 0.22891 0.62591 0.93092
 H390 H 0.20546 0.59881 0.90332
 H391 H 0.27281 0.56848 0.87556
 H392 H 0.29626 0.59557 0.90317
 C393 C 0.04953 0.28797 0.36130
 C394 C 0.06420 0.27659 0.37327
 C395 C 0.08120 0.26295 0.38811
 C396 C 0.09749 0.27530 0.40370
 C397 C 0.11297 0.26202 0.41925
 C398 C 0.11222 0.23636 0.41926
 C399 C 0.09618 0.22401 0.40340
 C400 C 0.08070 0.23729 0.38785
 C401 C 0.12700 0.22275 0.43634
 C402 C 0.13890 0.21137 0.45109
 H403 H 0.09794 0.29514 0.40413
 H404 H 0.12521 0.27175 0.43154
 H405 H 0.09536 0.20417 0.40335
 H406 H 0.06809 0.22756 0.37594
 C407 C 0.04940 0.71105 0.63862
 C408 C 0.06403 0.72226 0.62648
 C409 C 0.08097 0.73571 0.61143
 C410 C 0.09560 0.72333 0.59433
 C411 C 0.11099 0.73653 0.57865
 C412 C 0.11180 0.76215 0.58003
 C413 C 0.09744 0.77451 0.59738
 C414 C 0.08205 0.76131 0.61305
 C415 C 0.12651 0.77580 0.56293
 C416 C 0.13838 0.78725 0.54824
 H417 H 0.09481 0.70354 0.59285
 H418 H 0.12193 0.72680 0.56523
 H419 H 0.09785 0.79433 0.59852
 H420 H 0.07073 0.77107 0.62613
 C421 C 0.95022 0.71233 0.35956
 C422 C 0.93562 0.72375 0.37156
 C423 C 0.91871 0.73739 0.38649
 C424 C 0.90236 0.72504 0.40194
 C425 C 0.88699 0.73830 0.41760
 C426 C 0.88793 0.76395 0.41787
 C427 C 0.90402 0.77632 0.40215
 C428 C 0.91939 0.76306 0.38649
 C429 C 0.87325 0.77752 0.43508
 C430 C 0.86142 0.78883 0.44993
 H431 H 0.90178 0.70520 0.40217
 H432 H 0.87470 0.72855 0.42977
 H433 H 0.90497 0.79615 0.40229
 H434 H 0.93205 0.77279 0.37470
 C435 C 0.95034 0.28853 0.63972
 C436 C 0.93560 0.27711 0.62784
 C437 C 0.91857 0.26339 0.61306
 C438 C 0.90170 0.27566 0.59807
 C439 C 0.88620 0.26235 0.58253
 C440 C 0.88752 0.23672 0.58192
 C441 C 0.90413 0.22443 0.59718
 C442 C 0.91963 0.23774 0.61272
 C443 C 0.87275 0.22311 0.56476
 C444 C 0.86085 0.21177 0.54994
 H445 H 0.90082 0.29550 0.59809
 H446 H 0.87351 0.27204 0.57072
 H447 H 0.90540 0.20462 0.59675
 H448 H 0.93270 0.22808 0.62413
 C449 C 0.36112 0.05027 0.28847
 C450 C 0.37298 0.06490 0.27695
 C451 C 0.38773 0.08187 0.26318
 C452 C 0.40310 0.09837 0.27549
 C453 C 0.41856 0.11382 0.26212
 C454 C 0.41870 0.11282 0.23638
 C455 C 0.40305 0.09657 0.22406
 C456 C 0.38759 0.08113 0.23744
 C457 C 0.43569 0.12759 0.22269
 C458 C 0.45036 0.13950 0.21127
 H459 H 0.40343 0.09901 0.29540
 H460 H 0.43067 0.12623 0.27183
 H461 H 0.40309 0.09557 0.20417
 H462 H 0.37586 0.06835 0.22774
 C463 C 0.63798 0.04976 0.70974
 C464 C 0.62581 0.06449 0.72083
 C465 C 0.61071 0.08155 0.73409
 C466 C 0.61701 0.08863 0.75804
 C467 C 0.60155 0.10415 0.77138
 C468 C 0.57977 0.11263 0.76079
 C469 C 0.57365 0.10580 0.73673
 C470 C 0.58908 0.09030 0.72340
 C471 C 0.56316 0.12748 0.77487
 C472 C 0.54877 0.13947 0.78656
 H473 H 0.63364 0.08189 0.76651
 H474 H 0.60641 0.10924 0.79001
 H475 H 0.55679 0.11216 0.72841
 H476 H 0.58399 0.08485 0.70494
 C477 C 0.35876 0.94888 0.71301
 C478 C 0.37071 0.93419 0.72437
 C479 C 0.38560 0.91719 0.73795
 C480 C 0.38536 0.91748 0.76370
 C481 C 0.40103 0.90209 0.77691
 C482 C 0.41699 0.88635 0.76442
 C483 C 0.41696 0.88578 0.73867
 C484 C 0.40129 0.90117 0.72546
 C485 C 0.43424 0.87170 0.77794
 C486 C 0.44916 0.85991 0.78917
 H487 H 0.37338 0.92989 0.77354
 H488 H 0.40101 0.90277 0.79682
 H489 H 0.42932 0.87377 0.72882
 H490 H 0.40171 0.90089 0.70555
 C491 C 0.64024 0.95103 0.28861
 C492 C 0.62830 0.93629 0.27725
 C493 C 0.61349 0.91919 0.26364
 C494 C 0.59837 0.90263 0.27612
 C495 C 0.58285 0.88704 0.26291
 C496 C 0.58239 0.88795 0.23717
 C497 C 0.59778 0.90426 0.22468
 C498 C 0.61330 0.91985 0.23789
 C499 C 0.56535 0.87300 0.22366
 C500 C 0.55064 0.86093 0.21242
 H501 H 0.59828 0.90204 0.29602
 H502 H 0.57094 0.87458 0.27275
 H503 H 0.59749 0.90520 0.20479
 H504 H 0.62483 0.93267 0.22807
 C505 C 0.36071 0.28908 0.94916
 C506 C 0.37268 0.27770 0.93449
 C507 C 0.38753 0.26402 0.91752
 C508 C 0.40366 0.27628 0.90175
 C509 C 0.41915 0.26292 0.88631
 C510 C 0.41859 0.23725 0.88659
 C511 C 0.40222 0.22499 0.90211
 C512 C 0.38672 0.23835 0.91754
 C513 C 0.43557 0.22352 0.87182
 C514 C 0.45020 0.21209 0.85988
 H515 H 0.40452 0.29611 0.90168
 H516 H 0.43183 0.27257 0.87446
 H517 H 0.40172 0.20515 0.90255
 H518 H 0.37442 0.22869 0.92976
 C519 C 0.63961 0.71148 0.94965
 C520 C 0.62786 0.72298 0.93489
 C521 C 0.61323 0.73677 0.91780
 C522 C 0.59807 0.72456 0.90099
 C523 C 0.58264 0.73795 0.88549
 C524 C 0.58231 0.76359 0.88675
 C525 C 0.59776 0.77581 0.90328
 C526 C 0.61319 0.76243 0.91878
 C527 C 0.56521 0.77726 0.87204
 C528 C 0.55040 0.78861 0.86023
 H529 H 0.59787 0.70472 0.90017
 H530 H 0.57067 0.72831 0.87286
 H531 H 0.59755 0.79563 0.90449
 H532 H 0.62474 0.77205 0.93180
 C533 C 0.36099 0.71037 0.05217
 C534 C 0.37294 0.72171 0.06695
 C535 C 0.38780 0.73534 0.08400
 C536 C 0.40500 0.72318 0.09868
 C537 C 0.42057 0.73657 0.11407
 C538 C 0.41898 0.76219 0.11485
 C539 C 0.40152 0.77433 0.10045
 C540 C 0.38595 0.76093 0.08506
 C541 C 0.43603 0.77604 0.12947
 C542 C 0.45076 0.78760 0.14123
 H543 H 0.40667 0.70341 0.09790
 H544 H 0.43409 0.72701 0.12503
 H545 H 0.40022 0.79414 0.10081
 H546 H 0.37280 0.77052 0.07368
 C547 C 0.63930 0.28835 0.04922
 C548 C 0.62732 0.27700 0.06389
 C549 C 0.61247 0.26339 0.08090
 C550 C 0.59659 0.27574 0.09686
 C551 C 0.58109 0.26248 0.11237
 C552 C 0.58141 0.23680 0.11197
 C553 C 0.59752 0.22445 0.09625
 C554 C 0.61302 0.23772 0.08074
 C555 C 0.56441 0.22318 0.12680
 C556 C 0.54974 0.21180 0.13875
 H557 H 0.59593 0.29558 0.09704
 H558 H 0.56861 0.27221 0.12436
 H559 H 0.59782 0.20461 0.09571
 H560 H 0.62514 0.22798 0.06838
 C561 C 0.28656 0.04871 0.64083
 C562 C 0.27527 0.06349 0.62891
 C563 C 0.26177 0.08063 0.61409
 C564 C 0.27420 0.09672 0.59842
 C565 C 0.26105 0.11233 0.58289
 C566 C 0.23542 0.11190 0.58298
 C567 C 0.22299 0.09607 0.59893
 C568 C 0.23614 0.08046 0.61446
 C569 C 0.22193 0.12678 0.56588
 C570 C 0.21065 0.13876 0.55112
 H571 H 0.29401 0.09691 0.59790
 H572 H 0.27084 0.12441 0.57054
 H573 H 0.20318 0.09551 0.59906
 H574 H 0.22635 0.06800 0.62642
 C575 C 0.71187 0.05004 0.36005
 C576 C 0.72326 0.06482 0.37193
 C577 C 0.73690 0.08193 0.38669
 C578 C 0.72466 0.09760 0.40296
 C579 C 0.73798 0.11315 0.41844
 C580 C 0.76360 0.11309 0.41771
 C581 C 0.77584 0.09770 0.40117
 C582 C 0.76252 0.08215 0.38569
 C583 C 0.77731 0.12790 0.43475
 C584 C 0.78872 0.13981 0.44949
 H585 H 0.70486 0.09749 0.40397
 H586 H 0.72834 0.12489 0.43125
 H587 H 0.79565 0.09742 0.40054
 H588 H 0.77217 0.07003 0.37326
 C589 C 0.71182 0.94996 0.63921
 C590 C 0.72345 0.93527 0.62753
 C591 C 0.73739 0.91826 0.61297
 C592 C 0.76296 0.92000 0.61231
 C593 C 0.77643 0.90454 0.59693
 C594 C 0.76439 0.88728 0.58215
 C595 C 0.73885 0.88527 0.58311
 C596 C 0.72538 0.90074 0.59849
 C597 C 0.77811 0.87252 0.56512
 C598 C 0.78951 0.86065 0.55038
 H599 H 0.77242 0.93357 0.62334
 H600 H 0.79616 0.90633 0.59623
 H601 H 0.72935 0.87208 0.57166
 H602 H 0.70561 0.89933 0.59877
 C603 C 0.28909 0.95145 0.36210
 C604 C 0.27769 0.93715 0.37449
 C605 C 0.26405 0.92077 0.39000
 C606 C 0.25352 0.89940 0.38034
 C607 C 0.24000 0.88381 0.39559
 C608 C 0.23698 0.88958 0.42051
 C609 C 0.24758 0.91090 0.43014
 C610 C 0.26107 0.92645 0.41493
 C611 C 0.22290 0.87390 0.43635
 C612 C 0.21119 0.86136 0.45026
 H613 H 0.25569 0.89486 0.36107
 H614 H 0.23186 0.86737 0.38796
 H615 H 0.24535 0.91554 0.44938
 H616 H 0.26910 0.94294 0.42258
 C617 C 0.05066 0.36068 0.71148
 C618 C 0.06542 0.37260 0.72283
 C619 C 0.08249 0.38742 0.73644
 C620 C 0.08240 0.38692 0.76220
 C621 C 0.09790 0.40247 0.77547
 C622 C 0.11355 0.41857 0.76305
 C623 C 0.11391 0.41880 0.73730
 C624 C 0.09841 0.40325 0.72402
 C625 C 0.12833 0.43567 0.77668
 C626 C 0.14023 0.45042 0.78807
 H627 H 0.07007 0.37483 0.77199
 H628 H 0.09738 0.40223 0.79538
 H629 H 0.12585 0.43127 0.72751
 H630 H 0.09854 0.40387 0.70411
 C631 C 0.04939 0.63963 0.28714
 C632 C 0.06405 0.62764 0.27579
 C633 C 0.08104 0.61274 0.26223
 C634 C 0.08051 0.61270 0.23648
 C635 C 0.09599 0.59709 0.22331
 C636 C 0.11205 0.58147 0.23583
 C637 C 0.11284 0.58177 0.26158
 C638 C 0.09736 0.59738 0.27475
 C639 C 0.12687 0.56434 0.22234
 C640 C 0.13881 0.54957 0.21107
 H641 H 0.06787 0.62442 0.22662
 H642 H 0.09515 0.59692 0.20341
 H643 H 0.12511 0.56968 0.27145
 H644 H 0.09784 0.59717 0.29466
 C645 C 0.95075 0.36058 0.28813
 C646 C 0.93661 0.37280 0.27636
 C647 C 0.92049 0.38807 0.26215
 C648 C 0.93038 0.40590 0.24656
 C649 C 0.91495 0.42132 0.23316
 C650 C 0.88952 0.41899 0.23527
 C651 C 0.87957 0.40104 0.25073
 C652 C 0.89505 0.38559 0.26417
 C653 C 0.87386 0.43548 0.22194
 C654 C 0.86136 0.44983 0.21074
 H655 H 0.95003 0.40801 0.24491
 H656 H 0.92283 0.43517 0.22132
 H657 H 0.85993 0.39913 0.25254
 H658 H 0.88721 0.37188 0.27621
 C659 C 0.94983 0.64015 0.71223
 C660 C 0.93511 0.62842 0.72376
 C661 C 0.91805 0.61380 0.73753
 C662 C 0.91913 0.61354 0.76327
 C663 C 0.90362 0.59812 0.77662
 C664 C 0.88698 0.58292 0.76429
 C665 C 0.88562 0.58348 0.73857
 C666 C 0.90113 0.59889 0.72522
 C667 C 0.87222 0.56586 0.77791
 C668 C 0.86036 0.55108 0.78924
 H669 H 0.93223 0.62490 0.77297
 H670 H 0.90490 0.59774 0.79649
 H671 H 0.87291 0.57170 0.72885
 H672 H 0.90023 0.59886 0.70532
 C673 C 0.71065 0.63903 0.95124
 C674 C 0.72203 0.62700 0.93659
 C675 C 0.73564 0.61208 0.91959
 C676 C 0.76122 0.61364 0.91883
 C677 C 0.77454 0.59815 0.90331
 C678 C 0.76233 0.58104 0.88848
 C679 C 0.73674 0.57972 0.88900
 C680 C 0.72342 0.59520 0.90452
 C681 C 0.77609 0.56416 0.87358
 C682 C 0.78763 0.54965 0.86155
 H683 H 0.77086 0.62654 0.93049
 H684 H 0.79433 0.59927 0.90315
 H685 H 0.72712 0.56649 0.87769
 H686 H 0.70366 0.59376 0.90503
 C687 C 0.28916 0.36105 0.95048
 C688 C 0.27785 0.37311 0.93578
 C689 C 0.26430 0.38804 0.91873
 C690 C 0.27666 0.40414 0.90299
 C691 C 0.26345 0.41968 0.88744
 C692 C 0.23782 0.41920 0.88756
 C693 C 0.22547 0.40285 0.90305
 C694 C 0.23868 0.38731 0.91860
 C695 C 0.22421 0.43622 0.87265
 C696 C 0.21280 0.45087 0.86065
 H697 H 0.29647 0.40494 0.90302
 H698 H 0.27319 0.43232 0.87562
 H699 H 0.20565 0.40240 0.90338
 H700 H 0.22893 0.37502 0.93077
 C701 C 0.28864 0.63905 0.04983
 C702 C 0.27705 0.62707 0.06436
 C703 C 0.26329 0.61215 0.08123
 C704 C 0.23766 0.61251 0.08071
 C705 C 0.22431 0.59693 0.09610
 C706 C 0.23653 0.58094 0.11207
 C707 C 0.26215 0.58083 0.11283
 C708 C 0.27550 0.59641 0.09745
 C709 C 0.22284 0.56391 0.12686
 C710 C 0.21142 0.54925 0.13881
 H711 H 0.22802 0.62452 0.06815
 H712 H 0.20450 0.59709 0.09527
 H713 H 0.27180 0.56846 0.12503
 H714 H 0.29531 0.59589 0.09793
 C715 C 0.71139 0.35981 0.04846
 C716 C 0.72282 0.37170 0.06323
 C717 C 0.73646 0.38649 0.08037
 C718 C 0.72413 0.40178 0.09694
 C719 C 0.73736 0.41728 0.11256
 C720 C 0.76298 0.41755 0.11168
 C721 C 0.77532 0.40198 0.09538
 C722 C 0.76208 0.38649 0.07975
 C723 C 0.77656 0.43458 0.12663
 C724 C 0.78792 0.44928 0.13865
 H725 H 0.70432 0.40202 0.09749
 H726 H 0.72763 0.42932 0.12501
 H727 H 0.79511 0.40212 0.09446
 H728 H 0.77180 0.37482 0.06694
 C729 C 0.95122 0.71122 0.63957
 C730 C 0.93661 0.72263 0.62753
 C731 C 0.91966 0.73628 0.61259
 C732 C 0.90403 0.72397 0.59628
 C733 C 0.88858 0.73728 0.58072
 C734 C 0.88868 0.76295 0.58140
 C735 C 0.90405 0.77524 0.59795
 C736 C 0.91951 0.76194 0.61351
 C737 C 0.87385 0.77665 0.56438
 C738 C 0.86189 0.78811 0.54973
 H739 H 0.90407 0.70414 0.59533
 H740 H 0.87685 0.72758 0.56791
 H741 H 0.90436 0.79509 0.59856
 H742 H 0.93159 0.77165 0.62597
 C743 C 0.95119 0.28884 0.36073
 C744 C 0.93653 0.27749 0.37274
 C745 C 0.91953 0.26389 0.38764
 C746 C 0.91960 0.23822 0.38705
 C747 C 0.90406 0.22497 0.40254
 C748 C 0.88838 0.23733 0.41870
 C749 C 0.88808 0.26301 0.41905
 C750 C 0.90361 0.27626 0.40355
 C751 C 0.87344 0.22370 0.43564
 C752 C 0.86138 0.21228 0.45023
 H753 H 0.93191 0.22847 0.37490
 H754 H 0.90454 0.20513 0.40219
 H755 H 0.87611 0.27276 0.43156
 H756 H 0.90348 0.29610 0.40425
 C757 C 0.04862 0.28797 0.64034
 C758 C 0.06317 0.27633 0.62847
 C759 C 0.08008 0.26250 0.61368
 C760 C 0.09768 0.27467 0.59951
 C761 C 0.11315 0.26135 0.58400
 C762 C 0.11109 0.23579 0.58258
 C763 C 0.09371 0.22358 0.59701
 C764 C 0.07824 0.23691 0.61252
 C765 C 0.12600 0.22223 0.56554
 C766 C 0.13806 0.21094 0.55084
 H767 H 0.09918 0.29446 0.60016
 H768 H 0.12644 0.27098 0.57284
 H769 H 0.09188 0.20384 0.59598
 H770 H 0.06462 0.22732 0.62330
 C771 C 0.04853 0.71173 0.35876
 C772 C 0.06328 0.72314 0.37067
 C773 C 0.08040 0.73675 0.38548
 C774 C 0.09680 0.72437 0.40090
 C775 C 0.11242 0.73759 0.41640
 C776 C 0.11170 0.76326 0.41656
 C777 C 0.09555 0.77565 0.40087
 C778 C 0.07994 0.76242 0.38537
 C779 C 0.12661 0.77682 0.43365
 C780 C 0.13858 0.78814 0.44844
 H781 H 0.09723 0.70452 0.40122
 H782 H 0.12473 0.72782 0.42855
 H783 H 0.09475 0.79548 0.40093
 H784 H 0.06725 0.77218 0.37361
 C785 C 0.63805 0.95035 0.71046
 C786 C 0.62593 0.93571 0.72173
 C787 C 0.61092 0.91872 0.73521
 C788 C 0.61353 0.91660 0.76075
 C789 C 0.59803 0.90110 0.77403
 C790 C 0.57984 0.88766 0.76183
 C791 C 0.57745 0.88952 0.73625
 C792 C 0.59296 0.90502 0.72297
 C793 C 0.56299 0.87279 0.77564
 C794 C 0.54853 0.86081 0.78727
 H795 H 0.62729 0.92719 0.77042
 H796 H 0.59998 0.89988 0.79381
 H797 H 0.56339 0.87929 0.72663
 H798 H 0.59070 0.90659 0.70324
 C799 C 0.36168 0.95084 0.28929
 C800 C 0.37371 0.93612 0.27804
 C801 C 0.38864 0.91903 0.26456
 C802 C 0.40476 0.90347 0.27711
 C803 C 0.42029 0.88788 0.26397
 C804 C 0.41977 0.88779 0.23821
 C805 C 0.40340 0.90309 0.22567
 C806 C 0.38787 0.91868 0.23882
 C807 C 0.43677 0.87284 0.22467
 C808 C 0.45138 0.86081 0.21329
 H809 H 0.40558 0.90367 0.29701
 H810 H 0.43294 0.87620 0.27385
 H811 H 0.40292 0.90324 0.20576
 H812 H 0.37556 0.93070 0.22892
 C813 C 0.63977 0.05041 0.28832
 C814 C 0.62766 0.06498 0.27693
 C815 C 0.61264 0.08187 0.26332
 C816 C 0.59617 0.09717 0.27572
 C817 C 0.58057 0.11259 0.26244
 C818 C 0.58137 0.11277 0.23669
 C819 C 0.59807 0.09772 0.22430
 C820 C 0.61367 0.08230 0.23759
 C821 C 0.56433 0.12754 0.22299
 C822 C 0.54966 0.13946 0.21154
 H823 H 0.59512 0.09690 0.29561
 H824 H 0.56766 0.12407 0.27220
 H825 H 0.59877 0.09762 0.20440
 H826 H 0.62624 0.07046 0.22781
 C827 C 0.35920 0.04837 0.71317
 C828 C 0.37125 0.06307 0.72449
 C829 C 0.38621 0.08013 0.73802
 C830 C 0.39806 0.09934 0.72577
 C831 C 0.41371 0.11504 0.73871
 C832 C 0.41757 0.11159 0.76394
 C833 C 0.40546 0.09259 0.77624
 C834 C 0.38982 0.07689 0.76331
 C835 C 0.43478 0.12677 0.77700
 C836 C 0.44960 0.13897 0.78798
 H837 H 0.39549 0.10194 0.70620
 H838 H 0.42307 0.12960 0.72899
 H839 H 0.40841 0.08967 0.79572
 H840 H 0.38085 0.06203 0.77294
 C841 C 0.63880 0.71139 0.04946
 C842 C 0.62688 0.72278 0.06420
 C843 C 0.61211 0.73637 0.08134
 C844 C 0.61274 0.76204 0.08134
 C845 C 0.59738 0.77528 0.09704
 C846 C 0.58132 0.76290 0.11280
 C847 C 0.58093 0.73723 0.11303
 C848 C 0.59629 0.72399 0.09733
 C849 C 0.56449 0.77652 0.12787
 C850 C 0.54997 0.78792 0.14002
 H851 H 0.62481 0.77180 0.06896
 H852 H 0.59774 0.79512 0.09661
 H853 H 0.56850 0.72747 0.12504
 H854 H 0.59556 0.70415 0.09739
 C855 C 0.36072 0.28837 0.04873
 C856 C 0.37268 0.27685 0.06334
 C857 C 0.38753 0.26308 0.08028
 C858 C 0.40137 0.27528 0.09822
 C859 C 0.41693 0.26202 0.11372
 C860 C 0.41871 0.23651 0.11136
 C861 C 0.40461 0.22428 0.09365
 C862 C 0.38905 0.23754 0.07815
 C863 C 0.43577 0.22303 0.12631
 C864 C 0.45045 0.21174 0.13838
 H865 H 0.40042 0.29503 0.09996
 H866 H 0.42783 0.27168 0.12727
 H867 H 0.40592 0.20458 0.09157
 H868 H 0.37852 0.22793 0.06427
 C869 C 0.63921 0.28860 0.94940
 C870 C 0.62720 0.27737 0.93457
 C871 C 0.61230 0.26395 0.91736
 C872 C 0.59520 0.27634 0.90274
 C873 C 0.57967 0.26318 0.88709
 C874 C 0.58118 0.23757 0.88600
 C875 C 0.59853 0.22521 0.90035
 C876 C 0.61406 0.23837 0.91600
 C877 C 0.56416 0.22393 0.87111
 C878 C 0.54947 0.21248 0.85918
 H879 H 0.59360 0.29611 0.90373
 H880 H 0.56624 0.27292 0.87617
 H881 H 0.59977 0.20540 0.89975
 H882 H 0.62713 0.22859 0.92731
 C883 C 0.36257 0.71088 0.95286
 C884 C 0.37511 0.72224 0.93864
 C885 C 0.39080 0.73575 0.92229
 C886 C 0.38153 0.74586 0.90050
 C887 C 0.39695 0.75916 0.88487
 C888 C 0.42167 0.76237 0.89100
 C889 C 0.43089 0.75221 0.91275
 C890 C 0.41551 0.73894 0.92834
 C891 C 0.43767 0.77621 0.87524
 C892 C 0.45164 0.78776 0.86260
 H893 H 0.36245 0.74352 0.89565
 H894 H 0.38962 0.76696 0.86811
 H895 H 0.44996 0.75459 0.91769
 H896 H 0.42287 0.73123 0.94514
 C897 C 0.71290 0.95156 0.36115
 C898 C 0.72429 0.93691 0.37316
 C899 C 0.73788 0.91987 0.38806
 C900 C 0.76351 0.92003 0.38761
 C901 C 0.77672 0.90445 0.40312
 C902 C 0.76436 0.88864 0.41915
 C903 C 0.73873 0.88824 0.41936
 C904 C 0.72552 0.90382 0.40385
 C905 C 0.77794 0.87363 0.43612
 C906 C 0.78929 0.86152 0.45073
 H907 H 0.77326 0.93244 0.37555
 H908 H 0.79653 0.90499 0.40288
 H909 H 0.72898 0.87617 0.43175
 H910 H 0.70571 0.90362 0.40443
 C911 C 0.28613 0.94927 0.64036
 C912 C 0.27471 0.93468 0.62827
 C913 C 0.26107 0.91776 0.61325
 C914 C 0.23556 0.91966 0.61172
 C915 C 0.22242 0.90420 0.59598
 C916 C 0.23475 0.88677 0.58169
 C917 C 0.26023 0.88462 0.58349
 C918 C 0.27337 0.90008 0.59924
 C919 C 0.22139 0.87195 0.56436
 C920 C 0.21021 0.86003 0.54943
 H921 H 0.22587 0.93334 0.62238
 H922 H 0.20274 0.90610 0.59465
 H923 H 0.26997 0.87129 0.57245
 H924 H 0.29311 0.89853 0.60019
 C925 C 0.28875 0.05042 0.36130
 C926 C 0.27726 0.06500 0.37331
 C927 C 0.26351 0.08187 0.38824
 C928 C 0.27569 0.09797 0.40417
 C929 C 0.26231 0.11332 0.41977
 C930 C 0.23668 0.11261 0.41951
 C931 C 0.22450 0.09676 0.40332
 C932 C 0.23788 0.08142 0.38772
 C933 C 0.22293 0.12730 0.43660
 C934 C 0.21144 0.13913 0.45132
 H935 H 0.29550 0.09838 0.40482
 H936 H 0.27191 0.12542 0.43229
 H937 H 0.20469 0.09598 0.40305
 H938 H 0.22827 0.06895 0.37557
 C939 C 0.71155 0.04935 0.63828
 C940 C 0.72303 0.06398 0.62635
 C941 C 0.73675 0.08098 0.61155
 C942 C 0.72451 0.09770 0.59637
 C943 C 0.73782 0.11326 0.58093
 C944 C 0.76343 0.11217 0.58061
 C945 C 0.77568 0.09568 0.59605
 C946 C 0.76237 0.08012 0.61148
 C947 C 0.77706 0.12714 0.56369
 C948 C 0.78847 0.13921 0.54911
 H949 H 0.70470 0.09845 0.59619
 H950 H 0.72815 0.12585 0.56899
 H951 H 0.79547 0.09459 0.59587
 H952 H 0.77203 0.06718 0.62305
 C953 C 0.95010 0.63932 0.28723
 C954 C 0.93543 0.62723 0.27591
 C955 C 0.91842 0.61223 0.26238
 C956 C 0.91866 0.61237 0.23662
 C957 C 0.90313 0.59673 0.22346
 C958 C 0.88731 0.58088 0.23600
 C959 C 0.88683 0.58099 0.26176
 C960 C 0.90235 0.59663 0.27492
 C961 C 0.87240 0.56376 0.22250
 C962 C 0.86040 0.54902 0.21118
 H963 H 0.93109 0.62426 0.22673
 H964 H 0.90375 0.59671 0.20356
 H965 H 0.87475 0.56873 0.27165
 H966 H 0.90209 0.59629 0.29483
 C967 C 0.95169 0.36244 0.71145
 C968 C 0.93743 0.37506 0.72266
 C969 C 0.92100 0.39082 0.73597
 C970 C 0.92404 0.41627 0.73469
 C971 C 0.90855 0.43177 0.74795
 C972 C 0.88992 0.42190 0.76258
 C973 C 0.88677 0.39644 0.76379
 C974 C 0.90229 0.38091 0.75050
 C975 C 0.87445 0.43805 0.77658
 C976 C 0.86202 0.45212 0.78822
 H977 H 0.93847 0.42413 0.72356
 H978 H 0.91120 0.45142 0.74691
 H979 H 0.87245 0.38861 0.77508
 H980 H 0.89981 0.36125 0.75166
 C981 C 0.04921 0.63914 0.71184
 C982 C 0.06390 0.62717 0.72321
 C983 C 0.08097 0.61232 0.73679
 C984 C 0.09728 0.59693 0.72429
 C985 C 0.11293 0.58148 0.73748
 C986 C 0.11234 0.58136 0.76323
 C987 C 0.09627 0.59699 0.77574
 C988 C 0.08062 0.61244 0.76255
 C989 C 0.12739 0.56443 0.77678
 C990 C 0.13952 0.54984 0.78812
 H991 H 0.09763 0.59659 0.70438
 H992 H 0.12519 0.56938 0.72761
 H993 H 0.09557 0.59696 0.79564
 H994 H 0.06801 0.62417 0.77240
 C995 C 0.04943 0.36031 0.28838
 C996 C 0.06397 0.37229 0.27683
 C997 C 0.08079 0.38716 0.26298
 C998 C 0.07807 0.38930 0.23746
 C999 C 0.09349 0.40483 0.22413
 C1000 C 0.11169 0.41831 0.23626
 C1001 C 0.11463 0.41592 0.26174
 C1002 C 0.09921 0.40037 0.27507
 C1003 C 0.12658 0.43537 0.22273
 C1004 C 0.13859 0.45005 0.21139
 H1005 H 0.06381 0.37926 0.22793
 H1006 H 0.09098 0.40662 0.20445
 H1007 H 0.12858 0.42633 0.27133
 H1008 H 0.10141 0.39895 0.29482
   
