data_POSCAR
  _audit_creation_date              2014-09-24
  _audit_creation_method            'ToBaCCo'
  _symmetry_space_group_name_H-M    'P1'
  _symmetry_Int_Tables_number       1
  _symmetry_cell_setting            triclinic
  loop_
  _symmetry_equiv_pos_as_xyz
 x,y,z
_cell_length_a 38.6838
_cell_length_b 38.4635
_cell_length_c 37.6002
_cell_angle_alpha 89.485400
_cell_angle_beta 92.507200
_cell_angle_gamma 86.875800
loop_
  _atom_site_label
  _atom_site_type_symbol
  _atom_site_fract_x
  _atom_site_fract_y
  _atom_site_fract_z
N1 N 0.31245 0.22427 0.19086
 N2 N 0.29684 0.25340 0.17846
 C3 C 0.31176 0.26272 0.14830
 C4 C 0.33807 0.23802 0.14161
 C5 C 0.33773 0.21412 0.16914
 H6 H 0.30377 0.28545 0.13227
 H7 H 0.35441 0.19075 0.17274
 Cu8 Cu 0.25802 0.27577 0.20260
 Cu9 Cu 0.29826 0.20075 0.23343
 Cu10 Cu 0.22846 0.23858 0.27594
 N11 N 0.21790 0.29599 0.22640
 N12 N 0.20702 0.28141 0.25529
 C13 C 0.17882 0.29966 0.26602
 C14 C 0.17137 0.32724 0.24253
 C15 C 0.19673 0.32414 0.21771
 H16 H 0.16442 0.29271 0.28875
 H17 H 0.19908 0.34080 0.19472
 N18 N 0.25336 0.19522 0.29297
 N19 N 0.28007 0.18082 0.27684
 C20 C 0.29073 0.15103 0.29411
 C21 C 0.26962 0.14638 0.32225
 C22 C 0.24623 0.17493 0.32082
 H23 H 0.31185 0.13350 0.28645
 H24 H 0.22530 0.18035 0.33840
 H25 H 0.24717 0.21936 0.22877
 H26 H 0.27738 0.24457 0.25735
 N27 N 0.69644 -0.24067 0.21061
 N28 N 0.71140 -0.27044 0.20106
 C29 C 0.69250 -0.28355 0.17388
 C30 C 0.66431 -0.26051 0.16585
 C31 C 0.66757 -0.23380 0.18990
 H32 H 0.69947 -0.30736 0.16030
 H33 H 0.65071 -0.21053 0.19138
 Cu34 Cu 0.75531 -0.28784 0.22362
 Cu35 Cu 0.71687 -0.21156 0.24724
 Cu36 Cu 0.79459 -0.24289 0.28841
 N37 N 0.79895 -0.30525 0.24680
 N38 N 0.81388 -0.28763 0.27244
 C39 C 0.84425 -0.30416 0.28280
 C40 C 0.84878 -0.33374 0.26235
 C41 C 0.81941 -0.33371 0.23999
 H42 H 0.86206 -0.29461 0.30290
 H43 H 0.81398 -0.35251 0.21958
 N44 N 0.77106 -0.19815 0.30072
 N45 N 0.74163 -0.18605 0.28491
 C46 C 0.73297 -0.15449 0.29819
 C47 C 0.75827 -0.14638 0.32348
 C48 C 0.78184 -0.17464 0.32449
 H49 H 0.71012 -0.13858 0.28987
 H50 H 0.80537 -0.17755 0.34110
 H51 H 0.76781 -0.22881 0.24128
 H52 H 0.74343 -0.25182 0.27525
 N53 N 0.71248 0.23827 0.79825
 N54 N 0.72701 0.26692 0.80822
 C55 C 0.71309 0.27822 0.83850
 C56 C 0.68852 0.25556 0.84793
 C57 C 0.68869 0.23045 0.82176
 H58 H 0.72051 0.30105 0.85292
 H59 H 0.67320 0.20792 0.82016
 Cu60 Cu 0.76339 0.28677 0.78174
 Cu61 Cu 0.72633 0.21278 0.75627
 Cu62 Cu 0.79559 0.24278 0.71222
 N63 N 0.80419 0.30099 0.75816
 N64 N 0.81691 0.28340 0.73147
 C65 C 0.84577 0.29795 0.72129
 C66 C 0.85151 0.32618 0.74271
 C67 C 0.82451 0.32752 0.76584
 H68 H 0.86172 0.28846 0.70012
 H69 H 0.82034 0.34575 0.78715
 N70 N 0.77072 0.20213 0.69650
 N71 N 0.74426 0.19063 0.71324
 C72 C 0.73323 0.16222 0.69644
 C73 C 0.75373 0.15557 0.66787
 C74 C 0.77723 0.18141 0.66863
 H75 H 0.71205 0.14716 0.70448
 H76 H 0.79775 0.18475 0.65052
 H77 H 0.77665 0.22804 0.76070
 H78 H 0.74592 0.25376 0.72940
 N79 N 0.28103 -0.24854 0.79793
 N80 N 0.26282 -0.27520 0.80584
 C81 C 0.27570 -0.28986 0.83660
 C82 C 0.30351 -0.27148 0.84859
 C83 C 0.30623 -0.24539 0.82336
 H84 H 0.26535 -0.31200 0.84958
 H85 H 0.32467 -0.22525 0.82369
 Cu86 Cu 0.22357 -0.28796 0.77582
 Cu87 Cu 0.26966 -0.21910 0.75607
 Cu88 Cu 0.19272 -0.23409 0.70954
 N89 N 0.17793 -0.29233 0.75344
 N90 N 0.16600 -0.27139 0.72739
 C91 C 0.13402 -0.28025 0.71679
 C92 C 0.12539 -0.30813 0.73741
 C93 C 0.15394 -0.31517 0.76049
 H94 H 0.11810 -0.26731 0.69575
 H95 H 0.15721 -0.33521 0.78088
 N96 N 0.22355 -0.19772 0.69568
 N97 N 0.25313 -0.19228 0.71305
 C98 C 0.26803 -0.16568 0.69726
 C99 C 0.24671 -0.15372 0.66883
 C100 C 0.21876 -0.17467 0.66853
 H101 H 0.29233 -0.15529 0.70605
 H102 H 0.19651 -0.17323 0.65007
 H103 H 0.21743 -0.22682 0.75873
 H104 H 0.24190 -0.25357 0.72589
 N105 N 0.68135 -0.22253 0.80845
 N106 N 0.69696 -0.25264 0.81778
 C107 C 0.68280 -0.26474 0.84718
 C108 C 0.65687 -0.24084 0.85675
 C109 C 0.65665 -0.21445 0.83157
 H110 H 0.69099 -0.28899 0.86055
 H111 H 0.63991 -0.19096 0.83041
 Cu112 Cu 0.73450 -0.27312 0.79104
 Cu113 Cu 0.69473 -0.19592 0.76749
 Cu114 Cu 0.76724 -0.22762 0.72460
 N115 N 0.77796 -0.28768 0.77049
 N116 N 0.79055 -0.27017 0.74429
 C117 C 0.82098 -0.28581 0.73557
 C118 C 0.82777 -0.31463 0.75775
 C119 C 0.79992 -0.31497 0.77949
 H120 H 0.83704 -0.27640 0.71515
 H121 H 0.79619 -0.33351 0.80061
 N122 N 0.73992 -0.18496 0.70904
 N123 N 0.71242 -0.17285 0.72555
 C124 C 0.70035 -0.14279 0.70978
 C125 C 0.72117 -0.13559 0.68211
 C126 C 0.74602 -0.16289 0.68227
 H127 H 0.67839 -0.12680 0.71816
 H128 H 0.76739 -0.16606 0.66481
 H129 H 0.71754 -0.23634 0.73928
 H130 H 0.74604 -0.21428 0.77247
 N131 N 0.28816 0.24923 0.78678
 N132 N 0.26832 0.27497 0.79870
 C133 C 0.28128 0.28484 0.83058
 C134 C 0.31088 0.26426 0.83905
 C135 C 0.31465 0.24194 0.81056
 H136 H 0.26984 0.30529 0.84659
 H137 H 0.33475 0.22170 0.80739
 Cu138 Cu 0.22720 0.29294 0.77183
 Cu139 Cu 0.27770 0.22732 0.74139
 Cu140 Cu 0.19218 0.24127 0.71000
 N141 N 0.17954 0.30052 0.75449
 N142 N 0.16563 0.27992 0.73082
 C143 C 0.13229 0.29073 0.72410
 C144 C 0.12498 0.31954 0.74471
 C145 C 0.15561 0.32508 0.76373
 H146 H 0.11464 0.27870 0.70546
 H147 H 0.16028 0.34526 0.78290
 N148 N 0.22376 0.20394 0.69228
 N149 N 0.25641 0.19908 0.70383
 C150 C 0.27099 0.17150 0.68720
 C151 C 0.24628 0.15842 0.66398
 C152 C 0.21678 0.17966 0.66779
 H153 H 0.29741 0.16144 0.69220
 H154 H 0.19191 0.17712 0.65407
 H155 H 0.23973 0.26141 0.71678
 H156 H 0.22668 0.23263 0.75341
 N157 N 0.30337 -0.25075 0.20884
 N158 N 0.28790 -0.27824 0.19707
 C159 C 0.30338 -0.28972 0.16763
 C160 C 0.32980 -0.26821 0.16061
 C161 C 0.32910 -0.24376 0.18739
 H162 H 0.29557 -0.31158 0.15188
 H163 H 0.34554 -0.22211 0.19076
 Cu164 Cu 0.24793 -0.29525 0.22020
 Cu165 Cu 0.28801 -0.22493 0.24989
 Cu166 Cu 0.21517 -0.25193 0.29011
 N167 N 0.20624 -0.30911 0.24244
 N168 N 0.19353 -0.29223 0.26962
 C169 C 0.16438 -0.30689 0.27902
 C170 C 0.15850 -0.33441 0.25640
 C171 C 0.18554 -0.33502 0.23359
 H172 H 0.14851 -0.29782 0.30037
 H173 H 0.18949 -0.35284 0.21188
 N174 N 0.24087 -0.21176 0.30691
 N175 N 0.26884 -0.20186 0.29165
 C176 C 0.28014 -0.17351 0.30826
 C177 C 0.25818 -0.16501 0.33530
 C178 C 0.23360 -0.18980 0.33369
 H179 H 0.30225 -0.15967 0.30062
 H180 H 0.21170 -0.19125 0.35045
 H181 H 0.26445 -0.26527 0.27481
 H182 H 0.23635 -0.23698 0.24341
 N183 N 0.71973 0.25043 0.18666
 N184 N 0.73590 0.27716 0.17496
 C185 C 0.72179 0.28707 0.14279
 C186 C 0.69539 0.26549 0.13403
 C187 C 0.69480 0.24248 0.16248
 H188 H 0.73026 0.30812 0.12664
 H189 H 0.67810 0.22108 0.16514
 Cu190 Cu 0.77418 0.29584 0.20269
 Cu191 Cu 0.73329 0.22666 0.23134
 Cu192 Cu 0.80247 0.25798 0.28064
 N193 N 0.81346 0.31266 0.23029
 N194 N 0.82411 0.29808 0.26089
 C195 C 0.85190 0.31424 0.27386
 C196 C 0.85917 0.34018 0.25012
 C197 C 0.83420 0.33852 0.22274
 H198 H 0.86634 0.30717 0.29837
 H199 H 0.83160 0.35453 0.19891
 N200 N 0.77711 0.21761 0.29598
 N201 N 0.75070 0.20591 0.27712
 C202 C 0.73991 0.17734 0.29329
 C203 C 0.76061 0.17055 0.32377
 C204 C 0.78381 0.19667 0.32471
 H205 H 0.71918 0.16208 0.28300
 H206 H 0.80465 0.19949 0.34441
 H207 H 0.75416 0.26893 0.25660
 H208 H 0.78473 0.23939 0.23236
 C209 C 0.26160 -0.02924 0.57660
 C210 C 0.26225 0.00338 0.59256
 C211 C 0.26361 0.03403 0.57236
 C212 C 0.26499 0.03193 0.53485
 C213 C 0.26453 -0.00104 0.51818
 C214 C 0.26326 -0.03178 0.53913
 C215 C 0.26495 -0.06422 0.52216
 C216 C 0.26593 -0.06645 0.48534
 C217 C 0.26595 -0.03634 0.46387
 C218 C 0.26598 -0.00331 0.48050
 C219 C 0.26819 0.06179 0.51368
 C220 C 0.27003 0.05952 0.47691
 C221 C 0.26819 0.02737 0.45962
 C222 C 0.26972 0.02480 0.42214
 C223 C 0.26948 -0.00788 0.40626
 C224 C 0.26738 -0.03850 0.42638
 H225 H 0.26610 -0.08840 0.53712
 H226 H 0.26750 -0.09222 0.47406
 H227 H 0.27011 0.08726 0.52533
 H228 H 0.27340 0.08336 0.46234
 H229 H 0.26043 0.00497 0.62121
 H230 H 0.26996 -0.00931 0.37749
 C231 C 0.74965 0.03735 0.56706
 C232 C 0.75023 0.00495 0.58415
 C233 C 0.75312 -0.02616 0.56518
 C234 C 0.75497 -0.02479 0.52767
 C235 C 0.75419 0.00797 0.50980
 C236 C 0.75141 0.03919 0.52955
 C237 C 0.74929 0.07127 0.51118
 C238 C 0.75099 0.07279 0.47432
 C239 C 0.75439 0.04226 0.45418
 C240 C 0.75545 0.00950 0.47204
 C241 C 0.75624 -0.05530 0.50740
 C242 C 0.75708 -0.05381 0.47051
 C243 C 0.75708 -0.02173 0.45221
 C244 C 0.75752 -0.02006 0.41459
 C245 C 0.75705 0.01247 0.39747
 C246 C 0.75554 0.04363 0.41659
 H247 H 0.74579 0.09565 0.52501
 H248 H 0.74883 0.09830 0.46182
 H249 H 0.75578 -0.08079 0.51970
 H250 H 0.75713 -0.07827 0.45660
 H251 H 0.74949 0.00403 0.61295
 H252 H 0.75892 0.01349 0.36881
 C253 C 0.43094 0.23425 0.01884
 C254 C 0.41286 0.23248 -0.01415
 C255 C 0.43009 0.22933 -0.04606
 C256 C 0.46676 0.22747 -0.04513
 C257 C 0.48561 0.22893 -0.01199
 C258 C 0.46769 0.23239 0.02008
 C259 C 0.48702 0.23492 0.05241
 C260 C 0.52305 0.23338 0.05341
 C261 C 0.54139 0.22940 0.02209
 C262 C 0.52250 0.22751 -0.01098
 C263 C 0.48509 0.22525 -0.07659
 C264 C 0.52108 0.22392 -0.07560
 C265 C 0.54039 0.22476 -0.04310
 C266 C 0.57705 0.22405 -0.04199
 C267 C 0.59525 0.22570 -0.00908
 C268 C 0.57808 0.22834 0.02290
 H269 H 0.47462 0.23875 0.07739
 H270 H 0.53628 0.23606 0.07909
 H271 H 0.47190 0.22511 -0.10254
 H272 H 0.53349 0.22282 -0.10081
 H273 H 0.38482 0.23243 -0.01494
 H274 H 0.62334 0.22374 -0.00827
 C275 C 0.41834 0.74391 -0.03023
 C276 C 0.40043 0.73871 0.00081
 C277 C 0.41775 0.73454 0.03411
 C278 C 0.45445 0.73427 0.03669
 C279 C 0.47306 0.73961 0.00559
 C280 C 0.45498 0.74437 -0.02795
 C281 C 0.47411 0.74831 -0.05852
 C282 C 0.51007 0.74824 -0.05625
 C283 C 0.52855 0.74438 -0.02329
 C284 C 0.50990 0.73969 0.00794
 C285 C 0.47308 0.72772 0.06924
 C286 C 0.50905 0.72816 0.07163
 C287 C 0.52801 0.73460 0.04144
 C288 C 0.56464 0.73501 0.04365
 C289 C 0.58250 0.73984 0.01251
 C290 C 0.56520 0.74404 -0.02086
 H291 H 0.46164 0.75081 -0.08478
 H292 H 0.52311 0.75078 -0.08091
 H293 H 0.46014 0.72163 0.09325
 H294 H 0.52183 0.72266 0.09739
 H295 H 0.37234 0.73932 -0.00070
 H296 H 0.61041 0.74141 0.01438
 C297 C 0.04620 0.42573 0.24980
 C298 C 0.01553 0.40799 0.25054
 C299 C -0.01683 0.42562 0.25255
 C300 C -0.01894 0.46244 0.25468
 C301 C 0.01175 0.48101 0.25339
 C302 C 0.04440 0.46261 0.25089
 C303 C 0.07448 0.48153 0.25104
 C304 C 0.07264 0.51767 0.25313
 C305 C 0.04062 0.53656 0.25509
 C306 C 0.00987 0.51802 0.25557
 C307 C -0.05062 0.48108 0.25949
 C308 C -0.05252 0.51722 0.26130
 C309 C -0.02271 0.53632 0.25886
 C310 C -0.02451 0.57313 0.26077
 C311 C 0.00610 0.59095 0.25991
 C312 C 0.03861 0.57337 0.25763
 H313 H 0.09998 0.46864 0.25020
 H314 H 0.09684 0.53046 0.25382
 H315 H -0.07434 0.46797 0.26259
 H316 H -0.07766 0.52988 0.26539
 H317 H 0.01675 0.37980 0.24888
 H318 H 0.00449 0.61917 0.25985
 C319 C 0.01576 0.43861 0.78054
 C320 C -0.01582 0.42253 0.78086
 C321 C -0.04760 0.44183 0.77798
 C322 C -0.04796 0.47857 0.77495
 C323 C -0.01619 0.49538 0.77507
 C324 C 0.01575 0.47534 0.77792
 C325 C 0.04685 0.49251 0.77688
 C326 C 0.04669 0.52854 0.77398
 C327 C 0.01543 0.54904 0.77180
 C328 C -0.01635 0.53229 0.77170
 C329 C -0.07921 0.49888 0.77063
 C330 C -0.07935 0.53492 0.76702
 C331 C -0.04824 0.55230 0.76790
 C332 C -0.04816 0.58902 0.76421
 C333 C -0.01647 0.60511 0.76483
 C334 C 0.01522 0.58576 0.76881
 H335 H 0.07180 0.47838 0.77778
 H336 H 0.07153 0.53998 0.77271
 H337 H -0.10399 0.48713 0.76931
 H338 H -0.10428 0.54882 0.76299
 H339 H -0.01563 0.39449 0.78422
 H340 H -0.01650 0.63328 0.76387
 C341 C 0.36133 0.23571 0.11154
 C342 C 0.35999 0.25929 0.08498
 C343 C 0.38182 0.25688 0.05360
 C344 C 0.41082 0.23625 0.05166
 H345 H 0.34093 0.28094 0.08504
 H346 H 0.37380 0.27384 0.03125
 H347 H 0.37931 0.21321 0.11125
 H348 H 0.42048 0.22078 0.07443
 C349 C 0.63907 0.73850 0.13810
 C350 C 0.63872 0.71311 0.11381
 C351 C 0.61518 0.71380 0.08172
 C352 C 0.58493 0.73256 0.07820
 H353 H 0.65842 0.69203 0.11530
 H354 H 0.62350 0.69777 0.05980
 H355 H 0.62025 0.76034 0.13559
 H356 H 0.57485 0.74660 0.10063
 C357 C 0.66806 0.25805 -0.11997
 C358 C 0.64298 0.23665 -0.11335
 C359 C 0.62357 0.24027 -0.08066
 C360 C 0.59701 0.22050 -0.07470
 H361 H 0.63654 0.21652 -0.13207
 H362 H 0.63072 0.25975 -0.06141
 H363 H 0.67385 0.27840 -0.10122
 H364 H 0.58929 0.20188 -0.09457
 C365 C 0.32439 0.72153 -0.11810
 C366 C 0.35120 0.74022 -0.10806
 C367 C 0.37093 0.73253 -0.07423
 C368 C 0.39814 0.75076 -0.06435
 H369 H 0.35867 0.76143 -0.12470
 H370 H 0.36335 0.71149 -0.05738
 H371 H 0.31730 0.70027 -0.10126
 H372 H 0.40600 0.77112 -0.08189
 C373 C 0.14172 0.35324 0.24228
 C374 C 0.11814 0.35319 0.26742
 C375 C 0.08646 0.37641 0.26802
 C376 C 0.07958 0.40492 0.24760
 H377 H 0.12091 0.33392 0.28859
 H378 H 0.06786 0.36960 0.28730
 H379 H 0.13905 0.37177 0.22042
 H380 H 0.09847 0.41357 0.22962
 C381 C 0.09420 0.67520 0.73462
 C382 C 0.08720 0.64848 0.75565
 C383 C 0.05413 0.63145 0.75150
 C384 C 0.04774 0.60443 0.77234
 H385 H 0.10589 0.63876 0.77613
 H386 H 0.03526 0.64050 0.73083
 H387 H 0.07499 0.68452 0.71439
 H388 H 0.06729 0.59524 0.79226
 C389 C -0.12266 0.64230 0.26185
 C390 C -0.09429 0.64462 0.28349
 C391 C -0.06236 0.62161 0.28243
 C392 C -0.05816 0.59370 0.26158
 H393 H -0.09325 0.66530 0.30274
 H394 H -0.04099 0.62845 0.30012
 H395 H -0.12386 0.62191 0.24234
 H396 H -0.07937 0.58536 0.24475
 C397 C -0.12026 0.34713 0.74114
 C398 C -0.11571 0.37449 0.76222
 C399 C -0.08427 0.39413 0.76009
 C400 C -0.07995 0.42289 0.77908
 H401 H -0.13474 0.38230 0.78130
 H402 H -0.06419 0.38488 0.74268
 H403 H -0.10100 0.34044 0.72185
 H404 H -0.10050 0.43284 0.79551
 C405 C 0.27170 0.11628 0.34700
 C406 C 0.24823 0.11186 0.37168
 C407 C 0.24838 0.08168 0.39650
 C408 C 0.27237 0.05514 0.39809
 H409 H 0.22703 0.13112 0.37396
 H410 H 0.22710 0.08132 0.41430
 H411 H 0.29294 0.09734 0.34386
 H412 H 0.29288 0.05341 0.37952
 C413 C 0.75099 0.12619 0.64320
 C414 C 0.77233 0.12109 0.61632
 C415 C 0.77166 0.09128 0.59173
 C416 C 0.74686 0.06830 0.58996
 H417 H 0.79242 0.13902 0.61231
 H418 H 0.79310 0.08812 0.57421
 H419 H 0.73122 0.10826 0.64831
 H420 H 0.72561 0.06976 0.60767
 C421 C 0.25292 -0.12422 0.64509
 C422 C 0.22921 -0.11177 0.62043
 C423 C 0.23399 -0.08194 0.59638
 C424 C 0.25927 -0.05967 0.60058
 H425 H 0.20487 -0.12415 0.61692
 H426 H 0.21491 -0.07765 0.57458
 H427 H 0.27771 -0.11275 0.64850
 H428 H 0.27667 -0.06119 0.62389
 C429 C 0.76093 -0.11474 0.34508
 C430 C 0.73797 -0.08738 0.34166
 C431 C 0.73913 -0.05542 0.36330
 C432 C 0.75953 -0.05201 0.39272
 H433 H 0.71696 -0.08786 0.32174
 H434 H 0.72074 -0.03422 0.35537
 H435 H 0.78283 -0.11439 0.36388
 H436 H 0.77695 -0.07327 0.40221
 C437 C 0.63418 0.75797 -0.11282
 C438 C 0.63669 0.73174 -0.08897
 C439 C 0.61493 0.72916 -0.05779
 C440 C 0.58604 0.74902 -0.05259
 H441 H 0.65629 0.71089 -0.09158
 H442 H 0.62271 0.70861 -0.03873
 H443 H 0.61556 0.77966 -0.11018
 H444 H 0.57671 0.76849 -0.07206
 C445 C 0.33253 0.26616 -0.12791
 C446 C 0.36062 0.24507 -0.12093
 C447 C 0.38102 0.24782 -0.08723
 C448 C 0.40918 0.22688 -0.07991
 H449 H 0.36861 0.22557 -0.13994
 H450 H 0.37317 0.26751 -0.06830
 H451 H 0.32483 0.28550 -0.10857
 H452 H 0.41739 0.20794 -0.09941
 C453 C 0.35227 0.72941 0.12992
 C454 C 0.37546 0.75317 0.12355
 C455 C 0.39801 0.75297 0.09276
 C456 C 0.39596 0.73114 0.06525
 H457 H 0.37853 0.77444 0.14183
 H458 H 0.41680 0.77285 0.09241
 H459 H 0.34901 0.70766 0.11235
 H460 H 0.37573 0.71289 0.06317
 C461 C 0.67385 0.26662 0.10068
 C462 C 0.64730 0.24618 0.09526
 C463 C 0.62680 0.24730 0.06134
 C464 C 0.59907 0.22825 0.05687
 H465 H 0.64047 0.22837 0.11594
 H466 H 0.63421 0.26406 0.03994
 H467 H 0.68007 0.28480 0.08003
 H468 H 0.59132 0.21242 0.07882
 C469 C -0.14357 0.66159 0.75966
 C470 C -0.11678 0.66312 0.73824
 C471 C -0.08543 0.63911 0.74049
 C472 C -0.08080 0.61130 0.76238
 H473 H -0.11695 0.68342 0.71811
 H474 H -0.06514 0.64479 0.72269
 H475 H -0.14364 0.64159 0.77997
 H476 H -0.10098 0.60422 0.77949
 C477 C -0.11144 0.36299 0.25355
 C478 C -0.10413 0.38570 0.22800
 C479 C -0.07420 0.40816 0.22987
 C480 C -0.04727 0.40388 0.25346
 H481 H -0.12099 0.38863 0.20432
 H482 H -0.07386 0.42851 0.20978
 H483 H -0.09554 0.36041 0.27787
 H484 H -0.04520 0.38179 0.27154
 C485 C 0.09154 0.33977 0.74504
 C486 C 0.08641 0.36745 0.76575
 C487 C 0.05305 0.38778 0.76413
 C488 C 0.04841 0.41649 0.78350
 H489 H 0.10705 0.37570 0.78359
 H490 H 0.03246 0.37993 0.74593
 H491 H 0.07065 0.33181 0.72730
 H492 H 0.06948 0.42464 0.80086
 C493 C 0.12961 0.64202 0.25510
 C494 C 0.10429 0.64385 0.27838
 C495 C 0.07428 0.62147 0.27797
 C496 C 0.06984 0.59424 0.25644
 H497 H 0.10485 0.66327 0.29900
 H498 H 0.05499 0.62772 0.29729
 H499 H 0.12950 0.62316 0.23401
 H500 H 0.08927 0.58654 0.23790
 C501 C 0.71779 -0.10404 0.65944
 C502 C 0.73878 -0.09834 0.63296
 C503 C 0.73513 -0.06556 0.61231
 C504 C 0.75553 -0.05965 0.58536
 H505 H 0.75903 -0.11758 0.62672
 H506 H 0.71548 -0.04590 0.61928
 H507 H 0.69752 -0.08459 0.66518
 H508 H 0.77441 -0.07982 0.57788
 C509 C 0.25898 -0.13496 0.35950
 C510 C 0.28387 -0.11201 0.35859
 C511 C 0.28520 -0.07999 0.38000
 C512 C 0.26525 -0.07216 0.40741
 H513 H 0.30423 -0.11567 0.33997
 H514 H 0.30438 -0.06203 0.37271
 H515 H 0.23802 -0.13152 0.37743
 H516 H 0.24726 -0.09046 0.41652
 C517 C 0.76037 0.14066 0.34872
 C518 C 0.73806 0.11534 0.34421
 C519 C 0.73777 0.08337 0.36636
 C520 C 0.75663 0.07714 0.39675
 H521 H 0.71927 0.11698 0.32203
 H522 H 0.72042 0.06393 0.35690
 H523 H 0.77980 0.13932 0.37028
 H524 H 0.77288 0.09668 0.40778
 C525 C 0.24914 0.12765 0.64098
 C526 C 0.27720 0.10558 0.64207
 C527 C 0.27967 0.07308 0.62147
 C528 C 0.26148 0.06793 0.59098
 H529 H 0.29862 0.10989 0.66067
 H530 H 0.29816 0.05283 0.63160
 H531 H 0.22670 0.12240 0.62408
 H532 H 0.24490 0.08884 0.57910
   
