data_POSCAR
  _audit_creation_date              2014-09-24
  _audit_creation_method            'ToBaCCo'
  _symmetry_space_group_name_H-M    'P1'
  _symmetry_Int_Tables_number       1
  _symmetry_cell_setting            triclinic
  loop_
  _symmetry_equiv_pos_as_xyz
 x,y,z
_cell_length_a 24.8819
_cell_length_b 21.0158
_cell_length_c 25.8434
_cell_angle_alpha 89.987900
_cell_angle_beta 89.743800
_cell_angle_gamma 90.009600
loop_
  _atom_site_label
  _atom_site_type_symbol
  _atom_site_fract_x
  _atom_site_fract_y
  _atom_site_fract_z
C1 C 0.19054 0.19085 0.15248
 C2 C 0.17008 0.25009 0.13690
 C3 C 0.18471 0.30730 0.16068
 C4 C 0.21958 0.30561 0.20376
 C5 C 0.24260 0.24688 0.21955
 C6 C 0.22784 0.18924 0.19429
 C7 C 0.24872 0.13195 0.21383
 C8 C 0.28692 0.13136 0.25269
 C9 C 0.30083 0.18698 0.27959
 C10 C 0.27930 0.24570 0.26190
 C11 C 0.23003 0.36041 0.23318
 C12 C 0.26710 0.35951 0.27318
 C13 C 0.29447 0.30343 0.28628
 C14 C 0.33520 0.30312 0.32432
 C15 C 0.35545 0.24479 0.34162
 C16 C 0.33707 0.18616 0.32222
 H17 H 0.23566 0.08604 0.20059
 H18 H 0.30578 0.08619 0.26038
 H19 H 0.20886 0.40449 0.22648
 H20 H 0.27295 0.40311 0.29462
 H21 H 0.14428 0.25228 0.10331
 H22 H 0.38488 0.24560 0.37223
 C23 C 0.68593 0.18950 0.34511
 C24 C 0.67106 0.24856 0.36653
 C25 C 0.69294 0.30619 0.34920
 C26 C 0.73371 0.30489 0.31099
 C27 C 0.74520 0.24730 0.28471
 C28 C 0.71994 0.18974 0.30048
 C29 C 0.72614 0.13594 0.26851
 C30 C 0.76168 0.13615 0.22672
 C31 C 0.79146 0.19075 0.21402
 C32 C 0.78098 0.24778 0.24156
 C33 C 0.76384 0.35941 0.29872
 C34 C 0.79939 0.35962 0.25709
 C35 C 0.80578 0.30550 0.22580
 C36 C 0.83745 0.30681 0.18011
 C37 C 0.85012 0.24913 0.15566
 C38 C 0.82958 0.19081 0.17309
 H39 H 0.70188 0.09382 0.27382
 H40 H 0.76404 0.09363 0.20324
 H41 H 0.76070 0.40232 0.32166
 H42 H 0.82234 0.40250 0.25028
 H43 H 0.64235 0.25020 0.39790
 H44 H 0.87686 0.24960 0.12259
 C45 C 0.66655 0.68914 0.67882
 C46 C 0.64557 0.74699 0.66112
 C47 C 0.65876 0.80516 0.68397
 C48 C 0.69612 0.80624 0.72517
 C49 C 0.71782 0.74826 0.74418
 C50 C 0.70222 0.68941 0.72163
 C51 C 0.72215 0.63278 0.74315
 C52 C 0.75870 0.63371 0.78373
 C53 C 0.77476 0.69117 0.80682
 C54 C 0.75513 0.74921 0.78600
 C55 C 0.71256 0.86366 0.74782
 C56 C 0.74815 0.86438 0.78893
 C57 C 0.77275 0.80830 0.80670
 C58 C 0.81247 0.80941 0.84620
 C59 C 0.82786 0.75140 0.86863
 C60 C 0.81020 0.69254 0.84971
 H61 H 0.70934 0.58670 0.72955
 H62 H 0.77452 0.58845 0.79610
 H63 H 0.69862 0.90918 0.73402
 H64 H 0.75509 0.90982 0.80721
 H65 H 0.61787 0.74680 0.62890
 H66 H 0.85649 0.75131 0.89997
 C67 C 0.16895 0.69153 0.82560
 C68 C 0.15191 0.75084 0.84458
 C69 C 0.16848 0.80901 0.82298
 C70 C 0.20124 0.80768 0.77765
 C71 C 0.21855 0.74832 0.75685
 C72 C 0.20195 0.69021 0.78039
 C73 C 0.21594 0.63282 0.75570
 C74 C 0.25074 0.63155 0.71364
 C75 C 0.26825 0.68789 0.68996
 C76 C 0.25105 0.74702 0.71105
 C77 C 0.21426 0.86350 0.75025
 C78 C 0.24867 0.86246 0.70794
 C79 C 0.26699 0.80490 0.68696
 C80 C 0.30097 0.80337 0.64278
 C81 C 0.31808 0.74468 0.62343
 C82 C 0.30253 0.68705 0.64594
 H83 H 0.19928 0.58768 0.76725
 H84 H 0.26288 0.58534 0.69986
 H85 H 0.19706 0.90905 0.75985
 H86 H 0.25998 0.90788 0.69190
 H87 H 0.12920 0.75187 0.88034
 H88 H 0.34378 0.74385 0.58943
 O89 O 1.05044 -0.07684 -0.02920
 O90 O 0.95640 -0.01359 0.06759
 O91 O 0.94782 -0.07336 -0.02166
 O92 O 1.06161 -0.01287 0.05545
 O93 O 1.05259 0.08129 0.01836
 O94 O 0.94915 0.01574 -0.06700
 O95 O 0.94868 0.07531 0.02270
 O96 O 1.05372 0.01724 -0.06743
 Cu97 Cu 1.00393 -0.05308 0.02283
 Cu98 Cu 1.00029 0.05660 -0.02759
 C99 C 1.06881 -0.04043 -0.06416
 C100 C 0.93614 0.04126 0.06159
 C101 C 0.93113 -0.03992 -0.05928
 C102 C 1.07598 0.04483 0.05016
 O103 O 0.55622 0.42340 0.48125
 O104 O 0.44241 0.48203 0.55985
 O105 O 0.45265 0.42098 0.47290
 O106 O 0.54849 0.48304 0.56901
 O107 O 0.55038 0.57512 0.52767
 O108 O 0.45577 0.51261 0.43103
 O109 O 0.44690 0.57423 0.51889
 O110 O 0.55883 0.51507 0.43940
 Cu111 Cu 0.49960 0.44334 0.52539
 Cu112 Cu 0.50318 0.55360 0.47529
 C113 C 0.57602 0.45887 0.44622
 C114 C 0.42540 0.53825 0.55249
 C115 C 0.43885 0.45578 0.43504
 C116 C 0.56587 0.53955 0.56437
 O117 O -0.04732 0.42664 0.03090
 O118 O 0.05144 0.48914 -0.06236
 O119 O 0.05403 0.42675 0.02470
 O120 O -0.05547 0.48813 -0.05644
 O121 O -0.05158 0.58031 -0.01546
 O122 O 0.05814 0.51885 0.06588
 O123 O 0.05172 0.58136 -0.02125
 O124 O -0.04706 0.51873 0.07229
 Cu125 Cu 0.00037 0.44884 -0.02087
 Cu126 Cu 0.00301 0.55897 0.02969
 C127 C -0.06316 0.46165 0.06790
 C128 C 0.06847 0.54578 -0.05750
 C129 C 0.07397 0.46188 0.05958
 C130 C -0.07221 0.54458 -0.04958
 O131 O 0.45262 1.07417 0.47046
 O132 O 0.53795 1.01143 0.57397
 O133 O 0.55398 1.07270 0.48470
 O134 O 0.43495 1.01096 0.55386
 O135 O 0.44788 0.91725 0.51692
 O136 O 0.56102 0.98211 0.44182
 O137 O 0.55014 0.92231 0.53017
 O138 O 0.45577 0.98070 0.43124
 Cu139 Cu 0.49490 1.05138 0.52547
 Cu140 Cu 0.50491 0.94160 0.47555
 C141 C 0.43854 1.03756 0.43403
 C142 C 0.55799 0.95611 0.57013
 C143 C 0.57637 1.03870 0.45015
 C144 C 0.42169 0.95315 0.54736
 N145 N 1.16805 0.04170 0.08711
 N146 N 1.20109 0.08365 0.11427
 C147 C 1.17199 0.13625 0.12558
 C148 C 1.12125 0.12983 0.10356
 C149 C 1.12027 0.07035 0.08088
 H150 H 1.08843 0.16364 0.10454
 H151 H 1.18016 -0.00188 0.07155
 H152 H 1.24257 0.07778 0.11784
 N153 N 0.65509 0.54223 0.60717
 N154 N 0.68241 0.58241 0.63640
 C155 C 0.64958 0.63041 0.65095
 C156 C 0.59961 0.62083 0.62853
 C157 C 0.60478 0.56452 0.60153
 H158 H 0.56496 0.65195 0.62959
 H159 H 0.67172 0.50264 0.58865
 H160 H 0.72366 0.57886 0.64307
 N161 N -0.14424 0.46334 0.12475
 N162 N -0.17098 0.42216 0.15378
 C163 C -0.14321 0.36691 0.15562
 C164 C -0.09758 0.37314 0.12504
 C165 C -0.09983 0.43459 0.10642
 H166 H -0.06743 0.33759 0.11624
 H167 H -0.15782 0.50894 0.11545
 H168 H -0.20901 0.43104 0.16941
 N169 N 0.32647 0.95248 0.57762
 N170 N 0.29394 0.91235 0.60178
 C171 C 0.32264 0.86113 0.61688
 C172 C 0.37515 0.86818 0.59985
 C173 C 0.37590 0.92663 0.57568
 H174 H 0.40808 0.83488 0.60373
 H175 H 0.31433 0.99520 0.56064
 H176 H 0.25250 0.91895 0.60551
 N177 N -0.16462 0.54249 -0.08630
 N178 N -0.19630 0.58203 -0.11183
 C179 C -0.16784 0.63439 -0.12493
 C180 C -0.11626 0.62832 -0.10530
 C181 C -0.11590 0.56958 -0.08150
 H182 H -0.08380 0.66258 -0.10681
 H183 H -0.17713 0.49945 -0.07001
 H184 H -0.23733 0.57442 -0.11747
 N185 N 0.35593 1.03221 0.38092
 N186 N 0.32628 1.07503 0.35123
 C187 C 0.35500 1.12949 0.34672
 C188 C 0.40213 1.12278 0.37518
 C189 C 0.40121 1.06190 0.39530
 H190 H 0.43342 1.15766 0.38142
 H191 H 0.34222 0.98794 0.39374
 H192 H 0.28593 1.06812 0.34181
 N193 N 1.15220 -0.03670 -0.11775
 N194 N 1.18098 -0.07970 -0.14838
 C195 C 1.15221 -0.13425 -0.15138
 C196 C 1.10612 -0.12748 -0.12106
 C197 C 1.10751 -0.06644 -0.10136
 H198 H 1.07476 -0.16223 -0.11420
 H199 H 1.16557 0.00843 -0.10683
 H200 H 1.22074 -0.07252 -0.16008
 N201 N 0.62940 0.45894 0.36487
 N202 N 0.65980 0.41839 0.33891
 C203 C 0.66885 0.36666 0.36865
 C204 C 0.64220 0.37491 0.41555
 C205 C 0.61746 0.43356 0.41131
 H206 H 0.63792 0.34120 0.44695
 H207 H 0.61396 0.50102 0.34939
 H208 H 0.67033 0.42433 0.30005
 N209 N 0.88263 -0.04169 -0.14282
 N210 N 0.85026 -0.08439 -0.16972
 C211 C 0.83963 -0.13433 -0.13826
 C212 C 0.86628 -0.12468 -0.09142
 C213 C 0.89232 -0.06668 -0.09594
 H214 H 0.86794 -0.15622 -0.05838
 H215 H 0.89969 -0.00061 -0.15864
 H216 H 0.84327 -0.08127 -0.20944
 N217 N 0.39875 0.45481 0.34693
 N218 N 0.37197 0.41442 0.31749
 C219 C 0.35926 0.36247 0.34574
 C220 C 0.37981 0.37013 0.39525
 C221 C 0.40454 0.42910 0.39428
 H222 H 0.37926 0.33631 0.42683
 H223 H 0.41527 0.49758 0.33378
 H224 H 0.36549 0.42107 0.27796
 N225 N 0.15293 0.54089 -0.10917
 N226 N 0.18189 0.58241 -0.14096
 C227 C 0.15286 0.63644 -0.14635
 C228 C 0.10645 0.63105 -0.11617
 C229 C 0.10787 0.57109 -0.09435
 H230 H 0.07473 0.66578 -0.11111
 H231 H 0.16619 0.49629 -0.09680
 H232 H 0.22182 0.57489 -0.15194
 N233 N 0.66048 1.03329 0.39759
 N234 N 0.69097 1.07559 0.36787
 C235 C 0.66661 1.13315 0.36936
 C236 C 0.62171 1.12868 0.40181
 C237 C 0.61927 1.06614 0.41809
 H238 H 0.59253 1.16515 0.41100
 H239 H 0.66930 0.98521 0.40319
 H240 H 0.72872 1.06463 0.35254
 N241 N 0.16172 0.46324 0.10581
 N242 N 0.19147 0.42210 0.13181
 C243 C 0.16351 0.36741 0.13781
 C244 C 0.11449 0.37387 0.11307
 C245 C 0.11500 0.43497 0.09356
 H246 H 0.08320 0.33854 0.10857
 H247 H 0.17450 0.50846 0.09434
 H248 H 0.23123 0.43057 0.14259
 N249 N 0.58264 0.94869 0.66301
 N250 N 0.60810 0.90818 0.69339
 C251 C 0.63167 0.86314 0.66380
 C252 C 0.61933 0.87489 0.61237
 C253 C 0.58836 0.92950 0.61360
 H254 H 0.62908 0.84590 0.57901
 H255 H 0.55894 0.98635 0.67633
 H256 H 0.60636 0.90949 0.73376
 N257 N 0.89171 0.03915 0.14799
 N258 N 0.86364 0.07844 0.17747
 C259 C 0.85191 0.13130 0.15005
 C260 C 0.87426 0.12507 0.10085
 C261 C 0.89936 0.06633 0.10138
 H262 H 0.87539 0.15998 0.07009
 H263 H 0.90813 -0.00375 0.16086
 H264 H 0.85631 0.07077 0.21679
 N265 N 0.33177 0.53513 0.58683
 N266 N 0.29851 0.57502 0.61032
 C267 C 0.32589 0.62816 0.62317
 C268 C 0.37830 0.62234 0.60546
 C269 C 0.38039 0.56283 0.58313
 H270 H 0.41005 0.65753 0.60688
 H271 H 0.32040 0.49154 0.57085
 H272 H 0.25727 0.56717 0.61444
   
