data_POSCAR
  _audit_creation_date              2014-09-24
  _audit_creation_method            'ToBaCCo'
  _symmetry_space_group_name_H-M    'P1'
  _symmetry_Int_Tables_number       1
  _symmetry_cell_setting            triclinic
  loop_
  _symmetry_equiv_pos_as_xyz
 x,y,z
_cell_length_a 60.7987
_cell_length_b 60.8069
_cell_length_c 47.1371
_cell_angle_alpha 90.013400
_cell_angle_beta 89.992200
_cell_angle_gamma 90.091200
loop_
  _atom_site_label
  _atom_site_type_symbol
  _atom_site_fract_x
  _atom_site_fract_y
  _atom_site_fract_z
O1 O 0.02199 0.28445 -0.02835
 O2 O -0.02105 0.28489 0.02671
 O3 O 0.02185 0.28460 0.02690
 O4 O -0.02088 0.28466 -0.02858
 O5 O -0.02111 0.24838 -0.02828
 O6 O 0.02152 0.24833 0.02702
 O7 O -0.02140 0.24865 0.02670
 O8 O 0.02176 0.24818 -0.02798
 Cu9 Cu 0.00050 0.28829 -0.00084
 Cu10 Cu 0.00016 0.24476 -0.00060
 C11 C 0.02934 0.26622 -0.03746
 C12 C -0.02875 0.26683 0.03604
 C13 C 0.02910 0.26642 0.03632
 C14 C -0.02839 0.26650 -0.03783
 O15 O 0.47856 0.78443 0.52828
 O16 O 0.52148 0.78437 0.47304
 O17 O 0.47857 0.78448 0.47300
 O18 O 0.52146 0.78428 0.52830
 O19 O 0.52128 0.74800 0.52809
 O20 O 0.47842 0.74820 0.47304
 O21 O 0.52133 0.74810 0.47309
 O22 O 0.47838 0.74815 0.52805
 Cu23 Cu 0.50003 0.78803 0.50066
 Cu24 Cu 0.49983 0.74449 0.50056
 C25 C 0.47102 0.76628 0.53749
 C26 C 0.52886 0.76620 0.46375
 C27 C 0.47105 0.76634 0.46369
 C28 C 0.52881 0.76608 0.53752
 O29 O 0.97810 0.71525 -0.02801
 O30 O 1.02145 0.71462 0.02670
 O31 O 0.97858 0.71488 0.02728
 O32 O 1.02096 0.71491 -0.02862
 O33 O 1.02127 0.75114 -0.02819
 O34 O 0.97894 0.75115 0.02761
 O35 O 1.02179 0.75089 0.02686
 O36 O 0.97827 0.75148 -0.02730
 Cu37 Cu 0.99975 0.71128 -0.00071
 Cu38 Cu 1.00012 0.75478 -0.00026
 C39 C 0.97056 0.73350 -0.03685
 C40 C 1.02910 0.73268 0.03606
 C41 C 0.97142 0.73303 0.03691
 C42 C 1.02851 0.73304 -0.03791
 O43 O 0.52205 0.21545 0.52623
 O44 O 0.47937 0.21670 0.47075
 O45 O 0.52227 0.21670 0.47094
 O46 O 0.47920 0.21554 0.52601
 O47 O 0.47933 0.25181 0.52723
 O48 O 0.52239 0.25296 0.47249
 O49 O 0.47940 0.25296 0.47229
 O50 O 0.52216 0.25172 0.52743
 Cu51 Cu 0.50072 0.21246 0.49832
 Cu52 Cu 0.50083 0.25599 0.49995
 C53 C 0.52947 0.23340 0.53625
 C54 C 0.47193 0.23507 0.46223
 C55 C 0.52983 0.23506 0.46248
 C56 C 0.47183 0.23351 0.53595
 O57 O 0.71692 -0.02184 0.02890
 O58 O 0.71716 0.02106 -0.02636
 O59 O 0.71669 -0.02180 -0.02639
 O60 O 0.71739 0.02106 0.02893
 O61 O 0.75368 0.02073 0.02851
 O62 O 0.75296 -0.02208 -0.02659
 O63 O 0.75340 0.02086 -0.02631
 O64 O 0.75320 -0.02218 0.02847
 Cu65 Cu 0.71340 -0.00036 0.00130
 Cu66 Cu 0.75693 -0.00073 0.00099
 C67 C 0.73505 -0.02945 0.03802
 C68 C 0.73535 0.02851 -0.03564
 C69 C 0.73473 -0.02935 -0.03585
 C70 C 0.73569 0.02837 0.03798
 O71 O 0.21712 0.47729 0.52817
 O72 O 0.21743 0.52030 0.47302
 O73 O 0.21701 0.47741 0.47288
 O74 O 0.21745 0.52020 0.52829
 O75 O 0.25374 0.52001 0.52801
 O76 O 0.25329 0.47716 0.47292
 O77 O 0.25371 0.52007 0.47316
 O78 O 0.25339 0.47707 0.52798
 Cu79 Cu 0.21361 0.49881 0.50061
 Cu80 Cu 0.25716 0.49852 0.50052
 C81 C 0.23523 0.46973 0.53738
 C82 C 0.23566 0.52768 0.46386
 C83 C 0.23510 0.46988 0.46352
 C84 C 0.23569 0.52759 0.53741
 O85 O 0.28551 1.02063 0.02834
 O86 O 0.28514 0.97779 -0.02702
 O87 O 0.28553 1.02066 -0.02699
 O88 O 0.28516 0.97774 0.02821
 O89 O 0.24889 0.97802 0.02811
 O90 O 0.24929 1.02097 -0.02681
 O91 O 0.24887 0.97808 -0.02689
 O92 O 0.24928 1.02094 0.02818
 Cu93 Cu 0.28897 0.99919 0.00064
 Cu94 Cu 0.24546 0.99953 0.00065
 C95 C 0.26744 1.02826 0.03767
 C96 C 0.26691 0.97050 -0.03629
 C97 C 0.26746 1.02829 -0.03631
 C98 C 0.26694 0.97042 0.03746
 O99 O 0.78492 0.47806 0.47391
 O100 O 0.78447 0.52002 0.53033
 O101 O 0.78431 0.47713 0.52913
 O102 O 0.78497 0.52092 0.47502
 O103 O 0.74869 0.52099 0.47463
 O104 O 0.74803 0.47710 0.52823
 O105 O 0.74820 0.52003 0.52967
 O106 O 0.74865 0.47814 0.47336
 Cu107 Cu 0.78831 0.49905 0.50217
 Cu108 Cu 0.74476 0.49910 0.50143
 C109 C 0.76684 0.47081 0.46411
 C110 C 0.76624 0.52729 0.53955
 C111 C 0.76602 0.46947 0.53771
 C112 C 0.76691 0.52851 0.46565
 O113 O 0.23450 0.26297 0.21321
 O114 O 0.28519 0.25355 0.25422
 O115 O 0.26465 0.23286 0.21350
 O116 O 0.25494 0.28380 0.25381
 O117 O 0.23601 0.26506 0.28561
 O118 O 0.24593 0.21407 0.24545
 O119 O 0.26614 0.23508 0.28616
 O120 O 0.21555 0.24428 0.24504
 Cu121 Cu 0.26174 0.26017 0.23051
 Cu122 Cu 0.23900 0.23771 0.26870
 C123 C 0.21636 0.25514 0.22204
 C124 C 0.28428 0.24292 0.27739
 C125 C 0.25685 0.21477 0.22247
 C126 C 0.24394 0.28313 0.27672
 O127 O 0.75560 0.78440 0.24747
 O128 O 0.76518 0.73363 0.28813
 O129 O 0.78590 0.75417 0.24750
 O130 O 0.73495 0.76364 0.28797
 O131 O 0.71620 0.74489 0.25600
 O132 O 0.76711 0.73541 0.21558
 O133 O 0.74656 0.71471 0.25620
 O134 O 0.73699 0.76550 0.21552
 Cu135 Cu 0.76230 0.76086 0.27094
 Cu136 Cu 0.73983 0.73822 0.23266
 C137 C 0.74478 0.78363 0.22443
 C138 C 0.75739 0.71550 0.27924
 C139 C 0.78520 0.74329 0.22450
 C140 C 0.71687 0.75577 0.27901
 O141 O 0.78579 0.24615 0.24432
 O142 O 0.73534 0.23649 0.28562
 O143 O 0.75544 0.21583 0.24454
 O144 O 0.76542 0.26665 0.28515
 O145 O 0.74643 0.28548 0.25356
 O146 O 0.73659 0.23476 0.21292
 O147 O 0.71617 0.25510 0.25400
 O148 O 0.76671 0.26487 0.21271
 Cu149 Cu 0.76241 0.23936 0.26803
 Cu150 Cu 0.73953 0.26194 0.23017
 C151 C 0.78488 0.25705 0.22137
 C152 C 0.71716 0.24432 0.27705
 C153 C 0.74449 0.21665 0.22161
 C154 C 0.75750 0.28474 0.27640
 O155 O 0.25393 0.71438 0.25594
 O156 O 0.26343 0.76493 0.21458
 O157 O 0.28425 0.74469 0.25529
 O158 O 0.23335 0.73467 0.21502
 O159 O 0.21455 0.75357 0.24674
 O160 O 0.26551 0.76366 0.28699
 O161 O 0.24478 0.78397 0.24631
 O162 O 0.23540 0.73353 0.28769
 Cu163 Cu 0.26062 0.73775 0.23205
 Cu164 Cu 0.23815 0.76059 0.27007
 C165 C 0.24322 0.71536 0.27906
 C166 C 0.25562 0.78309 0.22330
 C167 C 0.28359 0.75577 0.27813
 C168 C 0.21526 0.74254 0.22385
 O169 O 0.76377 0.26291 0.71328
 O170 O 0.75428 0.21307 0.75595
 O171 O 0.73351 0.23296 0.71493
 O172 O 0.78479 0.24322 0.75430
 O173 O 0.76641 0.26281 0.78574
 O174 O 0.71509 0.25241 0.74648
 O175 O 0.73623 0.23279 0.78758
 O176 O 0.74555 0.28258 0.74478
 Cu177 Cu 0.76095 0.23605 0.73150
 Cu178 Cu 0.73895 0.25961 0.76926
 C179 C 0.75615 0.28125 0.72162
 C180 C 0.74381 0.21445 0.77921
 C181 C 0.71555 0.24108 0.72383
 C182 C 0.78437 0.25467 0.77685
 O183 O 0.28375 0.74501 0.74538
 O184 O 0.23269 0.73536 0.78550
 O185 O 0.25334 0.71479 0.74482
 O186 O 0.26294 0.76542 0.78596
 O187 O 0.24439 0.78444 0.75413
 O188 O 0.23503 0.73390 0.71285
 O189 O 0.21403 0.75414 0.75354
 O190 O 0.26516 0.76400 0.71356
 Cu191 Cu 0.26004 0.73822 0.76858
 Cu192 Cu 0.23776 0.76103 0.73037
 C193 C 0.28318 0.75605 0.72251
 C194 C 0.21464 0.74323 0.77652
 C195 C 0.24274 0.71573 0.72161
 C196 C 0.25519 0.78358 0.77718
 O197 O 0.21637 0.24363 0.75458
 O198 O 0.26727 0.23405 0.71418
 O199 O 0.24668 0.21338 0.75479
 O200 O 0.23719 0.26420 0.71409
 O201 O 0.25586 0.28306 0.74603
 O202 O 0.26524 0.23231 0.78677
 O203 O 0.28608 0.25273 0.74615
 O204 O 0.23514 0.26241 0.78650
 Cu205 Cu 0.23999 0.23691 0.73124
 Cu206 Cu 0.26248 0.25952 0.76953
 C207 C 0.21705 0.25455 0.77755
 C208 C 0.28537 0.24187 0.72314
 C209 C 0.25745 0.21418 0.77787
 C210 C 0.24503 0.28231 0.72300
 O211 O 0.73362 0.76229 0.71592
 O212 O 0.78405 0.75274 0.75743
 O213 O 0.76351 0.73195 0.71688
 O214 O 0.75403 0.78326 0.75644
 O215 O 0.73476 0.76493 0.78830
 O216 O 0.74447 0.71355 0.74889
 O217 O 0.76467 0.73475 0.78952
 O218 O 0.71436 0.74399 0.74781
 Cu219 Cu 0.76075 0.75940 0.73349
 Cu220 Cu 0.73763 0.73743 0.77178
 C221 C 0.71538 0.75466 0.72467
 C222 C 0.78293 0.74231 0.78075
 C223 C 0.75550 0.71398 0.72600
 C224 C 0.74289 0.78286 0.77924
 C225 C 0.26751 0.07980 0.09831
 C226 C 0.28735 0.07013 0.08948
 C227 C 0.28737 0.05302 0.06965
 C228 C 0.26749 0.04500 0.05826
 C229 C 0.24761 0.05444 0.06757
 C230 C 0.24765 0.07166 0.08719
 C231 C 0.26747 0.09868 0.11842
 C232 C 0.25071 0.10091 0.13877
 C233 C 0.24999 0.11927 0.15658
 C234 C 0.26612 0.13580 0.15467
 C235 C 0.28321 0.13329 0.13482
 C236 C 0.28383 0.11502 0.11685
 C237 C 0.26469 0.15590 0.17262
 C238 C 0.27043 0.17658 0.16147
 C239 C 0.26829 0.19560 0.17786
 C240 C 0.26017 0.19444 0.20572
 C241 C 0.25466 0.17378 0.21704
 C242 C 0.25699 0.15472 0.20073
 H243 H 0.30293 0.07573 0.09796
 H244 H 0.30303 0.04614 0.06324
 H245 H 0.23194 0.04885 0.05934
 H246 H 0.23208 0.07895 0.09312
 H247 H 0.23804 0.08849 0.14088
 H248 H 0.23645 0.12075 0.17137
 H249 H 0.29610 0.14552 0.13306
 H250 H 0.29686 0.11398 0.10126
 H251 H 0.27605 0.17819 0.13977
 H252 H 0.27255 0.21128 0.16845
 H253 H 0.24849 0.17234 0.23852
 H254 H 0.25277 0.13904 0.21017
 C255 C 0.76568 0.57896 0.60209
 C256 C 0.78538 0.56810 0.59519
 C257 C 0.78555 0.55116 0.57512
 C258 C 0.76600 0.54461 0.56163
 C259 C 0.74625 0.55517 0.56889
 C260 C 0.74610 0.57219 0.58880
 C261 C 0.76560 0.59771 0.62237
 C262 C 0.74792 0.60078 0.64119
 C263 C 0.74726 0.61908 0.65910
 C264 C 0.76432 0.63471 0.65876
 C265 C 0.78226 0.63135 0.64046
 C266 C 0.78286 0.61312 0.62243
 C267 C 0.76300 0.65483 0.67665
 C268 C 0.77008 0.67523 0.66597
 C269 C 0.76803 0.69433 0.68222
 C270 C 0.75871 0.69352 0.70948
 C271 C 0.75188 0.67311 0.72036
 C272 C 0.75406 0.65396 0.70416
 H273 H 0.80069 0.57266 0.60535
 H274 H 0.80101 0.54325 0.57012
 H275 H 0.73092 0.55059 0.55877
 H276 H 0.73070 0.58042 0.59323
 H277 H 0.73450 0.58906 0.64200
 H278 H 0.73308 0.62125 0.67271
 H279 H 0.79583 0.64290 0.63994
 H280 H 0.79662 0.61141 0.60802
 H281 H 0.77669 0.67658 0.64472
 H282 H 0.77334 0.70981 0.67315
 H283 H 0.74475 0.67192 0.74136
 H284 H 0.74877 0.63847 0.71320
 C285 C 0.73510 0.91808 0.09942
 C286 C 0.71541 0.92887 0.09230
 C287 C 0.71539 0.94603 0.07256
 C288 C 0.73507 0.95287 0.05961
 C289 C 0.75478 0.94229 0.06701
 C290 C 0.75479 0.92507 0.08660
 C291 C 0.73510 0.89927 0.11959
 C292 C 0.75255 0.89636 0.13880
 C293 C 0.75313 0.87809 0.15674
 C294 C 0.73621 0.86231 0.15606
 C295 C 0.71851 0.86547 0.13731
 C296 C 0.71799 0.88369 0.11925
 C297 C 0.73741 0.84233 0.17419
 C298 C 0.73067 0.82177 0.16358
 C299 C 0.73267 0.80281 0.18010
 C300 C 0.74159 0.80391 0.20756
 C301 C 0.74803 0.82447 0.21836
 C302 C 0.74590 0.84347 0.20190
 H303 H 0.70001 0.92412 0.10209
 H304 H 0.69995 0.95393 0.06741
 H305 H 0.77021 0.94707 0.05730
 H306 H 0.77018 0.91689 0.09121
 H307 H 0.76584 0.90820 0.13991
 H308 H 0.76713 0.87607 0.17068
 H309 H 0.70506 0.85380 0.13651
 H310 H 0.70441 0.88528 0.10454
 H311 H 0.72438 0.82022 0.14218
 H312 H 0.72765 0.78720 0.17109
 H313 H 0.75484 0.82589 0.23952
 H314 H 0.75090 0.85908 0.21090
 C315 C 0.23526 0.41707 0.59854
 C316 C 0.25497 0.42419 0.58588
 C317 C 0.25497 0.44148 0.56638
 C318 C 0.23524 0.45200 0.55891
 C319 C 0.21554 0.44504 0.57170
 C320 C 0.21556 0.42781 0.59135
 C321 C 0.23528 0.39820 0.61860
 C322 C 0.21823 0.38255 0.61808
 C323 C 0.21877 0.36427 0.63604
 C324 C 0.23642 0.36112 0.65487
 C325 C 0.25328 0.37697 0.65572
 C326 C 0.25268 0.39530 0.63788
 C327 C 0.23764 0.34109 0.67291
 C328 C 0.24607 0.34220 0.70066
 C329 C 0.24821 0.32317 0.71706
 C330 C 0.24185 0.30261 0.70616
 C331 C 0.23301 0.30154 0.67865
 C332 C 0.23100 0.32054 0.66219
 H333 H 0.27038 0.41606 0.59053
 H334 H 0.27041 0.44635 0.55679
 H335 H 0.20008 0.45289 0.56650
 H336 H 0.20014 0.42297 0.60102
 H337 H 0.20469 0.38414 0.60331
 H338 H 0.20537 0.35255 0.63511
 H339 H 0.26725 0.37496 0.66972
 H340 H 0.26592 0.40719 0.63913
 H341 H 0.25100 0.35780 0.70975
 H342 H 0.25495 0.32456 0.73825
 H343 H 0.22805 0.28594 0.66958
 H344 H 0.22477 0.31902 0.64077
 C345 C 0.91936 0.26703 0.09618
 C346 C 0.92753 0.24714 0.08524
 C347 C 0.94485 0.24706 0.06579
 C348 C 0.95438 0.26692 0.05646
 C349 C 0.94632 0.28682 0.06765
 C350 C 0.92910 0.28685 0.08731
 C351 C 0.90044 0.26703 0.11620
 C352 C 0.88411 0.28333 0.11447
 C353 C 0.86585 0.28280 0.13248
 C354 C 0.86337 0.26587 0.15255
 C355 C 0.87986 0.24976 0.15456
 C356 C 0.89820 0.25039 0.13671
 C357 C 0.84338 0.26461 0.17071
 C358 C 0.84474 0.25717 0.19891
 C359 C 0.82580 0.25495 0.21547
 C360 C 0.80506 0.26032 0.20431
 C361 C 0.80372 0.26821 0.17636
 C362 C 0.82263 0.27023 0.15972
 H363 H 0.92020 0.23158 0.09121
 H364 H 0.95047 0.23137 0.05770
 H365 H 0.95326 0.30247 0.06122
 H366 H 0.92347 0.30245 0.09566
 H367 H 0.88515 0.29626 0.09874
 H368 H 0.85364 0.29566 0.13061
 H369 H 0.87840 0.23633 0.16952
 H370 H 0.91061 0.23776 0.13894
 H371 H 0.86048 0.25307 0.20824
 H372 H 0.82739 0.24897 0.23701
 H373 H 0.78796 0.27236 0.16708
 H374 H 0.82089 0.27567 0.13796
 C375 C 0.41838 0.76607 0.59870
 C376 C 0.42540 0.74641 0.58590
 C377 C 0.44269 0.74646 0.56640
 C378 C 0.45330 0.76619 0.55905
 C379 C 0.44645 0.78585 0.57199
 C380 C 0.42923 0.78578 0.59166
 C381 C 0.39947 0.76602 0.61874
 C382 C 0.38394 0.78313 0.61835
 C383 C 0.36563 0.78257 0.63626
 C384 C 0.36232 0.76483 0.65492
 C385 C 0.37804 0.74791 0.65565
 C386 C 0.39642 0.74853 0.63786
 C387 C 0.34222 0.76358 0.67286
 C388 C 0.34317 0.75496 0.70052
 C389 C 0.32406 0.75278 0.71679
 C390 C 0.30358 0.75931 0.70586
 C391 C 0.30268 0.76835 0.67845
 C392 C 0.32175 0.77039 0.66212
 H393 H 0.41719 0.73099 0.59045
 H394 H 0.44749 0.73105 0.55669
 H395 H 0.45437 0.80131 0.56690
 H396 H 0.42446 0.80116 0.60144
 H397 H 0.38565 0.79674 0.60370
 H398 H 0.35401 0.79603 0.63542
 H399 H 0.37591 0.73388 0.66952
 H400 H 0.40821 0.73525 0.63902
 H401 H 0.35870 0.74990 0.70963
 H402 H 0.32533 0.74588 0.73791
 H403 H 0.28715 0.77342 0.66935
 H404 H 0.32035 0.77677 0.64076
 C405 C 0.08139 0.73249 0.09779
 C406 C 0.07459 0.75220 0.08491
 C407 C 0.05748 0.75226 0.06515
 C408 C 0.04682 0.73259 0.05761
 C409 C 0.05350 0.71287 0.07054
 C410 C 0.07055 0.71283 0.09046
 C411 C 0.10001 0.73246 0.11825
 C412 C 0.11549 0.71530 0.11820
 C413 C 0.13356 0.71581 0.13650
 C414 C 0.13669 0.73356 0.15522
 C415 C 0.12099 0.75051 0.15565
 C416 C 0.10286 0.74993 0.13746
 C417 C 0.15661 0.73481 0.17349
 C418 C 0.15543 0.74350 0.20111
 C419 C 0.17440 0.74574 0.21764
 C420 C 0.19497 0.73919 0.20700
 C421 C 0.19609 0.73006 0.17965
 C422 C 0.17717 0.72797 0.16307
 H423 H 0.08281 0.76757 0.08965
 H424 H 0.05282 0.76771 0.05547
 H425 H 0.04554 0.69746 0.06529
 H426 H 0.07515 0.69741 0.10026
 H427 H 0.11394 0.70170 0.10351
 H428 H 0.14516 0.70233 0.13590
 H429 H 0.12299 0.76454 0.16955
 H430 H 0.09108 0.76325 0.13838
 H431 H 0.13982 0.74860 0.20997
 H432 H 0.17297 0.75271 0.23870
 H433 H 0.21170 0.72496 0.17077
 H434 H 0.17876 0.72153 0.14175
 C435 C 0.58124 0.23233 0.59863
 C436 C 0.57467 0.25220 0.58598
 C437 C 0.55768 0.25255 0.56605
 C438 C 0.54695 0.23302 0.55810
 C439 C 0.55338 0.21315 0.57084
 C440 C 0.57028 0.21282 0.59096
 C441 C 0.59981 0.23197 0.61917
 C442 C 0.61511 0.21465 0.61895
 C443 C 0.63321 0.21490 0.63723
 C444 C 0.63653 0.23252 0.65607
 C445 C 0.62098 0.24961 0.65670
 C446 C 0.60282 0.24930 0.63855
 C447 C 0.65654 0.23356 0.67419
 C448 C 0.65558 0.24224 0.70182
 C449 C 0.67466 0.24437 0.71815
 C450 C 0.69512 0.23772 0.70728
 C451 C 0.69602 0.22856 0.67994
 C452 C 0.67698 0.22658 0.66356
 H453 H 0.58299 0.26747 0.59098
 H454 H 0.55321 0.26811 0.55650
 H455 H 0.54534 0.19784 0.56529
 H456 H 0.57470 0.19729 0.60060
 H457 H 0.61344 0.20115 0.60412
 H458 H 0.64468 0.20131 0.63648
 H459 H 0.62313 0.26356 0.67070
 H460 H 0.59118 0.26273 0.63960
 H461 H 0.64006 0.24743 0.71085
 H462 H 0.67341 0.25137 0.73921
 H463 H 0.71155 0.22339 0.67089
 H464 H 0.67842 0.22015 0.64222
 C465 C 0.73603 0.08115 0.90559
 C466 C 0.71608 0.07119 0.91335
 C467 C 0.71581 0.05367 0.93257
 C468 C 0.73556 0.04550 0.94414
 C469 C 0.75557 0.05518 0.93557
 C470 C 0.75576 0.07290 0.91672
 C471 C 0.73629 0.10053 0.88662
 C472 C 0.74834 0.11935 0.89419
 C473 C 0.74853 0.13779 0.87655
 C474 C 0.73693 0.13766 0.85080
 C475 C 0.72499 0.11878 0.84308
 C476 C 0.72450 0.10044 0.86099
 C477 C 0.73752 0.15716 0.83204
 C478 C 0.74244 0.15493 0.80308
 C479 C 0.74427 0.17353 0.78578
 C480 C 0.74086 0.19466 0.79704
 C481 C 0.73534 0.19679 0.82587
 C482 C 0.73386 0.17824 0.84323
 H483 H 0.70065 0.07736 0.90511
 H484 H 0.70007 0.04667 0.93849
 H485 H 0.77115 0.04941 0.94383
 H486 H 0.77136 0.08020 0.91082
 H487 H 0.75742 0.11987 0.91395
 H488 H 0.75799 0.15210 0.88285
 H489 H 0.71586 0.11835 0.82336
 H490 H 0.71516 0.08606 0.85468
 H491 H 0.74545 0.13884 0.79403
 H492 H 0.74850 0.17139 0.76363
 H493 H 0.73267 0.21285 0.83517
 H494 H 0.72989 0.18034 0.86547
 C495 C 0.23627 0.58135 0.40442
 C496 C 0.21687 0.56931 0.40910
 C497 C 0.21666 0.55171 0.42820
 C498 C 0.23594 0.54562 0.44266
 C499 C 0.25546 0.55735 0.43738
 C500 C 0.25558 0.57510 0.41860
 C501 C 0.23630 0.60079 0.38550
 C502 C 0.24618 0.62049 0.39443
 C503 C 0.24623 0.63893 0.37680
 C504 C 0.23662 0.63798 0.34974
 C505 C 0.22683 0.61825 0.34070
 C506 C 0.22651 0.59985 0.35853
 C507 C 0.23708 0.65755 0.33105
 C508 C 0.24366 0.65572 0.30258
 C509 C 0.24539 0.67446 0.28551
 C510 C 0.24028 0.69533 0.29649
 C511 C 0.23310 0.69703 0.32475
 C512 C 0.23164 0.67835 0.34188
 H513 H 0.20173 0.57390 0.39854
 H514 H 0.20139 0.54295 0.43179
 H515 H 0.27057 0.55309 0.44820
 H516 H 0.27080 0.58399 0.41514
 H517 H 0.25368 0.62169 0.41522
 H518 H 0.25406 0.65389 0.38417
 H519 H 0.21922 0.61715 0.31997
 H520 H 0.21888 0.58480 0.35113
 H521 H 0.24807 0.63987 0.29379
 H522 H 0.25093 0.67263 0.26380
 H523 H 0.22906 0.71287 0.33385
 H524 H 0.22632 0.68016 0.36369
 C525 C 0.26613 0.91795 0.90238
 C526 C 0.24653 0.92523 0.91510
 C527 C 0.24677 0.94249 0.93465
 C528 C 0.26664 0.95281 0.94211
 C529 C 0.28623 0.94570 0.92925
 C530 C 0.28597 0.92851 0.90954
 C531 C 0.26587 0.89909 0.88227
 C532 C 0.28275 0.88332 0.88270
 C533 C 0.28201 0.86508 0.86467
 C534 C 0.26430 0.86210 0.84586
 C535 C 0.24760 0.87806 0.84512
 C536 C 0.24841 0.89635 0.86303
 C537 C 0.26289 0.84213 0.82771
 C538 C 0.25447 0.84337 0.79996
 C539 C 0.25221 0.82441 0.78343
 C540 C 0.25844 0.80379 0.79419
 C541 C 0.26726 0.80259 0.82170
 C542 C 0.26938 0.82152 0.83829
 H543 H 0.23101 0.91725 0.91046
 H544 H 0.23140 0.94749 0.94430
 H545 H 0.30179 0.95339 0.93443
 H546 H 0.30131 0.92354 0.89982
 H547 H 0.29633 0.88478 0.89745
 H548 H 0.29530 0.85327 0.86553
 H549 H 0.23360 0.87618 0.83113
 H550 H 0.23529 0.90834 0.86185
 H551 H 0.24966 0.85903 0.79098
 H552 H 0.24549 0.82591 0.76224
 H553 H 0.27211 0.78694 0.83066
 H554 H 0.27560 0.81989 0.85971
 C555 C 0.76711 0.41900 0.40178
 C556 C 0.74733 0.42592 0.41438
 C557 C 0.74723 0.44298 0.43422
 C558 C 0.76692 0.45343 0.44212
 C559 C 0.78668 0.44670 0.42935
 C560 C 0.78677 0.42972 0.40934
 C561 C 0.76722 0.40029 0.38145
 C562 C 0.78429 0.38472 0.38190
 C563 C 0.78384 0.36654 0.36375
 C564 C 0.76625 0.36342 0.34480
 C565 C 0.74938 0.37920 0.34400
 C566 C 0.74990 0.39744 0.36202
 C567 C 0.76508 0.34344 0.32664
 C568 C 0.75666 0.34459 0.29889
 C569 C 0.75448 0.32559 0.28242
 C570 C 0.76081 0.30503 0.29325
 C571 C 0.76968 0.30392 0.32073
 C572 C 0.77171 0.32289 0.33727
 H573 H 0.73194 0.41779 0.40943
 H574 H 0.73174 0.44768 0.44378
 H575 H 0.80212 0.45452 0.43487
 H576 H 0.80224 0.42503 0.39973
 H577 H 0.79777 0.38626 0.39678
 H578 H 0.79726 0.35488 0.36465
 H579 H 0.73546 0.37721 0.32991
 H580 H 0.73665 0.40927 0.36082
 H581 H 0.75174 0.36020 0.28987
 H582 H 0.74772 0.32701 0.26125
 H583 H 0.77461 0.28831 0.32975
 H584 H 0.77794 0.32133 0.35869
 C585 C 0.08203 0.26545 0.90144
 C586 C 0.07481 0.24587 0.91433
 C587 C 0.05750 0.24610 0.93381
 C588 C 0.04708 0.26594 0.94104
 C589 C 0.05413 0.28550 0.92801
 C590 C 0.07137 0.28525 0.90837
 C591 C 0.10094 0.26521 0.88143
 C592 C 0.11664 0.28221 0.88180
 C593 C 0.13495 0.28149 0.86389
 C594 C 0.13808 0.26369 0.84528
 C595 C 0.12219 0.24688 0.84458
 C596 C 0.10382 0.24766 0.86237
 C597 C 0.15815 0.26228 0.82734
 C598 C 0.15710 0.25369 0.79967
 C599 C 0.17617 0.25142 0.78336
 C600 C 0.19671 0.25782 0.79428
 C601 C 0.19772 0.26682 0.82171
 C602 C 0.17869 0.26895 0.83808
 H603 H 0.08287 0.23039 0.90987
 H604 H 0.05255 0.23076 0.94359
 H605 H 0.04636 0.30103 0.93301
 H606 H 0.07629 0.30057 0.89851
 H607 H 0.11507 0.29586 0.89640
 H608 H 0.14671 0.29486 0.86470
 H609 H 0.12418 0.23281 0.83075
 H610 H 0.09189 0.23446 0.86124
 H611 H 0.14151 0.24873 0.79057
 H612 H 0.17482 0.24455 0.76223
 H613 H 0.21331 0.27181 0.83080
 H614 H 0.18017 0.27531 0.85945
 C615 C 0.58165 0.76585 0.40276
 C616 C 0.57440 0.74619 0.41539
 C617 C 0.55705 0.74629 0.43481
 C618 C 0.54661 0.76607 0.44224
 C619 C 0.55369 0.78572 0.42946
 C620 C 0.57098 0.78561 0.40987
 C621 C 0.60062 0.76575 0.38281
 C622 C 0.61631 0.78276 0.38340
 C623 C 0.63466 0.78215 0.36555
 C624 C 0.63783 0.76447 0.34676
 C625 C 0.62195 0.74766 0.34585
 C626 C 0.60355 0.74832 0.36358
 C627 C 0.65793 0.76320 0.32882
 C628 C 0.65691 0.75475 0.30108
 C629 C 0.67599 0.75258 0.28477
 C630 C 0.69652 0.75896 0.29575
 C631 C 0.69750 0.76783 0.32325
 C632 C 0.67845 0.76985 0.33963
 H633 H 0.58247 0.73074 0.41078
 H634 H 0.55208 0.73088 0.44440
 H635 H 0.54592 0.80122 0.43462
 H636 H 0.57592 0.80099 0.40022
 H637 H 0.61471 0.79631 0.39814
 H638 H 0.64641 0.79553 0.36653
 H639 H 0.62398 0.73367 0.33188
 H640 H 0.59163 0.73511 0.36228
 H641 H 0.64133 0.74982 0.29192
 H642 H 0.67466 0.74582 0.26358
 H643 H 0.71308 0.77279 0.33239
 H644 H 0.67991 0.77610 0.36105
 C645 C 0.91750 0.73456 0.90499
 C646 C 0.92582 0.75420 0.91636
 C647 C 0.94367 0.75390 0.93500
 C648 C 0.95341 0.73385 0.94313
 C649 C 0.94517 0.71418 0.93133
 C650 C 0.92751 0.71458 0.91231
 C651 C 0.89797 0.73492 0.88625
 C652 C 0.89784 0.72328 0.86049
 C653 C 0.87934 0.72381 0.84286
 C654 C 0.86052 0.73564 0.85096
 C655 C 0.86062 0.74711 0.87682
 C656 C 0.87922 0.74688 0.89419
 C657 C 0.84082 0.73620 0.83254
 C658 C 0.81986 0.73242 0.84408
 C659 C 0.80112 0.73384 0.82705
 C660 C 0.80293 0.73941 0.79821
 C661 C 0.82394 0.74295 0.78658
 C662 C 0.84273 0.74117 0.80355
 H663 H 0.91847 0.76984 0.91079
 H664 H 0.94949 0.76942 0.94346
 H665 H 0.95221 0.69841 0.93691
 H666 H 0.92129 0.69920 0.90390
 H667 H 0.91215 0.71402 0.85389
 H668 H 0.87959 0.71477 0.82306
 H669 H 0.84637 0.75649 0.88341
 H670 H 0.87887 0.75584 0.91405
 H671 H 0.81800 0.72839 0.86634
 H672 H 0.78517 0.73108 0.83664
 H673 H 0.82584 0.74722 0.76441
 H674 H 0.85872 0.74427 0.79423
 C675 C 0.41851 0.23639 0.40244
 C676 C 0.42468 0.25552 0.41715
 C677 C 0.44237 0.25519 0.43604
 C678 C 0.45410 0.23565 0.44089
 C679 C 0.44811 0.21658 0.42586
 C680 C 0.43057 0.21699 0.40668
 C681 C 0.39910 0.23658 0.38346
 C682 C 0.40006 0.22700 0.35636
 C683 C 0.38164 0.22730 0.33857
 C684 C 0.36186 0.23686 0.34777
 C685 C 0.36090 0.24630 0.37493
 C686 C 0.37936 0.24627 0.39253
 C687 C 0.34225 0.23720 0.32915
 C688 C 0.32150 0.23155 0.34004
 C689 C 0.30278 0.23286 0.32297
 C690 C 0.30437 0.24010 0.29473
 C691 C 0.32519 0.24541 0.28369
 C692 C 0.34398 0.24384 0.30070
 H693 H 0.41577 0.27074 0.41403
 H694 H 0.44656 0.27015 0.44730
 H695 H 0.45687 0.20129 0.42911
 H696 H 0.42604 0.20200 0.39572
 H697 H 0.41513 0.21952 0.34885
 H698 H 0.38275 0.21983 0.31776
 H699 H 0.34591 0.25396 0.38242
 H700 H 0.37814 0.25358 0.41343
 H701 H 0.31977 0.22617 0.36183
 H702 H 0.28698 0.22866 0.33212
 H703 H 0.32695 0.25101 0.26200
 H704 H 0.35978 0.24841 0.29187
 C705 C 0.73419 0.91825 0.90262
 C706 C 0.71462 0.92923 0.90982
 C707 C 0.71480 0.94638 0.92960
 C708 C 0.73456 0.95302 0.94249
 C709 C 0.75417 0.94229 0.93497
 C710 C 0.75397 0.92507 0.91536
 C711 C 0.73397 0.89940 0.88251
 C712 C 0.75139 0.89623 0.86332
 C713 C 0.75179 0.87786 0.84552
 C714 C 0.73470 0.86226 0.84633
 C715 C 0.71702 0.86571 0.86502
 C716 C 0.71668 0.88401 0.88294
 C717 C 0.73575 0.84211 0.82847
 C718 C 0.72877 0.82172 0.83933
 C719 C 0.73066 0.80259 0.82311
 C720 C 0.73974 0.80334 0.79572
 C721 C 0.74642 0.82374 0.78465
 C722 C 0.74438 0.84292 0.80081
 H723 H 0.69916 0.92462 0.90009
 H724 H 0.69943 0.95440 0.93482
 H725 H 0.76965 0.94693 0.94463
 H726 H 0.76928 0.91675 0.91070
 H727 H 0.76481 0.90792 0.86213
 H728 H 0.76578 0.87561 0.83163
 H729 H 0.70344 0.85419 0.86591
 H730 H 0.70312 0.88581 0.89764
 H731 H 0.72237 0.82042 0.86070
 H732 H 0.72547 0.78711 0.83232
 H733 H 0.75336 0.82489 0.76354
 H734 H 0.74958 0.85839 0.79161
 C735 C 0.23483 0.41760 0.40181
 C736 C 0.21521 0.42846 0.40904
 C737 C 0.21530 0.44557 0.42889
 C738 C 0.23502 0.45227 0.44182
 C739 C 0.25468 0.44164 0.43430
 C740 C 0.25457 0.42447 0.41461
 C741 C 0.23471 0.39883 0.38156
 C742 C 0.25214 0.39585 0.36233
 C743 C 0.25260 0.37759 0.34433
 C744 C 0.23558 0.36192 0.34497
 C745 C 0.21790 0.36516 0.36374
 C746 C 0.21750 0.38336 0.38186
 C747 C 0.23667 0.34192 0.32684
 C748 C 0.22979 0.32142 0.33743
 C749 C 0.23173 0.30243 0.32093
 C750 C 0.24073 0.30346 0.29350
 C751 C 0.24731 0.32398 0.28271
 C752 C 0.24524 0.34300 0.29915
 H753 H 0.19977 0.42382 0.39927
 H754 H 0.19989 0.45351 0.43412
 H755 H 0.27014 0.44632 0.44399
 H756 H 0.26992 0.41623 0.40992
 H757 H 0.26550 0.40760 0.36125
 H758 H 0.26659 0.37551 0.33039
 H759 H 0.20437 0.35358 0.36452
 H760 H 0.20394 0.38501 0.39659
 H761 H 0.22345 0.31991 0.35880
 H762 H 0.22661 0.28686 0.32993
 H763 H 0.25419 0.32534 0.26159
 H764 H 0.25035 0.35858 0.29016
 C765 C 0.26757 0.07975 0.90298
 C766 C 0.24770 0.07165 0.91412
 C767 C 0.24765 0.05447 0.93378
 C768 C 0.26751 0.04503 0.94311
 C769 C 0.28740 0.05301 0.93171
 C770 C 0.28741 0.07009 0.91184
 C771 C 0.26756 0.09857 0.88280
 C772 C 0.28392 0.11490 0.88431
 C773 C 0.28335 0.13310 0.86623
 C774 C 0.26630 0.13555 0.84633
 C775 C 0.25015 0.11903 0.84449
 C776 C 0.25082 0.10074 0.86241
 C777 C 0.26494 0.15556 0.82823
 C778 C 0.25733 0.15425 0.80010
 C779 C 0.25511 0.17324 0.78362
 C780 C 0.26062 0.19394 0.79481
 C781 C 0.26863 0.19522 0.82272
 C782 C 0.27067 0.17628 0.83927
 H783 H 0.23214 0.07894 0.90817
 H784 H 0.23197 0.04890 0.94203
 H785 H 0.30306 0.04613 0.93812
 H786 H 0.30299 0.07566 0.90333
 H787 H 0.29693 0.11391 0.89994
 H788 H 0.29625 0.14532 0.86795
 H789 H 0.23664 0.12046 0.82964
 H790 H 0.23814 0.08832 0.86034
 H791 H 0.25313 0.13853 0.79075
 H792 H 0.24902 0.17170 0.76212
 H793 H 0.27289 0.21094 0.83203
 H794 H 0.27621 0.17798 0.86098
 C795 C 0.76713 0.58129 0.40466
 C796 C 0.74739 0.57421 0.41726
 C797 C 0.74732 0.55693 0.43677
 C798 C 0.76702 0.54640 0.44435
 C799 C 0.78677 0.55338 0.43170
 C800 C 0.78682 0.57059 0.41202
 C801 C 0.76716 0.60006 0.38442
 C802 C 0.78420 0.61571 0.38484
 C803 C 0.78369 0.63388 0.36670
 C804 C 0.76607 0.63692 0.34779
 C805 C 0.74923 0.62106 0.34703
 C806 C 0.74980 0.60283 0.36505
 C807 C 0.76486 0.65687 0.32960
 C808 C 0.75644 0.65566 0.30185
 C809 C 0.75427 0.67464 0.28535
 C810 C 0.76061 0.69524 0.29614
 C811 C 0.76945 0.69640 0.32364
 C812 C 0.77148 0.67746 0.34021
 H813 H 0.73199 0.58232 0.41248
 H814 H 0.73184 0.55205 0.44625
 H815 H 0.80221 0.54552 0.43699
 H816 H 0.80226 0.57542 0.40242
 H817 H 0.79771 0.61421 0.39967
 H818 H 0.79709 0.64561 0.36757
 H819 H 0.73529 0.62298 0.33297
 H820 H 0.73657 0.59093 0.36386
 H821 H 0.75152 0.64003 0.29285
 H822 H 0.74752 0.67317 0.26417
 H823 H 0.77438 0.71203 0.33264
 H824 H 0.77770 0.67907 0.36163
 C825 C 0.07975 0.73317 0.90102
 C826 C 0.06999 0.71332 0.90973
 C827 C 0.05297 0.71325 0.92967
 C828 C 0.04511 0.73309 0.94129
 C829 C 0.05459 0.75299 0.93205
 C830 C 0.07174 0.75300 0.91231
 C831 C 0.09862 0.73322 0.88088
 C832 C 0.10098 0.75005 0.86065
 C833 C 0.11932 0.75072 0.84278
 C834 C 0.13569 0.73446 0.84452
 C835 C 0.13306 0.71733 0.86427
 C836 C 0.11481 0.71677 0.88230
 C837 C 0.15577 0.73579 0.82652
 C838 C 0.17641 0.72986 0.83758
 C839 C 0.19542 0.73185 0.82113
 C840 C 0.19430 0.74003 0.79329
 C841 C 0.17368 0.74576 0.78207
 C842 C 0.15462 0.74357 0.79845
 H843 H 0.07547 0.69777 0.90109
 H844 H 0.04604 0.69758 0.93600
 H845 H 0.04911 0.76863 0.94045
 H846 H 0.07909 0.76858 0.90646
 H847 H 0.08868 0.76280 0.85866
 H848 H 0.12090 0.76429 0.82806
 H849 H 0.14516 0.70435 0.86591
 H850 H 0.11369 0.70369 0.89781
 H851 H 0.17800 0.72418 0.85924
 H852 H 0.21107 0.72744 0.83047
 H853 H 0.17227 0.75199 0.76062
 H854 H 0.13897 0.74794 0.78908
 C855 C 0.58336 0.23649 0.40282
 C856 C 0.57124 0.21707 0.40698
 C857 C 0.55368 0.21661 0.42616
 C858 C 0.54774 0.23565 0.44125
 C859 C 0.55956 0.25519 0.43651
 C860 C 0.57725 0.25557 0.41762
 C861 C 0.60273 0.23676 0.38377
 C862 C 0.62251 0.24644 0.39283
 C863 C 0.64090 0.24665 0.37512
 C864 C 0.63985 0.23739 0.34785
 C865 C 0.62004 0.22781 0.33868
 C866 C 0.60168 0.22734 0.35658
 C867 C 0.65939 0.23795 0.32910
 C868 C 0.65754 0.24480 0.30075
 C869 C 0.67627 0.24660 0.28364
 C870 C 0.69714 0.24129 0.29448
 C871 C 0.69884 0.23384 0.32262
 C872 C 0.68019 0.23231 0.33978
 H873 H 0.57572 0.20211 0.39594
 H874 H 0.54486 0.20132 0.42932
 H875 H 0.55540 0.27013 0.44781
 H876 H 0.58620 0.27080 0.41457
 H877 H 0.62380 0.25364 0.41378
 H878 H 0.65592 0.25431 0.38259
 H879 H 0.61886 0.22048 0.31779
 H880 H 0.58658 0.21987 0.34908
 H881 H 0.64170 0.24936 0.29208
 H882 H 0.67443 0.25235 0.26203
 H883 H 0.71468 0.22965 0.33160
 H884 H 0.68201 0.22677 0.36149
 C885 C 0.91951 0.26613 0.90026
 C886 C 0.93037 0.28584 0.90724
 C887 C 0.94742 0.28597 0.92716
 C888 C 0.95406 0.26638 0.94042
 C889 C 0.94343 0.24664 0.93314
 C890 C 0.92631 0.24652 0.91338
 C891 C 0.90076 0.26600 0.87998
 C892 C 0.89776 0.24835 0.86110
 C893 C 0.87944 0.24757 0.84324
 C894 C 0.86373 0.26451 0.84367
 C895 C 0.86704 0.28246 0.86201
 C896 C 0.88529 0.28316 0.88000
 C897 C 0.84359 0.26303 0.82584
 C898 C 0.82316 0.26995 0.83657
 C899 C 0.80403 0.26764 0.82042
 C900 C 0.80484 0.25820 0.79324
 C901 C 0.82528 0.25157 0.78230
 C902 C 0.84445 0.25403 0.79838
 H903 H 0.92576 0.30117 0.89722
 H904 H 0.95537 0.30143 0.93221
 H905 H 0.94806 0.23127 0.94308
 H906 H 0.91807 0.23111 0.90891
 H907 H 0.90952 0.23502 0.86022
 H908 H 0.87731 0.23339 0.82962
 H909 H 0.85544 0.29594 0.86259
 H910 H 0.88697 0.29690 0.89445
 H911 H 0.82181 0.27662 0.85780
 H912 H 0.78852 0.27281 0.82953
 H913 H 0.82646 0.24436 0.76134
 H914 H 0.85996 0.24886 0.78928
 C915 C 0.41848 0.76618 0.40239
 C916 C 0.42924 0.78590 0.40959
 C917 C 0.44644 0.78597 0.42929
 C918 C 0.45335 0.76629 0.44212
 C919 C 0.44282 0.74654 0.43463
 C920 C 0.42555 0.74650 0.41509
 C921 C 0.39961 0.76612 0.38229
 C922 C 0.39668 0.74868 0.36307
 C923 C 0.37835 0.74802 0.34521
 C924 C 0.36254 0.76487 0.34599
 C925 C 0.36573 0.78257 0.36475
 C926 C 0.38401 0.78316 0.38273
 C927 C 0.34248 0.76357 0.32798
 C928 C 0.32196 0.77026 0.33868
 C929 C 0.30293 0.76814 0.32227
 C930 C 0.30394 0.75914 0.29485
 C931 C 0.32447 0.75274 0.28395
 C932 C 0.34353 0.75501 0.30029
 H933 H 0.42443 0.80130 0.39990
 H934 H 0.45430 0.80144 0.43451
 H935 H 0.44765 0.73112 0.44424
 H936 H 0.41740 0.73107 0.41043
 H937 H 0.40854 0.73544 0.36187
 H938 H 0.37631 0.73401 0.33127
 H939 H 0.35405 0.79597 0.36563
 H940 H 0.38563 0.79674 0.39745
 H941 H 0.32048 0.77660 0.36005
 H942 H 0.28735 0.77312 0.33135
 H943 H 0.32581 0.74588 0.26282
 H944 H 0.35911 0.75004 0.29121
 C945 C 0.26622 0.91762 0.09839
 C946 C 0.24660 0.92495 0.08577
 C947 C 0.24682 0.94230 0.06636
 C948 C 0.26668 0.95266 0.05894
 C949 C 0.28628 0.94550 0.07172
 C950 C 0.28605 0.92821 0.09128
 C951 C 0.26598 0.89868 0.11836
 C952 C 0.28287 0.88292 0.11779
 C953 C 0.28216 0.86463 0.13574
 C954 C 0.26450 0.86161 0.15461
 C955 C 0.24778 0.87754 0.15546
 C956 C 0.24855 0.89588 0.13763
 C957 C 0.26316 0.84163 0.17274
 C958 C 0.25482 0.84287 0.20052
 C959 C 0.25261 0.82391 0.21706
 C960 C 0.25884 0.80330 0.20627
 C961 C 0.26759 0.80209 0.17873
 C962 C 0.26966 0.82102 0.16213
 H963 H 0.23109 0.91694 0.09037
 H964 H 0.23144 0.94734 0.05677
 H965 H 0.30184 0.95322 0.06656
 H966 H 0.30140 0.92321 0.10093
 H967 H 0.29642 0.88443 0.10301
 H968 H 0.29546 0.85284 0.13479
 H969 H 0.23381 0.87562 0.16949
 H970 H 0.23543 0.90786 0.13892
 H971 H 0.25001 0.85852 0.20954
 H972 H 0.24594 0.82541 0.23827
 H973 H 0.27244 0.78644 0.16974
 H974 H 0.27584 0.81940 0.14069
 C975 C 0.76503 0.41502 0.59595
 C976 C 0.78445 0.42711 0.59174
 C977 C 0.78478 0.44495 0.57300
 C978 C 0.76561 0.45120 0.55843
 C979 C 0.74607 0.43937 0.56319
 C980 C 0.74582 0.42140 0.58162
 C981 C 0.76482 0.39547 0.61470
 C982 C 0.75485 0.37586 0.60557
 C983 C 0.75453 0.35738 0.62314
 C984 C 0.76395 0.35820 0.65032
 C985 C 0.77389 0.37783 0.65951
 C986 C 0.77448 0.39626 0.64176
 C987 C 0.76307 0.33867 0.66907
 C988 C 0.75647 0.34072 0.69750
 C989 C 0.75444 0.32210 0.71471
 C990 C 0.75925 0.30110 0.70390
 C991 C 0.76639 0.29915 0.67566
 C992 C 0.76815 0.31773 0.65838
 H993 H 0.79951 0.42243 0.60241
 H994 H 0.80007 0.45377 0.56980
 H995 H 0.73104 0.44375 0.55227
 H996 H 0.73058 0.41247 0.58473
 H997 H 0.74747 0.37477 0.58471
 H998 H 0.74659 0.34251 0.61566
 H999 H 0.78137 0.37883 0.68032
 H1000 H 0.78216 0.41123 0.64932
 H1001 H 0.75230 0.35667 0.70619
 H1002 H 0.74895 0.32413 0.73640
 H1003 H 0.77021 0.28320 0.66670
 H1004 H 0.77348 0.31575 0.63660
 C1005 C 0.73671 0.08203 0.09742
 C1006 C 0.75595 0.07571 0.08313
 C1007 C 0.75570 0.05794 0.06436
 C1008 C 0.73613 0.04628 0.05923
 C1009 C 0.71693 0.05242 0.07384
 C1010 C 0.71726 0.07004 0.09292
 C1011 C 0.73687 0.10153 0.11624
 C1012 C 0.72722 0.10070 0.14331
 C1013 C 0.72764 0.11918 0.16102
 C1014 C 0.73737 0.13888 0.15174
 C1015 C 0.74683 0.13972 0.12459
 C1016 C 0.74669 0.12120 0.10708
 C1017 C 0.73791 0.15853 0.17028
 C1018 C 0.73235 0.17926 0.15934
 C1019 C 0.73393 0.19804 0.17628
 C1020 C 0.74137 0.19651 0.20444
 C1021 C 0.74659 0.17570 0.21554
 C1022 C 0.74473 0.15687 0.19866
 H1023 H 0.77120 0.08457 0.08646
 H1024 H 0.77076 0.05364 0.05342
 H1025 H 0.70161 0.04371 0.07036
 H1026 H 0.70219 0.07469 0.10358
 H1027 H 0.71964 0.08568 0.15088
 H1028 H 0.72015 0.11817 0.18183
 H1029 H 0.75461 0.15465 0.11704
 H1030 H 0.75407 0.12231 0.08621
 H1031 H 0.72684 0.18094 0.13759
 H1032 H 0.72980 0.21382 0.16710
 H1033 H 0.75233 0.17401 0.23718
 H1034 H 0.74924 0.14107 0.20752
 C1035 C 0.23628 0.58131 0.59681
 C1036 C 0.25561 0.57503 0.58267
 C1037 C 0.25550 0.55725 0.56392
 C1038 C 0.23599 0.54551 0.55865
 C1039 C 0.21671 0.55161 0.57310
 C1040 C 0.21689 0.56925 0.59216
 C1041 C 0.23628 0.60080 0.61566
 C1042 C 0.22638 0.59995 0.64258
 C1043 C 0.22662 0.61841 0.66032
 C1044 C 0.23643 0.63813 0.65123
 C1045 C 0.24615 0.63899 0.62422
 C1046 C 0.24618 0.62049 0.60669
 C1047 C 0.23680 0.65776 0.66984
 C1048 C 0.23143 0.67854 0.65886
 C1049 C 0.23281 0.69727 0.67592
 C1050 C 0.23984 0.69565 0.70425
 C1051 C 0.24487 0.67481 0.71537
 C1052 C 0.24322 0.65602 0.69837
 H1053 H 0.27082 0.58394 0.58612
 H1054 H 0.27062 0.55298 0.55311
 H1055 H 0.20143 0.54285 0.56951
 H1056 H 0.20175 0.57385 0.60268
 H1057 H 0.21874 0.58492 0.65002
 H1058 H 0.21893 0.61738 0.68100
 H1059 H 0.25400 0.65393 0.61682
 H1060 H 0.25375 0.62162 0.58594
 H1061 H 0.22623 0.68028 0.63700
 H1062 H 0.22884 0.71309 0.66672
 H1063 H 0.25030 0.67304 0.73713
 H1064 H 0.24757 0.64019 0.70727
 C1065 C 0.91949 0.73326 0.09912
 C1066 C 0.93009 0.71353 0.09173
 C1067 C 0.94708 0.71345 0.07173
 C1068 C 0.95395 0.73312 0.05880
 C1069 C 0.94361 0.75288 0.06651
 C1070 C 0.92653 0.75294 0.08634
 C1071 C 0.90077 0.73331 0.11946
 C1072 C 0.89800 0.75075 0.13872
 C1073 C 0.87977 0.75140 0.15676
 C1074 C 0.86392 0.73455 0.15613
 C1075 C 0.86696 0.71684 0.13735
 C1076 C 0.88513 0.71626 0.11919
 C1077 C 0.84393 0.73585 0.17426
 C1078 C 0.82337 0.72913 0.16367
 C1079 C 0.80440 0.73116 0.18019
 C1080 C 0.80550 0.74011 0.20764
 C1081 C 0.82607 0.74658 0.21842
 C1082 C 0.84507 0.74440 0.20195
 H1083 H 0.92531 0.69813 0.10148
 H1084 H 0.95481 0.69796 0.06637
 H1085 H 0.94842 0.76830 0.05682
 H1086 H 0.91851 0.76838 0.09115
 H1087 H 0.90990 0.76400 0.13979
 H1088 H 0.87784 0.76541 0.17072
 H1089 H 0.85524 0.70343 0.13659
 H1090 H 0.88661 0.70269 0.10445
 H1091 H 0.82180 0.72281 0.14229
 H1092 H 0.78879 0.72613 0.17120
 H1093 H 0.82748 0.75341 0.23956
 H1094 H 0.86069 0.74941 0.21094
 C1095 C 0.41962 0.23272 0.59775
 C1096 C 0.43028 0.21311 0.58995
 C1097 C 0.44733 0.21334 0.57003
 C1098 C 0.45419 0.23321 0.55759
 C1099 C 0.44373 0.25283 0.56564
 C1100 C 0.42661 0.25258 0.58539
 C1101 C 0.40094 0.23249 0.61813
 C1102 C 0.39819 0.24970 0.63774
 C1103 C 0.37998 0.25014 0.65580
 C1104 C 0.36412 0.23331 0.65486
 C1105 C 0.36715 0.21581 0.63575
 C1106 C 0.38530 0.21544 0.61755
 C1107 C 0.34413 0.23444 0.67300
 C1108 C 0.32355 0.22789 0.66227
 C1109 C 0.30458 0.22989 0.67877
 C1110 C 0.30568 0.23864 0.70633
 C1111 C 0.32626 0.24490 0.71725
 C1112 C 0.34528 0.24275 0.70081
 H1113 H 0.42553 0.19757 0.59936
 H1114 H 0.45514 0.19796 0.56439
 H1115 H 0.44852 0.26839 0.55633
 H1116 H 0.41852 0.26792 0.59049
 H1117 H 0.41009 0.26292 0.63905
 H1118 H 0.37807 0.26399 0.67002
 H1119 H 0.35542 0.20242 0.63474
 H1120 H 0.38678 0.20204 0.60255
 H1121 H 0.32199 0.22176 0.64080
 H1122 H 0.28895 0.22502 0.66967
 H1123 H 0.32767 0.25157 0.73848
 H1124 H 0.36090 0.24761 0.70991
 C1125 C 0.08163 0.26592 0.09763
 C1126 C 0.07112 0.28573 0.09037
 C1127 C 0.05392 0.28590 0.07068
 C1128 C 0.04676 0.26625 0.05793
 C1129 C 0.05703 0.24643 0.06551
 C1130 C 0.07430 0.24627 0.08504
 C1131 C 0.10052 0.26574 0.11769
 C1132 C 0.10324 0.24834 0.13700
 C1133 C 0.12159 0.24757 0.15481
 C1134 C 0.13762 0.26425 0.15389
 C1135 C 0.13464 0.28191 0.13503
 C1136 C 0.11635 0.28262 0.11710
 C1137 C 0.15765 0.26285 0.17190
 C1138 C 0.17825 0.26929 0.16115
 C1139 C 0.19724 0.26715 0.17761
 C1140 C 0.19610 0.25838 0.20515
 C1141 C 0.17549 0.25219 0.21607
 C1142 C 0.15648 0.25447 0.19967
 H1143 H 0.07613 0.30111 0.09999
 H1144 H 0.04626 0.30143 0.06539
 H1145 H 0.05200 0.23102 0.05596
 H1146 H 0.08225 0.23078 0.08976
 H1147 H 0.09121 0.23524 0.13831
 H1148 H 0.12346 0.23360 0.16883
 H1149 H 0.14650 0.29518 0.13405
 H1150 H 0.11489 0.29615 0.10230
 H1151 H 0.17982 0.27547 0.13971
 H1152 H 0.21288 0.27196 0.16853
 H1153 H 0.17405 0.24551 0.23728
 H1154 H 0.14084 0.24970 0.20879
 C1155 C 0.58137 0.76544 0.59884
 C1156 C 0.57089 0.78527 0.59159
 C1157 C 0.55370 0.78548 0.57188
 C1158 C 0.54651 0.76586 0.55910
 C1159 C 0.55677 0.74602 0.56663
 C1160 C 0.57403 0.74582 0.58619
 C1161 C 0.60020 0.76521 0.61900
 C1162 C 0.60281 0.74781 0.63833
 C1163 C 0.62106 0.74702 0.65630
 C1164 C 0.63711 0.76369 0.65553
 C1165 C 0.63426 0.78134 0.63662
 C1166 C 0.61606 0.78206 0.61853
 C1167 C 0.65702 0.76230 0.67379
 C1168 C 0.67771 0.76871 0.66327
 C1169 C 0.69657 0.76660 0.67997
 C1170 C 0.69523 0.75789 0.70752
 C1171 C 0.67454 0.75174 0.71821
 C1172 C 0.65564 0.75399 0.70157
 H1173 H 0.57592 0.80063 0.60125
 H1174 H 0.54606 0.80104 0.56663
 H1175 H 0.55173 0.73063 0.55705
 H1176 H 0.58195 0.73031 0.59090
 H1177 H 0.59076 0.73472 0.63954
 H1178 H 0.62284 0.73306 0.67037
 H1179 H 0.64614 0.79460 0.63574
 H1180 H 0.61469 0.79560 0.60372
 H1181 H 0.67943 0.77485 0.64183
 H1182 H 0.71228 0.77138 0.67105
 H1183 H 0.67293 0.74510 0.73943
 H1184 H 0.63994 0.74924 0.71051
   
