data_POSCAR
  _audit_creation_date              2014-09-24
  _audit_creation_method            'ToBaCCo'
  _symmetry_space_group_name_H-M    'P1'
  _symmetry_Int_Tables_number       1
  _symmetry_cell_setting            triclinic
  loop_
  _symmetry_equiv_pos_as_xyz
 x,y,z
_cell_length_a 26.4187
_cell_length_b 26.5022
_cell_length_c 9.2831
_cell_angle_alpha 88.854900
_cell_angle_beta 91.613800
_cell_angle_gamma 119.545500
loop_
  _atom_site_label
  _atom_site_type_symbol
  _atom_site_fract_x
  _atom_site_fract_y
  _atom_site_fract_z
O1 O 0.26749 0.44407 0.65499
 O2 O 0.16384 0.42972 0.36503
 O3 O 0.27623 0.44477 0.36936
 O4 O 0.16662 0.43629 0.63000
 O5 O 0.21131 0.53150 0.61691
 O6 O 0.32171 0.54056 0.36746
 O7 O 0.21897 0.52232 0.31994
 O8 O 0.31549 0.53964 0.63142
 Cu9 Cu 0.21580 0.42841 0.50093
 Cu10 Cu 0.26540 0.53878 0.48321
 C11 C 0.30971 0.49340 0.69077
 C12 C 0.17317 0.47513 0.29590
 C13 C 0.31848 0.49353 0.32825
 C14 C 0.17064 0.48434 0.66527
 O15 O 0.56853 -0.27051 0.37093
 O16 O 0.55412 -0.16994 0.62235
 O17 O 0.55449 -0.27427 0.63153
 O18 O 0.56643 -0.17543 0.33531
 O19 O 0.47120 -0.21460 0.33935
 O20 O 0.45878 -0.31510 0.63439
 O21 O 0.45809 -0.21894 0.61010
 O22 O 0.47360 -0.31358 0.34478
 Cu23 Cu 0.57089 -0.21551 0.49792
 Cu24 Cu 0.45941 -0.27016 0.47443
 C25 C 0.52146 -0.31015 0.31482
 C26 C 0.50499 -0.17630 0.65911
 C27 C 0.50568 -0.31311 0.67920
 C28 C 0.51947 -0.17863 0.28702
 O29 O 1.17046 0.72560 0.62690
 O30 O 1.27840 0.82790 0.36862
 O31 O 1.18083 0.72364 0.35065
 O32 O 1.26269 0.82889 0.64073
 O33 O 1.31519 0.78584 0.65488
 O34 O 1.23027 0.67645 0.37619
 O35 O 1.32263 0.77588 0.36435
 O36 O 1.22045 0.67940 0.64423
 Cu37 Cu 1.21750 0.78095 0.49152
 Cu38 Cu 1.27834 0.72893 0.52018
 C39 C 1.17714 0.68440 0.67872
 C40 C 1.31882 0.81998 0.32160
 C41 C 1.18836 0.68119 0.31822
 C42 C 1.30479 0.82461 0.69596
 O43 O 0.83926 0.56619 0.38013
 O44 O 0.72544 0.56452 0.61720
 O45 O 0.83111 0.57445 0.65900
 O46 O 0.74014 0.56597 0.34095
 O47 O 0.69102 0.47041 0.35630
 O48 O 0.78751 0.47930 0.65929
 O49 O 0.68612 0.46994 0.64174
 O50 O 0.78927 0.47086 0.37814
 Cu51 Cu 0.78890 0.57816 0.49921
 Cu52 Cu 0.73626 0.46713 0.51026
 C53 C 0.83239 0.51774 0.33661
 C54 C 0.68648 0.51654 0.67112
 C55 C 0.82546 0.52721 0.71018
 C56 C 0.69927 0.51736 0.29680
 O57 O 0.44944 0.27366 0.35899
 O58 O 0.43342 0.16686 0.64086
 O59 O 0.43726 0.26949 0.63754
 O60 O 0.44693 0.17179 0.36884
 O61 O 0.54257 0.21684 0.39667
 O62 O 0.53271 0.31594 0.65640
 O63 O 0.52795 0.21681 0.67549
 O64 O 0.54552 0.31883 0.37777
 Cu65 Cu 0.43157 0.21596 0.49813
 Cu66 Cu 0.54360 0.26986 0.53086
 C67 C 0.49897 0.31471 0.32146
 C68 C 0.47956 0.17381 0.70454
 C69 C 0.48442 0.31026 0.69108
 C70 C 0.49594 0.17627 0.34052
 O71 O 0.82404 0.27854 0.63688
 O72 O 0.73120 0.16594 0.37206
 O73 O 0.82519 0.26827 0.35782
 O74 O 0.72287 0.17698 0.64138
 O75 O 0.67389 0.22463 0.62286
 O76 O 0.78151 0.32062 0.35358
 O77 O 0.68511 0.21514 0.34264
 O78 O 0.77096 0.32207 0.62987
 Cu79 Cu 0.78171 0.21829 0.50726
 Cu80 Cu 0.72328 0.27247 0.47697
 C81 C 0.81526 0.31910 0.67916
 C82 C 0.69077 0.17214 0.31312
 C83 C 0.82087 0.31127 0.30917
 C84 C 0.67968 0.18294 0.67596
 O85 O 1.08976 0.62374 0.26319
 O86 O 1.15153 0.60678 0.12982
 C87 C 1.14133 0.63410 0.23087
 O88 O 0.91760 0.36228 0.23671
 O89 O 0.85281 0.38525 0.12575
 C90 C 0.86567 0.35422 0.21423
 O91 O 1.07771 0.43519 0.23172
 O92 O 1.14432 0.51868 0.11817
 C93 C 1.13035 0.47553 0.20763
 O94 O 0.93046 0.55200 0.27583
 O95 O 0.85937 0.47558 0.14629
 C96 C 0.87641 0.51532 0.24565
 Zr97 Zr 1.00701 0.55770 0.19410
 O98 O 1.01308 0.54045 0.41218
 O99 O 1.00979 0.63635 0.24632
 Zr100 Zr 0.99812 0.42633 0.15547
 O101 O 0.99888 0.40043 0.37127
 O102 O 0.99565 0.34834 0.09512
 O103 O 1.05446 0.51418 0.20292
 O104 O 0.95288 0.46898 0.20670
 O105 O 0.92122 0.56825 -0.20819
 O106 O 0.85444 0.48111 -0.10993
 C107 C 0.86877 0.52673 -0.19042
 O108 O 1.07201 0.44862 -0.27768
 O109 O 1.14210 0.52455 -0.14560
 C110 C 1.12585 0.48584 -0.24644
 O111 O 0.91102 0.37005 -0.25265
 O112 O 0.84889 0.39316 -0.14104
 C113 C 0.85933 0.36250 -0.23261
 O114 O 1.07944 0.63072 -0.25478
 O115 O 1.14524 0.61047 -0.13732
 C116 C 1.13174 0.63973 -0.23042
 Zr117 Zr 1.00060 0.57046 -0.16008
 O118 O 0.99265 0.58838 -0.37946
 O119 O 1.01377 0.65449 -0.11733
 Zr120 Zr 0.99342 0.44025 -0.19759
 O121 O 0.98318 0.45400 -0.41578
 O122 O 0.99192 0.36324 -0.25963
 Zr123 Zr 1.08814 0.53884 -0.00623
 Zr124 Zr 0.91133 0.45886 0.00314
 O125 O 0.94601 0.48332 -0.20479
 O126 O 1.04811 0.52943 -0.21240
 O127 O 0.95140 0.54991 0.02332
 O128 O 1.04734 0.44780 -0.02509
 O129 O 1.05619 0.59691 0.01506
 O130 O 0.94187 0.39933 -0.02086
 H131 H 0.92950 0.45598 0.29515
 H132 H 1.07177 0.42913 -0.03100
 H133 H 0.91834 0.47392 -0.28734
 H134 H 1.08439 0.63905 0.01611
 H135 H 0.95453 0.31848 0.07752
 H136 H 0.99466 0.34393 -0.17001
 H137 H 1.02285 0.47058 -0.45290
 H138 H 0.95661 0.55557 -0.42002
 H139 H 0.98100 0.65022 -0.05927
 H140 H 1.02640 0.66288 0.16310
 H141 H 1.05443 0.55604 0.44156
 H142 H 0.99784 0.36245 0.37107
 O143 O 0.37961 0.45548 0.27233
 O144 O 0.39064 0.53522 0.14418
 C145 C 0.36570 0.49517 0.24271
 O146 O 0.64735 0.56107 0.21169
 O147 O 0.62376 0.47332 0.11319
 C148 C 0.65566 0.51750 0.19586
 O149 O 0.56367 0.63685 0.24708
 O150 O 0.47697 0.61886 0.13901
 C151 C 0.52107 0.64743 0.22784
 O152 O 0.46014 0.37479 0.26140
 O153 O 0.53798 0.38758 0.12928
 C154 C 0.49956 0.36147 0.22950
 Zr155 Zr 0.44825 0.44457 0.19336
 O156 O 0.47108 0.45951 0.41182
 O157 O 0.37202 0.36735 0.24956
 Zr158 Zr 0.57483 0.57073 0.15809
 O159 O 0.59858 0.58593 0.37836
 O160 O 0.64923 0.65183 0.11261
 O161 O 0.48673 0.53429 0.20959
 O162 O 0.53786 0.48262 0.20107
 O163 O 0.44335 0.36703 -0.24178
 O164 O 0.52868 0.38380 -0.12919
 C165 C 0.48463 0.35500 -0.21726
 O166 O 0.54759 0.63303 -0.25682
 O167 O 0.46521 0.61499 -0.13859
 C168 C 0.50547 0.64326 -0.23331
 O169 O 0.62926 0.55546 -0.26671
 O170 O 0.61550 0.47235 -0.15111
 C171 C 0.64226 0.51474 -0.24395
 O172 O 0.36895 0.45431 -0.24748
 O173 O 0.38376 0.53406 -0.12011
 C174 C 0.35627 0.49419 -0.21708
 Zr175 Zr 0.43157 0.43438 -0.16066
 O176 O 0.40376 0.40821 -0.37487
 O177 O 0.35292 0.35958 -0.10201
 Zr178 Zr 0.55721 0.56141 -0.19503
 O179 O 0.53030 0.54283 -0.40996
 O180 O 0.63228 0.63753 -0.26199
 Zr181 Zr 0.45841 0.54731 0.00398
 Zr182 Zr 0.54759 0.45814 -0.00658
 O183 O 0.51920 0.47234 -0.21038
 O184 O 0.46731 0.52313 -0.20544
 O185 O 0.45700 0.40301 0.01609
 O186 O 0.54878 0.60127 -0.01606
 O187 O 0.40467 0.45660 0.01985
 O188 O 0.60228 0.54879 -0.02445
 H189 H 0.55400 0.47098 0.28459
 H190 H 0.56504 0.64391 -0.01597
 H191 H 0.52930 0.45877 -0.29811
 H192 H 0.36203 0.44085 0.02326
 H193 H 0.67706 0.64474 0.05940
 H194 H 0.65132 0.65973 -0.17343
 H195 H 0.51382 0.56753 -0.44361
 H196 H 0.36497 0.37266 -0.37261
 H197 H 0.36128 0.32741 -0.08445
 H198 H 0.34692 0.35402 0.16202
 H199 H 0.45158 0.48060 0.44535
 H200 H 0.59815 0.55103 0.42001
 O201 O 0.45815 0.07738 0.28300
 O202 O 0.53378 0.14443 0.14857
 C203 C 0.49676 0.13045 0.25194
 O204 O 0.56434 -0.08359 0.20382
 O205 O 0.47477 -0.14765 0.10787
 C206 C 0.52062 -0.13498 0.18770
 O207 O 0.63582 0.07489 0.24494
 O208 O 0.61665 0.14180 0.13130
 C209 C 0.64619 0.12732 0.22131
 O210 O 0.37069 -0.08431 0.25519
 O211 O 0.38983 -0.14866 0.14031
 C212 C 0.36125 -0.13653 0.23352
 Zr213 Zr 0.44276 -0.00352 0.19913
 O214 O 0.45287 -0.01606 0.41794
 O215 O 0.36708 -0.00124 0.25733
 Zr216 Zr 0.57041 -0.00291 0.15536
 O217 O 0.59059 -0.00822 0.37488
 O218 O 0.65211 0.00496 0.10817
 O219 O 0.53301 0.04771 0.21123
 O220 O 0.48306 -0.05361 0.20359
 O221 O 0.35680 -0.07938 -0.22846
 O222 O 0.37857 -0.14548 -0.12213
 C223 C 0.34739 -0.13149 -0.20725
 O224 O 0.62144 0.08397 -0.26879
 O225 O 0.60800 0.14779 -0.13381
 C226 C 0.63350 0.13613 -0.23601
 O227 O 0.54178 -0.07735 -0.28181
 O228 O 0.46587 -0.14524 -0.14833
 C229 C 0.50386 -0.13071 -0.25038
 O230 O 0.43628 0.07942 -0.22851
 O231 O 0.52291 0.14391 -0.11901
 C232 C 0.47884 0.13109 -0.20669
 Zr233 Zr 0.42549 -0.00011 -0.15275
 O234 O 0.39793 -0.00109 -0.36850
 O235 O 0.35019 0.00264 -0.09080
 Zr236 Zr 0.55411 0.00198 -0.19789
 O237 O 0.53790 0.00664 -0.41715
 O238 O 0.63071 -0.00047 -0.24605
 Zr239 Zr 0.54176 0.08690 0.00521
 Zr240 Zr 0.45497 -0.08916 -0.00414
 O241 O 0.46440 -0.04858 -0.20734
 O242 O 0.51359 0.05236 -0.20369
 O243 O 0.39848 -0.05509 0.02333
 O244 O 0.59679 0.05146 -0.02004
 O245 O 0.45114 0.05035 0.02786
 O246 O 0.54559 -0.05339 -0.02792
 H247 H 0.47368 -0.08050 0.28679
 H248 H 0.63932 0.07819 -0.02351
 H249 H 0.44908 -0.07244 -0.29540
 H250 H 0.43494 0.07685 0.03576
 H251 H 0.64517 -0.02850 0.04850
 H252 H 0.66017 0.02127 -0.17019
 H253 H 0.55351 0.04767 -0.44670
 H254 H 0.36129 0.00078 -0.36846
 H255 H 0.32012 -0.03701 -0.06275
 H256 H 0.35438 0.01334 0.17304
 H257 H 0.46791 0.02263 0.46027
 H258 H 0.55934 -0.04482 0.41587
   
