data_POSCAR
  _audit_creation_date              2014-09-24
  _audit_creation_method            'ToBaCCo'
  _symmetry_space_group_name_H-M    'P1'
  _symmetry_Int_Tables_number       1
  _symmetry_cell_setting            triclinic
  loop_
  _symmetry_equiv_pos_as_xyz
 x,y,z
_cell_length_a 47.8085
_cell_length_b 47.6549
_cell_length_c 47.8014
_cell_angle_alpha 89.908300
_cell_angle_beta 90.000100
_cell_angle_gamma 90.086600
loop_
  _atom_site_label
  _atom_site_type_symbol
  _atom_site_fract_x
  _atom_site_fract_y
  _atom_site_fract_z
N1 N 0.59200 0.66950 0.61363
 N2 N 0.58103 0.65796 0.63612
 C3 C 0.55837 0.67284 0.64390
 C4 C 0.55517 0.69470 0.62526
 C5 C 0.57673 0.69208 0.60632
 H6 H 0.54518 0.66820 0.66171
 H7 H 0.58096 0.70557 0.58860
 Cu8 Cu 0.59757 0.62461 0.65286
 Cu9 Cu 0.62521 0.65443 0.59545
 Cu10 Cu 0.65483 0.59489 0.62518
 N11 N 0.61424 0.59125 0.66947
 N12 N 0.63669 0.57973 0.65848
 C13 C 0.64397 0.55713 0.67378
 C14 C 0.62505 0.55451 0.69537
 C15 C 0.60644 0.57636 0.69219
 H16 H 0.66166 0.54366 0.66953
 H17 H 0.58866 0.58099 0.70538
 N18 N 0.67010 0.61336 0.59148
 N19 N 0.65883 0.63601 0.58018
 C20 C 0.67394 0.64352 0.55756
 C21 C 0.69557 0.62472 0.55465
 C22 C 0.69267 0.60589 0.57633
 H23 H 0.66960 0.66129 0.54417
 H24 H 0.70603 0.58812 0.58068
 H25 H 0.61961 0.61341 0.60817
 H26 H 0.64217 0.63598 0.63064
 N27 N 0.90890 0.32997 0.11317
 N28 N 0.91967 0.34128 0.13585
 C29 C 0.94223 0.32629 0.14379
 C30 C 0.94550 0.30461 0.12502
 C31 C 0.92416 0.30742 0.10587
 H32 H 0.95524 0.33072 0.16177
 H33 H 0.92002 0.29408 0.08805
 Cu34 Cu 0.90303 0.37450 0.15251
 Cu35 Cu 0.87574 0.34511 0.09492
 Cu36 Cu 0.84570 0.40420 0.12494
 N37 N 0.88636 0.40772 0.16917
 N38 N 0.86386 0.41922 0.15823
 C39 C 0.85662 0.44179 0.17349
 C40 C 0.87559 0.44446 0.19501
 C41 C 0.89422 0.42265 0.19179
 H42 H 0.83894 0.45527 0.16924
 H43 H 0.91208 0.41809 0.20493
 N44 N 0.83056 0.38587 0.09120
 N45 N 0.84210 0.36350 0.07968
 C46 C 0.82701 0.35603 0.05707
 C47 C 0.80512 0.37457 0.05439
 C48 C 0.80784 0.39320 0.07620
 H49 H 0.83148 0.33841 0.04357
 H50 H 0.79425 0.41072 0.08074
 H51 H 0.88099 0.38614 0.10797
 H52 H 0.85852 0.36314 0.13021
 N53 N 0.40790 0.16986 -0.11332
 N54 N 0.41888 0.15834 -0.13577
 C55 C 0.44164 0.17317 -0.14349
 C56 C 0.44485 0.19497 -0.12486
 C57 C 0.42323 0.19239 -0.10600
 H58 H 0.45489 0.16853 -0.16122
 H59 H 0.41900 0.20587 -0.08832
 Cu60 Cu 0.40219 0.12508 -0.15236
 Cu61 Cu 0.37459 0.15486 -0.09517
 Cu62 Cu 0.34484 0.09537 -0.12481
 N63 N 0.38560 0.09177 -0.16894
 N64 N 0.36309 0.08024 -0.15798
 C65 C 0.35583 0.05763 -0.17320
 C66 C 0.37482 0.05498 -0.19470
 C67 C 0.39345 0.07683 -0.19153
 H68 H 0.33809 0.04416 -0.16898
 H69 H 0.41130 0.08142 -0.20468
 N70 N 0.32955 0.11385 -0.09126
 N71 N 0.34088 0.13649 -0.07999
 C72 C 0.32577 0.14400 -0.05742
 C73 C 0.30408 0.12521 -0.05452
 C74 C 0.30693 0.10639 -0.07614
 H75 H 0.33017 0.16174 -0.04405
 H76 H 0.29352 0.08862 -0.08045
 H77 H 0.38009 0.11384 -0.10782
 H78 H 0.35761 0.13646 -0.13039
 N79 N 0.09144 0.82990 0.38655
 N80 N 0.08041 0.84150 0.36411
 C81 C 0.05777 0.82654 0.35625
 C82 C 0.05464 0.80461 0.37483
 C83 C 0.07621 0.80722 0.39378
 H84 H 0.04459 0.83118 0.33843
 H85 H 0.08050 0.79369 0.41145
 Cu86 Cu 0.09701 0.87491 0.34752
 Cu87 Cu 0.12471 0.84509 0.40470
 Cu88 Cu 0.15435 0.90477 0.37508
 N89 N 0.11361 0.90831 0.33094
 N90 N 0.13611 0.91984 0.34188
 C91 C 0.14340 0.94243 0.32658
 C92 C 0.12448 0.94506 0.30503
 C93 C 0.10585 0.92319 0.30823
 H94 H 0.16111 0.95593 0.33081
 H95 H 0.08808 0.91856 0.29500
 N96 N 0.16961 0.88630 0.40870
 N97 N 0.15835 0.86359 0.41998
 C98 C 0.17351 0.85612 0.44257
 C99 C 0.19514 0.87500 0.44545
 C100 C 0.19220 0.89384 0.42380
 H101 H 0.16921 0.83831 0.45595
 H102 H 0.20554 0.91165 0.41944
 H103 H 0.11924 0.88627 0.39204
 H104 H 0.14172 0.86379 0.36945
 C105 C 0.10410 0.14571 0.12513
 N106 N 0.10411 0.12561 0.14525
 C107 C 0.12418 0.10552 0.14528
 N108 N 0.14423 0.10552 0.12520
 C109 C 0.14421 0.12563 0.10508
 N110 N 0.12415 0.14574 0.10504
 C111 C 0.39531 0.85491 0.62521
 N112 N 0.37524 0.85492 0.60513
 C113 C 0.35515 0.87501 0.60514
 N114 N 0.35513 0.89509 0.62524
 C115 C 0.37519 0.89507 0.64532
 N116 N 0.39528 0.87499 0.64531
 C117 C 0.89571 0.64513 0.37469
 N118 N 0.87561 0.64511 0.39474
 C119 C 0.85551 0.62496 0.39474
 N120 N 0.85553 0.60483 0.37470
 C121 C 0.87563 0.60484 0.35465
 N122 N 0.89572 0.62499 0.35465
 C123 C 0.60500 0.35502 -0.12532
 N124 N 0.62509 0.35497 -0.10529
 C125 C 0.64522 0.37507 -0.10533
 N126 N 0.64525 0.39523 -0.12542
 C127 C 0.62515 0.39527 -0.14547
 N128 N 0.60502 0.37516 -0.14541
 C129 C 0.00511 0.24493 0.12533
 C130 C 0.01787 0.23963 0.09635
 C131 C 0.03800 0.21942 0.09629
 C132 C 0.04339 0.20649 0.12522
 C133 C 0.01472 0.19591 0.13517
 C134 C -0.00541 0.21613 0.13523
 C135 C 0.03010 0.25168 0.14434
 C136 C 0.05023 0.23147 0.14428
 C137 C -0.01654 0.26668 0.12536
 C138 C -0.03436 0.28454 0.12528
 C139 C 0.06506 0.18477 0.12515
 C140 C 0.08289 0.16694 0.12512
 H141 H 0.01161 0.25073 0.07752
 H142 H 0.04899 0.21321 0.07742
 H143 H 0.01059 0.17443 0.14158
 H144 H -0.02680 0.21196 0.14167
 H145 H 0.03183 0.27066 0.15676
 H146 H 0.06920 0.23312 0.15665
 C147 C 0.49430 0.75553 0.62541
 C148 C 0.47370 0.75319 0.64995
 C149 C 0.45360 0.77343 0.64988
 C150 C 0.45604 0.79404 0.62529
 C151 C 0.45582 0.77558 0.59900
 C152 C 0.47593 0.75534 0.59906
 C153 C 0.50604 0.78549 0.62713
 C154 C 0.48592 0.80573 0.62707
 C155 C 0.51596 0.73374 0.62548
 C156 C 0.53381 0.71588 0.62545
 C157 C 0.43437 0.81581 0.62523
 C158 C 0.41654 0.83367 0.62521
 H159 H 0.47483 0.73706 0.66597
 H160 H 0.43750 0.77464 0.66585
 H161 H 0.44119 0.77822 0.58183
 H162 H 0.47853 0.74065 0.58193
 H163 H 0.52820 0.79037 0.62825
 H164 H 0.49086 0.82795 0.62815
 C165 C 0.99478 0.74483 0.37453
 C166 C 1.00182 0.71956 0.35595
 C167 C 0.98169 0.69927 0.35599
 C168 C 0.95648 0.70623 0.37460
 C169 C 0.94608 0.73484 0.36412
 C170 C 0.96620 0.75514 0.36409
 C171 C 0.98904 0.73233 0.40359
 C172 C 0.96891 0.71204 0.40363
 C173 C 1.01649 0.76666 0.37452
 C174 C 1.03439 0.78452 0.37461
 C175 C 0.93479 0.68439 0.37464
 C176 C 0.91695 0.66646 0.37467
 H177 H 1.02095 0.71774 0.34385
 H178 H 0.98358 0.68009 0.34392
 H179 H 0.92477 0.73882 0.35735
 H180 H 0.96213 0.77649 0.35728
 H181 H 0.99984 0.73884 0.42248
 H182 H 0.96248 0.70117 0.42255
 C183 C 0.50583 0.25568 -0.12520
 C184 C 0.50522 0.27449 -0.09917
 C185 C 0.52540 0.29472 -0.09917
 C186 C 0.54419 0.29413 -0.12520
 C187 C 0.52403 0.29617 -0.15011
 C188 C 0.50385 0.27595 -0.15011
 C189 C 0.53568 0.24394 -0.12631
 C190 C 0.55586 0.26416 -0.12631
 C191 C 0.48412 0.23394 -0.12518
 C192 C 0.46623 0.21611 -0.12508
 C193 C 0.56590 0.31589 -0.12522
 C194 C 0.58375 0.33376 -0.12527
 H195 H 0.49026 0.27213 -0.08224
 H196 H 0.52774 0.30968 -0.08222
 H197 H 0.52546 0.31211 -0.16631
 H198 H 0.48799 0.27455 -0.16631
 H199 H 0.54055 0.22171 -0.12702
 H200 H 0.57802 0.25926 -0.12700
 C201 C 0.12417 0.00602 0.24426
 C202 C 0.14467 0.00027 0.22024
 C203 C 0.14468 0.02056 0.20012
 C204 C 0.12419 0.04460 0.20601
 C205 C 0.13223 0.05548 0.23513
 C206 C 0.13223 0.03519 0.25525
 C207 C 0.09564 0.01005 0.23010
 C208 C 0.09565 0.03034 0.20999
 C209 C 0.12417 -0.01580 0.26590
 C210 C 0.12425 -0.03371 0.28372
 C211 C 0.12419 0.06639 0.18436
 C212 C 0.12419 0.08427 0.16652
 H213 H 0.15806 -0.01808 0.21915
 H214 H 0.15805 0.01959 0.18179
 H215 H 0.13750 0.07719 0.23956
 H216 H 0.13749 0.03951 0.27692
 H217 H 0.07706 -0.00194 0.23543
 H218 H 0.07708 0.03573 0.19807
 C219 C 0.62481 0.49477 -0.24469
 C220 C 0.61194 0.50431 -0.21687
 C221 C 0.61202 0.48406 -0.19671
 C222 C 0.62497 0.45624 -0.20633
 C223 C 0.65428 0.46403 -0.21693
 C224 C 0.65420 0.48428 -0.23709
 C225 C 0.60841 0.46828 -0.25281
 C226 C 0.60849 0.44803 -0.23265
 C227 C 0.62476 0.51658 -0.26644
 C228 C 0.62483 0.53444 -0.28435
 C229 C 0.62507 0.43445 -0.18459
 C230 C 0.62514 0.41657 -0.16672
 H231 H 0.60349 0.52514 -0.21331
 H232 H 0.60364 0.48752 -0.17589
 H233 H 0.67341 0.45444 -0.20929
 H234 H 0.67327 0.49205 -0.24672
 H235 H 0.59770 0.46565 -0.27267
 H236 H 0.59785 0.42806 -0.23522
 C237 C 0.37516 0.99437 0.74433
 C238 C 0.38296 1.00541 0.71516
 C239 C 0.38296 0.98519 0.69503
 C240 C 0.37516 0.95593 0.70604
 C241 C 0.34669 0.95972 0.72038
 C242 C 0.34669 0.97993 0.74051
 C243 C 0.39583 0.97043 0.75008
 C244 C 0.39583 0.95021 0.72994
 C245 C 0.37513 1.01608 0.76603
 C246 C 0.37504 1.03386 0.78393
 C247 C 0.37516 0.93418 0.68437
 C248 C 0.37517 0.91631 0.66655
 H249 H 0.38802 1.02718 0.71071
 H250 H 0.38802 0.98964 0.67332
 H251 H 0.32816 0.94761 0.71518
 H252 H 0.32816 0.98514 0.75255
 H253 H 0.40928 0.96944 0.76835
 H254 H 0.40928 0.93190 0.73098
 C255 C 0.87583 0.50526 0.25584
 C256 C 0.85664 0.53015 0.24902
 C257 C 0.85657 0.55041 0.26910
 C258 C 0.87569 0.54381 0.29405
 C259 C 0.90464 0.53860 0.28119
 C260 C 0.90472 0.51834 0.26110
 C261 C 0.86603 0.49472 0.28458
 C262 C 0.86595 0.51499 0.30467
 C263 C 0.87590 0.48348 0.23419
 C264 C 0.87584 0.46563 0.21635
 C265 C 0.87564 0.56562 0.31568
 C266 C 0.87563 0.58354 0.33346
 H267 H 0.84417 0.53169 0.23010
 H268 H 0.84403 0.56932 0.26739
 H269 H 0.92343 0.54985 0.28731
 H270 H 0.92357 0.51223 0.25002
 H271 H 0.85964 0.47325 0.28877
 H272 H 0.85950 0.51087 0.32607
 C273 C 0.24334 0.12539 0.00618
 C274 C 0.22947 0.15412 0.01027
 C275 C 0.20928 0.15418 0.03040
 C276 C 0.20496 0.12552 0.04444
 C277 C 0.23396 0.11713 0.05539
 C278 C 0.25414 0.11706 0.03526
 C279 C 0.21912 0.10508 0.00021
 C280 C 0.19894 0.10515 0.02033
 C281 C 0.26504 0.12531 -0.01549
 C282 C 0.28286 0.12525 -0.03330
 C283 C 0.18325 0.12559 0.06608
 C284 C 0.16541 0.12563 0.08388
 H285 H 0.23501 0.17276 -0.00159
 H286 H 0.19752 0.17288 0.03578
 H287 H 0.23826 0.11172 0.07704
 H288 H 0.27574 0.11161 0.03967
 H289 H 0.21793 0.09183 -0.01821
 H290 H 0.18045 0.09195 0.01916
 C291 C 0.75629 0.62480 0.49378
 C292 C 0.77753 0.64880 0.49679
 C293 C 0.79769 0.64882 0.47663
 C294 C 0.79465 0.62484 0.45543
 C295 C 0.76485 0.62773 0.44381
 C296 C 0.74469 0.62771 0.46397
 C297 C 0.77394 0.59792 0.49330
 C298 C 0.79411 0.59794 0.47314
 C299 C 0.73460 0.62477 0.51550
 C300 C 0.71679 0.62474 0.53336
 C301 C 0.81638 0.62488 0.43374
 C302 C 0.83425 0.62492 0.41594
 H303 H 0.77681 0.66439 0.51330
 H304 H 0.81424 0.66443 0.47588
 H305 H 0.76002 0.62961 0.42170
 H306 H 0.72258 0.62958 0.45912
 H307 H 0.77088 0.58042 0.50754
 H308 H 0.80831 0.58045 0.47011
 C309 C 0.74426 0.37448 -0.00623
 C310 C 0.75567 0.37969 -0.03580
 C311 C 0.73552 0.37979 -0.05595
 C312 C 0.70592 0.37467 -0.04456
 C313 C 0.70170 0.39720 -0.02204
 C314 C 0.72186 0.39710 -0.00189
 C315 C 0.72798 0.34677 -0.00825
 C316 C 0.70781 0.34687 -0.02841
 C317 C 0.76596 0.37443 0.01545
 C318 C 0.78383 0.37447 0.03323
 C319 C 0.68425 0.37483 -0.06627
 C320 C 0.66644 0.37497 -0.08412
 H321 H 0.77765 0.38298 -0.04050
 H322 H 0.74023 0.38317 -0.07792
 H323 H 0.68438 0.41191 -0.02191
 H324 H 0.72181 0.41172 0.01551
 H325 H 0.73193 0.32867 0.00499
 H326 H 0.69448 0.32886 -0.03243
 C327 C 0.25603 0.87512 0.50609
 C328 C 0.24449 0.87847 0.53586
 C329 C 0.26466 0.87846 0.55600
 C330 C 0.29440 0.87511 0.54440
 C331 C 0.29772 0.89883 0.52289
 C332 C 0.27754 0.89884 0.50274
 C333 C 0.27338 0.84804 0.50691
 C334 C 0.29355 0.84804 0.52706
 C335 C 0.23430 0.87509 0.48443
 C336 C 0.21643 0.87504 0.46664
 C337 C 0.31611 0.87508 0.56609
 C338 C 0.33394 0.87504 0.58392
 H339 H 0.22241 0.88068 0.54069
 H340 H 0.25986 0.88066 0.57809
 H341 H 0.31445 0.91426 0.52342
 H342 H 0.27699 0.91427 0.48601
 H343 H 0.27013 0.83045 0.49288
 H344 H 0.30757 0.83043 0.53028
   
