data_POSCAR
  _audit_creation_date              2014-09-24
  _audit_creation_method            'ToBaCCo'
  _symmetry_space_group_name_H-M    'P1'
  _symmetry_Int_Tables_number       1
  _symmetry_cell_setting            triclinic
  loop_
  _symmetry_equiv_pos_as_xyz
 x,y,z
_cell_length_a 35.3138
_cell_length_b 35.3423
_cell_length_c 30.7548
_cell_angle_alpha 89.872800
_cell_angle_beta 90.139700
_cell_angle_gamma 90.779800
loop_
  _atom_site_label
  _atom_site_type_symbol
  _atom_site_fract_x
  _atom_site_fract_y
  _atom_site_fract_z
C1 C 0.37401 0.02345 0.30732
 C2 C 0.35200 0.05663 0.28919
 C3 C 0.33084 0.04761 0.25358
 C4 C 0.33347 0.00594 0.23928
 C5 C 0.34442 -0.00766 0.31599
 C6 C 0.32343 -0.01716 0.28030
 C7 C 0.39747 0.00878 0.26914
 C8 C 0.37615 -0.00060 0.23363
 H9 H 0.35313 0.08487 0.30314
 H10 H 0.31597 -0.00127 0.21030
 H11 H 0.34422 -0.02462 0.34554
 H12 H 0.42815 0.00679 0.26979
 C13 C 0.12213 -0.01846 0.78440
 C14 C 0.14088 -0.05308 0.76545
 C15 C 0.16293 -0.04521 0.73032
 C16 C 0.16364 -0.00305 0.71692
 C17 C 0.15466 0.00940 0.79406
 C18 C 0.17621 0.01789 0.75852
 C19 C 0.10091 -0.00164 0.74896
 C20 C 0.12391 0.00705 0.71187
 H21 H 0.13979 -0.08078 0.78095
 H22 H 0.18157 0.00318 0.68803
 H23 H 0.15627 0.02583 0.82389
 H24 H 0.07053 0.00288 0.74982
 C25 C 0.62531 0.48208 0.28770
 C26 C 0.64403 0.44755 0.26876
 C27 C 0.66579 0.45527 0.23345
 C28 C 0.66649 0.49724 0.21970
 C29 C 0.65754 0.51032 0.29668
 C30 C 0.67881 0.51869 0.26095
 C31 C 0.60272 0.49945 0.25019
 C32 C 0.62445 0.50761 0.21461
 H33 H 0.64284 0.41982 0.28419
 H34 H 0.68419 0.50336 0.19063
 H35 H 0.65907 0.52709 0.32626
 H36 H 0.57242 0.50429 0.25138
 C37 C 0.87421 0.52305 0.80637
 C38 C 0.85205 0.55616 0.78833
 C39 C 0.83067 0.54703 0.75292
 C40 C 0.83325 0.50532 0.73873
 C41 C 0.84471 0.49195 0.81540
 C42 C 0.82351 0.48231 0.77992
 C43 C 0.89745 0.50830 0.76805
 C44 C 0.87590 0.49881 0.73274
 H45 H 0.85325 0.58444 0.80216
 H46 H 0.81557 0.49801 0.70993
 H47 H 0.84474 0.47505 0.84499
 H48 H 0.92813 0.50638 0.76844
 C49 C 0.28937 0.42724 1.00093
 C50 C 0.27460 0.40322 1.03900
 C51 C 0.24502 0.37989 1.02776
 C52 C 0.23361 0.38212 0.97965
 C53 C 0.29938 0.39902 0.96555
 C54 C 0.27055 0.37543 0.95451
 C55 C 0.25458 0.44820 0.98384
 C56 C 0.22507 0.42436 0.97324
 H57 H 0.28498 0.40603 1.07214
 H58 H 0.20999 0.36266 0.97028
 H59 H 0.32701 0.39805 0.95004
 H60 H 0.25112 0.47851 0.98760
 C61 C 0.77835 0.06423 0.98393
 C62 C 0.76559 0.08932 0.94623
 C63 C 0.73772 0.11376 0.95754
 C64 C 0.72555 0.11093 1.00561
 C65 C 0.79019 0.09174 1.01986
 C66 C 0.76280 0.11610 1.03132
 C67 C 0.74435 0.04516 0.99968
 C68 C 0.71518 0.07112 1.01153
 H69 H 0.77812 0.08861 0.91400
 H70 H 0.70314 0.13116 1.01495
 H71 H 0.81717 0.09038 1.03697
 H72 H 0.73961 0.01479 0.99732
 C73 C 0.28068 0.56549 0.48293
 C74 C 0.26853 0.59123 0.44563
 C75 C 0.24043 0.61539 0.45678
 C76 C 0.22740 0.61198 0.50436
 C77 C 0.29158 0.59213 0.51996
 C78 C 0.26402 0.61629 0.53123
 C79 C 0.24435 0.54522 0.49802
 C80 C 0.21639 0.56985 0.50912
 H81 H 0.28116 0.59064 0.41345
 H82 H 0.20477 0.63196 0.51357
 H83 H 0.31825 0.59054 0.53764
 H84 H 0.23989 0.51481 0.49599
 C85 C 0.78926 0.92754 0.50227
 C86 C 0.77443 0.90350 0.54029
 C87 C 0.74483 0.88021 0.52897
 C88 C 0.73347 0.88252 0.48083
 C89 C 0.79927 0.89936 0.46688
 C90 C 0.77044 0.87582 0.45574
 C91 C 0.75452 0.94857 0.48516
 C92 C 0.72500 0.92479 0.47449
 H93 H 0.78480 0.90623 0.57344
 H94 H 0.70985 0.86309 0.47139
 H95 H 0.82690 0.89839 0.45137
 H96 H 0.75110 0.97888 0.48898
 C97 C -0.01172 0.29177 0.40522
 C98 C 0.02055 0.29736 0.37215
 C99 C 0.02584 0.26693 0.34547
 C100 C -0.00209 0.23353 0.35448
 C101 C -0.04488 0.28195 0.37952
 C102 C -0.03989 0.25013 0.35159
 C103 C -0.00147 0.25553 0.42995
 C104 C 0.00379 0.22494 0.40361
 H105 H 0.03905 0.32219 0.37172
 H106 H 0.00191 0.20870 0.33293
 H107 H -0.07117 0.29758 0.38086
 H108 H 0.00130 0.25416 0.46511
 C109 C 0.01283 0.78257 0.09544
 C110 C -0.02036 0.78622 0.12695
 C111 C -0.02478 0.75632 0.15454
 C112 C 0.00478 0.72490 0.14810
 C113 C 0.04732 0.77588 0.12433
 C114 C 0.04339 0.74588 0.15193
 C115 C 0.00579 0.74494 0.07176
 C116 C 0.00155 0.71464 0.09921
 H117 H -0.04003 0.80961 0.12593
 H118 H 0.00143 0.70046 0.17060
 H119 H 0.07282 0.79344 0.12306
 H120 H 0.00518 0.74234 0.03658
 C121 C 0.51309 0.28267 0.59761
 C122 C 0.47978 0.28617 0.62899
 C123 C 0.47529 0.25615 0.65640
 C124 C 0.50496 0.22481 0.64996
 C125 C 0.54749 0.27594 0.62661
 C126 C 0.54354 0.24584 0.65404
 C127 C 0.50618 0.24512 0.57373
 C128 C 0.50188 0.21472 0.60102
 H129 H 0.45997 0.30944 0.62781
 H130 H 0.50158 0.20029 0.67235
 H131 H 0.57302 0.29345 0.62540
 H132 H 0.50557 0.24266 0.53853
 C133 C 0.49018 0.79125 0.90901
 C134 C 0.52237 0.79680 0.87583
 C135 C 0.52780 0.76619 0.84946
 C136 C 0.50018 0.73267 0.85893
 C137 C 0.45534 0.78089 0.88140
 C138 C 0.46025 0.75032 0.85498
 C139 C 0.49945 0.75705 0.93276
 C140 C 0.50513 0.72487 0.90549
 H141 H 0.54049 0.82188 0.87483
 H142 H 0.50433 0.70771 0.83761
 H143 H 0.42920 0.79676 0.88219
 H144 H 0.50165 0.75578 0.96800
 C145 C -0.22645 0.62463 0.94332
 C146 C -0.19342 0.60232 0.96135
 C147 C -0.20262 0.58112 0.99686
 C148 C -0.24429 0.58402 1.01116
 C149 C -0.25780 0.59532 0.93450
 C150 C -0.26748 0.57431 0.97009
 C151 C -0.24097 0.64806 0.98159
 C152 C -0.25052 0.62670 1.01700
 H153 H -0.16515 0.60329 0.94742
 H154 H -0.25165 0.56649 1.04005
 H155 H -0.27477 0.59536 0.90495
 H156 H -0.24276 0.67873 0.98107
 C157 C -0.26793 0.37178 0.46543
 C158 C -0.30258 0.39026 0.48473
 C159 C -0.29461 0.41217 0.51996
 C160 C -0.25236 0.41301 0.53307
 C161 C -0.24026 0.40446 0.45580
 C162 C -0.23169 0.42588 0.49141
 C163 C -0.25081 0.35049 0.50062
 C164 C -0.24204 0.37334 0.53781
 H165 H -0.33036 0.38917 0.46936
 H166 H -0.24604 0.43082 0.56203
 H167 H -0.22401 0.40632 0.42585
 H168 H -0.24631 0.32014 0.49961
 C169 C 0.23205 -0.12614 -0.03621
 C170 C 0.19738 -0.10716 -0.01771
 C171 C 0.20504 -0.08536 0.01766
 C172 C 0.24707 -0.08506 0.03173
 C173 C 0.26034 -0.09387 -0.04529
 C174 C 0.26864 -0.07254 -0.00950
 C175 C 0.24828 -0.14764 -0.00062
 C176 C 0.25677 -0.12487 0.03671
 H177 H 0.16976 -0.10816 -0.03346
 H178 H 0.25313 -0.06731 0.06080
 H179 H 0.27711 -0.09229 -0.07487
 H180 H 0.25275 -0.17800 -0.00167
 C181 C 0.27311 1.12430 0.44270
 C182 C 0.30627 1.10224 0.46088
 C183 C 0.29707 1.08083 0.49623
 C184 C 0.25528 1.08327 0.51022
 C185 C 0.24210 1.09473 0.43351
 C186 C 0.23243 1.07348 0.46892
 C187 C 0.25815 1.14744 0.48099
 C188 C 0.24861 1.12585 0.51622
 H189 H 0.33461 1.10354 0.44718
 H190 H 0.24793 1.06557 0.53897
 H191 H 0.22528 1.09470 0.40384
 H192 H 0.25618 1.17809 0.48066
 C193 C 0.17731 0.53980 0.24797
 C194 C 0.15318 0.52507 0.20995
 C195 C 0.12988 0.49547 0.22120
 C196 C 0.13224 0.48403 0.26929
 C197 C 0.14915 0.54973 0.28345
 C198 C 0.12558 0.52091 0.29452
 C199 C 0.19835 0.50502 0.26493
 C200 C 0.17454 0.47551 0.27555
 H201 H 0.15595 0.53543 0.17680
 H202 H 0.11279 0.46041 0.27868
 H203 H 0.14817 0.57733 0.29900
 H204 H 0.22869 0.50159 0.26108
 C205 C -0.18543 1.02851 0.26627
 C206 C -0.16039 1.01565 0.30397
 C207 C -0.13618 0.98758 0.29270
 C208 C -0.13915 0.97535 0.24467
 C209 C -0.15785 1.04005 0.23027
 C210 C -0.13372 1.01246 0.21885
 C211 C -0.20480 0.99466 0.25063
 C212 C -0.17907 0.96528 0.23881
 H213 H -0.16100 1.02821 0.33619
 H214 H -0.11909 0.95278 0.23537
 H215 H -0.15908 1.06695 0.21303
 H216 H -0.23523 0.99016 0.25305
 C217 C 0.31503 0.52996 -0.23291
 C218 C 0.34063 0.51762 -0.19556
 C219 C 0.36484 0.48959 -0.20676
 C220 C 0.36160 0.47680 -0.25443
 C221 C 0.34184 0.54100 -0.26973
 C222 C 0.36605 0.51350 -0.28104
 C223 C 0.29477 0.49375 -0.24834
 C224 C 0.31946 0.46584 -0.25949
 H225 H 0.34003 0.53020 -0.16335
 H226 H 0.38162 0.45421 -0.26368
 H227 H 0.34034 0.56773 -0.28726
 H228 H 0.26433 0.48928 -0.24646
 C229 C 0.67780 0.03912 -0.25101
 C230 C 0.65373 0.02443 -0.28909
 C231 C 0.63030 -0.00507 -0.27787
 C232 C 0.63252 -0.01650 -0.22976
 C233 C 0.64959 0.04917 -0.21564
 C234 C 0.62591 0.02043 -0.20460
 C235 C 0.69870 0.00431 -0.23393
 C236 C 0.67479 -0.02512 -0.22337
 H237 H 0.65652 0.03484 -0.32221
 H238 H 0.61299 -0.04005 -0.22040
 H239 H 0.64867 0.07678 -0.20011
 H240 H 0.72903 0.00079 -0.23771
 C241 C 0.04046 0.23952 0.84170
 C242 C 0.04628 0.27159 0.87496
 C243 C 0.01570 0.27721 0.90135
 C244 C -0.01806 0.24987 0.89183
 C245 C 0.02984 0.20474 0.86921
 C246 C -0.00071 0.20983 0.89565
 C247 C 0.00631 0.24910 0.81799
 C248 C -0.02583 0.25497 0.84529
 H249 H 0.07148 0.28956 0.87591
 H250 H -0.04299 0.25418 0.91317
 H251 H 0.04549 0.17848 0.86830
 H252 H 0.00502 0.25134 0.78276
 C253 C 0.53318 0.26328 0.15381
 C254 C 0.53653 0.23007 0.12230
 C255 C 0.50651 0.22582 0.09480
 C256 C 0.47530 0.25563 0.10130
 C257 C 0.52667 0.29779 0.12494
 C258 C 0.49656 0.29409 0.09742
 C259 C 0.49551 0.25651 0.17758
 C260 C 0.46509 0.25247 0.15021
 H261 H 0.55974 0.21019 0.12339
 H262 H 0.45078 0.25245 0.07884
 H263 H 0.54433 0.32320 0.12632
 H264 H 0.49299 0.25580 0.21277
 C265 C 0.03283 0.76271 0.65309
 C266 C 0.03632 0.72942 0.62171
 C267 C 0.00630 0.72498 0.59425
 C268 C -0.02504 0.75464 0.60065
 C269 C 0.02615 0.79709 0.62409
 C270 C -0.00395 0.79317 0.59661
 C271 C -0.00479 0.75585 0.67692
 C272 C -0.03519 0.75159 0.64958
 H273 H 0.05963 0.70966 0.62284
 H274 H -0.04956 0.75129 0.57823
 H275 H 0.04372 0.82257 0.62529
 H276 H -0.00729 0.75529 0.71211
 C277 C 0.54205 0.74003 0.34316
 C278 C 0.54758 0.77219 0.37623
 C279 C 0.51709 0.77761 0.40272
 C280 C 0.48355 0.75005 0.39365
 C281 C 0.53149 0.70524 0.37051
 C282 C 0.50106 0.71016 0.39706
 C283 C 0.50584 0.74998 0.31837
 C284 C 0.47521 0.75542 0.34450
 H285 H 0.57260 0.79042 0.37699
 H286 H 0.45865 0.75420 0.41504
 H287 H 0.54720 0.67903 0.36947
 H288 H 0.50451 0.75242 0.28317
 B289 B -0.02910 0.01684 1.03873
 B290 B -0.04575 0.00643 0.98930
 B291 B -0.01491 0.04248 0.99574
 B292 B 0.01662 0.03058 1.03484
 B293 B 0.00447 -0.01413 1.05194
 B294 B -0.03475 -0.02867 1.02370
 B295 B 0.02220 -0.01771 0.96617
 B296 B 0.03899 -0.00735 1.01553
 B297 B 0.00804 -0.04304 1.00879
 B298 B -0.02338 -0.03129 0.96997
 B299 B -0.01123 0.01328 0.95276
 B300 B 0.02812 0.02781 0.98100
 B301 B 0.47244 0.51727 0.54029
 B302 B 0.45632 0.50699 0.49060
 B303 B 0.48728 0.54283 0.49754
 B304 B 0.51828 0.53072 0.53714
 B305 B 0.50564 0.48607 0.55401
 B306 B 0.46666 0.47181 0.52515
 B307 B 0.52435 0.48244 0.46854
 B308 B 0.54063 0.49265 0.51814
 B309 B 0.50952 0.45717 0.51090
 B310 B 0.47866 0.46914 0.47159
 B311 B 0.49130 0.51364 0.45461
 B312 B 0.53040 0.52791 0.48347
 B313 B 0.52475 0.96671 0.55480
 B314 B 0.54395 0.97775 0.50680
 B315 B 0.50898 0.94545 0.50953
 B316 B 0.47787 0.95880 0.54827
 B317 B 0.49458 1.00083 0.56905
 B318 B 0.53611 1.01212 0.54327
 B319 B 0.48015 1.01132 0.48304
 B320 B 0.46072 1.00029 0.53079
 B321 B 0.49580 1.03247 0.52808
 B322 B 0.52679 1.01914 0.48946
 B323 B 0.51003 0.97729 0.46861
 B324 B 0.46858 0.96594 0.49429
 B325 B 0.02488 0.46625 1.05378
 B326 B 0.04400 0.47719 1.00572
 B327 B 0.00895 0.44497 1.00856
 B328 B -0.02204 0.45844 1.04738
 B329 B -0.00519 0.50045 1.06807
 B330 B 0.03631 0.51162 1.04217
 B331 B -0.01976 0.51090 0.98209
 B332 B -0.03912 0.49995 1.02990
 B333 B -0.00398 0.53205 1.02705
 B334 B 0.02690 0.51862 0.98838
 B335 B 0.01001 0.47678 0.96762
 B336 B -0.03143 0.46556 0.99342
 B337 B 0.01035 0.52403 0.46588
 B338 B 0.03165 0.51776 0.51378
 B339 B -0.00221 0.55005 0.50868
 B340 B -0.03570 0.53347 0.47413
 B341 B -0.02176 0.48948 0.45828
 B342 B 0.02055 0.48010 0.48287
 B343 B -0.03221 0.48800 0.54602
 B344 B -0.05347 0.49452 0.49825
 B345 B -0.01967 0.46210 0.50306
 B346 B 0.01385 0.47867 0.53777
 B347 B -0.00011 0.52275 0.55369
 B348 B -0.04239 0.53211 0.52914
 B349 B 0.51109 0.02455 -0.03305
 B350 B 0.53249 0.01865 0.01485
 B351 B 0.49843 0.05073 0.00959
 B352 B 0.46500 0.03377 -0.02482
 B353 B 0.47917 -0.01023 -0.04038
 B354 B 0.52155 -0.01923 -0.01578
 B355 B 0.46879 -0.01132 0.04736
 B356 B 0.44746 -0.00516 -0.00043
 B357 B 0.48145 -0.03736 0.00457
 B358 B 0.51491 -0.02042 0.03913
 B359 B 0.50071 0.02365 0.05477
 B360 B 0.45836 0.03265 0.03020
 B361 B 0.48436 0.48651 -0.04382
 B362 B 0.46486 0.49766 0.00378
 B363 B 0.49656 0.46318 0.00103
 B364 B 0.53001 0.47526 -0.03592
 B365 B 0.51796 0.51874 -0.05591
 B366 B 0.47693 0.53213 -0.03125
 B367 B 0.53106 0.52584 0.03119
 B368 B 0.55058 0.51490 -0.01635
 B369 B 0.51859 0.54935 -0.01392
 B370 B 0.48540 0.53713 0.02323
 B371 B 0.49741 0.49362 0.04311
 B372 B 0.53833 0.48012 0.01848
 B373 B -0.01572 0.98523 0.45510
 B374 B -0.03485 0.99643 0.50290
 B375 B -0.00340 0.96174 0.49979
 B376 B 0.02992 0.97367 0.46262
 B377 B 0.01803 1.01727 0.44285
 B378 B -0.02276 1.03087 0.46786
 B379 B 0.03169 1.02409 0.52988
 B380 B 0.05086 1.01314 0.48215
 B381 B 0.01911 1.04778 0.48493
 B382 B -0.01393 1.03571 0.52229
 B383 B -0.00210 0.99208 0.54195
 B384 B 0.03858 0.97836 0.51697
 B385 B 0.76807 0.22129 0.21085
 B386 B 0.75765 0.20465 0.26028
 B387 B 0.79363 0.23560 0.25390
 B388 B 0.78163 0.26702 0.21474
 B389 B 0.73695 0.25470 0.19756
 B390 B 0.72251 0.21549 0.22580
 B391 B 0.73318 0.27245 0.28332
 B392 B 0.74355 0.28924 0.23397
 B393 B 0.70793 0.25819 0.24064
 B394 B 0.71978 0.22687 0.27951
 B395 B 0.76432 0.23918 0.29681
 B396 B 0.77873 0.27854 0.26858
 B397 B 0.71632 0.77475 0.69601
 B398 B 0.72749 0.79390 0.74400
 B399 B 0.69522 0.75889 0.74136
 B400 B 0.70851 0.72788 0.70249
 B401 B 0.75048 0.74468 0.68156
 B402 B 0.76179 0.78617 0.70736
 B403 B 0.76131 0.73019 0.76749
 B404 B 0.75013 0.71080 0.71976
 B405 B 0.78229 0.74591 0.72240
 B406 B 0.76902 0.77681 0.76112
 B407 B 0.72724 0.75997 0.78212
 B408 B 0.71587 0.71855 0.75643
 B409 B 0.27353 0.26008 0.78328
 B410 B 0.26747 0.28131 0.73532
 B411 B 0.29971 0.24743 0.74065
 B412 B 0.28293 0.21405 0.77516
 B413 B 0.23886 0.22807 0.79076
 B414 B 0.22965 0.27032 0.76605
 B415 B 0.23770 0.21751 0.70303
 B416 B 0.24401 0.19632 0.75087
 B417 B 0.21164 0.23014 0.74583
 B418 B 0.22842 0.26355 0.71115
 B419 B 0.27256 0.24951 0.69549
 B420 B 0.28176 0.20728 0.72015
 B421 B 0.23565 0.73481 0.29355
 B422 B 0.24663 0.71559 0.24574
 B423 B 0.21184 0.74692 0.24900
 B424 B 0.22388 0.78034 0.28598
 B425 B 0.26766 0.76866 0.30546
 B426 B 0.28127 0.72789 0.28047
 B427 B 0.27394 0.78212 0.21835
 B428 B 0.26319 0.80135 0.26610
 B429 B 0.29794 0.76974 0.26316
 B430 B 0.28577 0.73659 0.22599
 B431 B 0.24195 0.74821 0.20661
 B432 B 0.22823 0.78888 0.23156
 B433 B 0.26766 0.72185 0.71060
 B434 B 0.25720 0.70562 0.76019
 B435 B 0.29316 0.73652 0.75351
 B436 B 0.28120 0.76762 0.71399
 B437 B 0.23653 0.75513 0.69690
 B438 B 0.22210 0.71613 0.72555
 B439 B 0.23270 0.77359 0.78243
 B440 B 0.24308 0.78998 0.73293
 B441 B 0.20749 0.75894 0.73991
 B442 B 0.21931 0.72797 0.77914
 B443 B 0.26383 0.74046 0.79634
 B444 B 0.27826 0.77959 0.76769
 B445 B 0.21639 0.27514 0.19544
 B446 B 0.22723 0.29440 0.24347
 B447 B 0.19504 0.25931 0.24065
 B448 B 0.20866 0.22827 0.20197
 B449 B 0.25071 0.24513 0.18134
 B450 B 0.26177 0.28668 0.20713
 B451 B 0.26104 0.23080 0.26740
 B452 B 0.25021 0.21132 0.21961
 B453 B 0.28228 0.24650 0.22242
 B454 B 0.26869 0.27743 0.26097
 B455 B 0.22681 0.26053 0.28168
 B456 B 0.21570 0.21905 0.25598
 B457 B 0.77458 0.76145 0.28380
 B458 B 0.76847 0.78276 0.23590
 B459 B 0.80075 0.74890 0.24111
 B460 B 0.78404 0.71545 0.27557
 B461 B 0.73997 0.72939 0.29124
 B462 B 0.73068 0.77167 0.26662
 B463 B 0.73875 0.71894 0.20350
 B464 B 0.74513 0.69770 0.25130
 B465 B 0.71272 0.73148 0.24635
 B466 B 0.72942 0.76498 0.21172
 B467 B 0.77356 0.75101 0.19599
 B468 B 0.78283 0.70876 0.22056
 B469 B 0.73608 0.23414 0.79502
 B470 B 0.74723 0.21475 0.74735
 B471 B 0.71253 0.24620 0.75026
 B472 B 0.72452 0.27970 0.78718
 B473 B 0.76816 0.26793 0.80699
 B474 B 0.78174 0.22702 0.78226
 B475 B 0.77490 0.28108 0.71985
 B476 B 0.76399 0.30051 0.76745
 B477 B 0.79866 0.26876 0.76487
 B478 B 0.78653 0.23554 0.72776
 B479 B 0.74284 0.24725 0.70806
 B480 B 0.72915 0.28804 0.73276
 C481 C 0.39672 1.03260 0.34566
 C482 C 0.41573 1.03674 0.37773
 C483 C 0.43825 1.03608 0.41529
 C484 C 0.45737 1.02953 0.44661
 C485 C -0.10293 0.53229 0.84456
 C486 C -0.08393 0.53646 0.87663
 C487 C -0.06151 0.53576 0.91427
 C488 C -0.04249 0.52915 0.94565
 C489 C 0.10014 -0.02727 0.82313
 C490 C 0.08337 -0.03265 0.85642
 C491 C 0.06398 -0.03473 0.89591
 C492 C 0.04643 -0.03128 0.92883
 C493 C 0.60351 0.47326 0.32653
 C494 C 0.58665 0.46775 0.35971
 C495 C 0.56693 0.46546 0.39895
 C496 C 0.54899 0.46881 0.43161
 C497 C 0.60838 0.52263 0.17517
 C498 C 0.59319 0.53277 0.14208
 C499 C 0.57334 0.53972 0.10309
 C500 C 0.55495 0.53919 0.07007
 C501 C 0.10877 1.02070 0.67419
 C502 C 0.09380 1.03069 0.64090
 C503 C 0.07413 1.03762 0.60178
 C504 C 0.05579 1.03720 0.56871
 C505 C -0.10734 0.48650 0.69263
 C506 C -0.09178 0.47855 0.65913
 C507 C -0.07200 0.47372 0.61983
 C508 C -0.05432 0.47523 0.58644
 C509 C 0.39316 -0.01286 0.19366
 C510 C 0.40895 -0.02077 0.16028
 C511 C 0.42894 -0.02556 0.12112
 C512 C 0.44672 -0.02404 0.08781
 C513 C 0.32253 0.45066 0.01106
 C514 C 0.35285 0.46599 0.01518
 C515 C 0.39030 0.47973 0.01539
 C516 C 0.42305 0.48879 0.01217
 C517 C -0.17749 0.95085 0.51230
 C518 C -0.14702 0.96595 0.51604
 C519 C -0.10944 0.97926 0.51558
 C520 C -0.07665 0.98794 0.51178
 C521 C -0.18937 0.04074 0.97385
 C522 C -0.15855 0.02733 0.97058
 C523 C -0.12033 0.01757 0.97241
 C524 C -0.08725 0.01216 0.97789
 C525 C 0.31316 0.54226 0.47300
 C526 C 0.34398 0.52880 0.47007
 C527 C 0.38209 0.51878 0.47246
 C528 C 0.41504 0.51306 0.47849
 C529 C 0.17776 0.55778 0.51550
 C530 C 0.14501 0.54847 0.51889
 C531 C 0.10641 0.53807 0.52036
 C532 C 0.07340 0.52926 0.51924
 C533 C 0.67847 0.05967 0.01676
 C534 C 0.64572 0.05018 0.01983
 C535 C 0.60716 0.03952 0.02120
 C536 C 0.57421 0.03046 0.02014
 C537 C 0.68660 0.93777 0.47553
 C538 C 0.65430 0.94750 0.47968
 C539 C 0.61659 0.95800 0.48735
 C540 C 0.58454 0.96666 0.49539
 C541 C 0.18665 0.43729 0.97430
 C542 C 0.15433 0.44695 0.97846
 C543 C 0.11661 0.45739 0.98615
 C544 C 0.08456 0.46603 0.99423
 C545 C -0.01745 0.32492 0.43374
 C546 C -0.02166 0.35303 0.45568
 C547 C -0.02501 0.38775 0.47856
 C548 C -0.02528 0.41933 0.49382
 C549 C 0.48427 -0.17535 -0.06287
 C550 C 0.47994 -0.14699 -0.04138
 C551 C 0.47647 -0.11199 -0.01907
 C552 C 0.47606 -0.08025 -0.00426
 C553 C 0.01713 -0.18372 1.06761
 C554 C 0.01933 -0.15397 1.04832
 C555 C 0.01959 -0.11729 1.02982
 C556 C 0.01696 -0.08491 1.01775
 C557 C 0.51751 0.31645 0.56991
 C558 C 0.51990 0.34620 0.55065
 C559 C 0.52044 0.38286 0.53213
 C560 C 0.51809 0.41525 0.51999
 C561 C 0.49694 1.17644 0.58452
 C562 C 0.49367 1.14469 0.56992
 C563 C 0.49136 1.10725 0.55302
 C564 C 0.49139 1.07485 0.54011
 C565 C -0.00321 0.67626 1.08291
 C566 C -0.00632 0.64444 1.06848
 C567 C -0.00847 0.60691 1.05177
 C568 C -0.00835 0.57447 1.03900
 C569 C 0.51331 0.69000 -0.07717
 C570 C 0.51952 0.65956 -0.06045
 C571 C 0.52444 0.62339 -0.04084
 C572 C 0.52524 0.59154 -0.02612
 C573 C 0.01313 1.18815 0.42164
 C574 C 0.01972 1.15781 0.43833
 C575 C 0.02496 1.12173 0.45798
 C576 C 0.02588 1.08991 0.47274
 C577 C 0.78286 0.64730 0.90503
 C578 C 0.78706 0.66620 0.87291
 C579 C 0.78636 0.68853 0.83523
 C580 C 0.77970 0.70751 0.80385
 C581 C 0.28238 0.14726 0.40462
 C582 C 0.28656 0.16641 0.37267
 C583 C 0.28587 0.18901 0.33519
 C584 C 0.27928 0.20812 0.30389
 C585 C 0.72320 0.34994 0.42659
 C586 C 0.71786 0.33331 0.39321
 C587 C 0.71587 0.31405 0.35362
 C588 C 0.71944 0.29659 0.32065
 C589 C 0.22333 0.85206 0.92491
 C590 C 0.21788 0.83532 0.89163
 C591 C 0.21563 0.81582 0.85224
 C592 C 0.21902 0.79808 0.81946
 C593 C 0.27029 0.85978 0.07433
 C594 C 0.28021 0.84459 0.10752
 C595 C 0.28715 0.82470 0.14648
 C596 C 0.28682 0.80624 0.17944
 C597 C 0.77158 0.35805 0.57542
 C598 C 0.78152 0.34298 0.60867
 C599 C 0.78842 0.32329 0.64778
 C600 C 0.78799 0.30499 0.68087
 C601 C 0.23626 0.14253 0.55634
 C602 C 0.22830 0.15805 0.58986
 C603 C 0.22348 0.17777 0.62919
 C604 C 0.22498 0.19542 0.66259
 C605 C 0.73723 0.64361 0.05703
 C606 C 0.72932 0.65928 0.09047
 C607 C 0.72452 0.67914 0.12972
 C608 C 0.72603 0.69685 0.16307
 C609 C 0.20065 0.57303 0.23789
 C610 C 0.21582 0.60343 0.23388
 C611 C 0.22929 0.64096 0.23385
 C612 C 0.23810 0.67375 0.23722
 C613 C 0.70125 0.07226 0.73899
 C614 C 0.71646 0.10265 0.73512
 C615 C 0.72991 0.14016 0.73531
 C616 C 0.73868 0.17293 0.73882
 C617 C 0.79134 0.06099 0.27628
 C618 C 0.77818 0.09191 0.27942
 C619 C 0.76869 0.13016 0.27741
 C620 C 0.76341 0.16322 0.27179
 C621 C 0.29179 0.56239 0.77712
 C622 C 0.27844 0.59321 0.78021
 C623 C 0.26862 0.63135 0.77802
 C624 C 0.26309 0.66433 0.77214
 C625 C 0.30741 0.42728 0.73391
 C626 C 0.29814 0.39455 0.73038
 C627 C 0.28781 0.35598 0.72880
 C628 C 0.27902 0.32300 0.72987
 C629 C 0.80923 0.92867 0.23368
 C630 C 0.79966 0.89597 0.23068
 C631 C 0.78902 0.85744 0.22940
 C632 C 0.78007 0.82449 0.23053
 C633 C 0.68765 0.93646 0.77553
 C634 C 0.69730 0.90415 0.77134
 C635 C 0.70774 0.86646 0.76361
 C636 C 0.71637 0.83444 0.75551
 C637 C 0.18746 0.43711 0.27447
 C638 C 0.19707 0.40478 0.27034
 C639 C 0.20743 0.36704 0.26275
 C640 C 0.21603 0.33497 0.25479
 C641 C 0.07379 0.23338 0.81354
 C642 C 0.10208 0.22886 0.79199
 C643 C 0.13703 0.22519 0.76960
 C644 C 0.16876 0.22470 0.75471
 C645 C 0.57526 0.73409 0.31484
 C646 C 0.60343 0.72973 0.29307
 C647 C 0.63825 0.72625 0.27040
 C648 C 0.66990 0.72591 0.25533
 C649 C 0.56703 0.26735 0.18158
 C650 C 0.59685 0.26941 0.20085
 C651 C 0.63358 0.26958 0.21939
 C652 C 0.66598 0.26696 0.23154
 C653 C 0.06664 0.76709 0.68082
 C654 C 0.09643 0.76945 0.70007
 C655 C 0.13314 0.76996 0.71858
 C656 C 0.16555 0.76757 0.73073
 C657 C 0.92645 0.74680 0.66601
 C658 C 0.89464 0.74365 0.68053
 C659 C 0.85713 0.74145 0.69736
 C660 C 0.82469 0.74154 0.71025
 C661 C 0.42669 0.24768 0.16659
 C662 C 0.39484 0.24451 0.18105
 C663 C 0.35727 0.24224 0.19777
 C664 C 0.32478 0.24225 0.21054
 C665 C 0.43845 0.76456 0.32623
 C666 C 0.40809 0.77098 0.30943
 C667 C 0.37198 0.77600 0.28976
 C668 C 0.34011 0.77673 0.27507
 C669 C 0.93933 0.26338 0.82797
 C670 C 0.90890 0.26975 0.81125
 C671 C 0.87274 0.27479 0.79165
 C672 C 0.84086 0.27559 0.77695
 C673 C 0.60835 0.97461 0.69013
 C674 C 0.58991 0.96087 0.66109
 C675 C 0.56771 0.95128 0.62462
 C676 C 0.54825 0.95132 0.59251
 C677 C 0.10813 0.47493 1.18921
 C678 C 0.08986 0.46096 1.16018
 C679 C 0.06779 0.45108 1.12368
 C680 C 0.04838 0.45093 1.09152
 C681 C -0.11062 0.01731 1.18091
 C682 C -0.09283 0.02299 1.14826
 C683 C -0.07241 0.02818 1.10955
 C684 C -0.05405 0.02804 1.07677
 C685 C 0.38935 0.51835 0.68120
 C686 C 0.40745 0.52395 0.64877
 C687 C 0.42833 0.52898 0.61036
 C688 C 0.44709 0.52867 0.57788
 C689 C 0.39231 0.47609 -0.17610
 C690 C 0.41457 0.46902 -0.14767
 C691 C 0.43972 0.46684 -0.11226
 C692 C 0.46030 0.47109 -0.08143
 C693 C -0.10851 0.97427 0.32326
 C694 C -0.08609 0.96746 0.35163
 C695 C -0.06080 0.96556 0.38694
 C696 C -0.04007 0.96993 0.41764
 C697 C 0.09816 0.52582 0.32841
 C698 C 0.07659 0.53136 0.35786
 C699 C 0.05257 0.53624 0.39379
 C700 C 0.03294 0.53578 0.42565
 C701 C 0.59848 0.02551 -0.17077
 C702 C 0.57696 0.03125 -0.14134
 C703 C 0.55305 0.03641 -0.10538
 C704 C 0.53353 0.03616 -0.07343
 C705 C 0.69580 0.55638 -0.02808
 C706 C 0.66387 0.54413 -0.02725
 C707 C 0.62566 0.53242 -0.02599
 C708 C 0.59264 0.52400 -0.02346
 C709 C 0.19587 1.05517 0.47043
 C710 C 0.16405 1.04263 0.47108
 C711 C 0.12591 1.03066 0.47225
 C712 C 0.09291 1.02213 0.47482
 C713 C 0.17617 -0.06022 1.03197
 C714 C 0.14778 -0.04238 1.03643
 C715 C 0.11183 -0.02606 1.03412
 C716 C 0.08005 -0.01575 1.02769
 C717 C 0.67679 0.43760 0.53433
 C718 C 0.64872 0.45589 0.53902
 C719 C 0.61309 0.47291 0.53701
 C720 C 0.58150 0.48378 0.53066
 C721 C -0.19639 0.44625 0.49247
 C722 C -0.16523 0.46014 0.49232
 C723 C -0.12766 0.47341 0.49211
 C724 C -0.09503 0.48318 0.49321
 C725 C 0.30422 -0.05271 -0.00768
 C726 C 0.33556 -0.03921 -0.00724
 C727 C 0.37325 -0.02628 -0.00689
 C728 C 0.40592 -0.01664 -0.00550
 C729 C 0.32570 1.05872 0.51720
 C730 C 0.35320 1.04213 0.52967
 C731 C 0.38836 1.02519 0.53771
 C732 C 0.41991 1.01281 0.53870
 C733 C -0.17406 0.55880 1.01764
 C734 C -0.14655 0.54207 1.02981
 C735 C -0.11139 0.52501 1.03741
 C736 C -0.07987 0.51255 1.03805
 C737 C 0.00356 0.69169 0.56687
 C738 C 0.00357 0.66212 0.54707
 C739 C 0.00427 0.62563 0.52788
 C740 C 0.00352 0.59307 0.51575
 C741 C 0.50367 0.19255 0.06738
 C742 C 0.50369 0.16296 0.04760
 C743 C 0.50450 0.12642 0.02848
 C744 C 0.50390 0.09382 0.01645
 C745 C -0.01327 0.17945 0.92458
 C746 C -0.02002 0.15147 0.94641
 C747 C -0.02376 0.11620 0.96883
 C748 C -0.02304 0.08453 0.98422
 C749 C 0.48877 0.67972 0.42603
 C750 C 0.48220 0.65174 0.44793
 C751 C 0.47860 0.61652 0.47044
 C752 C 0.47934 0.58488 0.48591
 C753 C 0.51557 0.80983 0.43211
 C754 C 0.51530 0.83795 0.45476
 C755 C 0.51504 0.87253 0.47862
 C756 C 0.51379 0.90349 0.49555
 C757 C 0.01438 0.30937 0.93088
 C758 C 0.01437 0.33746 0.95361
 C759 C 0.01448 0.37201 0.97755
 C760 C 0.01351 0.40298 0.99455
 C761 C 0.48720 0.32505 0.06848
 C762 C 0.48360 0.35364 0.04718
 C763 C 0.48372 0.38942 0.02604
 C764 C 0.48717 0.42126 0.01187
 C765 C -0.01337 0.82392 0.56744
 C766 C -0.01694 0.85241 0.54599
 C767 C -0.01669 0.88810 0.52475
 C768 C -0.01307 0.91991 0.51056
 C769 C 0.22456 0.35810 0.05977
 C770 C 0.21071 0.33981 0.08885
 C771 C 0.20101 0.31779 0.12541
 C772 C 0.20100 0.29847 0.15762
 C773 C 0.72436 0.85832 0.56089
 C774 C 0.71050 0.83992 0.58987
 C775 C 0.70079 0.81772 0.62629
 C776 C 0.70081 0.79825 0.65838
 C777 C 0.26875 0.63941 0.56916
 C778 C 0.27431 0.65734 0.60174
 C779 C 0.27935 0.67801 0.64031
 C780 C 0.27906 0.69661 0.67290
 C781 C 0.76800 0.13937 0.06907
 C782 C 0.77394 0.15730 0.10156
 C783 C 0.77936 0.17787 0.14014
 C784 C 0.77933 0.19633 0.17285
 C785 C 0.72466 0.14156 0.92701
 C786 C 0.71803 0.16403 0.89866
 C787 C 0.71631 0.18933 0.86335
 C788 C 0.72076 0.20998 0.83262
 C789 C 0.22677 0.64271 0.42604
 C790 C 0.21947 0.66485 0.39757
 C791 C 0.21692 0.68991 0.36212
 C792 C 0.22077 0.71053 0.33126
 C793 C 0.77545 0.84854 0.42175
 C794 C 0.78119 0.82715 0.39220
 C795 C 0.78639 0.80339 0.35615
 C796 C 0.78617 0.78393 0.32415
 C797 C 0.27547 0.34799 0.92066
 C798 C 0.28095 0.32638 0.89125
 C799 C 0.28576 0.30233 0.85536
 C800 C 0.28525 0.28267 0.82351
 C801 C 0.80541 0.44567 0.77830
 C802 C 0.79306 0.41380 0.77771
 C803 C 0.78131 0.37561 0.77675
 C804 C 0.77293 0.34259 0.77444
 C805 C 0.30515 0.94629 0.27835
 C806 C 0.29262 0.91449 0.27741
 C807 C 0.28065 0.87638 0.27599
 C808 C 0.27213 0.84341 0.27334
 C809 C 0.18843 0.92619 0.71619
 C810 C 0.20671 0.89809 0.71172
 C811 C 0.22361 0.86245 0.71397
 C812 C 0.23436 0.83085 0.72044
 C813 C 0.69067 0.42635 0.21875
 C814 C 0.70839 0.39796 0.21387
 C815 C 0.72468 0.36201 0.21573
 C816 C 0.73503 0.33024 0.22190
 C817 C 0.69845 0.55435 0.25913
 C818 C 0.71176 0.58574 0.25859
 C819 C 0.72445 0.62347 0.25805
 C820 C 0.73389 0.65616 0.25649
 C821 C 0.19632 0.05331 0.75730
 C822 C 0.20998 0.08455 0.75726
 C823 C 0.22301 0.12217 0.75724
 C824 C 0.23265 0.15481 0.75598
 C825 C 0.30877 0.07631 0.23268
 C826 C 0.29223 0.10388 0.22037
 C827 C 0.27530 0.13906 0.21253
 C828 C 0.26289 0.17058 0.21168
 C829 C 0.80847 0.57568 0.73213
 C830 C 0.79188 0.60326 0.71994
 C831 C 0.77499 0.63849 0.71231
 C832 C 0.76265 0.67004 0.71163
 C833 C 0.94215 0.75387 0.18229
 C834 C 0.91272 0.75412 0.20239
 C835 C 0.87634 0.75510 0.22185
 C836 C 0.84380 0.75453 0.23411
 C837 C 0.44182 0.25330 0.68351
 C838 C 0.41210 0.25324 0.70307
 C839 C 0.37546 0.25388 0.72195
 C840 C 0.34281 0.25311 0.73383
 C841 C 0.42989 0.73803 0.82584
 C842 C 0.40197 0.73145 0.80377
 C843 C 0.36681 0.72783 0.78103
 C844 C 0.33521 0.72855 0.76536
 C845 C 0.93106 0.23831 0.32458
 C846 C 0.90297 0.23131 0.30293
 C847 C 0.86757 0.22728 0.28072
 C848 C 0.83580 0.22774 0.26545
 C849 C 0.05840 0.26524 0.31649
 C850 C 0.08683 0.26500 0.29428
 C851 C 0.12173 0.26492 0.27094
 C852 C 0.15291 0.26387 0.25437
 C853 C 0.55987 0.76471 0.81979
 C854 C 0.58788 0.76457 0.79691
 C855 C 0.62236 0.76455 0.77278
 C856 C 0.65326 0.76351 0.75561
 C857 C 0.57437 0.23634 0.68310
 C858 C 0.60295 0.23271 0.70445
 C859 C 0.63875 0.23292 0.72555
 C860 C 0.67062 0.23653 0.73962
 C861 C 0.07408 0.73661 0.18125
 C862 C 0.10251 0.73311 0.20286
 C863 C 0.13817 0.73342 0.22423
 C864 C 0.16997 0.73712 0.23845
   
