data_POSCAR
  _audit_creation_date              2014-09-24
  _audit_creation_method            'ToBaCCo'
  _symmetry_space_group_name_H-M    'P1'
  _symmetry_Int_Tables_number       1
  _symmetry_cell_setting            triclinic
  loop_
  _symmetry_equiv_pos_as_xyz
 x,y,z
_cell_length_a 26.6542
_cell_length_b 26.3138
_cell_length_c 45.9040
_cell_angle_alpha 89.054400
_cell_angle_beta 92.472300
_cell_angle_gamma 95.636200
loop_
  _atom_site_label
  _atom_site_type_symbol
  _atom_site_fract_x
  _atom_site_fract_y
  _atom_site_fract_z
C1 C 0.02623 0.39685 0.97484
 C2 C 0.03159 0.37137 1.00153
 C3 C 0.02634 0.39535 1.02817
 C4 C 0.01859 0.44814 1.02793
 C5 C 0.01374 0.47477 1.00092
 C6 C 0.01732 0.44887 0.97430
 C7 C 0.01404 0.47610 0.94784
 C8 C 0.00788 0.52789 0.94740
 C9 C 0.00464 0.55455 0.97341
 C10 C 0.00722 0.52790 1.00049
 C11 C 0.02050 0.47613 1.05383
 C12 C 0.01486 0.52812 1.05342
 C13 C 0.00595 0.55470 1.02711
 C14 C 0.00078 0.60823 1.02643
 C15 C -0.00060 0.63348 0.99920
 C16 C 0.00117 0.60769 0.97304
 H17 H 0.01752 0.45794 0.92715
 H18 H 0.00677 0.54701 0.92638
 H19 H 0.02873 0.45866 1.07476
 H20 H 0.01984 0.54742 1.07407
 H21 H 0.03683 0.33099 1.00129
 H22 H -0.00487 0.67406 0.99805
 C23 C 0.39640 0.02195 0.52926
 C24 C 0.36596 0.01889 0.50365
 C25 C 0.38579 0.01162 0.47651
 C26 C 0.43803 0.00718 0.47466
 C27 C 0.46979 0.01112 0.50031
 C28 C 0.44897 0.01887 0.52769
 C29 C 0.48125 0.02333 0.55271
 C30 C 0.53223 0.01702 0.55129
 C31 C 0.55343 0.00784 0.52460
 C32 C 0.52225 0.00593 0.49871
 C33 C 0.45894 -0.00323 0.44811
 C34 C 0.51018 -0.00848 0.44656
 C35 C 0.54306 -0.00268 0.47140
 C36 C 0.59534 -0.00929 0.47016
 C37 C 0.62450 -0.01013 0.49638
 C38 C 0.60470 -0.00087 0.52324
 H39 H 0.46741 0.03133 0.57379
 H40 H 0.55473 0.01893 0.57149
 H41 H 0.43567 -0.00864 0.42830
 H42 H 0.52328 -0.01889 0.42572
 H43 H 0.32566 0.02099 0.50492
 H44 H 0.66443 -0.01492 0.49588
 C45 C 0.06830 0.02824 0.27505
 H46 H 0.06863 0.05446 0.25672
 C47 C 0.10934 0.03134 0.29519
 H48 H 0.14009 0.06089 0.29248
 C49 C 0.02858 -0.04227 0.30072
 H50 H -0.00229 -0.07161 0.30259
 C51 C 0.06879 -0.04064 0.32125
 H52 H 0.06807 -0.06890 0.33868
 N53 N 0.02851 -0.00773 0.27834
 C54 C -0.07039 -0.08752 0.21213
 H55 H -0.10233 -0.06507 0.21123
 C56 C -0.06984 -0.12910 0.19363
 H57 H -0.10144 -0.13789 0.17835
 C58 C 0.01106 -0.10062 0.23176
 H59 H 0.04300 -0.08877 0.24619
 C60 C 0.01288 -0.14286 0.21400
 H61 H 0.04598 -0.16368 0.21553
 Zn62 Zn -0.02802 -0.01177 0.25116
 N63 N -0.02965 -0.07321 0.23003
 C64 C -0.02288 0.03613 0.19555
 N65 N -0.02174 0.04498 0.22468
 C66 C -0.01491 0.09348 0.23503
 C67 C -0.00789 0.13519 0.21584
 C68 C -0.01717 0.07662 0.17564
 C69 C -0.10358 -0.05522 0.28725
 C70 C -0.14535 -0.05654 0.30464
 C71 C -0.15859 0.02861 0.28771
 C72 C -0.11611 0.02851 0.27089
 N73 N -0.08869 -0.01251 0.27158
 H74 H -0.02798 -0.00239 0.18753
 H75 H -0.01375 0.09969 0.25829
 H76 H -0.00078 0.17318 0.22471
 H77 H -0.01950 0.06819 0.15260
 H78 H -0.08276 -0.08834 0.28647
 H79 H -0.15470 -0.09018 0.31795
 H80 H -0.17957 0.06184 0.28695
 H81 H -0.10483 0.06158 0.25765
 C82 C -0.02723 -0.15672 0.19390
 C83 C 0.10972 -0.00316 0.31884
 C84 C -0.17312 -0.01389 0.30547
 C85 C -0.00870 0.12709 0.18560
 C86 C 0.02226 0.11036 0.76480
 H87 H 0.02512 0.11762 0.74163
 C88 C 0.02494 0.15123 0.78411
 H89 H 0.03040 0.18995 0.77567
 C90 C 0.01229 0.05099 0.80398
 H91 H 0.00639 0.01200 0.81170
 C92 C 0.01477 0.09052 0.82397
 H93 H 0.01078 0.08129 0.84688
 N94 N 0.01706 0.06140 0.77506
 C95 C 0.07923 -0.02835 0.70878
 H96 H 0.04861 -0.05832 0.70619
 C97 C 0.12085 -0.02755 0.69136
 H98 H 0.12121 -0.05673 0.67505
 C99 C 0.11393 0.04727 0.73235
 H100 H 0.11123 0.07613 0.74851
 C101 C 0.15674 0.04915 0.71565
 H102 H 0.18664 0.07955 0.71931
 Zn103 Zn 0.01534 0.00661 0.74863
 N104 N 0.07573 0.00956 0.72812
 C105 C -0.03238 0.01726 0.69297
 N106 N -0.04058 0.01061 0.72189
 C107 C -0.08813 0.00719 0.73191
 C108 C -0.12988 0.00723 0.71236
 C109 C -0.07286 0.01739 0.67274
 C110 C 0.05092 -0.06447 0.78749
 C111 C 0.04991 -0.10776 0.80544
 C112 C -0.03364 -0.13464 0.78545
 C113 C -0.03094 -0.09077 0.76775
 N114 N 0.01043 -0.05612 0.76965
 H115 H 0.00555 0.02234 0.68539
 H116 H -0.09364 0.00322 0.75508
 H117 H -0.16753 0.00266 0.72060
 H118 H -0.06544 0.02221 0.64980
 H119 H 0.08350 -0.03648 0.78839
 H120 H 0.08178 -0.11250 0.82033
 H121 H -0.06715 -0.16145 0.78407
 H122 H -0.06223 -0.08421 0.75290
 C123 C 0.16021 0.01194 0.69436
 C124 C 0.02185 0.14144 0.81419
 C125 C 0.00689 -0.14315 0.80493
 C126 C -0.12241 0.01132 0.68227
 C127 C -0.01110 -0.29992 0.10085
 C128 C -0.03862 -0.34819 0.09868
 C129 C -0.03471 -0.37878 0.07434
 C130 C -0.00261 -0.36215 0.05172
 C131 C 0.02405 -0.31328 0.05387
 C132 C 0.01994 -0.28280 0.07802
 C133 C -0.01497 -0.26670 0.12641
 C134 C 0.02781 -0.23646 0.13742
 C135 C 0.02388 -0.20181 0.15967
 C136 C -0.02286 -0.19685 0.17188
 C137 C -0.06539 -0.22852 0.16166
 C138 C -0.06151 -0.26300 0.13914
 H139 H -0.05788 -0.41491 0.07290
 H140 H 0.04927 -0.29883 0.03710
 H141 H 0.05736 -0.17767 0.16658
 H142 H -0.10185 -0.22627 0.17082
 H143 H 0.04078 -0.24535 0.07860
 H144 H 0.06443 -0.23900 0.12851
 H145 H -0.06310 -0.36243 0.11582
 H146 H -0.09527 -0.28553 0.13108
 C147 C 0.02047 0.29288 0.10057
 C148 C 0.06093 0.29554 0.08174
 C149 C 0.06347 0.33015 0.05839
 C150 C 0.02680 0.36476 0.05380
 C151 C -0.01227 0.36404 0.07354
 C152 C -0.01563 0.32827 0.09646
 C153 C 0.01454 0.25142 0.12313
 C154 C -0.00847 0.25879 0.14957
 C155 C -0.01597 0.21874 0.16988
 C156 C 0.00003 0.17048 0.16449
 C157 C 0.02415 0.16365 0.13839
 C158 C 0.03065 0.20319 0.11790
 H159 H 0.09452 0.33009 0.04391
 H160 H -0.04214 0.38889 0.07015
 H161 H -0.03511 0.22548 0.18957
 H162 H 0.03819 0.12761 0.13363
 H163 H -0.04787 0.32698 0.11009
 H164 H -0.02079 0.29549 0.15465
 H165 H 0.09049 0.27031 0.08468
 H166 H 0.04755 0.19532 0.09765
 C167 C 0.31192 0.02461 0.60699
 C168 C 0.34557 -0.01272 0.60361
 C169 C 0.37411 -0.01281 0.57877
 C170 C 0.37078 0.02524 0.55718
 C171 C 0.33853 0.06346 0.56090
 C172 C 0.30930 0.06308 0.58545
 C173 C 0.27720 0.02158 0.63170
 C174 C 0.26167 0.06611 0.64362
 C175 C 0.22484 0.06304 0.66452
 C176 C 0.20309 0.01533 0.67440
 C177 C 0.22058 -0.02914 0.66362
 C178 C 0.25676 -0.02608 0.64239
 H179 H 0.39797 -0.04328 0.57608
 H180 H 0.33487 0.09277 0.54431
 H181 H 0.21216 0.09816 0.67208
 H182 H 0.20563 -0.06655 0.67117
 H183 H 0.28316 0.09182 0.58686
 H184 H 0.27728 0.10351 0.63641
 H185 H 0.34926 -0.04248 0.61989
 H186 H 0.26722 -0.06129 0.63362
 C187 C -0.28754 0.00144 0.59566
 C188 C -0.30335 -0.04435 0.58111
 C189 C -0.33939 -0.04521 0.55808
 C190 C -0.36054 -0.00043 0.54930
 C191 C -0.34562 0.04520 0.56405
 C192 C -0.30959 0.04609 0.58717
 C193 C -0.24627 0.00304 0.61849
 C194 C -0.24845 0.03126 0.64408
 C195 C -0.20861 0.03353 0.66507
 C196 C -0.16566 0.00804 0.66070
 C197 C -0.16380 -0.02048 0.63523
 C198 C -0.20359 -0.02296 0.61439
 H199 H -0.35034 -0.08067 0.54681
 H200 H -0.36109 0.08026 0.55723
 H201 H -0.21094 0.05599 0.68443
 H202 H -0.13150 -0.04107 0.63143
 H203 H -0.29767 0.08204 0.59770
 H204 H -0.28105 0.05138 0.64789
 H205 H -0.28747 -0.07945 0.58738
 H206 H -0.20049 -0.04449 0.59476
 C207 C 0.00168 -0.29816 0.89567
 C208 C 0.04371 -0.29560 0.91538
 C209 C 0.04359 -0.32684 0.94023
 C210 C 0.00163 -0.36144 0.94579
 C211 C -0.04032 -0.36457 0.92615
 C212 C -0.04030 -0.33316 0.90125
 C213 C 0.00116 -0.26263 0.87021
 C214 C -0.04201 -0.23784 0.86267
 C215 C -0.04076 -0.20040 0.84066
 C216 C 0.00369 -0.18699 0.82576
 C217 C 0.04614 -0.21339 0.83245
 C218 C 0.04489 -0.25079 0.85442
 H219 H 0.07604 -0.32369 0.95537
 H220 H -0.07314 -0.39091 0.93031
 H221 H -0.07389 -0.18034 0.83624
 H222 H 0.08063 -0.20455 0.82097
 H223 H -0.07309 -0.33617 0.88638
 H224 H -0.07608 -0.24572 0.87465
 H225 H 0.07620 -0.26840 0.91200
 H226 H 0.07843 -0.26997 0.85936
 C227 C 0.03096 0.30017 0.90075
 C228 C -0.01342 0.32244 0.90648
 C229 C -0.01451 0.35536 0.93000
 C230 C 0.02879 0.36679 0.94805
 C231 C 0.07345 0.34576 0.94198
 C232 C 0.07463 0.31297 0.91846
 C233 C 0.03083 0.26123 0.87767
 C234 C 0.05573 0.21712 0.88293
 C235 C 0.05349 0.17888 0.86210
 C236 C 0.02617 0.18365 0.83549
 C237 C 0.00213 0.22823 0.82989
 C238 C 0.00432 0.26658 0.85081
 H239 H -0.04949 0.37073 0.93468
 H240 H 0.10713 0.35406 0.95581
 H241 H 0.07302 0.14534 0.86690
 H242 H -0.01943 0.23286 0.80965
 H243 H 0.10955 0.29701 0.91438
 H244 H 0.07593 0.21146 0.90352
 H245 H -0.04785 0.31279 0.89353
 H246 H -0.01487 0.30034 0.84602
 C247 C -0.32158 -0.01469 0.39370
 C248 C -0.31673 -0.05077 0.41622
 C249 C -0.34486 -0.04958 0.44110
 C250 C -0.37973 -0.01314 0.44377
 C251 C -0.38522 0.02235 0.42078
 C252 C -0.35622 0.02175 0.39611
 C253 C -0.28799 -0.01340 0.36880
 C254 C -0.25968 0.03220 0.36100
 C255 C -0.22344 0.03234 0.33987
 C256 C -0.21520 -0.01305 0.32577
 C257 C -0.24547 -0.05817 0.33268
 C258 C -0.28112 -0.05841 0.35414
 H259 H -0.33959 -0.07757 0.45825
 H260 H -0.41009 0.05225 0.42250
 H261 H -0.20045 0.06765 0.33554
 H262 H -0.24117 -0.09358 0.32181
 H263 H -0.36028 0.05020 0.37908
 H264 H -0.26393 0.06729 0.37225
 H265 H -0.28982 -0.07887 0.41501
 H266 H -0.30295 -0.09394 0.35960
 C267 C 0.27431 0.00298 0.40588
 C268 C 0.27299 -0.03448 0.42809
 C269 C 0.31028 -0.03245 0.45043
 C270 C 0.34977 0.00691 0.45097
 C271 C 0.35200 0.04378 0.42850
 C272 C 0.31468 0.04168 0.40602
 C273 C 0.23251 0.00253 0.38343
 C274 C 0.24217 0.01248 0.35392
 C275 C 0.20241 0.01100 0.33291
 C276 C 0.15219 -0.00025 0.34102
 C277 C 0.14265 -0.00929 0.37062
 C278 C 0.18229 -0.00800 0.39154
 H279 H 0.30792 -0.06113 0.46765
 H280 H 0.38186 0.07483 0.42882
 H281 H 0.21106 0.01759 0.31025
 H282 H 0.10439 -0.01691 0.37770
 H283 H 0.31639 0.07129 0.38933
 H284 H 0.28054 0.02035 0.34703
 H285 H 0.24279 -0.06517 0.42832
 H286 H 0.17359 -0.01471 0.41419
   
