data_POSCAR
  _audit_creation_date              2014-09-24
  _audit_creation_method            'ToBaCCo'
  _symmetry_space_group_name_H-M    'P1'
  _symmetry_Int_Tables_number       1
  _symmetry_cell_setting            triclinic
  loop_
  _symmetry_equiv_pos_as_xyz
 x,y,z
_cell_length_a 31.6248
_cell_length_b 31.6796
_cell_length_c 31.5749
_cell_angle_alpha 89.947400
_cell_angle_beta 89.980800
_cell_angle_gamma 90.021500
loop_
  _atom_site_label
  _atom_site_type_symbol
  _atom_site_fract_x
  _atom_site_fract_y
  _atom_site_fract_z
N1 N 0.54529 0.08555 0.01996
 N2 N 0.57635 0.10937 0.03438
 N3 N 0.45634 0.08516 -0.02137
 N4 N 0.42522 0.10865 -0.03622
 N5 N 0.45635 0.08543 0.02021
 N6 N 0.42527 0.10912 0.03477
 N7 N 0.54529 0.08512 -0.02161
 N8 N 0.57632 0.10865 -0.03661
 C9 C 0.59555 0.12349 -0.00129
 C10 C 0.40600 0.12330 -0.00081
 N11 N 0.45603 -0.02112 -0.08472
 N12 N 0.42480 -0.03592 -0.10813
 N13 N 0.54512 0.02019 -0.08555
 N14 N 0.57593 0.03453 -0.10990
 N15 N 0.54497 -0.02120 -0.08490
 N16 N 0.57757 -0.03653 -0.11021
 N17 N 0.45616 0.02032 -0.08519
 N18 N 0.42502 0.03484 -0.10888
 Mn19 Mn 0.50075 0.05305 -0.05378
 C20 C 0.40561 -0.00061 -0.12290
 C21 C 0.59572 -0.00053 -0.12483
 N22 N 0.45653 0.02166 0.08539
 N23 N 0.42537 0.03639 0.10896
 N24 N 0.54564 -0.01952 0.08561
 N25 N 0.57642 -0.03386 0.10995
 N26 N 0.54549 0.02186 0.08498
 N27 N 0.57809 0.03719 0.11031
 N28 N 0.45670 -0.01977 0.08583
 N29 N 0.42567 -0.03437 0.10964
 Mn30 Mn 0.50089 0.05398 0.05299
 C31 C 0.40628 0.00103 0.12380
 C32 C 0.59622 0.00118 0.12490
 N33 N 0.54521 -0.08483 -0.01993
 N34 N 0.57630 -0.10845 -0.03460
 N35 N 0.45652 -0.08462 0.02200
 N36 N 0.42552 -0.10820 0.03704
 N37 N 0.45629 -0.08485 -0.01957
 N38 N 0.42516 -0.10859 -0.03395
 N39 N 0.54549 -0.08443 0.02164
 N40 N 0.57675 -0.10780 0.03639
 Mn41 Mn 0.50060 -0.05334 -0.05263
 Mn42 Mn 0.50111 -0.05244 0.05412
 Cl43 Cl 0.50082 0.00031 0.00018
 C44 C 0.59581 -0.12249 0.00091
 C45 C 0.40612 -0.12285 0.00173
 N46 N 0.08563 0.45536 0.02032
 N47 N 0.10913 0.42415 0.03490
 N48 N 0.08633 0.54447 -0.02056
 N49 N 0.11007 0.57563 -0.03494
 N50 N 0.08611 0.54415 0.02100
 N51 N 0.10970 0.57506 0.03605
 N52 N 0.08579 0.45568 -0.02125
 N53 N 0.10941 0.42470 -0.03609
 C54 C 0.12366 0.40517 -0.00068
 C55 C 0.12436 0.59454 0.00077
 N56 N -0.01921 0.54571 -0.08563
 N57 N -0.03355 0.57660 -0.10980
 N58 N 0.02165 0.45660 -0.08603
 N59 N 0.03620 0.42548 -0.10967
 N60 N -0.01986 0.45692 -0.08624
 N61 N -0.03468 0.42603 -0.11000
 N62 N 0.02226 0.54540 -0.08522
 N63 N 0.03763 0.57799 -0.11056
 Mn64 Mn 0.05435 0.50053 -0.05363
 C65 C 0.00156 0.59629 -0.12489
 C66 C 0.00067 0.40659 -0.12435
 N67 N 0.02140 0.54397 0.08523
 N68 N 0.03610 0.57485 0.10910
 N69 N -0.02057 0.45536 0.08434
 N70 N -0.03550 0.42421 0.10779
 N71 N 0.02094 0.45518 0.08452
 N72 N 0.03538 0.42392 0.10806
 N73 N -0.02011 0.54415 0.08502
 N74 N -0.03478 0.57514 0.10872
 Mn75 Mn 0.05387 0.49967 0.05312
 C76 C 0.00065 0.59414 0.12346
 C77 C -0.00019 0.40475 0.12228
 N78 N -0.08455 0.45673 -0.02203
 N79 N -0.10822 0.42586 -0.03707
 N80 N -0.08416 0.54509 0.02026
 N81 N -0.10772 0.57609 0.03515
 N82 N -0.08394 0.54554 -0.02131
 N83 N -0.10734 0.57684 -0.03584
 N84 N -0.08466 0.45631 0.01954
 N85 N -0.10840 0.42517 0.03392
 Mn86 Mn -0.05224 0.50124 -0.05415
 Mn87 Mn -0.05273 0.50021 0.05264
 Cl88 Cl 0.00081 0.50040 -0.00050
 C89 C -0.12282 0.40634 -0.00177
 C90 C -0.12188 0.59575 -0.00022
 N91 N 0.01998 0.08450 0.45538
 N92 N 0.03472 0.10804 0.42418
 N93 N -0.02168 0.08485 0.54438
 N94 N -0.03637 0.10867 0.57533
 N95 N 0.01983 0.08476 0.54446
 N96 N 0.03451 0.10852 0.57546
 N97 N -0.02153 0.08446 0.45529
 N98 N -0.03616 0.10797 0.42404
 C99 C -0.00069 0.12238 0.40478
 C100 C -0.00093 0.12313 0.59458
 N101 N -0.08618 -0.02082 0.54484
 N102 N -0.10994 -0.03526 0.57604
 N103 N -0.08600 0.02018 0.45549
 N104 N -0.10968 0.03468 0.42429
 N105 N -0.08603 -0.02125 0.45574
 N106 N -0.10972 -0.03607 0.42473
 N107 N -0.08611 0.02061 0.54456
 N108 N -0.10979 0.03550 0.57555
 Mn109 Mn -0.05418 0.05287 0.49992
 C110 C -0.12436 0.00027 0.59504
 C111 C -0.12417 -0.00080 0.40525
 N112 N 0.08419 0.02043 0.54486
 N113 N 0.10788 0.03513 0.57594
 N114 N 0.08432 -0.02122 0.45589
 N115 N 0.10813 -0.03591 0.42488
 N116 N 0.08431 0.02021 0.45578
 N117 N 0.10807 0.03485 0.42471
 N118 N 0.08414 -0.02100 0.54499
 N119 N 0.10777 -0.03563 0.57615
 Mn120 Mn 0.05242 0.05282 0.50013
 C121 C 0.12229 -0.00024 0.59531
 C122 C 0.12264 -0.00052 0.40558
 N123 N -0.02168 -0.08556 0.45610
 N124 N -0.03630 -0.10928 0.42504
 N125 N 0.01969 -0.08526 0.54521
 N126 N 0.03430 -0.10898 0.57632
 N127 N -0.02182 -0.08520 0.54519
 N128 N -0.03658 -0.10888 0.57627
 N129 N 0.01983 -0.08550 0.45613
 N130 N 0.03458 -0.10918 0.42510
 Mn131 Mn -0.05428 -0.05356 0.50048
 Mn132 Mn 0.05234 -0.05360 0.50055
 Cl133 Cl -0.00092 -0.00037 0.50027
 C134 C -0.00082 -0.12372 0.40585
 C135 C -0.00119 -0.12341 0.59555
 C136 C -0.30128 0.21138 -0.00229
 C137 C -0.31774 0.19689 0.03622
 C138 C -0.35096 0.16776 0.03658
 C139 C -0.36816 0.15286 -0.00164
 C140 C -0.35103 0.16709 -0.04020
 C141 C -0.31780 0.19623 -0.04049
 C142 C -0.26850 0.24290 -0.00259
 C143 C -0.24164 0.26992 -0.00267
 C144 C -0.21031 0.30287 -0.00253
 C145 C -0.19569 0.31983 -0.04079
 C146 C -0.16670 0.35319 -0.04060
 C147 C -0.15211 0.37000 -0.00209
 C148 C -0.16649 0.35239 0.03618
 C149 C -0.19546 0.31904 0.03592
 H150 H -0.30523 0.20847 0.06597
 H151 H -0.36349 0.15729 0.06674
 H152 H -0.36362 0.15610 -0.07011
 H153 H -0.30535 0.20730 -0.07048
 H154 H -0.20705 0.30761 -0.07073
 H155 H -0.15611 0.36611 -0.07055
 H156 H -0.15573 0.36466 0.06631
 H157 H -0.20663 0.30620 0.06571
 C158 C 0.30281 0.78944 0.00239
 C159 C 0.31956 0.80415 0.04066
 C160 C 0.35284 0.83324 0.04051
 C161 C 0.36979 0.84784 0.00202
 C162 C 0.35236 0.83338 -0.03627
 C163 C 0.31909 0.80432 -0.03605
 C164 C 0.27000 0.75797 0.00247
 C165 C 0.24312 0.73098 0.00234
 C166 C 0.21178 0.69804 0.00198
 C167 C 0.19686 0.68115 0.04014
 C168 C 0.16790 0.64779 0.03978
 C169 C 0.15361 0.63090 0.00119
 C170 C 0.16828 0.64844 -0.03700
 C171 C 0.19724 0.68180 -0.03657
 H172 H 0.30725 0.79277 0.07059
 H173 H 0.36563 0.84388 0.07047
 H174 H 0.36474 0.84414 -0.06639
 H175 H 0.30641 0.79307 -0.06585
 H176 H 0.20798 0.69343 0.07016
 H177 H 0.15708 0.63493 0.06967
 H178 H 0.15776 0.63609 -0.06718
 H179 H 0.20865 0.69459 -0.06629
 C180 C 0.30246 0.21069 -0.00117
 C181 C 0.31903 0.19609 0.03724
 C182 C 0.35238 0.16713 0.03738
 C183 C 0.36960 0.15252 -0.00096
 C184 C 0.35237 0.16686 -0.03940
 C185 C 0.31901 0.19582 -0.03947
 C186 C 0.26955 0.24205 -0.00125
 C187 C 0.24259 0.26894 -0.00122
 C188 C 0.21116 0.30178 -0.00111
 C189 C 0.19625 0.31800 0.03731
 C190 C 0.16724 0.35130 0.03748
 C191 C 0.15289 0.36881 -0.00084
 C192 C 0.16754 0.35191 -0.03930
 C193 C 0.19655 0.31862 -0.03940
 H194 H 0.30651 0.20745 0.06707
 H195 H 0.36500 0.15657 0.06746
 H196 H 0.36497 0.15609 -0.06940
 H197 H 0.30647 0.20699 -0.06938
 H198 H 0.20742 0.30526 0.06713
 H199 H 0.15644 0.36365 0.06757
 H200 H 0.15698 0.36475 -0.06929
 H201 H 0.20796 0.30635 -0.06932
 C202 C -0.30047 0.79036 0.00085
 C203 C -0.31727 0.80488 -0.03749
 C204 C -0.35068 0.83376 -0.03750
 C205 C -0.36772 0.84840 0.00091
 C206 C -0.35024 0.83417 0.03928
 C207 C -0.31683 0.80527 0.03922
 C208 C -0.26753 0.75904 0.00079
 C209 C -0.24058 0.73215 0.00067
 C210 C -0.20917 0.69930 0.00046
 C211 C -0.19428 0.68316 -0.03800
 C212 C -0.16532 0.64981 -0.03826
 C213 C -0.15102 0.63218 0.00002
 C214 C -0.16563 0.64900 0.03852
 C215 C -0.19458 0.68235 0.03871
 H216 H -0.30490 0.79347 -0.06737
 H217 H -0.36348 0.84424 -0.06753
 H218 H -0.36271 0.84496 0.06933
 H219 H -0.30411 0.79417 0.06908
 H220 H -0.20544 0.69599 -0.06779
 H221 H -0.15455 0.63752 -0.06838
 H222 H -0.15509 0.63607 0.06848
 H223 H -0.20597 0.69455 0.06866
 C224 C 0.00031 -0.30264 0.21124
 C225 C 0.03868 -0.31933 0.19682
 C226 C 0.03885 -0.35260 0.16775
 C227 C 0.00058 -0.36961 0.15284
 C228 C -0.03781 -0.35226 0.16701
 C229 C -0.03791 -0.31900 0.19608
 C230 C 0.00012 -0.26978 0.24266
 C231 C -0.00008 -0.24285 0.26960
 C232 C -0.00031 -0.21142 0.30248
 C233 C 0.03789 -0.19644 0.31904
 C234 C 0.03774 -0.16738 0.35235
 C235 C -0.00068 -0.15305 0.36952
 C236 C -0.03892 -0.16778 0.35229
 C237 C -0.03870 -0.19684 0.31898
 H238 H 0.06844 -0.30696 0.20842
 H239 H 0.06888 -0.36531 0.15733
 H240 H -0.06775 -0.36469 0.15601
 H241 H -0.06778 -0.30636 0.20709
 H242 H 0.06779 -0.20758 0.30656
 H243 H 0.06767 -0.15653 0.36495
 H244 H -0.06897 -0.15723 0.36486
 H245 H -0.06845 -0.20831 0.30644
 C246 C -0.00001 0.30299 0.78832
 C247 C -0.03819 0.31987 0.80300
 C248 C -0.03799 0.35327 0.83191
 C249 C 0.00046 0.37022 0.84641
 C250 C 0.03867 0.35270 0.83198
 C251 C 0.03841 0.31930 0.80306
 C252 C -0.00025 0.26997 0.75707
 C253 C -0.00045 0.24289 0.73027
 C254 C -0.00062 0.21130 0.69756
 C255 C -0.03898 0.19668 0.68101
 C256 C -0.03914 0.16746 0.64785
 C257 C -0.00087 0.15261 0.63080
 C258 C 0.03752 0.16698 0.64801
 C259 C 0.03761 0.19619 0.68118
 H260 H -0.06809 0.30753 0.79173
 H261 H -0.06790 0.36610 0.84254
 H262 H 0.06874 0.36510 0.84267
 H263 H 0.06814 0.30652 0.79184
 H264 H -0.06875 0.20824 0.69341
 H265 H -0.06917 0.15689 0.63524
 H266 H 0.06747 0.15603 0.63554
 H267 H 0.06748 0.20736 0.69369
 C268 C -0.00068 0.30101 0.20961
 C269 C 0.03768 0.31741 0.19481
 C270 C 0.03785 0.35082 0.16585
 C271 C -0.00041 0.36826 0.15143
 C272 C -0.03881 0.35118 0.16594
 C273 C -0.03891 0.31777 0.19492
 C274 C -0.00077 0.26809 0.24103
 C275 C -0.00076 0.24113 0.26800
 C276 C -0.00073 0.20973 0.30095
 C277 C 0.03759 0.19511 0.31761
 C278 C 0.03765 0.16614 0.35105
 C279 C -0.00068 0.15155 0.36826
 C280 C -0.03902 0.16589 0.35092
 C281 C -0.03901 0.19485 0.31749
 H282 H 0.06745 0.30473 0.20605
 H283 H 0.06790 0.36331 0.15516
 H284 H -0.06875 0.36397 0.15532
 H285 H -0.06878 0.30536 0.20624
 H286 H 0.06740 0.20649 0.30511
 H287 H 0.06764 0.15558 0.36375
 H288 H -0.06900 0.15513 0.36351
 H289 H -0.06884 0.20603 0.30488
 C290 C -0.00074 -0.30311 0.78984
 C291 C -0.03863 -0.32031 0.80485
 C292 C -0.03799 -0.35370 0.83386
 C293 C 0.00075 -0.37057 0.84824
 C294 C 0.03871 -0.35238 0.83332
 C295 C 0.03787 -0.31902 0.80434
 C296 C -0.00135 -0.27011 0.75849
 C297 C -0.00155 -0.24306 0.73161
 C298 C -0.00151 -0.21148 0.69880
 C299 C -0.03976 -0.19663 0.68222
 C300 C -0.03969 -0.16743 0.64897
 C301 C -0.00130 -0.15284 0.63187
 C302 C 0.03697 -0.16744 0.64914
 C303 C 0.03683 -0.19662 0.68238
 H304 H -0.06871 -0.30823 0.79378
 H305 H -0.06794 -0.36648 0.84454
 H306 H 0.06923 -0.36410 0.84356
 H307 H 0.06740 -0.30593 0.79288
 H308 H -0.06962 -0.20798 0.69463
 H309 H -0.06964 -0.15668 0.63633
 H310 H 0.06700 -0.15669 0.63664
 H311 H 0.06662 -0.20798 0.69494
 C312 C 0.30174 -0.00073 0.78982
 C313 C 0.31827 -0.03895 0.80469
 C314 C 0.35173 -0.03898 0.83363
 C315 C 0.36910 -0.00070 0.84793
 C316 C 0.35191 0.03755 0.83332
 C317 C 0.31845 0.03751 0.80439
 C318 C 0.26872 -0.00069 0.75848
 C319 C 0.24167 -0.00060 0.73158
 C320 C 0.21014 -0.00047 0.69875
 C321 C 0.19509 -0.03864 0.68233
 C322 C 0.16597 -0.03858 0.64902
 C323 C 0.15164 -0.00027 0.63169
 C324 C 0.16641 0.03795 0.64878
 C325 C 0.19554 0.03782 0.68210
 H326 H 0.30562 -0.06873 0.79354
 H327 H 0.36432 -0.06890 0.84440
 H328 H 0.36462 0.06751 0.84385
 H329 H 0.30595 0.06727 0.79302
 H330 H 0.20625 -0.06845 0.69492
 H331 H 0.15508 -0.06849 0.63652
 H332 H 0.15587 0.06791 0.63609
 H333 H 0.20705 0.06755 0.69452
 C334 C -0.30338 -0.00103 0.21046
 C335 C -0.32067 -0.03888 0.19565
 C336 C -0.35400 -0.03828 0.16654
 C337 C -0.37070 0.00038 0.15187
 C338 C -0.35241 0.03829 0.16659
 C339 C -0.31911 0.03749 0.19567
 C340 C -0.27046 -0.00157 0.24192
 C341 C -0.24348 -0.00168 0.26888
 C342 C -0.21200 -0.00151 0.30178
 C343 C -0.19720 -0.03962 0.31862
 C344 C -0.16809 -0.03942 0.35195
 C345 C -0.15353 -0.00104 0.36887
 C346 C -0.16807 0.03710 0.35137
 C347 C -0.19717 0.03683 0.31804
 H348 H -0.30871 -0.06889 0.20696
 H349 H -0.36686 -0.06819 0.15601
 H350 H -0.36399 0.06874 0.15612
 H351 H -0.30595 0.06698 0.20698
 H352 H -0.20853 -0.06948 0.30633
 H353 H -0.15739 -0.06928 0.36477
 H354 H -0.15735 0.06713 0.36374
 H355 H -0.20849 0.06652 0.30529
 C356 C 0.30255 0.00070 0.21133
 C357 C 0.31929 -0.03745 0.19661
 C358 C 0.35272 -0.03734 0.16762
 C359 C 0.36985 0.00099 0.15309
 C360 C 0.35246 0.03918 0.16755
 C361 C 0.31903 0.03901 0.19656
 C362 C 0.26951 0.00049 0.24268
 C363 C 0.24243 0.00024 0.26956
 C364 C 0.21083 -0.00002 0.30236
 C365 C 0.19628 -0.03836 0.31897
 C366 C 0.16705 -0.03859 0.35222
 C367 C 0.15212 -0.00042 0.36928
 C368 C 0.16642 0.03793 0.35199
 C369 C 0.19563 0.03810 0.31875
 H370 H 0.30683 -0.06728 0.20789
 H371 H 0.36544 -0.06724 0.15697
 H372 H 0.36500 0.06917 0.15685
 H373 H 0.30635 0.06872 0.20782
 H374 H 0.20790 -0.06805 0.30657
 H375 H 0.15653 -0.06859 0.36489
 H376 H 0.15541 0.06781 0.36446
 H377 H 0.20674 0.06795 0.30618
 C378 C -0.30373 0.00145 0.78973
 C379 C -0.32100 0.03935 0.80443
 C380 C -0.35438 0.03884 0.83351
 C381 C -0.37115 0.00022 0.84824
 C382 C -0.35289 -0.03773 0.83363
 C383 C -0.31954 -0.03702 0.80460
 C384 C -0.27077 0.00186 0.75831
 C385 C -0.24375 0.00182 0.73137
 C386 C -0.21224 0.00145 0.69849
 C387 C -0.19720 0.03948 0.68165
 C388 C -0.16808 0.03911 0.64833
 C389 C -0.15374 0.00064 0.63141
 C390 C -0.16852 -0.03742 0.64892
 C391 C -0.19764 -0.03698 0.68225
 H392 H -0.30898 0.06932 0.79306
 H393 H -0.36723 0.06878 0.84395
 H394 H -0.36452 -0.06816 0.84415
 H395 H -0.30639 -0.06655 0.79338
 H396 H -0.20836 0.06939 0.69393
 H397 H -0.15718 0.06890 0.63550
 H398 H -0.15797 -0.06750 0.63656
 H399 H -0.20915 -0.06660 0.69500
   
