data_POSCAR
  _audit_creation_date              2014-09-24
  _audit_creation_method            'ToBaCCo'
  _symmetry_space_group_name_H-M    'P1'
  _symmetry_Int_Tables_number       1
  _symmetry_cell_setting            triclinic
  loop_
  _symmetry_equiv_pos_as_xyz
 x,y,z
_cell_length_a 34.2225
_cell_length_b 32.5478
_cell_length_c 32.5454
_cell_angle_alpha 89.900900
_cell_angle_beta 90.027800
_cell_angle_gamma 89.972400
loop_
  _atom_site_label
  _atom_site_type_symbol
  _atom_site_fract_x
  _atom_site_fract_y
  _atom_site_fract_z
C1 C 0.30922 0.30630 0.23442
 H2 H 0.31085 0.30690 0.26761
 C3 C 0.33454 0.33058 0.21110
 H4 H 0.35569 0.35009 0.22631
 C5 C 0.27998 0.27982 0.17391
 H6 H 0.25911 0.25958 0.15949
 C7 C 0.30477 0.30359 0.14944
 H8 H 0.30262 0.30189 0.11628
 N9 N 0.28229 0.28198 0.21561
 C10 C 0.18976 0.26499 0.30628
 H11 H 0.18804 0.23181 0.30698
 C12 C 0.16460 0.28840 0.33062
 H13 H 0.14349 0.27326 0.35027
 C14 C 0.21907 0.32541 0.27953
 H15 H 0.23990 0.33976 0.25917
 C16 C 0.19445 0.34995 0.30335
 H17 H 0.19669 0.38311 0.30157
 Zn18 Zn 0.24941 0.24971 0.24955
 N19 N 0.21666 0.28371 0.28181
 C20 C 0.27991 0.21968 0.32528
 N21 N 0.28219 0.21735 0.28358
 C22 C 0.30905 0.19286 0.26488
 C23 C 0.33436 0.16861 0.28831
 C24 C 0.30468 0.19595 0.34985
 C25 C 0.18971 0.23468 0.19277
 C26 C 0.16441 0.21139 0.16848
 C27 C 0.19406 0.14971 0.19578
 C28 C 0.21882 0.17414 0.21956
 N29 N 0.21656 0.21585 0.21726
 H30 H 0.25911 0.24006 0.33961
 H31 H 0.31067 0.19212 0.23169
 H32 H 0.35547 0.14898 0.27319
 H33 H 0.30258 0.19782 0.38300
 H34 H 0.18811 0.26787 0.19205
 H35 H 0.14332 0.22663 0.14884
 H36 H 0.19616 0.11654 0.19761
 H37 H 0.23963 0.15969 0.23993
 C38 C 0.16710 0.33126 0.32924
 C39 C 0.33217 0.32930 0.16823
 C40 C 0.16673 0.16852 0.16992
 C41 C 0.33204 0.17010 0.33118
 C42 C 0.81010 0.80779 0.23369
 H43 H 0.81180 0.80852 0.26688
 C44 C 0.83523 0.83217 0.21024
 H45 H 0.85627 0.85185 0.22543
 C46 C 0.78088 0.78092 0.17335
 H47 H 0.76010 0.76050 0.15906
 C48 C 0.80546 0.80477 0.14872
 H49 H 0.80317 0.80287 0.11556
 N50 N 0.78327 0.78324 0.21504
 C51 C 0.69086 0.76599 0.30582
 H52 H 0.68926 0.73280 0.30651
 C53 C 0.66562 0.78929 0.33016
 H54 H 0.64457 0.77406 0.34982
 C55 C 0.71997 0.82652 0.27908
 H56 H 0.74075 0.84096 0.25873
 C57 C 0.69526 0.85097 0.30292
 H58 H 0.69739 0.88413 0.30115
 Zn59 Zn 0.75057 0.75091 0.24913
 N60 N 0.71770 0.78482 0.28135
 C61 C 0.78108 0.72101 0.32489
 N62 N 0.78346 0.71872 0.28320
 C63 C 0.81037 0.69424 0.26455
 C64 C 0.83555 0.66989 0.28802
 C65 C 0.80572 0.69717 0.34950
 C66 C 0.69085 0.73544 0.19245
 C67 C 0.66563 0.71195 0.16827
 C68 C 0.69555 0.65050 0.19575
 C69 C 0.72024 0.67512 0.21942
 N70 N 0.71781 0.71681 0.21697
 H71 H 0.76025 0.74137 0.33919
 H72 H 0.81206 0.69353 0.23136
 H73 H 0.85665 0.65021 0.27294
 H74 H 0.80349 0.69895 0.38266
 H75 H 0.68912 0.76863 0.19162
 H76 H 0.64446 0.72703 0.14860
 H77 H 0.69779 0.61735 0.19769
 H78 H 0.74111 0.66084 0.23981
 C79 C 0.66798 0.83216 0.32880
 C80 C 0.83278 0.83075 0.16734
 C81 C 0.66812 0.66910 0.16985
 C82 C 0.83307 0.67126 0.33088
 C83 C 0.81058 0.30561 0.73569
 H84 H 0.81229 0.30630 0.76888
 C85 C 0.83573 0.32996 0.71224
 H86 H 0.85683 0.34962 0.72734
 C87 C 0.78126 0.27889 0.67532
 H88 H 0.76043 0.25854 0.66101
 C89 C 0.80588 0.30273 0.65073
 H90 H 0.80363 0.30097 0.61758
 N91 N 0.78367 0.28115 0.71702
 C92 C 0.69115 0.26435 0.80775
 H93 H 0.68946 0.23116 0.80856
 C94 C 0.66591 0.28781 0.83193
 H95 H 0.64477 0.27272 0.85158
 C96 C 0.72045 0.32469 0.78083
 H97 H 0.74129 0.33900 0.76045
 C98 C 0.69574 0.34930 0.80450
 H99 H 0.69794 0.38245 0.80258
 Zn100 Zn 0.75084 0.24893 0.75106
 N101 N 0.71807 0.28300 0.78326
 C102 C 0.78126 0.21887 0.82681
 N103 N 0.78360 0.21657 0.78512
 C104 C 0.81043 0.19204 0.76644
 C105 C 0.83563 0.16765 0.78986
 C106 C 0.80590 0.19502 0.85142
 C107 C 0.69108 0.23390 0.69436
 C108 C 0.66582 0.21063 0.67002
 C109 C 0.69553 0.14893 0.69722
 C110 C 0.72025 0.17334 0.72106
 N111 N 0.71796 0.21505 0.71881
 H112 H 0.76048 0.23928 0.84112
 H113 H 0.81208 0.19134 0.73325
 H114 H 0.85666 0.14801 0.77455
 H115 H 0.80359 0.19697 0.88459
 H116 H 0.68946 0.26709 0.69369
 H117 H 0.64474 0.22588 0.65039
 H118 H 0.69767 0.11576 0.69897
 H119 H 0.74107 0.15889 0.74139
 C120 C 0.66835 0.33067 0.83038
 C121 C 0.83322 0.32861 0.66938
 C122 C 0.66820 0.16776 0.67136
 C123 C 0.83325 0.16903 0.83279
 C124 C 0.30919 0.80721 0.73502
 H125 H 0.31081 0.80794 0.76821
 C126 C 0.33449 0.83144 0.71161
 H127 H 0.35559 0.85105 0.72675
 C128 C 0.28004 0.78040 0.67460
 H129 H 0.25924 0.76005 0.66025
 C130 C 0.30480 0.80412 0.65005
 H131 H 0.30269 0.80226 0.61689
 N132 N 0.28233 0.78274 0.71630
 C133 C 0.18984 0.76562 0.80703
 H134 H 0.18825 0.73243 0.80781
 C135 C 0.16453 0.78898 0.83123
 H136 H 0.14344 0.77381 0.85087
 C137 C 0.21895 0.82609 0.78015
 H138 H 0.23975 0.84047 0.75978
 C139 C 0.19417 0.85059 0.80384
 H140 H 0.19627 0.88375 0.80194
 Zn141 Zn 0.24955 0.75044 0.75032
 N142 N 0.21670 0.78439 0.78254
 C143 C 0.28010 0.72034 0.82602
 N144 N 0.28242 0.71818 0.78432
 C145 C 0.30936 0.69382 0.76555
 C146 C 0.33466 0.66951 0.78890
 C147 C 0.30488 0.69653 0.85052
 C148 C 0.18990 0.73512 0.69353
 C149 C 0.16473 0.71169 0.66923
 C150 C 0.19457 0.65017 0.69667
 C151 C 0.21920 0.67473 0.72045
 N152 N 0.21679 0.71643 0.71808
 H153 H 0.25923 0.74060 0.84041
 H154 H 0.31100 0.69322 0.73236
 H155 H 0.35581 0.64996 0.77372
 H156 H 0.30272 0.69822 0.88368
 H157 H 0.18818 0.76830 0.69276
 H158 H 0.14362 0.72681 0.64953
 H159 H 0.19680 0.61701 0.69854
 H160 H 0.24003 0.66040 0.74087
 C161 C 0.16684 0.83185 0.82970
 C162 C 0.33216 0.82996 0.66874
 C163 C 0.16721 0.66883 0.67073
 C164 C 0.33228 0.67078 0.83177
 Si165 Si -0.00146 0.00040 -0.00046
 Si166 Si -0.00005 0.49990 0.50018
 Si167 Si 0.50046 0.00006 0.50010
 Si168 Si 0.50048 0.49985 0.00003
 C169 C 0.14126 -0.14344 -0.14541
 C170 C 0.11998 -0.12266 -0.12448
 C171 C 0.09524 -0.09823 -0.09989
 C172 C 0.07427 -0.07728 -0.07880
 C173 C 0.04990 -0.05265 -0.05399
 C174 C 0.02927 -0.03155 -0.03271
 C175 C 0.14174 0.35600 0.35433
 C176 C 0.12065 0.37681 0.37543
 C177 C 0.09613 0.40127 0.40024
 C178 C 0.07534 0.42223 0.42150
 C179 C 0.05114 0.44687 0.44648
 C180 C 0.03062 0.46798 0.46786
 C181 C 0.64254 -0.14321 0.35392
 C182 C 0.62139 -0.12252 0.37507
 C183 C 0.59679 -0.09820 0.39993
 C184 C 0.57594 -0.07736 0.42124
 C185 C 0.55169 -0.05284 0.44629
 C186 C 0.53113 -0.03181 0.46772
 C187 C 0.64285 0.35549 -0.14476
 C188 C 0.62164 0.37637 -0.12386
 C189 C 0.59698 0.40092 -0.09929
 C190 C 0.57607 0.42196 -0.07823
 C191 C 0.55177 0.44668 -0.05345
 C192 C 0.53118 0.46785 -0.03219
 C193 C -0.14365 0.14623 -0.14469
 C194 C -0.12248 0.12512 -0.12384
 C195 C -0.09787 0.10034 -0.09934
 C196 C -0.07701 0.07910 -0.07834
 C197 C -0.05274 0.05413 -0.05365
 C198 C -0.03216 0.03275 -0.03248
 C199 C -0.14160 0.64611 0.35571
 C200 C -0.12056 0.62494 0.37661
 C201 C -0.09610 0.60007 0.40118
 C202 C -0.07536 0.57875 0.42224
 C203 C -0.05122 0.55371 0.44698
 C204 C -0.03073 0.53228 0.46817
 C205 C 0.35764 0.14520 0.35596
 C206 C 0.37894 0.12427 0.37681
 C207 C 0.40371 0.09968 0.40131
 C208 C 0.42470 0.07858 0.42232
 C209 C 0.44909 0.05375 0.44701
 C210 C 0.46973 0.03243 0.46815
 C211 C 0.35783 0.64573 -0.14355
 C212 C 0.37909 0.62464 -0.12282
 C213 C 0.40382 0.59984 -0.09848
 C214 C 0.42478 0.57858 -0.07760
 C215 C 0.44914 0.55359 -0.05304
 C216 C 0.46976 0.53219 -0.03196
 C217 C -0.14323 -0.14548 0.14385
 C218 C -0.12214 -0.12437 0.12298
 C219 C -0.09762 -0.09957 0.09845
 C220 C -0.07682 -0.07831 0.07743
 C221 C -0.05263 -0.05334 0.05272
 C222 C -0.03211 -0.03195 0.03155
 C223 C -0.14146 0.35376 0.64457
 C224 C -0.12043 0.37491 0.62370
 C225 C -0.09599 0.39977 0.59915
 C226 C -0.07526 0.42108 0.57811
 C227 C -0.05114 0.44611 0.55337
 C228 C -0.03067 0.46753 0.53219
 C229 C 0.35773 -0.14514 0.64399
 C230 C 0.37902 -0.12421 0.62318
 C231 C 0.40377 -0.09960 0.59872
 C232 C 0.42475 -0.07848 0.57776
 C233 C 0.44912 -0.05363 0.55312
 C234 C 0.46975 -0.03230 0.53202
 C235 C 0.35775 0.35430 0.14358
 C236 C 0.37903 0.37533 0.12286
 C237 C 0.40378 0.40006 0.09851
 C238 C 0.42475 0.42126 0.07764
 C239 C 0.44912 0.44618 0.05308
 C240 C 0.46976 0.46754 0.03200
 C241 C 0.14117 0.14389 0.14493
 C242 C 0.11991 0.12318 0.12391
 C243 C 0.09518 0.09883 0.09921
 C244 C 0.07423 0.07795 0.07804
 C245 C 0.04987 0.05339 0.05315
 C246 C 0.02926 0.03232 0.03182
 C247 C 0.14183 0.64405 0.64570
 C248 C 0.12072 0.62320 0.62465
 C249 C 0.09619 0.59869 0.59992
 C250 C 0.07538 0.57768 0.57872
 C251 C 0.05117 0.55299 0.55381
 C252 C 0.03063 0.53185 0.53246
 C253 C 0.64273 0.14316 0.64625
 C254 C 0.62154 0.12249 0.62511
 C255 C 0.59691 0.09820 0.60026
 C256 C 0.57602 0.07738 0.57895
 C257 C 0.55173 0.05290 0.55392
 C258 C 0.53116 0.03189 0.53248
 C259 C 0.64266 0.64426 0.14497
 C260 C 0.62148 0.62336 0.12406
 C261 C 0.59686 0.59878 0.09947
 C262 C 0.57599 0.57773 0.07839
 C263 C 0.55172 0.55299 0.05358
 C264 C 0.53115 0.53182 0.03230
   
