data_POSCAR
  _audit_creation_date              2014-09-24
  _audit_creation_method            'ToBaCCo'
  _symmetry_space_group_name_H-M    'P1'
  _symmetry_Int_Tables_number       1
  _symmetry_cell_setting            triclinic
  loop_
  _symmetry_equiv_pos_as_xyz
 x,y,z
_cell_length_a 28.7401
_cell_length_b 30.5675
_cell_length_c 29.2751
_cell_angle_alpha 86.314000
_cell_angle_beta 94.804000
_cell_angle_gamma 93.953900
loop_
  _atom_site_label
  _atom_site_type_symbol
  _atom_site_fract_x
  _atom_site_fract_y
  _atom_site_fract_z
C1 C 0.21241 0.28765 0.28716
 C2 C 0.24390 0.31554 0.25530
 C3 C 0.26940 0.29120 0.23035
 C4 C 0.26126 0.24128 0.23937
 C5 C 0.18235 0.25671 0.25576
 C6 C 0.20803 0.23251 0.23082
 C7 C 0.24536 0.25795 0.31673
 C8 C 0.27084 0.23374 0.29162
 H9 H 0.24570 0.35123 0.25254
 H10 H 0.28211 0.22153 0.21898
 H11 H 0.14435 0.25396 0.25369
 H12 H 0.24786 0.25584 0.35404
 C13 C 0.71299 0.78769 0.28753
 C14 C 0.74459 0.81545 0.25567
 C15 C 0.76998 0.79100 0.23075
 C16 C 0.76166 0.74110 0.23980
 C17 C 0.68282 0.75683 0.25614
 C18 C 0.70841 0.73250 0.23123
 C19 C 0.74580 0.75790 0.31714
 C20 C 0.77119 0.73356 0.29206
 H21 H 0.74645 0.85114 0.25282
 H22 H 0.78244 0.72126 0.21944
 H23 H 0.64482 0.75420 0.25407
 H24 H 0.74820 0.75573 0.35445
 C25 C 0.71406 0.28958 0.78615
 C26 C 0.74402 0.31613 0.75619
 C27 C 0.77079 0.29067 0.73005
 C28 C 0.76292 0.24337 0.73844
 C29 C 0.68386 0.25859 0.75475
 C30 C 0.70962 0.23436 0.72979
 C31 C 0.74666 0.25954 0.81591
 C32 C 0.77221 0.23531 0.79078
 H33 H 0.74578 0.35184 0.75344
 H34 H 0.78379 0.22356 0.71808
 H35 H 0.64586 0.25570 0.75284
 H36 H 0.74879 0.25713 0.85322
 C37 C 0.21250 0.78784 0.78664
 C38 C 0.24404 0.81566 0.75478
 C39 C 0.26951 0.79125 0.72987
 C40 C 0.26129 0.74134 0.73892
 C41 C 0.18241 0.75690 0.75527
 C42 C 0.20806 0.73262 0.73037
 C43 C 0.24540 0.75812 0.81626
 C44 C 0.27085 0.73384 0.79119
 H45 H 0.24596 0.85135 0.75205
 H46 H 0.28212 0.72155 0.71856
 H47 H 0.14441 0.75412 0.75329
 H48 H 0.24786 0.75602 0.85357
 C49 C 0.07157 0.06276 0.01564
 H50 H 0.07214 0.06634 -0.02132
 C51 C 0.09919 0.09174 0.04319
 H52 H 0.12128 0.11763 0.02749
 C53 C 0.04082 0.02574 0.08133
 H54 H 0.01721 0.00078 0.09608
 C55 C 0.06785 0.05399 0.11008
 H56 H 0.06529 0.05033 0.14686
 N57 N 0.04328 0.03044 0.03501
 C58 C 0.01585 -0.06746 -0.06800
 H59 H -0.02201 -0.07002 -0.07064
 C60 C 0.04027 -0.09353 -0.09398
 H61 H 0.02125 -0.11618 -0.11688
 C62 C 0.08704 -0.03526 -0.03449
 H63 H 0.10516 -0.01303 -0.01079
 C64 C 0.11281 -0.06075 -0.05982
 H65 H 0.15069 -0.05774 -0.05588
 Zn66 Zn 0.00383 -0.00510 -0.00476
 N67 N 0.03943 -0.03869 -0.03937
 C68 C -0.03367 0.03383 -0.09029
 N69 N -0.03272 0.03342 -0.04367
 C70 C -0.05705 0.06193 -0.02267
 C71 C -0.08471 0.09163 -0.04870
 C72 C -0.06096 0.06309 -0.11766
 C73 C -0.01495 -0.07545 0.05895
 C74 C -0.04218 -0.10386 0.08680
 C75 C -0.11113 -0.06989 0.05227
 C76 C -0.08266 -0.04210 0.02514
 N77 N -0.03537 -0.04465 0.02967
 H78 H -0.01327 0.01165 -0.10634
 H79 H -0.05509 0.06134 0.01443
 H80 H -0.10428 0.11394 -0.03165
 H81 H -0.06186 0.06309 -0.15472
 H82 H 0.02266 -0.07718 0.06138
 H83 H -0.02556 -0.12748 0.11092
 H84 H -0.14863 -0.06696 0.04922
 H85 H -0.09841 -0.01825 0.00091
 C86 C 0.08920 -0.09003 -0.08991
 C87 C 0.09714 0.08737 0.09083
 C88 C -0.09066 -0.10065 0.08377
 C89 C -0.08684 0.09210 -0.09660
 C90 C 0.07103 0.56167 0.51660
 H91 H 0.07144 0.56514 0.47962
 C92 C 0.09869 0.59078 0.54395
 H93 H 0.12065 0.61667 0.52808
 C94 C 0.04064 0.52478 0.58253
 H95 H 0.01715 0.49981 0.59746
 C96 C 0.06772 0.55317 0.61110
 H97 H 0.06533 0.54962 0.64791
 N98 N 0.04290 0.52935 0.53618
 C99 C 0.01544 0.43130 0.43332
 H100 H -0.02241 0.42866 0.43072
 C101 C 0.03990 0.40535 0.40723
 H102 H 0.02090 0.38272 0.38430
 C103 C 0.08661 0.46361 0.46677
 H104 H 0.10471 0.48585 0.49047
 C105 C 0.11240 0.43825 0.44132
 H106 H 0.15029 0.44136 0.44519
 Zn107 Zn 0.00339 0.49368 0.49659
 N108 N 0.03899 0.46008 0.46195
 C109 C -0.03427 0.53249 0.41106
 N110 N -0.03324 0.53212 0.45768
 C111 C -0.05755 0.56064 0.47869
 C112 C -0.08527 0.59031 0.45268
 C113 C -0.06162 0.56171 0.38371
 C114 C -0.01534 0.42347 0.56058
 C115 C -0.04261 0.39510 0.58844
 C116 C -0.11156 0.42888 0.55363
 C117 C -0.08305 0.45664 0.52650
 N118 N -0.03576 0.45416 0.53115
 H119 H -0.01389 0.51031 0.39499
 H120 H -0.05552 0.56008 0.51579
 H121 H -0.10481 0.61261 0.46975
 H122 H -0.06259 0.56167 0.34664
 H123 H 0.02227 0.42179 0.56311
 H124 H -0.02601 0.37155 0.61266
 H125 H -0.14907 0.43174 0.55045
 H126 H -0.09880 0.48039 0.50215
 C127 C 0.08882 0.40899 0.41120
 C128 C 0.09686 0.58655 0.59163
 C129 C -0.09111 0.39822 0.58526
 C130 C -0.08748 0.59073 0.40478
 C131 C 0.57277 0.06334 0.51599
 H132 H 0.57320 0.06678 0.47902
 C133 C 0.60049 0.09242 0.54334
 H134 H 0.62251 0.11825 0.52746
 C135 C 0.54227 0.02655 0.58193
 H136 H 0.51872 0.00165 0.59685
 C137 C 0.56941 0.05492 0.61049
 H138 H 0.56699 0.05139 0.64729
 N139 N 0.54455 0.03109 0.53558
 C140 C 0.51678 -0.06709 0.43291
 H141 H 0.47893 -0.06963 0.43034
 C142 C 0.54112 -0.09327 0.40696
 H143 H 0.52203 -0.11596 0.38415
 C144 C 0.58806 -0.03488 0.46621
 H145 H 0.60625 -0.01259 0.48982
 C146 C 0.61374 -0.06046 0.44090
 H147 H 0.65163 -0.05748 0.44477
 Zn148 Zn 0.50497 -0.00453 0.49601
 N149 N 0.54044 -0.03827 0.46142
 C150 C 0.46715 0.03413 0.41046
 N151 N 0.46837 0.03392 0.45708
 C152 C 0.44414 0.06250 0.47808
 C153 C 0.41625 0.09203 0.45208
 C154 C 0.43962 0.06320 0.38310
 C155 C 0.48606 -0.07469 0.56000
 C156 C 0.45870 -0.10310 0.58774
 C157 C 0.38985 -0.06925 0.55278
 C158 C 0.41845 -0.04145 0.52578
 N159 N 0.46574 -0.04396 0.53056
 H160 H 0.48745 0.01188 0.39439
 H161 H 0.44631 0.06206 0.51518
 H162 H 0.39673 0.11436 0.46914
 H163 H 0.43846 0.06300 0.34603
 H164 H 0.52367 -0.07640 0.56262
 H165 H 0.47521 -0.12670 0.61195
 H166 H 0.35234 -0.06638 0.54948
 H167 H 0.40278 -0.01768 0.50141
 C168 C 0.59004 -0.08981 0.41093
 C169 C 0.59862 0.08822 0.59101
 C170 C 0.41019 -0.09997 0.58440
 C171 C 0.41380 0.09225 0.40418
 C172 C 0.57181 0.56284 0.01608
 H173 H 0.57240 0.56645 -0.02088
 C174 C 0.59938 0.59183 0.04366
 H175 H 0.62144 0.61776 0.02798
 C176 C 0.54109 0.52573 0.08173
 H177 H 0.51750 0.50073 0.09646
 C178 C 0.56806 0.55399 0.11052
 H179 H 0.56550 0.55029 0.14730
 N180 N 0.54357 0.53046 0.03541
 C181 C 0.51653 0.43271 -0.06781
 H182 H 0.47868 0.43004 -0.07051
 C183 C 0.54110 0.40686 -0.09389
 H184 H 0.52219 0.38427 -0.11692
 C185 C 0.58759 0.46500 -0.03409
 H186 H 0.60560 0.48719 -0.01029
 C187 C 0.61349 0.43974 -0.05952
 H188 H 0.65137 0.44287 -0.05555
 Zn189 Zn 0.50423 0.49491 -0.00443
 N190 N 0.53997 0.46144 -0.03904
 C191 C 0.46665 0.53382 -0.08995
 N192 N 0.46767 0.53342 -0.04333
 C193 C 0.44330 0.56187 -0.02230
 C194 C 0.41548 0.59147 -0.04829
 C195 C 0.43920 0.56297 -0.11728
 C196 C 0.48529 0.42455 0.05932
 C197 C 0.45795 0.39621 0.08713
 C198 C 0.38910 0.43010 0.05224
 C199 C 0.41768 0.45783 0.02516
 N200 N 0.46497 0.45530 0.02990
 H201 H 0.48707 0.51169 -0.10603
 H202 H 0.44531 0.56128 0.01481
 H203 H 0.39586 0.61370 -0.03120
 H204 H 0.43821 0.56294 -0.15435
 H205 H 0.52290 0.42283 0.06192
 H206 H 0.47448 0.37263 0.11137
 H207 H 0.35159 0.43303 0.04901
 H208 H 0.40201 0.48163 0.00081
 C209 C 0.59002 0.41053 -0.08979
 C210 C 0.59732 0.58741 0.09130
 C211 C 0.40946 0.39941 0.08390
 C212 C 0.41325 0.59189 -0.09619
 C213 C 0.18515 -0.18590 -0.18650
 C214 C 0.16289 -0.16416 -0.16441
 C215 C 0.13704 -0.13853 -0.13852
 C216 C 0.11513 -0.11649 -0.11638
 C217 C 0.18501 0.31380 0.31409
 C218 C 0.16268 0.33541 0.33627
 C219 C 0.13676 0.36085 0.36229
 C220 C 0.11480 0.38271 0.38456
 C221 C 0.68571 -0.18598 0.31440
 C222 C 0.66350 -0.16418 0.33648
 C223 C 0.63773 -0.13847 0.36236
 C224 C 0.61589 -0.11636 0.38448
 C225 C 0.68658 0.31569 -0.18690
 C226 C 0.66418 0.33723 -0.16471
 C227 C 0.63817 0.36258 -0.13868
 C228 C 0.61612 0.38436 -0.11641
 C229 C -0.19620 0.20401 -0.18797
 C230 C -0.17029 0.17800 -0.16893
 C231 C -0.14058 0.14780 -0.14519
 C232 C -0.11576 0.12225 -0.12370
 C233 C -0.19712 0.70239 0.31340
 C234 C -0.17114 0.67646 0.33247
 C235 C -0.14135 0.64633 0.35622
 C236 C -0.11647 0.62084 0.37770
 C237 C 0.30287 0.20286 0.31291
 C238 C 0.32916 0.17719 0.33194
 C239 C 0.35932 0.14735 0.35565
 C240 C 0.38450 0.12210 0.37711
 C241 C 0.30276 0.70288 -0.18748
 C242 C 0.32895 0.67712 -0.16843
 C243 C 0.35898 0.64719 -0.14470
 C244 C 0.38405 0.62185 -0.12324
 C245 C -0.19880 -0.18906 0.19825
 C246 C -0.17318 -0.17095 0.17138
 C247 C -0.14381 -0.14810 0.14035
 C248 C -0.11926 -0.12721 0.11429
 C249 C -0.19962 0.30973 0.69939
 C250 C -0.17391 0.32788 0.67261
 C251 C -0.14441 0.35075 0.64170
 C252 C -0.11978 0.37165 0.61572
 C253 C 0.30103 -0.18873 0.69770
 C254 C 0.32692 -0.17055 0.67112
 C255 C 0.35662 -0.14760 0.64045
 C256 C 0.38139 -0.12663 0.61466
 C257 C 0.30073 0.31124 0.19801
 C258 C 0.32648 0.32935 0.17125
 C259 C 0.35603 0.35213 0.14034
 C260 C 0.38071 0.37294 0.11436
 C261 C 0.18656 0.20093 0.19978
 C262 C 0.16762 0.17465 0.17418
 C263 C 0.14427 0.14406 0.14467
 C264 C 0.12334 0.11811 0.11988
 C265 C 0.18653 0.70083 0.69960
 C266 C 0.16753 0.67437 0.67424
 C267 C 0.14411 0.64357 0.64501
 C268 C 0.12311 0.61745 0.62045
 C269 C 0.68822 0.20252 0.69900
 C270 C 0.66929 0.17604 0.67364
 C271 C 0.64590 0.14522 0.64440
 C272 C 0.62491 0.11911 0.61983
 C273 C 0.68683 0.70093 0.20023
 C274 C 0.66783 0.67466 0.17466
 C275 C 0.64445 0.64408 0.14516
 C276 C 0.62351 0.61814 0.12037
   
