data_POSCAR
  _audit_creation_date              2014-09-24
  _audit_creation_method            'ToBaCCo'
  _symmetry_space_group_name_H-M    'P1'
  _symmetry_Int_Tables_number       1
  _symmetry_cell_setting            triclinic
  loop_
  _symmetry_equiv_pos_as_xyz
 x,y,z
_cell_length_a 18.3115
_cell_length_b 20.3002
_cell_length_c 18.6724
_cell_angle_alpha 88.660200
_cell_angle_beta 88.264300
_cell_angle_gamma 87.566100
loop_
  _atom_site_label
  _atom_site_type_symbol
  _atom_site_fract_x
  _atom_site_fract_y
  _atom_site_fract_z
C1 C 0.07178 0.41337 0.14460
 H2 H 0.11761 0.43639 0.16629
 C3 C 0.08168 0.34847 0.12472
 H4 H 0.13569 0.32505 0.12916
 C5 C -0.05349 0.41363 0.11704
 H6 H -0.10701 0.43836 0.11805
 C7 C -0.04555 0.34759 0.09519
 H8 H -0.09307 0.32222 0.07911
 N9 N 0.00418 0.44361 0.14529
 C10 C -0.11824 0.61883 0.18110
 H11 H -0.15036 0.59085 0.21934
 C12 C -0.14349 0.68229 0.16069
 H13 H -0.19360 0.70273 0.18509
 C14 C -0.01499 0.62677 0.10304
 H15 H 0.03451 0.60511 0.07959
 C16 C -0.03803 0.69064 0.08131
 H17 H -0.00366 0.71818 0.04443
 Zn18 Zn -0.00680 0.51862 0.20569
 N19 N -0.05194 0.59425 0.15657
 C20 C 0.14332 0.55585 0.18946
 N21 N 0.09007 0.53715 0.23761
 C22 C 0.10783 0.51767 0.30543
 C23 C 0.18114 0.51145 0.32495
 C24 C 0.21727 0.54933 0.20644
 C25 C -0.08273 0.42865 0.29836
 C26 C -0.13094 0.40944 0.35388
 C27 C -0.14385 0.52285 0.38952
 C28 C -0.09314 0.53953 0.33504
 N29 N -0.06650 0.49322 0.28824
 H30 H 0.12988 0.56927 0.13528
 H31 H 0.06565 0.50233 0.34318
 H32 H 0.19384 0.49314 0.37818
 H33 H 0.25837 0.56139 0.16592
 H34 H -0.05931 0.39177 0.26276
 H35 H -0.14539 0.35833 0.35920
 H36 H -0.16820 0.56097 0.42337
 H37 H -0.07789 0.59021 0.32787
 C38 C -0.10082 0.72052 0.11343
 C39 C 0.02162 0.31297 0.10524
 C40 C -0.16376 0.45720 0.39881
 C41 C 0.23712 0.52436 0.27408
 C42 C 0.05127 0.59356 0.87737
 H43 H 0.09946 0.56090 0.87900
 C44 C 0.05438 0.65836 0.90114
 H45 H 0.10522 0.67558 0.92048
 C46 C -0.07016 0.61482 0.83986
 H47 H -0.11666 0.60024 0.81087
 C48 C -0.06976 0.67913 0.86394
 H49 H -0.11618 0.71261 0.85385
 N50 N -0.00952 0.57395 0.84488
 C51 C 0.10627 0.39892 0.81791
 H52 H 0.13987 0.42735 0.78134
 C53 C 0.13105 0.33574 0.83930
 H54 H 0.18175 0.31582 0.81636
 C55 C -0.00257 0.38860 0.88795
 H56 H -0.05541 0.40815 0.90577
 C57 C 0.02087 0.32577 0.91190
 H58 H -0.01469 0.29809 0.94762
 Zn59 Zn -0.00426 0.49690 0.78836
 N60 N 0.03856 0.42267 0.83905
 C61 C 0.07869 0.46552 0.66147
 N62 N 0.05398 0.51567 0.70422
 C63 C 0.07479 0.57857 0.69099
 C64 C 0.12590 0.59211 0.63607
 C65 C 0.13203 0.47646 0.60791
 C66 C -0.15256 0.47687 0.81579
 C67 C -0.22603 0.47326 0.80029
 C68 C -0.19158 0.46435 0.67494
 C69 C -0.11838 0.46947 0.69297
 N70 N -0.10054 0.47730 0.76237
 H71 H 0.06057 0.41612 0.67212
 H72 H 0.05370 0.61811 0.72447
 H73 H 0.14446 0.64179 0.62816
 H74 H 0.15520 0.43539 0.57755
 H75 H -0.13774 0.48461 0.87041
 H76 H -0.26512 0.47512 0.84479
 H77 H -0.20429 0.46069 0.61899
 H78 H -0.07632 0.46968 0.65112
 C79 C 0.08736 0.29765 0.88557
 C80 C -0.00593 0.70226 0.89177
 C81 C -0.24726 0.46962 0.72856
 C82 C 0.15676 0.54020 0.59573
 C83 C 0.13727 -0.00336 0.45285
 H84 H 0.12934 0.02205 0.50278
 C85 C 0.07920 -0.00536 0.40669
 H86 H 0.02772 0.01866 0.42284
 C87 C 0.21320 -0.06594 0.37291
 H88 H 0.26509 -0.08988 0.35931
 C89 C 0.15694 -0.06755 0.32402
 H90 H 0.16722 -0.09162 0.27336
 N91 N 0.20378 -0.03123 0.43445
 C92 C 0.30276 -0.00360 0.63920
 H93 H 0.35127 0.02066 0.61993
 C94 C 0.28926 -0.01202 0.71244
 H95 H 0.32678 0.00742 0.74952
 C96 C 0.19465 -0.05796 0.61363
 H97 H 0.15924 -0.07761 0.57490
 C98 C 0.17805 -0.06598 0.68665
 H99 H 0.12867 -0.09007 0.70390
 Zn100 Zn 0.28390 -0.01494 0.49442
 N101 N 0.25570 -0.02636 0.59157
 C102 C 0.37352 0.09691 0.45494
 N103 N 0.30890 0.07513 0.48261
 C104 C 0.25585 0.11836 0.50749
 C105 C 0.26529 0.18597 0.50360
 C106 C 0.38540 0.16496 0.45031
 C107 C 0.37230 -0.12531 0.52700
 C108 C 0.40705 -0.18525 0.51009
 C109 C 0.42750 -0.14403 0.38926
 C110 C 0.39341 -0.08383 0.40896
 N111 N 0.36168 -0.07762 0.47543
 H112 H 0.41555 0.06186 0.43625
 H113 H 0.20619 0.10029 0.53176
 H114 H 0.22209 0.21908 0.52414
 H115 H 0.43571 0.18222 0.42634
 H116 H 0.34791 -0.12006 0.57989
 H117 H 0.40994 -0.22398 0.55065
 H118 H 0.44693 -0.15039 0.33444
 H119 H 0.38517 -0.04501 0.36897
 C120 C 0.22609 -0.04333 0.73669
 C121 C 0.09009 -0.03389 0.33904
 C122 C 0.43034 -0.19680 0.43944
 C123 C 0.33048 0.21018 0.47452
 C124 C 0.84964 0.03381 0.54782
 H125 H 0.85603 0.05667 0.49530
 C126 C 0.90283 0.04155 0.59908
 H127 H 0.94929 0.07069 0.58465
 C128 C 0.78097 -0.03094 0.63012
 H129 H 0.73339 -0.05951 0.64194
 C130 C 0.83248 -0.02424 0.68292
 H131 H 0.82374 -0.04760 0.73503
 N132 N 0.78931 -0.00093 0.56453
 C133 C 0.74205 -0.03307 0.35078
 H134 H 0.73027 -0.08353 0.36448
 C135 C 0.75831 -0.01586 0.27915
 H136 H 0.76017 -0.05384 0.23930
 C137 C 0.75322 0.07727 0.38540
 H138 H 0.75141 0.11351 0.42706
 C139 C 0.76595 0.09720 0.31415
 H140 H 0.77608 0.14860 0.30329
 Zn141 Zn 0.71105 -0.00857 0.49974
 N142 N 0.74030 0.01325 0.40256
 C143 C 0.60465 0.09490 0.47862
 N144 N 0.63420 0.05314 0.52909
 C145 C 0.62499 0.06632 0.60003
 C146 C 0.59240 0.12645 0.62191
 C147 C 0.57350 0.15624 0.49799
 C148 C 0.74460 -0.14078 0.49590
 C149 C 0.73668 -0.20861 0.49997
 C150 C 0.60722 -0.18914 0.52291
 C151 C 0.61760 -0.12092 0.51840
 N152 N 0.68579 -0.09837 0.50503
 H153 H 0.61074 0.08338 0.42252
 H154 H 0.64790 0.03272 0.63978
 H155 H 0.58980 0.13685 0.67845
 H156 H 0.55685 0.19106 0.45629
 H157 H 0.79817 -0.12153 0.48543
 H158 H 0.78455 -0.24098 0.49178
 H159 H 0.55345 -0.20702 0.53515
 H160 H 0.57164 -0.08627 0.52607
 C161 C 0.76969 0.05022 0.25950
 C162 C 0.89402 0.01312 0.66827
 C163 C 0.66743 -0.23373 0.51410
 C164 C 0.56979 0.17393 0.57021
 C165 C 0.60968 0.17330 0.97470
 H166 H 0.57870 0.14780 1.01616
 C167 C 0.68196 0.15357 0.96035
 H168 H 0.70528 0.11158 0.98986
 C169 C 0.61803 0.26159 0.88987
 H170 H 0.59342 0.30400 0.86285
 C171 C 0.69118 0.24366 0.87399
 H172 H 0.72187 0.27292 0.83542
 N173 N 0.58045 0.22855 0.94255
 C174 C 0.39164 0.16743 0.95921
 H175 H 0.39933 0.18385 0.90406
 C176 C 0.33449 0.12693 0.97830
 H177 H 0.29946 0.11124 0.93708
 C178 C 0.42823 0.16818 1.07974
 H179 H 0.46446 0.18501 1.11940
 C180 C 0.37420 0.12496 1.10060
 H181 H 0.36905 0.11017 1.15653
 Zn182 Zn 0.49433 0.26182 0.98937
 N183 N 0.43323 0.19127 1.01082
 C184 C 0.37408 0.32270 0.91859
 N185 N 0.44510 0.32859 0.93569
 C186 C 0.48363 0.37997 0.90964
 C187 C 0.45692 0.41817 0.85258
 C188 C 0.34526 0.35977 0.86181
 C189 C 0.58653 0.28541 1.10250
 C190 C 0.59830 0.29500 1.17458
 C191 C 0.47177 0.33330 1.18927
 C192 C 0.46213 0.32203 1.11715
 N193 N 0.51848 0.29623 1.07640
 H194 H 0.34092 0.28663 0.94559
 H195 H 0.53775 0.38752 0.92877
 H196 H 0.49114 0.45459 0.82828
 H197 H 0.29124 0.35004 0.84497
 H198 H 0.63087 0.26625 1.06866
 H199 H 0.65222 0.28455 1.19538
 H200 H 0.42589 0.35150 1.22219
 H201 H 0.40861 0.32963 1.09461
 C202 C 0.32352 0.10728 1.05029
 C203 C 0.72460 0.19092 0.91224
 C204 C 0.53969 0.31711 1.21892
 C205 C 0.38988 0.40355 0.82357
 C206 C 0.39372 0.83814 1.04243
 H207 H 0.43221 0.87361 1.02270
 C208 C 0.32170 0.85865 1.05863
 H209 H 0.30670 0.91043 1.05366
 C210 C 0.36744 0.72798 1.07506
 H211 H 0.38549 0.67662 1.07919
 C212 C 0.29503 0.74658 1.09304
 H213 H 0.25809 0.70887 1.11073
 N214 N 0.41420 0.77330 1.04796
 C215 C 0.63710 0.80212 1.02895
 H216 H 0.64721 0.76360 1.06854
 C217 C 0.69219 0.84529 1.01188
 H218 H 0.74315 0.84007 1.03984
 C219 C 0.56089 0.85320 0.94159
 H220 H 0.51027 0.85449 0.91307
 C221 C 0.61484 0.89745 0.92256
 H222 H 0.60432 0.93341 0.88013
 Zn223 Zn 0.50489 0.74058 1.00998
 N224 N 0.57292 0.80671 0.99393
 C225 C 0.54522 0.67912 0.87812
 N226 N 0.48877 0.70383 0.91987
 C227 C 0.42045 0.71307 0.89379
 C228 C 0.40702 0.69907 0.82302
 C229 C 0.53389 0.66369 0.80662
 C230 C 0.54232 0.70722 1.14521
 C231 C 0.56888 0.67012 1.20271
 C232 C 0.59561 0.57954 1.12276
 C233 C 0.56859 0.61883 1.06617
 N234 N 0.54249 0.68125 1.07879
 H235 H 0.59947 0.67377 0.89947
 H236 H 0.37638 0.73389 0.92680
 H237 H 0.35205 0.70711 0.80409
 H238 H 0.57931 0.64480 0.77355
 H239 H 0.52145 0.75724 1.15323
 H240 H 0.56771 0.69145 1.25537
 H241 H 0.61382 0.52907 1.11287
 H242 H 0.56769 0.59943 1.01278
 C243 C 0.68192 0.89308 0.95747
 C244 C 0.27032 0.81226 1.08094
 C245 C 0.59502 0.60535 1.19208
 C246 C 0.46433 0.67524 0.77799
 B247 B 1.00466 1.07694 0.04457
 B248 B 1.00470 1.00264 0.08859
 B249 B 0.92781 1.03235 0.04740
 B250 B 0.95411 1.07143 -0.03005
 B251 B 1.04660 1.06686 -0.03635
 B252 B 1.07808 1.02342 0.03612
 B253 B 0.99802 0.94062 -0.04100
 B254 B 0.99640 1.01589 -0.08445
 B255 B 1.07347 0.98625 -0.04376
 B256 B 1.04795 0.94610 0.03387
 B257 B 0.95519 0.95066 0.04145
 B258 B 0.92352 0.99333 -0.03184
 B259 B 0.58245 0.46260 0.49860
 B260 B 0.54525 0.50653 0.42947
 B261 B 0.51918 0.42856 0.44799
 B262 B 0.51563 0.41673 0.53807
 B263 B 0.53990 0.48778 0.57588
 B264 B 0.55759 0.54365 0.50877
 B265 B 0.41281 0.51436 0.50282
 B266 B 0.44946 0.46907 0.57184
 B267 B 0.47583 0.54786 0.55431
 B268 B 0.47947 0.55982 0.46368
 B269 B 0.45550 0.48892 0.42573
 B270 B 0.43766 0.43298 0.49194
 C271 C 1.02814 1.24384 0.10699
 C272 C 1.07402 1.20986 0.15337
 C273 C 1.06537 1.14584 0.14135
 C274 C 1.01635 1.14349 0.08675
 O275 O 0.99193 1.20372 0.06685
 H276 H 1.10830 1.22926 0.19342
 H277 H 1.09342 1.10583 0.16942
 C278 C 0.88663 0.79320 0.10855
 C279 C 0.86612 0.82962 0.16751
 C280 C 0.88512 0.89210 0.15072
 C281 C 0.91287 0.89136 0.08105
 O282 O 0.91451 0.83056 0.05613
 H283 H 0.84934 0.81140 0.22014
 H284 H 0.88692 0.93043 0.18924
 C285 C 1.10613 1.22723 -0.09862
 C286 C 1.16755 1.19198 -0.12327
 C287 C 1.15609 1.12801 -0.10383
 C288 C 1.08869 1.12840 -0.06883
 O289 O 1.05937 1.18879 -0.06497
 H290 H 1.21407 1.20968 -0.15390
 H291 H 1.19172 1.08621 -0.11676
 C292 C 1.00379 0.77359 -0.11139
 C293 C 1.01546 0.80612 -0.17541
 C294 C 1.01389 0.87062 -0.15922
 C295 C 1.00061 0.87388 -0.08588
 O296 O 0.99517 0.81392 -0.05676
 H297 H 1.02342 0.78503 -0.22793
 H298 H 1.02361 0.90918 -0.19806
 C299 C 1.03809 0.98150 0.28096
 C300 C 0.98644 1.03262 0.28518
 C301 C 0.96711 1.04554 0.21722
 C302 C 1.00547 1.00038 0.17481
 O303 O 1.04859 0.96090 0.21411
 H304 H 0.97091 1.06309 0.33028
 H305 H 0.93539 1.08865 0.20095
 C306 C 1.20719 0.95245 -0.18646
 C307 C 1.25661 0.95151 -0.13253
 C308 C 1.21521 0.95969 -0.07163
 C309 C 1.14333 0.96467 -0.09215
 O310 O 1.13909 0.95956 -0.16216
 H311 H 1.31570 0.94896 -0.13717
 H312 H 1.23658 0.96604 -0.01979
 C313 C 0.79144 1.06742 0.18857
 C314 C 0.79613 1.13114 0.16208
 C315 C 0.83928 1.12633 0.10190
 C316 C 0.85738 1.05986 0.09369
 O317 O 0.82586 1.02441 0.14546
 H318 H 0.77655 1.17660 0.18650
 H319 H 0.86143 1.16795 0.07309
 C320 C 0.94634 1.02370 -0.27392
 C321 C 1.01066 1.05609 -0.28247
 C322 C 1.03838 1.05754 -0.21583
 C323 C 0.98966 1.02591 -0.17018
 O324 O 0.93419 1.00485 -0.20622
 H325 H 1.03510 1.07652 -0.33104
 H326 H 1.08911 1.07860 -0.20369
 C327 C 1.26137 1.07337 0.07099
 C328 C 1.25381 1.03408 0.13172
 C329 C 1.18643 1.00917 0.12772
 C330 C 1.15605 1.03710 0.06672
 O331 O 1.20221 1.07550 0.03217
 H332 H 1.29394 1.02133 0.17162
 H333 H 1.16482 0.97236 0.16346
 C334 C 0.80391 1.17592 -0.09193
 C335 C 0.85389 1.19917 -0.14196
 C336 C 0.91874 1.16750 -0.12514
 C337 C 0.90387 1.12863 -0.06491
 O338 O 0.83417 1.13361 -0.04627
 H339 H 0.84401 1.23224 -0.18720
 H340 H 0.96905 1.16965 -0.15654
 C341 C 1.19582 0.83133 0.08544
 C342 C 1.14116 0.79790 0.12112
 C343 C 1.07856 0.83505 0.10952
 C344 C 1.09861 0.88695 0.06501
 O345 O 1.16980 0.88477 0.05188
 H346 H 1.14619 0.75354 0.15416
 H347 H 1.02595 0.82556 0.13348
 C348 C 0.74257 0.93596 -0.06266
 C349 C 0.74189 0.98346 -0.11651
 C350 C 0.80843 1.01034 -0.11503
 C351 C 0.84557 0.97735 -0.06070
 O352 O 0.80515 0.93231 -0.02901
 H353 H 0.69840 0.99784 -0.15225
 H354 H 0.82580 1.05073 -0.14896
 C355 C 0.77528 0.44038 0.44878
 C356 C 0.77214 0.38466 0.49220
 C357 C 0.70257 0.38602 0.52141
 C358 C 0.66747 0.44119 0.49154
 O359 O 0.71253 0.47466 0.44913
 H360 H 0.81486 0.34703 0.50045
 H361 H 0.67967 0.34949 0.55756
 C362 C 0.31496 0.50971 0.29174
 C363 C 0.37287 0.50097 0.24339
 C364 C 0.43305 0.48881 0.28412
 C365 C 0.40797 0.49124 0.35466
 O366 O 0.33639 0.50314 0.35838
 H367 H 0.37183 0.50319 0.18550
 H368 H 0.48850 0.48116 0.26399
 C369 C 0.68156 0.47547 0.71079
 C370 C 0.62435 0.49423 0.75668
 C371 C 0.56539 0.50231 0.71492
 C372 C 0.58839 0.48608 0.64643
 O373 O 0.65931 0.46981 0.64437
 H374 H 0.62492 0.50579 0.81286
 H375 H 0.51304 0.52103 0.73400
 C376 C 0.22068 0.55052 0.54797
 C377 C 0.22514 0.59715 0.49368
 C378 C 0.29516 0.59003 0.46674
 C379 C 0.32879 0.54013 0.50755
 O380 O 0.28287 0.51671 0.55655
 H381 H 0.18270 0.63198 0.47605
 H382 H 0.31846 0.61891 0.42330
 C383 C 0.61121 0.56364 0.25535
 C384 C 0.65079 0.50463 0.25498
 C385 C 0.63776 0.47727 0.32099
 C386 C 0.59122 0.52158 0.35733
 O387 O 0.57655 0.57429 0.31728
 H388 H 0.68181 0.48239 0.21093
 H389 H 0.65750 0.42892 0.33835
 C390 C 0.45057 0.65994 0.70268
 C391 C 0.39077 0.68307 0.66534
 C392 C 0.39354 0.64873 0.60378
 C393 C 0.45452 0.60652 0.60752
 O394 O 0.49020 0.61537 0.66663
 H395 H 0.34904 0.71958 0.68124
 H396 H 0.35478 0.65485 0.56198
 C397 C 0.54903 0.32588 0.29540
 C398 C 0.60091 0.29345 0.33644
 C399 C 0.59466 0.32293 0.40098
 C400 C 0.53935 0.37109 0.39452
 O401 O 0.51120 0.37171 0.33066
 H402 H 0.64011 0.25468 0.32074
 H403 H 0.62922 0.31170 0.44545
 C404 C 0.37449 0.42329 0.74861
 C405 C 0.31860 0.40001 0.70991
 C406 C 0.33650 0.41441 0.64051
 C407 C 0.40095 0.44758 0.64081
 O408 O 0.42375 0.45194 0.70669
 H409 H 0.27310 0.37132 0.72843
 H410 H 0.30580 0.40000 0.59582
 C411 C 0.65936 0.69404 0.52126
 C412 C 0.71406 0.65045 0.54360
 C413 C 0.68534 0.59009 0.54222
 C414 C 0.61492 0.60011 0.51845
 O415 O 0.59905 0.66379 0.50655
 H416 H 0.76831 0.66124 0.56015
 H417 H 0.71380 0.54481 0.55750
 C418 C 0.54958 0.24327 0.58943
 C419 C 0.54941 0.26829 0.65755
 C420 C 0.53672 0.33454 0.64885
 C421 C 0.53002 0.34600 0.57609
 O422 O 0.53713 0.29037 0.54046
 H423 H 0.55929 0.24230 0.70774
 H424 H 0.53381 0.36984 0.69119
 C425 C 0.44768 0.73460 0.41806
 C426 C 0.43949 0.71172 0.35021
 C427 C 0.44891 0.64516 0.35662
 C428 C 0.46346 0.63141 0.42782
 O429 O 0.46144 0.68612 0.46507
 H430 H 0.42472 0.73957 0.30232
 H431 H 0.44474 0.61168 0.31342
 C432 C 0.33894 0.28236 0.46891
 C433 C 0.28236 0.32655 0.45307
 C434 C 0.31010 0.38705 0.45840
 C435 C 0.38185 0.37627 0.47801
 O436 O 0.39959 0.31221 0.48354
 H437 H 0.22691 0.31592 0.44018
 H438 H 0.27970 0.43309 0.45139
   
