data_POSCAR
  _audit_creation_date              2014-09-24
  _audit_creation_method            'ToBaCCo'
  _symmetry_space_group_name_H-M    'P1'
  _symmetry_Int_Tables_number       1
  _symmetry_cell_setting            triclinic
  loop_
  _symmetry_equiv_pos_as_xyz
 x,y,z
_cell_length_a 44.6844
_cell_length_b 45.0156
_cell_length_c 44.9413
_cell_angle_alpha 89.901300
_cell_angle_beta 89.839100
_cell_angle_gamma 90.132000
loop_
  _atom_site_label
  _atom_site_type_symbol
  _atom_site_fract_x
  _atom_site_fract_y
  _atom_site_fract_z
N1 N 0.30015 0.23753 0.21912
 N2 N 0.28719 0.26007 0.20585
 C3 C 0.30004 0.26440 0.17910
 C4 C 0.32249 0.24349 0.17536
 C5 C 0.32187 0.22680 0.20134
 H6 H 0.29334 0.28148 0.16357
 H7 H 0.33624 0.20840 0.20713
 Cu8 Cu 0.25515 0.28210 0.22490
 Cu9 Cu 0.28815 0.22451 0.25871
 Cu10 Cu 0.21838 0.24966 0.28170
 N11 N 0.21629 0.29622 0.23785
 N12 N 0.20181 0.28328 0.25980
 C13 C 0.17553 0.29722 0.26395
 C14 C 0.17331 0.32018 0.24342
 C15 C 0.19971 0.31877 0.22719
 H16 H 0.15924 0.29092 0.28063
 H17 H 0.20648 0.33304 0.20901
 N18 N 0.23935 0.21620 0.30098
 N19 N 0.26610 0.20711 0.29252
 C20 C 0.27433 0.18397 0.30960
 C21 C 0.25173 0.17809 0.32999
 C22 C 0.22993 0.19910 0.32380
 H23 H 0.29499 0.17187 0.30677
 H24 H 0.20862 0.20165 0.33490
 H25 H 0.24488 0.23392 0.24715
 H26 H 0.26225 0.25983 0.27443
 N27 N 0.70150 -0.24366 0.21469
 N28 N 0.71490 -0.26619 0.20184
 C29 C 0.69967 -0.27374 0.17718
 C30 C 0.67535 -0.25478 0.17414
 C31 C 0.67733 -0.23604 0.19863
 H32 H 0.70635 -0.29130 0.16224
 H33 H 0.66277 -0.21774 0.20420
 Cu34 Cu 0.75187 -0.28239 0.21774
 Cu35 Cu 0.71725 -0.22488 0.25046
 Cu36 Cu 0.78316 -0.25359 0.27919
 N37 N 0.78882 -0.29835 0.23389
 N38 N 0.80092 -0.28703 0.25795
 C39 C 0.82652 -0.30151 0.26390
 C40 C 0.83093 -0.32324 0.24235
 C41 C 0.80631 -0.32046 0.22372
 H42 H 0.84090 -0.29621 0.28243
 H43 H 0.80155 -0.33326 0.20398
 N44 N 0.76177 -0.21981 0.29735
 N45 N 0.73668 -0.20896 0.28640
 C46 C 0.72816 -0.18554 0.30295
 C47 C 0.74888 -0.18128 0.32542
 C48 C 0.76986 -0.20352 0.32114
 H49 H 0.70879 -0.17199 0.29837
 H50 H 0.78977 -0.20734 0.33415
 H51 H 0.76163 -0.23540 0.24295
 H52 H 0.73956 -0.26177 0.26642
 N53 N 0.70322 0.23053 0.78662
 N54 N 0.71609 0.25311 0.79999
 C55 C 0.70115 0.25902 0.82533
 C56 C 0.67765 0.23905 0.82808
 C57 C 0.67972 0.22126 0.80303
 H58 H 0.70731 0.27619 0.84094
 H59 H 0.66526 0.20294 0.79712
 Cu60 Cu 0.75161 0.27202 0.78342
 Cu61 Cu 0.71830 0.21451 0.74927
 Cu62 Cu 0.78168 0.24789 0.71928
 N63 N 0.78713 0.29063 0.76648
 N64 N 0.79873 0.28113 0.74138
 C65 C 0.82327 0.29731 0.73494
 C66 C 0.82752 0.31823 0.75730
 C67 C 0.80392 0.31319 0.77692
 H68 H 0.83705 0.29369 0.71551
 H69 H 0.79937 0.32479 0.79744
 N70 N 0.76110 0.21399 0.70033
 N71 N 0.73689 0.20150 0.71171
 C72 C 0.72863 0.17861 0.69431
 C73 C 0.74860 0.17642 0.67082
 C74 C 0.76891 0.19927 0.67541
 H75 H 0.71002 0.16395 0.69899
 H76 H 0.78817 0.20456 0.66180
 H77 H 0.76249 0.22688 0.75552
 H78 H 0.73838 0.25323 0.73433
 N79 N 0.29923 -0.24420 0.78437
 N80 N 0.28587 -0.26674 0.79748
 C81 C 0.30157 -0.27447 0.82181
 C82 C 0.32611 -0.25572 0.82418
 C83 C 0.32384 -0.23681 0.79990
 H84 H 0.29506 -0.29179 0.83721
 H85 H 0.33865 -0.21867 0.79415
 Cu86 Cu 0.24836 -0.28249 0.78224
 Cu87 Cu 0.28292 -0.22508 0.74899
 Cu88 Cu 0.21595 -0.25317 0.72178
 N89 N 0.21087 -0.29829 0.76700
 N90 N 0.19834 -0.28663 0.74331
 C91 C 0.17255 -0.30101 0.73771
 C92 C 0.16846 -0.32303 0.75910
 C93 C 0.19345 -0.32052 0.77730
 H94 H 0.15790 -0.29548 0.71946
 H95 H 0.19855 -0.33362 0.79678
 N96 N 0.23730 -0.21942 0.70319
 N97 N 0.26281 -0.20885 0.71349
 C98 C 0.27120 -0.18541 0.69676
 C99 C 0.24993 -0.18084 0.67486
 C100 C 0.22879 -0.20292 0.67966
 H101 H 0.29085 -0.17203 0.70085
 H102 H 0.20846 -0.20648 0.66719
 H103 H 0.23862 -0.23525 0.75756
 H104 H 0.25979 -0.26158 0.73344
 N105 N 0.70327 -0.23364 0.78264
 N106 N 0.71637 -0.25573 0.79656
 C107 C 0.70193 -0.26093 0.82235
 C108 C 0.67835 -0.24106 0.82478
 C109 C 0.67992 -0.22411 0.79901
 H110 H 0.70844 -0.27764 0.83834
 H111 H 0.66526 -0.20617 0.79252
 Cu112 Cu 0.75109 -0.27557 0.77964
 Cu113 Cu 0.71758 -0.21920 0.74422
 Cu114 Cu 0.79088 -0.23896 0.72822
 N115 N 0.78597 -0.29353 0.76094
 N116 N 0.80145 -0.27892 0.74079
 C117 C 0.82537 -0.29508 0.73276
 C118 C 0.82510 -0.32154 0.74876
 C119 C 0.79951 -0.31967 0.76641
 H120 H 0.84201 -0.28745 0.71701
 H121 H 0.79162 -0.33565 0.78260
 N122 N 0.77018 -0.20603 0.70830
 N123 N 0.74203 -0.19910 0.71368
 C124 C 0.73424 -0.17616 0.69614
 C125 C 0.75868 -0.16825 0.67870
 C126 C 0.78105 -0.18781 0.68710
 H127 H 0.71240 -0.16591 0.69634
 H128 H 0.80365 -0.18880 0.67854
 H129 H 0.74776 -0.25235 0.73065
 H130 H 0.75928 -0.22555 0.76014
 N131 N 0.29774 0.24075 0.78263
 N132 N 0.28692 0.26577 0.79308
 C133 C 0.30321 0.27417 0.81681
 C134 C 0.32547 0.25327 0.82155
 C135 C 0.32124 0.23240 0.79930
 H136 H 0.29862 0.29357 0.83017
 H137 H 0.33395 0.21234 0.79569
 Cu138 Cu 0.25166 0.28404 0.77552
 Cu139 Cu 0.27967 0.21997 0.74918
 Cu140 Cu 0.21698 0.25215 0.71746
 N141 N 0.21638 0.30184 0.75753
 N142 N 0.20319 0.28932 0.73465
 C143 C 0.17902 0.30534 0.72709
 C144 C 0.17671 0.32923 0.74632
 C145 C 0.20088 0.32626 0.76539
 H146 H 0.16361 0.29935 0.70959
 H147 H 0.20648 0.34053 0.78387
 N148 N 0.23428 0.21459 0.70320
 N149 N 0.25820 0.20239 0.71520
 C150 C 0.26411 0.17672 0.70104
 C151 C 0.24285 0.17246 0.67906
 C152 C 0.22432 0.19698 0.68113
 H153 H 0.28219 0.16190 0.70675
 H154 H 0.20494 0.20164 0.66761
 H155 H 0.26129 0.25710 0.72948
 H156 H 0.23678 0.23585 0.75569
 N157 N 0.29514 -0.22920 0.21346
 N158 N 0.28498 -0.25422 0.20232
 C159 C 0.30101 -0.26105 0.17787
 C160 C 0.32238 -0.23909 0.17337
 C161 C 0.31792 -0.21923 0.19647
 H162 H 0.29700 -0.28024 0.16404
 H163 H 0.33024 -0.19899 0.20066
 Cu164 Cu 0.25120 -0.27487 0.22043
 Cu165 Cu 0.27768 -0.21104 0.24877
 Cu166 Cu 0.21809 -0.24803 0.28191
 N167 N 0.21791 -0.29562 0.23932
 N168 N 0.20534 -0.28505 0.26354
 C169 C 0.18244 -0.30279 0.27154
 C170 C 0.18033 -0.32575 0.25119
 C171 C 0.20327 -0.32045 0.23101
 H172 H 0.16766 -0.29855 0.29012
 H173 H 0.20858 -0.33342 0.21149
 N174 N 0.23425 -0.21029 0.29714
 N175 N 0.25699 -0.19630 0.28459
 C176 C 0.26245 -0.17113 0.29979
 C177 C 0.24213 -0.16909 0.32301
 C178 C 0.22458 -0.19434 0.32059
 H179 H 0.27957 -0.15515 0.29397
 H180 H 0.20612 -0.20065 0.33486
 H181 H 0.26190 -0.25006 0.26735
 H182 H 0.23522 -0.22866 0.24373
 N183 N 0.70074 0.23972 0.21606
 N184 N 0.71150 0.26484 0.20556
 C185 C 0.69492 0.27339 0.18209
 C186 C 0.67253 0.25249 0.17755
 C187 C 0.67700 0.23146 0.19966
 H188 H 0.69939 0.29292 0.16877
 H189 H 0.66429 0.21133 0.20336
 Cu190 Cu 0.74707 0.28286 0.22283
 Cu191 Cu 0.71912 0.21874 0.24928
 Cu192 Cu 0.78218 0.25102 0.28052
 N193 N 0.78243 0.30092 0.24048
 N194 N 0.79580 0.28835 0.26324
 C195 C 0.82000 0.30447 0.27067
 C196 C 0.82213 0.32847 0.25147
 C197 C 0.79784 0.32547 0.23256
 H198 H 0.83553 0.29846 0.28804
 H199 H 0.79209 0.33983 0.21416
 N200 N 0.76497 0.21331 0.29484
 N201 N 0.74094 0.20106 0.28302
 C202 C 0.73509 0.17536 0.29728
 C203 C 0.75649 0.17114 0.31912
 C204 C 0.77506 0.19571 0.31688
 H205 H 0.71691 0.16052 0.29176
 H206 H 0.79450 0.20044 0.33031
 H207 H 0.73776 0.25575 0.26891
 H208 H 0.76200 0.23465 0.24253
 C209 C 0.23500 0.00316 0.42402
 C210 C 0.23880 0.02901 0.44064
 C211 C 0.23905 0.02759 0.47179
 C212 C 0.23393 0.00035 0.48687
 C213 C 0.22924 -0.02537 0.46940
 C214 C 0.23067 -0.02402 0.43830
 C215 C 0.23404 -0.00134 0.52037
 C216 C 0.23881 -0.02864 0.53537
 C217 C 0.23871 -0.03009 0.56652
 C218 C 0.23538 -0.00422 0.58323
 C219 C 0.23142 0.02303 0.56899
 C220 C 0.22986 0.02441 0.53791
 H221 H 0.23578 0.00415 0.39990
 H222 H 0.24370 0.04784 0.48379
 H223 H 0.22461 -0.04669 0.47949
 H224 H 0.24308 -0.04893 0.52331
 H225 H 0.23621 -0.00525 0.60733
 H226 H 0.22550 0.04577 0.52786
 C227 C 0.76291 0.00366 0.57562
 C228 C 0.75940 0.02937 0.55868
 C229 C 0.75918 0.02770 0.52755
 C230 C 0.76406 0.00030 0.51281
 C231 C 0.76843 -0.02530 0.53060
 C232 C 0.76698 -0.02367 0.56167
 C233 C 0.76415 -0.00165 0.47933
 C234 C 0.75921 -0.02902 0.46457
 C235 C 0.75953 -0.03067 0.43343
 C236 C 0.76320 -0.00491 0.41650
 C237 C 0.76733 0.02240 0.43050
 C238 C 0.76872 0.02396 0.46157
 H239 H 0.76216 0.00487 0.59973
 H240 H 0.75477 0.04788 0.51531
 H241 H 0.77291 -0.04672 0.52076
 H242 H 0.75466 -0.04920 0.47682
 H243 H 0.76249 -0.00608 0.39240
 H244 H 0.77325 0.04536 0.47143
 C245 C 0.41800 0.23601 -0.00200
 C246 C 0.43265 0.23128 0.02495
 C247 C 0.46394 0.22976 0.02576
 C248 C 0.48119 0.23462 -0.00025
 C249 C 0.46580 0.24012 -0.02720
 C250 C 0.43447 0.24010 -0.02810
 C251 C 0.51485 0.23458 0.00080
 C252 C 0.53204 0.22959 -0.02520
 C253 C 0.56333 0.23104 -0.02444
 C254 C 0.57805 0.23583 0.00246
 C255 C 0.56164 0.24001 0.02856
 C256 C 0.53031 0.24010 0.02770
 H257 H 0.39374 0.23689 -0.00261
 H258 H 0.47442 0.22493 0.04686
 H259 H 0.47777 0.24491 -0.04758
 H260 H 0.52151 0.22468 -0.04625
 H261 H 0.60231 0.23663 0.00303
 H262 H 0.51840 0.24493 0.04808
 C263 C 0.58122 0.76532 0.00025
 C264 C 0.56529 0.76117 0.02667
 C265 C 0.53396 0.76103 0.02641
 C266 C 0.51802 0.76644 -0.00020
 C267 C 0.53471 0.77143 -0.02657
 C268 C 0.56602 0.77002 -0.02641
 C269 C 0.48437 0.76597 -0.00057
 C270 C 0.46856 0.75991 -0.02712
 C271 C 0.43724 0.75939 -0.02741
 C272 C 0.42120 0.76347 -0.00109
 C273 C 0.43627 0.76875 0.02553
 C274 C 0.46756 0.77082 0.02573
 H275 H 0.60548 0.76441 0.00037
 H276 H 0.52242 0.75611 0.04701
 H277 H 0.52375 0.77620 -0.04744
 H278 H 0.48021 0.75511 -0.04765
 H279 H 0.39695 0.76222 -0.00125
 H280 H 0.47840 0.77607 0.04654
 C281 C -0.00077 0.42040 0.23297
 C282 C 0.02663 0.43471 0.22876
 C283 C 0.02788 0.46579 0.22730
 C284 C 0.00184 0.48315 0.23185
 C285 C -0.02552 0.46801 0.23689
 C286 C -0.02684 0.43694 0.23668
 C287 C 0.00327 0.51659 0.23216
 C288 C -0.02281 0.53400 0.22819
 C289 C -0.02162 0.56503 0.23028
 C290 C 0.00574 0.57931 0.23449
 C291 C 0.03187 0.56274 0.23757
 C292 C 0.03063 0.53167 0.23719
 H293 H -0.00173 0.39632 0.23382
 H294 H 0.04933 0.47597 0.22282
 H295 H -0.04597 0.47990 0.24155
 H296 H -0.04426 0.52390 0.22361
 H297 H 0.00666 0.60337 0.23572
 H298 H 0.05113 0.51971 0.24134
 C299 C -0.00599 0.57896 0.76509
 C300 C 0.02110 0.56446 0.76981
 C301 C 0.02191 0.53340 0.77141
 C302 C -0.00424 0.51623 0.76654
 C303 C -0.03135 0.53153 0.76115
 C304 C -0.03222 0.56263 0.76113
 C305 C -0.00307 0.48280 0.76626
 C306 C -0.02923 0.46540 0.77044
 C307 C -0.02810 0.43433 0.76865
 C308 C -0.00075 0.42008 0.76437
 C309 C 0.02540 0.43668 0.76091
 C310 C 0.02422 0.46774 0.76109
 H311 H -0.00660 0.60304 0.76408
 H312 H 0.04314 0.52306 0.77628
 H313 H -0.05186 0.51972 0.75641
 H314 H -0.05064 0.47557 0.77494
 H315 H 0.00012 0.39601 0.76331
 H316 H 0.04473 0.47973 0.75667
 C317 C 0.38092 0.23382 0.09975
 C318 C 0.37992 0.21164 0.12158
 C319 C 0.36098 0.21473 0.14626
 C320 C 0.34278 0.24006 0.14937
 C321 C 0.34411 0.26221 0.12726
 C322 C 0.36301 0.25907 0.10270
 C323 C 0.40003 0.23105 0.07410
 C324 C 0.41535 0.23026 0.05200
 H325 H 0.39367 0.19196 0.11949
 H326 H 0.36048 0.19714 0.16268
 H327 H 0.33075 0.28213 0.12888
 H328 H 0.36365 0.27641 0.08595
 C329 C 0.61453 0.75009 0.10216
 C330 C 0.63637 0.72796 0.10278
 C331 C 0.65607 0.72593 0.12678
 C332 C 0.65438 0.74619 0.15069
 C333 C 0.63163 0.76792 0.15006
 C334 C 0.61198 0.76984 0.12597
 C335 C 0.59600 0.75353 0.07626
 C336 C 0.58145 0.75678 0.05396
 H337 H 0.63856 0.71256 0.08440
 H338 H 0.67280 0.70866 0.12605
 H339 H 0.62909 0.78392 0.16777
 H340 H 0.59514 0.78712 0.12569
 C341 C 0.61559 0.23240 -0.09891
 C342 C 0.61810 0.20900 -0.11921
 C343 C 0.63801 0.21123 -0.14324
 C344 C 0.65574 0.23686 -0.14713
 C345 C 0.65270 0.26034 -0.12674
 C346 C 0.63280 0.25809 -0.10285
 C347 C 0.59609 0.23018 -0.07347
 C348 C 0.58063 0.22973 -0.05146
 H349 H 0.60492 0.18897 -0.11632
 H350 H 0.63984 0.19265 -0.15836
 H351 H 0.66561 0.28056 -0.12916
 H352 H 0.63100 0.27636 -0.08728
 C353 C 0.38837 0.74873 -0.10317
 C354 C 0.36983 0.72390 -0.10643
 C355 C 0.35006 0.72211 -0.13041
 C356 C 0.34847 0.74526 -0.15146
 C357 C 0.36779 0.76981 -0.14835
 C358 C 0.38753 0.77154 -0.12433
 C359 C 0.40675 0.75174 -0.07713
 C360 C 0.42120 0.75486 -0.05475
 H361 H 0.37025 0.70614 -0.09013
 H362 H 0.33586 0.70272 -0.13217
 H363 H 0.36721 0.78812 -0.16393
 H364 H 0.40168 0.79096 -0.12192
 C365 C 0.10027 0.38151 0.23283
 C366 C 0.12302 0.38038 0.21141
 C367 C 0.14686 0.36052 0.21482
 C368 C 0.14821 0.34149 0.23972
 C369 C 0.12520 0.34296 0.26111
 C370 C 0.10147 0.36279 0.25766
 C371 C 0.07529 0.40140 0.22957
 C372 C 0.05355 0.41718 0.22830
 H373 H 0.12227 0.39471 0.19203
 H374 H 0.16398 0.35997 0.19779
 H375 H 0.12545 0.32895 0.28067
 H376 H 0.08397 0.36347 0.27439
 C377 C 0.09540 0.61721 0.76741
 C378 C 0.09620 0.63794 0.74425
 C379 C 0.12028 0.65756 0.74144
 C380 C 0.14421 0.65691 0.76187
 C381 C 0.14311 0.63575 0.78512
 C382 C 0.11890 0.61611 0.78783
 C383 C 0.07015 0.59743 0.76996
 C384 C 0.04822 0.58178 0.77074
 H385 H 0.07808 0.63900 0.72830
 H386 H 0.11979 0.67319 0.72318
 H387 H 0.16077 0.63415 0.80142
 H388 H 0.11850 0.60014 0.80589
 C389 C -0.09578 0.61763 0.23402
 C390 C -0.11904 0.61678 0.21332
 C391 C -0.14334 0.63616 0.21607
 C392 C -0.14479 0.65686 0.23966
 C393 C -0.12112 0.65726 0.26039
 C394 C -0.09693 0.63786 0.25753
 C395 C -0.07045 0.59810 0.23126
 C396 C -0.04858 0.58251 0.23006
 H397 H -0.11836 0.60121 0.19498
 H398 H -0.16076 0.63477 0.19951
 H399 H -0.12090 0.67255 0.27889
 H400 H -0.07899 0.63875 0.27369
 C401 C -0.10167 0.38061 0.76526
 C402 C -0.10309 0.36170 0.74068
 C403 C -0.12652 0.34130 0.73791
 C404 C -0.14913 0.33932 0.75982
 C405 C -0.14753 0.35881 0.78442
 C406 C -0.12398 0.37920 0.78708
 C407 C -0.07677 0.40078 0.76806
 C408 C -0.05506 0.41672 0.76914
 H409 H -0.08589 0.36256 0.72365
 H410 H -0.12651 0.32711 0.71856
 H411 H -0.16420 0.35840 0.80187
 H412 H -0.12308 0.39372 0.80626
 C413 C 0.24739 0.10557 0.39254
 C414 C 0.27375 0.11109 0.37661
 C415 C 0.27538 0.13498 0.35674
 C416 C 0.25054 0.15370 0.35235
 C417 C 0.22432 0.14828 0.36900
 C418 C 0.22277 0.12436 0.38888
 C419 C 0.24491 0.07946 0.41095
 C420 C 0.24244 0.05687 0.42522
 H421 H 0.29291 0.09658 0.37913
 H422 H 0.29604 0.13841 0.34463
 H423 H 0.20471 0.16204 0.36635
 H424 H 0.20215 0.12018 0.40094
 C425 C 0.75166 0.10610 0.60626
 C426 C 0.72535 0.11152 0.62226
 C427 C 0.72410 0.13489 0.64265
 C428 C 0.74923 0.15317 0.64743
 C429 C 0.77530 0.14811 0.63053
 C430 C 0.77650 0.12466 0.61017
 C431 C 0.75390 0.08005 0.58785
 C432 C 0.75611 0.05739 0.57376
 H433 H 0.70602 0.09723 0.61951
 H434 H 0.70353 0.13832 0.65489
 H435 H 0.79512 0.16157 0.63367
 H436 H 0.79708 0.12052 0.59807
 C437 C 0.24630 -0.10746 0.61347
 C438 C 0.22113 -0.12553 0.61779
 C439 C 0.22247 -0.14983 0.63718
 C440 C 0.24901 -0.15632 0.65269
 C441 C 0.27440 -0.13842 0.64757
 C442 C 0.27301 -0.11416 0.62815
 C443 C 0.24415 -0.08093 0.59564
 C444 C 0.24196 -0.05809 0.58175
 H445 H 0.20027 -0.12044 0.60669
 H446 H 0.20243 -0.16293 0.64058
 H447 H 0.29532 -0.14287 0.65874
 H448 H 0.29262 -0.10029 0.62504
 C449 C 0.75190 -0.10811 0.38684
 C450 C 0.77684 -0.12653 0.38335
 C451 C 0.77568 -0.15078 0.36395
 C452 C 0.74953 -0.15686 0.34762
 C453 C 0.72434 -0.13860 0.35188
 C454 C 0.72557 -0.11440 0.37130
 C455 C 0.75401 -0.08159 0.40461
 C456 C 0.75620 -0.05873 0.41840
 H457 H 0.79744 -0.12176 0.39508
 H458 H 0.79556 -0.16415 0.36120
 H459 H 0.70372 -0.14271 0.34003
 H460 H 0.70614 -0.10024 0.37373
 C461 C 0.61716 0.76729 -0.10162
 C462 C 0.63526 0.74213 -0.10432
 C463 C 0.65486 0.73932 -0.12837
 C464 C 0.65675 0.76169 -0.15020
 C465 C 0.63813 0.78678 -0.14753
 C466 C 0.61850 0.78956 -0.12335
 C467 C 0.59795 0.77010 -0.07602
 C468 C 0.58282 0.77096 -0.05378
 H469 H 0.63437 0.72472 -0.08766
 H470 H 0.66848 0.71954 -0.12974
 H471 H 0.63902 0.80451 -0.16378
 H472 H 0.60461 0.80916 -0.12146
 C473 C 0.38674 0.24935 -0.10486
 C474 C 0.38372 0.22502 -0.12394
 C475 C 0.36431 0.22649 -0.14823
 C476 C 0.34749 0.25234 -0.15375
 C477 C 0.35128 0.27693 -0.13479
 C478 C 0.37072 0.27540 -0.11051
 C479 C 0.40473 0.24684 -0.07845
 C480 C 0.41885 0.24413 -0.05579
 H481 H 0.39589 0.20467 -0.11968
 H482 H 0.36202 0.20706 -0.16215
 H483 H 0.33905 0.29731 -0.13843
 H484 H 0.37283 0.29436 -0.09583
 C485 C 0.38471 0.76741 0.10051
 C486 C 0.36991 0.74061 0.10639
 C487 C 0.34995 0.73842 0.13026
 C488 C 0.34441 0.76307 0.14865
 C489 C 0.35973 0.78985 0.14281
 C490 C 0.37970 0.79200 0.11883
 C491 C 0.40405 0.76956 0.07493
 C492 C 0.41933 0.77002 0.05279
 H493 H 0.37359 0.72143 0.09232
 H494 H 0.33891 0.71736 0.13419
 H495 H 0.35593 0.80934 0.15633
 H496 H 0.39092 0.81291 0.11439
 C497 C 0.61009 0.24906 0.10487
 C498 C 0.61298 0.22477 0.12409
 C499 C 0.63279 0.22608 0.14808
 C500 C 0.65014 0.25173 0.15316
 C501 C 0.64650 0.27630 0.13407
 C502 C 0.62667 0.27492 0.11008
 C503 C 0.59175 0.24666 0.07870
 C504 C 0.57740 0.24401 0.05618
 H505 H 0.60040 0.20456 0.12016
 H506 H 0.63492 0.20668 0.16211
 H507 H 0.65915 0.29653 0.13734
 H508 H 0.62469 0.29383 0.09528
 C509 C -0.10715 0.61288 0.75052
 C510 C -0.10530 0.63656 0.73047
 C511 C -0.12800 0.65777 0.72934
 C512 C -0.15307 0.65583 0.74845
 C513 C -0.15512 0.63116 0.76783
 C514 C -0.13226 0.60999 0.76892
 C515 C -0.08202 0.59325 0.75377
 C516 C -0.05986 0.57837 0.75686
 H517 H -0.08588 0.63906 0.71618
 H518 H -0.12531 0.67587 0.71375
 H519 H -0.17387 0.62837 0.78282
 H520 H -0.13384 0.59178 0.78465
 C521 C -0.10448 0.39005 0.24622
 C522 C -0.10938 0.37366 0.27224
 C523 C -0.13371 0.35421 0.27423
 C524 C -0.15347 0.35082 0.25014
 C525 C -0.14885 0.36807 0.22437
 C526 C -0.12444 0.38748 0.22242
 C527 C -0.07786 0.40783 0.24325
 C528 C -0.05491 0.42168 0.24049
 H529 H -0.09403 0.37544 0.29078
 H530 H -0.13677 0.34165 0.29455
 H531 H -0.16347 0.36595 0.20535
 H532 H -0.12074 0.39995 0.20210
 C533 C 0.10310 0.39025 0.75139
 C534 C 0.12309 0.38785 0.77518
 C535 C 0.14756 0.36863 0.77329
 C536 C 0.15224 0.35141 0.74758
 C537 C 0.13246 0.35467 0.72348
 C538 C 0.10806 0.37391 0.72541
 C539 C 0.07642 0.40781 0.75432
 C540 C 0.05345 0.42151 0.75708
 H541 H 0.11935 0.40029 0.79547
 H542 H 0.16218 0.36663 0.79232
 H543 H 0.13556 0.34214 0.70319
 H544 H 0.09270 0.37558 0.70687
 C545 C 0.10908 0.61027 0.24644
 C546 C 0.11496 0.62500 0.27316
 C547 C 0.13871 0.64515 0.27495
 C548 C 0.15686 0.65094 0.24996
 C549 C 0.15137 0.63526 0.22345
 C550 C 0.12755 0.61514 0.22170
 C551 C 0.08274 0.59209 0.24376
 C552 C 0.05991 0.57805 0.24119
 H553 H 0.10076 0.62144 0.29243
 H554 H 0.14253 0.65644 0.29583
 H555 H 0.16475 0.63922 0.20374
 H556 H 0.12305 0.60400 0.20083
 C557 C 0.76486 -0.09659 0.61549
 C558 C 0.73911 -0.10014 0.63289
 C559 C 0.73699 -0.12354 0.65322
 C560 C 0.76068 -0.14382 0.65651
 C561 C 0.78641 -0.14020 0.63864
 C562 C 0.78847 -0.11672 0.61829
 C563 C 0.76706 -0.07170 0.59551
 C564 C 0.76777 -0.05017 0.57957
 H565 H 0.72072 -0.08461 0.63094
 H566 H 0.71688 -0.12537 0.66652
 H567 H 0.80506 -0.15536 0.64030
 H568 H 0.80853 -0.11415 0.60493
 C569 C 0.23371 -0.09736 0.38544
 C570 C 0.25986 -0.10057 0.36860
 C571 C 0.26269 -0.12404 0.34856
 C572 C 0.23934 -0.14472 0.34501
 C573 C 0.21323 -0.14154 0.36234
 C574 C 0.21043 -0.11795 0.38240
 C575 C 0.23088 -0.07237 0.40511
 C576 C 0.22992 -0.05070 0.42076
 H577 H 0.27804 -0.08476 0.37082
 H578 H 0.28325 -0.12592 0.33594
 H579 H 0.19472 -0.15690 0.36010
 H580 H 0.19004 -0.11562 0.39527
 C581 C 0.76462 0.09649 0.37831
 C582 C 0.78845 0.11644 0.37509
 C583 C 0.78580 0.14088 0.35601
 C584 C 0.75925 0.14560 0.33984
 C585 C 0.73540 0.12546 0.34346
 C586 C 0.73810 0.10112 0.36255
 C587 C 0.76717 0.07094 0.39738
 C588 C 0.76805 0.04905 0.41281
 H589 H 0.80912 0.11302 0.38716
 H590 H 0.80471 0.15575 0.35367
 H591 H 0.71453 0.12847 0.33172
 H592 H 0.71949 0.08581 0.36493
 C593 C 0.23463 0.09746 0.62049
 C594 C 0.21090 0.11746 0.62341
 C595 C 0.21360 0.14202 0.64226
 C596 C 0.24009 0.14683 0.65851
 C597 C 0.26386 0.12666 0.65518
 C598 C 0.26111 0.10218 0.63632
 C599 C 0.23199 0.07177 0.60168
 C600 C 0.23096 0.04979 0.58645
 H601 H 0.19027 0.11398 0.61129
 H602 H 0.19476 0.15691 0.64437
 H603 H 0.28469 0.12972 0.66699
 H604 H 0.27965 0.08685 0.63417
   
