data_POSCAR
  _audit_creation_date              2014-09-24
  _audit_creation_method            'ToBaCCo'
  _symmetry_space_group_name_H-M    'P1'
  _symmetry_Int_Tables_number       1
  _symmetry_cell_setting            triclinic
  loop_
  _symmetry_equiv_pos_as_xyz
 x,y,z
_cell_length_a 57.6522
_cell_length_b 57.6014
_cell_length_c 23.7682
_cell_angle_alpha 89.744100
_cell_angle_beta 90.310600
_cell_angle_gamma 120.801900
loop_
  _atom_site_label
  _atom_site_type_symbol
  _atom_site_fract_x
  _atom_site_fract_y
  _atom_site_fract_z
C1 C 0.17760 0.45591 0.46897
 C2 C 0.18001 0.45909 0.52620
 C3 C 0.19558 0.44844 0.54430
 N4 N 0.20278 0.43889 0.50001
 C5 C 0.19166 0.44331 0.45393
 C6 C 0.20268 0.44735 0.60102
 C7 C 0.22506 0.44448 0.61491
 C8 C 0.22990 0.43715 0.66737
 C9 C 0.25494 0.43981 0.66522
 C10 C 0.26452 0.44781 0.61079
 N11 N 0.24606 0.45056 0.58051
 C12 C 0.29091 0.45574 0.59180
 C13 C 0.29717 0.45816 0.53365
 C14 C 0.32279 0.46899 0.51066
 C15 C 0.31939 0.46477 0.45386
 C16 C 0.29181 0.45058 0.44386
 N17 N 0.27832 0.44669 0.49259
 C18 C 0.27933 0.43967 0.39139
 C19 C 0.25169 0.43032 0.38166
 C20 C 0.23673 0.41503 0.33586
 C21 C 0.21222 0.41379 0.33788
 C22 C 0.21290 0.42820 0.38505
 N23 N 0.23684 0.43789 0.41179
 C24 C 0.19341 0.43514 0.39888
 H25 H 0.16705 0.46258 0.44167
 H26 H 0.17174 0.46870 0.55148
 H27 H 0.24406 0.45229 0.44367
 H28 H 0.21704 0.43117 0.70406
 H29 H 0.26495 0.43683 0.70066
 H30 H 0.34212 0.47853 0.53178
 H31 H 0.33556 0.47117 0.42376
 H32 H 0.19609 0.40414 0.30724
 H33 H 0.24911 0.45949 0.54096
 H34 H 0.24314 0.40648 0.30331
 C35 C 0.53166 -0.28671 0.48636
 C36 C 0.53535 -0.28517 0.54342
 C37 C 0.54616 -0.25826 0.55803
 N38 N 0.54901 -0.24330 0.51157
 C39 C 0.54035 -0.26070 0.46756
 C40 C 0.55349 -0.24799 0.61361
 C41 C 0.55687 -0.22269 0.62921
 C42 C 0.56991 -0.20842 0.67762
 C43 C 0.56735 -0.18598 0.67887
 C44 C 0.55316 -0.18693 0.63088
 N45 N 0.54687 -0.20932 0.60076
 C46 C 0.54521 -0.16809 0.61749
 C47 C 0.53686 -0.16564 0.56300
 C48 C 0.52553 -0.15016 0.54920
 C49 C 0.52278 -0.15116 0.49179
 C50 C 0.53246 -0.16729 0.47255
 N51 N 0.54105 -0.17613 0.51609
 C52 C 0.53534 -0.17179 0.41544
 C53 C 0.54104 -0.19169 0.39766
 C54 C 0.54975 -0.19307 0.34423
 C55 C 0.55124 -0.21611 0.34273
 C56 C 0.54319 -0.22830 0.39520
 N57 N 0.53719 -0.21316 0.42861
 C58 C 0.54048 -0.25338 0.41038
 H59 H 0.52304 -0.30505 0.46171
 H60 H 0.53009 -0.30209 0.57118
 H61 H 0.52816 -0.21878 0.46802
 H62 H 0.58016 -0.21365 0.70896
 H63 H 0.57511 -0.17067 0.71134
 H64 H 0.52010 -0.13903 0.57745
 H65 H 0.51484 -0.14097 0.46700
 H66 H 0.55752 -0.22312 0.30698
 H67 H 0.53402 -0.21658 0.56607
 H68 H 0.55446 -0.17900 0.30980
 C69 C 1.24682 0.85190 0.52662
 C70 C 1.24527 0.85203 0.46908
 C71 C 1.23761 0.82615 0.45143
 N72 N 1.23385 0.81004 0.49621
 C73 C 1.23989 0.82590 0.54215
 C74 C 1.23691 0.81827 0.39484
 C75 C 1.22084 0.79063 0.37956
 C76 C 1.22386 0.77896 0.33125
 C77 C 1.20379 0.75225 0.33184
 C78 C 1.18958 0.74801 0.38140
 N79 N 1.19998 0.77149 0.41014
 C80 C 1.16706 0.72310 0.39795
 C81 C 1.15810 0.71714 0.45410
 C82 C 1.13540 0.69347 0.47157
 C83 C 1.13649 0.69322 0.52914
 C84 C 1.15984 0.71683 0.54521
 N85 N 1.17295 0.73138 0.49905
 C86 C 1.17126 0.72238 0.60000
 C87 C 1.19501 0.74718 0.61363
 C88 C 1.21096 0.75176 0.66106
 C89 C 1.23096 0.77851 0.66000
 C90 C 1.22627 0.78996 0.61306
 N91 N 1.20441 0.77067 0.58489
 C92 C 1.24156 0.81766 0.59743
 H93 H 1.25275 0.86903 0.55398
 H94 H 1.24984 0.86931 0.44301
 H95 H 1.19497 0.77401 0.55094
 H96 H 1.23913 0.78841 0.29908
 H97 H 1.20045 0.73760 0.29973
 H98 H 1.12033 0.67737 0.44558
 H99 H 1.12240 0.67669 0.55554
 H100 H 1.24711 0.78823 0.69055
 H101 H 1.19194 0.77476 0.44636
 H102 H 1.20861 0.73751 0.69348
 C103 C 0.84069 0.50960 0.55004
 C104 C 0.84011 0.50786 0.49254
 C105 C 0.82507 0.51890 0.47354
 N106 N 0.81667 0.52759 0.51736
 C107 C 0.82639 0.52211 0.56429
 C108 C 0.82057 0.52210 0.41636
 C109 C 0.80078 0.52803 0.39839
 C110 C 0.79869 0.53595 0.34435
 C111 C 0.77553 0.53727 0.34282
 C112 C 0.76416 0.53016 0.39601
 N113 N 0.77971 0.52461 0.42962
 C114 C 0.73887 0.52673 0.41075
 C115 C 0.72995 0.52425 0.46691
 C116 C 0.70384 0.51646 0.48255
 C117 C 0.70362 0.51691 0.54026
 C118 C 0.72974 0.52539 0.55801
 N119 N 0.74581 0.52987 0.51303
 C120 C 0.73862 0.52916 0.61476
 C121 C 0.76486 0.53501 0.62969
 C122 C 0.77849 0.54882 0.67792
 C123 C 0.80244 0.54917 0.67892
 C124 C 0.80264 0.53514 0.63177
 N125 N 0.77983 0.52702 0.60125
 C126 C 0.82294 0.52894 0.61961
 H127 H 0.85035 0.50221 0.57806
 H128 H 0.84943 0.49920 0.46757
 H129 H 0.77337 0.51406 0.56677
 H130 H 0.81217 0.53988 0.30937
 H131 H 0.76770 0.54242 0.30640
 H132 H 0.68665 0.51068 0.45524
 H133 H 0.68612 0.51135 0.56604
 H134 H 0.81788 0.55856 0.71103
 H135 H 0.77453 0.51580 0.46930
 H136 H 0.77186 0.55783 0.70902
 C137 C 0.46454 0.31973 0.48398
 C138 C 0.46157 0.31901 0.54099
 C139 C 0.45548 0.29347 0.55880
 N140 N 0.45376 0.27835 0.51386
 C141 C 0.45993 0.29458 0.46826
 C142 C 0.44993 0.28416 0.61537
 C143 C 0.44167 0.25712 0.63076
 C144 C 0.42875 0.24446 0.68042
 C145 C 0.42640 0.21951 0.68095
 C146 C 0.43901 0.21780 0.63287
 N147 N 0.44786 0.24067 0.60209
 C148 C 0.44369 0.19630 0.62074
 C149 C 0.45152 0.19267 0.56625
 C150 C 0.46259 0.17675 0.55428
 C151 C 0.46699 0.17840 0.49743
 C152 C 0.45902 0.19568 0.47636
 N153 N 0.44945 0.20431 0.51834
 C154 C 0.46020 0.20267 0.41890
 C155 C 0.45666 0.22384 0.39942
 C156 C 0.45349 0.22856 0.34340
 C157 C 0.45394 0.25265 0.34148
 C158 C 0.45718 0.26185 0.39640
 N159 N 0.45879 0.24416 0.43138
 C160 C 0.46103 0.28716 0.41217
 H161 H 0.46919 0.33680 0.45716
 H162 H 0.46306 0.33536 0.56600
 H163 H 0.46480 0.24754 0.47320
 H164 H 0.42183 0.25215 0.71362
 H165 H 0.41705 0.20461 0.71404
 H166 H 0.46763 0.16553 0.58351
 H167 H 0.47562 0.16848 0.47441
 H168 H 0.45261 0.26253 0.30380
 H169 H 0.46068 0.24626 0.56770
 H170 H 0.45179 0.21631 0.30744
 C171 C 0.68289 0.15230 0.42335
 C172 C 0.67847 0.15542 0.47869
 C173 C 0.70365 0.17182 0.50272
 N174 N 0.72329 0.17870 0.46424
 C175 C 0.71065 0.16672 0.41564
 C176 C 0.70838 0.17825 0.56034
 C177 C 0.73359 0.19878 0.58110
 C178 C 0.74155 0.20172 0.63698
 C179 C 0.76660 0.22476 0.64012
 C180 C 0.77311 0.23546 0.58611
 N181 N 0.75293 0.21936 0.55031
 C182 C 0.79683 0.25995 0.57115
 C183 C 0.80599 0.26546 0.51470
 C184 C 0.82433 0.29085 0.49355
 C185 C 0.82885 0.28725 0.43865
 C186 C 0.81303 0.25982 0.42781
 N187 N 0.79891 0.24650 0.47427
 C188 C 0.81294 0.24730 0.37666
 C189 C 0.79187 0.22107 0.36220
 C190 C 0.79249 0.20561 0.31830
 C191 C 0.76710 0.18291 0.31483
 C192 C 0.75179 0.18511 0.35693
 N193 N 0.76703 0.20838 0.38558
 C194 C 0.72398 0.16693 0.36573
 H195 H 0.66740 0.14050 0.39256
 H196 H 0.65899 0.14648 0.49904
 H197 H 0.75999 0.21673 0.41471
 H198 H 0.73051 0.18859 0.67185
 H199 H 0.77867 0.23265 0.67792
 H200 H 0.83337 0.31002 0.51528
 H201 H 0.84211 0.30311 0.40987
 H202 H 0.76055 0.16680 0.28439
 H203 H 0.75126 0.22370 0.50840
 H204 H 0.80932 0.21041 0.29093
 O205 O 0.98325 0.48685 -0.10869
 O206 O 1.01523 0.51584 0.08423
 O207 O 0.93426 0.45075 0.03144
 O208 O 1.05483 0.52999 -0.04170
 O209 O 0.96872 0.48427 0.07213
 O210 O 1.03178 0.50492 -0.11391
 O211 O 1.05384 0.52160 0.06303
 O212 O 0.96579 0.49014 -0.03024
 C213 C 0.97136 0.49649 -0.08106
 C214 C 1.04013 0.53017 0.08531
 C215 C 0.94350 0.46751 0.07319
 C216 C 1.04816 0.52772 -0.09248
 O217 O 1.02268 0.45428 -0.08948
 O218 O 0.97760 0.44269 0.09398
 O219 O 0.94533 0.44295 -0.07032
 O220 O 1.05227 0.47659 0.04321
 O221 O 1.02573 0.47564 0.11000
 O222 O 0.97681 0.43637 -0.08694
 O223 O 1.05902 0.48822 -0.05960
 O224 O 0.96054 0.42720 0.01308
 Co225 Co 1.00363 0.47116 -0.09267
 Co226 Co 0.99751 0.47929 0.08190
 Co227 Co 0.96481 0.45951 -0.00642
 Co228 Co 1.05021 0.50154 0.00064
 O229 O 1.00580 0.47811 -0.00627
 C230 C 1.04751 0.46663 -0.08620
 C231 C 0.96381 0.42281 0.06268
 C232 C 0.95330 0.43018 -0.09768
 C233 C 1.04396 0.47122 0.09281
 O234 O 0.53256 0.50637 -0.10768
 O235 O 0.49902 0.52064 0.12498
 O236 O 0.50399 0.47338 0.05177
 O237 O 0.47441 0.51847 -0.05058
 O238 O 0.52464 0.49806 0.12186
 O239 O 0.50753 0.53068 -0.11046
 O240 O 0.47180 0.50781 0.05345
 O241 O 0.50869 0.47548 -0.04831
 C242 C 0.51541 0.48216 -0.09766
 C243 C 0.47546 0.50676 0.10470
 C244 C 0.50771 0.47540 0.10309
 C245 C 0.48283 0.52095 -0.09984
 O246 O 0.54905 0.57448 -0.07057
 O247 O 0.56844 0.54368 0.08323
 O248 O 0.56339 0.50772 -0.03861
 O249 O 0.50564 0.55985 0.07337
 O250 O 0.54488 0.56747 0.09239
 O251 O 0.57391 0.54873 -0.05597
 O252 O 0.51230 0.56861 -0.02993
 O253 O 0.55933 0.50395 0.06252
 Co254 Co 0.53955 0.53863 -0.07666
 Co255 Co 0.53339 0.53183 0.09764
 Co256 Co 0.53316 0.49310 0.00740
 Co257 Co 0.49430 0.53727 0.01192
 O258 O 0.52501 0.52540 0.00950
 C259 C 0.53352 0.58291 -0.05832
 C260 C 0.57573 0.52689 0.08169
 C261 C 0.58048 0.53131 -0.05490
 C262 C 0.52851 0.57515 0.09372
 O263 O 0.51982 0.03609 -0.08677
 O264 O 0.49278 -0.01805 0.10314
 O265 O 0.52993 0.04355 0.00964
 O266 O 0.46683 -0.04885 -0.05098
 O267 O 0.51656 0.03241 0.09462
 O268 O 0.50335 -0.01272 -0.08089
 O269 O 0.46131 -0.05171 0.05250
 O270 O 0.51965 0.07145 -0.05425
 C271 C 0.52742 0.06098 -0.09341
 C272 C 0.48002 -0.04267 0.08944
 C273 C 0.53538 0.04260 0.05976
 C274 C 0.49027 -0.03776 -0.07228
 O275 O 0.45636 -0.02402 -0.11848
 O276 O 0.46742 0.02786 0.09478
 O277 O 0.46956 0.04427 -0.03241
 O278 O 0.42175 -0.03999 0.04228
 O279 O 0.44756 -0.02030 0.11309
 O280 O 0.46865 0.02391 -0.10867
 O281 O 0.42750 -0.03411 -0.05569
 O282 O 0.49970 0.06111 0.05145
 Co283 Co 0.48594 0.00568 -0.08927
 Co284 Co 0.48097 0.00567 0.09195
 Co285 Co 0.49856 0.04205 -0.01157
 Co286 Co 0.44713 -0.03989 -0.00363
 O287 O 0.47656 0.00180 0.00119
 C288 C 0.43242 -0.03339 -0.10593
 C289 C 0.48104 0.05258 0.08667
 C290 C 0.46160 0.03802 -0.08184
 C291 C 0.42453 -0.03481 0.09323
 C292 C 1.17197 0.45310 0.26234
 C293 C 1.14395 0.44241 0.27007
 C294 C 1.13222 0.42830 0.32080
 C295 C 1.14792 0.42435 0.36089
 C296 C 1.17584 0.43589 0.35331
 C297 C 1.18756 0.45012 0.30356
 C298 C 1.10510 0.41899 0.33207
 C299 C 1.08964 0.42451 0.29534
 C300 C 1.10048 0.43872 0.24456
 C301 C 1.12756 0.44630 0.23025
 C302 C 1.13734 0.45741 0.17652
 C303 C 1.12193 0.46259 0.13936
 C304 C 1.09641 0.45748 0.15457
 C305 C 1.08521 0.44555 0.20733
 C306 C 1.05958 0.44182 0.22108
 C307 C 1.04600 0.44988 0.18401
 C308 C 1.05724 0.46143 0.13184
 C309 C 1.08230 0.46475 0.11729
 H310 H 1.18276 0.46507 0.22624
 H311 H 1.13868 0.41332 0.39934
 H312 H 1.20914 0.45968 0.29717
 H313 H 1.09592 0.40803 0.37059
 H314 H 1.06898 0.41690 0.30744
 H315 H 1.15677 0.46184 0.16133
 H316 H 1.13035 0.47125 0.09861
 H317 H 1.04991 0.43357 0.26087
 H318 H 1.02671 0.44718 0.19638
 H319 H 1.09142 0.47397 0.07730
 C320 C 0.51655 0.70373 0.28111
 C321 C 0.53188 0.69085 0.28241
 C322 C 0.55134 0.69831 0.32593
 C323 C 0.55392 0.71649 0.36807
 C324 C 0.53803 0.72852 0.36723
 C325 C 0.51976 0.72232 0.32249
 C326 C 0.56815 0.68754 0.32745
 C327 C 0.56622 0.66950 0.28663
 C328 C 0.54674 0.66083 0.24319
 C329 C 0.52866 0.67095 0.24213
 C330 C 0.50743 0.66011 0.20224
 C331 C 0.50380 0.63991 0.16507
 C332 C 0.52165 0.63034 0.16472
 C333 C 0.54399 0.64144 0.20226
 C334 C 0.56261 0.63250 0.19747
 C335 C 0.55801 0.61191 0.16036
 C336 C 0.53477 0.59946 0.12659
 C337 C 0.51700 0.60929 0.12783
 H338 H 0.50215 0.70017 0.24827
 H339 H 0.56887 0.72182 0.40111
 H340 H 0.50720 0.73127 0.32041
 H341 H 0.58306 0.69316 0.36065
 H342 H 0.57966 0.66184 0.29174
 H343 H 0.49250 0.66603 0.20019
 H344 H 0.48675 0.63165 0.13634
 H345 H 0.58104 0.64106 0.22163
 H346 H 0.57243 0.60517 0.15947
 H347 H 0.49928 0.60021 0.10091
 C348 C 0.26511 -0.14543 0.25819
 C349 C 0.29219 -0.12656 0.27300
 C350 C 0.29932 -0.12445 0.33065
 C351 C 0.28088 -0.14229 0.37036
 C352 C 0.25448 -0.16219 0.35481
 C353 C 0.24665 -0.16272 0.29845
 C354 C 0.32514 -0.10508 0.34851
 C355 C 0.34441 -0.08792 0.31027
 C356 C 0.33887 -0.09004 0.25197
 C357 C 0.31252 -0.11006 0.23282
 C358 C 0.30788 -0.11389 0.17424
 C359 C 0.32849 -0.09929 0.13575
 C360 C 0.35424 -0.07962 0.15387
 C361 C 0.35937 -0.07385 0.21210
 C362 C 0.38510 -0.05238 0.22818
 C363 C 0.40558 -0.03919 0.18888
 C364 C 0.40122 -0.04660 0.13202
 C365 C 0.37516 -0.06618 0.11434
 H366 H 0.25750 -0.14717 0.21595
 H367 H 0.28778 -0.14150 0.41323
 H368 H 0.22607 -0.17669 0.28523
 H369 H 0.33064 -0.10330 0.39266
 H370 H 0.36399 -0.07407 0.32775
 H371 H 0.28879 -0.12907 0.15679
 H372 H 0.32428 -0.10365 0.09131
 H373 H 0.39015 -0.04524 0.27085
 H374 H 0.42522 -0.02346 0.20361
 H375 H 0.37136 -0.07160 0.07021
 C376 C 0.88208 0.53403 0.33561
 C377 C 0.87119 0.51227 0.29684
 C378 C 0.84278 0.49438 0.29692
 C379 C 0.82634 0.49807 0.33490
 C380 C 0.83768 0.51933 0.37357
 C381 C 0.86554 0.53736 0.37327
 C382 C 0.83093 0.47269 0.25966
 C383 C 0.84658 0.46796 0.22257
 C384 C 0.87497 0.48482 0.22119
 C385 C 0.88745 0.50749 0.25865
 C386 C 0.91581 0.52450 0.25701
 C387 C 0.93151 0.51954 0.22073
 C388 C 0.91975 0.49749 0.18443
 C389 C 0.89135 0.47977 0.18377
 C390 C 0.88069 0.45771 0.14571
 C391 C 0.89756 0.45368 0.11012
 C392 C 0.92553 0.47136 0.11120
 C393 C 0.93645 0.49317 0.14865
 H394 H 0.90330 0.54875 0.33859
 H395 H 0.80470 0.48407 0.33532
 H396 H 0.87457 0.55397 0.40291
 H397 H 0.80923 0.45905 0.25940
 H398 H 0.83567 0.45070 0.19552
 H399 H 0.92673 0.54198 0.28345
 H400 H 0.95321 0.53317 0.22121
 H401 H 0.85944 0.44315 0.14225
 H402 H 0.88863 0.43662 0.08162
 H403 H 0.95811 0.50702 0.14980
 C404 C 0.50419 0.35141 0.33206
 C405 C 0.48491 0.35468 0.30150
 C406 C 0.45778 0.33288 0.30112
 C407 C 0.44997 0.31008 0.33540
 C408 C 0.46916 0.30831 0.36848
 C409 C 0.49632 0.32856 0.36500
 C410 C 0.43860 0.33430 0.26760
 C411 C 0.44575 0.35693 0.23432
 C412 C 0.47223 0.37962 0.23539
 C413 C 0.49174 0.37886 0.27156
 C414 C 0.51708 0.40265 0.27872
 C415 C 0.52359 0.42617 0.25002
 C416 C 0.50553 0.42672 0.21168
 C417 C 0.47977 0.40338 0.20273
 C418 C 0.46302 0.40474 0.16046
 C419 C 0.47176 0.42827 0.12857
 C420 C 0.49696 0.45125 0.13902
 C421 C 0.51350 0.45047 0.18125
 H422 H 0.52550 0.36610 0.33120
 H423 H 0.42896 0.29412 0.33771
 H424 H 0.51137 0.32713 0.38983
 H425 H 0.41784 0.31769 0.26689
 H426 H 0.42975 0.35653 0.20989
 H427 H 0.53206 0.40405 0.30808
 H428 H 0.54322 0.44404 0.25723
 H429 H 0.44359 0.38765 0.14953
 H430 H 0.45890 0.42846 0.09539
 H431 H 0.53335 0.46806 0.18846
 C432 C 0.67409 0.10099 0.29665
 C433 C 0.66742 0.10986 0.24675
 C434 C 0.68380 0.13753 0.23190
 C435 C 0.70371 0.15589 0.26917
 C436 C 0.70778 0.14707 0.32120
 C437 C 0.69390 0.11940 0.33328
 C438 C 0.67928 0.14697 0.18137
 C439 C 0.65783 0.12996 0.14656
 C440 C 0.63941 0.10289 0.16196
 C441 C 0.64439 0.09262 0.21275
 C442 C 0.62513 0.06613 0.23007
 C443 C 0.60104 0.05084 0.20107
 C444 C 0.59551 0.06089 0.15268
 C445 C 0.61518 0.08635 0.13047
 C446 C 0.60913 0.09455 0.07881
 C447 C 0.58366 0.07937 0.05379
 C448 C 0.56355 0.05572 0.07947
 C449 C 0.56991 0.04604 0.12764
 H450 H 0.66401 0.08009 0.30931
 H451 H 0.71488 0.17730 0.25933
 H452 H 0.69744 0.11220 0.37275
 H453 H 0.69205 0.16798 0.16929
 H454 H 0.65534 0.13916 0.10926
 H455 H 0.62730 0.05708 0.26794
 H456 H 0.58627 0.03114 0.21755
 H457 H 0.62344 0.11277 0.05714
 H458 H 0.57926 0.08690 0.01580
 H459 H 0.55453 0.02731 0.14676
 C460 C 0.45252 0.17129 -0.23985
 C461 C 0.43948 0.14303 -0.24827
 C462 C 0.42709 0.13280 -0.30126
 C463 C 0.42763 0.15027 -0.34340
 C464 C 0.44129 0.17840 -0.33508
 C465 C 0.45348 0.18852 -0.28247
 C466 C 0.41477 0.10522 -0.31251
 C467 C 0.41594 0.08772 -0.27372
 C468 C 0.42907 0.09709 -0.22131
 C469 C 0.43945 0.12482 -0.20699
 C470 C 0.44977 0.13346 -0.15218
 C471 C 0.45230 0.11639 -0.11450
 C472 C 0.44507 0.09022 -0.13011
 C473 C 0.43286 0.07992 -0.18328
 C474 C 0.42660 0.05345 -0.19749
 C475 C 0.43412 0.03890 -0.16230
 C476 C 0.44740 0.04984 -0.11122
 C477 C 0.45151 0.07491 -0.09407
 H478 H 0.46322 0.18093 -0.20167
 H479 H 0.41758 0.14193 -0.38327
 H480 H 0.46487 0.21010 -0.27484
 H481 H 0.40482 0.09717 -0.35255
 H482 H 0.40621 0.06682 -0.28605
 H483 H 0.45614 0.15346 -0.13703
 H484 H 0.46107 0.12418 -0.07343
 H485 H 0.41749 0.04405 -0.23702
 H486 H 0.43073 0.01954 -0.17643
 H487 H 0.46202 0.08365 -0.05482
 C488 C 0.70005 0.50952 -0.25100
 C489 C 0.68762 0.52525 -0.25196
 C490 C 0.69362 0.54335 -0.29769
 C491 C 0.70953 0.54381 -0.34275
 C492 C 0.72134 0.52774 -0.34163
 C493 C 0.71695 0.51117 -0.29457
 C494 C 0.68398 0.56113 -0.29795
 C495 C 0.66877 0.56165 -0.25340
 C496 C 0.66146 0.54335 -0.20796
 C497 C 0.66982 0.52392 -0.20874
 C498 C 0.65916 0.50314 -0.16784
 C499 C 0.64059 0.50121 -0.12811
 C500 C 0.63305 0.52065 -0.12564
 C501 C 0.64464 0.54283 -0.16352
 C502 C 0.63865 0.56348 -0.15578
 C503 C 0.61947 0.56059 -0.11664
 C504 C 0.60548 0.53701 -0.08412
 C505 C 0.61325 0.51762 -0.08699
 H506 H 0.69779 0.49644 -0.21625
 H507 H 0.71374 0.55761 -0.37764
 H508 H 0.72623 0.49890 -0.29211
 H509 H 0.68850 0.57506 -0.33269
 H510 H 0.66180 0.57574 -0.25715
 H511 H 0.66362 0.48710 -0.16757
 H512 H 0.63200 0.48426 -0.09913
 H513 H 0.64839 0.58205 -0.17963
 H514 H 0.61452 0.57635 -0.11428
 H515 H 0.60308 0.49962 -0.06098
 C516 C 0.81481 0.30579 -0.30474
 C517 C 0.84331 0.31841 -0.30284
 C518 C 0.85574 0.31007 -0.34277
 C519 C 0.84032 0.29093 -0.38407
 C520 C 0.81214 0.27904 -0.38637
 C521 C 0.79960 0.28644 -0.34557
 C522 C 0.88357 0.32086 -0.34153
 C523 C 0.89952 0.33969 -0.30117
 C524 C 0.88828 0.34894 -0.26068
 C525 C 0.85984 0.33877 -0.26263
 C526 C 0.84901 0.34976 -0.22526
 C527 C 0.86527 0.36975 -0.18691
 C528 C 0.89283 0.37917 -0.18317
 C529 C 0.90467 0.36851 -0.21915
 C530 C 0.93246 0.37780 -0.21167
 C531 C 0.94786 0.39747 -0.17180
 C532 C 0.93627 0.40865 -0.13803
 C533 C 0.90867 0.39928 -0.14360
 H534 H 0.80354 0.31017 -0.27498
 H535 H 0.85029 0.28474 -0.41392
 H536 H 0.77791 0.27779 -0.34616
 H537 H 0.89318 0.31462 -0.37213
 H538 H 0.92084 0.34719 -0.30394
 H539 H 0.82802 0.34386 -0.22554
 H540 H 0.85610 0.37782 -0.15961
 H541 H 0.94292 0.37004 -0.23527
 H542 H 0.96910 0.40411 -0.16772
 H543 H 0.89948 0.40758 -0.11697
 C544 C 0.56239 -0.10367 -0.30617
 C545 C 0.54409 -0.11332 -0.26043
 C546 C 0.52787 -0.14174 -0.25316
 C547 C 0.52928 -0.15946 -0.29156
 C548 C 0.54642 -0.14942 -0.33806
 C549 C 0.56341 -0.12150 -0.34425
 C550 C 0.50969 -0.15239 -0.20869
 C551 C 0.50598 -0.13561 -0.17288
 C552 C 0.52035 -0.10727 -0.18024
 C553 C 0.54051 -0.09587 -0.22326
 C554 C 0.55580 -0.06745 -0.22879
 C555 C 0.55032 -0.05082 -0.19650
 C556 C 0.52946 -0.06171 -0.15734
 C557 C 0.51461 -0.09000 -0.14738
 C558 C 0.49379 -0.09984 -0.10669
 C559 C 0.48691 -0.08259 -0.08036
 C560 C 0.50067 -0.05493 -0.09291
 C561 C 0.52265 -0.04448 -0.12978
 H562 H 0.57566 -0.08252 -0.31489
 H563 H 0.51619 -0.18114 -0.28670
 H564 H 0.57699 -0.11345 -0.37981
 H565 H 0.49764 -0.17407 -0.20230
 H566 H 0.49127 -0.14565 -0.14020
 H567 H 0.57200 -0.05727 -0.25853
 H568 H 0.56208 -0.02917 -0.20351
 H569 H 0.48172 -0.12088 -0.09555
 H570 H 0.47010 -0.09117 -0.05132
 H571 H 0.53359 -0.02305 -0.13957
 C572 C 0.32922 0.44317 -0.29774
 C573 C 0.35333 0.46862 -0.29365
 C574 C 0.35616 0.48965 -0.32945
 C575 C 0.33488 0.48566 -0.36484
 C576 C 0.31117 0.46029 -0.36868
 C577 C 0.30873 0.43908 -0.33514
 C578 C 0.38034 0.51444 -0.33042
 C579 C 0.40212 0.51869 -0.29747
 C580 C 0.40010 0.49862 -0.26011
 C581 C 0.37485 0.47373 -0.25609
 C582 C 0.37163 0.45522 -0.21335
 C583 C 0.39237 0.46082 -0.17579
 C584 C 0.41743 0.48447 -0.18080
 C585 C 0.42209 0.50314 -0.22460
 C586 C 0.44858 0.52564 -0.23073
 C587 C 0.46886 0.53047 -0.19195
 C588 C 0.46323 0.51323 -0.14594
 C589 C 0.43773 0.48992 -0.14127
 H590 H 0.32608 0.42570 -0.27444
 H591 H 0.33696 0.50225 -0.39053
 H592 H 0.29109 0.41899 -0.33884
 H593 H 0.38262 0.53060 -0.35772
 H594 H 0.42003 0.53844 -0.30035
 H595 H 0.35277 0.43673 -0.20606
 H596 H 0.38872 0.44644 -0.14245
 H597 H 0.45425 0.53977 -0.26513
 H598 H 0.48863 0.54844 -0.19642
 H599 H 0.43358 0.47626 -0.10615
 C600 C 1.16338 0.66597 -0.30988
 C601 C 1.13712 0.65548 -0.28747
 C602 C 1.12304 0.66893 -0.30184
 C603 C 1.13472 0.69151 -0.33777
 C604 C 1.16051 0.70123 -0.36021
 C605 C 1.17469 0.68830 -0.34579
 C606 C 1.09719 0.65959 -0.28101
 C607 C 1.08469 0.63698 -0.24648
 C608 C 1.09761 0.62261 -0.23121
 C609 C 1.12428 0.63203 -0.25203
 C610 C 1.13710 0.61752 -0.23722
 C611 C 1.12441 0.59459 -0.20368
 C612 C 1.09851 0.58515 -0.18317
 C613 C 1.08469 0.59902 -0.19616
 C614 C 1.05850 0.58861 -0.17325
 C615 C 1.04673 0.56544 -0.13959
 C616 C 1.06046 0.55186 -0.12812
 C617 C 1.08635 0.56180 -0.14951
 H618 H 1.17571 0.65730 -0.30128
 H619 H 1.12362 0.70143 -0.34899
 H620 H 1.19445 0.69515 -0.36354
 H621 H 1.08635 0.66979 -0.29187
 H622 H 1.06466 0.63116 -0.23287
 H623 H 1.15706 0.62321 -0.25112
 H624 H 1.13506 0.58409 -0.19368
 H625 H 1.04658 0.59789 -0.18001
 H626 H 1.02694 0.55827 -0.12182
 H627 H 1.09702 0.55127 -0.13985
 C628 C 0.84574 0.51777 -0.24056
 C629 C 0.87375 0.52883 -0.24880
 C630 C 0.88461 0.54058 -0.30190
 C631 C 0.86800 0.54137 -0.34434
 C632 C 0.84005 0.52963 -0.33625
 C633 C 0.82931 0.51810 -0.28350
 C634 C 0.91193 0.55102 -0.31289
 C635 C 0.92837 0.54826 -0.27389
 C636 C 0.91817 0.53543 -0.22156
 C637 C 0.89104 0.52745 -0.20720
 C638 C 0.88203 0.51801 -0.15208
 C639 C 0.89804 0.51399 -0.11408
 C640 C 0.92330 0.51857 -0.12991
 C641 C 0.93392 0.52969 -0.18363
 C642 C 0.95901 0.53267 -0.19880
 C643 C 0.97194 0.52335 -0.16364
 C644 C 0.96097 0.51171 -0.11140
 C645 C 0.93724 0.51049 -0.09366
 H646 H 0.83565 0.50764 -0.20226
 H647 H 0.87691 0.55114 -0.38408
 H648 H 0.80779 0.50827 -0.27594
 H649 H 0.92052 0.56065 -0.35288
 H650 H 0.94916 0.55661 -0.28584
 H651 H 0.86259 0.51358 -0.13695
 H652 H 0.89000 0.50601 -0.07270
 H653 H 0.96825 0.54029 -0.23919
 H654 H 0.98996 0.52402 -0.17876
 H655 H 0.92831 0.50098 -0.05375
 C656 C 0.43694 0.32256 -0.27538
 C657 C 0.46258 0.34653 -0.27112
 C658 C 0.48390 0.34825 -0.30376
 C659 C 0.47981 0.32651 -0.33714
 C660 C 0.45415 0.30325 -0.34253
 C661 C 0.43276 0.30151 -0.31125
 C662 C 0.50904 0.37200 -0.30455
 C663 C 0.51336 0.39461 -0.27516
 C664 C 0.49289 0.39401 -0.24185
 C665 C 0.46762 0.36915 -0.23721
 C666 C 0.44860 0.36759 -0.19790
 C667 C 0.45410 0.38956 -0.16427
 C668 C 0.47816 0.41426 -0.17032
 C669 C 0.49735 0.41718 -0.21101
 C670 C 0.52030 0.44323 -0.21905
 C671 C 0.52511 0.46479 -0.18453
 C672 C 0.50737 0.46106 -0.14083
 C673 C 0.48352 0.43595 -0.13491
 H674 H 0.41937 0.32014 -0.25408
 H675 H 0.49643 0.32820 -0.36173
 H676 H 0.41243 0.28452 -0.31674
 H677 H 0.52544 0.37334 -0.32928
 H678 H 0.53341 0.41209 -0.27769
 H679 H 0.42969 0.34917 -0.19035
 H680 H 0.43930 0.38720 -0.13333
 H681 H 0.53487 0.44758 -0.25176
 H682 H 0.54350 0.48412 -0.19033
 H683 H 0.46943 0.43313 -0.10179
 C684 C 0.65578 0.11783 -0.35759
 C685 C 0.64428 0.12918 -0.32265
 C686 C 0.65477 0.15743 -0.32687
 C687 C 0.67568 0.17332 -0.36476
 C688 C 0.68650 0.16157 -0.39909
 C689 C 0.67650 0.13382 -0.39502
 C690 C 0.64434 0.16972 -0.29341
 C691 C 0.62363 0.15468 -0.25562
 C692 C 0.61235 0.12650 -0.24971
 C693 C 0.62284 0.11353 -0.28386
 C694 C 0.61152 0.08534 -0.27817
 C695 C 0.59085 0.07030 -0.24050
 C696 C 0.58050 0.08258 -0.20683
 C697 C 0.59095 0.11081 -0.21077
 C698 C 0.57946 0.12201 -0.17532
 C699 C 0.55880 0.10586 -0.13765
 C700 C 0.54884 0.07808 -0.13398
 C701 C 0.55973 0.06659 -0.16895
 H702 H 0.64935 0.09669 -0.35727
 H703 H 0.68351 0.19487 -0.36795
 H704 H 0.68482 0.12448 -0.42108
 H705 H 0.65230 0.19129 -0.29645
 H706 H 0.61689 0.16591 -0.23159
 H707 H 0.61813 0.07405 -0.30232
 H708 H 0.58287 0.04872 -0.23766
 H709 H 0.58596 0.14317 -0.17536
 H710 H 0.55064 0.11521 -0.11117
 H711 H 0.55216 0.04507 -0.16644
 C712 C 1.18463 0.46978 -0.26757
 C713 C 1.15604 0.45527 -0.26966
 C714 C 1.14340 0.43714 -0.31509
 C715 C 1.15886 0.43460 -0.35733
 C716 C 1.18721 0.44954 -0.35534
 C717 C 1.19980 0.46691 -0.30955
 C718 C 1.11535 0.42169 -0.31853
 C719 C 1.09933 0.42407 -0.27839
 C720 C 1.11079 0.44239 -0.23315
 C721 C 1.13963 0.45832 -0.22878
 C722 C 1.15108 0.47728 -0.18460
 C723 C 1.13506 0.48122 -0.14711
 C724 C 1.10702 0.46620 -0.15134
 C725 C 1.09437 0.44600 -0.19325
 C726 C 1.06576 0.43070 -0.19405
 C727 C 1.05061 0.43661 -0.15751
 C728 C 1.06335 0.45775 -0.11873
 C729 C 1.09157 0.47189 -0.11471
 H730 H 1.19604 0.48362 -0.23427
 H731 H 1.14876 0.42052 -0.39161
 H732 H 1.22163 0.47910 -0.30702
 H733 H 1.10559 0.40767 -0.35302
 H734 H 1.07789 0.41162 -0.28498
 H735 H 1.17251 0.49007 -0.17850
 H736 H 1.14482 0.49650 -0.11478
 H737 H 1.05435 0.41426 -0.22276
 H738 H 1.02879 0.42511 -0.16101
 H739 H 1.10163 0.48805 -0.08421
 C740 C 0.57591 0.70831 -0.31811
 C741 C 0.56264 0.70225 -0.26552
 C742 C 0.54654 0.71370 -0.25366
 C743 C 0.54457 0.73108 -0.29258
 C744 C 0.55733 0.73635 -0.34524
 C745 C 0.57309 0.72483 -0.35717
 C746 C 0.53178 0.70708 -0.20381
 C747 C 0.53140 0.68812 -0.16681
 C748 C 0.54653 0.67561 -0.17748
 C749 C 0.56378 0.68419 -0.22566
 C750 C 0.58147 0.67430 -0.23263
 C751 C 0.58066 0.65486 -0.19678
 C752 C 0.56193 0.64416 -0.15324
 C753 C 0.54478 0.65452 -0.14225
 C754 C 0.52569 0.64230 -0.09828
 C755 C 0.52294 0.61993 -0.06884
 C756 C 0.53938 0.60930 -0.08147
 C757 C 0.55954 0.62229 -0.12226
 H758 H 0.58778 0.69975 -0.33142
 H759 H 0.53177 0.73927 -0.28317
 H760 H 0.58344 0.72871 -0.39711
 H761 H 0.51967 0.71602 -0.19410
 H762 H 0.51920 0.68385 -0.12971
 H763 H 0.59645 0.68141 -0.26536
 H764 H 0.59426 0.64745 -0.20451
 H765 H 0.51163 0.64863 -0.08755
 H766 H 0.50721 0.61033 -0.03749
 H767 H 0.57241 0.61430 -0.13264
 C768 C 0.27303 -0.14477 -0.26898
 C769 C 0.29979 -0.12594 -0.28601
 C770 C 0.30604 -0.12543 -0.34374
 C771 C 0.28652 -0.14346 -0.38190
 C772 C 0.26035 -0.16281 -0.36410
 C773 C 0.25381 -0.16278 -0.30730
 C774 C 0.33197 -0.10737 -0.36319
 C775 C 0.35233 -0.09040 -0.32634
 C776 C 0.34758 -0.09076 -0.26804
 C777 C 0.32067 -0.10817 -0.24777
 C778 C 0.31566 -0.10752 -0.18987
 C779 C 0.33634 -0.09150 -0.15259
 C780 C 0.36286 -0.07558 -0.17117
 C781 C 0.36893 -0.07466 -0.22918
 C782 C 0.39633 -0.05828 -0.24544
 C783 C 0.41668 -0.04434 -0.20558
 C784 C 0.41055 -0.04597 -0.14832
 C785 C 0.38349 -0.06112 -0.13158
 H786 H 0.26629 -0.14651 -0.22620
 H787 H 0.29227 -0.14334 -0.42534
 H788 H 0.23359 -0.17674 -0.29231
 H789 H 0.33673 -0.10663 -0.40747
 H790 H 0.37170 -0.07723 -0.34516
 H791 H 0.29589 -0.11934 -0.17166
 H792 H 0.33155 -0.09204 -0.10838
 H793 H 0.40294 -0.05631 -0.28837
 H794 H 0.43744 -0.03265 -0.21964
 H795 H 0.37852 -0.06250 -0.08728
 C796 C 0.54946 -0.10895 0.33566
 C797 C 0.52848 -0.11916 0.29491
 C798 C 0.51051 -0.14755 0.29309
 C799 C 0.51316 -0.16464 0.33162
 C800 C 0.53350 -0.15395 0.37256
 C801 C 0.55182 -0.12613 0.37371
 C802 C 0.48972 -0.15875 0.25349
 C803 C 0.48571 -0.14243 0.21642
 C804 C 0.50238 -0.11399 0.21758
 C805 C 0.52439 -0.10219 0.25691
 C806 C 0.54124 -0.07377 0.25776
 C807 C 0.53621 -0.05736 0.22333
 C808 C 0.51436 -0.06845 0.18630
 C809 C 0.49742 -0.09688 0.18175
 C810 C 0.47586 -0.10685 0.14233
 C811 C 0.47076 -0.08929 0.11116
 C812 C 0.48691 -0.06128 0.11794
 C813 C 0.50908 -0.05105 0.15466
 H814 H 0.56428 -0.08782 0.33994
 H815 H 0.49904 -0.18627 0.33066
 H816 H 0.56787 -0.11763 0.40481
 H817 H 0.47610 -0.18045 0.25157
 H818 H 0.46898 -0.15285 0.18777
 H819 H 0.55840 -0.06335 0.28533
 H820 H 0.54941 -0.03562 0.22641
 H821 H 0.46226 -0.12808 0.13505
 H822 H 0.45364 -0.09776 0.08265
 H823 H 0.52201 -0.02937 0.15975
 C824 C 0.31625 0.45682 0.25246
 C825 C 0.33611 0.44976 0.26237
 C826 C 0.33508 0.43673 0.31376
 C827 C 0.31439 0.43043 0.35258
 C828 C 0.29636 0.43971 0.34423
 C829 C 0.29713 0.45237 0.29332
 C830 C 0.35563 0.43161 0.32763
 C831 C 0.37830 0.44108 0.29359
 C832 C 0.38049 0.45474 0.24270
 C833 C 0.35797 0.45695 0.22474
 C834 C 0.35813 0.46650 0.16999
 C835 C 0.38051 0.47580 0.13566
 C836 C 0.40383 0.47675 0.15519
 C837 C 0.40437 0.46636 0.20899
 C838 C 0.42918 0.46928 0.22762
 C839 C 0.45242 0.48231 0.19411
 C840 C 0.45138 0.49211 0.14077
 C841 C 0.42685 0.48876 0.12140
 H842 H 0.31626 0.46773 0.21548
 H843 H 0.31382 0.42050 0.39186
 H844 H 0.28368 0.46004 0.28617
 H845 H 0.35485 0.42140 0.36663
 H846 H 0.39371 0.43703 0.30766
 H847 H 0.34090 0.46649 0.15209
 H848 H 0.37986 0.48319 0.09399
 H849 H 0.43148 0.46270 0.26873
 H850 H 0.47122 0.48477 0.20991
 H851 H 0.42590 0.49663 0.08045
 C852 C 1.15625 0.66531 0.30545
 C853 C 1.13133 0.65756 0.27860
 C854 C 1.11796 0.67160 0.29328
 C855 C 1.12995 0.69339 0.33107
 C856 C 1.15475 0.70086 0.35636
 C857 C 1.16757 0.68649 0.34396
 C858 C 1.09257 0.66359 0.27076
 C859 C 1.07966 0.64135 0.23530
 C860 C 1.09210 0.62669 0.21947
 C861 C 1.11894 0.63587 0.23910
 C862 C 1.13265 0.62331 0.21806
 C863 C 1.12012 0.60154 0.18159
 C864 C 1.09330 0.59104 0.16551
 C865 C 1.07876 0.60328 0.18431
 C866 C 1.05122 0.59101 0.16842
 C867 C 1.03883 0.56759 0.13565
 C868 C 1.05347 0.55582 0.11703
 C869 C 1.08082 0.56794 0.13146
 H870 H 1.16709 0.65489 0.29906
 H871 H 1.11980 0.70425 0.34179
 H872 H 1.18650 0.69175 0.36435
 H873 H 1.08230 0.67432 0.28152
 H874 H 1.06008 0.63649 0.21988
 H875 H 1.15345 0.63026 0.22803
 H876 H 1.13144 0.59249 0.16666
 H877 H 1.03844 0.59845 0.18218
 H878 H 1.01759 0.55849 0.12537
 H879 H 1.09227 0.55882 0.11780
 C880 C 0.49586 0.18575 0.30732
 C881 C 0.47619 0.15885 0.29255
 C882 C 0.45112 0.14668 0.32136
 C883 C 0.44626 0.16087 0.36305
 C884 C 0.46591 0.18737 0.37659
 C885 C 0.49067 0.19971 0.34856
 C886 C 0.43090 0.12044 0.30841
 C887 C 0.43483 0.10572 0.26755
 C888 C 0.45940 0.11664 0.23775
 C889 C 0.48048 0.14363 0.25049
 C890 C 0.50516 0.15434 0.22117
 C891 C 0.50938 0.13914 0.18170
 C892 C 0.48922 0.11272 0.16935
 C893 C 0.46377 0.10122 0.19648
 C894 C 0.44385 0.07451 0.18173
 C895 C 0.44952 0.05949 0.14459
 C896 C 0.47500 0.07049 0.11982
 C897 C 0.49460 0.09743 0.13102
 H898 H 0.51538 0.19673 0.28771
 H899 H 0.42701 0.15145 0.38465
 H900 H 0.50602 0.22032 0.35857
 H901 H 0.41171 0.11109 0.33024
 H902 H 0.41808 0.08556 0.26092
 H903 H 0.52195 0.17445 0.22825
 H904 H 0.52882 0.14813 0.16101
 H905 H 0.42372 0.06428 0.19859
 H906 H 0.43385 0.03882 0.13590
 H907 H 0.51437 0.10611 0.11187
 C908 C 0.69013 0.49974 0.28797
 C909 C 0.68462 0.52072 0.27760
 C910 C 0.69828 0.54428 0.31144
 C911 C 0.71585 0.54611 0.35473
 C912 C 0.72053 0.52492 0.36469
 C913 C 0.70782 0.50193 0.33077
 C914 C 0.69423 0.56585 0.30224
 C915 C 0.67667 0.56462 0.26059
 C916 C 0.66199 0.54143 0.22663
 C917 C 0.66593 0.51906 0.23543
 C918 C 0.65056 0.49553 0.20278
 C919 C 0.63144 0.49351 0.16423
 C920 C 0.62706 0.51492 0.15578
 C921 C 0.64277 0.53949 0.18553
 C922 C 0.63805 0.56086 0.17366
 C923 C 0.61728 0.55716 0.13744
 C924 C 0.60067 0.53222 0.11123
 C925 C 0.60634 0.51150 0.11902
 H926 H 0.68123 0.48138 0.26380
 H927 H 0.72596 0.56403 0.38084
 H928 H 0.71149 0.48548 0.33781
 H929 H 0.70470 0.58393 0.32781
 H930 H 0.67460 0.58211 0.25711
 H931 H 0.65224 0.47783 0.20697
 H932 H 0.61964 0.47475 0.14130
 H933 H 0.64968 0.58060 0.19230
 H934 H 0.61363 0.57368 0.13152
 H935 H 0.59381 0.49218 0.09847
 C936 C 0.88349 0.29316 0.32008
 C937 C 0.87836 0.29962 0.26562
 C938 C 0.85139 0.28504 0.24539
 C939 C 0.83025 0.26724 0.28093
 C940 C 0.83551 0.26287 0.33634
 C941 C 0.86237 0.27500 0.35459
 C942 C 0.84552 0.28905 0.19052
 C943 C 0.86564 0.30805 0.15575
 C944 C 0.89239 0.32466 0.17537
 C945 C 0.89880 0.32055 0.23142
 C946 C 0.92486 0.33869 0.25280
 C947 C 0.94348 0.36096 0.22182
 C948 C 0.93732 0.36551 0.16761
 C949 C 0.91237 0.34655 0.14230
 C950 C 0.90810 0.35103 0.08556
 C951 C 0.92627 0.37494 0.05796
 C952 C 0.94925 0.39508 0.08580
 C953 C 0.95538 0.38964 0.13960
 H954 H 0.90355 0.30190 0.33737
 H955 H 0.80952 0.25760 0.26621
 H956 H 0.86693 0.27121 0.39673
 H957 H 0.82502 0.27767 0.17451
 H958 H 0.85915 0.31034 0.11458
 H959 H 0.93098 0.33722 0.29491
 H960 H 0.96271 0.37513 0.24109
 H961 H 0.89065 0.33671 0.06174
 H962 H 0.92135 0.37838 0.01585
 H963 H 0.97349 0.40486 0.16095
   
