data_POSCAR
  _audit_creation_date              2014-09-24
  _audit_creation_method            'ToBaCCo'
  _symmetry_space_group_name_H-M    'P1'
  _symmetry_Int_Tables_number       1
  _symmetry_cell_setting            triclinic
  loop_
  _symmetry_equiv_pos_as_xyz
 x,y,z
_cell_length_a 25.8681
_cell_length_b 25.8424
_cell_length_c 25.8504
_cell_angle_alpha 89.499700
_cell_angle_beta 85.275600
_cell_angle_gamma 98.973200
loop_
  _atom_site_label
  _atom_site_type_symbol
  _atom_site_fract_x
  _atom_site_fract_y
  _atom_site_fract_z
O1 O 0.52971 0.49851 0.07485
 O2 O 0.39422 0.48854 0.03710
 O3 O 0.45462 0.42366 0.05955
 O4 O 0.46781 0.56709 0.05620
 O5 O 0.50050 0.56875 -0.02560
 O6 O 0.48355 0.42510 -0.02339
 O7 O 0.42454 0.49611 -0.04538
 O8 O 0.55900 0.50082 -0.00805
 Cu9 Cu 0.45856 0.49482 0.06530
 Cu10 Cu 0.49448 0.49748 -0.03413
 C11 C 0.56735 0.50082 0.03959
 C12 C 0.38632 0.49115 -0.01066
 C13 C 0.46702 0.39998 0.01875
 C14 C 0.48710 0.59238 0.01493
 O15 O -0.07053 0.55041 0.53138
 O16 O -0.04880 0.41327 0.51494
 O17 O -0.04319 0.47887 0.59137
 O18 O -0.07704 0.48308 0.45603
 O19 O 0.00670 0.50835 0.42993
 O20 O 0.03885 0.51260 0.56609
 O21 O 0.03563 0.44104 0.49447
 O22 O 0.01108 0.57806 0.49987
 Cu23 Cu -0.06820 0.47872 0.52623
 Cu24 Cu 0.03157 0.51251 0.49523
 C25 C -0.03385 0.58774 0.51685
 C26 C -0.00273 0.40387 0.50240
 C27 C 0.00339 0.49591 0.60191
 C28 C -0.04083 0.49598 0.41993
 O29 O 0.53857 0.04527 0.54962
 O30 O 0.53866 0.04151 0.40712
 O31 O 0.47286 0.06472 0.48391
 O32 O 0.60328 0.02313 0.47478
 O33 O 0.56541 -0.05941 0.48540
 O34 O 0.43544 -0.01818 0.48382
 O35 O 0.50393 -0.04219 0.41256
 O36 O 0.49579 -0.03571 0.55516
 Cu37 Cu 0.54197 0.05207 0.47783
 Cu38 Cu 0.49647 -0.04723 0.48444
 C39 C 0.51684 0.00534 0.57682
 C40 C 0.52182 -0.00108 0.38551
 C41 C 0.43195 0.03024 0.48534
 C42 C 0.60648 -0.02504 0.48074
 C43 C 0.50864 -0.05244 -0.12746
 C44 C 0.51985 -0.10116 -0.11192
 C45 C 0.53102 -0.11128 -0.06115
 C46 C 0.53318 -0.07082 -0.02462
 C47 C 0.52151 -0.02121 -0.03932
 C48 C 0.50830 -0.01220 -0.09063
 C49 C 0.49350 0.03612 -0.10307
 C50 C 0.49455 0.07579 -0.06706
 C51 C 0.51061 0.06887 -0.01716
 C52 C 0.52263 0.01938 -0.00251
 C53 C 0.54772 -0.07831 0.02581
 C54 C 0.54896 -0.03852 0.06181
 C55 C 0.53553 0.01032 0.04890
 C56 C 0.53570 0.05083 0.08552
 C57 C 0.52489 0.09967 0.06979
 C58 C 0.51337 0.10955 0.01913
 H59 H 0.47998 0.04362 -0.14047
 H60 H 0.48179 0.11173 -0.07866
 H61 H 0.55917 -0.11481 0.03776
 H62 H 0.56132 -0.04634 0.09967
 H63 H 0.51926 -0.13225 -0.13986
 H64 H 0.52525 0.13081 0.09770
 C65 C 0.02319 0.47700 0.90193
 C66 C 0.07377 0.47323 0.91535
 C67 C 0.08775 0.48033 0.96629
 C68 C 0.05033 0.49444 1.00488
 C69 C -0.00165 0.49706 0.99233
 C70 C -0.01533 0.48821 0.94073
 C71 C -0.06684 0.49189 0.92928
 C72 C -0.10461 0.50162 0.96780
 C73 C -0.09187 0.51190 1.01892
 C74 C -0.03983 0.50949 1.03134
 C75 C 0.06362 0.50743 1.05531
 C76 C 0.02589 0.51674 1.09391
 C77 C -0.02612 0.51827 1.08295
 C78 C -0.06501 0.52751 1.12221
 C79 C -0.11606 0.52940 1.10934
 C80 C -0.12989 0.52314 1.05833
 H81 H -0.07905 0.48700 0.89047
 H82 H -0.14406 0.50046 0.95663
 H83 H 0.10344 0.51103 1.06598
 H84 H 0.03861 0.52294 1.13238
 H85 H 0.10263 0.46376 0.88553
 H86 H -0.14552 0.53661 1.13965
 C87 C -0.03587 -0.11122 0.50180
 C88 C -0.08641 -0.09951 0.49662
 C89 C -0.09679 -0.04781 0.49729
 C90 C -0.05562 -0.00629 0.50554
 C91 C -0.00374 -0.01680 0.50724
 C92 C 0.00592 -0.06941 0.50776
 C93 C 0.05674 -0.07842 0.51646
 C94 C 0.09838 -0.03722 0.51585
 C95 C 0.09069 0.01486 0.50807
 C96 C 0.03865 0.02551 0.50872
 C97 C -0.06503 0.04520 0.51430
 C98 C -0.02379 0.08636 0.51772
 C99 C 0.02884 0.07809 0.51124
 C100 C 0.07188 0.12014 0.50931
 C101 C 0.12331 0.10832 0.50308
 C102 C 0.13340 0.05661 0.50160
 H103 H 0.06513 -0.11732 0.52392
 H104 H 0.13667 -0.04666 0.52229
 H105 H -0.10455 0.05416 0.51962
 H106 H -0.03427 0.12439 0.52594
 H107 H -0.11788 -0.13112 0.49009
 H108 H 0.15623 0.13999 0.49787
 C109 C -0.28778 0.53155 1.03147
 C110 C -0.27588 0.50173 1.07323
 N111 N -0.31549 0.47464 1.10507
 C112 C -0.36658 0.47535 1.09649
 C113 C -0.37848 0.50328 1.05332
 N114 N -0.33863 0.53096 1.02197
 N115 N -0.24829 0.56038 1.00093
 C116 C -0.19724 0.55967 1.00945
 C117 C -0.18501 0.52694 1.04895
 N118 N -0.22492 0.49977 1.08075
 H119 H -0.39749 0.45286 1.12195
 H120 H -0.16648 0.58371 0.98511
 C121 C 0.24362 0.46811 0.99849
 C122 C 0.23345 0.49043 0.95149
 N123 N 0.27408 0.50921 0.91633
 C124 C 0.32458 0.50769 0.92657
 C125 C 0.33509 0.48896 0.97538
 N126 N 0.29399 0.46922 1.00998
 N127 N 0.20296 0.44532 1.03168
 C128 C 0.15249 0.44584 1.02095
 C129 C 0.14209 0.47355 0.97677
 N130 N 0.18314 0.49355 0.94214
 H131 H 0.35615 0.52338 0.89789
 H132 H 0.12082 0.42618 1.04748
 C133 C -0.01410 -0.27091 0.49377
 C134 C -0.05789 -0.25661 0.52242
 N135 N -0.09381 -0.29437 0.54758
 C136 C -0.08769 -0.34577 0.54579
 C137 C -0.04260 -0.36011 0.51883
 N138 N -0.00700 -0.32189 0.49339
 N139 N 0.02007 -0.23376 0.46589
 C140 C 0.01323 -0.18265 0.46647
 C141 C -0.02839 -0.16728 0.49827
 N142 N -0.06379 -0.20524 0.52447
 H143 H -0.11711 -0.37483 0.56628
 H144 H 0.04038 -0.15419 0.44271
 C145 C 0.05395 0.28137 0.51624
 C146 C 0.02026 0.24591 0.48874
 N147 N -0.01996 0.26267 0.46627
 C148 C -0.02816 0.31329 0.47021
 C149 C 0.00603 0.34916 0.49695
 N150 N 0.04656 0.33229 0.51919
 N151 N 0.09252 0.26396 0.54082
 C152 C 0.09885 0.21266 0.53937
 C153 C 0.06538 0.17674 0.51159
 N154 N 0.02733 0.19492 0.48630
 H155 H -0.06072 0.32560 0.45224
 H156 H 0.12935 0.19997 0.56030
 C157 C 0.49117 -0.03881 -0.28828
 C158 C 0.52155 0.00140 -0.26295
 N159 N 0.54768 0.04358 -0.29089
 C160 C 0.54545 0.04703 -0.34321
 C161 C 0.51679 0.00565 -0.36913
 N162 N 0.49002 -0.03608 -0.34056
 N163 N 0.46426 -0.08055 -0.26039
 C164 C 0.46712 -0.08447 -0.20830
 C165 C 0.49922 -0.04535 -0.18287
 N166 N 0.52555 -0.00311 -0.21109
 H167 H 0.56719 0.08098 -0.36436
 H168 H 0.44540 -0.11837 -0.18708
 C169 C 0.55142 0.03915 0.24682
 C170 C 0.51903 -0.00008 0.22215
 N171 N 0.48995 -0.04012 0.25098
 C172 C 0.49131 -0.04239 0.30346
 C173 C 0.52240 -0.00220 0.32848
 N174 N 0.55196 0.03750 0.29927
 N175 N 0.58077 0.07902 0.21810
 C176 C 0.57850 0.08204 0.16585
 C177 C 0.54470 0.04388 0.14104
 N178 N 0.51588 0.00348 0.17005
 H179 H 0.46726 -0.07447 0.32550
 H180 H 0.60190 0.11462 0.14397
 C181 C 0.53251 -0.27166 -0.03187
 C182 C 0.50265 -0.24326 0.00176
 N183 N 0.47039 -0.26872 0.04119
 C184 C 0.46598 -0.32157 0.04794
 C185 C 0.49421 -0.35026 0.01289
 N186 N 0.52717 -0.32434 -0.02588
 N187 N 0.56475 -0.24647 -0.07130
 C188 C 0.56759 -0.19412 -0.07950
 C189 C 0.53601 -0.16581 -0.04737
 N190 N 0.50454 -0.19116 -0.00712
 H191 H 0.43941 -0.34109 0.07916
 H192 H 0.59290 -0.17504 -0.11182
 C193 C 0.49709 0.26722 -0.00868
 C194 C 0.46720 0.23764 0.03231
 N195 N 0.43579 0.26097 0.06624
 C196 C 0.43350 0.31290 0.06159
 C197 C 0.46408 0.34291 0.02117
 N198 N 0.49482 0.31912 -0.01339
 N199 N 0.53010 0.24421 -0.04131
 C200 C 0.53484 0.19297 -0.03456
 C201 C 0.50494 0.16330 0.00651
 N202 N 0.47195 0.18665 0.03902
 H203 H 0.40875 0.33073 0.08970
 H204 H 0.56265 0.17593 -0.06005
 C205 C -0.24914 -0.02004 0.46711
 C206 C -0.24276 -0.06206 0.49949
 N207 N -0.28587 -0.09337 0.52216
 C208 C -0.33508 -0.08395 0.51464
 C209 C -0.34147 -0.04042 0.48415
 N210 N -0.29812 -0.00966 0.46088
 N211 N -0.20623 0.01013 0.44291
 C212 C -0.15708 0.00110 0.45071
 C213 C -0.15021 -0.03862 0.48603
 N214 N -0.19358 -0.07018 0.50853
 H215 H -0.36875 -0.10891 0.53397
 H216 H -0.12362 0.02520 0.43009
 C217 C 0.29035 0.02832 0.47171
 C218 C 0.27883 0.06849 0.50486
 N219 N 0.31825 0.09761 0.52837
 C220 C 0.36850 0.08773 0.52089
 C221 C 0.37957 0.04589 0.48966
 N222 N 0.34008 0.01735 0.46561
 N223 N 0.25157 0.00061 0.44647
 C224 C 0.20137 0.01020 0.45398
 C225 C 0.18870 0.04771 0.49016
 N226 N 0.22831 0.07700 0.51370
 H227 H 0.39909 0.11095 0.54069
 H228 H 0.17144 -0.01193 0.43257
 C229 C -0.03549 0.53355 1.28083
 C230 C -0.07590 0.49681 1.26350
 N231 N -0.10519 0.46176 1.29781
 C232 C -0.09553 0.46140 1.34871
 C233 C -0.05387 0.49688 1.36580
 N234 N -0.02492 0.53232 1.33134
 N235 N -0.00748 0.56980 1.24683
 C236 C -0.01723 0.57013 1.19593
 C237 C -0.05540 0.53127 1.17782
 N238 N -0.08464 0.49625 1.21248
 H239 H -0.11923 0.43287 1.37527
 H240 H 0.00541 0.59955 1.16956
 C241 C -0.00503 0.46489 0.74301
 C242 C 0.03653 0.50095 0.75925
 N243 N 0.06761 0.53323 0.72370
 C244 C 0.05867 0.53151 0.67259
 C245 C 0.01603 0.49664 0.65638
 N246 N -0.01472 0.46395 0.69216
 N247 N -0.03510 0.43155 0.77840
 C248 C -0.02618 0.43343 0.82954
 C249 C 0.01352 0.47153 0.84636
 N250 N 0.04466 0.50364 0.81041
 H251 H 0.08379 0.55801 0.64514
 H252 H -0.05040 0.40620 0.85699
   
