data_POSCAR
  _audit_creation_date              2014-09-24
  _audit_creation_method            'ToBaCCo'
  _symmetry_space_group_name_H-M    'P1'
  _symmetry_Int_Tables_number       1
  _symmetry_cell_setting            triclinic
  loop_
  _symmetry_equiv_pos_as_xyz
 x,y,z
_cell_length_a 32.8882
_cell_length_b 30.8676
_cell_length_c 31.1240
_cell_angle_alpha 89.902800
_cell_angle_beta 89.915400
_cell_angle_gamma 89.969800
loop_
  _atom_site_label
  _atom_site_type_symbol
  _atom_site_fract_x
  _atom_site_fract_y
  _atom_site_fract_z
C1 C 1.18184 0.29358 0.28499
 H2 H 1.16372 0.27089 0.26687
 C3 C 1.16262 0.32339 0.31234
 H4 H 1.12977 0.32380 0.31426
 C5 C 1.24657 0.31897 0.30664
 H6 H 1.27935 0.31629 0.30510
 C7 C 1.22878 0.34914 0.33404
 H8 H 1.24829 0.36987 0.35300
 N9 N 1.22318 0.29205 0.28264
 C10 C 1.23341 0.16880 0.21918
 H11 H 1.25870 0.15879 0.23893
 C12 C 1.21568 0.13879 0.19167
 H13 H 1.22700 0.10583 0.19128
 C14 C 1.19021 0.22437 0.19311
 H15 H 1.18174 0.25822 0.19244
 C16 C 1.17078 0.19491 0.16569
 H17 H 1.14698 0.20615 0.14440
 Zn18 Zn 1.25324 0.24949 0.25209
 N19 N 1.22074 0.21077 0.21942
 C20 C 1.25628 0.19535 0.32256
 N21 N 1.28066 0.21664 0.29437
 C22 C 1.32182 0.21303 0.29630
 C23 C 1.33992 0.18543 0.32641
 C24 C 1.27290 0.16753 0.35310
 C25 C 1.29460 0.31847 0.20820
 C26 C 1.32359 0.33546 0.17985
 C27 C 1.34448 0.26246 0.16277
 C28 C 1.31521 0.24694 0.19136
 N29 N 1.29136 0.27488 0.21384
 H30 H 1.22364 0.19919 0.32047
 H31 H 1.34071 0.23101 0.27415
 H32 H 1.37270 0.18277 0.32652
 H33 H 1.25237 0.15043 0.37444
 H34 H 1.27471 0.34017 0.22552
 H35 H 1.32578 0.37021 0.17606
 H36 H 1.36333 0.23954 0.14555
 H37 H 1.31171 0.21241 0.19600
 C38 C 1.18419 0.15173 0.16434
 C39 C 1.18629 0.35144 0.33758
 C40 C 1.34915 0.30725 0.15686
 C41 C 1.31534 0.16141 0.35500
 C42 C 0.67993 -0.21245 0.28970
 H43 H 0.66129 -0.23054 0.26753
 C44 C 0.66160 -0.18414 0.31893
 H45 H 0.62888 -0.18061 0.31874
 C46 C 0.74522 -0.19492 0.31678
 H47 H 0.77786 -0.19907 0.31531
 C48 C 0.72827 -0.16638 0.34635
 H49 H 0.74819 -0.14883 0.36784
 N50 N 0.72112 -0.21648 0.28864
 C51 C 0.70815 -0.31894 0.20376
 H52 H 0.72722 -0.34075 0.22198
 C53 C 0.67978 -0.33572 0.17476
 H54 H 0.67720 -0.37046 0.17133
 C55 C 0.68900 -0.24725 0.18546
 H56 H 0.69281 -0.21274 0.18982
 C57 C 0.66040 -0.26255 0.15621
 H58 H 0.64235 -0.23949 0.13820
 Zn59 Zn 0.74915 -0.24999 0.24761
 N60 N 0.71180 -0.27536 0.20893
 C61 C 0.75400 -0.31821 0.30393
 N62 N 0.77812 -0.29209 0.27969
 C63 C 0.81936 -0.29335 0.28344
 C64 C 0.83772 -0.32183 0.31276
 C65 C 0.77095 -0.34698 0.33337
 C66 C 0.76943 -0.17001 0.21379
 C67 C 0.78718 -0.14046 0.18576
 C68 C 0.83294 -0.19663 0.16163
 C69 C 0.81343 -0.22571 0.18954
 N70 N 0.78242 -0.21185 0.21512
 H71 H 0.72129 -0.31569 0.30121
 H72 H 0.83798 -0.27122 0.26507
 H73 H 0.87047 -0.32186 0.31591
 H74 H 0.75090 -0.36696 0.35263
 H75 H 0.74375 -0.15984 0.23292
 H76 H 0.77554 -0.10764 0.18441
 H77 H 0.85709 -0.20803 0.14083
 H78 H 0.82216 -0.25949 0.18975
 C79 C 0.65530 -0.30730 0.15070
 C80 C 0.68602 -0.16017 0.34725
 C81 C 0.81903 -0.15369 0.15904
 C82 C 0.81328 -0.34875 0.33857
 C83 C 0.68755 0.24790 -0.18971
 H84 H 0.69206 0.21338 -0.19320
 C85 C 0.65811 0.26329 -0.16132
 H86 H 0.64023 0.24027 -0.14304
 C87 C 0.70557 0.31951 -0.20948
 H88 H 0.72444 0.34127 -0.22802
 C89 C 0.67637 0.33638 -0.18131
 H90 H 0.67299 0.37114 -0.17879
 N91 N 0.71020 0.27589 -0.21352
 C92 C 0.74479 0.19282 -0.31932
 H93 H 0.77745 0.19670 -0.31779
 C94 C 0.72782 0.16362 -0.34822
 H95 H 0.74776 0.14530 -0.36912
 C96 C 0.67944 0.21169 -0.29313
 H97 H 0.66074 0.23060 -0.27162
 C98 C 0.66109 0.18278 -0.32171
 H99 H 0.62834 0.17961 -0.32165
 Zn100 Zn 0.74832 0.25007 -0.25140
 N101 N 0.72066 0.21540 -0.29190
 C102 C 0.76948 0.17091 -0.21580
 N103 N 0.78178 0.21295 -0.21778
 C104 C 0.81241 0.22773 -0.19228
 C105 C 0.83226 0.19943 -0.16385
 C106 C 0.78756 0.14212 -0.18724
 C107 C 0.75353 0.31742 -0.30905
 C108 C 0.77071 0.34638 -0.33823
 C109 C 0.83737 0.32249 -0.31589
 C110 C 0.81868 0.29381 -0.28692
 N111 N 0.77741 0.29190 -0.28406
 H112 H 0.74410 0.15998 -0.23487
 H113 H 0.82060 0.26165 -0.19297
 H114 H 0.85608 0.21158 -0.14315
 H115 H 0.77644 0.10914 -0.18539
 H116 H 0.72080 0.31447 -0.30698
 H117 H 0.75041 0.36582 -0.35775
 H118 H 0.87022 0.32282 -0.31770
 H119 H 0.83721 0.27218 -0.26791
 C120 C 0.68551 0.15781 -0.34924
 C121 C 0.65202 0.30804 -0.15695
 C122 C 0.81330 0.34913 -0.34261
 C123 C 0.81908 0.15630 -0.16064
 C124 C 1.18792 -0.22469 -0.19223
 H125 H 1.17930 -0.25847 -0.19084
 C126 C 1.16886 -0.19459 -0.16516
 H127 H 1.14515 -0.20525 -0.14341
 C128 C 1.23129 -0.16992 -0.21971
 H129 H 1.25659 -0.16050 -0.23980
 C130 C 1.21394 -0.13929 -0.19258
 H131 H 1.22548 -0.10643 -0.19285
 N132 N 1.21840 -0.21180 -0.21900
 C133 C 1.24496 -0.32191 -0.30330
 H134 H 1.27772 -0.31940 -0.30128
 C135 C 1.22752 -0.35226 -0.33064
 H136 H 1.24724 -0.37334 -0.34905
 C137 C 1.17998 -0.29576 -0.28306
 H138 H 1.16169 -0.27267 -0.26555
 C139 C 1.16111 -0.32572 -0.31039
 H140 H 1.12831 -0.32586 -0.31291
 Zn141 Zn 1.25098 -0.25143 -0.25033
 N142 N 1.22127 -0.29448 -0.28012
 C143 C 1.31187 -0.24770 -0.18876
 N144 N 1.28832 -0.27600 -0.21102
 C145 C 1.29096 -0.31944 -0.20414
 C146 C 1.31908 -0.33596 -0.17470
 C147 C 1.34025 -0.26275 -0.15905
 C148 C 1.25455 -0.19960 -0.32214
 C149 C 1.27132 -0.17239 -0.35313
 C150 C 1.33812 -0.18873 -0.32511
 C151 C 1.31998 -0.21579 -0.29454
 N152 N 1.27881 -0.21983 -0.29309
 H153 H 1.30877 -0.21327 -0.19438
 H154 H 1.27121 -0.34137 -0.22127
 H155 H 1.32079 -0.37062 -0.16989
 H156 H 1.35893 -0.23959 -0.14200
 H157 H 1.22193 -0.20371 -0.32033
 H158 H 1.25128 -0.15580 -0.37530
 H159 H 1.37083 -0.18514 -0.32520
 H160 H 1.33874 -0.23284 -0.27160
 C161 C 1.18510 -0.35416 -0.33497
 C162 C 1.18262 -0.15153 -0.16468
 C163 C 1.31354 -0.16606 -0.35442
 C164 C 1.34434 -0.30741 -0.15187
 C165 C 0.25473 0.19482 0.67972
 H166 H 0.22209 0.19735 0.68333
 C167 C 0.27116 0.16730 0.64886
 H168 H 0.25083 0.14880 0.62863
 C169 C 0.32063 0.21554 0.70256
 H170 H 0.33973 0.23461 0.72346
 C171 C 0.33844 0.18821 0.67208
 H172 H 0.37123 0.18644 0.67005
 N173 N 0.27946 0.21757 0.70631
 C174 C 0.18669 0.22112 0.80408
 H175 H 0.17489 0.25376 0.80242
 C176 C 0.16730 0.19033 0.83022
 H177 H 0.14019 0.19968 0.84762
 C178 C 0.23776 0.17030 0.78578
 H179 H 0.26556 0.16261 0.76889
 C180 C 0.22046 0.13932 0.81260
 H181 H 0.23514 0.10801 0.81533
 Zn182 Zn 0.25254 0.24992 0.74912
 N183 N 0.22094 0.21035 0.78191
 C184 C 0.18094 0.29246 0.71459
 N185 N 0.22216 0.29253 0.71895
 C186 C 0.24561 0.32097 0.69663
 C187 C 0.22798 0.35131 0.66926
 C188 C 0.16190 0.32240 0.68727
 C189 C 0.31656 0.24741 0.80747
 C190 C 0.34593 0.26298 0.83572
 C191 C 0.32182 0.33564 0.82224
 C192 C 0.29273 0.31860 0.79420
 N193 N 0.29102 0.27518 0.78691
 H194 H 0.16284 0.26822 0.73071
 H195 H 0.27836 0.31936 0.69941
 H196 H 0.24754 0.37329 0.65166
 H197 H 0.12920 0.32146 0.68372
 H198 H 0.31443 0.21301 0.80157
 H199 H 0.36612 0.24019 0.85139
 H200 H 0.32272 0.37026 0.82744
 H201 H 0.27146 0.34011 0.77856
 C202 C 0.18467 0.14889 0.83529
 C203 C 0.31351 0.16317 0.64520
 C204 C 0.34903 0.30762 0.84326
 C205 C 0.18564 0.35212 0.66391
 C206 C 0.75357 0.68264 0.69606
 H207 H 0.72085 0.68530 0.69856
 C208 C 0.77067 0.65371 0.66690
 H209 H 0.75071 0.63380 0.64760
 C210 C 0.81884 0.70715 0.71694
 H211 H 0.83740 0.72916 0.73539
 C212 C 0.83736 0.67852 0.68790
 H213 H 0.87014 0.67826 0.68505
 N214 N 0.77757 0.70861 0.72042
 C215 C 0.68832 0.75281 0.81501
 H216 H 0.69228 0.78734 0.81090
 C217 C 0.65963 0.73733 0.84422
 H218 H 0.64179 0.76050 0.86233
 C219 C 0.70718 0.68128 0.79613
 H220 H 0.72618 0.65959 0.77770
 C221 C 0.67871 0.66427 0.82505
 H222 H 0.67620 0.62946 0.82799
 Zn223 Zn 0.74850 0.75057 0.75268
 N224 N 0.71103 0.72488 0.79128
 C225 C 0.67929 0.78849 0.71083
 N226 N 0.72049 0.78454 0.71185
 C227 C 0.74459 0.80638 0.68377
 C228 C 0.72762 0.83504 0.65426
 C229 C 0.66093 0.81689 0.68164
 C230 C 0.81269 0.77397 0.81098
 C231 C 0.83235 0.80269 0.83900
 C232 C 0.78712 0.85942 0.81503
 C233 C 0.76922 0.83022 0.78688
 N234 N 0.78187 0.78828 0.78541
 H235 H 0.66065 0.77020 0.73296
 H236 H 0.77724 0.80232 0.68520
 H237 H 0.74753 0.85276 0.63279
 H238 H 0.62820 0.82030 0.68182
 H239 H 0.82115 0.74012 0.81067
 H240 H 0.85634 0.79093 0.85977
 H241 H 0.77573 0.89233 0.81650
 H242 H 0.74369 0.84076 0.76776
 C243 C 0.65420 0.69246 0.84951
 C244 C 0.81306 0.65164 0.66208
 C245 C 0.81879 0.84573 0.84173
 C246 C 0.68534 0.84107 0.65333
 C247 C 0.76955 0.17118 0.21375
 H248 H 0.74422 0.16014 0.23296
 C249 C 0.78759 0.14256 0.18508
 H250 H 0.77654 0.10955 0.18328
 C251 C 0.81230 0.22821 0.18997
 H252 H 0.82039 0.26216 0.19061
 C253 C 0.83212 0.20008 0.16143
 H254 H 0.85586 0.21235 0.14057
 N255 N 0.78178 0.21323 0.21563
 C256 C 0.67971 0.21181 0.29137
 H257 H 0.66094 0.23071 0.26994
 C258 C 0.66150 0.18292 0.32017
 H259 H 0.62875 0.17975 0.32033
 C260 C 0.74518 0.19300 0.31721
 H261 H 0.77783 0.19693 0.31544
 C262 C 0.72834 0.16383 0.34635
 H263 H 0.74834 0.14553 0.36719
 Zn264 Zn 0.74831 0.25012 0.24915
 N265 N 0.72091 0.21550 0.28986
 C266 C 0.68743 0.24768 0.18797
 N267 N 0.71018 0.27573 0.21143
 C268 C 0.70560 0.31934 0.20719
 C269 C 0.67625 0.33616 0.17925
 C270 C 0.65784 0.26302 0.15981
 C271 C 0.81843 0.29354 0.28456
 C272 C 0.83694 0.32190 0.31374
 C273 C 0.77023 0.34611 0.33567
 C274 C 0.75313 0.31745 0.30634
 N275 N 0.77716 0.29191 0.28147
 H276 H 0.69195 0.21317 0.19162
 H277 H 0.72461 0.34113 0.22539
 H278 H 0.67289 0.37091 0.17659
 H279 H 0.63983 0.23998 0.14182
 H280 H 0.83701 0.27183 0.26571
 H281 H 0.86974 0.32228 0.31629
 H282 H 0.75027 0.36569 0.35539
 H283 H 0.72041 0.31462 0.30413
 C284 C 0.68605 0.15800 0.34763
 C285 C 0.81897 0.15695 0.15830
 C286 C 0.81262 0.34831 0.34010
 C287 C 0.65174 0.30776 0.15532
 C288 C 0.29195 0.68149 0.20558
 H289 H 0.27214 0.65985 0.22311
 C290 C 0.31994 0.66450 0.17618
 H291 H 0.32148 0.62979 0.17181
 C292 C 0.31318 0.75295 0.18915
 H293 H 0.31026 0.78745 0.19431
 C294 C 0.34143 0.73742 0.15947
 H295 H 0.36017 0.76031 0.14201
 N296 N 0.28949 0.72503 0.21189
 C297 C 0.18097 0.70625 0.28439
 H298 H 0.16276 0.72925 0.26665
 C299 C 0.16193 0.67629 0.31178
 H300 H 0.12911 0.67609 0.31413
 C301 C 0.24583 0.68021 0.30503
 H302 H 0.27860 0.68269 0.30307
 C303 C 0.22821 0.64987 0.33245
 H304 H 0.24784 0.62881 0.35102
 Zn305 Zn 0.25221 0.75030 0.25105
 N306 N 0.22229 0.70756 0.28155
 C307 C 0.18889 0.77674 0.19294
 N308 N 0.21958 0.78975 0.21926
 C309 C 0.23244 0.83165 0.21945
 C310 C 0.21479 0.86216 0.19233
 C311 C 0.16954 0.80673 0.16590
 C312 C 0.32140 0.78624 0.29469
 C313 C 0.33969 0.81338 0.32501
 C314 C 0.27289 0.83023 0.35294
 C315 C 0.25608 0.80291 0.32221
 N316 N 0.28024 0.78235 0.29333
 H317 H 0.18025 0.74296 0.19195
 H318 H 0.25786 0.84119 0.23919
 H319 H 0.22629 0.89504 0.19224
 H320 H 0.14564 0.79594 0.14455
 H321 H 0.34011 0.76890 0.27192
 H322 H 0.37245 0.81633 0.32469
 H323 H 0.25249 0.84675 0.37484
 H324 H 0.22345 0.79888 0.32052
 C325 C 0.18576 0.64784 0.33654
 C326 C 0.34528 0.69266 0.15281
 C327 C 0.31530 0.83664 0.35434
 C328 C 0.18320 0.84982 0.16493
 O329 O 1.05890 0.07743 0.07783
 O330 O 1.10343 0.03744 0.03728
 C331 C 1.09538 0.06543 0.06714
 O332 O 0.94459 -0.07717 0.07490
 O333 O 0.90038 -0.03527 0.03593
 C334 C 0.90817 -0.06520 0.06398
 O335 O 1.05841 -0.07413 0.07883
 O336 O 1.10318 -0.03479 0.03790
 C337 C 1.09496 -0.06252 0.06803
 O338 O 0.94499 0.08178 0.07337
 O339 O 0.90059 0.03951 0.03515
 C340 C 0.90849 0.06980 0.06267
 Zr341 Zr 1.00206 0.05688 0.05304
 O342 O 0.99800 0.05968 0.12085
 O343 O 1.00424 0.12508 0.04747
 Zr344 Zr 1.00173 -0.05293 0.05421
 O345 O 0.99712 -0.05203 0.12207
 O346 O 1.00609 -0.12137 0.05440
 O347 O 1.03807 0.00188 0.06207
 O348 O 0.96673 0.00219 0.06164
 O349 O 0.94511 0.08102 -0.07539
 O350 O 0.90062 0.03896 -0.03676
 C351 C 0.90858 0.06906 -0.06463
 O352 O 1.05849 -0.07510 -0.07857
 O353 O 1.10324 -0.03539 -0.03823
 C354 C 1.09502 -0.06341 -0.06796
 O355 O 0.94464 -0.07826 -0.07442
 O356 O 0.90042 -0.03587 -0.03599
 C357 C 0.90820 -0.06615 -0.06360
 O358 O 1.05900 0.07658 -0.07991
 O359 O 1.10343 0.03643 -0.03939
 C360 C 1.09541 0.06415 -0.06955
 Zr361 Zr 1.00214 0.05601 -0.05507
 O362 O 0.99763 0.05547 -0.12292
 O363 O 1.00622 0.12445 -0.05483
 Zr364 Zr 1.00178 -0.05375 -0.05415
 O365 O 0.99728 -0.05412 -0.12201
 O366 O 1.00616 -0.12218 -0.05293
 Zr367 Zr 1.06273 0.00123 -0.00051
 Zr368 Zr 0.94160 0.00171 -0.00043
 O369 O 0.96678 0.00123 -0.06257
 O370 O 1.03816 0.00090 -0.06308
 O371 O 0.96572 0.06486 -0.00102
 O372 O 1.03725 -0.06130 0.00007
 O373 O 1.03787 0.06403 -0.00107
 O374 O 0.96540 -0.06168 0.00014
 H375 H 0.94841 0.00250 0.08694
 H376 H 1.05562 -0.08674 0.00028
 H377 H 0.94841 0.00116 -0.08777
 H378 H 1.05654 0.08921 -0.00135
 H379 H 0.98307 -0.13275 0.03741
 H380 H 0.98296 -0.13328 -0.03592
 H381 H 1.01993 -0.03644 -0.13342
 H382 H 1.02016 0.03742 -0.13402
 H383 H 0.98633 0.13521 -0.03347
 H384 H 1.00390 0.13646 0.07723
 H385 H 1.01793 0.03873 0.13244
 H386 H 1.02025 -0.03491 0.13314
 O387 O 1.05598 0.57344 0.58016
 O388 O 1.10017 0.53492 0.53781
 C389 C 1.09244 0.56190 0.56863
 O390 O 0.94133 0.42125 0.57653
 O391 O 0.89723 0.46238 0.53657
 C392 C 0.90488 0.43290 0.56518
 O393 O 1.05606 0.42506 0.57967
 O394 O 1.10013 0.46442 0.53789
 C395 C 1.09249 0.43693 0.56835
 O396 O 0.94173 0.57827 0.57669
 O397 O 0.89753 0.53718 0.53705
 C398 C 0.90526 0.56658 0.56560
 Zr399 Zr 0.99875 0.55505 0.55422
 O400 O 0.99759 0.56181 0.62180
 O401 O 1.00033 0.62302 0.54640
 Zr402 Zr 0.99866 0.44483 0.55489
 O403 O 0.99478 0.44376 0.62278
 O404 O 1.00305 0.37641 0.55324
 O405 O 1.03450 0.49990 0.56300
 O406 O 0.96364 0.49996 0.56252
 O407 O 0.94154 0.57846 0.42452
 O408 O 0.89731 0.53725 0.46436
 C409 C 0.90507 0.56673 0.43577
 O410 O 1.05614 0.42497 0.42117
 O411 O 1.10017 0.46421 0.46283
 C412 C 1.09257 0.43671 0.43246
 O413 O 0.94147 0.42116 0.42482
 O414 O 0.89733 0.46228 0.46471
 C415 C 0.90503 0.43284 0.43620
 O416 O 1.05611 0.57438 0.42076
 O417 O 1.10016 0.53501 0.46248
 C418 C 1.09254 0.56252 0.43200
 Zr419 Zr 0.99877 0.55476 0.44592
 O420 O 0.99453 0.55631 0.37809
 O421 O 1.00280 0.62318 0.44791
 Zr422 Zr 0.99876 0.44460 0.44630
 O423 O 0.99451 0.44248 0.37850
 O424 O 1.00329 0.37621 0.44897
 Zr425 Zr 1.05878 0.49971 0.50027
 Zr426 Zr 0.93835 0.49981 0.50046
 O427 O 0.96371 0.49970 0.43830
 O428 O 1.03469 0.49964 0.43758
 O429 O 0.96221 0.56317 0.50016
 O430 O 1.03414 0.43688 0.50058
 O431 O 1.03441 0.56266 0.50008
 O432 O 0.96228 0.43640 0.50065
 H433 H 0.94544 0.49985 0.58790
 H434 H 1.05302 0.41185 0.50062
 H435 H 0.94557 0.49970 0.41292
 H436 H 1.05344 0.58755 0.50009
 H437 H 0.97882 0.36538 0.53797
 H438 H 0.97852 0.36521 0.46339
 H439 H 1.01496 0.46288 0.36693
 H440 H 1.01539 0.53629 0.36671
 H441 H 0.97996 0.63376 0.46578
 H442 H 1.00145 0.63523 0.57579
 H443 H 0.99295 0.53261 0.63383
 H444 H 1.01632 0.46311 0.63387
 O445 O 0.55638 0.07477 0.57694
 O446 O 0.60050 0.03446 0.53630
 C447 C 0.59282 0.06309 0.56551
 O448 O 0.44170 -0.08099 0.57298
 O449 O 0.39779 -0.03905 0.53370
 C450 C 0.40536 -0.06963 0.56103
 O451 O 0.55635 -0.07709 0.57778
 O452 O 0.60044 -0.03700 0.53684
 C453 C 0.59277 -0.06546 0.56629
 O454 O 0.44169 0.07892 0.57186
 O455 O 0.39779 0.03647 0.53326
 C456 C 0.40534 0.06733 0.56019
 Zr457 Zr 0.49911 0.05378 0.55288
 O458 O 0.49455 0.05480 0.62072
 O459 O 0.50113 0.12213 0.54933
 Zr460 Zr 0.49912 -0.05588 0.55387
 O461 O 0.49404 -0.05351 0.62166
 O462 O 0.50363 -0.12424 0.55611
 O463 O 0.53530 -0.00102 0.56188
 O464 O 0.46371 -0.00100 0.56107
 O465 O 0.44224 0.07926 0.42590
 O466 O 0.39798 0.03620 0.46362
 C467 C 0.40576 0.06742 0.43704
 O468 O 0.55702 -0.07744 0.42122
 O469 O 0.60083 -0.03752 0.46250
 C470 C 0.59336 -0.06601 0.43311
 O471 O 0.44234 -0.08171 0.42520
 O472 O 0.39814 -0.03961 0.46395
 C473 C 0.40589 -0.07034 0.43689
 O474 O 0.55695 0.07481 0.42101
 O475 O 0.60074 0.03425 0.46189
 C476 C 0.59329 0.06302 0.43266
 Zr477 Zr 0.49963 0.05289 0.44387
 O478 O 0.50169 0.04700 0.37604
 O479 O 0.50172 0.12117 0.43937
 Zr480 Zr 0.49955 -0.05647 0.44471
 O481 O 0.49569 -0.05509 0.37683
 O482 O 0.50410 -0.12486 0.44385
 Zr483 Zr 0.55955 -0.00144 0.49917
 Zr484 Zr 0.43932 -0.00150 0.49868
 O485 O 0.46399 -0.00173 0.43635
 O486 O 0.53596 -0.00184 0.43631
 O487 O 0.46348 0.06166 0.49825
 O488 O 0.53443 -0.06414 0.49946
 O489 O 0.53459 0.06126 0.49851
 O490 O 0.46344 -0.06474 0.49923
 H491 H 0.44479 -0.00082 0.58587
 H492 H 0.55275 -0.08963 0.49968
 H493 H 0.44498 -0.00183 0.41170
 H494 H 0.55283 0.08679 0.49850
 H495 H 0.48306 -0.13594 0.53612
 H496 H 0.48279 -0.13630 0.46322
 H497 H 0.51748 -0.03567 0.36631
 H498 H 0.47358 0.04763 0.36481
 H499 H 0.49187 0.13242 0.46725
 H500 H 0.50071 0.13262 0.57940
 H501 H 0.51649 0.03611 0.63208
 H502 H 0.51845 -0.03855 0.63274
 O503 O 0.42836 0.43981 -0.07842
 O504 O 0.46591 0.39225 -0.03800
 C505 C 0.43910 0.40088 -0.06731
 O506 O 0.57459 0.56128 -0.07478
 O507 O 0.53533 0.60881 -0.03612
 C508 C 0.56390 0.60023 -0.06360
 O509 O 0.57113 0.43956 -0.07886
 O510 O 0.53440 0.39181 -0.03764
 C511 C 0.56087 0.40055 -0.06738
 O512 O 0.42489 0.56118 -0.07374
 O513 O 0.46463 0.60878 -0.03591
 C514 C 0.43577 0.60014 -0.06291
 Zr515 Zr 0.44908 0.50030 -0.05511
 O516 O 0.45594 0.50195 -0.12259
 O517 O 0.38505 0.49958 -0.06130
 Zr518 Zr 0.55142 0.50032 -0.05487
 O519 O 0.55051 0.50466 -0.12275
 O520 O 0.61563 0.49569 -0.05567
 O521 O 0.50025 0.46144 -0.06326
 O522 O 0.50016 0.53828 -0.06283
 O523 O 0.42502 0.56038 0.07434
 O524 O 0.46413 0.60784 0.03562
 C525 C 0.43562 0.59928 0.06315
 O526 O 0.57064 0.43935 0.07798
 O527 O 0.53418 0.39172 0.03661
 C528 C 0.56045 0.40038 0.06643
 O529 O 0.57425 0.56113 0.07383
 O530 O 0.53523 0.60870 0.03492
 C531 C 0.56364 0.60008 0.06251
 O532 O 0.42875 0.43949 0.07806
 O533 O 0.46576 0.39210 0.03701
 C534 C 0.43924 0.40060 0.06671
 Zr535 Zr 0.44874 0.49999 0.05388
 O536 O 0.45327 0.50171 0.12158
 O537 O 0.38448 0.49631 0.05555
 Zr538 Zr 0.55127 0.50022 0.05385
 O539 O 0.55031 0.50422 0.12173
 O540 O 0.61549 0.49556 0.05443
 Zr541 Zr 0.50017 0.43566 -0.00052
 Zr542 Zr 0.50003 0.56460 -0.00057
 O543 O 0.49991 0.53796 0.06164
 O544 O 0.50002 0.46130 0.06214
 O545 O 0.44081 0.53850 -0.00059
 O546 O 0.55890 0.46272 -0.00048
 O547 O 0.44144 0.46258 -0.00059
 O548 O 0.55938 0.53878 -0.00053
 H549 H 0.50010 0.55827 -0.08779
 H550 H 0.58288 0.44328 -0.00046
 H551 H 0.49988 0.55766 0.08675
 H552 H 0.41756 0.44304 -0.00039
 H553 H 0.62630 0.51891 -0.03696
 H554 H 0.62620 0.51922 0.03620
 H555 H 0.53036 0.48262 0.13215
 H556 H 0.42498 0.50170 0.13260
 H557 H 0.37399 0.51830 0.03521
 H558 H 0.37381 0.49111 -0.03308
 H559 H 0.42805 0.50324 -0.13450
 H560 H 0.53206 0.48173 -0.13334
 N561 N 1.16583 0.06611 0.09000
 N562 N 1.19017 0.08792 0.11595
 C563 C 1.16797 0.12042 0.13298
 C564 C 1.12899 0.11781 0.11665
 N565 N 1.12902 0.08342 0.09006
 H566 H 1.10308 0.13814 0.12402
 N567 N 1.16449 0.56714 0.58379
 N568 N 1.18984 0.58841 0.60904
 C569 C 1.16726 0.61522 0.63363
 C570 C 1.12681 0.60956 0.62246
 N571 N 1.12658 0.57935 0.59124
 H572 H 1.10031 0.62592 0.63518
 N573 N 0.66514 0.07351 0.57541
 N574 N 0.69064 0.09829 0.59708
 C575 C 0.66795 0.12506 0.62156
 C576 C 0.62735 0.11567 0.61421
 N577 N 0.62710 0.08335 0.58526
 H578 H 0.60071 0.13091 0.62794
 N579 N 0.57670 0.67693 0.07288
 N580 N 0.60063 0.70249 0.09575
 C581 C 0.62446 0.67658 0.12004
 C582 C 0.61423 0.63408 0.11121
 N583 N 0.58440 0.63582 0.08175
 H584 H 0.62689 0.60476 0.12482
 N585 N 0.83688 -0.06921 0.08320
 N586 N 0.81235 -0.09168 0.10851
 C587 C 0.83507 -0.12295 0.12700
 C588 C 0.87451 -0.11896 0.11222
 N589 N 0.87426 -0.08494 0.08507
 H590 H 0.90090 -0.13780 0.12136
 N591 N 0.83256 0.42328 0.57652
 N592 N 0.80709 0.40139 0.60127
 C593 C 0.82960 0.37621 0.62769
 C594 C 0.87035 0.38363 0.61789
 N595 N 0.87060 0.41311 0.58585
 H596 H 0.89713 0.36956 0.63248
 N597 N 0.33332 -0.08531 0.56598
 N598 N 0.30807 -0.11073 0.58745
 C599 C 0.33082 -0.13477 0.61455
 C600 C 0.37112 -0.12314 0.60895
 N601 N 0.37120 -0.09221 0.57848
 H602 H 0.39769 -0.13539 0.62547
 N603 N 0.42858 0.32367 0.07971
 N604 N 0.40509 0.29794 0.10307
 C605 C 0.38047 0.32366 0.12666
 C606 C 0.38985 0.36626 0.11695
 N607 N 0.41992 0.36475 0.08762
 H608 H 0.37613 0.39549 0.12950
 N609 N 0.83724 0.07347 -0.08314
 N610 N 0.81263 0.09557 -0.10862
 C611 C 0.83532 0.12634 -0.12796
 C612 C 0.87489 0.12241 -0.11350
 N613 N 0.87468 0.08890 -0.08568
 H614 H 0.90130 0.14085 -0.12337
 N615 N 0.83280 0.57658 0.42411
 N616 N 0.80765 0.59801 0.39865
 C617 C 0.83062 0.62232 0.37194
 C618 C 0.87109 0.61508 0.38214
 N619 N 0.87096 0.58639 0.41483
 H620 H 0.89791 0.62874 0.36717
 N621 N 0.33373 0.08293 0.43173
 N622 N 0.30849 0.10822 0.41016
 C623 C 0.33119 0.13258 0.38312
 C624 C 0.37168 0.12120 0.38918
 N625 N 0.37167 0.09016 0.41958
 H626 H 0.39847 0.13349 0.37306
 N627 N 0.42271 0.67701 -0.07367
 N628 N 0.39887 0.70255 -0.09681
 C629 C 0.37493 0.67659 -0.12079
 C630 C 0.38497 0.63410 -0.11150
 N631 N 0.41481 0.63588 -0.08207
 H632 H 0.37234 0.60475 -0.12496
 N633 N 1.16541 -0.06487 -0.09125
 N634 N 1.18946 -0.08718 -0.11717
 C635 C 1.16691 -0.11967 -0.13361
 C636 C 1.12807 -0.11653 -0.11700
 N637 N 1.12850 -0.08187 -0.09081
 H638 H 1.10199 -0.13672 -0.12392
 N639 N 1.16475 0.43070 0.41816
 N640 N 1.19036 0.40906 0.39342
 C641 C 1.16803 0.38224 0.36870
 C642 C 1.12741 0.38830 0.37928
 N643 N 1.12687 0.41875 0.41030
 H644 H 1.10102 0.37207 0.36626
 N645 N 0.66571 -0.07744 0.42431
 N646 N 0.69121 -0.10216 0.40247
 C647 C 0.66853 -0.12797 0.37707
 C648 C 0.62799 -0.11808 0.38402
 N649 N 0.62772 -0.08643 0.41365
 H650 H 0.60137 -0.13247 0.36948
 N651 N 0.57233 0.32373 -0.08000
 N652 N 0.59615 0.29823 -0.10318
 C653 C 0.62042 0.32418 -0.12697
 C654 C 0.61050 0.36668 -0.11758
 N655 N 0.58046 0.36488 -0.08823
 H656 H 0.62393 0.39604 -0.13026
 N657 N 1.16341 0.05946 -0.09902
 N658 N 1.18774 0.08098 -0.12533
 C659 C 1.16808 0.11761 -0.13696
 C660 C 1.13047 0.11765 -0.11681
 N661 N 1.12895 0.08084 -0.09361
 H662 H 1.10628 0.14130 -0.11933
 N663 N 1.16468 0.56829 0.41724
 N664 N 1.19016 0.58995 0.39231
 C665 C 1.16771 0.61693 0.36776
 C666 C 1.12717 0.61095 0.37864
 N667 N 1.12678 0.58039 0.40965
 H668 H 1.10071 0.62731 0.36582
 N669 N 0.66567 0.07386 0.42342
 N670 N 0.69122 0.09877 0.40179
 C671 C 0.66856 0.12530 0.37700
 C672 C 0.62799 0.11565 0.38410
 N673 N 0.62768 0.08343 0.41321
 H674 H 0.60138 0.13061 0.37003
 N675 N 0.57675 0.67710 -0.07434
 N676 N 0.60067 0.70273 -0.09730
 C677 C 0.62480 0.67695 -0.12144
 C678 C 0.61469 0.63435 -0.11232
 N679 N 0.58469 0.63601 -0.08294
 H680 H 0.62747 0.60497 -0.12562
 N681 N 0.83683 -0.07047 -0.08208
 N682 N 0.81223 -0.09283 -0.10726
 C683 C 0.83493 -0.12389 -0.12607
 C684 C 0.87445 -0.11989 -0.11161
 N685 N 0.87425 -0.08605 -0.08433
 H686 H 0.90086 -0.13853 -0.12114
 N687 N 0.83273 0.42285 0.42527
 N688 N 0.80739 0.40140 0.40015
 C689 C 0.83019 0.37721 0.37322
 C690 C 0.87074 0.38454 0.38294
 N691 N 0.87082 0.41317 0.41558
 H692 H 0.89745 0.37096 0.36772
 N693 N 0.33393 -0.08621 0.43204
 N694 N 0.30866 -0.11127 0.41037
 C695 C 0.33125 -0.13495 0.38270
 C696 C 0.37172 -0.12339 0.38849
 N697 N 0.37180 -0.09293 0.41936
 H698 H 0.39844 -0.13522 0.37191
 N699 N 0.42907 0.32404 -0.08073
 N700 N 0.40561 0.29830 -0.10396
 C701 C 0.38040 0.32402 -0.12683
 C702 C 0.38935 0.36660 -0.11685
 N703 N 0.41979 0.36508 -0.08807
 H704 H 0.37520 0.39582 -0.12896
 N705 N 1.16533 -0.06364 0.09119
 N706 N 1.18951 -0.08582 0.11709
 C707 C 1.16714 -0.11837 0.13385
 C708 C 1.12823 -0.11539 0.11743
 N709 N 1.12846 -0.08076 0.09104
 H710 H 1.10225 -0.13572 0.12453
 N711 N 1.16457 0.43162 0.58328
 N712 N 1.19005 0.41012 0.60828
 C713 C 1.16763 0.38289 0.63263
 C714 C 1.12713 0.38855 0.62157
 N715 N 1.12672 0.41917 0.59066
 H716 H 1.10070 0.37201 0.63427
 N717 N 0.66507 -0.07621 0.57599
 N718 N 0.69054 -0.10068 0.59815
 C719 C 0.66781 -0.12677 0.62337
 C720 C 0.62725 -0.11729 0.61598
 N721 N 0.62703 -0.08561 0.58624
 H722 H 0.60060 -0.13202 0.63024
 N723 N 0.57173 0.32354 0.07910
 N724 N 0.59562 0.29796 0.10211
 C725 C 0.61999 0.32388 0.12566
 C726 C 0.61006 0.36639 0.11634
 N727 N 0.57992 0.36465 0.08724
 H728 H 0.62359 0.39571 0.12883
 N729 N 0.83704 0.07460 0.08066
 N730 N 0.81238 0.09672 0.10604
 C731 C 0.83513 0.12724 0.12552
 C732 C 0.87476 0.12316 0.11126
 N733 N 0.87455 0.08981 0.08342
 H734 H 0.90121 0.14133 0.12135
 N735 N 0.83299 0.57608 0.57760
 N736 N 0.80774 0.59767 0.60282
 C737 C 0.83059 0.62235 0.62915
 C738 C 0.87112 0.61516 0.61895
 N739 N 0.87111 0.58612 0.58665
 H740 H 0.89786 0.62917 0.63360
 N741 N 0.33315 0.08212 0.56609
 N742 N 0.30787 0.10728 0.58777
 C743 C 0.33071 0.13194 0.61414
 C744 C 0.37109 0.12096 0.60785
 N745 N 0.37113 0.08978 0.57773
 H746 H 0.39773 0.13367 0.62382
 N747 N 0.42304 0.67618 0.07387
 N748 N 0.39954 0.70193 0.09715
 C749 C 0.37563 0.67622 0.12159
 C750 C 0.38537 0.63361 0.11241
 N751 N 0.41500 0.63511 0.08259
 H752 H 0.37262 0.60438 0.12614
   
