data_POSCAR
  _audit_creation_date              2014-09-24
  _audit_creation_method            'ToBaCCo'
  _symmetry_space_group_name_H-M    'P1'
  _symmetry_Int_Tables_number       1
  _symmetry_cell_setting            triclinic
  loop_
  _symmetry_equiv_pos_as_xyz
 x,y,z
_cell_length_a 59.1801
_cell_length_b 59.2750
_cell_length_c 22.4788
_cell_angle_alpha 90.018600
_cell_angle_beta 90.019900
_cell_angle_gamma 119.994500
loop_
  _atom_site_label
  _atom_site_type_symbol
  _atom_site_fract_x
  _atom_site_fract_y
  _atom_site_fract_z
C1 C 0.18378 0.46429 0.44618
 C2 C 0.17238 0.46449 0.50042
 C3 C 0.18395 0.46441 0.55453
 C4 C 0.20760 0.46391 0.55503
 C5 C 0.21937 0.46361 0.50019
 C6 C 0.20743 0.46379 0.44546
 C7 C 0.21955 0.46368 0.39172
 C8 C 0.24303 0.46359 0.39164
 C9 C 0.25527 0.46361 0.44525
 C10 C 0.24332 0.46352 0.50008
 C11 C 0.21989 0.46392 0.60864
 C12 C 0.24338 0.46385 0.60851
 C13 C 0.25549 0.46374 0.55476
 C14 C 0.27957 0.46408 0.55392
 C15 C 0.29102 0.46407 0.49959
 C16 C 0.27928 0.46393 0.44564
 H17 H 0.21098 0.46373 0.34920
 H18 H 0.25158 0.46358 0.34907
 H19 H 0.21144 0.46407 0.65126
 H20 H 0.25205 0.46394 0.65101
 H21 H 0.15433 0.46514 0.50054
 H22 H 0.30964 0.46459 0.49916
 C23 C 0.53571 -0.18536 0.55403
 C24 C 0.53563 -0.17387 0.49992
 C25 C 0.53575 -0.18536 0.44581
 C26 C 0.53614 -0.20898 0.44514
 C27 C 0.53631 -0.22086 0.49985
 C28 C 0.53611 -0.20899 0.55461
 C29 C 0.53608 -0.22116 0.60827
 C30 C 0.53607 -0.24466 0.60826
 C31 C 0.53607 -0.25688 0.55456
 C32 C 0.53629 -0.24482 0.49979
 C33 C 0.53614 -0.22112 0.39143
 C34 C 0.53613 -0.24462 0.39132
 C35 C 0.53610 -0.25686 0.44497
 C36 C 0.53567 -0.28094 0.44554
 C37 C 0.53555 -0.29254 0.49971
 C38 C 0.53565 -0.28094 0.55390
 H39 H 0.53600 -0.21260 0.65078
 H40 H 0.53598 -0.25325 0.65082
 H41 H 0.53609 -0.21254 0.34894
 H42 H 0.53606 -0.25319 0.34873
 H43 H 0.53505 -0.15585 0.49992
 H44 H 0.53496 -0.31117 0.49970
 C45 C 1.18473 0.72067 0.44670
 C46 C 1.17315 0.70894 0.50062
 C47 C 1.18457 0.72040 0.55498
 C48 C 1.20826 0.74449 0.55589
 C49 C 1.22019 0.75666 0.50124
 C50 C 1.20836 0.74469 0.44638
 C51 C 1.22056 0.75693 0.39280
 C52 C 1.24408 0.78042 0.39295
 C53 C 1.25628 0.79256 0.44672
 C54 C 1.24418 0.78062 0.50142
 C55 C 1.22043 0.75662 0.60967
 C56 C 1.24395 0.78012 0.60987
 C57 C 1.25621 0.79241 0.55629
 C58 C 1.28030 0.81607 0.55586
 C59 C 1.29194 0.82764 0.50179
 C60 C 1.28038 0.81622 0.44752
 H61 H 1.21203 0.74836 0.35021
 H62 H 1.25270 0.78899 0.35045
 H63 H 1.21187 0.74795 0.65214
 H64 H 1.25252 0.78858 0.65251
 H65 H 1.15510 0.69032 0.50014
 H66 H 1.31059 0.84569 0.50196
 C67 C 0.72007 0.53591 0.55580
 C68 C 0.70850 0.53587 0.50159
 C69 C 0.72017 0.53606 0.44751
 C70 C 0.74424 0.53650 0.44690
 C71 C 0.75629 0.53662 0.50164
 C72 C 0.74419 0.53633 0.55643
 C73 C 0.75642 0.53626 0.61007
 C74 C 0.77996 0.53628 0.60997
 C75 C 0.79219 0.53637 0.55623
 C76 C 0.78029 0.53664 0.50154
 C77 C 0.75643 0.53658 0.39318
 C78 C 0.77997 0.53661 0.39308
 C79 C 0.79217 0.53655 0.44670
 C80 C 0.81583 0.53617 0.44712
 C81 C 0.82737 0.53597 0.50111
 C82 C 0.81589 0.53597 0.55541
 H83 H 0.74780 0.53612 0.65265
 H84 H 0.78850 0.53614 0.65248
 H85 H 0.74780 0.53656 0.35068
 H86 H 0.78853 0.53661 0.35052
 H87 H 0.68985 0.53527 0.50135
 H88 H 0.84544 0.53541 0.50073
 C89 C 0.46393 0.18437 0.44743
 C90 C 0.46404 0.17296 0.50166
 C91 C 0.46396 0.18454 0.55567
 C92 C 0.46359 0.20819 0.55607
 C93 C 0.46339 0.21996 0.50121
 C94 C 0.46355 0.20800 0.44658
 C95 C 0.46354 0.22007 0.39277
 C96 C 0.46356 0.24358 0.39252
 C97 C 0.46360 0.25586 0.44607
 C98 C 0.46343 0.24392 0.50098
 C99 C 0.46365 0.22045 0.60963
 C100 C 0.46370 0.24397 0.60943
 C101 C 0.46369 0.25610 0.55562
 C102 C 0.46414 0.28019 0.55467
 C103 C 0.46420 0.29164 0.50030
 C104 C 0.46403 0.27989 0.44636
 H105 H 0.46358 0.21144 0.35035
 H106 H 0.46362 0.25212 0.34991
 H107 H 0.46374 0.21196 0.65222
 H108 H 0.46382 0.25266 0.65190
 H109 H 0.46460 0.15493 0.50182
 H110 H 0.46481 0.31026 0.49984
 C111 C 0.72060 0.18488 0.44715
 C112 C 0.70898 0.17343 0.50126
 C113 C 0.72057 0.18496 0.55539
 C114 C 0.74461 0.20860 0.55604
 C115 C 0.75669 0.22043 0.50131
 C116 C 0.74464 0.20852 0.44655
 C117 C 0.75682 0.22065 0.39287
 C118 C 0.78033 0.24417 0.39286
 C119 C 0.79251 0.25639 0.44654
 C120 C 0.78065 0.24439 0.50132
 C121 C 0.75675 0.22080 0.60973
 C122 C 0.78027 0.24431 0.60977
 C123 C 0.79252 0.25650 0.55608
 C124 C 0.81620 0.28058 0.55537
 C125 C 0.82766 0.29210 0.50112
 C126 C 0.81613 0.28042 0.44707
 H127 H 0.74819 0.21207 0.35035
 H128 H 0.78889 0.25276 0.35033
 H129 H 0.74810 0.21227 0.65223
 H130 H 0.78879 0.25295 0.65233
 H131 H 0.69036 0.15539 0.50125
 H132 H 0.84571 0.31073 0.50082
 N133 N 0.97298 0.52698 0.06330
 N134 N 0.95456 0.53280 0.07465
 N135 N 1.02786 0.53851 0.10385
 N136 N 1.04634 0.55139 0.14348
 N137 N 1.02784 0.55440 0.06323
 N138 N 1.04628 0.57861 0.07439
 N139 N 0.97302 0.51109 0.10391
 N140 N 0.95463 0.50557 0.14369
 C141 C 0.94312 0.51907 0.12476
 C142 C 1.05781 0.57636 0.12442
 N143 N 1.02795 0.47410 0.06364
 N144 N 1.04627 0.46818 0.07529
 N145 N 0.97308 0.46264 0.10411
 N146 N 0.95469 0.44981 0.14388
 N147 N 0.97308 0.44668 0.06360
 N148 N 0.95470 0.42248 0.07499
 N149 N 1.02793 0.49006 0.10412
 N150 N 1.04625 0.49552 0.14412
 Mn151 Mn 1.00048 0.50058 0.10452
 C152 C 1.05769 0.48192 0.12545
 C153 C 0.94323 0.42480 0.12504
 N154 N 1.02780 0.55433 -0.06530
 N155 N 1.04615 0.57854 -0.07677
 N156 N 0.97294 0.51093 -0.10576
 N157 N 0.95448 0.50532 -0.14546
 N158 N 0.97293 0.52687 -0.06523
 N159 N 0.95447 0.53263 -0.07651
 N160 N 1.02780 0.53837 -0.10582
 N161 N 1.04616 0.55122 -0.14568
 Mn162 Mn 1.00039 0.54093 -0.00100
 C163 C 1.05760 0.57624 -0.12687
 C164 C 0.94296 0.51882 -0.12653
 N165 N 0.97304 0.44658 -0.06494
 N166 N 0.95462 0.42236 -0.07617
 N167 N 1.02786 0.48991 -0.10556
 N168 N 1.04633 0.49550 -0.14518
 N169 N 1.02790 0.47403 -0.06492
 N170 N 1.04638 0.46828 -0.07606
 N171 N 0.97301 0.46247 -0.10557
 N172 N 0.95457 0.44958 -0.14526
 Mn173 Mn 1.00049 0.46006 -0.00066
 Mn174 Mn 1.00040 0.50042 -0.10621
 Cl175 Cl 1.00044 0.50050 -0.00084
 C176 C 0.94311 0.42460 -0.12624
 C177 C 1.05787 0.48204 -0.12610
 N178 N 0.53763 0.51046 0.10383
 N179 N 0.55047 0.50494 0.14369
 N180 N 0.52613 0.55376 0.06324
 N181 N 0.53204 0.57797 0.07485
 N182 N 0.51014 0.53778 0.10367
 N183 N 0.50464 0.55061 0.14360
 N184 N 0.55362 0.52641 0.06338
 N185 N 0.57786 0.53228 0.07489
 C186 C 0.57553 0.51851 0.12496
 C187 C 0.51825 0.57563 0.12493
 N188 N 0.51035 0.53785 -0.10601
 N189 N 0.50476 0.55068 -0.14569
 N190 N 0.55375 0.52646 -0.06516
 N191 N 0.57801 0.53229 -0.07626
 N192 N 0.53785 0.51053 -0.10583
 N193 N 0.55078 0.50500 -0.14545
 N194 N 0.52625 0.55378 -0.06532
 N195 N 0.53200 0.57796 -0.07650
 Mn196 Mn 0.54022 0.54039 -0.00097
 C197 C 0.51823 0.57566 -0.12660
 C198 C 0.57579 0.51854 -0.12632
 N199 N 0.46163 0.48927 0.10325
 N200 N 0.44872 0.49484 0.14281
 N201 N 0.47320 0.44600 0.06281
 N202 N 0.46740 0.42181 0.07411
 N203 N 0.48911 0.46194 0.10346
 N204 N 0.49465 0.44910 0.14325
 N205 N 0.44572 0.47334 0.06259
 N206 N 0.42147 0.46755 0.07365
 Mn207 Mn 0.49962 0.49986 0.10408
 C208 C 0.42371 0.48132 0.12367
 C209 C 0.48114 0.42411 0.12426
 N210 N 0.48931 0.46201 -0.10620
 N211 N 0.49493 0.44918 -0.14589
 N212 N 0.44583 0.47338 -0.06595
 N213 N 0.42158 0.46750 -0.07750
 N214 N 0.46182 0.48933 -0.10642
 N215 N 0.44896 0.49482 -0.14633
 N216 N 0.47333 0.44605 -0.06572
 N217 N 0.46755 0.42186 -0.07704
 Mn218 Mn 0.49984 0.49993 -0.10665
 Mn219 Mn 0.45924 0.45941 -0.00157
 Cl220 Cl 0.49973 0.49990 -0.00128
 C221 C 0.48139 0.42418 -0.12701
 C222 C 0.42390 0.48124 -0.12761
 N223 N 0.44587 -0.02798 0.06542
 N224 N 0.42163 -0.04629 0.07706
 N225 N 0.48922 0.02683 0.10596
 N226 N 0.49479 0.04523 0.14572
 N227 N 0.47322 0.02680 0.06547
 N228 N 0.46738 0.04517 0.07683
 N229 N 0.46190 -0.02794 0.10589
 N230 N 0.44908 -0.04623 0.14585
 C231 C 0.42400 -0.05768 0.12718
 C232 C 0.48119 0.05666 0.12685
 N233 N 0.55379 0.02699 0.06502
 N234 N 0.57802 0.04544 0.07625
 N235 N 0.51052 -0.02782 0.10552
 N236 N 0.50493 -0.04630 0.14501
 N237 N 0.52645 -0.02778 0.06485
 N238 N 0.53222 -0.04623 0.07581
 N239 N 0.53784 0.02694 0.10567
 N240 N 0.55071 0.04536 0.14539
 Mn241 Mn 0.49987 -0.00050 0.10629
 C242 C 0.57573 0.05689 0.12636
 C243 C 0.51844 -0.05777 0.12580
 N244 N 0.47311 0.02682 -0.06305
 N245 N 0.46729 0.04522 -0.07414
 N246 N 0.46174 -0.02790 -0.10381
 N247 N 0.44888 -0.04635 -0.14347
 N248 N 0.44579 -0.02796 -0.06314
 N249 N 0.42157 -0.04643 -0.07430
 N250 N 0.48905 0.02686 -0.10371
 N251 N 0.49460 0.04530 -0.14329
 Mn252 Mn 0.45922 -0.00058 0.00117
 C253 C 0.48105 0.05674 -0.12417
 C254 C 0.42387 -0.05789 -0.12438
 N255 N 0.52636 -0.02777 -0.06367
 N256 N 0.53226 -0.04610 -0.07515
 N257 N 0.53769 0.02698 -0.10401
 N258 N 0.55050 0.04544 -0.14364
 N259 N 0.55368 0.02702 -0.06349
 N260 N 0.57789 0.04548 -0.07471
 N261 N 0.51036 -0.02779 -0.10417
 N262 N 0.50485 -0.04614 -0.14403
 Mn263 Mn 0.54035 -0.00039 0.00068
 Mn264 Mn 0.49971 -0.00046 -0.10446
 Cl265 Cl 0.49979 -0.00048 0.00092
 C266 C 0.51848 -0.05755 -0.12525
 C267 C 0.57554 0.05696 -0.12468
 C268 C 1.10785 0.49441 0.24404
 C269 C 1.11517 0.47599 0.22977
 C270 C 1.10471 0.46033 0.17916
 C271 C 1.08652 0.46272 0.14376
 C272 C 1.17165 0.46559 0.39551
 C273 C 1.08967 0.49675 0.20899
 C274 C 1.13204 0.47230 0.26985
 C275 C 1.14539 0.46969 0.30663
 C276 C 1.16005 0.46721 0.35312
 C277 C 1.07851 0.48068 0.15903
 H278 H 1.11574 0.50657 0.28317
 H279 H 1.11015 0.44591 0.16786
 H280 H 1.07821 0.45008 0.10553
 H281 H 1.08396 0.51082 0.22174
 C282 C 0.50562 0.61321 0.24328
 C283 C 0.52405 0.63895 0.22904
 C284 C 0.53977 0.64416 0.17853
 C285 C 0.53742 0.62360 0.14319
 C286 C 0.53438 0.70570 0.39479
 C287 C 0.50332 0.59271 0.20830
 C288 C 0.52772 0.65948 0.26908
 C289 C 0.53031 0.67542 0.30585
 C290 C 0.53277 0.69252 0.35235
 C291 C 0.51945 0.59766 0.15844
 H292 H 0.49342 0.60893 0.28235
 H293 H 0.55420 0.66401 0.16724
 H294 H 0.55009 0.62794 0.10503
 H295 H 0.48924 0.57295 0.22103
 C296 C 0.35540 -0.10472 0.18077
 C297 C 0.36065 -0.11515 0.23135
 C298 C 0.38644 -0.10778 0.24565
 C299 C 0.40695 -0.08960 0.21066
 C300 C 0.29380 -0.17165 0.39689
 C301 C 0.37597 -0.08653 0.14542
 C302 C 0.34010 -0.13202 0.27137
 C303 C 0.32415 -0.14538 0.30810
 C304 C 0.30702 -0.16004 0.35453
 C305 C 0.40197 -0.07849 0.16072
 H306 H 0.33551 -0.11020 0.16944
 H307 H 0.39075 -0.11564 0.28477
 H308 H 0.42676 -0.08386 0.22342
 H309 H 0.37160 -0.07826 0.10721
 C310 C 0.89266 0.50632 0.24258
 C311 C 0.88529 0.52470 0.22817
 C312 C 0.89581 0.54040 0.17769
 C313 C 0.91412 0.53809 0.14256
 C314 C 0.82860 0.53489 0.39346
 C315 C 0.91096 0.50407 0.20781
 C316 C 0.86836 0.52833 0.26807
 C317 C 0.85495 0.53090 0.30475
 C318 C 0.84025 0.53332 0.35115
 C319 C 0.92217 0.52019 0.15799
 H320 H 0.88473 0.49414 0.28163
 H321 H 0.89033 0.55477 0.16630
 H322 H 0.92248 0.55076 0.10443
 H323 H 0.91670 0.49005 0.22066
 C324 C 0.49394 0.38647 0.24204
 C325 C 0.47559 0.36074 0.22749
 C326 C 0.45988 0.35555 0.17694
 C327 C 0.46217 0.37614 0.14187
 C328 C 0.46534 0.29390 0.39266
 C329 C 0.49618 0.40700 0.20734
 C330 C 0.47196 0.34018 0.26732
 C331 C 0.46939 0.32422 0.30396
 C332 C 0.46695 0.30710 0.35033
 C333 C 0.48005 0.40208 0.15745
 H334 H 0.50613 0.39073 0.28116
 H335 H 0.44551 0.33571 0.16543
 H336 H 0.44949 0.37182 0.10368
 H337 H 0.51019 0.42676 0.22030
 C338 C 0.61348 0.10746 0.24390
 C339 C 0.63925 0.11495 0.22918
 C340 C 0.64442 0.10446 0.17861
 C341 C 0.62378 0.08606 0.14369
 C342 C 0.70646 0.17204 0.39363
 C343 C 0.59290 0.08908 0.20935
 C344 C 0.65989 0.13201 0.26882
 C345 C 0.67593 0.14551 0.30529
 C346 C 0.69316 0.16032 0.35147
 C347 C 0.59780 0.07789 0.15943
 H348 H 0.60924 0.11538 0.28303
 H349 H 0.66430 0.11003 0.16696
 H350 H 0.62808 0.07773 0.10548
 H351 H 0.57311 0.08325 0.22243
 C352 C 0.49387 0.10742 -0.24127
 C353 C 0.47554 0.11483 -0.22647
 C354 C 0.45984 0.10424 -0.17599
 C355 C 0.46210 0.08584 -0.14125
 C356 C 0.46530 0.17181 -0.39071
 C357 C 0.49608 0.08903 -0.20688
 C358 C 0.47194 0.13188 -0.26599
 C359 C 0.46937 0.14537 -0.30238
 C360 C 0.46692 0.16014 -0.34853
 C361 C 0.47996 0.07775 -0.15707
 H362 H 0.50606 0.11541 -0.28033
 H363 H 0.44550 0.10975 -0.16430
 H364 H 0.44944 0.07743 -0.10310
 H365 H 0.51008 0.08327 -0.22002
 C366 C 0.61372 0.50579 -0.24357
 C367 C 0.63946 0.52413 -0.22881
 C368 C 0.64456 0.53982 -0.17830
 C369 C 0.62386 0.53752 -0.14348
 C370 C 0.70665 0.53455 -0.39353
 C371 C 0.59309 0.50355 -0.20910
 C372 C 0.66013 0.52779 -0.26843
 C373 C 0.67618 0.53039 -0.30492
 C374 C 0.69339 0.53289 -0.35120
 C375 C 0.59792 0.51965 -0.15926
 H376 H 0.60954 0.49362 -0.28266
 H377 H 0.66441 0.55418 -0.16665
 H378 H 0.62811 0.55017 -0.10532
 H379 H 0.57333 0.48954 -0.22222
 C380 C 0.89247 0.38678 -0.24374
 C381 C 0.88509 0.36107 -0.22909
 C382 C 0.89567 0.35597 -0.17857
 C383 C 0.91405 0.37661 -0.14364
 C384 C 0.82830 0.29401 -0.39398
 C385 C 0.91083 0.40736 -0.20917
 C386 C 0.86809 0.34045 -0.26879
 C387 C 0.85464 0.32444 -0.30534
 C388 C 0.83992 0.30725 -0.35165
 C389 C 0.92211 0.40252 -0.15931
 H390 H 0.88449 0.39098 -0.28283
 H391 H 0.89019 0.33614 -0.16698
 H392 H 0.92245 0.37235 -0.10547
 H393 H 0.91658 0.42710 -0.22220
 C394 C 0.50585 -0.10791 -0.24323
 C395 C 0.52411 -0.11541 -0.22841
 C396 C 0.53972 -0.10495 -0.17771
 C397 C 0.53744 -0.08661 -0.14274
 C398 C 0.53435 -0.17255 -0.39247
 C399 C 0.50361 -0.08958 -0.20860
 C400 C 0.52770 -0.13247 -0.26800
 C401 C 0.53026 -0.14598 -0.30436
 C402 C 0.53272 -0.16082 -0.35040
 C403 C 0.51963 -0.07846 -0.15853
 H404 H 0.49373 -0.11579 -0.28245
 H405 H 0.55402 -0.11053 -0.16598
 H406 H 0.55003 -0.07833 -0.10440
 H407 H 0.48966 -0.08376 -0.22175
 C408 C 0.35521 0.46003 -0.18033
 C409 C 0.36037 0.47561 -0.23100
 C410 C 0.38615 0.49385 -0.24571
 C411 C 0.40673 0.49609 -0.21101
 C412 C 0.29307 0.46540 -0.39552
 C413 C 0.37585 0.46231 -0.14528
 C414 C 0.33972 0.47202 -0.27069
 C415 C 0.32365 0.46947 -0.30715
 C416 C 0.30639 0.46702 -0.35332
 C417 C 0.40182 0.48009 -0.16096
 H418 H 0.33533 0.44576 -0.16868
 H419 H 0.39039 0.50595 -0.28491
 H420 H 0.42652 0.51002 -0.22407
 H421 H 0.37153 0.44974 -0.10696
 C422 C 1.10498 0.64484 -0.17942
 C423 C 1.11544 0.63969 -0.23011
 C424 C 1.10796 0.61397 -0.24489
 C425 C 1.08964 0.59341 -0.21023
 C426 C 1.17241 0.70692 -0.39450
 C427 C 1.08665 0.62422 -0.14442
 C428 C 1.13247 0.66032 -0.26976
 C429 C 1.14595 0.67636 -0.30619
 C430 C 1.16073 0.69361 -0.35232
 C431 C 1.07851 0.59829 -0.16016
 H432 H 1.11054 0.66468 -0.16773
 H433 H 1.11584 0.60974 -0.28410
 H434 H 1.08383 0.57366 -0.22334
 H435 H 1.07837 0.62852 -0.10609
 C436 C 0.89232 0.50596 -0.24407
 C437 C 0.88484 0.52423 -0.22933
 C438 C 0.89537 0.53988 -0.17875
 C439 C 0.91378 0.53765 -0.14385
 C440 C 0.82801 0.53460 -0.39402
 C441 C 0.91072 0.50377 -0.20951
 C442 C 0.86782 0.52784 -0.26900
 C443 C 0.85436 0.53043 -0.30550
 C444 C 0.83963 0.53293 -0.35175
 C445 C 0.92193 0.51986 -0.15960
 H446 H 0.88438 0.49381 -0.28321
 H447 H 0.88981 0.55418 -0.16711
 H448 H 0.92213 0.55028 -0.10563
 H449 H 0.91654 0.48983 -0.22261
 C450 C 0.49424 0.38649 -0.24460
 C451 C 0.47591 0.36077 -0.23000
 C452 C 0.46021 0.35561 -0.17949
 C453 C 0.46247 0.37622 -0.14452
 C454 C 0.46550 0.29368 -0.39480
 C455 C 0.49645 0.40704 -0.20998
 C456 C 0.47228 0.34017 -0.26974
 C457 C 0.46967 0.32416 -0.30628
 C458 C 0.46717 0.30696 -0.35255
 C459 C 0.48033 0.40215 -0.16014
 H460 H 0.50642 0.39072 -0.28369
 H461 H 0.44586 0.33577 -0.16795
 H462 H 0.44980 0.37192 -0.10635
 H463 H 0.51045 0.42679 -0.22297
 C464 C 0.64421 0.10466 -0.17656
 C465 C 0.63903 0.11514 -0.22713
 C466 C 0.61325 0.10759 -0.24200
 C467 C 0.59267 0.08917 -0.20757
 C468 C 0.70638 0.17219 -0.39114
 C469 C 0.62357 0.08623 -0.14178
 C470 C 0.65968 0.13221 -0.26665
 C471 C 0.67575 0.14572 -0.30300
 C472 C 0.69303 0.16050 -0.34905
 C473 C 0.59759 0.07800 -0.15766
 H474 H 0.66409 0.11028 -0.16481
 H475 H 0.60901 0.11550 -0.28115
 H476 H 0.57288 0.08329 -0.22076
 H477 H 0.62789 0.07791 -0.10355
 C478 C 1.10525 0.46077 -0.17855
 C479 C 1.11582 0.47648 -0.22899
 C480 C 1.10850 0.49488 -0.24347
 C481 C 1.09017 0.49713 -0.20884
 C482 C 1.17199 0.46581 -0.39469
 C483 C 1.08692 0.46308 -0.14356
 C484 C 1.13269 0.47276 -0.26888
 C485 C 1.14599 0.47009 -0.30563
 C486 C 1.16052 0.46752 -0.35219
 C487 C 1.07888 0.48098 -0.15911
 H488 H 1.11069 0.44637 -0.16712
 H489 H 1.11647 0.50706 -0.28251
 H490 H 1.08444 0.51116 -0.22176
 H491 H 1.07850 0.45039 -0.10548
 C492 C 0.53953 0.64421 -0.17920
 C493 C 0.52378 0.63903 -0.22967
 C494 C 0.50535 0.61331 -0.24412
 C495 C 0.50310 0.59278 -0.20943
 C496 C 0.53430 0.70570 -0.39540
 C497 C 0.53722 0.62362 -0.14414
 C498 C 0.52748 0.65957 -0.26960
 C499 C 0.53012 0.67549 -0.30637
 C500 C 0.53265 0.69255 -0.35292
 C501 C 0.51929 0.59769 -0.15967
 H502 H 0.55395 0.66405 -0.16779
 H503 H 0.49313 0.60907 -0.28318
 H504 H 0.48904 0.57303 -0.22233
 H505 H 0.54994 0.62792 -0.10604
 C506 C 0.35520 -0.10524 -0.17697
 C507 C 0.36038 -0.11580 -0.22739
 C508 C 0.38614 -0.10849 -0.24181
 C509 C 0.40671 -0.09017 -0.20713
 C510 C 0.29363 -0.17196 -0.39332
 C511 C 0.37583 -0.08692 -0.14193
 C512 C 0.33981 -0.13266 -0.26734
 C513 C 0.32385 -0.14596 -0.30415
 C514 C 0.30678 -0.16049 -0.35077
 C515 C 0.40180 -0.07889 -0.15742
 H516 H 0.33533 -0.11067 -0.16559
 H517 H 0.39038 -0.11646 -0.28083
 H518 H 0.42649 -0.08445 -0.22000
 H519 H 0.37153 -0.07850 -0.10386
 C520 C 0.53965 -0.10525 0.17747
 C521 C 0.52392 -0.11587 0.22790
 C522 C 0.50555 -0.10852 0.24266
 C523 C 0.50333 -0.09014 0.20830
 C524 C 0.53438 -0.17259 0.39231
 C525 C 0.53737 -0.08685 0.14275
 C526 C 0.52759 -0.13285 0.26747
 C527 C 0.53021 -0.14626 0.30393
 C528 C 0.53272 -0.16096 0.35013
 C529 C 0.51949 -0.07881 0.15857
 H530 H 0.55403 -0.11071 0.16583
 H531 H 0.49335 -0.11654 0.28170
 H532 H 0.48931 -0.08440 0.22142
 H533 H 0.55006 -0.07841 0.10467
 C534 C 0.38589 0.49418 0.24086
 C535 C 0.36015 0.47569 0.22648
 C536 C 0.35501 0.45990 0.17615
 C537 C 0.37566 0.46223 0.14116
 C538 C 0.29331 0.46524 0.39197
 C539 C 0.40648 0.49645 0.20624
 C540 C 0.33956 0.47198 0.26637
 C541 C 0.32360 0.46935 0.30310
 C542 C 0.30650 0.46685 0.34959
 C543 C 0.40161 0.48023 0.15662
 H544 H 0.39010 0.50643 0.27982
 H545 H 0.33516 0.44543 0.16480
 H546 H 0.37139 0.44948 0.10316
 H547 H 0.42625 0.51056 0.21908
 C548 C 1.10508 0.64496 0.17703
 C549 C 1.11571 0.63983 0.22742
 C550 C 1.10847 0.61413 0.24180
 C551 C 1.09016 0.59357 0.20713
 C552 C 1.17204 0.70664 0.39300
 C553 C 1.08676 0.62433 0.14199
 C554 C 1.13258 0.66039 0.26734
 C555 C 1.14590 0.67635 0.30409
 C556 C 1.16048 0.69345 0.35059
 C557 C 1.07881 0.59843 0.15745
 H558 H 1.11045 0.66478 0.16567
 H559 H 1.11650 0.60993 0.28080
 H560 H 1.08450 0.57383 0.21997
 H561 H 1.07829 0.62860 0.10395
 C562 C 0.49395 0.10713 0.24454
 C563 C 0.47563 0.11456 0.22981
 C564 C 0.45996 0.10405 0.17921
 C565 C 0.46224 0.08571 0.14427
 C566 C 0.46529 0.17151 0.39405
 C567 C 0.49618 0.08880 0.20994
 C568 C 0.47200 0.13156 0.26945
 C569 C 0.46941 0.14502 0.30588
 C570 C 0.46693 0.15980 0.35198
 C571 C 0.48009 0.07761 0.16000
 H572 H 0.50611 0.11506 0.28369
 H573 H 0.44562 0.10958 0.16757
 H574 H 0.44960 0.07737 0.10603
 H575 H 0.51017 0.08302 0.22302
 C576 C 0.61322 0.50588 0.24306
 C577 C 0.63898 0.52427 0.22869
 C578 C 0.64418 0.53994 0.17816
 C579 C 0.62356 0.53759 0.14293
 C580 C 0.70602 0.53472 0.39396
 C581 C 0.59267 0.50358 0.20820
 C582 C 0.65957 0.52796 0.26864
 C583 C 0.67556 0.53058 0.30532
 C584 C 0.69274 0.53308 0.35170
 C585 C 0.59759 0.51968 0.15833
 H586 H 0.60896 0.49372 0.28216
 H587 H 0.66405 0.55433 0.16679
 H588 H 0.62789 0.55024 0.10476
 H589 H 0.57288 0.48955 0.22101
 C590 C 0.89598 0.35625 0.17788
 C591 C 0.88546 0.36143 0.22840
 C592 C 0.89280 0.38715 0.24287
 C593 C 0.91108 0.40768 0.20812
 C594 C 0.82888 0.29451 0.39348
 C595 C 0.91426 0.37684 0.14278
 C596 C 0.86855 0.34087 0.26826
 C597 C 0.85517 0.32490 0.30489
 C598 C 0.84050 0.30775 0.35123
 C599 C 0.92230 0.40277 0.15827
 H600 H 0.89051 0.33641 0.16644
 H601 H 0.88487 0.39140 0.28196
 H602 H 0.91681 0.42743 0.22102
 H603 H 0.92263 0.37253 0.10461
   
