data_POSCAR
  _audit_creation_date              2014-09-24
  _audit_creation_method            'ToBaCCo'
  _symmetry_space_group_name_H-M    'P1'
  _symmetry_Int_Tables_number       1
  _symmetry_cell_setting            triclinic
  loop_
  _symmetry_equiv_pos_as_xyz
 x,y,z
_cell_length_a 47.1223
_cell_length_b 46.8487
_cell_length_c 8.8988
_cell_angle_alpha 90.002500
_cell_angle_beta 90.022700
_cell_angle_gamma 89.998800
loop_
  _atom_site_label
  _atom_site_type_symbol
  _atom_site_fract_x
  _atom_site_fract_y
  _atom_site_fract_z
O1 O 0.27249 0.27708 0.40422
 O2 O 0.21849 0.22148 0.34194
 O3 O 0.27258 0.22150 0.40301
 O4 O 0.21840 0.27704 0.34424
 O5 O 0.22788 0.27732 0.10089
 O6 O 0.28211 0.22178 0.15975
 O7 O 0.22802 0.22173 0.09864
 O8 O 0.28199 0.27735 0.16087
 Cu9 Cu 0.24450 0.24924 0.39770
 Cu10 Cu 0.25599 0.24956 0.10567
 C11 C 0.28637 0.28660 0.29281
 C12 C 0.21411 0.21224 0.20996
 C13 C 0.28653 0.21229 0.29119
 C14 C 0.21397 0.28654 0.21287
 O15 O 0.78140 0.27718 0.34047
 O16 O 0.72704 0.22179 0.39995
 O17 O 0.78126 0.22160 0.34261
 O18 O 0.72723 0.27739 0.39888
 O19 O 0.71809 0.27717 0.15513
 O20 O 0.77213 0.22137 0.09885
 O21 O 0.71792 0.22161 0.15620
 O22 O 0.77226 0.27696 0.09672
 Cu23 Cu 0.75518 0.24951 0.39487
 Cu24 Cu 0.74415 0.24925 0.10237
 C25 C 0.78602 0.28641 0.20872
 C26 C 0.71327 0.21237 0.28787
 C27 C 0.78584 0.21208 0.21143
 C28 C 0.71352 0.28669 0.28634
 O29 O 0.72813 0.77857 0.59767
 O30 O 0.78208 0.72279 0.65620
 O31 O 0.72800 0.72299 0.59585
 O32 O 0.78223 0.77835 0.65833
 O33 O 0.77271 0.77810 0.90162
 O34 O 0.71847 0.72273 0.83917
 O35 O 0.77256 0.72251 0.89953
 O36 O 0.71860 0.77830 0.84097
 Cu37 Cu 0.75609 0.75071 0.60268
 Cu38 Cu 0.74460 0.75039 0.89470
 C39 C 0.71423 0.78783 0.70957
 C40 C 0.78644 0.71324 0.78756
 C41 C 0.71406 0.71352 0.70717
 C42 C 0.78666 0.78755 0.79032
 O43 O 0.22733 0.72287 0.90376
 O44 O 0.28139 0.77849 0.84421
 O45 O 0.22719 0.77846 0.90192
 O46 O 0.28149 0.72293 0.84549
 O47 O 0.27234 0.72266 0.60175
 O48 O 0.21804 0.77819 0.65823
 O49 O 0.27225 0.77826 0.60047
 O50 O 0.21816 0.72262 0.66004
 Cu51 Cu 0.25530 0.75072 0.89820
 Cu52 Cu 0.24425 0.75041 0.60573
 C53 C 0.21361 0.71336 0.79178
 C54 C 0.28597 0.78775 0.71252
 C55 C 0.21341 0.78768 0.78943
 C56 C 0.28609 0.71343 0.71427
 C57 C 0.98547 0.08708 0.09669
 C58 C 1.01454 0.08734 0.08993
 C59 C 1.02298 0.05962 0.05825
 N60 N 1.00000 0.04256 0.04532
 C61 C 0.97702 0.05922 0.06851
 C62 C 1.05153 0.05060 0.04660
 C63 C 1.06036 0.02209 0.02115
 C64 C 1.08825 0.01282 0.03299
 C65 C 1.08824 -0.01592 0.00319
 C66 C 1.06036 -0.02364 -0.02636
 N67 N 1.04357 -0.00022 -0.01754
 C68 C 1.05153 -0.05184 -0.06013
 C69 C 1.02298 -0.06098 -0.06893
 C70 C 1.01453 -0.08884 -0.09699
 C71 C 0.98546 -0.08909 -0.09057
 C72 C 0.97701 -0.06135 -0.05914
 N73 N 1.00000 -0.04430 -0.04607
 C74 C 0.94846 -0.05232 -0.04781
 C75 C 0.93964 -0.02381 -0.02228
 C76 C 0.91175 -0.01453 -0.03423
 C77 C 0.91176 0.01420 -0.00409
 C78 C 0.93964 0.02190 0.02570
 N79 N 0.95642 -0.00152 0.01675
 C80 C 0.94846 0.05009 0.05978
 H81 H 0.97210 0.10539 0.11891
 H82 H 1.02790 0.10583 0.10743
 H83 H 0.97762 -0.00266 0.04668
 H84 H 1.10672 0.02539 0.06217
 H85 H 1.10672 -0.02964 0.00504
 H86 H 1.02789 -0.10716 -0.11893
 H87 H 0.97209 -0.10757 -0.10814
 H88 H 0.89328 0.02793 -0.00588
 H89 H 1.02237 0.00090 -0.04730
 H90 H 0.89328 -0.02708 -0.06367
 C91 C 0.48551 0.58820 0.59739
 C92 C 0.51457 0.58848 0.58973
 C93 C 0.52300 0.56075 0.55796
 N94 N 0.50001 0.54368 0.54582
 C95 C 0.47704 0.56033 0.56960
 C96 C 0.55154 0.55175 0.54553
 C97 C 0.56037 0.52325 0.51985
 C98 C 0.58828 0.51400 0.53095
 C99 C 0.58827 0.48525 0.50117
 C100 C 0.56036 0.47752 0.47237
 N101 N 0.54357 0.50093 0.48160
 C102 C 0.55152 0.44931 0.43894
 C103 C 0.52296 0.44016 0.43111
 C104 C 0.51450 0.41229 0.40343
 C105 C 0.48544 0.41202 0.41094
 C106 C 0.47701 0.43975 0.44255
 N107 N 0.50000 0.45682 0.45475
 C108 C 0.44846 0.44876 0.45473
 C109 C 0.43963 0.47726 0.48052
 C110 C 0.41173 0.48650 0.46935
 C111 C 0.41174 0.51525 0.49928
 C112 C 0.43964 0.52298 0.52819
 N113 N 0.45644 0.49957 0.51894
 C114 C 0.44848 0.55119 0.56172
 H115 H 0.47216 0.60651 0.61993
 H116 H 0.52794 0.60698 0.60671
 H117 H 0.47766 0.49845 0.54823
 H118 H 0.60677 0.52658 0.55968
 H119 H 0.60676 0.47155 0.50253
 H120 H 0.52785 0.39398 0.38102
 H121 H 0.47207 0.39351 0.39395
 H122 H 0.39325 0.52896 0.49790
 H123 H 0.52233 0.50204 0.45237
 H124 H 0.39324 0.47394 0.44047
 C125 C -0.01456 0.58765 -0.09608
 C126 C 0.01450 0.58793 -0.08891
 C127 C 0.02296 0.56021 -0.05737
 N128 N -0.00002 0.54313 -0.04494
 C129 C -0.02300 0.55978 -0.06832
 C130 C 0.05151 0.55121 -0.04540
 C131 C 0.06037 0.52272 -0.01951
 C132 C 0.08828 0.51350 -0.03059
 C133 C 0.08829 0.48475 -0.00069
 C134 C 0.06039 0.47700 0.02813
 N135 N 0.04358 0.50041 0.01888
 C136 C 0.05157 0.44879 0.06146
 C137 C 0.02302 0.43962 0.06928
 C138 C 0.01458 0.41173 0.09681
 C139 C -0.01448 0.41144 0.08940
 C140 C -0.02294 0.43917 0.05796
 N141 N 0.00003 0.45626 0.04581
 C142 C -0.05150 0.44816 0.04587
 C143 C -0.06035 0.47666 0.02023
 C144 C -0.08826 0.48588 0.03148
 C145 C -0.08827 0.51464 0.00184
 C146 C -0.06037 0.52239 -0.02700
 N147 N -0.04357 0.49899 -0.01801
 C148 C -0.05155 0.55062 -0.06020
 H149 H -0.02793 0.60596 -0.11832
 H150 H 0.02786 0.60645 -0.10604
 H151 H -0.02234 0.49790 -0.04729
 H152 H 0.10676 0.52608 -0.05940
 H153 H 0.10679 0.47106 -0.00201
 H154 H 0.02795 0.39343 0.11904
 H155 H -0.02784 0.39292 0.10631
 H156 H -0.10677 0.52833 0.00333
 H157 H 0.02235 0.50150 0.04807
 H158 H -0.10674 0.47329 0.06023
 C159 C 0.51457 0.91260 0.58946
 C160 C 0.48550 0.91286 0.59657
 C161 C 0.47704 0.94072 0.56866
 N162 N 0.50001 0.95738 0.54522
 C163 C 0.52300 0.94032 0.55780
 C164 C 0.44848 0.94986 0.56051
 C165 C 0.43964 0.97807 0.52711
 C166 C 0.41173 0.98581 0.49828
 C167 C 0.41173 1.01455 0.46837
 C168 C 0.43963 1.02379 0.47944
 N169 N 0.45643 1.00148 0.51784
 C170 C 0.44846 1.05229 0.45351
 C171 C 0.47701 1.06130 0.44143
 C172 C 0.48544 1.08903 0.40975
 C173 C 0.51451 1.08876 0.40251
 C174 C 0.52297 1.06090 0.43037
 N175 N 0.50000 1.04424 0.45387
 C176 C 0.55153 1.05176 0.43845
 C177 C 0.56037 1.02354 0.47189
 C178 C 0.58828 1.01581 0.50069
 C179 C 0.58829 0.98707 0.53073
 C180 C 0.56038 0.97783 0.51975
 N181 N 0.54358 1.00013 0.48127
 C182 C 0.55154 0.94934 0.54587
 H183 H 0.52794 0.89410 0.60670
 H184 H 0.47215 0.89454 0.61893
 H185 H 0.52234 0.99903 0.45215
 H186 H 0.39324 0.97210 0.49697
 H187 H 0.39323 1.02711 0.43957
 H188 H 0.47207 1.10753 0.39258
 H189 H 0.52786 1.10707 0.38013
 H190 H 0.60678 0.97450 0.55955
 H191 H 0.47767 1.00260 0.54704
 H192 H 0.60678 1.02951 0.50191
 C193 C 1.15355 0.15138 0.14590
 N194 N 1.16081 0.12433 0.10761
 N195 N 1.14086 0.10449 0.08843
 C196 C 1.11306 0.11111 0.10706
 N197 N 1.10581 0.13816 0.14535
 N198 N 1.12575 0.15799 0.16453
 C199 C 1.17500 0.17272 0.16744
 C200 C 1.19292 0.19073 0.18636
 C201 C 1.09157 0.08979 0.08624
 C202 C 1.07343 0.07196 0.06849
 C203 C 0.65350 0.65265 0.64332
 N204 N 0.62583 0.65883 0.66981
 N205 N 0.60591 0.63896 0.65086
 C206 C 0.61306 0.61231 0.60497
 N207 N 0.64073 0.60613 0.57846
 N208 N 0.66065 0.62600 0.59740
 C209 C 0.67494 0.67402 0.66471
 C210 C 0.69285 0.69203 0.68356
 C211 C 0.59159 0.59097 0.58441
 C212 C 0.57345 0.57312 0.56696
 C213 C -0.15340 0.34731 0.14644
 N214 N -0.16063 0.37411 0.10333
 N215 N -0.14071 0.39397 0.08380
 C216 C -0.11297 0.38762 0.10687
 N217 N -0.10574 0.36082 0.15000
 N218 N -0.12565 0.34097 0.16952
 C219 C -0.17482 0.32593 0.16777
 C220 C -0.19274 0.30791 0.18615
 C221 C -0.09151 0.40894 0.08565
 C222 C -0.07339 0.42679 0.06774
 C223 C 0.34653 0.84877 0.65278
 N224 N 0.33935 0.87562 0.61022
 N225 N 0.35929 0.89551 0.59238
 C226 C 0.38699 0.88916 0.61668
 N227 N 0.39417 0.86232 0.65925
 N228 N 0.37424 0.84243 0.67709
 C229 C 0.32509 0.82736 0.67266
 C230 C 0.30717 0.80931 0.69023
 C231 C 0.40847 0.91053 0.59725
 C232 C 0.42660 0.92842 0.58073
 C233 C -0.15324 0.65197 -0.15289
 N234 N -0.12555 0.65812 -0.17856
 N235 N -0.10569 0.63815 -0.16064
 C236 C -0.11294 0.61142 -0.11659
 N237 N -0.14065 0.60525 -0.09094
 N238 N -0.16050 0.62523 -0.10887
 C239 C -0.17460 0.67347 -0.17283
 C240 C -0.19244 0.69160 -0.19037
 C241 C -0.09154 0.58997 -0.09701
 C242 C -0.07345 0.57205 -0.08041
 C243 C 0.34616 1.15272 0.35239
 N244 N 0.37388 1.15922 0.32953
 N245 N 0.39389 1.13947 0.34912
 C246 C 0.38680 1.11263 0.39212
 N247 N 0.35909 1.10613 0.41503
 N248 N 0.33907 1.12588 0.39543
 C249 C 0.32464 1.17400 0.33097
 C250 C 0.30666 1.19196 0.31251
 C251 C 0.40837 1.09141 0.41340
 C252 C 0.42655 1.07363 0.43144
 C253 C 1.15378 -0.15262 -0.15311
 N254 N 1.16102 -0.12510 -0.12545
 N255 N 1.14101 -0.10528 -0.10742
 C256 C 1.11316 -0.11240 -0.11658
 N257 N 1.10592 -0.13992 -0.14423
 N258 N 1.12593 -0.15974 -0.16226
 C259 C 1.17529 -0.17396 -0.17303
 C260 C 1.19328 -0.19197 -0.19033
 C261 C 1.09161 -0.09111 -0.09696
 C262 C 1.07344 -0.07327 -0.08035
 C263 C 0.65317 0.34797 0.34456
 N264 N 0.62537 0.34154 0.32455
 N265 N 0.60552 0.36151 0.34269
 C266 C 0.61288 0.38851 0.38132
 N267 N 0.64069 0.39496 0.40131
 N268 N 0.66054 0.37498 0.38316
 C269 C 0.67452 0.32646 0.32476
 C270 C 0.69238 0.30833 0.30762
 C271 C 0.59149 0.40996 0.40126
 C272 C 0.57340 0.42787 0.41824
 C273 C 0.84628 -0.15293 -0.14701
 N274 N 0.83915 -0.12608 -0.10431
 N275 N 0.85914 -0.10629 -0.08525
 C276 C 0.88686 -0.11274 -0.10843
 N277 N 0.89398 -0.13959 -0.15114
 N278 N 0.87399 -0.15938 -0.17019
 C279 C 0.82477 -0.17422 -0.16845
 C280 C 0.80679 -0.19217 -0.18733
 C281 C 0.90839 -0.09147 -0.08764
 C282 C 0.92655 -0.07366 -0.06985
 C283 C 0.34672 0.34769 0.35601
 N284 N 0.33945 0.37443 0.39999
 N285 N 0.35932 0.39435 0.41906
 C286 C 0.38705 0.38813 0.39462
 N287 N 0.39431 0.36140 0.35064
 N288 N 0.37444 0.34148 0.33157
 C289 C 0.32535 0.32626 0.33482
 C290 C 0.30749 0.30818 0.31620
 C291 C 0.40846 0.40952 0.41541
 C292 C 0.42657 0.42739 0.43307
 C293 C 0.15324 0.65222 -0.14626
 N294 N 0.12558 0.65825 -0.17377
 N295 N 0.10571 0.63834 -0.15441
 C296 C 0.11292 0.61180 -0.10704
 N297 N 0.14059 0.60576 -0.07957
 N298 N 0.16046 0.62568 -0.09892
 C299 C 0.17461 0.67367 -0.16738
 C300 C 0.19246 0.69176 -0.18565
 C301 C 0.09150 0.59043 -0.08568
 C302 C 0.07340 0.57258 -0.06755
 C303 C 0.65364 1.15270 0.34623
 N304 N 0.62589 1.15928 0.32540
 N305 N 0.60591 1.13943 0.34309
 C306 C 0.61309 1.11239 0.38203
 N307 N 0.64085 1.10580 0.40281
 N308 N 0.66082 1.12566 0.38512
 C309 C 0.67514 1.17406 0.32645
 C310 C 0.69312 1.19206 0.30892
 C311 C 0.59157 1.09105 0.40146
 C312 C 0.57342 1.07319 0.41807
 C313 C 0.15345 0.34762 0.15377
 N314 N 0.16074 0.37472 0.11652
 N315 N 0.14083 0.39464 0.09885
 C316 C 0.11303 0.38807 0.11800
 N317 N 0.10574 0.36098 0.15527
 N318 N 0.12565 0.34105 0.17294
 C319 C 0.17486 0.32617 0.17346
 C320 C 0.19277 0.30810 0.19084
 C321 C 0.09158 0.40947 0.09854
 C322 C 0.07346 0.42736 0.08188
 C323 C 0.65366 0.84876 0.64762
 N324 N 0.62587 0.84214 0.66671
 N325 N 0.60591 0.86194 0.64719
 C326 C 0.61312 0.88896 0.60805
 N327 N 0.64091 0.89558 0.58896
 N328 N 0.66088 0.87578 0.60849
 C329 C 0.67512 0.82742 0.66888
 C330 C 0.69305 0.80939 0.68718
 C331 C 0.59161 0.91022 0.58658
 C332 C 0.57345 0.92801 0.56828
 C333 C 0.84639 0.15098 0.15370
 N334 N 0.87407 0.15730 0.17899
 N335 N 0.89402 0.13745 0.16093
 C336 C 0.88690 0.11066 0.11710
 N337 N 0.85922 0.10433 0.09183
 N338 N 0.83926 0.12419 0.10990
 C339 C 0.82493 0.17239 0.17326
 C340 C 0.80702 0.19047 0.19024
 C341 C 0.90841 0.08934 0.09719
 C342 C 0.92656 0.07149 0.08031
 C343 C 0.34664 0.65233 0.65613
 N344 N 0.37436 0.65863 0.68027
 N345 N 0.39426 0.63871 0.66216
 C346 C 0.38704 0.61189 0.61947
 N347 N 0.35931 0.60558 0.59540
 N348 N 0.33941 0.62550 0.61351
 C349 C 0.32523 0.67378 0.67585
 C350 C 0.30732 0.69186 0.69297
 C351 C 0.40849 0.59050 0.59948
 C352 C 0.42660 0.57261 0.58246
   
