data_POSCAR
  _audit_creation_date              2014-09-24
  _audit_creation_method            'ToBaCCo'
  _symmetry_space_group_name_H-M    'P1'
  _symmetry_Int_Tables_number       1
  _symmetry_cell_setting            triclinic
  loop_
  _symmetry_equiv_pos_as_xyz
 x,y,z
_cell_length_a 21.0135
_cell_length_b 21.0135
_cell_length_c 35.8235
_cell_angle_alpha 89.895900
_cell_angle_beta 89.895900
_cell_angle_gamma 90.000000
loop_
  _atom_site_label
  _atom_site_type_symbol
  _atom_site_fract_x
  _atom_site_fract_y
  _atom_site_fract_z
O1 O -0.05274 0.56125 0.96442
 O2 O -0.05276 0.43701 1.03703
 O3 O -0.05281 0.56111 1.03700
 O4 O -0.05274 0.43720 0.96445
 O5 O 0.05221 0.43720 0.96437
 O6 O 0.05215 0.56111 1.03692
 O7 O 0.05210 0.43701 1.03695
 O8 O 0.05221 0.56125 0.96434
 Cu9 Cu -0.06326 0.49914 1.00074
 Cu10 Cu 0.06267 0.49914 1.00065
 C11 C -0.00025 0.58273 0.95204
 C12 C -0.00034 0.41534 1.04937
 C13 C -0.00034 0.58258 1.04926
 C14 C -0.00025 0.41578 0.95209
 O15 O 0.56299 0.05275 0.46296
 O16 O 0.43875 0.05274 0.53557
 O17 O 0.56280 0.05274 0.53554
 O18 O 0.43889 0.05280 0.46300
 O19 O 0.43889 -0.05215 0.46307
 O20 O 0.56280 -0.05222 0.53562
 O21 O 0.43875 -0.05222 0.53565
 O22 O 0.56299 -0.05210 0.46304
 Cu23 Cu 0.50086 0.06326 0.49925
 Cu24 Cu 0.50086 -0.06267 0.49934
 C25 C 0.58465 0.00034 0.45062
 C26 C 0.41727 0.00025 0.54795
 C27 C 0.58422 0.00025 0.54790
 C28 C 0.41742 0.00034 0.45073
 Si29 Si -0.00038 0.00038 0.25000
 Si30 Si 0.00009 -0.00010 0.75000
 C31 C 0.05722 -0.29164 0.11707
 C32 C -0.00041 -0.26649 0.12997
 C33 C -0.05801 -0.29162 0.11715
 C34 C -0.05806 -0.34129 0.09123
 C35 C -0.00037 -0.36644 0.07775
 C36 C 0.05731 -0.34131 0.09115
 C37 C -0.00042 -0.21375 0.15556
 C38 C -0.00043 -0.16896 0.17653
 C39 C -0.00042 -0.11582 0.20056
 C40 C -0.00041 -0.06987 0.22063
 H41 H 0.10209 -0.27245 0.12676
 H42 H -0.10290 -0.27242 0.12691
 H43 H -0.10326 -0.35953 0.08149
 H44 H 0.10253 -0.35956 0.08134
 C45 C 0.05718 0.29198 0.11615
 C46 C -0.00040 0.26687 0.12912
 C47 C -0.05797 0.29197 0.11624
 C48 C -0.05808 0.34158 0.09018
 C49 C -0.00036 0.36686 0.07648
 C50 C 0.05733 0.34159 0.09009
 C51 C -0.00042 0.21421 0.15487
 C52 C -0.00043 0.16948 0.17598
 C53 C -0.00042 0.11642 0.20019
 C54 C -0.00041 0.07054 0.22040
 H55 H 0.10204 0.27281 0.12592
 H56 H -0.10285 0.27280 0.12608
 H57 H -0.10350 0.35958 0.08055
 H58 H 0.10276 0.35959 0.08040
 C59 C 0.29164 -0.05744 0.61621
 C60 C 0.26656 0.00016 0.62913
 C61 C 0.29163 0.05779 0.61612
 C62 C 0.34119 0.05789 0.59003
 C63 C 0.36629 0.00022 0.57655
 C64 C 0.34120 -0.05748 0.59012
 C65 C 0.21397 0.00013 0.65493
 C66 C 0.16929 0.00009 0.67607
 C67 C 0.11625 0.00004 0.70029
 C68 C 0.07036 -0.00001 0.72049
 H69 H 0.27250 -0.10233 0.62605
 H70 H 0.27247 0.10266 0.62589
 H71 H 0.35940 0.10311 0.58016
 H72 H 0.35943 -0.10268 0.58032
 C73 C -0.29054 -0.05744 0.61615
 C74 C -0.26554 0.00016 0.62907
 C75 C -0.29053 0.05779 0.61606
 C76 C -0.33993 0.05789 0.58996
 C77 C -0.36495 0.00022 0.57649
 C78 C -0.33994 -0.05748 0.59005
 C79 C -0.21312 0.00013 0.65487
 C80 C -0.16859 0.00009 0.67603
 C81 C -0.11572 0.00004 0.70026
 C82 C -0.06997 -0.00001 0.72048
 H83 H -0.27146 -0.10233 0.62598
 H84 H -0.27143 0.10266 0.62582
 H85 H -0.35808 0.10311 0.58010
 H86 H -0.35811 -0.10268 0.58026
 C87 C -0.05779 -0.29163 0.88387
 C88 C -0.00016 -0.26656 0.87086
 C89 C 0.05744 -0.29165 0.88378
 C90 C 0.05748 -0.34121 0.90987
 C91 C -0.00022 -0.36629 0.92344
 C92 C -0.05789 -0.34119 0.90996
 C93 C -0.00013 -0.21397 0.84507
 C94 C -0.00010 -0.16929 0.82392
 C95 C -0.00005 -0.11625 0.79970
 C96 C 0.00000 -0.07036 0.77950
 H97 H -0.10266 -0.27247 0.87410
 H98 H 0.10233 -0.27250 0.87395
 H99 H 0.10268 -0.35943 0.91967
 H100 H -0.10311 -0.35940 0.91983
 C101 C 0.05744 0.29054 0.88384
 C102 C -0.00016 0.26554 0.87092
 C103 C -0.05779 0.29052 0.88393
 C104 C -0.05789 0.33993 0.91003
 C105 C -0.00022 0.36495 0.92350
 C106 C 0.05748 0.33994 0.90994
 C107 C -0.00013 0.21312 0.84512
 C108 C -0.00010 0.16859 0.82396
 C109 C -0.00005 0.11572 0.79973
 C110 C 0.00000 0.06997 0.77951
 H111 H 0.10233 0.27146 0.87401
 H112 H -0.10266 0.27143 0.87417
 H113 H -0.10311 0.35808 0.91989
 H114 H 0.10268 0.35811 0.91973
 C115 C -0.29198 -0.05718 0.38384
 C116 C -0.26687 0.00040 0.37087
 C117 C -0.29197 0.05797 0.38375
 C118 C -0.34158 0.05808 0.40981
 C119 C -0.36687 0.00036 0.42351
 C120 C -0.34159 -0.05733 0.40990
 C121 C -0.21421 0.00042 0.34512
 C122 C -0.16948 0.00042 0.32401
 C123 C -0.11642 0.00042 0.29981
 C124 C -0.07054 0.00041 0.27959
 H125 H -0.27282 -0.10205 0.37407
 H126 H -0.27280 0.10285 0.37391
 H127 H -0.35958 0.10350 0.41944
 H128 H -0.35959 -0.10277 0.41959
 C129 C 0.29162 0.05801 0.38284
 C130 C 0.26649 0.00040 0.37002
 C131 C 0.29164 -0.05722 0.38292
 C132 C 0.34131 -0.05731 0.40884
 C133 C 0.36644 0.00036 0.42224
 C134 C 0.34129 0.05806 0.40876
 C135 C 0.21375 0.00042 0.34443
 C136 C 0.16896 0.00043 0.32346
 C137 C 0.11582 0.00042 0.29944
 C138 C 0.06987 0.00041 0.27937
 H139 H 0.27242 0.10289 0.37308
 H140 H 0.27245 -0.10209 0.37323
 H141 H 0.35956 -0.10253 0.41865
 H142 H 0.35953 0.10326 0.41850
   
