data_POSCAR
  _audit_creation_date              2014-09-24
  _audit_creation_method            'ToBaCCo'
  _symmetry_space_group_name_H-M    'P1'
  _symmetry_Int_Tables_number       1
  _symmetry_cell_setting            triclinic
  loop_
  _symmetry_equiv_pos_as_xyz
 x,y,z
_cell_length_a 36.3873
_cell_length_b 35.5817
_cell_length_c 26.8306
_cell_angle_alpha 89.942200
_cell_angle_beta 89.975400
_cell_angle_gamma 90.076400
loop_
  _atom_site_label
  _atom_site_type_symbol
  _atom_site_fract_x
  _atom_site_fract_y
  _atom_site_fract_z
C1 C 1.19195 0.25783 0.32285
 H2 H 1.19192 0.22746 0.32080
 C3 C 1.16500 0.27631 0.35070
 H4 H 1.14475 0.25962 0.37008
 C5 C 1.21760 0.31589 0.29698
 H6 H 1.23784 0.33127 0.27573
 C7 C 1.19128 0.33542 0.32408
 H8 H 1.19150 0.36586 0.32299
 N9 N 1.21657 0.27782 0.29528
 C10 C 1.22763 0.20145 0.17193
 H11 H 1.25676 0.19537 0.17187
 C12 C 1.20383 0.18052 0.14207
 H13 H 1.21549 0.15788 0.12060
 C14 C 1.17779 0.23679 0.20364
 H15 H 1.16765 0.25887 0.22750
 C16 C 1.15309 0.21696 0.17400
 H17 H 1.12405 0.22322 0.17681
 Zn18 Zn 1.24598 0.25148 0.24932
 N19 N 1.21408 0.22765 0.20370
 C20 C 1.26746 0.17799 0.28269
 N21 N 1.27392 0.21557 0.28642
 C22 C 1.29949 0.22895 0.31869
 C23 C 1.32123 0.20436 0.34657
 C24 C 1.28816 0.15229 0.31051
 C25 C 1.25840 0.31118 0.18281
 C26 C 1.27830 0.33809 0.15583
 C27 C 1.33418 0.31093 0.18796
 C28 C 1.31325 0.28453 0.21415
 N29 N 1.27595 0.28555 0.21204
 H30 H 1.24620 0.16768 0.25820
 H31 H 1.30368 0.25896 0.32189
 H32 H 1.34288 0.21667 0.36874
 H33 H 1.28321 0.12254 0.30524
 H34 H 1.22869 0.31112 0.18115
 H35 H 1.26317 0.35829 0.13402
 H36 H 1.36385 0.30998 0.19094
 H37 H 1.32694 0.26343 0.23626
 C38 C 1.16570 0.18762 0.14356
 C39 C 1.16385 0.31578 0.35051
 C40 C 1.31691 0.33850 0.15839
 C41 C 1.31569 0.16501 0.34358
 C42 C 0.70036 -0.22626 0.32023
 H43 H 0.69577 -0.25608 0.32509
 C44 C 0.67878 -0.20052 0.34642
 H45 H 0.65688 -0.21152 0.36933
 C46 C 0.73337 -0.17680 0.28188
 H47 H 0.75500 -0.16748 0.25727
 C48 C 0.71268 -0.15003 0.30782
 H49 H 0.71791 -0.12047 0.30128
 N50 N 0.72643 -0.21418 0.28769
 C51 C 0.74214 -0.31190 0.18805
 H52 H 0.77187 -0.31205 0.18693
 C53 C 0.72237 -0.33918 0.16169
 H54 H 0.73759 -0.35977 0.14069
 C55 C 0.68715 -0.28446 0.21769
 H56 H 0.67338 -0.26298 0.23902
 C57 C 0.66633 -0.31123 0.19209
 H58 H 0.63664 -0.31008 0.19455
 Zn59 Zn 0.75432 -0.25154 0.25327
 N60 N 0.72445 -0.28568 0.21614
 C61 C 0.77945 -0.31584 0.30404
 N62 N 0.78185 -0.27787 0.30134
 C63 C 0.80664 -0.25839 0.32919
 C64 C 0.83267 -0.27746 0.35795
 C65 C 0.80478 -0.33596 0.33208
 C66 C 0.77512 -0.20398 0.17449
 C67 C 0.79974 -0.18354 0.14521
 C68 C 0.84962 -0.21883 0.18164
 C69 C 0.82408 -0.23818 0.21063
 N70 N 0.78778 -0.22929 0.20819
 H71 H 0.75902 -0.33078 0.28264
 H72 H 0.80774 -0.22807 0.32638
 H73 H 0.85339 -0.26127 0.37711
 H74 H 0.80371 -0.36637 0.33135
 H75 H 0.74600 -0.19806 0.17254
 H76 H 0.78865 -0.16142 0.12223
 H77 H 0.87859 -0.22476 0.18646
 H78 H 0.83357 -0.25961 0.23603
 C79 C 0.68374 -0.33940 0.16374
 C80 C 0.68494 -0.16157 0.34101
 C81 C 0.83783 -0.19028 0.14925
 C82 C 0.83261 -0.31696 0.35845
 C83 C 0.70037 0.27408 -0.18109
 H84 H 0.69560 0.24425 -0.17657
 C85 C 0.67877 0.29978 -0.15486
 H86 H 0.65667 0.28877 -0.13229
 C87 C 0.73387 0.32358 -0.21853
 H88 H 0.75573 0.33294 -0.24273
 C89 C 0.71315 0.35032 -0.19253
 H90 H 0.71858 0.37988 -0.19870
 N91 N 0.72669 0.28619 -0.21325
 C92 C 0.74210 0.18816 -0.31279
 H93 H 0.77182 0.18783 -0.31382
 C94 C 0.72221 0.16082 -0.33892
 H95 H 0.73736 0.14003 -0.35966
 C96 C 0.68721 0.21607 -0.28361
 H97 H 0.67351 0.23776 -0.26257
 C98 C 0.66628 0.18926 -0.30900
 H99 H 0.63659 0.19059 -0.30666
 Zn100 Zn 0.75454 0.24879 -0.24790
 N101 N 0.72452 0.21463 -0.28499
 C102 C 0.77970 0.18444 -0.19700
 N103 N 0.78217 0.22241 -0.19990
 C104 C 0.80715 0.24189 -0.17236
 C105 C 0.83323 0.22282 -0.14366
 C106 C 0.80510 0.16434 -0.16903
 C107 C 0.77586 0.29715 -0.32579
 C108 C 0.80075 0.31755 -0.35468
 C109 C 0.85005 0.28043 -0.31997
 C110 C 0.82421 0.26128 -0.29120
 N111 N 0.78811 0.27100 -0.29301
 H112 H 0.75916 0.16949 -0.21819
 H113 H 0.80833 0.27219 -0.17536
 H114 H 0.85405 0.23902 -0.12473
 H115 H 0.80394 0.13392 -0.16960
 H116 H 0.74688 0.30385 -0.32716
 H117 H 0.78987 0.34056 -0.37640
 H118 H 0.87884 0.27366 -0.31510
 H119 H 0.83336 0.23933 -0.26636
 C120 C 0.68356 0.16080 -0.33698
 C121 C 0.68515 0.33873 -0.15977
 C122 C 0.83889 0.30976 -0.35191
 C123 C 0.83305 0.18333 -0.14288
 C124 C 1.19146 -0.24201 -0.17831
 H125 H 1.19151 -0.27238 -0.18035
 C126 C 1.16457 -0.22359 -0.15033
 H127 H 1.14442 -0.24031 -0.13081
 C128 C 1.21694 -0.18389 -0.20434
 H129 H 1.23709 -0.16849 -0.22572
 C130 C 1.19070 -0.16442 -0.17710
 H131 H 1.19086 -0.13398 -0.17818
 N132 N 1.21594 -0.22195 -0.20602
 C133 C 1.22719 -0.29798 -0.32955
 H134 H 1.25636 -0.30383 -0.32987
 C135 C 1.20342 -0.31906 -0.35925
 H136 H 1.21517 -0.34154 -0.38090
 C137 C 1.17724 -0.26302 -0.29741
 H138 H 1.16705 -0.24101 -0.27347
 C139 C 1.15257 -0.28298 -0.32688
 H140 H 1.12350 -0.27691 -0.32388
 Zn141 Zn 1.24532 -0.24815 -0.25193
 N142 N 1.21356 -0.27198 -0.29757
 C143 C 1.26765 -0.32153 -0.21920
 N144 N 1.27325 -0.28384 -0.21475
 C145 C 1.29784 -0.27010 -0.18132
 C146 C 1.31950 -0.29440 -0.15293
 C147 C 1.28847 -0.34691 -0.19109
 C148 C 1.25772 -0.18876 -0.31870
 C149 C 1.27763 -0.16185 -0.34563
 C150 C 1.33344 -0.18831 -0.31218
 C151 C 1.31250 -0.21472 -0.28609
 N152 N 1.27523 -0.21406 -0.28894
 H153 H 1.24701 -0.33214 -0.24441
 H154 H 1.30119 -0.24002 -0.17746
 H155 H 1.34010 -0.28194 -0.12926
 H156 H 1.28437 -0.37679 -0.19643
 H157 H 1.22803 -0.18909 -0.32084
 H158 H 1.26255 -0.14193 -0.36793
 H159 H 1.36308 -0.18896 -0.30867
 H160 H 1.32613 -0.23552 -0.26341
 C161 C 1.16525 -0.31230 -0.35731
 C162 C 1.16338 -0.18413 -0.15055
 C163 C 1.31620 -0.16112 -0.34240
 C164 C 1.31509 -0.33366 -0.15739
 C165 C 0.25773 0.18869 0.68610
 H166 H 0.22801 0.18800 0.68549
 C167 C 0.27769 0.16232 0.65843
 H168 H 0.26260 0.14172 0.63722
 C169 C 0.31257 0.21659 0.71567
 H170 H 0.32620 0.23793 0.73747
 C171 C 0.33356 0.19075 0.68877
 H172 H 0.36325 0.19235 0.69088
 N173 N 0.27528 0.21471 0.71471
 C174 C 0.19260 0.24030 0.82781
 H175 H 0.19138 0.27061 0.82501
 C176 C 0.16656 0.22107 0.85644
 H177 H 0.14570 0.23748 0.87491
 C178 C 0.22002 0.18312 0.80250
 H179 H 0.24048 0.16840 0.78093
 C180 C 0.19482 0.16279 0.83062
 H181 H 0.19620 0.13238 0.82952
 Zn182 Zn 0.24538 0.24808 0.75293
 N183 N 0.21755 0.22106 0.80006
 C184 C 0.17597 0.26142 0.70968
 N185 N 0.21211 0.27119 0.70845
 C186 C 0.22468 0.29759 0.67612
 C187 C 0.20004 0.31802 0.64697
 C188 C 0.15042 0.28074 0.68076
 C189 C 0.29915 0.27124 0.82121
 C190 C 0.32095 0.29600 0.84875
 C191 C 0.28795 0.34785 0.81216
 C192 C 0.26701 0.32202 0.78487
 N193 N 0.27344 0.28445 0.78899
 H194 H 0.16659 0.23919 0.73397
 H195 H 0.25370 0.30422 0.67505
 H196 H 0.21093 0.34094 0.62513
 H197 H 0.12154 0.27399 0.68462
 H198 H 0.30328 0.24125 0.82476
 H199 H 0.34245 0.28405 0.87139
 H200 H 0.28312 0.37762 0.80706
 H201 H 0.24559 0.33220 0.76055
 C202 C 0.16680 0.18141 0.85756
 C203 C 0.31634 0.16287 0.65966
 C204 C 0.31551 0.33515 0.84483
 C205 C 0.16207 0.31012 0.64956
 C206 C 0.77216 0.70305 0.66915
 H207 H 0.74292 0.69747 0.66833
 C208 C 0.79595 0.68185 0.63965
 H209 H 0.78405 0.65976 0.61742
 C210 C 0.82222 0.73721 0.70256
 H211 H 0.83246 0.75892 0.72696
 C212 C 0.84694 0.71711 0.67333
 H213 H 0.87606 0.72284 0.67685
 N214 N 0.78579 0.72863 0.70177
 C215 C 0.70049 0.72724 0.81704
 H216 H 0.69620 0.75713 0.82153
 C217 C 0.67899 0.70184 0.84410
 H218 H 0.65737 0.71335 0.86707
 C219 C 0.73251 0.67735 0.77863
 H220 H 0.75367 0.66773 0.75353
 C221 C 0.71200 0.65086 0.80549
 H222 H 0.71694 0.62131 0.79869
 Zn223 Zn 0.75382 0.75164 0.74809
 N224 N 0.72600 0.71480 0.78404
 C225 C 0.68649 0.78575 0.71496
 N226 N 0.72377 0.78637 0.71206
 C227 C 0.74134 0.81237 0.68334
 C228 C 0.72153 0.84006 0.65778
 C229 C 0.66564 0.81293 0.69018
 C230 C 0.80806 0.75747 0.82175
 C231 C 0.83501 0.77597 0.84967
 C232 C 0.80804 0.83505 0.82453
 C233 C 0.78175 0.81550 0.79737
 N234 N 0.78315 0.77747 0.79478
 H235 H 0.67275 0.76441 0.73669
 H236 H 0.77103 0.81202 0.68105
 H237 H 0.73670 0.86038 0.63615
 H238 H 0.63599 0.81220 0.69364
 H239 H 0.80838 0.72713 0.81904
 H240 H 0.85556 0.75933 0.86843
 H241 H 0.80756 0.86548 0.82398
 H242 H 0.76126 0.83089 0.77670
 C243 C 0.68475 0.66261 0.83956
 C244 C 0.83422 0.68798 0.64255
 C245 C 0.83582 0.81546 0.85021
 C246 C 0.68296 0.84093 0.66129
 C247 C 0.77272 0.20348 0.16746
 H248 H 0.74350 0.19781 0.16678
 C249 C 0.79650 0.18237 0.13785
 H250 H 0.78462 0.16022 0.11571
 C251 C 0.82276 0.23785 0.20058
 H252 H 0.83300 0.25961 0.22490
 C253 C 0.84746 0.21786 0.17122
 H254 H 0.87657 0.22370 0.17461
 N255 N 0.78638 0.22906 0.20004
 C256 C 0.70200 0.22809 0.31634
 H257 H 0.69833 0.25803 0.32123
 C258 C 0.68046 0.20295 0.34374
 H259 H 0.65951 0.21458 0.36762
 C260 C 0.73270 0.17778 0.27679
 H261 H 0.75347 0.16789 0.25127
 C262 C 0.71201 0.15158 0.30387
 H263 H 0.71632 0.12189 0.29735
 Zn264 Zn 0.75464 0.25198 0.24656
 N265 N 0.72684 0.21532 0.28260
 C266 C 0.68737 0.28631 0.21425
 N267 N 0.72462 0.28676 0.21088
 C268 C 0.74215 0.31261 0.18190
 C269 C 0.72232 0.34035 0.15651
 C270 C 0.66650 0.31352 0.18964
 C271 C 0.80900 0.25749 0.31995
 C272 C 0.83602 0.27588 0.34783
 C273 C 0.80918 0.33506 0.32281
 C274 C 0.78281 0.31563 0.29572
 N275 N 0.78410 0.27761 0.29311
 H276 H 0.67368 0.26506 0.23623
 H277 H 0.77182 0.31211 0.17928
 H278 H 0.73744 0.36054 0.13461
 H279 H 0.63687 0.31294 0.19342
 H280 H 0.80921 0.22715 0.31719
 H281 H 0.85653 0.25917 0.36657
 H282 H 0.80877 0.36550 0.32232
 H283 H 0.76232 0.33109 0.27513
 C284 C 0.68537 0.16385 0.33815
 C285 C 0.83474 0.18864 0.14060
 C286 C 0.83691 0.31536 0.34841
 C287 C 0.68379 0.34139 0.16049
 C288 C 0.25849 0.68971 0.18597
 H289 H 0.22876 0.68907 0.18539
 C290 C 0.27836 0.66322 0.15836
 H291 H 0.26321 0.64264 0.13722
 C292 C 0.31340 0.71756 0.21531
 H293 H 0.32712 0.73893 0.23695
 C294 C 0.33432 0.69163 0.18844
 H295 H 0.36401 0.69320 0.19043
 N296 N 0.27610 0.71570 0.21456
 C297 C 0.19401 0.74116 0.32879
 H298 H 0.19343 0.77153 0.32692
 C299 C 0.16783 0.72201 0.35731
 H300 H 0.14757 0.73820 0.37726
 C301 C 0.22011 0.68376 0.30164
 H302 H 0.24017 0.66890 0.27956
 C303 C 0.19456 0.66356 0.32940
 H304 H 0.19515 0.63314 0.32788
 Zn305 Zn 0.24624 0.74899 0.25313
 N306 N 0.21840 0.72181 0.30020
 C307 C 0.17665 0.76251 0.21035
 N308 N 0.21282 0.77221 0.20888
 C309 C 0.22532 0.79857 0.17646
 C310 C 0.20063 0.81890 0.14724
 C311 C 0.15106 0.78173 0.18137
 C312 C 0.30066 0.77255 0.32063
 C313 C 0.32240 0.79752 0.34794
 C314 C 0.28792 0.84899 0.31292
 C315 C 0.26721 0.82293 0.28567
 N316 N 0.27430 0.78547 0.28921
 H317 H 0.16731 0.74038 0.23483
 H318 H 0.25433 0.80520 0.17529
 H319 H 0.21149 0.84175 0.12526
 H320 H 0.12218 0.77499 0.18533
 H321 H 0.30541 0.74263 0.32364
 H322 H 0.34462 0.78565 0.36947
 H323 H 0.28243 0.87865 0.30777
 H324 H 0.24542 0.83287 0.26180
 C325 C 0.16725 0.68251 0.35677
 C326 C 0.31702 0.66364 0.15958
 C327 C 0.31608 0.83676 0.34531
 C328 C 0.16267 0.81098 0.14990
 O329 O 0.93497 -0.05319 -0.08628
 O330 O 0.96715 -0.09568 -0.03876
 C331 C 0.94228 -0.08708 -0.07161
 O332 O 1.06898 0.05017 -0.08102
 O333 O 1.03464 0.09308 -0.03740
 C334 C 1.06146 0.08415 -0.06715
 O335 O 1.06487 -0.05319 -0.08595
 O336 O 1.03249 -0.09571 -0.03860
 C337 C 1.05742 -0.08707 -0.07134
 O338 O 0.93105 0.05067 -0.08032
 O339 O 0.96620 0.09337 -0.03739
 C340 C 0.93918 0.08460 -0.06684
 Zr341 Zr 0.95433 -0.00119 -0.06022
 O342 O 0.95794 -0.00275 -0.13909
 O343 O 0.89618 -0.00231 -0.06062
 Zr344 Zr 1.04516 -0.00121 -0.06058
 O345 O 1.03964 0.00265 -0.13903
 O346 O 1.10290 -0.00437 -0.06838
 O347 O 0.99972 -0.03570 -0.06975
 O348 O 0.99983 0.03274 -0.06943
 O349 O 0.93057 0.05061 0.08556
 O350 O 0.96616 0.09321 0.04280
 C351 C 0.93892 0.08452 0.07196
 O352 O 1.06597 -0.05310 0.09063
 O353 O 1.03242 -0.09565 0.04511
 C354 C 1.05795 -0.08704 0.07694
 O355 O 1.07035 0.05033 0.08391
 O356 O 1.03422 0.09322 0.04290
 C357 C 1.06175 0.08436 0.07139
 O358 O 0.93422 -0.05298 0.09174
 O359 O 0.96727 -0.09549 0.04539
 C360 C 0.94204 -0.08692 0.07771
 Zr361 Zr 0.95438 -0.00106 0.06604
 O362 O 0.96009 0.00082 0.14434
 O363 O 0.89642 -0.00299 0.07120
 Zr364 Zr 1.04522 -0.00108 0.06635
 O365 O 1.03858 0.00302 0.14461
 O366 O 1.10262 -0.00350 0.07774
 Zr367 Zr 0.99987 -0.05789 0.00315
 Zr368 Zr 1.00018 0.05567 0.00273
 O369 O 0.99988 0.03289 0.07510
 O370 O 0.99973 -0.03560 0.07603
 O371 O 0.94719 0.03187 0.00278
 O372 O 1.05249 -0.03312 0.00293
 O373 O 0.94729 -0.03345 0.00297
 O374 O 1.05306 0.03154 0.00274
 H375 H 0.99997 0.05064 -0.09775
 H376 H 1.07510 -0.04857 0.00269
 H377 H 0.99990 0.05082 0.10337
 H378 H 0.92475 -0.04907 0.00293
 H379 H 1.11361 0.00716 -0.03818
 H380 H 1.11407 -0.00201 0.04440
 H381 H 1.03144 -0.02215 0.15710
 H382 H 0.93477 0.00149 0.15786
 H383 H 0.88692 0.00330 0.03765
 H384 H 0.88846 -0.00273 -0.09607
 H385 H 0.95919 0.02333 -0.15179
 H386 H 1.02924 -0.02142 -0.15105
 O387 O 0.93509 0.44670 0.41356
 O388 O 0.96792 0.40415 0.46007
 C389 C 0.94282 0.41279 0.42759
 O390 O 1.06871 0.55013 0.42006
 O391 O 1.03407 0.59290 0.46352
 C392 C 1.06092 0.58406 0.43381
 O393 O 1.06488 0.44671 0.41493
 O394 O 1.03257 0.40408 0.46220
 C395 C 1.05754 0.41279 0.42951
 O396 O 0.93078 0.55039 0.42035
 O397 O 0.96579 0.59306 0.46351
 C398 C 0.93883 0.58430 0.43398
 Zr399 Zr 0.95412 0.49853 0.44031
 O400 O 0.95787 0.49721 0.36145
 O401 O 0.89597 0.49723 0.43983
 Zr402 Zr 1.04498 0.49863 0.44033
 O403 O 1.03964 0.50253 0.36186
 O404 O 1.10275 0.49559 0.43287
 O405 O 0.99960 0.46413 0.43096
 O406 O 0.99960 0.53252 0.43136
 O407 O 0.92995 0.55002 0.58621
 O408 O 0.96557 0.59275 0.54373
 C409 C 0.93829 0.58398 0.57282
 O410 O 1.06550 0.44649 0.59136
 O411 O 1.03195 0.40396 0.54578
 C412 C 1.05747 0.41255 0.57761
 O413 O 1.06978 0.55001 0.58489
 O414 O 1.03362 0.59286 0.54387
 C415 C 1.06116 0.58403 0.57230
 O416 O 0.93358 0.44647 0.59195
 O417 O 0.96680 0.40405 0.54573
 C418 C 0.94150 0.41250 0.57806
 Zr419 Zr 0.95384 0.49842 0.56652
 O420 O 0.95941 0.50013 0.64484
 O421 O 0.89587 0.49642 0.57139
 Zr422 Zr 1.04479 0.49857 0.56712
 O423 O 1.03810 0.50258 0.64537
 O424 O 1.10218 0.49619 0.57865
 Zr425 Zr 0.99956 0.44175 0.50377
 Zr426 Zr 0.99972 0.55534 0.50359
 O427 O 0.99933 0.53241 0.57585
 O428 O 0.99928 0.46398 0.57665
 O429 O 0.94676 0.53147 0.50336
 O430 O 1.05218 0.46660 0.50375
 O431 O 0.94696 0.46604 0.50332
 O432 O 1.05267 0.53134 0.50369
 H433 H 0.99974 0.55045 0.40308
 H434 H 1.07483 0.45122 0.50359
 H435 H 0.99928 0.55029 0.60417
 H436 H 0.92455 0.45023 0.50295
 H437 H 1.11336 0.50742 0.46293
 H438 H 1.11367 0.49769 0.54535
 H439 H 1.03086 0.47742 0.65778
 H440 H 0.93406 0.50074 0.65828
 H441 H 0.88647 0.50273 0.53780
 H442 H 0.88829 0.49694 0.40437
 H443 H 0.95903 0.52333 0.34885
 H444 H 1.02923 0.47849 0.34980
 O445 O 0.55057 0.06850 0.58554
 O446 O 0.59235 0.03428 0.54023
 C447 C 0.58389 0.06002 0.57274
 O448 O 0.44909 -0.06869 0.58058
 O449 O 0.40734 -0.03339 0.53662
 C450 C 0.41583 -0.06037 0.56737
 O451 O 0.55031 -0.06565 0.58557
 O452 O 0.59218 -0.03169 0.53970
 C453 C 0.58364 -0.05738 0.57238
 O454 O 0.44941 0.07222 0.57972
 O455 O 0.40744 0.03620 0.53714
 C456 C 0.41605 0.06345 0.56739
 Zr457 Zr 0.49981 0.04773 0.55972
 O458 O 0.49607 0.04106 0.63807
 O459 O 0.50152 0.10659 0.56994
 Zr460 Zr 0.49977 -0.04544 0.55869
 O461 O 0.49819 -0.03999 0.63708
 O462 O 0.50236 -0.10478 0.56293
 O463 O 0.53347 0.00109 0.56885
 O464 O 0.46672 0.00109 0.56813
 O465 O 0.44932 0.07269 0.41317
 O466 O 0.40732 0.03621 0.45505
 C467 C 0.41590 0.06378 0.42522
 O468 O 0.55070 -0.06590 0.40799
 O469 O 0.59249 -0.03089 0.45225
 C470 C 0.58403 -0.05708 0.42039
 O471 O 0.44952 -0.07022 0.41456
 O472 O 0.40738 -0.03298 0.45469
 C473 C 0.41604 -0.06099 0.42571
 O474 O 0.55074 0.06956 0.40816
 O475 O 0.59249 0.03469 0.45275
 C476 C 0.58405 0.06078 0.42067
 Zr477 Zr 0.49993 0.04870 0.43362
 O478 O 0.49599 0.04501 0.35500
 O479 O 0.50326 0.10798 0.42874
 Zr480 Zr 0.49987 -0.04460 0.43263
 O481 O 0.49579 -0.03763 0.35439
 O482 O 0.50180 -0.10333 0.42131
 Zr483 Zr 0.55572 0.00161 0.49616
 Zr484 Zr 0.44414 0.00158 0.49599
 O485 O 0.46693 0.00203 0.42393
 O486 O 0.53358 0.00209 0.42335
 O487 O 0.46747 0.05593 0.49668
 O488 O 0.53160 -0.05224 0.49571
 O489 O 0.53166 0.05546 0.49677
 O490 O 0.46741 -0.05269 0.49560
 H491 H 0.44943 0.00102 0.59670
 H492 H 0.54714 -0.07506 0.49599
 H493 H 0.44954 0.00206 0.39550
 H494 H 0.54731 0.07825 0.49693
 H495 H 0.48717 -0.11478 0.53540
 H496 H 0.50423 -0.11494 0.45461
 H497 H 0.52075 -0.03237 0.34146
 H498 H 0.51979 0.03558 0.34229
 H499 H 0.48821 0.11835 0.45617
 H500 H 0.50428 0.11791 0.53654
 H501 H 0.52006 0.03165 0.65016
 H502 H 0.49760 -0.06593 0.65051
 O503 O 0.55103 0.56851 0.08569
 O504 O 0.59277 0.53446 0.04004
 C505 C 0.58433 0.56009 0.07271
 O506 O 0.44973 0.43120 0.08101
 O507 O 0.40782 0.46655 0.03742
 C508 C 0.41642 0.43952 0.06804
 O509 O 0.55099 0.43461 0.08557
 O510 O 0.59269 0.46860 0.03943
 C511 C 0.58427 0.44293 0.07218
 O512 O 0.44988 0.57237 0.08009
 O513 O 0.40784 0.53620 0.03789
 C514 C 0.41649 0.56355 0.06796
 Zr515 Zr 0.50024 0.54780 0.06002
 O516 O 0.49662 0.54115 0.13837
 O517 O 0.50203 0.60666 0.07026
 Zr518 Zr 0.50032 0.45463 0.05895
 O519 O 0.49891 0.46004 0.13734
 O520 O 0.50308 0.39530 0.06319
 O521 O 0.53399 0.50121 0.06894
 O522 O 0.46724 0.50111 0.06861
 O523 O 0.44935 0.57255 -0.08648
 O524 O 0.40751 0.53617 -0.04409
 C525 C 0.41604 0.56367 -0.07400
 O526 O 0.55089 0.43422 -0.09202
 O527 O 0.59275 0.46932 -0.04799
 C528 C 0.58425 0.44309 -0.07978
 O529 O 0.44973 0.42999 -0.08520
 O530 O 0.40766 0.46696 -0.04445
 C531 C 0.41632 0.43907 -0.07356
 O532 O 0.55073 0.56986 -0.09174
 O533 O 0.59264 0.53499 -0.04749
 C534 C 0.58414 0.56111 -0.07956
 Zr535 Zr 0.50005 0.54881 -0.06608
 O536 O 0.49598 0.54514 -0.14469
 O537 O 0.50319 0.60810 -0.07081
 Zr538 Zr 0.50011 0.45551 -0.06713
 O539 O 0.49589 0.46251 -0.14535
 O540 O 0.50202 0.39677 -0.07837
 Zr541 Zr 0.55605 0.50179 -0.00387
 Zr542 Zr 0.44447 0.50158 -0.00341
 O543 O 0.46708 0.50209 -0.07559
 O544 O 0.53374 0.50226 -0.07656
 O545 O 0.46774 0.55596 -0.00286
 O546 O 0.53200 0.44790 -0.00419
 O547 O 0.53193 0.55560 -0.00308
 O548 O 0.46783 0.44735 -0.00398
 H549 H 0.45001 0.50102 0.09725
 H550 H 0.54758 0.42510 -0.00399
 H551 H 0.44963 0.50209 -0.10395
 H552 H 0.54756 0.57840 -0.00296
 H553 H 0.48780 0.38525 0.03578
 H554 H 0.50450 0.38519 -0.04507
 H555 H 0.52082 0.46781 -0.15837
 H556 H 0.51978 0.53576 -0.15749
 H557 H 0.48800 0.61839 -0.04347
 H558 H 0.50440 0.61799 0.03681
 H559 H 0.52060 0.53163 0.15037
 H560 H 0.49841 0.43409 0.15076
 C561 C 1.13769 0.16091 0.12092
 C562 C 1.15222 0.13210 0.08290
 C563 C 1.12630 0.10755 0.06683
 C564 C 1.08792 0.11398 0.08903
 C565 C 1.09351 0.11293 0.14557
 C566 C 1.11952 0.13718 0.16212
 C567 C 1.10526 0.17986 0.09354
 C568 C 1.07910 0.15525 0.07691
 H569 H 1.17948 0.13207 0.06671
 H570 H 1.13233 0.08609 0.03936
 H571 H 1.07816 0.09473 0.17058
 H572 H 1.12647 0.13949 0.20136
 H573 H 1.10337 0.20991 0.08705
 H574 H 1.05483 0.16434 0.05678
 C575 C 1.13728 0.66078 0.62054
 C576 C 1.11903 0.63752 0.66218
 C577 C 1.09295 0.61317 0.64607
 C578 C 1.08740 0.61367 0.58954
 C579 C 1.07871 0.65483 0.57662
 C580 C 1.10492 0.67953 0.59279
 C581 C 1.15175 0.63151 0.58310
 C582 C 1.12577 0.60688 0.56748
 H583 H 1.12600 0.64018 0.70137
 H584 H 1.07757 0.59525 0.67139
 H585 H 1.05448 0.66378 0.55628
 H586 H 1.10312 0.70951 0.58574
 H587 H 1.17903 0.63113 0.56701
 H588 H 1.13175 0.58504 0.54054
 C589 C 0.65956 0.13155 0.63676
 C590 C 0.67795 0.10078 0.60426
 C591 C 0.65361 0.07629 0.58270
 C592 C 0.61324 0.08458 0.59547
 C593 C 0.61192 0.08481 0.65264
 C594 C 0.63596 0.10919 0.67408
 C595 C 0.63183 0.15012 0.60133
 C596 C 0.60777 0.12580 0.58006
 H597 H 0.70719 0.09814 0.59781
 H598 H 0.66236 0.05340 0.55878
 H599 H 0.59402 0.06674 0.67450
 H600 H 0.63851 0.11182 0.71424
 H601 H 0.63159 0.17997 0.59289
 H602 H 0.58701 0.13505 0.55371
 C603 C 0.65985 0.63143 0.13722
 C604 C 0.67831 0.60099 0.10424
 C605 C 0.65401 0.57654 0.08248
 C606 C 0.61365 0.58457 0.09555
 C607 C 0.61247 0.58437 0.15272
 C608 C 0.63645 0.60870 0.17436
 C609 C 0.63196 0.65014 0.10214
 C610 C 0.60796 0.62588 0.08068
 H611 H 0.70754 0.59854 0.09762
 H612 H 0.66280 0.55388 0.05822
 H613 H 0.59471 0.56606 0.17443
 H614 H 0.63909 0.61105 0.21454
 H615 H 0.63158 0.68005 0.09408
 H616 H 0.58708 0.63522 0.05457
 C617 C 0.86627 -0.16374 0.12717
 C618 C 0.90007 -0.18273 0.10307
 C619 C 0.92629 -0.15801 0.08674
 C620 C 0.91618 -0.11663 0.09598
 C621 C 0.87856 -0.11183 0.07089
 C622 C 0.85261 -0.13647 0.08661
 C623 C 0.88241 -0.13841 0.16816
 C624 C 0.90852 -0.11406 0.15201
 H625 H 0.90280 -0.21289 0.09839
 H626 H 0.95144 -0.16708 0.06866
 H627 H 0.87331 -0.09193 0.04107
 H628 H 0.82621 -0.13799 0.06810
 H629 H 0.87412 -0.13980 0.20701
 H630 H 0.92263 -0.09488 0.17699
 C631 C 0.86623 0.33509 0.62741
 C632 C 0.89929 0.31704 0.60682
 C633 C 0.92668 0.34338 0.58984
 C634 C 0.91557 0.38255 0.59643
 C635 C 0.88046 0.38573 0.57047
 C636 C 0.85347 0.35943 0.58684
 C637 C 0.87979 0.36052 0.66615
 C638 C 0.90703 0.38632 0.64925
 H639 H 0.90230 0.28693 0.60170
 H640 H 0.95217 0.33464 0.57231
 H641 H 0.87621 0.40319 0.53781
 H642 H 0.82916 0.35434 0.56443
 H643 H 0.87086 0.35974 0.70482
 H644 H 0.92052 0.40605 0.67415
 C645 C 0.34019 -0.13217 0.63081
 C646 C 0.36947 -0.15107 0.59808
 C647 C 0.39357 -0.12678 0.57676
 C648 C 0.38653 -0.08530 0.58939
 C649 C 0.34641 -0.07856 0.57387
 C650 C 0.32204 -0.10304 0.59548
 C651 C 0.36199 -0.10801 0.66803
 C652 C 0.38606 -0.08369 0.64652
 H653 H 0.37082 -0.18116 0.59163
 H654 H 0.41559 -0.13630 0.55258
 H655 H 0.33788 -0.05695 0.54777
 H656 H 0.29302 -0.10171 0.58688
 H657 H 0.35828 -0.10946 0.70815
 H658 H 0.40283 -0.06450 0.66826
 C659 C 0.34089 0.36752 0.13162
 C660 C 0.32262 0.39704 0.09698
 C661 C 0.34694 0.42157 0.07535
 C662 C 0.38715 0.41451 0.09015
 C663 C 0.38715 0.41563 0.14732
 C664 C 0.36313 0.39126 0.16884
 C665 C 0.36982 0.34874 0.09818
 C666 C 0.39387 0.37309 0.07682
 H667 H 0.29354 0.39859 0.08882
 H668 H 0.33831 0.44344 0.04970
 H669 H 0.40419 0.43456 0.16909
 H670 H 0.35974 0.38950 0.20899
 H671 H 0.37095 0.31871 0.09124
 H672 H 0.41560 0.36369 0.05209
 C673 C 0.86339 0.15999 -0.11947
 C674 C 0.89287 0.17920 -0.08646
 C675 C 0.91896 0.15497 -0.06856
 C676 C 0.91311 0.11403 -0.08522
 C677 C 0.87370 0.10462 -0.06874
 C678 C 0.84792 0.12866 -0.08613
 C679 C 0.88572 0.13965 -0.16003
 C680 C 0.91157 0.11575 -0.14219
 H681 H 0.89296 0.20863 -0.07624
 H682 H 0.94107 0.16403 -0.04423
 H683 H 0.86657 0.08074 -0.04549
 H684 H 0.81904 0.12571 -0.07670
 H685 H 0.88192 0.14429 -0.19970
 H686 H 0.92978 0.10002 -0.16650
 C687 C 0.86298 0.65971 0.38175
 C688 C 0.89243 0.67887 0.41484
 C689 C 0.91855 0.65463 0.43262
 C690 C 0.91274 0.61373 0.41575
 C691 C 0.87335 0.60422 0.43220
 C692 C 0.84754 0.62827 0.41494
 C693 C 0.88533 0.63952 0.34108
 C694 C 0.91120 0.61561 0.35880
 H695 H 0.89249 0.70827 0.42520
 H696 H 0.94065 0.66365 0.45699
 H697 H 0.86627 0.58029 0.45539
 H698 H 0.81867 0.62527 0.42438
 H699 H 0.88153 0.64428 0.30143
 H700 H 0.92943 0.59997 0.33441
 C701 C 0.34043 0.13815 0.36733
 C702 C 0.32263 0.10475 0.38908
 C703 C 0.34819 0.07782 0.40944
 C704 C 0.38655 0.08954 0.40436
 C705 C 0.39170 0.09656 0.35121
 C706 C 0.36667 0.12335 0.33105
 C707 C 0.36285 0.15295 0.40840
 C708 C 0.38836 0.12635 0.42811
 H709 H 0.29308 0.10119 0.39231
 H710 H 0.33939 0.05227 0.42814
 H711 H 0.41191 0.08227 0.32825
 H712 H 0.36702 0.13106 0.29184
 H713 H 0.35675 0.17832 0.42917
 H714 H 0.40399 0.13195 0.46176
 C715 C 0.34100 0.63841 -0.13206
 C716 C 0.32222 0.60421 -0.10701
 C717 C 0.34624 0.57848 -0.08741
 C718 C 0.38684 0.58929 -0.09465
 C719 C 0.39105 0.59542 -0.15100
 C720 C 0.36742 0.62105 -0.17031
 C721 C 0.36611 0.65417 -0.09067
 C722 C 0.39001 0.62864 -0.07170
 H723 H 0.29265 0.60087 -0.10420
 H724 H 0.33713 0.55323 -0.06830
 H725 H 0.41083 0.58055 -0.17397
 H726 H 0.36728 0.62812 -0.20969
 H727 H 0.36363 0.68169 -0.07386
 H728 H 0.40813 0.63529 -0.04080
 C729 C 1.13281 -0.16152 -0.12661
 C730 C 1.14826 -0.13087 -0.09231
 C731 C 1.12249 -0.10729 -0.07401
 C732 C 1.08310 -0.11634 -0.09084
 C733 C 1.08458 -0.11697 -0.14787
 C734 C 1.11044 -0.14047 -0.16650
 C735 C 1.10333 -0.18143 -0.09420
 C736 C 1.07724 -0.15757 -0.07542
 H737 H 1.17709 -0.12834 -0.08242
 H738 H 1.12951 -0.08441 -0.04902
 H739 H 1.06626 -0.10090 -0.17164
 H740 H 1.11415 -0.14444 -0.20631
 H741 H 1.10307 -0.21111 -0.08526
 H742 H 1.05508 -0.16710 -0.05142
 C743 C 1.13322 0.33844 0.37437
 C744 C 1.14858 0.36920 0.40860
 C745 C 1.12273 0.39275 0.42683
 C746 C 1.08336 0.38357 0.41004
 C747 C 1.08487 0.38286 0.35301
 C748 C 1.11081 0.35939 0.33444
 C749 C 1.10377 0.31852 0.40684
 C750 C 1.07762 0.34235 0.42555
 H751 H 1.17740 0.37184 0.41846
 H752 H 1.12970 0.41571 0.45172
 H753 H 1.06654 0.39887 0.32918
 H754 H 1.11456 0.35540 0.29464
 H755 H 1.10361 0.28887 0.41592
 H756 H 1.05551 0.33279 0.44961
 C757 C 0.65937 -0.13250 0.36460
 C758 C 0.63107 -0.11837 0.32652
 C759 C 0.60727 -0.09241 0.34467
 C760 C 0.61328 -0.08273 0.39985
 C761 C 0.61236 -0.12065 0.42715
 C762 C 0.63644 -0.14643 0.40932
 C763 C 0.67786 -0.09630 0.38455
 C764 C 0.65369 -0.07022 0.40298
 H765 H 0.63018 -0.12769 0.28801
 H766 H 0.58630 -0.07951 0.32153
 H767 H 0.59582 -0.12593 0.46012
 H768 H 0.64076 -0.17275 0.42878
 H769 H 0.70737 -0.09188 0.38511
 H770 H 0.66258 -0.04360 0.41862
 C771 C 0.65958 0.36778 -0.13604
 C772 C 0.63130 0.38208 -0.17405
 C773 C 0.60750 0.40798 -0.15573
 C774 C 0.61350 0.41746 -0.10049
 C775 C 0.61255 0.37944 -0.07344
 C776 C 0.63662 0.35371 -0.09143
 C777 C 0.67808 0.40390 -0.11584
 C778 C 0.65392 0.42993 -0.09726
 H779 H 0.63042 0.37290 -0.21261
 H780 H 0.58654 0.42097 -0.17879
 H781 H 0.59599 0.37403 -0.04052
 H782 H 0.64091 0.32729 -0.07218
 H783 H 0.70759 0.40830 -0.11520
 H784 H 0.66282 0.45648 -0.08142
 C785 C 1.13793 0.15896 -0.11990
 C786 C 1.11586 0.14064 -0.15858
 C787 C 1.08859 0.11566 -0.13969
 C788 C 1.08807 0.11343 -0.08555
 C789 C 1.12549 0.10351 -0.07081
 C790 C 1.15276 0.12860 -0.08915
 C791 C 1.11083 0.17744 -0.08716
 C792 C 1.08312 0.15208 -0.06836
 H793 H 1.11849 0.14643 -0.19821
 H794 H 1.06920 0.10118 -0.16377
 H795 H 1.13242 0.07969 -0.04735
 H796 H 1.18152 0.12587 -0.07887
 H797 H 1.11335 0.20555 -0.07213
 H798 H 1.06294 0.16054 -0.04078
 C799 C 1.13689 0.65924 0.38046
 C800 C 1.11394 0.63933 0.34015
 C801 C 1.08807 0.61550 0.35827
 C802 C 1.08711 0.61342 0.41525
 C803 C 1.12661 0.60364 0.43081
 C804 C 1.15242 0.62759 0.41310
 C805 C 1.10794 0.67844 0.41430
 C806 C 1.08181 0.65428 0.43247
 H807 H 1.11735 0.64422 0.30045
 H808 H 1.06945 0.60006 0.33416
 H809 H 1.13376 0.57964 0.45377
 H810 H 1.18137 0.62439 0.42190
 H811 H 1.10817 0.70781 0.42481
 H812 H 1.06005 0.66333 0.45736
 C813 C 0.65960 0.13533 0.36277
 C814 C 0.63117 0.12073 0.32516
 C815 C 0.60731 0.09506 0.34407
 C816 C 0.61337 0.08614 0.39948
 C817 C 0.65374 0.07360 0.40281
 C818 C 0.67798 0.09938 0.38361
 C819 C 0.63678 0.14992 0.40717
 C820 C 0.61264 0.12441 0.42577
 H821 H 0.63022 0.12954 0.28642
 H822 H 0.58624 0.08190 0.32134
 H823 H 0.66253 0.04717 0.41907
 H824 H 0.70747 0.09490 0.38406
 H825 H 0.64124 0.17644 0.42602
 H826 H 0.59621 0.13015 0.45869
 C827 C 0.66011 0.63527 -0.13733
 C828 C 0.63189 0.62330 -0.17269
 C829 C 0.60662 0.59651 -0.15292
 C830 C 0.61359 0.58663 -0.10093
 C831 C 0.65156 0.57325 -0.09993
 C832 C 0.67738 0.60020 -0.11991
 C833 C 0.64006 0.64877 -0.09338
 C834 C 0.61431 0.62222 -0.07397
 H835 H 0.63050 0.63272 -0.21119
 H836 H 0.58518 0.58390 -0.17561
 H837 H 0.65998 0.54650 -0.08420
 H838 H 0.70684 0.59546 -0.11896
 H839 H 0.64788 0.67310 -0.07142
 H840 H 0.60039 0.62670 -0.03865
 C841 C 0.86651 -0.16176 -0.12618
 C842 C 0.89619 -0.18158 -0.09414
 C843 C 0.92240 -0.15764 -0.07566
 C844 C 0.91647 -0.11641 -0.09097
 C845 C 0.91462 -0.11703 -0.14798
 C846 C 0.88863 -0.14060 -0.16631
 C847 C 0.85128 -0.13116 -0.09164
 C848 C 0.87717 -0.10748 -0.07368
 H849 H 0.89645 -0.21124 -0.08513
 H850 H 0.94467 -0.16712 -0.05189
 H851 H 0.93277 -0.10087 -0.17197
 H852 H 0.88464 -0.14453 -0.20607
 H853 H 0.82252 -0.12870 -0.08139
 H854 H 0.87028 -0.08459 -0.04867
 C855 C 0.86754 0.33806 0.37220
 C856 C 0.89726 0.31819 0.40412
 C857 C 0.92334 0.34215 0.42286
 C858 C 0.91725 0.38342 0.40787
 C859 C 0.91549 0.38308 0.35086
 C860 C 0.88962 0.35949 0.33228
 C861 C 0.85215 0.36842 0.40695
 C862 C 0.87790 0.39211 0.42512
 H863 H 0.89765 0.28847 0.41279
 H864 H 0.94566 0.33264 0.44654
 H865 H 0.93362 0.39943 0.32706
 H866 H 0.88571 0.35571 0.29248
 H867 H 0.82334 0.37076 0.41708
 H868 H 0.87084 0.41497 0.45010
 C869 C 0.34070 -0.13604 0.36868
 C870 C 0.36309 -0.15050 0.40999
 C871 C 0.38855 -0.12368 0.42941
 C872 C 0.38673 -0.08701 0.40517
 C873 C 0.39193 -0.09434 0.35213
 C874 C 0.36695 -0.12134 0.33226
 C875 C 0.32283 -0.10259 0.38997
 C876 C 0.34834 -0.07542 0.41003
 H877 H 0.35710 -0.17591 0.43086
 H878 H 0.40425 -0.12906 0.46305
 H879 H 0.41217 -0.08011 0.32904
 H880 H 0.36732 -0.12925 0.29314
 H881 H 0.29328 -0.09919 0.39333
 H882 H 0.33948 -0.04987 0.42854
 C883 C 0.34133 0.36353 -0.13043
 C884 C 0.36638 0.34822 -0.08869
 C885 C 0.39029 0.37397 -0.07015
 C886 C 0.38716 0.41311 -0.09381
 C887 C 0.39141 0.40648 -0.15004
 C888 C 0.36777 0.38063 -0.16894
 C889 C 0.32254 0.39789 -0.10601
 C890 C 0.34654 0.42387 -0.08686
 H891 H 0.36380 0.32083 -0.07142
 H892 H 0.40839 0.36763 -0.03913
 H893 H 0.41123 0.42119 -0.17324
 H894 H 0.36763 0.37324 -0.20820
 H895 H 0.29296 0.40115 -0.10319
 H896 H 0.33741 0.44922 -0.06815
 C897 C 1.13401 -0.16300 0.12739
 C898 C 1.11727 -0.13787 0.16809
 C899 C 1.09106 -0.11389 0.15151
 C900 C 1.08388 -0.11659 0.09537
 C901 C 1.12166 -0.11135 0.07078
 C902 C 1.14772 -0.13563 0.08694
 C903 C 1.10058 -0.18247 0.10283
 C904 C 1.07424 -0.15809 0.08606
 H905 H 1.12521 -0.13915 0.20707
 H906 H 1.07652 -0.09491 0.17628
 H907 H 1.12694 -0.09148 0.04092
 H908 H 1.17428 -0.13691 0.06880
 H909 H 1.09820 -0.21266 0.09810
 H910 H 1.04936 -0.16748 0.06755
 C911 C 1.13346 0.33630 0.62733
 C912 C 1.11685 0.36130 0.66828
 C913 C 1.09066 0.38541 0.65196
 C914 C 1.08339 0.38295 0.59584
 C915 C 1.12114 0.38822 0.57117
 C916 C 1.14717 0.36381 0.58705
 C917 C 1.09996 0.31701 0.60273
 C918 C 1.07365 0.34151 0.58624
 H919 H 1.12486 0.35984 0.70722
 H920 H 1.07621 0.40433 0.67691
 H921 H 1.12642 0.40823 0.54147
 H922 H 1.17371 0.36256 0.56884
 H923 H 1.09752 0.28685 0.59775
 H924 H 1.04872 0.33224 0.56775
 C925 C 0.65906 -0.12955 0.63546
 C926 C 0.63614 -0.10688 0.67311
 C927 C 0.61216 -0.08229 0.65200
 C928 C 0.61290 -0.08217 0.59481
 C929 C 0.65323 -0.07431 0.58122
 C930 C 0.67749 -0.09902 0.60245
 C931 C 0.63073 -0.14789 0.60069
 C932 C 0.60676 -0.12336 0.57974
 H933 H 0.63908 -0.10947 0.71323
 H934 H 0.59471 -0.06401 0.67408
 H935 H 0.66203 -0.05149 0.55712
 H936 H 0.70670 -0.09656 0.59562
 H937 H 0.63000 -0.17775 0.59248
 H938 H 0.58557 -0.13245 0.55392
 C939 C 0.65987 0.37090 0.13481
 C940 C 0.63705 0.39356 0.17260
 C941 C 0.61300 0.41812 0.15161
 C942 C 0.61359 0.41822 0.09443
 C943 C 0.65387 0.42612 0.08062
 C944 C 0.67821 0.40144 0.10173
 C945 C 0.63146 0.35253 0.10019
 C946 C 0.60743 0.37703 0.07937
 H947 H 0.64013 0.39099 0.21270
 H948 H 0.59562 0.43641 0.17378
 H949 H 0.66259 0.44898 0.05653
 H950 H 0.70741 0.40396 0.09484
 H951 H 0.63074 0.32267 0.09196
 H952 H 0.58620 0.36793 0.05363
 C953 C 0.86269 0.16146 0.11897
 C954 C 0.88120 0.13893 0.16109
 C955 C 0.90733 0.11452 0.14542
 C956 C 0.91266 0.11422 0.08885
 C957 C 0.87424 0.10682 0.06733
 C958 C 0.84820 0.13149 0.08249
 C959 C 0.89487 0.18001 0.09051
 C960 C 0.92112 0.15525 0.07478
 H961 H 0.87431 0.14209 0.20025
 H962 H 0.92285 0.09705 0.17106
 H963 H 0.86819 0.08440 0.04124
 H964 H 0.82083 0.13047 0.06681
 H965 H 0.89656 0.20991 0.08276
 H966 H 0.94528 0.16408 0.05412
 C967 C 0.86214 0.66084 0.62066
 C968 C 0.88070 0.63811 0.66253
 C969 C 0.90679 0.61373 0.64660
 C970 C 0.91205 0.61366 0.59000
 C971 C 0.87358 0.60640 0.56854
 C972 C 0.84759 0.63103 0.58398
 C973 C 0.89431 0.67947 0.59224
 C974 C 0.92051 0.65474 0.57623
 H975 H 0.87388 0.64110 0.70174
 H976 H 0.92233 0.59613 0.67206
 H977 H 0.86748 0.58412 0.54225
 H978 H 0.82019 0.63009 0.56837
 H979 H 0.89601 0.70940 0.58474
 H980 H 0.94464 0.66365 0.55556
 C981 C 0.34040 0.13435 0.63228
 C982 C 0.36309 0.11067 0.66904
 C983 C 0.38714 0.08669 0.64704
 C984 C 0.38675 0.08811 0.58989
 C985 C 0.34649 0.08069 0.57555
 C986 C 0.32213 0.10484 0.59764
 C987 C 0.36894 0.15364 0.59859
 C988 C 0.39306 0.12968 0.57677
 H989 H 0.35998 0.11219 0.70924
 H990 H 0.40449 0.06784 0.66847
 H991 H 0.33787 0.05894 0.54971
 H992 H 0.29303 0.10314 0.58963
 H993 H 0.36978 0.18372 0.59186
 H994 H 0.41458 0.13946 0.55188
 C995 C 0.34100 0.63490 0.13243
 C996 C 0.36393 0.61160 0.16935
 C997 C 0.38792 0.58746 0.14751
 C998 C 0.38724 0.58836 0.09034
 C999 C 0.34692 0.58072 0.07651
 C1000 C 0.32262 0.60502 0.09845
 C1001 C 0.36934 0.65393 0.09816
 C1002 C 0.39338 0.62981 0.07647
 H1003 H 0.36101 0.61347 0.20954
 H1004 H 0.40540 0.56884 0.16908
 H1005 H 0.33820 0.55867 0.05119
 H1006 H 0.29348 0.60312 0.09085
 H1007 H 0.37006 0.68395 0.09090
 H1008 H 0.41469 0.63938 0.05112
   
