data_POSCAR
  _audit_creation_date              2014-09-24
  _audit_creation_method            'ToBaCCo'
  _symmetry_space_group_name_H-M    'P1'
  _symmetry_Int_Tables_number       1
  _symmetry_cell_setting            triclinic
  loop_
  _symmetry_equiv_pos_as_xyz
 x,y,z
_cell_length_a 31.0642
_cell_length_b 28.9214
_cell_length_c 30.3912
_cell_angle_alpha 89.977700
_cell_angle_beta 89.863400
_cell_angle_gamma 90.078200
loop_
  _atom_site_label
  _atom_site_type_symbol
  _atom_site_fract_x
  _atom_site_fract_y
  _atom_site_fract_z
N1 N 0.21116 1.19029 0.21408
 N2 N 0.78142 0.80367 0.20424
 N3 N 0.79147 1.22381 -0.20682
 N4 N 0.21967 0.77734 -0.22246
 C5 C 0.54078 1.08854 -0.03123
 H6 H 0.52111 1.10033 -0.00411
 C7 C 0.57247 1.11767 -0.04858
 H8 H 0.57648 1.15212 -0.03523
 C9 C 0.56166 1.02841 -0.07977
 H10 H 0.55811 0.99302 -0.09070
 C11 C 0.59321 1.05662 -0.09857
 H12 H 0.61385 1.04282 -0.12414
 N13 N 0.53604 1.04480 -0.04698
 C14 C 0.44916 1.02163 0.05851
 H15 H 0.46680 0.99354 0.07345
 C16 C 0.41576 1.04300 0.08181
 H17 H 0.40813 1.03102 0.11467
 C18 C 0.43534 1.06863 -0.00373
 H19 H 0.44269 1.07772 -0.03746
 C20 C 0.40223 1.09128 0.01846
 H21 H 0.38501 1.11862 0.00174
 Zn22 Zn 0.49813 1.00278 -0.01912
 N23 N 0.45808 1.03464 0.01646
 C24 C 0.55488 0.98156 0.04877
 N25 N 0.53305 0.96267 0.01447
 C26 C 0.53989 0.91815 0.00183
 C27 C 0.56997 0.89087 0.02393
 C28 C 0.58506 0.95546 0.07191
 C29 C 0.46144 0.98378 -0.10308
 C30 C 0.43248 0.96189 -0.13143
 C31 C 0.41219 0.91067 -0.07203
 C32 C 0.44091 0.93398 -0.04469
 N33 N 0.46502 0.96956 -0.06056
 H34 H 0.54965 1.01742 0.05735
 H35 H 0.52332 0.90424 -0.02644
 H36 H 0.57547 0.85570 0.01309
 H37 H 0.60301 0.97156 0.09829
 H38 H 0.47967 1.01325 -0.11460
 H39 H 0.42919 0.97412 -0.16494
 H40 H 0.39260 0.88304 -0.05858
 H41 H 0.44335 0.92441 -0.01037
 C42 C 0.39143 1.07805 0.06160
 C43 C 0.59924 1.10162 -0.08251
 C44 C 0.40729 0.92503 -0.11580
 C45 C 0.59338 0.90968 0.05913
 C46 C -0.00435 0.56890 1.08001
 H47 H 0.02925 0.56219 1.08674
 C48 C -0.02599 0.60331 1.10323
 H49 H -0.00892 0.62228 1.12847
 C50 C -0.06689 0.55237 1.03836
 H51 H -0.08224 0.53342 1.01207
 C52 C -0.08976 0.58688 1.06062
 H53 H -0.12269 0.59397 1.05124
 N54 N -0.02491 0.54422 1.04835
 C55 C 0.07016 0.43462 1.03647
 H56 H 0.07908 0.43881 1.00227
 C57 C 0.09035 0.40099 1.06206
 H58 H 0.11490 0.37934 1.04738
 C59 C 0.02568 0.45620 1.09653
 H60 H -0.00029 0.47701 1.10945
 C61 C 0.04455 0.42243 1.12310
 H62 H 0.03350 0.41803 1.15667
 Zn63 Zn 0.01000 0.50294 1.01596
 N64 N 0.03875 0.46164 1.05407
 C65 C 0.09171 0.54337 0.99555
 N66 N 0.04940 0.54031 0.98440
 C67 C 0.03259 0.56676 0.95170
 C68 C 0.05883 0.59682 0.92779
 C69 C 0.11902 0.57370 0.97293
 C70 C -0.05729 0.44277 0.99248
 C71 C -0.07961 0.41185 0.96555
 C72 C -0.02915 0.42848 0.90700
 C73 C -0.00818 0.45954 0.93481
 N74 N -0.02250 0.46613 0.97668
 H75 H 0.10412 0.52316 1.02260
 H76 H -0.00140 0.56450 0.94431
 H77 H 0.04487 0.61776 0.90195
 H78 H 0.15259 0.57610 0.98221
 H79 H -0.06716 0.44749 1.02634
 H80 H -0.10683 0.39293 0.97878
 H81 H -0.01701 0.42313 0.87396
 H82 H 0.02048 0.47704 0.92338
 C83 C 0.07724 0.39430 1.10581
 C84 C -0.06909 0.61329 1.09319
 C85 C -0.06517 0.40401 0.92241
 C86 C 0.10256 0.60069 0.93847
 C87 C 1.06604 -0.03313 0.55185
 H88 H 1.08234 -0.00601 0.53389
 C89 C 1.08866 -0.05868 0.58323
 H90 H 1.12231 -0.05096 0.58886
 C91 C 1.00169 -0.07341 0.56900
 H92 H 0.96755 -0.07830 0.56373
 C93 C 1.02307 -0.09994 0.60043
 H94 H 1.00521 -0.12587 0.61859
 N95 N 1.02334 -0.04095 0.54533
 C96 C 1.01957 0.08051 0.46751
 H97 H 0.99365 0.09704 0.48528
 C98 C 1.04500 0.10652 0.43860
 H99 H 1.03825 0.14297 0.43454
 C100 C 1.05746 0.01233 0.44855
 H101 H 1.06160 -0.02462 0.45213
 C102 C 1.08400 0.03702 0.41989
 H103 H 1.10912 0.01876 0.40236
 Zn104 Zn 0.99036 -0.00352 0.50714
 N105 N 1.02630 0.03429 0.47197
 C106 C 0.97194 0.06509 0.56945
 N107 N 0.95375 0.03195 0.54373
 C108 C 0.91141 0.02063 0.54786
 C109 C 0.88563 0.04295 0.57896
 C110 C 0.94718 0.08873 0.60054
 C111 C 0.96574 -0.08606 0.46260
 C112 C 0.94249 -0.11180 0.43180
 C113 C 0.90296 -0.04277 0.41285
 C114 C 0.92746 -0.01825 0.44338
 N115 N 0.95767 -0.04020 0.46795
 H116 H 1.00599 0.07236 0.56650
 H117 H 0.89792 -0.00701 0.52836
 H118 H 0.85216 0.03301 0.58241
 H119 H 0.96233 0.11435 0.62140
 H120 H 0.99091 -0.10252 0.48141
 H121 H 0.95028 -0.14795 0.42730
 H122 H 0.87826 -0.02463 0.39470
 H123 H 0.92222 0.01843 0.44780
 C124 C 1.07767 0.08475 0.41409
 C125 C 1.06707 -0.09240 0.60829
 C126 C 0.91046 -0.09023 0.40639
 C127 C 0.90361 0.07718 0.60600
 C128 C 0.22031 0.26586 1.17685
 C129 C 0.19327 0.23275 1.19669
 C130 C 0.14852 0.24057 1.19717
 C131 C 0.13105 0.27993 1.17700
 C132 C 0.15852 0.31192 1.15570
 C133 C 0.20312 0.30492 1.15639
 C134 C 0.14085 0.34984 1.13332
 C135 C 0.09606 0.35645 1.13228
 C136 C 0.06913 0.32535 1.15483
 C137 C 0.08645 0.28729 1.17685
 H138 H 0.12712 0.21534 1.21195
 H139 H 0.22469 0.32930 1.14057
 H140 H 0.16184 0.37399 1.11634
 H141 H 0.06492 0.26322 1.19315
 H142 H 0.25486 0.26104 1.17652
 H143 H 0.03451 0.32968 1.15419
 C144 C -0.22034 0.72311 1.17705
 C145 C -0.19725 0.76385 1.18577
 C146 C -0.15330 0.76604 1.17514
 C147 C -0.13264 0.72828 1.15551
 C148 C -0.15602 0.68737 1.14669
 C149 C -0.19986 0.68506 1.15781
 C150 C -0.13522 0.64970 1.12665
 C151 C -0.09137 0.65256 1.11506
 C152 C -0.06870 0.69367 1.12390
 C153 C -0.08905 0.73104 1.14406
 H154 H -0.13548 0.79762 1.18133
 H155 H -0.21836 0.65403 1.15132
 H156 H -0.15304 0.61816 1.12038
 H157 H -0.07077 0.76228 1.15032
 H158 H -0.25424 0.72095 1.18514
 H159 H -0.03522 0.69732 1.11453
 C160 C -0.21449 0.29461 0.83614
 C161 C -0.18938 0.25995 0.81571
 C162 C -0.14412 0.26264 0.81991
 C163 C -0.12469 0.29826 0.84404
 C164 C -0.15048 0.33183 0.86511
 C165 C -0.19530 0.32987 0.86068
 C166 C -0.13097 0.36656 0.89052
 C167 C -0.08593 0.36846 0.89455
 C168 C -0.06059 0.33541 0.87272
 C169 C -0.07979 0.30048 0.84788
 H170 H -0.12393 0.23604 0.80561
 H171 H -0.21558 0.35559 0.87624
 H172 H -0.15069 0.39218 0.90700
 H173 H -0.05951 0.27504 0.83188
 H174 H -0.24920 0.29455 0.83287
 H175 H -0.02586 0.33601 0.87574
 C176 C 0.17531 0.70625 0.77748
 C177 C 0.19881 0.73977 0.80082
 C178 C 0.19996 0.73740 0.84708
 C179 C 0.17781 0.70232 0.86963
 C180 C 0.15340 0.66959 0.84578
 C181 C 0.15267 0.67161 0.79972
 C182 C 0.12956 0.63588 0.86844
 C183 C 0.13019 0.63410 0.91464
 C184 C 0.15563 0.66582 0.93800
 C185 C 0.17907 0.69984 0.91570
 H186 H 0.21733 0.76345 0.86553
 H187 H 0.13431 0.64664 0.78091
 H188 H 0.11028 0.61118 0.85023
 H189 H 0.19776 0.72454 0.93450
 H190 H 0.17413 0.70728 0.74189
 H191 H 0.15630 0.66514 0.97363
 C192 C 1.17809 0.11789 0.24042
 C193 C 1.18883 0.16443 0.24768
 C194 C 1.17626 0.18586 0.28714
 C195 C 1.15267 0.16111 0.31887
 C196 C 1.14136 0.11453 0.31081
 C197 C 1.15441 0.09318 0.27162
 C198 C 1.11689 0.09007 0.34187
 C199 C 1.10394 0.11108 0.38151
 C200 C 1.11589 0.15730 0.38943
 C201 C 1.13987 0.18212 0.35835
 H202 H 1.18467 0.22175 0.29278
 H203 H 1.14607 0.05748 0.26495
 H204 H 1.10731 0.05485 0.33466
 H205 H 1.14845 0.21772 0.36522
 H206 H 1.18726 0.10101 0.21002
 H207 H 1.10701 0.17425 0.41987
 C208 C 1.21885 -0.19121 0.70194
 C209 C 1.19735 -0.20068 0.74160
 C210 C 1.15413 -0.18747 0.74653
 C211 C 1.13258 -0.16480 0.71232
 C212 C 1.15438 -0.15537 0.67242
 C213 C 1.19750 -0.16888 0.66751
 C214 C 1.13279 -0.13227 0.63834
 C215 C 1.08975 -0.11809 0.64373
 C216 C 1.06857 -0.12771 0.68368
 C217 C 1.08970 -0.15096 0.71755
 H218 H 1.13765 -0.19425 0.77735
 H219 H 1.21477 -0.16191 0.63720
 H220 H 1.14943 -0.12555 0.60761
 H221 H 1.07262 -0.15770 0.74802
 H222 H 1.25219 -0.20119 0.69779
 H223 H 1.03577 -0.11646 0.68916
 C224 C 0.81238 -0.12322 0.23146
 C225 C 0.80308 -0.17023 0.23799
 C226 C 0.81662 -0.19210 0.27679
 C227 C 0.83921 -0.16717 0.30896
 C228 C 0.84900 -0.12002 0.30182
 C229 C 0.83534 -0.09833 0.26301
 C230 C 0.87245 -0.09533 0.33346
 C231 C 0.88564 -0.11671 0.37284
 C232 C 0.87504 -0.16350 0.37979
 C233 C 0.85231 -0.18854 0.34807
 H234 H 0.80941 -0.22842 0.28173
 H235 H 0.84253 -0.06220 0.25701
 H236 H 0.88092 -0.05963 0.32696
 H237 H 0.84480 -0.22456 0.35425
 H238 H 0.80252 -0.10612 0.20143
 H239 H 0.88391 -0.18079 0.41003
 C240 C 0.83461 0.23322 0.72674
 C241 C 0.81165 0.20500 0.75670
 C242 C 0.81076 0.15681 0.74888
 C243 C 0.83232 0.13747 0.71277
 C244 C 0.85596 0.16620 0.68390
 C245 C 0.85663 0.21404 0.69101
 C246 C 0.87885 0.14651 0.64869
 C247 C 0.87791 0.09847 0.64171
 C248 C 0.85350 0.07037 0.67009
 C249 C 0.83108 0.08965 0.70543
 H250 H 0.79441 0.13401 0.77180
 H251 H 0.87425 0.23667 0.66895
 H252 H 0.89737 0.16844 0.62672
 H253 H 0.81305 0.06711 0.72722
 H254 H 0.83529 0.27040 0.73086
 H255 H 0.85269 0.03323 0.66556
 C256 C 0.28370 1.15589 0.21749
 C257 C 0.24774 1.16932 0.19279
 C258 C 0.24726 1.16147 0.14725
 C259 C 0.28254 1.14072 0.12637
 C260 C 0.31907 1.12798 0.15124
 C261 C 0.31929 1.13567 0.19684
 C262 C 0.35463 1.10774 0.13008
 C263 C 0.35397 1.09953 0.08440
 C264 C 0.31699 1.11171 0.06035
 C265 C 0.28180 1.13233 0.08104
 H266 H 0.21914 1.17121 0.12834
 H267 H 0.34688 1.12595 0.21651
 H268 H 0.38291 1.09894 0.14911
 H269 H 0.25387 1.14147 0.06160
 H270 H 0.28424 1.16158 0.25269
 H271 H 0.31493 1.10479 0.02542
 C272 C 0.72241 1.18685 -0.22095
 C273 C 0.75340 1.20472 -0.19148
 C274 C 0.74505 1.20096 -0.14584
 C275 C 0.70779 1.17890 -0.13025
 C276 C 0.67821 1.15962 -0.16033
 C277 C 0.68553 1.16435 -0.20558
 C278 C 0.64222 1.13522 -0.14463
 C279 C 0.63520 1.13034 -0.09918
 C280 C 0.66402 1.15098 -0.06954
 C281 C 0.70015 1.17485 -0.08492
 H282 H 0.76849 1.21339 -0.12228
 H283 H 0.66288 1.15031 -0.22914
 H284 H 0.61987 1.11966 -0.16766
 H285 H 0.72242 1.18957 -0.06136
 H286 H 0.72688 1.19018 -0.25616
 H287 H 0.65931 1.14732 -0.03438
 C288 C 0.29149 0.76853 -0.18815
 C289 C 0.25953 0.79703 -0.20641
 C290 C 0.26599 0.84520 -0.20692
 C291 C 0.30275 0.86473 -0.18773
 C292 C 0.33354 0.83585 -0.16744
 C293 C 0.32802 0.78775 -0.16857
 C294 C 0.36864 0.85564 -0.14534
 C295 C 0.37347 0.90393 -0.14353
 C296 C 0.34373 0.93222 -0.16548
 C297 C 0.30856 0.91281 -0.18728
 H298 H 0.24163 0.86763 -0.22081
 H299 H 0.35154 0.76504 -0.15363
 H300 H 0.39171 0.83362 -0.12875
 H301 H 0.28537 0.93543 -0.20286
 H302 H 0.28758 0.73132 -0.18813
 H303 H 0.34673 0.96951 -0.16420
 C304 C 0.71206 0.84509 0.21071
 C305 C 0.74245 0.82159 0.18467
 C306 C 0.73533 0.81781 0.13910
 C307 C 0.69907 0.83815 0.11971
 C308 C 0.66936 0.86271 0.14609
 C309 C 0.67587 0.86547 0.19163
 C310 C 0.63419 0.88491 0.12636
 C311 C 0.62833 0.88299 0.08051
 C312 C 0.65750 0.85746 0.05478
 C313 C 0.69255 0.83526 0.07418
 H314 H 0.75871 0.80029 0.11853
 H315 H 0.65333 0.88395 0.21241
 H316 H 0.61163 0.90410 0.14657
 H317 H 0.71499 0.81656 0.05347
 H318 H 0.71669 0.84811 0.24589
 H319 H 0.65401 0.85590 0.01937
   
