data_POSCAR
  _audit_creation_date              2014-09-24
  _audit_creation_method            'ToBaCCo'
  _symmetry_space_group_name_H-M    'P1'
  _symmetry_Int_Tables_number       1
  _symmetry_cell_setting            triclinic
  loop_
  _symmetry_equiv_pos_as_xyz
 x,y,z
_cell_length_a 23.0386
_cell_length_b 24.2081
_cell_length_c 23.2965
_cell_angle_alpha 89.613600
_cell_angle_beta 91.597400
_cell_angle_gamma 90.610600
loop_
  _atom_site_label
  _atom_site_type_symbol
  _atom_site_fract_x
  _atom_site_fract_y
  _atom_site_fract_z
O1 O 0.53594 0.10871 0.00310
 O2 O 0.45921 -0.04284 -0.10858
 O3 O 0.62282 0.00352 -0.05060
 O4 O 0.35660 0.04278 0.00666
 O5 O 0.56701 -0.05893 -0.09469
 O6 O 0.43326 0.09558 0.00482
 O7 O 0.42409 0.03234 -0.07481
 O8 O 0.61291 0.06796 0.03140
 C9 C 0.58928 0.10973 0.01049
 C10 C 0.43195 0.00164 -0.11700
 C11 C 0.61070 -0.02611 -0.09372
 C12 C 0.37858 0.09230 0.01019
 O13 O 0.44488 0.03901 0.10601
 O14 O 0.54047 -0.12477 -0.00474
 O15 O 0.59152 -0.01744 0.09891
 O16 O 0.37652 -0.05496 -0.03530
 O17 O 0.44402 -0.10808 -0.01252
 O18 O 0.54798 0.06009 0.10983
 O19 O 0.40853 -0.03277 0.06554
 O20 O 0.61645 -0.07841 0.01958
 Co21 Co 0.49201 0.06845 0.05161
 Co22 Co 0.50263 -0.07654 -0.05073
 Co23 Co 0.60089 -0.00577 0.02319
 Co24 Co 0.42024 0.00108 -0.00291
 O25 O 0.50786 -0.00684 0.00470
 C26 C 0.41524 -0.00441 0.10950
 C27 C 0.59081 -0.12332 0.01410
 C28 C 0.57643 0.02024 0.13085
 C29 C 0.39233 -0.10312 -0.02641
 O30 O -0.11877 0.44204 -0.05259
 O31 O 0.03229 0.56481 0.10100
 O32 O 0.01405 0.39698 0.06937
 O33 O -0.07692 0.60635 -0.04445
 O34 O 0.01206 0.47078 0.11567
 O35 O -0.12614 0.53511 -0.03344
 O36 O -0.04163 0.59944 0.05512
 O37 O -0.08339 0.41039 0.02681
 C38 C -0.12611 0.41694 -0.00607
 C39 C -0.01237 0.59462 0.10052
 C40 C 0.00355 0.42052 0.11462
 C41 C -0.12316 0.58557 -0.02963
 O42 O -0.04623 0.55764 -0.12146
 O43 O 0.10048 0.44202 0.04221
 O44 O -0.03743 0.39326 -0.07466
 O45 O 0.06373 0.60845 0.01864
 O46 O 0.11397 0.53731 0.01821
 O47 O -0.02580 0.46389 -0.12521
 O48 O 0.03030 0.59051 -0.08008
 O49 O 0.05985 0.40298 -0.03185
 Co50 Co -0.07270 0.49995 -0.07622
 Co51 Co 0.05813 0.50359 0.06203
 Co52 Co -0.01165 0.41104 -0.00312
 Co53 Co -0.00638 0.59124 -0.01252
 O54 O -0.00801 0.50130 -0.00732
 C55 C 0.00059 0.58448 -0.12480
 C56 C 0.10351 0.40975 0.00008
 C57 C -0.02171 0.41341 -0.12050
 C58 C 0.11077 0.58745 0.00917
 O59 O -0.00783 -0.11062 0.44198
 O60 O 0.11963 0.05570 0.54539
 O61 O 0.07758 -0.02207 0.40405
 O62 O 0.01087 -0.06275 0.62147
 O63 O 0.11226 0.05200 0.44035
 O64 O 0.00134 -0.11614 0.54689
 O65 O 0.09798 -0.02169 0.58154
 O66 O -0.02002 -0.05281 0.37261
 C67 C -0.01545 -0.10172 0.38954
 C68 C 0.13524 0.01417 0.57350
 C69 C 0.11966 0.00929 0.41126
 C70 C 0.01047 -0.11027 0.59980
 O71 O -0.09190 -0.05389 0.55904
 O72 O 0.00809 0.10223 0.44090
 O73 O -0.06899 0.03070 0.41159
 O74 O 0.04085 0.05507 0.63346
 O75 O 0.01575 0.10140 0.55295
 O76 O -0.10310 -0.04648 0.44877
 O77 O -0.05254 0.01990 0.59922
 O78 O 0.01734 0.05742 0.35865
 Co79 Co -0.04563 -0.07565 0.49879
 Co80 Co 0.05905 0.07075 0.49496
 Co81 Co 0.00677 0.00659 0.41345
 Co82 Co 0.02347 0.00192 0.58287
 O83 O 0.01064 -0.00651 0.49799
 C84 C -0.09430 -0.01424 0.59439
 C85 C 0.01459 0.10441 0.38611
 C86 C -0.11110 -0.00193 0.42012
 C87 C 0.02833 0.10160 0.60735
 C88 C -0.30892 0.25884 0.00788
 C89 C -0.36815 0.26069 -0.00815
 C90 C -0.40173 0.21197 -0.00942
 C91 C -0.37603 0.16095 0.00438
 C92 C -0.31625 0.15941 0.01787
 C93 C -0.28327 0.20771 0.01991
 C94 C -0.27202 0.30903 0.01029
 C95 C -0.23346 0.31727 0.05732
 C96 C -0.18861 0.35623 0.05418
 C97 C -0.18122 0.38710 0.00371
 C98 C -0.22346 0.38285 -0.04096
 C99 C -0.26861 0.34405 -0.03766
 H100 H -0.44775 0.21432 -0.01982
 H101 H -0.29494 0.12082 0.02834
 H102 H -0.15786 0.35984 0.08989
 H103 H -0.21931 0.40662 -0.08020
 H104 H -0.23735 0.20511 0.03082
 H105 H -0.23606 0.29126 0.09521
 H106 H -0.38855 0.29979 -0.01825
 H107 H -0.29794 0.33843 -0.07435
 C108 C 0.28121 0.75903 -0.02505
 C109 C 0.25890 0.81295 -0.03152
 C110 C 0.29581 0.85901 -0.03407
 C111 C 0.35614 0.85281 -0.02747
 C112 C 0.37845 0.79896 -0.02051
 C113 C 0.34163 0.75284 -0.02025
 C114 C 0.24135 0.71002 -0.02234
 C115 C 0.25604 0.66184 0.00942
 C116 C 0.21540 0.61869 0.01606
 C117 C 0.15908 0.62399 -0.00737
 C118 C 0.14531 0.67112 -0.04010
 C119 C 0.18623 0.71239 -0.04929
 H120 H 0.27674 0.89956 -0.03902
 H121 H 0.42478 0.79204 -0.01595
 H122 H 0.22657 0.58337 0.04276
 H123 H 0.10169 0.67739 -0.05692
 H124 H 0.36089 0.71237 -0.01652
 H125 H 0.29773 0.65836 0.03156
 H126 H 0.21267 0.82023 -0.03339
 H127 H 0.17344 0.74712 -0.07602
 C128 C 0.27264 0.23734 -0.00235
 C129 C 0.24790 0.18462 -0.01095
 C130 C 0.28208 0.13736 -0.00605
 C131 C 0.34188 0.14200 0.00655
 C132 C 0.36669 0.19481 0.01461
 C133 C 0.33226 0.24201 0.01084
 C134 C 0.23563 0.28694 -0.00586
 C135 C 0.23617 0.32525 0.03917
 C136 C 0.19557 0.36787 0.03937
 C137 C 0.15413 0.37315 -0.00576
 C138 C 0.15698 0.33748 -0.05293
 C139 C 0.19683 0.29440 -0.05267
 H140 H 0.26177 0.09728 -0.01266
 H141 H 0.41273 0.19969 0.02401
 H142 H 0.19464 0.39475 0.07630
 H143 H 0.12693 0.34150 -0.08907
 H144 H 0.35227 0.28223 0.01749
 H145 H 0.26585 0.32038 0.07569
 H146 H 0.20184 0.17998 -0.02057
 H147 H 0.19644 0.26603 -0.08845
 C148 C -0.30510 0.73298 0.03328
 C149 C -0.29283 0.77982 0.06708
 C150 C -0.32880 0.82570 0.06363
 C151 C -0.37842 0.82499 0.02742
 C152 C -0.39435 0.77596 -0.00117
 C153 C -0.35771 0.73031 0.00145
 C154 C -0.25873 0.69264 0.02293
 C155 C -0.27043 0.63578 0.01635
 C156 C -0.22636 0.59990 0.00018
 C157 C -0.17051 0.62079 -0.01035
 C158 C -0.15909 0.67736 -0.00282
 C159 C -0.20242 0.71268 0.01366
 H160 H -0.31628 0.86268 0.08702
 H161 H -0.43268 0.77435 -0.02913
 H162 H -0.23611 0.55634 -0.00515
 H163 H -0.11655 0.69483 -0.01044
 H164 H -0.36822 0.69488 -0.02513
 H165 H -0.31361 0.61932 0.02308
 H166 H -0.25323 0.78240 0.09315
 H167 H -0.19220 0.75635 0.01682
 C168 C -0.02979 -0.28580 0.23309
 C169 C -0.06941 -0.28690 0.18616
 C170 C -0.06648 -0.32825 0.14486
 C171 C -0.02364 -0.36908 0.14956
 C172 C 0.01361 -0.36988 0.19832
 C173 C 0.01058 -0.32864 0.23965
 C174 C -0.02814 -0.23861 0.27329
 C175 C -0.03318 -0.18413 0.25249
 C176 C -0.02864 -0.13943 0.29008
 C177 C -0.01900 -0.14842 0.34915
 C178 C -0.01438 -0.20290 0.36992
 C179 C -0.01886 -0.24749 0.33241
 H180 H -0.09598 -0.32669 0.10793
 H181 H 0.04707 -0.40079 0.20314
 H182 H -0.03254 -0.09791 0.27291
 H183 H -0.00742 -0.21119 0.41533
 H184 H 0.04185 -0.32873 0.27522
 H185 H -0.03944 -0.17603 0.20698
 H186 H -0.10171 -0.25498 0.18065
 H187 H -0.01536 -0.28899 0.34970
 C188 C 0.01059 0.29305 0.75138
 C189 C -0.01083 0.34516 0.73432
 C190 C -0.01783 0.38691 0.77517
 C191 C -0.00434 0.37639 0.83334
 C192 C 0.01991 0.32554 0.84932
 C193 C 0.02853 0.28500 0.80883
 C194 C 0.01097 0.24532 0.71167
 C195 C -0.00307 0.19232 0.73265
 C196 C 0.00211 0.14601 0.69834
 C197 C 0.01992 0.15151 0.64163
 C198 C 0.03071 0.20450 0.61907
 C199 C 0.02666 0.25118 0.65403
 H200 H -0.03711 0.42576 0.76202
 H201 H 0.03023 0.31612 0.89389
 H202 H -0.00796 0.10575 0.71628
 H203 H 0.04418 0.20958 0.57517
 H204 H 0.04718 0.24624 0.82318
 H205 H -0.01761 0.18644 0.77608
 H206 H -0.02488 0.35265 0.69025
 H207 H 0.03752 0.29142 0.63659
 C208 C -0.01389 0.30344 0.25000
 C209 C -0.04578 0.29756 0.19819
 C210 C -0.04351 0.33834 0.15607
 C211 C -0.01080 0.38680 0.16522
 C212 C 0.01622 0.39568 0.21923
 C213 C 0.01489 0.35394 0.26149
 C214 C -0.00475 0.25398 0.28696
 C215 C -0.00929 0.25564 0.34697
 C216 C -0.00256 0.20715 0.37991
 C217 C 0.00918 0.15664 0.35319
 C218 C 0.01548 0.15579 0.29350
 C219 C 0.00867 0.20371 0.26093
 H220 H -0.06409 0.33021 0.11464
 H221 H 0.04229 0.43252 0.22692
 H222 H -0.00718 0.20903 0.42598
 H223 H 0.02549 0.11790 0.27159
 H224 H 0.03982 0.35945 0.30117
 H225 H -0.01924 0.29397 0.36806
 H226 H -0.06931 0.25959 0.18864
 H227 H 0.01404 0.20144 0.21496
 C228 C 0.02792 -0.30579 0.74131
 C229 C -0.02033 -0.34175 0.73904
 C230 C -0.02724 -0.38236 0.78127
 C231 C 0.01367 -0.38703 0.82718
 C232 C 0.06556 -0.35582 0.82446
 C233 C 0.07211 -0.31489 0.78267
 C234 C 0.02945 -0.25627 0.70391
 C235 C 0.04177 -0.20398 0.72758
 C236 C 0.03672 -0.15623 0.69375
 C237 C 0.01983 -0.16014 0.63558
 C238 C 0.00963 -0.21271 0.61160
 C239 C 0.01407 -0.26021 0.64549
 H240 H -0.06701 -0.40670 0.78032
 H241 H 0.10039 -0.36154 0.85578
 H242 H 0.04500 -0.11635 0.71328
 H243 H -0.00334 -0.21717 0.56681
 H244 H 0.11084 -0.28911 0.78379
 H245 H 0.05310 -0.19989 0.77280
 H246 H -0.05471 -0.33600 0.70697
 H247 H 0.00468 -0.30004 0.62625
 C248 C 0.33341 0.01863 0.73075
 C249 C 0.33256 0.06017 0.77267
 C250 C 0.36864 0.05703 0.82214
 C251 C 0.40639 0.01198 0.83090
 C252 C 0.41089 -0.02650 0.78585
 C253 C 0.37450 -0.02347 0.73692
 C254 C 0.28801 0.01609 0.68398
 C255 C 0.25787 -0.03374 0.67280
 C256 C 0.21020 -0.03525 0.63418
 C257 C 0.19205 0.01288 0.60517
 C258 C 0.22426 0.06202 0.61383
 C259 C 0.27138 0.06373 0.65320
 H260 H 0.36402 0.08803 0.85500
 H261 H 0.44006 -0.06124 0.78964
 H262 H 0.18605 -0.07360 0.62883
 H263 H 0.21110 0.09996 0.59253
 H264 H 0.37700 -0.05537 0.70473
 H265 H 0.26926 -0.07104 0.69624
 H266 H 0.30139 0.09326 0.76899
 H267 H 0.29398 0.10258 0.66065
 C268 C -0.32369 0.02289 0.28787
 C269 C -0.34674 0.07238 0.26524
 C270 C -0.38420 0.07160 0.21676
 C271 C -0.39866 0.02135 0.18993
 C272 C -0.37966 -0.02820 0.21548
 C273 C -0.34272 -0.02747 0.26389
 C274 C -0.27420 0.02327 0.33031
 C275 C -0.26855 -0.01881 0.37197
 C276 C -0.21650 -0.02532 0.40351
 C277 C -0.16905 0.01028 0.39425
 C278 C -0.17613 0.05481 0.35574
 C279 C -0.22808 0.06118 0.32406
 H280 H -0.39815 0.11040 0.19782
 H281 H -0.39032 -0.06756 0.19573
 H282 H -0.21264 -0.05965 0.43338
 H283 H -0.14046 0.08308 0.34773
 H284 H -0.32556 -0.06634 0.27969
 H285 H -0.30360 -0.04815 0.37848
 H286 H -0.33350 0.11181 0.28327
 H287 H -0.23061 0.09367 0.29195
 C288 C 0.30975 -0.02052 0.25785
 C289 C 0.29641 -0.05119 0.20786
 C290 C 0.33328 -0.04972 0.16104
 C291 C 0.38402 -0.01707 0.16285
 C292 C 0.39931 0.01070 0.21397
 C293 C 0.36282 0.00876 0.26099
 C294 C 0.26630 -0.01532 0.30400
 C295 C 0.25897 0.03539 0.33224
 C296 C 0.21344 0.04252 0.37009
 C297 C 0.17380 -0.00066 0.38011
 C298 C 0.18276 -0.05212 0.35430
 C299 C 0.22858 -0.05944 0.31701
 H300 H 0.32004 -0.07110 0.12205
 H301 H 0.43839 0.03595 0.21675
 H302 H 0.20742 0.08273 0.38899
 H303 H 0.15313 -0.08635 0.36149
 H304 H 0.37535 0.03172 0.29915
 H305 H 0.28651 0.07062 0.32290
 H306 H 0.25576 -0.07376 0.20337
 H307 H 0.23352 -0.09940 0.29724
 C308 C -0.27580 -0.01157 0.76190
 C309 C -0.32983 -0.03921 0.75584
 C310 C -0.36715 -0.04399 0.80234
 C311 C -0.35150 -0.02078 0.85578
 C312 C -0.29800 0.00749 0.86144
 C313 C -0.26066 0.01175 0.81543
 C314 C -0.23380 -0.00912 0.71405
 C315 C -0.19598 0.03657 0.70770
 C316 C -0.15195 0.03598 0.66743
 C317 C -0.14518 -0.00994 0.63181
 C318 C -0.18482 -0.05432 0.63593
 C319 C -0.22833 -0.05405 0.67668
 H320 H -0.40818 -0.06573 0.79645
 H321 H -0.28418 0.02555 0.90205
 H322 H -0.12238 0.07097 0.66513
 H323 H -0.18067 -0.09052 0.60935
 H324 H -0.21906 0.03212 0.82252
 H325 H -0.19963 0.07256 0.73462
 H326 H -0.34341 -0.05714 0.71515
 H327 H -0.25594 -0.09026 0.68051
   
