data_POSCAR
  _audit_creation_date              2014-09-24
  _audit_creation_method            'ToBaCCo'
  _symmetry_space_group_name_H-M    'P1'
  _symmetry_Int_Tables_number       1
  _symmetry_cell_setting            triclinic
  loop_
  _symmetry_equiv_pos_as_xyz
 x,y,z
_cell_length_a 60.8957
_cell_length_b 68.4317
_cell_length_c 55.5172
_cell_angle_alpha 89.757400
_cell_angle_beta 88.204400
_cell_angle_gamma 90.094800
loop_
  _atom_site_label
  _atom_site_type_symbol
  _atom_site_fract_x
  _atom_site_fract_y
  _atom_site_fract_z
C1 C 0.60873 0.64596 0.62543
 C2 C 0.62817 0.63791 0.61558
 C3 C 0.63442 0.61931 0.62224
 C4 C 0.62146 0.60855 0.63881
 C5 C 0.60213 0.61630 0.64836
 C6 C 0.59567 0.63519 0.64154
 C7 C 0.59884 0.66382 0.62258
 N8 N 0.58005 0.66414 0.63638
 C9 C 0.57790 0.64670 0.64800
 C10 C 0.59335 0.60263 0.66432
 N11 N 0.60709 0.58697 0.66476
 C12 C 0.62424 0.59049 0.64908
 C13 C 0.65364 0.61506 0.60973
 N14 N 0.65918 0.63060 0.59553
 C15 C 0.64376 0.64472 0.59905
 H16 H 0.60483 0.67572 0.61124
 H17 H 0.56455 0.64279 0.66044
 H18 H 0.57843 0.60421 0.67526
 H19 H 0.63800 0.58078 0.64569
 H20 H 0.66275 0.60151 0.61062
 H21 H 0.64369 0.65874 0.58993
 C22 C 0.88606 0.35194 0.12560
 C23 C 0.86862 0.36098 0.11396
 C24 C 0.86306 0.38011 0.11942
 C25 C 0.87461 0.39034 0.13684
 C26 C 0.89162 0.38133 0.14849
 C27 C 0.89759 0.36214 0.14257
 C28 C 0.89565 0.33380 0.12334
 N29 N 0.91297 0.33294 0.13820
 C30 C 0.91418 0.35020 0.15010
 C31 C 0.89925 0.39431 0.16513
 N32 N 0.88736 0.41100 0.16374
 C33 C 0.87236 0.40881 0.14637
 C34 C 0.84588 0.38520 0.10518
 N35 N 0.84086 0.36963 0.09128
 C36 C 0.85465 0.35474 0.09653
 H37 H 0.89081 0.32233 0.11120
 H38 H 0.92643 0.35394 0.16305
 H39 H 0.91227 0.39173 0.17759
 H40 H 0.86024 0.41961 0.14160
 H41 H 0.83763 0.39920 0.10494
 H42 H 0.85463 0.34049 0.08813
 C43 C 0.39070 0.14505 -0.12550
 C44 C 0.37119 0.13698 -0.11571
 C45 C 0.36490 0.11839 -0.12225
 C46 C 0.37792 0.10766 -0.13864
 C47 C 0.39732 0.11544 -0.14814
 C48 C 0.40381 0.13432 -0.14144
 C49 C 0.40061 0.16292 -0.12273
 N50 N 0.41947 0.16329 -0.13642
 C51 C 0.42164 0.14587 -0.14788
 C52 C 0.40613 0.10180 -0.16396
 N53 N 0.39234 0.08614 -0.16437
 C54 C 0.37514 0.08962 -0.14881
 C55 C 0.34560 0.11412 -0.10984
 N56 N 0.34003 0.12965 -0.09583
 C57 C 0.35552 0.14377 -0.09936
 H58 H 0.39459 0.17480 -0.11153
 H59 H 0.43504 0.14199 -0.16021
 H60 H 0.42110 0.10342 -0.17484
 H61 H 0.36132 0.07990 -0.14543
 H62 H 0.33643 0.10058 -0.11068
 H63 H 0.35559 0.15779 -0.09038
 C64 C 0.11418 0.85178 0.37433
 C65 C 0.13124 0.86097 0.38640
 C66 C 0.13666 0.88021 0.38109
 C67 C 0.12537 0.89040 0.36335
 C68 C 0.10877 0.88123 0.35123
 C69 C 0.10291 0.86194 0.35703
 C70 C 0.10469 0.83354 0.37646
 N71 N 0.08767 0.83259 0.36122
 C72 C 0.08657 0.84988 0.34917
 C73 C 0.10131 0.89423 0.33441
 N74 N 0.11289 0.91114 0.33611
 C75 C 0.12750 0.90900 0.35396
 C76 C 0.15349 0.88541 0.39574
 N77 N 0.15844 0.86981 0.40973
 C78 C 0.14495 0.85478 0.40416
 H79 H 0.10934 0.82210 0.38882
 H80 H 0.07451 0.85357 0.33596
 H81 H 0.08854 0.89149 0.32170
 H82 H 0.13928 0.91992 0.35925
 H83 H 0.16159 0.89950 0.39614
 H84 H 0.14501 0.84046 0.41252
 N85 N 0.09403 0.16384 0.13776
 N86 N 0.08002 0.15289 0.15029
 C87 C 0.06174 0.16328 0.15542
 C88 C 0.06467 0.18184 0.14598
 C89 C 0.08539 0.18179 0.13506
 H90 H 0.04737 0.15774 0.16517
 H91 H 0.09319 0.19361 0.12497
 Cu92 Cu 0.08710 0.12616 0.15868
 Cu93 Cu 0.12142 0.15316 0.12420
 Cu94 Cu 0.12098 0.10245 0.12062
 N95 N 0.09708 0.09992 0.16585
 N96 N 0.10925 0.09013 0.15010
 C97 C 0.11272 0.07201 0.15871
 C98 C 0.10262 0.07063 0.18130
 C99 C 0.09290 0.08860 0.18534
 H100 H 0.12254 0.06096 0.14961
 H101 H 0.08334 0.09302 0.20114
 N102 N 0.14024 0.11913 0.10011
 N103 N 0.14129 0.13831 0.10237
 C104 C 0.15685 0.14534 0.08687
 C105 C 0.16597 0.12979 0.07430
 C106 C 0.15507 0.11342 0.08311
 H107 H 0.16107 0.16062 0.08472
 H108 H 0.15801 0.09842 0.07787
 H109 H 0.10355 0.12886 0.11812
 H110 H 0.12451 0.12612 0.14168
 N111 N 0.40581 0.83936 0.62660
 N112 N 0.41972 0.85099 0.63722
 C113 C 0.43747 0.84059 0.64339
 C114 C 0.43434 0.82143 0.63643
 C115 C 0.41410 0.82115 0.62590
 H116 H 0.45152 0.84647 0.65236
 H117 H 0.40628 0.80871 0.61778
 Cu118 Cu 0.41325 0.87851 0.64263
 Cu119 Cu 0.37892 0.84893 0.61264
 Cu120 Cu 0.36339 0.89559 0.62834
 N121 N 0.40166 0.90284 0.65595
 N122 N 0.38190 0.90901 0.65082
 C123 C 0.37731 0.92525 0.66350
 C124 C 0.39518 0.92963 0.67719
 C125 C 0.41045 0.91517 0.67194
 H126 H 0.36200 0.93320 0.66304
 H127 H 0.42635 0.91338 0.67980
 N128 N 0.34689 0.87961 0.60584
 N129 N 0.35248 0.86154 0.60021
 C130 C 0.33827 0.85458 0.58418
 C131 C 0.32318 0.86906 0.57949
 C132 C 0.32911 0.88470 0.59349
 H133 H 0.33920 0.84030 0.57595
 H134 H 0.32124 0.89885 0.59429
 H135 H 0.38690 0.87818 0.61056
 H136 H 0.37516 0.86880 0.64015
 N137 N 0.90581 0.66367 0.36194
 N138 N 0.91988 0.65262 0.34982
 C139 C 0.93832 0.66290 0.34484
 C140 C 0.93545 0.68151 0.35393
 C141 C 0.91458 0.68159 0.36451
 H142 H 0.95275 0.65729 0.33536
 H143 H 0.90676 0.69349 0.37424
 Cu144 Cu 0.91259 0.62593 0.34158
 Cu145 Cu 0.87809 0.65319 0.37513
 Cu146 Cu 0.87766 0.60248 0.37908
 N147 N 0.90240 0.59977 0.33443
 N148 N 0.88967 0.59012 0.34993
 C149 C 0.88600 0.57207 0.34136
 C150 C 0.89662 0.57058 0.31906
 C151 C 0.90682 0.58841 0.31517
 H152 H 0.87576 0.56114 0.35029
 H153 H 0.91682 0.59273 0.29959
 N154 N 0.85841 0.61929 0.39917
 N155 N 0.85770 0.63849 0.39676
 C156 C 0.84212 0.64562 0.41207
 C157 C 0.83264 0.63013 0.42465
 C158 C 0.84335 0.61368 0.41605
 H159 H 0.83818 0.66094 0.41412
 H160 H 0.84016 0.59870 0.42140
 H161 H 0.89548 0.62871 0.38177
 H162 H 0.87490 0.62623 0.35777
 N163 N 0.59351 0.33903 -0.12577
 N164 N 0.57963 0.35065 -0.13649
 C165 C 0.56197 0.34020 -0.14280
 C166 C 0.56511 0.32100 -0.13585
 C167 C 0.58529 0.32076 -0.12516
 H168 H 0.54795 0.34607 -0.15187
 H169 H 0.59310 0.30831 -0.11699
 Cu170 Cu 0.58601 0.37826 -0.14180
 Cu171 Cu 0.62027 0.34866 -0.11160
 Cu172 Cu 0.63569 0.39554 -0.12714
 N173 N 0.59757 0.40276 -0.15501
 N174 N 0.61727 0.40901 -0.14974
 C175 C 0.62186 0.42537 -0.16239
 C176 C 0.60406 0.42974 -0.17619
 C177 C 0.58882 0.41516 -0.17106
 H178 H 0.63714 0.43341 -0.16182
 H179 H 0.57297 0.41331 -0.17903
 N180 N 0.65212 0.37949 -0.10454
 N181 N 0.64658 0.36135 -0.09896
 C182 C 0.66074 0.35435 -0.08285
 C183 C 0.67573 0.36890 -0.07803
 C184 C 0.66980 0.38461 -0.09206
 H185 H 0.65983 0.34000 -0.07464
 H186 H 0.67762 0.39881 -0.09278
 H187 H 0.61216 0.37784 -0.10954
 H188 H 0.62411 0.36876 -0.13906
 C189 C -0.04354 0.28800 0.14292
 N190 N -0.03988 0.30516 0.15426
 N191 N -0.05427 0.31973 0.15302
 C192 C -0.07274 0.31780 0.14010
 N193 N -0.07636 0.30059 0.12873
 N194 N -0.06210 0.28592 0.13025
 C195 C -0.02747 0.27211 0.14399
 N196 N -0.03349 0.25338 0.13961
 N197 N -0.01882 0.23899 0.14045
 C198 C 0.00245 0.24286 0.14537
 N199 N 0.00849 0.26160 0.14962
 N200 N -0.00624 0.27595 0.14910
 C201 C 0.01867 0.22706 0.14586
 N202 N 0.04043 0.23097 0.14259
 N203 N 0.05512 0.21656 0.14259
 C204 C 0.04859 0.19777 0.14621
 N205 N 0.02685 0.19389 0.14968
 N206 N 0.01213 0.20826 0.14935
 C207 C 0.53691 0.71091 0.64120
 N208 N 0.55795 0.71356 0.63304
 N209 N 0.57178 0.69853 0.63153
 C210 C 0.56516 0.68031 0.63832
 N211 N 0.54415 0.67768 0.64667
 N212 N 0.53025 0.69269 0.64796
 C213 C 0.52154 0.72742 0.64214
 N214 N 0.49954 0.72431 0.64418
 N215 N 0.48559 0.73930 0.64418
 C216 C 0.49315 0.75795 0.64239
 N217 N 0.51516 0.76106 0.64058
 N218 N 0.52909 0.74607 0.64034
 C219 C 0.47776 0.77443 0.64166
 N220 N 0.48489 0.79303 0.64480
 N221 N 0.47100 0.80801 0.64351
 C222 C 0.44954 0.80493 0.63877
 N223 N 0.44242 0.78633 0.63562
 N224 N 0.45626 0.77134 0.63715
 C225 C 1.04425 0.78752 0.35629
 N226 N 1.04078 0.80465 0.34464
 N227 N 1.05517 0.81925 0.34593
 C228 C 1.07344 0.81739 0.35919
 N229 N 1.07688 0.80021 0.37086
 N230 N 1.06262 0.78551 0.36930
 C231 C 1.02813 0.77163 0.35527
 N232 N 1.03399 0.75292 0.36010
 N233 N 1.01925 0.73855 0.35934
 C234 C 0.99806 0.74241 0.35408
 N235 N 0.99218 0.76112 0.34938
 N236 N 1.00698 0.77546 0.34980
 C237 C 0.98175 0.72663 0.35372
 N238 N 0.95999 0.73060 0.35664
 N239 N 0.94521 0.71622 0.35675
 C240 C 0.95165 0.69740 0.35361
 N241 N 0.97338 0.69346 0.35049
 N242 N 0.98819 0.70780 0.35071
 C243 C 0.46269 0.21015 -0.14123
 N244 N 0.44160 0.21275 -0.13329
 N245 N 0.42774 0.19768 -0.13178
 C246 C 0.43439 0.17949 -0.13838
 N247 N 0.45545 0.17692 -0.14653
 N248 N 0.46938 0.19196 -0.14780
 C249 C 0.47807 0.22671 -0.14213
 N250 N 0.50009 0.22367 -0.14394
 N251 N 0.51404 0.23870 -0.14386
 C252 C 0.50647 0.25732 -0.14224
 N253 N 0.48445 0.26036 -0.14067
 N254 N 0.47051 0.24533 -0.14050
 C255 C 0.52183 0.27385 -0.14141
 N256 N 0.51470 0.29244 -0.14466
 N257 N 0.52855 0.30747 -0.14326
 C258 C 0.54997 0.30445 -0.13830
 N259 N 0.55709 0.28586 -0.13505
 N260 N 0.54330 0.27083 -0.13669
 C261 C 0.10754 -0.04138 0.29215
 N262 N 0.12019 -0.04061 0.31182
 N263 N 0.12192 -0.05611 0.32624
 C264 C 0.11081 -0.07288 0.32172
 N265 N 0.09793 -0.07351 0.30218
 N266 N 0.09645 -0.05811 0.28757
 C267 C 0.10622 -0.02458 0.27578
 N268 N 0.10091 -0.02718 0.25244
 N269 N 0.10018 -0.01201 0.23738
 C270 C 0.10442 0.00634 0.24521
 N271 N 0.10954 0.00896 0.26860
 N272 N 0.11059 -0.00625 0.28358
 C273 C 0.10371 0.02302 0.22859
 N274 N 0.10026 0.04137 0.23706
 N275 N 0.09967 0.05652 0.22195
 C276 C 0.10283 0.05389 0.19787
 N277 N 0.10641 0.03555 0.18941
 N278 N 0.10668 0.02036 0.20449
 C279 C 0.60189 0.53922 -0.29123
 N280 N 0.61973 0.54183 -0.30612
 N281 N 0.62119 0.55726 -0.32073
 C282 C 0.60496 0.57085 -0.32090
 N283 N 0.58700 0.56820 -0.30604
 N284 N 0.58545 0.55262 -0.29153
 C285 C 0.60113 0.52254 -0.27450
 N286 N 0.58216 0.51701 -0.26281
 N287 N 0.58197 0.50195 -0.24743
 C288 C 0.60078 0.49206 -0.24305
 N289 N 0.61967 0.49765 -0.25471
 N290 N 0.61982 0.51252 -0.27022
 C291 C 0.60115 0.47588 -0.22562
 N292 N 0.62060 0.46993 -0.21689
 N293 N 0.62137 0.45530 -0.20109
 C294 C 0.60274 0.44590 -0.19359
 N295 N 0.58323 0.45175 -0.20238
 N296 N 0.58243 0.46657 -0.21805
 C297 C 0.39753 1.03853 0.79191
 N298 N 0.37966 1.04108 0.80674
 N299 N 0.37820 1.05646 0.82126
 C300 C 0.39446 1.07007 0.82140
 N301 N 0.41246 1.06748 0.80660
 N302 N 0.41400 1.05195 0.79218
 C303 C 0.39827 1.02191 0.77526
 N304 N 0.41722 1.01649 0.76356
 N305 N 0.41740 1.00151 0.74824
 C306 C 0.39859 0.99158 0.74393
 N307 N 0.37971 0.99705 0.75561
 N308 N 0.37958 1.01186 0.77106
 C309 C 0.39818 0.97548 0.72655
 N310 N 0.37871 0.96948 0.71792
 N311 N 0.37791 0.95495 0.70214
 C312 C 0.39653 0.94569 0.69456
 N313 N 0.41607 0.95158 0.70325
 N314 N 0.41689 0.96631 0.71889
 C315 C 0.89228 0.45880 0.20888
 N316 N 0.89962 0.44098 0.21577
 N317 N 0.89832 0.42570 0.20111
 C318 C 0.88939 0.42762 0.17912
 N319 N 0.88197 0.44544 0.17225
 N320 N 0.88352 0.46078 0.18681
 C321 C 0.89343 0.47552 0.22522
 N322 N 0.89218 0.49408 0.21666
 N323 N 0.89312 0.50924 0.23159
 C324 C 0.89506 0.50636 0.25564
 N325 N 0.89620 0.48779 0.26421
 N326 N 0.89554 0.47265 0.24925
 C327 C 0.89569 0.52301 0.27215
 N328 N 0.89084 0.52056 0.29601
 N329 N 0.89108 0.53573 0.31096
 C330 C 0.89647 0.55384 0.30264
 N331 N 0.90148 0.55627 0.27882
 N332 N 0.90097 0.54115 0.26381
 C333 C 0.28681 0.13142 -0.04736
 N334 N 0.29991 0.14734 -0.05072
 N335 N 0.31693 0.14686 -0.06641
 C336 C 0.32143 0.13046 -0.07935
 N337 N 0.30823 0.11460 -0.07604
 N338 N 0.29127 0.11506 -0.06033
 C339 C 0.26835 0.13162 -0.02969
 N340 N 0.25646 0.11513 -0.02525
 N341 N 0.23996 0.11507 -0.00894
 C342 C 0.23469 0.13151 0.00351
 N343 N 0.24651 0.14805 -0.00097
 N344 N 0.26308 0.14810 -0.01725
 C345 C 0.21667 0.13123 0.02173
 N346 N 0.21042 0.14781 0.03341
 N347 N 0.19419 0.14740 0.05009
 C348 C 0.18369 0.13039 0.05573
 N349 N 0.18995 0.11383 0.04405
 N350 N 0.20611 0.11425 0.02734
 C351 C 0.71210 0.63229 0.54662
 N352 N 0.70761 0.61594 0.55979
 N353 N 0.69075 0.61550 0.57563
 C354 C 0.67768 0.63139 0.57889
 N355 N 0.68219 0.64779 0.56576
 N356 N 0.69912 0.64824 0.54993
 C357 C 0.73045 0.63244 0.52882
 N358 N 0.73583 0.64890 0.51621
 N359 N 0.75232 0.64880 0.49983
 C360 C 0.76397 0.63221 0.49544
 N361 N 0.75858 0.61577 0.50807
 N362 N 0.74215 0.61590 0.52447
 C363 C 0.78193 0.63185 0.47716
 N364 N 0.79225 0.61480 0.47167
 N365 N 0.80841 0.61430 0.45496
 C366 C 0.81489 0.63083 0.44316
 N367 N 0.80462 0.64791 0.44868
 N368 N 0.78840 0.64841 0.46536
 C369 C 0.79216 0.36843 0.04070
 N370 N 0.79823 0.38553 0.05088
 N371 N 0.81380 0.38589 0.06718
 C372 C 0.82399 0.36917 0.07383
 N373 N 0.81797 0.35206 0.06359
 N374 N 0.80229 0.35169 0.04738
 C375 C 0.77497 0.36816 0.02273
 N376 N 0.76659 0.35101 0.01488
 N377 N 0.75089 0.35089 -0.00133
 C378 C 0.74312 0.36792 -0.01036
 N379 N 0.75157 0.38504 -0.00255
 N380 N 0.76715 0.38516 0.01374
 C381 C 0.72580 0.36795 -0.02818
 N382 N 0.72024 0.38483 -0.03934
 N383 N 0.70441 0.38504 -0.05534
 C384 C 0.69346 0.36841 -0.06070
 N385 N 0.69900 0.35150 -0.04954
 N386 N 0.71494 0.35126 -0.03362
 C387 C 0.20664 0.86867 0.46089
 N388 N 0.20047 0.88580 0.45074
 N389 N 0.18504 0.88614 0.43428
 C390 C 0.17508 0.86938 0.42744
 N391 N 0.18121 0.85223 0.43766
 N392 N 0.19675 0.85188 0.45403
 C393 C 0.22375 0.86839 0.47895
 N394 N 0.23228 0.85125 0.48673
 N395 N 0.24796 0.85112 0.50295
 C396 C 0.25557 0.86813 0.51208
 N397 N 0.24697 0.88525 0.50437
 N398 N 0.23140 0.88538 0.48805
 C399 C 0.27291 0.86814 0.52988
 N400 N 0.27840 0.88497 0.54107
 N401 N 0.29428 0.88517 0.55701
 C402 C 0.30536 0.86858 0.56226
 N403 N 0.29990 0.85173 0.55107
 N404 N 0.28391 0.85150 0.53521
   
