data_POSCAR
  _audit_creation_date              2014-09-24
  _audit_creation_method            'ToBaCCo'
  _symmetry_space_group_name_H-M    'P1'
  _symmetry_Int_Tables_number       1
  _symmetry_cell_setting            triclinic
  loop_
  _symmetry_equiv_pos_as_xyz
 x,y,z
_cell_length_a 67.5803
_cell_length_b 36.2174
_cell_length_c 21.5961
_cell_angle_alpha 89.978700
_cell_angle_beta 89.955900
_cell_angle_gamma 90.052400
loop_
  _atom_site_label
  _atom_site_type_symbol
  _atom_site_fract_x
  _atom_site_fract_y
  _atom_site_fract_z
C1 C 0.75042 0.25079 0.52933
 C2 C 0.75023 0.24980 0.46616
 C3 C 0.76654 0.23231 0.43049
 C4 C 0.73374 0.26617 0.42995
 C5 C 0.73301 0.26371 0.56535
 C6 C 0.76804 0.23888 0.56520
 C7 C 0.77650 0.25236 0.38479
 C8 C 0.79254 0.23692 0.35324
 C9 C 0.79921 0.20053 0.36627
 C10 C 0.78833 0.18030 0.41125
 C11 C 0.77228 0.19591 0.44241
 C12 C 0.72805 0.30304 0.43905
 C13 C 0.71191 0.31766 0.40697
 C14 C 0.70128 0.29577 0.36472
 C15 C 0.70742 0.25921 0.35431
 C16 C 0.72356 0.24461 0.38646
 C17 C 0.71425 0.24796 0.55616
 C18 C 0.69781 0.26142 0.58825
 C19 C 0.69986 0.29066 0.63059
 C20 C 0.71878 0.30561 0.64103
 C21 C 0.73521 0.29214 0.60889
 C22 C 0.76617 0.21150 0.61076
 C23 C 0.78285 0.19863 0.64227
 C24 C 0.80170 0.21312 0.62903
 C25 C 0.80342 0.24142 0.58477
 C26 C 0.78673 0.25433 0.55342
 H27 H 0.77227 0.28061 0.37493
 H28 H 0.80023 0.25504 0.32165
 H29 H 0.79139 0.15168 0.42144
 H30 H 0.76431 0.17950 0.47619
 H31 H 0.73594 0.32033 0.47167
 H32 H 0.70747 0.34583 0.41632
 H33 H 0.72785 0.21621 0.37837
 H34 H 0.71231 0.22556 0.52351
 H35 H 0.68343 0.24949 0.57887
 H36 H 0.72088 0.32772 0.67412
 H37 H 0.74959 0.30440 0.61705
 H38 H 0.75186 0.19935 0.62065
 H39 H 0.78107 0.17661 0.67574
 H40 H 0.81768 0.25362 0.57445
 H41 H 0.78841 0.27607 0.51937
 H42 H 0.69974 0.24187 0.32129
 C43 C 0.25016 0.75035 0.46999
 C44 C 0.25022 0.75051 0.53318
 C45 C 0.23392 0.76780 0.56910
 C46 C 0.26658 0.73341 0.56903
 C47 C 0.26770 0.73808 0.43402
 C48 C 0.23254 0.76243 0.43418
 C49 C 0.22832 0.80452 0.55792
 C50 C 0.21218 0.81986 0.58905
 C51 C 0.20148 0.79891 0.63251
 C52 C 0.20760 0.76259 0.64527
 C53 C 0.22372 0.74723 0.61396
 C54 C 0.27684 0.75420 0.61340
 C55 C 0.29300 0.73898 0.64469
 C56 C 0.29909 0.70259 0.63241
 C57 C 0.28834 0.68145 0.58942
 C58 C 0.27217 0.69664 0.55831
 C59 C 0.26579 0.71005 0.38963
 C60 C 0.28244 0.69684 0.35826
 C61 C 0.30129 0.71161 0.37049
 C62 C 0.30304 0.74056 0.41350
 C63 C 0.28639 0.75381 0.44468
 C64 C 0.21387 0.74680 0.44553
 C65 C 0.19718 0.75983 0.41436
 C66 C 0.19887 0.78846 0.37067
 C67 C 0.21771 0.80314 0.35782
 C68 C 0.23439 0.79015 0.38918
 H69 H 0.23629 0.82111 0.52444
 H70 H 0.20808 0.84814 0.57915
 H71 H 0.19957 0.74567 0.67814
 H72 H 0.22788 0.71891 0.62340
 H73 H 0.27270 0.78257 0.62249
 H74 H 0.30106 0.75605 0.67719
 H75 H 0.26416 0.67987 0.52523
 H76 H 0.25148 0.69768 0.38059
 H77 H 0.28064 0.67435 0.32573
 H78 H 0.31729 0.75298 0.42299
 H79 H 0.28810 0.77604 0.47779
 H80 H 0.21220 0.72480 0.47911
 H81 H 0.18293 0.74747 0.42435
 H82 H 0.21947 0.82539 0.32478
 H83 H 0.24869 0.80244 0.37961
 H84 H 0.29243 0.65311 0.57989
 C85 C 0.24972 0.25029 -0.46748
 C86 C 0.24976 0.25009 -0.53068
 C87 C 0.26738 0.26216 -0.56664
 C88 C 0.23219 0.23781 -0.56652
 C89 C 0.23336 0.23319 -0.43145
 C90 C 0.26605 0.26757 -0.43171
 C91 C 0.26555 0.28967 -0.61178
 C92 C 0.28220 0.30258 -0.64354
 C93 C 0.30126 0.28818 -0.63115
 C94 C 0.30270 0.25948 -0.58692
 C95 C 0.28600 0.24659 -0.55550
 C96 C 0.21356 0.25349 -0.55583
 C97 C 0.19690 0.24043 -0.58712
 C98 C 0.19838 0.21142 -0.63074
 C99 C 0.21745 0.19690 -0.64271
 C100 C 0.23406 0.21000 -0.61109
 C101 C 0.22773 0.19651 -0.44199
 C102 C 0.21164 0.18120 -0.41051
 C103 C 0.20075 0.20208 -0.36685
 C104 C 0.20714 0.23864 -0.35504
 C105 C 0.22322 0.25385 -0.38684
 C106 C 0.27624 0.24700 -0.38693
 C107 C 0.29236 0.26237 -0.35566
 C108 C 0.29849 0.29872 -0.36838
 C109 C 0.28781 0.31966 -0.41180
 C110 C 0.27167 0.30430 -0.44290
 H111 H 0.25126 0.30203 -0.62106
 H112 H 0.28000 0.32526 -0.67531
 H113 H 0.31659 0.24584 -0.57740
 H114 H 0.28763 0.22449 -0.52208
 H115 H 0.21191 0.27582 -0.52287
 H116 H 0.18300 0.25416 -0.57799
 H117 H 0.24835 0.19755 -0.62001
 H118 H 0.23577 0.17971 -0.47498
 H119 H 0.20828 0.15252 -0.41953
 H120 H 0.19923 0.25662 -0.32372
 H121 H 0.22736 0.28227 -0.37802
 H122 H 0.27206 0.21867 -0.37750
 H123 H 0.30038 0.24546 -0.32284
 H124 H 0.29193 0.34795 -0.42167
 H125 H 0.26371 0.32089 -0.47633
 H126 H 0.21967 0.17400 -0.67399
 C127 C -0.25011 0.74978 -0.53312
 C128 C -0.25027 0.75059 -0.46994
 C129 C -0.26788 0.73853 -0.43399
 C130 C -0.23286 0.76356 -0.43399
 C131 C -0.23367 0.76642 -0.56936
 C132 C -0.26640 0.73224 -0.56876
 C133 C -0.28654 0.75383 -0.44550
 C134 C -0.30322 0.74091 -0.41401
 C135 C -0.30171 0.71244 -0.36937
 C136 C -0.28262 0.69833 -0.35664
 C137 C -0.26599 0.71127 -0.38845
 C138 C -0.23507 0.79183 -0.39018
 C139 C -0.21865 0.80532 -0.35806
 C140 C -0.19972 0.79055 -0.36878
 C141 C -0.19765 0.76146 -0.41141
 C142 C -0.21409 0.74799 -0.44349
 C143 C -0.22349 0.74520 -0.61309
 C144 C -0.20741 0.76002 -0.64533
 C145 C -0.20110 0.79679 -0.63509
 C146 C -0.21201 0.81823 -0.59225
 C147 C -0.22807 0.80326 -0.56014
 C148 C -0.27208 0.69570 -0.55702
 C149 C -0.28813 0.68006 -0.58817
 C150 C -0.29892 0.70045 -0.63269
 C151 C -0.29248 0.73684 -0.64568
 C152 C -0.27645 0.75239 -0.61421
 H153 H -0.28822 0.77573 -0.47926
 H154 H -0.31715 0.75433 -0.42384
 H155 H -0.28037 0.67582 -0.32454
 H156 H -0.25167 0.69912 -0.37889
 H157 H -0.24947 0.80396 -0.38179
 H158 H -0.22076 0.82731 -0.32475
 H159 H -0.21213 0.72570 -0.47635
 H160 H -0.22781 0.71685 -0.62164
 H161 H -0.20040 0.74259 -0.67953
 H162 H -0.20775 0.84614 -0.58061
 H163 H -0.23595 0.82030 -0.52710
 H164 H -0.26411 0.67929 -0.52333
 H165 H -0.29153 0.65151 -0.57818
 H166 H -0.30032 0.75447 -0.67769
 H167 H -0.27227 0.78068 -0.62395
 H168 H -0.18326 0.74967 -0.42101
 N169 N -0.02103 0.93459 -0.06576
 N170 N -0.03622 0.91204 -0.07281
 N171 N 0.02046 0.96058 -0.10972
 N172 N 0.03579 0.95698 -0.14709
 N173 N 0.02065 0.93485 -0.06690
 N174 N 0.03612 0.91303 -0.07400
 N175 N -0.02119 0.96036 -0.10851
 N176 N -0.03647 0.95604 -0.14581
 C177 C -0.04572 0.92573 -0.12303
 C178 C 0.04541 0.92712 -0.12439
 N179 N 0.02054 1.06557 -0.06630
 N180 N 0.03600 1.08753 -0.07318
 N181 N -0.02124 1.03985 -0.10816
 N182 N -0.03643 1.04439 -0.14575
 N183 N -0.02113 1.06545 -0.06515
 N184 N -0.03625 1.08810 -0.07230
 N185 N 0.02039 1.03999 -0.10935
 N186 N 0.03573 1.04384 -0.14665
 Mn187 Mn -0.00041 1.00019 -0.10969
 C188 C 0.04531 1.07369 -0.12368
 C189 C -0.04567 1.07462 -0.12284
 N190 N 0.02099 0.93455 0.06643
 N191 N 0.03617 0.91202 0.07344
 N192 N -0.02057 0.95997 0.11059
 N193 N -0.03595 0.95614 0.14773
 N194 N -0.02069 0.93439 0.06754
 N195 N -0.03616 0.91247 0.07424
 N196 N 0.02108 0.96014 0.10945
 N197 N 0.03631 0.95572 0.14691
 Mn198 Mn -0.00002 0.93411 0.00033
 C199 C 0.04560 0.92555 0.12392
 C200 C -0.04552 0.92631 0.12463
 N201 N -0.02081 1.06514 0.06817
 N202 N -0.03631 1.08692 0.07519
 N203 N 0.02101 1.03963 0.10981
 N204 N 0.03628 1.04400 0.14716
 N205 N 0.02086 1.06537 0.06702
 N206 N 0.03603 1.08796 0.07409
 N207 N -0.02064 1.03940 0.11098
 N208 N -0.03599 1.04296 0.14826
 Mn209 Mn -0.00014 1.06586 0.00094
 Mn210 Mn 0.00023 0.99978 0.11097
 Cl211 Cl -0.00008 0.99999 0.00064
 C212 C -0.04562 1.07281 0.12553
 C213 C 0.04552 1.07431 0.12435
 N214 N 0.52056 0.53878 0.11061
 N215 N 0.53589 0.54232 0.14793
 N216 N 0.47910 0.56473 0.06669
 N217 N 0.46395 0.58731 0.07390
 N218 N 0.47891 0.53892 0.10937
 N219 N 0.46364 0.54324 0.14679
 N220 N 0.52077 0.56459 0.06792
 N221 N 0.53627 0.58638 0.07505
 C222 C 0.54554 0.57221 0.12533
 C223 C 0.45444 0.57358 0.12413
 N224 N 0.47969 0.53963 -0.10980
 N225 N 0.46441 0.54356 -0.14722
 N226 N 0.52119 0.56509 -0.06539
 N227 N 0.53633 0.58775 -0.07235
 N228 N 0.52132 0.53956 -0.10851
 N229 N 0.53656 0.54416 -0.14598
 N230 N 0.47951 0.56514 -0.06664
 N231 N 0.46409 0.58712 -0.07355
 Mn232 Mn 0.50014 0.56537 0.00065
 C233 C 0.45483 0.57337 -0.12418
 C234 C 0.54580 0.57436 -0.12288
 N235 N 0.47881 0.45944 0.10866
 N236 N 0.46354 0.45494 0.14605
 N237 N 0.52059 0.43383 0.06673
 N238 N 0.53605 0.41192 0.07339
 N239 N 0.52046 0.45935 0.10989
 N240 N 0.53580 0.45548 0.14707
 N241 N 0.47892 0.43392 0.06553
 N242 N 0.46372 0.41136 0.07240
 Mn243 Mn 0.49968 0.49912 0.11040
 C244 C 0.45426 0.42480 0.12290
 C245 C 0.54537 0.42569 0.12388
 N246 N 0.52123 0.46007 -0.10921
 N247 N 0.53654 0.45583 -0.14648
 N248 N 0.47936 0.43442 -0.06779
 N249 N 0.46386 0.41261 -0.07497
 N250 N 0.47959 0.46021 -0.11051
 N251 N 0.46427 0.45666 -0.14788
 N252 N 0.52103 0.43424 -0.06656
 N253 N 0.53621 0.41172 -0.07366
 Mn254 Mn 0.50047 0.49987 -0.11027
 Mn255 Mn 0.49997 0.43362 -0.00053
 Cl256 Cl 0.50006 0.49950 0.00006
 C257 C 0.54576 0.42551 -0.12380
 C258 C 0.45461 0.42677 -0.12530
 C259 C 0.35239 0.33224 0.28023
 C260 C 0.33391 0.33489 0.25167
 C261 C 0.31710 0.32022 0.28039
 C262 C 0.31839 0.30243 0.33866
 C263 C 0.33732 0.29983 0.36639
 C264 C 0.35405 0.31461 0.33747
 C265 C 0.36962 0.34808 0.25138
 C266 C 0.38414 0.36150 0.22794
 C267 C 0.40157 0.37767 0.20082
 C268 C 0.41018 0.36187 0.14815
 C269 C 0.42732 0.37729 0.12252
 C270 C 0.43603 0.40870 0.14940
 C271 C 0.42722 0.42452 0.20205
 C272 C 0.41010 0.40907 0.22759
 H273 H 0.33248 0.34826 0.20700
 H274 H 0.30330 0.32193 0.25531
 H275 H 0.33935 0.28797 0.41188
 H276 H 0.36829 0.31270 0.36030
 H277 H 0.40370 0.33757 0.12706
 H278 H 0.43377 0.36458 0.08186
 H279 H 0.43359 0.44876 0.22364
 H280 H 0.40356 0.42152 0.26836
 C281 C -0.15001 0.84072 0.27591
 C282 C -0.15210 0.80263 0.28337
 C283 C -0.16896 0.78810 0.31192
 C284 C -0.18420 0.81148 0.33404
 C285 C -0.18183 0.84999 0.32529
 C286 C -0.16493 0.86432 0.29661
 C287 C -0.13234 0.85561 0.24824
 C288 C -0.11743 0.86806 0.22575
 C289 C -0.09951 0.88292 0.19971
 C290 C -0.09060 0.91389 0.22665
 C291 C -0.07302 0.92806 0.20213
 C292 C -0.06413 0.91137 0.15035
 C293 C -0.07322 0.88038 0.12335
 C294 C -0.09081 0.86623 0.14797
 H295 H -0.14052 0.78409 0.26796
 H296 H -0.16937 0.75857 0.31899
 H297 H -0.19320 0.86941 0.33856
 H298 H -0.16353 0.89392 0.29059
 H299 H -0.09721 0.92700 0.26672
 H300 H -0.06637 0.95203 0.22375
 H301 H -0.06673 0.86704 0.08334
 H302 H -0.09759 0.84224 0.12679
 C303 C 0.64995 0.65582 0.27982
 C304 C 0.65611 0.64226 0.33716
 C305 C 0.67300 0.65661 0.36569
 C306 C 0.68418 0.68512 0.33746
 C307 C 0.67772 0.69820 0.27906
 C308 C 0.66082 0.68367 0.25074
 C309 C 0.63229 0.64146 0.25141
 C310 C 0.61739 0.62937 0.22839
 C311 C 0.59948 0.61483 0.20183
 C312 C 0.59044 0.58378 0.22817
 C313 C 0.57288 0.56987 0.20317
 C314 C 0.56414 0.58691 0.15150
 C315 C 0.57335 0.61799 0.12509
 C316 C 0.59092 0.63187 0.15019
 H317 H 0.64768 0.62087 0.36038
 H318 H 0.67655 0.64624 0.41127
 H319 H 0.68595 0.71882 0.25360
 H320 H 0.65626 0.69417 0.20598
 H321 H 0.59694 0.57039 0.26815
 H322 H 0.56615 0.54584 0.22435
 H323 H 0.56696 0.63159 0.08518
 H324 H 0.59779 0.65593 0.12946
 C325 C 0.14734 1.16685 0.28124
 C326 C 0.14562 1.18487 0.33811
 C327 C 0.16232 1.19981 0.36682
 C328 C 0.18129 1.19699 0.33926
 C329 C 0.18263 1.17880 0.28137
 C330 C 0.16584 1.16397 0.25285
 C331 C 0.13012 1.15091 0.25257
 C332 C 0.11561 1.13744 0.22924
 C333 C 0.09819 1.12128 0.20218
 C334 C 0.08953 1.13727 0.14978
 C335 C 0.07240 1.12189 0.12419
 C336 C 0.06374 1.09035 0.15085
 C337 C 0.07260 1.07434 0.20324
 C338 C 0.08972 1.08975 0.22874
 H339 H 0.13136 1.18697 0.36080
 H340 H 0.16025 1.21199 0.41205
 H341 H 0.19646 1.17690 0.25641
 H342 H 0.16731 1.15030 0.20846
 H343 H 0.09597 1.16168 0.12886
 H344 H 0.06592 1.13474 0.08374
 H345 H 0.06627 1.04999 0.22465
 H346 H 0.09630 1.07717 0.26931
 C347 C 0.64848 0.33547 -0.27916
 C348 C 0.65048 0.29723 -0.28603
 C349 C 0.66725 0.28257 -0.31490
 C350 C 0.68226 0.30602 -0.33725
 C351 C 0.68016 0.34442 -0.32970
 C352 C 0.66337 0.35900 -0.30089
 C353 C 0.63099 0.35065 -0.25093
 C354 C 0.61630 0.36361 -0.22792
 C355 C 0.59870 0.37931 -0.20122
 C356 C 0.58994 0.36302 -0.14916
 C357 C 0.57271 0.37811 -0.12374
 C358 C 0.56404 0.40967 -0.15022
 C359 C 0.57298 0.42595 -0.20231
 C360 C 0.59020 0.41082 -0.22763
 H361 H 0.63904 0.27876 -0.26932
 H362 H 0.66855 0.25289 -0.31938
 H363 H 0.69131 0.36322 -0.34720
 H364 H 0.66193 0.38866 -0.29606
 H365 H 0.59639 0.33863 -0.12834
 H366 H 0.56616 0.36506 -0.08352
 H367 H 0.56666 0.45031 -0.22357
 H368 H 0.59687 0.42366 -0.26791
 C369 C 0.14958 0.84323 -0.27971
 C370 C 0.15318 0.85004 -0.34249
 C371 C 0.17012 0.83584 -0.37089
 C372 C 0.18371 0.81458 -0.33680
 C373 C 0.18000 0.80796 -0.27364
 C374 C 0.16303 0.82223 -0.24530
 C375 C 0.13197 0.85756 -0.25099
 C376 C 0.11710 0.86967 -0.22779
 C377 C 0.09924 0.88429 -0.20111
 C378 C 0.09024 0.91530 -0.22753
 C379 C 0.07272 0.92929 -0.20245
 C380 C 0.06397 0.91236 -0.15061
 C381 C 0.07315 0.88132 -0.12411
 C382 C 0.09069 0.86736 -0.14930
 H383 H 0.14282 0.86614 -0.36961
 H384 H 0.17241 0.84092 -0.41979
 H385 H 0.19028 0.79202 -0.24607
 H386 H 0.16039 0.81685 -0.19663
 H387 H 0.09674 0.92860 -0.26764
 H388 H 0.06601 0.95330 -0.22370
 H389 H 0.06675 0.86780 -0.08407
 H390 H 0.09753 0.84333 -0.12851
 C391 C 0.35098 0.65844 -0.27960
 C392 C 0.33759 0.67971 -0.24541
 C393 C 0.32064 0.69396 -0.27382
 C394 C 0.31687 0.68703 -0.33685
 C395 C 0.33041 0.66552 -0.37072
 C396 C 0.34734 0.65134 -0.34224
 C397 C 0.36855 0.64404 -0.25078
 C398 C 0.38338 0.63182 -0.22753
 C399 C 0.40119 0.61699 -0.20086
 C400 C 0.40971 0.63361 -0.14877
 C401 C 0.42719 0.61940 -0.12359
 C402 C 0.43633 0.58842 -0.15037
 C403 C 0.42762 0.57180 -0.20249
 C404 C 0.41016 0.58603 -0.22756
 H405 H 0.34025 0.68531 -0.19684
 H406 H 0.31039 0.71010 -0.24640
 H407 H 0.32809 0.66018 -0.41951
 H408 H 0.35765 0.63502 -0.36919
 H409 H 0.40288 0.65759 -0.12776
 H410 H 0.43355 0.63269 -0.08334
 H411 H 0.43431 0.54785 -0.22397
 H412 H 0.40370 0.57296 -0.26789
 C413 C -0.14681 1.16805 -0.28204
 C414 C -0.16408 1.17424 -0.24777
 C415 C -0.18081 1.18916 -0.27648
 C416 C -0.18045 1.19811 -0.33989
 C417 C -0.16297 1.19196 -0.37381
 C418 C -0.14629 1.17703 -0.34504
 C419 C -0.12969 1.15209 -0.25294
 C420 C -0.11528 1.13854 -0.22925
 C421 C -0.09798 1.12220 -0.20179
 C422 C -0.08953 1.09068 -0.22832
 C423 C -0.07253 1.07506 -0.20243
 C424 C -0.06378 1.09086 -0.14967
 C425 C -0.07242 1.12239 -0.12304
 C426 C -0.08943 1.13797 -0.14903
 H427 H -0.16463 1.16744 -0.19894
 H428 H -0.19397 1.19394 -0.24901
 H429 H -0.16233 1.19804 -0.42287
 H430 H -0.13302 1.17221 -0.37206
 H431 H -0.09603 1.07826 -0.26916
 H432 H -0.06621 1.05074 -0.22382
 H433 H -0.06601 1.13507 -0.08232
 H434 H -0.09586 1.16237 -0.12813
 C435 C 0.64728 0.66801 -0.28070
 C436 C 0.66573 0.66580 -0.25190
 C437 C 0.68250 0.68062 -0.28062
 C438 C 0.68119 0.69812 -0.33914
 C439 C 0.66227 0.70032 -0.36707
 C440 C 0.64558 0.68538 -0.33815
 C441 C 0.63010 0.65197 -0.25186
 C442 C 0.61563 0.63838 -0.22838
 C443 C 0.59828 0.62202 -0.20116
 C444 C 0.58983 0.59054 -0.22790
 C445 C 0.57277 0.57490 -0.20223
 C446 C 0.56396 0.59063 -0.14950
 C447 C 0.57260 0.62211 -0.12266
 C448 C 0.58967 0.63771 -0.14841
 H449 H 0.66717 0.65264 -0.20706
 H450 H 0.69628 0.67925 -0.25538
 H451 H 0.66024 0.71195 -0.41272
 H452 H 0.63136 0.68696 -0.36115
 H453 H 0.59637 0.57817 -0.26873
 H454 H 0.56646 0.55061 -0.22379
 H455 H 0.56615 0.63474 -0.08194
 H456 H 0.59609 0.66208 -0.12735
 C457 C 0.14957 1.15813 -0.27838
 C458 C 0.16033 1.18642 -0.25015
 C459 C 0.17724 1.20076 -0.27882
 C460 C 0.18381 1.18704 -0.33669
 C461 C 0.17273 1.15815 -0.36407
 C462 C 0.15583 1.14399 -0.33522
 C463 C 0.13193 1.14387 -0.24963
 C464 C 0.11704 1.13174 -0.22648
 C465 C 0.09916 1.11701 -0.19995
 C466 C 0.09058 1.13377 -0.14806
 C467 C 0.07303 1.11966 -0.12302
 C468 C 0.06387 1.08864 -0.14974
 C469 C 0.07264 1.07191 -0.20167
 C470 C 0.09017 1.08604 -0.22660
 H471 H 0.15568 1.19738 -0.20579
 H472 H 0.18538 1.22174 -0.25398
 H473 H 0.17636 1.14729 -0.40928
 H474 H 0.14749 1.12227 -0.35779
 H475 H 0.09741 1.15777 -0.12708
 H476 H 0.06662 1.13303 -0.08290
 H477 H 0.06595 1.04793 -0.22310
 H478 H 0.09669 1.07287 -0.26677
 C479 C 0.35039 0.34308 -0.28060
 C480 C 0.33693 0.32201 -0.24622
 C481 C 0.31996 0.30773 -0.27455
 C482 C 0.31625 0.31442 -0.33769
 C483 C 0.32985 0.33576 -0.37174
 C484 C 0.34680 0.34997 -0.34334
 C485 C 0.36800 0.35739 -0.25191
 C486 C 0.38288 0.36948 -0.22872
 C487 C 0.40075 0.38406 -0.20204
 C488 C 0.40927 0.36706 -0.15030
 C489 C 0.42682 0.38098 -0.12512
 C490 C 0.43604 0.41205 -0.15153
 C491 C 0.42733 0.42904 -0.20330
 C492 C 0.40979 0.41509 -0.22838
 H493 H 0.33955 0.31657 -0.19759
 H494 H 0.30966 0.29173 -0.24700
 H495 H 0.32758 0.34090 -0.42061
 H496 H 0.35716 0.36613 -0.37044
 H497 H 0.40239 0.34301 -0.12957
 H498 H 0.43319 0.36741 -0.08513
 H499 H 0.43407 0.45307 -0.22449
 H500 H 0.40332 0.42844 -0.26844
 C501 C -0.14837 0.83540 -0.27843
 C502 C -0.15033 0.79717 -0.28566
 C503 C -0.16710 0.78250 -0.31456
 C504 C -0.18213 0.80592 -0.33660
 C505 C -0.18007 0.84430 -0.32869
 C506 C -0.16329 0.85891 -0.29983
 C507 C -0.13089 0.85061 -0.25017
 C508 C -0.11621 0.86360 -0.22714
 C509 C -0.09862 0.87935 -0.20043
 C510 C -0.08991 0.86315 -0.14829
 C511 C -0.07269 0.87829 -0.12287
 C512 C -0.06399 0.90982 -0.14944
 C513 C -0.07288 0.92602 -0.20162
 C514 C -0.09009 0.91084 -0.22694
 H515 H -0.13887 0.77872 -0.26919
 H516 H -0.16836 0.75283 -0.31932
 H517 H -0.19124 0.86309 -0.34594
 H518 H -0.16188 0.88855 -0.29473
 H519 H -0.09640 0.83877 -0.12739
 H520 H -0.06618 0.86530 -0.08258
 H521 H -0.06652 0.95036 -0.22296
 H522 H -0.09671 0.92361 -0.26729
 C523 C 0.35279 0.66599 0.28226
 C524 C 0.35337 0.67570 0.34493
 C525 C 0.33666 0.69075 0.37349
 C526 C 0.31912 0.69629 0.33966
 C527 C 0.31870 0.68653 0.27661
 C528 C 0.33545 0.67150 0.24812
 C529 C 0.36997 0.65008 0.25334
 C530 C 0.38445 0.63664 0.22981
 C531 C 0.40184 0.62049 0.20252
 C532 C 0.41051 0.63655 0.15013
 C533 C 0.42761 0.62119 0.12434
 C534 C 0.43624 0.58959 0.15080
 C535 C 0.42737 0.57350 0.20317
 C536 C 0.41027 0.58890 0.22887
 H537 H 0.36669 0.67141 0.37185
 H538 H 0.33735 0.69745 0.42231
 H539 H 0.30548 0.69082 0.24923
 H540 H 0.33486 0.66414 0.19953
 H541 H 0.40410 0.66101 0.12937
 H542 H 0.43411 0.63410 0.08391
 H543 H 0.43367 0.54912 0.22442
 H544 H 0.40368 0.57626 0.26943
 C545 C -0.15010 1.15639 0.27950
 C546 C -0.16006 1.18610 0.25284
 C547 C -0.17696 1.20063 0.28109
 C548 C -0.18447 1.18579 0.33738
 C549 C -0.17408 1.15525 0.36291
 C550 C -0.15718 1.14095 0.33436
 C551 C -0.13242 1.14204 0.25122
 C552 C -0.11750 1.12996 0.22828
 C553 C -0.09958 1.11542 0.20181
 C554 C -0.09098 1.13242 0.15013
 C555 C -0.07339 1.11854 0.12510
 C556 C -0.06422 1.08750 0.15162
 C557 C -0.07301 1.07051 0.20334
 C558 C -0.09057 1.08442 0.22826
 H559 H -0.15480 1.19803 0.20983
 H560 H -0.18438 1.22248 0.25631
 H561 H -0.17799 1.14318 0.40697
 H562 H -0.14943 1.11810 0.35581
 H563 H -0.09782 1.15644 0.12931
 H564 H -0.06697 1.13211 0.08516
 H565 H -0.06630 1.04651 0.22461
 H566 H -0.09710 1.07106 0.26827
 C567 C 0.64956 0.33964 0.27538
 C568 C 0.66648 0.36160 0.28195
 C569 C 0.68339 0.34728 0.31045
 C570 C 0.68357 0.31076 0.33275
 C571 C 0.66653 0.28884 0.32546
 C572 C 0.64964 0.30322 0.29700
 C573 C 0.63196 0.35466 0.24768
 C574 C 0.61710 0.36720 0.22516
 C575 C 0.59923 0.38214 0.19906
 C576 C 0.59033 0.41307 0.22609
 C577 C 0.57279 0.42730 0.20153
 C578 C 0.56394 0.41070 0.14961
 C579 C 0.57303 0.37976 0.12252
 C580 C 0.59057 0.36555 0.14717
 H581 H 0.66657 0.38982 0.26532
 H582 H 0.69635 0.36468 0.31474
 H583 H 0.66611 0.26083 0.34294
 H584 H 0.63659 0.28605 0.29240
 H585 H 0.59690 0.42611 0.26627
 H586 H 0.56615 0.45123 0.22323
 H587 H 0.56656 0.36649 0.08240
 H588 H 0.59734 0.34159 0.12592
 C589 C 0.14727 0.83340 0.28213
 C590 C 0.16459 0.82766 0.24789
 C591 C 0.18136 0.81284 0.27649
 C592 C 0.18100 0.80353 0.33975
 C593 C 0.16348 0.80927 0.37367
 C594 C 0.14675 0.82411 0.34501
 C595 C 0.13007 0.84916 0.25312
 C596 C 0.11558 0.86252 0.22955
 C597 C 0.09818 0.87863 0.20227
 C598 C 0.08962 0.86273 0.14963
 C599 C 0.07252 0.87809 0.12385
 C600 C 0.06379 0.90952 0.15055
 C601 C 0.07256 0.92544 0.20318
 C602 C 0.08965 0.91005 0.22886
 H603 H 0.16514 0.83471 0.19916
 H604 H 0.19456 0.80838 0.24903
 H605 H 0.16283 0.80292 0.42263
 H606 H 0.13344 0.82858 0.37201
 H607 H 0.09610 0.83840 0.12867
 H608 H 0.06610 0.86531 0.08323
 H609 H 0.06619 0.94970 0.22463
 H610 H 0.09616 0.92257 0.26961
   
