data_POSCAR
  _audit_creation_date              2014-09-24
  _audit_creation_method            'ToBaCCo'
  _symmetry_space_group_name_H-M    'P1'
  _symmetry_Int_Tables_number       1
  _symmetry_cell_setting            triclinic
  loop_
  _symmetry_equiv_pos_as_xyz
 x,y,z
_cell_length_a 41.1765
_cell_length_b 41.1959
_cell_length_c 41.2034
_cell_angle_alpha 87.273900
_cell_angle_beta 87.411700
_cell_angle_gamma 87.407900
loop_
  _atom_site_label
  _atom_site_type_symbol
  _atom_site_fract_x
  _atom_site_fract_y
  _atom_site_fract_z
C1 C 0.79981 0.64348 1.00656
 C2 C 0.80773 0.61989 0.97945
 C3 C 0.78236 0.60141 0.97292
 C4 C 0.75150 0.60785 0.99450
 C5 C 0.76942 0.66345 0.99570
 C6 C 0.74415 0.64458 0.98942
 C7 C 0.78804 0.62231 1.03588
 C8 C 0.76270 0.60378 1.02964
 H9 H 0.82989 0.62065 0.96410
 H10 H 0.73100 0.59243 0.98947
 H11 H 0.76844 0.68976 0.99200
 H12 H 0.79687 0.62413 1.06016
 C13 C 0.79640 0.35762 0.47731
 C14 C 0.80266 0.37880 0.50568
 C15 C 0.77629 0.39774 0.51519
 C16 C 0.74596 0.39394 0.49546
 C17 C 0.76676 0.33811 0.48861
 C18 C 0.74038 0.35722 0.49805
 C19 C 0.78415 0.38136 0.45037
 C20 C 0.75774 0.40029 0.45985
 H21 H 0.82571 0.37842 0.51759
 H22 H 0.72454 0.40952 0.50323
 H23 H 0.76660 0.31172 0.48903
 H24 H 0.79384 0.38137 0.42539
 C25 C 0.29624 -0.14132 -0.02338
 C26 C 0.30266 -0.12201 0.00413
 C27 C 0.27514 -0.10194 0.01440
 C28 C 0.24644 -0.10492 -0.00475
 C29 C 0.26791 -0.15995 -0.01322
 C30 C 0.24038 -0.13970 -0.00296
 C31 C 0.28520 -0.11810 -0.04879
 C32 C 0.25765 -0.09800 -0.03849
 H33 H 0.32564 -0.12305 0.01626
 H34 H 0.22518 -0.08916 0.00331
 H35 H 0.26747 -0.18632 -0.01322
 H36 H 0.29428 -0.11836 -0.07399
 C37 C 0.29963 0.13841 0.50777
 C38 C 0.30707 0.11482 0.48055
 C39 C 0.28136 0.09678 0.47406
 C40 C 0.25067 0.10362 0.49579
 C41 C 0.26948 0.15887 0.49705
 C42 C 0.24388 0.14044 0.49080
 C43 C 0.28765 0.11734 0.53706
 C44 C 0.26199 0.09924 0.53087
 H45 H 0.32916 0.11537 0.46509
 H46 H 0.22989 0.08855 0.49080
 H47 H 0.26899 0.18515 0.49318
 H48 H 0.29668 0.11888 0.56130
 C49 C 0.13935 0.50937 0.29924
 C50 C 0.11544 0.48240 0.30687
 C51 C 0.09744 0.47582 0.28117
 C52 C 0.10462 0.49726 0.25032
 C53 C 0.15984 0.49825 0.26932
 C54 C 0.14144 0.49194 0.24373
 C55 C 0.11863 0.53874 0.28687
 C56 C 0.10057 0.53247 0.26122
 H57 H 0.11582 0.46704 0.32905
 H58 H 0.08957 0.49223 0.22955
 H59 H 0.18611 0.49422 0.26896
 H60 H 0.12044 0.56305 0.29560
 C61 C -0.14057 -0.02495 0.29635
 C62 C -0.12059 0.00445 0.30258
 C63 C -0.10170 0.01443 0.27626
 C64 C -0.10446 -0.00595 0.24618
 C65 C -0.16026 -0.01437 0.26652
 C66 C -0.14119 -0.00442 0.24020
 C67 C -0.11716 -0.04985 0.28522
 C68 C -0.09736 -0.03942 0.25765
 H69 H -0.12155 0.01649 0.32553
 H70 H -0.08893 0.00230 0.22484
 H71 H -0.18662 -0.01453 0.26629
 H72 H -0.11706 -0.07501 0.29452
 C73 C 0.35702 0.47567 0.79633
 C74 C 0.37816 0.50409 0.80265
 C75 C 0.39707 0.51382 0.77631
 C76 C 0.39329 0.49421 0.74595
 C77 C 0.33746 0.48706 0.76674
 C78 C 0.35655 0.49670 0.74039
 C79 C 0.38079 0.44888 0.78401
 C80 C 0.39970 0.45856 0.75762
 H81 H 0.37762 0.51601 0.82565
 H82 H 0.40886 0.50214 0.72455
 H83 H 0.31106 0.48745 0.76663
 H84 H 0.38084 0.42385 0.79363
 C85 C 0.64031 1.00801 0.79903
 C86 C 0.61729 0.98016 0.80655
 C87 C 0.59892 0.97377 0.78102
 C88 C 0.60504 0.99617 0.75054
 C89 C 0.66062 0.99779 0.76858
 C90 C 0.64190 0.99156 0.74315
 C91 C 0.61983 1.03564 0.78831
 C92 C 0.60053 1.02921 0.76165
 H93 H 0.61823 0.96451 0.82852
 H94 H 0.58974 0.99113 0.72994
 H95 H 0.68692 0.99404 0.76783
 H96 H 0.62178 1.05998 0.79699
 C97 C -0.02266 0.29615 -0.14446
 C98 C 0.00571 0.30235 -0.12319
 C99 C 0.01517 0.27597 -0.10417
 C100 C -0.00460 0.24569 -0.10799
 C101 C -0.01137 0.26650 -0.16389
 C102 C -0.00199 0.24011 -0.14467
 C103 C -0.04967 0.28392 -0.12079
 C104 C -0.04021 0.25750 -0.10177
 H105 H 0.01764 0.32537 -0.12354
 H106 H 0.00313 0.22426 -0.09234
 H107 H -0.01096 0.26634 -0.19026
 H108 H -0.07463 0.29368 -0.12083
 C109 C 0.50776 0.29859 0.14122
 C110 C 0.48071 0.30636 0.11743
 C111 C 0.47412 0.28081 0.09928
 C112 C 0.49560 0.24996 0.10620
 C113 C 0.49671 0.26846 0.16154
 C114 C 0.49037 0.24302 0.14298
 C115 C 0.53709 0.28650 0.12036
 C116 C 0.53079 0.26100 0.10215
 H117 H 0.46535 0.32851 0.11795
 H118 H 0.49053 0.22931 0.09104
 H119 H 0.49274 0.26785 0.18780
 H120 H 0.56141 0.29532 0.12212
 C121 C 1.00760 0.80001 0.64055
 C122 C 0.98137 0.80774 0.61854
 C123 C 0.97455 0.78117 0.59899
 C124 C 0.99555 0.75209 0.60505
 C125 C 0.99787 0.77103 0.65979
 C126 C 0.99127 0.74450 0.63996
 C127 C 1.03548 0.78947 0.62008
 C128 C 1.02887 0.76295 0.60050
 H129 H 0.96536 0.82942 0.62007
 H130 H 0.99051 0.73164 0.58951
 H131 H 0.99395 0.77009 0.68609
 H132 H 1.05993 0.79789 0.62225
 C133 C 0.47686 0.79564 0.35832
 C134 C 0.50539 0.80188 0.37937
 C135 C 0.51498 0.77551 0.39836
 C136 C 0.49516 0.74521 0.39473
 C137 C 0.48802 0.76598 0.33887
 C138 C 0.49754 0.73961 0.35803
 C139 C 0.45002 0.78344 0.38217
 C140 C 0.45956 0.75704 0.40115
 H141 H 0.51740 0.82487 0.37880
 H142 H 0.50298 0.72380 0.41035
 H143 H 0.48838 0.76584 0.31250
 H144 H 0.42503 0.79316 0.38222
 C145 C 0.40216 -0.01527 0.27359
 H146 H 0.40048 0.00791 0.28497
 C147 C 0.41911 -0.04172 0.28834
 H148 H 0.43073 -0.03889 0.31105
 C149 C 0.38742 -0.04793 0.23116
 H150 H 0.37428 -0.05056 0.20941
 C151 C 0.40411 -0.07498 0.24510
 H152 H 0.40397 -0.09823 0.23389
 N153 N 0.38657 -0.01886 0.24563
 C154 C 0.36862 0.07749 0.19966
 H155 H 0.34288 0.07637 0.19582
 C156 C 0.38512 0.10524 0.18933
 H157 H 0.37210 0.12557 0.17742
 C158 C 0.41704 0.05246 0.22005
 H159 H 0.42940 0.03180 0.23193
 C160 C 0.43449 0.07979 0.21009
 H161 H 0.46022 0.08017 0.21441
 Zn162 Zn 0.35958 0.01632 0.22997
 N163 N 0.38457 0.05205 0.21519
 C164 C 0.33095 0.05961 0.27516
 N165 N 0.33150 0.02847 0.26546
 C166 C 0.31655 0.00468 0.28386
 C167 C 0.30160 0.01158 0.31410
 C168 C 0.31609 0.06756 0.30496
 C169 C 0.35472 -0.00079 0.16645
 C170 C 0.34088 -0.01272 0.13944
 C171 C 0.28966 -0.01576 0.17027
 C172 C 0.30450 -0.00357 0.19683
 N173 N 0.33665 0.00305 0.19455
 H174 H 0.34356 0.07805 0.26078
 H175 H 0.31802 -0.02004 0.27597
 H176 H 0.29129 -0.00779 0.32940
 H177 H 0.31712 0.09211 0.31308
 H178 H 0.38022 0.00466 0.16537
 H179 H 0.35576 -0.01650 0.11746
 H180 H 0.26434 -0.02193 0.17242
 H181 H 0.29062 -0.00024 0.21942
 C182 C 0.41827 0.10652 0.19487
 C183 C 0.41975 -0.07193 0.27414
 C184 C 0.30820 -0.02068 0.14144
 C185 C 0.30206 0.04320 0.32499
 C186 C 0.06802 1.04323 0.79386
 H187 H 0.06525 1.01942 0.80563
 C188 C 0.05149 1.07045 0.80678
 H189 H 0.03574 1.06760 0.82840
 C190 C 0.09328 1.07649 0.75238
 H191 H 0.11036 1.07901 0.73186
 C192 C 0.07723 1.10424 0.76444
 H193 H 0.08171 1.12788 0.75286
 N194 N 0.08858 1.04674 0.76724
 C195 C 0.10738 0.95125 0.72744
 H196 H 0.13366 0.95157 0.72648
 C197 C 0.09211 0.92510 0.71553
 H198 H 0.10665 0.90519 0.70532
 C199 C 0.05637 0.97724 0.74135
 H200 H 0.04268 0.99785 0.75107
 C201 C 0.04001 0.95142 0.72954
 H202 H 0.01367 0.95209 0.73023
 Zn203 Zn 0.11454 1.01031 0.75369
 N204 N 0.08950 0.97652 0.74017
 C205 C 0.13480 0.96429 0.80249
 N206 N 0.13921 0.99485 0.78945
 C207 C 0.15960 1.01513 0.80279
 C208 C 0.17720 1.00452 0.82987
 C209 C 0.15185 0.95278 0.82948
 C210 C 0.12594 1.03116 0.68941
 C211 C 0.14358 1.03999 0.66090
 C212 C 0.19325 1.02999 0.68956
 C213 C 0.17463 1.02131 0.71762
 N214 N 0.14156 1.02245 0.71711
 H215 H 0.11778 0.94885 0.79230
 H216 H 0.16213 1.03954 0.79240
 H217 H 0.19361 1.02065 0.84021
 H218 H 0.14829 0.92836 0.83954
 H219 H 0.09965 1.03137 0.68959
 H220 H 0.13087 1.04727 0.63909
 H221 H 0.21954 1.02939 0.69015
 H222 H 0.18661 1.01361 0.73965
 C223 C 0.05817 0.92516 0.71650
 C224 C 0.05645 1.10127 0.79208
 C225 C 0.17752 1.03951 0.66099
 C226 C 0.17327 0.97300 0.84325
 C227 C 0.56880 0.54440 0.29282
 H228 H 0.56654 0.52037 0.30424
 C229 C 0.55220 0.57118 0.30648
 H230 H 0.53686 0.56777 0.32832
 C231 C 0.59296 0.57864 0.25147
 H232 H 0.60966 0.58169 0.23071
 C233 C 0.57681 0.60598 0.26429
 H234 H 0.58081 0.62986 0.25304
 N235 N 0.58886 0.54860 0.26591
 C236 C 0.60811 0.45404 0.22432
 H237 H 0.63437 0.45477 0.22268
 C238 C 0.59292 0.42768 0.21272
 H239 H 0.60750 0.40804 0.20205
 C240 C 0.55707 0.47904 0.23986
 H241 H 0.54332 0.49931 0.25018
 C242 C 0.54081 0.45298 0.22842
 H243 H 0.51447 0.45313 0.22999
 Zn244 Zn 0.61505 0.51268 0.25155
 N245 N 0.59018 0.47889 0.23776
 C246 C 0.63603 0.46608 0.29943
 N247 N 0.64000 0.49691 0.28694
 C248 C 0.66010 0.51722 0.30066
 C249 C 0.67779 0.50640 0.32760
 C250 C 0.65318 0.45436 0.32626
 C251 C 0.62623 0.53471 0.18747
 C252 C 0.64388 0.54392 0.15909
 C253 C 0.69354 0.53347 0.18766
 C254 C 0.67492 0.52442 0.21560
 N255 N 0.64185 0.52558 0.21507
 H256 H 0.61924 0.45059 0.28895
 H257 H 0.66228 0.54184 0.29070
 H258 H 0.69392 0.52258 0.33828
 H259 H 0.64994 0.42974 0.33591
 H260 H 0.59994 0.53490 0.18763
 H261 H 0.63119 0.55149 0.13735
 H262 H 0.71984 0.53281 0.18827
 H263 H 0.68689 0.51638 0.23753
 C264 C 0.55902 0.42708 0.21479
 C265 C 0.55656 0.60229 0.29224
 C266 C 0.67783 0.54338 0.15920
 C267 C 0.67427 0.47464 0.34044
 C268 C 0.90574 0.48706 0.77218
 H269 H 0.90465 0.51018 0.78368
 C270 C 0.92239 0.46022 0.78662
 H271 H 0.93438 0.46268 0.80918
 C272 C 0.88973 0.45494 0.72986
 H273 H 0.87619 0.45266 0.70832
 C274 C 0.90610 0.42753 0.74347
 H275 H 0.90530 0.40436 0.73220
 N276 N 0.88962 0.48392 0.74446
 C277 C 0.87129 0.58040 0.69879
 H278 H 0.84547 0.57921 0.69543
 C279 C 0.88761 0.60807 0.68791
 H280 H 0.87436 0.62829 0.67607
 C281 C 0.92010 0.55555 0.71850
 H282 H 0.93265 0.53499 0.73033
 C283 C 0.93738 0.58284 0.70796
 H284 H 0.96321 0.58328 0.71179
 Zn285 Zn 0.86265 0.51939 0.72936
 N286 N 0.88753 0.55507 0.71421
 C287 C 0.83481 0.56271 0.77491
 N288 N 0.83508 0.53159 0.76519
 C289 C 0.81992 0.50793 0.78357
 C290 C 0.80488 0.51496 0.81373
 C291 C 0.81989 0.57079 0.80464
 C292 C 0.85674 0.50281 0.66586
 C293 C 0.84254 0.49082 0.63909
 C294 C 0.79184 0.48725 0.67077
 C295 C 0.80703 0.49952 0.69708
 N296 N 0.83910 0.50639 0.69427
 H297 H 0.84759 0.58104 0.76054
 H298 H 0.82115 0.48322 0.77566
 H299 H 0.79427 0.49571 0.82897
 H300 H 0.82104 0.59534 0.81274
 H301 H 0.88219 0.50842 0.66439
 H302 H 0.85710 0.48717 0.61689
 H303 H 0.76662 0.48079 0.67336
 H304 H 0.79351 0.50263 0.71990
 C305 C 0.92089 0.60942 0.69277
 C306 C 0.92218 0.43010 0.77233
 C307 C 0.80997 0.48253 0.64166
 C308 C 0.80550 0.54659 0.82458
 C309 C 0.27328 0.40276 -0.01356
 H310 H 0.28483 0.40135 0.00956
 C311 C 0.28789 0.41941 -0.04030
 H312 H 0.31063 0.43108 -0.03774
 C313 C 0.23062 0.38762 -0.04581
 H314 H 0.20885 0.37442 -0.04816
 C315 C 0.24440 0.40400 -0.07312
 H316 H 0.23304 0.40356 -0.09630
 N317 N 0.24530 0.38709 -0.01682
 C318 C 0.19982 0.36953 0.07973
 H319 H 0.19614 0.34375 0.07882
 C320 C 0.18935 0.38615 0.10728
 H321 H 0.17750 0.37320 0.12768
 C322 C 0.21988 0.41793 0.05429
 H323 H 0.23166 0.43022 0.03354
 C324 C 0.20976 0.43551 0.08142
 H325 H 0.21387 0.46129 0.08156
 Zn326 Zn 0.22991 0.36029 0.01863
 N327 N 0.21522 0.38542 0.05417
 C328 C 0.27538 0.33189 0.06194
 N329 N 0.26551 0.33235 0.03084
 C330 C 0.28374 0.31726 0.00710
 C331 C 0.31396 0.30219 0.01401
 C332 C 0.30518 0.31693 0.06989
 C333 C 0.16624 0.35512 0.00197
 C334 C 0.13931 0.34125 -0.01015
 C335 C 0.17055 0.29031 -0.01367
 C336 C 0.19701 0.30517 -0.00127
 N337 N 0.19449 0.33721 0.00563
 H338 H 0.26112 0.34462 0.08032
 H339 H 0.27572 0.31865 -0.01758
 H340 H 0.32912 0.29172 -0.00531
 H341 H 0.31343 0.31800 0.09441
 H342 H 0.16500 0.38054 0.00760
 H343 H 0.11724 0.35603 -0.01388
 H344 H 0.17292 0.26512 -0.02017
 H345 H 0.21973 0.29144 0.00189
 C346 C 0.19461 0.41937 0.10824
 C347 C 0.27349 0.41967 -0.07042
 C348 C 0.14160 0.30872 -0.01850
 C349 C 0.32501 0.30269 0.04559
 C350 C 0.79428 0.06712 1.04448
 H351 H 0.80567 0.06472 1.02049
 C352 C 0.80780 0.05041 1.07136
 H353 H 0.82950 0.03486 1.06806
 C354 C 0.75314 0.09168 1.07853
 H355 H 0.73252 0.10856 1.08148
 C356 C 0.76581 0.07543 1.10595
 H357 H 0.75459 0.07955 1.12978
 N358 N 0.76754 0.08742 1.04855
 C359 C 0.72572 0.10688 0.95398
 H360 H 0.72428 0.13312 0.95470
 C361 C 0.71380 0.09185 0.92770
 H362 H 0.70309 0.10654 0.90811
 C363 C 0.74102 0.05571 0.97898
 H364 H 0.75136 0.04186 0.99924
 C365 C 0.72926 0.03960 0.95300
 H366 H 0.73058 0.01327 0.95319
 Zn367 Zn 0.75315 0.11360 1.01252
 N368 N 0.73918 0.08881 0.97880
 C369 C 0.80088 0.13451 0.96581
 N370 N 0.78849 0.13859 0.99661
 C371 C 0.80213 0.15897 1.01668
 C372 C 0.82882 0.17691 1.00559
 C373 C 0.82746 0.15190 0.95382
 C374 C 0.68910 0.12466 1.03445
 C375 C 0.66064 0.14223 1.04350
 C376 C 0.68904 0.19197 1.03286
 C377 C 0.71706 0.17343 1.02398
 N378 N 0.71666 0.14036 1.02531
 H379 H 0.79049 0.11751 0.95051
 H380 H 0.79225 0.16124 1.04128
 H381 H 0.83941 0.19330 1.02155
 H382 H 0.83700 0.14859 0.92920
 H383 H 0.68936 0.09838 1.03477
 H384 H 0.63893 0.12948 1.05106
 H385 H 0.68954 0.21826 1.03205
 H386 H 0.73894 0.18547 1.01591
 C387 C 0.71556 0.05795 0.92715
 C388 C 0.79358 0.05491 1.10241
 C389 C 0.66062 0.17617 1.04277
 C390 C 0.84150 0.17333 0.97381
 C391 C 0.29147 0.56923 0.54527
 H392 H 0.30287 0.56700 0.52126
 C393 C 0.30505 0.55244 0.57206
 H394 H 0.32684 0.53701 0.56868
 C395 C 0.25021 0.59342 0.57945
 H396 H 0.22950 0.61019 0.58248
 C397 C 0.26295 0.57709 0.60679
 H398 H 0.25172 0.58103 0.63065
 N399 N 0.26463 0.58938 0.54944
 C400 C 0.22301 0.60904 0.45483
 H401 H 0.22151 0.63529 0.45556
 C402 C 0.21126 0.59399 0.42849
 H403 H 0.20061 0.60865 0.40884
 C404 C 0.23832 0.55790 0.47988
 H405 H 0.24861 0.54406 0.50017
 C406 C 0.22673 0.54176 0.45383
 H407 H 0.22814 0.51544 0.45400
 Zn408 Zn 0.25030 0.61571 0.51353
 N409 N 0.23641 0.59100 0.47970
 C410 C 0.29831 0.63651 0.46705
 N411 N 0.28578 0.64061 0.49780
 C412 C 0.29957 0.66067 0.51807
 C413 C 0.32667 0.67817 0.50729
 C414 C 0.32528 0.65346 0.45537
 C415 C 0.18622 0.62675 0.53536
 C416 C 0.15775 0.64431 0.54441
 C417 C 0.18624 0.69404 0.53417
 C418 C 0.21427 0.67551 0.52527
 N419 N 0.21381 0.64246 0.52637
 H420 H 0.28778 0.61974 0.45160
 H421 H 0.28958 0.66295 0.54263
 H422 H 0.33742 0.69426 0.52344
 H423 H 0.33498 0.65009 0.43082
 H424 H 0.18644 0.60048 0.53551
 H425 H 0.13600 0.63155 0.55181
 H426 H 0.18677 0.72033 0.53351
 H427 H 0.23620 0.68755 0.51736
 C428 C 0.21312 0.56009 0.42792
 C429 C 0.29082 0.55672 0.60313
 C430 C 0.15776 0.67824 0.54388
 C431 C 0.33958 0.67448 0.47561
 C432 C 0.77538 0.90178 0.48646
 H433 H 0.78671 0.90059 0.50970
 C434 C 0.79015 0.91830 0.45972
 H435 H 0.81281 0.93008 0.46239
 C436 C 0.73305 0.88627 0.45398
 H437 H 0.71134 0.87301 0.45155
 C438 C 0.74701 0.90251 0.42667
 H439 H 0.73583 0.90190 0.40341
 N440 N 0.74746 0.88602 0.48311
 C441 C 0.70086 0.86939 0.57930
 H442 H 0.69714 0.84361 0.57850
 C443 C 0.69006 0.88621 0.60662
 H444 H 0.67792 0.87340 0.62695
 C445 C 0.72137 0.91758 0.55386
 H446 H 0.73347 0.92971 0.53320
 C447 C 0.71093 0.93536 0.58077
 H448 H 0.71511 0.96113 0.58083
 Zn449 Zn 0.73164 0.85959 0.51868
 N450 N 0.71664 0.88508 0.55386
 C451 C 0.77658 0.83158 0.56276
 N452 N 0.76700 0.83161 0.53158
 C453 C 0.78538 0.81606 0.50826
 C454 C 0.81546 0.80097 0.51567
 C455 C 0.80624 0.81661 0.57121
 C456 C 0.66814 0.85471 0.50148
 C457 C 0.64109 0.84091 0.48954
 C458 C 0.67177 0.78958 0.48703
 C459 C 0.69838 0.80438 0.49923
 N460 N 0.69618 0.83657 0.50558
 H461 H 0.76222 0.84466 0.58081
 H462 H 0.77760 0.81710 0.48349
 H463 H 0.83076 0.79014 0.49665
 H464 H 0.81427 0.81805 0.59577
 H465 H 0.66714 0.88024 0.50670
 H466 H 0.61917 0.85585 0.48553
 H467 H 0.67386 0.76423 0.48103
 H468 H 0.72093 0.79046 0.50275
 C469 C 0.69537 0.91943 0.60748
 C470 C 0.77600 0.91832 0.42949
 C471 C 0.64301 0.80820 0.48182
 C472 C 0.82624 0.80191 0.54733
 C473 C -0.01383 0.27415 0.40367
 H474 H 0.00933 0.28564 0.40220
 C475 C -0.04041 0.28862 0.42059
 H476 H -0.03770 0.31122 0.43240
 C477 C -0.04633 0.23174 0.38840
 H478 H -0.04885 0.21014 0.37505
 C479 C -0.07349 0.24540 0.40506
 H480 H -0.09672 0.23410 0.40467
 N481 N -0.01728 0.24635 0.38781
 C482 C 0.07920 0.20108 0.36944
 H483 H 0.07814 0.19777 0.34363
 C484 C 0.10683 0.19028 0.38589
 H485 H 0.12715 0.17856 0.37274
 C486 C 0.05404 0.22045 0.41816
 H487 H 0.03335 0.23206 0.43065
 C488 C 0.08126 0.20999 0.43556
 H489 H 0.08153 0.21367 0.46140
 Zn490 Zn 0.01796 0.23115 0.36074
 N491 N 0.05374 0.21628 0.38559
 C492 C 0.06099 0.27692 0.33239
 N493 N 0.02993 0.26690 0.33283
 C494 C 0.00607 0.28505 0.31774
 C495 C 0.01280 0.31532 0.30267
 C496 C 0.06878 0.30678 0.31742
 C497 C 0.00114 0.16760 0.35565
 C498 C -0.01081 0.14062 0.34179
 C499 C -0.01421 0.17177 0.29072
 C500 C -0.00199 0.19829 0.30558
 N501 N 0.00480 0.19583 0.33767
 H502 H 0.07947 0.26273 0.34513
 H503 H -0.01859 0.27690 0.31913
 H504 H -0.00662 0.33040 0.29218
 H505 H 0.09327 0.31514 0.31849
 H506 H 0.00671 0.16640 0.38110
 H507 H -0.01447 0.11854 0.35660
 H508 H -0.02055 0.17405 0.26547
 H509 H 0.00120 0.22099 0.29179
 C510 C 0.10796 0.19499 0.41919
 C511 C -0.07059 0.27429 0.42093
 C512 C -0.01898 0.14281 0.30919
 C513 C 0.04435 0.32652 0.30316
 C514 C 1.04565 0.79691 0.06666
 H515 H 1.02168 0.80838 0.06414
 C516 C 1.07264 0.81046 0.05020
 H517 H 1.06945 0.83226 0.03472
 C518 C 1.07952 0.75556 0.09131
 H519 H 1.08235 0.73484 0.10814
 C520 C 1.10705 0.76826 0.07531
 H521 H 1.13085 0.75696 0.07956
 N522 N 1.04957 0.77005 0.08689
 C523 C 0.95465 0.72872 0.10598
 H524 H 0.95535 0.72724 0.13223
 C525 C 0.92831 0.71698 0.09088
 H526 H 0.90864 0.70635 0.10552
 C527 C 0.97978 0.74396 0.05489
 H528 H 1.00012 0.75420 0.04109
 C529 C 0.95373 0.73236 0.03870
 H530 H 0.95394 0.73371 0.01238
 Zn531 Zn 1.01341 0.75573 0.11291
 N532 N 0.97958 0.74207 0.08799
 C533 C 0.96692 0.80366 0.13375
 N534 N 0.99766 0.79103 0.13789
 C535 C 1.01785 0.80443 0.15834
 C536 C 1.00694 0.83109 0.17630
 C537 C 0.95511 0.83023 0.15115
 C538 C 1.03506 0.69155 0.12400
 C539 C 1.04383 0.66298 0.14160
 C540 C 1.03307 0.69121 0.19131
 C541 C 1.02447 0.71935 0.17274
 N542 N 1.02597 0.71908 0.13968
 H543 H 0.95155 0.79346 0.11668
 H544 H 1.04241 0.79437 0.16067
 H545 H 1.02299 0.84147 0.19277
 H546 H 0.93054 0.83995 0.14780
 H547 H 1.03551 0.69191 0.09771
 H548 H 1.05133 0.64129 0.12887
 H549 H 1.03209 0.69161 0.21760
 H550 H 1.01644 0.74121 0.18476
 C551 C 0.92778 0.71877 0.05699
 C552 C 1.10366 0.79616 0.05488
 C553 C 1.04289 0.66281 0.17555
 C554 C 0.97522 0.84401 0.17267
 C555 C 0.54460 0.29227 0.56871
 H556 H 0.52058 0.30365 0.56625
 C557 C 0.57149 0.30590 0.55215
 H558 H 0.56818 0.32768 0.53667
 C559 C 0.57868 0.25104 0.59326
 H560 H 0.58164 0.23033 0.61009
 C561 C 0.60612 0.26382 0.57716
 H562 H 0.62997 0.25261 0.58134
 N563 N 0.54867 0.26543 0.58893
 C564 C 0.45403 0.22362 0.60791
 H565 H 0.45459 0.22219 0.63416
 C566 C 0.42788 0.21165 0.59267
 H567 H 0.40820 0.20092 0.60722
 C568 C 0.47935 0.23890 0.55692
 H569 H 0.49969 0.24923 0.54321
 C570 C 0.45350 0.22708 0.54060
 H571 H 0.45387 0.22837 0.51427
 Zn572 Zn 0.51264 0.25097 0.61498
 N573 N 0.47896 0.23709 0.59002
 C574 C 0.46596 0.29875 0.63574
 N575 N 0.49675 0.28627 0.63990
 C576 C 0.51694 0.29993 0.66015
 C577 C 0.50603 0.32680 0.67782
 C578 C 0.45414 0.32550 0.65286
 C579 C 0.53456 0.18693 0.62598
 C580 C 0.54370 0.15843 0.64350
 C581 C 0.53329 0.18664 0.69327
 C582 C 0.52430 0.21471 0.67478
 N583 N 0.52546 0.21441 0.64172
 H584 H 0.45057 0.28832 0.61883
 H585 H 0.54154 0.28999 0.66248
 H586 H 0.52211 0.33743 0.69408
 H587 H 0.42955 0.33514 0.64946
 H588 H 0.53475 0.18727 0.59970
 H589 H 0.55121 0.13678 0.63071
 H590 H 0.53260 0.18705 0.71956
 H591 H 0.51630 0.23656 0.68684
 C592 C 0.42756 0.21335 0.55876
 C593 C 0.60256 0.29169 0.55673
 C594 C 0.54314 0.15829 0.67743
 C595 C 0.47429 0.33963 0.67411
 C596 C 0.48401 0.77454 0.90371
 H597 H 0.50724 0.78590 0.90222
 C598 C 0.45743 0.78934 0.92036
 H599 H 0.46022 0.81205 0.93195
 C600 C 0.45133 0.73216 0.88874
 H601 H 0.44875 0.71043 0.87561
 C602 C 0.42417 0.74615 0.90513
 H603 H 0.40087 0.73497 0.90476
 N604 N 0.48048 0.74659 0.88814
 C605 C 0.57661 0.70021 0.87042
 H606 H 0.57521 0.69616 0.84478
 C607 C 0.60446 0.68988 0.88674
 H608 H 0.62458 0.67775 0.87367
 C609 C 0.55221 0.72123 0.91874
 H610 H 0.53178 0.73341 0.93111
 C611 C 0.57968 0.71128 0.93601
 H612 H 0.58038 0.71588 0.96163
 Zn613 Zn 0.51577 0.73089 0.86137
 N614 N 0.55144 0.71606 0.88640
 C615 C 0.55945 0.77574 0.83257
 N616 N 0.52819 0.76626 0.83318
 C617 C 0.50459 0.78470 0.81800
 C618 C 0.51182 0.81474 0.80269
 C619 C 0.56773 0.80533 0.81736
 C620 C 0.49843 0.66739 0.85661
 C621 C 0.48671 0.64033 0.84269
 C622 C 0.48445 0.67107 0.79131
 C623 C 0.49642 0.69768 0.80623
 N624 N 0.50255 0.69547 0.83848
 H625 H 0.57775 0.76133 0.84535
 H626 H 0.47978 0.77697 0.81948
 H627 H 0.49261 0.83008 0.79214
 H628 H 0.59239 0.81327 0.81831
 H629 H 0.50353 0.66637 0.88217
 H630 H 0.48271 0.61837 0.85759
 H631 H 0.47868 0.67316 0.76589
 H632 H 0.50000 0.72025 0.79232
 C633 C 0.60614 0.69574 0.91974
 C634 C 0.42716 0.77520 0.92072
 C635 C 0.47926 0.64226 0.80989
 C636 C 0.54359 0.82539 0.80303
 C637 C 0.46633 -0.17578 0.33826
 C638 C 0.45701 -0.15203 0.32255
 C639 C 0.44519 -0.12408 0.30497
 C640 C 0.43418 -0.10022 0.29059
 C641 C 0.96703 0.32486 0.83553
 C642 C 0.95803 0.34885 0.81998
 C643 C 0.94670 0.37719 0.80267
 C644 C 0.93613 0.40140 0.78853
 C645 C 0.00929 1.20959 0.84218
 C646 C 0.01900 1.18422 0.83105
 C647 C 0.03097 1.15481 0.81778
 C648 C 0.04200 1.13010 0.80620
 C649 C 0.50898 0.70923 0.34472
 C650 C 0.51881 0.68408 0.33321
 C651 C 0.53092 0.65503 0.31932
 C652 C 0.54204 0.63068 0.30713
 C653 C 0.51509 0.32637 0.16024
 C654 C 0.52243 0.34961 0.17455
 C655 C 0.53286 0.37697 0.18989
 C656 C 0.54363 0.40012 0.20186
 C657 C 0.01448 0.82603 0.65908
 C658 C 0.02169 0.84893 0.67403
 C659 C 0.03201 0.87585 0.69017
 C660 C 0.04275 0.89862 0.70281
 C661 C 0.97810 0.71644 0.65222
 C662 C 0.96598 0.69162 0.66229
 C663 C 0.95112 0.66268 0.67333
 C664 C 0.93776 0.63820 0.68233
 C665 C 0.47642 0.21350 0.15612
 C666 C 0.46411 0.18873 0.16600
 C667 C 0.44895 0.15982 0.17658
 C668 C 0.43534 0.13535 0.18508
 C669 C 0.33706 0.46511 -0.17506
 C670 C 0.32147 0.45593 -0.15120
 C671 C 0.30405 0.44442 -0.12304
 C672 C 0.28980 0.43371 -0.09897
 C673 C 0.83953 0.96422 0.32495
 C674 C 0.82399 0.95487 0.34879
 C675 C 0.80662 0.94319 0.37693
 C676 C 0.79238 0.93240 0.40097
 C677 C 0.84546 0.00696 1.20976
 C678 C 0.83404 0.01681 1.18452
 C679 C 0.82031 0.02900 1.15535
 C680 C 0.80829 0.04022 1.13089
 C681 C 0.34316 0.50834 0.71006
 C682 C 0.33165 0.51836 0.68493
 C683 C 0.31778 0.53068 0.65588
 C684 C 0.30564 0.54198 0.63153
 C685 C 0.15825 0.51664 0.32714
 C686 C 0.17256 0.52390 0.35044
 C687 C 0.18796 0.53420 0.37782
 C688 C 0.20003 0.54485 0.40097
 C689 C 0.65957 0.01507 0.82678
 C690 C 0.67416 0.02214 0.84996
 C691 C 0.68989 0.03224 0.87723
 C692 C 0.70221 0.04277 0.90030
 C693 C 0.65502 0.97787 0.71355
 C694 C 0.66509 0.96567 0.68885
 C695 C 0.67610 0.95052 0.66013
 C696 C 0.68504 0.93680 0.63590
 C697 C 0.15479 0.47794 0.21439
 C698 C 0.16489 0.46556 0.18979
 C699 C 0.17578 0.45031 0.16110
 C700 C 0.18454 0.43660 0.13682
 C701 C -0.17497 0.33766 0.46690
 C702 C -0.15112 0.32208 0.45772
 C703 C -0.12302 0.30470 0.44609
 C704 C -0.09902 0.29051 0.43522
 C705 C 0.32319 0.83955 0.96649
 C706 C 0.34688 0.82373 0.95722
 C707 C 0.37485 0.80610 0.94560
 C708 C 0.39876 0.79169 0.93482
 C709 C 1.21143 0.84789 0.00777
 C710 C 1.18609 0.83659 0.01750
 C711 C 1.15680 0.82292 0.02947
 C712 C 1.13226 0.81090 0.04048
 C713 C 0.70993 0.34389 0.50940
 C714 C 0.68469 0.33244 0.51916
 C715 C 0.65551 0.31863 0.53118
 C716 C 0.63105 0.30652 0.54225
 C717 C 0.32750 0.15740 0.51498
 C718 C 0.35069 0.17188 0.52225
 C719 C 0.37789 0.18758 0.53261
 C720 C 0.40086 0.19992 0.54336
 C721 C 0.82742 0.66285 0.01377
 C722 C 0.85055 0.67748 0.02094
 C723 C 0.87781 0.69322 0.03114
 C724 C 0.90089 0.70551 0.04174
 C725 C 0.71424 0.65748 0.97609
 C726 C 0.68916 0.66720 0.96431
 C727 C 0.65990 0.67766 0.94972
 C728 C 0.63518 0.68607 0.93651
 C729 C 0.21438 0.15387 0.47705
 C730 C 0.18969 0.16416 0.46486
 C731 C 0.16093 0.17539 0.44980
 C732 C 0.13660 0.18449 0.43625
 C733 C 0.58627 0.05419 0.74372
 C734 C 0.57486 0.07726 0.72838
 C735 C 0.56280 0.10513 0.71078
 C736 C 0.55342 0.12931 0.69574
 C737 C 1.08516 0.55865 0.24228
 C738 C 1.07376 0.58168 0.22687
 C739 C 1.06189 0.60955 0.20913
 C740 C 1.05278 0.63375 0.19397
 C741 C 0.92050 0.93859 0.23973
 C742 C 0.93516 0.91812 0.22426
 C743 C 0.95079 0.89307 0.20640
 C744 C 0.96274 0.87097 0.19113
 C745 C 0.41918 0.43533 0.73928
 C746 C 0.43409 0.41465 0.72430
 C747 C 0.44987 0.38929 0.70698
 C748 C 0.46185 0.36691 0.69213
 C749 C 0.41723 0.54140 0.77741
 C750 C 0.43308 0.56476 0.78092
 C751 C 0.45042 0.59215 0.78802
 C752 C 0.46418 0.61528 0.79662
 C753 C -0.08173 0.04215 0.27737
 C754 C -0.06588 0.06554 0.28077
 C755 C -0.04839 0.09289 0.28767
 C756 C -0.03441 0.11595 0.29610
 C757 C 0.08135 0.44549 0.28095
 C758 C 0.06996 0.41900 0.28263
 C759 C 0.05890 0.38710 0.28701
 C760 C 0.05131 0.35948 0.29303
 C761 C 0.58259 0.94359 0.78068
 C762 C 0.57083 0.91728 0.78230
 C763 C 0.55922 0.88561 0.78667
 C764 C 0.55111 0.85816 0.79274
 C765 C 0.74418 0.58782 0.05576
 C766 C 0.72900 0.57592 0.07868
 C767 C 0.71141 0.56347 0.10637
 C768 C 0.69628 0.55385 0.13039
 C769 C 0.24345 1.08336 0.55704
 C770 C 0.22836 1.07154 0.58006
 C771 C 0.21092 1.05921 0.60789
 C772 C 0.19591 1.04974 0.63205
 C773 C 0.23959 0.91958 0.93934
 C774 C 0.22412 0.93394 0.91860
 C775 C 0.20642 0.94920 0.89314
 C776 C 0.19139 0.96085 0.87067
 C777 C 0.73945 0.41975 0.43648
 C778 C 0.72449 0.43463 0.41572
 C779 C 0.70718 0.45037 0.39026
 C780 C 0.69232 0.46229 0.36781
 C781 C 0.77744 0.41834 0.54236
 C782 C 0.78094 0.43465 0.56537
 C783 C 0.78801 0.45258 0.59233
 C784 C 0.79662 0.46684 0.61510
 C785 C 0.27626 -0.08310 0.04065
 C786 C 0.27964 -0.06729 0.06405
 C787 C 0.28659 -0.04988 0.09143
 C788 C 0.29507 -0.03600 0.11452
 C789 C 0.28094 0.08071 0.44378
 C790 C 0.28239 0.06926 0.41735
 C791 C 0.28647 0.05807 0.38552
 C792 C 0.29222 0.05033 0.35794
 C793 C 0.78245 0.58502 0.94279
 C794 C 0.78437 0.57331 0.91649
 C795 C 0.78900 0.56185 0.88481
 C796 C 0.79520 0.55391 0.85737
 C797 C 0.05378 0.74487 0.58637
 C798 C 0.07680 0.72942 0.57511
 C799 C 0.10463 0.71171 0.56323
 C800 C 0.12879 0.69660 0.55401
 C801 C 0.55690 0.24236 1.08640
 C802 C 0.57985 0.22715 1.07469
 C803 C 0.60761 0.20960 1.06245
 C804 C 0.63171 0.19454 1.05302
 C805 C 0.93647 0.23929 0.91783
 C806 C 0.91587 0.22428 0.93291
 C807 C 0.89070 0.20678 0.94894
 C808 C 0.86853 0.19170 0.96114
 C809 C 0.43620 0.73883 0.42070
 C810 C 0.41536 0.72401 0.43564
 C811 C 0.38975 0.70692 0.45139
 C812 C 0.36714 0.69228 0.46331
 C813 C 0.54247 0.77655 0.41867
 C814 C 0.56575 0.77990 0.43471
 C815 C 0.59304 0.78676 0.45234
 C816 C 0.61610 0.79514 0.46637
 C817 C 0.04228 0.27706 -0.08340
 C818 C 0.06523 0.28046 -0.06694
 C819 C 0.09216 0.28733 -0.04881
 C820 C 0.11494 0.29571 -0.03437
 C821 C 0.44382 0.28066 0.08311
 C822 C 0.41737 0.28232 0.07163
 C823 C 0.38552 0.28665 0.06044
 C824 C 0.35794 0.29262 0.05271
 C825 C 0.94529 0.78063 0.58475
 C826 C 0.91862 0.78196 0.57372
 C827 C 0.88667 0.78605 0.56269
 C828 C 0.85910 0.79190 0.55484
   
