data_POSCAR
  _audit_creation_date              2014-09-24
  _audit_creation_method            'ToBaCCo'
  _symmetry_space_group_name_H-M    'P1'
  _symmetry_Int_Tables_number       1
  _symmetry_cell_setting            triclinic
  loop_
  _symmetry_equiv_pos_as_xyz
 x,y,z
_cell_length_a 47.3519
_cell_length_b 46.6035
_cell_length_c 47.9670
_cell_angle_alpha 90.912200
_cell_angle_beta 88.400800
_cell_angle_gamma 89.860900
loop_
  _atom_site_label
  _atom_site_type_symbol
  _atom_site_fract_x
  _atom_site_fract_y
  _atom_site_fract_z
N1 N 0.24437 0.24465 0.25377
 N2 N 0.74436 -0.24753 0.24476
 N3 N 0.74943 0.25236 0.75251
 N4 N 0.26005 -0.25174 0.74987
 N5 N 0.75517 -0.24350 0.74979
 N6 N 0.25600 0.24864 0.75347
 N7 N 0.24788 -0.25445 0.24844
 N8 N 0.73923 0.24857 0.24975
 O9 O 0.23157 0.02408 0.47580
 O10 O 0.23350 -0.03151 0.52940
 O11 O 0.23298 0.02415 0.52992
 O12 O 0.23218 -0.03216 0.47526
 O13 O 0.27877 -0.03156 0.47256
 O14 O 0.27956 0.02459 0.52742
 O15 O 0.28008 -0.03131 0.52691
 O16 O 0.27816 0.02415 0.47307
 Cu17 Cu 0.22789 -0.00390 0.50276
 Cu18 Cu 0.28382 -0.00350 0.49975
 C19 C 0.25453 0.03366 0.46530
 C20 C 0.25710 -0.04085 0.53743
 C21 C 0.25640 0.03395 0.53811
 C22 C 0.25534 -0.04152 0.46459
 O23 O 0.76947 0.02977 0.52511
 O24 O 0.76880 -0.02594 0.46985
 O25 O 0.76796 0.02965 0.47090
 O26 O 0.77033 -0.02608 0.52427
 O27 O 0.72377 -0.02632 0.52719
 O28 O 0.72138 0.02868 0.47304
 O29 O 0.72223 -0.02728 0.47307
 O30 O 0.72288 0.02951 0.52734
 Cu31 Cu 0.77381 0.00188 0.49731
 Cu32 Cu 0.71789 0.00110 0.50041
 C33 C 0.74629 0.03926 0.53563
 C34 C 0.74540 -0.03615 0.46203
 C35 C 0.74428 0.03859 0.46270
 C36 C 0.74746 -0.03565 0.53498
 O37 O 0.46811 0.27124 0.03124
 O38 O 0.52403 0.27220 -0.02363
 O39 O 0.46903 0.27191 -0.02325
 O40 O 0.52289 0.27149 0.03062
 O41 O 0.52285 0.22415 0.02969
 O42 O 0.46976 0.22459 -0.02493
 O43 O 0.52470 0.22487 -0.02464
 O44 O 0.46775 0.22390 0.02924
 Cu45 Cu 0.49595 0.27646 0.00385
 Cu46 Cu 0.49631 0.21963 0.00222
 C47 C 0.45834 0.24741 0.03958
 C48 C 0.53404 0.24870 -0.03346
 C49 C 0.46026 0.24833 -0.03341
 C50 C 0.53201 0.24775 0.03947
 O51 O 0.52649 0.77717 0.02683
 O52 O 0.47337 0.77560 -0.02776
 O53 O 0.47145 0.77518 0.02639
 O54 O 0.52828 0.77719 -0.02760
 O55 O 0.52918 0.72987 -0.02915
 O56 O 0.47425 0.72790 0.02652
 O57 O 0.47430 0.72828 -0.02801
 O58 O 0.52927 0.72991 0.02487
 Cu59 Cu 0.49975 0.78104 -0.00041
 Cu60 Cu 0.50184 0.72424 -0.00150
 C61 C 0.53721 0.75384 0.03495
 C62 C 0.46465 0.75169 -0.03718
 C63 C 0.46328 0.75118 0.03582
 C64 C 0.53831 0.75384 -0.03777
 O65 O 0.01968 0.46972 0.27063
 O66 O -0.03434 0.52662 0.26975
 O67 O -0.03523 0.47083 0.27038
 O68 O 0.02042 0.52592 0.26964
 O69 O 0.02163 0.52454 0.22361
 O70 O -0.03334 0.46885 0.22439
 O71 O -0.03362 0.52455 0.22373
 O72 O 0.02167 0.46882 0.22461
 Cu73 Cu -0.00744 0.49840 0.27471
 Cu74 Cu -0.00575 0.49657 0.21947
 C75 C 0.02995 0.45957 0.24778
 C76 C -0.04339 0.53515 0.24661
 C77 C -0.04382 0.46041 0.24750
 C78 C 0.03043 0.53475 0.24648
 O79 O 0.03136 0.52900 0.77496
 O80 O -0.02458 0.47421 0.77526
 O81 O 0.03043 0.47321 0.77539
 O82 O -0.02360 0.53012 0.77481
 O83 O -0.02221 0.52896 0.72881
 O84 O 0.03184 0.47211 0.72939
 O85 O -0.02319 0.47313 0.72926
 O86 O 0.03276 0.52784 0.72895
 Cu87 Cu 0.00324 0.50174 0.77972
 Cu88 Cu 0.00492 0.50038 0.72449
 C89 C 0.04169 0.53776 0.75190
 C90 C -0.03348 0.46429 0.75230
 C91 C 0.04047 0.46298 0.75248
 C92 C -0.03214 0.53931 0.75171
 C93 C 0.30838 0.24456 0.18973
 C94 C 0.28022 0.23837 0.18337
 C95 C 0.25917 0.23859 0.20439
 C96 C 0.26606 0.24440 0.23214
 C97 C 0.29415 0.25020 0.23865
 C98 C 0.31513 0.25059 0.21757
 C99 C 0.33057 0.24490 0.16743
 N100 N 0.35434 0.26077 0.17048
 N101 N 0.37423 0.26127 0.15030
 C102 C 0.37128 0.24572 0.12638
 N103 N 0.34758 0.22973 0.12339
 N104 N 0.32756 0.22944 0.14346
 C105 C 0.39344 0.24620 0.10405
 C106 C 0.39660 0.22306 0.08508
 C107 C 0.41785 0.22334 0.06425
 C108 C 0.43592 0.24705 0.06161
 C109 C 0.43252 0.27036 0.08034
 C110 C 0.41169 0.26980 0.10154
 H111 H 0.27439 0.23379 0.16209
 H112 H 0.23752 0.23407 0.19917
 H113 H 0.29966 0.25477 0.26002
 H114 H 0.33667 0.25529 0.22309
 H115 H 0.38290 0.20454 0.08660
 H116 H 0.41995 0.20513 0.05003
 H117 H 0.44626 0.28885 0.07884
 H118 H 0.40965 0.28800 0.11579
 C119 C 0.68416 0.75631 0.18012
 C120 C 0.67695 0.76574 0.20735
 C121 C 0.69665 0.76447 0.22844
 C122 C 0.72416 0.75407 0.22272
 C123 C 0.73159 0.74544 0.19525
 C124 C 0.71171 0.74621 0.17426
 C125 C 0.66290 0.75663 0.15810
 N126 N 0.66574 0.73918 0.13523
 N127 N 0.64621 0.73893 0.11577
 C128 C 0.62315 0.75628 0.11826
 N129 N 0.62042 0.77388 0.14102
 N130 N 0.63983 0.77396 0.16059
 C131 C 0.60128 0.75577 0.09681
 C132 C 0.58285 0.77917 0.09406
 C133 C 0.56219 0.77866 0.07379
 C134 C 0.55919 0.75451 0.05624
 C135 C 0.57747 0.73102 0.05913
 C136 C 0.59847 0.73175 0.07903
 H137 H 0.65586 0.77355 0.21254
 H138 H 0.69025 0.77125 0.24936
 H139 H 0.75279 0.73803 0.19004
 H140 H 0.71797 0.73913 0.15338
 H141 H 0.58458 0.79802 0.10739
 H142 H 0.54835 0.79705 0.07207
 H143 H 0.57572 0.71217 0.04579
 H144 H 0.61227 0.71334 0.08074
 C145 C 0.68571 0.25140 -0.18270
 C146 C 0.69841 0.22570 -0.19250
 C147 C 0.71931 0.22605 -0.21363
 C148 C 0.72797 0.25206 -0.22548
 C149 C 0.71538 0.27774 -0.21571
 C150 C 0.69449 0.27744 -0.19454
 C151 C 0.66340 0.25102 -0.16037
 N152 N 0.65155 0.27583 -0.15039
 N153 N 0.63144 0.27548 -0.13042
 C154 C 0.62228 0.25029 -0.11957
 N155 N 0.63414 0.22548 -0.12955
 N156 N 0.65426 0.22584 -0.14950
 C157 C 0.59978 0.24989 -0.09742
 C158 C 0.58975 0.22373 -0.08684
 C159 C 0.56845 0.22335 -0.06608
 C160 C 0.55669 0.24911 -0.05538
 C161 C 0.56675 0.27526 -0.06589
 C162 C 0.58803 0.27564 -0.08668
 H163 H 0.69224 0.20527 -0.18384
 H164 H 0.72889 0.20600 -0.22069
 H165 H 0.72156 0.29803 -0.22468
 H166 H 0.68516 0.29762 -0.18756
 H167 H 0.59830 0.20348 -0.09462
 H168 H 0.56119 0.20284 -0.05842
 H169 H 0.55815 0.29549 -0.05810
 H170 H 0.59524 0.29618 -0.09431
 C171 C 0.32196 0.74921 -0.18702
 C172 C 0.31373 0.72321 -0.19964
 C173 C 0.29361 0.72294 -0.22042
 C174 C 0.28124 0.74863 -0.22901
 C175 C 0.28952 0.77463 -0.21654
 C176 C 0.30966 0.77493 -0.19579
 C177 C 0.34310 0.74949 -0.16476
 N178 N 0.35153 0.77462 -0.15295
 N179 N 0.37042 0.77488 -0.13290
 C180 C 0.38170 0.75003 -0.12374
 N181 N 0.37327 0.72490 -0.13554
 N182 N 0.35438 0.72463 -0.15562
 C183 C 0.40277 0.75038 -0.10142
 C184 C 0.41395 0.72462 -0.09147
 C185 C 0.43393 0.72501 -0.07053
 C186 C 0.44321 0.75116 -0.05908
 C187 C 0.43198 0.77690 -0.06896
 C188 C 0.41199 0.77652 -0.08985
 H189 H 0.32279 0.70300 -0.19348
 H190 H 0.28772 0.70266 -0.22989
 H191 H 0.28010 0.79468 -0.22266
 H192 H 0.31544 0.79534 -0.18652
 H193 H 0.40732 0.70409 -0.09986
 H194 H 0.44217 0.70480 -0.06339
 H195 H 0.43866 0.79743 -0.06059
 H196 H 0.40385 0.79677 -0.09698
 C197 C 0.17856 0.30746 0.25090
 C198 C 0.17289 0.28004 0.26141
 C199 C 0.19429 0.25932 0.26207
 C200 C 0.22198 0.26582 0.25289
 C201 C 0.22753 0.29329 0.24234
 C202 C 0.20606 0.31378 0.24118
 C203 C 0.15605 0.32949 0.25010
 N204 N 0.15835 0.35179 0.23229
 N205 N 0.13830 0.37185 0.23173
 C206 C 0.11524 0.37060 0.24912
 N207 N 0.11294 0.34832 0.26698
 N208 N 0.13288 0.32811 0.26738
 C209 C 0.09323 0.39318 0.24874
 C210 C 0.07513 0.39808 0.27206
 C211 C 0.05475 0.41984 0.27186
 C212 C 0.05170 0.43677 0.24814
 C213 C 0.06957 0.43165 0.22472
 C214 C 0.09030 0.41027 0.22511
 H215 H 0.15181 0.27446 0.26876
 H216 H 0.18919 0.23816 0.26968
 H217 H 0.24862 0.29903 0.23518
 H218 H 0.21112 0.33477 0.23309
 H219 H 0.07697 0.38535 0.29061
 H220 H 0.04117 0.42323 0.29017
 H221 H 0.06775 0.44442 0.20618
 H222 H 0.10387 0.40693 0.20679
 C223 C 0.19549 0.68442 0.75072
 C224 C 0.20385 0.69771 0.77569
 C225 C 0.22507 0.71851 0.77542
 C226 C 0.23842 0.72645 0.75021
 C227 C 0.23022 0.71310 0.72528
 C228 C 0.20898 0.69234 0.72551
 C229 C 0.17274 0.66259 0.75094
 N230 N 0.16390 0.65051 0.72676
 N231 N 0.14337 0.63102 0.72693
 C232 C 0.13079 0.62275 0.75129
 N233 N 0.13965 0.63481 0.77548
 N234 N 0.16017 0.65432 0.77530
 C235 C 0.10791 0.60106 0.75146
 C236 C 0.09554 0.59185 0.77676
 C237 C 0.07403 0.57135 0.77690
 C238 C 0.06435 0.55962 0.75176
 C239 C 0.07665 0.56886 0.72646
 C240 C 0.09818 0.58932 0.72631
 H241 H 0.19391 0.69220 0.79548
 H242 H 0.23088 0.72869 0.79487
 H243 H 0.24037 0.71874 0.70562
 H244 H 0.20315 0.68251 0.70590
 H245 H 0.10249 0.60042 0.79652
 H246 H 0.06500 0.56470 0.79675
 H247 H 0.06969 0.56023 0.70672
 H248 H 0.10719 0.59591 0.70644
 C249 C -0.19318 0.68616 0.24633
 C250 C -0.18721 0.71396 0.25621
 C251 C -0.20761 0.73560 0.25556
 C252 C -0.23462 0.72990 0.24536
 C253 C -0.24079 0.70188 0.23609
 C254 C -0.22018 0.68033 0.23625
 C255 C -0.17126 0.66349 0.24650
 N256 N -0.17263 0.64023 0.22916
 N257 N -0.15259 0.62009 0.22905
 C258 C -0.13049 0.62230 0.24641
 N259 N -0.12922 0.64548 0.26384
 N260 N -0.14912 0.66571 0.26380
 C261 C -0.10821 0.59997 0.24637
 C262 C -0.09120 0.59679 0.26966
 C263 C -0.07026 0.57562 0.26977
 C264 C -0.06554 0.55754 0.24639
 C265 C -0.08233 0.56089 0.22297
 C266 C -0.10365 0.58173 0.22306
 H267 H -0.16656 0.71914 0.26401
 H268 H -0.20217 0.75695 0.26280
 H269 H -0.26159 0.69666 0.22874
 H270 H -0.22550 0.65902 0.22880
 H271 H -0.09428 0.61046 0.28797
 H272 H -0.05758 0.57358 0.28808
 H273 H -0.07923 0.54716 0.20470
 H274 H -0.11634 0.58376 0.20476
 C275 C -0.18597 0.31620 0.75266
 C276 C -0.19479 0.30301 0.77759
 C277 C -0.21594 0.28214 0.77753
 C278 C -0.22880 0.27405 0.75259
 C279 C -0.22010 0.28726 0.72770
 C280 C -0.19891 0.30807 0.72771
 C281 C -0.16339 0.33821 0.75266
 N282 N -0.15383 0.34991 0.72842
 N283 N -0.13350 0.36961 0.72839
 C284 C -0.12186 0.37851 0.75260
 N285 N -0.13143 0.36683 0.77684
 N286 N -0.15175 0.34710 0.77687
 C287 C -0.09921 0.40045 0.75254
 C288 C -0.08816 0.41067 0.77772
 C289 C -0.06685 0.43139 0.77765
 C290 C -0.05604 0.44232 0.75240
 C291 C -0.06703 0.43207 0.72722
 C292 C -0.08838 0.41142 0.72729
 H293 H -0.18527 0.30867 0.79718
 H294 H -0.22214 0.27209 0.79695
 H295 H -0.22987 0.28155 0.70825
 H296 H -0.19273 0.31782 0.70814
 H297 H -0.09600 0.40273 0.79756
 H298 H -0.05884 0.43881 0.79741
 H299 H -0.05918 0.44006 0.70740
 H300 H -0.09635 0.40403 0.70750
 C301 C 0.24857 0.18295 0.31861
 C302 C 0.25818 0.17606 0.29135
 C303 C 0.25660 0.19619 0.27019
 C304 C 0.24571 0.22385 0.27582
 C305 C 0.23665 0.23093 0.30326
 C306 C 0.23774 0.21059 0.32435
 C307 C 0.24979 0.16132 0.34080
 N308 N 0.23258 0.16337 0.36389
 N309 N 0.23336 0.14354 0.38358
 C310 C 0.25155 0.12099 0.38109
 N311 N 0.26888 0.11906 0.35809
 N312 N 0.26793 0.13875 0.33831
 C313 C 0.25237 0.09884 0.40283
 C314 C 0.27642 0.08146 0.40538
 C315 C 0.27722 0.06048 0.42586
 C316 C 0.25377 0.05607 0.44385
 C317 C 0.22963 0.07330 0.44119
 C318 C 0.22904 0.09466 0.42105
 H319 H 0.26652 0.15491 0.28624
 H320 H 0.26369 0.19002 0.24930
 H321 H 0.22882 0.25225 0.30842
 H322 H 0.23047 0.21661 0.34524
 H323 H 0.29477 0.08425 0.39171
 H324 H 0.29607 0.04747 0.42738
 H325 H 0.21130 0.07046 0.45486
 H326 H 0.21016 0.10763 0.41950
 C327 C 0.74847 0.18905 0.68716
 C328 C 0.72323 0.20214 0.69700
 C329 C 0.72357 0.22287 0.71835
 C330 C 0.74911 0.23095 0.73039
 C331 C 0.77433 0.21789 0.72062
 C332 C 0.77404 0.19720 0.69923
 C333 C 0.74814 0.16702 0.66450
 N334 N 0.77258 0.15518 0.65418
 N335 N 0.77228 0.13536 0.63387
 C336 C 0.74753 0.12650 0.62301
 N337 N 0.72308 0.13835 0.63332
 N338 N 0.72338 0.15818 0.65361
 C339 C 0.74720 0.10432 0.60048
 C340 C 0.72148 0.09423 0.59016
 C341 C 0.72119 0.07317 0.56909
 C342 C 0.74659 0.06175 0.55780
 C343 C 0.77230 0.07191 0.56802
 C344 C 0.77260 0.09292 0.58913
 H345 H 0.70317 0.19645 0.68816
 H346 H 0.70389 0.23281 0.72540
 H347 H 0.79424 0.22361 0.72975
 H348 H 0.79386 0.18754 0.69224
 H349 H 0.70151 0.10251 0.59841
 H350 H 0.70102 0.06583 0.56167
 H351 H 0.79225 0.06355 0.55978
 H352 H 0.79279 0.10019 0.59653
 C353 C 0.25995 -0.18806 0.68679
 C354 C 0.23456 -0.19664 0.70007
 C355 C 0.23465 -0.21735 0.72080
 C356 C 0.26009 -0.23001 0.72871
 C357 C 0.28549 -0.22139 0.71559
 C358 C 0.28544 -0.20062 0.69486
 C359 C 0.25974 -0.16624 0.66460
 N360 N 0.28420 -0.15727 0.65212
 N361 N 0.28391 -0.13774 0.63213
 C362 C 0.25916 -0.12637 0.62374
 N363 N 0.23472 -0.13536 0.63624
 N364 N 0.23501 -0.15485 0.65622
 C365 C 0.25874 -0.10462 0.60150
 C366 C 0.23295 -0.09360 0.59244
 C367 C 0.23246 -0.07303 0.57160
 C368 C 0.25774 -0.06292 0.55930
 C369 C 0.28354 -0.07396 0.56827
 C370 C 0.28404 -0.09459 0.58912
 H371 H 0.21455 -0.18738 0.69449
 H372 H 0.21484 -0.22347 0.73080
 H373 H 0.30533 -0.23099 0.72122
 H374 H 0.30537 -0.19456 0.68507
 H375 H 0.21305 -0.10084 0.60146
 H376 H 0.21221 -0.06498 0.56519
 H377 H 0.30340 -0.06662 0.55922
 H378 H 0.30428 -0.10259 0.59556
 C379 C 0.74319 -0.18418 0.30965
 C380 C 0.74880 -0.17645 0.28183
 C381 C 0.74872 -0.19721 0.26047
 C382 C 0.74363 -0.22605 0.26667
 C383 C 0.73818 -0.23390 0.29437
 C384 C 0.73766 -0.21309 0.31569
 C385 C 0.74335 -0.16227 0.33227
 N386 N 0.72848 -0.16629 0.35651
 N387 N 0.72869 -0.14655 0.37690
 C388 C 0.74401 -0.12213 0.37397
 N389 N 0.75897 -0.11816 0.34977
 N390 N 0.75854 -0.13777 0.32929
 C391 C 0.74443 -0.10030 0.39666
 C392 C 0.76739 -0.08145 0.39890
 C393 C 0.76789 -0.06089 0.42041
 C394 C 0.74515 -0.05837 0.43974
 C395 C 0.72209 -0.07707 0.43740
 C396 C 0.72187 -0.09805 0.41624
 H397 H 0.75299 -0.15433 0.27656
 H398 H 0.75302 -0.19095 0.23913
 H399 H 0.73420 -0.25613 0.29936
 H400 H 0.73341 -0.21968 0.33694
 H401 H 0.78513 -0.08279 0.38419
 H402 H 0.78588 -0.04666 0.42167
 H403 H 0.70433 -0.07563 0.45208
 H404 H 0.70386 -0.11223 0.41495
 C405 C 0.69030 0.75629 -0.18658
 C406 C 0.69997 0.73042 -0.19904
 C407 C 0.72119 0.73052 -0.21985
 C408 C 0.73325 0.75645 -0.22866
 C409 C 0.72365 0.78231 -0.21626
 C410 C 0.70239 0.78225 -0.19546
 C411 C 0.66775 0.75613 -0.16451
 N412 N 0.65781 0.78104 -0.15281
 N413 N 0.63753 0.78082 -0.13299
 C414 C 0.62634 0.75568 -0.12400
 N415 N 0.63630 0.73079 -0.13570
 N416 N 0.65654 0.73100 -0.15552
 C417 C 0.60379 0.75534 -0.10193
 C418 C 0.59283 0.72916 -0.09234
 C419 C 0.57161 0.72873 -0.07154
 C420 C 0.56080 0.75445 -0.05983
 C421 C 0.57171 0.78065 -0.06939
 C422 C 0.59298 0.78109 -0.09020
 H423 H 0.69112 0.71004 -0.19279
 H424 H 0.72809 0.71035 -0.22929
 H425 H 0.73279 0.80253 -0.22261
 H426 H 0.69551 0.80255 -0.18630
 H427 H 0.60064 0.70892 -0.10087
 H428 H 0.56367 0.70818 -0.06466
 H429 H 0.56383 0.80085 -0.06079
 H430 H 0.60092 0.80164 -0.09709
 C431 C 0.31738 0.24862 -0.18296
 C432 C 0.30510 0.22280 -0.19208
 C433 C 0.28506 0.22281 -0.21292
 C434 C 0.27689 0.24861 -0.22514
 C435 C 0.28919 0.27440 -0.21614
 C436 C 0.30919 0.27443 -0.19527
 C437 C 0.33852 0.24864 -0.16073
 N438 N 0.34956 0.27363 -0.15102
 N439 N 0.36850 0.27363 -0.13101
 C440 C 0.37725 0.24863 -0.11985
 N441 N 0.36622 0.22364 -0.12956
 N442 N 0.34726 0.22364 -0.14955
 C443 C 0.39839 0.24860 -0.09761
 C444 C 0.40826 0.22261 -0.08697
 C445 C 0.42829 0.22254 -0.06612
 C446 C 0.43889 0.24846 -0.05537
 C447 C 0.42897 0.27447 -0.06591
 C448 C 0.40897 0.27454 -0.08681
 H449 H 0.31084 0.20253 -0.18305
 H450 H 0.27569 0.20269 -0.21935
 H451 H 0.28339 0.29453 -0.22542
 H452 H 0.31826 0.29470 -0.18883
 H453 H 0.40060 0.20223 -0.09479
 H454 H 0.43548 0.20213 -0.05845
 H455 H 0.43672 0.29481 -0.05808
 H456 H 0.40183 0.29496 -0.09448
 C457 C 0.31188 0.74586 0.18441
 C458 C 0.31868 0.73979 0.21206
 C459 C 0.29766 0.73986 0.23310
 C460 C 0.26948 0.74537 0.22673
 C461 C 0.26252 0.75102 0.19915
 C462 C 0.28360 0.75156 0.17817
 C463 C 0.33420 0.74642 0.16226
 N464 N 0.33083 0.76213 0.13897
 N465 N 0.35108 0.76291 0.11915
 C466 C 0.37541 0.74780 0.12171
 N467 N 0.37871 0.73196 0.14492
 N468 N 0.35858 0.73140 0.16486
 C469 C 0.39787 0.74864 0.09970
 C470 C 0.41730 0.72593 0.09637
 C471 C 0.43839 0.72662 0.07541
 C472 C 0.44082 0.75031 0.05777
 C473 C 0.42158 0.77316 0.06129
 C474 C 0.40012 0.77219 0.08186
 H475 H 0.34031 0.73547 0.21749
 H476 H 0.30324 0.73545 0.25435
 H477 H 0.24081 0.75537 0.19404
 H478 H 0.27774 0.75615 0.15704
 H479 H 0.41599 0.70746 0.10975
 H480 H 0.45301 0.70876 0.07321
 H481 H 0.42292 0.79163 0.04790
 H482 H 0.38551 0.79005 0.08403
 C483 C 0.67639 0.24789 0.18760
 C484 C 0.68482 0.27384 0.20020
 C485 C 0.70527 0.27402 0.22062
 C486 C 0.71781 0.24829 0.22889
 C487 C 0.70937 0.22235 0.21642
 C488 C 0.68887 0.22213 0.19602
 C489 C 0.65486 0.24775 0.16574
 N490 N 0.64612 0.22272 0.15397
 N491 N 0.62687 0.22264 0.13424
 C492 C 0.61554 0.24760 0.12541
 N493 N 0.62428 0.27263 0.13719
 N494 N 0.64351 0.27270 0.15692
 C495 C 0.59417 0.24757 0.10339
 C496 C 0.58321 0.27354 0.09373
 C497 C 0.56309 0.27357 0.07298
 C498 C 0.55342 0.24764 0.06139
 C499 C 0.56435 0.22166 0.07101
 C500 C 0.58451 0.22162 0.09176
 H501 H 0.67562 0.29407 0.19431
 H502 H 0.71128 0.29425 0.23011
 H503 H 0.71890 0.20227 0.22230
 H504 H 0.68295 0.20177 0.18674
 H505 H 0.59016 0.29393 0.10218
 H506 H 0.55509 0.29397 0.06604
 H507 H 0.55735 0.20131 0.06252
 H508 H 0.59249 0.20122 0.09869
 C509 C -0.17978 0.69290 0.75010
 C510 C -0.18885 0.70681 0.77502
 C511 C -0.21000 0.72775 0.77486
 C512 C -0.22259 0.73523 0.74983
 C513 C -0.21349 0.72148 0.72490
 C514 C -0.19229 0.70057 0.72501
 C515 C -0.15759 0.67041 0.75030
 N516 N -0.14810 0.65761 0.72617
 N517 N -0.12833 0.63724 0.72638
 C518 C -0.11722 0.62876 0.75073
 N519 N -0.12669 0.64158 0.77486
 N520 N -0.14645 0.66196 0.77465
 C521 C -0.09534 0.60594 0.75098
 C522 C -0.08482 0.59630 0.77632
 C523 C -0.06433 0.57468 0.77656
 C524 C -0.05384 0.56223 0.75147
 C525 C -0.06429 0.57191 0.72613
 C526 C -0.08482 0.59348 0.72589
 H527 H -0.17964 0.70152 0.79470
 H528 H -0.21654 0.73823 0.79430
 H529 H -0.22306 0.72672 0.70538
 H530 H -0.18589 0.69029 0.70544
 H531 H -0.09245 0.60539 0.79604
 H532 H -0.05670 0.56773 0.79644
 H533 H -0.05665 0.56276 0.70643
 H534 H -0.09242 0.60038 0.70599
 C535 C -0.19658 0.31274 0.24890
 C536 C -0.20992 0.30466 0.27413
 C537 C -0.23104 0.28378 0.27436
 C538 C -0.23926 0.27050 0.24941
 C539 C -0.22607 0.27860 0.22418
 C540 C -0.20497 0.29951 0.22391
 C541 C -0.17396 0.33469 0.24869
 N542 N -0.16140 0.34298 0.22432
 N543 N -0.14099 0.36260 0.22415
 C544 C -0.13224 0.37476 0.24833
 N545 N -0.14480 0.36648 0.27269
 N546 N -0.16522 0.34687 0.27286
 C547 C -0.10950 0.39659 0.24814
 C548 C -0.10002 0.40863 0.27325
 C549 C -0.07864 0.42926 0.27305
 C550 C -0.06628 0.43836 0.24774
 C551 C -0.07571 0.42630 0.22263
 C552 C -0.09705 0.40565 0.22283
 H553 H -0.20407 0.31444 0.29376
 H554 H -0.24108 0.27801 0.29403
 H555 H -0.23193 0.26848 0.20472
 H556 H -0.19514 0.30517 0.20411
 H557 H -0.10910 0.40215 0.29313
 H558 H -0.07187 0.43814 0.29276
 H559 H -0.06662 0.43284 0.20277
 H560 H -0.10382 0.39685 0.20309
 C561 C 0.19188 0.31321 0.75351
 C562 C 0.19976 0.30058 0.77859
 C563 C 0.22083 0.27953 0.77859
 C564 C 0.23452 0.27070 0.75355
 C565 C 0.22681 0.28340 0.72852
 C566 C 0.20571 0.30440 0.72848
 C567 C 0.16932 0.33533 0.75342
 N568 N 0.16085 0.34664 0.72910
 N569 N 0.14053 0.36643 0.72897
 C570 C 0.12779 0.37579 0.75317
 N571 N 0.13627 0.36449 0.77751
 N572 N 0.15658 0.34468 0.77763
 C573 C 0.10522 0.39790 0.75301
 C574 C 0.09291 0.40848 0.77815
 C575 C 0.07183 0.42951 0.77798
 C576 C 0.06252 0.44041 0.75267
 C577 C 0.07470 0.42974 0.72753
 C578 C 0.09582 0.40876 0.72770
 H579 H 0.18953 0.30679 0.79824
 H580 H 0.22627 0.26986 0.79811
 H581 H 0.23724 0.27708 0.70900
 H582 H 0.20028 0.31371 0.70880
 H583 H 0.09963 0.40061 0.79803
 H584 H 0.06287 0.43727 0.79772
 H585 H 0.06802 0.43769 0.70767
 H586 H 0.10478 0.40109 0.70794
 C587 C 0.18097 0.68426 0.24512
 C588 C 0.17588 0.71200 0.25605
 C589 C 0.19761 0.73225 0.25668
 C590 C 0.22507 0.72498 0.24705
 C591 C 0.23001 0.69728 0.23588
 C592 C 0.20819 0.67722 0.23476
 C593 C 0.15817 0.66261 0.24483
 N594 N 0.15980 0.63962 0.22710
 N595 N 0.13951 0.61988 0.22711
 C596 C 0.11687 0.62218 0.24503
 N597 N 0.11525 0.64516 0.26279
 N598 N 0.13543 0.66503 0.26262
 C599 C 0.09460 0.59996 0.24535
 C600 C 0.07692 0.59644 0.26906
 C601 C 0.05624 0.57507 0.26954
 C602 C 0.05249 0.55714 0.24612
 C603 C 0.06995 0.56086 0.22230
 C604 C 0.09097 0.58187 0.22201
 H605 H 0.15503 0.71815 0.26388
 H606 H 0.19297 0.75362 0.26476
 H607 H 0.25091 0.69100 0.22832
 H608 H 0.21279 0.65599 0.22630
 H609 H 0.07930 0.60997 0.28741
 H610 H 0.04300 0.57277 0.28814
 H611 H 0.06758 0.54729 0.20398
 H612 H 0.10420 0.58413 0.20340
 C613 C 0.75313 -0.18180 0.68500
 C614 C 0.72815 -0.19511 0.69459
 C615 C 0.72884 -0.21530 0.71578
 C616 C 0.75448 -0.22258 0.72790
 C617 C 0.77945 -0.20930 0.71839
 C618 C 0.77881 -0.18915 0.69715
 C619 C 0.75239 -0.16038 0.66250
 N620 N 0.77658 -0.14839 0.65229
 N621 N 0.77587 -0.12910 0.63212
 C622 C 0.75093 -0.12095 0.62131
 N623 N 0.72675 -0.13295 0.63152
 N624 N 0.72746 -0.15226 0.65167
 C625 C 0.75010 -0.09934 0.59899
 C626 C 0.72413 -0.08989 0.58891
 C627 C 0.72329 -0.06930 0.56809
 C628 C 0.74840 -0.05772 0.55680
 C629 C 0.77438 -0.06727 0.56673
 C630 C 0.77522 -0.08782 0.58761
 H631 H 0.70802 -0.19005 0.68568
 H632 H 0.70935 -0.22545 0.72260
 H633 H 0.79944 -0.21443 0.72758
 H634 H 0.79844 -0.17928 0.69034
 H635 H 0.70436 -0.09828 0.59718
 H636 H 0.70293 -0.06243 0.56088
 H637 H 0.79411 -0.05877 0.55848
 H638 H 0.79559 -0.09462 0.59484
 C639 C 0.25236 -0.19251 0.31486
 C640 C 0.26189 -0.18579 0.28776
 C641 C 0.26033 -0.20603 0.26610
 C642 C 0.24954 -0.23363 0.27106
 C643 C 0.24068 -0.24058 0.29835
 C644 C 0.24175 -0.22012 0.31995
 C645 C 0.25327 -0.17068 0.33755
 N646 N 0.23601 -0.17266 0.36053
 N647 N 0.23642 -0.15262 0.38064
 C648 C 0.25425 -0.12990 0.37868
 N649 N 0.27164 -0.12804 0.35578
 N650 N 0.27107 -0.14796 0.33558
 C651 C 0.25459 -0.10748 0.40085
 C652 C 0.27831 -0.08975 0.40382
 C653 C 0.27864 -0.06850 0.42470
 C654 C 0.25506 -0.06420 0.44271
 C655 C 0.23125 -0.08179 0.43964
 C656 C 0.23113 -0.10340 0.41908
 H657 H 0.27007 -0.16465 0.28316
 H658 H 0.26727 -0.20000 0.24532
 H659 H 0.23292 -0.26186 0.30297
 H660 H 0.23455 -0.22602 0.34070
 H661 H 0.29674 -0.09246 0.39015
 H662 H 0.29725 -0.05521 0.42654
 H663 H 0.21283 -0.07902 0.45331
 H664 H 0.21250 -0.11665 0.41722
 C665 C 0.73996 0.18493 0.31278
 C666 C 0.76523 0.19351 0.29926
 C667 C 0.76492 0.21418 0.27852
 C668 C 0.73940 0.22680 0.27085
 C669 C 0.71412 0.21817 0.28418
 C670 C 0.71438 0.19744 0.30492
 C671 C 0.74040 0.16324 0.33504
 N672 N 0.71605 0.15419 0.34767
 N673 N 0.71654 0.13478 0.36775
 C674 C 0.74140 0.12363 0.37609
 N675 N 0.76573 0.13268 0.36345
 N676 N 0.76524 0.15205 0.34337
 C677 C 0.74203 0.10203 0.39843
 C678 C 0.76793 0.09136 0.40756
 C679 C 0.76862 0.07090 0.42849
 C680 C 0.74344 0.06058 0.44079
 C681 C 0.71753 0.07128 0.43176
 C682 C 0.71683 0.09179 0.41083
 H683 H 0.78531 0.18428 0.30469
 H684 H 0.78465 0.22031 0.26834
 H685 H 0.69421 0.22776 0.27873
 H686 H 0.69453 0.19139 0.31490
 H687 H 0.78776 0.09877 0.39852
 H688 H 0.78894 0.06310 0.43496
 H689 H 0.69774 0.06376 0.44082
 H690 H 0.69651 0.09954 0.40433
 C691 C 0.25680 0.18365 0.68970
 C692 C 0.23125 0.19252 0.70284
 C693 C 0.23104 0.21366 0.72380
 C694 C 0.25634 0.22644 0.73209
 C695 C 0.28190 0.21754 0.71913
 C696 C 0.28215 0.19635 0.69816
 C697 C 0.25692 0.16141 0.66723
 N698 N 0.28153 0.15233 0.65476
 N699 N 0.28156 0.13244 0.63449
 C700 C 0.25697 0.12081 0.62581
 N701 N 0.23238 0.12990 0.63829
 N702 N 0.23235 0.14976 0.65855
 C703 C 0.25691 0.09869 0.60324
 C704 C 0.23131 0.08726 0.59396
 C705 C 0.23118 0.06635 0.57278
 C706 C 0.25664 0.05633 0.56036
 C707 C 0.28225 0.06776 0.56956
 C708 C 0.28239 0.08872 0.59075
 H709 H 0.21134 0.18316 0.69694
 H710 H 0.21111 0.22002 0.73368
 H711 H 0.30164 0.22725 0.72507
 H712 H 0.30221 0.19008 0.68849
 H713 H 0.21129 0.09444 0.60306
 H714 H 0.21107 0.05799 0.56618
 H715 H 0.30223 0.06050 0.56043
 H716 H 0.30250 0.09704 0.59737
   
