data_POSCAR
  _audit_creation_date              2014-09-24
  _audit_creation_method            'ToBaCCo'
  _symmetry_space_group_name_H-M    'P1'
  _symmetry_Int_Tables_number       1
  _symmetry_cell_setting            triclinic
  loop_
  _symmetry_equiv_pos_as_xyz
 x,y,z
_cell_length_a 34.1717
_cell_length_b 22.2833
_cell_length_c 12.5278
_cell_angle_alpha 90.472200
_cell_angle_beta 90.017600
_cell_angle_gamma 89.957800
loop_
  _atom_site_label
  _atom_site_type_symbol
  _atom_site_fract_x
  _atom_site_fract_y
  _atom_site_fract_z
C1 C 0.71725 0.27096 0.55873
 C2 C 0.71650 0.26838 0.44521
 C3 C 0.74783 0.24216 0.38972
 C4 C 0.78121 0.22022 0.44253
 C5 C 0.78215 0.22243 0.55674
 C6 C 0.75078 0.24972 0.61179
 H7 H 0.75066 0.24852 0.69826
 H8 H 0.74738 0.24357 0.30323
 C9 C 0.22189 0.77976 0.55974
 C10 C 0.21903 0.77634 0.44737
 C11 C 0.24879 0.74788 0.38922
 C12 C 0.28159 0.72353 0.44035
 C13 C 0.28453 0.72615 0.55386
 C14 C 0.25453 0.75546 0.61139
 H15 H 0.25525 0.75668 0.69791
 H16 H 0.24708 0.74655 0.30277
 C17 C 0.27983 0.27844 -0.55432
 C18 C 0.27804 0.28243 -0.44205
 C19 C 0.24598 0.25853 -0.38795
 C20 C 0.21533 0.22933 -0.44271
 C21 C 0.21627 0.22706 -0.55722
 C22 C 0.24937 0.25025 -0.61024
 H23 H 0.25054 0.25020 -0.69671
 H24 H 0.24645 0.25942 -0.30138
 C25 C -0.21832 0.77453 -0.55494
 C26 C -0.21993 0.77821 -0.44263
 C27 C -0.25174 0.75375 -0.38831
 C28 C -0.28241 0.72452 -0.44289
 C29 C -0.28171 0.72266 -0.55744
 C30 C -0.24876 0.74619 -0.61071
 H31 H -0.24776 0.74643 -0.69719
 H32 H -0.25111 0.75443 -0.30175
 N33 N 0.04120 1.10486 -0.11888
 N34 N 0.07101 1.14159 -0.13347
 N35 N -0.04088 1.06110 -0.19206
 N36 N -0.07084 1.06629 -0.25770
 N37 N -0.04131 1.10415 -0.12005
 N38 N -0.07161 1.13998 -0.13485
 N39 N 0.04148 1.06172 -0.19070
 N40 N 0.07143 1.06773 -0.25604
 C41 C 0.08965 1.11771 -0.21938
 C42 C -0.08979 1.11569 -0.22113
 N43 N -0.04034 0.89100 -0.11397
 N44 N -0.06984 0.85350 -0.12897
 N45 N 0.04207 0.93333 -0.18581
 N46 N 0.07228 0.92654 -0.25017
 N47 N 0.04185 0.89154 -0.11252
 N48 N 0.07161 0.85435 -0.12638
 N49 N -0.04042 0.93275 -0.18734
 N50 N -0.07024 0.92563 -0.25288
 Mn51 Mn 0.00057 0.99716 -0.19010
 C52 C -0.08822 0.87604 -0.21577
 C53 C 0.09034 0.87712 -0.21236
 N54 N -0.04169 1.10779 0.10942
 N55 N -0.07075 1.14614 0.12366
 N56 N 0.04069 1.06801 0.18611
 N57 N 0.06924 1.07834 0.25481
 N58 N 0.04078 1.10843 0.11040
 N59 N 0.06960 1.14710 0.12487
 N60 N -0.04147 1.06734 0.18507
 N61 N -0.07017 1.07727 0.25341
 Mn62 Mn -0.00027 1.10706 -0.00483
 C63 C -0.08822 1.12622 0.21351
 C64 C 0.08708 1.12748 0.21495
 N65 N 0.04128 0.89494 0.11864
 N66 N 0.07000 0.85677 0.13772
 N67 N -0.04126 0.93800 0.18861
 N68 N -0.07055 0.93093 0.25586
 N69 N -0.04079 0.89441 0.11732
 N70 N -0.06949 0.85606 0.13517
 N71 N 0.04124 0.93857 0.18984
 N72 N 0.07019 0.93169 0.25835
 Mn73 Mn 0.00049 0.89214 0.00239
 Mn74 Mn -0.00019 1.00293 0.18864
 Cl75 Cl 0.00015 0.99979 -0.00081
 C76 C 0.08788 0.88053 0.22488
 C77 C -0.08791 0.87968 0.22162
 N78 N 0.45814 0.43827 0.18835
 N79 N 0.42881 0.43183 0.25569
 N80 N 0.54040 0.39355 0.11895
 N81 N 0.56973 0.35613 0.13517
 N82 N 0.54068 0.43698 0.19045
 N83 N 0.57034 0.43048 0.25684
 N84 N 0.45822 0.39468 0.11718
 N85 N 0.42923 0.35688 0.13516
 C86 C 0.41101 0.38092 0.22158
 C87 C 0.58821 0.37982 0.22140
 N88 N 0.54140 0.43004 -0.18668
 N89 N 0.57011 0.41955 -0.25467
 N90 N 0.45885 0.39103 -0.11397
 N91 N 0.42889 0.35436 -0.12856
 N92 N 0.45917 0.43269 -0.18752
 N93 N 0.42921 0.42632 -0.25283
 N94 N 0.54122 0.38973 -0.11082
 N95 N 0.57002 0.35085 -0.12463
 Mn96 Mn 0.49965 0.39145 0.00286
 C97 C 0.58776 0.37038 -0.21439
 C98 C 0.41069 0.37729 -0.21535
 N99 N 0.54140 0.56632 0.18611
 N100 N 0.56986 0.57611 0.25533
 N101 N 0.45995 0.60842 0.10893
 N102 N 0.43097 0.64704 0.12221
 N103 N 0.45904 0.56716 0.18315
 N104 N 0.42921 0.57602 0.24816
 N105 N 0.54228 0.60638 0.10986
 N106 N 0.57154 0.64424 0.12443
 Mn107 Mn 0.49982 0.50217 0.18829
 C108 C 0.58848 0.62450 0.21516
 C109 C 0.41205 0.62587 0.20901
 N110 N 0.46055 0.56119 -0.19320
 N111 N 0.43157 0.56836 -0.26141
 N112 N 0.54294 0.60227 -0.11946
 N113 N 0.57311 0.63824 -0.13406
 N114 N 0.54284 0.55897 -0.19110
 N115 N 0.57291 0.56419 -0.25630
 N116 N 0.46053 0.60434 -0.12131
 N117 N 0.43151 0.64222 -0.13887
 Mn118 Mn 0.50100 0.49569 -0.19076
 Mn119 Mn 0.50142 0.60612 -0.00555
 Cl120 Cl 0.50045 0.49885 -0.00120
 C121 C 0.41364 0.61903 -0.22659
 C122 C 0.59159 0.61381 -0.21970
 C123 C 0.31930 0.36681 0.38726
 C124 C 0.31273 0.30469 0.38470
 C125 C 0.33725 0.26795 0.32241
 C126 C 0.36882 0.29282 0.26689
 C127 C 0.37652 0.35464 0.27422
 C128 C 0.35136 0.39144 0.33433
 H129 H 0.29957 0.39633 0.43008
 H130 H 0.33225 0.22000 0.31803
 H131 H 0.38777 0.26361 0.22061
 H132 H 0.35624 0.43941 0.33947
 C133 C -0.17955 0.86368 0.38700
 C134 C -0.18569 0.80146 0.38397
 C135 C -0.16091 0.76526 0.32144
 C136 C -0.12950 0.79078 0.26618
 C137 C -0.12222 0.85271 0.27402
 C138 C -0.14766 0.88896 0.33434
 H139 H -0.19947 0.89277 0.43007
 H140 H -0.16558 0.71724 0.31675
 H141 H -0.11035 0.76199 0.21971
 H142 H -0.14310 0.93699 0.33988
 C143 C 0.64713 0.71539 0.41178
 C144 C 0.68597 0.70262 0.38030
 C145 C 0.69174 0.66872 0.28582
 C146 C 0.65985 0.64450 0.23019
 C147 C 0.62172 0.65394 0.26743
 C148 C 0.61545 0.69024 0.35725
 H149 H 0.64114 0.74436 0.47962
 H150 H 0.72092 0.65777 0.25813
 H151 H 0.66499 0.61670 0.16023
 H152 H 0.58600 0.69886 0.38550
 C153 C 0.19011 1.17238 0.28642
 C154 C 0.18410 1.20677 0.38023
 C155 C 0.14519 1.21967 0.41083
 C156 C 0.11364 1.19434 0.35597
 C157 C 0.12014 1.15756 0.26688
 C158 C 0.15836 1.14784 0.23063
 H159 H 0.21936 1.16125 0.25950
 H160 H 0.13904 1.24890 0.47823
 H161 H 0.08412 1.20306 0.38358
 H162 H 0.16369 1.11957 0.16136
 C163 C 0.64610 0.27914 -0.41088
 C164 C 0.68497 0.29191 -0.37988
 C165 C 0.69085 0.32627 -0.28591
 C166 C 0.65904 0.35037 -0.22982
 C167 C 0.62087 0.34031 -0.26596
 C168 C 0.61448 0.30402 -0.35569
 H169 H 0.63994 0.24959 -0.47774
 H170 H 0.72004 0.33752 -0.25876
 H171 H 0.66427 0.37854 -0.16039
 H172 H 0.58498 0.29519 -0.38338
 C173 C 0.16026 0.76592 -0.33699
 C174 C 0.18971 0.80419 -0.37443
 C175 C 0.18799 0.86564 -0.35030
 C176 C 0.15562 0.88931 -0.29647
 C177 C 0.12564 0.85131 -0.26127
 C178 C 0.12860 0.78929 -0.27932
 H179 H 0.16153 0.71822 -0.35400
 H180 H 0.21110 0.89545 -0.37597
 H181 H 0.15392 0.93728 -0.28241
 H182 H 0.10565 0.75939 -0.25290
 C183 C 0.33052 0.64234 -0.42057
 C184 C 0.31572 0.69890 -0.38941
 C185 C 0.33222 0.72699 -0.29857
 C186 C 0.36383 0.70097 -0.24496
 C187 C 0.37935 0.64590 -0.27982
 C188 C 0.36206 0.61652 -0.36722
 H189 H 0.31697 0.61674 -0.48421
 H190 H 0.32192 0.77048 -0.27145
 H191 H 0.37650 0.72443 -0.17726
 H192 H 0.37277 0.57325 -0.39431
 C193 C -0.17253 1.22143 -0.29063
 C194 C -0.18849 1.19348 -0.38222
 C195 C -0.17412 1.13644 -0.41218
 C196 C -0.14261 1.11076 -0.35836
 C197 C -0.12514 1.14076 -0.27180
 C198 C -0.14101 1.19554 -0.23663
 H199 H -0.18277 1.26513 -0.26436
 H200 H -0.18698 1.11182 -0.47830
 H201 H -0.13157 1.06772 -0.38567
 H202 H -0.12832 1.21931 -0.16930
 C203 C 0.67544 0.63684 -0.41127
 C204 C 0.68900 0.69431 -0.38133
 C205 C 0.67286 0.72163 -0.28940
 C206 C 0.64187 0.69472 -0.23509
 C207 C 0.62667 0.63956 -0.27037
 C208 C 0.64438 0.61014 -0.35719
 H209 H 0.68848 0.61276 -0.47776
 H210 H 0.68242 0.76568 -0.26317
 H211 H 0.62897 0.71807 -0.16759
 H212 H 0.63381 0.56688 -0.38463
 C213 C 0.17338 1.14151 -0.41088
 C214 C 0.18668 1.19918 -0.38129
 C215 C 0.17033 1.22658 -0.28968
 C216 C 0.13941 1.19945 -0.23530
 C217 C 0.12454 1.14399 -0.27014
 C218 C 0.14246 1.11458 -0.35667
 H219 H 0.18661 1.11737 -0.47703
 H220 H 0.17971 1.27076 -0.26373
 H221 H 0.12635 1.22280 -0.16802
 H222 H 0.13218 1.07108 -0.38373
 C223 C 0.31369 0.36818 -0.35714
 C224 C 0.31090 0.30652 -0.37840
 C225 C 0.33946 0.26749 -0.33816
 C226 C 0.37129 0.29023 -0.28046
 C227 C 0.37529 0.35231 -0.26501
 C228 C 0.34622 0.39112 -0.30320
 H229 H 0.29115 0.39861 -0.38431
 H230 H 0.33728 0.21962 -0.35263
 H231 H 0.39352 0.25969 -0.25167
 H232 H 0.34869 0.43917 -0.29102
 C233 C -0.18514 0.86466 -0.35739
 C234 C -0.18723 0.80298 -0.37920
 C235 C -0.15818 0.76463 -0.33950
 C236 C -0.12658 0.78808 -0.28174
 C237 C -0.12331 0.85022 -0.26569
 C238 C -0.15285 0.88834 -0.30341
 H239 H -0.20806 0.89454 -0.38415
 H240 H -0.15981 0.71674 -0.35437
 H241 H -0.10397 0.75808 -0.25331
 H242 H -0.15094 0.93641 -0.29077
 C243 C 0.30928 0.65031 0.30809
 C244 C 0.31408 0.70179 0.37208
 C245 C 0.35052 0.73083 0.37491
 C246 C 0.38216 0.70745 0.31744
 C247 C 0.37780 0.65433 0.25807
 C248 C 0.34123 0.62604 0.25298
 H249 H 0.28134 0.62744 0.30516
 H250 H 0.35459 0.77076 0.42354
 H251 H 0.41037 0.72942 0.32254
 H252 H 0.33762 0.58476 0.20778
 C253 C -0.19181 1.16705 0.28571
 C254 C -0.18630 1.20155 0.37963
 C255 C -0.14761 1.21620 0.40976
 C256 C -0.11569 1.19246 0.35421
 C257 C -0.12166 1.15552 0.26502
 C258 C -0.15973 1.14406 0.22935
 H259 H -0.22089 1.15462 0.25920
 H260 H -0.14192 1.24553 0.47732
 H261 H -0.08629 1.20235 0.38157
 H262 H -0.16464 1.11552 0.16021
 C263 C 0.66542 0.26697 0.30130
 C264 C 0.68571 0.29871 0.38119
 C265 C 0.67562 0.35879 0.40234
 C266 C 0.64415 0.38538 0.34951
 C267 C 0.62286 0.35287 0.27259
 C268 C 0.63429 0.29389 0.24724
 H269 H 0.67286 0.22073 0.28329
 H270 H 0.69140 0.38450 0.46212
 H271 H 0.63625 0.43117 0.36959
 H272 H 0.61847 0.26796 0.18787
 C273 C 0.16152 0.76686 0.32423
 C274 C 0.18570 0.80299 0.38858
 C275 C 0.17869 0.86497 0.39400
 C276 C 0.14670 0.89000 0.34125
 C277 C 0.12202 0.85380 0.27858
 C278 C 0.13002 0.79215 0.26901
 H279 H 0.16686 0.71905 0.31762
 H280 H 0.19816 0.89416 0.43835
 H281 H 0.14157 0.93785 0.34822
 H282 H 0.11144 0.76339 0.22077
   
