data_POSCAR
  _audit_creation_date              2014-09-24
  _audit_creation_method            'ToBaCCo'
  _symmetry_space_group_name_H-M    'P1'
  _symmetry_Int_Tables_number       1
  _symmetry_cell_setting            triclinic
  loop_
  _symmetry_equiv_pos_as_xyz
 x,y,z
_cell_length_a 23.2628
_cell_length_b 23.0197
_cell_length_c 32.1675
_cell_angle_alpha 95.077400
_cell_angle_beta 89.751400
_cell_angle_gamma 90.532900
loop_
  _atom_site_label
  _atom_site_type_symbol
  _atom_site_fract_x
  _atom_site_fract_y
  _atom_site_fract_z
C1 C 0.06198 0.32712 0.98583
 C2 C 0.05317 0.33308 1.02815
 C3 C 0.01814 0.38128 1.03658
 N4 N 0.00698 0.40605 1.00097
 C5 C 0.03338 0.37268 0.97000
 C6 C -0.00520 0.40102 1.07608
 C7 C -0.02217 0.45993 1.08482
 C8 C -0.05635 0.48070 1.11820
 C9 C -0.05855 0.54022 1.11758
 C10 C -0.02614 0.55470 1.08348
 N11 N -0.00440 0.50522 1.06362
 C12 C -0.01101 0.61232 1.07450
 C13 C 0.00783 0.62484 1.03394
 C14 C 0.02124 0.67980 1.02150
 C15 C 0.03018 0.67331 0.97928
 C16 C 0.02019 0.61516 0.96658
 N17 N 0.00645 0.58572 0.99990
 C18 C 0.01949 0.59123 0.92448
 C19 C 0.01455 0.53093 0.91260
 C20 C 0.00212 0.50693 0.87252
 C21 C 0.00416 0.44737 0.87329
 C22 C 0.01804 0.43673 0.91378
 N23 N 0.02427 0.48785 0.93754
 C24 C 0.02881 0.38128 0.92731
 H25 H 0.08726 0.29370 0.96873
 H26 H 0.07107 0.30530 1.05014
 H27 H 0.04049 0.49298 0.96773
 H28 H -0.07721 0.45581 1.14105
 H29 H -0.08096 0.56903 1.14040
 H30 H 0.02194 0.72143 1.03976
 H31 H 0.04096 0.70816 0.96008
 H32 H -0.00316 0.41568 0.84690
 H33 H 0.02688 0.50305 1.04030
 H34 H -0.00722 0.52994 0.84545
 C35 C 0.31763 0.00309 0.47360
 C36 C 0.31639 -0.00025 0.51593
 C37 C 0.37208 0.01023 0.53009
 N38 N 0.40691 0.02108 0.49787
 C39 C 0.37373 0.01684 0.46329
 C40 C 0.38912 0.01542 0.57240
 C41 C 0.44728 0.02007 0.58486
 C42 C 0.46585 0.03907 0.62468
 C43 C 0.52464 0.03303 0.62480
 C44 C 0.54049 0.00958 0.58514
 N45 N 0.49291 0.00202 0.56103
 C46 C 0.59703 -0.00690 0.57239
 C47 C 0.61009 -0.02068 0.52956
 C48 C 0.65294 -0.05813 0.51386
 C49 C 0.65373 -0.05549 0.47144
 C50 C 0.61084 -0.01722 0.46260
 N51 N 0.58370 0.00350 0.49804
 C52 C 0.59928 0.00139 0.42287
 C53 C 0.54457 0.02198 0.41288
 C54 C 0.53164 0.04970 0.37755
 C55 C 0.47300 0.05685 0.37751
 C56 C 0.45186 0.03364 0.41294
 N57 N 0.49575 0.01259 0.43433
 C58 C 0.39308 0.02870 0.42309
 H59 H 0.28106 -0.00338 0.45299
 H60 H 0.27843 -0.00880 0.53399
 H61 H 0.49201 -0.01307 0.45927
 H62 H 0.43979 0.05539 0.65104
 H63 H 0.55218 0.04461 0.65130
 H64 H 0.68054 -0.08488 0.53114
 H65 H 0.68220 -0.07942 0.44957
 H66 H 0.44863 0.07642 0.35387
 H67 H 0.49095 -0.02001 0.53137
 H68 H 0.56111 0.06268 0.35388
 C69 C 0.11970 0.05818 0.27162
 H70 H 0.12463 0.04832 0.23829
 C71 C 0.16791 0.07248 0.29634
 H72 H 0.20979 0.07389 0.28168
 C73 C 0.05882 0.06936 0.33093
 H74 H 0.01625 0.06907 0.34435
 C75 C 0.10564 0.08458 0.35669
 H76 H 0.09870 0.09459 0.38987
 N77 N 0.06683 0.05424 0.28946
 C78 C -0.02616 -0.07299 0.20515
 H79 H -0.06673 -0.05065 0.20375
 C80 C -0.01867 -0.12711 0.18263
 H81 H -0.05355 -0.14549 0.16342
 C82 C 0.06907 -0.07457 0.23078
 H83 H 0.10298 -0.05464 0.25001
 C84 C 0.07867 -0.12837 0.20830
 H85 H 0.12026 -0.14882 0.20994
 Zn86 Zn 0.00358 0.02766 0.25558
 N87 N 0.01773 -0.04732 0.22800
 C88 C -0.00422 0.06649 0.17454
 N89 N -0.00813 0.08271 0.21612
 C90 C -0.01798 0.13909 0.23052
 C91 C -0.02466 0.18181 0.20266
 C92 C -0.01065 0.10769 0.14562
 C93 C -0.05879 -0.01552 0.32038
 C94 C -0.10414 -0.01982 0.34845
 C95 C -0.15837 0.04655 0.30996
 C96 C -0.11137 0.05064 0.28313
 N97 N -0.06245 0.02068 0.28932
 H98 H 0.00475 0.02177 0.16364
 H99 H -0.02050 0.15085 0.26380
 H100 H -0.03330 0.22601 0.21512
 H101 H -0.00701 0.09398 0.11263
 H102 H -0.01966 -0.03951 0.32415
 H103 H -0.09986 -0.04720 0.37395
 H104 H -0.19636 0.07201 0.30540
 H105 H -0.11380 0.07826 0.25774
 C106 C 0.03460 -0.15522 0.18380
 C107 C 0.16117 0.08411 0.33973
 C108 C -0.15454 0.01154 0.34345
 C109 C -0.02040 0.16630 0.15945
 C110 C -0.00441 0.08498 0.76908
 H111 H -0.00363 0.08947 0.73589
 C112 C -0.00436 0.13459 0.79745
 H113 H -0.00434 0.17717 0.78566
 C114 C -0.00766 0.02357 0.82445
 H115 H -0.00878 -0.01977 0.83488
 C116 C -0.00827 0.07189 0.85383
 H117 H -0.01007 0.06535 0.88675
 N118 N -0.00570 0.03088 0.78298
 C119 C 0.07418 -0.08844 0.68711
 H120 H 0.04081 -0.12128 0.68188
 C121 C 0.12581 -0.09424 0.66491
 H122 H 0.13163 -0.13152 0.64233
 C123 C 0.10712 -0.00034 0.72314
 H124 H 0.10009 0.03579 0.74631
 C125 C 0.15951 -0.00448 0.70169
 H126 H 0.19187 0.02871 0.70920
 Zn127 Zn -0.00652 -0.03522 0.74368
 N128 N 0.06530 -0.04145 0.71504
 C129 C -0.05806 -0.03303 0.66358
 N130 N -0.06749 -0.02622 0.70550
 C131 C -0.12003 -0.01021 0.72115
 C132 C -0.16617 -0.00300 0.69443
 C133 C -0.10284 -0.02599 0.63577
 C134 C 0.02752 -0.13673 0.77974
 C135 C 0.02173 -0.18344 0.80438
 C136 C -0.07874 -0.16031 0.81378
 C137 C -0.07105 -0.11410 0.78892
 N138 N -0.01846 -0.10295 0.77259
 H139 H -0.01583 -0.04360 0.65142
 H140 H -0.12596 -0.00184 0.75447
 H141 H -0.20717 0.01050 0.70780
 H142 H -0.09452 -0.03194 0.60251
 H143 H 0.06941 -0.12616 0.76773
 H144 H 0.05968 -0.20782 0.81081
 H145 H -0.12069 -0.16778 0.82718
 H146 H -0.10687 -0.08632 0.78374
 C147 C 0.16901 -0.05152 0.67148
 C148 C -0.00604 0.12820 0.84052
 C149 C -0.03207 -0.19557 0.82196
 C150 C -0.15792 -0.01167 0.65102
 C151 C -0.01964 -0.34177 0.10612
 C152 C 0.01953 -0.29984 0.11595
 C153 C 0.00632 -0.24974 0.14608
 C154 C 0.04675 -0.20994 0.15763
 H155 H 0.06158 -0.30195 0.10122
 H156 H -0.03723 -0.24460 0.15781
 H157 H -0.05758 -0.34237 0.12566
 H158 H 0.09072 -0.21752 0.14736
 C159 C -0.01091 0.36290 0.10825
 C160 C -0.01962 0.30513 0.10139
 C161 C -0.02003 0.26694 0.13584
 C162 C -0.02526 0.20905 0.12771
 H163 H -0.02665 0.28527 0.07001
 H164 H -0.01275 0.28628 0.16726
 H165 H -0.01089 0.38150 0.14041
 H166 H -0.03026 0.19158 0.09547
 C167 C 0.34402 0.02139 0.60517
 C168 C 0.30914 -0.02301 0.61253
 C169 C 0.26050 -0.01473 0.64190
 C170 C 0.22248 -0.05790 0.64610
 H171 H 0.31491 -0.06503 0.59501
 H172 H 0.25446 0.02800 0.65804
 H173 H 0.33943 0.06325 0.62307
 H174 H 0.22919 -0.09938 0.62805
 C175 C -0.36014 -0.01018 0.60341
 C176 C -0.30367 -0.00276 0.59651
 C177 C -0.26065 -0.00818 0.62944
 C178 C -0.20448 -0.00430 0.62065
 H179 H -0.28843 0.00893 0.56648
 H180 H -0.27511 -0.01745 0.66021
 H181 H -0.37340 -0.01585 0.63513
 H182 H -0.19171 0.00214 0.58889
 C183 C 0.02464 -0.36930 0.89056
 C184 C -0.01228 -0.32603 0.88674
 C185 C -0.00435 -0.28566 0.85413
 C186 C -0.04027 -0.24115 0.85132
 H187 H -0.04750 -0.31933 0.90880
 H188 H 0.03180 -0.29210 0.83301
 H189 H 0.05834 -0.37777 0.86748
 H190 H -0.07742 -0.23750 0.87185
 C191 C 0.03550 0.33108 0.89529
 C192 C 0.01044 0.27940 0.89944
 C193 C 0.01428 0.23117 0.86635
 C194 C -0.00790 0.17873 0.87230
 H195 H -0.01432 0.27294 0.92732
 H196 H 0.03605 0.23855 0.83744
 H197 H 0.05809 0.33800 0.86657
 H198 H -0.02662 0.17182 0.90243
 C199 C -0.35513 -0.00095 0.39010
 C200 C -0.30004 0.01175 0.39879
 C201 C -0.25637 0.01183 0.36562
 C202 C -0.20060 0.00984 0.37501
 H203 H -0.28679 0.02296 0.43077
 H204 H -0.26988 0.01249 0.33346
 H205 H -0.36769 -0.01042 0.35778
 H206 H -0.18811 0.00479 0.40693
 C207 C 0.35089 0.03403 0.38916
 C208 C 0.30533 0.06896 0.39364
 C209 C 0.26131 0.06782 0.36087
 C210 C 0.21061 0.09363 0.36837
 H211 H 0.29884 0.09580 0.42269
 H212 H 0.26858 0.04113 0.33191
 H213 H 0.35835 0.00891 0.35953
 H214 H 0.20303 0.11694 0.39867
   
