data_POSCAR
  _audit_creation_date              2014-09-24
  _audit_creation_method            'ToBaCCo'
  _symmetry_space_group_name_H-M    'P1'
  _symmetry_Int_Tables_number       1
  _symmetry_cell_setting            triclinic
  loop_
  _symmetry_equiv_pos_as_xyz
 x,y,z
_cell_length_a 42.3267
_cell_length_b 42.2410
_cell_length_c 42.3736
_cell_angle_alpha 88.491900
_cell_angle_beta 88.175500
_cell_angle_gamma 88.420500
loop_
  _atom_site_label
  _atom_site_type_symbol
  _atom_site_fract_x
  _atom_site_fract_y
  _atom_site_fract_z
C1 C 0.75498 0.61401 0.99817
 C2 C 0.75012 0.37550 0.50085
 C3 C 0.24424 -0.12166 0.00493
 C4 C 0.25834 0.11467 0.50106
 C5 C 0.12076 0.49886 0.25659
 C6 C -0.11800 0.00300 0.25274
 C7 C 0.38120 0.50395 0.74575
 C8 C 0.62011 0.99721 0.76382
 C9 C 0.00404 0.25238 -0.12144
 C10 C 0.49798 0.26174 0.11483
 C11 C 0.99769 0.75964 0.61666
 C12 C 0.50509 0.75403 0.37493
 C13 C 0.42481 -0.02776 0.27758
 H14 H 0.42593 -0.00526 0.28906
 C15 C 0.44069 -0.05450 0.29015
 H16 H 0.45403 -0.05228 0.31131
 C17 C 0.40391 -0.05847 0.23759
 H18 H 0.38883 -0.06033 0.21771
 C19 C 0.41945 -0.08565 0.24922
 H20 H 0.41671 -0.10785 0.23754
 N21 N 0.40643 -0.03032 0.25207
 C22 C 0.38371 0.06247 0.21004
 H23 H 0.35841 0.05960 0.20960
 C24 C 0.39695 0.08993 0.19734
 H25 H 0.38158 0.10822 0.18735
 C26 C 0.43412 0.04214 0.22450
 H27 H 0.44838 0.02333 0.23509
 C28 C 0.44846 0.06947 0.21206
 H29 H 0.47387 0.07144 0.21290
 Zn30 Zn 0.37965 0.00432 0.23988
 N31 N 0.40223 0.03936 0.22342
 C32 C 0.36022 0.04673 0.28685
 N33 N 0.35599 0.01704 0.27634
 C34 C 0.33809 -0.00404 0.29331
 C35 C 0.32383 0.00448 0.32226
 C36 C 0.34661 0.05611 0.31553
 C37 C 0.36938 -0.01216 0.17892
 C38 C 0.35374 -0.02318 0.15319
 C39 C 0.30570 -0.02513 0.18549
 C40 C 0.32235 -0.01387 0.21076
 N41 N 0.35380 -0.00837 0.20716
 H42 H 0.37508 0.06300 0.27363
 H43 H 0.33572 -0.02778 0.28485
 H44 H 0.31027 -0.01273 0.33593
 H45 H 0.35054 0.07979 0.32353
 H46 H 0.39430 -0.00722 0.17665
 H47 H 0.36676 -0.02629 0.13103
 H48 H 0.28095 -0.03054 0.18894
 H49 H 0.31035 -0.01027 0.23332
 C50 C 0.42972 0.09375 0.19818
 C51 C 0.43749 -0.08411 0.27634
 C52 C 0.32165 -0.03052 0.15642
 C53 C 0.32861 0.03474 0.33391
 C54 C 0.07635 1.03121 0.78882
 H55 H 0.07317 1.00870 0.80113
 C56 C 0.06187 1.05876 0.80078
 H57 H 0.04755 1.05719 0.82236
 C58 C 0.10086 1.06088 0.74709
 H59 H 0.11679 1.06193 0.72672
 C60 C 0.08682 1.08888 0.75813
 H61 H 0.09154 1.11096 0.74553
 N62 N 0.09575 1.03281 0.76265
 C63 C 0.11179 0.93833 0.72520
 H64 H 0.13735 0.93875 0.72416
 C65 C 0.09647 0.91233 0.71412
 H66 H 0.11044 0.89292 0.70425
 C67 C 0.06276 0.96387 0.73845
 H68 H 0.04987 0.98419 0.74778
 C69 C 0.04634 0.93827 0.72729
 H70 H 0.02074 0.93888 0.72833
 Zn71 Zn 0.12002 0.99646 0.75064
 N72 N 0.09494 0.96323 0.73740
 C73 C 0.13965 0.95239 0.79765
 N74 N 0.14354 0.98236 0.78591
 C75 C 0.16252 1.00281 0.80017
 C76 C 0.17888 0.99312 0.82711
 C77 C 0.15572 0.94169 0.82421
 C78 C 0.13170 1.01304 0.68812
 C79 C 0.14880 1.02148 0.66074
 C80 C 0.19683 1.01663 0.69005
 C81 C 0.17872 1.00811 0.71699
 N82 N 0.14671 1.00701 0.71560
 H83 H 0.12366 0.93677 0.78685
 H84 H 0.16470 1.02673 0.79075
 H85 H 0.19398 1.00957 0.83818
 H86 H 0.15197 0.91786 0.83334
 H87 H 0.10622 1.01174 0.68770
 H88 H 0.13620 1.02714 0.63939
 H89 H 0.22227 1.01770 0.69149
 H90 H 0.19022 1.00264 0.73895
 C91 C 0.06333 0.91197 0.71515
 C92 C 0.06760 1.08821 0.78573
 C93 C 0.18179 1.02362 0.66149
 C94 C 0.17566 0.96209 0.83928
 C95 C 0.57881 0.53215 0.28750
 H96 H 0.57529 0.50967 0.29977
 C97 C 0.56438 0.55981 0.29927
 H98 H 0.54976 0.55836 0.32066
 C99 C 0.60400 0.56158 0.24601
 H100 H 0.62013 0.56247 0.22579
 C101 C 0.59003 0.58969 0.25687
 H102 H 0.59503 0.61172 0.24429
 N103 N 0.59848 0.53357 0.26153
 C104 C 0.61338 0.43887 0.22424
 H105 H 0.63895 0.43888 0.22340
 C106 C 0.59773 0.41312 0.21304
 H107 H 0.61148 0.39349 0.20330
 C108 C 0.56465 0.46520 0.23705
 H109 H 0.55199 0.48573 0.24623
 C110 C 0.54791 0.43987 0.22575
 H111 H 0.52231 0.44091 0.22655
 Zn112 Zn 0.62234 0.49693 0.24957
 N113 N 0.59682 0.46404 0.23627
 C114 C 0.64131 0.45262 0.29661
 N115 N 0.64569 0.48249 0.28483
 C116 C 0.66523 0.50253 0.29890
 C117 C 0.68182 0.49244 0.32556
 C118 C 0.65756 0.44152 0.32291
 C119 C 0.63422 0.51315 0.18706
 C120 C 0.65141 0.52110 0.15958
 C121 C 0.69944 0.51589 0.18887
 C122 C 0.68124 0.50781 0.21590
 N123 N 0.64920 0.50710 0.21455
 H124 H 0.62486 0.43735 0.28599
 H125 H 0.66780 0.52640 0.28946
 H126 H 0.69746 0.50853 0.33642
 H127 H 0.65349 0.41774 0.33204
 H128 H 0.60872 0.51217 0.18667
 H129 H 0.63886 0.52672 0.13819
 H130 H 0.72490 0.51669 0.19026
 H131 H 0.69271 0.50233 0.23786
 C132 C 0.56458 0.41331 0.21376
 C133 C 0.57044 0.58919 0.28422
 C134 C 0.68444 0.52278 0.16028
 C135 C 0.67820 0.46145 0.33768
 C136 C 0.92237 0.47044 0.78068
 H137 H 0.92231 0.49293 0.79232
 C138 C 0.93790 0.44393 0.79414
 H139 H 0.94982 0.44631 0.81615
 C140 C 0.90475 0.43947 0.73923
 H141 H 0.89111 0.43740 0.71834
 C142 C 0.91999 0.41253 0.75174
 H143 H 0.91847 0.39031 0.73977
 N144 N 0.90578 0.46764 0.75396
 C145 C 0.88463 0.55868 0.70766
 H146 H 0.85972 0.55499 0.70474
 C147 C 0.89832 0.58596 0.69504
 H148 H 0.88366 0.60325 0.68259
 C149 C 0.93356 0.54075 0.72829
 H150 H 0.94708 0.52295 0.74124
 C151 C 0.94829 0.56798 0.71610
 H152 H 0.97327 0.57088 0.71953
 Zn153 Zn 0.87925 0.50177 0.73993
 N154 N 0.90219 0.53684 0.72403
 C155 C 0.85301 0.54575 0.78273
 N156 N 0.85329 0.51477 0.77473
 C157 C 0.83772 0.49283 0.79294
 C158 C 0.82137 0.50179 0.82068
 C159 C 0.83674 0.55574 0.80989
 C160 C 0.87161 0.48449 0.67847
 C161 C 0.85687 0.47328 0.65226
 C162 C 0.80807 0.47053 0.68330
 C163 C 0.82383 0.48198 0.70906
 N164 N 0.85519 0.48810 0.70627
 H165 H 0.86613 0.56279 0.76860
 H166 H 0.83878 0.46823 0.78638
 H167 H 0.80944 0.48405 0.83522
 H168 H 0.83755 0.58039 0.81617
 H169 H 0.89646 0.48989 0.67687
 H170 H 0.87050 0.47046 0.63042
 H171 H 0.78336 0.46475 0.68609
 H172 H 0.81121 0.48532 0.73135
 C173 C 0.93054 0.59093 0.69914
 C174 C 0.93619 0.41430 0.77999
 C175 C 0.82483 0.46555 0.65459
 C176 C 0.82092 0.53364 0.82945
 C177 C 0.28483 0.42876 -0.03445
 H178 H 0.29761 0.42819 -0.01272
 C179 C 0.29758 0.44406 -0.06147
 H180 H 0.32018 0.45527 -0.06024
 C181 C 0.24120 0.41253 -0.06309
 H182 H 0.21969 0.39953 -0.06408
 C183 C 0.25295 0.42759 -0.09049
 H184 H 0.23984 0.42654 -0.11195
 N185 N 0.25740 0.41290 -0.03588
 C186 C 0.21312 0.39186 0.05627
 H187 H 0.20846 0.36730 0.05208
 C188 C 0.20307 0.40520 0.08464
 H189 H 0.19009 0.39089 0.10191
 C190 C 0.23577 0.44014 0.03858
 H191 H 0.24882 0.45345 0.02061
 C192 C 0.22593 0.45458 0.06678
 H193 H 0.23150 0.47906 0.07038
 Zn194 Zn 0.24426 0.38623 -0.00145
 N195 N 0.22962 0.40914 0.03417
 C196 C 0.28663 0.35788 0.04136
 N197 N 0.27934 0.36009 0.01033
 C198 C 0.29826 0.34619 -0.01222
 C199 C 0.32603 0.32967 -0.00381
 C200 C 0.31369 0.34127 0.05078
 C201 C 0.18196 0.37782 -0.01608
 C202 C 0.15565 0.36271 -0.02670
 C203 C 0.18759 0.31472 -0.03208
 C204 C 0.21343 0.33083 -0.02120
 N205 N 0.21022 0.36197 -0.01403
 H206 H 0.27194 0.36959 0.05897
 H207 H 0.29225 0.34871 -0.03680
 H208 H 0.34120 0.31913 -0.02196
 H209 H 0.31932 0.34042 0.07555
 H210 H 0.18007 0.40252 -0.00997
 H211 H 0.13343 0.37588 -0.02828
 H212 H 0.19070 0.29023 -0.03872
 H213 H 0.23613 0.31870 -0.01921
 C214 C 0.20983 0.43679 0.09043
 C215 C 0.28193 0.44290 -0.09020
 C216 C 0.15836 0.33091 -0.03543
 C217 C 0.33395 0.32717 0.02810
 C218 C 0.79050 0.07845 1.03440
 H219 H 0.80238 0.07535 1.01167
 C220 C 0.80257 0.06328 1.06140
 H221 H 0.82380 0.04852 1.05917
 C222 C 0.74982 0.10339 1.06523
 H223 H 0.72987 0.11977 1.06699
 C224 C 0.76096 0.08866 1.09268
 H225 H 0.74881 0.09331 1.11502
 N226 N 0.76481 0.09839 1.03685
 C227 C 0.72669 0.11704 0.94363
 H228 H 0.72702 0.14261 0.94439
 C229 C 0.71362 0.10266 0.91815
 H230 H 0.70431 0.11738 0.89912
 C231 C 0.73853 0.06706 0.96783
 H232 H 0.74784 0.05344 0.98757
 C233 C 0.72561 0.05156 0.94257
 H234 H 0.72498 0.02595 0.94304
 Zn235 Zn 0.75267 0.12352 1.00127
 N236 N 0.73871 0.09926 0.96783
 C237 C 0.80125 0.14064 0.95811
 N238 N 0.78820 0.14686 0.98710
 C239 C 0.80181 0.16725 1.00662
 C240 C 0.82961 0.18247 0.99701
 C241 C 0.82899 0.15509 0.94771
 C242 C 0.69068 0.13391 1.01922
 C243 C 0.66322 0.14990 1.02931
 C244 C 0.69121 0.19902 1.02514
 C245 C 0.71835 0.18195 1.01501
 N246 N 0.71769 0.14987 1.01298
 H247 H 0.79071 0.12376 0.94321
 H248 H 0.79142 0.17118 1.02989
 H249 H 0.84048 0.19829 1.01292
 H250 H 0.83897 0.14974 0.92454
 H251 H 0.69074 0.10846 1.01687
 H252 H 0.64207 0.13660 1.03440
 H253 H 0.69221 0.22441 1.02766
 H254 H 0.73992 0.19425 1.00931
 C255 C 0.71255 0.06953 0.91752
 C256 C 0.78811 0.06888 1.09115
 C257 C 0.66337 0.18279 1.03301
 C258 C 0.84371 0.17605 0.96734
 C259 C 0.29061 0.58173 0.52678
 H260 H 0.30233 0.57930 0.50387
 C261 C 0.30328 0.56638 0.55339
 H262 H 0.32482 0.55215 0.55071
 C263 C 0.24965 0.60518 0.55842
 H264 H 0.22933 0.62104 0.56066
 C265 C 0.26139 0.59024 0.58549
 H266 H 0.24934 0.59420 0.60802
 N267 N 0.26448 0.60103 0.52981
 C268 C 0.22413 0.62008 0.43765
 H269 H 0.22383 0.64565 0.43865
 C270 C 0.21088 0.60558 0.41232
 H271 H 0.20079 0.62022 0.39364
 C272 C 0.23778 0.57017 0.46105
 H273 H 0.24788 0.55661 0.48043
 C274 C 0.22474 0.55457 0.43594
 H275 H 0.22483 0.52893 0.43615
 Zn276 Zn 0.25140 0.62649 0.49481
 N277 N 0.23715 0.60239 0.46137
 C278 C 0.29883 0.64510 0.45089
 N279 N 0.28646 0.65041 0.48036
 C280 C 0.30064 0.67004 0.50023
 C281 C 0.32847 0.68521 0.49061
 C282 C 0.32655 0.65956 0.44045
 C283 C 0.18950 0.63594 0.51362
 C284 C 0.16207 0.65142 0.52461
 C285 C 0.18971 0.70077 0.52172
 C286 C 0.21682 0.68422 0.51064
 N287 N 0.21632 0.65226 0.50754
 H288 H 0.28782 0.62885 0.43567
 H289 H 0.29078 0.67326 0.52383
 H290 H 0.33987 0.70026 0.50686
 H291 H 0.33604 0.65485 0.41695
 H292 H 0.18968 0.61060 0.51047
 H293 H 0.14108 0.63783 0.52956
 H294 H 0.19061 0.72604 0.52511
 H295 H 0.23827 0.69680 0.50514
 C296 C 0.21071 0.57242 0.41136
 C297 C 0.28898 0.57113 0.58337
 C298 C 0.16208 0.68414 0.52943
 C299 C 0.34199 0.67956 0.46051
 C300 C 0.78402 0.92924 0.47473
 H301 H 0.79509 0.92845 0.49740
 C302 C 0.79811 0.94578 0.44917
 H303 H 0.81969 0.95825 0.45260
 C304 C 0.74333 0.91262 0.44233
 H305 H 0.72266 0.89877 0.43929
 C306 C 0.75654 0.92884 0.41625
 H307 H 0.74571 0.92717 0.39358
 N308 N 0.75736 0.91272 0.47078
 C309 C 0.71029 0.88872 0.56100
 H310 H 0.70579 0.86430 0.55601
 C311 C 0.69962 0.90128 0.58957
 H312 H 0.68634 0.88650 0.60619
 C313 C 0.73303 0.93748 0.54509
 H314 H 0.74629 0.95134 0.52774
 C315 C 0.72265 0.95111 0.57351
 H316 H 0.72814 0.97546 0.57787
 Zn317 Zn 0.74271 0.88492 0.50364
 N318 N 0.72714 0.90662 0.53970
 C319 C 0.78434 0.85524 0.54647
 N320 N 0.77727 0.85812 0.51542
 C321 C 0.79630 0.84468 0.49269
 C322 C 0.82404 0.82803 0.50091
 C323 C 0.81141 0.83850 0.55571
 C324 C 0.68126 0.87805 0.48528
 C325 C 0.65518 0.86345 0.47347
 C326 C 0.68619 0.81466 0.47020
 C327 C 0.71180 0.83028 0.48221
 N328 N 0.70897 0.86155 0.48895
 H329 H 0.76954 0.86663 0.56422
 H330 H 0.79045 0.84776 0.46811
 H331 H 0.83931 0.81792 0.48260
 H332 H 0.81695 0.83722 0.58050
 H333 H 0.67963 0.90282 0.49117
 H334 H 0.63339 0.87711 0.47068
 H335 H 0.68904 0.79002 0.46404
 H336 H 0.73402 0.81760 0.48556
 C337 C 0.70615 0.93271 0.59638
 C338 C 0.78468 0.94516 0.41926
 C339 C 0.65755 0.83146 0.46528
 C340 C 0.83187 0.82496 0.53283
 C341 C -0.02699 0.28044 0.42597
 H342 H -0.00417 0.29104 0.42788
 C343 C -0.05353 0.29350 0.44187
 H344 H -0.05078 0.31381 0.45650
 C345 C -0.05848 0.24188 0.40358
 H346 H -0.06065 0.22247 0.38780
 C347 C -0.08555 0.25414 0.41902
 H348 H -0.10814 0.24385 0.41487
 N349 N -0.02995 0.25527 0.40703
 C350 C 0.06283 0.21130 0.38753
 H351 H 0.06037 0.20923 0.36234
 C352 C 0.09035 0.20009 0.40159
 H353 H 0.10876 0.18890 0.38710
 C354 C 0.04145 0.22827 0.43683
 H355 H 0.02234 0.23943 0.45034
 C356 C 0.06871 0.21719 0.45199
 H357 H 0.07046 0.22005 0.47718
 Zn358 Zn 0.00510 0.24175 0.38130
 N359 N 0.03935 0.22562 0.40503
 C360 C 0.04921 0.28635 0.35889
 N361 N 0.01881 0.27722 0.35665
 C362 C -0.00213 0.29437 0.33892
 C363 C 0.00740 0.32185 0.32245
 C364 C 0.05974 0.31330 0.34265
 C365 C -0.01284 0.18057 0.37144
 C366 C -0.02205 0.15435 0.35511
 C367 C -0.01869 0.18561 0.30658
 C368 C -0.00936 0.21132 0.32391
 N369 N -0.00705 0.20841 0.35580
 H370 H 0.06533 0.27322 0.37384
 H371 H -0.02634 0.28698 0.33799
 H372 H -0.00949 0.33538 0.30852
 H373 H 0.08391 0.32037 0.34526
 H374 H -0.01061 0.17893 0.39679
 H375 H -0.02736 0.13270 0.36821
 H376 H -0.02062 0.18825 0.28122
 H377 H -0.00414 0.23355 0.31191
 C378 C 0.09380 0.20337 0.43414
 C379 C -0.08343 0.28065 0.43805
 C380 C -0.02526 0.15668 0.32226
 C381 C 0.03877 0.33151 0.32421
 C382 C 1.02404 0.78785 0.07973
 H383 H 1.00162 0.80071 0.07870
 C384 C 1.05108 0.80052 0.06497
 H385 H 1.04922 0.82319 0.05256
 C386 C 1.05411 0.74387 0.09927
 H387 H 1.05555 0.72225 0.11335
 C388 C 1.08160 0.75557 0.08483
 H389 H 1.10366 0.74230 0.08741
 N390 N 1.02612 0.76024 0.09689
 C391 C 0.93260 0.72135 0.11468
 H392 H 0.93376 0.71891 0.14010
 C393 C 0.90643 0.71059 0.09949
 H394 H 0.88765 0.69959 0.11342
 C395 C 0.95652 0.73760 0.06578
 H396 H 0.97628 0.74793 0.05285
 C397 C 0.93073 0.72688 0.04950
 H398 H 0.93067 0.72929 0.02400
 Zn399 Zn 0.99088 0.74706 0.12217
 N400 N 0.95681 0.73480 0.09783
 C401 C 0.94746 0.79271 0.14671
 N402 N 0.97780 0.78136 0.14788
 C403 C 0.99946 0.79569 0.16536
 C404 C 0.99079 0.82248 0.18270
 C405 C 0.93776 0.81912 0.16385
 C406 C 1.00694 0.68378 0.13035
 C407 C 1.01782 0.65607 0.14536
 C408 C 1.01936 0.68436 0.19410
 C409 C 1.00822 0.71165 0.17810
 N410 N 1.00300 0.71097 0.14662
 H411 H 0.93079 0.78182 0.13193
 H412 H 1.02361 0.78661 0.16537
 H413 H 1.00828 0.83373 0.19641
 H414 H 0.91364 0.82807 0.16210
 H415 H 1.00228 0.68388 0.10539
 H416 H 1.02106 0.63478 0.13181
 H417 H 1.02463 0.68555 0.21886
 H418 H 1.00459 0.73345 0.19064
 C419 C 0.90520 0.71329 0.06648
 C420 C 1.08051 0.78464 0.06804
 C421 C 1.02488 0.65626 0.17749
 C422 C 0.95953 0.83445 0.18205
 C423 C 0.53058 0.28641 0.57955
 H424 H 0.50810 0.29910 0.57816
 C425 C 0.55748 0.29861 0.56400
 H426 H 0.55542 0.32074 0.55066
 C427 C 0.56104 0.24346 0.60065
 H428 H 0.56274 0.22249 0.61563
 C429 C 0.58834 0.25467 0.58545
 H430 H 0.61047 0.24162 0.58838
 N431 N 0.53293 0.25957 0.59786
 C432 C 0.44077 0.21912 0.61893
 H433 H 0.44259 0.21795 0.64434
 C434 C 0.41501 0.20609 0.60497
 H435 H 0.39685 0.19529 0.61990
 C436 C 0.46252 0.23474 0.56885
 H437 H 0.48141 0.24556 0.55499
 C438 C 0.43693 0.22194 0.55380
 H439 H 0.43632 0.22289 0.52826
 Zn440 Zn 0.49807 0.24701 0.62407
 N441 N 0.46386 0.23306 0.60090
 C442 C 0.45404 0.29266 0.64719
 N443 N 0.48462 0.28211 0.64854
 C444 C 0.50603 0.29767 0.66525
 C445 C 0.49683 0.32500 0.68155
 C446 C 0.44381 0.31952 0.66335
 C447 C 0.51492 0.18434 0.63406
 C448 C 0.52557 0.15699 0.64981
 C449 C 0.52664 0.18645 0.69788
 C450 C 0.51578 0.21340 0.68112
 N451 N 0.51081 0.21193 0.64963
 H452 H 0.43753 0.28073 0.63305
 H453 H 0.53037 0.28916 0.66545
 H454 H 0.51410 0.33727 0.69464
 H455 H 0.41947 0.32777 0.66150
 H456 H 0.51041 0.18381 0.60910
 H457 H 0.52882 0.13534 0.63682
 H458 H 0.53155 0.18814 0.72269
 H459 H 0.51198 0.23552 0.69309
 C460 C 0.41297 0.20703 0.57199
 C461 C 0.58701 0.28302 0.56749
 C462 C 0.53218 0.15791 0.68200
 C463 C 0.46530 0.33614 0.68071
 C464 C 0.46648 0.77953 0.93269
 H465 H 0.48960 0.78929 0.93526
 C466 C 0.44018 0.79272 0.94889
 H467 H 0.44339 0.81226 0.96440
 C468 C 0.43402 0.74312 0.90830
 H469 H 0.43137 0.72461 0.89160
 C470 C 0.40719 0.75552 0.92401
 H471 H 0.38432 0.74622 0.91913
 N472 N 0.46292 0.75538 0.91261
 C473 C 0.55449 0.71017 0.89099
 H474 H 0.55189 0.70989 0.86569
 C475 C 0.58137 0.69655 0.90432
 H476 H 0.59949 0.68597 0.88902
 C477 C 0.53412 0.72521 0.94134
 H478 H 0.51553 0.73635 0.95556
 C479 C 0.56094 0.71194 0.95575
 H480 H 0.56278 0.71277 0.98114
 Zn481 Zn 0.49765 0.74197 0.88641
 N482 N 0.53164 0.72429 0.90944
 C483 C 0.54170 0.78785 0.86841
 N484 N 0.51207 0.77795 0.86309
 C485 C 0.49229 0.79510 0.84409
 C486 C 0.50214 0.82356 0.82971
 C487 C 0.55237 0.81605 0.85474
 C488 C 0.47825 0.68188 0.87607
 C489 C 0.46782 0.65604 0.86004
 C490 C 0.47176 0.68691 0.81130
 C491 C 0.48224 0.71234 0.82839
 N492 N 0.48468 0.70948 0.86029
 H493 H 0.55691 0.77448 0.88411
 H494 H 0.46858 0.78711 0.84079
 H495 H 0.48598 0.83735 0.81518
 H496 H 0.57599 0.82352 0.85949
 H497 H 0.48092 0.68016 0.90137
 H498 H 0.46276 0.63434 0.87319
 H499 H 0.46905 0.68970 0.78605
 H500 H 0.48802 0.73435 0.81626
 C501 C 0.58492 0.69731 0.93707
 C502 C 0.40992 0.78105 0.94419
 C503 C 0.46394 0.65846 0.82730
 C504 C 0.53238 0.83456 0.83551
 C505 C 0.47465 -0.16896 0.32169
 C506 C 0.49252 -0.14150 0.32014
 C507 C 0.48076 -0.11397 0.30500
 C508 C 0.49453 -0.21936 0.35459
 C509 C 0.43336 -0.14145 0.29265
 C510 C 0.44515 -0.16888 0.30777
 C511 C 0.48570 -0.19663 0.33907
 C512 C 0.45094 -0.11357 0.29122
 H513 H 0.51535 -0.14125 0.33099
 H514 H 0.49496 -0.09301 0.30409
 H515 H 0.41007 -0.14182 0.28286
 H516 H 0.43097 -0.18987 0.30911
 C517 C 0.97286 0.32976 0.82627
 C518 C 0.94414 0.32937 0.81091
 C519 C 0.93247 0.35677 0.79563
 C520 C 0.99298 0.27912 0.85866
 C521 C 0.97837 0.38514 0.81079
 C522 C 0.99002 0.35766 0.82609
 C523 C 0.98395 0.30196 0.84342
 C524 C 0.94938 0.38504 0.79545
 H525 H 0.93050 0.30803 0.81116
 H526 H 0.90979 0.35600 0.78460
 H527 H 0.99206 0.40642 0.81088
 H528 H 1.01225 0.35824 0.83803
 C529 C 0.03348 1.17461 0.82812
 C530 C 0.06367 1.17289 0.81380
 C531 C 0.07452 1.14495 0.79967
 C532 C 0.01464 1.22566 0.85914
 C533 C 0.02484 1.12031 0.81384
 C534 C 0.01402 1.14833 0.82798
 C535 C 0.02316 1.20271 0.84444
 C536 C 0.05531 1.11824 0.79965
 H537 H 0.07906 1.19295 0.81405
 H538 H 0.09831 1.14399 0.78950
 H539 H 0.00939 1.10029 0.81399
 H540 H -0.00936 1.14936 0.83914
 C541 C 0.53569 0.67588 0.32563
 C542 C 0.56612 0.67404 0.31185
 C543 C 0.57720 0.64600 0.29805
 C544 C 0.51619 0.72717 0.35592
 C545 C 0.52729 0.62148 0.31151
 C546 C 0.51624 0.64960 0.32531
 C547 C 0.52505 0.70411 0.34156
 C548 C 0.55798 0.61931 0.29785
 H549 H 0.58149 0.69411 0.31223
 H550 H 0.60114 0.64497 0.28827
 H551 H 0.51184 0.60148 0.31150
 H552 H 0.49268 0.65072 0.33605
 C553 C 0.52237 0.33484 0.17046
 C554 C 0.51022 0.36563 0.16508
 C555 C 0.52289 0.39117 0.18034
 C556 C 0.50525 0.28754 0.13566
 C557 C 0.55915 0.35499 0.20718
 C558 C 0.54642 0.32954 0.19200
 C559 C 0.51232 0.30907 0.15197
 C560 C 0.54805 0.38616 0.20094
 H561 H 0.49173 0.37001 0.14829
 H562 H 0.51407 0.41494 0.17489
 H563 H 0.57823 0.35039 0.22324
 H564 H 0.55604 0.30584 0.19632
 C565 C 0.02196 0.83280 0.67226
 C566 C 0.00924 0.86340 0.66706
 C567 C 0.02166 0.88915 0.68219
 C568 C 0.00506 0.78534 0.63757
 C569 C 0.05881 0.85354 0.70855
 C570 C 0.04634 0.82788 0.69350
 C571 C 0.01209 0.80689 0.65387
 C572 C 0.04712 0.88454 0.70248
 H573 H -0.00952 0.86749 0.65050
 H574 H 0.01239 0.91277 0.67688
 H575 H 0.07814 0.84925 0.72438
 H576 H 0.05639 0.80433 0.69767
 C577 C 0.96848 0.67763 0.66103
 C578 C 0.94846 0.65989 0.64323
 C579 C 0.93684 0.63135 0.65537
 C580 C 0.98807 0.73145 0.63504
 C581 C 0.96580 0.63763 0.70316
 C582 C 0.97742 0.66635 0.69092
 C583 C 0.97960 0.70723 0.64801
 C584 C 0.94504 0.62007 0.68562
 H585 H 0.94162 0.66825 0.61996
 H586 H 0.92132 0.61811 0.64111
 H587 H 0.97231 0.62962 0.72661
 H588 H 0.99303 0.67985 0.70484
 C589 C 0.46724 0.18053 0.15967
 C590 C 0.44420 0.16473 0.14374
 C591 C 0.43259 0.13621 0.15597
 C592 C 0.48770 0.23384 0.13330
 C593 C 0.46742 0.13873 0.20009
 C594 C 0.47906 0.16740 0.18776
 C595 C 0.47880 0.20985 0.14638
 C596 C 0.44380 0.12303 0.18445
 H597 H 0.43513 0.17450 0.12181
 H598 H 0.41481 0.12443 0.14309
 H599 H 0.47632 0.12926 0.22218
 H600 H 0.49704 0.17937 0.20018
 C601 C 0.32680 0.47732 -0.17652
 C602 C 0.32837 0.49466 -0.14890
 C603 C 0.31339 0.48385 -0.12087
 C604 C 0.36008 0.49478 -0.22765
 C605 C 0.29491 0.43851 -0.14816
 C606 C 0.30989 0.44934 -0.17610
 C607 C 0.34425 0.48706 -0.20467
 C608 C 0.29664 0.45551 -0.12013
 H609 H 0.34157 0.51627 -0.14892
 H610 H 0.31496 0.49759 -0.09979
 H611 H 0.28276 0.41630 -0.14831
 H612 H 0.30882 0.43553 -0.19721
 C613 C 0.83187 0.97973 0.33433
 C614 C 0.79911 0.98411 0.33834
 C615 C 0.78379 0.97385 0.36639
 C616 C 0.86236 0.99540 0.28094
 C617 C 0.83410 0.95547 0.38676
 C618 C 0.84933 0.96573 0.35874
 C619 C 0.84776 0.98863 0.30500
 C620 C 0.80108 0.95903 0.39079
 H621 H 0.78536 0.99502 0.31965
 H622 H 0.75840 0.97723 0.36889
 H623 H 0.84806 0.94370 0.40478
 H624 H 0.87470 0.96216 0.35587
 C625 C 0.83099 0.03284 1.17605
 C626 C 0.81736 0.06335 1.17494
 C627 C 0.80310 0.07482 1.14748
 C628 C 0.86237 0.01332 1.22629
 C629 C 0.81577 0.02513 1.12207
 C630 C 0.83005 0.01368 1.14962
 C631 C 0.84751 0.02198 1.20365
 C632 C 0.80225 0.05592 1.12064
 H633 H 0.81825 0.07851 1.19511
 H634 H 0.79348 0.09884 1.14701
 H635 H 0.81529 0.00992 1.10193
 H636 H 0.84069 -0.00994 1.15017
 C637 C 0.33271 0.53437 0.66755
 C638 C 0.33218 0.51571 0.64073
 C639 C 0.31776 0.52743 0.61335
 C640 C 0.36292 0.51426 0.71832
 C641 C 0.30422 0.57643 0.63969
 C642 C 0.31861 0.56469 0.66696
 C643 C 0.34879 0.52310 0.69527
 C644 C 0.30365 0.55799 0.61251
 H645 H 0.34314 0.49222 0.64090
 H646 H 0.31751 0.51258 0.59293
 H647 H 0.29415 0.60027 0.63967
 H648 H 0.31914 0.57945 0.68745
 C649 C 0.16677 0.53068 0.33302
 C650 C 0.19517 0.51752 0.34418
 C651 C 0.20930 0.53057 0.37016
 C652 C 0.13870 0.50900 0.28340
 C653 C 0.16634 0.56957 0.37400
 C654 C 0.15230 0.55651 0.34819
 C655 C 0.15219 0.51825 0.30591
 C656 C 0.19519 0.55702 0.38507
 H657 H 0.20654 0.49746 0.33263
 H658 H 0.23159 0.52055 0.37807
 H659 H 0.15461 0.58955 0.38533
 H660 H 0.13022 0.56674 0.33990
 C661 C 0.66825 0.02835 0.83910
 C662 C 0.69614 0.01445 0.85071
 C663 C 0.71040 0.02734 0.87671
 C664 C 0.63921 0.00693 0.78996
 C665 C 0.66860 0.06765 0.87963
 C666 C 0.65444 0.05478 0.85380
 C667 C 0.65331 0.01597 0.81217
 C668 C 0.69693 0.05435 0.89117
 H669 H 0.70696 -0.00610 0.83954
 H670 H 0.73228 0.01672 0.88501
 H671 H 0.65734 0.08808 0.89061
 H672 H 0.63273 0.06556 0.84519
 C673 C 0.67094 0.96839 0.68514
 C674 C 0.66962 0.98766 0.65777
 C675 C 0.68198 0.97652 0.62898
 C676 C 0.64024 0.98678 0.73709
 C677 C 0.69771 0.92709 0.65510
 C678 C 0.68539 0.93828 0.68382
 C679 C 0.65508 0.97846 0.71385
 C680 C 0.69560 0.94585 0.62724
 H681 H 0.65823 1.01092 0.65849
 H682 H 0.67978 0.99139 0.60792
 H683 H 0.70853 0.90358 0.65460
 H684 H 0.68646 0.92313 0.70482
 C685 C 0.17455 0.47355 0.17858
 C686 C 0.17251 0.49223 0.15086
 C687 C 0.18519 0.48093 0.12225
 C688 C 0.14203 0.49039 0.23000
 C689 C 0.20285 0.43267 0.14930
 C690 C 0.19025 0.44401 0.17782
 C691 C 0.15775 0.48310 0.20695
 C692 C 0.19978 0.45066 0.12108
 H693 H 0.16014 0.51503 0.15114
 H694 H 0.18230 0.49519 0.10087
 H695 H 0.21440 0.40947 0.14918
 H696 H 0.19185 0.42930 0.19908
 C697 C -0.16951 0.32542 0.47347
 C698 C -0.16618 0.29235 0.47438
 C699 C -0.13790 0.27771 0.46364
 C700 C -0.22248 0.35549 0.49141
 C701 C -0.11605 0.32922 0.45158
 C702 C -0.14428 0.34377 0.46232
 C703 C -0.19875 0.34090 0.48344
 C704 C -0.11258 0.29600 0.45184
 H705 H -0.18549 0.27791 0.48309
 H706 H -0.13588 0.25210 0.46445
 H707 H -0.09730 0.34399 0.44218
 H708 H -0.14660 0.36939 0.46147
 C709 C 0.32446 0.82713 0.97928
 C710 C 0.35049 0.84503 0.96949
 C711 C 0.37857 0.83002 0.95901
 C712 C 0.27161 0.85802 0.99610
 C713 C 0.35497 0.77892 0.96872
 C714 C 0.32685 0.79402 0.97920
 C715 C 0.29529 0.84310 0.98865
 C716 C 0.38106 0.79677 0.95814
 H717 H 0.34889 0.87069 0.96942
 H718 H 0.39795 0.84450 0.95056
 H719 H 0.35623 0.75329 0.96866
 H720 H 0.30689 0.77991 0.98685
 C721 C 1.16608 0.82831 0.03378
 C722 C 1.13903 0.83015 0.01555
 C723 C 1.11124 0.81566 0.02640
 C724 C 1.21717 0.85928 0.01515
 C725 C 1.13765 0.79720 0.07363
 C726 C 1.16535 0.81170 0.06275
 C727 C 1.19412 0.84470 0.02351
 C728 C 1.11020 0.79911 0.05565
 H729 H 1.13931 0.84307 -0.00688
 H730 H 1.09061 0.81734 0.01192
 H731 H 1.13751 0.78518 0.09651
 H732 H 1.18604 0.81037 0.07719
 C733 C 0.67238 0.32547 0.53090
 C734 C 0.67180 0.31004 0.56050
 C735 C 0.64416 0.29597 0.57213
 C736 C 0.72326 0.35622 0.51124
 C737 C 0.61746 0.31247 0.52444
 C738 C 0.64520 0.32655 0.51283
 C739 C 0.70031 0.34166 0.51996
 C740 C 0.61659 0.29711 0.55432
 H741 H 0.69256 0.30935 0.57484
 H742 H 0.64415 0.28491 0.59547
 H743 H 0.59674 0.31354 0.51007
 H744 H 0.64535 0.33859 0.48994
 C745 C 0.33372 0.16317 0.53173
 C746 C 0.34420 0.19218 0.51913
 C747 C 0.37044 0.20634 0.53171
 C748 C 0.28438 0.13403 0.51071
 C749 C 0.37585 0.16224 0.56909
 C750 C 0.34978 0.14818 0.55653
 C751 C 0.30662 0.14825 0.51963
 C752 C 0.38629 0.19164 0.55710
 H753 H 0.33198 0.20393 0.49985
 H754 H 0.37786 0.22906 0.52214
 H755 H 0.38790 0.15005 0.58823
 H756 H 0.34205 0.12561 0.56628
 C757 C 0.82648 0.67065 0.02434
 C758 C 0.85684 0.66715 0.01052
 C759 C 0.88236 0.68221 0.02332
 C760 C 0.77993 0.63550 0.00624
 C761 C 0.84698 0.70514 0.06315
 C762 C 0.82153 0.69014 0.05030
 C763 C 0.80099 0.65210 0.01385
 C764 C 0.87780 0.70074 0.05026
 H765 H 0.86096 0.65192 -0.00946
 H766 H 0.90585 0.67816 0.01308
 H767 H 0.84269 0.71961 0.08365
 H768 H 0.79817 0.69297 0.06123
 C769 C 0.67134 0.65755 0.97319
 C770 C 0.65900 0.68619 0.98491
 C771 C 0.63026 0.69881 0.97397
 C772 C 0.72592 0.63179 0.99042
 C773 C 0.62602 0.65380 0.94017
 C774 C 0.65458 0.64126 0.95112
 C775 C 0.70124 0.64451 0.98319
 C776 C 0.61376 0.68292 0.95110
 H777 H 0.67176 0.69894 1.00209
 H778 H 0.62147 0.72139 0.98261
 H779 H 0.61361 0.64081 0.92292
 H780 H 0.66378 0.61896 0.94208
 C781 C 0.17972 0.16602 0.47354
 C782 C 0.18074 0.18427 0.44555
 C783 C 0.15287 0.19731 0.43336
 C784 C 0.23109 0.13462 0.49195
 C785 C 0.12282 0.17478 0.47771
 C786 C 0.15078 0.16167 0.48986
 C787 C 0.20789 0.14962 0.48398
 C788 C 0.12352 0.19217 0.44895
 H789 H 0.20297 0.18773 0.43269
 H790 H 0.15419 0.21103 0.41142
 H791 H 0.10057 0.17024 0.49010
 H792 H 0.14972 0.14737 0.51145
 C793 C 0.57234 0.07492 0.72774
 C794 C 0.54947 0.09341 0.74391
 C795 C 0.53635 0.12061 0.72922
 C796 C 0.60084 0.02442 0.75296
 C797 C 0.56918 0.11076 0.68239
 C798 C 0.58217 0.08372 0.69703
 C799 C 0.58685 0.04736 0.74239
 C800 C 0.54601 0.12946 0.69821
 H801 H 0.54183 0.08686 0.76778
 H802 H 0.51842 0.13445 0.74190
 H803 H 0.57761 0.11726 0.65877
 H804 H 0.60010 0.06976 0.68444
 C805 C 1.06846 0.57398 0.22138
 C806 C 1.07689 0.58302 0.19036
 C807 C 1.06260 0.60966 0.17621
 C808 C 1.09998 0.52505 0.24604
 C809 C 1.03107 0.61847 0.22410
 C810 C 1.04550 0.59170 0.23829
 C811 C 1.08465 0.54720 0.23570
 C812 C 1.03949 0.62771 0.19285
 H813 H 1.09487 0.56965 0.17719
 H814 H 1.07013 0.61647 0.15239
 H815 H 1.01322 0.63179 0.23742
 H816 H 1.03893 0.58496 0.26240
 C817 C 0.92701 0.92055 0.22529
 C818 C 0.90884 0.89340 0.22812
 C819 C 0.92000 0.86507 0.21510
 C820 C 0.90030 0.97454 0.24368
 C821 C 0.96828 0.89053 0.19736
 C822 C 0.95697 0.91898 0.21032
 C823 C 0.91351 0.95027 0.23565
 C824 C 0.94956 0.86348 0.19903
 H825 H 0.88561 0.89436 0.23962
 H826 H 0.90526 0.84451 0.21705
 H827 H 0.99099 0.89004 0.18486
 H828 H 0.97114 0.93992 0.20784
 C829 C 0.43029 0.42296 0.72073
 C830 C 0.46005 0.42189 0.70532
 C831 C 0.47227 0.39325 0.69347
 C832 C 0.40126 0.47645 0.73728
 C833 C 0.42532 0.36668 0.71323
 C834 C 0.41327 0.39518 0.72515
 C835 C 0.41568 0.45258 0.72998
 C836 C 0.45463 0.36553 0.69669
 H837 H 0.47334 0.44330 0.70162
 H838 H 0.49478 0.39306 0.68058
 H839 H 0.41141 0.34562 0.71635
 H840 H 0.39021 0.39574 0.73702
 C841 C 0.42653 0.57922 0.78065
 C842 C 0.45114 0.59621 0.76600
 C843 C 0.46323 0.62235 0.78087
 C844 C 0.40005 0.53021 0.75580
 C845 C 0.42585 0.61452 0.82474
 C846 C 0.41387 0.58857 0.80992
 C847 C 0.41330 0.55247 0.76604
 C848 C 0.45083 0.63159 0.81055
 H849 H 0.46099 0.58923 0.74324
 H850 H 0.48259 0.63495 0.76949
 H851 H 0.41537 0.62140 0.84727
 H852 H 0.39461 0.57577 0.82132
 C853 C -0.06414 0.07697 0.27793
 C854 C -0.07350 0.10779 0.26868
 C855 C -0.05984 0.13384 0.28205
 C856 C -0.09706 0.02859 0.26025
 C857 C -0.02658 0.09826 0.31317
 C858 C -0.04025 0.07226 0.29975
 C859 C -0.08129 0.05041 0.26761
 C860 C -0.03677 0.12933 0.30503
 H861 H -0.09220 0.11168 0.25202
 H862 H -0.06841 0.15743 0.27556
 H863 H -0.00854 0.09406 0.33046
 H864 H -0.03292 0.04852 0.30718
 C865 C 0.07439 0.41811 0.28386
 C866 C 0.09193 0.38976 0.28081
 C867 C 0.07974 0.36139 0.29282
 C868 C 0.10233 0.47117 0.26614
 C869 C 0.03171 0.38935 0.31000
 C870 C 0.04404 0.41783 0.29803
 C871 C 0.08868 0.44742 0.27406
 C872 C 0.04978 0.36097 0.30811
 H873 H 0.11541 0.38969 0.26984
 H874 H 0.09401 0.33982 0.29072
 H875 H 0.00869 0.38974 0.32191
 H876 H 0.03031 0.43969 0.30060
 C877 C 0.56877 0.92191 0.79762
 C878 C 0.55185 0.90245 0.77829
 C879 C 0.53893 0.87443 0.79077
 C880 C 0.60006 0.97117 0.77478
 C881 C 0.55929 0.88579 0.84198
 C882 C 0.57201 0.91373 0.82955
 C883 C 0.58494 0.94902 0.78464
 C884 C 0.54316 0.86552 0.82260
 H885 H 0.54936 0.90850 0.75348
 H886 H 0.52673 0.85916 0.77533
 H887 H 0.56246 0.87977 0.86670
 H888 H 0.58507 0.92859 0.84471
 C889 C 0.73065 0.55983 0.07636
 C890 C 0.70833 0.53625 0.07422
 C891 C 0.69442 0.52297 0.10164
 C892 C 0.74806 0.59296 0.02535
 C893 C 0.72620 0.55584 0.13351
 C894 C 0.74006 0.56913 0.10604
 C895 C 0.74096 0.57707 0.04840
 C896 C 0.70257 0.53327 0.13156
 H897 H 0.70077 0.52900 0.05138
 H898 H 0.67660 0.50532 0.09944
 H899 H 0.73271 0.56445 0.15619
 H900 H 0.75710 0.58760 0.10793
 C901 C 0.22859 1.06157 0.57820
 C902 C 0.20600 1.03832 0.57561
 C903 C 0.19176 1.02487 0.60278
 C904 C 0.24872 1.09402 0.52773
 C905 C 0.22358 1.05706 0.63529
 C906 C 0.23779 1.07049 0.60807
 C907 C 0.24006 1.07846 0.55047
 C908 C 0.19986 1.03466 0.63291
 H909 H 0.19866 1.03131 0.55260
 H910 H 0.17388 1.00735 0.60023
 H911 H 0.23005 1.06534 0.65811
 H912 H 0.25509 1.08867 0.61031
 C913 C 0.21758 0.92631 0.92432
 C914 C 0.21874 0.90815 0.89716
 C915 C 0.20612 0.92030 0.86920
 C916 C 0.23544 0.89787 0.97735
 C917 C 0.19213 0.96950 0.89503
 C918 C 0.20468 0.95719 0.92313
 C919 C 0.22764 0.91196 0.95361
 C920 C 0.19213 0.95086 0.86799
 H921 H 0.22866 0.88422 0.89782
 H922 H 0.20678 0.90559 0.84863
 H923 H 0.18126 0.99301 0.89479
 H924 H 0.20352 0.97139 0.94408
 C925 C 0.72177 0.42436 0.42136
 C926 C 0.72182 0.40636 0.39412
 C927 C 0.70863 0.41891 0.36660
 C928 C 0.74079 0.39531 0.47365
 C929 C 0.69623 0.46814 0.39302
 C930 C 0.70937 0.45544 0.42068
 C931 C 0.73249 0.40967 0.45024
 C932 C 0.69515 0.44970 0.36592
 H933 H 0.73135 0.38228 0.39438
 H934 H 0.70846 0.40434 0.34596
 H935 H 0.68579 0.49183 0.39318
 H936 H 0.70907 0.46951 0.44171
 C937 C 0.78231 0.42399 0.57532
 C938 C 0.76502 0.44632 0.59317
 C939 C 0.77865 0.45987 0.61917
 C940 C 0.75940 0.39495 0.52693
 C941 C 0.82666 0.42855 0.60943
 C942 C 0.81307 0.41513 0.58359
 C943 C 0.76883 0.40914 0.54892
 C944 C 0.80971 0.45120 0.62745
 H945 H 0.74112 0.45323 0.58703
 H946 H 0.76511 0.47738 0.63250
 H947 H 0.85036 0.42088 0.61555
 H948 H 0.82654 0.39764 0.57013
 C949 C 0.27700 -0.07268 0.07874
 C950 C 0.30780 -0.08181 0.08658
 C951 C 0.32205 -0.06821 0.11194
 C952 C 0.25338 -0.10197 0.03089
 C953 C 0.27458 -0.03619 0.12212
 C954 C 0.26029 -0.04992 0.09659
 C955 C 0.26299 -0.08762 0.05269
 C956 C 0.30574 -0.04509 0.12990
 H957 H 0.32083 -0.09962 0.07313
 H958 H 0.34579 -0.07607 0.11771
 H959 H 0.26152 -0.01834 0.13544
 H960 H 0.23635 -0.04279 0.09077
 C961 C 0.29169 0.06695 0.42325
 C962 C 0.32327 0.07177 0.41422
 C963 C 0.33541 0.06042 0.38558
 C964 C 0.26916 0.09582 0.47408
 C965 C 0.28466 0.03826 0.37517
 C966 C 0.27246 0.04981 0.40390
 C967 C 0.27888 0.08176 0.45119
 C968 C 0.31609 0.04409 0.36546
 H969 H 0.33835 0.08501 0.42899
 H970 H 0.35985 0.06479 0.37893
 H971 H 0.26928 0.02585 0.36004
 H972 H 0.24791 0.04611 0.41062
 C973 C 0.78276 0.56805 0.91740
 C974 C 0.77672 0.58465 0.88914
 C975 C 0.78802 0.57275 0.86040
 C976 C 0.76530 0.59570 0.97064
 C977 C 0.81048 0.52680 0.88789
 C978 C 0.79922 0.53885 0.91673
 C979 C 0.77333 0.58217 0.94687
 C980 C 0.80556 0.54401 0.85951
 H981 H 0.76393 0.60723 0.88938
 H982 H 0.78360 0.58631 0.83887
 H983 H 0.82418 0.50477 0.88791
 H984 H 0.80407 0.52585 0.93850
 C985 C 0.07825 0.72832 0.57001
 C986 C 0.08942 0.69901 0.58171
 C987 C 0.11687 0.68503 0.56872
 C988 C 0.02595 0.75099 0.59766
 C989 C 0.12259 0.72988 0.53228
 C990 C 0.09493 0.74390 0.54539
 C991 C 0.04975 0.74182 0.58399
 C992 C 0.13362 0.70011 0.54366
 H993 H 0.07685 0.68689 0.60094
 H994 H 0.12509 0.66242 0.57842
 H995 H 0.13496 0.74194 0.51292
 H996 H 0.08651 0.76668 0.53624
 C997 C 0.57918 0.22882 1.07057
 C998 C 0.59633 0.24342 1.04566
 C999 C 0.62412 0.22880 1.03354
 C1000 C 0.52652 0.25256 1.09652
 C1001 C 0.61758 0.18535 1.07152
 C1002 C 0.59001 0.19992 1.08353
 C1003 C 0.55051 0.24291 1.08356
 C1004 C 0.63480 0.19942 1.04619
 H1005 H 0.58817 0.26588 1.03555
 H1006 H 0.63687 0.24008 1.01394
 H1007 H 0.62553 0.16306 1.08217
 H1008 H 0.57706 0.18856 1.10299
 C1009 C 0.92932 0.21773 0.93142
 C1010 C 0.92503 0.18517 0.92919
 C1011 C 0.89760 0.17156 0.94177
 C1012 C 0.97799 0.24185 0.89951
 C1013 C 0.87891 0.22287 0.96003
 C1014 C 0.90643 0.23654 0.94723
 C1015 C 0.95598 0.23168 0.91505
 C1016 C 0.87396 0.19034 0.95677
 H1017 H 0.94255 0.17041 0.91694
 H1018 H 0.89463 0.14636 0.93936
 H1019 H 0.86099 0.23787 0.97134
 H1020 H 0.90942 0.26182 0.94889
 C1021 C 0.42872 0.71999 0.42575
 C1022 C 0.42333 0.68781 0.42206
 C1023 C 0.39549 0.67459 0.43414
 C1024 C 0.47847 0.74364 0.39523
 C1025 C 0.37852 0.72553 0.45469
 C1026 C 0.40645 0.73880 0.44241
 C1027 C 0.45597 0.73365 0.41015
 C1028 C 0.37252 0.69341 0.45008
 H1029 H 0.44036 0.67304 0.40917
 H1030 H 0.39174 0.64968 0.43069
 H1031 H 0.36115 0.74056 0.46676
 H1032 H 0.41030 0.76380 0.44520
 C1033 C 0.57884 0.78856 0.42293
 C1034 C 0.58689 0.81962 0.41461
 C1035 C 0.61251 0.83340 0.42833
 C1036 C 0.53099 0.76461 0.39384
 C1037 C 0.62239 0.78500 0.45887
 C1038 C 0.59664 0.77120 0.44504
 C1039 C 0.55274 0.77474 0.40788
 C1040 C 0.63051 0.81633 0.45071
 H1041 H 0.57346 0.83316 0.39731
 H1042 H 0.61849 0.85732 0.42107
 H1043 H 0.63566 0.77136 0.47618
 H1044 H 0.59066 0.74708 0.45156
 C1045 C 0.07892 0.28709 -0.07541
 C1046 C 0.09788 0.26972 -0.05429
 C1047 C 0.12388 0.28381 -0.04123
 C1048 C 0.03044 0.26287 -0.10319
 C1049 C 0.11190 0.33250 -0.07054
 C1050 C 0.08605 0.31844 -0.08349
 C1051 C 0.05253 0.27305 -0.08972
 C1052 C 0.13107 0.31543 -0.04915
 H1053 H 0.09261 0.24537 -0.04798
 H1054 H 0.13810 0.27016 -0.02469
 H1055 H 0.11715 0.35666 -0.07762
 H1056 H 0.07170 0.33199 -0.10004
 C1057 C 0.42089 0.28858 0.06344
 C1058 C 0.42132 0.30755 0.03581
 C1059 C 0.39284 0.31880 0.02312
 C1060 C 0.47235 0.27185 0.09410
 C1061 C 0.36364 0.29128 0.06513
 C1062 C 0.39200 0.27995 0.07762
 C1063 C 0.44964 0.27961 0.07896
 C1064 C 0.36378 0.31141 0.03819
 H1065 H 0.44358 0.31445 0.02471
 H1066 H 0.39357 0.33452 0.00252
 H1067 H 0.34157 0.28503 0.07702
 H1068 H 0.39139 0.26526 0.09898
 C1069 C 0.91944 0.78654 0.56698
 C1070 C 0.91945 0.80569 0.53949
 C1071 C 0.89077 0.81696 0.52726
 C1072 C 0.97152 0.76970 0.59658
 C1073 C 0.86218 0.78910 0.56947
 C1074 C 0.89074 0.77778 0.58152
 C1075 C 0.94846 0.77749 0.58196
 C1076 C 0.86190 0.80938 0.54264
 H1077 H 0.94154 0.81271 0.52813
 H1078 H 0.89121 0.83279 0.50674
 H1079 H 0.84027 0.78268 0.58158
 H1080 H 0.89046 0.76294 0.60278
   
