data_POSCAR
  _audit_creation_date              2014-09-24
  _audit_creation_method            'ToBaCCo'
  _symmetry_space_group_name_H-M    'P1'
  _symmetry_Int_Tables_number       1
  _symmetry_cell_setting            triclinic
  loop_
  _symmetry_equiv_pos_as_xyz
 x,y,z
_cell_length_a 25.6432
_cell_length_b 25.6418
_cell_length_c 25.6415
_cell_angle_alpha 90.000200
_cell_angle_beta 90.000000
_cell_angle_gamma 90.000000
loop_
  _atom_site_label
  _atom_site_type_symbol
  _atom_site_fract_x
  _atom_site_fract_y
  _atom_site_fract_z
Si1 Si 0.25000 0.50000 1.00000
 Si2 Si 0.74999 0.50000 0.00000
 Si3 Si 0.00001 0.25003 0.50001
 Si4 Si 1.00001 0.74997 0.49999
 Si5 Si 0.50001 0.00002 0.24997
 Si6 Si 0.50001 -0.00002 0.75003
 C7 C 0.32924 0.04088 0.43818
 H8 H 0.32925 0.07087 0.46785
 C9 C 0.36611 0.04220 0.39819
 H10 H 0.39458 0.07340 0.39691
 C11 C 0.29370 -0.03782 0.40492
 H12 H 0.26633 -0.06964 0.40850
 C13 C 0.33004 -0.03801 0.36426
 H14 H 0.33030 -0.06976 0.33638
 N15 N 0.29405 0.00126 0.44088
 C16 C 0.17077 0.06182 0.54088
 H17 H 0.17076 0.03215 0.57087
 C18 C 0.13390 0.10181 0.54220
 H19 H 0.10543 0.10309 0.57340
 C20 C 0.20631 0.09508 0.46218
 H21 H 0.23368 0.09150 0.43036
 C22 C 0.16997 0.13574 0.46199
 H23 H 0.16971 0.16361 0.43024
 Zn24 Zn 0.25000 -0.00000 0.50000
 N25 N 0.20595 0.05912 0.50126
 C26 C 0.29370 0.03782 0.59508
 N27 N 0.29405 -0.00126 0.55912
 C28 C 0.32924 -0.04088 0.56182
 C29 C 0.36611 -0.04220 0.60181
 C30 C 0.33004 0.03801 0.63574
 C31 C 0.17077 -0.06182 0.45912
 C32 C 0.13390 -0.10181 0.45780
 C33 C 0.16997 -0.13574 0.53801
 C34 C 0.20631 -0.09508 0.53782
 N35 N 0.20595 -0.05912 0.49874
 H36 H 0.26633 0.06964 0.59150
 H37 H 0.32925 -0.07087 0.53215
 H38 H 0.39458 -0.07340 0.60309
 H39 H 0.33030 0.06976 0.66362
 H40 H 0.17076 -0.03215 0.42913
 H41 H 0.10543 -0.10309 0.42660
 H42 H 0.16971 -0.16361 0.56976
 H43 H 0.23368 -0.09150 0.56964
 C44 C 0.13324 0.13885 0.50220
 C45 C 0.36677 0.00220 0.36115
 C46 C 0.13324 -0.13885 0.49780
 C47 C 0.36677 -0.00220 0.63885
 C48 C 0.67078 0.04087 0.56183
 H49 H 0.67077 0.07087 0.53216
 C50 C 0.63391 0.04219 0.60182
 H51 H 0.60544 0.07338 0.60311
 C52 C 0.70631 -0.03784 0.59507
 H53 H 0.73368 -0.06966 0.59148
 C54 C 0.66997 -0.03804 0.63573
 H55 H 0.66970 -0.06979 0.66360
 N56 N 0.70596 0.00125 0.55912
 C57 C 0.82923 0.06183 0.45913
 H58 H 0.82925 0.03216 0.42913
 C59 C 0.86611 0.10182 0.45781
 H60 H 0.89458 0.10310 0.42662
 C61 C 0.79370 0.09507 0.53784
 H62 H 0.76634 0.09148 0.56966
 C63 C 0.83004 0.13573 0.53804
 H64 H 0.83031 0.16360 0.56979
 Zn65 Zn 0.75001 -0.00000 0.50000
 N66 N 0.79406 0.05912 0.49875
 C67 C 0.70631 0.03784 0.40493
 N68 N 0.70596 -0.00125 0.44088
 C69 C 0.67078 -0.04087 0.43817
 C70 C 0.63391 -0.04219 0.39818
 C71 C 0.66997 0.03804 0.36427
 C72 C 0.82923 -0.06183 0.54087
 C73 C 0.86611 -0.10182 0.54219
 C74 C 0.83004 -0.13573 0.46196
 C75 C 0.79370 -0.09507 0.46216
 N76 N 0.79406 -0.05912 0.50125
 H77 H 0.73368 0.06966 0.40852
 H78 H 0.67077 -0.07087 0.46784
 H79 H 0.60544 -0.07338 0.39689
 H80 H 0.66970 0.06979 0.33640
 H81 H 0.82925 -0.03216 0.57087
 H82 H 0.89458 -0.10310 0.57338
 H83 H 0.83031 -0.16360 0.43021
 H84 H 0.76634 -0.09148 0.43034
 C85 C 0.86677 0.13885 0.49782
 C86 C 0.63324 0.00218 0.63885
 C87 C 0.86677 -0.13885 0.50218
 C88 C 0.63324 -0.00218 0.36115
 C89 C 0.45887 0.17074 1.06167
 H90 H 0.42901 0.17064 1.03187
 C91 C 0.45750 0.13385 1.10165
 H92 H 0.42638 0.10529 1.10281
 C93 C 0.53736 0.20647 1.09523
 H94 H 0.56913 0.23390 1.09177
 C95 C 0.53748 0.17013 1.13589
 H96 H 0.56913 0.16994 1.16387
 N97 N 0.49841 0.20602 1.05912
 C98 C 0.43856 0.32936 0.95870
 H99 H 0.46854 0.32946 0.92901
 C100 C 0.39855 0.36619 0.95703
 H101 H 0.39758 0.39475 0.92590
 C102 C 0.40453 0.29361 1.03698
 H103 H 0.40780 0.26616 1.06876
 C104 C 0.36383 0.32990 1.03681
 H105 H 0.33564 0.33008 1.06827
 Zn106 Zn 0.49999 0.25005 0.99999
 N107 N 0.44089 0.29410 0.99827
 C108 C 0.46264 0.20645 0.90475
 N109 N 0.50158 0.20601 0.94086
 C110 C 0.54112 0.17074 0.93831
 C111 C 0.54250 0.13384 0.89833
 C112 C 0.46251 0.17011 0.86409
 C113 C 0.56142 0.32937 1.04126
 C114 C 0.60143 0.36620 1.04294
 C115 C 0.63616 0.32990 0.96317
 C116 C 0.59546 0.29361 0.96300
 N117 N 0.55909 0.29410 1.00170
 H118 H 0.43086 0.23388 0.90821
 H119 H 0.57099 0.17064 0.96811
 H120 H 0.57362 0.10528 0.89718
 H121 H 0.43086 0.16991 0.83611
 H122 H 0.53144 0.32947 1.07095
 H123 H 0.60240 0.39476 1.07406
 H124 H 0.66435 0.33007 0.93171
 H125 H 0.59219 0.26616 0.93122
 C126 C 0.36110 0.36672 0.99664
 C127 C 0.49737 0.13329 1.13883
 C128 C 0.63889 0.36672 1.00333
 C129 C 0.50263 0.13327 0.86115
 C130 C 0.45887 0.82926 -0.06167
 H131 H 0.42901 0.82936 -0.03187
 C132 C 0.45750 0.86615 -0.10165
 H133 H 0.42638 0.89471 -0.10281
 C134 C 0.53736 0.79353 -0.09523
 H135 H 0.56913 0.76610 -0.09177
 C136 C 0.53748 0.82987 -0.13589
 H137 H 0.56913 0.83006 -0.16387
 N138 N 0.49841 0.79398 -0.05912
 C139 C 0.43856 0.67064 0.04130
 H140 H 0.46854 0.67054 0.07099
 C141 C 0.39855 0.63381 0.04297
 H142 H 0.39758 0.60525 0.07410
 C143 C 0.40453 0.70639 -0.03698
 H144 H 0.40780 0.73384 -0.06876
 C145 C 0.36383 0.67010 -0.03681
 H146 H 0.33564 0.66992 -0.06827
 Zn147 Zn 0.49999 0.74995 0.00001
 N148 N 0.44089 0.70590 0.00173
 C149 C 0.46264 0.79355 0.09525
 N150 N 0.50158 0.79399 0.05914
 C151 C 0.54112 0.82926 0.06169
 C152 C 0.54250 0.86616 0.10167
 C153 C 0.46251 0.82989 0.13591
 C154 C 0.56142 0.67063 -0.04126
 C155 C 0.60143 0.63380 -0.04294
 C156 C 0.63616 0.67010 0.03683
 C157 C 0.59546 0.70639 0.03700
 N158 N 0.55909 0.70590 -0.00170
 H159 H 0.43086 0.76612 0.09179
 H160 H 0.57099 0.82936 0.03189
 H161 H 0.57362 0.89472 0.10282
 H162 H 0.43086 0.83009 0.16389
 H163 H 0.53144 0.67053 -0.07095
 H164 H 0.60240 0.60524 -0.07406
 H165 H 0.66435 0.66993 0.06829
 H166 H 0.59219 0.73384 0.06878
 C167 C 0.36110 0.63328 0.00336
 C168 C 0.49737 0.86671 -0.13883
 C169 C 0.63889 0.63328 -0.00333
 C170 C 0.50263 0.86673 0.13885
 C171 C 1.06143 0.45870 0.17064
 H172 H 1.03145 0.42902 0.17053
 C173 C 1.10144 0.45703 0.13380
 H174 H 1.10241 0.42591 0.10525
 C175 C 1.09546 0.53697 0.20639
 H176 H 1.09218 0.56876 0.23384
 C177 C 1.13616 0.53681 0.17010
 H178 H 1.16435 0.56827 0.16993
 N179 N 1.05910 0.49827 0.20590
 C180 C 0.95887 0.43830 0.32926
 H181 H 0.92900 0.46810 0.32936
 C182 C 0.95749 0.39833 0.36616
 H183 H 0.92638 0.39717 0.39472
 C184 C 1.03736 0.40475 0.29354
 H185 H 1.06913 0.40821 0.26611
 C186 C 1.03748 0.36409 0.32989
 H187 H 1.06914 0.33611 0.33008
 Zn188 Zn 1.00000 0.49998 0.24995
 N189 N 0.99841 0.44086 0.29399
 C190 C 0.90453 0.46300 0.20639
 N191 N 0.94089 0.50170 0.20590
 C192 C 0.93856 0.54127 0.17064
 C193 C 0.89856 0.54294 0.13380
 C194 C 0.86383 0.46317 0.17010
 C195 C 1.04112 0.56167 0.32926
 C196 C 1.04250 0.60165 0.36615
 C197 C 0.96251 0.63588 0.32988
 C198 C 0.96264 0.59523 0.29354
 N199 N 1.00158 0.55911 0.29399
 H200 H 0.90780 0.43122 0.23384
 H201 H 0.96855 0.57095 0.17053
 H202 H 0.89759 0.57406 0.10524
 H203 H 0.83564 0.43171 0.16993
 H204 H 1.07099 0.53187 0.32936
 H205 H 1.07362 0.60280 0.39471
 H206 H 0.93087 0.66387 0.33007
 H207 H 0.93086 0.59176 0.26611
 C208 C 0.99737 0.36115 0.36673
 C209 C 1.13889 0.49664 0.13328
 C210 C 1.00263 0.63883 0.36672
 C211 C 0.86110 0.50333 0.13328
 C212 C -0.06144 0.45873 0.82936
 H213 H -0.03145 0.42905 0.82947
 C214 C -0.10144 0.45706 0.86620
 H215 H -0.10241 0.42594 0.89476
 C216 C -0.09547 0.53700 0.79361
 H217 H -0.09220 0.56878 0.76616
 C218 C -0.13617 0.53683 0.82990
 H219 H -0.16436 0.56829 0.83007
 N220 N -0.05911 0.49830 0.79410
 C221 C 0.04112 0.43833 0.67074
 H222 H 0.07099 0.46813 0.67064
 C223 C 0.04250 0.39835 0.63385
 H224 H 0.07362 0.39720 0.60529
 C225 C -0.03736 0.40477 0.70646
 H226 H -0.06914 0.40824 0.73389
 C227 C -0.03749 0.36412 0.67012
 H228 H -0.06913 0.33613 0.66993
 Zn229 Zn -0.00000 0.50002 0.75005
 N230 N 0.00158 0.44089 0.70601
 C231 C 0.09546 0.46303 0.79361
 N232 N 0.05910 0.50173 0.79410
 C233 C 0.06143 0.54130 0.82936
 C234 C 0.10144 0.54297 0.86620
 C235 C 0.13616 0.46319 0.82990
 C236 C -0.04113 0.56170 0.67074
 C237 C -0.04251 0.60167 0.63384
 C238 C 0.03748 0.63591 0.67011
 C239 C 0.03736 0.59525 0.70646
 N240 N -0.00159 0.55914 0.70601
 H241 H 0.09218 0.43124 0.76616
 H242 H 0.03145 0.57098 0.82947
 H243 H 0.10241 0.57409 0.89475
 H244 H 0.16435 0.43173 0.83007
 H245 H -0.07100 0.53190 0.67064
 H246 H -0.07362 0.60283 0.60528
 H247 H 0.06914 0.66389 0.66992
 H248 H 0.06913 0.59179 0.73389
 C249 C 0.00263 0.36117 0.63328
 C250 C -0.13890 0.49667 0.86672
 C251 C -0.00263 0.63885 0.63327
 C252 C 0.13889 0.50336 0.86672
 C253 C 0.05687 0.20800 0.50018
 C254 C 0.09260 0.17750 0.50088
 C255 C 0.70799 0.55686 -0.00129
 C256 C 0.67750 0.59260 -0.00218
 C257 C 0.94314 -0.20800 0.50015
 C258 C 0.90741 -0.17750 0.50085
 C259 C 0.29200 0.44314 0.99870
 C260 C 0.32248 0.40740 0.99780
 C261 C 0.94314 0.20800 0.49985
 C262 C 0.90741 0.17750 0.49915
 C263 C 0.29200 0.55686 0.00130
 C264 C 0.32248 0.59260 0.00220
 C265 C 0.05687 -0.20800 0.49982
 C266 C 0.09260 -0.17750 0.49912
 C267 C 0.70799 0.44314 1.00129
 C268 C 0.67750 0.40740 1.00218
 C269 C 0.49955 0.05688 1.20795
 C270 C 0.49873 0.09261 1.17745
 C271 C -0.00045 0.70795 0.55686
 C272 C -0.00127 0.67747 0.59260
 C273 C 0.49955 0.94312 -0.20795
 C274 C 0.49873 0.90739 -0.17745
 C275 C 0.99955 0.29205 0.44314
 C276 C 0.99873 0.32253 0.40740
 C277 C 0.50046 0.94315 0.20795
 C278 C 0.50128 0.90741 0.17746
 C279 C 0.00046 0.29205 0.55688
 C280 C 0.00128 0.32255 0.59261
 C281 C 0.50046 0.05685 0.79205
 C282 C 0.50128 0.09259 0.82254
 C283 C 1.00046 0.70795 0.44312
 C284 C 1.00128 0.67745 0.40739
 C285 C 1.20799 0.49870 0.05686
 C286 C 1.17751 0.49780 0.09260
 C287 C 0.55687 0.00015 0.70800
 C288 C 0.59260 0.00085 0.67750
 C289 C -0.20800 0.49871 0.94314
 C290 C -0.17752 0.49782 0.90740
 C291 C 0.44314 0.00018 0.29200
 C292 C 0.40741 0.00088 0.32250
 C293 C 0.20799 0.50130 0.94314
 C294 C 0.17751 0.50220 0.90740
 C295 C 0.55687 -0.00015 0.29200
 C296 C 0.59260 -0.00085 0.32250
 C297 C 0.79200 0.50129 0.05686
 C298 C 0.82248 0.50218 0.09260
 C299 C 0.44314 -0.00018 0.70800
 C300 C 0.40741 -0.00088 0.67750
   
