data_POSCAR
  _audit_creation_date              2014-09-24
  _audit_creation_method            'ToBaCCo'
  _symmetry_space_group_name_H-M    'P1'
  _symmetry_Int_Tables_number       1
  _symmetry_cell_setting            triclinic
  loop_
  _symmetry_equiv_pos_as_xyz
 x,y,z
_cell_length_a 61.8007
_cell_length_b 38.4106
_cell_length_c 26.3238
_cell_angle_alpha 90.054100
_cell_angle_beta 89.913900
_cell_angle_gamma 90.034000
loop_
  _atom_site_label
  _atom_site_type_symbol
  _atom_site_fract_x
  _atom_site_fract_y
  _atom_site_fract_z
O1 O 0.76134 0.21050 0.54749
 O2 O 0.72461 0.24399 0.44895
 O3 O 0.76151 0.21101 0.44875
 O4 O 0.72447 0.24359 0.54768
 O5 O 0.74190 0.29390 0.54833
 O6 O 0.77892 0.26132 0.44941
 O7 O 0.74202 0.29431 0.44959
 O8 O 0.77877 0.26080 0.54815
 Cu9 Cu 0.74123 0.22220 0.49815
 Cu10 Cu 0.76216 0.28266 0.49893
 C11 C 0.77633 0.22992 0.56424
 C12 C 0.72703 0.27486 0.43285
 C13 C 0.77655 0.23060 0.43258
 C14 C 0.72686 0.27432 0.56449
 O15 O 0.23966 0.79009 0.55100
 O16 O 0.27648 0.75643 0.45239
 O17 O 0.23980 0.79005 0.45226
 O18 O 0.27635 0.75648 0.55112
 O19 O 0.25863 0.70644 0.55103
 O20 O 0.22208 0.74001 0.45216
 O21 O 0.25876 0.70639 0.45230
 O22 O 0.22194 0.74006 0.55091
 Cu23 Cu 0.25986 0.77831 0.50171
 Cu24 Cu 0.23856 0.71818 0.50160
 C25 C 0.22450 0.77083 0.56739
 C26 C 0.27391 0.72566 0.43591
 C27 C 0.22470 0.77076 0.43572
 C28 C 0.27374 0.72573 0.56754
 O29 O 0.25982 0.29117 -0.55215
 O30 O 0.22293 0.25848 -0.45308
 O31 O 0.25981 0.29157 -0.45341
 O32 O 0.22295 0.25799 -0.55182
 O33 O 0.24039 0.20774 -0.55144
 O34 O 0.27724 0.24130 -0.45305
 O35 O 0.24036 0.20821 -0.45271
 O36 O 0.27726 0.24091 -0.55179
 Cu37 Cu 0.23962 0.27987 -0.50266
 Cu38 Cu 0.26057 0.21947 -0.50222
 C39 C 0.27485 0.27164 -0.56848
 C40 C 0.22534 0.22776 -0.43637
 C41 C 0.27482 0.27216 -0.43681
 C42 C 0.22537 0.22712 -0.56803
 O43 O -0.24182 0.79453 -0.54725
 O44 O -0.27871 0.76068 -0.44891
 O45 O -0.24188 0.79396 -0.44851
 O46 O -0.27867 0.76130 -0.54765
 O47 O -0.26118 0.71108 -0.54839
 O48 O -0.22438 0.74375 -0.44924
 O49 O -0.26121 0.71048 -0.44966
 O50 O -0.22433 0.74431 -0.54797
 Cu51 Cu -0.26204 0.78268 -0.49801
 Cu52 Cu -0.24101 0.72234 -0.49889
 C53 C -0.22678 0.77520 -0.56399
 C54 C -0.27626 0.72980 -0.43289
 C55 C -0.22684 0.77444 -0.43235
 C56 C -0.27621 0.73061 -0.56454
 N57 N 0.02318 1.03711 0.08999
 N58 N 0.03907 1.04222 0.12261
 N59 N -0.02225 1.06175 0.05499
 N60 N -0.03814 1.08415 0.06258
 N61 N -0.02231 1.03760 0.09029
 N62 N -0.03823 1.04287 0.12289
 N63 N 0.02329 1.06126 0.05469
 N64 N 0.03927 1.08350 0.06231
 C65 C 0.04896 1.07109 0.10462
 C66 C -0.04793 1.07186 0.10490
 N67 N -0.02243 1.03704 -0.08957
 N68 N -0.03826 1.04232 -0.12228
 N69 N 0.02322 1.06090 -0.05483
 N70 N 0.03927 1.08297 -0.06275
 N71 N 0.02306 1.03653 -0.08987
 N72 N 0.03898 1.04130 -0.12260
 N73 N -0.02232 1.06142 -0.05453
 N74 N -0.03808 1.08398 -0.06244
 Mn75 Mn 0.00049 1.06175 0.00008
 C76 C -0.04786 1.07153 -0.10463
 C77 C 0.04893 1.07022 -0.10498
 N78 N -0.02266 0.96264 0.09071
 N79 N -0.03859 0.95788 0.12344
 N80 N 0.02272 0.93776 0.05535
 N81 N 0.03853 0.91528 0.06312
 N82 N 0.02284 0.96213 0.09039
 N83 N 0.03872 0.95695 0.12297
 N84 N -0.02283 0.93827 0.05568
 N85 N -0.03889 0.91622 0.06359
 Mn86 Mn 0.00026 0.99987 0.09090
 C87 C -0.04855 0.92897 0.10581
 C88 C 0.04835 0.92778 0.10524
 N89 N 0.02272 0.96156 -0.08946
 N90 N 0.03858 0.95621 -0.12217
 N91 N -0.02289 0.93792 -0.05384
 N92 N -0.03894 0.91578 -0.06130
 N93 N -0.02279 0.96207 -0.08914
 N94 N -0.03874 0.95706 -0.12161
 N95 N 0.02265 0.93741 -0.05417
 N96 N 0.03849 0.91493 -0.06187
 Mn97 Mn 0.00014 0.99930 -0.09006
 Mn98 Mn -0.00009 0.93742 0.00076
 Cl99 Cl 0.00020 0.99959 0.00042
 C100 C 0.04826 0.92718 -0.10425
 C101 C -0.04866 0.92825 -0.10353
 N102 N 0.47726 0.46106 0.08954
 N103 N 0.46133 0.45576 0.12208
 N104 N 0.52290 0.43729 0.05435
 N105 N 0.53896 0.41521 0.06187
 N106 N 0.52276 0.46147 0.08967
 N107 N 0.53869 0.45654 0.12220
 N108 N 0.47735 0.43688 0.05421
 N109 N 0.46148 0.41443 0.06173
 C110 C 0.45165 0.42673 0.10402
 C111 C 0.54863 0.42774 0.10416
 N112 N 0.52297 0.46189 -0.09018
 N113 N 0.53891 0.45700 -0.12282
 N114 N 0.47748 0.43714 -0.05531
 N115 N 0.46161 0.41473 -0.06322
 N116 N 0.47747 0.46149 -0.09031
 N117 N 0.46162 0.45636 -0.12302
 N118 N 0.52302 0.43754 -0.05517
 N119 N 0.53902 0.41538 -0.06301
 Mn120 Mn 0.50019 0.43680 -0.00048
 C121 C 0.54876 0.42805 -0.10515
 C122 C 0.45189 0.42725 -0.10541
 N123 N 0.52253 0.53643 0.09015
 N124 N 0.53840 0.54154 0.12281
 N125 N 0.47698 0.56038 0.05502
 N126 N 0.46101 0.58258 0.06292
 N127 N 0.47703 0.53604 0.09003
 N128 N 0.46111 0.54096 0.12272
 N129 N 0.52253 0.56077 0.05513
 N130 N 0.53841 0.58315 0.06298
 Mn131 Mn 0.49989 0.49875 0.09040
 C132 C 0.54815 0.57062 0.10516
 C133 C 0.45127 0.56993 0.10508
 N134 N 0.47724 0.53646 -0.08982
 N135 N 0.46133 0.54145 -0.12240
 N136 N 0.52265 0.56104 -0.05439
 N137 N 0.53845 0.58361 -0.06208
 N138 N 0.52274 0.53687 -0.08971
 N139 N 0.53859 0.54228 -0.12243
 N140 N 0.47711 0.56064 -0.05449
 N141 N 0.46109 0.58277 -0.06204
 Mn142 Mn 0.50011 0.49918 -0.09056
 Mn143 Mn 0.49982 0.56112 0.00032
 Cl144 Cl 0.50000 0.49896 -0.00008
 C145 C 0.45142 0.57028 -0.10436
 C146 C 0.54824 0.57136 -0.10446
 C147 C 0.28890 0.28412 0.39629
 C148 C 0.30165 0.29551 0.36584
 C149 C 0.31721 0.30949 0.33061
 C150 C 0.32005 0.34553 0.32684
 C151 C 0.33591 0.35920 0.29463
 C152 C 0.34921 0.33694 0.26578
 C153 C 0.34601 0.30073 0.26927
 C154 C 0.33012 0.28712 0.30152
 C155 C 0.36678 0.35145 0.23358
 C156 C 0.38723 0.33537 0.23216
 C157 C 0.40411 0.34994 0.20387
 C158 C 0.40079 0.38070 0.17655
 C159 C 0.38043 0.39661 0.17705
 C160 C 0.36352 0.38209 0.20534
 C161 C 0.41852 0.39663 0.14973
 C162 C 0.43355 0.41023 0.12830
 H163 H 0.31023 0.36307 0.34942
 H164 H 0.33816 0.38714 0.29336
 H165 H 0.35581 0.28295 0.24710
 H166 H 0.32806 0.25917 0.30416
 H167 H 0.39036 0.31205 0.25403
 H168 H 0.41985 0.33752 0.20398
 H169 H 0.37769 0.42044 0.15604
 H170 H 0.34790 0.39485 0.20518
 C171 C -0.21194 0.78876 0.39903
 C172 C -0.19916 0.80038 0.36884
 C173 C -0.18354 0.81449 0.33385
 C174 C -0.17218 0.79244 0.30093
 C175 C -0.15626 0.80600 0.26870
 C176 C -0.15149 0.84184 0.26904
 C177 C -0.16322 0.86383 0.30180
 C178 C -0.17912 0.85022 0.33399
 C179 C -0.13390 0.85612 0.23664
 C180 C -0.13630 0.88853 0.21240
 C181 C -0.11933 0.90265 0.18387
 C182 C -0.09977 0.88457 0.17913
 C183 C -0.09734 0.85210 0.20247
 C184 C -0.11428 0.83792 0.23099
 C185 C -0.08191 0.89993 0.15206
 C186 C -0.06677 0.91304 0.13039
 H187 H -0.17547 0.76474 0.30052
 H188 H -0.14770 0.78847 0.24350
 H189 H -0.15973 0.89143 0.30351
 H190 H -0.18772 0.86750 0.35953
 H191 H -0.15129 0.90296 0.21551
 H192 H -0.12138 0.92782 0.16597
 H193 H -0.08222 0.83798 0.19930
 H194 H -0.11182 0.81317 0.24974
 C195 C 0.70899 0.71747 0.39817
 C196 C 0.69623 0.70616 0.36773
 C197 C 0.68065 0.69234 0.33249
 C198 C 0.66022 0.70778 0.32835
 C199 C 0.64464 0.69339 0.29614
 C200 C 0.64927 0.66327 0.26765
 C201 C 0.66997 0.64824 0.27151
 C202 C 0.68554 0.66270 0.30375
 C203 C 0.63233 0.64699 0.23545
 C204 C 0.62983 0.61058 0.23441
 C205 C 0.61325 0.59529 0.20605
 C206 C 0.59896 0.61613 0.17829
 C207 C 0.60150 0.65234 0.17845
 C208 C 0.61807 0.66770 0.20681
 C209 C 0.58125 0.60038 0.15127
 C210 C 0.56623 0.58694 0.12966
 H211 H 0.65622 0.73061 0.35066
 H212 H 0.62877 0.70528 0.29458
 H213 H 0.67411 0.62531 0.24962
 H214 H 0.70130 0.65054 0.30668
 H215 H 0.64033 0.59396 0.25660
 H216 H 0.61136 0.56725 0.20642
 H217 H 0.59053 0.66872 0.15708
 H218 H 0.61974 0.69576 0.20636
 C219 C 0.21134 1.21433 0.39700
 C220 C 0.19861 1.20268 0.36677
 C221 C 0.18307 1.18842 0.33177
 C222 C 0.17097 1.21048 0.30050
 C223 C 0.15514 1.19668 0.26833
 C224 C 0.15120 1.16059 0.26707
 C225 C 0.16367 1.13861 0.29816
 C226 C 0.17948 1.15246 0.33029
 C227 C 0.13371 1.14597 0.23479
 C228 C 0.13665 1.11426 0.20885
 C229 C 0.11979 1.09974 0.18046
 C230 C 0.09980 1.11672 0.17757
 C231 C 0.09681 1.14851 0.20260
 C232 C 0.11364 1.16308 0.23098
 C233 C 0.08208 1.10089 0.15062
 C234 C 0.06706 1.08741 0.12906
 H235 H 0.17362 1.23836 0.30135
 H236 H 0.14599 1.21423 0.24442
 H237 H 0.16083 1.11080 0.29864
 H238 H 0.18867 1.13517 0.35456
 H239 H 0.15198 1.10069 0.21053
 H240 H 0.12227 1.07511 0.16124
 H241 H 0.08136 1.16177 0.20085
 H242 H 0.11076 1.18726 0.25106
 C243 C 0.71198 0.28745 -0.39832
 C244 C 0.69917 0.29882 -0.36796
 C245 C 0.68355 0.31274 -0.33282
 C246 C 0.68007 0.34869 -0.33044
 C247 C 0.66417 0.36224 -0.29820
 C248 C 0.65150 0.33996 -0.26792
 C249 C 0.65533 0.30386 -0.27005
 C250 C 0.67125 0.29037 -0.30233
 C251 C 0.63390 0.35428 -0.23559
 C252 C 0.61377 0.33726 -0.23265
 C253 C 0.59684 0.35159 -0.20423
 C254 C 0.59981 0.38304 -0.17829
 C255 C 0.61987 0.39990 -0.18031
 C256 C 0.63682 0.38563 -0.20874
 C257 C 0.58202 0.39863 -0.15129
 C258 C 0.56693 0.41193 -0.12968
 H259 H 0.68941 0.36622 -0.35410
 H260 H 0.66142 0.39007 -0.29799
 H261 H 0.64602 0.28608 -0.24677
 H262 H 0.67382 0.26249 -0.30388
 H263 H 0.61090 0.31336 -0.25344
 H264 H 0.58134 0.33842 -0.20316
 H265 H 0.62234 0.42427 -0.16038
 H266 H 0.65220 0.39912 -0.20976
 C267 C 0.21049 0.78364 -0.39753
 C268 C 0.19777 0.79526 -0.36718
 C269 C 0.18223 0.80945 -0.33203
 C270 C 0.16971 0.78727 -0.30176
 C271 C 0.15387 0.80103 -0.26948
 C272 C 0.15035 0.83720 -0.26711
 C273 C 0.16326 0.85928 -0.29718
 C274 C 0.17907 0.84547 -0.32942
 C275 C 0.13285 0.85182 -0.23476
 C276 C 0.13602 0.88303 -0.20770
 C277 C 0.11917 0.89758 -0.17923
 C278 C 0.09897 0.88114 -0.17736
 C279 C 0.09575 0.84984 -0.20352
 C280 C 0.11257 0.83523 -0.23199
 C281 C 0.08129 0.89706 -0.15033
 C282 C 0.06630 0.91066 -0.12873
 H283 H 0.17202 0.75934 -0.30348
 H284 H 0.14438 0.78339 -0.24637
 H285 H 0.16075 0.88718 -0.29679
 H286 H 0.18859 0.86286 -0.35291
 H287 H 0.15151 0.89618 -0.20858
 H288 H 0.12183 0.92183 -0.15913
 H289 H 0.08014 0.83701 -0.20258
 H290 H 0.10952 0.81147 -0.25294
 C291 C 0.28847 0.71221 -0.39536
 C292 C 0.30117 0.70057 -0.36512
 C293 C 0.31671 0.68635 -0.33016
 C294 C 0.32066 0.65050 -0.32956
 C295 C 0.33651 0.63674 -0.29754
 C296 C 0.34867 0.65873 -0.26568
 C297 C 0.34435 0.69470 -0.26603
 C298 C 0.32848 0.70840 -0.29809
 C299 C 0.36623 0.64426 -0.23357
 C300 C 0.38611 0.66189 -0.22908
 C301 C 0.40303 0.64749 -0.20090
 C302 C 0.40032 0.61534 -0.17675
 C303 C 0.38051 0.59784 -0.18031
 C304 C 0.36356 0.61219 -0.20850
 C305 C 0.41813 0.59972 -0.15002
 C306 C 0.43324 0.58641 -0.12864
 H307 H 0.31173 0.63322 -0.35445
 H308 H 0.33965 0.60902 -0.29871
 H309 H 0.35325 0.71223 -0.24151
 H310 H 0.32555 0.73621 -0.29827
 H311 H 0.38878 0.68636 -0.24849
 H312 H 0.41834 0.66116 -0.19863
 H313 H 0.37824 0.57293 -0.16177
 H314 H 0.34838 0.59820 -0.21073
 C315 C -0.20891 1.21644 -0.39868
 C316 C -0.19624 1.20476 -0.36838
 C317 C -0.18079 1.19045 -0.33328
 C318 C -0.16817 1.21251 -0.30308
 C319 C -0.15245 1.19860 -0.27078
 C320 C -0.14915 1.16238 -0.26832
 C321 C -0.16214 1.14042 -0.29834
 C322 C -0.17783 1.15438 -0.33060
 C323 C -0.13179 1.14758 -0.23589
 C324 C -0.13519 1.11650 -0.20874
 C325 C -0.11848 1.10177 -0.18015
 C326 C -0.09819 1.11791 -0.17826
 C327 C -0.09474 1.14908 -0.20452
 C328 C -0.11142 1.16386 -0.23310
 C329 C -0.08066 1.10183 -0.15107
 C330 C -0.06578 1.08813 -0.12932
 H331 H -0.17033 1.24047 -0.30485
 H332 H -0.14289 1.21615 -0.24771
 H333 H -0.15979 1.11249 -0.29788
 H334 H -0.18743 1.13708 -0.35403
 H335 H -0.15076 1.10357 -0.20962
 H336 H -0.12133 1.07762 -0.15997
 H337 H -0.07906 1.16169 -0.20355
 H338 H -0.10819 1.18753 -0.25411
 C339 C 0.70972 0.71692 -0.39789
 C340 C 0.69702 0.70518 -0.36760
 C341 C 0.68154 0.69080 -0.33252
 C342 C 0.67852 0.65473 -0.33005
 C343 C 0.66278 0.64071 -0.29782
 C344 C 0.64980 0.66262 -0.26762
 C345 C 0.65317 0.69884 -0.26987
 C346 C 0.66893 0.71281 -0.30214
 C347 C 0.63240 0.64776 -0.23523
 C348 C 0.61205 0.66407 -0.23229
 C349 C 0.59533 0.64924 -0.20378
 C350 C 0.59871 0.61797 -0.17775
 C351 C 0.61898 0.60181 -0.17977
 C352 C 0.63573 0.61659 -0.20829
 C353 C 0.58112 0.60182 -0.15067
 C354 C 0.56621 0.58805 -0.12901
 H355 H 0.68810 0.63747 -0.35362
 H356 H 0.66039 0.61279 -0.29752
 H357 H 0.64362 0.71635 -0.24667
 H358 H 0.67114 0.74077 -0.30376
 H359 H 0.60887 0.68781 -0.25314
 H360 H 0.57966 0.66186 -0.20271
 H361 H 0.62177 0.57759 -0.15977
 H362 H 0.65128 0.60364 -0.20929
 C363 C 0.21051 1.21464 -0.39906
 C364 C 0.19773 1.20338 -0.36858
 C365 C 0.18212 1.18967 -0.33325
 C366 C 0.18661 1.15925 -0.30605
 C367 C 0.17099 1.14497 -0.27371
 C368 C 0.15063 1.16096 -0.26821
 C369 C 0.14641 1.19184 -0.29516
 C370 C 0.16204 1.20605 -0.32748
 C371 C 0.13360 1.14494 -0.23592
 C372 C 0.11997 1.16580 -0.20572
 C373 C 0.10330 1.15074 -0.17722
 C374 C 0.10006 1.11469 -0.17850
 C375 C 0.11372 1.09369 -0.20784
 C376 C 0.13039 1.10867 -0.23633
 C377 C 0.08224 1.09932 -0.15132
 C378 C 0.06713 1.08618 -0.12959
 H379 H 0.20210 1.14636 -0.31025
 H380 H 0.17482 1.12142 -0.25302
 H381 H 0.13080 1.20450 -0.29233
 H382 H 0.15835 1.22951 -0.34859
 H383 H 0.12220 1.19374 -0.20414
 H384 H 0.09282 1.16724 -0.15463
 H385 H 0.11127 1.06577 -0.20932
 H386 H 0.14039 1.09196 -0.25973
 C387 C 0.28962 0.28560 -0.39973
 C388 C 0.30235 0.29713 -0.36941
 C389 C 0.31789 0.31117 -0.33424
 C390 C 0.33001 0.28889 -0.30332
 C391 C 0.34583 0.30247 -0.27093
 C392 C 0.34976 0.33855 -0.26912
 C393 C 0.33727 0.36074 -0.29986
 C394 C 0.32147 0.34711 -0.33221
 C395 C 0.36724 0.35294 -0.23659
 C396 C 0.36427 0.38445 -0.21014
 C397 C 0.38112 0.39878 -0.18151
 C398 C 0.40112 0.38181 -0.17888
 C399 C 0.40413 0.35022 -0.20442
 C400 C 0.38731 0.33584 -0.23304
 C401 C 0.41882 0.39749 -0.15172
 C402 C 0.43383 0.41091 -0.13001
 H403 H 0.32737 0.26102 -0.30459
 H404 H 0.35499 0.28476 -0.24730
 H405 H 0.34011 0.38856 -0.29990
 H406 H 0.31228 0.36457 -0.35620
 H407 H 0.34894 0.39802 -0.21162
 H408 H 0.37862 0.42326 -0.16190
 H409 H 0.41959 0.33697 -0.20289
 H410 H 0.39021 0.31182 -0.25351
 C411 C -0.21203 0.78761 -0.39510
 C412 C -0.19928 0.79898 -0.36471
 C413 C -0.18369 0.81289 -0.32956
 C414 C -0.18019 0.84884 -0.32715
 C415 C -0.16429 0.86238 -0.29499
 C416 C -0.15163 0.84007 -0.26482
 C417 C -0.15549 0.80399 -0.26696
 C418 C -0.17142 0.79051 -0.29916
 C419 C -0.13401 0.85437 -0.23265
 C420 C -0.11388 0.83735 -0.22993
 C421 C -0.09693 0.85167 -0.20171
 C422 C -0.09984 0.88314 -0.17577
 C423 C -0.11989 0.90001 -0.17756
 C424 C -0.13688 0.88573 -0.20578
 C425 C -0.08200 0.89876 -0.14907
 C426 C -0.06687 0.91209 -0.12772
 H427 H -0.18951 0.86639 -0.35074
 H428 H -0.16151 0.89021 -0.29477
 H429 H -0.14620 0.78619 -0.24377
 H430 H -0.17400 0.76262 -0.30074
 H431 H -0.11106 0.81345 -0.25074
 H432 H -0.08143 0.83850 -0.20082
 H433 H -0.12232 0.92439 -0.15762
 H434 H -0.15225 0.89923 -0.20663
 C435 C 0.28871 0.71212 0.39883
 C436 C 0.30145 0.70046 0.36856
 C437 C 0.31700 0.68624 0.33348
 C438 C 0.32096 0.65038 0.33279
 C439 C 0.33677 0.63660 0.30053
 C440 C 0.34889 0.65856 0.26852
 C441 C 0.34458 0.69454 0.26901
 C442 C 0.32874 0.70826 0.30130
 C443 C 0.36638 0.64405 0.23606
 C444 C 0.38626 0.66167 0.23121
 C445 C 0.40311 0.64724 0.20266
 C446 C 0.40033 0.61508 0.17850
 C447 C 0.38053 0.59760 0.18243
 C448 C 0.36365 0.61197 0.21099
 C449 C 0.41808 0.59944 0.15140
 C450 C 0.43314 0.58610 0.12970
 H451 H 0.31204 0.63311 0.35775
 H452 H 0.33990 0.60888 0.30161
 H453 H 0.35346 0.71205 0.24439
 H454 H 0.32581 0.73607 0.30154
 H455 H 0.38898 0.68615 0.25061
 H456 H 0.41841 0.66090 0.20011
 H457 H 0.37821 0.57268 0.16388
 H458 H 0.34847 0.59800 0.21348
 C459 C -0.20935 1.21821 0.39739
 C460 C -0.19654 1.20697 0.36695
 C461 C -0.18088 1.19328 0.33172
 C462 C -0.18580 1.16396 0.30233
 C463 C -0.17017 1.14960 0.27007
 C464 C -0.14938 1.16441 0.26685
 C465 C -0.14471 1.19421 0.29599
 C466 C -0.16035 1.20850 0.32822
 C467 C -0.13238 1.14822 0.23465
 C468 C -0.13007 1.11178 0.23297
 C469 C -0.11343 1.09655 0.20465
 C470 C -0.09890 1.11745 0.17757
 C471 C -0.10124 1.15369 0.17835
 C472 C -0.11787 1.16900 0.20667
 C473 C -0.08113 1.10172 0.15067
 C474 C -0.06606 1.08825 0.12920
 H475 H -0.20164 1.15196 0.30476
 H476 H -0.17434 1.12692 0.24767
 H477 H -0.12877 1.20592 0.29493
 H478 H -0.15633 1.23108 0.35103
 H479 H -0.14076 1.09510 0.25464
 H480 H -0.11169 1.06848 0.20455
 H481 H -0.09007 1.17011 0.15752
 H482 H -0.11938 1.19708 0.20672
 C483 C 0.71224 0.28829 0.39580
 C484 C 0.69948 0.29977 0.36556
 C485 C 0.68387 0.31373 0.33055
 C486 C 0.67231 0.29148 0.29834
 C487 C 0.65637 0.30490 0.26618
 C488 C 0.65178 0.34079 0.26588
 C489 C 0.66372 0.36297 0.29790
 C490 C 0.67963 0.34950 0.33002
 C491 C 0.63415 0.35494 0.23363
 C492 C 0.63662 0.38710 0.20868
 C493 C 0.61961 0.40115 0.18036
 C494 C 0.59994 0.38326 0.17654
 C495 C 0.59744 0.35102 0.20056
 C496 C 0.61442 0.33692 0.22887
 C497 C 0.58205 0.39860 0.14976
 C498 C 0.56688 0.41173 0.12837
 H499 H 0.67545 0.26374 0.29845
 H500 H 0.64764 0.28722 0.24156
 H501 H 0.66036 0.39063 0.29911
 H502 H 0.68839 0.36693 0.35501
 H503 H 0.65169 0.40139 0.21110
 H504 H 0.62172 0.42613 0.16192
 H505 H 0.58224 0.33705 0.19810
 H506 H 0.61190 0.31237 0.24818
 C507 C 0.21001 0.78426 0.39852
 C508 C 0.19737 0.79588 0.36813
 C509 C 0.18193 0.81008 0.33293
 C510 C 0.16953 0.78793 0.30236
 C511 C 0.15377 0.80170 0.27005
 C512 C 0.15019 0.83786 0.26796
 C513 C 0.16297 0.85992 0.29832
 C514 C 0.17871 0.84610 0.33060
 C515 C 0.13276 0.85248 0.23560
 C516 C 0.13595 0.88376 0.20881
 C517 C 0.11915 0.89833 0.18036
 C518 C 0.09897 0.88182 0.17826
 C519 C 0.09574 0.85044 0.20413
 C520 C 0.11251 0.83582 0.23258
 C521 C 0.08133 0.89774 0.15128
 C522 C 0.06637 0.91132 0.12970
 H523 H 0.17189 0.76000 0.30388
 H524 H 0.14437 0.78408 0.24671
 H525 H 0.16041 0.88781 0.29814
 H526 H 0.18813 0.86347 0.35432
 H527 H 0.15142 0.89697 0.20989
 H528 H 0.12182 0.92264 0.16048
 H529 H 0.08015 0.83755 0.20300
 H530 H 0.10944 0.81199 0.25332
   
