data_POSCAR
  _audit_creation_date              2014-09-24
  _audit_creation_method            'ToBaCCo'
  _symmetry_space_group_name_H-M    'P1'
  _symmetry_Int_Tables_number       1
  _symmetry_cell_setting            triclinic
  loop_
  _symmetry_equiv_pos_as_xyz
 x,y,z
_cell_length_a 27.3154
_cell_length_b 26.5361
_cell_length_c 43.3495
_cell_angle_alpha 89.474600
_cell_angle_beta 92.169300
_cell_angle_gamma 75.906000
loop_
  _atom_site_label
  _atom_site_type_symbol
  _atom_site_fract_x
  _atom_site_fract_y
  _atom_site_fract_z
O1 O 0.00812 0.55210 1.02647
 O2 O 0.00479 0.45378 0.96637
 O3 O 0.00177 0.55341 0.96600
 O4 O 0.01979 0.45219 1.02584
 O5 O -0.06268 0.46510 1.02931
 O6 O -0.08077 0.57022 0.96981
 O7 O -0.07792 0.47021 0.96988
 O8 O -0.07433 0.56458 1.02990
 Cu9 Cu 0.01674 0.50170 0.99559
 Cu10 Cu -0.08219 0.51911 0.99981
 C11 C -0.03294 0.57414 1.03893
 C12 C -0.03754 0.44452 0.95853
 C13 C -0.04206 0.57997 0.95785
 C14 C -0.01790 0.44097 1.03785
 O15 O 0.46160 -0.04010 0.47199
 O16 O 0.56385 -0.05633 0.53204
 O17 O 0.46566 -0.04033 0.53193
 O18 O 0.55983 -0.05935 0.47191
 O19 O 0.55486 0.02489 0.47081
 O20 O 0.45873 0.04419 0.52978
 O21 O 0.55729 0.02807 0.53044
 O22 O 0.45701 0.04404 0.46962
 Cu23 Cu 0.51336 -0.05748 0.50220
 Cu24 Cu 0.50628 0.04376 0.50010
 C25 C 0.44202 0.00482 0.46044
 C26 C 0.57849 -0.01687 0.54137
 C27 C 0.44554 0.00519 0.54085
 C28 C 0.57372 -0.02055 0.46122
 C29 C 0.09548 -0.00195 0.27120
 H30 H 0.09874 0.00453 0.24677
 C31 C 0.13800 -0.00824 0.29120
 H32 H 0.17399 -0.00670 0.28208
 C33 C 0.04500 -0.01265 0.31287
 H34 H 0.00880 -0.01402 0.32144
 C35 C 0.08662 -0.02006 0.33352
 H36 H 0.08199 -0.02703 0.35777
 N37 N 0.05017 -0.00483 0.28221
 C38 C -0.03656 -0.06994 0.21374
 H39 H -0.07392 -0.04582 0.21712
 C40 C -0.03041 -0.11104 0.19325
 H41 H -0.06320 -0.11706 0.18040
 C42 C 0.05124 -0.09103 0.22631
 H43 H 0.08307 -0.08342 0.23924
 C44 C 0.05909 -0.13280 0.20618
 H45 H 0.09691 -0.15701 0.20416
 Zn46 Zn -0.00661 -0.00021 0.25442
 N47 N 0.00410 -0.05989 0.22926
 C48 C -0.05371 0.06631 0.20560
 N49 N -0.01756 0.06034 0.22872
 C50 C 0.00818 0.09756 0.23404
 C51 C -0.00160 0.14244 0.21538
 C52 C -0.06481 0.11053 0.18653
 C53 C -0.07111 -0.03822 0.29344
 C54 C -0.11165 -0.03373 0.31285
 C55 C -0.14078 0.05654 0.29717
 C56 C -0.09947 0.05053 0.27845
 N57 N -0.06518 0.00395 0.27730
 H58 H -0.07453 0.03703 0.20207
 H59 H 0.03567 0.09306 0.25306
 H60 H 0.01892 0.17185 0.22008
 H61 H -0.09328 0.11407 0.16803
 H62 H -0.04325 -0.07482 0.29212
 H63 H -0.11437 -0.06712 0.32660
 H64 H -0.16742 0.09410 0.29774
 H65 H -0.09414 0.08363 0.26552
 C66 C 0.01803 -0.14289 0.18899
 C67 C 0.13386 -0.01833 0.32268
 C68 C -0.14670 0.01448 0.31533
 C69 C -0.03858 0.14930 0.19126
 C70 C 0.02306 0.10376 0.75449
 H71 H 0.02571 0.10476 0.72966
 C72 C 0.02484 0.14772 0.77153
 H73 H 0.02861 0.18268 0.75977
 C74 C 0.01524 0.05691 0.80011
 H75 H 0.01162 0.02145 0.81120
 C76 C 0.01570 0.10038 0.81796
 H77 H 0.01275 0.09801 0.84276
 N78 N 0.01972 0.05904 0.76900
 C79 C 0.09425 -0.05819 0.70408
 H80 H 0.06928 -0.08391 0.70256
 C81 C 0.13730 -0.06823 0.68650
 H82 H 0.14353 -0.10039 0.67076
 C83 C 0.11751 0.01357 0.72695
 H84 H 0.11100 0.04443 0.74340
 C85 C 0.16110 0.00480 0.70997
 H86 H 0.18695 0.02954 0.71347
 Zn87 Zn 0.02259 -0.00119 0.74488
 N88 N 0.08398 -0.01658 0.72300
 C89 C -0.04078 -0.02611 0.69676
 N90 N -0.03522 0.01122 0.71699
 C91 C -0.07177 0.05620 0.71878
 C92 C -0.11561 0.06495 0.69976
 C93 C -0.08377 -0.01884 0.67722
 C94 C 0.06329 -0.07666 0.79057
 C95 C 0.06536 -0.11914 0.81026
 C96 C -0.01637 -0.12442 0.78925
 C97 C -0.01713 -0.08141 0.77022
 N98 N 0.02250 -0.05871 0.77107
 H99 H -0.01270 -0.06240 0.69629
 H100 H -0.06772 0.08499 0.73548
 H101 H -0.14461 0.10050 0.70213
 H102 H -0.08688 -0.04902 0.66116
 H103 H 0.09416 -0.05769 0.79091
 H104 H 0.09784 -0.13204 0.82599
 H105 H -0.04779 -0.14257 0.78760
 H106 H -0.04946 -0.06632 0.75479
 C107 C 0.17097 -0.03588 0.68888
 C108 C 0.02145 0.14610 0.80367
 C109 C 0.02533 -0.14400 0.80963
 C110 C -0.12216 0.02704 0.67866
 C111 C 0.00581 -0.36432 0.06983
 C112 C 0.00289 -0.32792 0.09355
 C113 C -0.03944 -0.31737 0.11245
 C114 C -0.07795 -0.34309 0.10745
 C115 C -0.07520 -0.37834 0.08362
 C116 C -0.03361 -0.38919 0.06448
 C117 C -0.04321 -0.28066 0.13577
 C118 C -0.00577 -0.25331 0.14015
 C119 C 0.03664 -0.26358 0.12140
 C120 C 0.04097 -0.30120 0.09837
 C121 C 0.07354 -0.23539 0.12574
 C122 C 0.06791 -0.19673 0.14797
 C123 C 0.02550 -0.18580 0.16649
 C124 C -0.01076 -0.21504 0.16267
 H125 H 0.03795 -0.37228 0.05514
 H126 H -0.11056 -0.33548 0.12174
 H127 H -0.10586 -0.39730 0.08022
 H128 H -0.07582 -0.27261 0.15011
 H129 H 0.07341 -0.30897 0.08391
 H130 H 0.10628 -0.24258 0.11158
 H131 H 0.09620 -0.17448 0.15013
 H132 H -0.04316 -0.20783 0.17714
 C133 C -0.04919 0.38238 0.07416
 C134 C -0.03979 0.34150 0.09614
 C135 C 0.01054 0.31741 0.10597
 C136 C 0.05048 0.33473 0.09393
 C137 C 0.04088 0.37509 0.07204
 C138 C -0.00888 0.39918 0.06177
 C139 C 0.02029 0.27600 0.12742
 C140 C -0.01958 0.25791 0.13904
 C141 C -0.06996 0.28208 0.12943
 C142 C -0.07978 0.32390 0.10815
 C143 C -0.10963 0.26352 0.14098
 C144 C -0.09945 0.22087 0.16141
 C145 C -0.04944 0.19616 0.17080
 C146 C -0.00970 0.21536 0.15973
 H147 H -0.08771 0.40057 0.06646
 H148 H 0.08923 0.31677 0.10125
 H149 H 0.07270 0.38728 0.06303
 H150 H 0.05894 0.25745 0.13478
 H151 H -0.11841 0.34225 0.10067
 H152 H -0.14849 0.28165 0.13400
 H153 H -0.13077 0.20721 0.16994
 H154 H 0.02902 0.19622 0.16652
 C155 C 0.39217 -0.03024 0.57709
 C156 C 0.35268 -0.02317 0.59765
 C157 C 0.32628 0.02769 0.60516
 C158 C 0.34038 0.07052 0.59238
 C159 C 0.37972 0.06315 0.57192
 C160 C 0.40571 0.01281 0.56384
 C161 C 0.28591 0.03492 0.62505
 C162 C 0.27156 -0.00806 0.63753
 C163 C 0.29838 -0.05892 0.63036
 C164 C 0.33881 -0.06616 0.61050
 C165 C 0.28400 -0.10171 0.64297
 C166 C 0.24305 -0.09427 0.66223
 C167 C 0.21560 -0.04388 0.66922
 C168 C 0.23041 -0.00092 0.65682
 H169 H 0.41193 -0.06930 0.57115
 H170 H 0.32065 0.10976 0.59795
 H171 H 0.38931 0.09699 0.56209
 H172 H 0.26544 0.07397 0.63062
 H173 H 0.35913 -0.10520 0.60482
 H174 H 0.30431 -0.14097 0.63787
 H175 H 0.23307 -0.12806 0.67182
 H176 H 0.20921 0.03817 0.66159
 C177 C -0.36199 0.01994 0.57196
 C178 C -0.31986 0.01357 0.59249
 C179 C -0.29698 -0.03614 0.60528
 C180 C -0.31665 -0.07858 0.59734
 C181 C -0.35807 -0.07216 0.57649
 C182 C -0.38118 -0.02293 0.56336
 C183 C -0.25440 -0.04277 0.62545
 C184 C -0.23386 -0.00047 0.63255
 C185 C -0.25667 0.04922 0.61970
 C186 C -0.29974 0.05602 0.59994
 C187 C -0.23565 0.09123 0.62657
 C188 C -0.19214 0.08404 0.64575
 C189 C -0.16895 0.03478 0.65863
 C190 C -0.19047 -0.00725 0.65206
 H191 H -0.37896 0.05824 0.56216
 H192 H -0.29957 -0.11696 0.60695
 H193 H -0.37176 -0.10601 0.57056
 H194 H -0.23682 -0.08096 0.63522
 H195 H -0.31716 0.09416 0.59004
 H196 H -0.25254 0.12955 0.61683
 H197 H -0.17613 0.11695 0.65006
 H198 H -0.17364 -0.04526 0.66224
 C199 C -0.00370 -0.37056 0.92227
 C200 C -0.00721 -0.32859 0.90178
 C201 C -0.05464 -0.29422 0.89471
 C202 C -0.09800 -0.30340 0.90775
 C203 C -0.09428 -0.34565 0.92808
 C204 C -0.04698 -0.37933 0.93600
 C205 C -0.05774 -0.25113 0.87495
 C206 C -0.01396 -0.24237 0.86208
 C207 C 0.03322 -0.27762 0.86874
 C208 C 0.03630 -0.32035 0.88855
 C209 C 0.07675 -0.26947 0.85559
 C210 C 0.07389 -0.22648 0.83624
 C211 C 0.02751 -0.19032 0.82983
 C212 C -0.01645 -0.19882 0.84281
 H213 H 0.03318 -0.39612 0.92769
 H214 H -0.13477 -0.27763 0.90245
 H215 H -0.12840 -0.35119 0.93805
 H216 H -0.09406 -0.22438 0.86973
 H217 H 0.07266 -0.34702 0.89385
 H218 H 0.11310 -0.29642 0.86024
 H219 H 0.10814 -0.22188 0.82605
 H220 H -0.05245 -0.17117 0.83841
 C221 C -0.00128 0.38139 0.91733
 C222 C -0.00449 0.33976 0.89806
 C223 C -0.04695 0.31815 0.89919
 C224 C -0.08600 0.33924 0.91874
 C225 C -0.08296 0.38098 0.93732
 C226 C -0.04051 0.40217 0.93711
 C227 C -0.04979 0.27566 0.88088
 C228 C -0.01117 0.25485 0.86094
 C229 C 0.03061 0.27729 0.85895
 C230 C 0.03393 0.31933 0.87774
 C231 C 0.06834 0.25717 0.83819
 C232 C 0.06488 0.21503 0.81981
 C233 C 0.02414 0.19179 0.82229
 C234 C -0.01380 0.21193 0.84288
 H235 H 0.03148 0.39762 0.91687
 H236 H -0.11887 0.32329 0.91977
 H237 H -0.11359 0.39599 0.95246
 H238 H -0.08211 0.25882 0.88213
 H239 H 0.06627 0.33612 0.87650
 H240 H 0.10051 0.27397 0.83618
 H241 H 0.09453 0.19985 0.80404
 H242 H -0.04559 0.19441 0.84457
 C243 C -0.36402 0.01183 0.43062
 C244 C -0.32647 0.00461 0.40879
 C245 C -0.31253 -0.04311 0.39330
 C246 C -0.33624 -0.08294 0.40016
 C247 C -0.37321 -0.07565 0.42225
 C248 C -0.38751 -0.02822 0.43763
 C249 C -0.27495 -0.05031 0.37142
 C250 C -0.25066 -0.01062 0.36517
 C251 C -0.26441 0.03687 0.38093
 C252 C -0.30237 0.04428 0.40247
 C253 C -0.23970 0.07616 0.37509
 C254 C -0.20160 0.06862 0.35386
 C255 C -0.18773 0.02185 0.33771
 C256 C -0.21262 -0.01770 0.34354
 H257 H -0.37443 0.04847 0.44248
 H258 H -0.32601 -0.11981 0.38858
 H259 H -0.39078 -0.10711 0.42719
 H260 H -0.26433 -0.08687 0.35948
 H261 H -0.31288 0.08079 0.41448
 H262 H -0.24949 0.11261 0.38715
 H263 H -0.18240 0.09932 0.35049
 H264 H -0.20271 -0.05379 0.33113
 C265 C 0.37266 -0.02554 0.43283
 C266 C 0.33254 -0.01807 0.41072
 C267 C 0.32145 0.02670 0.39127
 C268 C 0.35042 0.06343 0.39448
 C269 C 0.38962 0.05621 0.41697
 C270 C 0.40113 0.01173 0.43630
 C271 C 0.28122 0.03440 0.36924
 C272 C 0.25116 -0.00150 0.36690
 C273 C 0.26187 -0.04591 0.38666
 C274 C 0.30281 -0.05422 0.40817
 C275 C 0.23096 -0.08098 0.38488
 C276 C 0.18945 -0.07187 0.36400
 C277 C 0.17861 -0.02805 0.34420
 C278 C 0.20994 0.00677 0.34550
 H279 H 0.38093 -0.05976 0.44782
 H280 H 0.34241 0.09801 0.37984
 H281 H 0.41115 0.08539 0.41914
 H282 H 0.27282 0.06869 0.35429
 H283 H 0.31102 -0.08834 0.42325
 H284 H 0.23855 -0.11515 0.39986
 H285 H 0.16584 -0.09928 0.36315
 H286 H 0.20138 0.04092 0.33045
   
