data_POSCAR
  _audit_creation_date              2014-09-24
  _audit_creation_method            'ToBaCCo'
  _symmetry_space_group_name_H-M    'P1'
  _symmetry_Int_Tables_number       1
  _symmetry_cell_setting            triclinic
  loop_
  _symmetry_equiv_pos_as_xyz
 x,y,z
_cell_length_a 44.3962
_cell_length_b 47.4008
_cell_length_c 47.2510
_cell_angle_alpha 90.420400
_cell_angle_beta 89.462200
_cell_angle_gamma 90.536900
loop_
  _atom_site_label
  _atom_site_type_symbol
  _atom_site_fract_x
  _atom_site_fract_y
  _atom_site_fract_z
C1 C 0.16226 0.19197 0.19972
 C2 C 0.17679 0.20961 0.18013
 C3 C 0.20662 0.20517 0.17285
 C4 C 0.22235 0.18289 0.18514
 C5 C 0.20798 0.16534 0.20438
 C6 C 0.17764 0.16979 0.21156
 C7 C 0.13340 0.19142 0.21061
 N8 N 0.13085 0.16925 0.22848
 C9 C 0.15772 0.15582 0.22916
 C10 C 0.22850 0.14540 0.21244
 N11 N 0.25490 0.15038 0.19849
 C12 C 0.25130 0.17325 0.18173
 C13 C 0.21441 0.22496 0.15276
 N14 N 0.18992 0.24105 0.14761
 C15 C 0.16688 0.23184 0.16434
 H16 H 0.11549 0.20590 0.20574
 H17 H 0.16255 0.13753 0.24187
 H18 H 0.22434 0.12830 0.22706
 H19 H 0.26836 0.18222 0.16790
 H20 H 0.23605 0.22702 0.14219
 H21 H 0.14438 0.24042 0.16485
 C22 C 0.69648 0.68992 0.71129
 C23 C 0.70376 0.70332 0.68590
 C24 C 0.72753 0.69397 0.66941
 C25 C 0.74412 0.67053 0.67815
 C26 C 0.73680 0.65711 0.70334
 C27 C 0.71278 0.66701 0.72018
 C28 C 0.67492 0.69542 0.73142
 N29 N 0.67754 0.67648 0.75261
 C30 C 0.70064 0.65889 0.74595
 C31 C 0.75654 0.63510 0.70626
 N32 N 0.77552 0.63477 0.68352
 C33 C 0.76811 0.65642 0.66629
 C34 C 0.72962 0.71174 0.64640
 N35 N 0.70748 0.73130 0.64873
 C36 C 0.69161 0.72621 0.67282
 H37 H 0.65872 0.71231 0.73075
 H38 H 0.70823 0.64166 0.75889
 H39 H 0.75685 0.62032 0.72359
 H40 H 0.77916 0.66154 0.64647
 H41 H 0.74598 0.71056 0.62931
 H42 H 0.67293 0.73862 0.68067
 C43 C 0.31508 0.77623 0.70927
 C44 C 0.29109 0.77671 0.69013
 C45 C 0.26713 0.79477 0.69475
 C46 C 0.26681 0.81256 0.71872
 C47 C 0.29034 0.81173 0.73761
 C48 C 0.31459 0.79366 0.73280
 C49 C 0.34132 0.76093 0.71037
 N50 N 0.35662 0.76884 0.73398
 C51 C 0.34036 0.78885 0.74778
 C52 C 0.28422 0.83054 0.75903
 N53 N 0.25756 0.84320 0.75370
 C54 C 0.24672 0.83232 0.72898
 C55 C 0.24704 0.79026 0.67308
 N56 N 0.25817 0.76992 0.65555
 C57 C 0.28513 0.76159 0.66581
 H58 H 0.34859 0.74519 0.69514
 H59 H 0.34667 0.79914 0.76739
 H60 H 0.29857 0.83477 0.77696
 H61 H 0.22574 0.83811 0.71921
 H62 H 0.22571 0.80078 0.67058
 H63 H 0.29931 0.74549 0.65649
 C64 C 0.78438 0.26993 0.23320
 C65 C 0.77728 0.26342 0.20504
 C66 C 0.75907 0.28114 0.18973
 C67 C 0.74799 0.30591 0.20240
 C68 C 0.75477 0.31222 0.23030
 C69 C 0.77298 0.29401 0.24581
 C70 C 0.80336 0.25764 0.25233
 N71 N 0.80376 0.27369 0.27632
 C72 C 0.78501 0.29588 0.27249
 C73 C 0.74314 0.33846 0.23630
 N74 N 0.72977 0.34835 0.21267
 C75 C 0.73250 0.32852 0.19190
 C76 C 0.75694 0.26994 0.16277
 N77 N 0.77352 0.24600 0.16147
 C78 C 0.78609 0.24195 0.18719
 H79 H 0.81652 0.23884 0.24863
 H80 H 0.78127 0.31296 0.28738
 H81 H 0.74568 0.35012 0.25593
 H82 H 0.72478 0.33075 0.17038
 H83 H 0.74468 0.27879 0.14529
 H84 H 0.80058 0.22462 0.19265
 C85 C 0.86832 0.73068 0.31575
 C86 C 0.85348 0.74326 0.33868
 C87 C 0.82379 0.73668 0.34441
 C88 C 0.80868 0.71694 0.32736
 C89 C 0.82319 0.70446 0.30437
 C90 C 0.85331 0.71202 0.29805
 C91 C 0.89656 0.73505 0.30485
 N92 N 0.89928 0.72034 0.28025
 C93 C 0.87286 0.70612 0.27576
 C94 C 0.80271 0.68593 0.29222
 N95 N 0.77647 0.68719 0.30727
 C96 C 0.77992 0.70628 0.32852
 C97 C 0.81466 0.75381 0.36655
 N98 N 0.83820 0.77075 0.37401
 C99 C 0.86207 0.76424 0.35715
 H100 H 0.91311 0.74959 0.31343
 H101 H 0.86802 0.69296 0.25751
 H102 H 0.80664 0.67245 0.27400
 H103 H 0.76299 0.71147 0.34430
 H104 H 0.79226 0.75464 0.37572
 H105 H 0.88385 0.77464 0.35747
 C106 C 0.31395 0.23200 -0.21337
 C107 C 0.30902 0.24411 -0.18660
 C108 C 0.29116 0.23023 -0.16700
 C109 C 0.27829 0.20402 -0.17368
 C110 C 0.28264 0.19210 -0.20017
 C111 C 0.30052 0.20641 -0.22037
 C112 C 0.33053 0.24077 -0.23643
 N113 N 0.32730 0.22141 -0.25757
 C114 C 0.30884 0.20036 -0.24796
 C115 C 0.26732 0.16655 -0.20022
 N116 N 0.25419 0.16280 -0.17428
 C117 C 0.26082 0.18579 -0.15809
 C118 C 0.28943 0.24705 -0.14326
 N119 N 0.30582 0.27087 -0.14798
 C120 C 0.31808 0.26923 -0.17438
 H121 H 0.34363 0.26010 -0.23772
 H122 H 0.30231 0.18170 -0.25981
 H123 H 0.26625 0.15173 -0.21771
 H124 H 0.25361 0.18928 -0.13643
 H125 H 0.27695 0.24235 -0.12406
 H126 H 0.33190 0.28538 -0.18426
 C127 C 0.67946 0.28278 -0.24041
 C128 C 0.68862 0.26879 -0.21596
 C129 C 0.71377 0.27810 -0.20152
 C130 C 0.73015 0.30151 -0.21134
 C131 C 0.72116 0.31544 -0.23539
 C132 C 0.69544 0.30608 -0.24996
 C133 C 0.65517 0.27898 -0.25794
 N134 N 0.65571 0.29964 -0.27776
 C135 C 0.68037 0.31627 -0.27302
 C136 C 0.74100 0.33763 -0.23946
 N137 N 0.76176 0.33743 -0.21841
 C138 C 0.75509 0.31540 -0.20110
 C139 C 0.71642 0.26158 -0.17788
 N140 N 0.69334 0.24259 -0.17755
 C141 C 0.67629 0.24680 -0.20084
 H142 H 0.63792 0.26285 -0.25575
 H143 H 0.68686 0.33467 -0.28512
 H144 H 0.74017 0.35279 -0.25643
 H145 H 0.76736 0.30963 -0.18239
 H146 H 0.73338 0.26382 -0.16169
 H147 H 0.65592 0.23528 -0.20611
 C148 C 0.18583 0.77369 0.26088
 C149 C 0.19076 0.76278 0.28804
 C150 C 0.20444 0.77951 0.30842
 C151 C 0.21340 0.80714 0.30210
 C152 C 0.20927 0.81762 0.27527
 C153 C 0.19537 0.80085 0.25455
 C154 C 0.17248 0.76284 0.23683
 N155 N 0.17392 0.78274 0.21626
 C156 C 0.18808 0.80593 0.22688
 C157 C 0.22162 0.84433 0.27477
 N158 N 0.23302 0.85034 0.30078
 C159 C 0.22783 0.82770 0.31768
 C160 C 0.20786 0.76340 0.33216
 N161 N 0.19676 0.73715 0.32682
 C162 C 0.18603 0.73659 0.29994
 H163 H 0.16217 0.74217 0.23458
 H164 H 0.19187 0.82547 0.21564
 H165 H 0.22248 0.85815 0.25665
 H166 H 0.23497 0.82570 0.33939
 H167 H 0.21847 0.77015 0.35162
 H168 H 0.17636 0.71833 0.28944
 C169 C 0.47522 0.45815 0.45657
 C170 C 0.47971 0.48001 0.43712
 C171 C 0.46195 0.50382 0.43853
 C172 C 0.43962 0.50620 0.45968
 C173 C 0.43554 0.48471 0.47906
 C174 C 0.45333 0.46048 0.47741
 C175 C 0.48862 0.43236 0.45971
 N176 N 0.47540 0.41895 0.48197
 C177 C 0.45381 0.43604 0.49298
 C178 C 0.41253 0.49250 0.49703
 N179 N 0.40237 0.51814 0.48904
 C180 C 0.41875 0.52669 0.46616
 C181 C 0.47100 0.52114 0.41670
 N182 N 0.49386 0.50845 0.40227
 C183 C 0.49934 0.48329 0.41465
 H184 H 0.50663 0.42404 0.44662
 H185 H 0.43935 0.43103 0.51085
 H186 H 0.40360 0.48014 0.51440
 H187 H 0.41577 0.54636 0.45508
 H188 H 0.46164 0.54151 0.41179
 H189 H 0.51609 0.46827 0.40761
 C190 C -0.07958 -0.07729 0.96067
 C191 C -0.06951 -0.05654 0.94126
 C192 C -0.08856 -0.03457 0.93440
 C193 C -0.11747 -0.03279 0.94634
 C194 C -0.12747 -0.05356 0.96429
 C195 C -0.10864 -0.07573 0.97137
 C196 C -0.06632 -0.10005 0.97401
 N197 N -0.08699 -0.11192 0.99206
 C198 C -0.11285 -0.09711 0.99012
 C199 C -0.15549 -0.04614 0.97400
 N200 N -0.16273 -0.02081 0.96282
 C201 C -0.13962 -0.01255 0.94554
 C202 C -0.07388 -0.01777 0.91528
 N203 N -0.04640 -0.02882 0.90961
 C204 C -0.04321 -0.05239 0.92566
 H205 H -0.04329 -0.10694 0.97123
 H206 H -0.13313 -0.10041 1.00255
 H207 H -0.16867 -0.05777 0.98943
 H208 H -0.13840 0.00712 0.93408
 H209 H -0.08304 0.00096 0.90583
 H210 H -0.02371 -0.06593 0.92536
 C211 C 1.02545 0.56292 0.94178
 C212 C 1.03012 0.54629 0.91755
 C213 C 1.05343 0.52692 0.91648
 C214 C 1.07249 0.52411 0.93997
 C215 C 1.06791 0.54102 0.96355
 C216 C 1.04436 0.56031 0.96450
 C217 C 1.00577 0.58444 0.94812
 N218 N 1.01259 0.59496 0.97418
 C219 C 1.03621 0.58018 0.98428
 C220 C 1.09031 0.53572 0.98234
 N221 N 1.10857 0.51560 0.97125
 C222 C 1.09781 0.50820 0.94526
 C223 C 1.05399 0.51585 0.88933
 N224 N 1.03175 0.52816 0.87440
 C225 C 1.01714 0.54674 0.89136
 H226 H 0.98850 0.59232 0.93432
 H227 H 1.04721 0.58383 1.00433
 H228 H 1.09275 0.54585 1.00279
 H229 H 1.10797 0.49300 0.93098
 H230 H 1.07030 0.50124 0.88066
 H231 H 0.99932 0.56056 0.88463
 C232 C 0.53211 0.07363 0.45075
 C233 C 0.53280 0.05380 0.42858
 C234 C 0.55564 0.03411 0.42709
 C235 C 0.57814 0.03399 0.44782
 C236 C 0.57764 0.05394 0.46929
 C237 C 0.55459 0.07385 0.47077
 C238 C 0.51132 0.09352 0.45902
 N239 N 0.52085 0.10579 0.48345
 C240 C 0.54737 0.09400 0.49072
 C241 C 0.60065 0.04796 0.48735
 N242 N 0.61514 0.02459 0.47774
 C243 C 0.60157 0.01595 0.45339
 C244 C 0.54982 0.01693 0.40414
 N245 N 0.52413 0.02576 0.39166
 C246 C 0.51353 0.04824 0.40656
 H247 H 0.49044 0.09817 0.44845
 H248 H 0.55973 0.09875 0.50984
 H249 H 0.60541 0.05929 0.50677
 H250 H 0.60757 -0.00253 0.44107
 H251 H 0.56322 -0.00084 0.39729
 H252 H 0.49316 0.05961 0.40190
 C253 C -0.00835 0.06413 0.56037
 C254 C 0.00314 0.05589 0.58646
 C255 C -0.01399 0.03923 0.60438
 C256 C -0.04293 0.03050 0.59631
 C257 C -0.05436 0.03861 0.57043
 C258 C -0.03703 0.05585 0.55235
 C259 C 0.00448 0.07841 0.53814
 N260 N -0.01575 0.07940 0.51690
 C261 C -0.04132 0.06578 0.52526
 C262 C -0.08160 0.02490 0.56722
 N263 N -0.08693 0.00884 0.59048
 C264 C -0.06350 0.01229 0.60845
 C265 C 0.00350 0.03346 0.62752
 N266 N 0.03072 0.04639 0.62401
 C267 C 0.03067 0.06009 0.59890
 H268 H 0.02720 0.08688 0.53714
 H269 H -0.06088 0.06223 0.51215
 H270 H -0.09597 0.02582 0.54888
 H271 H -0.06080 0.00124 0.62821
 H272 H -0.00305 0.02063 0.64544
 H273 H 0.04937 0.07197 0.59002
 C274 C 0.47411 0.58397 0.04288
 C275 C 0.49243 0.57492 0.06495
 C276 C 0.48418 0.55147 0.08057
 C277 C 0.45750 0.53674 0.07434
 C278 C 0.43940 0.54578 0.05263
 C279 C 0.44770 0.56959 0.03685
 C280 C 0.47702 0.60545 0.02362
 N281 N 0.45293 0.60452 0.00603
 C282 C 0.43483 0.58265 0.01412
 C283 C 0.41569 0.52706 0.05062
 N284 N 0.41897 0.50681 0.07054
 C285 C 0.44446 0.51262 0.08523
 C286 C 0.50621 0.54746 0.10034
 N287 N 0.52754 0.56797 0.09716
 C288 C 0.51933 0.58482 0.07549
 H289 H 0.49552 0.62044 0.02249
 H290 H 0.41412 0.57616 0.00399
 H291 H 0.39772 0.52788 0.03534
 H292 H 0.45332 0.49997 0.10215
 H293 H 0.50653 0.53090 0.11597
 H294 H 0.53183 0.60301 0.06797
 C295 C 0.51416 -0.07453 0.01948
 C296 C 0.49964 -0.06808 0.04529
 C297 C 0.50563 -0.04255 0.05846
 C298 C 0.52559 -0.02314 0.04637
 C299 C 0.54005 -0.02933 0.02116
 C300 C 0.53431 -0.05530 0.00759
 C301 C 0.51346 -0.09784 0.00188
 N302 N 0.53269 -0.09328 -0.02021
 C303 C 0.54548 -0.06733 -0.01686
 C304 C 0.55855 -0.00655 0.01504
 N305 N 0.55528 0.01311 0.03597
 C306 C 0.53514 0.00303 0.05517
 C307 C 0.48944 -0.04168 0.08315
 N308 N 0.47344 -0.06603 0.08560
 C309 C 0.47935 -0.08242 0.06249
 H310 H 0.50028 -0.11688 0.00520
 H311 H 0.56185 -0.05782 -0.03106
 H312 H 0.57326 -0.00447 -0.00324
 H313 H 0.52818 0.01370 0.07443
 H314 H 0.48924 -0.02432 0.09815
 H315 H 0.46994 -0.10323 0.05865
 C316 C 1.05444 0.39877 0.49938
 C317 C 1.04731 0.40829 0.52678
 C318 C 1.05575 0.43521 0.53536
 C319 C 1.07163 0.45292 0.51664
 C320 C 1.07780 0.44373 0.48937
 C321 C 1.06953 0.41642 0.48081
 C322 C 1.04862 0.37391 0.48511
 N323 N 1.06011 0.37603 0.45845
 C324 C 1.07287 0.40202 0.45564
 C325 C 1.09134 0.46570 0.47521
 N326 N 1.09437 0.48785 0.49339
 C327 C 1.08255 0.48018 0.51890
 C328 C 1.04362 0.43950 0.56196
 N329 N 1.02816 0.41585 0.56963
 C330 C 1.03054 0.39658 0.54836
 H331 H 1.03691 0.35565 0.49356
 H332 H 1.08355 0.41006 0.43663
 H333 H 1.09893 0.46525 0.45338
 H334 H 1.08111 0.49366 0.53745
 H335 H 1.04503 0.45875 0.57436
 H336 H 1.01951 0.37612 0.54793
 C337 C 0.41323 -0.01770 0.20990
 H338 H 0.42303 0.00124 0.21901
 C339 C 0.42671 -0.03028 0.18637
 H340 H 0.44680 -0.02044 0.17780
 C341 C 0.37500 -0.05283 0.21066
 H342 H 0.35503 -0.06173 0.22041
 C343 C 0.38776 -0.06616 0.18694
 H344 H 0.37713 -0.08511 0.17878
 N345 N 0.38750 -0.02865 0.22118
 C346 C 0.35964 0.03419 0.21299
 H347 H 0.37256 0.02124 0.19859
 C348 C 0.34679 0.05886 0.20299
 H349 H 0.35017 0.06452 0.18103
 C350 C 0.33831 0.04190 0.25850
 H351 H 0.33493 0.03494 0.28006
 C352 C 0.32448 0.06655 0.24917
 H353 H 0.31070 0.07868 0.26374
 Zn354 Zn 0.37153 -0.00856 0.25262
 N355 N 0.35543 0.02624 0.24037
 C356 C 0.41098 0.02213 0.28994
 N357 N 0.40375 -0.00324 0.27808
 C358 C 0.42017 -0.02666 0.28334
 C359 C 0.44489 -0.02525 0.30124
 C360 C 0.43550 0.02445 0.30829
 C361 C 0.31515 -0.03608 0.25574
 C362 C 0.29333 -0.05407 0.26740
 C363 C 0.32339 -0.05720 0.30960
 C364 C 0.34461 -0.03925 0.29712
 N365 N 0.34064 -0.02985 0.27031
 H366 H 0.39777 0.04053 0.28521
 H367 H 0.41393 -0.04655 0.27355
 H368 H 0.45727 -0.04432 0.30532
 H369 H 0.44104 0.04477 0.31754
 H370 H 0.31228 -0.02781 0.23467
 H371 H 0.27360 -0.05943 0.25514
 H372 H 0.32791 -0.06542 0.33040
 H373 H 0.36466 -0.03352 0.30865
 C374 C 0.32880 0.07528 0.22107
 C375 C 0.41377 -0.05465 0.17415
 C376 C 0.29771 -0.06544 0.29442
 C377 C 0.45288 0.00052 0.31400
 C378 C 0.09862 -0.00510 0.74521
 H379 H 0.09142 -0.02476 0.75472
 C380 C 0.08694 0.00298 0.71916
 H381 H 0.07097 -0.01076 0.70853
 C382 C 0.12782 0.03692 0.74777
 H383 H 0.14292 0.05064 0.75927
 C384 C 0.11697 0.04566 0.72172
 H385 H 0.12414 0.06593 0.71357
 N386 N 0.11889 0.01175 0.75882
 C387 C 0.16710 -0.04342 0.81599
 H388 H 0.16268 -0.03307 0.83606
 C389 C 0.18616 -0.06665 0.81469
 H390 H 0.19583 -0.07430 0.83408
 C391 C 0.16015 -0.04543 0.76637
 H392 H 0.15066 -0.03661 0.74746
 C393 C 0.17907 -0.06873 0.76410
 H394 H 0.18378 -0.07757 0.74337
 Zn395 Zn 0.13257 0.00058 0.79490
 N396 N 0.15472 -0.03318 0.79202
 C397 C 0.09017 -0.02787 0.83201
 N398 N 0.09778 -0.00372 0.81811
 C399 C 0.07947 0.01906 0.81875
 C400 C 0.05231 0.01822 0.83364
 C401 C 0.06294 -0.02965 0.84727
 C402 C 0.18434 0.03537 0.79555
 C403 C 0.20216 0.05841 0.80383
 C404 C 0.16755 0.06668 0.84267
 C405 C 0.15028 0.04369 0.83352
 N406 N 0.15838 0.02910 0.80981
 H407 H 0.10482 -0.04593 0.83085
 H408 H 0.08597 0.03791 0.80737
 H409 H 0.03844 0.03686 0.83389
 H410 H 0.05684 -0.04914 0.85775
 H411 H 0.19052 0.02314 0.77700
 H412 H 0.22228 0.06356 0.79175
 H413 H 0.15988 0.07859 0.86093
 H414 H 0.13002 0.03802 0.84502
 C415 C 0.19278 -0.07934 0.78842
 C416 C 0.09627 0.02862 0.70708
 C417 C 0.19351 0.07471 0.82741
 C418 C 0.04342 -0.00647 0.84780
 C419 C 0.61521 0.52294 0.20753
 H420 H 0.61293 0.50159 0.21524
 C421 C 0.60129 0.53062 0.18247
 H422 H 0.58855 0.51488 0.17084
 C423 C 0.63446 0.56938 0.21374
 H424 H 0.64693 0.58453 0.22632
 C425 C 0.62100 0.57795 0.18867
 H426 H 0.62322 0.59975 0.18230
 N427 N 0.63104 0.54236 0.22276
 C428 C 0.68517 0.49660 0.22588
 H429 H 0.68817 0.51589 0.21411
 C430 C 0.69732 0.47162 0.21524
 H431 H 0.71036 0.47216 0.19577
 C432 C 0.66278 0.47218 0.26436
 H433 H 0.64830 0.47219 0.28283
 C434 C 0.67503 0.44669 0.25469
 H435 H 0.67008 0.42741 0.26603
 Zn436 Zn 0.64686 0.53055 0.25758
 N437 N 0.66785 0.49648 0.24978
 C438 C 0.61808 0.51552 0.31008
 N439 N 0.61382 0.52521 0.28336
 C440 C 0.58622 0.53408 0.27503
 C441 C 0.56183 0.53391 0.29382
 C442 C 0.59408 0.51469 0.32955
 C443 C 0.69846 0.56724 0.25766
 C444 C 0.71442 0.59164 0.26562
 C445 C 0.67760 0.59948 0.30267
 C446 C 0.66245 0.57507 0.29409
 N447 N 0.67265 0.55970 0.27162
 H448 H 0.64036 0.50940 0.31662
 H449 H 0.58314 0.54231 0.25404
 H450 H 0.54025 0.54136 0.28666
 H451 H 0.59803 0.50754 0.35089
 H452 H 0.70601 0.55509 0.23957
 H453 H 0.73428 0.59787 0.25366
 H454 H 0.66867 0.61138 0.32042
 H455 H 0.64173 0.56920 0.30472
 C456 C 0.69185 0.44617 0.22939
 C457 C 0.60379 0.55853 0.17293
 C458 C 0.70350 0.60849 0.28794
 C459 C 0.56564 0.52448 0.32158
 C460 C 0.94673 0.47554 0.68051
 H461 H 0.95014 0.49749 0.68617
 C462 C 0.96485 0.46308 0.65969
 H463 H 0.98208 0.47578 0.64947
 C464 C 0.92080 0.43233 0.68804
 H465 H 0.90415 0.42017 0.69957
 C466 C 0.93833 0.41905 0.66730
 H467 H 0.93409 0.39699 0.66279
 N468 N 0.92508 0.46016 0.69407
 C469 C 0.86449 0.52416 0.72874
 H470 H 0.86457 0.51835 0.75084
 C471 C 0.84768 0.54723 0.71998
 H472 H 0.83511 0.55917 0.73563
 C473 C 0.88119 0.51560 0.68174
 H474 H 0.89392 0.50297 0.66683
 C475 C 0.86475 0.53854 0.67206
 H476 H 0.86508 0.54313 0.64968
 Zn477 Zn 0.90347 0.47837 0.72360
 N478 N 0.88109 0.50910 0.70972
 C479 C 0.93804 0.51939 0.75323
 N480 N 0.93280 0.49129 0.74959
 C481 C 0.94976 0.47176 0.76295
 C482 C 0.97218 0.48025 0.78181
 C483 C 0.96074 0.52878 0.77134
 C484 C 0.85445 0.44034 0.72512
 C485 C 0.83509 0.42003 0.73679
 C486 C 0.85893 0.42757 0.78196
 C487 C 0.87787 0.44762 0.76940
 N488 N 0.87600 0.45296 0.74125
 H489 H 0.92495 0.53456 0.74179
 H490 H 0.94569 0.44953 0.75904
 H491 H 0.98522 0.46449 0.79261
 H492 H 0.96444 0.55123 0.77418
 H493 H 0.85294 0.44547 0.70290
 H494 H 0.81895 0.40951 0.72323
 H495 H 0.86113 0.42365 0.80436
 H496 H 0.89414 0.45877 0.78223
 C497 C 0.84784 0.55485 0.69130
 C498 C 0.96084 0.43440 0.65283
 C499 C 0.83765 0.41294 0.76549
 C500 C 0.97792 0.50908 0.78603
 C501 C 0.22435 0.42676 0.03062
 H502 H 0.23373 0.42244 0.05117
 C503 C 0.20429 0.44882 0.02753
 H504 H 0.19811 0.46093 0.04613
 C505 C 0.22091 0.41527 -0.01815
 H506 H 0.22778 0.40226 -0.03589
 C507 C 0.20065 0.43734 -0.02223
 H508 H 0.19205 0.44112 -0.04320
 N509 N 0.23208 0.41036 0.00808
 C510 C 0.25783 0.33297 0.05084
 H511 H 0.28123 0.33064 0.04473
 C512 C 0.24413 0.31327 0.06892
 H513 H 0.25725 0.29581 0.07650
 C514 C 0.21226 0.35824 0.04776
 H515 H 0.19960 0.37546 0.03919
 C516 C 0.19779 0.33923 0.06575
 H517 H 0.17443 0.34286 0.07109
 Zn518 Zn 0.26015 0.38196 0.01640
 N519 N 0.24187 0.35512 0.04094
 C520 C 0.30334 0.39452 0.05987
 N521 N 0.29283 0.40091 0.03376
 C522 C 0.30448 0.42286 0.01878
 C523 C 0.32810 0.43902 0.02956
 C524 C 0.32704 0.41027 0.07157
 C525 C 0.25349 0.34805 -0.03234
 C526 C 0.26272 0.33439 -0.05722
 C527 C 0.31306 0.35265 -0.04992
 C528 C 0.30299 0.36560 -0.02504
 N529 N 0.27355 0.36352 -0.01698
 H530 H 0.29324 0.37745 0.07176
 H531 H 0.29535 0.42773 -0.00174
 H532 H 0.33713 0.45599 0.01680
 H533 H 0.33487 0.40499 0.09246
 H534 H 0.23029 0.34646 -0.02528
 H535 H 0.24640 0.32241 -0.06936
 H536 H 0.33658 0.35455 -0.05589
 H537 H 0.31886 0.37722 -0.01219
 C538 C 0.21364 0.31631 0.07667
 C539 C 0.19223 0.45453 0.00084
 C540 C 0.29282 0.33689 -0.06637
 C541 C 0.33978 0.43287 0.05632
 C542 C 0.66745 0.10478 -0.00949
 H543 H 0.67810 0.10158 -0.02994
 C544 C 0.64219 0.08881 -0.00204
 H545 H 0.63328 0.07368 -0.01711
 C546 C 0.66689 0.12812 0.03504
 H547 H 0.67714 0.14278 0.04974
 C548 C 0.64145 0.11256 0.04338
 H549 H 0.63240 0.11564 0.06450
 N550 N 0.67924 0.12401 0.00891
 C551 C 0.73069 0.17272 -0.05297
 H552 H 0.75374 0.17046 -0.04616
 C553 C 0.72455 0.18563 -0.07882
 H554 H 0.74302 0.19325 -0.09187
 C555 C 0.67858 0.16498 -0.04459
 H556 H 0.66059 0.15735 -0.03108
 C557 C 0.67148 0.17744 -0.07022
 H558 H 0.64805 0.17920 -0.07601
 Zn559 Zn 0.71557 0.14102 -0.00378
 N560 N 0.70781 0.16198 -0.03687
 C561 C 0.75312 0.10309 -0.03690
 N562 N 0.74064 0.10983 -0.01132
 C563 C 0.74244 0.09213 0.01107
 C564 C 0.75635 0.06614 0.00816
 C565 C 0.76783 0.07726 -0.04062
 C566 C 0.71754 0.18483 0.03801
 C567 C 0.72972 0.19904 0.06143
 C568 C 0.77529 0.17224 0.05521
 C569 C 0.76215 0.15838 0.03226
 N570 N 0.73340 0.16412 0.02469
 H571 H 0.75084 0.11715 -0.05462
 H572 H 0.73204 0.09793 0.03105
 H573 H 0.75707 0.05225 0.02622
 H574 H 0.77715 0.07169 -0.06115
 H575 H 0.69492 0.18946 0.03123
 H576 H 0.71611 0.21445 0.07251
 H577 H 0.79806 0.16683 0.06073
 H578 H 0.77484 0.14257 0.02085
 C579 C 0.69460 0.18740 -0.08798
 C580 C 0.62897 0.09241 0.02478
 C581 C 0.75872 0.19221 0.07085
 C582 C 0.76881 0.05825 -0.01801
 C583 C 0.19806 0.59173 0.51979
 H584 H 0.21768 0.58645 0.53184
 C585 C 0.17491 0.57173 0.51688
 H586 H 0.17707 0.55127 0.52667
 C587 C 0.17223 0.62353 0.49036
 H588 H 0.17155 0.64351 0.47951
 C589 C 0.14910 0.60387 0.48621
 H590 H 0.13079 0.60880 0.47214
 N591 N 0.19681 0.61672 0.50582
 C592 C 0.22739 0.68414 0.46018
 H593 H 0.23059 0.69842 0.47787
 C594 C 0.22095 0.69486 0.43343
 H595 H 0.21940 0.71746 0.43089
 C596 C 0.22402 0.63735 0.44246
 H597 H 0.22455 0.61489 0.44635
 C598 C 0.21752 0.64712 0.41544
 H599 H 0.21393 0.63190 0.39863
 Zn600 Zn 0.23134 0.64041 0.50105
 N601 N 0.22842 0.65580 0.46424
 C602 C 0.28461 0.61309 0.48094
 N603 N 0.26696 0.61851 0.50401
 C604 C 0.27383 0.60783 0.52976
 C605 C 0.29825 0.58981 0.53276
 C606 C 0.30920 0.59502 0.48295
 C607 C 0.20526 0.68212 0.53638
 C608 C 0.20486 0.70304 0.55741
 C609 C 0.25867 0.69812 0.56205
 C610 C 0.25805 0.67739 0.54089
 N611 N 0.23157 0.66957 0.52876
 H612 H 0.27937 0.62226 0.46075
 H613 H 0.26003 0.61306 0.54801
 H614 H 0.30294 0.58156 0.55351
 H615 H 0.32220 0.59032 0.46406
 H616 H 0.18451 0.67562 0.52635
 H617 H 0.18354 0.71225 0.56349
 H618 H 0.28005 0.70395 0.57132
 H619 H 0.27881 0.66755 0.53414
 C620 C 0.21534 0.67623 0.41071
 C621 C 0.15083 0.57734 0.49886
 C622 C 0.23181 0.71117 0.57072
 C623 C 0.31593 0.58259 0.50902
 C624 C 0.71711 0.92338 0.53901
 H625 H 0.72399 0.91729 0.55998
 C626 C 0.69751 0.94578 0.53577
 H627 H 0.68889 0.95637 0.55448
 C628 C 0.72086 0.91711 0.48928
 H629 H 0.73084 0.90637 0.47129
 C630 C 0.70098 0.93950 0.48505
 H631 H 0.69557 0.94578 0.46372
 N632 N 0.72865 0.90978 0.51602
 C633 C 0.76188 0.83466 0.55800
 H634 H 0.78580 0.83628 0.55364
 C635 C 0.75067 0.81287 0.57498
 H636 H 0.76631 0.79806 0.58383
 C637 C 0.71271 0.85237 0.55177
 H638 H 0.69791 0.86752 0.54230
 C639 C 0.70052 0.83086 0.56841
 H640 H 0.67638 0.82998 0.57139
 Zn641 Zn 0.75909 0.88395 0.52532
 N642 N 0.74295 0.85427 0.54742
 C643 C 0.79595 0.89965 0.57275
 N644 N 0.78759 0.90555 0.54584
 C645 C 0.79848 0.92867 0.53218
 C646 C 0.81918 0.94662 0.54527
 C647 C 0.81680 0.91703 0.58664
 C648 C 0.76179 0.85239 0.47429
 C649 C 0.77633 0.83799 0.45218
 C650 C 0.82398 0.85539 0.46973
 C651 C 0.80861 0.86941 0.49135
 N652 N 0.77807 0.86775 0.49326
 H653 H 0.78649 0.88157 0.58352
 H654 H 0.79101 0.93311 0.51096
 H655 H 0.82730 0.96488 0.53383
 H656 H 0.82350 0.91155 0.60782
 H657 H 0.73756 0.85090 0.47667
 H658 H 0.76301 0.82588 0.43728
 H659 H 0.84832 0.85648 0.46935
 H660 H 0.82131 0.88078 0.50719
 C661 C 0.71959 0.81100 0.58077
 C662 C 0.68972 0.95453 0.50856
 C663 C 0.80790 0.83931 0.44981
 C664 C 0.82886 0.94084 0.57282
 C665 C 0.00864 0.17913 0.40402
 H666 H 0.02798 0.19084 0.39619
 C667 C 0.01261 0.15794 0.42374
 H668 H 0.03508 0.15398 0.43135
 C669 C -0.04402 0.17045 0.40327
 H670 H -0.06593 0.17529 0.39487
 C671 C -0.04107 0.14901 0.42341
 H672 H -0.06081 0.13737 0.43047
 N673 N -0.01913 0.18455 0.39369
 C674 C 0.00923 0.21172 0.30973
 H675 H 0.00122 0.23316 0.30852
 C676 C 0.02861 0.20119 0.28870
 H677 H 0.03507 0.21468 0.27127
 C678 C 0.01104 0.16846 0.33428
 H679 H 0.00422 0.15558 0.35200
 C680 C 0.03023 0.15708 0.31378
 H681 H 0.03812 0.13581 0.31668
 Zn682 Zn -0.01816 0.21177 0.36461
 N683 N 0.00212 0.19577 0.33271
 C684 C 0.02934 0.25317 0.36613
 N685 N 0.00418 0.24297 0.37930
 C686 C -0.00595 0.25461 0.40396
 C687 C 0.00808 0.27857 0.41526
 C688 C 0.04414 0.27707 0.37674
 C689 C -0.07696 0.20604 0.34102
 C690 C -0.10495 0.21585 0.33188
 C691 C -0.09187 0.26202 0.35010
 C692 C -0.06410 0.25158 0.35824
 N693 N -0.05719 0.22396 0.35397
 H694 H 0.03799 0.24303 0.34730
 H695 H -0.02561 0.24571 0.41440
 H696 H -0.00121 0.28797 0.43431
 H697 H 0.06393 0.28482 0.36568
 H698 H -0.07080 0.18427 0.33739
 H699 H -0.12040 0.20151 0.32137
 H700 H -0.09657 0.28417 0.35348
 H701 H -0.04796 0.26593 0.36749
 C702 C 0.04024 0.17380 0.29112
 C703 C -0.01228 0.14218 0.43329
 C704 C -0.11265 0.24417 0.33666
 C705 C 0.03316 0.29049 0.40130
 C706 C -0.02731 0.71041 0.06985
 H707 H -0.04615 0.72319 0.07663
 C708 C -0.03137 0.68956 0.04919
 H709 H -0.05356 0.68606 0.04046
 C710 C 0.02473 0.70008 0.07259
 H711 H 0.04667 0.70478 0.08121
 C712 C 0.02163 0.67884 0.05223
 H713 H 0.04141 0.66736 0.04545
 N714 N 0.00043 0.71536 0.08091
 C715 C -0.00920 0.75897 0.16092
 H716 H 0.00498 0.77701 0.15608
 C717 C -0.02011 0.75521 0.18831
 H718 H -0.01458 0.77082 0.20432
 C719 C -0.03320 0.71668 0.14572
 H720 H -0.03764 0.70145 0.12911
 C721 C -0.04504 0.71229 0.17299
 H722 H -0.05867 0.69371 0.17726
 Zn723 Zn 0.00470 0.74638 0.10558
 N724 N -0.01555 0.73973 0.14034
 C725 C -0.03582 0.79097 0.09955
 N726 N -0.01203 0.77782 0.08714
 C727 C -0.00257 0.78468 0.06052
 C728 C -0.01810 0.80482 0.04488
 C729 C -0.05190 0.81103 0.08475
 C730 C 0.05856 0.73366 0.13201
 C731 C 0.08646 0.73938 0.14425
 C732 C 0.08769 0.78415 0.12014
 C733 C 0.05961 0.77766 0.10851
 N734 N 0.04549 0.75293 0.11496
 H735 H -0.04328 0.78506 0.12051
 H736 H 0.01617 0.77358 0.05099
 H737 H -0.01123 0.80920 0.02330
 H738 H -0.07120 0.82073 0.09491
 H739 H 0.04656 0.71437 0.13718
 H740 H 0.09606 0.72411 0.15841
 H741 H 0.09787 0.80449 0.11571
 H742 H 0.04851 0.79297 0.09549
 C743 C -0.03789 0.73146 0.19474
 C744 C -0.00664 0.67361 0.04002
 C745 C 0.10107 0.76519 0.13887
 C746 C -0.04370 0.81752 0.05678
 C747 C 0.51406 0.22191 0.57460
 H748 H 0.53253 0.23680 0.57581
 C749 C 0.51629 0.19875 0.55622
 H750 H 0.53627 0.19640 0.54313
 C751 C 0.46573 0.20671 0.58991
 H752 H 0.44616 0.20935 0.60322
 C753 C 0.46677 0.18361 0.57148
 H754 H 0.44787 0.16902 0.57081
 N755 N 0.48846 0.22621 0.59011
 C756 C 0.44797 0.26068 0.65964
 H757 H 0.46940 0.26473 0.66963
 C758 C 0.42275 0.25418 0.67637
 H759 H 0.42505 0.25344 0.69914
 C760 C 0.41937 0.25493 0.61789
 H761 H 0.41839 0.25448 0.59502
 C762 C 0.39377 0.24773 0.63379
 H763 H 0.37306 0.24228 0.62303
 Zn764 Zn 0.48246 0.26164 0.60906
 N765 N 0.44613 0.26003 0.63091
 C766 C 0.45677 0.30648 0.57607
 N767 N 0.48134 0.29036 0.58116
 C768 C 0.50767 0.29479 0.56688
 C769 C 0.50980 0.31510 0.54584
 C770 C 0.45802 0.32743 0.55528
 C771 C 0.53579 0.25145 0.64113
 C772 C 0.56140 0.26010 0.65609
 C773 C 0.54438 0.30827 0.65329
 C774 C 0.51888 0.29868 0.63904
 N775 N 0.51537 0.27082 0.63271
 H776 H 0.43626 0.30332 0.58815
 H777 H 0.52742 0.28300 0.57227
 H778 H 0.53116 0.31824 0.53505
 H779 H 0.43826 0.33994 0.55128
 H780 H 0.53252 0.22941 0.63577
 H781 H 0.57784 0.24461 0.66221
 H782 H 0.54709 0.33061 0.65756
 H783 H 0.50226 0.31361 0.63212
 C784 C 0.39554 0.24655 0.66338
 C785 C 0.49186 0.17995 0.55371
 C786 C 0.56618 0.28894 0.66169
 C787 C 0.48475 0.33161 0.53964
 C788 C 0.50894 0.70702 0.91744
 H789 H 0.53068 0.71654 0.92175
 C790 C 0.49611 0.68797 0.93661
 H791 H 0.50836 0.68317 0.95560
 C792 C 0.46687 0.70219 0.88734
 H793 H 0.45533 0.70793 0.86826
 C794 C 0.45324 0.68308 0.90584
 H795 H 0.43153 0.67439 0.90021
 N796 N 0.49450 0.71329 0.89309
 C797 C 0.56260 0.73641 0.83054
 H798 H 0.55365 0.75638 0.82377
 C799 C 0.58783 0.72521 0.81693
 H800 H 0.59832 0.73713 0.80003
 C801 C 0.55918 0.69675 0.86064
 H802 H 0.54752 0.68541 0.87724
 C803 C 0.58440 0.68470 0.84753
 H804 H 0.59179 0.66420 0.85437
 Zn805 Zn 0.51307 0.73817 0.86699
 N806 N 0.54886 0.72220 0.85200
 C807 C 0.54986 0.78393 0.88539
 N808 N 0.52148 0.77285 0.88586
 C809 C 0.49888 0.78582 0.90045
 C810 C 0.50429 0.81125 0.91483
 C811 C 0.55616 0.80941 0.89917
 C812 C 0.48340 0.72096 0.81826
 C813 C 0.46364 0.72234 0.79555
 C814 C 0.45200 0.77022 0.80936
 C815 C 0.47220 0.76799 0.83174
 N816 N 0.48698 0.74341 0.83604
 H817 H 0.56777 0.77303 0.87440
 H818 H 0.47659 0.77638 0.90085
 H819 H 0.48593 0.82142 0.92602
 H820 H 0.57894 0.81773 0.89852
 H821 H 0.49553 0.70170 0.82215
 H822 H 0.46059 0.70390 0.78224
 H823 H 0.44018 0.78983 0.80644
 H824 H 0.47567 0.78573 0.84584
 C825 C 0.59893 0.69886 0.82517
 C826 C 0.46799 0.67534 0.93077
 C827 C 0.44731 0.74708 0.79108
 C828 C 0.53321 0.82348 0.91404
 N829 N 0.07438 0.13665 0.27061
 N830 N 0.09876 0.13564 0.25440
 C831 C 0.10449 0.16168 0.24455
 C832 C 0.08294 0.18016 0.25471
 C833 C 0.06427 0.16348 0.27161
 H834 H 0.08247 0.20278 0.25196
 H835 H 0.06548 0.11915 0.28115
 H836 H 0.11140 0.11750 0.25066
 N837 N 0.64174 0.66455 0.81908
 N838 N 0.66251 0.65856 0.79970
 C839 C 0.65901 0.67608 0.77771
 C840 C 0.63519 0.69392 0.78321
 C841 C 0.62475 0.68604 0.80973
 H842 H 0.62647 0.71011 0.76963
 H843 H 0.63970 0.65423 0.83844
 H844 H 0.67872 0.64293 0.80179
 N845 N 0.42434 0.73144 0.74506
 N846 N 0.40025 0.73720 0.72998
 C847 C 0.38489 0.75783 0.74328
 C848 C 0.39982 0.76570 0.76774
 C849 C 0.42477 0.74835 0.76819
 H850 H 0.39298 0.78109 0.78348
 H851 H 0.44009 0.71613 0.73941
 H852 H 0.39449 0.72686 0.71119
 N853 N -0.15561 0.27756 0.33995
 N854 N -0.17900 0.28614 0.32265
 C855 C -0.17862 0.26951 0.29938
 C856 C -0.15571 0.24975 0.30154
 C857 C -0.14154 0.25587 0.32700
 H858 H -0.14854 0.23455 0.28573
 H859 H -0.14970 0.28736 0.35899
 H860 H -0.19300 0.30320 0.32708
 N861 N -0.03178 0.73630 0.24665
 N862 N -0.04967 0.73340 0.27075
 C863 C -0.07625 0.72209 0.26271
 C864 C -0.07580 0.71693 0.23362
 C865 C -0.04779 0.72697 0.22433
 H866 H -0.09436 0.70987 0.22059
 H867 H -0.01027 0.74541 0.24638
 H868 H -0.04322 0.73985 0.29099
 N869 N 0.35226 0.21350 0.67169
 N870 N 0.33379 0.20567 0.69443
 C871 C 0.34050 0.22293 0.71630
 C872 C 0.36319 0.24178 0.70828
 C873 C 0.37011 0.23502 0.68032
 H874 H 0.37416 0.25761 0.72128
 H875 H 0.35318 0.20295 0.65223
 H876 H 0.31789 0.18933 0.69389
 N877 N 0.60809 0.32371 0.66836
 N878 N 0.63370 0.32641 0.68506
 C879 C 0.63458 0.30363 0.70193
 C880 C 0.61019 0.28585 0.69618
 C881 C 0.59419 0.29923 0.67511
 H882 H 0.60443 0.26603 0.70617
 H883 H 0.60158 0.33818 0.65307
 H884 H 0.64845 0.34367 0.68465
 N885 N 0.14819 0.79377 0.14657
 N886 N 0.16752 0.79837 0.16724
 C887 C 0.16075 0.78079 0.18867
 C888 C 0.13625 0.76411 0.18139
 C889 C 0.12866 0.77325 0.15452
 H890 H 0.12407 0.74938 0.19474
 H891 H 0.14810 0.80513 0.12773
 H892 H 0.18438 0.81386 0.16682
 N893 N 0.32535 0.11680 0.18892
 N894 N 0.30581 0.13670 0.18299
 C895 C 0.28171 0.13372 0.20027
 C896 C 0.28614 0.11112 0.21821
 C897 C 0.31415 0.10086 0.21018
 H898 H 0.27078 0.10261 0.23394
 H899 H 0.34590 0.11419 0.17834
 H900 H 0.30887 0.15149 0.16694
 N901 N 0.83582 0.59329 0.65696
 N902 N 0.81682 0.61446 0.65501
 C903 C 0.79913 0.61475 0.67831
 C904 C 0.80718 0.59288 0.69592
 C905 C 0.83065 0.57965 0.68156
 H906 H 0.79722 0.58728 0.71610
 H907 H 0.85230 0.58875 0.64174
 H908 H 0.81624 0.62832 0.63797
 N909 N 0.82619 0.37633 0.80209
 N910 N 0.80496 0.35492 0.80638
 C911 C 0.78530 0.35583 0.78485
 C912 C 0.79332 0.37758 0.76659
 C913 C 0.81913 0.38988 0.77806
 H914 H 0.78215 0.38342 0.74730
 H915 H 0.84491 0.37974 0.81491
 H916 H 0.80526 0.34087 0.82326
 N917 N 0.27606 -0.09573 0.33300
 N918 N 0.25816 -0.12001 0.33453
 C919 C 0.24853 -0.12585 0.30816
 C920 C 0.25942 -0.10559 0.28953
 C921 C 0.27704 -0.08742 0.30575
 H922 H 0.25715 -0.10555 0.26677
 H923 H 0.28732 -0.08674 0.35018
 H924 H 0.25422 -0.13153 0.35296
 N925 N 0.23708 -0.10634 0.80546
 N926 N 0.25557 -0.12783 0.79538
 C927 C 0.24453 -0.13656 0.77029
 C928 C 0.21902 -0.12115 0.76385
 C929 C 0.21523 -0.10226 0.78632
 H930 H 0.20551 -0.12286 0.74498
 H931 H 0.24117 -0.09466 0.82386
 H932 H 0.27455 -0.13504 0.80586
 N933 N 0.70424 0.41449 0.18850
 N934 N 0.71360 0.38845 0.18406
 C935 C 0.71769 0.37614 0.20929
 C936 C 0.71045 0.39503 0.23083
 C937 C 0.70205 0.41924 0.21664
 H938 H 0.71160 0.39186 0.25344
 H939 H 0.69917 0.42858 0.17238
 H940 H 0.71757 0.37968 0.16406
 N941 N 0.70326 0.65718 0.30857
 N942 N 0.72242 0.67808 0.31325
 C943 C 0.74958 0.67074 0.30287
 C944 C 0.74777 0.64397 0.29086
 C945 C 0.71785 0.63593 0.29529
 H946 H 0.76586 0.63160 0.28179
 H947 H 0.68056 0.65772 0.31448
 H948 H 0.71686 0.69686 0.32364
 N949 N 0.20949 0.11229 0.86164
 N950 N 0.22625 0.13726 0.86093
 C951 C 0.23739 0.14016 0.83445
 C952 C 0.22836 0.11727 0.81788
 C953 C 0.21066 0.10043 0.83564
 H954 H 0.23289 0.11388 0.79559
 H955 H 0.19825 0.10469 0.87956
 H956 H 0.22897 0.15080 0.87824
 N957 N 0.16814 0.29440 0.10003
 N958 N 0.16198 0.27474 0.11890
 C959 C 0.18801 0.26325 0.12719
 C960 C 0.21189 0.27603 0.11298
 C961 C 0.19829 0.29596 0.09593
 H962 H 0.23564 0.27178 0.11521
 H963 H 0.15160 0.30613 0.09006
 H964 H 0.14024 0.26929 0.12559
 N965 N 0.67941 0.79025 0.61218
 N966 N 0.67627 0.76917 0.63006
 C967 C 0.70186 0.75418 0.62984
 C968 C 0.72226 0.76608 0.61097
 C969 C 0.70715 0.78923 0.60021
 H970 H 0.74512 0.75948 0.60672
 H971 H 0.66298 0.80554 0.60928
 H972 H 0.65706 0.76561 0.64249
 N973 N 0.85290 0.82924 0.41912
 N974 N 0.86099 0.81091 0.39940
 C975 C 0.83769 0.79319 0.39461
 C976 C 0.81361 0.80053 0.41194
 C977 C 0.82427 0.82358 0.42733
 H978 H 0.79176 0.79034 0.41340
 H979 H 0.86688 0.84552 0.42638
 H980 H 0.88207 0.81090 0.38946
 N981 N 0.32636 0.33220 -0.10908
 N982 N 0.32967 0.31476 -0.13082
 C983 C 0.30884 0.29408 -0.12853
 C984 C 0.29133 0.29852 -0.10455
 C985 C 0.30321 0.32298 -0.09275
 H986 H 0.27285 0.28568 -0.09665
 H987 H 0.33960 0.35023 -0.10580
 H988 H 0.34610 0.31700 -0.14662
 N989 N 0.66235 0.19168 -0.13080
 N990 N 0.66216 0.20605 -0.15461
 C991 C 0.68687 0.22271 -0.15547
 C992 C 0.70369 0.21873 -0.13126
 C993 C 0.68719 0.19890 -0.11605
 H994 H 0.72439 0.22924 -0.12519
 H995 H 0.64573 0.17703 -0.12503
 H996 H 0.64514 0.20451 -0.16965
 N997 N 0.19277 0.67142 0.36223
 N998 N 0.18761 0.68761 0.34017
 C999 C 0.19786 0.71379 0.34601
 C1000 C 0.21009 0.71438 0.37289
 C1001 C 0.20648 0.68697 0.38255
 H1002 H 0.22041 0.73211 0.38370
 H1003 H 0.18643 0.65019 0.36326
 H1004 H 0.17721 0.68066 0.32163
 N1005 N 0.20979 0.75156 0.59867
 N1006 N 0.21685 0.76710 0.62106
 C1007 C 0.24360 0.75848 0.63083
 C1008 C 0.25412 0.73659 0.61398
 C1009 C 0.23192 0.73274 0.59373
 H1010 H 0.27460 0.72473 0.61650
 H1011 H 0.19018 0.75417 0.58700
 H1012 H 0.20339 0.78317 0.62932
 N1013 N 0.79519 0.19406 0.11116
 N1014 N 0.79891 0.20812 0.13511
 C1015 C 0.77748 0.22790 0.13721
 C1016 C 0.75924 0.22652 0.11355
 C1017 C 0.77120 0.20451 0.09742
 H1018 H 0.73958 0.23906 0.10932
 H1019 H 0.80849 0.17697 0.10514
 H1020 H 0.81568 0.20382 0.14976
 N1021 N 0.50666 0.35186 0.49520
 N1022 N 0.50426 0.37497 0.48000
 C1023 C 0.48314 0.39145 0.49205
 C1024 C 0.47134 0.37826 0.51587
 C1025 C 0.48710 0.35316 0.51720
 H1026 H 0.45461 0.38616 0.53063
 H1027 H 0.52150 0.33552 0.49035
 H1028 H 0.51713 0.37919 0.46190
 N1029 N -0.09385 0.83587 0.04444
 N1030 N -0.10602 0.85537 0.02612
 C1031 C -0.08323 0.86642 0.01055
 C1032 C -0.05615 0.85391 0.01814
 C1033 C -0.06389 0.83526 0.03987
 H1034 H -0.03378 0.85874 0.01016
 H1035 H -0.10641 0.82387 0.05884
 H1036 H -0.12893 0.85996 0.02535
 N1037 N -0.03046 0.65340 -0.00361
 N1038 N -0.02458 0.63130 -0.02251
 C1039 C -0.00075 0.61720 -0.01249
 C1040 C 0.00892 0.62961 0.01254
 C1041 C -0.00995 0.65231 0.01724
 H1042 H 0.02780 0.62351 0.02535
 H1043 H -0.04682 0.66876 -0.00652
 H1044 H -0.03649 0.62735 -0.04107
 N1045 N 0.46674 0.14855 0.51816
 N1046 N 0.47453 0.12949 0.49896
 C1047 C 0.50452 0.12599 0.50015
 C1048 C 0.51653 0.14358 0.52077
 C1049 C 0.49170 0.15760 0.53173
 H1050 H 0.53984 0.14579 0.52696
 H1051 H 0.44473 0.15551 0.52144
 H1052 H 0.45942 0.11893 0.48570
 N1053 N 0.01878 0.10443 0.45451
 N1054 N 0.01775 0.08767 0.47664
 C1055 C -0.00920 0.09052 0.48945
 C1056 C -0.02634 0.10992 0.47499
 C1057 C -0.00739 0.11861 0.45304
 H1058 H -0.04800 0.11841 0.48111
 H1059 H 0.03755 0.10653 0.44119
 H1060 H 0.03562 0.07529 0.48333
 N1061 N 0.42757 0.64095 0.94612
 N1062 N 0.42362 0.62085 0.96725
 C1063 C 0.44819 0.62191 0.98371
 C1064 C 0.46806 0.64245 0.97378
 C1065 C 0.45453 0.65382 0.95003
 H1066 H 0.48996 0.64768 0.98221
 H1067 H 0.41202 0.64440 0.93015
 H1068 H 0.40484 0.60757 0.96913
 N1069 N 0.56186 0.86878 0.92077
 N1070 N 0.56157 0.89083 0.93800
 C1071 C 0.53918 0.88724 0.95710
 C1072 C 0.52438 0.86189 0.95176
 C1073 C 0.53959 0.85074 0.92845
 H1074 H 0.50564 0.85268 0.96333
 H1075 H 0.57696 0.86645 0.90385
 H1076 H 0.57669 0.90777 0.93664
 N1077 N 0.06565 0.33390 0.39632
 N1078 N 0.07257 0.35659 0.41139
 C1079 C 0.05871 0.35468 0.43676
 C1080 C 0.04231 0.32975 0.43804
 C1081 C 0.04720 0.31708 0.41180
 H1082 H 0.02843 0.32225 0.45539
 H1083 H 0.07293 0.33064 0.37549
 H1084 H 0.08628 0.37305 0.40409
 N1085 N 0.34304 0.54321 0.53293
 N1086 N 0.36572 0.52611 0.52753
 C1087 C 0.37807 0.53317 0.50242
 C1088 C 0.36270 0.55576 0.49126
 C1089 C 0.34038 0.56152 0.51132
 H1090 H 0.36673 0.56592 0.47116
 H1091 H 0.32920 0.54153 0.55082
 H1092 H 0.37219 0.50978 0.54080
 N1093 N 0.77102 0.00713 -0.00719
 N1094 N 0.79038 -0.01520 -0.01263
 C1095 C 0.81239 -0.00563 -0.03003
 C1096 C 0.80733 0.02254 -0.03657
 C1097 C 0.78154 0.02978 -0.02137
 H1098 H 0.82164 0.03655 -0.04881
 H1099 H 0.75225 0.00614 0.00626
 H1100 H 0.78807 -0.03515 -0.00364
 N1101 N 0.58384 0.08071 0.05491
 N1102 N 0.56433 0.05969 0.05777
 C1103 C 0.57076 0.03976 0.03820
 C1104 C 0.59525 0.04838 0.02210
 C1105 C 0.60306 0.07452 0.03352
 H1106 H 0.60647 0.03676 0.00533
 H1107 H 0.58373 0.09891 0.06748
 H1108 H 0.54716 0.05919 0.07300
 N1109 N 0.12616 0.54839 0.46186
 N1110 N 0.11164 0.52227 0.46016
 C1111 C 0.10699 0.51327 0.48684
 C1112 C 0.11851 0.53292 0.50600
 C1113 C 0.13068 0.55437 0.48941
 H1114 H 0.11982 0.53100 0.52876
 H1115 H 0.13443 0.55969 0.44451
 H1116 H 0.10577 0.51210 0.44132
 N1117 N 0.16834 0.49945 0.01666
 N1118 N 0.14452 0.51629 0.00851
 C1119 C 0.13322 0.50521 -0.01554
 C1120 C 0.14948 0.48138 -0.02341
 C1121 C 0.17098 0.47822 -0.00234
 H1122 H 0.14518 0.46737 -0.04111
 H1123 H 0.18144 0.50332 0.03451
 H1124 H 0.13750 0.53421 0.01958
 N1125 N 0.67111 1.00148 0.52434
 N1126 N 0.65023 1.02122 0.51560
 C1127 C 0.63799 1.01148 0.49138
 C1128 C 0.65091 0.98574 0.48393
 C1129 C 0.67126 0.98011 0.50536
 H1130 H 0.64539 0.97226 0.46611
 H1131 H 0.68422 1.00355 0.54247
 H1132 H 0.64532 1.03977 0.52665
 N1133 N 0.85910 0.95855 0.61426
 N1134 N 0.88136 0.97668 0.61886
 C1135 C 0.88840 0.98942 0.59428
 C1136 C 0.87001 0.97907 0.57312
 C1137 C 0.85171 0.95929 0.58659
 H1138 H 0.87097 0.98428 0.55089
 H1139 H 0.84946 0.94593 0.62998
 H1140 H 0.89152 0.97994 0.63846
 N1141 N 0.38261 0.44261 0.08974
 N1142 N 0.40357 0.46229 0.09349
 C1143 C 0.39957 0.48265 0.07420
 C1144 C 0.37513 0.47581 0.05755
 C1145 C 0.36496 0.45009 0.06795
 H1146 H 0.36637 0.48773 0.04009
 H1147 H 0.38116 0.42413 0.10157
 H1148 H 0.42042 0.46133 0.10869
 N1149 N 0.51790 0.54516 0.34084
 N1150 N 0.49915 0.54116 0.36234
 C1151 C 0.50914 0.51943 0.37770
 C1152 C 0.53553 0.50918 0.36565
 C1153 C 0.54030 0.52614 0.34217
 H1154 H 0.54909 0.49180 0.37272
 H1155 H 0.51545 0.56100 0.32582
 H1156 H 0.47980 0.55302 0.36605
 N1157 N -0.00982 0.00867 0.85428
 N1158 N -0.03332 0.00286 0.87050
 C1159 C -0.02584 -0.01761 0.88869
 C1160 C 0.00387 -0.02544 0.88371
 C1161 C 0.01332 -0.00788 0.86169
 H1162 H 0.01679 -0.04110 0.89474
 H1163 H -0.01014 0.02346 0.83803
 H1164 H -0.05411 0.01271 0.86862
 N1165 N 0.09852 0.05605 0.66205
 N1166 N 0.08116 0.06073 0.64007
 C1167 C 0.05545 0.04576 0.64335
 C1168 C 0.05644 0.03075 0.66836
 C1169 C 0.08421 0.03798 0.67967
 H1170 H 0.03920 0.01718 0.67739
 H1171 H 0.11986 0.06508 0.66466
 H1172 H 0.08694 0.07417 0.62346
 N1173 N 0.59421 0.59044 0.13183
 N1174 N 0.57393 0.59286 0.11170
 C1175 C 0.55385 0.57154 0.11430
 C1176 C 0.56163 0.55476 0.13682
 C1177 C 0.58738 0.56750 0.14749
 H1178 H 0.54965 0.53652 0.14495
 H1179 H 0.61231 0.60437 0.13462
 H1180 H 0.57385 0.60907 0.09687
 N1181 N 0.41461 -0.08792 0.13193
 N1182 N 0.43077 -0.09105 0.10840
 C1183 C 0.45362 -0.07225 0.10895
 C1184 C 0.45225 -0.05679 0.13375
 C1185 C 0.42697 -0.06701 0.14781
 H1186 H 0.46697 -0.03958 0.13983
 H1187 H 0.39484 -0.09924 0.13618
 H1188 H 0.42527 -0.10484 0.09186
 N1189 N 0.98130 0.39254 0.62604
 N1190 N 0.99927 0.38772 0.60413
 C1191 C 1.00987 0.41261 0.59463
 C1192 C 0.99825 0.43427 0.61104
 C1193 C 0.97992 0.42066 0.63078
 H1194 H 1.00160 0.45668 0.60809
 H1195 H 0.97028 0.37659 0.63731
 H1196 H 1.00390 0.36771 0.59589
 N1197 N 1.01721 0.54289 0.80337
 N1198 N 1.03253 0.54730 0.82682
 C1199 C 1.02699 0.52583 0.84465
 C1200 C 1.00703 0.50700 0.83224
 C1201 C 1.00129 0.51868 0.80601
 H1202 H 0.99562 0.48931 0.84212
 H1203 H 1.01666 0.55697 0.78648
 H1204 H 1.04484 0.56566 0.83129
 N1205 N 0.50229 -0.01609 0.33264
 N1206 N 0.52109 -0.00943 0.35319
 C1207 C 0.51020 0.01313 0.36725
 C1208 C 0.48338 0.02136 0.35510
 C1209 C 0.47907 0.00212 0.33319
 H1210 H 0.46869 0.03830 0.36170
 H1211 H 0.50562 -0.03279 0.31846
 H1212 H 0.54081 -0.02039 0.35738
   
