data_POSCAR
  _audit_creation_date              2014-09-24
  _audit_creation_method            'ToBaCCo'
  _symmetry_space_group_name_H-M    'P1'
  _symmetry_Int_Tables_number       1
  _symmetry_cell_setting            triclinic
  loop_
  _symmetry_equiv_pos_as_xyz
 x,y,z
_cell_length_a 47.3443
_cell_length_b 62.0707
_cell_length_c 43.6585
_cell_angle_alpha 89.913600
_cell_angle_beta 90.007800
_cell_angle_gamma 89.935700
loop_
  _atom_site_label
  _atom_site_type_symbol
  _atom_site_fract_x
  _atom_site_fract_y
  _atom_site_fract_z
O1 O 0.21607 0.22957 0.24376
 O2 O 0.25539 0.27112 0.28620
 O3 O 0.21587 0.27150 0.24476
 O4 O 0.25547 0.22911 0.28539
 O5 O 0.28802 0.22954 0.24908
 O6 O 0.24840 0.27197 0.20841
 O7 O 0.28793 0.27156 0.24986
 O8 O 0.24862 0.23004 0.20744
 Cu9 Cu 0.23244 0.25027 0.26871
 Cu10 Cu 0.27154 0.25082 0.22505
 C11 C 0.22569 0.22282 0.21841
 C12 C 0.27826 0.27840 0.27514
 C13 C 0.22544 0.27888 0.21973
 C14 C 0.27839 0.22214 0.27408
 O15 O 0.78744 0.26981 0.24961
 O16 O 0.74903 0.22847 0.29360
 O17 O 0.78767 0.22783 0.25116
 O18 O 0.74890 0.27037 0.29224
 O19 O 0.71559 0.26975 0.25673
 O20 O 0.75438 0.22720 0.21563
 O21 O 0.71575 0.22787 0.25806
 O22 O 0.75412 0.26918 0.21411
 Cu23 Cu 0.77164 0.24919 0.27522
 Cu24 Cu 0.73162 0.24844 0.23253
 C25 C 0.77725 0.27647 0.22444
 C26 C 0.72587 0.22121 0.28327
 C27 C 0.77755 0.22031 0.22649
 C28 C 0.72566 0.27719 0.28148
 O29 O 0.75402 0.77219 0.78585
 O30 O 0.71543 0.72966 0.74462
 O31 O 0.75383 0.73023 0.78741
 O32 O 0.71553 0.77155 0.74327
 O33 O 0.74892 0.77091 0.70786
 O34 O 0.78725 0.72956 0.75204
 O35 O 0.74885 0.72901 0.70925
 O36 O 0.78742 0.77153 0.75045
 Cu37 Cu 0.73135 0.75097 0.76887
 Cu38 Cu 0.77150 0.75017 0.72635
 C39 C 0.77722 0.77906 0.77508
 C40 C 0.72559 0.72221 0.71992
 C41 C 0.77701 0.72292 0.77719
 C42 C 0.72573 0.77819 0.71811
 O43 O 0.28654 0.77072 0.75086
 O44 O 0.24673 0.72816 0.79085
 O45 O 0.28655 0.72872 0.74976
 O46 O 0.24684 0.77009 0.79216
 O47 O 0.21455 0.77071 0.75556
 O48 O 0.25428 0.72931 0.71314
 O49 O 0.21447 0.72877 0.75422
 O50 O 0.25425 0.77131 0.71427
 Cu51 Cu 0.26994 0.74937 0.77459
 Cu52 Cu 0.23115 0.75009 0.73059
 C53 C 0.27708 0.77822 0.72583
 C54 C 0.22389 0.72128 0.77926
 C55 C 0.27708 0.72198 0.72435
 C56 C 0.22399 0.77738 0.78104
 C57 C 0.98617 -0.00035 0.00036
 C58 C 1.01498 -0.00034 0.00015
 C59 C 1.03152 0.01702 0.01518
 C60 C 1.03138 -0.01771 -0.01511
 C61 C 0.96962 -0.01610 -0.01788
 C62 C 0.96980 0.01540 0.01884
 C63 C 1.02680 0.03879 0.00785
 C64 C 1.04217 0.05498 0.02254
 C65 C 1.06260 0.04957 0.04444
 C66 C 1.06777 0.02790 0.05140
 C67 C 1.05239 0.01170 0.03676
 C68 C 1.05197 -0.01238 -0.03699
 C69 C 1.06722 -0.02858 -0.05185
 C70 C 1.06221 -0.05025 -0.04480
 C71 C 1.04208 -0.05567 -0.02260
 C72 C 1.02683 -0.03948 -0.00770
 C73 C 0.94900 -0.02882 -0.00348
 C74 C 0.93362 -0.04393 -0.02029
 C75 C 0.93854 -0.04637 -0.05172
 C76 C 0.95870 -0.03347 -0.06635
 C77 C 0.97407 -0.01832 -0.04956
 C78 C 0.97463 0.01763 0.05045
 C79 C 0.95943 0.03278 0.06745
 C80 C 0.93905 0.04568 0.05311
 C81 C 0.93375 0.04324 0.02176
 C82 C 0.94896 0.02812 0.00473
 H83 H 1.01118 0.04321 -0.00917
 H84 H 1.03810 0.07170 0.01687
 H85 H 1.08358 0.02353 0.06826
 H86 H 1.05646 -0.00499 0.04259
 H87 H 1.05591 0.00430 -0.04288
 H88 H 1.08279 -0.02421 -0.06893
 H89 H 1.01144 -0.04390 0.00954
 H90 H 0.94513 -0.02725 0.02087
 H91 H 0.91802 -0.05380 -0.00877
 H92 H 0.96257 -0.03516 -0.09068
 H93 H 0.98949 -0.00838 -0.06121
 H94 H 0.99022 0.00768 0.06188
 H95 H 0.96360 0.03447 0.09173
 H96 H 0.91798 0.05310 0.01046
 H97 H 0.94480 0.02655 -0.01956
 H98 H 1.03814 -0.07238 -0.01687
 C99 C 0.48545 0.50014 0.50013
 C100 C 0.51426 0.50007 0.50023
 C101 C 0.53075 0.51732 0.51556
 C102 C 0.53074 0.48274 0.48500
 C103 C 0.46900 0.48435 0.48184
 C104 C 0.46898 0.51600 0.51831
 C105 C 0.52634 0.53914 0.50823
 C106 C 0.54172 0.55521 0.52317
 C107 C 0.56185 0.54963 0.54532
 C108 C 0.56671 0.52792 0.55229
 C109 C 0.55132 0.51184 0.53740
 C110 C 0.55144 0.48813 0.46328
 C111 C 0.56680 0.47198 0.44847
 C112 C 0.56179 0.45029 0.45539
 C113 C 0.54153 0.44481 0.47743
 C114 C 0.52617 0.46095 0.49229
 C115 C 0.44836 0.47162 0.49619
 C116 C 0.43321 0.45637 0.47939
 C117 C 0.43836 0.45381 0.44803
 C118 C 0.45850 0.46675 0.43344
 C119 C 0.47365 0.48204 0.45021
 C120 C 0.47347 0.51829 0.54997
 C121 C 0.45828 0.53363 0.56666
 C122 C 0.43826 0.54665 0.55194
 C123 C 0.43328 0.54412 0.52054
 C124 C 0.44847 0.52882 0.50383
 H125 H 0.51096 0.54368 0.49102
 H126 H 0.53790 0.57196 0.51750
 H127 H 0.58228 0.52343 0.56933
 H128 H 0.55516 0.49513 0.54322
 H129 H 0.55540 0.50483 0.45749
 H130 H 0.58248 0.47640 0.43152
 H131 H 0.51069 0.45648 0.50941
 H132 H 0.44435 0.47326 0.52050
 H133 H 0.41762 0.44647 0.49088
 H134 H 0.46256 0.46497 0.40915
 H135 H 0.48909 0.49199 0.43861
 H136 H 0.48880 0.50828 0.56168
 H137 H 0.46220 0.53538 0.59097
 H138 H 0.41779 0.55408 0.50895
 H139 H 0.44458 0.52720 0.47949
 H140 H 0.53759 0.42807 0.48306
 C141 C 0.01108 0.49988 -0.00051
 C142 C -0.01772 0.49999 -0.00020
 C143 C -0.03413 0.48260 0.01500
 C144 C -0.03424 0.51750 -0.01503
 C145 C 0.02747 0.51581 -0.01867
 C146 C 0.02767 0.48384 0.01729
 C147 C -0.02972 0.46085 0.00738
 C148 C -0.04485 0.44463 0.02236
 C149 C -0.06472 0.44999 0.04486
 C150 C -0.06963 0.47164 0.05208
 C151 C -0.05450 0.48787 0.03714
 C152 C -0.05504 0.51238 -0.03676
 C153 C -0.07026 0.52873 -0.05140
 C154 C -0.06501 0.55034 -0.04428
 C155 C -0.04471 0.55555 -0.02218
 C156 C -0.02949 0.53921 -0.00749
 C157 C 0.04831 0.52831 -0.00429
 C158 C 0.06360 0.54355 -0.02101
 C159 C 0.05839 0.54635 -0.05233
 C160 C 0.03800 0.53368 -0.06695
 C161 C 0.02270 0.51841 -0.05025
 C162 C 0.02347 0.48129 0.04897
 C163 C 0.03896 0.46592 0.06534
 C164 C 0.05896 0.45312 0.05028
 C165 C 0.06360 0.45587 0.01886
 C166 C 0.04812 0.47121 0.00246
 H167 H -0.01450 0.45648 -0.01006
 H168 H -0.04099 0.42793 0.01650
 H169 H -0.08500 0.47596 0.06940
 H170 H -0.05832 0.50453 0.04320
 H171 H -0.05913 0.49575 -0.04275
 H172 H -0.08597 0.52452 -0.06841
 H173 H -0.01393 0.54347 0.00963
 H174 H 0.05242 0.52646 0.01998
 H175 H 0.07939 0.55323 -0.00949
 H176 H 0.03390 0.53564 -0.09121
 H177 H 0.00711 0.50864 -0.06190
 H178 H 0.00819 0.49117 0.06095
 H179 H 0.03530 0.46400 0.08969
 H180 H 0.07907 0.44608 0.00700
 H181 H 0.05178 0.47302 -0.02189
 H182 H -0.04057 0.57221 -0.01639
 C183 C 0.51204 1.00041 0.49982
 C184 C 0.48323 1.00043 0.49978
 C185 C 0.46679 0.98471 0.51827
 C186 C 0.46681 1.01617 0.48125
 C187 C 0.52855 1.01775 0.48466
 C188 C 0.52852 0.98303 0.51503
 C189 C 0.44615 0.97190 0.50411
 C190 C 0.43110 0.95666 0.52112
 C191 C 0.43635 0.95420 0.55249
 C192 C 0.45646 0.96725 0.56689
 C193 C 0.47151 0.98251 0.54991
 C194 C 0.47161 1.01837 0.44962
 C195 C 0.45655 1.03363 0.43258
 C196 C 0.43634 1.04665 0.44691
 C197 C 0.43102 1.04420 0.47827
 C198 C 0.44609 1.02897 0.49533
 C199 C 0.52397 1.03953 0.49200
 C200 C 0.53957 1.05569 0.47746
 C201 C 0.56009 1.05023 0.45570
 C202 C 0.56506 1.02857 0.44867
 C203 C 0.54945 1.01240 0.46315
 C204 C 0.54935 0.98835 0.53663
 C205 C 0.56489 0.97216 0.55119
 C206 C 0.55994 0.95049 0.54415
 C207 C 0.53950 0.94508 0.52229
 C208 C 0.52395 0.96126 0.50768
 H209 H 0.44209 0.97344 0.47979
 H210 H 0.41555 0.94668 0.50976
 H211 H 0.46060 0.96555 0.59118
 H212 H 0.48694 0.99253 0.56138
 H213 H 0.48711 1.00836 0.43821
 H214 H 0.46073 1.03532 0.40831
 H215 H 0.44196 1.02742 0.51964
 H216 H 0.50834 1.04397 0.50897
 H217 H 0.53566 1.07240 0.48319
 H218 H 0.58093 1.02417 0.43192
 H219 H 0.55342 0.99571 0.45733
 H220 H 0.55330 1.00503 0.54247
 H221 H 0.58070 0.97652 0.56801
 H222 H 0.53560 0.92837 0.51656
 H223 H 0.50838 0.95685 0.49064
 H224 H 0.41538 1.05416 0.48956
 C225 C 1.21037 0.20669 0.20181
 C226 C 1.19754 0.19313 0.18782
 C227 C 1.18228 0.17693 0.17108
 C228 C 1.19647 0.15885 0.15969
 C229 C 1.18167 0.14307 0.14350
 C230 C 1.15243 0.14517 0.13846
 C231 C 1.13837 0.16344 0.14996
 C232 C 1.15322 0.17920 0.16617
 C233 C 1.13666 0.12834 0.12142
 C234 C 1.11553 0.13408 0.10024
 C235 C 1.10062 0.11819 0.08433
 C236 C 1.10661 0.09639 0.08940
 C237 C 1.12760 0.09052 0.11038
 C238 C 1.14255 0.10637 0.12629
 C239 C 1.09110 0.08003 0.07328
 C240 C 1.07811 0.06621 0.05999
 H241 H 1.21898 0.15697 0.16329
 H242 H 1.19316 0.12934 0.13460
 H243 H 1.11583 0.16539 0.14681
 H244 H 1.14201 0.19311 0.17495
 H245 H 1.11076 0.15084 0.09570
 H246 H 1.08444 0.12292 0.06809
 H247 H 1.13233 0.07369 0.11456
 H248 H 1.15841 0.10143 0.14273
 C249 C 0.71039 0.70586 0.70363
 C250 C 0.69757 0.69222 0.68980
 C251 C 0.68220 0.67601 0.67319
 C252 C 0.69611 0.65758 0.66255
 C253 C 0.68121 0.64188 0.64630
 C254 C 0.65216 0.64442 0.64046
 C255 C 0.63838 0.66302 0.65125
 C256 C 0.65332 0.67869 0.66751
 C257 C 0.63629 0.62772 0.62326
 C258 C 0.61583 0.63365 0.60142
 C259 C 0.60083 0.61791 0.58535
 C260 C 0.60605 0.59606 0.59089
 C261 C 0.62637 0.58999 0.61253
 C262 C 0.64141 0.60570 0.62861
 C263 C 0.59045 0.57984 0.57456
 C264 C 0.57740 0.56614 0.56109
 H265 H 0.71849 0.65539 0.66672
 H266 H 0.69249 0.62788 0.63796
 H267 H 0.61597 0.66531 0.64748
 H268 H 0.64233 0.69288 0.67570
 H269 H 0.61167 0.65046 0.59650
 H270 H 0.58518 0.62278 0.56859
 H271 H 0.63050 0.57311 0.61708
 H272 H 0.65674 0.60061 0.64556
 C273 C -0.20786 0.29259 0.20730
 C274 C -0.19543 0.30615 0.19283
 C275 C -0.18069 0.32237 0.17553
 C276 C -0.15170 0.32029 0.17000
 C277 C -0.13737 0.33608 0.15324
 C278 C -0.15187 0.35418 0.14179
 C279 C -0.18103 0.35610 0.14745
 C280 C -0.19532 0.34029 0.16419
 C281 C -0.13664 0.37105 0.12418
 C282 C -0.14272 0.39300 0.12886
 C283 C -0.12826 0.40887 0.11243
 C284 C -0.10757 0.40305 0.09109
 C285 C -0.10140 0.38128 0.08620
 C286 C -0.11583 0.36536 0.10263
 C287 C -0.09251 0.41946 0.07448
 C288 C -0.07986 0.43331 0.06082
 H289 H -0.14015 0.30651 0.17874
 H290 H -0.11486 0.33428 0.14962
 H291 H -0.19286 0.36969 0.13861
 H292 H -0.21778 0.34203 0.16826
 H293 H -0.15834 0.39790 0.14557
 H294 H -0.13311 0.42569 0.11649
 H295 H -0.08546 0.37659 0.06970
 H296 H -0.11092 0.34861 0.09823
 C297 C 0.29243 0.79489 0.71031
 C298 C 0.30520 0.80893 0.69718
 C299 C 0.32032 0.82571 0.68139
 C300 C 0.34955 0.82407 0.67722
 C301 C 0.36419 0.84028 0.66164
 C302 C 0.34976 0.85837 0.65003
 C303 C 0.32038 0.85990 0.65445
 C304 C 0.30579 0.84366 0.67002
 C305 C 0.36524 0.87549 0.63317
 C306 C 0.35857 0.89736 0.63769
 C307 C 0.37301 0.91344 0.62160
 C308 C 0.39427 0.90788 0.60079
 C309 C 0.40110 0.88619 0.59618
 C310 C 0.38671 0.87009 0.61225
 C311 C 0.40899 0.92438 0.58401
 C312 C 0.42140 0.93807 0.56975
 H313 H 0.36102 0.81027 0.68600
 H314 H 0.38684 0.83877 0.65895
 H315 H 0.30862 0.87347 0.64545
 H316 H 0.28314 0.84506 0.67305
 H317 H 0.34240 0.90205 0.65392
 H318 H 0.36760 0.93019 0.62540
 H319 H 0.41747 0.88170 0.58005
 H320 H 0.39208 0.85341 0.60795
 C321 C -0.20887 0.70772 -0.20648
 C322 C -0.19637 0.69422 -0.19192
 C323 C -0.18148 0.67810 -0.17451
 C324 C -0.19545 0.66663 -0.15144
 C325 C -0.18104 0.65092 -0.13457
 C326 C -0.15241 0.64649 -0.14056
 C327 C -0.13854 0.65815 -0.16377
 C328 C -0.15300 0.67384 -0.18062
 C329 C -0.13712 0.62969 -0.12282
 C330 C -0.10905 0.63303 -0.11336
 C331 C -0.09458 0.61711 -0.09696
 C332 C -0.10795 0.59765 -0.08979
 C333 C -0.13590 0.59420 -0.09898
 C334 C -0.15041 0.61010 -0.11536
 C335 C -0.09288 0.58110 -0.07342
 C336 C -0.08021 0.56714 -0.05997
 H337 H -0.21747 0.66984 -0.14646
 H338 H -0.19220 0.64242 -0.11661
 H339 H -0.11663 0.65492 -0.16921
 H340 H -0.14201 0.68259 -0.19849
 H341 H -0.09836 0.64804 -0.11839
 H342 H -0.07296 0.61996 -0.08992
 H343 H -0.14641 0.57915 -0.09367
 H344 H -0.17186 0.60693 -0.12266
 C345 C 0.29282 1.20639 0.28899
 C346 C 0.30548 1.19235 0.30231
 C347 C 0.32042 1.17555 0.31831
 C348 C 0.30998 1.16768 0.34614
 C349 C 0.32439 1.15133 0.36172
 C350 C 0.34949 1.14263 0.34965
 C351 C 0.35981 1.15066 0.32165
 C352 C 0.34535 1.16701 0.30610
 C353 C 0.36486 1.12531 0.36627
 C354 C 0.39455 1.12550 0.36799
 C355 C 0.40897 1.10934 0.38396
 C356 C 0.39396 1.09278 0.39839
 C357 C 0.36445 1.09238 0.39670
 C358 C 0.34998 1.10853 0.38076
 C359 C 0.40882 1.07636 0.41526
 C360 C 0.42132 1.06274 0.42958
 H361 H 0.29074 1.17422 0.35585
 H362 H 0.31611 1.14570 0.38342
 H363 H 0.37887 1.14412 0.31158
 H364 H 0.35356 1.17294 0.28452
 H365 H 0.40658 1.13833 0.35743
 H366 H 0.43182 1.10984 0.38523
 H367 H 0.35262 1.07962 0.40774
 H368 H 0.32716 1.10778 0.37951
 C369 C 1.20936 -0.20739 -0.20330
 C370 C 1.19642 -0.19385 -0.18935
 C371 C 1.18105 -0.17765 -0.17268
 C372 C 1.17058 -0.15948 -0.18794
 C373 C 1.15578 -0.14367 -0.17176
 C374 C 1.15122 -0.14584 -0.14005
 C375 C 1.16178 -0.16420 -0.12493
 C376 C 1.17660 -0.17998 -0.14116
 C377 C 1.13558 -0.12900 -0.12283
 C378 C 1.11602 -0.13474 -0.09996
 C379 C 1.10123 -0.11886 -0.08388
 C380 C 1.10582 -0.09706 -0.09039
 C381 C 1.12527 -0.09119 -0.11303
 C382 C 1.14006 -0.10703 -0.12915
 C383 C 1.09045 -0.08070 -0.07404
 C384 C 1.07758 -0.06688 -0.06057
 H385 H 1.17384 -0.15754 -0.21236
 H386 H 1.14759 -0.12987 -0.18412
 H387 H 1.15893 -0.16621 -0.10049
 H388 H 1.18469 -0.19396 -0.12911
 H389 H 1.11185 -0.15151 -0.09483
 H390 H 1.08615 -0.12358 -0.06647
 H391 H 1.12902 -0.07435 -0.11820
 H392 H 1.15525 -0.10209 -0.14631
 C393 C 0.71040 0.29355 0.29771
 C394 C 0.69753 0.30722 0.31148
 C395 C 0.68214 0.32347 0.32803
 C396 C 0.65344 0.32055 0.33444
 C397 C 0.63848 0.33628 0.35062
 C398 C 0.65205 0.35517 0.36060
 C399 C 0.68093 0.35795 0.35402
 C400 C 0.69585 0.34219 0.33785
 C401 C 0.63617 0.37192 0.37772
 C402 C 0.64070 0.39392 0.37167
 C403 C 0.62566 0.40968 0.38769
 C404 C 0.60592 0.40369 0.40997
 C405 C 0.60127 0.38186 0.41620
 C406 C 0.61628 0.36606 0.40019
 C407 C 0.59034 0.41996 0.42626
 C408 C 0.57731 0.43371 0.43968
 H409 H 0.64261 0.30614 0.32688
 H410 H 0.61620 0.33380 0.35497
 H411 H 0.69206 0.37217 0.36173
 H412 H 0.71809 0.34457 0.33311
 H413 H 0.65558 0.39894 0.35423
 H414 H 0.62935 0.42654 0.38261
 H415 H 0.58608 0.37705 0.43345
 H416 H 0.61257 0.34928 0.40564
 C417 C 0.79220 -0.20431 -0.20897
 C418 C 0.80481 -0.19033 -0.19559
 C419 C 0.81987 -0.17364 -0.17964
 C420 C 0.80503 -0.15792 -0.16325
 C421 C 0.81965 -0.14175 -0.14765
 C422 C 0.84936 -0.14107 -0.14826
 C423 C 0.86408 -0.15693 -0.16487
 C424 C 0.84941 -0.17310 -0.18043
 C425 C 0.86493 -0.12399 -0.13151
 C426 C 0.88886 -0.11419 -0.14460
 C427 C 0.90363 -0.09824 -0.12867
 C428 C 0.89470 -0.09189 -0.09949
 C429 C 0.87089 -0.10150 -0.08631
 C430 C 0.85608 -0.11743 -0.10219
 C431 C 0.91012 -0.07570 -0.08291
 C432 C 0.92306 -0.06226 -0.06882
 H433 H 0.78215 -0.15815 -0.16256
 H434 H 0.80771 -0.12962 -0.13540
 H435 H 0.88694 -0.15702 -0.16545
 H436 H 0.86111 -0.18522 -0.19299
 H437 H 0.89598 -0.11869 -0.16727
 H438 H 0.92200 -0.09088 -0.13911
 H439 H 0.86387 -0.09676 -0.06368
 H440 H 0.83798 -0.12487 -0.09133
 C441 C 0.29340 0.29477 0.29143
 C442 C 0.30609 0.30863 0.30499
 C443 C 0.32121 0.32525 0.32105
 C444 C 0.31001 0.33407 0.34792
 C445 C 0.32460 0.35030 0.36343
 C446 C 0.35063 0.35792 0.35226
 C447 C 0.36171 0.34893 0.32523
 C448 C 0.34707 0.33271 0.30974
 C449 C 0.36617 0.37515 0.36875
 C450 C 0.39572 0.37411 0.37194
 C451 C 0.41030 0.39025 0.38766
 C452 C 0.39559 0.40764 0.40036
 C453 C 0.36621 0.40886 0.39725
 C454 C 0.35158 0.39273 0.38155
 C455 C 0.41060 0.42407 0.41691
 C456 C 0.42322 0.43771 0.43098
 H457 H 0.29003 0.32837 0.35690
 H458 H 0.31571 0.35669 0.38439
 H459 H 0.38150 0.35464 0.31583
 H460 H 0.35587 0.32605 0.28889
 H461 H 0.40751 0.36065 0.36270
 H462 H 0.43304 0.38910 0.39005
 H463 H 0.35462 0.42227 0.40696
 H464 H 0.32889 0.39414 0.37915
 C465 C 0.20840 0.70467 -0.20525
 C466 C 0.19535 0.69070 -0.19231
 C467 C 0.17974 0.67401 -0.17691
 C468 C 0.19178 0.66303 -0.15211
 C469 C 0.17661 0.64684 -0.13711
 C470 C 0.14915 0.64142 -0.14672
 C471 C 0.13725 0.65255 -0.17170
 C472 C 0.15247 0.66873 -0.18668
 C473 C 0.13295 0.62432 -0.13066
 C474 C 0.10393 0.62696 -0.12476
 C475 C 0.08877 0.61096 -0.10933
 C476 C 0.10237 0.59212 -0.09963
 C477 C 0.13119 0.58930 -0.10551
 C478 C 0.14640 0.60528 -0.12091
 C479 C 0.08684 0.57585 -0.08327
 C480 C 0.07386 0.56233 -0.06932
 H481 H 0.21286 0.66703 -0.14431
 H482 H 0.18621 0.63878 -0.11771
 H483 H 0.11631 0.64857 -0.17989
 H484 H 0.14298 0.67708 -0.20592
 H485 H 0.09306 0.64155 -0.13160
 H486 H 0.06649 0.61336 -0.10478
 H487 H 0.14191 0.57476 -0.09813
 H488 H 0.16862 0.60264 -0.12546
 C489 C 0.71158 1.20609 0.29951
 C490 C 0.69874 1.19269 0.31385
 C491 C 0.68324 1.17672 0.33082
 C492 C 0.65427 1.17941 0.33593
 C493 C 0.63910 1.16381 0.35214
 C494 C 0.65273 1.14528 0.36345
 C495 C 0.68189 1.14276 0.35827
 C496 C 0.69702 1.15839 0.34207
 C497 C 0.63654 1.12856 0.38031
 C498 C 0.64180 1.10654 0.37511
 C499 C 0.62635 1.09080 0.39072
 C500 C 0.60548 1.09683 0.41173
 C501 C 0.60014 1.11867 0.41715
 C502 C 0.61556 1.13445 0.40155
 C503 C 0.58942 1.08057 0.42750
 C504 C 0.57602 1.06682 0.44049
 H505 H 0.64338 1.19351 0.32724
 H506 H 0.61662 1.16608 0.35539
 H507 H 0.69304 1.12881 0.36702
 H508 H 0.71946 1.15617 0.33831
 H509 H 0.65753 1.10149 0.35861
 H510 H 0.63058 1.07394 0.38628
 H511 H 0.58407 1.12350 0.43342
 H512 H 0.61126 1.15124 0.40632
 C513 C 0.20996 0.29537 0.20392
 C514 C 0.19686 0.30921 0.19069
 C515 C 0.18113 0.32569 0.17492
 C516 C 0.15775 0.32013 0.15700
 C517 C 0.14243 0.33611 0.14167
 C518 C 0.15031 0.35790 0.14409
 C519 C 0.17383 0.36332 0.16220
 C520 C 0.18913 0.34730 0.17750
 C521 C 0.13410 0.37487 0.12771
 C522 C 0.12826 0.39472 0.14193
 C523 C 0.11298 0.41067 0.12646
 C524 C 0.10338 0.40701 0.09660
 C525 C 0.10910 0.38734 0.08226
 C526 C 0.12434 0.37137 0.09768
 C527 C 0.08772 0.42342 0.08060
 C528 C 0.07460 0.43703 0.06694
 H529 H 0.15132 0.30345 0.15493
 H530 H 0.12422 0.33145 0.12824
 H531 H 0.18064 0.37991 0.16420
 H532 H 0.20724 0.35178 0.19126
 H533 H 0.13517 0.39780 0.16515
 H534 H 0.10861 0.42583 0.13780
 H535 H 0.10184 0.38437 0.05911
 H536 H 0.12881 0.35639 0.08597
 C537 C 0.71069 0.79421 0.70090
 C538 C 0.69790 0.80764 0.68653
 C539 C 0.68250 0.82368 0.66952
 C540 C 0.65411 0.82025 0.66207
 C541 C 0.63901 0.83591 0.64583
 C542 C 0.65214 0.85525 0.63685
 C543 C 0.68072 0.85850 0.64436
 C544 C 0.69578 0.84281 0.66058
 C545 C 0.63601 0.87202 0.61997
 C546 C 0.63957 0.89396 0.62703
 C547 C 0.62419 0.90974 0.61136
 C548 C 0.60508 0.90382 0.58842
 C549 C 0.60143 0.88205 0.58115
 C550 C 0.61678 0.86624 0.59681
 C551 C 0.58912 0.92011 0.57254
 C552 C 0.57579 0.93388 0.55946
 H553 H 0.64360 0.80553 0.66896
 H554 H 0.61695 0.83305 0.64075
 H555 H 0.69152 0.87308 0.63743
 H556 H 0.71777 0.84560 0.66617
 H557 H 0.65391 0.89891 0.64502
 H558 H 0.62710 0.92654 0.61724
 H559 H 0.58674 0.87730 0.56338
 H560 H 0.61383 0.84951 0.59059
 C561 C 0.79260 0.20368 0.21058
 C562 C 0.80527 0.18969 0.19725
 C563 C 0.82040 0.17299 0.18133
 C564 C 0.84526 0.16448 0.19381
 C565 C 0.86004 0.14831 0.17831
 C566 C 0.85010 0.14042 0.15010
 C567 C 0.82504 0.14905 0.13779
 C568 C 0.81032 0.16523 0.15331
 C569 C 0.86586 0.12334 0.13351
 C570 C 0.85134 0.10655 0.11867
 C571 C 0.86619 0.09061 0.10278
 C572 C 0.89571 0.09122 0.10151
 C573 C 0.91036 0.10780 0.11628
 C574 C 0.89555 0.12375 0.13219
 C575 C 0.91096 0.07503 0.08471
 C576 C 0.92375 0.06157 0.07043
 H577 H 0.85321 0.17033 0.21553
 H578 H 0.87905 0.14181 0.18857
 H579 H 0.81705 0.14353 0.11593
 H580 H 0.79113 0.17175 0.14341
 H581 H 0.82852 0.10563 0.11959
 H582 H 0.85465 0.07783 0.09147
 H583 H 0.93321 0.10847 0.11533
 H584 H 0.90732 0.13660 0.14303
 C585 C 0.29238 0.70566 0.70806
 C586 C 0.30518 0.69184 0.69452
 C587 C 0.32043 0.67526 0.67848
 C588 C 0.30992 0.66707 0.65089
 C589 C 0.32461 0.65086 0.63540
 C590 C 0.35005 0.64261 0.64732
 C591 C 0.36044 0.65097 0.67506
 C592 C 0.34571 0.66718 0.69052
 C593 C 0.36567 0.62538 0.63088
 C594 C 0.39533 0.62594 0.62888
 C595 C 0.41000 0.60980 0.61321
 C596 C 0.39525 0.59287 0.59938
 C597 C 0.36577 0.59212 0.60132
 C598 C 0.35105 0.60826 0.61695
 C599 C 0.41036 0.57644 0.58291
 C600 C 0.42305 0.56278 0.56891
 H601 H 0.29040 0.67325 0.64133
 H602 H 0.31626 0.64496 0.61390
 H603 H 0.37976 0.64477 0.68502
 H604 H 0.35397 0.67334 0.71192
 H605 H 0.40715 0.63904 0.63900
 H606 H 0.43282 0.61058 0.61174
 H607 H 0.35415 0.57908 0.59074
 H608 H 0.32827 0.60722 0.61844
   
