data_POSCAR
  _audit_creation_date              2014-09-24
  _audit_creation_method            'ToBaCCo'
  _symmetry_space_group_name_H-M    'P1'
  _symmetry_Int_Tables_number       1
  _symmetry_cell_setting            triclinic
  loop_
  _symmetry_equiv_pos_as_xyz
 x,y,z
_cell_length_a 33.5462
_cell_length_b 32.9593
_cell_length_c 30.9795
_cell_angle_alpha 90.019100
_cell_angle_beta 90.002700
_cell_angle_gamma 84.109900
loop_
  _atom_site_label
  _atom_site_type_symbol
  _atom_site_fract_x
  _atom_site_fract_y
  _atom_site_fract_z
C1 C 0.10467 0.30987 0.02283
 C2 C 0.10477 0.30995 -0.02124
 C3 C 0.06746 0.30009 -0.03443
 N4 N 0.04407 0.29565 0.00052
 C5 C 0.06730 0.30008 0.03561
 C6 C 0.05580 0.29494 -0.07800
 C7 C 0.01506 0.29607 -0.09027
 C8 C -0.00021 0.30917 -0.12998
 C9 C -0.04017 0.30338 -0.13004
 C10 C -0.04866 0.28741 -0.08997
 N11 N -0.01467 0.28322 -0.06599
 C12 C -0.08561 0.27353 -0.07718
 C13 C -0.09072 0.26020 -0.03449
 C14 C -0.11226 0.22852 -0.02193
 C15 C -0.11231 0.22836 0.02236
 C16 C -0.09062 0.25976 0.03517
 N17 N -0.07682 0.27881 0.00046
 C18 C -0.08514 0.27225 0.07799
 C19 C -0.04842 0.28611 0.09102
 C20 C -0.03999 0.30106 0.13152
 C21 C -0.00005 0.30709 0.13162
 C22 C 0.01505 0.29525 0.09146
 N23 N -0.01460 0.28279 0.06685
 C24 C 0.05556 0.29495 0.07903
 H25 H 0.12915 0.31754 0.04284
 H26 H 0.12940 0.31773 -0.04095
 H27 H -0.01094 0.26824 0.03714
 H28 H 0.01569 0.32185 -0.15630
 H29 H -0.05979 0.30948 -0.15732
 H30 H -0.12545 0.20696 -0.04248
 H31 H -0.12547 0.20664 0.04271
 H32 H 0.01589 0.31921 0.15826
 H33 H -0.01094 0.26788 -0.03672
 H34 H -0.05970 0.30631 0.15888
 C35 C 0.38819 0.76231 0.47693
 C36 C 0.38818 0.76233 0.52092
 C37 C 0.42704 0.76634 0.53406
 N38 N 0.45101 0.76787 0.49895
 C39 C 0.42705 0.76631 0.46383
 C40 C 0.44025 0.76564 0.57762
 C41 C 0.48137 0.76346 0.58835
 C42 C 0.49840 0.74508 0.62504
 C43 C 0.53809 0.75177 0.62502
 C44 C 0.54471 0.77336 0.58772
 N45 N 0.50988 0.78010 0.56536
 C46 C 0.58106 0.78897 0.57606
 C47 C 0.58641 0.80279 0.53370
 C48 C 0.61005 0.83266 0.52099
 C49 C 0.61011 0.83258 0.47657
 C50 C 0.58646 0.80271 0.46392
 N51 N 0.57141 0.78508 0.49882
 C52 C 0.58107 0.78883 0.42158
 C53 C 0.54474 0.77309 0.41010
 C54 C 0.53813 0.75117 0.37301
 C55 C 0.49846 0.74445 0.37309
 C56 C 0.48142 0.76315 0.40962
 N57 N 0.50992 0.77998 0.43245
 C58 C 0.44029 0.76550 0.42029
 H59 H 0.36242 0.75738 0.45768
 H60 H 0.36239 0.75744 0.54014
 H61 H 0.50500 0.79877 0.45941
 H62 H 0.48418 0.72758 0.64900
 H63 H 0.55906 0.74151 0.65000
 H64 H 0.62406 0.85373 0.54135
 H65 H 0.62415 0.85359 0.45619
 H66 H 0.48425 0.72676 0.34928
 H67 H 0.50499 0.79866 0.53824
 H68 H 0.55909 0.74068 0.34810
 C69 C 1.13699 0.68225 -0.02630
 C70 C 1.13728 0.67663 0.01753
 C71 C 1.10094 0.69459 0.03295
 N72 N 1.07803 0.70995 -0.00023
 C73 C 1.09996 0.70264 -0.03659
 C74 C 1.09060 0.69976 0.07706
 C75 C 1.05025 0.69993 0.09152
 C76 C 1.03802 0.70002 0.13431
 C77 C 0.99709 0.70029 0.13436
 C78 C 0.98482 0.70049 0.09163
 N79 N 1.01766 0.69842 0.06589
 C80 C 0.94438 0.70138 0.07747
 C81 C 0.93419 0.69749 0.03349
 C82 C 0.89971 0.68258 0.01834
 C83 C 0.89901 0.68833 -0.02552
 C84 C 0.93359 0.70586 -0.03594
 N85 N 0.95501 0.71127 0.00022
 C86 C 0.94362 0.72084 -0.07682
 C87 C 0.98187 0.73380 -0.08346
 C88 C 0.99086 0.76579 -0.10943
 C89 C 1.03198 0.76524 -0.10954
 C90 C 1.04681 0.73276 -0.08380
 N91 N 1.01599 0.71475 -0.06675
 C92 C 1.08748 0.71832 -0.07754
 H93 H 1.16168 0.67243 -0.04734
 H94 H 1.16162 0.66105 0.03596
 H95 H 1.01834 0.68807 -0.04832
 H96 H 1.05632 0.69819 0.16301
 H97 H 0.97913 0.69864 0.16306
 H98 H 0.87736 0.66876 0.03688
 H99 H 0.87534 0.68067 -0.04659
 H100 H 1.04868 0.78744 -0.12516
 H101 H 1.01795 0.69494 0.03266
 H102 H 0.97007 0.78841 -0.12500
 C103 C 0.60924 0.24258 0.47996
 C104 C 0.60927 0.24271 0.52390
 C105 C 0.57045 0.23857 0.53705
 N106 N 0.54647 0.23685 0.50201
 C107 C 0.57041 0.23837 0.46692
 C108 C 0.55729 0.23915 0.58056
 C109 C 0.51624 0.24117 0.59131
 C110 C 0.49918 0.25958 0.62796
 C111 C 0.45955 0.25270 0.62796
 C112 C 0.45304 0.23090 0.59074
 N113 N 0.48786 0.22428 0.56838
 C114 C 0.41687 0.21490 0.57921
 C115 C 0.41158 0.20079 0.53695
 C116 C 0.38819 0.17062 0.52447
 C117 C 0.38821 0.17035 0.48005
 C118 C 0.41160 0.20037 0.46717
 N119 N 0.42644 0.21839 0.50194
 C120 C 0.41698 0.21395 0.42473
 C121 C 0.45305 0.23014 0.41323
 C122 C 0.45951 0.25189 0.37598
 C123 C 0.49908 0.25897 0.37604
 C124 C 0.51616 0.24071 0.41274
 N125 N 0.48783 0.22377 0.43568
 C126 C 0.55720 0.23873 0.42344
 H127 H 0.63501 0.24746 0.46069
 H128 H 0.63506 0.24769 0.54307
 H129 H 0.49290 0.20514 0.46272
 H130 H 0.51336 0.27719 0.65187
 H131 H 0.43858 0.26296 0.65293
 H132 H 0.37438 0.14955 0.54499
 H133 H 0.37445 0.14898 0.45985
 H134 H 0.51323 0.27656 0.35209
 H135 H 0.49286 0.20559 0.54137
 H136 H 0.43856 0.26201 0.35095
 C137 C 0.76379 -0.09565 -0.02359
 C138 C 0.76349 -0.09627 0.02069
 C139 C 0.72948 -0.07188 0.03351
 N140 N 0.70941 -0.05567 -0.00130
 C141 C 0.72995 -0.07091 -0.03624
 C142 C 0.71617 -0.06535 0.07641
 C143 C 0.69893 -0.02606 0.08931
 C144 C 0.68278 -0.01551 0.12958
 C145 C 0.67421 0.02618 0.12989
 C146 C 0.68560 0.04019 0.09014
 N147 N 0.70016 0.00826 0.06546
 C148 C 0.68424 0.08168 0.07840
 C149 C 0.67904 0.09511 0.03517
 C150 C 0.66894 0.13522 0.02283
 C151 C 0.66947 0.13588 -0.02123
 C152 C 0.67994 0.09614 -0.03480
 N153 N 0.68420 0.07101 -0.00018
 C154 C 0.68611 0.08376 -0.07837
 C155 C 0.68703 0.04240 -0.09088
 C156 C 0.67521 0.02901 -0.13079
 C157 C 0.68361 -0.01267 -0.13124
 C158 C 0.69996 -0.02391 -0.09126
 N159 N 0.70155 0.01001 -0.06683
 C160 C 0.71705 -0.06345 -0.07911
 H161 H 0.78713 -0.11034 -0.04402
 H162 H 0.78659 -0.11148 0.04106
 H163 H 0.71653 0.01142 -0.03756
 H164 H 0.67845 -0.03499 0.15674
 H165 H 0.66098 0.04410 0.15648
 H166 H 0.66097 0.16143 0.04312
 H167 H 0.66193 0.16271 -0.04072
 H168 H 0.67902 -0.03169 -0.15873
 H169 H 0.71490 0.01026 0.03614
 H170 H 0.66192 0.04738 -0.15702
 C171 C 0.17453 0.37933 0.47863
 C172 C 0.17417 0.37976 0.52276
 C173 C 0.18320 0.41807 0.53541
 N174 N 0.18757 0.44153 0.50022
 C175 C 0.18378 0.41738 0.46541
 C176 C 0.18762 0.43066 0.57872
 C177 C 0.18915 0.47193 0.59014
 C178 C 0.17712 0.48888 0.62949
 C179 C 0.18684 0.52839 0.62932
 C180 C 0.20409 0.53480 0.58950
 N181 N 0.20508 0.50017 0.56577
 C182 C 0.22231 0.56991 0.57701
 C183 C 0.23571 0.57404 0.53433
 C184 C 0.26902 0.59259 0.52176
 C185 C 0.26943 0.59213 0.47745
 C186 C 0.23636 0.57331 0.46463
 N187 N 0.21613 0.56158 0.49941
 C188 C 0.22371 0.56835 0.42180
 C189 C 0.20565 0.53305 0.40964
 C190 C 0.18897 0.52596 0.36967
 C191 C 0.17916 0.48649 0.37006
 C192 C 0.19061 0.47021 0.40986
 N193 N 0.20625 0.49884 0.43397
 C194 C 0.18885 0.42915 0.42196
 H195 H 0.16750 0.35402 0.45889
 H196 H 0.16683 0.35483 0.54286
 H197 H 0.22130 0.49368 0.46311
 H198 H 0.16289 0.47428 0.65579
 H199 H 0.18248 0.54902 0.65629
 H200 H 0.29177 0.60347 0.54224
 H201 H 0.29255 0.60260 0.45719
 H202 H 0.16527 0.47147 0.34381
 H203 H 0.22055 0.49450 0.53695
 H204 H 0.18503 0.54609 0.34227
 C205 C 0.34841 0.87855 0.01960
 C206 C 0.34816 0.87896 -0.02474
 C207 C 0.31974 0.91028 -0.03698
 N208 N 0.30324 0.92956 -0.00185
 C209 C 0.32032 0.90978 0.03269
 C210 C 0.30652 0.91933 -0.07938
 C211 C 0.29523 0.96045 -0.09177
 C212 C 0.27907 0.97346 -0.13122
 C213 C 0.27534 1.01530 -0.13082
 C214 C 0.28921 1.02730 -0.09108
 N215 N 0.30173 0.99357 -0.06784
 C216 C 0.29339 1.06797 -0.07789
 C217 C 0.30437 1.07611 -0.03499
 C218 C 0.32803 1.10589 -0.02195
 C219 C 0.32804 1.10556 0.02239
 C220 C 0.30441 1.07556 0.03486
 N221 N 0.29057 1.05703 -0.00024
 C222 C 0.29374 1.06657 0.07763
 C223 C 0.29000 1.02558 0.08993
 C224 C 0.27683 1.01255 0.12957
 C225 C 0.28083 0.97066 0.12883
 C226 C 0.29647 0.95880 0.08885
 N227 N 0.30238 0.99248 0.06566
 C228 C 0.30792 0.91816 0.07537
 H229 H 0.36796 0.85851 0.03981
 H230 H 0.36751 0.85927 -0.04552
 H231 H 0.31748 0.99282 0.03634
 H232 H 0.27167 0.95540 -0.15850
 H233 H 0.26466 1.03396 -0.15778
 H234 H 0.34479 1.12480 -0.04219
 H235 H 0.34477 1.12418 0.04301
 H236 H 0.27402 0.95176 0.15566
 H237 H 0.31724 0.99322 -0.03873
 H238 H 0.26652 1.03056 0.15716
 C239 C 0.73151 0.40597 0.47879
 C240 C 0.73155 0.40621 0.52309
 C241 C 0.76436 0.42560 0.53562
 N242 N 0.78396 0.43793 0.50066
 C243 C 0.76428 0.42525 0.46592
 C244 C 0.77732 0.43057 0.57835
 C245 C 0.79460 0.46634 0.59052
 C246 C 0.81139 0.47363 0.63036
 C247 C 0.82033 0.51341 0.63005
 C248 C 0.80828 0.52966 0.59040
 N249 N 0.79310 0.50071 0.56633
 C250 C 0.80940 0.57086 0.57832
 C251 C 0.81365 0.58291 0.53476
 C252 C 0.82254 0.62110 0.52155
 C253 C 0.82222 0.62096 0.47742
 C254 C 0.81316 0.58269 0.46469
 N255 N 0.80940 0.55899 0.49986
 C256 C 0.80839 0.57033 0.42132
 C257 C 0.80737 0.52902 0.40966
 C258 C 0.81916 0.51248 0.37005
 C259 C 0.81052 0.47260 0.37029
 C260 C 0.79411 0.46557 0.41039
 N261 N 0.79259 0.50019 0.43422
 C262 C 0.77710 0.42983 0.42309
 H263 H 0.70881 0.39471 0.45851
 H264 H 0.70889 0.39517 0.54357
 H265 H 0.77754 0.50529 0.46337
 H266 H 0.81599 0.45336 0.65760
 H267 H 0.83422 0.52857 0.65619
 H268 H 0.82985 0.64632 0.54126
 H269 H 0.82926 0.64604 0.45737
 H270 H 0.81504 0.45209 0.34323
 H271 H 0.77783 0.50564 0.53729
 H272 H 0.83267 0.52752 0.34357
 O273 O 0.21288 0.27983 0.19491
 O274 O 0.29804 0.25226 0.26748
 O275 O 0.27274 0.22393 0.19428
 O276 O 0.23943 0.30947 0.26606
 O277 O 0.20361 0.26945 0.30401
 O278 O 0.23598 0.18400 0.23108
 O279 O 0.26162 0.21225 0.30464
 O280 O 0.17602 0.24076 0.23275
 Cu281 Cu 0.25953 0.27026 0.22689
 Cu282 Cu 0.21566 0.22237 0.27170
 C283 C 0.18008 0.26479 0.20144
 C284 C 0.29388 0.22853 0.29908
 C285 C 0.25940 0.18972 0.19994
 C286 C 0.21665 0.30378 0.29768
 O287 O 0.79568 0.72872 0.30183
 O288 O 0.76478 0.81512 0.22982
 O289 O 0.73800 0.78651 0.30272
 O290 O 0.82292 0.75711 0.22980
 O291 O 0.78545 0.71808 0.19267
 O292 O 0.70056 0.74779 0.26516
 O293 O 0.72723 0.77625 0.19264
 O294 O 0.75849 0.68971 0.26429
 Cu295 Cu 0.78408 0.77591 0.26971
 Cu296 Cu 0.73908 0.72919 0.22489
 C297 C 0.78172 0.69482 0.29572
 C298 C 0.74146 0.81004 0.19846
 C299 C 0.70522 0.77117 0.29694
 C300 C 0.81844 0.73294 0.19868
 O301 O 0.71049 0.22643 0.30292
 O302 O 0.79513 0.23965 0.23063
 O303 O 0.76836 0.27264 0.30363
 O304 O 0.73810 0.19222 0.23213
 O305 O 0.70078 0.23869 0.19434
 O306 O 0.72934 0.31888 0.26739
 O307 O 0.75714 0.28677 0.19444
 O308 O 0.67211 0.27234 0.26550
 Cu309 Cu 0.75702 0.22815 0.27106
 Cu310 Cu 0.71111 0.28390 0.22659
 C311 C 0.67710 0.24738 0.29663
 C312 C 0.79021 0.26506 0.19984
 C313 C 0.75311 0.30914 0.29843
 C314 C 0.71469 0.20190 0.20084
 O315 O 0.29959 0.75615 0.18865
 O316 O 0.27394 0.67672 0.26462
 O317 O 0.24593 0.70469 0.19042
 O318 O 0.32873 0.72616 0.26173
 O319 O 0.28795 0.77157 0.29710
 O320 O 0.20522 0.75094 0.22469
 O321 O 0.23269 0.72252 0.29888
 O322 O 0.25944 0.80182 0.22439
 Cu323 Cu 0.29111 0.71135 0.22271
 Cu324 Cu 0.24217 0.76636 0.26467
 C325 C 0.28369 0.79249 0.19374
 C326 C 0.24940 0.68642 0.29503
 C327 C 0.21172 0.72442 0.19510
 C328 C 0.32216 0.75180 0.29208
 O329 O 0.67273 0.27389 0.73784
 O330 O 0.75805 0.28891 0.80832
 O331 O 0.72991 0.32057 0.73528
 O332 O 0.70205 0.24034 0.80882
 O333 O 0.73942 0.19397 0.77093
 O334 O 0.76890 0.27433 0.69898
 O335 O 0.79604 0.24184 0.77203
 O336 O 0.71108 0.22799 0.70034
 Cu337 Cu 0.71196 0.28565 0.77639
 Cu338 Cu 0.75785 0.22997 0.73182
 C339 C 0.67764 0.24883 0.70678
 C340 C 0.79116 0.26730 0.80280
 C341 C 0.75357 0.31081 0.70414
 C342 C 0.71612 0.20359 0.80233
 O343 O 0.25792 0.80647 0.77082
 O344 O 0.23093 0.72653 0.69690
 O345 O 0.20214 0.75740 0.76956
 O346 O 0.28698 0.77479 0.69892
 O347 O 0.32608 0.72890 0.73554
 O348 O 0.24135 0.71173 0.80631
 O349 O 0.27013 0.68056 0.73331
 O350 O 0.29679 0.76066 0.80779
 Cu351 Cu 0.24051 0.77093 0.73042
 Cu352 Cu 0.28748 0.71579 0.77447
 C353 C 0.28154 0.79710 0.80204
 C354 C 0.24658 0.69017 0.70204
 C355 C 0.20761 0.73208 0.80038
 C356 C 0.32067 0.75429 0.70480
 O357 O 0.23745 0.31250 0.73619
 O358 O 0.27099 0.22706 0.80794
 O359 O 0.29638 0.25545 0.73497
 O360 O 0.21075 0.28238 0.80713
 O361 O 0.17435 0.24300 0.76908
 O362 O 0.26032 0.21532 0.69746
 O363 O 0.23480 0.18687 0.77069
 O364 O 0.20202 0.27226 0.69804
 Cu365 Cu 0.25757 0.27333 0.77535
 Cu366 Cu 0.21423 0.22516 0.73019
 C367 C 0.21485 0.30667 0.70445
 C368 C 0.25803 0.19270 0.80197
 C369 C 0.29252 0.23163 0.70336
 C370 C 0.17816 0.26694 0.80053
 O371 O 0.82463 0.76190 0.76496
 O372 O 0.73830 0.78863 0.69340
 O373 O 0.76527 0.81839 0.76567
 O374 O 0.79645 0.73123 0.69464
 O375 O 0.76140 0.69202 0.73448
 O376 O 0.72795 0.77972 0.80343
 O377 O 0.70231 0.74915 0.73177
 O378 O 0.78791 0.72443 0.80492
 Cu379 Cu 0.78475 0.77904 0.72577
 Cu380 Cu 0.74122 0.73238 0.77247
 C381 C 0.82056 0.73959 0.79770
 C382 C 0.70606 0.77250 0.69975
 C383 C 0.74199 0.81350 0.79715
 C384 C 0.78365 0.69701 0.70221
 C385 C 0.27080 0.11049 0.17633
 C386 C 0.24617 0.10619 0.13452
 C387 C 0.28560 0.09929 0.10853
 C388 C 0.31024 0.10348 0.14996
 C389 C 0.28415 0.14575 0.10028
 C390 C 0.24501 0.15255 0.12672
 C391 C 0.26977 0.15646 0.16794
 C392 C 0.30890 0.15008 0.14194
 H393 H 0.26518 0.09627 0.20793
 H394 H 0.21985 0.08857 0.13121
 H395 H 0.33725 0.08316 0.15951
 H396 H 0.28784 0.16258 0.06980
 H397 H 0.21799 0.17303 0.11750
 H398 H 0.33472 0.16839 0.14524
 C399 C 0.81821 0.62212 0.67862
 C400 C 0.78460 0.59946 0.65813
 C401 C 0.80400 0.60362 0.61324
 C402 C 0.83749 0.62605 0.63337
 C403 C 0.77793 0.64455 0.60624
 C404 C 0.75899 0.64057 0.65110
 C405 C 0.79259 0.66282 0.67103
 C406 C 0.81155 0.66724 0.62638
 H407 H 0.83466 0.61317 0.70879
 H408 H 0.77227 0.57231 0.67192
 H409 H 0.86990 0.61992 0.62587
 H410 H 0.76059 0.65411 0.57679
 H411 H 0.72657 0.64687 0.65859
 H412 H 0.82252 0.69545 0.61339
 C413 C 0.70410 0.84264 0.12775
 C414 C 0.68845 0.88766 0.13667
 C415 C 0.72169 0.90171 0.10736
 C416 C 0.73698 0.85665 0.09800
 C417 C 0.75018 0.90231 0.14625
 C418 C 0.71713 0.88809 0.17599
 C419 C 0.73268 0.84357 0.16639
 C420 C 0.76568 0.85726 0.13702
 H421 H 0.68505 0.81790 0.12039
 H422 H 0.65630 0.89969 0.13623
 H423 H 0.74436 0.84125 0.06676
 H424 H 0.76931 0.92695 0.15381
 H425 H 0.70886 0.90068 0.20838
 H426 H 0.79761 0.84456 0.13732
 C427 C 0.17973 0.38085 0.67986
 C428 C 0.21306 0.40331 0.65858
 C429 C 0.19327 0.39840 0.61403
 C430 C 0.16005 0.37616 0.63494
 C431 C 0.21940 0.35746 0.60738
 C432 C 0.23875 0.36220 0.65191
 C433 C 0.20543 0.34013 0.67264
 C434 C 0.18607 0.33494 0.62834
 H435 H 0.16354 0.39017 0.71009
 H436 H 0.22539 0.43072 0.67177
 H437 H 0.12757 0.38209 0.62774
 H438 H 0.23649 0.34754 0.57788
 H439 H 0.27124 0.35612 0.65910
 H440 H 0.17510 0.30647 0.61601
 C441 C 0.86597 0.27791 0.17852
 C442 C 0.88271 0.24185 0.14940
 C443 C 0.88079 0.27072 0.11024
 C444 C 0.86419 0.30688 0.13896
 C445 C 0.83756 0.26116 0.10021
 C446 C 0.83942 0.23211 0.13951
 C447 C 0.82325 0.26808 0.16823
 C448 C 0.82103 0.29704 0.12929
 H449 H 0.87729 0.28494 0.21106
 H450 H 0.90827 0.21903 0.15751
 H451 H 0.87397 0.33805 0.13840
 H452 H 0.82367 0.25530 0.06864
 H453 H 0.82885 0.20128 0.13995
 H454 H 0.79545 0.31987 0.12124
 C455 C 0.39460 0.73290 0.67288
 C456 C 0.38926 0.72534 0.62397
 C457 C 0.40950 0.76410 0.61391
 C458 C 0.41495 0.77198 0.66274
 C459 C 0.36849 0.79018 0.61513
 C460 C 0.34810 0.75116 0.62509
 C461 C 0.35372 0.75862 0.67349
 C462 C 0.37360 0.79756 0.66396
 H463 H 0.40528 0.70938 0.69702
 H464 H 0.39567 0.69554 0.60736
 H465 H 0.44164 0.78178 0.67937
 H466 H 0.35759 0.81431 0.59173
 H467 H 0.32019 0.74261 0.60984
 H468 H 0.36688 0.82721 0.68078
 C469 C 0.15979 0.75048 0.13389
 C470 C 0.16365 0.71962 0.09632
 C471 C 0.12200 0.70616 0.10769
 C472 C 0.11802 0.73759 0.14496
 C473 C 0.14142 0.67315 0.13835
 C474 C 0.18327 0.68634 0.12703
 C475 C 0.17900 0.71728 0.16427
 C476 C 0.13767 0.70440 0.17601
 H477 H 0.16765 0.78236 0.13234
 H478 H 0.17552 0.72758 0.06433
 H479 H 0.09151 0.75949 0.15234
 H480 H 0.13381 0.64121 0.14013
 H481 H 0.21039 0.66529 0.11966
 H482 H 0.12725 0.69837 0.20918
 C483 C 0.62389 0.20654 0.66642
 C484 C 0.58278 0.23259 0.66556
 C485 C 0.58806 0.24048 0.61673
 C486 C 0.62881 0.21393 0.61760
 C487 C 0.60881 0.27894 0.62668
 C488 C 0.60368 0.27136 0.67561
 C489 C 0.64429 0.24517 0.67583
 C490 C 0.64972 0.25264 0.62745
 H491 H 0.63041 0.17683 0.68317
 H492 H 0.55604 0.22312 0.68235
 H493 H 0.63928 0.18977 0.59403
 H494 H 0.60261 0.30880 0.61017
 H495 H 0.59346 0.29494 0.69989
 H496 H 0.67768 0.26088 0.61205
 C497 C 0.73937 0.14190 0.85428
 C498 C 0.71852 0.14948 0.89827
 C499 C 0.69279 0.11402 0.88940
 C500 C 0.71415 0.10612 0.84546
 C501 C 0.66013 0.14353 0.86805
 C502 C 0.68570 0.17930 0.87684
 C503 C 0.70659 0.17126 0.83314
 C504 C 0.68137 0.13592 0.82376
 H505 H 0.77205 0.14155 0.84841
 H506 H 0.73458 0.15526 0.92864
 H507 H 0.72704 0.07650 0.83184
 H508 H 0.62743 0.14408 0.87384
 H509 H 0.67420 0.20973 0.88964
 H510 H 0.66626 0.13064 0.79268
 C511 C 0.22571 0.61399 0.31947
 C512 C 0.25864 0.59347 0.34973
 C513 C 0.23005 0.60104 0.38844
 C514 C 0.19701 0.62148 0.35857
 C515 C 0.24556 0.64297 0.39669
 C516 C 0.27434 0.63540 0.35785
 C517 C 0.24144 0.65535 0.32800
 C518 C 0.21280 0.66327 0.36645
 H519 H 0.21748 0.60241 0.28737
 H520 H 0.27760 0.56455 0.34299
 H521 H 0.16480 0.61641 0.35922
 H522 H 0.25289 0.65742 0.42762
 H523 H 0.30628 0.64148 0.35734
 H524 H 0.19385 0.69222 0.37310
 C525 C 0.28338 0.87529 0.82485
 C526 C 0.26136 0.88124 0.86867
 C527 C 0.30177 0.88639 0.89085
 C528 C 0.32384 0.88052 0.84735
 C529 C 0.30811 0.83987 0.89948
 C530 C 0.26789 0.83485 0.87684
 C531 C 0.29001 0.82926 0.83356
 C532 C 0.33025 0.83386 0.85566
 H533 H 0.27309 0.88957 0.79381
 H534 H 0.23266 0.90048 0.87419
 H535 H 0.34696 0.89946 0.83521
 H536 H 0.31680 0.82287 0.92946
 H537 H 0.24474 0.81576 0.88865
 H538 H 0.35856 0.81402 0.85005
 C539 C 0.72817 0.36057 0.36043
 C540 C 0.75708 0.35417 0.39926
 C541 C 0.77168 0.39638 0.39023
 C542 C 0.74297 0.40275 0.35150
 C543 C 0.80502 0.37612 0.36059
 C544 C 0.79012 0.33400 0.36924
 C545 C 0.76133 0.34074 0.33078
 C546 C 0.77616 0.38239 0.32146
 H547 H 0.69641 0.35383 0.36019
 H548 H 0.75009 0.34006 0.43047
 H549 H 0.72344 0.43121 0.34432
 H550 H 0.83703 0.38195 0.36100
 H551 H 0.80961 0.30549 0.37627
 H552 H 0.78411 0.39366 0.28915
 C553 C 0.14872 0.29610 0.87555
 C554 C 0.10813 0.32209 0.86793
 C555 C 0.08640 0.28840 0.88918
 C556 C 0.12673 0.26221 0.89682
 C557 C 0.08231 0.26735 0.84495
 C558 C 0.10432 0.30120 0.82335
 C559 C 0.14445 0.27556 0.83155
 C560 C 0.12289 0.24170 0.85254
 H561 H 0.17638 0.30775 0.88807
 H562 H 0.10195 0.35526 0.87443
 H563 H 0.13635 0.24534 0.92668
 H564 H 0.05558 0.25439 0.83177
 H565 H 0.09540 0.31703 0.79270
 H566 H 0.12930 0.20856 0.84593
 C567 C 0.65487 0.81949 0.34851
 C568 C 0.61222 0.80568 0.34377
 C569 C 0.61568 0.78682 0.38933
 C570 C 0.65820 0.80059 0.39440
 C571 C 0.63395 0.74578 0.37021
 C572 C 0.63048 0.76454 0.32444
 C573 C 0.67249 0.77847 0.32957
 C574 C 0.67628 0.75962 0.37490
 H575 H 0.66372 0.84984 0.33928
 H576 H 0.58564 0.82472 0.33093
 H577 H 0.67253 0.81428 0.42231
 H578 H 0.62580 0.71514 0.37939
 H579 H 0.61919 0.74963 0.29539
 H580 H 0.70294 0.74046 0.38744
 C581 C 0.89349 0.70573 0.82373
 C582 C 0.91667 0.74072 0.84066
 C583 C 0.91233 0.72520 0.88738
 C584 C 0.88963 0.68996 0.87046
 C585 C 0.87255 0.75251 0.89267
 C586 C 0.87669 0.76819 0.84601
 C587 C 0.85401 0.73307 0.82950
 C588 C 0.84956 0.71737 0.87575
 H589 H 0.90174 0.68645 0.79507
 H590 H 0.94362 0.74943 0.82372
 H591 H 0.89524 0.65747 0.88021
 H592 H 0.86393 0.77190 0.92116
 H593 H 0.87115 0.80053 0.83570
 H594 H 0.82170 0.70766 0.89002
 C595 C 0.36815 0.23669 0.32708
 C596 C 0.36392 0.25573 0.37270
 C597 C 0.38266 0.21508 0.39226
 C598 C 0.38688 0.19594 0.34685
 C599 C 0.34043 0.20056 0.39700
 C600 C 0.32189 0.24114 0.37705
 C601 C 0.32644 0.22201 0.33189
 C602 C 0.34452 0.18138 0.35127
 H603 H 0.37939 0.25160 0.29803
 H604 H 0.37144 0.28663 0.38179
 H605 H 0.41385 0.17723 0.33443
 H606 H 0.32605 0.18682 0.42483
 H607 H 0.29483 0.25995 0.38918
 H608 H 0.33629 0.15076 0.34211
 C609 C 0.71804 0.89168 0.82038
 C610 C 0.68928 0.89078 0.85959
 C611 C 0.72255 0.90419 0.88929
 C612 C 0.75114 0.90527 0.85052
 C613 C 0.73763 0.85895 0.89786
 C614 C 0.70472 0.84560 0.86777
 C615 C 0.73336 0.84698 0.82925
 C616 C 0.76641 0.86002 0.85899
 H617 H 0.70989 0.90479 0.78819
 H618 H 0.65716 0.90289 0.86017
 H619 H 0.77040 0.92992 0.84351
 H620 H 0.74489 0.84297 0.92881
 H621 H 0.68550 0.82088 0.87461
 H622 H 0.79828 0.84701 0.85856
 C623 C 0.18703 0.33286 0.37334
 C624 C 0.22034 0.35517 0.39469
 C625 C 0.19477 0.39631 0.38724
 C626 C 0.16158 0.37429 0.36595
 C627 C 0.21533 0.40052 0.34300
 C628 C 0.24045 0.35922 0.35045
 C629 C 0.20716 0.33738 0.32934
 C630 C 0.18203 0.37829 0.32135
 H631 H 0.17553 0.30468 0.38571
 H632 H 0.23689 0.34535 0.42456
 H633 H 0.12902 0.38067 0.37254
 H634 H 0.22821 0.42761 0.32980
 H635 H 0.27301 0.35267 0.34388
 H636 H 0.16640 0.38750 0.29077
 C637 C 0.26897 0.11348 0.82472
 C638 C 0.30893 0.10566 0.85002
 C639 C 0.28511 0.10131 0.89199
 C640 C 0.24517 0.10905 0.86705
 C641 C 0.28446 0.14763 0.90079
 C642 C 0.30838 0.15211 0.85856
 C643 C 0.26871 0.15928 0.83363
 C644 C 0.24478 0.15525 0.87538
 H645 H 0.26246 0.09973 0.79311
 H646 H 0.33548 0.08512 0.83958
 H647 H 0.21867 0.09174 0.87080
 H648 H 0.28900 0.16413 0.93130
 H649 H 0.33438 0.17010 0.85481
 H650 H 0.21821 0.17597 0.88547
 C651 C 0.81587 0.62015 0.32014
 C652 C 0.83595 0.62458 0.36488
 C653 C 0.80259 0.60278 0.38612
 C654 C 0.78238 0.59813 0.34174
 C655 C 0.77696 0.64400 0.39294
 C656 C 0.81046 0.66606 0.37166
 C657 C 0.79069 0.66116 0.32752
 C658 C 0.75721 0.63954 0.34856
 H659 H 0.83174 0.61061 0.28979
 H660 H 0.86846 0.61827 0.37180
 H661 H 0.76965 0.57085 0.32877
 H662 H 0.76017 0.65414 0.42257
 H663 H 0.82188 0.69434 0.38391
 H664 H 0.72470 0.64601 0.34165
 C665 C 0.18087 0.71112 0.87751
 C666 C 0.15203 0.74724 0.89452
 C667 C 0.11657 0.72156 0.88856
 C668 C 0.14513 0.68536 0.87149
 C669 C 0.11009 0.73777 0.84190
 C670 C 0.14578 0.76359 0.84793
 C671 C 0.17433 0.72752 0.83139
 C672 C 0.13918 0.70182 0.82490
 H673 H 0.21026 0.70007 0.89201
 H674 H 0.15742 0.76606 0.92326
 H675 H 0.14465 0.65283 0.88055
 H676 H 0.08198 0.74765 0.82435
 H677 H 0.14624 0.79589 0.83798
 H678 H 0.13426 0.68312 0.79595
 C679 C 0.64953 0.25181 0.37610
 C680 C 0.60863 0.27814 0.37685
 C681 C 0.58790 0.23978 0.38720
 C682 C 0.62862 0.21319 0.38636
 C683 C 0.58245 0.23153 0.33847
 C684 C 0.60333 0.27021 0.32801
 C685 C 0.64392 0.24399 0.32780
 C686 C 0.62352 0.20544 0.33763
 H687 H 0.67755 0.26014 0.39128
 H688 H 0.60251 0.30812 0.39316
 H689 H 0.63915 0.18921 0.41008
 H690 H 0.55564 0.22195 0.32187
 H691 H 0.59304 0.29361 0.30359
 H692 H 0.62997 0.17561 0.32109
 C693 C 0.86701 0.28015 0.82407
 C694 C 0.86535 0.30901 0.86380
 C695 C 0.88190 0.27265 0.89231
 C696 C 0.88370 0.24393 0.85301
 C697 C 0.83857 0.26323 0.90232
 C698 C 0.82214 0.29922 0.87338
 C699 C 0.82427 0.27039 0.83432
 C700 C 0.84037 0.23431 0.86288
 H701 H 0.87832 0.28727 0.79155
 H702 H 0.87500 0.34023 0.86451
 H703 H 0.90916 0.22104 0.84470
 H704 H 0.82433 0.25746 0.93372
 H705 H 0.79661 0.32207 0.88153
 H706 H 0.82972 0.20351 0.86233
 C707 C 0.39570 0.73202 0.32499
 C708 C 0.41535 0.77148 0.33518
 C709 C 0.40964 0.76366 0.38397
 C710 C 0.39007 0.72453 0.37384
 C711 C 0.36834 0.78919 0.38235
 C712 C 0.37371 0.79648 0.33353
 C713 C 0.35451 0.75715 0.32393
 C714 C 0.34861 0.74977 0.37230
 H715 H 0.40692 0.70853 0.30102
 H716 H 0.44203 0.78161 0.31880
 H717 H 0.39677 0.69483 0.39057
 H718 H 0.35695 0.81328 0.40558
 H719 H 0.36671 0.82601 0.31656
 H720 H 0.32074 0.74085 0.38732
 C721 C 0.27003 0.83084 0.11915
 C722 C 0.26332 0.87708 0.12818
 C723 C 0.30360 0.88280 0.10609
 C724 C 0.31019 0.83647 0.09664
 C725 C 0.32575 0.87637 0.14948
 C726 C 0.28540 0.87061 0.17184
 C727 C 0.29222 0.82471 0.16233
 C728 C 0.33241 0.82986 0.14036
 H729 H 0.24699 0.81180 0.10696
 H730 H 0.23460 0.89637 0.12298
 H731 H 0.31916 0.82033 0.06623
 H732 H 0.34875 0.89531 0.16190
 H733 H 0.27508 0.88444 0.20309
 H734 H 0.36081 0.81008 0.14563
 C735 C 0.77657 0.38400 0.68049
 C736 C 0.80532 0.37737 0.64130
 C737 C 0.77192 0.39745 0.61160
 C738 C 0.74332 0.40418 0.65040
 C739 C 0.75723 0.35520 0.60302
 C740 C 0.79031 0.33523 0.63308
 C741 C 0.76163 0.34231 0.67160
 C742 C 0.72842 0.36196 0.64191
 H743 H 0.78462 0.39552 0.71267
 H744 H 0.83735 0.38310 0.64070
 H745 H 0.72386 0.43272 0.65741
 H746 H 0.75014 0.34080 0.57198
 H747 H 0.80975 0.30665 0.62619
 H748 H 0.69664 0.35528 0.64233
 C749 C 0.68469 0.17822 0.12606
 C750 C 0.71731 0.14799 0.10499
 C751 C 0.69090 0.11298 0.11319
 C752 C 0.65842 0.14293 0.13423
 C753 C 0.71155 0.10459 0.15738
 C754 C 0.73753 0.13989 0.14919
 C755 C 0.70493 0.16969 0.17001
 C756 C 0.67896 0.13482 0.17880
 H757 H 0.67382 0.20881 0.11323
 H758 H 0.73379 0.15354 0.07483
 H759 H 0.62576 0.14402 0.12791
 H760 H 0.72370 0.07470 0.17094
 H761 H 0.77019 0.13896 0.15554
 H762 H 0.66334 0.12971 0.20960
 C763 C 0.22278 0.61744 0.67855
 C764 C 0.19467 0.62426 0.63887
 C765 C 0.22812 0.60321 0.60989
 C766 C 0.25610 0.59629 0.64918
 C767 C 0.24385 0.64495 0.60113
 C768 C 0.21069 0.66588 0.63049
 C769 C 0.23873 0.65860 0.66952
 C770 C 0.27203 0.63801 0.64054
 H771 H 0.21402 0.60646 0.71071
 H772 H 0.16247 0.61922 0.63782
 H773 H 0.27490 0.56747 0.65675
 H774 H 0.25168 0.65881 0.57007
 H775 H 0.19190 0.69474 0.62303
 H776 H 0.30399 0.64401 0.64142
 C777 C 0.89535 0.70761 0.17864
 C778 C 0.89570 0.67702 0.14050
 C779 C 0.91036 0.70937 0.11021
 C780 C 0.91013 0.74010 0.14798
 C781 C 0.86656 0.72562 0.09939
 C782 C 0.85170 0.69307 0.12973
 C783 C 0.85193 0.72334 0.16744
 C784 C 0.86636 0.75585 0.13741
 H785 H 0.90695 0.70039 0.21160
 H786 H 0.90791 0.64444 0.14165
 H787 H 0.93361 0.76044 0.15550
 H788 H 0.85345 0.73471 0.06752
 H789 H 0.82737 0.67374 0.12229
 H790 H 0.85412 0.78841 0.13638
 C791 C 0.36731 0.23899 0.67627
 C792 C 0.38582 0.19793 0.65696
 C793 C 0.38230 0.21678 0.61140
 C794 C 0.36381 0.25774 0.63049
 C795 C 0.33990 0.20276 0.60623
 C796 C 0.34329 0.18387 0.65211
 C797 C 0.32544 0.22480 0.67102
 C798 C 0.32159 0.24365 0.62570
 H799 H 0.37841 0.25396 0.70538
 H800 H 0.41246 0.17900 0.66981
 H801 H 0.37182 0.28843 0.62131
 H802 H 0.32568 0.18900 0.57830
 H803 H 0.33459 0.15345 0.66134
 H804 H 0.29486 0.26267 0.61315
 C805 C 0.12440 0.24061 0.14931
 C806 C 0.08402 0.26642 0.15749
 C807 C 0.08792 0.28788 0.11352
 C808 C 0.12807 0.26162 0.10530
 C809 C 0.11003 0.32117 0.13504
 C810 C 0.10638 0.29984 0.17937
 C811 C 0.14633 0.27404 0.17059
 C812 C 0.15043 0.29507 0.12684
 H813 H 0.13064 0.20737 0.15542
 H814 H 0.05722 0.25357 0.17061
 H815 H 0.13731 0.24514 0.07508
 H816 H 0.10395 0.35441 0.12898
 H817 H 0.09776 0.31538 0.21028
 H818 H 0.17809 0.30669 0.11427
 C819 C 0.67637 0.75971 0.62243
 C820 C 0.63400 0.74607 0.62765
 C821 C 0.61576 0.78696 0.60818
 C822 C 0.65831 0.80051 0.60259
 C823 C 0.61262 0.80629 0.65354
 C824 C 0.63089 0.76532 0.67324
 C825 C 0.67292 0.77906 0.66755
 C826 C 0.65529 0.81991 0.64825
 H827 H 0.70290 0.74033 0.60992
 H828 H 0.62569 0.71538 0.61890
 H829 H 0.67258 0.81380 0.57441
 H830 H 0.58618 0.82558 0.66634
 H831 H 0.61978 0.75077 0.70258
 H832 H 0.66429 0.85032 0.65703
   
