data_POSCAR
  _audit_creation_date              2014-09-24
  _audit_creation_method            'ToBaCCo'
  _symmetry_space_group_name_H-M    'P1'
  _symmetry_Int_Tables_number       1
  _symmetry_cell_setting            triclinic
  loop_
  _symmetry_equiv_pos_as_xyz
 x,y,z
_cell_length_a 44.3500
_cell_length_b 44.3339
_cell_length_c 44.7060
_cell_angle_alpha 89.867900
_cell_angle_beta 89.826100
_cell_angle_gamma 89.823800
loop_
  _atom_site_label
  _atom_site_type_symbol
  _atom_site_fract_x
  _atom_site_fract_y
  _atom_site_fract_z
N1 N 0.28814 0.37424 1.35058
 N2 N 0.28773 0.35127 1.36917
 C3 C 0.26420 0.35436 1.38803
 C4 C 0.24913 0.38098 1.38116
 C5 C 0.26516 0.39295 1.35717
 H6 H 0.25901 0.33877 1.40590
 H7 H 0.26039 0.41349 1.34502
 Cu8 Cu 0.31895 0.32046 1.36764
 Cu9 Cu 0.31800 0.37795 1.31871
 Cu10 Cu 0.37224 0.32136 1.31443
 N11 N 0.35015 0.28961 1.36604
 N12 N 0.37039 0.28952 1.34453
 C13 C 0.38937 0.26614 1.34864
 C14 C 0.38092 0.25084 1.37450
 C15 C 0.35581 0.26654 1.38484
 H16 H 0.40859 0.26150 1.33446
 H17 H 0.34259 0.26168 1.40458
 N18 N 0.37038 0.35564 1.28628
 N19 N 0.35004 0.37736 1.28801
 C20 C 0.35511 0.39745 1.26589
 C21 C 0.37995 0.38801 1.24952
 C22 C 0.38893 0.36139 1.26314
 H23 H 0.34177 0.41751 1.26204
 H24 H 0.40747 0.34701 1.25652
 H25 H 0.32681 0.33243 1.31495
 H26 H 0.35195 0.35448 1.34004
 N27 N 1.21475 0.63036 0.85111
 N28 N 1.21475 0.65261 0.87045
 C29 C 1.23791 0.64864 0.88961
 C30 C 1.25311 0.62234 0.88187
 C31 C 1.23768 0.61153 0.85725
 H32 H 1.24296 0.66349 0.90806
 H33 H 1.24251 0.59129 0.84470
 Cu34 Cu 1.18386 0.68400 0.86938
 Cu35 Cu 1.18457 0.62627 0.81999
 Cu36 Cu 1.12486 0.67608 0.82235
 N37 N 1.14905 0.71099 0.87061
 N38 N 1.12552 0.70656 0.85343
 C39 C 1.10436 0.72741 0.85957
 C40 C 1.11523 0.74650 0.88154
 C41 C 1.14383 0.73530 0.88797
 H42 H 1.08310 0.72912 0.84797
 H43 H 1.15948 0.74376 0.90440
 N44 N 1.12830 0.64403 0.79228
 N45 N 1.15166 0.62566 0.79063
 C46 C 1.14791 0.60695 0.76724
 C47 C 1.12072 0.61375 0.75364
 C48 C 1.10895 0.63740 0.77014
 H49 H 1.16350 0.58926 0.76093
 H50 H 1.08798 0.64918 0.76609
 H51 H 1.17099 0.67085 0.81801
 H52 H 1.15171 0.64621 0.84623
 N53 N 0.70704 -0.13019 0.14536
 N54 N 0.70718 -0.15294 0.12657
 C55 C 0.73024 -0.14947 0.10715
 C56 C 0.74514 -0.12298 0.11408
 C57 C 0.72976 -0.11140 0.13847
 H58 H 0.73542 -0.16463 0.08892
 H59 H 0.73487 -0.09094 0.15052
 Cu60 Cu 0.67598 -0.18360 0.12898
 Cu61 Cu 0.67783 -0.12675 0.17775
 Cu62 Cu 0.62367 -0.18311 0.18338
 N63 N 0.64456 -0.21401 0.13073
 N64 N 0.62428 -0.21401 0.15222
 C65 C 0.60496 -0.23697 0.14779
 C66 C 0.61344 -0.25220 0.12191
 C67 C 0.63879 -0.23679 0.11184
 H68 H 0.58595 -0.24180 0.16218
 H69 H 0.65213 -0.24158 0.09219
 N70 N 0.62694 -0.14953 0.21223
 N71 N 0.64662 -0.12743 0.20910
 C72 C 0.64209 -0.10704 0.23090
 C73 C 0.61874 -0.11688 0.24885
 C74 C 0.60971 -0.14396 0.23651
 H75 H 0.65508 -0.08668 0.23386
 H76 H 0.59144 -0.15808 0.24426
 H77 H 0.66878 -0.17239 0.18179
 H78 H 0.64303 -0.15008 0.15728
 N79 N -0.20964 1.12623 -0.35420
 N80 N -0.21014 1.14904 -0.37301
 C81 C -0.23304 1.14522 -0.39236
 C82 C -0.24755 1.11851 -0.38532
 C83 C -0.23202 1.10706 -0.36100
 H84 H -0.23858 1.16051 -0.41041
 H85 H -0.23704 1.08665 -0.34870
 Cu86 Cu -0.18044 1.18103 -0.37015
 Cu87 Cu -0.18091 1.12361 -0.32149
 Cu88 Cu -0.13057 1.18306 -0.31382
 N89 N -0.15076 1.21301 -0.36728
 N90 N -0.13212 1.21443 -0.34455
 C91 C -0.11392 1.23843 -0.34815
 C92 C -0.12123 1.25272 -0.37490
 C93 C -0.14484 1.23578 -0.38631
 H94 H -0.09587 1.24413 -0.33302
 H95 H -0.15680 1.23953 -0.40699
 N96 N -0.13245 1.14867 -0.28566
 N97 N -0.15043 1.12534 -0.28966
 C98 C -0.14475 1.10455 -0.26840
 C99 C -0.12238 1.11539 -0.24996
 C100 C -0.11518 1.14347 -0.26142
 H101 H -0.15626 1.08320 -0.26620
 H102 H -0.09796 1.15851 -0.25319
 H103 H -0.17512 1.16980 -0.31691
 H104 H -0.14701 1.14939 -0.34053
 N105 N 0.70642 0.62854 0.63975
 N106 N 0.70461 0.65077 0.62036
 C107 C 0.72731 0.64808 0.60039
 C108 C 0.74430 0.62278 0.60769
 C109 C 0.73019 0.61101 0.63284
 H110 H 0.73136 0.66361 0.58216
 H111 H 0.73683 0.59135 0.64554
 Cu112 Cu 0.67288 0.68108 0.62359
 Cu113 Cu 0.67890 0.62453 0.67353
 Cu114 Cu 0.62462 0.68036 0.68167
 N115 N 0.64164 0.71176 0.62804
 N116 N 0.62302 0.71140 0.65094
 C117 C 0.60343 0.73450 0.64842
 C118 C 0.61003 0.75033 0.62248
 C119 C 0.63452 0.73519 0.61016
 H120 H 0.58561 0.73920 0.66428
 H121 H 0.64607 0.74053 0.58952
 N122 N 0.62959 0.64693 0.71027
 N123 N 0.64916 0.62478 0.70635
 C124 C 0.64608 0.60473 0.72885
 C125 C 0.62385 0.61505 0.74800
 C126 C 0.61394 0.64184 0.73561
 H127 H 0.65956 0.58457 0.73165
 H128 H 0.59633 0.65631 0.74431
 H129 H 0.64298 0.64713 0.65467
 H130 H 0.67008 0.67004 0.67696
 N131 N 0.79242 0.37095 0.14776
 N132 N 0.79376 0.34830 0.12891
 C133 C 0.77040 0.35023 0.10983
 C134 C 0.75358 0.37553 0.11700
 C135 C 0.76828 0.38819 0.14119
 H136 H 0.76620 0.33470 0.09173
 H137 H 0.76171 0.40823 0.15335
 Cu138 Cu 0.82641 0.31915 0.13058
 Cu139 Cu 0.82184 0.37587 0.17968
 Cu140 Cu 0.87994 0.32298 0.18331
 N141 N 0.85905 0.29003 0.13228
 N142 N 0.88008 0.29135 0.15287
 C143 C 0.89996 0.26868 0.14838
 C144 C 0.89092 0.25245 0.12346
 C145 C 0.86482 0.26669 0.11402
 H146 H 0.91969 0.26460 0.16196
 H147 H 0.85086 0.26041 0.09531
 N148 N 0.87565 0.35677 0.21185
 N149 N 0.85368 0.37687 0.21033
 C150 C 0.85693 0.39687 0.23269
 C151 C 0.88217 0.38912 0.24922
 C152 C 0.89344 0.36352 0.23526
 H153 H 0.84183 0.41559 0.23674
 H154 H 0.91316 0.35071 0.24161
 H155 H 0.85749 0.35484 0.15805
 H156 H 0.83403 0.33087 0.18325
 N157 N 0.28781 0.12719 0.85427
 N158 N 0.28866 0.14959 0.87343
 C159 C 0.26622 0.14624 0.89350
 C160 C 0.25032 0.12033 0.88664
 C161 C 0.26477 0.10884 0.86151
 H162 H 0.26171 0.16169 0.91163
 H163 H 0.25908 0.08862 0.84935
 Cu164 Cu 0.31888 0.18105 0.87042
 Cu165 Cu 0.31663 0.12357 0.82135
 Cu166 Cu 0.37093 0.17954 0.81584
 N167 N 0.35004 0.21164 0.86752
 N168 N 0.36995 0.21136 0.84570
 C169 C 0.38893 0.23475 0.84908
 C170 C 0.38062 0.25040 0.87457
 C171 C 0.35584 0.23507 0.88569
 H172 H 0.40797 0.23942 0.83466
 H173 H 0.34309 0.24051 0.90560
 N174 N 0.36838 0.14551 0.78779
 N175 N 0.34786 0.12410 0.78970
 C176 C 0.35258 0.10409 0.76744
 C177 C 0.37739 0.11331 0.75087
 C178 C 0.38665 0.13970 0.76446
 H179 H 0.33921 0.08411 0.76376
 H180 H 0.40526 0.15386 0.75771
 H181 H 0.35100 0.14649 0.84228
 H182 H 0.32547 0.16893 0.81760
 N183 N 0.20849 0.87415 0.35437
 N184 N 0.20803 0.85261 0.37456
 C185 C 0.23062 0.85719 0.39416
 C186 C 0.24601 0.88308 0.38575
 C187 C 0.23125 0.89309 0.36033
 H188 H 0.23536 0.84290 0.41320
 H189 H 0.23667 0.91262 0.34689
 Cu190 Cu 0.17762 0.82106 0.37328
 Cu191 Cu 0.17961 0.87653 0.32197
 Cu192 Cu 0.12373 0.82225 0.31994
 N193 N 0.14525 0.79156 0.37235
 N194 N 0.12432 0.79197 0.35161
 C195 C 0.10493 0.76915 0.35662
 C196 C 0.11412 0.75362 0.38198
 C197 C 0.13985 0.76857 0.39126
 H198 H 0.08548 0.76441 0.34293
 H199 H 0.15379 0.76304 0.41027
 N200 N 0.12714 0.85484 0.28999
 N201 N 0.14851 0.87542 0.29086
 C202 C 0.14486 0.89463 0.26782
 C203 C 0.11993 0.88587 0.25149
 C204 C 0.10928 0.86047 0.26627
 H205 H 0.15932 0.91368 0.26338
 H206 H 0.08988 0.84711 0.26035
 H207 H 0.14498 0.85489 0.34490
 H208 H 0.16925 0.83094 0.32022
 Zn209 Zn -0.00660 0.95944 0.01553
 Zn210 Zn -0.03951 1.01414 -0.00458
 Zn211 Zn 0.02124 1.02091 0.02338
 Zn212 Zn 0.01478 0.99362 -0.03772
 O213 O -0.00241 0.99707 -0.00075
 O214 O -0.04498 0.94971 0.02379
 O215 O -0.04310 1.04785 0.01640
 O216 O 0.03458 1.00060 0.05571
 O217 O -0.06930 0.99044 0.00849
 O218 O 0.01338 0.95583 0.04993
 O219 O 0.00141 1.05373 0.03764
 O220 O 0.04869 1.01464 -0.04070
 O221 O -0.04843 1.02434 -0.04224
 O222 O 0.05428 1.03496 0.00408
 O223 O -0.00884 1.00740 -0.06736
 O224 O 0.02516 0.95570 -0.04689
 O225 O 0.00797 0.93006 -0.00792
 C226 C -0.06934 0.96434 0.02019
 C227 C -0.02551 1.06258 0.03319
 C228 C 0.02988 0.97377 0.06468
 C229 C 0.06338 1.03095 -0.02264
 C230 C -0.03433 1.02051 -0.06667
 C231 C 0.02135 0.93100 -0.03302
 Zn232 Zn 0.48445 0.00758 0.46008
 Zn233 Zn 0.47413 -0.01992 0.52111
 Zn234 Zn 0.53637 -0.01501 0.49485
 Zn235 Zn 0.50422 0.04048 0.51394
 O236 O 0.49965 0.00319 0.49762
 O237 O 0.45012 -0.01231 0.45604
 O238 O 0.49258 -0.05342 0.53572
 O239 O 0.54662 -0.02535 0.45751
 O240 O 0.44153 -0.03291 0.50043
 O241 O 0.50861 -0.00687 0.43135
 O242 O 0.53806 -0.04886 0.51582
 O243 O 0.54260 0.04923 0.52303
 O244 O 0.46004 0.00059 0.55343
 O245 O 0.56629 0.00770 0.50887
 O246 O 0.48352 0.04421 0.54773
 O247 O 0.49053 0.07037 0.49058
 O248 O 0.47600 0.04583 0.45021
 C249 C 0.43403 -0.02838 0.47331
 C250 C 0.51939 -0.06309 0.53201
 C251 C 0.53357 -0.02081 0.43270
 C252 C 0.56665 0.03386 0.52031
 C253 C 0.46579 0.02722 0.56231
 C254 C 0.47889 0.07021 0.46469
 Zn255 Zn 1.00424 0.46192 0.48620
 Zn256 Zn 1.03839 0.51502 0.50772
 Zn257 Zn 0.97838 0.52427 0.47825
 Zn258 Zn 0.98287 0.49608 0.53938
 O259 O 1.00086 0.49939 0.50279
 O260 O 1.04243 0.45135 0.47765
 O261 O 1.04298 0.54943 0.48798
 O262 O 0.96522 0.50498 0.44520
 O263 O 1.06752 0.49116 0.49357
 O264 O 0.98447 0.45934 0.45173
 O265 O 0.99934 0.55686 0.46531
 O266 O 0.94879 0.51734 0.54144
 O267 O 1.04750 0.52328 0.54588
 O268 O 0.94510 0.53873 0.49681
 O269 O 1.00579 0.50972 0.56934
 O270 O 0.97299 0.45807 0.54891
 O271 O 0.98883 0.43272 0.50931
 C272 C 1.06701 0.46551 0.48111
 C273 C 1.02620 0.56500 0.47096
 C274 C 0.96903 0.47793 0.43649
 C275 C 0.93496 0.53431 0.52311
 C276 C 1.03218 0.52068 0.56977
 C277 C 0.97617 0.43345 0.53480
 Zn278 Zn 0.48961 0.49412 0.95892
 Zn279 Zn 0.54169 0.51268 0.99572
 Zn280 Zn 0.47901 0.52142 1.02023
 Zn281 Zn 0.50602 0.45942 1.01287
 O282 O 0.50390 0.49708 0.99703
 O283 O 0.51529 0.50811 0.93108
 O284 O 0.54446 0.54594 1.01709
 O285 O 0.44732 0.53607 0.99889
 O286 O 0.55348 0.52312 0.95893
 O287 O 0.45625 0.51574 0.95449
 O288 O 0.49877 0.55393 1.03541
 O289 O 0.48446 0.45642 1.04597
 O290 O 0.57007 0.48803 1.01039
 O291 O 0.46346 0.50130 1.05230
 O292 O 0.54335 0.44801 1.02292
 O293 O 0.49164 0.43089 0.98885
 O294 O 0.47955 0.45640 0.94817
 C295 C 0.54097 0.52039 0.93361
 C296 C 0.52630 0.56154 1.03263
 C297 C 0.44028 0.53215 0.97156
 C298 C 0.46765 0.47416 1.06075
 C299 C 0.56838 0.46168 1.02134
 C300 C 0.48087 0.43177 0.96264
 C301 C 1.17363 0.41786 0.42540
 C302 C 1.18884 0.43503 0.40381
 C303 C 1.21356 0.42272 0.38885
 C304 C 1.22365 0.39335 0.39560
 C305 C 1.20748 0.37688 0.41736
 N306 N 1.18311 0.38927 0.43127
 C307 C 1.14718 0.43010 0.44138
 N308 N 1.12317 0.41190 0.44717
 C309 C 1.09763 0.42238 0.46058
 C310 C 1.09542 0.45277 0.46914
 C311 C 1.12038 0.47156 0.46428
 C312 C 1.14618 0.46037 0.45033
 H313 H 1.22487 0.43661 0.37242
 H314 H 1.21373 0.35405 0.42320
 H315 H 1.07898 0.40709 0.46415
 H316 H 1.11967 0.49515 0.47051
 H317 H 1.18143 0.45763 0.39818
 H318 H 1.16515 0.47523 0.44656
 C319 C 0.33169 0.58290 0.92179
 C320 C 0.31549 0.56686 0.90017
 C321 C 0.28978 0.57958 0.88758
 C322 C 0.27983 0.60832 0.89641
 C323 C 0.29608 0.62321 0.91894
 N324 N 0.32129 0.61034 0.93087
 C325 C 0.36008 0.57060 0.93423
 N326 N 0.36780 0.57622 0.96318
 C327 C 0.39338 0.56467 0.97570
 C328 C 0.41287 0.54636 0.95873
 C329 C 0.40561 0.54120 0.92862
 C330 C 0.37944 0.55321 0.91637
 H331 H 0.27784 0.56670 0.87091
 H332 H 0.28918 0.64525 0.92671
 H333 H 0.39830 0.56957 0.99888
 H334 H 0.42011 0.52770 0.91439
 H335 H 0.32249 0.54457 0.89308
 H336 H 0.37463 0.54913 0.89300
 C337 C -0.17865 0.91575 0.06980
 C338 C -0.19827 0.93426 0.08631
 C339 C -0.22310 0.92159 0.10071
 C340 C -0.22864 0.89055 0.09860
 C341 C -0.20855 0.87278 0.08181
 N342 N -0.18422 0.88560 0.06826
 C343 C -0.15145 0.92819 0.05516
 N344 N -0.12607 0.91092 0.05331
 C345 C -0.09986 0.92161 0.04153
 C346 C -0.09821 0.95136 0.03074
 C347 C -0.12444 0.96913 0.03153
 C348 C -0.15101 0.95767 0.04370
 H349 H -0.23802 0.93617 0.11334
 H350 H -0.21182 0.84870 0.07989
 H351 H -0.08025 0.90702 0.04109
 H352 H -0.12430 0.99213 0.02331
 H353 H -0.19416 0.95818 0.08872
 H354 H -0.17096 0.97179 0.04409
 C355 C 0.67570 0.08030 0.57155
 C356 C 0.69496 0.06171 0.58838
 C357 C 0.71997 0.07420 0.60244
 C358 C 0.72597 0.10512 0.59975
 C359 C 0.70608 0.12299 0.58287
 N360 N 0.68166 0.11034 0.56957
 C361 C 0.64854 0.06815 0.55688
 N362 N 0.62374 0.08608 0.55395
 C363 C 0.59763 0.07593 0.54174
 C364 C 0.59547 0.04607 0.53157
 C365 C 0.62111 0.02753 0.53352
 C366 C 0.64762 0.03846 0.54611
 H367 H 0.73467 0.05957 0.61524
 H368 H 0.70960 0.14702 0.58060
 H369 H 0.57850 0.09109 0.54037
 H370 H 0.62057 0.00440 0.52581
 H371 H 0.69049 0.03789 0.59121
 H372 H 0.66715 0.02381 0.54727
 C373 C 0.42472 0.17657 0.41449
 C374 C 0.40155 0.19143 0.42997
 C375 C 0.38676 0.21572 0.41660
 C376 C 0.39522 0.22577 0.38788
 C377 C 0.41858 0.21000 0.37315
 N378 N 0.43227 0.18602 0.38650
 C379 C 0.44034 0.15030 0.42768
 N380 N 0.44798 0.12658 0.40990
 C381 C 0.46105 0.10113 0.42103
 C382 C 0.46734 0.09868 0.45172
 C383 C 0.46061 0.12334 0.47021
 C384 C 0.44696 0.14907 0.45833
 H385 H 0.36907 0.22674 0.42921
 H386 H 0.42580 0.21625 0.35088
 H387 H 0.46613 0.08271 0.40597
 H388 H 0.46507 0.12241 0.49400
 H389 H 0.39453 0.18403 0.45200
 H390 H 0.44163 0.16778 0.47296
 C391 C 0.92195 0.32736 0.58534
 C392 C 0.90024 0.31137 0.56919
 C393 C 0.88566 0.28698 0.58247
 C394 C 0.89282 0.27797 0.61184
 C395 C 0.91461 0.29494 0.62730
 N396 N 0.92818 0.31896 0.61395
 C397 C 0.93740 0.35367 0.57210
 N398 N 0.94356 0.37799 0.58955
 C399 C 0.95645 0.40343 0.57831
 C400 C 0.96410 0.40526 0.54785
 C401 C 0.95883 0.38004 0.52971
 C402 C 0.94539 0.35430 0.54171
 H403 H 0.86915 0.27509 0.56928
 H404 H 0.92071 0.28954 0.65008
 H405 H 0.96043 0.42227 0.59312
 H406 H 0.96444 0.38044 0.50612
 H407 H 0.89420 0.31795 0.54665
 H408 H 0.94135 0.33509 0.52737
 C409 C 0.07199 0.82269 -0.08191
 C410 C 0.05532 0.80236 -0.09903
 C411 C 0.06967 0.77725 -0.11138
 C412 C 0.10054 0.77182 -0.10608
 C413 C 0.11621 0.79276 -0.08834
 N414 N 0.10185 0.81749 -0.07728
 C415 C 0.05800 0.85012 -0.06959
 N416 N 0.07243 0.87697 -0.07276
 C417 C 0.06075 0.90310 -0.06183
 C418 C 0.03339 0.90293 -0.04602
 C419 C 0.01839 0.87541 -0.04201
 C420 C 0.03042 0.84898 -0.05419
 H421 H 0.05626 0.76202 -0.12465
 H422 H 0.14000 0.79013 -0.08385
 H423 H 0.07320 0.92385 -0.06487
 H424 H -0.00265 0.87444 -0.02970
 H425 H 0.03160 0.80620 -0.10336
 H426 H 0.01871 0.82780 -0.05104
 C427 C 0.57435 0.67038 1.08363
 C428 C 0.59851 0.68473 1.06927
 C429 C 0.61113 0.71042 1.08175
 C430 C 0.59977 0.72241 1.10864
 C431 C 0.57460 0.70798 1.12168
 N432 N 0.56279 0.68266 1.10910
 C433 C 0.56208 0.64181 1.07174
 N434 N 0.53212 0.63536 1.07430
 C435 C 0.51995 0.60972 1.06258
 C436 C 0.53835 0.58897 1.04723
 C437 C 0.56936 0.59497 1.04533
 C438 C 0.58123 0.62108 1.05756
 H439 H 0.62988 0.72056 1.07003
 H440 H 0.56453 0.71632 1.14210
 H441 H 0.49598 0.60583 1.06484
 H442 H 0.58466 0.57951 1.03423
 H443 H 0.60765 0.67625 1.04843
 H444 H 0.60529 0.62485 1.05601
 C445 C 0.41822 0.42731 1.17058
 C446 C 0.43411 0.40491 1.18625
 C447 C 0.42184 0.39259 1.21217
 C448 C 0.39376 0.40251 1.22285
 C449 C 0.37913 0.42594 1.20725
 N450 N 0.39150 0.43752 1.18176
 C451 C 0.42984 0.43911 1.14181
 N452 N 0.42521 0.46849 1.13392
 C453 C 0.43643 0.48034 1.10798
 C454 C 0.45338 0.46219 1.08836
 C455 C 0.45744 0.43167 1.09585
 C456 C 0.44574 0.42012 1.12230
 H457 H 0.43449 0.37526 1.22372
 H458 H 0.35758 0.43455 1.21477
 H459 H 0.43252 0.50392 1.10296
 H460 H 0.46991 0.41656 1.08133
 H461 H 0.45589 0.39694 1.17860
 H462 H 0.44898 0.39642 1.12728
 C463 C 0.58295 -0.07232 0.32562
 C464 C 0.59430 -0.05514 0.30176
 C465 C 0.60613 -0.06974 0.27674
 C466 C 0.60612 -0.10133 0.27521
 C467 C 0.59434 -0.11769 0.29943
 N468 N 0.58351 -0.10298 0.32388
 C469 C 0.57085 -0.05783 0.35275
 N470 N 0.57667 -0.07039 0.37993
 C471 C 0.56579 -0.05838 0.40576
 C472 C 0.54721 -0.03270 0.40499
 C473 C 0.54076 -0.01953 0.37717
 C474 C 0.55280 -0.03184 0.35103
 H475 H 0.61499 -0.05633 0.25846
 H476 H 0.59428 -0.14210 0.29918
 H477 H 0.57099 -0.06937 0.42677
 H478 H 0.52641 0.00023 0.37567
 H479 H 0.59454 -0.03074 0.30270
 H480 H 0.54740 -0.02165 0.32966
 C481 C -0.08399 1.07128 -0.17411
 C482 C -0.09394 1.05397 -0.19836
 C483 C -0.10663 1.06838 -0.22312
 C484 C -0.10885 1.09994 -0.22396
 C485 C -0.09833 1.11642 -0.19940
 N486 N -0.08667 1.10186 -0.17524
 C487 C -0.07144 1.05703 -0.14702
 N488 N -0.07835 1.06888 -0.11980
 C489 C -0.06733 1.05710 -0.09394
 C490 C -0.04751 1.03236 -0.09465
 C491 C -0.03979 1.02000 -0.12250
 C492 C -0.05197 1.03206 -0.14873
 H493 H -0.11443 1.05488 -0.24169
 H494 H -0.09993 1.14078 -0.19914
 H495 H -0.07353 1.06753 -0.07292
 H496 H -0.02444 1.00101 -0.12397
 H497 H -0.09253 1.02959 -0.19792
 H498 H -0.04567 1.02248 -0.17011
 C499 C 1.08079 0.57032 0.67818
 C500 C 1.06258 0.58680 0.69807
 C501 C 1.07564 0.60096 0.72261
 C502 C 1.10678 0.59871 0.72759
 C503 C 1.12423 0.58203 0.70719
 N504 N 1.11103 0.56868 0.68320
 C505 C 1.06805 0.55588 0.65123
 N506 N 1.08549 0.55329 0.62624
 C507 C 1.07482 0.54150 0.60029
 C508 C 1.04488 0.53144 0.59844
 C509 C 1.02681 0.53305 0.62423
 C510 C 1.03828 0.54521 0.65059
 H511 H 1.06127 0.61351 0.73774
 H512 H 1.14837 0.57999 0.70997
 H513 H 1.08963 0.54045 0.58103
 H514 H 1.00365 0.52541 0.62393
 H515 H 1.03861 0.58937 0.69443
 H516 H 1.02396 0.54612 0.67021
 C517 C 0.82464 0.58873 0.56569
 C518 C 0.80965 0.61362 0.55302
 C519 C 0.78337 0.62469 0.56654
 C520 C 0.77195 0.61116 0.59268
 C521 C 0.78771 0.58637 0.60454
 N522 N 0.81318 0.57610 0.59104
 C523 C 0.85300 0.57592 0.55332
 N524 N 0.86942 0.55723 0.57117
 C525 C 0.89545 0.54397 0.56200
 C526 C 0.90657 0.54903 0.53299
 C527 C 0.89004 0.56815 0.51400
 C528 C 0.86326 0.58160 0.52403
 H529 H 0.77219 0.64391 0.55653
 H530 H 0.78013 0.57513 0.62464
 H531 H 0.90733 0.52941 0.57748
 H532 H 0.89770 0.57257 0.49140
 H533 H 0.81818 0.62492 0.53332
 H534 H 0.85071 0.59573 0.50873
 C535 C 0.67420 0.40811 1.07337
 C536 C 0.68250 0.37770 1.07033
 C537 C 0.70841 0.36706 1.08454
 C538 C 0.72602 0.38657 1.10188
 C539 C 0.71699 0.41684 1.10427
 N540 N 0.69179 0.42673 1.09000
 C541 C 0.64705 0.42064 1.05876
 N542 N 0.64660 0.45038 1.05114
 C543 C 0.62213 0.46371 1.03843
 C544 C 0.59583 0.44698 1.03325
 C545 C 0.59578 0.41629 1.04098
 C546 C 0.62133 0.40302 1.05361
 H547 H 0.71445 0.34353 1.08212
 H548 H 0.73009 0.43274 1.11709
 H549 H 0.62307 0.48750 1.03303
 H550 H 0.57591 0.40260 1.03757
 H551 H 0.66949 0.36234 1.05676
 H552 H 0.62053 0.37949 1.06004
 C553 C 0.17234 1.08459 -0.06880
 C554 C 0.18730 1.10953 -0.05655
 C555 C 0.21282 1.12105 -0.07091
 C556 C 0.22354 1.10796 -0.09753
 C557 C 0.20790 1.08307 -0.10897
 N558 N 0.18310 1.07233 -0.09462
 C559 C 0.14456 1.07163 -0.05547
 N560 N 0.12727 1.05355 -0.07292
 C561 C 0.10150 1.04054 -0.06289
 C562 C 0.09157 1.04529 -0.03340
 C563 C 0.10908 1.06367 -0.01480
 C564 C 0.13559 1.07682 -0.02568
 H565 H 0.22393 1.14030 -0.06112
 H566 H 0.21502 1.07222 -0.12943
 H567 H 0.08884 1.02648 -0.07808
 H568 H 0.10237 1.06777 0.00815
 H569 H 0.17926 1.12059 -0.03653
 H570 H 0.14892 1.09039 -0.01068
 C571 C 0.32463 -0.07769 0.42489
 C572 C 0.30849 -0.06182 0.40296
 C573 C 0.28271 -0.07444 0.39066
 C574 C 0.27264 -0.10289 0.40011
 C575 C 0.28878 -0.11759 0.42297
 N576 N 0.31407 -0.10483 0.43459
 C577 C 0.35307 -0.06550 0.43704
 N578 N 0.36101 -0.07115 0.46596
 C579 C 0.38672 -0.05980 0.47820
 C580 C 0.40612 -0.04171 0.46093
 C581 C 0.39855 -0.03636 0.43091
 C582 C 0.37229 -0.04822 0.41894
 H583 H 0.27081 -0.06173 0.37373
 H584 H 0.28175 -0.13941 0.43122
 H585 H 0.39185 -0.06477 0.50134
 H586 H 0.41295 -0.02297 0.41651
 H587 H 0.31558 -0.03974 0.39539
 H588 H 0.36733 -0.04415 0.39558
 C589 C 0.56503 -0.17176 0.58681
 C590 C 0.55288 -0.18645 0.61195
 C591 C 0.56745 -0.21189 0.62356
 C592 C 0.59414 -0.22277 0.61034
 C593 C 0.60549 -0.20735 0.58530
 N594 N 0.59096 -0.18266 0.57449
 C595 C 0.55162 -0.14411 0.57361
 N596 N 0.56910 -0.12754 0.55475
 C597 C 0.55916 -0.10193 0.54138
 C598 C 0.52972 -0.09134 0.54657
 C599 C 0.51103 -0.10811 0.56572
 C600 C 0.52184 -0.13453 0.57926
 H601 H 0.55774 -0.22288 0.64292
 H602 H 0.62603 -0.21456 0.57436
 H603 H 0.57443 -0.08989 0.52671
 H604 H 0.48812 -0.10086 0.57021
 H605 H 0.53277 -0.17829 0.62303
 H606 H 0.50682 -0.14728 0.59352
 C607 C 1.07544 0.67462 0.42173
 C608 C 1.09757 0.69089 0.43713
 C609 C 1.10982 0.71673 0.42431
 C610 C 1.10008 0.72676 0.39615
 C611 C 1.07708 0.71044 0.38189
 N612 N 1.06555 0.68510 0.39482
 C613 C 1.06311 0.64618 0.43413
 N614 N 1.03427 0.63781 0.42781
 C615 C 1.02185 0.61205 0.43907
 C616 C 1.03882 0.59300 0.45779
 C617 C 1.06876 0.60104 0.46392
 C618 C 1.08094 0.62736 0.45214
 H619 H 1.12689 0.72877 0.43665
 H620 H 1.06864 0.71740 0.36028
 H621 H 0.99877 0.60658 0.43353
 H622 H 1.08296 0.58693 0.47785
 H623 H 1.10529 0.68394 0.45903
 H624 H 1.10427 0.63259 0.45680
 C625 C -0.07072 1.17309 0.08422
 C626 C -0.09140 1.19062 0.06804
 C627 C -0.10330 1.21669 0.08067
 C628 C -0.09470 1.22567 0.10947
 C629 C -0.07291 1.20824 0.12450
 N630 N -0.06168 1.18263 0.11172
 C631 C -0.05944 1.14418 0.07193
 N632 N -0.03070 1.13480 0.07756
 C633 C -0.01926 1.10877 0.06582
 C634 C -0.03716 1.09055 0.04731
 C635 C -0.06705 1.09958 0.04204
 C636 C -0.07820 1.12616 0.05427
 H637 H -0.11926 1.22970 0.06770
 H638 H -0.06541 1.21446 0.14663
 H639 H 0.00381 1.10250 0.07072
 H640 H -0.08194 1.08616 0.02833
 H641 H -0.09835 1.18432 0.04573
 H642 H -0.10144 1.13235 0.05008
 C643 C 0.42564 0.32588 0.91329
 C644 C 0.40745 0.30735 0.93130
 C645 C 0.39259 0.28291 0.91860
 C646 C 0.39587 0.27670 0.88802
 C647 C 0.41408 0.29589 0.87070
 N648 N 0.42813 0.31982 0.88354
 C649 C 0.44144 0.35222 0.92592
 N650 N 0.44523 0.37743 0.90888
 C651 C 0.45840 0.40284 0.91974
 C652 C 0.46872 0.40374 0.94942
 C653 C 0.46588 0.37760 0.96697
 C654 C 0.45231 0.35190 0.95536
 H655 H 0.37886 0.26871 0.93284
 H656 H 0.41690 0.29212 0.84696
 H657 H 0.46034 0.42240 0.90535
 H658 H 0.47364 0.37715 0.98992
 H659 H 0.40429 0.31192 0.95487
 H660 H 0.45041 0.33200 0.96930
 C661 C 0.59291 0.57415 0.82877
 C662 C 0.59394 0.60569 0.82654
 C663 C 0.60385 0.61904 0.80005
 C664 C 0.61335 0.60102 0.77607
 C665 C 0.61232 0.56955 0.77929
 N666 N 0.60185 0.55702 0.80510
 C667 C 0.58132 0.55945 0.85603
 N668 N 0.56183 0.53593 0.85361
 C669 C 0.54908 0.52266 0.87803
 C670 C 0.55611 0.53288 0.90688
 C671 C 0.57689 0.55648 0.90980
 C672 C 0.58935 0.56995 0.88445
 H673 H 0.60440 0.64340 0.79842
 H674 H 0.61920 0.55497 0.76111
 H675 H 0.53332 0.50436 0.87487
 H676 H 0.58283 0.56511 0.93164
 H677 H 0.58651 0.61986 0.84486
 H678 H 0.60506 0.58842 0.88700
 C679 C 0.41624 0.07420 0.67213
 C680 C 0.43259 0.09534 0.68877
 C681 C 0.42008 0.10756 0.71461
 C682 C 0.39129 0.09878 0.72428
 C683 C 0.37614 0.07655 0.70775
 N684 N 0.38876 0.06505 0.68235
 C685 C 0.42826 0.06246 0.64347
 N686 N 0.42194 0.03377 0.63459
 C687 C 0.43323 0.02191 0.60871
 C688 C 0.45204 0.03932 0.59013
 C689 C 0.45801 0.06917 0.59864
 C690 C 0.44618 0.08076 0.62504
 H691 H 0.43313 0.12389 0.72694
 H692 H 0.35402 0.06887 0.71451
 H693 H 0.42778 -0.00110 0.60287
 H694 H 0.47193 0.08372 0.58490
 H695 H 0.45493 0.10240 0.68199
 H696 H 0.45084 0.10400 0.63074
 C697 C 0.08352 0.92812 0.17303
 C698 C 0.10884 0.94067 0.18702
 C699 C 0.12061 0.92697 0.21259
 C700 C 0.10746 0.90067 0.22433
 C701 C 0.08231 0.88875 0.20951
 N702 N 0.07126 0.90250 0.18463
 C703 C 0.07021 0.94113 0.14547
 N704 N 0.05236 0.92325 0.12834
 C705 C 0.03930 0.93319 0.10270
 C706 C 0.04384 0.96294 0.09281
 C707 C 0.06185 0.98194 0.11027
 C708 C 0.07497 0.97121 0.13661
 H709 H 0.14013 0.93707 0.22290
 H710 H 0.07140 0.86849 0.21745
 H711 H 0.02546 0.91774 0.09007
 H712 H 0.06573 1.00512 0.10365
 H713 H 0.11999 0.96043 0.17820
 H714 H 0.08820 0.98657 0.14990
 C715 C 0.91692 0.43268 0.32748
 C716 C 0.89232 0.44551 0.31230
 C717 C 0.88113 0.43147 0.28671
 C718 C 0.89417 0.40457 0.27614
 C719 C 0.91868 0.39251 0.29204
 N720 N 0.92912 0.40658 0.31689
 C721 C 0.92960 0.44577 0.35523
 N722 N 0.94718 0.42781 0.37272
 C723 C 0.95989 0.43764 0.39848
 C724 C 0.95532 0.46743 0.40817
 C725 C 0.93751 0.48656 0.39042
 C726 C 0.92467 0.47588 0.36394
 H727 H 0.86217 0.44174 0.27541
 H728 H 0.92949 0.37182 0.28506
 H729 H 0.97353 0.42206 0.41133
 H730 H 0.93356 0.50975 0.39693
 H731 H 0.88127 0.46574 0.32022
 H732 H 0.91153 0.49128 0.35044
   
