data_POSCAR
  _audit_creation_date              2014-09-24
  _audit_creation_method            'ToBaCCo'
  _symmetry_space_group_name_H-M    'P1'
  _symmetry_Int_Tables_number       1
  _symmetry_cell_setting            triclinic
  loop_
  _symmetry_equiv_pos_as_xyz
 x,y,z
_cell_length_a 43.7712
_cell_length_b 42.8838
_cell_length_c 42.8560
_cell_angle_alpha 90.725300
_cell_angle_beta 90.700200
_cell_angle_gamma 90.430000
loop_
  _atom_site_label
  _atom_site_type_symbol
  _atom_site_fract_x
  _atom_site_fract_y
  _atom_site_fract_z
C1 C 0.22238 1.23177 0.19352
 C2 C 0.24399 1.20780 0.19352
 C3 C 0.24250 1.18470 0.21559
 C4 C 0.21938 1.18521 0.23791
 C5 C 0.19818 1.20884 0.23804
 C6 C 0.19967 1.23236 0.21554
 C7 C 0.21713 1.25595 0.17353
 N8 N 0.19154 1.27156 0.18253
 C9 C 0.18095 1.25703 0.20853
 C10 C 0.17766 1.20231 0.26124
 N11 N 0.18569 1.17503 0.27520
 C12 C 0.21142 1.16469 0.26079
 C13 C 0.26492 1.16345 0.20880
 N14 N 0.28004 1.17305 0.18306
 C15 C 0.26732 1.20025 0.17361
 H16 H 0.23112 1.26102 0.15362
 H17 H 0.16048 1.26279 0.22112
 H18 H 0.15769 1.21605 0.26633
 H19 H 0.22394 1.14379 0.26619
 H20 H 0.26899 1.14190 0.22099
 H21 H 0.27416 1.21346 0.15348
 C22 C 0.79762 0.77115 0.17433
 C23 C 0.77406 0.79314 0.17408
 C24 C 0.77409 0.81711 0.19591
 C25 C 0.79769 0.81946 0.21826
 C26 C 0.82085 0.79786 0.21847
 C27 C 0.82087 0.77352 0.19625
 C28 C 0.80407 0.74619 0.15517
 N29 N 0.83091 0.73308 0.16467
 C30 C 0.84117 0.75000 0.18998
 C31 C 0.84117 0.80671 0.24172
 N32 N 0.83111 0.83343 0.25583
 C33 C 0.80430 0.84113 0.24130
 C34 C 0.74945 0.83571 0.18921
 N35 N 0.73446 0.82370 0.16373
 C36 C 0.74944 0.79756 0.15442
 H37 H 0.79037 0.73919 0.13511
 H38 H 0.86183 0.74588 0.20330
 H39 H 0.86217 0.79467 0.24691
 H40 H 0.79021 0.86102 0.24658
 H41 H 0.74318 0.85661 0.20191
 H42 H 0.74362 0.78336 0.13412
 C43 C 0.79022 1.22704 -0.17664
 C44 C 0.76580 1.20576 -0.17863
 C45 C 0.76386 1.18474 -0.20326
 C46 C 0.78632 1.18484 -0.22634
 C47 C 0.81026 1.20591 -0.22447
 C48 C 0.81223 1.22723 -0.19936
 C49 C 0.79864 1.24885 -0.15440
 N50 N 0.82549 1.26265 -0.16278
 C51 C 0.83374 1.24934 -0.19055
 C52 C 0.82925 1.19953 -0.24906
 N53 N 0.81765 1.17483 -0.26597
 C54 C 0.79116 1.16597 -0.25191
 C55 C 0.73893 1.16579 -0.19814
 N56 N 0.72568 1.17483 -0.17097
 C57 C 0.74207 1.19933 -0.15895
 H58 H 0.78565 1.25395 -0.13371
 H59 H 0.85435 1.25423 -0.20328
 H60 H 0.85055 1.21159 -0.25317
 H61 H 0.77615 1.14708 -0.25918
 H62 H 0.73127 1.14663 -0.21301
 H63 H 0.73782 1.21092 -0.13686
 C64 C 0.19497 0.76992 -0.18852
 C65 C 0.21759 0.79330 -0.18865
 C66 C 0.21627 0.81664 -0.21059
 C67 C 0.19234 0.81698 -0.23265
 C68 C 0.17030 0.79389 -0.23260
 C69 C 0.17157 0.77026 -0.21031
 C70 C 0.18942 0.74531 -0.16903
 N71 N 0.16297 0.73052 -0.17826
 C72 C 0.15220 0.74595 -0.20379
 C73 C 0.14939 0.80067 -0.25566
 N74 N 0.15794 0.82761 -0.26991
 C75 C 0.18442 0.83757 -0.25568
 C76 C 0.24025 0.83676 -0.20444
 N77 N 0.25622 0.82627 -0.17930
 C78 C 0.24241 0.79965 -0.16951
 H79 H 0.20353 0.73961 -0.14909
 H80 H 0.13153 0.74065 -0.21688
 H81 H 0.12884 0.78725 -0.26048
 H82 H 0.19744 0.85820 -0.26135
 H83 H 0.24508 0.85802 -0.21685
 H84 H 0.24976 0.78584 -0.14988
 C85 C 0.54305 1.00622 -0.04652
 H86 H 0.54493 0.98108 -0.04694
 C87 C 0.56343 1.02435 -0.06350
 H88 H 0.58108 1.01290 -0.07679
 C89 C 0.51874 1.05155 -0.02715
 H90 H 0.50165 1.06212 -0.01255
 C91 C 0.53856 1.07057 -0.04385
 H92 H 0.53602 1.09563 -0.04235
 N93 N 0.52129 1.01999 -0.02878
 C94 C 0.47603 1.01750 0.05424
 H95 H 0.49393 1.00353 0.06435
 C96 C 0.45696 1.03470 0.07374
 H97 H 0.46083 1.03419 0.09872
 C98 C 0.44920 1.03505 0.00952
 H99 H 0.44615 1.03469 -0.01558
 C100 C 0.42955 1.05251 0.02814
 H101 H 0.41124 1.06534 0.01712
 Zn102 Zn 0.49654 0.99389 -0.00414
 N103 N 0.47196 1.01812 0.02274
 C104 C 0.54617 0.98293 0.03542
 N105 N 0.52311 0.96838 0.01931
 C106 C 0.52033 0.93677 0.01884
 C107 C 0.54117 0.91852 0.03533
 C108 C 0.56757 0.96561 0.05208
 C109 C 0.47137 0.97034 -0.06127
 C110 C 0.45021 0.95370 -0.07972
 C111 C 0.42630 0.93549 -0.03275
 C112 C 0.44800 0.95236 -0.01521
 N113 N 0.46991 0.96936 -0.02962
 H114 H 0.54814 1.00809 0.03494
 H115 H 0.50212 0.92561 0.00552
 H116 H 0.53836 0.89341 0.03495
 H117 H 0.58611 0.97771 0.06414
 H118 H 0.48864 0.98436 -0.07231
 H119 H 0.45190 0.95465 -0.10487
 H120 H 0.40858 0.92282 -0.02076
 H121 H 0.44705 0.95245 0.01001
 C122 C 0.43326 1.05246 0.06075
 C123 C 0.56150 1.05703 -0.06212
 C124 C 0.42708 0.93618 -0.06551
 C125 C 0.56529 0.93291 0.05217
 C126 C -0.00127 0.54332 1.04985
 H127 H 0.02338 0.54518 1.05106
 C128 C -0.01921 0.56493 1.06583
 H129 H -0.00814 0.58345 1.07925
 C130 C -0.04554 0.51796 1.02930
 H131 H -0.05577 0.50019 1.01440
 C132 C -0.06431 0.53907 1.04484
 H133 H -0.08886 0.53673 1.04229
 N134 N -0.01462 0.52045 1.03200
 C135 C 0.05750 0.45203 1.01870
 H136 H 0.05760 0.45098 0.99346
 C137 C 0.07713 0.43314 1.03583
 H138 H 0.09227 0.41747 1.02359
 C139 C 0.03660 0.47289 1.06519
 H140 H 0.02039 0.48805 1.07648
 C141 C 0.05566 0.45411 1.08329
 H142 H 0.05434 0.45537 1.10848
 Zn143 Zn 0.01105 0.49451 1.00789
 N144 N 0.03795 0.47158 1.03350
 C145 C 0.06399 0.52339 0.98240
 N146 N 0.03298 0.52100 0.98104
 C147 C 0.01621 0.53898 0.96145
 C148 C 0.03060 0.55990 0.94165
 C149 C 0.07933 0.54419 0.96310
 C150 C -0.02954 0.44450 1.00113
 C151 C -0.04807 0.42246 0.98575
 C152 C -0.03047 0.44218 0.93650
 C153 C -0.01239 0.46401 0.95286
 N154 N -0.01266 0.46511 0.98460
 H155 H 0.07688 0.50952 0.99870
 H156 H -0.00845 0.53712 0.96138
 H157 H 0.01679 0.57421 0.92644
 H158 H 0.10402 0.54565 0.96430
 H159 H -0.02884 0.44548 1.02637
 H160 H -0.06147 0.40635 0.99934
 H161 H -0.03048 0.44203 0.91124
 H162 H 0.00179 0.48004 0.94013
 C163 C 0.07628 0.43394 1.06856
 C164 C -0.05119 0.56318 1.06312
 C165 C -0.04889 0.42128 0.95299
 C166 C 0.06257 0.56273 0.94233
 C167 C 1.03295 -0.00027 0.54979
 H168 H 1.03345 0.02487 0.55228
 C169 C 1.04856 -0.01863 0.57132
 H170 H 1.06097 -0.00744 0.59044
 C171 C 1.01504 -0.04534 0.52250
 H172 H 1.00156 -0.05571 0.50378
 C173 C 1.03017 -0.06459 0.54359
 H174 H 1.02864 -0.08965 0.54046
 N175 N 1.01687 -0.01378 0.52580
 C176 C 1.01020 0.05595 0.45291
 H177 H 0.98573 0.05597 0.44898
 C178 C 1.02928 0.07278 0.43326
 H179 H 1.01920 0.08550 0.41411
 C180 C 1.05292 0.03739 0.48137
 H181 H 1.06216 0.02299 0.49961
 C182 C 1.07281 0.05414 0.46254
 H183 H 1.09713 0.05296 0.46718
 Zn184 Zn 0.99510 0.01272 0.49854
 N185 N 1.02224 0.03844 0.47617
 C186 C 0.97036 0.06850 0.52457
 N187 N 0.96870 0.03681 0.52352
 C188 C 0.94913 0.02085 0.54194
 C189 C 0.92981 0.03677 0.56215
 C190 C 0.95159 0.08539 0.54474
 C191 C 0.98861 -0.02850 0.44786
 C192 C 0.97346 -0.04630 0.42489
 C193 C 0.92540 -0.02764 0.44466
 C194 C 0.94148 -0.01018 0.46725
 N195 N 0.97252 -0.01119 0.46866
 H196 H 0.98650 0.08068 0.51014
 H197 H 0.94876 -0.00438 0.54107
 H198 H 0.91465 0.02360 0.57690
 H199 H 0.95313 0.11061 0.54536
 H200 H 1.01331 -0.02840 0.44913
 H201 H 0.98674 -0.05968 0.40839
 H202 H 0.90068 -0.02692 0.44426
 H203 H 0.92908 0.00425 0.48349
 C204 C 1.06114 0.07167 0.43764
 C205 C 1.04721 -0.05126 0.56840
 C206 C 0.94140 -0.04609 0.42312
 C207 C 0.93097 0.06946 0.56383
 C208 C 0.14931 0.34529 1.13565
 C209 C 0.17509 0.33107 1.12282
 C210 C 0.18945 0.30695 1.13864
 C211 C 0.17825 0.29625 1.16738
 C212 C 0.15239 0.31157 1.17946
 N213 N 0.13884 0.33504 1.16348
 C214 C 0.13205 0.36985 1.11906
 N215 N 0.10259 0.37534 1.12730
 C216 C 0.08471 0.39633 1.11228
 C217 C 0.09619 0.41302 1.08696
 C218 C 0.12673 0.40845 1.07863
 C219 C 0.14477 0.38716 1.09470
 H220 H 0.20885 0.29647 1.12745
 H221 H 0.14262 0.30520 1.20148
 H222 H 0.06126 0.39915 1.11943
 H223 H 0.13665 0.42139 1.05968
 H224 H 0.18379 0.33757 1.10031
 H225 H 0.16833 0.38456 1.08798
 C226 C -0.12413 0.65867 1.12108
 C227 C -0.15428 0.66562 1.11236
 C228 C -0.16933 0.69022 1.12700
 C229 C -0.15474 0.70816 1.15075
 C230 C -0.12474 0.69955 1.15937
 N231 N -0.11054 0.67562 1.14449
 C232 C -0.10656 0.63347 1.10572
 N233 N -0.08160 0.62181 1.12072
 C234 C -0.06383 0.59929 1.10786
 C235 C -0.07074 0.58717 1.07799
 C236 C -0.09625 0.59897 1.06203
 C237 C -0.11409 0.62209 1.07568
 H238 H -0.19260 0.69448 1.11974
 H239 H -0.11196 0.71203 1.17727
 H240 H -0.04446 0.59077 1.12106
 H241 H -0.10197 0.59091 1.03862
 H242 H -0.16651 0.65206 1.09476
 H243 H -0.13296 0.63137 1.06231
 C244 C -0.12528 0.33086 0.88813
 C245 C -0.15048 0.31610 0.90163
 C246 C -0.16698 0.29361 0.88464
 C247 C -0.15853 0.28510 0.85403
 C248 C -0.13278 0.30041 0.84162
 N249 N -0.11721 0.32239 0.85869
 C250 C -0.10661 0.35469 0.90521
 N251 N -0.07782 0.36097 0.89518
 C252 C -0.05914 0.38221 0.90976
 C253 C -0.06912 0.39853 0.93629
 C254 C -0.09885 0.39283 0.94674
 C255 C -0.11769 0.37116 0.93125
 H256 H -0.18583 0.28256 0.89626
 H257 H -0.12500 0.29552 0.81829
 H258 H -0.03634 0.38586 0.90095
 H259 H -0.10771 0.40548 0.96666
 H260 H -0.15719 0.32109 0.92534
 H261 H -0.14072 0.36793 0.93947
 C262 C 0.12050 0.65581 0.86683
 C263 C 0.10618 0.66939 0.84097
 C264 C 0.12046 0.69392 0.82571
 C265 C 0.14915 0.70561 0.83605
 C266 C 0.16268 0.69096 0.86209
 N267 N 0.14818 0.66710 0.87653
 C268 C 0.10582 0.63063 0.88488
 N269 N 0.11541 0.62585 0.91478
 C270 C 0.10249 0.60398 0.93326
 C271 C 0.07814 0.58542 0.92192
 C272 C 0.06835 0.58940 0.89095
 C273 C 0.08219 0.61176 0.87233
 H274 H 0.10828 0.70378 0.80622
 H275 H 0.18466 0.69818 0.87135
 H276 H 0.11070 0.60174 0.95704
 H277 H 0.05011 0.57506 0.88106
 H278 H 0.08375 0.66199 0.83293
 H279 H 0.07449 0.61384 0.84839
 C280 C 1.13811 0.12983 0.34618
 C281 C 1.16150 0.11422 0.33042
 C282 C 1.17752 0.12936 0.30709
 C283 C 1.17033 0.16017 0.29865
 C284 C 1.14647 0.17481 0.31502
 N285 N 1.13135 0.15953 0.33785
 C286 C 1.11971 0.11472 0.37078
 N287 N 1.09302 0.12820 0.37957
 C288 C 1.07436 0.11542 0.40119
 C289 C 1.08206 0.08713 0.41537
 C290 C 1.10977 0.07316 0.40711
 C291 C 1.12870 0.08691 0.38519
 H292 H 1.19485 0.11613 0.29523
 H293 H 1.13988 0.19849 0.31027
 H294 H 1.05355 0.12741 0.40722
 H295 H 1.11664 0.05119 0.41707
 H296 H 1.16718 0.09028 0.33517
 H297 H 1.15001 0.07561 0.37990
 C298 C 1.10941 -0.12628 0.65971
 C299 C 1.10132 -0.15694 0.66737
 C300 C 1.11754 -0.17235 0.69068
 C301 C 1.14229 -0.15767 0.70653
 C302 C 1.15008 -0.12716 0.69731
 N303 N 1.13366 -0.11261 0.67473
 C304 C 1.09271 -0.10820 0.63571
 N305 N 1.10608 -0.08190 0.62449
 C306 C 1.09217 -0.06356 0.60302
 C307 C 1.06291 -0.07129 0.59149
 C308 C 1.04861 -0.09820 0.60275
 C309 C 1.06328 -0.11659 0.62489
 H310 H 1.11076 -0.19603 0.69553
 H311 H 1.16857 -0.11424 0.70833
 H312 H 1.10412 -0.04311 0.59481
 H313 H 1.02576 -0.10464 0.59498
 H314 H 1.08301 -0.16936 0.65538
 H315 H 1.05117 -0.13659 0.63374
 C316 C 0.87632 -0.11648 0.32751
 C317 C 0.84994 -0.10420 0.31373
 C318 C 0.83472 -0.12091 0.29005
 C319 C 0.84560 -0.15012 0.27961
 C320 C 0.87216 -0.16155 0.29450
 N321 N 0.88648 -0.14474 0.31753
 C322 C 0.89329 -0.09904 0.35241
 N323 N 0.88397 -0.07004 0.36123
 C324 C 0.89878 -0.05289 0.38368
 C325 C 0.92480 -0.06473 0.39877
 C326 C 0.93479 -0.09461 0.39008
 C327 C 0.91915 -0.11178 0.36699
 H328 H 0.81474 -0.11027 0.27991
 H329 H 0.88174 -0.18385 0.28834
 H330 H 0.89048 -0.02981 0.38931
 H331 H 0.95449 -0.10486 0.40139
 H332 H 0.84112 -0.08178 0.32103
 H333 H 0.92723 -0.13479 0.36069
 C334 C 0.85910 0.13133 0.65739
 C335 C 0.83295 0.11795 0.67045
 C336 C 0.81886 0.13264 0.69560
 C337 C 0.83072 0.16076 0.70846
 C338 C 0.85696 0.17339 0.69431
 N339 N 0.87020 0.15854 0.66979
 C340 C 0.87606 0.11602 0.63170
 N341 N 0.90556 0.12486 0.62675
 C342 C 0.92317 0.11110 0.60466
 C343 C 0.91135 0.08653 0.58614
 C344 C 0.88078 0.07760 0.59017
 C345 C 0.86302 0.09238 0.61267
 H346 H 0.79921 0.12107 0.70520
 H347 H 0.86718 0.19505 0.70232
 H348 H 0.94666 0.11868 0.60233
 H349 H 0.87061 0.05919 0.57587
 H350 H 0.82373 0.09585 0.66222
 H351 H 0.83943 0.08523 0.61482
 C352 C 0.34857 1.12182 0.13614
 C353 C 0.34494 1.11826 0.16843
 C354 C 0.32264 1.13539 0.18393
 C355 C 0.30399 1.15620 0.16750
 C356 C 0.30891 1.15963 0.13539
 N357 N 0.33068 1.14260 0.12078
 C358 C 0.37121 1.10373 0.11815
 N359 N 0.38103 1.11514 0.09049
 C360 C 0.40099 1.09950 0.07209
 C361 C 0.41215 1.07028 0.08107
 C362 C 0.40226 1.05804 0.10948
 C363 C 0.38184 1.07459 0.12802
 H364 H 0.32020 1.13253 0.20882
 H365 H 0.29502 1.17520 0.12167
 H366 H 0.40821 1.11002 0.05055
 H367 H 0.40967 1.03528 0.11701
 H368 H 0.35931 1.10280 0.18178
 H369 H 0.37389 1.06412 0.14929
 C370 C 0.65205 1.13008 -0.12571
 C371 C 0.65747 1.16205 -0.12042
 C372 C 0.68141 1.17686 -0.13567
 C373 C 0.69992 1.16008 -0.15635
 C374 C 0.69312 1.12838 -0.16173
 N375 N 0.66978 1.11441 -0.14645
 C376 C 0.62782 1.11276 -0.10925
 N377 N 0.61654 1.08587 -0.12228
 C378 C 0.59513 1.06806 -0.10805
 C379 C 0.58397 1.07685 -0.07865
 C380 C 0.59535 1.10447 -0.06477
 C381 C 0.61721 1.12242 -0.07990
 H382 H 0.68529 1.20150 -0.13141
 H383 H 0.70680 1.11445 -0.17735
 H384 H 0.58683 1.04712 -0.11977
 H385 H 0.58803 1.11178 -0.04179
 H386 H 0.64332 1.17567 -0.10496
 H387 H 0.62628 1.14300 -0.06814
 C388 C 0.33185 0.87258 -0.13598
 C389 C 0.32598 0.87676 -0.16794
 C390 C 0.30132 0.86127 -0.18226
 C391 C 0.28245 0.84148 -0.16495
 C392 C 0.28959 0.83734 -0.13323
 N393 N 0.31369 0.85277 -0.11978
 C394 C 0.35714 0.88906 -0.11929
 N395 N 0.36876 0.87652 -0.09268
 C396 C 0.39128 0.89077 -0.07550
 C397 C 0.40331 0.91966 -0.08466
 C398 C 0.39156 0.93304 -0.11199
 C399 C 0.36856 0.91790 -0.12931
 H400 H 0.29722 0.86457 -0.20693
 H401 H 0.27567 0.82248 -0.11888
 H402 H 0.39980 0.87941 -0.05478
 H403 H 0.39954 0.95564 -0.11957
 H404 H 0.34042 0.89145 -0.18195
 H405 H 0.35930 0.92924 -0.14969
 C406 C 0.65903 0.86443 0.11676
 C407 C 0.66400 0.83223 0.11371
 C408 C 0.68861 0.81875 0.12942
 C409 C 0.70830 0.83716 0.14825
 C410 C 0.70209 0.86916 0.15114
 N411 N 0.67802 0.88174 0.13558
 C412 C 0.63382 0.88033 0.10017
 N413 N 0.62342 0.90783 0.11197
 C414 C 0.60127 0.92456 0.09750
 C415 C 0.58841 0.91403 0.06904
 C416 C 0.59876 0.88566 0.05648
 C417 C 0.62138 0.86878 0.07191
 H418 H 0.69200 0.79388 0.12705
 H419 H 0.71666 0.88439 0.16513
 H420 H 0.59376 0.94607 0.10831
 H421 H 0.59004 0.87694 0.03426
 H422 H 0.64893 0.81743 0.09976
 H423 H 0.62964 0.84755 0.06117
   
