data_POSCAR
  _audit_creation_date              2014-09-24
  _audit_creation_method            'ToBaCCo'
  _symmetry_space_group_name_H-M    'P1'
  _symmetry_Int_Tables_number       1
  _symmetry_cell_setting            triclinic
  loop_
  _symmetry_equiv_pos_as_xyz
 x,y,z
_cell_length_a 51.6686
_cell_length_b 53.1559
_cell_length_c 51.1129
_cell_angle_alpha 91.558200
_cell_angle_beta 90.987400
_cell_angle_gamma 95.162500
loop_
  _atom_site_label
  _atom_site_type_symbol
  _atom_site_fract_x
  _atom_site_fract_y
  _atom_site_fract_z
C1 C 0.21985 0.52487 1.03834
 H2 H 0.21658 0.53683 1.02207
 C3 C 0.20368 0.52523 1.05988
 H4 H 0.18924 0.53874 1.06006
 C5 C 0.24280 0.49305 1.05698
 H6 H 0.25748 0.47991 1.05547
 C7 C 0.22711 0.49279 1.07899
 H8 H 0.23019 0.47896 1.09357
 N9 N 0.23896 0.50896 1.03719
 C10 C 0.30564 0.53436 0.99473
 H11 H 0.31128 0.51586 0.98942
 C12 C 0.32387 0.55527 0.99344
 H13 H 0.34341 0.55256 0.98731
 C14 C 0.27329 0.56052 1.00821
 H15 H 0.25360 0.56254 1.01399
 C16 C 0.29090 0.58202 1.00700
 H17 H 0.28461 0.60037 1.01217
 Zn18 Zn 0.25753 0.50765 1.00554
 N19 N 0.28100 0.53718 1.00256
 C20 C 0.23437 0.52233 0.95824
 N21 N 0.23258 0.50570 0.97801
 C22 C 0.21220 0.48777 0.97933
 C23 C 0.19247 0.48604 0.96023
 C24 C 0.21500 0.52131 0.93873
 C25 C 0.29657 0.47734 1.02162
 C26 C 0.31200 0.45711 1.02039
 C27 C 0.28560 0.43940 0.98378
 C28 C 0.27085 0.46014 0.98550
 N29 N 0.27653 0.47861 1.00422
 H30 H 0.25067 0.53655 0.95774
 H31 H 0.21125 0.47489 0.99538
 H32 H 0.17653 0.47147 0.96152
 H33 H 0.21647 0.53502 0.92342
 H34 H 0.30089 0.49238 1.03615
 H35 H 0.32801 0.45652 1.03425
 H36 H 0.28109 0.42509 0.96849
 H37 H 0.25516 0.46161 0.97155
 C38 C 0.31668 0.57946 0.99995
 C39 C 0.20672 0.50876 1.08071
 C40 C 0.30664 0.43789 1.00120
 C41 C 0.19361 0.50305 0.93964
 C42 C 0.79393 0.51561 -0.03288
 H43 H 0.79687 0.53014 -0.01762
 C44 C 0.81003 0.51626 -0.05448
 H45 H 0.82546 0.53136 -0.05570
 C46 C 0.77069 0.47781 -0.04926
 H47 H 0.75553 0.46271 -0.04695
 C48 C 0.78654 0.47762 -0.07117
 H49 H 0.78315 0.46254 -0.08583
 N50 N 0.77451 0.49679 -0.03082
 C51 C 0.71975 0.52967 0.02129
 H52 H 0.71811 0.51573 0.03635
 C53 C 0.70494 0.55039 0.02256
 H54 H 0.69181 0.55215 0.03865
 C55 C 0.73803 0.54355 -0.01857
 H56 H 0.75056 0.54064 -0.03485
 C57 C 0.72365 0.56456 -0.01804
 H58 H 0.72582 0.57788 -0.03368
 Zn59 Zn 0.75464 0.49752 -0.00015
 N60 N 0.73604 0.52672 0.00103
 C61 C 0.77978 0.51528 0.04816
 N62 N 0.77838 0.49749 0.02842
 C63 C 0.79453 0.47867 0.02797
 C64 C 0.81246 0.47668 0.04832
 C65 C 0.79750 0.51401 0.06898
 C66 C 0.71075 0.46579 -0.01741
 C67 C 0.69142 0.44571 -0.01616
 C68 C 0.71240 0.43224 0.02299
 C69 C 0.73126 0.45255 0.02102
 N70 N 0.73015 0.46883 0.00103
 H71 H 0.76710 0.53036 0.04791
 H72 H 0.79327 0.46503 0.01179
 H73 H 0.82515 0.46156 0.04751
 H74 H 0.79798 0.52797 0.08484
 H75 H 0.71006 0.47926 -0.03284
 H76 H 0.67579 0.44396 -0.03065
 H77 H 0.71370 0.41950 0.03904
 H78 H 0.74646 0.45549 0.03582
 C79 C 0.70676 0.56821 0.00269
 C80 C 0.80642 0.49713 -0.07400
 C81 C 0.69197 0.42873 0.00441
 C82 C 0.81395 0.49434 0.06934
 C83 C -0.02077 0.28214 0.48157
 H84 H -0.03521 0.28258 0.49661
 C85 C -0.01964 0.30015 0.46221
 H86 H -0.03413 0.31361 0.46236
 C87 C 0.01489 0.26327 0.46351
 H88 H 0.02890 0.24942 0.46456
 C89 C 0.01654 0.28073 0.44351
 H90 H 0.03221 0.27986 0.42985
 N91 N -0.00361 0.26425 0.48199
 C92 C -0.04055 0.20384 0.52836
 H93 H -0.02640 0.20313 0.54410
 C94 C -0.06235 0.18623 0.52683
 H95 H -0.06467 0.17187 0.54143
 C96 C -0.05376 0.22258 0.48937
 H97 H -0.05012 0.23645 0.47450
 C98 C -0.07585 0.20546 0.48715
 H99 H -0.08923 0.20673 0.47081
 Zn100 Zn -0.00539 0.24301 0.51118
 N101 N -0.03660 0.22143 0.50968
 C102 C -0.02344 0.26523 0.55844
 N103 N -0.00396 0.26501 0.54087
 C104 C 0.01672 0.28272 0.54211
 C105 C 0.01816 0.30202 0.56116
 C106 C -0.02278 0.28431 0.57793
 C107 C 0.02539 0.20615 0.49151
 C108 C 0.04638 0.19134 0.49083
 C109 C 0.06125 0.20999 0.53265
 C110 C 0.04010 0.22458 0.53243
 N111 N 0.02294 0.22274 0.51184
 H112 H -0.03995 0.25124 0.55674
 H113 H 0.03174 0.28225 0.52766
 H114 H 0.03465 0.31614 0.56155
 H115 H -0.03885 0.28485 0.59119
 H116 H 0.01122 0.20475 0.47559
 H117 H 0.04838 0.17887 0.47404
 H118 H 0.07453 0.21161 0.54935
 H119 H 0.03740 0.23728 0.54881
 C120 C -0.08021 0.18671 0.50583
 C121 C -0.00059 0.29998 0.44275
 C122 C 0.06480 0.19326 0.51153
 C123 C -0.00204 0.30335 0.57902
 C124 C 0.97750 0.70893 0.51982
 H125 H 0.96287 0.70681 0.50432
 C126 C 0.97653 0.69206 0.54026
 H127 H 0.96118 0.67679 0.54024
 C128 C 1.01569 0.73113 0.53813
 H129 H 1.03103 0.74625 0.53710
 C130 C 1.01549 0.71463 0.55895
 H131 H 1.03053 0.71750 0.57403
 N132 N 0.99664 0.72820 0.51931
 C133 C 0.96335 0.78636 0.47469
 H134 H 0.97737 0.78909 0.45932
 C135 C 0.94279 0.80166 0.47633
 H136 H 0.94120 0.81623 0.46215
 C137 C 0.94932 0.76492 0.51268
 H138 H 0.95219 0.75099 0.52717
 C139 C 0.92849 0.77975 0.51503
 H140 H 0.91521 0.77659 0.53102
 Zn141 Zn 0.99588 0.75006 0.49085
 N142 N 0.96621 0.76841 0.49271
 C143 C 0.97539 0.72943 0.44197
 N144 N 0.99511 0.72966 0.45997
 C145 C 1.01414 0.71375 0.45752
 C146 C 1.01376 0.69657 0.43638
 C147 C 0.97427 0.71254 0.42046
 C148 C 1.02711 0.79119 0.51210
 C149 C 1.04716 0.81062 0.51314
 C150 C 1.06330 0.79405 0.47268
 C151 C 1.04288 0.77494 0.47239
 N152 N 1.02528 0.77392 0.49191
 H153 H 0.96019 0.74191 0.44452
 H154 H 1.02931 0.71403 0.47241
 H155 H 1.02867 0.68354 0.43529
 H156 H 0.95838 0.71253 0.40637
 H157 H 1.01265 0.79010 0.52718
 H158 H 1.04821 0.82427 0.52932
 H159 H 1.07671 0.79503 0.45661
 H160 H 1.04075 0.76137 0.45621
 C161 C 0.92513 0.79856 0.49684
 C162 C 0.99561 0.69490 0.56027
 C163 C 1.06541 0.81240 0.49308
 C164 C 0.99349 0.69563 0.41761
 C165 C 0.47085 -0.01953 0.28064
 H166 H 0.48525 -0.03310 0.28080
 C167 C 0.45088 -0.02114 0.29873
 H168 H 0.44977 -0.03634 0.31245
 C169 C 0.45529 0.01708 0.26283
 H170 H 0.45752 0.03237 0.24933
 C171 C 0.43503 0.01622 0.28062
 H172 H 0.42184 0.03093 0.28053
 N173 N 0.47274 -0.00061 0.26322
 C174 C 0.52269 -0.02635 0.20203
 H175 H 0.53716 -0.01031 0.20210
 C176 C 0.52416 -0.04631 0.18400
 H177 H 0.53967 -0.04461 0.17006
 C178 C 0.48407 -0.04610 0.21920
 H179 H 0.46833 -0.04583 0.23282
 C180 C 0.48469 -0.06650 0.20144
 H181 H 0.46969 -0.08193 0.20278
 Zn182 Zn 0.50237 0.00207 0.24194
 N183 N 0.50302 -0.02666 0.21931
 C184 C 0.54898 -0.01275 0.26463
 N185 N 0.53162 0.00501 0.26498
 C186 C 0.53320 0.02394 0.28355
 C187 C 0.55262 0.02531 0.30303
 C188 C 0.56870 -0.01210 0.28372
 C189 C 0.48277 0.02946 0.20189
 C190 C 0.48199 0.04865 0.18392
 C191 C 0.52098 0.06954 0.20429
 C192 C 0.52105 0.04986 0.22190
 N193 N 0.50208 0.03036 0.22037
 H194 H 0.54712 -0.02795 0.25009
 H195 H 0.51880 0.03752 0.28369
 H196 H 0.55302 0.04003 0.31813
 H197 H 0.58220 -0.02654 0.28323
 H198 H 0.46811 0.01357 0.20096
 H199 H 0.46637 0.04760 0.16942
 H200 H 0.53650 0.08466 0.20541
 H201 H 0.53654 0.04993 0.23637
 C202 C 0.50500 -0.06706 0.18328
 C203 C 0.43281 -0.00291 0.29910
 C204 C 0.50139 0.06894 0.18481
 C205 C 0.57044 0.00687 0.30353
 C206 C 0.52229 -0.01977 0.71506
 H207 H 0.50752 -0.03555 0.71483
 C208 C 0.54264 -0.01958 0.69747
 H209 H 0.54336 -0.03532 0.68367
 C210 C 0.53847 0.02042 0.73259
 H211 H 0.53649 0.03620 0.74594
 C212 C 0.55910 0.02147 0.71518
 H213 H 0.57315 0.03788 0.71569
 N214 N 0.52066 -0.00007 0.73230
 C215 C 0.47094 -0.03295 0.79332
 H216 H 0.45558 -0.02040 0.79330
 C217 C 0.47064 -0.05238 0.81124
 H218 H 0.45473 -0.05489 0.82471
 C219 C 0.51052 -0.04462 0.77601
 H220 H 0.52643 -0.04115 0.76278
 C221 C 0.51096 -0.06429 0.79354
 H222 H 0.52726 -0.07574 0.79349
 Zn223 Zn 0.49108 -0.00147 0.75380
 N224 N 0.49065 -0.02948 0.77612
 C225 C 0.44246 -0.02308 0.73120
 N226 N 0.46185 -0.00400 0.73073
 C227 C 0.46184 0.01421 0.71258
 C228 C 0.44168 0.01393 0.69409
 C229 C 0.42179 -0.02406 0.71302
 C230 C 0.51097 0.03361 0.79295
 C231 C 0.51139 0.05498 0.80956
 C232 C 0.47067 0.06448 0.78994
 C233 C 0.47108 0.04300 0.77368
 N234 N 0.49115 0.02818 0.77528
 H235 H 0.44309 -0.03765 0.74547
 H236 H 0.47762 0.02905 0.71254
 H237 H 0.44193 0.02886 0.68008
 H238 H 0.40661 -0.03947 0.71346
 H239 H 0.52651 0.02131 0.79409
 H240 H 0.52756 0.05918 0.82320
 H241 H 0.45425 0.07571 0.78864
 H242 H 0.45509 0.03802 0.76009
 C243 C 0.49092 -0.06832 0.81158
 C244 C 0.56135 0.00127 0.69730
 C245 C 0.49103 0.07077 0.80818
 C246 C 0.42131 -0.00542 0.69407
 C247 C 0.23262 0.04169 0.49025
 C248 C 0.25076 0.03850 0.51386
 C249 C 0.26359 0.01712 0.51261
 C250 C 0.25742 0.00109 0.48723
 C251 C 0.25052 0.04071 0.46670
 C252 C 0.26327 0.01940 0.46471
 C253 C 0.21500 0.01701 0.48818
 C254 C 0.22774 -0.00420 0.48651
 H255 H 0.25476 0.05278 0.52919
 H256 H 0.26738 -0.01647 0.48565
 H257 H 0.25321 0.05596 0.45311
 H258 H 0.19400 0.01648 0.48868
 C259 C 0.75806 -0.04778 0.50483
 C260 C 0.74353 -0.04478 0.53059
 C261 C 0.73036 -0.02368 0.53222
 C262 C 0.73286 -0.00742 0.50774
 C263 C 0.73674 -0.04690 0.48370
 C264 C 0.72365 -0.02579 0.48501
 C265 C 0.77519 -0.02299 0.50254
 C266 C 0.76225 -0.00185 0.50408
 H267 H 0.74130 -0.05933 0.54496
 H268 H 0.72223 0.00979 0.50884
 H269 H 0.73225 -0.06186 0.46909
 H270 H 0.79613 -0.02236 0.50110
 C271 C 0.45160 0.26691 1.00348
 C272 C 0.45496 0.24933 0.97975
 C273 C 0.47744 0.23766 0.98004
 C274 C 0.49460 0.24462 1.00470
 C275 C 0.45425 0.24997 1.02714
 C276 C 0.47681 0.23847 1.02808
 C277 C 0.47641 0.28502 1.00473
 C278 C 0.49886 0.27358 1.00520
 H279 H 0.44005 0.24575 0.96464
 H280 H 0.51316 0.23574 1.00541
 H281 H 0.43937 0.24624 1.04138
 H282 H 0.47606 0.30536 1.00445
 C283 C 0.55587 0.73609 -0.01069
 C284 C 0.54881 0.74975 -0.03565
 C285 C 0.52680 0.76205 -0.03379
 C286 C 0.51371 0.75943 -0.00703
 C287 C 0.55732 0.75708 0.01072
 C288 C 0.53524 0.76919 0.01285
 C289 C 0.53151 0.71893 -0.00469
 C290 C 0.50949 0.73091 -0.00271
 H291 H 0.56167 0.75217 -0.05205
 H292 H 0.49562 0.76908 -0.00548
 H293 H 0.57444 0.76202 0.02293
 H294 H 0.53173 0.69871 -0.00259
 C295 C 1.00822 0.46092 0.27359
 C296 C 0.98569 0.46095 0.25343
 C297 C 0.98627 0.48226 0.23910
 C298 C 1.00926 0.50172 0.24631
 C299 C 1.03290 0.46602 0.25768
 C300 C 1.03349 0.48721 0.24325
 C301 C 1.00620 0.48528 0.29000
 C302 C 1.00695 0.50664 0.27587
 H303 H 0.96948 0.44662 0.25201
 H304 H 1.00982 0.51914 0.23483
 H305 H 1.04783 0.45300 0.25676
 H306 H 1.00439 0.48549 0.31107
 C307 C 0.00356 0.53512 0.73202
 C308 C -0.02026 0.53077 0.74947
 C309 C -0.02104 0.50916 0.76335
 C310 C 0.00277 0.49409 0.75907
 C311 C 0.02665 0.53460 0.75115
 C312 C 0.02658 0.51312 0.76505
 C313 C 0.00367 0.51078 0.71538
 C314 C 0.00332 0.48934 0.72932
 H315 H -0.03430 0.54442 0.75228
 H316 H 0.00275 0.47651 0.77025
 H317 H 0.04166 0.55011 0.75366
 H318 H 0.00352 0.51065 0.69418
 C319 C 0.11194 0.18803 0.52110
 C320 C 0.13327 0.17361 0.52066
 C321 C 0.13082 0.14898 0.50982
 C322 C 0.10638 0.13875 0.50004
 C323 C 0.08501 0.15307 0.50068
 C324 C 0.08753 0.17795 0.51109
 C325 C 0.15368 0.13406 0.50987
 C326 C 0.15704 0.11635 0.49136
 C327 C 0.17879 0.09998 0.49151
 C328 C 0.18473 0.08773 0.46805
 C329 C 0.20311 0.07005 0.46768
 C330 C 0.21624 0.06415 0.49078
 C331 C 0.21039 0.07666 0.51433
 C332 C 0.19201 0.09446 0.51466
 H333 H 0.11467 0.20721 0.52899
 H334 H 0.15184 0.18182 0.52850
 H335 H 0.10356 0.11948 0.49242
 H336 H 0.06639 0.14446 0.49343
 H337 H 0.16844 0.13852 0.52497
 H338 H 0.14341 0.11387 0.47495
 H339 H 0.17455 0.09131 0.45001
 H340 H 0.20627 0.06014 0.44939
 H341 H 0.21881 0.07193 0.53283
 H342 H 0.18728 0.10279 0.53332
 C343 C 0.68620 0.60276 0.02708
 C344 C 0.67070 0.62300 0.02767
 C345 C 0.65965 0.63133 0.00454
 C346 C 0.66424 0.61874 -0.01929
 C347 C 0.67967 0.59844 -0.01987
 C348 C 0.69080 0.59016 0.00331
 C349 C 0.64226 0.65203 0.00634
 C350 C 0.63716 0.66680 -0.01369
 C351 C 0.61817 0.68619 -0.01241
 C352 C 0.60710 0.69376 -0.03585
 C353 C 0.58781 0.71061 -0.03558
 C354 C 0.57950 0.72088 -0.01179
 C355 C 0.59101 0.71354 0.01165
 C356 C 0.61032 0.69676 0.01137
 H357 H 0.69471 0.59706 0.04525
 H358 H 0.66734 0.63223 0.04631
 H359 H 0.65533 0.62391 -0.03743
 H360 H 0.68231 0.58879 -0.03843
 H361 H 0.63320 0.65474 0.02499
 H362 H 0.64636 0.66401 -0.03227
 H363 H 0.61270 0.68586 -0.05445
 H364 H 0.57877 0.71464 -0.05404
 H365 H 0.58455 0.72021 0.03042
 H366 H 0.61874 0.69204 0.02990
 C367 C 0.89750 -0.17547 0.52471
 C368 C 0.87800 -0.15910 0.52753
 C369 C 0.86431 -0.15150 0.50560
 C370 C 0.87071 -0.16061 0.48060
 C371 C 0.89022 -0.17702 0.47779
 C372 C 0.90388 -0.18459 0.49980
 C373 C 0.84457 -0.13322 0.50974
 C374 C 0.82636 -0.12859 0.49190
 C375 C 0.80802 -0.10903 0.49598
 C376 C 0.79876 -0.09704 0.47409
 C377 C 0.78237 -0.07771 0.47710
 C378 C 0.77407 -0.07039 0.50205
 C379 C 0.78332 -0.08260 0.52400
 C380 C 0.79985 -0.10186 0.52098
 H381 H 0.90797 -0.18056 0.54203
 H382 H 0.87371 -0.15219 0.54697
 H383 H 0.86125 -0.15479 0.46304
 H384 H 0.89462 -0.18381 0.45834
 H385 H 0.84550 -0.12290 0.52833
 H386 H 0.82536 -0.13847 0.47311
 H387 H 0.80486 -0.10212 0.45463
 H388 H 0.77660 -0.06812 0.45982
 H389 H 0.77854 -0.07698 0.54367
 H390 H 0.80619 -0.11101 0.53831
 C391 C 0.35066 0.42191 0.99959
 C392 C 0.36671 0.40227 0.99682
 C393 C 0.35600 0.37715 0.99365
 C394 C 0.32880 0.37204 0.99272
 C395 C 0.31271 0.39176 0.99514
 C396 C 0.32351 0.41687 0.99876
 C397 C 0.37383 0.35701 0.99083
 C398 C 0.36814 0.33334 0.99874
 C399 C 0.38759 0.31454 0.99831
 C400 C 0.38830 0.29748 1.01866
 C401 C 0.40814 0.28130 1.02028
 C402 C 0.42756 0.28153 1.00119
 C403 C 0.42559 0.29753 0.97984
 C404 C 0.40597 0.31389 0.97845
 H405 H 0.35948 0.44113 1.00195
 H406 H 0.38760 0.40670 0.99737
 H407 H 0.31992 0.35294 0.98968
 H408 H 0.29183 0.38740 0.99440
 H409 H 0.39319 0.36251 0.98398
 H410 H 0.34988 0.32836 1.00822
 H411 H 0.37408 0.29743 1.03401
 H412 H 0.40825 0.26938 1.03698
 H413 H 0.43995 0.29801 0.96463
 H414 H 0.40544 0.32626 0.96201
 C415 C 0.89040 0.15669 0.47762
 C416 C 0.87060 0.13711 0.47456
 C417 C 0.85740 0.12727 0.49631
 C418 C 0.86426 0.13779 0.52135
 C419 C 0.88407 0.15747 0.52440
 C420 C 0.89757 0.16697 0.50260
 C421 C 0.83836 0.10482 0.49205
 C422 C 0.82141 0.09587 0.50991
 C423 C 0.80507 0.07153 0.50622
 C424 C 0.78272 0.06700 0.52127
 C425 C 0.76816 0.04345 0.51990
 C426 C 0.77590 0.02387 0.50366
 C427 C 0.79789 0.02857 0.48816
 C428 C 0.81240 0.05202 0.48951
 H429 H 0.90067 0.16320 0.46043
 H430 H 0.86596 0.12924 0.45509
 H431 H 0.85509 0.13049 0.53876
 H432 H 0.88898 0.16511 0.54389
 H433 H 0.83858 0.09522 0.47313
 H434 H 0.81925 0.10650 0.52796
 H435 H 0.77678 0.08158 0.53450
 H436 H 0.75150 0.04028 0.53234
 H437 H 0.80421 0.01392 0.47527
 H438 H 0.82986 0.05430 0.47815
 C439 C 0.33036 0.62456 -0.01090
 C440 C 0.34930 0.64511 -0.01148
 C441 C 0.37425 0.64334 -0.00077
 C442 C 0.38005 0.62042 0.01014
 C443 C 0.36125 0.59989 0.01051
 C444 C 0.33625 0.60167 -0.00007
 C445 C 0.39444 0.66484 -0.00278
 C446 C 0.41407 0.66910 0.01476
 C447 C 0.43728 0.68718 0.01136
 C448 C 0.45988 0.68332 0.02574
 C449 C 0.48308 0.69804 0.02168
 C450 C 0.48419 0.71724 0.00332
 C451 C 0.46134 0.72221 -0.01006
 C452 C 0.43804 0.70725 -0.00618
 H453 H 0.31132 0.62635 -0.01945
 H454 H 0.34449 0.66242 -0.02034
 H455 H 0.39930 0.61799 0.01775
 H456 H 0.36630 0.58254 0.01910
 H457 H 0.39335 0.67663 -0.01960
 H458 H 0.41422 0.65738 0.03176
 H459 H 0.45984 0.66824 0.03959
 H460 H 0.50032 0.69416 0.03267
 H461 H 0.46171 0.73701 -0.02424
 H462 H 0.42089 0.71134 -0.01711
 C463 C 0.07887 -0.14141 0.49899
 C464 C 0.09722 -0.12063 0.49744
 C465 C 0.12267 -0.12375 0.48971
 C466 C 0.12948 -0.14823 0.48351
 C467 C 0.11101 -0.16908 0.48494
 C468 C 0.08549 -0.16585 0.49263
 C469 C 0.14079 -0.10081 0.48700
 C470 C 0.16679 -0.10051 0.48714
 C471 C 0.18358 -0.07661 0.48484
 C472 C 0.20760 -0.07323 0.49833
 C473 C 0.22256 -0.04990 0.49823
 C474 C 0.21372 -0.02971 0.48447
 C475 C 0.19049 -0.03365 0.46969
 C476 C 0.17563 -0.05685 0.46976
 H477 H 0.05926 -0.13824 0.50451
 H478 H 0.09140 -0.10197 0.50208
 H479 H 0.14873 -0.15133 0.47689
 H480 H 0.11665 -0.18772 0.47996
 H481 H 0.13211 -0.08304 0.48596
 H482 H 0.17602 -0.11759 0.49081
 H483 H 0.21428 -0.08832 0.50978
 H484 H 0.24042 -0.04735 0.50976
 H485 H 0.18363 -0.01865 0.45824
 H486 H 0.15780 -0.05919 0.45818
 C487 C 0.66095 0.40259 1.03207
 C488 C 0.64039 0.38400 1.03482
 C489 C 0.62923 0.37044 1.01289
 C490 C 0.63916 0.37589 0.98798
 C491 C 0.65976 0.39455 0.98523
 C492 C 0.67080 0.40820 1.00723
 C493 C 0.60614 0.35233 1.01677
 C494 C 0.59723 0.33416 0.99930
 C495 C 0.57264 0.31799 1.00272
 C496 C 0.56877 0.29453 0.98924
 C497 C 0.54509 0.27963 0.99069
 C498 C 0.52471 0.28812 1.00539
 C499 C 0.52870 0.31140 1.01917
 C500 C 0.55229 0.32623 1.01777
 H501 H 0.66867 0.41306 1.04938
 H502 H 0.63294 0.38045 1.05418
 H503 H 0.63070 0.36639 0.97047
 H504 H 0.66700 0.39836 0.96584
 H505 H 0.59629 0.35405 1.03517
 H506 H 0.60829 0.33066 0.98200
 H507 H 0.58400 0.28786 0.97728
 H508 H 0.54243 0.26194 0.97956
 H509 H 0.51342 0.31836 1.03084
 H510 H 0.55406 0.34449 1.02781
 C511 C 0.49538 0.08238 1.13868
 C512 C 0.49504 0.10101 1.11999
 C513 C 0.50055 0.12662 1.12717
 C514 C 0.50716 0.13319 1.15347
 C515 C 0.50759 0.11448 1.17220
 C516 C 0.50147 0.08889 1.16503
 C517 C 0.49949 0.14559 1.10652
 C518 C 0.49582 0.16996 1.11128
 C519 C 0.49257 0.18801 1.09009
 C520 C 0.47819 0.20874 1.09492
 C521 C 0.47349 0.22535 1.07500
 C522 C 0.48317 0.22169 1.04972
 C523 C 0.49864 0.20163 1.04534
 C524 C 0.50334 0.18501 1.06523
 H525 H 0.49110 0.06279 1.13243
 H526 H 0.49019 0.09538 1.09984
 H527 H 0.51229 0.15263 1.15968
 H528 H 0.51238 0.12007 1.19236
 H529 H 0.49986 0.13860 1.08645
 H530 H 0.49295 0.17656 1.13114
 H531 H 0.47010 0.21180 1.11403
 H532 H 0.46225 0.24109 1.07950
 H533 H 0.50676 0.19827 1.02646
 H534 H 0.51544 0.16988 1.06100
 C535 C -0.02906 0.66905 0.59350
 C536 C -0.03000 0.65187 0.61371
 C537 C -0.00721 0.64261 0.62333
 C538 C 0.01669 0.65084 0.61212
 C539 C 0.01762 0.66805 0.59189
 C540 C -0.00525 0.67724 0.58228
 C541 C -0.00949 0.62354 0.64398
 C542 C 0.01032 0.61823 0.65958
 C543 C 0.00798 0.59803 0.67903
 C544 C 0.03019 0.58619 0.68583
 C545 C 0.02864 0.56631 0.70320
 C546 C 0.00496 0.55820 0.71487
 C547 C -0.01731 0.57025 0.70805
 C548 C -0.01575 0.59010 0.69063
 H549 H -0.04698 0.67601 0.58671
 H550 H -0.04866 0.64577 0.62188
 H551 H 0.03463 0.64357 0.61824
 H552 H 0.03619 0.67365 0.58328
 H553 H -0.02840 0.61335 0.64604
 H554 H 0.02934 0.62819 0.65753
 H555 H 0.04869 0.59185 0.67710
 H556 H 0.04599 0.55693 0.70713
 H557 H -0.03621 0.56411 0.71543
 H558 H -0.03323 0.59910 0.68632
 C559 C 0.48498 0.91624 -0.14270
 C560 C 0.48715 0.89789 -0.12390
 C561 C 0.49592 0.87437 -0.13069
 C562 C 0.50248 0.86961 -0.15689
 C563 C 0.50037 0.88801 -0.17568
 C564 C 0.49177 0.91161 -0.16878
 C565 C 0.49941 0.85616 -0.10963
 C566 C 0.50078 0.83126 -0.11390
 C567 C 0.50606 0.81346 -0.09292
 C568 C 0.51605 0.79057 -0.09996
 C569 C 0.52237 0.77367 -0.08086
 C570 C 0.51863 0.77918 -0.05423
 C571 C 0.50785 0.80169 -0.04719
 C572 C 0.50153 0.81860 -0.06629
 H573 H 0.47869 0.93436 -0.13663
 H574 H 0.48221 0.90219 -0.10385
 H575 H 0.51000 0.85208 -0.16293
 H576 H 0.50563 0.88381 -0.19564
 H577 H 0.50124 0.86398 -0.08987
 H578 H 0.49893 0.82347 -0.13368
 H579 H 0.51945 0.78594 -0.12031
 H580 H 0.53026 0.75630 -0.08696
 H581 H 0.50490 0.80665 -0.02685
 H582 H 0.49308 0.83557 -0.05997
 C583 C 0.99355 0.34320 0.42890
 C584 C 0.99636 0.36207 0.41046
 C585 C 1.00682 0.35727 0.38595
 C586 C 1.01494 0.33325 0.38031
 C587 C 1.01253 0.31438 0.39890
 C588 C 1.00167 0.31892 0.42361
 C589 C 1.00983 0.37807 0.36730
 C590 C 1.00881 0.37444 0.34124
 C591 C 1.01011 0.39587 0.32329
 C592 C 0.99563 0.39367 0.29978
 C593 C 0.99512 0.41426 0.28336
 C594 C 1.00914 0.43758 0.29018
 C595 C 1.02525 0.43893 0.31278
 C596 C 1.02552 0.41848 0.32928
 H597 H 0.98611 0.34833 0.44777
 H598 H 0.99032 0.38059 0.41540
 H599 H 1.02355 0.32907 0.36171
 H600 H 1.01849 0.29602 0.39334
 H601 H 1.01110 0.39719 0.37545
 H602 H 1.00477 0.35553 0.33287
 H603 H 0.98420 0.37615 0.29439
 H604 H 0.98380 0.41160 0.26539
 H605 H 1.03740 0.45608 0.31793
 H606 H 1.03786 0.42037 0.34668
 C607 C 0.48343 0.89700 0.15684
 C608 C 0.48455 0.87735 0.13825
 C609 C 0.50813 0.87256 0.12684
 C610 C 0.53084 0.88737 0.13506
 C611 C 0.52982 0.90702 0.15361
 C612 C 0.50604 0.91251 0.16480
 C613 C 0.50843 0.85155 0.10714
 C614 C 0.52663 0.85079 0.08876
 C615 C 0.52788 0.82970 0.06931
 C616 C 0.55160 0.82708 0.05700
 C617 C 0.55399 0.80750 0.03868
 C618 C 0.53261 0.79016 0.03205
 C619 C 0.50870 0.79300 0.04392
 C620 C 0.50630 0.81257 0.06235
 H621 H 0.46446 0.90047 0.16393
 H622 H 0.46675 0.86611 0.13238
 H623 H 0.54965 0.88352 0.12775
 H624 H 0.54809 0.91710 0.15980
 H625 H 0.49292 0.83652 0.10787
 H626 H 0.54185 0.86612 0.08804
 H627 H 0.56845 0.84014 0.06173
 H628 H 0.57256 0.80615 0.02948
 H629 H 0.49189 0.77987 0.03927
 H630 H 0.48746 0.81428 0.07075
 C631 C 0.00510 0.34979 0.58831
 C632 C 0.00544 0.37086 0.60515
 C633 C -0.00131 0.36828 0.63148
 C634 C -0.00893 0.34396 0.64053
 C635 C -0.00938 0.32277 0.62352
 C636 C -0.00210 0.32549 0.59730
 C637 C -0.00005 0.39164 0.64818
 C638 C -0.00165 0.39256 0.67437
 C639 C 0.00107 0.41696 0.68936
 C640 C -0.01268 0.41965 0.71258
 C641 C -0.01152 0.44305 0.72607
 C642 C 0.00353 0.46405 0.71656
 C643 C 0.01831 0.46097 0.69410
 C644 C 0.01723 0.43769 0.68074
 H645 H 0.01025 0.35258 0.56808
 H646 H 0.01118 0.38931 0.59754
 H647 H -0.01469 0.34108 0.66051
 H648 H -0.01506 0.30423 0.63093
 H649 H 0.00273 0.40928 0.63804
 H650 H -0.00559 0.37549 0.68517
 H651 H -0.02495 0.40385 0.71982
 H652 H -0.02308 0.44492 0.74337
 H653 H 0.03074 0.47663 0.68682
 H654 H 0.02912 0.43602 0.66367
 C655 C 0.48116 0.11564 0.81714
 C656 C 0.47958 0.13640 0.83423
 C657 C 0.48770 0.13550 0.86049
 C658 C 0.49733 0.11324 0.86940
 C659 C 0.49880 0.09243 0.85233
 C660 C 0.49059 0.09331 0.82603
 C661 C 0.48423 0.15741 0.87830
 C662 C 0.49852 0.16268 0.90028
 C663 C 0.49389 0.18316 0.91956
 C664 C 0.50478 0.18223 0.94479
 C665 C 0.49995 0.20017 0.96416
 C666 C 0.48405 0.21957 0.95888
 C667 C 0.47409 0.22119 0.93322
 C668 C 0.47894 0.20327 0.91378
 H669 H 0.47497 0.11708 0.79693
 H670 H 0.47195 0.15324 0.82691
 H671 H 0.50289 0.11142 0.88970
 H672 H 0.50561 0.07536 0.85997
 H673 H 0.46914 0.16921 0.87294
 H674 H 0.51384 0.15088 0.90509
 H675 H 0.51664 0.16719 0.94978
 H676 H 0.50825 0.19822 0.98335
 H677 H 0.46259 0.23640 0.92799
 H678 H 0.47102 0.20546 0.89436
 C679 C 0.96759 0.66311 0.38903
 C680 C 0.96615 0.64300 0.37073
 C681 C 0.98869 0.63539 0.35909
 C682 C 1.01277 0.64882 0.36570
 C683 C 1.01419 0.66897 0.38396
 C684 C 0.99168 0.67605 0.39619
 C685 C 0.98643 0.61208 0.34224
 C686 C 1.00518 0.60509 0.32648
 C687 C 1.00385 0.58008 0.31270
 C688 C 1.01918 0.57701 0.29062
 C689 C 1.01979 0.55325 0.27829
 C690 C 1.00530 0.53203 0.28802
 C691 C 0.98977 0.53513 0.30995
 C692 C 0.98912 0.55882 0.32223
 H693 H 0.94992 0.66782 0.39835
 H694 H 0.94739 0.63290 0.36621
 H695 H 1.03074 0.64335 0.35773
 H696 H 1.03301 0.67873 0.38889
 H697 H 0.96843 0.60007 0.34322
 H698 H 1.02222 0.61795 0.32337
 H699 H 1.03097 0.59299 0.28309
 H700 H 1.03223 0.55138 0.26165
 H701 H 0.97817 0.51918 0.31775
 H702 H 0.97769 0.56011 0.33966
 C703 C 1.19656 0.49844 0.12658
 C704 C 1.17898 0.49638 0.14707
 C705 C 1.15370 0.50353 0.14392
 C706 C 1.14629 0.51277 0.11968
 C707 C 1.16380 0.51491 0.09919
 C708 C 1.18933 0.50762 0.10205
 C709 C 1.13525 0.49960 0.16569
 C710 C 1.11364 0.51167 0.16800
 C711 C 1.09392 0.50602 0.18826
 C712 C 1.06829 0.51145 0.18309
 C713 C 1.04876 0.50556 0.20105
 C714 C 1.05450 0.49436 0.22477
 C715 C 1.08031 0.48956 0.23033
 C716 C 1.09986 0.49539 0.21232
 H717 H 1.21602 0.49338 0.13050
 H718 H 1.18522 0.48917 0.16555
 H719 H 1.12667 0.51748 0.11593
 H720 H 1.15645 0.52095 0.08068
 H721 H 1.13961 0.48580 0.17991
 H722 H 1.10935 0.52554 0.15384
 H723 H 1.06320 0.51972 0.16477
 H724 H 1.02904 0.50915 0.19594
 H725 H 1.08543 0.48145 0.24871
 H726 H 1.11953 0.49176 0.21748
 C727 C 0.58973 0.02430 0.66463
 C728 C 0.60889 0.02465 0.64561
 C729 C 0.62162 0.00297 0.63991
 C730 C 0.61462 -0.01921 0.65352
 C731 C 0.59538 -0.01960 0.67242
 C732 C 0.58263 0.00210 0.67811
 C733 C 0.64091 0.00366 0.61872
 C734 C 0.66015 -0.01165 0.61771
 C735 C 0.67861 -0.01245 0.59585
 C736 C 0.70229 -0.02278 0.60024
 C737 C 0.71942 -0.02575 0.57976
 C738 C 0.71312 -0.01867 0.55431
 C739 C 0.68961 -0.00793 0.54993
 C740 C 0.67248 -0.00490 0.57045
 H741 H 0.57998 0.04121 0.66831
 H742 H 0.61369 0.04188 0.63519
 H743 H 0.62339 -0.03653 0.64916
 H744 H 0.59038 -0.03695 0.68254
 H745 H 0.63948 0.01773 0.60397
 H746 H 0.66301 -0.02394 0.63386
 H747 H 0.70746 -0.02884 0.61955
 H748 H 0.73752 -0.03381 0.58384
 H749 H 0.68391 -0.00279 0.53045
 H750 H 0.65408 0.00242 0.56605
 C751 C -0.16979 0.52037 0.89048
 C752 C -0.15270 0.52121 0.86961
 C753 C -0.14161 0.49939 0.86101
 C754 C -0.14877 0.47637 0.87308
 C755 C -0.16606 0.47550 0.89389
 C756 C -0.17644 0.49758 0.90302
 C757 C -0.12282 0.50157 0.83945
 C758 C -0.10396 0.48607 0.83604
 C759 C -0.08361 0.49044 0.81616
 C760 C -0.05896 0.48220 0.82086
 C761 C -0.03876 0.48769 0.80346
 C762 C -0.04281 0.50151 0.78094
 C763 C -0.06796 0.50846 0.77552
 C764 C -0.08812 0.50297 0.79287
 H765 H -0.17784 0.53759 0.89683
 H766 H -0.14775 0.53910 0.86046
 H767 H -0.14121 0.45901 0.86648
 H768 H -0.17086 0.45767 0.90320
 H769 H -0.12326 0.51796 0.82739
 H770 H -0.10182 0.47113 0.84967
 H771 H -0.05508 0.47217 0.83846
 H772 H -0.01988 0.48172 0.80818
 H773 H -0.07214 0.51819 0.75782
 H774 H -0.10718 0.50857 0.78793
 C775 C 0.41863 -0.00893 0.34538
 C776 C 0.40009 -0.00799 0.36485
 C777 C 0.37502 -0.00126 0.35898
 C778 C 0.36888 0.00442 0.33294
 C779 C 0.38747 0.00346 0.31345
 C780 C 0.41260 -0.00309 0.31947
 C781 C 0.35663 0.00057 0.38086
 C782 C 0.33113 0.00308 0.37788
 C783 C 0.31373 0.00623 0.40029
 C784 C 0.29156 0.01921 0.39660
 C785 C 0.27512 0.02332 0.41741
 C786 C 0.28037 0.01434 0.44243
 C787 C 0.30204 0.00055 0.44584
 C788 C 0.31855 -0.00350 0.42506
 H789 H 0.43794 -0.01360 0.35080
 H790 H 0.40548 -0.01229 0.38470
 H791 H 0.35008 0.01016 0.32741
 H792 H 0.38218 0.00790 0.29363
 H793 H 0.36487 0.00030 0.40045
 H794 H 0.32256 0.00396 0.35854
 H795 H 0.28714 0.02654 0.37762
 H796 H 0.25818 0.03340 0.41380
 H797 H 0.30664 -0.00681 0.46462
 H798 H 0.33488 -0.01444 0.42849
 C799 C 0.14633 0.49712 0.92673
 C800 C 0.12631 0.49652 0.90795
 C801 C 0.13179 0.50069 0.88154
 C802 C 0.15793 0.50567 0.87434
 C803 C 0.17795 0.50622 0.89315
 C804 C 0.17239 0.50201 0.91956
 C805 C 0.10962 0.50078 0.86264
 C806 C 0.11191 0.49991 0.83653
 C807 C 0.08969 0.50197 0.81827
 C808 C 0.09450 0.51299 0.79402
 C809 C 0.07402 0.51637 0.77669
 C810 C 0.04827 0.50845 0.78308
 C811 C 0.04353 0.49645 0.80685
 C812 C 0.06402 0.49328 0.82436
 H813 H 0.14133 0.49424 0.94698
 H814 H 0.10640 0.49292 0.91414
 H815 H 0.16321 0.50965 0.85443
 H816 H 0.19784 0.50987 0.88697
 H817 H 0.09059 0.50211 0.87084
 H818 H 0.13074 0.49897 0.82789
 H819 H 0.11413 0.51951 0.78871
 H820 H 0.07835 0.52516 0.75821
 H821 H 0.02399 0.49007 0.81226
 H822 H 0.05968 0.48393 0.84251
 C823 C 0.60294 0.02904 0.33561
 C824 C 0.62065 0.02852 0.35659
 C825 C 0.62524 0.00557 0.36800
 C826 C 0.61233 -0.01698 0.35746
 C827 C 0.59473 -0.01646 0.33650
 C828 C 0.58975 0.00653 0.32537
 C829 C 0.64434 0.00559 0.39003
 C830 C 0.64318 -0.01244 0.40797
 C831 C 0.66329 -0.01458 0.42864
 C832 C 0.66536 -0.03839 0.43926
 C833 C 0.68468 -0.04191 0.45784
 C834 C 0.70225 -0.02158 0.46649
 C835 C 0.69962 0.00252 0.45675
 C836 C 0.68035 0.00602 0.43791
 H837 H 0.59975 0.04703 0.32723
 H838 H 0.63063 0.04611 0.36407
 H839 H 0.61602 -0.03516 0.36500
 H840 H 0.58476 -0.03412 0.32921
 H841 H 0.65976 0.02076 0.39111
 H842 H 0.62736 -0.02725 0.40687
 H843 H 0.65229 -0.05452 0.43273
 H844 H 0.68589 -0.06060 0.46543
 H845 H 0.71289 0.01851 0.46316
 H846 H 0.67891 0.02483 0.43081
 C847 C 0.83642 0.46812 0.10111
 C848 C 0.85443 0.46567 0.12133
 C849 C 0.86909 0.48697 0.13237
 C850 C 0.86474 0.51102 0.12315
 C851 C 0.84666 0.51346 0.10288
 C852 C 0.83251 0.49201 0.09146
 C853 C 0.88842 0.48296 0.15333
 C854 C 0.90776 0.50016 0.16130
 C855 C 0.92746 0.49497 0.18140
 C856 C 0.93972 0.51520 0.19647
 C857 C 0.95867 0.51108 0.21534
 C858 C 0.96599 0.48662 0.21929
 C859 C 0.95398 0.46640 0.20394
 C860 C 0.93498 0.47050 0.18515
 H861 H 0.82544 0.45127 0.09309
 H862 H 0.85712 0.44696 0.12819
 H863 H 0.87499 0.52805 0.13148
 H864 H 0.84409 0.53212 0.09583
 H865 H 0.88683 0.46461 0.16214
 H866 H 0.90943 0.51879 0.15322
 H867 H 0.93441 0.53424 0.19383
 H868 H 0.96727 0.52703 0.22707
 H869 H 0.95963 0.44742 0.20608
 H870 H 0.92674 0.45455 0.17322
 C871 C 0.37390 -0.01182 0.68125
 C872 C 0.35373 -0.01091 0.66275
 C873 C 0.35911 -0.00449 0.63681
 C874 C 0.38517 0.00111 0.62976
 C875 C 0.40527 0.00024 0.64823
 C876 C 0.39988 -0.00599 0.67424
 C877 C 0.33719 -0.00226 0.61809
 C878 C 0.33961 -0.00423 0.59202
 C879 C 0.31868 -0.00003 0.57279
 C880 C 0.32093 -0.00896 0.54693
 C881 C 0.30283 -0.00388 0.52761
 C882 C 0.28210 0.01056 0.53352
 C883 C 0.27952 0.01905 0.55961
 C884 C 0.29763 0.01396 0.57899
 H885 H 0.36911 -0.01638 0.70122
 H886 H 0.33383 -0.01503 0.66877
 H887 H 0.39019 0.00690 0.61024
 H888 H 0.42510 0.00465 0.64217
 H889 H 0.31848 0.00063 0.62626
 H890 H 0.35771 -0.00953 0.58412
 H891 H 0.33700 -0.01966 0.54154
 H892 H 0.30566 -0.01080 0.50798
 H893 H 0.26353 0.02976 0.56517
 H894 H 0.29538 0.02166 0.59852
   
