data_POSCAR
  _audit_creation_date              2014-09-24
  _audit_creation_method            'ToBaCCo'
  _symmetry_space_group_name_H-M    'P1'
  _symmetry_Int_Tables_number       1
  _symmetry_cell_setting            triclinic
  loop_
  _symmetry_equiv_pos_as_xyz
 x,y,z
_cell_length_a 34.3873
_cell_length_b 34.2853
_cell_length_c 17.1040
_cell_angle_alpha 90.023300
_cell_angle_beta 89.951300
_cell_angle_gamma 87.962700
loop_
  _atom_site_label
  _atom_site_type_symbol
  _atom_site_fract_x
  _atom_site_fract_y
  _atom_site_fract_z
C1 C -0.03262 0.25555 0.03360
 C2 C -0.03365 0.25553 -0.04996
 C3 C 0.00133 0.25932 -0.09188
 C4 C 0.03764 0.26068 -0.05405
 C5 C 0.03824 0.25860 0.02917
 C6 C 0.00343 0.25800 0.07110
 H7 H 0.00462 0.25916 0.13447
 H8 H 0.00058 0.25771 -0.15521
 C9 C 0.46013 0.76690 0.54458
 C10 C 0.46055 0.77156 0.46262
 C11 C 0.49588 0.77655 0.42378
 C12 C 0.53110 0.77553 0.46516
 C13 C 0.53085 0.76851 0.54687
 C14 C 0.49527 0.76558 0.58611
 H15 H 0.49498 0.76062 0.64870
 H16 H 0.49607 0.78009 0.36080
 C17 C 1.03289 0.73686 0.04727
 C18 C 1.03069 0.74465 -0.03444
 C19 C 0.99417 0.74620 -0.07147
 C20 C 0.95978 0.74016 -0.02918
 C21 C 0.96203 0.73555 0.05322
 C22 C 0.99830 0.73448 0.09030
 H23 H 0.99953 0.73094 0.15329
 H24 H 0.99267 0.75127 -0.13399
 C25 C 0.53820 0.24178 0.53349
 C26 C 0.53833 0.24865 0.45181
 C27 C 0.50317 0.24957 0.41058
 C28 C 0.46788 0.24462 0.44958
 C29 C 0.46765 0.23933 0.53150
 C30 C 0.50280 0.23802 0.57273
 H31 H 0.50263 0.23340 0.63544
 H32 H 0.50322 0.25432 0.34791
 C33 C 0.72803 -0.03009 0.04822
 C34 C 0.71924 -0.03028 -0.03429
 C35 C 0.72660 0.00457 -0.07481
 C36 C 0.73122 0.03994 -0.03585
 C37 C 0.73097 0.04102 0.04616
 C38 C 0.73025 0.00599 0.08749
 H39 H 0.73523 0.00685 0.15007
 H40 H 0.73078 0.00493 -0.13710
 C41 C 0.23361 0.46659 0.53729
 C42 C 0.23116 0.46764 0.45462
 C43 C 0.23138 0.50358 0.41558
 C44 C 0.23147 0.53872 0.45746
 C45 C 0.23205 0.53768 0.54012
 C46 C 0.23461 0.50176 0.57894
 H47 H 0.23648 0.50120 0.64221
 H48 H 0.23096 0.50423 0.35221
 C49 C 0.27483 1.03860 0.03306
 C50 C 0.27493 1.03725 -0.05026
 C51 C 0.27508 1.00106 -0.08838
 C52 C 0.27206 0.96646 -0.04591
 C53 C 0.27071 0.96761 0.03635
 C54 C 0.27207 1.00350 0.07515
 H55 H 0.27169 1.00393 0.13855
 H56 H 0.27410 0.99993 -0.15176
 C57 C 0.76759 0.53955 0.55499
 C58 C 0.76710 0.54216 0.47261
 C59 C 0.76820 0.50798 0.42746
 C60 C 0.76813 0.47119 0.46326
 C61 C 0.76836 0.46861 0.54566
 C62 C 0.76884 0.50274 0.59077
 H63 H 0.76796 0.50072 0.65400
 H64 H 0.76707 0.51005 0.36425
 O65 O 0.21474 0.26911 0.14650
 O66 O 0.31337 0.26446 0.22987
 O67 O 0.27248 0.21866 0.14288
 O68 O 0.25549 0.31570 0.23054
 O69 O 0.23272 0.28839 0.33726
 O70 O 0.25096 0.19116 0.25027
 O71 O 0.29054 0.23753 0.33726
 O72 O 0.19246 0.24139 0.25333
 Cu73 Cu 0.26639 0.26981 0.17677
 Cu74 Cu 0.23938 0.23691 0.30525
 C75 C 0.18695 0.25530 0.18538
 C76 C 0.31858 0.25022 0.29772
 C77 C 0.26507 0.18826 0.18169
 C78 C 0.24069 0.31864 0.29839
 O79 O 0.76471 0.72299 0.36485
 O80 O 0.75831 0.82076 0.27540
 O81 O 0.71191 0.77954 0.36045
 O82 O 0.81091 0.76496 0.28137
 O83 O 0.78658 0.73775 0.17569
 O84 O 0.68744 0.75598 0.25182
 O85 O 0.73571 0.79488 0.16687
 O86 O 0.73859 0.69809 0.25880
 Cu87 Cu 0.76378 0.77455 0.33156
 Cu88 Cu 0.73452 0.74407 0.20266
 C89 C 0.75225 0.69401 0.32731
 C90 C 0.74693 0.82416 0.20503
 C91 C 0.68272 0.77099 0.31925
 C92 C 0.81544 0.74890 0.21500
 O93 O 0.81634 0.24747 0.26860
 O94 O 0.71774 0.24232 0.34770
 O95 O 0.76279 0.19554 0.26313
 O96 O 0.76948 0.29535 0.34221
 O97 O 0.74720 0.31935 0.23046
 O98 O 0.73701 0.21982 0.15452
 O99 O 0.69370 0.26755 0.23823
 O100 O 0.79292 0.26867 0.15636
 Cu101 Cu 0.76894 0.24268 0.31631
 Cu102 Cu 0.74039 0.27137 0.18383
 C103 C 0.82176 0.25770 0.19857
 C104 C 0.68908 0.25480 0.30724
 C105 C 0.74876 0.19079 0.19508
 C106 C 0.75907 0.32433 0.29984
 O107 O 0.25643 0.69141 0.23746
 O108 O 0.26754 0.78896 0.15172
 O109 O 0.31013 0.74251 0.23893
 O110 O 0.21393 0.73644 0.14726
 O111 O 0.18621 0.75990 0.25420
 O112 O 0.28310 0.77180 0.34152
 O113 O 0.23722 0.81570 0.25345
 O114 O 0.23135 0.71862 0.34432
 Cu115 Cu 0.26464 0.73737 0.18302
 Cu116 Cu 0.23166 0.76960 0.30853
 C117 C 0.24238 0.68856 0.30584
 C118 C 0.25444 0.81889 0.18822
 C119 C 0.31299 0.75793 0.30602
 C120 C 0.18347 0.74507 0.18637
 O121 O 0.76982 0.28788 0.64969
 O122 O 0.76241 0.18908 0.73169
 O123 O 0.71772 0.23439 0.64687
 O124 O 0.81465 0.24156 0.73450
 O125 O 0.78789 0.26623 0.84210
 O126 O 0.69069 0.25878 0.75411
 O127 O 0.73555 0.21440 0.83847
 O128 O 0.74250 0.31273 0.75646
 Cu129 Cu 0.76888 0.23599 0.67973
 Cu130 Cu 0.73655 0.26599 0.80837
 C131 C 0.75681 0.31701 0.68873
 C132 C 0.74808 0.18502 0.79955
 C133 C 0.68760 0.24422 0.68618
 C134 C 0.81761 0.25408 0.80393
 O135 O 0.30579 0.73962 0.75839
 O136 O 0.20842 0.73904 0.84833
 O137 O 0.25035 0.68992 0.76359
 O138 O 0.26364 0.78833 0.84260
 O139 O 0.23691 0.81423 0.73640
 O140 O 0.22566 0.71604 0.65571
 O141 O 0.18256 0.76370 0.73998
 O142 O 0.28034 0.76697 0.65229
 Cu143 Cu 0.25968 0.73653 0.81391
 Cu144 Cu 0.22887 0.76772 0.68510
 C145 C 0.30962 0.75360 0.69020
 C146 C 0.17904 0.75154 0.80965
 C147 C 0.23556 0.68628 0.69612
 C148 C 0.25176 0.81797 0.80376
 O149 O 0.25862 0.30885 0.75255
 O150 O 0.26696 0.20811 0.82593
 O151 O 0.31192 0.25321 0.74678
 O152 O 0.21294 0.26303 0.82730
 O153 O 0.18860 0.24301 0.71529
 O154 O 0.28804 0.22975 0.63725
 O155 O 0.24147 0.18616 0.71646
 O156 O 0.23632 0.28689 0.64018
 Cu157 Cu 0.26505 0.26044 0.79932
 Cu158 Cu 0.23622 0.23427 0.66614
 C159 C 0.24621 0.31489 0.68367
 C160 C 0.25533 0.18016 0.78438
 C161 C 0.31685 0.23938 0.67847
 C162 C 0.18396 0.25508 0.78493
 O163 O 0.80480 0.76326 0.76291
 O164 O 0.70905 0.76876 0.66702
 O165 O 0.74560 0.81484 0.75881
 O166 O 0.76309 0.71523 0.68101
 O167 O 0.73726 0.69098 0.78789
 O168 O 0.71805 0.78997 0.86269
 O169 O 0.68209 0.74363 0.77224
 O170 O 0.77815 0.73949 0.86926
 Cu171 Cu 0.75882 0.76808 0.70757
 Cu172 Cu 0.72665 0.73871 0.83422
 C173 C 0.80810 0.74950 0.83148
 C174 C 0.67945 0.75688 0.70294
 C175 C 0.72671 0.81943 0.82228
 C176 C 0.75178 0.68622 0.72030
 C177 C 0.30633 0.10146 0.06072
 C178 C 0.27671 0.07430 0.07438
 C179 C 0.24761 0.08365 0.12946
 C180 C 0.24508 0.12032 0.16427
 C181 C 0.27177 0.14899 0.14634
 C182 C 0.30365 0.13925 0.09597
 C183 C 0.34000 0.09081 0.01708
 C184 C 0.36907 0.11729 0.00411
 C185 C 0.36595 0.15445 0.03631
 C186 C 0.33397 0.16529 0.08250
 H187 H 0.34450 0.06168 -0.00627
 H188 H 0.39445 0.10871 -0.03014
 H189 H 0.38894 0.17473 0.02704
 H190 H 0.33437 0.19377 0.10912
 H191 H 0.22510 0.06323 0.14224
 H192 H 0.22104 0.12675 0.20372
 C193 C 0.72624 0.58651 0.63722
 C194 C 0.76269 0.57503 0.60424
 C195 C 0.79459 0.59873 0.61431
 C196 C 0.79053 0.63435 0.65308
 C197 C 0.75480 0.64670 0.68565
 C198 C 0.72233 0.62226 0.67959
 C199 C 0.69328 0.56363 0.62705
 C200 C 0.65744 0.57516 0.65908
 C201 C 0.65364 0.60968 0.70144
 C202 C 0.68556 0.63313 0.71154
 H203 H 0.69477 0.53684 0.59382
 H204 H 0.63245 0.55730 0.65063
 H205 H 0.62564 0.61867 0.72566
 H206 H 0.68052 0.66014 0.74288
 H207 H 0.82266 0.59005 0.58994
 H208 H 0.81554 0.65259 0.65743
 C209 C 0.76578 0.90672 0.06129
 C210 C 0.73912 0.93590 0.09112
 C211 C 0.72124 0.92939 0.16381
 C212 C 0.72542 0.89344 0.20122
 C213 C 0.74693 0.86264 0.16673
 C214 C 0.76791 0.86916 0.09685
 C215 C 0.79009 0.91393 -0.00350
 C216 C 0.81349 0.88410 -0.03603
 C217 C 0.81370 0.84680 -0.00410
 C218 C 0.79138 0.83933 0.06190
 H219 H 0.79133 0.94265 -0.02930
 H220 H 0.83150 0.88994 -0.08631
 H221 H 0.83176 0.82367 -0.02968
 H222 H 0.79306 0.81011 0.08539
 H223 H 0.70148 0.95120 0.18932
 H224 H 0.70986 0.88894 0.25543
 C225 C 0.20895 0.41865 0.63887
 C226 C 0.23632 0.42891 0.58069
 C227 C 0.26696 0.40244 0.56186
 C228 C 0.26972 0.36568 0.59607
 C229 C 0.24316 0.35498 0.65330
 C230 C 0.21329 0.38187 0.67727
 C231 C 0.17673 0.44351 0.65837
 C232 C 0.15089 0.43338 0.71721
 C233 C 0.15635 0.39833 0.75731
 C234 C 0.18704 0.37258 0.73732
 H235 H 0.17086 0.47074 0.62811
 H236 H 0.12649 0.45285 0.73181
 H237 H 0.13632 0.39072 0.80325
 H238 H 0.18992 0.34538 0.76912
 H239 H 0.28855 0.41001 0.51882
 H240 H 0.29288 0.34540 0.57786
 C241 C 0.92784 0.22867 0.14277
 C242 C 0.93319 0.25566 0.08034
 C243 C 0.90314 0.28303 0.06331
 C244 C 0.86816 0.28331 0.10364
 C245 C 0.86169 0.25702 0.16461
 C246 C 0.89236 0.22996 0.18670
 C247 C 0.95566 0.19820 0.15825
 C248 C 0.95089 0.17221 0.21948
 C249 C 0.91774 0.17495 0.26535
 C250 C 0.88849 0.20279 0.24860
 H251 H 0.98088 0.19323 0.12201
 H252 H 0.97283 0.14947 0.23065
 H253 H 0.91400 0.15447 0.31270
 H254 H 0.86318 0.20146 0.28499
 H255 H 0.90666 0.30453 0.01766
 H256 H 0.84568 0.30456 0.08653
 C257 C 0.41064 0.72455 0.61031
 C258 C 0.42301 0.76173 0.58677
 C259 C 0.39837 0.79464 0.59784
 C260 C 0.36166 0.79126 0.63087
 C261 C 0.34868 0.75492 0.65481
 C262 C 0.37307 0.72107 0.64432
 C263 C 0.43443 0.69061 0.59906
 C264 C 0.42129 0.65401 0.61976
 C265 C 0.38440 0.65053 0.65201
 C266 C 0.36044 0.68364 0.66428
 H267 H 0.46319 0.69199 0.57378
 H268 H 0.43976 0.62821 0.61036
 H269 H 0.37423 0.62201 0.66741
 H270 H 0.33188 0.67959 0.68852
 H271 H 0.40748 0.82316 0.57954
 H272 H 0.34326 0.81732 0.63830
 C273 C 0.09888 0.70589 0.06448
 C274 C 0.06890 0.73323 0.08703
 C275 C 0.07594 0.75915 0.14841
 C276 C 0.11303 0.76203 0.17967
 C277 C 0.14426 0.73806 0.15326
 C278 C 0.13678 0.70801 0.09806
 C279 C 0.09115 0.67501 0.01262
 C280 C 0.12020 0.64768 -0.00819
 C281 C 0.15707 0.64958 0.02431
 C282 C 0.16524 0.67889 0.07766
 H283 H 0.06240 0.67139 -0.01136
 H284 H 0.11383 0.62440 -0.04848
 H285 H 0.17927 0.62764 0.00946
 H286 H 0.19361 0.67703 0.10430
 H287 H 0.05333 0.77973 0.16799
 H288 H 0.11756 0.78434 0.22327
 C289 C 0.60207 0.20652 0.56740
 C290 C 0.57500 0.23813 0.57853
 C291 C 0.58371 0.26804 0.63059
 C292 C 0.61999 0.26887 0.66627
 C293 C 0.64849 0.23945 0.65206
 C294 C 0.63905 0.20691 0.60495
 C295 C 0.59278 0.17416 0.52078
 C296 C 0.61931 0.14288 0.51107
 C297 C 0.65510 0.14278 0.54886
 C298 C 0.66485 0.17416 0.59599
 H299 H 0.56482 0.17257 0.49221
 H300 H 0.61180 0.11830 0.47506
 H301 H 0.67526 0.11801 0.54245
 H302 H 0.69228 0.17173 0.62657
 H303 H 0.56291 0.29201 0.64058
 H304 H 0.62629 0.29352 0.70321
 C305 C 0.77335 0.08342 0.88239
 C306 C 0.73716 0.07556 0.91753
 C307 C 0.70573 0.10218 0.90938
 C308 C 0.70993 0.13703 0.86952
 C309 C 0.74543 0.14595 0.83480
 C310 C 0.77756 0.11881 0.83997
 C311 C 0.80570 0.05719 0.89012
 C312 C 0.84143 0.06557 0.85683
 C313 C 0.84564 0.10005 0.81535
 C314 C 0.81417 0.12649 0.80688
 H315 H 0.80375 0.03016 0.92230
 H316 H 0.86604 0.04528 0.86355
 H317 H 0.87357 0.10655 0.79020
 H318 H 0.81935 0.15318 0.77572
 H319 H 0.67782 0.09616 0.93530
 H320 H 0.68517 0.15741 0.86599
 C321 C 0.20228 0.59031 0.36481
 C322 C 0.23285 0.57634 0.41433
 C323 C 0.26548 0.59911 0.42542
 C324 C 0.26803 0.63538 0.38979
 C325 C 0.23834 0.64975 0.34088
 C326 C 0.20516 0.62733 0.32775
 C327 C 0.16846 0.56890 0.35277
 C328 C 0.13859 0.58333 0.30455
 C329 C 0.14162 0.61933 0.26787
 C330 C 0.17446 0.64128 0.27949
 H331 H 0.16452 0.54109 0.38090
 H332 H 0.11286 0.56656 0.29587
 H333 H 0.11832 0.63043 0.23060
 H334 H 0.17550 0.66928 0.25086
 H335 H 0.28910 0.58879 0.46277
 H336 H 0.29334 0.65247 0.40083
 C337 C 0.22878 0.92121 0.88026
 C338 C 0.26569 0.92974 0.91138
 C339 C 0.29658 0.90231 0.90536
 C340 C 0.29134 0.86637 0.86998
 C341 C 0.25532 0.85716 0.83801
 C342 C 0.22353 0.88473 0.84255
 C343 C 0.19670 0.94787 0.88770
 C344 C 0.16033 0.93892 0.85825
 C345 C 0.15513 0.90337 0.82127
 C346 C 0.18624 0.87646 0.81344
 H347 H 0.19928 0.97567 0.91683
 H348 H 0.13599 0.95959 0.86457
 H349 H 0.12671 0.89641 0.79917
 H350 H 0.18027 0.84898 0.78594
 H351 H 0.32484 0.90859 0.92919
 H352 H 0.31576 0.84555 0.86718
 C353 C 0.72954 0.42597 0.37761
 C354 C 0.76490 0.43571 0.41415
 C355 C 0.79743 0.41024 0.40776
 C356 C 0.79502 0.37467 0.36919
 C357 C 0.76043 0.36408 0.33303
 C358 C 0.72744 0.39028 0.33517
 C359 C 0.69582 0.45044 0.38441
 C360 C 0.66113 0.44066 0.34864
 C361 C 0.65922 0.40630 0.30586
 C362 C 0.69186 0.38121 0.29927
 H363 H 0.69582 0.47707 0.41799
 H364 H 0.63554 0.45975 0.35449
 H365 H 0.63211 0.39870 0.27863
 H366 H 0.68837 0.35443 0.26730
 H367 H 0.82469 0.41750 0.43488
 H368 H 0.82042 0.35504 0.36796
 C369 C 0.07832 0.28573 0.83506
 C370 C 0.07248 0.26065 0.90070
 C371 C 0.10266 0.23377 0.92038
 C372 C 0.13873 0.23450 0.88514
 C373 C 0.14475 0.25756 0.81975
 C374 C 0.11403 0.28243 0.79190
 C375 C 0.05086 0.31550 0.81354
 C376 C 0.05647 0.33830 0.74722
 C377 C 0.08985 0.33275 0.70200
 C378 C 0.11868 0.30548 0.72450
 H379 H 0.02517 0.32209 0.84811
 H380 H 0.03487 0.36058 0.73107
 H381 H 0.09399 0.35053 0.65055
 H382 H 0.14482 0.30312 0.68938
 H383 H 0.09852 0.21128 0.96317
 H384 H 0.16200 0.21592 0.90835
 C385 C 0.59390 0.80994 0.43578
 C386 C 0.56822 0.77929 0.42152
 C387 C 0.57892 0.74995 0.36803
 C388 C 0.61562 0.74869 0.33376
 C389 C 0.64279 0.77700 0.35106
 C390 C 0.63145 0.80898 0.40006
 C391 C 0.58272 0.84186 0.48392
 C392 C 0.60802 0.87197 0.49753
 C393 C 0.64441 0.87143 0.46192
 C394 C 0.65595 0.84062 0.41292
 H395 H 0.55424 0.84397 0.51085
 H396 H 0.59912 0.89616 0.53492
 H397 H 0.66362 0.89531 0.47143
 H398 H 0.68374 0.84261 0.38407
 H399 H 0.55938 0.72659 0.35585
 H400 H 0.62338 0.72435 0.29574
 C401 C 0.89909 0.70692 0.93575
 C402 C 0.92367 0.73937 0.93110
 C403 C 0.91093 0.77230 0.88832
 C404 C 0.87350 0.77487 0.85686
 C405 C 0.84748 0.74464 0.86660
 C406 C 0.86059 0.70972 0.90455
 C407 C 0.91309 0.67073 0.96584
 C408 C 0.88912 0.63893 0.97050
 C409 C 0.85123 0.64196 0.94246
 C410 C 0.83720 0.67664 0.90858
 H411 H 0.94296 0.66653 0.98460
 H412 H 0.90023 0.61160 0.99479
 H413 H 0.83292 0.61696 0.94507
 H414 H 0.80834 0.67652 0.88395
 H415 H 0.92936 0.79712 0.88248
 H416 H 0.86439 0.80131 0.82626
 C417 C 0.42049 0.21407 0.35611
 C418 C 0.43123 0.24562 0.40419
 C419 C 0.40567 0.27801 0.41340
 C420 C 0.36944 0.27926 0.37722
 C421 C 0.35781 0.24807 0.33126
 C422 C 0.38314 0.21509 0.32033
 C423 C 0.44559 0.18108 0.34438
 C424 C 0.43393 0.14977 0.29901
 C425 C 0.39717 0.15059 0.26488
 C426 C 0.37187 0.18283 0.27556
 H427 H 0.47421 0.17901 0.37053
 H428 H 0.45343 0.12463 0.29070
 H429 H 0.38816 0.12611 0.23013
 H430 H 0.34339 0.18218 0.24907
 H431 H 0.41365 0.30227 0.44996
 H432 H 0.35006 0.30450 0.38614
 C433 C 0.70322 0.93010 0.83852
 C434 C 0.70595 0.93346 0.92159
 C435 C 0.69683 0.89958 0.96286
 C436 C 0.70376 0.86296 0.92974
 C437 C 0.71474 0.85913 0.85103
 C438 C 0.70993 0.89270 0.80254
 C439 C 0.68859 0.96111 0.79159
 C440 C 0.68675 0.95756 0.71056
 C441 C 0.69709 0.92229 0.67487
 C442 C 0.70761 0.88984 0.72016
 H443 H 0.67612 0.98753 0.81731
 H444 H 0.67605 0.98193 0.67551
 H445 H 0.69480 0.91947 0.61200
 H446 H 0.71115 0.86247 0.68956
 H447 H 0.68763 0.90072 1.02313
 H448 H 0.70176 0.83763 0.96718
 C449 C 0.19786 0.40570 0.41470
 C450 C 0.22918 0.43129 0.40793
 C451 C 0.26090 0.42098 0.36008
 C452 C 0.26328 0.38483 0.32328
 C453 C 0.23406 0.35778 0.33323
 C454 C 0.20029 0.36853 0.37730
 C455 C 0.16401 0.41653 0.45735
 C456 C 0.13355 0.39104 0.46453
 C457 C 0.13572 0.35485 0.42767
 C458 C 0.16845 0.34376 0.38366
 H459 H 0.16068 0.44487 0.48486
 H460 H 0.10790 0.39963 0.49795
 H461 H 0.11166 0.33545 0.43232
 H462 H 0.16798 0.31604 0.35374
 H463 H 0.28489 0.44042 0.35405
 H464 H 0.28906 0.37728 0.28924
 C465 C 0.23101 0.09143 0.90577
 C466 C 0.26765 0.07090 0.90419
 C467 C 0.29683 0.08352 0.85362
 C468 C 0.29213 0.11868 0.81319
 C469 C 0.25706 0.14050 0.81746
 C470 C 0.22549 0.12583 0.86005
 C471 C 0.19915 0.07764 0.94888
 C472 C 0.16302 0.09737 0.94703
 C473 C 0.15753 0.13046 0.90081
 C474 C 0.18835 0.14446 0.85721
 H475 H 0.20158 0.05118 0.98318
 H476 H 0.13894 0.08647 0.98039
 H477 H 0.12916 0.14510 0.89808
 H478 H 0.18275 0.16934 0.81962
 H479 H 0.32443 0.06738 0.84942
 H480 H 0.31628 0.12934 0.77960
 C481 C 0.72483 0.59407 0.40536
 C482 C 0.76169 0.58041 0.43300
 C483 C 0.79388 0.60393 0.42531
 C484 C 0.78996 0.64096 0.39243
 C485 C 0.75403 0.65499 0.36357
 C486 C 0.72100 0.63150 0.36945
 C487 C 0.69154 0.57152 0.41368
 C488 C 0.65556 0.58493 0.38514
 C489 C 0.65186 0.62127 0.34924
 C490 C 0.68399 0.64471 0.34256
 H491 H 0.69296 0.54355 0.44267
 H492 H 0.63033 0.56719 0.39161
 H493 H 0.62375 0.63173 0.32792
 H494 H 0.67927 0.67329 0.31704
 H495 H 0.82223 0.59365 0.44577
 H496 H 0.81540 0.65860 0.38829
 C497 C 0.09264 0.78122 0.93951
 C498 C 0.06629 0.75205 0.91848
 C499 C 0.07610 0.72640 0.85708
 C500 C 0.11250 0.72721 0.82120
 C501 C 0.14040 0.75301 0.84700
 C502 C 0.13064 0.78042 0.90647
 C503 C 0.08203 0.81110 0.99300
 C504 C 0.10904 0.83799 1.01721
 C505 C 0.14688 0.83582 0.98822
 C506 C 0.15768 0.80739 0.93332
 H507 H 0.05283 0.81378 1.01653
 H508 H 0.10062 0.86049 1.05893
 H509 H 0.16781 0.85665 1.00734
 H510 H 0.18722 0.80701 0.91170
 H511 H 0.05615 0.70429 0.83944
 H512 H 0.11951 0.70645 0.77510
 C513 C 0.59958 0.28559 0.42627
 C514 C 0.57517 0.25434 0.40881
 C515 C 0.58750 0.22592 0.35441
 C516 C 0.62433 0.22694 0.32063
 C517 C 0.65006 0.25574 0.34213
 C518 C 0.63804 0.28519 0.39588
 C519 C 0.58649 0.31730 0.47311
 C520 C 0.61157 0.34672 0.49337
 C521 C 0.65006 0.34491 0.46802
 C522 C 0.66329 0.31447 0.41972
 H523 H 0.55682 0.31958 0.49422
 H524 H 0.60109 0.37088 0.52921
 H525 H 0.66961 0.36755 0.48458
 H526 H 0.69324 0.31430 0.40069
 H527 H 0.56893 0.20208 0.33998
 H528 H 0.63329 0.20439 0.27932
 C529 C 0.90487 0.22099 0.92687
 C530 C 0.93147 0.25038 0.90760
 C531 C 0.92114 0.27740 0.84866
 C532 C 0.88409 0.27814 0.81557
 C533 C 0.85602 0.25264 0.84166
 C534 C 0.86616 0.22377 0.89789
 C535 C 0.91639 0.18805 0.97192
 C536 C 0.88938 0.16100 0.99512
 C537 C 0.85058 0.16590 0.97309
 C538 C 0.83902 0.19677 0.92435
 H539 H 0.94640 0.18303 0.98927
 H540 H 0.89865 0.13620 1.03037
 H541 H 0.82957 0.14505 0.99175
 H542 H 0.80890 0.19884 0.90665
 H543 H 0.94104 0.29960 0.83109
 H544 H 0.87685 0.29965 0.77101
 C545 C 0.41328 0.73000 0.39003
 C546 C 0.42458 0.76709 0.41636
 C547 C 0.39981 0.79981 0.40480
 C548 C 0.36371 0.79619 0.36915
 C549 C 0.35158 0.75981 0.34323
 C550 C 0.37635 0.72620 0.35372
 C551 C 0.43771 0.69642 0.40042
 C552 C 0.42566 0.65979 0.37733
 C553 C 0.38926 0.65589 0.34335
 C554 C 0.36478 0.68864 0.33148
 H555 H 0.46621 0.69815 0.42672
 H556 H 0.44459 0.63427 0.38619
 H557 H 0.37991 0.62732 0.32615
 H558 H 0.33666 0.68401 0.30571
 H559 H 0.40816 0.82823 0.42521
 H560 H 0.34506 0.82206 0.36152
 C561 C 0.30172 0.90941 0.10634
 C562 C 0.26806 0.93114 0.08223
 C563 C 0.23118 0.91667 0.09682
 C564 C 0.22726 0.88067 0.13333
 C565 C 0.26012 0.85791 0.15487
 C566 C 0.29776 0.87241 0.14271
 C567 C 0.33931 0.92357 0.09437
 C568 C 0.37225 0.90184 0.11820
 C569 C 0.36840 0.86584 0.15445
 C570 C 0.33159 0.85116 0.16681
 H571 H 0.34353 0.95150 0.06671
 H572 H 0.40090 0.91307 0.10874
 H573 H 0.39406 0.84922 0.17327
 H574 H 0.32997 0.82328 0.19589
 H575 H 0.20529 0.93303 0.07818
 H576 H 0.19837 0.86994 0.14277
 C577 C 0.72693 0.41770 0.60841
 C578 C 0.76389 0.43069 0.58550
 C579 C 0.79710 0.40677 0.59803
 C580 C 0.79414 0.36987 0.63095
 C581 C 0.75801 0.35636 0.65445
 C582 C 0.72395 0.38033 0.64379
 C583 C 0.69276 0.44091 0.59600
 C584 C 0.65659 0.42795 0.61930
 C585 C 0.65366 0.39155 0.65430
 C586 C 0.68682 0.36764 0.66553
 H587 H 0.69369 0.46911 0.56805
 H588 H 0.63066 0.44614 0.60964
 H589 H 0.62546 0.38148 0.67172
 H590 H 0.68291 0.33918 0.69079
 H591 H 0.82550 0.41656 0.58105
 H592 H 0.82034 0.35181 0.63894
 C593 C 0.77452 0.08906 0.11289
 C594 C 0.73706 0.07793 0.08909
 C595 C 0.70484 0.10307 0.10285
 C596 C 0.70928 0.13930 0.13798
 C597 C 0.74598 0.15117 0.16187
 C598 C 0.77906 0.12597 0.14960
 C599 C 0.80771 0.06454 0.09956
 C600 C 0.84453 0.07609 0.12182
 C601 C 0.84901 0.11217 0.15725
 C602 C 0.81675 0.13710 0.17052
 H603 H 0.80555 0.03635 0.07177
 H604 H 0.86975 0.05704 0.11110
 H605 H 0.87774 0.12103 0.17359
 H606 H 0.82166 0.16519 0.19636
 H607 H 0.67607 0.09482 0.08487
 H608 H 0.68380 0.15834 0.14652
 C609 C 0.19571 0.59909 0.58636
 C610 C 0.22938 0.57403 0.58699
 C611 C 0.26193 0.58436 0.63024
 C612 C 0.26255 0.62016 0.66832
 C613 C 0.23092 0.64695 0.66312
 C614 C 0.19655 0.63608 0.62404
 C615 C 0.16103 0.58784 0.54996
 C616 C 0.12821 0.61288 0.54888
 C617 C 0.12900 0.64910 0.58543
 C618 C 0.16261 0.66057 0.62336
 H619 H 0.15885 0.55947 0.52301
 H620 H 0.10190 0.60393 0.52034
 H621 H 0.10325 0.66820 0.58537
 H622 H 0.16131 0.68834 0.65327
 H623 H 0.28758 0.56510 0.63219
 H624 H 0.28863 0.62760 0.69950
 C625 C 0.91292 0.70507 0.14494
 C626 C 0.92648 0.73748 0.10256
 C627 C 0.90523 0.77305 0.10471
 C628 C 0.87020 0.77653 0.14490
 C629 C 0.85464 0.74420 0.18158
 C630 C 0.87605 0.70821 0.18293
 C631 C 0.93458 0.66940 0.14895
 C632 C 0.91985 0.63739 0.18800
 C633 C 0.88347 0.64029 0.22380
 C634 C 0.86166 0.67535 0.22149
 H635 H 0.96283 0.66582 0.12154
 H636 H 0.93668 0.61013 0.19020
 H637 H 0.87214 0.61531 0.25379
 H638 H 0.83363 0.67658 0.25030
 H639 H 0.91573 0.79829 0.07415
 H640 H 0.85468 0.80452 0.14577
 C641 C 0.40865 0.20166 0.57173
 C642 C 0.43071 0.23572 0.57502
 C643 C 0.41648 0.26825 0.61681
 C644 C 0.38000 0.26824 0.65192
 C645 C 0.35653 0.23581 0.64573
 C646 C 0.37109 0.20170 0.60696
 C647 C 0.42341 0.16742 0.53490
 C648 C 0.40136 0.13413 0.53142
 C649 C 0.36470 0.13405 0.56593
 C650 C 0.34972 0.16729 0.60402
 H651 H 0.45221 0.16601 0.50936
 H652 H 0.41298 0.10813 0.50259
 H653 H 0.34794 0.10793 0.56399
 H654 H 0.32167 0.16539 0.63207
 H655 H 0.43326 0.29436 0.62002
 H656 H 0.36937 0.29440 0.68178
 C657 C 0.08892 0.22185 0.11074
 C658 C 0.07479 0.25707 0.07538
 C659 C 0.09699 0.29040 0.07868
 C660 C 0.13306 0.28930 0.11551
 C661 C 0.14786 0.25491 0.15038
 C662 C 0.12594 0.22061 0.14789
 C663 C 0.06840 0.18701 0.10412
 C664 C 0.08348 0.15204 0.13485
 C665 C 0.11963 0.15078 0.17117
 C666 C 0.14090 0.18450 0.17710
 H667 H 0.04135 0.18610 0.07241
 H668 H 0.06742 0.12562 0.12892
 H669 H 0.13160 0.12339 0.19360
 H670 H 0.16943 0.18144 0.20303
 H671 H 0.08659 0.31723 0.05109
 H672 H 0.14974 0.31553 0.11646
 C673 C 0.59378 0.73028 0.57463
 C674 C 0.56770 0.76217 0.59110
 C675 C 0.57797 0.78998 0.64673
 C676 C 0.61426 0.78761 0.68306
 C677 C 0.64152 0.75795 0.66322
 C678 C 0.63167 0.72924 0.60790
 C679 C 0.58282 0.69914 0.52639
 C680 C 0.60935 0.66887 0.50788
 C681 C 0.64729 0.66927 0.53613
 C682 C 0.65848 0.69918 0.58561
 H683 H 0.55363 0.69786 0.50307
 H684 H 0.60039 0.64509 0.47130
 H685 H 0.66795 0.64593 0.52098
 H686 H 0.68807 0.69828 0.60694
 H687 H 0.55810 0.81423 0.66059
 H688 H 0.62151 0.80961 0.72563
   
