data_POSCAR
  _audit_creation_date              2014-09-24
  _audit_creation_method            'ToBaCCo'
  _symmetry_space_group_name_H-M    'P1'
  _symmetry_Int_Tables_number       1
  _symmetry_cell_setting            triclinic
  loop_
  _symmetry_equiv_pos_as_xyz
 x,y,z
_cell_length_a 32.8859
_cell_length_b 30.3228
_cell_length_c 29.2622
_cell_angle_alpha 80.992600
_cell_angle_beta 100.925600
_cell_angle_gamma 85.040900
loop_
  _atom_site_label
  _atom_site_type_symbol
  _atom_site_fract_x
  _atom_site_fract_y
  _atom_site_fract_z
N1 N 0.56099 0.66598 0.59623
 N2 N 0.56173 0.63774 0.63552
 C3 C 0.53228 0.65326 0.65731
 C4 C 0.51201 0.69294 0.62950
 C5 C 0.53053 0.70014 0.59101
 H6 H 0.52493 0.63600 0.68943
 H7 H 0.52250 0.72793 0.56159
 Cu8 Cu 0.59717 0.58068 0.65122
 Cu9 Cu 0.60045 0.65686 0.55571
 Cu10 Cu 0.65810 0.55206 0.57784
 N11 N 0.61677 0.51829 0.65169
 N12 N 0.63973 0.50695 0.62208
 C13 C 0.64647 0.46175 0.62781
 C14 C 0.62675 0.44463 0.66301
 C15 C 0.60785 0.48081 0.67731
 H16 H 0.66306 0.44313 0.60695
 H17 H 0.58777 0.48011 0.70268
 N18 N 0.66379 0.60052 0.52690
 N19 N 0.64253 0.64095 0.51934
 C20 C 0.65624 0.66812 0.48597
 C21 C 0.68674 0.64318 0.47144
 C22 C 0.69104 0.60051 0.49780
 H23 H 0.64593 0.70364 0.47433
 H24 H 0.71384 0.57259 0.49780
 H25 H 0.60072 0.58774 0.56842
 H26 H 0.64488 0.61133 0.60297
 N27 N 0.95655 0.39064 0.08561
 N28 N 0.97283 0.42426 0.10298
 C29 C 1.01449 0.41859 0.10664
 C30 C 1.02422 0.37910 0.09128
 C31 C 0.98722 0.36208 0.07790
 H32 H 1.03564 0.44206 0.11787
 H33 H 0.98261 0.33261 0.06182
 Cu34 Cu 0.93770 0.47317 0.11713
 Cu35 Cu 0.89648 0.38822 0.07116
 Cu36 Cu 0.83715 0.48992 0.06315
 N37 N 0.89798 0.51440 0.13620
 N38 N 0.85824 0.52014 0.11538
 C39 C 0.83694 0.54773 0.13675
 C40 C 0.86502 0.56012 0.17227
 C41 C 0.90357 0.53862 0.17134
 H42 H 0.80353 0.55713 0.12779
 H43 H 0.93281 0.53884 0.19552
 N44 N 0.81627 0.44179 0.03101
 N45 N 0.83763 0.40154 0.03753
 C46 C 0.81450 0.37497 0.01319
 C47 C 0.77730 0.40031 -0.00990
 C48 C 0.77931 0.44248 0.00157
 H49 H 0.82480 0.34082 0.01044
 H50 H 0.75576 0.47129 -0.01027
 H51 H 0.89072 0.45553 0.04900
 H52 H 0.87378 0.43716 0.10565
 N53 N 0.47592 0.11371 -0.03406
 N54 N 0.49174 0.08459 -0.05688
 C55 C 0.52436 0.10040 -0.07304
 C56 C 0.52948 0.14103 -0.05841
 C57 C 0.49859 0.14864 -0.03375
 H58 H 0.54214 0.08424 -0.09466
 H59 H 0.49145 0.17857 -0.01956
 Cu60 Cu 0.46717 0.02977 -0.06509
 Cu61 Cu 0.42358 0.10747 -0.01285
 Cu62 Cu 0.37159 0.01844 -0.04396
 N63 N 0.43523 -0.01566 -0.08881
 N64 N 0.39713 -0.01892 -0.08186
 C65 C 0.38033 -0.04962 -0.10591
 C66 C 0.40994 -0.06656 -0.12834
 C67 C 0.44440 -0.04463 -0.11694
 H68 H 0.34880 -0.05799 -0.10796
 H69 H 0.47289 -0.04762 -0.13017
 N70 N 0.35107 0.06010 -0.00571
 N71 N 0.37013 0.09499 0.00483
 C72 C 0.34671 0.11925 0.02743
 C73 C 0.31193 0.09786 0.03171
 C74 C 0.31550 0.06057 0.01078
 H75 H 0.35406 0.15019 0.03931
 H76 H 0.29307 0.03675 0.00625
 H77 H 0.42471 0.03851 -0.00640
 H78 H 0.40131 0.07292 -0.06586
 N79 N 0.03018 0.84633 0.36819
 N80 N 0.01063 0.88276 0.33899
 C81 C -0.03061 0.87946 0.32961
 C82 C -0.03662 0.83840 0.35346
 C83 C 0.00215 0.81829 0.37801
 H84 H -0.05439 0.90600 0.30971
 H85 H 0.00909 0.78763 0.40399
 Cu86 Cu 0.04059 0.93268 0.31954
 Cu87 Cu 0.08938 0.84155 0.39734
 Cu88 Cu 0.12439 0.94556 0.39847
 N89 N 0.07393 0.98142 0.30651
 N90 N 0.10753 0.98545 0.33744
 C91 C 0.12721 1.01879 0.31895
 C92 C 0.10435 1.03674 0.27453
 C93 C 0.07068 1.01255 0.26722
 H94 H 0.15651 1.02825 0.33601
 H95 H 0.04722 1.01559 0.23516
 N96 N 0.15003 0.89193 0.44506
 N97 N 0.13928 0.85131 0.44205
 C98 C 0.16473 0.82109 0.47660
 C99 C 0.19192 0.84441 0.50263
 C100 C 0.18199 0.88910 0.48205
 H101 H 0.16249 0.78537 0.48333
 H102 H 0.19733 0.91718 0.49249
 H103 H 0.07523 0.90656 0.40192
 H104 H 0.11036 0.89728 0.36030
 C105 C 0.15102 0.24314 0.08924
 C106 C 0.18222 0.20927 0.08735
 C107 C 0.18067 0.16525 0.10797
 C108 C 0.14838 0.15471 0.13132
 C109 C 0.11713 0.18799 0.13263
 C110 C 0.11851 0.23255 0.11148
 C111 C 0.14503 0.28884 0.07304
 N112 N 0.10987 0.30585 0.08494
 C113 C 0.09322 0.27203 0.10843
 C114 C 0.09088 0.16832 0.15920
 N115 N 0.10624 0.12449 0.17449
 C116 C 0.14124 0.11563 0.15780
 C117 C 0.21395 0.13928 0.09952
 N118 N 0.23551 0.16675 0.07455
 C119 C 0.21688 0.20956 0.06720
 H120 H 0.16474 0.30835 0.05427
 H121 H 0.06519 0.27595 0.12245
 H122 H 0.06422 0.18501 0.16902
 H123 H 0.16070 0.08360 0.16578
 H124 H 0.22152 0.10319 0.10994
 H125 H 0.22699 0.23829 0.04735
 C126 C 0.37078 0.78108 0.67266
 C127 C 0.33006 0.80266 0.65516
 C128 C 0.31290 0.83229 0.67995
 C129 C 0.33591 0.84011 0.72277
 C130 C 0.37609 0.81862 0.74017
 C131 C 0.39347 0.78858 0.71523
 C132 C 0.39681 0.75416 0.65392
 N133 N 0.43414 0.74480 0.68467
 C134 C 0.43262 0.76524 0.72230
 C135 C 0.39262 0.83635 0.77923
 N136 N 0.36307 0.86743 0.78584
 C137 C 0.32829 0.86996 0.75194
 C138 C 0.27516 0.85216 0.65242
 N139 N 0.26885 0.83452 0.61234
 C140 C 0.30201 0.80430 0.61325
 H141 H 0.38952 0.74285 0.62033
 H142 H 0.45855 0.76464 0.75144
 H143 H 0.42408 0.82861 0.80008
 H144 H 0.30056 0.89354 0.74742
 H145 H 0.25453 0.87860 0.66002
 H146 H 0.30639 0.78699 0.58456
 C147 C 0.83892 0.72282 0.36402
 C148 C 0.81009 0.69243 0.37145
 C149 C 0.80871 0.65543 0.34910
 C150 C 0.83561 0.64895 0.31826
 C151 C 0.86465 0.67862 0.31132
 C152 C 0.86640 0.71584 0.33453
 C153 C 0.84686 0.76155 0.38119
 N154 N 0.87851 0.77795 0.36310
 C155 C 0.89095 0.75056 0.33452
 C156 C 0.88603 0.66419 0.27903
 N157 N 0.86982 0.62740 0.26594
 C158 C 0.83920 0.61755 0.28964
 C159 C 0.77936 0.63047 0.36478
 N160 N 0.76292 0.65195 0.39549
 C161 C 0.78117 0.68992 0.39986
 H162 H 0.83103 0.77669 0.40517
 H163 H 0.91559 0.75571 0.31512
 H164 H 0.91025 0.68012 0.26476
 H165 H 0.82053 0.59016 0.28564
 H166 H 0.77125 0.59869 0.35554
 H167 H 0.77510 0.71279 0.42338
 C168 C 0.63904 0.25693 -0.11950
 C169 C 0.66505 0.28933 -0.10730
 C170 C 0.67091 0.32368 -0.14187
 C171 C 0.65158 0.32533 -0.18927
 C172 C 0.62698 0.29236 -0.20151
 C173 C 0.62058 0.25805 -0.16644
 C174 C 0.62390 0.22311 -0.09274
 N175 N 0.59722 0.20375 -0.12264
 C176 C 0.59517 0.22428 -0.16766
 C177 C 0.61144 0.30284 -0.24951
 N178 N 0.62580 0.34133 -0.26624
 C179 C 0.65037 0.35559 -0.23003
 C180 C 0.69744 0.35028 -0.11983
 N181 N 0.70806 0.33214 -0.07317
 C182 C 0.68868 0.29501 -0.06494
 H183 H 0.63023 0.21457 -0.05454
 H184 H 0.57454 0.21720 -0.19844
 H185 H 0.59046 0.28461 -0.27055
 H186 H 0.66559 0.38587 -0.23306
 H187 H 0.70946 0.37935 -0.13656
 H188 H 0.69225 0.27342 -0.03092
 N189 N 0.06028 0.36484 0.08301
 N190 N 0.09409 0.35163 0.07455
 N191 N 0.47675 0.71971 0.63675
 N192 N 0.46974 0.71971 0.67801
 N193 N 0.92795 0.82737 0.36278
 N194 N 0.89482 0.81749 0.37297
 N195 N 0.55685 0.17244 -0.07174
 N196 N 0.57073 0.17241 -0.10945
 N197 N 0.11735 0.06882 0.24085
 N198 N 0.09154 0.09479 0.20768
 N199 N 0.62114 0.40265 -0.32494
 N200 N 0.61497 0.36333 -0.31355
 N201 N 0.40465 0.90361 0.83838
 N202 N 0.36844 0.89637 0.81895
 N203 N 0.85456 0.58513 0.20670
 N204 N 0.88116 0.60489 0.23099
 N205 N 0.27717 0.11251 0.05057
 N206 N 0.26989 0.15307 0.05592
 N207 N 0.71319 0.66053 0.44133
 N208 N 0.73482 0.63478 0.42228
 N209 N 0.74478 0.38702 -0.04272
 N210 N 0.73809 0.34608 -0.03934
 N211 N 0.22375 0.82608 0.54320
 N212 N 0.23597 0.85045 0.57353
   
