data_POSCAR
  _audit_creation_date              2014-09-24
  _audit_creation_method            'ToBaCCo'
  _symmetry_space_group_name_H-M    'P1'
  _symmetry_Int_Tables_number       1
  _symmetry_cell_setting            triclinic
  loop_
  _symmetry_equiv_pos_as_xyz
 x,y,z
_cell_length_a 47.8677
_cell_length_b 49.8169
_cell_length_c 44.2209
_cell_angle_alpha 86.684300
_cell_angle_beta 89.975500
_cell_angle_gamma 87.376700
loop_
  _atom_site_label
  _atom_site_type_symbol
  _atom_site_fract_x
  _atom_site_fract_y
  _atom_site_fract_z
N1 N 0.18124 1.24358 0.16769
 N2 N 0.16093 1.23992 0.18731
 C3 C 0.14190 1.26063 0.18380
 C4 C 0.15070 1.27810 0.16072
 C5 C 0.17582 1.26668 0.15097
 H6 H 0.12290 1.26281 0.19686
 H7 H 0.18913 1.27435 0.13303
 Cu8 Cu 0.16102 1.20836 0.21537
 Cu9 Cu 0.21292 1.21792 0.16497
 Cu10 Cu 0.21481 1.16237 0.21601
 N11 N 0.16293 1.17743 0.24437
 N12 N 0.18410 1.15965 0.24471
 C13 C 0.18011 1.14045 0.26678
 C14 C 0.15510 1.14650 0.28102
 C15 C 0.14472 1.17017 0.26625
 H16 H 0.19423 1.12323 0.27198
 H17 H 0.12540 1.18124 0.27089
 N18 N 0.24393 1.16861 0.18524
 N19 N 0.24322 1.18975 0.16578
 C20 C 0.26540 1.18779 0.14713
 C21 C 0.28069 1.16432 0.15518
 C22 C 0.26654 1.15264 0.17946
 H23 H 0.26987 1.20205 0.12860
 H24 H 0.27196 1.13371 0.19166
 H25 H 0.19287 1.18445 0.18198
 H26 H 0.21167 1.20393 0.20986
 N27 N 0.83896 0.74754 0.15804
 N28 N 0.86054 0.75268 0.17478
 C29 C 0.88089 0.73352 0.17154
 C30 C 0.87162 0.71549 0.15166
 C31 C 0.84487 0.72496 0.14350
 H32 H 0.90111 0.73289 0.18252
 H33 H 0.83086 0.71637 0.12792
 Cu34 Cu 0.86056 0.78425 0.19850
 Cu35 Cu 0.80534 0.77109 0.15568
 Cu36 Cu 0.80115 0.82229 0.20547
 N37 N 0.85613 0.80990 0.22973
 N38 N 0.83292 0.82467 0.23263
 C39 C 0.83593 0.84095 0.25560
 C40 C 0.86256 0.83604 0.26762
 C41 C 0.87470 0.81620 0.25071
 H42 H 0.82009 0.85545 0.26260
 H43 H 0.89562 0.80721 0.25332
 N44 N 0.77139 0.81648 0.17599
 N45 N 0.77316 0.79710 0.15685
 C46 C 0.75064 0.79932 0.13848
 C47 C 0.73391 0.82104 0.14646
 C48 C 0.74763 0.83150 0.17036
 H49 H 0.74696 0.78656 0.12005
 H50 H 0.74134 0.84926 0.18204
 H51 H 0.82193 0.80621 0.16925
 H52 H 0.81004 0.78187 0.19992
 N53 N 0.80571 1.25321 -0.14851
 N54 N 0.82399 1.25400 -0.17071
 C55 C 0.84074 1.27466 -0.16729
 C56 C 0.83241 1.28736 -0.14153
 C57 C 0.81019 1.27325 -0.13023
 H58 H 0.85803 1.27965 -0.18196
 H59 H 0.79846 1.27709 -0.10991
 Cu60 Cu 0.82468 1.22690 -0.20071
 Cu61 Cu 0.77795 1.22586 -0.14423
 Cu62 Cu 0.77905 1.17758 -0.19778
 N63 N 0.82532 1.19982 -0.23072
 N64 N 0.80757 1.18040 -0.22920
 C65 C 0.81296 1.16390 -0.25177
 C66 C 0.83535 1.17354 -0.26831
 C67 C 0.84258 1.19637 -0.25439
 H68 H 0.80151 1.14621 -0.25559
 H69 H 0.85947 1.20919 -0.26084
 N70 N 0.75186 1.17828 -0.16422
 N71 N 0.75157 1.19662 -0.14380
 C72 C 0.73101 1.19158 -0.12376
 C73 C 0.71772 1.16911 -0.13194
 C74 C 0.73142 1.16114 -0.15770
 H75 H 0.72602 1.20330 -0.10449
 H76 H 0.72702 1.14404 -0.17059
 H77 H 0.80089 1.19623 -0.16545
 H78 H 0.77599 1.21794 -0.18959
 N79 N 0.20226 0.75391 -0.16474
 N80 N 0.18124 0.75807 -0.18381
 C81 C 0.16474 0.73683 -0.18134
 C82 C 0.17620 0.71844 -0.15960
 C83 C 0.19997 0.72989 -0.14964
 H84 H 0.14576 0.73502 -0.19416
 H85 H 0.21422 0.72155 -0.13220
 Cu86 Cu 0.17728 0.79105 -0.20963
 Cu87 Cu 0.23026 0.78040 -0.15967
 Cu88 Cu 0.22249 0.84026 -0.20336
 N89 N 0.17316 0.82493 -0.23380
 N90 N 0.19085 0.84409 -0.23112
 C91 C 0.18326 0.86521 -0.25016
 C92 C 0.15958 0.85900 -0.26563
 C93 C 0.15367 0.83323 -0.25471
 H94 H 0.19417 0.88375 -0.25261
 H95 H 0.13653 0.82143 -0.26132
 N96 N 0.25321 0.83262 -0.17405
 N97 N 0.25635 0.80968 -0.15767
 C98 C 0.27899 0.81064 -0.13974
 C99 C 0.29055 0.83533 -0.14502
 C100 C 0.27372 0.84880 -0.16693
 H101 H 0.28637 0.79475 -0.12361
 H102 H 0.27609 0.86891 -0.17681
 H103 H 0.20433 0.81344 -0.17258
 H104 H 0.22676 0.79881 -0.20263
 C105 C 0.54194 1.03147 -0.00178
 H106 H 0.54211 1.03079 0.02272
 C107 C 0.56085 1.04713 -0.01813
 H108 H 0.57561 1.05816 -0.00579
 C109 C 0.52356 1.01622 -0.04715
 H110 H 0.50953 1.00359 -0.05835
 C111 C 0.54219 1.03151 -0.06439
 H112 H 0.54207 1.03079 -0.08883
 N113 N 0.52366 1.01660 -0.01641
 C114 C 0.45925 1.00082 0.05122
 H115 H 0.45982 0.97907 0.05150
 C116 C 0.44022 1.01442 0.06946
 H117 H 0.42622 1.00298 0.08390
 C118 C 0.47649 1.04210 0.03154
 H119 H 0.49042 1.05280 0.01642
 C120 C 0.45763 1.05655 0.04930
 H121 H 0.45791 1.07827 0.04811
 Zn122 Zn 0.50056 0.99423 0.00776
 N123 N 0.47698 1.01473 0.03289
 C124 C 0.52558 0.97103 0.06204
 N125 N 0.52468 0.97030 0.03138
 C126 C 0.54261 0.95383 0.01641
 C127 C 0.56224 0.93690 0.03232
 C128 C 0.54502 0.95460 0.07887
 C129 C 0.45840 0.99030 -0.03480
 C130 C 0.43917 0.97791 -0.05241
 C131 C 0.45769 0.93465 -0.03210
 C132 C 0.47672 0.94796 -0.01500
 N133 N 0.47679 0.97528 -0.01673
 H134 H 0.51172 0.98481 0.07348
 H135 H 0.54187 0.95415 -0.00806
 H136 H 0.57629 0.92457 0.01930
 H137 H 0.54552 0.95577 0.10326
 H138 H 0.45858 1.01203 -0.03533
 H139 H 0.42473 0.99041 -0.06659
 H140 H 0.45844 0.91294 -0.02998
 H141 H 0.49106 0.93639 0.00006
 C142 C 0.43897 1.04262 0.06838
 C143 C 0.56106 1.04732 -0.04994
 C144 C 0.43833 0.94969 -0.05113
 C145 C 0.56380 0.93718 0.06416
 C146 C -0.00210 0.53880 1.01581
 H147 H 0.02049 0.53915 1.01567
 C148 C -0.01775 0.55694 1.03269
 H149 H -0.00677 0.57124 1.04517
 C150 C -0.04344 0.52070 0.99773
 H151 H -0.05343 0.50711 0.98341
 C152 C -0.05991 0.53848 1.01427
 H153 H -0.08249 0.53810 1.01284
 N154 N -0.01507 0.52110 0.99889
 C155 C 0.05050 0.45991 0.98318
 H156 H 0.05020 0.46087 0.95868
 C157 C 0.06885 0.44165 0.99901
 H158 H 0.08278 0.42857 0.98654
 C159 C 0.03223 0.47549 1.02915
 H160 H 0.01767 0.48852 1.04077
 C161 C 0.05007 0.45726 1.04593
 H162 H 0.04946 0.45697 1.07040
 Zn163 Zn 0.00780 0.49924 0.97444
 N164 N 0.03281 0.47648 0.99835
 C165 C 0.05597 0.52396 0.95072
 N166 N 0.02775 0.52287 0.94828
 C167 C 0.01283 0.54034 0.92909
 C168 C 0.02631 0.55995 0.91142
 C169 C 0.07031 0.54330 0.93360
 C170 C -0.02930 0.45863 0.96940
 C171 C -0.04547 0.44030 0.95546
 C172 C -0.02949 0.45823 0.90687
 C173 C -0.01381 0.47643 0.92184
 N174 N -0.01420 0.47642 0.95257
 H175 H 0.06740 0.51037 0.96667
 H176 H -0.00968 0.53937 0.92801
 H177 H 0.01386 0.57385 0.89658
 H178 H 0.09267 0.54339 0.93661
 H179 H -0.02863 0.45864 0.99386
 H180 H -0.05670 0.42637 0.96996
 H181 H -0.02879 0.45853 0.88236
 H182 H -0.00102 0.49023 0.90890
 C183 C 0.06852 0.43988 1.03074
 C184 C -0.04714 0.55689 1.03205
 C185 C -0.04585 0.43989 0.92358
 C186 C 0.05542 0.56205 0.91381
 C187 C 1.01002 -0.00724 0.55080
 H188 H 1.00991 0.01447 0.55117
 C189 C 1.02620 -0.02322 0.57175
 H190 H 1.03816 -0.01342 0.58829
 C191 C 0.99299 -0.04598 0.52970
 H192 H 0.97951 -0.05480 0.51381
 C193 C 1.00881 -0.06271 0.55026
 H194 H 1.00764 -0.08434 0.54967
 N195 N 0.99407 -0.01876 0.53015
 C196 C 0.97997 0.04487 0.45919
 H197 H 0.95735 0.04563 0.45851
 C198 C 0.99478 0.06182 0.43948
 H199 H 0.98342 0.07570 0.42365
 C200 C 1.02221 0.02549 0.48038
 H201 H 1.03279 0.01107 0.49613
 C202 C 1.03789 0.04199 0.46091
 H203 H 1.06045 0.04044 0.46256
 Zn204 Zn 0.97154 0.00442 0.50381
 N205 N 0.99377 0.02731 0.47926
 C206 C 0.95009 0.05191 0.52964
 N207 N 0.94753 0.02492 0.52855
 C208 C 0.92938 0.01162 0.54693
 C209 C 0.91275 0.02553 0.56733
 C210 C 0.93405 0.06662 0.54986
 C211 C 0.96655 -0.03095 0.45814
 C212 C 0.95353 -0.04615 0.43720
 C213 C 0.90878 -0.02895 0.45480
 C214 C 0.92275 -0.01422 0.47561
 N215 N 0.95114 -0.01573 0.47711
 H216 H 0.96513 0.06205 0.51537
 H217 H 0.92816 -0.00995 0.54605
 H218 H 0.89858 0.01439 0.58187
 H219 H 0.93690 0.08798 0.54984
 H220 H 0.98914 -0.03124 0.45933
 H221 H 0.96684 -0.05765 0.42255
 H222 H 0.88613 -0.02743 0.45402
 H223 H 0.91087 -0.00138 0.49026
 C224 C 1.02409 0.06034 0.43994
 C225 C 1.02584 -0.05142 0.57150
 C226 C 0.92408 -0.04545 0.43532
 C227 C 0.91517 0.05339 0.56947
 C228 C 0.13634 0.30173 1.14991
 C229 C 0.14589 0.31815 1.12580
 C230 C 0.12957 0.34210 1.11359
 N231 N 0.13839 0.35578 1.08821
 N232 N 0.12341 0.37697 1.07625
 C233 C 0.09908 0.38533 1.08928
 N234 N 0.09041 0.37183 1.11486
 N235 N 0.10535 0.35059 1.12678
 C236 C 0.08168 0.40795 1.07558
 C237 C 0.08748 0.41964 1.04696
 H238 H 0.16540 0.31301 1.11471
 H239 H 0.06288 0.41409 1.08740
 H240 H 0.11662 0.30709 1.16053
 H241 H 0.10543 0.41190 1.03471
 C242 C -0.11209 0.69211 1.14102
 C243 C -0.12243 0.67539 1.11985
 C244 C -0.10524 0.65318 1.10789
 N245 N -0.11576 0.63827 1.08622
 N246 N -0.10018 0.61858 1.07459
 C247 C -0.07348 0.61304 1.08423
 N248 N -0.06300 0.62788 1.10599
 N249 N -0.07858 0.64758 1.11762
 C250 C -0.05561 0.59201 1.07090
 C251 C -0.06512 0.57656 1.04797
 H252 H -0.14347 0.67899 1.11113
 H253 H -0.03447 0.58899 1.07936
 H254 H -0.09102 0.68843 1.14967
 H255 H -0.08689 0.57899 1.04125
 C256 C -0.15513 0.30997 0.87271
 C257 C -0.13338 0.32423 0.85962
 C258 C -0.12012 0.34556 0.87541
 N259 N -0.10004 0.36008 0.86140
 N260 N -0.08749 0.37904 0.87577
 C261 C -0.09455 0.38410 0.90472
 N262 N -0.11463 0.36959 0.91869
 N263 N -0.12721 0.35072 0.90431
 C264 C -0.08040 0.40423 0.92151
 C265 C -0.06123 0.42158 0.90794
 H266 H -0.12564 0.31954 0.83744
 H267 H -0.08594 0.40527 0.94509
 H268 H -0.16332 0.31531 0.89451
 H269 H -0.05835 0.42110 0.88365
 C270 C 0.16561 0.69256 0.85201
 C271 C 0.13963 0.68366 0.84384
 C272 C 0.12870 0.65859 0.85742
 N273 N 0.10205 0.65217 0.85166
 N274 N 0.09167 0.62994 0.86457
 C275 C 0.10761 0.61325 0.88365
 N276 N 0.13433 0.61955 0.88917
 N277 N 0.14468 0.64180 0.87633
 C278 C 0.09631 0.58913 0.89911
 C279 C 0.06807 0.58321 0.89715
 H280 H 0.12642 0.69582 0.82805
 H281 H 0.11073 0.57689 0.91337
 H282 H 0.17842 0.68061 0.86840
 H283 H 0.05474 0.59657 0.88261
 C284 C 1.14332 0.13122 0.30482
 C285 C 1.11757 0.13823 0.31771
 C286 C 1.10485 0.12142 0.34196
 N287 N 1.07911 0.12857 0.35248
 N288 N 1.06699 0.11335 0.37401
 C289 C 1.08018 0.09042 0.38588
 N290 N 1.10600 0.08334 0.37549
 N291 N 1.11812 0.09854 0.35392
 C292 C 1.06673 0.07306 0.40914
 C293 C 1.03923 0.07828 0.41840
 H294 H 1.10587 0.15630 0.30955
 H295 H 1.07838 0.05519 0.41788
 H296 H 1.15468 0.11299 0.31321
 H297 H 1.02754 0.09549 0.40790
 C298 C 1.14535 -0.12417 0.71261
 C299 C 1.12166 -0.13163 0.69733
 C300 C 1.10702 -0.11341 0.67455
 N301 N 1.08445 -0.12178 0.65980
 N302 N 1.07092 -0.10547 0.63920
 C303 C 1.07947 -0.08017 0.63259
 N304 N 1.10202 -0.07180 0.64739
 N305 N 1.11556 -0.08810 0.66797
 C306 C 1.06458 -0.06175 0.61019
 C307 C 1.04184 -0.06960 0.59359
 H308 H 1.11346 -0.15133 0.70199
 H309 H 1.07220 -0.04173 0.60652
 H310 H 1.15338 -0.10445 0.70739
 H311 H 1.03581 -0.09030 0.59637
 C312 C 0.87563 -0.15165 0.29100
 C313 C 0.86271 -0.13144 0.30742
 C314 C 0.87792 -0.11812 0.33087
 N315 N 0.86465 -0.09904 0.34706
 N316 N 0.87841 -0.08656 0.36796
 C317 C 0.90597 -0.09272 0.37338
 N318 N 0.91919 -0.11180 0.35721
 N319 N 0.90545 -0.12429 0.33639
 C320 C 0.92189 -0.07886 0.39576
 C321 C 0.90944 -0.06006 0.41455
 H322 H 0.84116 -0.12489 0.30290
 H323 H 0.94394 -0.08430 0.39729
 H324 H 0.89706 -0.15818 0.29633
 H325 H 0.88691 -0.05681 0.41326
 C326 C 0.84878 0.16287 0.70674
 C327 C 0.84135 0.13892 0.69460
 C328 C 0.85666 0.12743 0.66915
 N329 N 0.85077 0.10264 0.66040
 N330 N 0.86480 0.09176 0.63776
 C331 C 0.88520 0.10532 0.62297
 N332 N 0.89090 0.13020 0.63156
 N333 N 0.87693 0.14105 0.65424
 C334 C 0.90138 0.09342 0.59835
 C335 C 0.89909 0.06653 0.59138
 H336 H 0.82450 0.12764 0.70448
 H337 H 0.91621 0.10611 0.58689
 H338 H 0.86612 0.17354 0.69688
 H339 H 0.88455 0.05466 0.60467
 C340 C 0.30576 1.15386 0.13959
 C341 C 0.31895 1.12904 0.14805
 C342 C 0.34268 1.11765 0.13110
 N343 N 0.35361 1.09271 0.13941
 N344 N 0.37457 1.08172 0.12384
 C345 C 0.38543 1.09528 0.09936
 N346 N 0.37462 1.12030 0.09115
 N347 N 0.35362 1.13129 0.10672
 C348 C 0.40802 1.08305 0.08137
 C349 C 0.41804 1.05652 0.08739
 H350 H 0.31123 1.11706 0.16719
 H351 H 0.41574 1.09487 0.06213
 H352 H 0.31348 1.16578 0.12037
 H353 H 0.40875 1.04470 0.10578
 C354 C 0.69438 1.15667 -0.11557
 C355 C 0.68124 1.13439 -0.12557
 C356 C 0.65855 1.12174 -0.10830
 N357 N 0.64619 1.10020 -0.11899
 N358 N 0.62596 1.08827 -0.10331
 C359 C 0.61736 1.09743 -0.07634
 N360 N 0.62969 1.11899 -0.06568
 N361 N 0.64989 1.13094 -0.08137
 C362 C 0.59565 1.08405 -0.05825
 C363 C 0.58153 1.06241 -0.06851
 H364 H 0.68782 1.12577 -0.14647
 H365 H 0.59075 1.09166 -0.03637
 H366 H 0.68744 1.16540 -0.09484
 H367 H 0.58536 1.05640 -0.09136
 C368 C 0.31508 0.84486 -0.12944
 C369 C 0.32391 0.87105 -0.13408
 C370 C 0.34754 0.88094 -0.11734
 N371 N 0.35371 0.90724 -0.12093
 N372 N 0.37465 0.91670 -0.10550
 C373 C 0.39028 0.90020 -0.08594
 N374 N 0.38424 0.87385 -0.08251
 N375 N 0.36324 0.86439 -0.09790
 C376 C 0.41309 0.91049 -0.06818
 C377 C 0.41798 0.93801 -0.06852
 H378 H 0.31274 0.88513 -0.14980
 H379 H 0.42521 0.89593 -0.05400
 H380 H 0.32602 0.83097 -0.11329
 H381 H 0.40447 0.95149 -0.08274
 C382 C 0.70840 0.83162 0.13048
 C383 C 0.69186 0.85307 0.14050
 C384 C 0.66798 0.86506 0.12271
 N385 N 0.65152 0.88497 0.13404
 N386 N 0.63044 0.89666 0.11773
 C387 C 0.62508 0.88890 0.08944
 N388 N 0.64152 0.86897 0.07813
 N389 N 0.66254 0.85723 0.09447
 C390 C 0.60272 0.90238 0.07053
 C391 C 0.58384 0.92166 0.08172
 H392 H 0.69672 0.86170 0.16168
 H393 H 0.60156 0.89666 0.04741
 H394 H 0.70283 0.82243 0.10984
 H395 H 0.58483 0.92491 0.10572
   
