data_POSCAR
  _audit_creation_date              2014-09-24
  _audit_creation_method            'ToBaCCo'
  _symmetry_space_group_name_H-M    'P1'
  _symmetry_Int_Tables_number       1
  _symmetry_cell_setting            triclinic
  loop_
  _symmetry_equiv_pos_as_xyz
 x,y,z
_cell_length_a 38.0618
_cell_length_b 38.0666
_cell_length_c 38.1167
_cell_angle_alpha 76.432200
_cell_angle_beta 103.666400
_cell_angle_gamma 105.358300
loop_
  _atom_site_label
  _atom_site_type_symbol
  _atom_site_fract_x
  _atom_site_fract_y
  _atom_site_fract_z
C1 C 0.56923 0.56983 -0.00047
 C2 C 0.57508 0.53418 0.00264
 C3 C 0.54455 0.50377 0.00427
 C4 C 0.50820 0.50873 -0.00016
 C5 C 0.50320 0.54508 -0.00475
 C6 C 0.53359 0.57565 -0.00343
 C7 C 0.47563 0.47613 0.00002
 C8 C 0.44274 0.47770 0.01002
 C9 C 0.41175 0.44783 0.00908
 C10 C 0.41451 0.41497 0.00033
 C11 C 0.44725 0.41211 -0.00857
 C12 C 0.47709 0.44311 -0.00981
 H13 H 0.59268 0.59330 -0.00059
 H14 H 0.54933 0.47615 0.00910
 H15 H 0.47557 0.54982 -0.00947
 H16 H 0.44103 0.50200 0.01897
 H17 H 0.39106 0.39150 0.00045
 H18 H 0.50128 0.44131 -0.01888
 C19 C -0.00328 0.58283 0.42625
 C20 C 0.00048 0.59027 0.46161
 C21 C 0.00268 0.56097 0.49197
 C22 C -0.00132 0.52435 0.48722
 C23 C -0.00694 0.51771 0.45119
 C24 C -0.00632 0.54684 0.42066
 C25 C 0.00072 0.49307 0.51956
 C26 C 0.01214 0.46141 0.51727
 C27 C 0.01243 0.43107 0.54643
 C28 C 0.00339 0.43331 0.57929
 C29 C -0.00673 0.46494 0.58301
 C30 C -0.00880 0.49429 0.55283
 H31 H -0.00381 0.60530 0.40280
 H32 H 0.00780 0.56687 0.51934
 H33 H -0.01169 0.48970 0.44672
 H34 H 0.02122 0.46018 0.49287
 H35 H 0.00426 0.41027 0.60214
 H36 H -0.01847 0.51769 0.55533
 C37 C 0.58337 -0.00435 0.57344
 C38 C 0.54750 -0.00712 0.57884
 C39 C 0.51832 -0.00740 0.54848
 C40 C 0.52481 -0.00194 0.51246
 C41 C 0.56138 0.00171 0.50769
 C42 C 0.59074 -0.00065 0.53808
 C43 C 0.49343 0.00025 0.48020
 C44 C 0.49433 -0.00957 0.44699
 C45 C 0.46484 -0.00752 0.41690
 C46 C 0.43340 0.00291 0.42064
 C47 C 0.43148 0.01225 0.45347
 C48 C 0.46196 0.01195 0.48256
 H49 H 0.60568 -0.00507 0.59707
 H50 H 0.49047 -0.01170 0.55319
 H51 H 0.56719 0.00671 0.48031
 H52 H 0.51758 -0.01948 0.44448
 H53 H 0.41026 0.00377 0.39785
 H54 H 0.46098 0.02122 0.50695
 O55 O 0.46435 -0.00873 -0.06271
 O56 O 0.45699 -0.02191 0.03461
 O57 O 0.45558 0.03296 -0.02106
 O58 O 0.46396 -0.06355 -0.00772
 O59 O 0.52490 -0.04565 0.00679
 O60 O 0.51644 0.05100 -0.00605
 O61 O 0.51793 -0.00433 0.04932
 O62 O 0.52519 0.00945 -0.04752
 Cu63 Cu 0.45407 -0.01697 -0.01567
 Cu64 Cu 0.52721 0.00454 0.00221
 C65 C 0.49622 0.00198 -0.07146
 C66 C 0.48631 -0.01544 0.05851
 C67 C 0.48448 0.05837 -0.01569
 C68 C 0.49587 -0.07094 0.00121
 O69 O -0.04606 0.52561 0.99293
 O70 O 0.05079 0.51728 1.00671
 O71 O -0.00417 0.51881 0.95086
 O72 O 0.00868 0.52585 1.04776
 O73 O -0.00936 0.46501 1.06268
 O74 O -0.02181 0.45790 0.96529
 O75 O 0.03275 0.45643 1.02138
 O76 O -0.06392 0.46470 1.00725
 Cu77 Cu 0.00423 0.52797 0.99803
 Cu78 Cu -0.01726 0.45488 1.01557
 C79 C -0.07136 0.49657 0.99829
 C80 C 0.05819 0.48535 1.01631
 C81 C -0.01514 0.48724 0.94152
 C82 C 0.00115 0.49685 1.07158
 O83 O 0.00094 -0.02672 0.46660
 O84 O 0.01527 0.07116 0.47423
 O85 O 0.05646 0.03014 0.46563
 O86 O -0.04119 0.01493 0.47310
 O87 O -0.02610 0.00010 0.53346
 O88 O 0.07189 0.01496 0.52594
 O89 O 0.03054 0.05584 0.53454
 O90 O 0.01587 -0.04171 0.52696
 Cu91 Cu 0.00627 0.02383 0.46384
 Cu92 Cu 0.02451 0.00570 0.53628
 C93 C 0.00642 -0.05077 0.49551
 C94 C 0.02524 0.08006 0.50581
 C95 C 0.08075 0.02498 0.49438
 C96 C -0.05022 0.00545 0.50454
 C97 C -0.32092 0.52095 1.00155
 N98 N -0.32684 0.55502 0.99946
 N99 N -0.36025 0.55911 1.00037
 C100 C -0.38923 0.52936 1.00339
 N101 N -0.38307 0.49518 1.00573
 N102 N -0.34959 0.49105 1.00488
 C103 C -0.28417 0.51686 0.99966
 N104 N -0.27732 0.48286 1.00308
 N105 N -0.24386 0.47945 1.00127
 C106 C -0.21613 0.50992 0.99580
 N107 N -0.22304 0.54389 0.99229
 N108 N -0.25644 0.54729 0.99418
 C109 C -0.17898 0.50632 0.99465
 N110 N -0.15162 0.53697 0.98854
 N111 N -0.11750 0.53385 0.98888
 C112 C -0.10950 0.49996 0.99533
 N113 N -0.13691 0.46929 1.00120
 N114 N -0.17107 0.47241 1.00079
 C115 C 0.30968 0.45844 1.02472
 N116 N 0.33819 0.48847 1.02128
 N117 N 0.37082 0.48496 1.01714
 C118 C 0.37622 0.45132 1.01619
 N119 N 0.34768 0.42128 1.01993
 N120 N 0.31509 0.42475 1.02418
 C121 C 0.27306 0.46252 1.02717
 N122 N 0.24483 0.43231 1.03136
 N123 N 0.21113 0.43606 1.03180
 C124 C 0.20437 0.47017 1.02794
 N125 N 0.23265 0.50038 1.02398
 N126 N 0.26639 0.49662 1.02364
 C127 C 0.16674 0.47429 1.02658
 N128 N 0.15901 0.50840 1.01923
 N129 N 0.12450 0.51200 1.01641
 C130 C 0.09651 0.48161 1.02091
 N131 N 0.10430 0.44752 1.02852
 N132 N 0.13877 0.44392 1.03126
 C133 C 0.00165 -0.30436 0.47395
 N134 N -0.00156 -0.31209 0.44024
 N135 N -0.00152 -0.34595 0.43644
 C136 C 0.00170 -0.37363 0.46613
 N137 N 0.00507 -0.36570 0.49996
 N138 N 0.00510 -0.33175 0.50380
 C139 C 0.00105 -0.26697 0.47767
 N140 N 0.00569 -0.25816 0.51124
 N141 N 0.00520 -0.22411 0.51427
 C142 C -0.00008 -0.19769 0.48384
 N143 N -0.00481 -0.20657 0.45032
 N144 N -0.00425 -0.24056 0.44730
 C145 C 0.00012 -0.15989 0.48699
 N146 N -0.00582 -0.13387 0.45640
 N147 N -0.00449 -0.09925 0.45911
 C148 C 0.00283 -0.08939 0.49253
 N149 N 0.00857 -0.11546 0.52313
 N150 N 0.00718 -0.15010 0.52042
 C151 C 0.03157 0.33136 0.53397
 N152 N 0.02636 0.35866 0.50442
 N153 N 0.02118 0.39065 0.50849
 C154 C 0.02090 0.39657 0.54222
 N155 N 0.02647 0.36930 0.57176
 N156 N 0.03175 0.33736 0.56774
 C157 C 0.03489 0.29520 0.52941
 N158 N 0.04061 0.26827 0.55919
 N159 N 0.04155 0.23474 0.55513
 C160 C 0.03669 0.22685 0.52114
 N161 N 0.03124 0.25386 0.49134
 N162 N 0.03039 0.28744 0.49541
 C163 C 0.03561 0.18921 0.51684
 N164 N 0.02736 0.18006 0.48301
 N165 N 0.02457 0.14539 0.47937
 C166 C 0.02998 0.11866 0.50945
 N167 N 0.03852 0.12790 0.54323
 N168 N 0.04124 0.16252 0.54686
 C169 C 0.52943 -0.00595 -0.31693
 N170 N 0.56422 -0.00173 -0.32280
 N171 N 0.56981 -0.00285 -0.35566
 C172 C 0.54086 -0.00825 -0.38401
 N173 N 0.50600 -0.01270 -0.37798
 N174 N 0.50037 -0.01166 -0.34506
 C175 C 0.52365 -0.00355 -0.28090
 N176 N 0.48894 -0.00924 -0.27404
 N177 N 0.48400 -0.00678 -0.24129
 C178 C 0.51360 0.00168 -0.21434
 N179 N 0.54825 0.00745 -0.22128
 N180 N 0.55318 0.00489 -0.25394
 C181 C 0.50855 0.00366 -0.17790
 N182 N 0.53852 0.01304 -0.15168
 N183 N 0.53439 0.01339 -0.11806
 C184 C 0.50013 0.00441 -0.10939
 N185 N 0.47007 -0.00470 -0.13568
 N186 N 0.47420 -0.00499 -0.16938
 C187 C 0.47074 -0.02532 0.31404
 N188 N 0.43781 -0.02536 0.32192
 N189 N 0.43591 -0.02049 0.35482
 C190 C 0.46683 -0.01550 0.38125
 N191 N 0.49974 -0.01599 0.37346
 N192 N 0.50167 -0.02073 0.34046
 C193 C 0.47298 -0.02807 0.27687
 N194 N 0.50630 -0.02350 0.26733
 N195 N 0.50832 -0.02375 0.23295
 C196 C 0.47709 -0.02864 0.20691
 N197 N 0.44376 -0.03358 0.21656
 N198 N 0.44175 -0.03324 0.25089
 C199 C 0.47942 -0.02689 0.16861
 N200 N 0.44816 -0.03236 0.14268
 N201 N 0.45029 -0.02920 0.10764
 C202 C 0.48377 -0.02032 0.09725
 N203 N 0.51501 -0.01502 0.12319
 N204 N 0.51288 -0.01827 0.15823
 C205 C 0.52035 -0.32029 -0.00267
 N206 N 0.55441 -0.32617 -0.00073
 N207 N 0.55850 -0.35960 -0.00155
 C208 C 0.52876 -0.38864 -0.00432
 N209 N 0.49459 -0.38251 -0.00652
 N210 N 0.49045 -0.34901 -0.00577
 C211 C 0.51626 -0.28352 -0.00083
 N212 N 0.48225 -0.27673 -0.00413
 N213 N 0.47884 -0.24327 -0.00231
 C214 C 0.50931 -0.21550 0.00305
 N215 N 0.54329 -0.22235 0.00643
 N216 N 0.54669 -0.25574 0.00453
 C217 C 0.50570 -0.17838 0.00428
 N218 N 0.53636 -0.15101 0.01044
 N219 N 0.53321 -0.11694 0.01025
 C220 C 0.49929 -0.10900 0.00391
 N221 N 0.46862 -0.13643 -0.00202
 N222 N 0.47176 -0.17053 -0.00176
 C223 C 0.45765 0.30981 -0.02382
 N224 N 0.48770 0.33835 -0.02058
 N225 N 0.48425 0.37104 -0.01656
 C226 C 0.45065 0.37649 -0.01552
 N227 N 0.42059 0.34792 -0.01906
 N228 N 0.42400 0.31526 -0.02319
 C229 C 0.46169 0.27315 -0.02618
 N230 N 0.43145 0.24491 -0.03027
 N231 N 0.43518 0.21119 -0.03067
 C232 C 0.46928 0.20443 -0.02687
 N233 N 0.49952 0.23272 -0.02300
 N234 N 0.49578 0.26648 -0.02270
 C235 C 0.47339 0.16681 -0.02553
 N236 N 0.50753 0.15910 -0.01819
 N237 N 0.51113 0.12462 -0.01547
 C238 C 0.48072 0.09664 -0.02007
 N239 N 0.44661 0.10441 -0.02765
 N240 N 0.44301 0.13885 -0.03028
 C241 C -0.30399 0.00014 0.52585
 N242 N -0.33139 0.00369 0.49597
 N243 N -0.36532 0.00376 0.49977
 C244 C -0.37321 0.00040 0.53359
 N245 N -0.34552 -0.00294 0.56332
 N246 N -0.31169 -0.00308 0.55956
 C247 C -0.26660 -0.00050 0.52216
 N248 N -0.24017 -0.00583 0.55256
 N249 N -0.20617 -0.00637 0.54957
 C250 C -0.19730 -0.00159 0.51605
 N251 N -0.22373 0.00371 0.48560
 N252 N -0.25781 0.00418 0.48860
 C253 C -0.15946 -0.00130 0.51294
 N254 N -0.14968 0.00581 0.47952
 N255 N -0.11500 0.00733 0.47685
 C256 C -0.08888 0.00167 0.50748
 N257 N -0.09873 -0.00571 0.54088
 N258 N -0.13339 -0.00717 0.54355
 C259 C 0.33211 0.03194 0.46612
 N260 N 0.35946 0.02662 0.49565
 N261 N 0.39136 0.02130 0.49153
 C262 C 0.39714 0.02097 0.45776
 N263 N 0.36982 0.02666 0.42824
 N264 N 0.33798 0.03209 0.43233
 C265 C 0.29599 0.03532 0.47074
 N266 N 0.26901 0.04111 0.44098
 N267 N 0.23549 0.04202 0.44507
 C268 C 0.22766 0.03707 0.47907
 N269 N 0.25472 0.03158 0.50886
 N270 N 0.28830 0.03075 0.50476
 C271 C 0.19000 0.03588 0.48338
 N272 N 0.18089 0.02752 0.51721
 N273 N 0.14618 0.02458 0.52084
 C274 C 0.11938 0.02993 0.49076
 N275 N 0.12859 0.03858 0.45699
 N276 N 0.16324 0.04146 0.45336
 C277 C -0.00624 0.52893 1.31786
 N278 N -0.00413 0.56343 1.32333
 N279 N -0.00485 0.56902 1.35631
 C280 C -0.00763 0.54041 1.38533
 N281 N -0.01006 0.50579 1.37960
 N282 N -0.00945 0.50014 1.34655
 C283 C -0.00419 0.52328 1.28164
 N284 N -0.00840 0.48873 1.27497
 N285 N -0.00619 0.48397 1.24205
 C286 C 0.00054 0.51361 1.21472
 N287 N 0.00482 0.54810 1.22147
 N288 N 0.00248 0.55284 1.25428
 C289 C 0.00244 0.50876 1.17815
 N290 N 0.01097 0.53885 1.15184
 N291 N 0.01141 0.53487 1.11818
 C292 C 0.00333 0.50066 1.10952
 N293 N -0.00498 0.47048 1.13588
 N294 N -0.00532 0.47446 1.16964
 C295 C -0.02362 0.47153 0.68606
 N296 N -0.01892 0.50237 0.65962
 N297 N -0.01446 0.50024 0.62657
 C298 C -0.01438 0.46721 0.61874
 N299 N -0.01945 0.43640 0.64519
 N300 N -0.02404 0.43848 0.67813
 C301 C -0.02623 0.47389 0.72326
 N302 N -0.03164 0.44271 0.74917
 N303 N -0.03204 0.44477 0.78348
 C304 C -0.02691 0.47812 0.79319
 N305 N -0.02175 0.50932 0.76722
 N306 N -0.02145 0.50725 0.73287
 C307 C -0.02542 0.48045 0.83148
 N308 N -0.01684 0.51388 0.84196
 N309 N -0.01395 0.51599 0.87696
 C310 C -0.01960 0.48475 0.90278
 N311 N -0.02843 0.45130 0.89228
 N312 N -0.03123 0.44920 0.85727
   
