data_POSCAR
  _audit_creation_date              2014-09-24
  _audit_creation_method            'ToBaCCo'
  _symmetry_space_group_name_H-M    'P1'
  _symmetry_Int_Tables_number       1
  _symmetry_cell_setting            triclinic
  loop_
  _symmetry_equiv_pos_as_xyz
 x,y,z
_cell_length_a 46.1988
_cell_length_b 35.6544
_cell_length_c 29.1568
_cell_angle_alpha 89.994100
_cell_angle_beta 90.037600
_cell_angle_gamma 90.021100
loop_
  _atom_site_label
  _atom_site_type_symbol
  _atom_site_fract_x
  _atom_site_fract_y
  _atom_site_fract_z
C1 C 0.22722 0.22978 0.22849
 C2 C 0.22740 0.26971 0.22919
 C3 C 0.24970 0.28879 0.25183
 C4 C 0.27201 0.26975 0.27445
 C5 C 0.27220 0.22982 0.27518
 C6 C 0.24971 0.21084 0.25185
 H7 H 0.24971 0.18048 0.25187
 H8 H 0.24970 0.31924 0.25181
 C9 C 0.77241 0.27041 0.22644
 C10 C 0.77249 0.23041 0.22782
 C11 C 0.75025 0.21123 0.25063
 C12 C 0.72770 0.23033 0.27265
 C13 C 0.72751 0.26998 0.27217
 C14 C 0.74966 0.28928 0.24916
 H15 H 0.74894 0.31966 0.24929
 H16 H 0.75045 0.18080 0.25097
 C17 C 0.73016 0.73084 0.72312
 C18 C 0.72786 0.77011 0.72874
 C19 C 0.74894 0.78922 0.75442
 C20 C 0.77312 0.77064 0.77354
 C21 C 0.77510 0.73102 0.76762
 C22 C 0.75397 0.71205 0.74201
 H23 H 0.75538 0.68180 0.73866
 H24 H 0.74698 0.81940 0.75750
 C25 C 0.27162 0.76980 0.72744
 C26 C 0.27161 0.73015 0.72684
 C27 C 0.24904 0.71064 0.74854
 C28 C 0.22621 0.72929 0.77135
 C29 C 0.22674 0.76930 0.77204
 C30 C 0.24924 0.78868 0.75015
 H31 H 0.24920 0.81911 0.75061
 H32 H 0.24958 0.68026 0.74753
 O33 O 1.02858 -0.04775 0.00237
 O34 O 0.97244 0.00863 0.05935
 O35 O 0.97217 -0.04777 0.00249
 O36 O 1.02879 0.00928 0.05798
 O37 O 1.02828 0.04826 -0.00093
 O38 O 0.97178 -0.00869 -0.05631
 O39 O 0.97194 0.04772 0.00055
 O40 O 1.02819 -0.00877 -0.05654
 Cu41 Cu 1.00051 -0.02334 0.03645
 Cu42 Cu 0.99998 0.02354 -0.03423
 C43 C 1.03801 -0.03782 -0.03667
 C44 C 0.96267 0.03779 0.03973
 C45 C 0.96236 -0.03790 -0.03639
 C46 C 1.03819 0.03846 0.03788
 O47 O 0.52870 0.54796 0.49915
 O48 O 0.47208 0.49183 0.44281
 O49 O 0.47238 0.54840 0.49952
 O50 O 0.52846 0.49089 0.44361
 O51 O 0.52808 0.45199 0.50260
 O52 O 0.47209 0.50941 0.55842
 O53 O 0.47170 0.45283 0.50170
 O54 O 0.52843 0.50907 0.55817
 Cu55 Cu 0.50041 0.52366 0.46534
 Cu56 Cu 0.50000 0.47690 0.53613
 C57 C 0.53823 0.53808 0.53818
 C58 C 0.46229 0.46276 0.46259
 C59 C 0.46277 0.53872 0.53858
 C60 C 0.53785 0.46170 0.46369
 O61 O -0.02838 0.54604 -0.00135
 O62 O 0.02779 0.49039 0.05675
 O63 O 0.02792 0.54633 -0.00092
 O64 O -0.02861 0.48969 0.05526
 O65 O -0.02802 0.45011 -0.00304
 O66 O 0.02843 0.50666 -0.05913
 O67 O 0.02839 0.45072 -0.00145
 O68 O -0.02789 0.50647 -0.05967
 Cu69 Cu -0.00034 0.52207 0.03331
 Cu70 Cu 0.00032 0.47449 -0.03665
 C71 C -0.03771 0.53575 -0.04034
 C72 C 0.03763 0.46107 0.03760
 C73 C 0.03769 0.53619 -0.03970
 C74 C -0.03799 0.46033 0.03555
 O75 O 0.47161 1.04812 0.50327
 O76 O 0.52830 0.99110 0.55799
 O77 O 0.52795 1.04802 0.50182
 O78 O 0.47189 0.99066 0.55820
 O79 O 0.47165 0.95214 0.49885
 O80 O 0.52760 1.00939 0.44258
 O81 O 0.52805 0.95248 0.49875
 O82 O 0.47125 1.00960 0.44391
 Cu83 Cu 0.50000 1.02333 0.53629
 Cu84 Cu 0.49964 0.97702 0.46507
 C85 C 0.46175 1.03856 0.46434
 C86 C 0.53780 0.96209 0.53777
 C87 C 0.53724 1.03848 0.46252
 C88 C 0.46217 0.96170 0.53799
 N89 N 1.18502 0.14958 0.18905
 C90 C 1.16527 0.16604 0.16128
 N91 N 1.16622 0.20367 0.15522
 N92 N 1.18619 0.22420 0.17659
 C93 C 1.20595 0.20815 0.20508
 N94 N 1.20495 0.17020 0.21036
 C95 C 1.14336 0.14395 0.13922
 C96 C 1.12485 0.12529 0.12107
 C97 C 1.10274 0.10304 0.09976
 N98 N 1.09178 0.11301 0.05838
 N99 N 1.07117 0.09240 0.03867
 C100 C 1.06083 0.06116 0.05970
 N101 N 1.07186 0.05126 0.10115
 N102 N 1.09247 0.07187 0.12086
 N103 N 0.69395 0.65714 0.65489
 C104 C 0.66559 0.66530 0.66147
 N105 N 0.65836 0.69495 0.68817
 N106 N 0.67886 0.71593 0.70756
 C107 C 0.70732 0.70816 0.70063
 N108 N 0.71445 0.67813 0.67427
 C109 C 0.64351 0.64286 0.64038
 C110 C 0.62491 0.62415 0.62254
 C111 C 0.60276 0.60208 0.60105
 N112 N 0.59217 0.61203 0.55942
 N113 N 0.57158 0.59160 0.53941
 C114 C 0.56088 0.56054 0.56036
 N115 N 0.57152 0.55064 0.60208
 N116 N 0.59212 0.57108 0.62209
 N117 N -0.16609 0.29648 0.15442
 C118 C -0.16570 0.33422 0.15942
 N119 N -0.18600 0.35077 0.18605
 N120 N -0.20594 0.33012 0.20730
 C121 C -0.20637 0.29207 0.20308
 N122 N -0.18606 0.27592 0.17572
 C123 C -0.14377 0.35630 0.13743
 C124 C -0.12519 0.37479 0.11925
 C125 C -0.10295 0.39673 0.09781
 N126 N -0.09187 0.38626 0.05672
 N127 N -0.07112 0.40653 0.03690
 C128 C -0.06074 0.43793 0.05754
 N129 N -0.07188 0.44833 0.09871
 N130 N -0.09263 0.42805 0.11852
 N131 N 0.32485 0.84457 0.70372
 C132 C 0.33485 0.83477 0.66171
 N133 N 0.32396 0.80381 0.64092
 N134 N 0.30383 0.78312 0.66169
 C135 C 0.29404 0.79253 0.70410
 N136 N 0.30474 0.82388 0.72448
 C137 C 0.35685 0.85678 0.63977
 C138 C 0.37544 0.87531 0.62165
 C139 C 0.39764 0.89739 0.60029
 N140 N 0.40823 0.88760 0.55863
 N141 N 0.42886 0.90808 0.53882
 C142 C 0.43960 0.93902 0.56003
 N143 N 0.42895 0.94874 0.60178
 N144 N 0.40832 0.92825 0.62158
 N145 N -0.16626 0.66238 -0.21455
 C146 C -0.16291 0.66332 -0.16836
 N147 N -0.17999 0.68632 -0.14312
 N148 N -0.19968 0.70796 -0.16348
 C149 C -0.20276 0.70755 -0.20981
 N150 N -0.18595 0.68402 -0.23493
 C151 C -0.14138 0.64051 -0.14647
 C152 C -0.12319 0.62163 -0.12789
 C153 C -0.10144 0.59950 -0.10550
 N154 N -0.09114 0.60982 -0.06383
 N155 N -0.07083 0.58944 -0.04306
 C156 C -0.06013 0.55807 -0.06328
 N157 N -0.07049 0.54779 -0.10503
 N158 N -0.09082 0.56818 -0.12581
 N159 N 0.31450 1.14969 0.31444
 C160 C 0.33427 1.16617 0.34216
 N161 N 0.33330 1.20379 0.34828
 N162 N 0.31328 1.22429 0.32699
 C163 C 0.29350 1.20822 0.29853
 N164 N 0.29452 1.17028 0.29321
 C165 C 0.35624 1.14411 0.36408
 C166 C 0.37481 1.12546 0.38207
 C167 C 0.39699 1.10319 0.40316
 N168 N 0.40790 1.11291 0.44466
 N169 N 0.42858 1.09228 0.46415
 C170 C 0.43903 1.06127 0.44278
 N171 N 0.42804 1.05163 0.40120
 N172 N 0.40737 1.07226 0.38172
 N173 N 1.16742 -0.16359 -0.20863
 C174 C 1.16474 -0.16431 -0.16234
 N175 N 1.18260 -0.18662 -0.13744
 N176 N 1.20240 -0.20780 -0.15826
 C177 C 1.20480 -0.20753 -0.20468
 N178 N 1.18720 -0.18475 -0.22946
 C179 C 1.14304 -0.14202 -0.14009
 C180 C 1.12463 -0.12342 -0.12167
 C181 C 1.10256 -0.10142 -0.09989
 N182 N 1.09205 -0.11154 -0.05830
 N183 N 1.07144 -0.09126 -0.03817
 C184 C 1.06063 -0.06020 -0.05901
 N185 N 1.07120 -0.05014 -0.10068
 N186 N 1.09182 -0.07043 -0.12080
 N187 N 0.67378 0.34389 0.29668
 C188 C 0.66440 0.33423 0.33910
 N189 N 0.67583 0.30360 0.35987
 N190 N 0.69590 0.28309 0.33870
 C191 C 0.70508 0.29239 0.29590
 N192 N 0.69382 0.32339 0.27551
 C193 C 0.64255 0.35614 0.36151
 C194 C 0.62409 0.37470 0.37988
 C195 C 0.60206 0.39695 0.40135
 N196 N 0.59124 0.38701 0.44282
 N197 N 0.57074 0.40766 0.46268
 C198 C 0.56036 0.43890 0.44170
 N199 N 0.57123 0.44876 0.40016
 N200 N 0.59174 0.42811 0.38031
 N201 N 0.84141 -0.20158 -0.17325
 C202 C 0.83623 -0.16519 -0.16290
 N203 N 0.81023 -0.15008 -0.17379
 N204 N 0.78998 -0.17085 -0.19413
 C205 C 0.79476 -0.20764 -0.20422
 N206 N 0.82111 -0.22227 -0.19360
 C207 C 0.85804 -0.14295 -0.14077
 C208 C 0.87641 -0.12435 -0.12217
 C209 C 0.89833 -0.10222 -0.10013
 N210 N 0.90896 -0.11245 -0.05861
 N211 N 0.92938 -0.09194 -0.03823
 C212 C 0.93984 -0.06052 -0.05871
 N213 N 0.92913 -0.05036 -0.10029
 N214 N 0.90872 -0.07087 -0.12066
 N215 N 0.30847 0.33748 0.35046
 C216 C 0.33611 0.33626 0.33496
 N217 N 0.34269 0.31355 0.29914
 N218 N 0.32228 0.29242 0.27969
 C219 C 0.29468 0.29315 0.29569
 N220 N 0.28806 0.31637 0.33105
 C221 C 0.35817 0.35841 0.35661
 C222 C 0.37663 0.37690 0.37517
 C223 C 0.39855 0.39884 0.39752
 N224 N 0.40873 0.38863 0.43932
 N225 N 0.42904 0.40902 0.46013
 C226 C 0.43984 0.44032 0.43982
 N227 N 0.42958 0.45046 0.39794
 N228 N 0.40927 0.43007 0.37715
 N229 N 0.15907 0.70260 -0.17104
 C230 C 0.16191 0.66487 -0.16854
 N231 N 0.18581 0.64854 -0.18647
 N232 N 0.20632 0.66938 -0.20599
 C233 C 0.20393 0.70742 -0.20824
 N234 N 0.17963 0.72335 -0.19059
 C235 C 0.14013 0.64254 -0.14651
 C236 C 0.12196 0.62375 -0.12773
 C237 C 0.10044 0.60136 -0.10518
 N238 N 0.09040 0.56955 -0.12511
 N239 N 0.07044 0.54872 -0.10415
 C240 C 0.05987 0.55898 -0.06254
 N241 N 0.06998 0.59085 -0.04267
 N242 N 0.08995 0.61168 -0.06364
 N243 N 0.69074 1.15601 0.33859
 C244 C 0.66256 1.16607 0.33467
 N245 N 0.65561 1.19704 0.31005
 N246 N 0.67626 1.21751 0.29024
 C247 C 0.70458 1.20784 0.29464
 N248 N 0.71138 1.17647 0.31881
 C249 C 0.64041 1.14423 0.35654
 C250 C 0.62198 1.12576 0.37514
 C251 C 0.60019 1.10359 0.39742
 N252 N 0.59013 1.11343 0.43941
 N253 N 0.57005 1.09267 0.46022
 C254 C 0.55939 1.06137 0.43972
 N255 N 0.56952 1.05160 0.39767
 N256 N 0.58959 1.07236 0.37687
 N257 N 0.19106 0.33714 0.15268
 C258 C 0.16339 0.33595 0.16809
 N259 N 0.15676 0.31340 0.20405
 N260 N 0.17715 0.29239 0.22372
 C261 C 0.20477 0.29307 0.20782
 N262 N 0.21144 0.31614 0.17232
 C263 C 0.14135 0.35789 0.14611
 C264 C 0.12291 0.37618 0.12720
 C265 C 0.10105 0.39784 0.10435
 N266 N 0.09101 0.38717 0.06263
 N267 N 0.07078 0.40734 0.04131
 C268 C 0.05994 0.43885 0.06100
 N269 N 0.07005 0.44946 0.10279
 N270 N 0.09028 0.42929 0.12411
 N271 N 0.67245 0.84277 0.70716
 C272 C 0.66386 0.83449 0.66386
 N273 N 0.67621 0.80514 0.64177
 N274 N 0.69645 0.78457 0.66244
 C275 C 0.70490 0.79245 0.70605
 N276 N 0.69268 0.82218 0.72784
 C277 C 0.64202 0.85661 0.64163
 C278 C 0.62366 0.87521 0.62304
 C279 C 0.60177 0.89744 0.60110
 N280 N 0.59123 0.88751 0.55941
 N281 N 0.57085 0.90813 0.53914
 C282 C 0.56033 0.93938 0.55991
 N283 N 0.57094 0.94924 0.60166
 N284 N 0.59131 0.92862 0.62191
 N285 N 0.80924 0.16311 0.15178
 C286 C 0.83679 0.16416 0.16774
 N287 N 0.84322 0.18663 0.20388
 N288 N 0.82275 0.20767 0.22321
 C289 C 0.79523 0.20710 0.20678
 N290 N 0.78876 0.18414 0.17108
 C291 C 0.85892 0.14211 0.14620
 C292 C 0.87740 0.12368 0.12767
 C293 C 0.89928 0.10180 0.10527
 N294 N 0.91001 0.07053 0.12554
 N295 N 0.93023 0.05012 0.10462
 C296 C 0.94039 0.06030 0.06271
 N297 N 0.92959 0.09164 0.04250
 N298 N 0.90937 0.11204 0.06343
 N299 N 0.30911 0.65671 0.66032
 C300 C 0.33727 0.66660 0.66523
 N301 N 0.34402 0.69723 0.69065
 N302 N 0.32320 0.71751 0.71029
 C303 C 0.29491 0.70798 0.70493
 N304 N 0.28831 0.67698 0.67994
 C305 C 0.35957 0.64489 0.64366
 C306 C 0.37808 0.62642 0.62527
 C307 C 0.39990 0.60419 0.60322
 N308 N 0.41030 0.61414 0.56147
 N309 N 0.43035 0.59326 0.54081
 C310 C 0.44064 0.56172 0.56121
 N311 N 0.43018 0.55184 0.60303
 N312 N 0.41013 0.57272 0.62367
   
