data_POSCAR
  _audit_creation_date              2014-09-24
  _audit_creation_method            'ToBaCCo'
  _symmetry_space_group_name_H-M    'P1'
  _symmetry_Int_Tables_number       1
  _symmetry_cell_setting            triclinic
  loop_
  _symmetry_equiv_pos_as_xyz
 x,y,z
_cell_length_a 40.9920
_cell_length_b 40.8606
_cell_length_c 40.8610
_cell_angle_alpha 90.001600
_cell_angle_beta 89.935000
_cell_angle_gamma 89.931000
loop_
  _atom_site_label
  _atom_site_type_symbol
  _atom_site_fract_x
  _atom_site_fract_y
  _atom_site_fract_z
C1 C 0.19020 1.23299 0.19091
 C2 C 0.17597 1.21926 0.21894
 C3 C 0.18969 1.19127 0.23327
 C4 C 0.21771 1.17708 0.21958
 C5 C 0.23195 1.19077 0.19158
 C6 C 0.21823 1.21874 0.17728
 H7 H 0.15402 1.23002 0.22926
 H8 H 0.22814 1.15515 0.23033
 H9 H 0.22905 1.22902 0.15532
 C10 C 0.81021 0.76591 0.19066
 C11 C 0.82402 0.78006 0.21867
 C12 C 0.80986 0.80801 0.23262
 C13 C 0.78184 0.82177 0.21864
 C14 C 0.76800 0.80767 0.19066
 C15 C 0.78216 0.77972 0.17671
 H16 H 0.84598 0.76972 0.22929
 H17 H 0.77115 0.84367 0.22917
 H18 H 0.77165 0.76912 0.15477
 C19 C 0.80941 1.23326 -0.19030
 C20 C 0.78144 1.21937 -0.17627
 C21 C 0.76737 1.19144 -0.19023
 C22 C 0.78121 1.17741 -0.21828
 C23 C 0.80919 1.19124 -0.23237
 C24 C 0.82325 1.21920 -0.21838
 H25 H 0.77092 1.22991 -0.15428
 H26 H 0.77052 1.15551 -0.22876
 H27 H 0.84517 1.22967 -0.22901
 C28 C 0.19077 0.76787 -0.19247
 C29 C 0.17679 0.78206 -0.22034
 C30 C 0.19071 0.81017 -0.23421
 C31 C 0.21870 0.82398 -0.22020
 C32 C 0.23268 0.80978 -0.19232
 C33 C 0.21874 0.78171 -0.17850
 H34 H 0.15487 0.77155 -0.23084
 H35 H 0.22929 0.84598 -0.23058
 H36 H 0.22929 0.77099 -0.15665
 C37 C 0.54979 1.04475 -0.00937
 H38 H 0.55050 1.04453 0.01710
 C39 C 0.57200 1.06380 -0.02691
 H40 H 0.58984 1.07842 -0.01396
 C41 C 0.52634 1.02519 -0.05868
 H42 H 0.50898 1.00960 -0.07097
 C43 C 0.54815 1.04388 -0.07717
 H44 H 0.54733 1.04286 -0.10365
 N45 N 0.52745 1.02608 -0.02538
 C46 C 0.45007 1.00919 0.04593
 H47 H 0.44937 0.98272 0.04574
 C48 C 0.42781 1.02675 0.06496
 H49 H 0.40994 1.01382 0.07960
 C50 C 0.47355 1.05849 0.02631
 H51 H 0.49093 1.07076 0.01070
 C52 C 0.45169 1.07699 0.04498
 H53 H 0.45250 1.10347 0.04392
 Zn54 Zn 0.49996 0.99933 0.00046
 N55 N 0.47244 1.02519 0.02723
 C56 C 0.52631 0.97347 0.05958
 N57 N 0.52745 0.97256 0.02629
 C58 C 0.54984 0.95387 0.01025
 C59 C 0.57208 0.93483 0.02777
 C60 C 0.54815 0.95479 0.07805
 C61 C 0.45016 0.98957 -0.04495
 C62 C 0.42797 0.97206 -0.06401
 C63 C 0.45188 0.92177 -0.04412
 C64 C 0.47367 0.94022 -0.02542
 N65 N 0.47251 0.97352 -0.02629
 H66 H 0.50891 0.98908 0.07189
 H67 H 0.55057 0.95407 -0.01622
 H68 H 0.58996 0.92020 0.01480
 H69 H 0.54731 0.95584 0.10453
 H70 H 0.44941 1.01604 -0.04473
 H71 H 0.41012 0.98504 -0.07864
 H72 H 0.45273 0.89529 -0.04311
 H73 H 0.49104 0.92791 -0.00983
 C74 C 0.42858 1.06095 0.06439
 C75 C 0.57122 1.06328 -0.06111
 C76 C 0.42879 0.93786 -0.06351
 C77 C 0.57128 0.93538 0.06197
 C78 C -0.00936 0.54957 1.04471
 H79 H 0.01702 0.55031 1.04457
 C80 C -0.02695 0.57186 1.06371
 H81 H -0.01412 0.58978 1.07837
 C82 C -0.05841 0.52596 1.02502
 H83 H -0.07058 0.50852 1.00940
 C84 C -0.07694 0.54784 1.04366
 H85 H -0.10333 0.54698 1.04257
 N86 N -0.02523 0.52712 1.02600
 C87 C 0.04598 0.44950 1.00940
 H88 H 0.04591 0.44873 0.98294
 C89 C 0.06489 0.42722 1.02705
 H90 H 0.07956 0.40928 1.01418
 C91 C 0.02618 0.47314 1.05861
 H92 H 0.01054 0.49059 1.07082
 C93 C 0.04473 0.45127 1.07720
 H94 H 0.04355 0.45215 1.10367
 Zn95 Zn 0.00067 0.49951 0.99935
 N96 N 0.02725 0.47195 1.02532
 C97 C 0.05970 0.52590 0.97364
 N98 N 0.02651 0.52705 0.97265
 C99 C 0.01059 0.54947 0.95391
 C100 C 0.02813 0.57175 0.93490
 C101 C 0.07818 0.54777 0.95499
 C102 C -0.04455 0.44950 0.98946
 C103 C -0.06349 0.42724 0.97189
 C104 C -0.04345 0.45117 0.92165
 C105 C -0.02487 0.47304 0.94017
 N106 N -0.02588 0.47191 0.97346
 H107 H 0.07191 0.50847 0.98929
 H108 H -0.01579 0.55021 0.95404
 H109 H 0.01526 0.58966 0.92022
 H110 H 0.10457 0.54692 0.95610
 H111 H -0.04443 0.44879 1.01592
 H112 H -0.07812 0.40935 0.98482
 H113 H -0.04235 0.45201 0.89518
 H114 H -0.00928 0.49045 0.92790
 C115 C 0.06418 0.42807 1.06125
 C116 C -0.06104 0.57103 1.06310
 C117 C -0.06286 0.42804 0.93769
 C118 C 0.06222 0.57093 0.93553
 C119 C 1.04467 -0.00885 0.55017
 H120 H 1.04451 0.01761 0.55094
 C121 C 1.06366 -0.02648 0.57238
 H122 H 1.07830 -0.01360 0.59027
 C123 C 1.02504 -0.05807 0.52656
 H124 H 1.00945 -0.07030 0.50914
 C125 C 1.04367 -0.07665 0.54836
 H126 H 1.04260 -0.10313 0.54748
 N127 N 1.02599 -0.02479 0.52775
 C128 C 1.00927 0.04662 0.45024
 H129 H 0.98288 0.04652 0.44954
 C130 C 1.02681 0.06560 0.42793
 H131 H 1.01393 0.08030 0.41004
 C132 C 1.05837 0.02681 0.47374
 H133 H 1.07058 0.01115 0.49114
 C134 C 1.07685 0.04543 0.45184
 H135 H 1.10324 0.04428 0.45264
 Zn136 Zn 0.99937 0.00117 0.50023
 N137 N 1.02519 0.02786 0.47264
 C138 C 0.97373 0.06037 0.52675
 N139 N 0.97276 0.02708 0.52786
 C140 C 0.95411 0.01111 0.55031
 C141 C 0.93517 0.02869 0.57265
 C142 C 0.95515 0.07891 0.54868
 C143 C 0.98950 -0.04420 0.45021
 C144 C 0.97198 -0.06323 0.42796
 C145 C 0.92191 -0.04320 0.45204
 C146 C 0.94037 -0.02453 0.47388
 N147 N 0.97355 -0.02549 0.47267
 H148 H 0.98930 0.07262 0.50930
 H149 H 0.95425 -0.01536 0.55102
 H150 H 0.92056 0.01577 0.59058
 H151 H 0.95624 0.10538 0.54786
 H152 H 1.01588 -0.04404 0.44942
 H153 H 0.98488 -0.07790 0.41003
 H154 H 0.89552 -0.04213 0.45294
 H155 H 0.92814 -0.00891 0.49134
 C156 C 1.06090 0.06492 0.42869
 C157 C 1.06308 -0.06068 0.57151
 C158 C 0.93789 -0.06265 0.42885
 C159 C 0.93578 0.06289 0.57187
 C160 C 0.17603 0.25929 1.17614
 C161 C 0.16317 0.28220 1.16274
 C162 C 0.14740 0.30905 1.14633
 C163 C 0.15914 0.31996 1.11602
 C164 C 0.14295 0.34507 1.09936
 C165 C 0.11496 0.35938 1.11293
 C166 C 0.10342 0.34872 1.14341
 C167 C 0.11961 0.32360 1.16008
 C168 C 0.09744 0.38414 1.09508
 C169 C 0.08245 0.40442 1.07982
 H170 H 0.18054 0.30880 1.10512
 H171 H 0.15201 0.35304 1.07575
 H172 H 0.08173 0.35953 1.15407
 H173 H 0.11026 0.31527 1.18344
 C174 C -0.17518 0.73964 1.17625
 C175 C -0.16191 0.71675 1.16318
 C176 C -0.14565 0.68993 1.14718
 C177 C -0.11570 0.67849 1.15912
 C178 C -0.09916 0.65341 1.14273
 C179 C -0.11248 0.63966 1.11433
 C180 C -0.14260 0.65085 1.10258
 C181 C -0.15915 0.67594 1.11897
 C182 C -0.09473 0.61493 1.09663
 C183 C -0.07954 0.59466 1.08151
 H184 H -0.10499 0.68922 1.18084
 H185 H -0.07583 0.64502 1.15196
 H186 H -0.15307 0.64048 1.08057
 H187 H -0.18223 0.68468 1.10946
 C188 C -0.17608 0.25952 0.82415
 C189 C -0.16295 0.28241 0.83728
 C190 C -0.14690 0.30923 0.85340
 C191 C -0.11827 0.32247 0.84014
 C192 C -0.10186 0.34754 0.85659
 C193 C -0.11401 0.35947 0.88636
 C194 C -0.14283 0.34647 0.89944
 C195 C -0.15924 0.32140 0.88299
 C196 C -0.09632 0.38418 0.90405
 C197 C -0.08122 0.40443 0.91921
 H198 H -0.10845 0.31315 0.81734
 H199 H -0.07953 0.35733 0.84632
 H200 H -0.15237 0.35543 0.92250
 H201 H -0.18129 0.31126 0.89351
 C202 C 0.17556 0.73997 0.82267
 C203 C 0.16244 0.71701 0.83569
 C204 C 0.14635 0.69009 0.85164
 C205 C 0.11669 0.67827 0.83941
 C206 C 0.10028 0.65312 0.85575
 C207 C 0.11344 0.63967 0.88439
 C208 C 0.14328 0.65124 0.89642
 C209 C 0.15970 0.67640 0.88007
 C210 C 0.09579 0.61489 0.90205
 C211 C 0.08066 0.59459 0.91714
 H212 H 0.10609 0.68877 0.81751
 H213 H 0.07716 0.64444 0.84631
 H214 H 0.15362 0.64110 0.91861
 H215 H 0.18255 0.68544 0.88981
 C216 C 1.17501 0.17708 0.25962
 C217 C 1.16171 0.16420 0.28257
 C218 C 1.14542 0.14840 0.30947
 C219 C 1.15922 0.12061 0.32405
 C220 C 1.14267 0.10438 0.34920
 C221 C 1.11225 0.11587 0.35988
 C222 C 1.09861 0.14386 0.34555
 C223 C 1.11516 0.16010 0.32039
 C224 C 1.09451 0.09830 0.38468
 C225 C 1.07935 0.08325 0.40500
 H226 H 1.18255 0.11129 0.31570
 H227 H 1.15338 0.08269 0.36003
 H228 H 1.07504 0.15288 0.35353
 H229 H 1.10421 0.18149 0.30921
 C230 C 1.17627 -0.17518 0.73959
 C231 C 1.16318 -0.16187 0.71677
 C232 C 1.14715 -0.14556 0.69002
 C233 C 1.15918 -0.11565 0.67840
 C234 C 1.14278 -0.09904 0.65340
 C235 C 1.11429 -0.11228 0.63992
 C236 C 1.10245 -0.14237 0.65130
 C237 C 1.11886 -0.15897 0.67630
 C238 C 1.09660 -0.09447 0.61526
 C239 C 1.08148 -0.07923 0.59507
 H240 H 1.18097 -0.10500 0.68892
 H241 H 1.15207 -0.07574 0.64486
 H242 H 1.08038 -0.15277 0.64113
 H243 H 1.10928 -0.18202 0.68519
 C244 C 0.82496 -0.17659 0.26041
 C245 C 0.83799 -0.16336 0.28329
 C246 C 0.85400 -0.14718 0.31011
 C247 C 0.84097 -0.11821 0.32303
 C248 C 0.85732 -0.10169 0.34809
 C249 C 0.88677 -0.11408 0.36033
 C250 C 0.89961 -0.14324 0.34766
 C251 C 0.88326 -0.15976 0.32260
 C252 C 0.90438 -0.09629 0.38503
 C253 C 0.91948 -0.08111 0.40526
 H254 H 0.81842 -0.10821 0.31347
 H255 H 0.84724 -0.07910 0.35764
 H256 H 0.92243 -0.15297 0.35686
 H257 H 0.89361 -0.18208 0.31270
 C258 C 0.82348 0.17672 0.74124
 C259 C 0.83643 0.16353 0.71824
 C260 C 0.85230 0.14735 0.69128
 C261 C 0.84018 0.11752 0.67959
 C262 C 0.85644 0.10102 0.65439
 C263 C 0.88488 0.11429 0.64078
 C264 C 0.89680 0.14431 0.65223
 C265 C 0.88054 0.16080 0.67743
 C266 C 0.90245 0.09657 0.61593
 C267 C 0.91748 0.08139 0.59559
 H268 H 0.81842 0.10684 0.69021
 H269 H 0.84708 0.07777 0.64580
 H270 H 0.91885 0.15473 0.64196
 H271 H 0.89019 0.18380 0.68637
 C272 C 0.25978 1.17527 0.17666
 C273 C 0.28269 1.16193 0.16379
 C274 C 0.30955 1.14559 0.14801
 C275 C 0.31992 1.11489 0.15921
 C276 C 0.34504 1.09831 0.14297
 C277 C 0.35988 1.11236 0.11546
 C278 C 0.34976 1.14322 0.10447
 C279 C 0.32464 1.15980 0.12071
 C280 C 0.38465 1.09461 0.09785
 C281 C 0.40494 1.07943 0.08277
 H282 H 0.30834 1.10362 0.18022
 H283 H 0.35260 1.07440 0.15160
 H284 H 0.36099 1.15426 0.08315
 H285 H 0.31673 1.18348 0.11177
 C286 C 0.73960 1.17631 -0.17489
 C287 C 0.71673 1.16329 -0.16168
 C288 C 0.68993 1.14734 -0.14548
 C289 C 0.67585 1.11930 -0.15923
 C290 C 0.65079 1.10293 -0.14274
 C291 C 0.63972 1.11453 -0.11242
 C292 C 0.65355 1.14277 -0.09884
 C293 C 0.67860 1.15914 -0.11533
 C294 C 0.61502 1.09684 -0.09472
 C295 C 0.59480 1.08170 -0.07957
 H296 H 0.68450 1.10990 -0.18247
 H297 H 0.64035 1.08105 -0.15340
 H298 H 0.64526 1.15188 -0.07536
 H299 H 0.68940 1.18073 -0.10442
 C300 C 0.26047 0.82489 -0.17704
 C301 C 0.28334 0.83793 -0.16391
 C302 C 0.31015 0.85395 -0.14785
 C303 C 0.32350 0.84055 -0.11928
 C304 C 0.34855 0.85691 -0.10283
 C305 C 0.36035 0.88674 -0.11488
 C306 C 0.34724 0.89996 -0.14365
 C307 C 0.32219 0.88360 -0.16010
 C308 C 0.38503 0.90435 -0.09714
 C309 C 0.40524 0.91944 -0.08197
 H310 H 0.31428 0.81770 -0.10953
 H311 H 0.35843 0.84653 -0.08054
 H312 H 0.35610 0.92308 -0.15312
 H313 H 0.31196 0.89425 -0.18210
 C314 C 0.74015 0.82273 0.17540
 C315 C 0.71722 0.83570 0.16225
 C316 C 0.69033 0.85158 0.14611
 C317 C 0.67616 0.87962 0.15987
 C318 C 0.65103 0.89593 0.14343
 C319 C 0.63996 0.88426 0.11318
 C320 C 0.65388 0.85601 0.09960
 C321 C 0.67901 0.83970 0.11604
 C322 C 0.61519 0.90190 0.09552
 C323 C 0.59491 0.91699 0.08040
 H324 H 0.68481 0.88908 0.18306
 H325 H 0.64052 0.91782 0.15409
 H326 H 0.64559 0.84685 0.07616
 H327 H 0.68987 0.81811 0.10512
   
