data_POSCAR
  _audit_creation_date              2014-09-24
  _audit_creation_method            'ToBaCCo'
  _symmetry_space_group_name_H-M    'P1'
  _symmetry_Int_Tables_number       1
  _symmetry_cell_setting            triclinic
  loop_
  _symmetry_equiv_pos_as_xyz
 x,y,z
_cell_length_a 37.1169
_cell_length_b 37.0079
_cell_length_c 37.4917
_cell_angle_alpha 84.545500
_cell_angle_beta 96.269700
_cell_angle_gamma 95.094300
loop_
  _atom_site_label
  _atom_site_type_symbol
  _atom_site_fract_x
  _atom_site_fract_y
  _atom_site_fract_z
C1 C 0.21407 0.27615 0.28991
 C2 C 0.23888 0.30044 0.26592
 C3 C 0.25852 0.28199 0.24599
 C4 C 0.25185 0.24035 0.25237
 C5 C 0.19084 0.25137 0.26419
 C6 C 0.21053 0.23289 0.24455
 C7 C 0.23936 0.25020 0.31269
 C8 C 0.25976 0.23204 0.29331
 H9 H 0.24071 0.32985 0.26523
 H10 H 0.26731 0.22503 0.23599
 H11 H 0.16144 0.24792 0.26220
 H12 H 0.23974 0.24497 0.34159
 C13 C 0.72096 0.78531 0.27037
 C14 C 0.75061 0.80510 0.24819
 C15 C 0.76782 0.78255 0.23029
 C16 C 0.75436 0.74231 0.23599
 C17 C 0.69592 0.76404 0.24288
 C18 C 0.71325 0.74132 0.22530
 C19 C 0.74082 0.75609 0.29481
 C20 C 0.75837 0.73369 0.27699
 H21 H 0.75663 0.83419 0.24475
 H22 H 0.76845 0.72416 0.22109
 H23 H 0.66675 0.76577 0.23882
 H24 H 0.74243 0.75471 0.32392
 C25 C 0.71681 0.28765 0.78440
 C26 C 0.73856 0.31067 0.75976
 C27 C 0.76059 0.29140 0.74002
 C28 C 0.75553 0.25190 0.74806
 C29 C 0.69416 0.26116 0.75997
 C30 C 0.71413 0.24243 0.74056
 C31 C 0.74363 0.26416 0.80795
 C32 C 0.76398 0.24533 0.78920
 H33 H 0.73800 0.33989 0.75652
 H34 H 0.77150 0.23616 0.73278
 H35 H 0.66478 0.25867 0.75735
 H36 H 0.74565 0.26215 0.83710
 C37 C 0.22111 0.79152 0.77483
 C38 C 0.24954 0.81333 0.75271
 C39 C 0.26907 0.79255 0.73506
 C40 C 0.25788 0.75157 0.74045
 C41 C 0.19765 0.76934 0.74702
 C42 C 0.21667 0.74820 0.72917
 C43 C 0.24237 0.76343 0.79919
 C44 C 0.26159 0.74251 0.78143
 H45 H 0.25187 0.84267 0.74824
 H46 H 0.27353 0.73456 0.72594
 H47 H 0.16838 0.76982 0.74252
 H48 H 0.24285 0.76116 0.82825
 C49 C 0.05826 0.04895 0.00958
 H50 H 0.05628 0.05459 -0.01939
 C51 C 0.07959 0.07268 0.03161
 H52 H 0.09424 0.09655 0.01955
 C53 C 0.04069 0.01161 0.06070
 H54 H 0.02464 -0.01141 0.07217
 C55 C 0.06226 0.03418 0.08366
 H56 H 0.06285 0.02806 0.11254
 N57 N 0.03934 0.01907 0.02434
 C58 C 0.01906 -0.05653 -0.05956
 H59 H -0.01035 -0.05962 -0.06230
 C60 C 0.03843 -0.07562 -0.08045
 H61 H 0.02366 -0.09297 -0.09969
 C62 C 0.07387 -0.02975 -0.03126
 H63 H 0.08755 -0.01227 -0.01167
 C64 C 0.09433 -0.04843 -0.05151
 H65 H 0.12371 -0.04515 -0.04715
 Zn66 Zn 0.00886 -0.00978 -0.00782
 N67 N 0.03693 -0.03388 -0.03583
 C68 C -0.02105 0.02632 -0.07383
 N69 N -0.02095 0.02238 -0.03736
 C70 C -0.04122 0.04275 -0.02019
 C71 C -0.06326 0.06783 -0.03979
 C72 C -0.04273 0.05117 -0.09453
 C73 C -0.00340 -0.07028 0.04195
 C74 C -0.02374 -0.09488 0.06395
 C75 C -0.07856 -0.07140 0.03312
 C76 C -0.05715 -0.04666 0.01231
 N77 N -0.02024 -0.04576 0.01785
 H78 H -0.00405 0.01056 -0.08692
 H79 H -0.04027 0.03936 0.00887
 H80 H -0.07969 0.08325 -0.02558
 H81 H -0.04221 0.05424 -0.12348
 H82 H 0.02596 -0.06967 0.04510
 H83 H -0.01001 -0.11311 0.08425
 H84 H -0.10787 -0.07098 0.02936
 H85 H -0.07010 -0.02781 -0.00778
 C86 C 0.07662 -0.07168 -0.07659
 C87 C 0.08177 0.06525 0.06912
 C88 C -0.06175 -0.09512 0.05994
 C89 C -0.06421 0.07234 -0.07750
 C90 C 0.04372 0.55997 0.50832
 H91 H 0.03013 0.56895 0.48243
 C92 C 0.06597 0.58490 0.52816
 H93 H 0.06949 0.61296 0.51713
 C94 C 0.05600 0.51237 0.55378
 H95 H 0.05160 0.48407 0.56366
 C96 C 0.07835 0.53644 0.57462
 H97 H 0.09074 0.52645 0.60077
 N98 N 0.03878 0.52460 0.52159
 C99 C 0.01407 0.43942 0.44744
 H100 H -0.01532 0.43613 0.44513
 C101 C 0.03319 0.41889 0.42762
 H102 H 0.01826 0.39928 0.41077
 C103 C 0.06906 0.46898 0.47224
 H104 H 0.08298 0.48876 0.48941
 C105 C 0.08923 0.44917 0.45279
 H106 H 0.11854 0.45423 0.45506
 Zn107 Zn 0.00591 0.49216 0.49566
 N108 N 0.03216 0.46378 0.46937
 C109 C -0.02846 0.51903 0.42736
 N110 N -0.02665 0.51996 0.46374
 C111 C -0.04777 0.54145 0.47862
 C112 C -0.07233 0.56248 0.45694
 C113 C -0.05279 0.53965 0.40459
 C114 C -0.02875 0.42585 0.52676
 C115 C -0.05122 0.40547 0.55017
 C116 C -0.05628 0.45992 0.57937
 C117 C -0.03383 0.47919 0.55545
 N118 N -0.02127 0.46229 0.52915
 H119 H -0.01095 0.50252 0.41581
 H120 H -0.04527 0.54276 0.50739
 H121 H -0.08841 0.57977 0.46947
 H122 H -0.05420 0.53818 0.37576
 H123 H -0.01800 0.41251 0.50635
 H124 H -0.05790 0.37679 0.54704
 H125 H -0.06611 0.47405 0.59993
 H126 H -0.02643 0.50780 0.55793
 C127 C 0.07133 0.42363 0.43015
 C128 C 0.08318 0.57340 0.56208
 C129 C -0.06587 0.42270 0.57646
 C130 C -0.07529 0.56160 0.41940
 C131 C 0.54734 0.05927 0.51188
 H132 H 0.52728 0.06880 0.49086
 C133 C 0.56817 0.08447 0.53250
 H134 H 0.56391 0.11307 0.52668
 C135 C 0.57811 0.01089 0.54380
 H136 H 0.58199 -0.01789 0.54791
 C137 C 0.59908 0.03512 0.56562
 H138 H 0.61832 0.02444 0.58695
 N139 N 0.55170 0.02306 0.51857
 C140 C 0.52637 -0.06249 0.44421
 H141 H 0.49734 -0.06769 0.44463
 C142 C 0.54461 -0.08200 0.42267
 H143 H 0.52930 -0.10207 0.40661
 C144 C 0.58131 -0.02901 0.46336
 H145 H 0.59552 -0.00804 0.47889
 C146 C 0.60063 -0.04790 0.44225
 H147 H 0.62971 -0.04171 0.44241
 Zn148 Zn 0.51902 -0.01032 0.49262
 N149 N 0.54486 -0.03667 0.46415
 C150 C 0.48596 0.02246 0.42650
 N151 N 0.48469 0.01653 0.46273
 C152 C 0.45945 0.03110 0.47949
 C153 C 0.43472 0.05346 0.45989
 C154 C 0.46162 0.04476 0.40576
 C155 C 0.50217 -0.04474 0.56103
 C156 C 0.48073 -0.06608 0.58455
 C157 C 0.43933 -0.08291 0.53356
 C158 C 0.46187 -0.06157 0.51091
 N159 N 0.49257 -0.04278 0.52486
 H160 H 0.50647 0.01077 0.41383
 H161 H 0.45908 0.02588 0.50834
 H162 H 0.41498 0.06498 0.47382
 H163 H 0.46363 0.05017 0.37712
 H164 H 0.52592 -0.02919 0.57210
 H165 H 0.48913 -0.06722 0.61319
 H166 H 0.41431 -0.09637 0.52191
 H167 H 0.45390 -0.05869 0.48226
 C168 C 0.58227 -0.07481 0.42151
 C169 C 0.59359 0.07246 0.56072
 C170 C 0.44842 -0.08499 0.57102
 C171 C 0.43598 0.06106 0.42261
 C172 C 0.54577 0.54521 0.00875
 H173 H 0.54338 0.54883 -0.02037
 C174 C 0.56761 0.57029 0.02880
 H175 H 0.58223 0.59318 0.01508
 C176 C 0.52901 0.51142 0.06217
 H177 H 0.51322 0.48918 0.07522
 C178 C 0.55116 0.53540 0.08323
 H179 H 0.55246 0.53116 0.11232
 N180 N 0.52707 0.51641 0.02558
 C181 C 0.50844 0.43552 -0.05347
 H182 H 0.47905 0.43255 -0.05750
 C183 C 0.52886 0.41588 -0.07291
 H184 H 0.51488 0.39825 -0.09231
 C185 C 0.56218 0.46279 -0.02371
 H186 H 0.57508 0.48077 -0.00420
 C187 C 0.58362 0.44350 -0.04233
 H188 H 0.61290 0.44680 -0.03672
 Zn189 Zn 0.49666 0.48544 -0.00458
 N190 N 0.52531 0.45887 -0.02989
 C191 C 0.46621 0.51708 -0.07305
 N192 N 0.46749 0.51629 -0.03657
 C193 C 0.44811 0.53867 -0.02075
 C194 C 0.42539 0.56221 -0.04167
 C195 C 0.44377 0.54032 -0.09509
 C196 C 0.48123 0.42898 0.04958
 C197 C 0.45912 0.40735 0.07248
 C198 C 0.40648 0.43062 0.03718
 C199 C 0.42956 0.45220 0.01545
 N200 N 0.46625 0.45208 0.02274
 H201 H 0.48241 0.49967 -0.08515
 H202 H 0.45016 0.53794 0.00832
 H203 H 0.41029 0.57983 -0.02845
 H204 H 0.44246 0.54012 -0.12407
 H205 H 0.51048 0.42855 0.05420
 H206 H 0.47176 0.39089 0.09501
 H207 H 0.37739 0.43152 0.03096
 H208 H 0.41799 0.46943 -0.00697
 C209 C 0.56704 0.41991 -0.06762
 C210 C 0.57057 0.56532 0.06649
 C211 C 0.42116 0.40874 0.06699
 C212 C 0.42270 0.56302 -0.07938
 C213 C 0.15922 -0.14926 -0.16166
 C214 C 0.19076 -0.13186 -0.17496
 C215 C 0.21095 -0.15084 -0.19541
 C216 C 0.19937 -0.18686 -0.20352
 C217 C 0.16806 -0.20406 -0.18894
 C218 C 0.14777 -0.18536 -0.16831
 C219 C 0.13806 -0.12944 -0.13990
 C220 C 0.10671 -0.14698 -0.12624
 C221 C 0.08672 -0.12801 -0.10554
 C222 C 0.09786 -0.09172 -0.09851
 C223 C 0.12945 -0.07463 -0.11245
 C224 C 0.14969 -0.09339 -0.13305
 C225 C 0.11630 -0.20206 -0.15410
 C226 C 0.09610 -0.18319 -0.13344
 C227 C 0.20164 -0.09580 -0.16739
 C228 C 0.18139 -0.07685 -0.14690
 H229 H 0.10718 -0.22995 -0.15901
 H230 H 0.07199 -0.19706 -0.12301
 H231 H 0.22598 -0.08206 -0.17748
 H232 H 0.19068 -0.04906 -0.14176
 H233 H 0.23594 -0.13747 -0.20409
 H234 H 0.15958 -0.23216 -0.19358
 H235 H 0.06281 -0.14165 -0.09449
 H236 H 0.13803 -0.04660 -0.10764
 C237 C 0.15330 0.34045 0.34965
 C238 C 0.18645 0.32813 0.36559
 C239 C 0.20626 0.30780 0.34605
 C240 C 0.19261 0.29850 0.31113
 C241 C 0.15993 0.31258 0.29511
 C242 C 0.14000 0.33315 0.31437
 C243 C 0.13234 0.36181 0.37016
 C244 C 0.09935 0.37449 0.35409
 C245 C 0.07948 0.39471 0.37376
 C246 C 0.09237 0.40216 0.40933
 C247 C 0.12560 0.38918 0.42493
 C248 C 0.14575 0.36915 0.40542
 C249 C 0.10698 0.34652 0.29909
 C250 C 0.08698 0.36681 0.31862
 C251 C 0.19916 0.33632 0.40083
 C252 C 0.17907 0.35635 0.42047
 H253 H 0.09642 0.34114 0.27184
 H254 H 0.06161 0.37652 0.30585
 H255 H 0.22475 0.32697 0.41344
 H256 H 0.18975 0.36191 0.44764
 H257 H 0.23244 0.29967 0.35813
 H258 H 0.14999 0.30770 0.26761
 H259 H 0.05429 0.40503 0.36124
 H260 H 0.13558 0.39429 0.45239
 C261 C 0.66088 -0.15350 0.33379
 C262 C 0.68855 -0.13491 0.31495
 C263 C 0.70811 -0.15423 0.29416
 C264 C 0.70006 -0.19207 0.29187
 C265 C 0.67207 -0.21008 0.31117
 C266 C 0.65245 -0.19102 0.33208
 C267 C 0.64055 -0.13333 0.35600
 C268 C 0.61305 -0.15201 0.37508
 C269 C 0.59399 -0.13275 0.39638
 C270 C 0.60228 -0.09506 0.39867
 C271 C 0.62988 -0.07679 0.37919
 C272 C 0.64914 -0.09581 0.35789
 C273 C 0.62470 -0.20879 0.35148
 C274 C 0.60533 -0.18961 0.37263
 C275 C 0.69630 -0.09730 0.31744
 C276 C 0.67690 -0.07808 0.33850
 H277 H 0.61795 -0.23778 0.35037
 H278 H 0.58419 -0.20435 0.38722
 H279 H 0.71759 -0.08259 0.30302
 H280 H 0.68378 -0.04912 0.33971
 H281 H 0.72960 -0.13938 0.28047
 H282 H 0.66580 -0.23915 0.31000
 H283 H 0.57314 -0.14716 0.41160
 H284 H 0.63613 -0.04773 0.38032
 C285 C 0.65369 0.34372 -0.15012
 C286 C 0.64223 0.30803 -0.15822
 C287 C 0.66300 0.29001 -0.17901
 C288 C 0.69464 0.30768 -0.19269
 C289 C 0.70667 0.34287 -0.18228
 C290 C 0.68596 0.36122 -0.16175
 C291 C 0.63170 0.36300 -0.12869
 C292 C 0.64319 0.39874 -0.12064
 C293 C 0.62192 0.41716 -0.10075
 C294 C 0.58949 0.40001 -0.08856
 C295 C 0.57863 0.36394 -0.09659
 C296 C 0.59959 0.34535 -0.11672
 C297 C 0.69683 0.39685 -0.15275
 C298 C 0.67571 0.41536 -0.13271
 C299 C 0.61012 0.29111 -0.14548
 C300 C 0.58915 0.30946 -0.12511
 H301 H 0.72171 0.41067 -0.16154
 H302 H 0.68493 0.44289 -0.12659
 H303 H 0.60100 0.26351 -0.15147
 H304 H 0.56449 0.29547 -0.11595
 H305 H 0.65449 0.26213 -0.18433
 H306 H 0.73223 0.35613 -0.18979
 H307 H 0.63036 0.44504 -0.09524
 H308 H 0.55411 0.35020 -0.08689
 C309 C -0.15898 0.17371 -0.15680
 C310 C -0.17942 0.16403 -0.18871
 C311 C -0.20403 0.18795 -0.20672
 C312 C -0.20850 0.22111 -0.19285
 C313 C -0.18732 0.23060 -0.16107
 C314 C -0.16257 0.20697 -0.14291
 C315 C -0.13383 0.14824 -0.13718
 C316 C -0.11380 0.15774 -0.10500
 C317 C -0.09060 0.13308 -0.08598
 C318 C -0.08754 0.09897 -0.09875
 C319 C -0.10751 0.09011 -0.13137
 C320 C -0.13076 0.11464 -0.15067
 C321 C -0.14169 0.21573 -0.11088
 C322 C -0.11769 0.19153 -0.09225
 C323 C -0.17531 0.13035 -0.20160
 C324 C -0.15141 0.10606 -0.18289
 H325 H -0.14415 0.24137 -0.09995
 H326 H -0.10231 0.19920 -0.06749
 H327 H -0.19093 0.12256 -0.22621
 H328 H -0.14927 0.08025 -0.19361
 H329 H -0.22045 0.18015 -0.23077
 H330 H -0.19014 0.25633 -0.15046
 H331 H -0.07493 0.14042 -0.06123
 H332 H -0.10568 0.06381 -0.14124
 C333 C -0.17350 0.65536 0.33388
 C334 C -0.16249 0.67513 0.30254
 C335 C -0.18540 0.70007 0.28343
 C336 C -0.21881 0.70556 0.29581
 C337 C -0.22966 0.68508 0.32698
 C338 C -0.20709 0.65994 0.34614
 C339 C -0.14901 0.63003 0.35477
 C340 C -0.15978 0.61079 0.38645
 C341 C -0.13594 0.58768 0.40687
 C342 C -0.10131 0.58406 0.39610
 C343 C -0.09122 0.60307 0.36385
 C344 C -0.11496 0.62618 0.34312
 C345 C -0.21717 0.63974 0.37764
 C346 C -0.19393 0.61552 0.39744
 C347 C -0.12847 0.67012 0.29139
 C348 C -0.10509 0.64609 0.31136
 H349 H -0.24308 0.64295 0.38729
 H350 H -0.20256 0.60074 0.42180
 H351 H -0.11966 0.68520 0.26725
 H352 H -0.07893 0.64333 0.30204
 H353 H -0.17664 0.71609 0.25975
 H354 H -0.25556 0.68886 0.33637
 H355 H -0.14421 0.57272 0.43130
 H356 H -0.06452 0.60080 0.35551
 C357 C 0.33806 0.16078 0.34580
 C358 C 0.32005 0.15291 0.31218
 C359 C 0.29491 0.17661 0.29461
 C360 C 0.28746 0.20764 0.31074
 C361 C 0.30650 0.21539 0.34414
 C362 C 0.33164 0.19203 0.36182
 C363 C 0.36385 0.13562 0.36483
 C364 C 0.38149 0.14343 0.39860
 C365 C 0.40534 0.11913 0.41697
 C366 C 0.41153 0.08701 0.40200
 C367 C 0.39407 0.07982 0.36779
 C368 C 0.37005 0.10405 0.34912
 C369 C 0.35019 0.19917 0.39542
 C370 C 0.37471 0.17526 0.41351
 C371 C 0.32720 0.12124 0.29712
 C372 C 0.35175 0.09723 0.31528
 H373 H 0.34550 0.22329 0.40798
 H374 H 0.38826 0.18161 0.43952
 H375 H 0.31351 0.11482 0.27119
 H376 H 0.35628 0.07300 0.30281
 H377 H 0.28068 0.17037 0.26893
 H378 H 0.30187 0.23971 0.35640
 H379 H 0.41920 0.12525 0.44293
 H380 H 0.39854 0.05509 0.35616
 C381 C 0.32841 0.66248 -0.16236
 C382 C 0.29466 0.66710 -0.15049
 C383 C 0.27270 0.69293 -0.16933
 C384 C 0.28429 0.71417 -0.19979
 C385 C 0.31795 0.70878 -0.21172
 C386 C 0.34023 0.68304 -0.19297
 C387 C 0.35209 0.63607 -0.14198
 C388 C 0.38616 0.63189 -0.15339
 C389 C 0.40899 0.60743 -0.13327
 C390 C 0.39794 0.58745 -0.10186
 C391 C 0.36337 0.59160 -0.09126
 C392 C 0.34042 0.61595 -0.11110
 C393 C 0.37433 0.67781 -0.20382
 C394 C 0.39691 0.65269 -0.18436
 C395 C 0.28372 0.64609 -0.11975
 C396 C 0.30621 0.62092 -0.10040
 H397 H 0.38378 0.69347 -0.22738
 H398 H 0.42311 0.64972 -0.19348
 H399 H 0.25769 0.64934 -0.11040
 H400 H 0.29689 0.60547 -0.07666
 H401 H 0.24657 0.69649 -0.16031
 H402 H 0.32727 0.72530 -0.23488
 H403 H 0.43565 0.60468 -0.14147
 H404 H 0.35436 0.57591 -0.06750
 C405 C -0.15454 -0.17275 0.15905
 C406 C -0.18424 -0.19582 0.14609
 C407 C -0.20880 -0.21183 0.17003
 C408 C -0.20435 -0.20375 0.20620
 C409 C -0.17433 -0.18091 0.21889
 C410 C -0.14910 -0.16556 0.19546
 C411 C -0.12937 -0.15480 0.13382
 C412 C -0.09982 -0.13158 0.14680
 C413 C -0.07673 -0.11353 0.12252
 C414 C -0.08373 -0.11772 0.08545
 C415 C -0.11324 -0.14128 0.07282
 C416 C -0.13602 -0.16021 0.09701
 C417 C -0.11899 -0.14253 0.20750
 C418 C -0.09462 -0.12600 0.18361
 C419 C -0.18934 -0.20149 0.10929
 C420 C -0.16577 -0.18379 0.08512
 H421 H -0.11442 -0.13696 0.23556
 H422 H -0.07194 -0.10814 0.19391
 H423 H -0.21214 -0.21919 0.09895
 H424 H -0.17108 -0.18835 0.05684
 H425 H -0.23217 -0.22923 0.16032
 H426 H -0.17092 -0.17493 0.24687
 H427 H -0.05428 -0.09498 0.13214
 H428 H -0.11859 -0.14444 0.04423
 C429 C -0.16675 0.34572 0.66906
 C430 C -0.19676 0.36304 0.67667
 C431 C -0.22085 0.34478 0.69984
 C432 C -0.21536 0.30917 0.71575
 C433 C -0.18495 0.29222 0.70730
 C434 C -0.16066 0.31038 0.68412
 C435 C -0.14105 0.36513 0.64507
 C436 C -0.11076 0.34798 0.63768
 C437 C -0.08622 0.36675 0.61510
 C438 C -0.09183 0.40246 0.60010
 C439 C -0.12257 0.41904 0.60767
 C440 C -0.14719 0.40056 0.63016
 C441 C -0.13005 0.29405 0.67606
 C442 C -0.10555 0.31252 0.65324
 C443 C -0.20215 0.39842 0.66097
 C444 C -0.17778 0.41687 0.63810
 H445 H -0.12494 0.26678 0.68756
 H446 H -0.08229 0.29894 0.64780
 H447 H -0.22531 0.41206 0.66654
 H448 H -0.18285 0.44418 0.62668
 H449 H -0.24443 0.35827 0.70430
 H450 H -0.17871 0.26569 0.71989
 H451 H -0.06252 0.35387 0.60968
 H452 H -0.12751 0.44624 0.59577
 C453 C 0.34850 -0.15824 0.66681
 C454 C 0.32812 -0.19039 0.65745
 C455 C 0.30251 -0.20689 0.68013
 C456 C 0.29729 -0.19132 0.71187
 C457 C 0.31860 -0.15948 0.72111
 C458 C 0.34399 -0.14270 0.69859
 C459 C 0.37466 -0.14014 0.64262
 C460 C 0.39441 -0.10762 0.65174
 C461 C 0.41855 -0.09001 0.62831
 C462 C 0.42339 -0.10474 0.59600
 C463 C 0.40355 -0.13764 0.58743
 C464 C 0.37901 -0.15537 0.61061
 C465 C 0.36462 -0.11039 0.70702
 C466 C 0.38934 -0.09308 0.68393
 C467 C 0.33341 -0.20500 0.62532
 C468 C 0.35847 -0.18784 0.60234
 H469 H 0.36137 -0.09818 0.73151
 H470 H 0.40449 -0.06802 0.69126
 H471 H 0.31792 -0.22980 0.61776
 H472 H 0.36157 -0.19993 0.57776
 H473 H 0.28600 -0.23111 0.67251
 H474 H 0.31534 -0.14765 0.74581
 H475 H 0.43294 -0.06435 0.63491
 H476 H 0.40725 -0.14946 0.56285
 C477 C 0.32800 0.33533 0.16943
 C478 C 0.33646 0.30151 0.18708
 C479 C 0.31388 0.28427 0.21238
 C480 C 0.28282 0.30049 0.21973
 C481 C 0.27472 0.33435 0.20146
 C482 C 0.29732 0.35197 0.17654
 C483 C 0.35174 0.35375 0.14302
 C484 C 0.34344 0.38777 0.12579
 C485 C 0.36625 0.40541 0.10108
 C486 C 0.39701 0.38913 0.09298
 C487 C 0.40479 0.35479 0.11042
 C488 C 0.38233 0.33708 0.13563
 C489 C 0.28979 0.38594 0.15855
 C490 C 0.31255 0.40361 0.13372
 C491 C 0.36737 0.28568 0.17907
 C492 C 0.38983 0.30310 0.15370
 H493 H 0.26618 0.39905 0.16383
 H494 H 0.30587 0.42986 0.12055
 H495 H 0.37421 0.25958 0.19246
 H496 H 0.41335 0.28992 0.14830
 H497 H 0.32082 0.25856 0.22659
 H498 H 0.25056 0.34684 0.20618
 H499 H 0.36033 0.43215 0.08865
 H500 H 0.42809 0.34174 0.10426
 C501 C 0.15902 0.16234 0.16725
 C502 C 0.15088 0.19892 0.16440
 C503 C 0.16794 0.22193 0.18987
 C504 C 0.19335 0.20867 0.21752
 C505 C 0.20175 0.17221 0.21968
 C506 C 0.18430 0.14872 0.19479
 C507 C 0.14023 0.13769 0.14128
 C508 C 0.14729 0.10079 0.14497
 C509 C 0.12835 0.07720 0.12098
 C510 C 0.10304 0.09049 0.09319
 C511 C 0.09687 0.12770 0.08936
 C512 C 0.11510 0.15138 0.11364
 C513 C 0.19116 0.11179 0.19719
 C514 C 0.17283 0.08818 0.17281
 C515 C 0.12566 0.21163 0.13633
 C516 C 0.10820 0.18830 0.11126
 H517 H 0.21057 0.10096 0.21833
 H518 H 0.17859 0.05980 0.17586
 H519 H 0.11928 0.23983 0.13379
 H520 H 0.08884 0.19915 0.09010
 H521 H 0.16167 0.25015 0.18819
 H522 H 0.22090 0.16194 0.24132
 H523 H 0.13319 0.04855 0.12384
 H524 H 0.07708 0.13786 0.06820
 C525 C 0.16290 0.67547 0.65434
 C526 C 0.14965 0.70960 0.65587
 C527 C 0.16785 0.73361 0.67978
 C528 C 0.19890 0.72359 0.70237
 C529 C 0.21216 0.68946 0.70010
 C530 C 0.19419 0.66524 0.67615
 C531 C 0.14323 0.64971 0.62993
 C532 C 0.15608 0.61533 0.62880
 C533 C 0.13677 0.59063 0.60611
 C534 C 0.10467 0.60006 0.58486
 C535 C 0.09243 0.63485 0.58623
 C536 C 0.11158 0.65975 0.60867
 C537 C 0.20646 0.63074 0.67398
 C538 C 0.18776 0.60622 0.65068
 C539 C 0.11816 0.71885 0.63381
 C540 C 0.09941 0.69432 0.61064
 H541 H 0.23058 0.62250 0.69063
 H542 H 0.19801 0.57981 0.65003
 H543 H 0.10772 0.74514 0.63471
 H544 H 0.07505 0.70239 0.59431
 H545 H 0.15778 0.76005 0.68086
 H546 H 0.23569 0.68124 0.71770
 H547 H 0.14670 0.56413 0.60499
 H548 H 0.06747 0.64224 0.57054
 C549 C 0.66429 0.17127 0.66166
 C550 C 0.69941 0.16566 0.67801
 C551 C 0.71567 0.18897 0.70367
 C552 C 0.69717 0.21791 0.71292
 C553 C 0.66219 0.22346 0.69540
 C554 C 0.64551 0.20004 0.67019
 C555 C 0.64672 0.14643 0.63526
 C556 C 0.61130 0.15168 0.61955
 C557 C 0.59432 0.12752 0.59520
 C558 C 0.61263 0.09848 0.58588
 C559 C 0.64847 0.09397 0.60159
 C560 C 0.66550 0.11771 0.62653
 C561 C 0.61027 0.20472 0.65350
 C562 C 0.59337 0.18082 0.62876
 C563 C 0.71744 0.13667 0.66854
 C564 C 0.70083 0.11319 0.64315
 H565 H 0.59548 0.22685 0.65987
 H566 H 0.56603 0.18519 0.61674
 H567 H 0.74460 0.13204 0.68091
 H568 H 0.71567 0.09115 0.63668
 H569 H 0.74238 0.18398 0.71663
 H570 H 0.64783 0.24617 0.70096
 H571 H 0.56651 0.13096 0.58415
 H572 H 0.66312 0.07212 0.59443
 C573 C 0.65515 0.66717 0.15484
 C574 C 0.64770 0.70398 0.15048
 C575 C 0.66695 0.72833 0.17351
 C576 C 0.69383 0.71610 0.20022
 C577 C 0.70155 0.67934 0.20374
 C578 C 0.68193 0.65460 0.18139
 C579 C 0.63412 0.64119 0.13155
 C580 C 0.64061 0.60415 0.13684
 C581 C 0.61975 0.57939 0.11536
 C582 C 0.59312 0.59163 0.08838
 C583 C 0.58742 0.62892 0.08292
 C584 C 0.60757 0.65382 0.10478
 C585 C 0.68809 0.61745 0.18544
 C586 C 0.66765 0.59261 0.16366
 C587 C 0.62097 0.71559 0.12337
 C588 C 0.60138 0.69096 0.10078
 H589 H 0.70863 0.60742 0.20587
 H590 H 0.67299 0.56413 0.16791
 H591 H 0.61508 0.74394 0.11965
 H592 H 0.58094 0.70102 0.08026
 H593 H 0.66122 0.75674 0.17064
 H594 H 0.72200 0.66984 0.22459
 H595 H 0.62425 0.55067 0.11940
 H596 H 0.56667 0.63828 0.06233
   
