data_POSCAR
  _audit_creation_date              2014-09-24
  _audit_creation_method            'ToBaCCo'
  _symmetry_space_group_name_H-M    'P1'
  _symmetry_Int_Tables_number       1
  _symmetry_cell_setting            triclinic
  loop_
  _symmetry_equiv_pos_as_xyz
 x,y,z
_cell_length_a 29.2934
_cell_length_b 29.4463
_cell_length_c 15.2986
_cell_angle_alpha 89.910000
_cell_angle_beta 90.090600
_cell_angle_gamma 119.925300
loop_
  _atom_site_label
  _atom_site_type_symbol
  _atom_site_fract_x
  _atom_site_fract_y
  _atom_site_fract_z
C1 C 0.43010 0.85952 0.49975
 C2 C 0.44785 0.88653 0.57885
 C3 C 0.47735 0.94152 0.57813
 C4 C 0.48572 0.97030 0.49982
 C5 C 0.46525 0.94161 0.42155
 C6 C 0.43958 0.88675 0.42099
 C7 C 0.51542 1.02952 0.49978
 C8 C 0.53591 1.05830 0.42149
 C9 C 0.56152 1.11328 0.42073
 C10 C 0.57084 1.14031 0.49978
 C11 C 0.55302 1.11309 0.57854
 C12 C 0.52371 1.05822 0.57800
 H13 H 0.40872 0.81701 0.49934
 H14 H 0.49354 0.96125 0.63911
 H15 H 0.46884 0.96115 0.36030
 H16 H 0.53234 1.03856 0.36057
 H17 H 0.59206 1.18281 0.50016
 H18 H 0.50772 1.03869 0.63923
 C19 C 0.14147 0.57209 0.49741
 C20 C 0.11452 0.55604 0.57692
 C21 C 0.05924 0.52624 0.57674
 C22 C 0.02995 0.51548 0.49815
 C23 C 0.05873 0.53442 0.41938
 C24 C 0.11388 0.56067 0.41863
 C25 C -0.02974 0.48498 0.49816
 C26 C -0.05864 0.46597 0.41941
 C27 C -0.11391 0.43982 0.41852
 C28 C -0.14126 0.42852 0.49764
 C29 C -0.11407 0.44477 0.57677
 C30 C -0.05890 0.47435 0.57669
 H31 H 0.18419 0.59366 0.49669
 H32 H 0.03990 0.51130 0.63840
 H33 H 0.03926 0.52979 0.35770
 H34 H -0.03899 0.47045 0.35805
 H35 H -0.18398 0.40691 0.49780
 H36 H -0.03973 0.48904 0.63859
 C37 C 0.42925 0.57136 0.50305
 C38 C 0.44513 0.55994 0.58232
 C39 C 0.47425 0.53386 0.58172
 C40 C 0.48448 0.51522 0.50303
 C41 C 0.46621 0.52607 0.42430
 C42 C 0.44044 0.55540 0.42401
 C43 C 0.51383 0.48494 0.50327
 C44 C 0.53211 0.47398 0.42472
 C45 C 0.55796 0.44471 0.42503
 C46 C 0.56902 0.42877 0.50430
 C47 C 0.55295 0.44013 0.58300
 C48 C 0.52407 0.46634 0.58222
 H49 H 0.40809 0.59286 0.50271
 H50 H 0.48916 0.52920 0.64328
 H51 H 0.47104 0.51177 0.36238
 H52 H 0.52728 0.48817 0.36257
 H53 H 0.59022 0.40733 0.50473
 H54 H 0.50956 0.47114 0.64399
 O55 O 0.41138 0.67183 -0.10051
 O56 O 0.41390 0.76000 -0.07184
 C57 C 0.38126 0.76420 -0.12127
 O58 O 0.33211 0.74032 -0.10753
 O59 O 0.24272 0.65521 -0.07853
 C60 C 0.23837 0.61706 -0.12379
 O61 O 0.26247 0.59259 -0.10604
 O62 O 0.34800 0.58990 -0.07163
 C63 C 0.38646 0.62331 -0.11731
 O64 O 0.41176 0.65475 0.07338
 O65 O 0.40823 0.74011 0.10199
 C66 C 0.38318 0.76413 0.11574
 O67 O 0.34651 0.76024 0.06619
 O68 O 0.26038 0.67238 0.09528
 C69 C 0.23646 0.62389 0.11243
 O70 O 0.24108 0.59028 0.06686
 O71 O 0.32907 0.59253 0.10127
 C72 C 0.37771 0.61682 0.11897
 Cr73 Cr 0.40880 0.70542 0.00069
 Cr74 Cr 0.29668 0.70577 -0.00609
 Cr75 Cr 0.29643 0.59385 -0.00240
 O76 O 0.33395 0.66831 -0.00264
 O77 O 0.58858 0.32757 -0.09587
 O78 O 0.58667 0.23967 -0.06696
 C79 C 0.61947 0.23581 -0.11627
 O80 O 0.66861 0.25986 -0.10226
 O81 O 0.75769 0.34524 -0.07315
 C82 C 0.76167 0.38322 -0.11869
 O83 O 0.73736 0.40746 -0.10107
 O84 O 0.65159 0.40963 -0.06692
 C85 C 0.61315 0.37613 -0.11251
 O86 O 0.58808 0.34448 0.07780
 O87 O 0.59217 0.25936 0.10682
 C88 C 0.61741 0.23552 0.12073
 O89 O 0.65428 0.23979 0.07149
 O90 O 0.74014 0.32794 0.10066
 C91 C 0.76387 0.37644 0.11759
 O92 O 0.75892 0.40989 0.07190
 O93 O 0.67061 0.40709 0.10589
 C94 C 0.62193 0.38269 0.12311
 Cr95 Cr 0.59140 0.29402 0.00541
 Cr96 Cr 0.70391 0.29446 -0.00075
 Cr97 Cr 0.70337 0.40598 0.00245
 O98 O 0.66624 0.33153 0.00239
 C99 C 0.39127 0.84423 -0.21893
 C100 C 0.44952 0.87854 -0.24729
 C101 C 0.43383 0.85762 -0.34131
 C102 C 0.37582 0.82375 -0.31362
 C103 C 0.44412 0.81222 -0.32159
 C104 C 0.45954 0.83264 -0.22668
 C105 C 0.40154 0.79894 -0.19942
 C106 C 0.38593 0.77808 -0.29316
 H107 H 0.36928 0.85700 -0.17597
 H108 H 0.47575 0.91967 -0.22640
 H109 H 0.34136 0.82023 -0.34995
 H110 H 0.46602 0.79924 -0.36432
 H111 H 0.49383 0.83596 -0.19010
 H112 H 0.35953 0.73641 -0.31116
 C113 C 0.16020 0.54344 -0.22135
 C114 C 0.12271 0.56379 -0.24937
 C115 C 0.14388 0.57041 -0.34350
 C116 C 0.18092 0.54990 -0.31636
 C117 C 0.18703 0.62716 -0.32367
 C118 C 0.16633 0.62070 -0.22886
 C119 C 0.20325 0.60008 -0.20192
 C120 C 0.22436 0.60673 -0.29576
 H121 H 0.14955 0.50919 -0.17833
 H122 H 0.08104 0.54641 -0.22848
 H123 H 0.18671 0.52062 -0.35290
 H124 H 0.19796 0.66166 -0.36625
 H125 H 0.16065 0.65002 -0.19226
 H126 H 0.26655 0.62467 -0.31398
 C127 C 0.38122 0.54750 -0.22258
 C128 C 0.37467 0.56213 -0.31714
 C129 C 0.43134 0.57498 -0.33776
 C130 C 0.43806 0.56003 -0.24387
 C131 C 0.45295 0.63235 -0.31034
 C132 C 0.39620 0.61971 -0.28895
 C133 C 0.40295 0.60486 -0.19535
 C134 C 0.45952 0.61771 -0.21558
 H135 H 0.35153 0.51273 -0.18582
 H136 H 0.33971 0.53915 -0.35941
 H137 H 0.45497 0.53532 -0.22341
 H138 H 0.48259 0.66720 -0.34703
 H139 H 0.37872 0.64439 -0.30661
 H140 H 0.49423 0.64074 -0.17286
 C141 C 0.61000 0.15635 -0.21462
 C142 C 0.55184 0.12200 -0.24348
 C143 C 0.56758 0.14336 -0.33724
 C144 C 0.62550 0.17731 -0.30904
 C145 C 0.55702 0.18849 -0.31709
 C146 C 0.54150 0.16759 -0.22246
 C147 C 0.59943 0.20137 -0.19470
 C148 C 0.61511 0.22270 -0.28821
 H149 H 0.63204 0.14350 -0.17172
 H150 H 0.52569 0.08061 -0.22378
 H151 H 0.66002 0.18113 -0.34538
 H152 H 0.53507 0.20148 -0.35990
 H153 H 0.50707 0.16390 -0.18602
 H154 H 0.64139 0.26448 -0.30578
 C155 C 0.77494 0.39319 -0.29073
 C156 C 0.81804 0.45003 -0.31196
 C157 C 0.85522 0.42978 -0.33924
 C158 C 0.81239 0.37303 -0.31872
 C159 C 0.87681 0.43675 -0.24532
 C160 C 0.83923 0.45688 -0.21717
 C161 C 0.79651 0.40020 -0.19706
 C162 C 0.83355 0.37981 -0.22411
 H163 H 0.73265 0.37501 -0.30857
 H164 H 0.81193 0.47908 -0.34878
 H165 H 0.80151 0.33855 -0.36115
 H166 H 0.91872 0.45454 -0.22548
 H167 H 0.84990 0.49120 -0.17447
 H168 H 0.83963 0.35072 -0.18736
 C169 C 0.60343 0.38018 -0.28392
 C170 C 0.54651 0.36688 -0.30559
 C171 C 0.56743 0.42423 -0.33272
 C172 C 0.62427 0.43771 -0.31173
 C173 C 0.56030 0.43862 -0.23889
 C174 C 0.53952 0.38098 -0.21087
 C175 C 0.59629 0.39451 -0.19032
 C176 C 0.61735 0.45185 -0.21721
 H177 H 0.62144 0.35601 -0.30159
 H178 H 0.51724 0.33204 -0.34266
 H179 H 0.65912 0.46117 -0.35390
 H180 H 0.54268 0.46280 -0.21928
 H181 H 0.50484 0.35746 -0.16841
 H182 H 0.64667 0.48669 -0.18018
 C183 C 0.77721 0.38003 0.28930
 C184 C 0.82124 0.36732 0.31106
 C185 C 0.85723 0.42470 0.33847
 C186 C 0.81348 0.43761 0.31747
 C187 C 0.87895 0.43960 0.24467
 C188 C 0.84250 0.38192 0.21638
 C189 C 0.79887 0.39483 0.19578
 C190 C 0.83472 0.45219 0.22301
 H191 H 0.73498 0.35541 0.30677
 H192 H 0.81587 0.33247 0.34787
 H193 H 0.80161 0.46064 0.35955
 H194 H 0.92066 0.46426 0.22441
 H195 H 0.85407 0.35883 0.17384
 H196 H 0.83997 0.48697 0.18614
 C197 C 0.60823 0.22167 0.29259
 C198 C 0.55234 0.17598 0.31291
 C199 C 0.57645 0.14217 0.34087
 C200 C 0.63224 0.18760 0.32128
 C201 C 0.57115 0.12122 0.24689
 C202 C 0.54724 0.15547 0.21827
 C203 C 0.60292 0.20079 0.19890
 C204 C 0.62718 0.16715 0.22642
 H205 H 0.62358 0.26334 0.31052
 H206 H 0.52140 0.17947 0.34906
 H207 H 0.66719 0.20064 0.36416
 H208 H 0.55617 0.08009 0.22607
 H209 H 0.51243 0.14265 0.17517
 H210 H 0.65815 0.16386 0.19002
 C211 C 0.61764 0.45652 0.21986
 C212 C 0.55973 0.43641 0.24713
 C213 C 0.57388 0.42967 0.34147
 C214 C 0.63151 0.44991 0.31509
 C215 C 0.55995 0.37288 0.32183
 C216 C 0.54605 0.37943 0.22679
 C217 C 0.60369 0.39981 0.20066
 C218 C 0.61778 0.39305 0.29476
 H219 H 0.64159 0.49074 0.17698
 H220 H 0.53572 0.45414 0.22653
 H221 H 0.66656 0.47909 0.35209
 H222 H 0.53605 0.33850 0.36444
 H223 H 0.51100 0.35022 0.18985
 H224 H 0.64177 0.37494 0.31352
 C225 C 0.15843 0.61904 0.21168
 C226 C 0.12190 0.56149 0.24062
 C227 C 0.14405 0.57649 0.33415
 C228 C 0.18017 0.63374 0.30608
 C229 C 0.18747 0.56324 0.31290
 C230 C 0.16576 0.54850 0.21870
 C231 C 0.20174 0.60575 0.19086
 C232 C 0.22386 0.62068 0.28413
 H233 H 0.14684 0.64216 0.16910
 H234 H 0.07995 0.53699 0.22149
 H235 H 0.18587 0.66869 0.34275
 H236 H 0.19929 0.54018 0.35521
 H237 H 0.16012 0.51355 0.18209
 H238 H 0.26620 0.64515 0.30118
 C239 C 0.37350 0.83227 0.22167
 C240 C 0.36805 0.81134 0.31632
 C241 C 0.42383 0.85651 0.33674
 C242 C 0.42954 0.87790 0.24297
 C243 C 0.44777 0.82262 0.30879
 C244 C 0.39190 0.77720 0.28769
 C245 C 0.39762 0.79856 0.19417
 C246 C 0.45332 0.84361 0.21436
 H247 H 0.34276 0.83592 0.18500
 H248 H 0.33304 0.79830 0.35891
 H249 H 0.44485 0.91928 0.22327
 H250 H 0.47847 0.81883 0.34536
 H251 H 0.37631 0.73542 0.30525
 H252 H 0.48827 0.85651 0.17167
 C253 C 0.38097 0.60679 0.29106
 C254 C 0.36726 0.54999 0.31227
 C255 C 0.42478 0.57042 0.33989
 C256 C 0.43867 0.62712 0.31940
 C257 C 0.43947 0.56359 0.24607
 C258 C 0.38169 0.54329 0.21758
 C259 C 0.39561 0.59993 0.19750
 C260 C 0.45312 0.62048 0.22489
 H261 H 0.35679 0.62482 0.30874
 H262 H 0.33204 0.52083 0.34890
 H263 H 0.46226 0.66160 0.36195
 H264 H 0.46367 0.54596 0.22638
 H265 H 0.35804 0.50897 0.17477
 H266 H 0.48835 0.64969 0.18833
   
