data_POSCAR
  _audit_creation_date              2014-09-24
  _audit_creation_method            'ToBaCCo'
  _symmetry_space_group_name_H-M    'P1'
  _symmetry_Int_Tables_number       1
  _symmetry_cell_setting            triclinic
  loop_
  _symmetry_equiv_pos_as_xyz
 x,y,z
_cell_length_a 37.9604
_cell_length_b 37.9533
_cell_length_c 38.0502
_cell_angle_alpha 89.997300
_cell_angle_beta 90.131700
_cell_angle_gamma 89.871100
loop_
  _atom_site_label
  _atom_site_type_symbol
  _atom_site_fract_x
  _atom_site_fract_y
  _atom_site_fract_z
C1 C 0.32372 0.36456 1.36782
 N2 N 0.33643 0.38098 1.33882
 C3 C 0.36554 0.36823 1.32250
 N4 N 0.38185 0.33895 1.33508
 C5 C 0.36915 0.32253 1.36407
 N6 N 0.34003 0.33529 1.38038
 C7 C 1.17762 0.63681 0.86989
 N8 N 1.16122 0.66599 0.88249
 C9 C 1.13196 0.67863 0.86619
 N10 N 1.11922 0.66218 0.83717
 C11 C 1.13561 0.63300 0.82457
 N12 N 1.16485 0.62038 0.84087
 C13 C 0.67620 -0.13488 0.13071
 N14 N 0.66353 -0.11859 0.15982
 C15 C 0.63447 -0.13133 0.17612
 N16 N 0.61819 -0.16049 0.16343
 C17 C 0.63085 -0.17679 0.13432
 N18 N 0.65992 -0.16404 0.11802
 C19 C -0.17872 1.13462 -0.36948
 N20 N -0.16604 1.11837 -0.34028
 C21 C -0.13686 1.13102 -0.32398
 N22 N -0.12046 1.16004 -0.33677
 C23 C -0.13312 1.17630 -0.36596
 N24 N -0.16231 1.16364 -0.38226
 C25 C 0.67785 0.63540 0.63123
 N26 N 0.66496 0.61939 0.66037
 C27 C 0.63581 0.63243 0.67639
 N28 N 0.61967 0.66160 0.66339
 C29 C 0.63255 0.67762 0.63425
 N30 N 0.66169 0.66457 0.61823
 C31 C 0.82265 0.36544 0.13241
 N32 N 0.83875 0.33629 0.11940
 C33 C 0.86792 0.32318 0.13547
 N34 N 0.88088 0.33913 0.16467
 C35 C 0.86479 0.36829 0.17769
 N36 N 0.83562 0.38139 0.16162
 C37 C 0.32129 0.13543 0.86776
 N38 N 0.33416 0.11932 0.83864
 C39 C 0.36329 0.13220 0.82256
 N40 N 0.37945 0.16131 0.83551
 C41 C 0.36660 0.17744 0.86462
 N42 N 0.33746 0.16455 0.88069
 C43 C 0.17700 0.86386 0.36853
 N44 N 0.16397 0.87997 0.33942
 C45 C 0.13481 0.86705 0.32332
 N46 N 0.11876 0.83788 0.33622
 C47 C 0.13178 0.82175 0.36533
 N48 N 0.16095 0.83469 0.38143
 Zn49 Zn 0.04271 0.97992 0.00661
 Zn50 Zn 0.00608 1.04385 -0.02114
 Zn51 Zn -0.02802 0.97298 -0.02784
 Zn52 Zn -0.02139 1.00751 0.04271
 O53 O -0.00019 1.00103 0.00005
 O54 O 0.07861 1.00584 -0.00951
 O55 O -0.01618 1.04690 -0.06248
 O56 O -0.00622 0.93306 -0.04106
 O57 O 0.05139 1.05325 -0.03018
 O58 O 0.04601 0.93848 -0.01547
 O59 O -0.04147 0.99455 -0.06772
 O60 O -0.06277 0.98536 0.04574
 O61 O -0.01014 1.07988 0.00466
 O62 O -0.06790 0.95962 -0.00633
 O63 O -0.03051 1.05288 0.05206
 O64 O 0.00450 0.99128 0.07869
 O65 O 0.05212 0.97086 0.05188
 C66 C 0.07924 1.03567 -0.02446
 C67 C -0.03505 1.02518 -0.07936
 C68 C 0.02444 0.92149 -0.03440
 C69 C -0.07960 0.96631 0.02415
 C70 C -0.02495 1.08066 0.03447
 C71 C 0.03442 0.97643 0.07953
 Zn72 Zn 0.52026 -0.00680 0.54240
 Zn73 Zn 0.52696 0.02755 0.47181
 Zn74 Zn 0.49270 -0.04321 0.47849
 Zn75 Zn 0.45619 0.02084 0.50593
 O76 O 0.49906 -0.00037 0.49962
 O77 O 0.56161 0.01541 0.54563
 O78 O 0.54032 0.00590 0.43201
 O79 O 0.50907 -0.07919 0.50433
 O80 O 0.56685 0.04090 0.49348
 O81 O 0.52949 -0.05215 0.55178
 O82 O 0.51480 -0.04633 0.43718
 O83 O 0.42024 -0.00510 0.48978
 O84 O 0.50524 0.06747 0.45842
 O85 O 0.44737 -0.05266 0.46946
 O86 O 0.45296 0.06225 0.48374
 O87 O 0.44678 0.02994 0.55114
 O88 O 0.49430 0.00936 0.57824
 C89 C 0.57849 0.03435 0.52406
 C90 C 0.53373 -0.02469 0.42035
 C91 C 0.52397 -0.07993 0.53416
 C92 C 0.41954 -0.03503 0.47503
 C93 C 0.47460 0.07914 0.46488
 C94 C 0.46440 0.02427 0.57891
 Zn95 Zn 1.00833 0.45487 0.48046
 Zn96 Zn 1.04462 0.51882 0.50823
 Zn97 Zn 0.97387 0.52569 0.47373
 Zn98 Zn 0.98063 0.49119 0.54431
 O99 O 1.00183 0.49767 0.50165
 O100 O 1.05370 0.44545 0.47149
 O101 O 1.04772 0.56026 0.48614
 O102 O 0.96052 0.50411 0.43386
 O103 O 1.08065 0.49292 0.49211
 O104 O 0.98616 0.45182 0.43908
 O105 O 0.99548 0.56559 0.46049
 O106 O 0.93920 0.51345 0.54736
 O107 O 1.05397 0.52786 0.55351
 O108 O 0.93395 0.53910 0.49524
 O109 O 1.00648 0.50732 0.58032
 O110 O 0.97154 0.44583 0.55355
 O111 O 0.99212 0.41885 0.50618
 C112 C 1.08145 0.46308 0.47718
 C113 C 1.02607 0.57720 0.46716
 C114 C 0.96716 0.47351 0.42221
 C115 C 0.92230 0.53249 0.52574
 C116 C 1.03632 0.52222 0.58117
 C117 C 0.97716 0.41807 0.53591
 Zn118 Zn 0.50700 0.45792 1.02080
 Zn119 Zn 0.47259 0.52875 1.02763
 Zn120 Zn 0.54327 0.52189 0.99328
 Zn121 Zn 0.47917 0.49442 0.95698
 O122 O 0.50047 0.50078 0.99970
 O123 O 0.48492 0.45478 1.06210
 O124 O 0.49425 0.56863 1.04095
 O125 O 0.57932 0.49596 1.00950
 O126 O 0.45935 0.50708 1.06745
 O127 O 0.55237 0.44845 1.02988
 O128 O 0.54641 0.56333 1.01536
 O129 O 0.50501 0.51051 0.92107
 O130 O 0.43261 0.54221 1.00606
 O131 O 0.55260 0.53088 0.94803
 O132 O 0.43776 0.51675 0.95387
 O133 O 0.47003 0.44910 0.94761
 O134 O 0.49075 0.42197 0.99494
 C135 C 0.46599 0.47643 1.07901
 C136 C 0.52481 0.58026 1.03431
 C137 C 0.58012 0.46608 1.02433
 C138 C 0.53491 0.52527 0.92031
 C139 C 0.42090 0.53571 0.97550
 C140 C 0.47574 0.42128 0.96517
 C141 C 1.23586 0.40041 0.41336
 N142 N 1.23197 0.43515 0.42081
 N143 N 1.20202 0.44714 0.43463
 C144 C 1.17508 0.42477 0.44145
 N145 N 1.17899 0.39002 0.43405
 N146 N 1.20894 0.37803 0.42023
 C147 C 1.26766 0.38765 0.39746
 C148 C 1.29414 0.37686 0.38368
 C149 C 1.14234 0.43793 0.45496
 C150 C 1.11463 0.44924 0.46556
 C151 C 0.26587 0.60077 0.91496
 N152 N 0.29406 0.62231 0.91893
 N153 N 0.32415 0.60998 0.93228
 C154 C 0.32694 0.57573 0.94210
 N155 N 0.29873 0.55420 0.93819
 N156 N 0.26865 0.56654 0.92484
 C157 C 0.23393 0.61373 0.89936
 C158 C 0.20733 0.62458 0.88572
 C159 C 0.35982 0.56203 0.95490
 C160 C 0.38763 0.55021 0.96481
 C161 C -0.23426 0.90187 0.08474
 N162 N -0.23131 0.93629 0.07566
 N163 N -0.20132 0.94852 0.06227
 C164 C -0.17339 0.92670 0.05752
 N165 N -0.17636 0.89227 0.06655
 N166 N -0.20635 0.88003 0.07994
 C167 C -0.26609 0.88897 0.10037
 C168 C -0.29257 0.87812 0.11399
 C169 C -0.14058 0.94025 0.04470
 C170 C -0.11283 0.95195 0.03480
 C171 C 0.73323 0.09873 0.58527
 N172 N 0.70518 0.12049 0.58079
 N173 N 0.67516 0.10828 0.56730
 C174 C 0.67230 0.07396 0.55784
 N175 N 0.70037 0.05221 0.56226
 N176 N 0.73039 0.06442 0.57575
 C177 C 0.76511 0.11159 0.60098
 C178 C 0.79164 0.12239 0.61467
 C179 C 0.63948 0.06042 0.54488
 C180 C 0.61172 0.04872 0.53486
 C181 C 0.41412 0.23419 0.40000
 N182 N 0.41793 0.20592 0.37853
 N183 N 0.43122 0.17581 0.39085
 C184 C 0.44113 0.17308 0.42501
 N185 N 0.43738 0.20137 0.44647
 N186 N 0.42409 0.23148 0.43415
 C187 C 0.39856 0.26617 0.38706
 C188 C 0.38496 0.29279 0.37624
 C189 C 0.45392 0.14020 0.43868
 C190 C 0.46384 0.11240 0.45046
 C191 C 0.91274 0.26391 0.59817
 N192 N 0.91926 0.26807 0.56338
 N193 N 0.93320 0.29795 0.55143
 C194 C 0.94109 0.32454 0.57390
 N195 N 0.93461 0.32036 0.60869
 N196 N 0.92067 0.29049 0.62064
 C197 C 0.89671 0.23220 0.61091
 C198 C 0.88284 0.20579 0.62171
 C199 C 0.95473 0.35723 0.56083
 C200 C 0.96544 0.38491 0.54962
 C201 C 0.08636 0.76667 -0.09816
 N202 N 0.08149 0.79452 -0.11999
 N203 N 0.06784 0.82454 -0.10791
 C204 C 0.05859 0.82760 -0.07364
 N205 N 0.06340 0.79973 -0.05182
 N206 N 0.07705 0.76971 -0.06390
 C207 C 0.10222 0.73480 -0.11091
 C208 C 0.11602 0.70827 -0.12163
 C209 C 0.04547 0.86044 -0.06024
 C210 C 0.03534 0.88822 -0.04865
 C211 C 0.58574 0.73514 1.09844
 N212 N 0.57651 0.73209 1.06412
 N213 N 0.56307 0.70205 1.05195
 C214 C 0.55841 0.67416 1.07373
 N215 N 0.56758 0.67724 1.10807
 N216 N 0.58102 0.70728 1.12024
 C217 C 0.60140 0.76703 1.11127
 C218 C 0.61505 0.79357 1.12207
 C219 C 0.54552 0.64131 1.06026
 C220 C 0.53555 0.61352 1.04862
 C221 C 0.40207 0.41476 1.23325
 N222 N 0.43649 0.42376 1.23021
 N223 N 0.44861 0.43740 1.20032
 C224 C 0.42667 0.44249 1.17258
 N225 N 0.39225 0.43355 1.17564
 N226 N 0.38013 0.41991 1.20553
 C227 C 0.38928 0.39890 1.26497
 C228 C 0.37850 0.38511 1.29137
 C229 C 0.44010 0.45556 1.13987
 C230 C 0.45171 0.46563 1.11217
 C231 C 0.59793 -0.08540 0.26575
 N232 N 0.61974 -0.08102 0.29369
 N233 N 0.60756 -0.06763 0.32370
 C234 C 0.57321 -0.05819 0.32664
 N235 N 0.55142 -0.06252 0.29868
 N236 N 0.56360 -0.07591 0.26868
 C237 C 0.61077 -0.10101 0.23390
 C238 C 0.62155 -0.11462 0.20739
 C239 C 0.55971 -0.04535 0.35944
 C240 C 0.54805 -0.03541 0.38717
 C241 C -0.10005 1.08533 -0.23416
 N242 N -0.06577 1.07558 -0.23130
 N243 N -0.05343 1.06233 -0.20125
 C244 C -0.07500 1.05840 -0.17316
 N245 N -0.10930 1.06809 -0.17604
 N246 N -0.12164 1.08134 -0.20609
 C247 C -0.11304 1.10082 -0.26607
 C248 C -0.12390 1.11436 -0.29264
 C249 C -0.06131 1.04568 -0.14033
 C250 C -0.04951 1.03583 -0.11257
 C251 C 1.09900 0.58628 0.73528
 N252 N 1.06422 0.57914 0.73131
 N253 N 1.05221 0.56527 0.70143
 C254 C 1.07460 0.55808 0.67464
 N255 N 1.10939 0.56516 0.67863
 N256 N 1.12140 0.57904 0.70850
 C257 C 1.11179 0.60225 0.76700
 C258 C 1.12259 0.61610 0.79341
 C259 C 1.06143 0.54451 0.64196
 C260 C 1.05013 0.53388 0.61430
 C261 C 0.76753 0.59778 0.58594
 N262 N 0.79520 0.61961 0.58033
 N263 N 0.82522 0.60715 0.56708
 C264 C 0.82846 0.57250 0.55901
 N265 N 0.80078 0.55068 0.56456
 N266 N 0.77076 0.56313 0.57781
 C267 C 0.73567 0.61097 0.60135
 C268 C 0.70914 0.62207 0.61478
 C269 C 0.86129 0.55877 0.54626
 C270 C 0.88906 0.54695 0.53640
 C271 C 0.73465 0.40234 1.08755
 N272 N 0.70805 0.37999 1.07933
 N273 N 0.67807 0.39228 1.06570
 C274 C 0.67381 0.42728 1.05985
 N275 N 0.70043 0.44962 1.06803
 N276 N 0.73041 0.43733 1.08166
 C277 C 0.76650 0.38921 1.10322
 C278 C 0.79302 0.37810 1.11679
 C279 C 0.64104 0.44067 1.04647
 C280 C 0.61332 0.45213 1.03593
 C281 C 0.23344 1.09905 -0.08742
 N282 N 0.20641 1.12135 -0.08029
 N283 N 0.17649 1.10918 -0.06671
 C284 C 0.17270 1.07433 -0.05981
 N285 N 0.19975 1.05204 -0.06689
 N286 N 0.22967 1.06422 -0.08047
 C287 C 0.26523 1.11202 -0.10305
 C288 C 0.29171 1.12298 -0.11661
 C289 C 0.14001 1.06101 -0.04648
 C290 C 0.11235 1.04959 -0.03600
 C291 C 0.26502 -0.09936 0.41308
 N292 N 0.26866 -0.06448 0.41990
 N293 N 0.29866 -0.05208 0.43325
 C294 C 0.32592 -0.07418 0.44021
 N295 N 0.32226 -0.10907 0.43345
 N296 N 0.29226 -0.12147 0.42009
 C297 C 0.23317 -0.11254 0.39762
 C298 C 0.20664 -0.12362 0.38415
 C299 C 0.35867 -0.06063 0.45330
 C300 C 0.38638 -0.04906 0.46362
 C301 C 0.58750 -0.23439 0.59760
 N302 N 0.58126 -0.23029 0.56273
 N303 N 0.56758 -0.20031 0.55051
 C304 C 0.55971 -0.17355 0.57279
 N305 N 0.56591 -0.17767 0.60767
 N306 N 0.57958 -0.20765 0.61989
 C307 C 0.60323 -0.26623 0.61065
 C308 C 0.61685 -0.29275 0.62168
 C309 C 0.54626 -0.14081 0.55946
 C310 C 0.53567 -0.11310 0.54805
 C311 C 1.08644 0.73201 0.40254
 N312 N 1.07828 0.72878 0.43708
 N313 N 1.06501 0.69875 0.44940
 C314 C 1.05946 0.67106 0.42756
 N315 N 1.06757 0.67431 0.39302
 N316 N 1.08084 0.70434 0.38069
 C317 C 1.10187 0.76390 0.38949
 C318 C 1.11531 0.79044 0.37851
 C319 C 1.04668 0.63823 0.44115
 C320 C 1.03677 0.61045 0.45284
 C321 C -0.08740 1.23520 0.09852
 N322 N -0.07927 1.20840 0.12070
 N323 N -0.06581 1.17842 0.10832
 C324 C -0.06007 1.17434 0.07338
 N325 N -0.06817 1.20116 0.05121
 N326 N -0.08162 1.23114 0.06359
 C327 C -0.10294 1.26704 0.11173
 C328 C -0.11645 1.29356 0.12286
 C329 C -0.04687 1.14158 0.05989
 C330 C -0.03646 1.11386 0.04840
 C331 C 0.41249 0.26697 0.90182
 N332 N 0.41915 0.27092 0.93663
 N333 N 0.43279 0.30086 0.94882
 C334 C 0.44020 0.32775 0.92656
 N335 N 0.43358 0.32378 0.89175
 N336 N 0.41995 0.29384 0.87956
 C337 C 0.39680 0.23517 0.88882
 C338 C 0.38320 0.20868 0.87784
 C339 C 0.45359 0.36046 0.93988
 C340 C 0.46412 0.38814 0.95129
 C341 C 0.59858 0.58720 0.76601
 N342 N 0.62082 0.58006 0.79305
 N343 N 0.60855 0.56672 0.82301
 C344 C 0.57368 0.56008 0.82682
 N345 N 0.55145 0.56717 0.79976
 N346 N 0.56371 0.58052 0.76980
 C347 C 0.61164 0.60261 0.73418
 C348 C 0.62264 0.61601 0.70767
 C349 C 0.56027 0.54699 0.85953
 C350 C 0.54882 0.53668 0.88720
 C351 C 0.40050 0.08664 0.73303
 N352 N 0.37837 0.08010 0.70578
 N353 N 0.39066 0.06666 0.67585
 C354 C 0.42545 0.05933 0.67228
 N355 N 0.44758 0.06582 0.69955
 N356 N 0.43529 0.07926 0.72948
 C357 C 0.38744 0.10216 0.76483
 C358 C 0.37645 0.11565 0.79132
 C359 C 0.43890 0.04614 0.63961
 C360 C 0.45041 0.03575 0.61198
 C361 C 0.09758 0.91295 0.23379
 N362 N 0.11999 0.92073 0.20720
 N363 N 0.10785 0.93442 0.17727
 C364 C 0.07292 0.94078 0.17304
 N365 N 0.05051 0.93305 0.19965
 N366 N 0.06266 0.91935 0.22958
 C367 C 0.11054 0.89722 0.26559
 C368 C 0.12153 0.88362 0.29207
 C369 C 0.05966 0.95422 0.14033
 C370 C 0.04829 0.96479 0.11266
 C371 C 0.90221 0.41338 0.26748
 N372 N 0.88035 0.41888 0.29510
 N373 N 0.89274 0.43209 0.32512
 C374 C 0.92736 0.44024 0.32842
 N375 N 0.94920 0.43479 0.30078
 N376 N 0.93682 0.42158 0.27076
 C377 C 0.88909 0.39803 0.23558
 C378 C 0.87804 0.38466 0.20902
 C379 C 0.94101 0.45297 0.36124
 C380 C 0.95276 0.46284 0.38899
   
