data_POSCAR
  _audit_creation_date              2014-09-24
  _audit_creation_method            'ToBaCCo'
  _symmetry_space_group_name_H-M    'P1'
  _symmetry_Int_Tables_number       1
  _symmetry_cell_setting            triclinic
  loop_
  _symmetry_equiv_pos_as_xyz
 x,y,z
_cell_length_a 36.8039
_cell_length_b 35.1706
_cell_length_c 19.6911
_cell_angle_alpha 89.881100
_cell_angle_beta 90.025800
_cell_angle_gamma 90.061500
loop_
  _atom_site_label
  _atom_site_type_symbol
  _atom_site_fract_x
  _atom_site_fract_y
  _atom_site_fract_z
C1 C 0.68064 0.29086 0.56039
 C2 C 0.67080 0.30618 0.49715
 C3 C 0.68570 0.29319 0.43652
 C4 C 0.71138 0.26351 0.43762
 C5 C 0.72236 0.24756 0.50064
 C6 C 0.70673 0.26093 0.56230
 C7 C 0.71513 0.24160 0.62286
 C8 C 0.74016 0.21204 0.62393
 C9 C 0.75799 0.20014 0.56448
 C10 C 0.74799 0.21716 0.50166
 C11 C 0.72569 0.24888 0.37715
 C12 C 0.74993 0.21872 0.37805
 C13 C 0.76245 0.20302 0.43961
 C14 C 0.78671 0.17159 0.44061
 C15 C 0.79530 0.15472 0.50323
 C16 C 0.78296 0.16932 0.56541
 H17 H 0.70148 0.24803 0.67001
 H18 H 0.74423 0.19753 0.67181
 H19 H 0.71757 0.26003 0.32818
 H20 H 0.75783 0.20722 0.32943
 H21 H 0.65152 0.32949 0.49471
 H22 H 0.81541 0.13219 0.50389
 C23 C 0.21045 0.82207 0.56246
 C24 C 0.19995 0.83843 0.50076
 C25 C 0.21177 0.82387 0.43860
 C26 C 0.23621 0.79287 0.43775
 C27 C 0.24766 0.77623 0.49996
 C28 C 0.23440 0.79060 0.56251
 C29 C 0.24526 0.77305 0.62327
 C30 C 0.26846 0.74184 0.62281
 C31 C 0.28317 0.72781 0.56176
 C32 C 0.27192 0.74476 0.49951
 C33 C 0.24960 0.77822 0.37637
 C34 C 0.27289 0.74715 0.37580
 C35 C 0.28434 0.72997 0.43665
 C36 C 0.30724 0.69782 0.43617
 C37 C 0.31733 0.68084 0.49746
 C38 C 0.30686 0.69577 0.56065
 H39 H 0.23563 0.78303 0.67198
 H40 H 0.27399 0.72839 0.67109
 H41 H 0.24215 0.79062 0.32801
 H42 H 0.28156 0.73649 0.32693
 H43 H 0.18074 0.86182 0.50105
 H44 H 0.33604 0.65704 0.49553
 C45 C 0.19780 0.19694 -0.43878
 C46 C 0.18799 0.18037 -0.50048
 C47 C 0.19697 0.19699 -0.56322
 C48 C 0.21888 0.23046 -0.56361
 C49 C 0.23044 0.24667 -0.50106
 C50 C 0.21946 0.23008 -0.43854
 C51 C 0.23092 0.24663 -0.37730
 C52 C 0.25253 0.27901 -0.37714
 C53 C 0.26432 0.29563 -0.43819
 C54 C 0.25326 0.27943 -0.50087
 C55 C 0.23118 0.24706 -0.62447
 C56 C 0.25255 0.27967 -0.62425
 C57 C 0.26507 0.29576 -0.56320
 C58 C 0.28765 0.32873 -0.56250
 C59 C 0.29672 0.34502 -0.49962
 C60 C 0.28658 0.32836 -0.43805
 H61 H 0.22348 0.23454 -0.32868
 H62 H 0.25981 0.29097 -0.32841
 H63 H 0.22487 0.23490 -0.67339
 H64 H 0.25887 0.29218 -0.67299
 H65 H 0.17038 0.15561 -0.49915
 H66 H 0.31497 0.36926 -0.49803
 C67 C -0.28195 0.67244 -0.43892
 C68 C -0.29090 0.65612 -0.50178
 C69 C -0.28292 0.67398 -0.56389
 C70 C -0.26175 0.70787 -0.56336
 C71 C -0.25002 0.72349 -0.50054
 C72 C -0.26019 0.70587 -0.43829
 C73 C -0.24641 0.72080 -0.37721
 C74 C -0.22570 0.75379 -0.37648
 C75 C -0.21617 0.77229 -0.43710
 C76 C -0.22774 0.75672 -0.49992
 C77 C -0.25025 0.72541 -0.62395
 C78 C -0.22966 0.75853 -0.62322
 C79 C -0.21703 0.77423 -0.56199
 C80 C -0.19545 0.80793 -0.56077
 C81 C -0.18647 0.82386 -0.49757
 C82 C -0.19542 0.80607 -0.43641
 H83 H -0.25102 0.70684 -0.32901
 H84 H -0.21712 0.76456 -0.32760
 H85 H -0.25665 0.71359 -0.67313
 H86 H -0.22406 0.77174 -0.67168
 H87 H -0.30867 0.63149 -0.50227
 H88 H -0.16932 0.84895 -0.49551
 N89 N 0.03533 1.07181 -0.07432
 N90 N 0.05914 1.09884 -0.08853
 N91 N -0.03991 1.04102 -0.11931
 N92 N -0.06565 1.04615 -0.16501
 N93 N -0.04106 1.06781 -0.07297
 N94 N -0.06764 1.09201 -0.08608
 N95 N 0.03636 1.04497 -0.12058
 N96 N 0.06084 1.05293 -0.16739
 C97 C 0.07508 1.08625 -0.14616
 C98 C -0.08291 1.07769 -0.14314
 N99 N -0.03476 0.93274 -0.07173
 N100 N -0.05831 0.90537 -0.08526
 N101 N 0.04014 0.96317 -0.11992
 N102 N 0.06468 0.95696 -0.16743
 N103 N 0.04156 0.93659 -0.07302
 N104 N 0.06714 0.91153 -0.08746
 N105 N -0.03613 0.95934 -0.11860
 N106 N -0.06062 0.95089 -0.16510
 Mn107 Mn 0.00013 1.00214 -0.12016
 C108 C -0.07453 0.91755 -0.14303
 C109 C 0.08159 0.92508 -0.14586
 N110 N -0.04022 1.06817 0.07388
 N111 N -0.06592 1.09306 0.08863
 N112 N 0.03758 1.04553 0.11912
 N113 N 0.06182 1.05417 0.16595
 N114 N 0.03608 1.07222 0.07243
 N115 N 0.05928 1.09985 0.08644
 N116 N -0.03861 1.04150 0.12059
 N117 N -0.06314 1.04739 0.16816
 Mn118 Mn -0.00250 1.07044 -0.00029
 C119 C -0.08021 1.07923 0.14701
 C120 C 0.07544 1.08773 0.14431
 N121 N 0.04235 0.93695 0.07362
 N122 N 0.06826 0.91213 0.08762
 N123 N -0.03485 0.95981 0.12141
 N124 N -0.05890 0.95159 0.16886
 N125 N -0.03398 0.93302 0.07506
 N126 N -0.05743 0.90573 0.08991
 N127 N 0.04140 0.96380 0.11985
 N128 N 0.06658 0.95806 0.16641
 Mn129 Mn 0.00380 0.93441 0.00098
 Mn130 Mn 0.00139 1.00266 0.12075
 Cl131 Cl 0.00071 1.00241 0.00033
 C132 C 0.08339 0.92616 0.14499
 C133 C -0.07304 0.91815 0.14798
 N134 N 0.54556 0.56589 -0.07477
 N135 N 0.57213 0.58988 -0.08934
 N136 N 0.46749 0.54564 -0.12151
 N137 N 0.44321 0.55438 -0.16822
 N138 N 0.46937 0.57239 -0.07518
 N139 N 0.44641 0.60020 -0.08935
 N140 N 0.54354 0.53903 -0.12091
 N141 N 0.56862 0.54395 -0.16792
 C142 C 0.58651 0.57534 -0.14695
 C143 C 0.43005 0.58814 -0.14701
 N144 N 0.45845 0.43777 -0.07366
 N145 N 0.43169 0.41392 -0.08759
 N146 N 0.53697 0.45741 -0.11999
 N147 N 0.56058 0.44751 -0.16713
 N148 N 0.53458 0.43093 -0.07306
 N149 N 0.55651 0.40229 -0.08709
 N150 N 0.46084 0.46418 -0.12070
 N151 N 0.43579 0.45912 -0.16776
 Mn152 Mn 0.50224 0.50157 -0.12133
 C153 C 0.41756 0.42810 -0.14580
 C154 C 0.57299 0.41350 -0.14513
 N155 N 0.46922 0.57269 0.07177
 N156 N 0.44625 0.60057 0.08518
 N157 N 0.54331 0.53962 0.11881
 N158 N 0.56812 0.54500 0.16617
 N159 N 0.54539 0.56624 0.07204
 N160 N 0.57173 0.59050 0.08649
 N161 N 0.46725 0.54614 0.11865
 N162 N 0.44290 0.55509 0.16501
 Mn163 Mn 0.50740 0.56974 -0.00154
 C164 C 0.42977 0.58876 0.14295
 C165 C 0.58592 0.57639 0.14471
 N166 N 0.53445 0.43127 0.07313
 N167 N 0.55694 0.40306 0.08710
 N168 N 0.46067 0.46464 0.11957
 N169 N 0.43594 0.45936 0.16714
 N170 N 0.45837 0.43802 0.07305
 N171 N 0.43203 0.41383 0.08789
 N172 N 0.53675 0.45794 0.11954
 N173 N 0.56084 0.44863 0.16632
 Mn174 Mn 0.49640 0.43412 -0.00014
 Mn175 Mn 0.50202 0.50209 0.11970
 Cl176 Cl 0.50202 0.50190 -0.00082
 C177 C 0.57351 0.41470 0.14472
 C178 C 0.41801 0.42801 0.14605
 C179 C 0.34499 0.37715 0.27231
 C180 C 0.32605 0.40042 0.31752
 C181 C 0.30595 0.38434 0.37039
 C182 C 0.30403 0.34452 0.37872
 C183 C 0.32272 0.32137 0.33185
 C184 C 0.34295 0.33760 0.27905
 C185 C 0.36936 0.39414 0.22382
 C186 C 0.39095 0.40922 0.18645
 H187 H 0.32772 0.43109 0.31320
 H188 H 0.29201 0.40314 0.40524
 H189 H 0.32360 0.29080 0.33836
 H190 H 0.35815 0.31933 0.24516
 C191 C -0.14164 0.86077 0.27409
 C192 C -0.16100 0.88262 0.32092
 C193 C -0.17992 0.86506 0.37379
 C194 C -0.18026 0.82510 0.38053
 C195 C -0.16121 0.80335 0.33204
 C196 C -0.14213 0.82108 0.27923
 C197 C -0.11857 0.87952 0.22539
 C198 C -0.09827 0.89652 0.18804
 H199 H -0.16056 0.91339 0.31781
 H200 H -0.19422 0.88282 0.40985
 H201 H -0.15918 0.77276 0.33720
 H202 H -0.12662 0.80391 0.24403
 C203 C 0.65937 0.62700 0.27023
 C204 C 0.66011 0.66642 0.27947
 C205 C 0.68047 0.68225 0.33240
 C206 C 0.70063 0.65884 0.37689
 C207 C 0.70004 0.61919 0.36599
 C208 C 0.67979 0.60351 0.31300
 C209 C 0.63483 0.61017 0.22191
 C210 C 0.61310 0.59519 0.18474
 H211 H 0.64379 0.68481 0.24754
 H212 H 0.67859 0.71259 0.34096
 H213 H 0.71510 0.60021 0.39901
 H214 H 0.67913 0.57291 0.30676
 C215 C 0.14357 1.14551 0.27021
 C216 C 0.16314 1.12336 0.31645
 C217 C 0.18187 1.14054 0.36983
 C218 C 0.18181 1.18040 0.37767
 C219 C 0.16254 1.20250 0.32981
 C220 C 0.14362 1.18514 0.27647
 C221 C 0.12064 1.12694 0.22117
 C222 C 0.10048 1.10981 0.18385
 H223 H 0.16301 1.09263 0.31251
 H224 H 0.19632 1.12254 0.40546
 H225 H 0.16024 1.23301 0.33585
 H226 H 0.12791 1.20252 0.24176
 C227 C 0.62992 0.34600 -0.27425
 C228 C 0.66729 0.33863 -0.27173
 C229 C 0.68415 0.31893 -0.32494
 C230 C 0.66375 0.30645 -0.38139
 C231 C 0.62605 0.31360 -0.38218
 C232 C 0.60937 0.33294 -0.32906
 C233 C 0.61232 0.36916 -0.22396
 C234 C 0.59538 0.38921 -0.18587
 H235 H 0.68353 0.34909 -0.22985
 H236 H 0.71337 0.31537 -0.32365
 H237 H 0.60935 0.30421 -0.42428
 H238 H 0.58045 0.33855 -0.33164
 C239 C 0.15345 0.87083 -0.26960
 C240 C 0.17946 0.89228 -0.30475
 C241 C 0.19944 0.87577 -0.35733
 C242 C 0.19370 0.83759 -0.37508
 C243 C 0.16836 0.81587 -0.33837
 C244 C 0.14837 0.83242 -0.28577
 C245 C 0.12945 0.88926 -0.22230
 C246 C 0.10819 0.90533 -0.18571
 H247 H 0.18332 0.92213 -0.29323
 H248 H 0.21848 0.89307 -0.38580
 H249 H 0.16305 0.78661 -0.35231
 H250 H 0.12800 0.81569 -0.25952
 C251 C 0.36099 0.64482 -0.27279
 C252 C 0.35826 0.68445 -0.27660
 C253 C 0.33901 0.70149 -0.32995
 C254 C 0.32217 0.67906 -0.38037
 C255 C 0.32470 0.63915 -0.37485
 C256 C 0.34371 0.62228 -0.32145
 C257 C 0.38430 0.62687 -0.22356
 C258 C 0.40475 0.61008 -0.18628
 H259 H 0.37213 0.70219 -0.23989
 H260 H 0.33922 0.73221 -0.33393
 H261 H 0.31203 0.62086 -0.41226
 H262 H 0.34587 0.59157 -0.31932
 C263 C -0.15975 1.12471 -0.26598
 C264 C -0.16653 1.16380 -0.27006
 C265 C -0.18729 1.17851 -0.32364
 C266 C -0.20147 1.15428 -0.37429
 C267 C -0.19541 1.11482 -0.36782
 C268 C -0.17491 1.10025 -0.31415
 C269 C -0.13407 1.10975 -0.21766
 C270 C -0.11129 1.09583 -0.18131
 H271 H -0.15442 1.18308 -0.23364
 H272 H -0.18997 1.20908 -0.32793
 H273 H -0.20615 1.09513 -0.40505
 H274 H -0.16972 1.06996 -0.31172
 C275 C 0.66060 0.62474 -0.27294
 C276 C 0.67905 0.60116 -0.31838
 C277 C 0.69927 0.61690 -0.37148
 C278 C 0.70175 0.65669 -0.37987
 C279 C 0.68365 0.68012 -0.33257
 C280 C 0.66334 0.66423 -0.27958
 C281 C 0.63593 0.60826 -0.22437
 C282 C 0.61400 0.59367 -0.18702
 H283 H 0.67687 0.57052 -0.31409
 H284 H 0.71284 0.59786 -0.40641
 H285 H 0.68324 0.71071 -0.33889
 H286 H 0.64856 0.68277 -0.24550
 C287 C 0.14418 1.14460 -0.26980
 C288 C 0.17032 1.12432 -0.30654
 C289 C 0.18918 1.14195 -0.35958
 C290 C 0.18217 1.18008 -0.37619
 C291 C 0.15669 1.20061 -0.33789
 C292 C 0.13784 1.18296 -0.28486
 C293 C 0.12116 1.12497 -0.22219
 C294 C 0.10069 1.10773 -0.18557
 H295 H 0.17512 1.09451 -0.29588
 H296 H 0.20836 1.12555 -0.38919
 H297 H 0.15040 1.22981 -0.35089
 H298 H 0.11733 1.19877 -0.25740
 C299 C 0.34380 0.37648 -0.26939
 C300 C 0.34789 0.33790 -0.28494
 C301 C 0.32782 0.32173 -0.33779
 C302 C 0.30328 0.34396 -0.37541
 C303 C 0.29849 0.38237 -0.35829
 C304 C 0.31862 0.39854 -0.30543
 C305 C 0.36821 0.39428 -0.22199
 C306 C 0.39006 0.40952 -0.18540
 H307 H 0.36765 0.32071 -0.25805
 H308 H 0.33248 0.29229 -0.35123
 H309 H 0.28010 0.40008 -0.38739
 H310 H 0.31557 0.42853 -0.29441
 C311 C -0.14248 0.85789 -0.26653
 C312 C -0.13421 0.82036 -0.28435
 C313 C -0.15276 0.80274 -0.33770
 C314 C -0.17986 0.82248 -0.37351
 C315 C -0.18875 0.85973 -0.35419
 C316 C -0.17019 0.87732 -0.30084
 C317 C -0.11989 0.87788 -0.21877
 C318 C -0.09977 0.89550 -0.18217
 H319 H -0.11248 0.80526 -0.25882
 H320 H -0.14504 0.77429 -0.35285
 H321 H -0.20919 0.87554 -0.38195
 H322 H -0.17648 0.90653 -0.28809
 C323 C 0.36118 0.64773 0.26591
 C324 C 0.36776 0.68583 0.28250
 C325 C 0.34882 0.70285 0.33598
 C326 C 0.32310 0.68190 0.37319
 C327 C 0.31585 0.64407 0.35502
 C328 C 0.33475 0.62711 0.30154
 C329 C 0.38423 0.62844 0.21808
 C330 C 0.40455 0.61101 0.18162
 H331 H 0.38849 0.70189 0.25592
 H332 H 0.35522 0.73184 0.35016
 H333 H 0.29645 0.62737 0.38377
 H334 H 0.32976 0.59748 0.28972
 C335 C -0.15326 1.12818 0.27464
 C336 C -0.15636 1.16751 0.28339
 C337 C -0.17720 1.18208 0.33678
 C338 C -0.19542 1.15745 0.38212
 C339 C -0.19219 1.11790 0.37207
 C340 C -0.17152 1.10349 0.31864
 C341 C -0.12870 1.11270 0.22510
 C342 C -0.10710 1.09821 0.18721
 H343 H -0.14169 1.18687 0.25046
 H344 H -0.17747 1.21255 0.34464
 H345 H -0.20572 1.09802 0.40574
 H346 H -0.16899 1.07297 0.31278
 C347 C 0.63860 0.35089 0.26709
 C348 C 0.63117 0.31225 0.27766
 C349 C 0.64822 0.29262 0.33066
 C350 C 0.67283 0.31155 0.37332
 C351 C 0.68118 0.34987 0.36093
 C352 C 0.66419 0.36944 0.30795
 C353 C 0.61704 0.37261 0.22008
 C354 C 0.59777 0.39156 0.18397
 H355 H 0.61109 0.29776 0.24687
 H356 H 0.64104 0.26323 0.34039
 H357 H 0.69972 0.36497 0.39407
 H358 H 0.66982 0.39942 0.30073
 C359 C 0.15591 0.87327 0.26940
 C360 C 0.15297 0.83421 0.28219
 C361 C 0.17258 0.81771 0.33543
 C362 C 0.19542 0.84013 0.37620
 C363 C 0.19905 0.87908 0.36192
 C364 C 0.17942 0.89555 0.30867
 C365 C 0.13188 0.89120 0.22144
 C366 C 0.11040 0.90682 0.18458
 H367 H 0.13447 0.81681 0.25276
 H368 H 0.16888 0.78778 0.34658
 H369 H 0.21615 0.89688 0.39341
 H370 H 0.18155 0.92588 0.29977
   
