data_POSCAR
  _audit_creation_date              2014-09-24
  _audit_creation_method            'ToBaCCo'
  _symmetry_space_group_name_H-M    'P1'
  _symmetry_Int_Tables_number       1
  _symmetry_cell_setting            triclinic
  loop_
  _symmetry_equiv_pos_as_xyz
 x,y,z
_cell_length_a 14.5921
_cell_length_b 14.6938
_cell_length_c 14.6886
_cell_angle_alpha 89.348400
_cell_angle_beta 91.749700
_cell_angle_gamma 89.997300
loop_
  _atom_site_label
  _atom_site_type_symbol
  _atom_site_fract_x
  _atom_site_fract_y
  _atom_site_fract_z
C1 C 0.00616 0.49901 0.23756
 C2 C 0.01859 0.49519 0.74014
 C3 C 0.22898 0.00483 0.50336
 C4 C 0.74920 -0.00296 0.49987
 C5 C 0.50330 0.26792 1.00160
 C6 C 0.49239 0.74185 0.99543
 B7 B 1.00366 1.09963 0.06517
 B8 B 0.99974 1.10070 -0.05684
 B9 B 1.09997 1.05967 0.00237
 B10 B 1.06129 0.99852 0.10035
 B11 B 0.94197 0.99948 0.10313
 B12 B 0.90185 1.06791 0.00837
 B13 B 0.99716 0.90111 -0.06043
 B14 B 1.00074 0.89995 0.05854
 B15 B 0.89674 0.94405 0.00064
 B16 B 0.93543 1.00685 -0.09644
 B17 B 1.05355 1.00055 -0.09786
 B18 B 1.09765 0.94039 0.00147
 B19 B 0.60841 0.49540 0.44495
 B20 B 0.50381 0.55455 0.39894
 B21 B 0.50964 0.43888 0.39724
 B22 B 0.56237 0.39472 0.49923
 B23 B 0.60384 0.49184 0.56244
 B24 B 0.56065 0.59583 0.50117
 B25 B 0.40336 0.49379 0.55305
 B26 B 0.49945 0.43110 0.59452
 B27 B 0.50071 0.55000 0.59851
 B28 B 0.44082 0.59484 0.49876
 B29 B 0.40549 0.49612 0.43247
 B30 B 0.44113 0.39667 0.49051
 C31 C 1.07303 1.27742 0.09955
 C32 C 1.07740 1.36783 0.13577
 C33 C 1.00201 1.40684 0.17801
 C34 C 0.92449 1.34893 0.17181
 C35 C 0.93492 1.25184 0.17303
 C36 C 1.00693 1.20827 0.12228
 C37 C 0.86661 1.20838 0.22029
 N38 N 0.78348 1.24796 0.23042
 N39 N 0.76560 1.33016 0.19624
 C40 C 0.83469 1.38239 0.16578
 H41 H 1.12056 1.26652 0.04943
 H42 H 1.13762 1.40906 0.12502
 H43 H 0.88096 1.15096 0.25806
 H44 H 0.82059 1.44818 0.13864
 C45 C 1.07123 0.71444 0.07116
 C46 C 1.06702 0.62012 0.10466
 C47 C 0.99899 0.58893 0.16711
 C48 C 0.93137 0.65682 0.17260
 C49 C 0.95375 0.75071 0.16653
 C50 C 1.01065 0.78627 0.10056
 C51 C 0.91794 0.80359 0.23179
 N52 N 0.83946 0.77775 0.26931
 N53 N 0.79997 0.70028 0.24360
 C54 C 0.84244 0.63907 0.19327
 H55 H 1.12376 0.72991 0.02357
 H56 H 1.12058 0.57367 0.08567
 H57 H 0.95810 0.85642 0.25928
 H58 H 0.81341 0.57401 0.18753
 C59 C 1.07818 1.26259 -0.11659
 C60 C 1.07673 1.35619 -0.14644
 C61 C 1.00794 1.39639 -0.20260
 C62 C 0.92756 1.33785 -0.20518
 C63 C 0.92619 1.24320 -0.16996
 C64 C 1.00267 1.20206 -0.12174
 C65 C 0.83985 1.20108 -0.17502
 N66 N 0.76299 1.24646 -0.19781
 N67 N 0.76331 1.33507 -0.21162
 C68 C 0.84177 1.37922 -0.22061
 H69 H 1.14039 1.23870 -0.08515
 H70 H 1.12541 1.40078 -0.11528
 H71 H 0.82627 1.14121 -0.13961
 H72 H 0.87690 1.34536 -0.27197
 C73 C 1.08221 0.75188 -0.17642
 C74 C 1.08498 0.66456 -0.22160
 C75 C 1.03189 0.58750 -0.19648
 C76 C 0.98283 0.60884 -0.11877
 C77 C 0.96023 0.70251 -0.09649
 C78 C 1.01308 0.78360 -0.11388
 C79 C 0.87821 0.71008 -0.06140
 N80 N 0.84587 0.64277 -0.00714
 N81 N 0.88656 0.56213 -0.00188
 C82 C 0.95292 0.54146 -0.06009
 H83 H 1.12548 0.79668 -0.21104
 H84 H 1.13002 0.65961 -0.27838
 H85 H 0.83615 0.76246 -0.09162
 H86 H 0.98534 0.47607 -0.05563
 C87 C 1.13541 1.08137 0.25419
 C88 C 1.15984 1.08416 0.34901
 C89 C 1.16076 1.00838 0.41023
 C90 C 1.12163 0.93283 0.36413
 C91 C 1.12400 0.92372 0.26700
 C92 C 1.11166 1.00019 0.20822
 C93 C 1.14187 0.83696 0.23672
 N94 N 1.12433 0.76581 0.29214
 N95 N 1.08885 0.77852 0.37328
 C96 C 1.08181 0.86212 0.40843
 H97 H 1.12461 1.14472 0.22219
 H98 H 1.18166 1.14713 0.37330
 H99 H 1.16729 0.82485 0.17058
 H100 H 1.03875 0.87521 0.46421
 C101 C 1.13848 1.07346 -0.24741
 C102 C 1.18400 1.07165 -0.33132
 C103 C 1.17512 1.00154 -0.39843
 C104 C 1.12255 0.92697 -0.36374
 C105 C 1.06781 0.93407 -0.28389
 C106 C 1.08980 0.99902 -0.21178
 C107 C 0.99123 0.87524 -0.28420
 N108 N 0.98393 0.80429 -0.34140
 N109 N 1.05184 0.78467 -0.39507
 C110 C 1.12488 0.84053 -0.40123
 H111 H 1.15158 1.13136 -0.20497
 H112 H 1.23634 1.12262 -0.33405
 H113 H 0.94338 0.87385 -0.23220
 H114 H 1.17660 0.82002 -0.44446
 C115 C 0.93637 1.01155 0.30519
 C116 C 0.89756 1.00082 0.39380
 C117 C 0.80259 0.99548 0.40432
 C118 C 0.75453 0.99887 0.31840
 C119 C 0.79821 0.98069 0.23426
 C120 C 0.89169 0.99697 0.21645
 C121 C 0.74315 0.94721 0.16832
 N122 N 0.65497 0.97327 0.16039
 N123 N 0.61693 1.01812 0.23082
 C124 C 0.66355 1.02676 0.31379
 H125 H 0.99581 1.04822 0.31110
 H126 H 0.94194 1.00840 0.45346
 H127 H 0.75433 0.87767 0.17048
 H128 H 0.60739 1.04154 0.26821
 C129 C 0.91863 1.06986 -0.28913
 C130 C 0.87885 1.06016 -0.38083
 C131 C 0.81359 0.99047 -0.40396
 C132 C 0.80485 0.92999 -0.32316
 C133 C 0.80757 0.97344 -0.23855
 C134 C 0.88570 1.01981 -0.21005
 C135 C 0.72086 1.01043 -0.23387
 N136 N 0.65101 0.94959 -0.24320
 N137 N 0.66909 0.86578 -0.27112
 C138 C 0.75087 0.85299 -0.30959
 H139 H 0.97303 1.11848 -0.28190
 H140 H 0.90044 1.10627 -0.43351
 H141 H 0.70829 1.08104 -0.22035
 H142 H 0.78201 0.78637 -0.30853
 C143 C 1.24891 1.17243 0.06953
 C144 C 1.33063 1.22441 0.06129
 C145 C 1.40588 1.20409 0.00310
 C146 C 1.37169 1.14207 -0.06446
 C147 C 1.28347 1.09381 -0.05933
 C148 C 1.21326 1.11119 0.00385
 C149 C 1.26493 1.02461 -0.11729
 N150 N 1.32094 1.01345 -0.18904
 N151 N 1.39180 1.07061 -0.20463
 C152 C 1.41750 1.13317 -0.14417
 H153 H 1.21293 1.18663 0.12861
 H154 H 1.32988 1.28555 0.10116
 H155 H 1.28700 0.98643 -0.17426
 H156 H 1.48102 1.16325 -0.15532
 C157 C 0.72771 1.12476 0.08613
 C158 C 0.63388 1.15708 0.07513
 C159 C 0.60961 1.22815 0.01551
 C160 C 0.69379 1.27763 -0.00534
 C161 C 0.78544 1.23626 0.00220
 C162 C 0.80200 1.14297 0.02745
 C163 C 0.85940 1.29381 -0.00701
 N164 N 0.84944 1.38267 -0.02281
 N165 N 0.76792 1.41977 -0.03334
 C166 C 0.69172 1.36978 -0.02912
 H167 H 0.74571 1.10704 0.15259
 H168 H 0.58092 1.13179 0.11770
 H169 H 0.92632 1.27083 -0.00127
 H170 H 0.63303 1.40289 -0.05369
 C171 C 1.23966 0.84224 -0.07027
 C172 C 1.32989 0.80781 -0.07871
 C173 C 1.39891 0.80791 -0.00795
 C174 C 1.37729 0.87957 0.05281
 C175 C 1.28293 0.90651 0.06749
 C176 C 1.20681 0.88606 0.00609
 C177 C 1.26782 0.97016 0.13187
 N178 N 1.34043 1.01831 0.16714
 N179 N 1.42559 1.01208 0.13292
 C180 C 1.44272 0.94674 0.07381
 H181 H 1.20717 0.86205 -0.13168
 H182 H 1.34873 0.79821 -0.14823
 H183 H 1.29722 1.01192 0.18402
 H184 H 1.50909 0.94881 0.04807
 C185 C 0.76240 0.80807 0.03772
 C186 C 0.67552 0.76339 0.03905
 C187 C 0.59362 0.79506 -0.00708
 C188 C 0.61224 0.87528 -0.05572
 C189 C 0.69784 0.92721 -0.04370
 C190 C 0.78322 0.89134 -0.00609
 C191 C 0.69308 1.01884 -0.05770
 N192 N 0.61051 1.05560 -0.09006
 N193 N 0.53795 1.00264 -0.11668
 C194 C 0.54077 0.91300 -0.10578
 H195 H 0.81502 0.77875 0.07881
 H196 H 0.67483 0.70017 0.07543
 H197 H 0.64963 1.07454 -0.07570
 H198 H 0.48401 0.87447 -0.12942
 C199 C 0.78600 0.41475 0.38238
 C200 C 0.87524 0.41445 0.34344
 C201 C 0.92089 0.49368 0.31103
 C202 C 0.88823 0.56645 0.36107
 C203 C 0.80125 0.56413 0.40738
 C204 C 0.73210 0.49198 0.40567
 C205 C 0.79482 0.62598 0.47196
 N206 N 0.85692 0.69211 0.48769
 N207 N 0.92679 0.70398 0.43442
 C208 C 0.94334 0.64239 0.37014
 H209 H 0.77392 0.35190 0.40943
 H210 H 0.90535 0.34826 0.33619
 H211 H 0.74141 0.61448 0.51233
 H212 H 1.00464 0.64789 0.33340
 C213 C 0.26416 0.56718 0.31782
 C214 C 0.17395 0.57023 0.27843
 C215 C 0.10433 0.50444 0.29590
 C216 C 0.13691 0.43900 0.36259
 C217 C 0.23423 0.42131 0.36699
 C218 C 0.29896 0.49446 0.37182
 C219 C 0.25009 0.35127 0.30569
 N220 N 0.18741 0.28381 0.29530
 N221 N 0.10889 0.28583 0.33967
 C222 C 0.08420 0.36329 0.38020
 H223 H 0.30860 0.61978 0.29617
 H224 H 0.16378 0.62540 0.23286
 H225 H 0.29523 0.36317 0.25075
 H226 H 0.02421 0.36674 0.41974
 C227 C 0.76324 0.56174 0.66196
 C228 C 0.85741 0.57119 0.69130
 C229 C 0.92714 0.50751 0.67211
 C230 C 0.89593 0.43951 0.60783
 C231 C 0.79718 0.42372 0.59109
 C232 C 0.72333 0.48809 0.61103
 C233 C 0.77626 0.33265 0.58181
 N234 N 0.83792 0.26871 0.56013
 N235 N 0.92611 0.28715 0.55713
 C236 C 0.95764 0.36839 0.58456
 H237 H 0.71884 0.61202 0.68793
 H238 H 0.87333 0.62812 0.73469
 H239 H 0.71770 0.30892 0.61130
 H240 H 1.03006 0.37093 0.59674
 C241 C 0.28282 0.49031 0.70059
 C242 C 0.19539 0.48814 0.73877
 C243 C 0.11290 0.48907 0.68572
 C244 C 0.12878 0.50627 0.59023
 C245 C 0.21936 0.53212 0.56453
 C246 C 0.29863 0.49604 0.60651
 C247 C 0.22166 0.62493 0.55221
 N248 N 0.15333 0.66584 0.50579
 N249 N 0.07753 0.62028 0.48843
 C250 C 0.06118 0.54085 0.53015
 H251 H 0.33666 0.49346 0.74941
 H252 H 0.19434 0.49642 0.81135
 H253 H 0.26291 0.66617 0.59678
 H254 H 0.00211 0.50556 0.50658
 C255 C 0.43305 0.57230 0.20967
 C256 C 0.42882 0.61684 0.12022
 C257 C 0.48764 0.69036 0.09675
 C258 C 0.53956 0.71843 0.17642
 C259 C 0.55875 0.66119 0.25326
 C260 C 0.49645 0.59672 0.28388
 C261 C 0.63402 0.68158 0.30734
 N262 N 0.66388 0.76739 0.31166
 N263 N 0.62850 0.82874 0.25558
 C264 C 0.56928 0.80593 0.18785
 H265 H 0.38976 0.51348 0.21742
 H266 H 0.38113 0.59107 0.06882
 H267 H 0.66008 0.63600 0.35529
 H268 H 0.55048 0.85463 0.14196
 C269 C 0.41517 0.63188 0.75272
 C270 C 0.41107 0.65023 0.84909
 C271 C 0.49082 0.67408 0.90330
 C272 C 0.56976 0.63809 0.85918
 C273 C 0.56228 0.58043 0.77996
 C274 C 0.49208 0.58958 0.71265
 C275 C 0.62046 0.50834 0.77403
 N276 N 0.70021 0.51236 0.82508
 N277 N 0.72321 0.59192 0.87151
 C278 C 0.65633 0.65215 0.89494
 H279 H 0.35458 0.64480 0.71181
 H280 H 0.34373 0.65208 0.87711
 H281 H 0.67935 0.47795 0.80592
 H282 H 0.72524 0.63497 0.88386
 C283 C 0.46372 0.32857 0.25577
 C284 C 0.47676 0.27977 0.17549
 C285 C 0.49874 0.32519 0.09386
 C286 C 0.53508 0.41159 0.11193
 C287 C 0.56851 0.43344 0.20332
 C288 C 0.52125 0.39793 0.28425
 C289 C 0.64173 0.49371 0.20336
 N290 N 0.66071 0.54354 0.12818
 N291 N 0.60963 0.53880 0.05224
 C292 C 0.54177 0.47727 0.04427
 H293 H 0.41180 0.30693 0.29848
 H294 H 0.45479 0.21006 0.17410
 H295 H 0.67976 0.50836 0.26121
 H296 H 0.50208 0.47453 -0.01861
 C297 C 0.56818 0.33314 0.74512
 C298 C 0.56828 0.29597 0.83458
 C299 C 0.50208 0.31783 0.90103
 C300 C 0.42509 0.36018 0.85905
 C301 C 0.41584 0.35969 0.76041
 C302 C 0.49253 0.37679 0.70333
 C303 C 0.33968 0.31201 0.72836
 N304 N 0.26668 0.30139 0.78152
 N305 N 0.26890 0.33606 0.86765
 C306 C 0.34832 0.36476 0.91119
 H307 H 0.62367 0.31889 0.70431
 H308 H 0.61480 0.24140 0.84801
 H309 H 0.33757 0.28586 0.66259
 H310 H 0.27535 0.36309 0.90647
 C311 C 0.67457 0.74810 0.54424
 C312 C 0.72749 0.82363 0.51446
 C313 C 0.68558 0.90507 0.49252
 C314 C 0.59279 0.88796 0.46104
 C315 C 0.55732 0.79465 0.44949
 C316 C 0.59850 0.71469 0.49564
 C317 C 0.48940 0.78557 0.38180
 N318 N 0.45307 0.85652 0.33698
 N319 N 0.47579 0.93882 0.36188
 C320 C 0.53704 0.95697 0.42882
 H321 H 0.70139 0.71040 0.59861
 H322 H 0.79907 0.82776 0.53337
 H323 H 0.46016 0.72357 0.36530
 H324 H 0.55053 1.02661 0.44194
 C325 C 0.66271 0.25032 0.43221
 C326 C 0.71513 0.16859 0.43897
 C327 C 0.69722 0.09652 0.50201
 C328 C 0.62633 0.11974 0.56182
 C329 C 0.58384 0.20956 0.56238
 C330 C 0.60801 0.28355 0.50182
 C331 C 0.50422 0.22029 0.60901
 N332 N 0.47093 0.14811 0.65746
 N333 N 0.51249 0.06511 0.65896
 C334 C 0.58674 0.05066 0.61131
 H335 H 0.66026 0.28626 0.36761
 H336 H 0.76707 0.16154 0.38920
 H337 H 0.45560 0.19067 0.65306
 H338 H 0.60889 -0.01748 0.60807
 C339 C 0.31949 0.74816 0.44427
 C340 C 0.29049 0.84170 0.43367
 C341 C 0.29725 0.91006 0.50121
 C342 C 0.35639 0.87508 0.57362
 C343 C 0.40401 0.78473 0.57481
 C344 C 0.38532 0.71070 0.50963
 C345 C 0.47501 0.77632 0.63965
 N346 N 0.48442 0.83444 0.70862
 N347 N 0.43411 0.90874 0.71230
 C348 C 0.37370 0.93219 0.64530
 H349 H 0.29522 0.70816 0.39198
 H350 H 0.26633 0.85913 0.36673
 H351 H 0.52493 0.72515 0.63790
 H352 H 0.34485 0.99907 0.64538
 C353 C 0.28558 0.27949 0.51264
 C354 C 0.24191 0.19150 0.52196
 C355 C 0.28295 0.10492 0.49892
 C356 C 0.35360 0.12375 0.43857
 C357 C 0.40597 0.20715 0.44087
 C358 C 0.37664 0.29136 0.48205
 C359 C 0.48490 0.20766 0.39341
 N360 N 0.49471 0.14700 0.32492
 N361 N 0.42616 0.08909 0.30207
 C362 C 0.35892 0.07293 0.36009
 H363 H 0.24804 0.33779 0.53528
 H364 H 0.17158 0.19238 0.54331
 H365 H 0.52840 0.17298 0.34720
 H366 H 0.31647 0.01509 0.34591
   
