data_POSCAR
  _audit_creation_date              2014-09-24
  _audit_creation_method            'ToBaCCo'
  _symmetry_space_group_name_H-M    'P1'
  _symmetry_Int_Tables_number       1
  _symmetry_cell_setting            triclinic
  loop_
  _symmetry_equiv_pos_as_xyz
 x,y,z
_cell_length_a 34.8473
_cell_length_b 35.6607
_cell_length_c 34.2386
_cell_angle_alpha 89.855400
_cell_angle_beta 90.032900
_cell_angle_gamma 90.745700
loop_
  _atom_site_label
  _atom_site_type_symbol
  _atom_site_fract_x
  _atom_site_fract_y
  _atom_site_fract_z
C1 C 0.30067 0.30801 0.24048
 H2 H 0.29761 0.31192 0.27155
 C3 C 0.32549 0.33155 0.21949
 H4 H 0.34221 0.35282 0.23461
 C5 C 0.28105 0.27744 0.18231
 H6 H 0.26314 0.25705 0.16761
 C7 C 0.30537 0.30053 0.16017
 H8 H 0.30648 0.29731 0.12874
 N9 N 0.27981 0.28086 0.22191
 C10 C 0.21497 0.27766 0.32294
 H11 H 0.23074 0.25572 0.33739
 C12 C 0.19335 0.30254 0.34509
 H13 H 0.19268 0.29977 0.37659
 C14 C 0.19650 0.30826 0.26443
 H15 H 0.19811 0.31031 0.23294
 C16 C 0.17426 0.33348 0.28540
 H17 H 0.15836 0.35482 0.27000
 Zn18 Zn 0.24731 0.24943 0.25292
 N19 N 0.21636 0.28114 0.28339
 C20 C 0.30403 0.23377 0.31044
 N21 N 0.27732 0.21815 0.28615
 C22 C 0.27131 0.18033 0.28553
 C23 C 0.29296 0.15676 0.30927
 C24 C 0.32617 0.21121 0.33483
 C25 C 0.17680 0.22003 0.22356
 C26 C 0.15352 0.19636 0.20099
 C27 C 0.21058 0.17035 0.17228
 C28 C 0.23277 0.19431 0.19551
 N29 N 0.21570 0.21861 0.22051
 H30 H 0.30798 0.26376 0.31143
 H31 H 0.24949 0.16822 0.26691
 H32 H 0.28816 0.12671 0.30813
 H33 H 0.34728 0.22401 0.35401
 H34 H 0.16370 0.23906 0.24394
 H35 H 0.12260 0.19747 0.20391
 H36 H 0.22449 0.15121 0.15244
 H37 H 0.26374 0.19329 0.19399
 C38 C 0.17316 0.33116 0.32628
 C39 C 0.32833 0.32744 0.17897
 C40 C 0.17049 0.17087 0.17539
 C41 C 0.32052 0.17227 0.33451
 C42 C 0.81867 0.78700 0.23116
 H43 H 0.83201 0.77092 0.25401
 C44 C 0.84110 0.81196 0.20915
 H45 H 0.87158 0.81406 0.21514
 C46 C 0.76380 0.80156 0.19364
 H47 H 0.73381 0.79681 0.18712
 C48 C 0.78519 0.82661 0.17073
 H49 H 0.77081 0.84170 0.14759
 N50 N 0.78046 0.78301 0.22383
 C51 C 0.71583 0.77820 0.32561
 H52 H 0.73381 0.75804 0.34003
 C53 C 0.69314 0.80184 0.34814
 H54 H 0.69430 0.80010 0.37970
 C55 C 0.69160 0.80492 0.26733
 H56 H 0.69065 0.80574 0.23586
 C57 C 0.66823 0.82882 0.28872
 H58 H 0.64958 0.84809 0.27357
 Zn59 Zn 0.74876 0.75099 0.25497
 N60 N 0.71547 0.78076 0.28591
 C61 C 0.80223 0.73525 0.31552
 N62 N 0.77918 0.71979 0.28756
 C63 C 0.77696 0.68195 0.28268
 C64 C 0.79831 0.65814 0.30640
 C65 C 0.82394 0.71241 0.34004
 C66 C 0.68166 0.71291 0.22963
 C67 C 0.66022 0.68874 0.20586
 C68 C 0.71613 0.68086 0.16504
 C69 C 0.73655 0.70508 0.18964
 N70 N 0.71916 0.72034 0.22129
 H71 H 0.80346 0.76539 0.31902
 H72 H 0.75853 0.67005 0.26045
 H73 H 0.79649 0.62810 0.30202
 H74 H 0.84200 0.72499 0.36231
 H75 H 0.66859 0.72517 0.25513
 H76 H 0.63051 0.68258 0.21296
 H77 H 0.73020 0.66872 0.13997
 H78 H 0.76645 0.71143 0.18381
 C79 C 0.66971 0.82810 0.32961
 C80 C 0.82426 0.83321 0.17913
 C81 C 0.67770 0.67205 0.17353
 C82 C 0.82169 0.67336 0.33582
 C83 C 0.81057 0.30291 0.74284
 H84 H 0.81351 0.30043 0.77419
 C85 C 0.83620 0.32548 0.72167
 H86 H 0.85887 0.34065 0.73675
 C87 C 0.77720 0.28645 0.68483
 H88 H 0.75398 0.27142 0.67066
 C89 C 0.80226 0.30861 0.66254
 H90 H 0.79841 0.31038 0.63120
 N91 N 0.78191 0.28386 0.72419
 C92 C 0.69122 0.26646 0.81049
 H93 H 0.68992 0.23620 0.81257
 C94 C 0.66638 0.28796 0.83287
 H95 H 0.64678 0.27419 0.85301
 C96 C 0.71803 0.32126 0.78154
 H97 H 0.73795 0.33414 0.76124
 C98 C 0.69308 0.34378 0.80277
 H99 H 0.69413 0.37393 0.79885
 Zn100 Zn 0.74881 0.25292 0.75428
 N101 N 0.71667 0.28329 0.78567
 C102 C 0.77340 0.21711 0.82480
 N103 N 0.77972 0.22116 0.78583
 C104 C 0.80888 0.20284 0.76813
 C105 C 0.83135 0.17760 0.78906
 C106 C 0.79467 0.19170 0.84673
 C107 C 0.67879 0.22868 0.71985
 C108 C 0.65520 0.20755 0.69512
 C109 C 0.71134 0.17612 0.67101
 C110 C 0.73388 0.19763 0.69647
 N111 N 0.71741 0.22331 0.72037
 H112 H 0.75198 0.23355 0.83928
 H113 H 0.81477 0.20775 0.73755
 H114 H 0.85313 0.16244 0.77330
 H115 H 0.78943 0.19001 0.87787
 H116 H 0.66607 0.24960 0.73831
 H117 H 0.62449 0.21181 0.69539
 H118 H 0.72480 0.15588 0.65207
 H119 H 0.76456 0.19409 0.69671
 C120 C 0.66655 0.32707 0.82846
 C121 C 0.83241 0.32803 0.68097
 C122 C 0.67155 0.18126 0.66998
 C123 C 0.82339 0.17014 0.82883
 C124 C 0.31943 0.78285 0.73001
 H125 H 0.33154 0.76303 0.75028
 C126 C 0.34393 0.80646 0.70865
 H127 H 0.37469 0.80476 0.71270
 C128 C 0.26512 0.80864 0.69872
 H129 H 0.23455 0.80878 0.69400
 C130 C 0.28857 0.83275 0.67682
 H131 H 0.27579 0.85178 0.65597
 N132 N 0.28070 0.78451 0.72503
 C133 C 0.21377 0.77862 0.82510
 H134 H 0.23251 0.75961 0.84009
 C135 C 0.19010 0.80177 0.84709
 H136 H 0.19162 0.80101 0.87868
 C137 C 0.18745 0.80207 0.76630
 H138 H 0.18559 0.80133 0.73488
 C139 C 0.16305 0.82544 0.78716
 H140 H 0.14310 0.84312 0.77163
 Zn141 Zn 0.24796 0.75178 0.75443
 N142 N 0.21324 0.78023 0.78533
 C143 C 0.29868 0.73464 0.81704
 N144 N 0.27864 0.72021 0.78628
 C145 C 0.28111 0.68331 0.77676
 C146 C 0.30319 0.65915 0.79935
 C147 C 0.31990 0.71115 0.84131
 C148 C 0.18973 0.70034 0.73638
 C149 C 0.16784 0.67611 0.71313
 C150 C 0.20540 0.69581 0.65721
 C151 C 0.22666 0.71963 0.68154
 N152 N 0.21857 0.72132 0.72036
 H153 H 0.29778 0.76438 0.82302
 H154 H 0.26634 0.67257 0.75131
 H155 H 0.30546 0.63003 0.79086
 H156 H 0.33463 0.72287 0.86641
 H157 H 0.18406 0.70221 0.76737
 H158 H 0.14514 0.65928 0.72620
 H159 H 0.21203 0.69454 0.62634
 H160 H 0.24996 0.73625 0.66950
 C161 C 0.16522 0.82629 0.82800
 C162 C 0.32840 0.83204 0.68205
 C163 C 0.17600 0.67337 0.67319
 C164 C 0.32170 0.67269 0.83299
 C165 C 0.05127 0.05670 0.01474
 H166 H 0.05259 0.05853 -0.01678
 C167 C 0.07558 0.07910 0.03758
 H168 H 0.09578 0.09819 0.02364
 C169 C 0.02337 0.02959 0.07147
 H170 H 0.00270 0.01064 0.08465
 C171 C 0.04694 0.05161 0.09537
 H172 H 0.04441 0.04938 0.12682
 N173 N 0.02649 0.03189 0.03191
 C174 C 0.00891 -0.05689 -0.05441
 H175 H -0.02209 -0.05872 -0.05509
 C176 C 0.03059 -0.08003 -0.07850
 H177 H 0.01625 -0.09961 -0.09794
 C178 C 0.06551 -0.02924 -0.02820
 H179 H 0.07912 -0.00989 -0.00819
 C180 C 0.08824 -0.05199 -0.05157
 H181 H 0.11922 -0.04982 -0.04960
 Zn182 Zn -0.00447 0.00080 -0.00046
 N183 N 0.02657 -0.03136 -0.03073
 C184 C -0.03477 0.02742 -0.07256
 N185 N -0.03404 0.03228 -0.03315
 C186 C -0.05463 0.05982 -0.01584
 C187 C -0.07846 0.08266 -0.03817
 C188 C -0.05857 0.04931 -0.09589
 C189 C -0.02036 -0.05639 0.05344
 C190 C -0.04268 -0.07873 0.07837
 C191 C -0.09913 -0.04685 0.05521
 C192 C -0.07576 -0.02521 0.03060
 N193 N -0.03705 -0.02978 0.03077
 H194 H -0.01740 0.00626 -0.08604
 H195 H -0.05298 0.06357 0.01546
 H196 H -0.09510 0.10419 -0.02405
 H197 H -0.05970 0.04448 -0.12709
 H198 H 0.01043 -0.05979 0.05255
 H199 H -0.02910 -0.09951 0.09669
 H200 H -0.12983 -0.04252 0.05545
 H201 H -0.08860 -0.00453 0.01177
 C202 C 0.07071 -0.07701 -0.07779
 C203 C 0.07402 0.07604 0.07837
 C204 C -0.08243 -0.07342 0.07997
 C205 C -0.08140 0.07671 -0.07854
 C206 C 0.03694 0.56898 0.52279
 H207 H 0.02196 0.58048 0.49793
 C208 C 0.06117 0.59203 0.54495
 H209 H 0.06465 0.62136 0.53725
 C210 C 0.05131 0.51668 0.56295
 H211 H 0.04732 0.48721 0.56958
 C212 C 0.07574 0.53876 0.58593
 H213 H 0.09046 0.52635 0.61055
 N214 N 0.03266 0.53202 0.53199
 C215 C 0.01560 0.44909 0.44001
 H216 H -0.01534 0.44782 0.43752
 C217 C 0.03816 0.42755 0.41518
 H218 H 0.02454 0.40967 0.39358
 C219 C 0.07115 0.47393 0.47104
 H220 H 0.08399 0.49203 0.49279
 C221 C 0.09474 0.45262 0.44706
 H222 H 0.12559 0.45416 0.45078
 Zn223 Zn 0.00096 0.50082 0.50089
 N224 N 0.03229 0.47175 0.46729
 C225 C -0.02939 0.53269 0.43124
 N226 N -0.03249 0.53139 0.47088
 C227 C -0.05871 0.55261 0.48991
 C228 C -0.08377 0.57538 0.46902
 C229 C -0.05408 0.55491 0.40920
 C230 C -0.02996 0.43115 0.52812
 C231 C -0.05101 0.40773 0.55309
 C232 C -0.06702 0.46178 0.59185
 C233 C -0.04574 0.48423 0.56607
 N234 N -0.02806 0.46879 0.53462
 H235 H -0.00756 0.51687 0.41654
 H236 H -0.06002 0.55222 0.52137
 H237 H -0.10438 0.59225 0.48454
 H238 H -0.05150 0.55549 0.37768
 H239 H -0.01519 0.41904 0.50366
 H240 H -0.05274 0.37791 0.54728
 H241 H -0.08101 0.47440 0.61672
 H242 H -0.04276 0.51393 0.57163
 C243 C 0.07823 0.42946 0.41842
 C244 C 0.08121 0.57677 0.57659
 C245 C -0.06960 0.42305 0.58550
 C246 C -0.08201 0.57611 0.42815
 C247 C 0.55394 0.05890 0.51356
 H248 H 0.55544 0.05849 0.48200
 C249 C 0.57679 0.08413 0.53464
 H250 H 0.59628 0.10292 0.51930
 C251 C 0.52690 0.03474 0.57212
 H252 H 0.50704 0.01585 0.58661
 C253 C 0.54895 0.05978 0.59430
 H254 H 0.54624 0.05975 0.62582
 N255 N 0.52999 0.03453 0.53249
 C256 C 0.51334 -0.05466 0.44642
 H257 H 0.48235 -0.05633 0.44515
 C258 C 0.53534 -0.07752 0.42233
 H259 H 0.52125 -0.09670 0.40228
 C260 C 0.56960 -0.02784 0.47423
 H261 H 0.58292 -0.00898 0.49496
 C262 C 0.59264 -0.05037 0.45094
 H263 H 0.62357 -0.04851 0.45365
 Zn264 Zn 0.49937 0.00177 0.50169
 N265 N 0.53070 -0.02970 0.47095
 C266 C 0.46744 0.02920 0.43022
 N267 N 0.46798 0.03227 0.46984
 C268 C 0.44614 0.05798 0.48852
 C269 C 0.42134 0.08082 0.46742
 C270 C 0.44287 0.05139 0.40799
 C271 C 0.48618 -0.05337 0.55887
 C272 C 0.46461 -0.07612 0.58412
 C273 C 0.40680 -0.05014 0.55668
 C274 C 0.42943 -0.02787 0.53200
 N275 N 0.46840 -0.02934 0.53403
 H276 H 0.48584 0.00950 0.41573
 H277 H 0.44770 0.06036 0.51998
 H278 H 0.40387 0.10099 0.48264
 H279 H 0.44217 0.04834 0.37653
 H280 H 0.51719 -0.05445 0.55939
 H281 H 0.47898 -0.09487 0.60412
 H282 H 0.37582 -0.04843 0.55520
 H283 H 0.41577 -0.00942 0.51134
 C284 C 0.57547 -0.07486 0.42393
 C285 C 0.57404 0.08499 0.57549
 C286 C 0.42447 -0.07408 0.58351
 C287 C 0.41896 0.07700 0.42676
 C288 C 0.55316 0.55982 0.01534
 H289 H 0.54850 0.56580 -0.01520
 C290 C 0.57874 0.58216 0.03679
 H291 H 0.59358 0.60539 0.02270
 C292 C 0.53992 0.52234 0.07112
 H293 H 0.52532 0.49861 0.08429
 C294 C 0.56517 0.54396 0.09361
 H295 H 0.56922 0.53726 0.12420
 N296 N 0.53402 0.53081 0.03281
 C297 C 0.51805 0.46465 -0.06840
 H298 H 0.49338 0.47851 -0.08053
 C299 C 0.53936 0.44078 -0.09195
 H300 H 0.53172 0.43748 -0.12243
 C301 C 0.55787 0.45143 -0.01406
 H302 H 0.56478 0.45572 0.01642
 C303 C 0.57943 0.42666 -0.03637
 H304 H 0.60306 0.41193 -0.02299
 Zn305 Zn 0.49915 0.50127 0.00299
 N306 N 0.52785 0.46985 -0.03030
 C307 C 0.48070 0.54968 -0.05989
 N308 N 0.46668 0.53312 -0.02688
 C309 C 0.42984 0.53873 -0.01532
 C310 C 0.40552 0.56115 -0.03746
 C311 C 0.45686 0.57110 -0.08372
 C312 C 0.46717 0.43273 0.02958
 C313 C 0.44556 0.40908 0.05379
 C314 C 0.42789 0.46291 0.09221
 C315 C 0.45005 0.48556 0.06741
 N316 N 0.46910 0.47025 0.03673
 H317 H 0.51013 0.54528 -0.06850
 H318 H 0.41904 0.52590 0.01105
 H319 H 0.37656 0.56592 -0.02732
 H320 H 0.46815 0.58297 -0.11056
 H321 H 0.48218 0.42106 0.00494
 H322 H 0.44412 0.37928 0.04781
 H323 H 0.41278 0.47531 0.11650
 H324 H 0.45219 0.51542 0.07267
 C325 C 0.57000 0.42088 -0.07574
 C326 C 0.58500 0.57414 0.07634
 C327 C 0.42582 0.42422 0.08554
 C328 C 0.41849 0.57647 -0.07292
 C329 C 0.09185 -0.13939 -0.10013
 C330 C 0.11499 -0.16263 -0.12240
 C331 C 0.14139 -0.14752 -0.14919
 C332 C 0.14448 -0.10802 -0.15358
 C333 C 0.12035 -0.08438 -0.13145
 C334 C 0.09440 -0.10032 -0.10394
 C335 C 0.12281 -0.04543 -0.13795
 N336 N 0.14896 -0.03123 -0.16349
 N337 N 0.17269 -0.05330 -0.18305
 C338 C 0.17146 -0.09111 -0.17890
 H339 H 0.07216 -0.15199 -0.07926
 H340 H 0.11231 -0.19273 -0.11870
 H341 H 0.10409 -0.02612 -0.12323
 H342 H 0.19177 -0.10745 -0.19526
 C343 C 0.09734 0.36706 0.39446
 C344 C 0.12061 0.34340 0.37288
 C345 C 0.15012 0.35791 0.34930
 C346 C 0.15636 0.39729 0.34766
 C347 C 0.13204 0.42147 0.36895
 C348 C 0.10273 0.40605 0.39311
 C349 C 0.13767 0.46044 0.36489
 N350 N 0.16689 0.47401 0.34263
 N351 N 0.19074 0.45130 0.32405
 C352 C 0.18658 0.41349 0.32588
 H353 H 0.07515 0.35479 0.41280
 H354 H 0.11542 0.31340 0.37445
 H355 H 0.11902 0.48028 0.37891
 H356 H 0.20713 0.39655 0.31052
 C357 C 0.59601 -0.13726 0.40101
 C358 C 0.61913 -0.16059 0.37881
 C359 C 0.64650 -0.14558 0.35298
 C360 C 0.65072 -0.10606 0.34966
 C361 C 0.62658 -0.08230 0.37164
 C362 C 0.59950 -0.09817 0.39807
 C363 C 0.63013 -0.04330 0.36601
 N364 N 0.65730 -0.02921 0.34154
 N365 N 0.68104 -0.05144 0.32220
 C366 C 0.67880 -0.08930 0.32550
 H367 H 0.57549 -0.14983 0.42105
 H368 H 0.61554 -0.19070 0.38169
 H369 H 0.61144 -0.02384 0.38056
 H370 H 0.69917 -0.10580 0.30940
 C371 C 0.63280 0.40131 -0.10191
 C372 C 0.65589 0.37924 -0.12543
 C373 C 0.63999 0.35057 -0.14848
 C374 C 0.59966 0.34430 -0.14786
 C375 C 0.57630 0.36578 -0.12261
 C376 C 0.59303 0.39517 -0.10015
 C377 C 0.53695 0.35662 -0.12033
 N378 N 0.52178 0.32967 -0.14377
 N379 N 0.54329 0.31110 -0.16914
 C380 C 0.58159 0.31757 -0.17212
 H381 H 0.64612 0.42362 -0.08506
 H382 H 0.68659 0.38445 -0.12543
 H383 H 0.51810 0.37031 -0.09996
 H384 H 0.59737 0.30197 -0.19366
 C385 C -0.09294 0.11951 -0.13407
 C386 C -0.11626 0.14145 -0.15759
 C387 C -0.15600 0.14449 -0.15037
 C388 C -0.17247 0.12093 -0.12057
 C389 C -0.14832 0.09875 -0.09647
 C390 C -0.10813 0.09900 -0.10276
 C391 C -0.16548 0.07523 -0.06813
 N392 N -0.20417 0.07314 -0.06495
 N393 N -0.22692 0.09235 -0.08865
 C394 C -0.21255 0.11549 -0.11663
 H395 H -0.06235 0.11937 -0.13975
 H396 H -0.10205 0.15843 -0.17965
 H397 H -0.14871 0.05755 -0.04921
 H398 H -0.23276 0.12813 -0.13643
 C399 C -0.09218 0.62847 0.38194
 C400 C -0.11536 0.65232 0.36030
 C401 C -0.15541 0.64851 0.36129
 C402 C -0.17244 0.62032 0.38520
 C403 C -0.14879 0.59556 0.40669
 C404 C -0.10830 0.60004 0.40527
 C405 C -0.16663 0.56668 0.42842
 N406 N -0.20545 0.56404 0.42986
 N407 N -0.22763 0.58818 0.41093
 C408 C -0.21250 0.61624 0.38876
 H409 H -0.06132 0.63232 0.38058
 H410 H -0.10189 0.67367 0.34217
 H411 H -0.15018 0.54601 0.44408
 H412 H -0.23198 0.63518 0.37442
 C413 C 0.40759 0.12492 0.37584
 C414 C 0.38396 0.14830 0.35414
 C415 C 0.34412 0.14779 0.35970
 C416 C 0.32784 0.12338 0.38816
 C417 C 0.35185 0.09907 0.40979
 C418 C 0.39215 0.10031 0.40382
 C419 C 0.33451 0.07388 0.43634
 N420 N 0.29602 0.07437 0.44199
 N421 N 0.27368 0.09818 0.42281
 C422 C 0.28824 0.12274 0.39621
 H423 H 0.43830 0.12623 0.37095
 H424 H 0.39685 0.16675 0.33250
 H425 H 0.35106 0.05363 0.45248
 H426 H 0.26871 0.14163 0.38188
 C427 C 0.40557 0.63459 -0.11034
 C428 C 0.38218 0.65789 -0.13233
 C429 C 0.34445 0.64718 -0.14175
 C430 C 0.33013 0.61192 -0.12836
 C431 C 0.35484 0.58712 -0.10817
 C432 C 0.39256 0.59917 -0.09788
 C433 C 0.34095 0.55078 -0.09951
 N434 N 0.30392 0.54137 -0.10723
 N435 N 0.27991 0.56567 -0.12332
 C436 C 0.29165 0.60062 -0.13393
 H437 H 0.43416 0.64446 -0.10283
 H438 H 0.39383 0.68456 -0.14229
 H439 H 0.35915 0.52958 -0.08706
 H440 H 0.27062 0.61924 -0.14624
 C441 C -0.13522 -0.11896 0.09166
 C442 C -0.15838 -0.14108 0.11573
 C443 C -0.15369 -0.14101 0.15659
 C444 C -0.12637 -0.11541 0.17323
 C445 C -0.10253 -0.09313 0.14843
 C446 C -0.10662 -0.09563 0.10733
 C447 C -0.07640 -0.06766 0.16568
 N448 N -0.07490 -0.06417 0.20504
 N449 N -0.09810 -0.08397 0.22829
 C450 C -0.12402 -0.10898 0.21382
 H451 H -0.13906 -0.12072 0.06030
 H452 H -0.17881 -0.15995 0.10185
 H453 H -0.05777 -0.04980 0.14835
 H454 H -0.14329 -0.12252 0.23426
 C455 C -0.13215 0.40532 0.61461
 C456 C -0.15582 0.38209 0.63708
 C457 C -0.14078 0.35163 0.65768
 C458 C -0.10088 0.34450 0.65556
 C459 C -0.07667 0.36850 0.63307
 C460 C -0.09270 0.39876 0.61192
 C461 C -0.03703 0.36152 0.63285
 N462 N -0.02300 0.33166 0.65257
 N463 N -0.04588 0.30839 0.67255
 C464 C -0.08428 0.31370 0.67464
 H465 H -0.14485 0.42829 0.59861
 H466 H -0.18623 0.38792 0.63842
 H467 H -0.01700 0.37961 0.61745
 H468 H -0.10139 0.29366 0.69101
 C469 C 0.37632 -0.12451 0.59416
 C470 C 0.35314 -0.14702 0.61788
 C471 C 0.35368 -0.14297 0.65857
 C472 C 0.37770 -0.11509 0.67564
 C473 C 0.40139 -0.09217 0.65145
 C474 C 0.40080 -0.09727 0.61038
 C475 C 0.42407 -0.06407 0.66920
 N476 N 0.42315 -0.05959 0.70850
 N477 N 0.40089 -0.08104 0.73119
 C478 C 0.37803 -0.10847 0.71614
 H479 H 0.37534 -0.12852 0.56281
 H480 H 0.33477 -0.16804 0.60438
 H481 H 0.44216 -0.04532 0.65228
 H482 H 0.36003 -0.12444 0.73596
 C483 C 0.36245 0.40248 0.10935
 C484 C 0.33891 0.37873 0.13140
 C485 C 0.35474 0.35171 0.15616
 C486 C 0.39516 0.34849 0.15870
 C487 C 0.41911 0.37267 0.13624
 C488 C 0.40244 0.39961 0.11117
 C489 C 0.45912 0.36921 0.13989
 N490 N 0.47388 0.34271 0.16385
 N491 N 0.45138 0.31952 0.18439
 C492 C 0.41258 0.32144 0.18260
 H493 H 0.34936 0.42294 0.09023
 H494 H 0.30805 0.38149 0.12923
 H495 H 0.47878 0.38739 0.12410
 H496 H 0.39578 0.30174 0.19976
 C497 C 0.09791 0.13791 0.10106
 C498 C 0.12063 0.16070 0.12491
 C499 C 0.14634 0.14507 0.15169
 C500 C 0.14893 0.10550 0.15465
 C501 C 0.12631 0.08229 0.12984
 C502 C 0.10016 0.09877 0.10327
 C503 C 0.13106 0.04321 0.13217
 N504 N 0.15547 0.02854 0.15882
 N505 N 0.17554 0.05025 0.18316
 C506 C 0.17305 0.08815 0.18209
 H507 H 0.07807 0.15093 0.08094
 H508 H 0.11832 0.19088 0.12228
 H509 H 0.11585 0.02416 0.11296
 H510 H 0.18977 0.10424 0.20287
 C511 C 0.09125 0.63090 0.62051
 C512 C 0.11397 0.65386 0.64414
 C513 C 0.15335 0.64749 0.64818
 C514 C 0.17012 0.61703 0.62816
 C515 C 0.14705 0.59391 0.60367
 C516 C 0.10718 0.60075 0.60030
 C517 C 0.16490 0.56493 0.58293
 N518 N 0.20292 0.55875 0.58776
 N519 N 0.22429 0.57963 0.61176
 C520 C 0.20923 0.60845 0.63217
 H521 H 0.06084 0.63648 0.61823
 H522 H 0.10075 0.67701 0.65927
 H523 H 0.14914 0.54727 0.56277
 H524 H 0.22794 0.62417 0.65147
 C525 C 0.62351 0.09612 0.62607
 C526 C 0.64747 0.11920 0.64828
 C527 C 0.64695 0.15824 0.64376
 C528 C 0.62203 0.17427 0.61568
 C529 C 0.59696 0.15079 0.59367
 C530 C 0.59816 0.11130 0.59867
 C531 C 0.57102 0.16782 0.56780
 N532 N 0.57168 0.20557 0.56298
 N533 N 0.59634 0.22744 0.58238
 C534 C 0.62156 0.21313 0.60844
 H535 H 0.62485 0.06603 0.63023
 H536 H 0.66628 0.10648 0.66961
 H537 H 0.55005 0.15163 0.55156
 H538 H 0.64115 0.23226 0.62296
 C539 C 0.60174 0.63593 0.10456
 C540 C 0.62366 0.65934 0.12850
 C541 C 0.65563 0.64568 0.14855
 C542 C 0.66572 0.60749 0.14432
 C543 C 0.64369 0.58377 0.11949
 C544 C 0.61105 0.59809 0.10003
 C545 C 0.65537 0.54644 0.11472
 N546 N 0.68610 0.53355 0.13474
 N547 N 0.70598 0.55545 0.15908
 C548 C 0.69681 0.59189 0.16465
 H549 H 0.57685 0.64728 0.08995
 H550 H 0.61559 0.68844 0.13145
 H551 H 0.64058 0.52743 0.09512
 H552 H 0.71380 0.60814 0.18506
   
