data_POSCAR
  _audit_creation_date              2014-09-24
  _audit_creation_method            'ToBaCCo'
  _symmetry_space_group_name_H-M    'P1'
  _symmetry_Int_Tables_number       1
  _symmetry_cell_setting            triclinic
  loop_
  _symmetry_equiv_pos_as_xyz
 x,y,z
_cell_length_a 40.5387
_cell_length_b 40.3334
_cell_length_c 14.9365
_cell_angle_alpha 91.283200
_cell_angle_beta 88.495400
_cell_angle_gamma 119.571300
loop_
  _atom_site_label
  _atom_site_type_symbol
  _atom_site_fract_x
  _atom_site_fract_y
  _atom_site_fract_z
O1 O 0.18881 0.46359 0.47744
 O2 O 0.27287 0.49071 0.61158
 O3 O 0.21338 0.49758 0.63159
 O4 O 0.25309 0.46318 0.45252
 O5 O 0.28154 0.52075 0.39424
 O6 O 0.24118 0.55503 0.57261
 O7 O 0.30179 0.54871 0.55593
 O8 O 0.21666 0.52112 0.41908
 Cu9 Cu 0.22902 0.47300 0.54859
 Cu10 Cu 0.26308 0.54201 0.47860
 C11 C 0.18794 0.48783 0.42657
 C12 C 0.30153 0.52395 0.60781
 C13 C 0.22069 0.53211 0.63320
 C14 C 0.27514 0.48660 0.39424
 O15 O 0.54818 -0.26398 0.44729
 O16 O 0.51760 -0.21931 0.62376
 O17 O 0.51806 -0.28291 0.60484
 O18 O 0.54886 -0.19833 0.46552
 O19 O 0.49173 -0.22499 0.40777
 O20 O 0.46032 -0.30908 0.55064
 O21 O 0.46055 -0.24489 0.56564
 O22 O 0.49088 -0.29075 0.39050
 Cu23 Cu 0.53899 -0.23832 0.54059
 Cu24 Cu 0.47027 -0.27002 0.47192
 C25 C 0.52433 -0.28607 0.39036
 C26 C 0.48399 -0.22450 0.62516
 C27 C 0.48410 -0.31029 0.60221
 C28 C 0.52522 -0.19695 0.41394
 O29 O 1.27382 0.79793 0.37914
 O30 O 1.19796 0.74999 0.54863
 O31 O 1.26357 0.81390 0.54309
 O32 O 1.20893 0.73594 0.38467
 O33 O 1.23721 0.70455 0.42956
 O34 O 1.29170 0.78265 0.58973
 O35 O 1.22617 0.71881 0.59503
 O36 O 1.30219 0.76680 0.42509
 Cu37 Cu 1.23326 0.77766 0.45978
 Cu38 Cu 1.26716 0.74015 0.51529
 C39 C 1.30083 0.79048 0.37290
 C40 C 1.19855 0.72542 0.59923
 C41 C 1.28755 0.81192 0.59223
 C42 C 1.21363 0.70706 0.37987
 O43 O 0.80666 0.56042 0.43148
 O44 O 0.74070 0.54870 0.61026
 O45 O 0.79494 0.53164 0.59373
 O46 O 0.74011 0.55696 0.43993
 O47 O 0.70553 0.49591 0.40602
 O48 O 0.75892 0.47102 0.55722
 O49 O 0.70486 0.48736 0.57926
 O50 O 0.77333 0.49966 0.39269
 Cu51 Cu 0.77403 0.55472 0.52182
 Cu52 Cu 0.73267 0.48285 0.47888
 C53 C 0.80218 0.53283 0.38197
 C54 C 0.71175 0.51694 0.62637
 C55 C 0.78564 0.49660 0.60227
 C56 C 0.71261 0.52998 0.39787
 O57 O 0.47037 0.26962 0.42867
 O58 O 0.45533 0.19306 0.58227
 O59 O 0.47204 0.26410 0.60381
 O60 O 0.45279 0.19844 0.41236
 O61 O 0.51391 0.21696 0.40070
 O62 O 0.53320 0.28314 0.59221
 O63 O 0.51647 0.21184 0.57202
 O64 O 0.53140 0.28792 0.41775
 Cu65 Cu 0.45659 0.22994 0.50820
 Cu66 Cu 0.52994 0.25203 0.49498
 C67 C 0.50323 0.29131 0.39569
 C68 C 0.48332 0.18882 0.60148
 C69 C 0.50573 0.28464 0.63111
 C70 C 0.48000 0.19600 0.37501
 O71 O 0.80268 0.27479 0.60205
 O72 O 0.75317 0.19433 0.44585
 O73 O 0.81476 0.26180 0.43684
 O74 O 0.74161 0.20899 0.60867
 O75 O 0.70839 0.23539 0.56434
 O76 O 0.78134 0.28759 0.39022
 O77 O 0.71964 0.22019 0.40047
 O78 O 0.76970 0.30118 0.55643
 Cu79 Cu 0.78157 0.23248 0.52742
 Cu80 Cu 0.74150 0.26370 0.47246
 C81 C 0.79468 0.30156 0.60661
 C82 C 0.72710 0.19301 0.39835
 C83 C 0.81088 0.28418 0.38523
 C84 C 0.71251 0.21308 0.61569
 O85 O 1.03965 0.59411 0.15568
 O86 O 1.08764 0.58611 0.09295
 C87 C 1.07503 0.60335 0.14631
 O88 O 0.93991 0.42242 0.14546
 O89 O 0.90251 0.43015 0.04433
 C90 C 0.90726 0.41266 0.11043
 O91 O 1.04575 0.48278 0.18546
 O92 O 1.09028 0.53395 0.10543
 C93 C 1.08038 0.51014 0.17026
 O94 O 0.93462 0.53826 0.11851
 O95 O 0.89988 0.48472 0.03241
 C96 C 0.90261 0.51044 0.08969
 Zr97 Zr 0.99127 0.55000 0.09313
 O98 O 0.97940 0.55206 0.23132
 O99 O 0.99065 0.60116 0.07003
 Zr100 Zr 0.99477 0.46848 0.11512
 O101 O 0.98176 0.46767 0.25357
 O102 O 1.00038 0.41938 0.12928
 O103 O 1.02522 0.52742 0.13178
 O104 O 0.95957 0.49181 0.10996
 O105 O 0.95721 0.54192 -0.18675
 O106 O 0.91060 0.48848 -0.11695
 C107 C 0.92212 0.51660 -0.17299
 O108 O 1.06401 0.47580 -0.13125
 O109 O 1.09973 0.52981 -0.04718
 C110 C 1.09601 0.50273 -0.10178
 O111 O 0.95951 0.41764 -0.15433
 O112 O 0.91203 0.42935 -0.10549
 C113 C 0.92429 0.40923 -0.14897
 O114 O 1.06222 0.59122 -0.16722
 O115 O 1.09865 0.58397 -0.06290
 C116 C 1.09470 0.60019 -0.13244
 Zr117 Zr 1.00662 0.54826 -0.12949
 O118 O 1.01053 0.54226 -0.27002
 O119 O 1.01008 0.60184 -0.14595
 Zr120 Zr 1.00855 0.46641 -0.10863
 O121 O 1.01351 0.46758 -0.25025
 O122 O 1.01284 0.41628 -0.11040
 Zr123 Zr 1.05610 0.53820 0.00986
 Zr124 Zr 0.94413 0.47819 -0.02531
 O125 O 0.97552 0.48959 -0.14596
 O126 O 1.04234 0.52495 -0.12613
 O127 O 0.96528 0.53751 -0.03012
 O128 O 1.03434 0.47887 0.01500
 O129 O 1.03149 0.57269 -0.00921
 O130 O 0.96845 0.44318 -0.00530
 H131 H 0.93982 0.48316 0.15792
 H132 H 1.05163 0.46874 0.02682
 H133 H 0.96117 0.48000 -0.20219
 H134 H 1.04801 0.60076 -0.00921
 H135 H 0.98166 0.39926 0.08961
 H136 H 1.01121 0.40863 -0.04737
 H137 H 1.03992 0.48669 -0.26651
 H138 H 1.03453 0.54217 -0.28329
 H139 H 0.99328 0.60388 -0.09956
 H140 H 0.98585 0.60970 0.12921
 H141 H 0.99580 0.54492 0.26415
 H142 H 1.00132 0.49195 0.28015
 O143 O 0.40410 0.47429 0.15360
 O144 O 0.41907 0.52177 0.05207
 C145 C 0.39968 0.50121 0.11974
 O146 O 0.57108 0.51954 0.15768
 O147 O 0.55482 0.46118 0.09399
 C148 C 0.57574 0.49006 0.14548
 O149 O 0.52289 0.57843 0.14079
 O150 O 0.47640 0.57177 0.04550
 C151 C 0.49995 0.58914 0.10959
 O152 O 0.44281 0.40806 0.17672
 O153 O 0.49347 0.40775 0.10493
 C154 C 0.46585 0.39476 0.16371
 Zr155 Zr 0.44171 0.45408 0.11494
 O156 O 0.43718 0.45999 0.25538
 O157 O 0.38660 0.40624 0.11035
 Zr158 Zr 0.52972 0.53084 0.10322
 O159 O 0.53144 0.53750 0.24421
 O160 O 0.58354 0.57974 0.08536
 O161 O 0.47214 0.51334 0.11635
 O162 O 0.49886 0.47369 0.13486
 O163 O 0.44422 0.39073 -0.13154
 O164 O 0.49472 0.39941 -0.04799
 C165 C 0.46755 0.38010 -0.10391
 O166 O 0.52854 0.56297 -0.18583
 O167 O 0.47857 0.56415 -0.11260
 C168 C 0.50566 0.57645 -0.17263
 O169 O 0.57140 0.50099 -0.15043
 O170 O 0.55418 0.45068 -0.05589
 C171 C 0.57507 0.47310 -0.11967
 O172 O 0.40529 0.45519 -0.16990
 O173 O 0.42003 0.51303 -0.10574
 C174 C 0.40063 0.48459 -0.15981
 Zr175 Zr 0.44335 0.44201 -0.10775
 O176 O 0.44631 0.43236 -0.24695
 O177 O 0.38698 0.39612 -0.10044
 Zr178 Zr 0.53127 0.51872 -0.11973
 O179 O 0.53405 0.50949 -0.25916
 O180 O 0.58524 0.56842 -0.12577
 Zr181 Zr 0.46382 0.52019 -0.01941
 Zr182 Zr 0.50913 0.45259 0.01359
 O183 O 0.50043 0.45992 -0.12116
 O184 O 0.47398 0.49952 -0.14175
 O185 O 0.44939 0.42187 0.01442
 O186 O 0.52349 0.55015 -0.01841
 O187 O 0.42292 0.46236 -0.00503
 O188 O 0.55078 0.51035 0.00044
 H189 H 0.50588 0.46656 0.19136
 H190 H 0.53693 0.57823 -0.02498
 H191 H 0.50722 0.44693 -0.16926
 H192 H 0.39566 0.45471 -0.00681
 H193 H 0.59163 0.59108 0.14584
 H194 H 0.60081 0.56646 -0.07842
 H195 H 0.51145 0.50830 -0.28607
 H196 H 0.45200 0.45607 -0.27793
 H197 H 0.38533 0.38030 -0.04899
 H198 H 0.37648 0.40225 0.17267
 H199 H 0.46090 0.46414 0.28259
 H200 H 0.50535 0.53015 0.26490
 O201 O 0.48220 0.06320 0.12755
 O202 O 0.53679 0.09846 0.04503
 C203 C 0.51097 0.09539 0.10254
 O204 O 0.53133 -0.05488 0.17682
 O205 O 0.47986 -0.09606 0.09367
 C206 C 0.50379 -0.08880 0.15675
 O207 O 0.58879 0.05333 0.16617
 O208 O 0.58667 0.09347 0.06269
 C209 C 0.60007 0.08704 0.13370
 O210 O 0.41766 -0.04277 0.13303
 O211 O 0.42699 -0.09085 0.07523
 C212 C 0.40767 -0.07844 0.12169
 Zr213 Zr 0.46715 0.00653 0.08950
 O214 O 0.45772 0.00845 0.22907
 O215 O 0.42014 0.01341 0.06056
 Zr216 Zr 0.54586 -0.00119 0.11982
 O217 O 0.53989 0.00049 0.26079
 O218 O 0.59627 -0.00402 0.13008
 O219 O 0.52495 0.03676 0.11621
 O220 O 0.48720 -0.02934 0.12679
 O221 O 0.42837 -0.05632 -0.17225
 O222 O 0.43268 -0.09719 -0.07473
 C223 C 0.41718 -0.09018 -0.14096
 O224 O 0.60059 0.03935 -0.15669
 O225 O 0.59245 0.08711 -0.09237
 C226 C 0.61040 0.07495 -0.14460
 O227 O 0.54417 -0.06591 -0.12488
 O228 O 0.48628 -0.10209 -0.05538
 C229 C 0.51529 -0.09826 -0.10262
 O230 O 0.49190 0.05000 -0.19695
 O231 O 0.54188 0.09180 -0.11062
 C232 C 0.51926 0.08394 -0.17705
 Zr233 Zr 0.47484 -0.00284 -0.13350
 O234 O 0.47764 -0.01247 -0.27271
 O235 O 0.42763 0.00518 -0.15131
 Zr236 Zr 0.55371 -0.01012 -0.10351
 O237 O 0.55524 -0.02056 -0.24272
 O238 O 0.60505 -0.01082 -0.08743
 Zr239 Zr 0.54239 0.05411 -0.01695
 Zr240 Zr 0.47826 -0.05818 0.00295
 O241 O 0.49627 -0.03995 -0.12922
 O242 O 0.53402 0.02630 -0.14218
 O243 O 0.44574 -0.03149 -0.01805
 O244 O 0.57426 0.02687 0.00455
 O245 O 0.48431 0.03552 -0.02969
 O246 O 0.53639 -0.04004 0.01629
 H247 H 0.47561 -0.04413 0.18200
 H248 H 0.60222 0.04255 0.00833
 H249 H 0.48852 -0.05927 -0.17800
 H250 H 0.47628 0.05476 -0.03872
 H251 H 0.60162 -0.00219 0.19490
 H252 H 0.60246 -0.02448 -0.03120
 H253 H 0.55662 0.00139 -0.27431
 H254 H 0.50313 0.00675 -0.29459
 H255 H 0.40809 -0.01065 -0.10630
 H256 H 0.41028 0.01717 0.11905
 H257 H 0.48264 0.02538 0.25600
 H258 H 0.53657 0.02269 0.27566
 C259 C 1.15276 0.47678 0.37735
 C260 C 1.14793 0.50187 0.33073
 C261 C 1.11268 0.49109 0.28185
 C262 C 1.11175 0.51680 0.22888
 H263 H 1.17075 0.53119 0.32766
 H264 H 1.08862 0.46251 0.28642
 H265 H 1.13000 0.44749 0.38129
 H266 H 1.13699 0.54462 0.22349
 C267 C 0.53495 0.69357 0.33038
 C268 C 0.51160 0.66959 0.26833
 C269 C 0.52060 0.64308 0.21773
 C270 C 0.49818 0.62169 0.15143
 H271 H 0.48431 0.66769 0.25808
 H272 H 0.54391 0.63927 0.23862
 H273 H 0.56263 0.69604 0.33777
 H274 H 0.47548 0.62653 0.13064
 C275 C 0.33150 -0.18997 0.30593
 C276 C 0.33336 -0.16223 0.25516
 C277 C 0.36646 -0.13931 0.19682
 C278 C 0.37237 -0.10580 0.16719
 H279 H 0.31133 -0.15443 0.26125
 H280 H 0.38743 -0.14820 0.18431
 H281 H 0.35399 -0.19714 0.30166
 H282 H 0.35233 -0.09623 0.18544
 C283 C 0.83251 0.54077 0.31549
 C284 C 0.83136 0.51672 0.25138
 C285 C 0.86608 0.52700 0.19748
 C286 C 0.86669 0.50520 0.12972
 H287 H 0.80601 0.48938 0.24180
 H288 H 0.89234 0.55176 0.21779
 H289 H 0.85807 0.56825 0.32179
 H290 H 0.84046 0.48048 0.10924
 C291 C 0.50918 0.32062 0.33038
 C292 C 0.48079 0.32551 0.30306
 C293 C 0.48739 0.35512 0.23796
 C294 C 0.46004 0.36338 0.22185
 H295 H 0.45236 0.30791 0.33012
 H296 H 0.51509 0.37121 0.20600
 H297 H 0.53763 0.33853 0.30384
 H298 H 0.43307 0.34827 0.25750
 C299 C 0.70432 0.15869 0.34345
 C300 C 0.67750 0.15628 0.28950
 C301 C 0.65156 0.12056 0.24268
 C302 C 0.62903 0.12113 0.18005
 H303 H 0.67385 0.18092 0.28118
 H304 H 0.65040 0.09407 0.26024
 H305 H 0.70855 0.13437 0.35053
 H306 H 0.63176 0.14824 0.16138
 C307 C 0.47700 0.15793 -0.34628
 C308 C 0.50504 0.15155 -0.32337
 C309 C 0.49731 0.11769 -0.27220
 C310 C 0.52556 0.11619 -0.23227
 H311 H 0.53420 0.17155 -0.34196
 H312 H 0.46840 0.09451 -0.26477
 H313 H 0.44814 0.13815 -0.32503
 H314 H 0.55396 0.14059 -0.23512
 C315 C 0.68771 0.51656 -0.30514
 C316 C 0.65660 0.48589 -0.27485
 C317 C 0.63114 0.49248 -0.21423
 C318 C 0.60351 0.46546 -0.16457
 H319 H 0.64903 0.45737 -0.29789
 H320 H 0.63449 0.52091 -0.21296
 H321 H 0.69474 0.54414 -0.27591
 H322 H 0.60060 0.43733 -0.16088
 C323 C 0.81379 0.33206 -0.33392
 C324 C 0.84139 0.33464 -0.28204
 C325 C 0.86426 0.36853 -0.22626
 C326 C 0.89734 0.37429 -0.19580
 H327 H 0.84897 0.31231 -0.28438
 H328 H 0.85549 0.38974 -0.21524
 H329 H 0.80683 0.35481 -0.33228
 H330 H 0.90658 0.35377 -0.21222
 C331 C 0.47236 -0.20556 -0.30558
 C332 C 0.49526 -0.18563 -0.23862
 C333 C 0.48788 -0.15969 -0.18147
 C334 C 0.51643 -0.13207 -0.13588
 H335 H 0.52195 -0.18537 -0.23152
 H336 H 0.46117 -0.15979 -0.18610
 H337 H 0.44571 -0.20583 -0.31326
 H338 H 0.54394 -0.13048 -0.13824
 C339 C 0.33309 0.53308 -0.33960
 C340 C 0.33403 0.50675 -0.28811
 C341 C 0.36730 0.51353 -0.23640
 C342 C 0.36956 0.48319 -0.21087
 H343 H 0.30987 0.47809 -0.28670
 H344 H 0.38969 0.54224 -0.22179
 H345 H 0.35748 0.56150 -0.34283
 H346 H 0.34774 0.45500 -0.23173
 C347 C 1.16762 0.70473 -0.34310
 C348 C 1.16569 0.67816 -0.28770
 C349 C 1.13029 0.65288 -0.23836
 C350 C 1.12986 0.62958 -0.17558
 H351 H 1.18981 0.67370 -0.28129
 H352 H 1.10423 0.65232 -0.25590
 H353 H 1.14357 0.70947 -0.34644
 H354 H 1.15631 0.63129 -0.15665
 C355 C 0.80575 0.48479 -0.33605
 C356 C 0.83719 0.50989 -0.29448
 C357 C 0.85925 0.49790 -0.23959
 C358 C 0.89522 0.52339 -0.22275
 H359 H 0.84822 0.54009 -0.30523
 H360 H 0.84708 0.46874 -0.21719
 H361 H 0.79531 0.45455 -0.32794
 H362 H 0.90678 0.55168 -0.25065
 C363 C 0.51339 0.31138 -0.29292
 C364 C 0.48532 0.31095 -0.24288
 C365 C 0.49224 0.34168 -0.17772
 C366 C 0.46289 0.34446 -0.14354
 H367 H 0.45625 0.28918 -0.25519
 H368 H 0.52100 0.36445 -0.16667
 H369 H 0.54253 0.33288 -0.28051
 H370 H 0.43432 0.32286 -0.16074
 C371 C 0.68262 0.19109 -0.31750
 C372 C 0.68177 0.16195 -0.27462
 C373 C 0.64969 0.13717 -0.21568
 C374 C 0.64411 0.10276 -0.19452
 H375 H 0.70392 0.15469 -0.28748
 H376 H 0.62936 0.14597 -0.19442
 H377 H 0.65969 0.19740 -0.30756
 H378 H 0.66342 0.09344 -0.22087
 C379 C 1.20391 0.54532 -0.29604
 C380 C 1.18493 0.52301 -0.22715
 C381 C 1.15897 0.53042 -0.17108
 C382 C 1.12950 0.50092 -0.13226
 H383 H 1.18451 0.49612 -0.21933
 H384 H 1.16035 0.55796 -0.17284
 H385 H 1.20432 0.57213 -0.30479
 H386 H 1.12664 0.47276 -0.13859
 C387 C 0.47278 0.65777 -0.34440
 C388 C 0.49782 0.65325 -0.29707
 C389 C 0.48682 0.61899 -0.24412
 C390 C 0.51296 0.60913 -0.22737
 H391 H 0.52771 0.67442 -0.30045
 H392 H 0.45776 0.60175 -0.22064
 H393 H 0.44328 0.63552 -0.34429
 H394 H 0.54119 0.62548 -0.25663
 C395 C 0.31177 -0.15514 -0.35045
 C396 C 0.33626 -0.15594 -0.29373
 C397 C 0.36402 -0.12129 -0.24617
 C398 C 0.38595 -0.12363 -0.18439
 H399 H 0.33691 -0.18221 -0.28465
 H400 H 0.36736 -0.09386 -0.26380
 H401 H 0.31066 -0.12904 -0.35811
 H402 H 0.38146 -0.15145 -0.16603
 C403 C 0.53672 -0.16188 0.36287
 C404 C 0.51227 -0.15817 0.31154
 C405 C 0.52242 -0.12257 0.26423
 C406 C 0.49752 -0.12209 0.20833
 H407 H 0.48370 -0.18194 0.30473
 H408 H 0.54974 -0.09734 0.27446
 H409 H 0.56533 -0.13829 0.37000
 H410 H 0.47088 -0.14816 0.19761
 C411 C 0.29483 0.47401 0.32963
 C412 C 0.32070 0.49768 0.27072
 C413 C 0.34529 0.48629 0.22043
 C414 C 0.37136 0.50972 0.16154
 H415 H 0.32562 0.52650 0.26402
 H416 H 0.34325 0.45912 0.23506
 H417 H 0.29017 0.44526 0.33578
 H418 H 0.37267 0.53641 0.14526
 C419 C 1.19101 0.67578 0.31715
 C420 C 1.16116 0.67398 0.27682
 C421 C 1.13647 0.64164 0.21911
 C422 C 1.10209 0.63592 0.19976
 H423 H 1.15361 0.69600 0.28977
 H424 H 1.14565 0.62180 0.19562
 H425 H 1.19778 0.65308 0.30730
 H426 H 1.09259 0.65485 0.22804
 C427 C 0.47137 0.16701 0.30443
 C428 C 0.49846 0.16534 0.25503
 C429 C 0.48958 0.13175 0.19836
 C430 C 0.51614 0.13083 0.14523
 H431 H 0.52777 0.18767 0.26086
 H432 H 0.46180 0.10664 0.20483
 H433 H 0.44202 0.14510 0.29652
 H434 H 0.54352 0.15635 0.13732
 C435 C 0.68800 0.53809 0.34116
 C436 C 0.65977 0.51036 0.29386
 C437 C 0.63239 0.51651 0.24315
 C438 C 0.60593 0.48792 0.19403
 H439 H 0.65600 0.48181 0.29406
 H440 H 0.63334 0.54383 0.24747
 H441 H 0.69233 0.56683 0.34055
 H442 H 0.60607 0.46111 0.18957
 C443 C 0.84218 0.30751 0.32242
 C444 C 0.84028 0.33090 0.26323
 C445 C 0.87452 0.35839 0.21319
 C446 C 0.87289 0.38083 0.15083
 H447 H 0.81399 0.33132 0.25528
 H448 H 0.90172 0.36162 0.23099
 H449 H 0.86850 0.30697 0.32871
 H450 H 0.84555 0.37690 0.13177
   
