data_POSCAR
  _audit_creation_date              2014-09-24
  _audit_creation_method            'ToBaCCo'
  _symmetry_space_group_name_H-M    'P1'
  _symmetry_Int_Tables_number       1
  _symmetry_cell_setting            triclinic
  loop_
  _symmetry_equiv_pos_as_xyz
 x,y,z
_cell_length_a 58.2361
_cell_length_b 58.1942
_cell_length_c 21.3721
_cell_angle_alpha 89.963300
_cell_angle_beta 90.018000
_cell_angle_gamma 119.973700
loop_
  _atom_site_label
  _atom_site_type_symbol
  _atom_site_fract_x
  _atom_site_fract_y
  _atom_site_fract_z
O1 O 0.20674 0.45855 0.44081
 O2 O 0.25189 0.45849 0.56157
 O3 O 0.20707 0.45862 0.56226
 O4 O 0.25157 0.45849 0.44010
 O5 O 0.27354 0.50236 0.43998
 O6 O 0.22906 0.50250 0.56212
 O7 O 0.27387 0.50236 0.56143
 O8 O 0.22871 0.50242 0.44068
 Cu9 Cu 0.22711 0.45411 0.50122
 Cu10 Cu 0.25351 0.50683 0.50106
 C11 C 0.20997 0.48049 0.42076
 C12 C 0.27066 0.48041 0.58147
 C13 C 0.21040 0.48059 0.58235
 C14 C 0.27021 0.48041 0.41983
 O15 O 0.54154 -0.25275 0.43929
 O16 O 0.54162 -0.20761 0.56023
 O17 O 0.54149 -0.25259 0.56077
 O18 O 0.54160 -0.20783 0.43878
 O19 O 0.49776 -0.22969 0.43877
 O20 O 0.49765 -0.27442 0.56073
 O21 O 0.49779 -0.22946 0.56020
 O22 O 0.49771 -0.27460 0.43928
 Cu23 Cu 0.54599 -0.22799 0.49978
 Cu24 Cu 0.49330 -0.25425 0.49974
 C25 C 0.51961 -0.27144 0.41925
 C26 C 0.51972 -0.21076 0.58021
 C27 C 0.51955 -0.27121 0.58092
 C28 C 0.51969 -0.21106 0.41861
 O29 O 1.20720 0.74883 0.55877
 O30 O 1.25245 0.79393 0.43800
 O31 O 1.20752 0.74911 0.43731
 O32 O 1.25216 0.79361 0.55946
 O33 O 1.27395 0.77152 0.55952
 O34 O 1.22933 0.72704 0.43739
 O35 O 1.27425 0.77186 0.43807
 O36 O 1.22900 0.72675 0.55883
 Cu37 Cu 1.22763 0.77359 0.49837
 Cu38 Cu 1.25383 0.74707 0.49845
 C39 C 1.21032 0.73003 0.57878
 C40 C 1.27114 0.79066 0.41806
 C41 C 1.21074 0.73041 0.41718
 C42 C 1.27073 0.79021 0.57969
 O43 O 0.79278 0.54183 0.44082
 O44 O 0.74740 0.54168 0.56118
 O45 O 0.79231 0.54173 0.56227
 O46 O 0.74787 0.54172 0.43972
 O47 O 0.72603 0.49785 0.43966
 O48 O 0.77045 0.49786 0.56219
 O49 O 0.72556 0.49782 0.56110
 O50 O 0.77094 0.49796 0.44076
 Cu51 Cu 0.77230 0.54617 0.50102
 Cu52 Cu 0.74604 0.49344 0.50094
 C53 C 0.78966 0.51991 0.42086
 C54 C 0.72867 0.51973 0.58104
 C55 C 0.78904 0.51979 0.58247
 C56 C 0.72931 0.51978 0.41941
 O57 O 0.45851 0.25132 0.44103
 O58 O 0.45866 0.20608 0.56159
 O59 O 0.45858 0.25095 0.56249
 O60 O 0.45864 0.20649 0.44012
 O61 O 0.50248 0.22849 0.44005
 O62 O 0.50242 0.27294 0.56240
 O63 O 0.50249 0.22807 0.56149
 O64 O 0.50235 0.27331 0.44096
 Cu65 Cu 0.45417 0.22649 0.50133
 Cu66 Cu 0.50686 0.25292 0.50123
 C67 C 0.48040 0.27009 0.42105
 C68 C 0.48060 0.20929 0.58148
 C69 C 0.48049 0.26961 0.58265
 C70 C 0.48058 0.20985 0.41985
 O71 O 0.79392 0.25247 0.56179
 O72 O 0.74869 0.20709 0.44143
 O73 O 0.79347 0.25204 0.44032
 O74 O 0.74910 0.20754 0.56289
 O75 O 0.72710 0.22941 0.56281
 O76 O 0.77145 0.27389 0.44027
 O77 O 0.72668 0.22895 0.44137
 O78 O 0.77192 0.27433 0.56171
 Cu79 Cu 0.77352 0.22758 0.50162
 Cu80 Cu 0.74707 0.25385 0.50154
 C81 C 0.79071 0.27121 0.58166
 C82 C 0.72991 0.21022 0.42149
 C83 C 0.79009 0.27062 0.42003
 C84 C 0.73046 0.21081 0.58309
 N85 N 1.02764 0.48954 -0.11099
 N86 N 1.04683 0.49559 -0.15180
 N87 N 0.97190 0.44563 -0.06767
 N88 N 0.95279 0.42103 -0.07822
 N89 N 0.97192 0.46170 -0.11088
 N90 N 0.95286 0.44854 -0.15198
 N91 N 1.02769 0.47352 -0.06772
 N92 N 1.04693 0.46822 -0.07790
 C93 C 1.05871 0.48229 -0.13020
 C94 C 0.94105 0.42332 -0.13065
 N95 N 0.97206 0.46175 0.11053
 N96 N 0.95291 0.44862 0.15142
 N97 N 1.02779 0.47354 0.06723
 N98 N 1.04690 0.46805 0.07776
 N99 N 1.02778 0.48959 0.11041
 N100 N 1.04686 0.49548 0.15147
 N101 N 0.97200 0.44569 0.06729
 N102 N 0.95277 0.42113 0.07758
 Mn103 Mn 0.99984 0.45932 -0.00022
 C104 C 0.94102 0.42344 0.12990
 C105 C 1.05865 0.48207 0.13015
 N106 N 0.97195 0.51120 -0.11082
 N107 N 0.95271 0.50512 -0.15150
 N108 N 1.02775 0.55512 -0.06789
 N109 N 1.04690 0.57970 -0.07847
 N110 N 1.02768 0.53903 -0.11107
 N111 N 1.04674 0.55217 -0.15219
 N112 N 0.97196 0.52723 -0.06758
 N113 N 0.95269 0.53252 -0.07764
 Mn114 Mn 0.99980 0.50037 -0.11158
 C115 C 0.94085 0.51842 -0.12984
 C116 C 1.05860 0.57739 -0.13090
 N117 N 1.02780 0.53907 0.11032
 N118 N 1.04702 0.55221 0.15104
 N119 N 0.97202 0.52727 0.06737
 N120 N 0.95290 0.53274 0.07800
 N121 N 0.97207 0.51123 0.11057
 N122 N 0.95304 0.50534 0.15175
 N123 N 1.02781 0.55512 0.06706
 N124 N 1.04707 0.57967 0.07716
 Mn125 Mn 0.99993 0.50041 0.11109
 Mn126 Mn 0.99988 0.54146 -0.00026
 Cl127 Cl 0.99986 0.50039 -0.00024
 C128 C 1.05889 0.57739 0.12939
 C129 C 0.94121 0.51874 0.13048
 N130 N 0.47285 0.44513 0.06714
 N131 N 0.46741 0.42055 0.07786
 N132 N 0.46102 0.48912 0.11007
 N133 N 0.44790 0.49516 0.15095
 N134 N 0.44495 0.47307 0.06694
 N135 N 0.42040 0.46773 0.07729
 N136 N 0.48890 0.46124 0.11023
 N137 N 0.49484 0.44811 0.15141
 C138 C 0.48145 0.42287 0.13027
 C139 C 0.42272 0.48183 0.12953
 N140 N 0.52641 0.55463 0.06652
 N141 N 0.53189 0.57924 0.07705
 N142 N 0.53830 0.51071 0.10983
 N143 N 0.55148 0.50472 0.15069
 N144 N 0.55431 0.52671 0.06650
 N145 N 0.57887 0.53205 0.07668
 N146 N 0.51042 0.53859 0.10981
 N147 N 0.50457 0.55178 0.15094
 Mn148 Mn 0.49966 0.49992 0.11061
 C149 C 0.51793 0.57699 0.12955
 C150 C 0.57663 0.51802 0.12904
 N151 N 0.44483 0.47296 -0.06803
 N152 N 0.42026 0.46753 -0.07848
 N153 N 0.48875 0.46108 -0.11115
 N154 N 0.49483 0.44791 -0.15181
 N155 N 0.47277 0.44506 -0.06780
 N156 N 0.46752 0.42051 -0.07777
 N157 N 0.46086 0.48896 -0.11133
 N158 N 0.44768 0.49487 -0.15240
 Mn159 Mn 0.45858 0.45878 -0.00044
 C160 C 0.42250 0.48152 -0.13097
 C161 C 0.48158 0.42275 -0.13003
 N162 N 0.55425 0.52661 -0.06846
 N163 N 0.57883 0.53208 -0.07911
 N164 N 0.51028 0.53842 -0.11160
 N165 N 0.50426 0.55155 -0.15258
 N166 N 0.52631 0.55450 -0.06846
 N167 N 0.53166 0.57907 -0.07890
 N168 N 0.53817 0.51054 -0.11155
 N169 N 0.55131 0.50462 -0.15268
 Mn170 Mn 0.54059 0.54089 -0.00098
 Mn171 Mn 0.49951 0.49975 -0.11204
 Cl172 Cl 0.49959 0.49983 -0.00071
 C173 C 0.57653 0.51804 -0.13148
 C174 C 0.51758 0.57675 -0.13120
 N175 N 0.44561 -0.02811 0.06735
 N176 N 0.42101 -0.04723 0.07776
 N177 N 0.48949 0.02762 0.11085
 N178 N 0.49549 0.04679 0.15172
 N179 N 0.47354 0.02772 0.06750
 N180 N 0.46824 0.04698 0.07768
 N181 N 0.46161 -0.02813 0.11065
 N182 N 0.44839 -0.04723 0.15168
 C183 C 0.42322 -0.05902 0.13020
 C184 C 0.48224 0.05871 0.13007
 N185 N 0.55503 0.02767 0.06817
 N186 N 0.57958 0.04680 0.07889
 N187 N 0.51103 -0.02817 0.11093
 N188 N 0.50495 -0.04740 0.15170
 N189 N 0.52710 -0.02816 0.06779
 N190 N 0.53240 -0.04742 0.07803
 N191 N 0.53891 0.02760 0.11126
 N192 N 0.55201 0.04664 0.15245
 Mn193 Mn 0.50026 -0.00027 0.11156
 C194 C 0.57724 0.05849 0.13131
 C195 C 0.51827 -0.05926 0.13021
 N196 N 0.47371 0.02789 -0.06747
 N197 N 0.46824 0.04702 -0.07811
 N198 N 0.46190 -0.02788 -0.11075
 N199 N 0.44880 -0.04701 -0.15172
 N200 N 0.44581 -0.02794 -0.06761
 N201 N 0.42127 -0.04714 -0.07805
 N202 N 0.48978 0.02788 -0.11056
 N203 N 0.49571 0.04697 -0.15167
 Mn204 Mn 0.45939 -0.00011 -0.00006
 C205 C 0.48229 0.05879 -0.13047
 C206 C 0.42361 -0.05888 -0.13036
 N207 N 0.52728 -0.02804 -0.06715
 N208 N 0.53268 -0.04722 -0.07762
 N209 N 0.53919 0.02782 -0.11013
 N210 N 0.55238 0.04709 -0.15078
 N211 N 0.55517 0.02779 -0.06678
 N212 N 0.57972 0.04706 -0.07673
 N213 N 0.51131 -0.02794 -0.11046
 N214 N 0.50541 -0.04701 -0.15155
 Mn215 Mn 0.54142 -0.00019 0.00051
 Mn216 Mn 0.50055 -0.00003 -0.11111
 Cl217 Cl 0.50040 -0.00015 0.00022
 C218 C 0.51872 -0.05891 -0.13012
 C219 C 0.57751 0.05894 -0.12898
 C220 C 1.14254 0.47943 0.20339
 C221 C 1.16073 0.50179 0.24943
 C222 C 1.15548 0.48068 0.29928
 C223 C 1.13763 0.45832 0.25396
 C224 C 1.11862 0.48095 0.22854
 C225 C 1.11340 0.45986 0.27842
 C226 C 1.13647 0.50329 0.27389
 C227 C 1.13153 0.48220 0.32426
 C228 C 1.17554 0.48058 0.34052
 C229 C 1.19154 0.48052 0.37623
 C230 C 1.09767 0.48119 0.19104
 C231 C 1.08005 0.48151 0.16216
 H232 H 1.14683 0.47829 0.15324
 H233 H 1.18042 0.51904 0.23796
 H234 H 1.13834 0.43982 0.24621
 H235 H 1.09371 0.44261 0.28996
 H236 H 1.13578 0.52179 0.28170
 H237 H 1.12719 0.48334 0.37438
 C238 C 0.52163 0.66397 0.20369
 C239 C 0.49886 0.65998 0.24816
 C240 C 0.51941 0.67503 0.29960
 C241 C 0.54218 0.67937 0.25585
 C242 C 0.51913 0.63802 0.22839
 C243 C 0.53966 0.65308 0.27986
 C244 C 0.49638 0.63371 0.27217
 C245 C 0.51692 0.64905 0.32413
 C246 C 0.51952 0.69513 0.34111
 C247 C 0.51958 0.71111 0.37705
 C248 C 0.51887 0.61686 0.19066
 C249 C 0.51853 0.59894 0.16165
 H250 H 0.52356 0.66987 0.15371
 H251 H 0.48209 0.66305 0.23558
 H252 H 0.56101 0.69838 0.24959
 H253 H 0.55643 0.65003 0.29251
 H254 H 0.47754 0.61471 0.27849
 H255 H 0.51498 0.64311 0.37408
 C256 C 0.33632 -0.14255 0.20326
 C257 C 0.34027 -0.16124 0.24821
 C258 C 0.32490 -0.15586 0.29904
 C259 C 0.32060 -0.13752 0.25481
 C260 C 0.36207 -0.11900 0.22839
 C261 C 0.34668 -0.11366 0.27924
 C262 C 0.36633 -0.13736 0.27264
 C263 C 0.35066 -0.13229 0.32400
 C264 C 0.30471 -0.17591 0.34028
 C265 C 0.28865 -0.19189 0.37602
 C266 C 0.38329 -0.09805 0.19094
 C267 C 0.40125 -0.08042 0.16213
 H268 H 0.33067 -0.14652 0.15317
 H269 H 0.33741 -0.18103 0.23590
 H270 H 0.30156 -0.13781 0.24793
 H271 H 0.34953 -0.09388 0.29163
 H272 H 0.38536 -0.13708 0.27960
 H273 H 0.35637 -0.12826 0.37406
 C274 C 0.85719 0.52106 0.20378
 C275 C 0.83913 0.49874 0.25011
 C276 C 0.84431 0.51992 0.29966
 C277 C 0.86202 0.54223 0.25404
 C278 C 0.88122 0.51975 0.22898
 C279 C 0.88638 0.54091 0.27856
 C280 C 0.86350 0.49745 0.27463
 C281 C 0.86837 0.51861 0.32470
 C282 C 0.82421 0.51996 0.34084
 C283 C 0.80816 0.51996 0.37647
 C284 C 0.90220 0.51955 0.19147
 C285 C 0.91982 0.51927 0.16256
 H286 H 0.85283 0.52206 0.15361
 H287 H 0.81948 0.48140 0.23885
 H288 H 0.86119 0.56065 0.24602
 H289 H 0.90602 0.55825 0.28988
 H290 H 0.86432 0.47903 0.28272
 H291 H 0.87278 0.51761 0.37484
 C292 C 0.47886 0.33635 0.20383
 C293 C 0.50133 0.34050 0.24950
 C294 C 0.48037 0.32477 0.29970
 C295 C 0.45790 0.32027 0.25474
 C296 C 0.48052 0.36187 0.22895
 C297 C 0.45959 0.34613 0.27917
 C298 C 0.50297 0.36634 0.27393
 C299 C 0.48204 0.35032 0.32465
 C300 C 0.48034 0.30461 0.34093
 C301 C 0.48035 0.28856 0.37659
 C302 C 0.48070 0.38305 0.19139
 C303 C 0.48096 0.40096 0.16243
 H304 H 0.47755 0.33084 0.15370
 H305 H 0.51849 0.33795 0.23774
 H306 H 0.43937 0.30110 0.24730
 H307 H 0.44242 0.34866 0.29099
 H308 H 0.52151 0.38551 0.28144
 H309 H 0.48335 0.35588 0.37475
 C310 C 0.63377 0.13676 0.27419
 C311 C 0.64958 0.13180 0.32543
 C312 C 0.67524 0.15550 0.30041
 C313 C 0.65973 0.16077 0.24970
 C314 C 0.63816 0.11854 0.22983
 C315 C 0.66381 0.14221 0.20465
 C316 C 0.65369 0.11330 0.28057
 C317 C 0.67967 0.13729 0.25608
 C318 C 0.69539 0.17563 0.34154
 C319 C 0.71144 0.19169 0.37713
 C320 C 0.61701 0.09754 0.19235
 C321 C 0.59911 0.07990 0.16344
 H322 H 0.61467 0.13633 0.28126
 H323 H 0.64392 0.12771 0.37551
 H324 H 0.66244 0.18051 0.23744
 H325 H 0.66942 0.14625 0.15454
 H326 H 0.65100 0.09357 0.29289
 H327 H 0.69878 0.13774 0.24907
 C328 C 0.50370 0.13700 -0.27357
 C329 C 0.48286 0.13199 -0.32464
 C330 C 0.48087 0.15569 -0.29966
 C331 C 0.50172 0.16101 -0.24911
 C332 C 0.48118 0.11880 -0.22899
 C333 C 0.47918 0.14247 -0.20385
 C334 C 0.46035 0.11351 -0.27956
 C335 C 0.45833 0.13750 -0.25511
 C336 C 0.48073 0.17577 -0.34086
 C337 C 0.48066 0.19179 -0.37656
 C338 C 0.48143 0.09782 -0.19149
 C339 C 0.48175 0.08019 -0.16258
 H340 H 0.52236 0.13659 -0.28079
 H341 H 0.48438 0.12788 -0.37472
 H342 H 0.51873 0.18077 -0.23704
 H343 H 0.47766 0.14653 -0.15374
 H344 H 0.44333 0.09376 -0.29171
 H345 H 0.43967 0.13793 -0.24796
 C346 C 0.66342 0.52152 -0.20467
 C347 C 0.65953 0.49880 -0.24921
 C348 C 0.67480 0.51946 -0.30036
 C349 C 0.67904 0.54217 -0.25652
 C350 C 0.63761 0.51914 -0.22986
 C351 C 0.65289 0.53977 -0.28102
 C352 C 0.63340 0.49644 -0.27372
 C353 C 0.64896 0.51708 -0.32538
 C354 C 0.69502 0.51959 -0.34147
 C355 C 0.71111 0.51967 -0.37708
 C356 C 0.61639 0.51888 -0.19243
 C357 C 0.59845 0.51857 -0.16357
 H358 H 0.66913 0.52334 -0.15458
 H359 H 0.66249 0.48196 -0.23658
 H360 H 0.69804 0.56098 -0.24989
 H361 H 0.64995 0.55662 -0.29373
 H362 H 0.61441 0.47763 -0.28041
 H363 H 0.64321 0.51526 -0.37544
 C364 C 0.86359 0.33315 -0.20892
 C365 C 0.83905 0.33361 -0.23565
 C366 C 0.84425 0.32504 -0.29961
 C367 C 0.86844 0.32423 -0.27356
 C368 C 0.88110 0.36221 -0.22901
 C369 C 0.88625 0.35360 -0.29297
 C370 C 0.85692 0.36302 -0.25507
 C371 C 0.86180 0.35412 -0.31955
 C372 C 0.82419 0.30484 -0.34078
 C373 C 0.80819 0.28876 -0.37643
 C374 C 0.90205 0.38343 -0.19155
 C375 C 0.91967 0.40138 -0.16269
 H376 H 0.86457 0.32477 -0.16298
 H377 H 0.81941 0.32516 -0.21254
 H378 H 0.87296 0.30806 -0.28160
 H379 H 0.90587 0.36203 -0.31618
 H380 H 0.85240 0.37919 -0.24707
 H381 H 0.86087 0.36255 -0.36547
 C382 C 0.49807 -0.13579 -0.27634
 C383 C 0.52001 -0.13123 -0.32382
 C384 C 0.51973 -0.15610 -0.29857
 C385 C 0.49777 -0.16097 -0.25161
 C386 C 0.51960 -0.11909 -0.22814
 C387 C 0.51932 -0.14393 -0.20273
 C388 C 0.54154 -0.11425 -0.27513
 C389 C 0.54128 -0.13941 -0.25040
 C390 C 0.51976 -0.17624 -0.33968
 C391 C 0.51975 -0.19229 -0.37530
 C392 C 0.51944 -0.09805 -0.19080
 C393 C 0.51919 -0.08037 -0.16204
 H394 H 0.48029 -0.13408 -0.28664
 H395 H 0.52028 -0.12620 -0.37404
 H396 H 0.47977 -0.18040 -0.24239
 H397 H 0.51904 -0.14891 -0.15248
 H398 H 0.55954 -0.09482 -0.28441
 H399 H 0.55905 -0.14114 -0.24018
 C400 C 0.34020 0.48675 -0.20529
 C401 C 0.34525 0.50468 -0.26333
 C402 C 0.32433 0.48043 -0.29964
 C403 C 0.31892 0.46249 -0.24231
 C404 C 0.36144 0.48058 -0.22908
 C405 C 0.34051 0.45634 -0.26541
 C406 C 0.36679 0.49850 -0.28644
 C407 C 0.34559 0.47427 -0.32327
 C408 C 0.30417 0.48039 -0.34082
 C409 C 0.28814 0.48039 -0.37652
 C410 C 0.38263 0.48076 -0.19168
 C411 C 0.40056 0.48102 -0.16290
 H412 H 0.33823 0.49188 -0.15633
 H413 H 0.34698 0.52456 -0.26291
 H414 H 0.29900 0.44768 -0.22461
 H415 H 0.33878 0.43646 -0.26588
 H416 H 0.38669 0.51331 -0.30422
 H417 H 0.34761 0.46914 -0.37221
 C418 C 1.13698 0.63397 -0.27338
 C419 C 1.13204 0.64972 -0.32483
 C420 C 1.15567 0.67544 -0.29987
 C421 C 1.16092 0.65998 -0.24894
 C422 C 1.11870 0.63837 -0.22923
 C423 C 1.14231 0.66407 -0.20411
 C424 C 1.11349 0.65384 -0.28019
 C425 C 1.13741 0.67988 -0.25575
 C426 C 1.17579 0.69558 -0.34106
 C427 C 1.19184 0.71161 -0.37673
 C428 C 1.09770 0.61720 -0.19177
 C429 C 1.08003 0.59929 -0.16292
 H430 H 1.13658 0.61486 -0.28024
 H431 H 1.12801 0.64401 -0.37489
 H432 H 1.18065 0.66274 -0.23653
 H433 H 1.14629 0.66973 -0.15402
 H434 H 1.09377 0.65110 -0.29266
 H435 H 1.13782 0.69899 -0.24895
 C436 C 0.85735 0.52217 -0.20068
 C437 C 0.86227 0.54250 -0.25329
 C438 C 0.84336 0.51956 -0.29599
 C439 C 0.83808 0.49922 -0.24410
 C440 C 0.88041 0.51924 -0.22629
 C441 C 0.86148 0.49632 -0.26901
 C442 C 0.88565 0.53955 -0.27820
 C443 C 0.86644 0.51664 -0.32141
 C444 C 0.82327 0.51970 -0.33691
 C445 C 0.80731 0.51977 -0.37266
 C446 C 0.90150 0.51901 -0.18950
 C447 C 0.91927 0.51878 -0.16124
 H448 H 0.85388 0.52444 -0.15057
 H449 H 0.86236 0.56149 -0.24729
 H450 H 0.81828 0.48265 -0.23056
 H451 H 0.86138 0.47732 -0.27507
 H452 H 0.90543 0.55613 -0.29183
 H453 H 0.86997 0.51436 -0.37149
 C454 C 0.50360 0.36563 -0.26989
 C455 C 0.50122 0.33953 -0.24483
 C456 C 0.48063 0.32414 -0.29593
 C457 C 0.48303 0.34994 -0.32150
 C458 C 0.48087 0.36150 -0.22630
 C459 C 0.46030 0.34609 -0.27743
 C460 C 0.47847 0.33573 -0.20055
 C461 C 0.45788 0.31999 -0.25238
 C462 C 0.48053 0.30392 -0.33681
 C463 C 0.48049 0.28791 -0.37252
 C464 C 0.48105 0.38281 -0.18957
 C465 C 0.48126 0.40081 -0.16135
 H466 H 0.52240 0.38462 -0.27669
 H467 H 0.51804 0.33659 -0.23190
 H468 H 0.48490 0.35557 -0.37166
 H469 H 0.44348 0.34902 -0.29044
 H470 H 0.47660 0.33016 -0.15036
 H471 H 0.43909 0.30098 -0.24564
 C472 C 0.66456 0.14268 -0.19979
 C473 C 0.68018 0.13778 -0.25187
 C474 C 0.67604 0.15647 -0.29520
 C475 C 0.66079 0.16173 -0.24385
 C476 C 0.63874 0.11941 -0.22539
 C477 C 0.63464 0.13812 -0.26875
 C478 C 0.65401 0.11419 -0.27677
 C479 C 0.65019 0.13318 -0.32062
 C480 C 0.69622 0.17657 -0.33619
 C481 C 0.71221 0.19253 -0.37199
 C482 C 0.61745 0.09831 -0.18857
 C483 C 0.59945 0.08053 -0.16031
 H484 H 0.67021 0.14632 -0.14964
 H485 H 0.69914 0.13788 -0.24540
 H486 H 0.66382 0.18152 -0.23078
 H487 H 0.61568 0.13803 -0.27529
 H488 H 0.65099 0.09442 -0.28991
 H489 H 0.64448 0.12948 -0.37074
 C490 C 1.14257 0.47930 -0.20101
 C491 C 1.13771 0.45842 -0.25212
 C492 C 1.15607 0.48097 -0.29645
 C493 C 1.16129 0.50185 -0.24607
 C494 C 1.11906 0.48138 -0.22684
 C495 C 1.13743 0.50391 -0.27120
 C496 C 1.11388 0.46053 -0.27725
 C497 C 1.13253 0.48306 -0.32210
 C498 C 1.17615 0.48078 -0.33728
 C499 C 1.19211 0.48066 -0.37293
 C500 C 1.09799 0.48165 -0.19004
 C501 C 1.08025 0.48191 -0.16172
 H502 H 1.14644 0.47776 -0.15076
 H503 H 1.13807 0.43972 -0.24474
 H504 H 1.18103 0.51882 -0.23371
 H505 H 1.13708 0.52262 -0.27865
 H506 H 1.09416 0.44355 -0.28968
 H507 H 1.12860 0.48460 -0.37232
 C508 C 0.53979 0.65374 -0.27876
 C509 C 0.51750 0.64970 -0.32460
 C510 C 0.51914 0.67520 -0.29946
 C511 C 0.54145 0.67956 -0.25415
 C512 C 0.51867 0.63791 -0.22899
 C513 C 0.52031 0.66340 -0.20367
 C514 C 0.49638 0.63359 -0.27433
 C515 C 0.49800 0.65940 -0.24972
 C516 C 0.51936 0.69540 -0.34073
 C517 C 0.51948 0.71141 -0.37668
 C518 C 0.51835 0.61664 -0.19173
 C519 C 0.51804 0.59866 -0.16306
 H520 H 0.55696 0.65118 -0.29030
 H521 H 0.51635 0.64427 -0.37476
 H522 H 0.55998 0.69871 -0.24632
 H523 H 0.52146 0.66877 -0.15348
 H524 H 0.47785 0.61446 -0.28222
 H525 H 0.48083 0.66197 -0.23825
 C526 C 0.35937 -0.14635 -0.24027
 C527 C 0.32915 -0.15916 -0.22861
 C528 C 0.32524 -0.15570 -0.29837
 C529 C 0.35512 -0.14324 -0.31060
 C530 C 0.36251 -0.11892 -0.22801
 C531 C 0.35855 -0.11553 -0.29777
 C532 C 0.33265 -0.13135 -0.21567
 C533 C 0.32840 -0.12826 -0.28609
 C534 C 0.30506 -0.17567 -0.33955
 C535 C 0.28905 -0.19156 -0.37542
 C536 C 0.38377 -0.09797 -0.19081
 C537 C 0.40173 -0.08032 -0.16219
 H538 H 0.37235 -0.15355 -0.22100
 H539 H 0.31681 -0.17734 -0.20067
 H540 H 0.36415 -0.14834 -0.35007
 H541 H 0.37086 -0.09738 -0.32584
 H542 H 0.32367 -0.12621 -0.17617
 H543 H 0.31543 -0.12105 -0.30537
 C544 C 0.49680 -0.13769 0.27226
 C545 C 0.49843 -0.16182 0.24730
 C546 C 0.51950 -0.15664 0.29713
 C547 C 0.51785 -0.13282 0.32261
 C548 C 0.51915 -0.11962 0.22719
 C549 C 0.54020 -0.11448 0.27704
 C550 C 0.52080 -0.14341 0.20153
 C551 C 0.54187 -0.13858 0.25208
 C552 C 0.51964 -0.17673 0.33811
 C553 C 0.51970 -0.19271 0.37384
 C554 C 0.51891 -0.09856 0.19023
 C555 C 0.51865 -0.08081 0.16180
 H556 H 0.47826 -0.13709 0.28016
 H557 H 0.48127 -0.18153 0.23554
 H558 H 0.51663 -0.12868 0.37283
 H559 H 0.55736 -0.09478 0.28887
 H560 H 0.52202 -0.14750 0.15128
 H561 H 0.56040 -0.13920 0.24425
 C562 C 0.34615 0.46003 0.27772
 C563 C 0.35018 0.48256 0.32272
 C564 C 0.32451 0.48055 0.29766
 C565 C 0.32016 0.45799 0.25319
 C566 C 0.36167 0.48088 0.22716
 C567 C 0.33602 0.47887 0.20192
 C568 C 0.36598 0.50341 0.27167
 C569 C 0.34001 0.50142 0.24713
 C570 C 0.30439 0.48042 0.33894
 C571 C 0.28845 0.48038 0.37487
 C572 C 0.38288 0.48112 0.18991
 C573 C 0.40082 0.48140 0.16129
 H574 H 0.34890 0.44301 0.28990
 H575 H 0.35580 0.48408 0.37283
 H576 H 0.30108 0.43932 0.24606
 H577 H 0.33046 0.47735 0.15178
 H578 H 0.38505 0.52209 0.27886
 H579 H 0.33724 0.51843 0.23502
 C580 C 1.14281 0.66421 0.20031
 C581 C 1.13797 0.68016 0.25163
 C582 C 1.15634 0.67589 0.29579
 C583 C 1.16153 0.66030 0.24520
 C584 C 1.11929 0.63858 0.22602
 C585 C 1.13767 0.63435 0.27021
 C586 C 1.11414 0.65419 0.27664
 C587 C 1.13279 0.65024 0.32132
 C588 C 1.17644 0.69610 0.33671
 C589 C 1.19242 0.71211 0.37241
 C590 C 1.09821 0.61729 0.18917
 C591 C 1.08045 0.59931 0.16085
 H592 H 1.14667 0.66968 0.15009
 H593 H 1.13834 0.69924 0.24445
 H594 H 1.18126 0.66306 0.23274
 H595 H 1.13731 0.61528 0.27745
 H596 H 1.09442 0.65145 0.28917
 H597 H 1.12887 0.64471 0.37150
 C598 C 0.45978 0.11375 0.27593
 C599 C 0.48175 0.13147 0.32299
 C600 C 0.48089 0.15575 0.29772
 C601 C 0.45890 0.13833 0.25119
 C602 C 0.48127 0.11889 0.22736
 C603 C 0.48042 0.14315 0.20191
 C604 C 0.50324 0.13633 0.27392
 C605 C 0.50241 0.16093 0.24918
 C606 C 0.48072 0.17574 0.33894
 C607 C 0.48063 0.19162 0.37487
 C608 C 0.48154 0.09790 0.19022
 C609 C 0.48182 0.08021 0.16170
 H610 H 0.44226 0.09412 0.28653
 H611 H 0.48229 0.12687 0.37320
 H612 H 0.44067 0.13939 0.24231
 H613 H 0.47988 0.14769 0.15166
 H614 H 0.52148 0.13528 0.28287
 H615 H 0.51992 0.18057 0.23865
 C616 C 0.66349 0.52124 0.20126
 C617 C 0.67926 0.54206 0.25265
 C618 C 0.67499 0.51948 0.29700
 C619 C 0.65958 0.49865 0.24635
 C620 C 0.63778 0.51907 0.22648
 C621 C 0.63354 0.49650 0.27086
 C622 C 0.65321 0.53987 0.27716
 C623 C 0.64925 0.51731 0.32204
 C624 C 0.69512 0.51965 0.33833
 C625 C 0.71107 0.51974 0.37433
 C626 C 0.61654 0.51878 0.18926
 C627 C 0.59856 0.51848 0.16070
 H628 H 0.66909 0.52285 0.15113
 H629 H 0.69830 0.56079 0.24563
 H630 H 0.66245 0.48171 0.23416
 H631 H 0.61451 0.47777 0.27795
 H632 H 0.65036 0.55681 0.28942
 H633 H 0.64360 0.51569 0.37213
 C634 C 0.85735 0.33661 0.20206
 C635 C 0.86237 0.32077 0.25338
 C636 C 0.84410 0.32505 0.29777
 C637 C 0.83872 0.34053 0.24718
 C638 C 0.88091 0.36230 0.22736
 C639 C 0.86262 0.36655 0.27177
 C640 C 0.88624 0.34680 0.27797
 C641 C 0.86768 0.35076 0.32288
 C642 C 0.82414 0.30488 0.33903
 C643 C 0.80828 0.28890 0.37499
 C644 C 0.90187 0.38356 0.19018
 C645 C 0.91954 0.40153 0.16161
 H646 H 0.85337 0.33106 0.15192
 H647 H 0.86203 0.30170 0.24630
 H648 H 0.81895 0.33771 0.23500
 H649 H 0.86295 0.38561 0.27892
 H650 H 0.90601 0.34960 0.29024
 H651 H 0.87173 0.35637 0.37299
   
