data_POSCAR
  _audit_creation_date              2014-09-24
  _audit_creation_method            'ToBaCCo'
  _symmetry_space_group_name_H-M    'P1'
  _symmetry_Int_Tables_number       1
  _symmetry_cell_setting            triclinic
  loop_
  _symmetry_equiv_pos_as_xyz
 x,y,z
_cell_length_a 26.2348
_cell_length_b 26.2958
_cell_length_c 44.4474
_cell_angle_alpha 88.102200
_cell_angle_beta 88.428500
_cell_angle_gamma 93.497900
loop_
  _atom_site_label
  _atom_site_type_symbol
  _atom_site_fract_x
  _atom_site_fract_y
  _atom_site_fract_z
O1 O -0.04560 0.54671 0.97066
 O2 O -0.04025 0.44357 1.02834
 O3 O -0.04142 0.54227 1.02921
 O4 O -0.04331 0.44752 0.96995
 O5 O 0.04084 0.45519 0.96627
 O6 O 0.04281 0.54880 1.02601
 O7 O 0.04385 0.44988 1.02482
 O8 O 0.03862 0.55421 0.96787
 Cu9 Cu -0.05108 0.49436 0.99980
 Cu10 Cu 0.04995 0.50262 0.99587
 C11 C -0.00440 0.56854 0.95965
 C12 C 0.00268 0.42882 1.03645
 C13 C 0.00107 0.56177 1.03774
 C14 C -0.00151 0.43497 0.95805
 O15 O 0.45259 0.04486 0.52243
 O16 O 0.55605 0.03984 0.46516
 O17 O 0.45709 0.04006 0.46411
 O18 O 0.55209 0.04412 0.52365
 O19 O 0.54748 -0.03993 0.52689
 O20 O 0.45016 -0.04387 0.46881
 O21 O 0.54945 -0.04410 0.46862
 O22 O 0.44799 -0.03907 0.52719
 Cu23 Cu 0.50506 0.05064 0.49350
 Cu24 Cu 0.49817 -0.05015 0.49832
 C25 C 0.43248 0.00377 0.53457
 C26 C 0.57045 -0.00298 0.45693
 C27 C 0.43712 -0.00261 0.45641
 C28 C 0.56653 0.00273 0.53519
 Si29 Si 0.01138 -0.01399 0.24653
 Si30 Si -0.00958 0.01231 0.74733
 C31 C 0.00349 -0.32399 0.10504
 C32 C -0.04190 -0.35302 0.09949
 C33 C -0.04268 -0.39029 0.07777
 C34 C 0.00201 -0.39970 0.06128
 C35 C 0.04756 -0.37128 0.06711
 C36 C 0.04824 -0.33374 0.08864
 C37 C 0.00399 -0.28292 0.12728
 C38 C 0.04656 -0.27342 0.14531
 C39 C 0.04782 -0.23343 0.16528
 C40 C 0.00636 -0.20237 0.16787
 C41 C -0.03655 -0.21232 0.15030
 C42 C -0.03765 -0.25200 0.13014
 C43 C 0.00830 -0.15876 0.18818
 C44 C -0.03434 -0.14905 0.20645
 C45 C -0.03330 -0.10656 0.22454
 C46 C 0.01010 -0.07270 0.22430
 C47 C 0.05315 -0.08290 0.20667
 C48 C 0.05233 -0.12561 0.18878
 H49 H -0.07686 -0.34712 0.11206
 H50 H -0.07830 -0.41180 0.07394
 H51 H 0.08258 -0.37741 0.05466
 H52 H 0.08367 -0.31157 0.09193
 H53 H 0.07888 -0.29705 0.14409
 H54 H 0.08110 -0.22695 0.17885
 H55 H -0.06874 -0.18849 0.15155
 H56 H -0.07064 -0.25758 0.11625
 H57 H -0.06848 -0.17442 0.20675
 H58 H -0.06668 -0.10012 0.23834
 H59 H 0.08711 -0.05729 0.20635
 H60 H 0.08561 -0.13198 0.17477
 C61 C 0.00816 0.30689 0.10084
 C62 C 0.05343 0.33072 0.08808
 C63 C 0.05172 0.37126 0.06706
 C64 C 0.00458 0.38890 0.05816
 C65 C -0.04071 0.36521 0.07126
 C66 C -0.03888 0.32479 0.09234
 C67 C 0.00989 0.26272 0.12238
 C68 C -0.02296 0.25797 0.14798
 C69 C -0.02228 0.21554 0.16775
 C70 C 0.01108 0.17685 0.16223
 C71 C 0.04427 0.18187 0.13680
 C72 C 0.04373 0.22435 0.11713
 C73 C 0.01075 0.13092 0.18258
 C74 C 0.01382 0.08236 0.17061
 C75 C 0.01380 0.03901 0.18961
 C76 C 0.01119 0.04342 0.22094
 C77 C 0.00731 0.09163 0.23302
 C78 C 0.00716 0.13509 0.21402
 H79 H 0.09027 0.31815 0.09449
 H80 H 0.08748 0.38849 0.05768
 H81 H -0.07780 0.37750 0.06510
 H82 H -0.07443 0.30679 0.10152
 H83 H -0.04911 0.28717 0.15277
 H84 H -0.04856 0.21253 0.18703
 H85 H 0.07080 0.15295 0.13216
 H86 H 0.06914 0.22668 0.09745
 H87 H 0.01556 0.07783 0.14648
 H88 H 0.01572 0.00224 0.17962
 H89 H 0.00470 0.09568 0.25717
 H90 H 0.00499 0.17200 0.22391
 C91 C 0.30724 0.00895 0.59879
 C92 C 0.33182 -0.03648 0.59492
 C93 C 0.37269 -0.03813 0.57419
 C94 C 0.39018 0.00578 0.55714
 C95 C 0.36606 0.05141 0.56138
 C96 C 0.32486 0.05290 0.58188
 C97 C 0.26291 0.01029 0.62011
 C98 C 0.21894 0.03440 0.61160
 C99 C 0.17674 0.03487 0.63145
 C100 C 0.17771 0.01162 0.66037
 C101 C 0.22200 -0.01209 0.66892
 C102 C 0.26401 -0.01296 0.64896
 C103 C 0.13264 0.01175 0.68145
 C104 C 0.11885 -0.03098 0.70048
 C105 C 0.07664 -0.03090 0.72034
 C106 C 0.04743 0.01188 0.72158
 C107 C 0.06022 0.05412 0.70224
 C108 C 0.10270 0.05432 0.68255
 H109 H 0.31872 -0.07101 0.60749
 H110 H 0.39048 -0.07384 0.57146
 H111 H 0.37859 0.08587 0.54857
 H112 H 0.30690 0.08852 0.58464
 H113 H 0.21683 0.05200 0.58933
 H114 H 0.14299 0.05265 0.62389
 H115 H 0.22447 -0.02952 0.69120
 H116 H 0.29769 -0.03124 0.65622
 H117 H 0.14015 -0.06492 0.69969
 H118 H 0.06657 -0.06467 0.73429
 H119 H 0.03759 0.08721 0.70257
 H120 H 0.11240 0.08806 0.66844
 C121 C -0.31531 0.00692 0.60068
 C122 C -0.34010 0.05124 0.59286
 C123 C -0.37862 0.04990 0.57172
 C124 C -0.39364 0.00409 0.55814
 C125 C -0.36944 -0.04036 0.56623
 C126 C -0.33058 -0.03891 0.58711
 C127 C -0.27320 0.00852 0.62249
 C128 C -0.26709 -0.03296 0.64262
 C129 C -0.22659 -0.03212 0.66241
 C130 C -0.19162 0.01043 0.66279
 C131 C -0.19800 0.05220 0.64305
 C132 C -0.23816 0.05117 0.62301
 C133 C -0.14824 0.01096 0.68347
 C134 C -0.13575 0.05417 0.70018
 C135 C -0.09473 0.05462 0.71961
 C136 C -0.06551 0.01195 0.72256
 C137 C -0.07721 -0.03082 0.70547
 C138 C -0.11860 -0.03158 0.68633
 H139 H -0.32999 0.08700 0.60323
 H140 H -0.39678 0.08472 0.56609
 H141 H -0.37987 -0.07618 0.55599
 H142 H -0.31179 -0.07359 0.59213
 H143 H -0.29387 -0.06600 0.64328
 H144 H -0.22290 -0.06454 0.67770
 H145 H -0.17118 0.08522 0.64265
 H146 H -0.24106 0.08339 0.60749
 H147 H -0.15799 0.08745 0.69838
 H148 H -0.08565 0.08860 0.73194
 H149 H -0.05439 -0.06372 0.70701
 H150 H -0.12690 -0.06505 0.67334
 C151 C -0.01071 -0.30387 0.89698
 C152 C -0.05464 -0.33581 0.90385
 C153 C -0.05261 -0.37750 0.92406
 C154 C -0.00643 -0.38842 0.93749
 C155 C 0.03769 -0.35695 0.93014
 C156 C 0.03549 -0.31497 0.91024
 C157 C -0.01300 -0.25869 0.87634
 C158 C 0.01027 -0.21153 0.88392
 C159 C 0.00895 -0.16899 0.86436
 C160 C -0.01519 -0.17274 0.83657
 C161 C -0.03886 -0.21996 0.82915
 C162 C -0.03800 -0.26241 0.84890
 C163 C -0.01473 -0.12785 0.81525
 C164 C -0.05717 -0.11909 0.79749
 C165 C -0.05611 -0.07732 0.77711
 C166 C -0.01264 -0.04366 0.77411
 C167 C 0.02919 -0.05145 0.79223
 C168 C 0.02844 -0.09338 0.81236
 H169 H -0.09079 -0.32788 0.89406
 H170 H -0.08722 -0.40109 0.92925
 H171 H 0.07382 -0.36430 0.94014
 H172 H 0.07003 -0.29124 0.90506
 H173 H 0.02906 -0.20745 0.90518
 H174 H 0.02656 -0.13304 0.87115
 H175 H -0.05711 -0.22447 0.80777
 H176 H -0.05584 -0.29848 0.84242
 H177 H -0.09147 -0.14415 0.79962
 H178 H -0.08947 -0.07123 0.76402
 H179 H 0.06288 -0.02545 0.79045
 H180 H 0.06207 -0.09917 0.82532
 C181 C -0.00244 0.31878 0.89191
 C182 C 0.04258 0.34857 0.89719
 C183 C 0.04279 0.38657 0.91846
 C184 C -0.00210 0.39595 0.93478
 C185 C -0.04729 0.36678 0.92920
 C186 C -0.04742 0.32852 0.90810
 C187 C -0.00234 0.27708 0.87007
 C188 C -0.04469 0.26669 0.85203
 C189 C -0.04527 0.22640 0.83229
 C190 C -0.00337 0.19584 0.82994
 C191 C 0.03930 0.20660 0.84757
 C192 C 0.03974 0.24663 0.86750
 C193 C -0.00463 0.15222 0.80961
 C194 C 0.03815 0.14306 0.79128
 C195 C 0.03688 0.10164 0.77231
 C196 C -0.00712 0.06877 0.77142
 C197 C -0.04948 0.07727 0.79005
 C198 C -0.04848 0.11890 0.80878
 H199 H 0.07768 0.34272 0.88476
 H200 H 0.07818 0.40861 0.92211
 H201 H -0.08245 0.37284 0.94154
 H202 H -0.08258 0.30581 0.90500
 H203 H -0.07732 0.28994 0.85300
 H204 H -0.07837 0.21936 0.81864
 H205 H 0.07185 0.18322 0.84649
 H206 H 0.07261 0.25293 0.88141
 H207 H 0.07243 0.16816 0.79148
 H208 H 0.07052 0.09514 0.75873
 H209 H -0.08345 0.05168 0.79006
 H210 H -0.08165 0.12452 0.82304
 C211 C -0.30869 -0.00857 0.39212
 C212 C -0.32619 0.03842 0.40064
 C213 C -0.36630 0.04031 0.42184
 C214 C -0.39006 -0.00486 0.43503
 C215 C -0.37289 -0.05194 0.42604
 C216 C -0.33267 -0.05371 0.40491
 C217 C -0.26467 -0.01044 0.37056
 C218 C -0.22644 -0.04454 0.37584
 C219 C -0.18412 -0.04532 0.35615
 C220 C -0.17911 -0.01211 0.33067
 C221 C -0.21767 0.02152 0.32512
 C222 C -0.25995 0.02245 0.34491
 C223 C -0.13329 -0.01205 0.31034
 C224 C -0.13771 -0.00846 0.27889
 C225 C -0.09433 -0.00901 0.25992
 C226 C -0.04597 -0.01330 0.27205
 C227 C -0.04132 -0.01586 0.30338
 C228 C -0.08457 -0.01548 0.32235
 H229 H -0.30807 0.07386 0.39142
 H230 H -0.37827 0.07734 0.42806
 H231 H -0.39020 -0.08762 0.43547
 H232 H -0.32043 -0.09051 0.39847
 H233 H -0.22875 -0.06998 0.39556
 H234 H -0.15530 -0.07205 0.36083
 H235 H -0.21465 0.04781 0.30579
 H236 H -0.28906 0.04880 0.34011
 H237 H -0.17476 -0.00598 0.26898
 H238 H -0.09856 -0.00640 0.23576
 H239 H -0.00443 -0.01803 0.31341
 H240 H -0.07984 -0.01722 0.34648
 C241 C 0.32165 -0.00675 0.38933
 C242 C 0.33136 -0.05096 0.40636
 C243 C 0.36926 -0.04977 0.42786
 C244 C 0.39808 -0.00424 0.43300
 C245 C 0.38871 0.03988 0.41585
 C246 C 0.35109 0.03859 0.39419
 C247 C 0.28028 -0.00767 0.36709
 C248 C 0.24961 0.03406 0.36364
 C249 C 0.20994 0.03284 0.34331
 C250 C 0.19973 -0.01025 0.32611
 C251 C 0.23043 -0.05189 0.32937
 C252 C 0.27042 -0.05054 0.34954
 C253 C 0.15629 -0.01208 0.30546
 C254 C 0.12273 -0.05577 0.30492
 C255 C 0.08005 -0.05632 0.28679
 C256 C 0.07028 -0.01333 0.26889
 C257 C 0.10462 0.02966 0.26854
 C258 C 0.14710 0.03043 0.28684
 H259 H 0.30890 -0.08632 0.40356
 H260 H 0.37539 -0.08436 0.44081
 H261 H 0.41053 0.07547 0.41912
 H262 H 0.34526 0.07312 0.38111
 H263 H 0.25545 0.06727 0.37718
 H264 H 0.18635 0.06515 0.34158
 H265 H 0.22374 -0.08535 0.31612
 H266 H 0.29383 -0.08296 0.35124
 H267 H 0.12870 -0.08895 0.31918
 H268 H 0.05407 -0.08998 0.28718
 H269 H 0.09854 0.06297 0.25452
 H270 H 0.17281 0.06428 0.28648
   
