data_POSCAR
  _audit_creation_date              2014-09-24
  _audit_creation_method            'ToBaCCo'
  _symmetry_space_group_name_H-M    'P1'
  _symmetry_Int_Tables_number       1
  _symmetry_cell_setting            triclinic
  loop_
  _symmetry_equiv_pos_as_xyz
 x,y,z
_cell_length_a 23.1047
_cell_length_b 22.9421
_cell_length_c 22.9992
_cell_angle_alpha 88.815800
_cell_angle_beta 89.896100
_cell_angle_gamma 88.359500
loop_
  _atom_site_label
  _atom_site_type_symbol
  _atom_site_fract_x
  _atom_site_fract_y
  _atom_site_fract_z
C1 C 0.30717 0.36711 1.39414
 N2 N 0.31298 0.40388 1.34724
 C3 C 0.35544 0.39332 1.30748
 N4 N 0.39178 0.34639 1.31485
 C5 C 0.38692 0.31016 1.36160
 N6 N 0.34442 0.32050 1.40118
 C7 C 1.19779 0.62128 0.87372
 N8 N 1.16006 0.60802 0.83125
 C9 C 1.11093 0.64048 0.82231
 N10 N 1.09924 0.68720 0.85619
 C11 C 1.13711 0.70158 0.89849
 N12 N 1.18642 0.66839 0.90721
 C13 C 0.68765 -0.12604 0.11509
 N14 N 0.67593 -0.17398 0.08458
 C15 C 0.63927 -0.21422 0.10628
 N16 N 0.61637 -0.20763 0.16052
 C17 C 0.62875 -0.15961 0.19161
 N18 N 0.66339 -0.11852 0.16817
 C19 C -0.19683 1.13416 -0.39724
 N20 N -0.16655 1.18407 -0.40483
 C21 C -0.12260 1.19617 -0.36790
 N22 N -0.10951 1.15827 -0.32339
 C23 C -0.13851 1.10808 -0.31617
 N24 N -0.18215 1.09614 -0.35314
 C25 C 0.68076 0.62448 0.59873
 N26 N 0.64352 0.67049 0.59142
 C27 C 0.59936 0.67950 0.62940
 N28 N 0.59275 0.64210 0.67549
 C29 C 0.63117 0.59658 0.68373
 N30 N 0.67506 0.58811 0.64536
 C31 C 0.80738 0.36807 0.14869
 N32 N 0.84039 0.33357 0.11347
 C33 C 0.89931 0.33321 0.11780
 N34 N 0.92483 0.36898 0.15591
 C35 C 0.89186 0.40312 0.19101
 N36 N 0.83346 0.40192 0.18788
 C37 C 0.31350 0.12058 0.88998
 N38 N 0.31792 0.09126 0.83937
 C39 C 0.36249 0.10139 0.80227
 N40 N 0.40211 0.14148 0.81553
 C41 C 0.39790 0.17088 0.86598
 N42 N 0.35373 0.16015 0.90332
 C43 C 0.18125 0.90896 0.36926
 N44 N 0.13988 0.92652 0.33077
 C45 C 0.08974 0.89755 0.32682
 N46 N 0.08153 0.84901 0.36072
 C47 C 0.12357 0.83058 0.39907
 N48 N 0.17280 0.86119 0.40349
 Zn49 Zn 0.05845 0.99006 0.03819
 Zn50 Zn 0.01251 1.06950 -0.04685
 Zn51 Zn -0.04308 0.95447 -0.02941
 Zn52 Zn -0.05443 1.04132 0.05807
 O53 O -0.00688 1.01349 0.00417
 O54 O 0.11438 1.04167 0.02746
 O55 O -0.02711 1.06368 -0.11350
 O56 O 0.00603 0.89112 -0.03755
 O57 O 0.08932 1.06609 -0.06255
 O58 O 0.08301 0.92246 0.00936
 O59 O -0.06803 0.97760 -0.10093
 O60 O -0.12626 1.02549 0.04072
 O61 O -0.00290 1.14102 -0.01750
 O62 O -0.10806 0.93534 0.01237
 O63 O -0.05226 1.11851 0.06252
 O64 O -0.03996 1.00822 0.12917
 O65 O 0.05013 0.97671 0.11380
 C66 C 0.12693 1.06305 -0.02215
 C67 C -0.06000 1.02400 -0.13104
 C68 C 0.05846 0.88415 -0.02037
 C69 C -0.14266 0.97402 0.03339
 C70 C -0.02967 1.15589 0.02858
 C71 C 0.00654 0.98273 0.14694
 Zn72 Zn 0.48765 0.00960 0.41294
 Zn73 Zn 0.44376 -0.04949 0.51836
 Zn74 Zn 0.56760 -0.04511 0.49728
 Zn75 Zn 0.50055 0.06289 0.52268
 O76 O 0.49999 -0.00618 0.48843
 O77 O 0.41345 -0.00148 0.39435
 O78 O 0.46945 -0.12131 0.53836
 O79 O 0.58635 -0.08350 0.43148
 O80 O 0.38363 -0.05394 0.47027
 O81 O 0.52970 -0.03703 0.36681
 O82 O 0.56163 -0.10090 0.55262
 O83 O 0.57394 0.08497 0.53236
 O84 O 0.41590 -0.01953 0.58378
 O85 O 0.62558 0.00357 0.51556
 O86 O 0.46328 0.06266 0.59185
 O87 O 0.46582 0.11797 0.47701
 O88 O 0.50184 0.08414 0.39495
 C89 C 0.37460 -0.03000 0.42068
 C90 C 0.51909 -0.13456 0.55921
 C91 C 0.56730 -0.07662 0.37978
 C92 C 0.62247 0.05771 0.52755
 C93 C 0.42746 0.02591 0.61153
 C94 C 0.47864 0.12536 0.42364
 Zn95 Zn 1.00848 0.44003 0.47506
 Zn96 Zn 1.07326 0.53142 0.53790
 Zn97 Zn 0.97506 0.56627 0.46010
 Zn98 Zn 0.95789 0.50424 0.56886
 O99 O 1.00487 0.51045 0.50857
 O100 O 1.08251 0.41391 0.47106
 O101 O 1.09271 0.60215 0.51087
 O102 O 0.96517 0.53920 0.38895
 O103 O 1.13060 0.48165 0.51750
 O104 O 0.98265 0.44399 0.40118
 O105 O 1.01920 0.62925 0.45376
 O106 O 0.88538 0.52315 0.54944
 O107 O 1.07159 0.53803 0.61641
 O108 O 0.90448 0.59078 0.48253
 O109 O 0.97718 0.55332 0.62438
 O110 O 0.95948 0.43133 0.59874
 O111 O 0.96847 0.38491 0.51555
 C112 C 1.12956 0.43478 0.48900
 C113 C 1.06756 0.63937 0.47709
 C114 C 0.96733 0.48782 0.36938
 C115 C 0.86967 0.56670 0.51773
 C116 C 1.02790 0.55772 0.64446
 C117 C 0.95647 0.38495 0.56967
 Zn118 Zn 0.48476 0.46751 0.92740
 Zn119 Zn 0.46461 0.53842 1.02658
 Zn120 Zn 0.49872 0.41128 1.03948
 Zn121 Zn 0.58272 0.49161 0.98904
 O122 O 0.50768 0.47765 0.99881
 O123 O 0.41048 0.48496 0.91918
 O124 O 0.43078 0.51836 1.09470
 O125 O 0.47615 0.35266 0.99364
 O126 O 0.40409 0.55984 0.97827
 O127 O 0.49622 0.39364 0.90797
 O128 O 0.44851 0.42241 1.09748
 O129 O 0.62856 0.44641 1.03460
 O130 O 0.51005 0.60053 1.03802
 O131 O 0.56503 0.38721 1.07504
 O132 O 0.59534 0.56487 1.00739
 O133 O 0.60661 0.48397 0.91493
 O134 O 0.52304 0.51163 0.87632
 C135 C 0.38352 0.52991 0.93735
 C136 C 0.42533 0.46829 1.11878
 C137 C 0.48314 0.34940 0.93877
 C138 C 0.61627 0.40551 1.07013
 C139 C 0.56389 0.60618 1.02736
 C140 C 0.57752 0.50521 0.87237
 N141 N 1.20232 0.35713 0.50307
 N142 N 1.25079 0.33784 0.47822
 C143 C 1.26183 0.37493 0.43343
 C144 C 1.21878 0.41789 0.43180
 N145 N 1.18283 0.40510 0.47592
 H146 H 1.21296 0.45363 0.40066
 N147 N 0.30791 0.51503 0.86765
 N148 N 0.25823 0.53848 0.84924
 C149 C 0.24724 0.58581 0.88162
 C150 C 0.29224 0.59073 0.92104
 N151 N 0.32913 0.54544 0.91056
 H152 H 0.29781 0.62369 0.95341
 N153 N -0.23339 0.99958 0.07927
 N154 N -0.27886 0.97467 0.10293
 C155 C -0.27358 0.91757 0.09130
 C156 C -0.22337 0.90794 0.05957
 N157 N -0.19949 0.96049 0.05327
 H158 H -0.20418 0.86670 0.04633
 N159 N 0.68285 0.14146 0.51087
 N160 N 0.73169 0.16329 0.52984
 C161 C 0.75477 0.12406 0.56832
 C162 C 0.71863 0.07675 0.57165
 N163 N 0.67436 0.08956 0.53515
 H164 H 0.72237 0.03858 0.60002
 N165 N 0.48807 0.19634 0.34462
 N166 N 0.46391 0.24652 0.32662
 C167 C 0.42413 0.26176 0.36700
 C168 C 0.42505 0.21978 0.41078
 N169 N 0.46543 0.17982 0.39499
 H170 H 0.39762 0.21720 0.44893
 N171 N 0.96502 0.31599 0.65055
 N172 N 0.94517 0.26501 0.66810
 C173 C 0.90818 0.24771 0.62696
 C174 C 0.90651 0.28991 0.58278
 N175 N 0.94272 0.33160 0.59946
 H176 H 0.88131 0.29061 0.54311
 N177 N 0.14132 0.81824 -0.00717
 N178 N 0.16381 0.76913 -0.02773
 C179 C 0.12670 0.75085 -0.06815
 C180 C 0.08015 0.79040 -0.07151
 N181 N 0.09127 0.83183 -0.03272
 H182 H 0.04298 0.78995 -0.10008
 N183 N 0.63000 0.68118 0.99970
 N184 N 0.65178 0.72927 1.02010
 C185 C 0.62596 0.73896 1.07177
 C186 C 0.58661 0.69550 1.08218
 N187 N 0.59060 0.66062 1.03585
 H188 H 0.55930 0.68892 1.11992
 N189 N 0.35951 0.50339 1.19538
 N190 N 0.33930 0.48461 1.24638
 C191 C 0.36230 0.43043 1.25535
 C192 C 0.39665 0.41654 1.20856
 N193 N 0.39386 0.46286 1.17217
 H194 H 0.42242 0.37698 1.20221
 N195 N 0.59369 -0.17235 0.34219
 N196 N 0.60697 -0.19669 0.29185
 C197 C 0.60845 -0.15304 0.25172
 C198 C 0.59604 -0.10117 0.27904
 N199 N 0.58728 -0.11508 0.33535
 H200 H 0.59406 -0.05760 0.26001
 N201 N -0.12620 0.99516 -0.20731
 N202 N -0.14841 1.01627 -0.25684
 C203 C -0.12415 1.06830 -0.26698
 C204 C -0.08635 1.07843 -0.22217
 N205 N -0.08891 1.03185 -0.18588
 H206 H -0.06072 1.11655 -0.21579
 N207 N 0.99526 0.62007 0.72317
 N208 N 1.01596 0.64404 0.77052
 C209 C 1.07147 0.62496 0.77559
 C210 C 1.08427 0.58865 0.72992
 N211 N 1.03561 0.58677 0.69828
 H212 H 1.12505 0.56647 0.72024
 N213 N 0.79061 0.63433 0.49125
 N214 N 0.73954 0.65143 0.51209
 C215 C 0.72910 0.61648 0.55859
 C216 C 0.77468 0.57731 0.56547
 N217 N 0.81214 0.58996 0.52279
 H218 H 0.78176 0.54541 0.60030
 N219 N 0.65997 0.39796 1.16450
 N220 N 0.71245 0.39112 1.18697
 C221 C 0.74734 0.37141 1.14419
 C222 C 0.71446 0.36643 1.09449
 N223 N 0.66014 0.38365 1.10907
 H224 H 0.72974 0.35844 1.05075
 N225 N 0.21725 1.10363 0.00965
 N226 N 0.26746 1.11993 -0.01225
 C227 C 0.26565 1.10974 -0.06972
 C228 C 0.21257 1.08720 -0.08266
 N229 N 0.18375 1.08422 -0.03193
 H230 H 0.19669 1.07388 -0.12447
 N231 N 0.30004 -0.00232 0.34980
 N232 N 0.24708 -0.01732 0.33533
 C233 C 0.23283 -0.06158 0.37169
 C234 C 0.27843 -0.07316 0.40906
 N235 N 0.31938 -0.03532 0.39388
 H236 H 0.28181 -0.10601 0.44349
 N237 N 0.49260 -0.20977 0.63029
 N238 N 0.51366 -0.26047 0.65106
 C239 C 0.56324 -0.27161 0.62169
 C240 C 0.57234 -0.22621 0.58298
 N241 N 0.52758 -0.18872 0.58982
 H242 H 0.60800 -0.22070 0.55290
 N243 N 1.14463 0.70766 0.48894
 N244 N 1.16062 0.75926 0.46905
 C245 C 1.11924 0.77895 0.43162
 C246 C 1.07694 0.73755 0.42925
 N247 N 1.09479 0.69369 0.46550
 H248 H 1.03828 0.73830 0.40267
 N249 N 0.00972 1.24822 0.05569
 N250 N -0.00811 1.29632 0.08211
 C251 C -0.06632 1.29431 0.08620
 C252 C -0.08364 1.24348 0.06140
 N253 N -0.03495 1.21599 0.04304
 H254 H -0.12652 1.22560 0.06159
 N255 N 0.50089 0.28247 0.86022
 N256 N 0.47908 0.23451 0.83928
 C257 C 0.43864 0.21689 0.87759
 C258 C 0.43668 0.25513 0.92312
 N259 N 0.47614 0.29536 0.91045
 H260 H 0.40641 0.25644 0.95910
 N261 N 0.65837 0.50102 0.80480
 N262 N 0.67358 0.52384 0.75389
 C263 C 0.62926 0.55940 0.73615
 C264 C 0.58621 0.55767 0.77757
 N265 N 0.60617 0.52078 0.81957
 H266 H 0.54523 0.58178 0.77793
 N267 N 0.35452 0.00416 0.68432
 N268 N 0.33543 0.02326 0.73501
 C269 C 0.36824 0.06867 0.74845
 C270 C 0.40808 0.07702 0.70443
 N271 N 0.39799 0.03581 0.66533
 H272 H 0.44120 0.10939 0.70131
 N273 N -0.03102 0.93423 0.23466
 N274 N -0.00991 0.90838 0.28273
 C275 C 0.04749 0.91781 0.28277
 C276 C 0.06073 0.95013 0.23390
 N277 N 0.01093 0.95965 0.20506
 H278 H 0.10305 0.96359 0.21947
 N279 N 0.93100 0.52252 0.27570
 N280 N 0.91084 0.50144 0.22682
 C281 C 0.91837 0.44307 0.23080
 C282 C 0.94295 0.42867 0.28388
 N283 N 0.95020 0.47958 0.31052
 H284 H 0.95061 0.38560 0.30293
   
