data_POSCAR
  _audit_creation_date              2014-09-24
  _audit_creation_method            'ToBaCCo'
  _symmetry_space_group_name_H-M    'P1'
  _symmetry_Int_Tables_number       1
  _symmetry_cell_setting            triclinic
  loop_
  _symmetry_equiv_pos_as_xyz
 x,y,z
_cell_length_a 40.3739
_cell_length_b 42.5016
_cell_length_c 16.6970
_cell_angle_alpha 89.628800
_cell_angle_beta 89.528800
_cell_angle_gamma 90.221800
loop_
  _atom_site_label
  _atom_site_type_symbol
  _atom_site_fract_x
  _atom_site_fract_y
  _atom_site_fract_z
C1 C 0.18953 0.22136 0.16666
 C2 C 0.17705 0.25074 0.14208
 C3 C 0.19345 0.27896 0.15788
 C4 C 0.22440 0.27842 0.19647
 C5 C 0.23764 0.24934 0.22296
 C6 C 0.21967 0.22090 0.21097
 C7 C 0.23094 0.19355 0.25000
 C8 C 0.26112 0.19304 0.28952
 C9 C 0.28133 0.22000 0.29334
 C10 C 0.26843 0.24888 0.26412
 C11 C 0.24232 0.30629 0.20957
 C12 C 0.27225 0.30583 0.25000
 C13 C 0.28578 0.27741 0.27773
 C14 C 0.31576 0.27692 0.32075
 C15 C 0.32852 0.24828 0.34761
 C16 C 0.31265 0.21946 0.33213
 H17 H 0.21609 0.17238 0.25302
 H18 H 0.26786 0.17141 0.31957
 H19 H 0.23335 0.32884 0.18888
 H20 H 0.28446 0.32814 0.25995
 H21 H 0.15430 0.25200 0.10823
 H22 H 0.35252 0.24857 0.37632
 C23 C 0.81333 0.27531 0.16648
 C24 C 0.82592 0.24557 0.14629
 C25 C 0.81084 0.21766 0.17236
 C26 C 0.78115 0.21893 0.21746
 C27 C 0.76771 0.24851 0.23886
 C28 C 0.78351 0.27683 0.21275
 C29 C 0.76767 0.30560 0.22896
 C30 C 0.73913 0.30684 0.27597
 C31 C 0.72402 0.27924 0.30519
 C32 C 0.73798 0.24973 0.28525
 C33 C 0.76392 0.19134 0.23905
 C34 C 0.73473 0.19258 0.28363
 C35 C 0.72185 0.22143 0.31001
 C36 C 0.69266 0.22296 0.35789
 C37 C 0.68019 0.25243 0.37952
 C38 C 0.69501 0.28036 0.35295
 H39 H 0.77666 0.32762 0.20434
 H40 H 0.72878 0.32977 0.28833
 H41 H 0.77250 0.16844 0.22016
 H42 H 0.72226 0.17054 0.29601
 H43 H 0.84930 0.24392 0.11411
 H44 H 0.65801 0.25370 0.41646
 C45 C 0.68479 0.72156 0.70795
 C46 C 0.66948 0.75031 0.69151
 C47 C 0.68362 0.77883 0.71491
 C48 C 0.71432 0.77887 0.75511
 C49 C 0.73086 0.75001 0.76940
 C50 C 0.71589 0.72121 0.74644
 C51 C 0.73265 0.69290 0.76125
 C52 C 0.76332 0.69280 0.79848
 C53 C 0.77891 0.72106 0.82051
 C54 C 0.76260 0.74999 0.80592
 C55 C 0.72898 0.80695 0.78112
 C56 C 0.75959 0.80682 0.81862
 C57 C 0.77788 0.77885 0.82764
 C58 C 0.81015 0.77872 0.86191
 C59 C 0.82492 0.74955 0.87940
 C60 C 0.81020 0.72106 0.85777
 H61 H 0.72231 0.67046 0.74392
 H62 H 0.77465 0.67021 0.80992
 H63 H 0.71683 0.82939 0.77333
 H64 H 0.76851 0.82902 0.84128
 H65 H 0.64584 0.75047 0.66104
 H66 H 0.84967 0.74882 0.90408
 C67 C 0.30938 0.77677 0.64173
 C68 C 0.32411 0.74781 0.62521
 C69 C 0.30793 0.71945 0.64299
 C70 C 0.27560 0.71998 0.67642
 C71 C 0.26063 0.74913 0.69558
 C72 C 0.27750 0.77766 0.67737
 C73 C 0.26152 0.80631 0.69207
 C74 C 0.22986 0.80702 0.72521
 C75 C 0.21306 0.77912 0.74737
 C76 C 0.22839 0.74978 0.73097
 C77 C 0.25723 0.69219 0.68723
 C78 C 0.22543 0.69286 0.71949
 C79 C 0.21113 0.72110 0.74659
 C80 C 0.17894 0.72171 0.78237
 C81 C 0.16383 0.75109 0.79407
 C82 C 0.18029 0.77966 0.77894
 H83 H 0.27301 0.82856 0.67627
 H84 H 0.21846 0.82985 0.73089
 H85 H 0.26684 0.66968 0.66831
 H86 H 0.21186 0.67089 0.72044
 H87 H 0.34885 0.74736 0.59939
 H88 H 0.13970 0.75207 0.82293
 O89 O 1.03737 -0.03565 0.01873
 O90 O 0.97328 0.02073 0.08199
 O91 O 0.97320 -0.03736 0.03096
 O92 O 1.03791 0.02172 0.07087
 O93 O 1.03320 0.03986 -0.05275
 O94 O 0.96935 -0.01985 -0.09327
 O95 O 0.96922 0.03795 -0.04244
 O96 O 1.03310 -0.01825 -0.10564
 Cu97 Cu 1.00577 -0.00931 0.06319
 Cu98 Cu 1.00092 0.01173 -0.08598
 C99 C 1.04576 -0.03686 -0.05464
 C100 C 0.96039 0.03909 0.03063
 C101 C 0.96056 -0.03903 -0.03835
 C102 C 1.04635 0.04103 0.01600
 O103 O 0.53518 0.53655 0.47607
 O104 O 0.47331 0.47782 0.41547
 O105 O 0.47112 0.53597 0.46549
 O106 O 0.53746 0.47828 0.42815
 O107 O 0.53352 0.46225 0.55378
 O108 O 0.46645 0.51866 0.58994
 O109 O 0.46958 0.46066 0.54019
 O110 O 0.53057 0.52045 0.60152
 Cu111 Cu 0.50466 0.50881 0.43373
 Cu112 Cu 0.49959 0.48885 0.58385
 C113 C 0.54323 0.53882 0.54918
 C114 C 0.46115 0.45891 0.46718
 C115 C 0.45757 0.53727 0.53439
 C116 C 0.54675 0.46031 0.48474
 O117 O -0.03201 0.53378 0.03622
 O118 O 0.03441 0.47738 0.08092
 O119 O 0.03183 0.53652 0.03537
 O120 O -0.03000 0.47454 0.07986
 O121 O -0.02960 0.46102 -0.04747
 O122 O 0.03453 0.52056 -0.09019
 O123 O 0.03469 0.46202 -0.04502
 O124 O -0.02997 0.52014 -0.09098
 Cu125 Cu 0.00096 0.50692 0.07089
 Cu126 Cu 0.00247 0.48948 -0.08110
 C127 C -0.04190 0.53707 -0.03534
 C128 C 0.04565 0.45977 0.02588
 C129 C 0.04362 0.53907 -0.03517
 C130 C -0.04040 0.45719 0.02359
 O131 O 0.53861 1.02434 0.44334
 O132 O 0.47286 0.96482 0.46545
 O133 O 0.47442 1.02406 0.42342
 O134 O 0.53623 0.96557 0.48600
 O135 O 0.52948 0.97995 0.61178
 O136 O 0.46635 1.03725 0.54962
 O137 O 0.46579 0.97810 0.59194
 O138 O 0.53002 1.03951 0.56807
 Cu139 Cu 0.50624 0.99342 0.44184
 Cu140 Cu 0.49724 1.01012 0.59304
 C141 C 0.54526 1.04229 0.50152
 C142 C 0.45846 0.96086 0.53269
 C143 C 0.45973 1.04063 0.47583
 C144 C 0.54325 0.96257 0.55967
 C145 C 1.13480 0.14116 0.09681
 C146 C 1.16943 0.13976 0.09654
 C147 C 1.18771 0.16624 0.11895
 C148 C 1.17160 0.19382 0.14484
 C149 C 1.13663 0.19388 0.14343
 N150 N 1.11952 0.16810 0.11954
 C151 C 1.11433 0.11429 0.07215
 N152 N 1.08839 0.11941 0.02229
 C153 C 1.06727 0.09600 0.00102
 C154 C 1.07096 0.06567 0.03311
 C155 C 1.09752 0.05984 0.08466
 C156 C 1.11961 0.08404 0.10343
 H157 H 1.21443 0.16534 0.11352
 H158 H 1.12266 0.21406 0.16349
 H159 H 1.04690 0.10138 -0.03849
 H160 H 1.10107 0.03666 0.11044
 H161 H 1.18217 0.11877 0.07688
 H162 H 1.13979 0.07951 0.14420
 C163 C 0.63042 0.63985 0.63926
 C164 C 0.64277 0.66054 0.58010
 C165 C 0.66106 0.68691 0.60253
 C166 C 0.66734 0.69253 0.68350
 C167 C 0.65496 0.67125 0.74089
 N168 N 0.63699 0.64582 0.71769
 C169 C 0.60936 0.61260 0.61755
 N170 N 0.60133 0.60781 0.53950
 C171 C 0.58097 0.58411 0.51633
 C172 C 0.56700 0.56350 0.57346
 C173 C 0.57533 0.56764 0.65418
 C174 C 0.59648 0.59209 0.67640
 H175 H 0.67011 0.70309 0.55691
 H176 H 0.65910 0.67519 0.80402
 H177 H 0.57534 0.58175 0.45340
 H178 H 0.56514 0.55230 0.70026
 H179 H 0.63797 0.65671 0.51721
 H180 H 0.60229 0.59513 0.73905
 C181 C -0.12864 0.35381 0.09544
 C182 C -0.13477 0.32947 0.04098
 C183 C -0.15425 0.30384 0.06439
 C184 C -0.16811 0.30215 0.14190
 C185 C -0.16056 0.32665 0.19523
 N186 N -0.14138 0.35139 0.17100
 C187 C -0.10738 0.38125 0.07440
 N188 N -0.09335 0.39818 0.13438
 C189 C -0.07265 0.42294 0.11984
 C190 C -0.06470 0.43182 0.04084
 C191 C -0.07954 0.41526 -0.02183
 C192 C -0.10100 0.39022 -0.00546
 H193 H -0.15895 0.28553 0.02100
 H194 H -0.16889 0.32566 0.25699
 H195 H -0.06190 0.43518 0.17002
 H196 H -0.07448 0.42156 -0.08368
 H197 H -0.12416 0.32957 -0.01865
 H198 H -0.11246 0.37834 -0.05515
 C199 C 0.36713 0.85795 0.58116
 C200 C 0.35316 0.83967 0.51998
 C201 C 0.33402 0.81334 0.54003
 C202 C 0.32823 0.80554 0.62043
 C203 C 0.34173 0.82469 0.67983
 N204 N 0.36065 0.85003 0.65899
 C205 C 0.38923 0.88521 0.56429
 N206 N 0.39562 0.90581 0.62445
 C207 C 0.41688 0.93049 0.61538
 C208 C 0.43358 0.93542 0.54228
 C209 C 0.42723 0.91464 0.47924
 C210 C 0.40527 0.88954 0.48994
 H211 H 0.32371 0.79899 0.49293
 H212 H 0.33766 0.81921 0.74256
 H213 H 0.42106 0.94588 0.66572
 H214 H 0.43980 0.91733 0.42205
 H215 H 0.35665 0.84541 0.45735
 H216 H 0.40196 0.87339 0.44095
 C217 C -0.13166 0.63825 -0.10753
 C218 C -0.13870 0.64870 -0.18570
 C219 C -0.15802 0.67550 -0.19684
 C220 C -0.17039 0.69189 -0.13067
 C221 C -0.16266 0.68106 -0.05375
 N222 N -0.14375 0.65491 -0.04424
 C223 C -0.11009 0.61074 -0.09121
 N224 N -0.09753 0.60718 -0.01625
 C225 C -0.07660 0.58344 0.00345
 C226 C -0.06675 0.56147 -0.05438
 C227 C -0.08000 0.56412 -0.13151
 C228 C -0.10176 0.58851 -0.15009
 H229 H -0.16304 0.68371 -0.25707
 H230 H -0.17153 0.69346 -0.00142
 H231 H -0.06712 0.58224 0.06383
 H232 H -0.07337 0.54747 -0.17769
 H233 H -0.12885 0.63710 -0.23803
 H234 H -0.11174 0.58960 -0.20987
 C235 C 0.36874 1.13832 0.38503
 C236 C 0.35052 1.13961 0.31382
 C237 C 0.33131 1.16607 0.29708
 C238 C 0.32970 1.19128 0.35133
 C239 C 0.34807 1.18865 0.42241
 N240 N 0.36657 1.16268 0.43721
 C241 C 0.39066 1.11161 0.40553
 N242 N 0.39934 1.10742 0.48347
 C243 C 0.42062 1.08459 0.50730
 C244 C 0.43513 1.06444 0.45085
 C245 C 0.42650 1.06819 0.37008
 C246 C 0.40433 1.09169 0.34715
 H247 H 0.31884 1.16729 0.23996
 H248 H 0.34739 1.20704 0.46694
 H249 H 0.42657 1.08263 0.57021
 H250 H 0.43722 1.05328 0.32445
 H251 H 0.35104 1.12062 0.27109
 H252 H 0.39896 1.09466 0.28424
 C253 C 1.12809 -0.13862 -0.15722
 C254 C 1.11332 -0.16076 -0.20750
 C255 C 1.13064 -0.18779 -0.22839
 C256 C 1.16329 -0.19232 -0.20216
 C257 C 1.17719 -0.16942 -0.15182
 N258 N 1.15939 -0.14364 -0.13038
 C259 C 1.10937 -0.11070 -0.13129
 N260 N 1.08679 -0.09763 -0.18149
 C261 C 1.06741 -0.07311 -0.15927
 C262 C 1.06939 -0.06101 -0.08152
 C263 C 1.09273 -0.07388 -0.02895
 C264 C 1.11314 -0.09845 -0.05408
 H265 H 1.11874 -0.20495 -0.26642
 H266 H 1.20170 -0.17257 -0.12722
 H267 H 1.04953 -0.06395 -0.20129
 H268 H 1.09492 -0.06515 0.03160
 H269 H 1.08825 -0.15761 -0.22866
 H270 H 1.13073 -0.10857 -0.01272
 C271 C 0.64097 0.36233 0.41884
 C272 C 0.65975 0.34636 0.47685
 C273 C 0.67823 0.32009 0.45479
 C274 C 0.67861 0.31013 0.37511
 C275 C 0.66072 0.32731 0.31830
 N276 N 0.64248 0.35256 0.34131
 C277 C 0.61860 0.38870 0.43951
 N278 N 0.60820 0.40832 0.38006
 C279 C 0.58609 0.43183 0.39330
 C280 C 0.57261 0.43637 0.47013
 C281 C 0.58316 0.41659 0.53240
 C282 C 0.60598 0.39277 0.51744
 H283 H 0.69187 0.30725 0.49994
 H284 H 0.66047 0.32007 0.25627
 H285 H 0.57859 0.44647 0.34344
 H286 H 0.57326 0.41906 0.59252
 H287 H 0.66017 0.35376 0.53864
 H288 H 0.61253 0.37717 0.56612
 C289 C 0.86999 -0.14053 -0.10503
 C290 C 0.85076 -0.14318 -0.17443
 C291 C 0.83086 -0.16970 -0.18509
 C292 C 0.82919 -0.19355 -0.12629
 C293 C 0.84911 -0.18999 -0.05805
 N294 N 0.86837 -0.16396 -0.04915
 C295 C 0.89217 -0.11326 -0.09023
 N296 N 0.90391 -0.10885 -0.01483
 C297 C 0.92512 -0.08509 0.00357
 C298 C 0.93603 -0.06396 -0.05607
 C299 C 0.92419 -0.06793 -0.13413
 C300 C 0.90247 -0.09250 -0.15156
 H301 H 0.81752 -0.17190 -0.24079
 H302 H 0.84880 -0.20752 -0.01073
 H303 H 0.93368 -0.08300 0.06457
 H304 H 0.93222 -0.05241 -0.18224
 H305 H 0.85077 -0.12521 -0.22048
 H306 H 0.89479 -0.09539 -0.21288
 C307 C 0.37457 0.35820 0.37075
 C308 C 0.37078 0.34839 0.29093
 C309 C 0.35114 0.32215 0.27441
 C310 C 0.33531 0.30572 0.33687
 C311 C 0.33994 0.31590 0.41556
 N312 N 0.35917 0.34149 0.43032
 C313 C 0.39590 0.38522 0.39305
 N314 N 0.40608 0.38755 0.47038
 C315 C 0.42622 0.41110 0.49575
 C316 C 0.43758 0.43423 0.44168
 C317 C 0.42683 0.43276 0.36208
 C318 C 0.40595 0.40847 0.33759
 H319 H 0.34861 0.31436 0.21311
 H320 H 0.32840 0.30341 0.46521
 H321 H 0.43371 0.41140 0.55783
 H322 H 0.43467 0.45031 0.31852
 H323 H 0.38338 0.36008 0.24171
 H324 H 0.39776 0.40829 0.27617
 C325 C 0.12694 0.64183 -0.13042
 C326 C 0.16135 0.64312 -0.12246
 C327 C 0.17861 0.66960 -0.15031
 C328 C 0.16189 0.69430 -0.18960
 C329 C 0.12708 0.69185 -0.19504
 N330 N 0.11082 0.66619 -0.16559
 C331 C 0.10775 0.61457 -0.10150
 N332 N 0.08142 0.61918 -0.05161
 C333 C 0.06166 0.59504 -0.02644
 C334 C 0.06721 0.56449 -0.05454
 C335 C 0.09420 0.55922 -0.10603
 C336 C 0.11491 0.58419 -0.12863
 H337 H 0.20493 0.67102 -0.13897
 H338 H 0.11273 0.70983 -0.22484
 H339 H 0.04084 0.59992 0.01279
 H340 H 0.09908 0.53590 -0.12893
 H341 H 0.17459 0.62424 -0.09308
 H342 H 0.13551 0.58010 -0.16915
 C343 C 0.63530 1.14329 0.43489
 C344 C 0.66930 1.14389 0.45108
 C345 C 0.68818 1.17004 0.42741
 C346 C 0.67344 1.19474 0.38443
 C347 C 0.63924 1.19314 0.37013
 N348 N 0.62123 1.16793 0.39580
 C349 C 0.61439 1.11634 0.45824
 N350 N 0.58589 1.12140 0.50022
 C351 C 0.56432 1.09770 0.51826
 C352 C 0.57032 1.06719 0.49044
 C353 C 0.59954 1.06146 0.44706
 C354 C 0.62196 1.08594 0.43195
 H355 H 0.71423 1.17095 0.44220
 H356 H 0.62687 1.21193 0.33827
 H357 H 0.54181 1.10297 0.55111
 H358 H 0.60482 1.03817 0.42443
 H359 H 0.68092 1.12461 0.48278
 H360 H 0.64423 1.08151 0.39728
 C361 C 0.13843 0.36124 0.09766
 C362 C 0.14931 0.34112 0.03645
 C363 C 0.16818 0.31474 0.05573
 C364 C 0.17648 0.30856 0.13555
 C365 C 0.16574 0.32946 0.19480
 N366 N 0.14715 0.35486 0.17473
 C367 C 0.11629 0.38813 0.07996
 N368 N 0.10527 0.39284 0.00396
 C369 C 0.08349 0.41596 -0.01493
 C370 C 0.07113 0.43597 0.04476
 C371 C 0.08261 0.43194 0.12329
 C372 C 0.10515 0.40812 0.14107
 H373 H 0.17585 0.29885 0.00871
 H374 H 0.17137 0.32509 0.25717
 H375 H 0.07544 0.41827 -0.07635
 H376 H 0.07378 0.44685 0.17123
 H377 H 0.14277 0.34530 -0.02544
 H378 H 0.11331 0.40512 0.20224
 C379 C 0.62961 0.86128 0.65116
 C380 C 0.64543 0.84357 0.59135
 C381 C 0.66344 0.81693 0.61260
 C382 C 0.66600 0.80806 0.69312
 C383 C 0.65017 0.82635 0.75137
 N384 N 0.63253 0.85216 0.72924
 C385 C 0.60882 0.88872 0.62974
 N386 N 0.60328 0.89559 0.55121
 C387 C 0.58322 0.91944 0.52768
 C388 C 0.56700 0.93805 0.58486
 C389 C 0.57274 0.93179 0.66623
 C390 C 0.59360 0.90718 0.68888
 H391 H 0.67523 0.80307 0.56632
 H392 H 0.65145 0.81986 0.81405
 H393 H 0.57961 0.92344 0.46428
 H394 H 0.56067 0.94550 0.71238
 H395 H 0.64363 0.84997 0.52869
 H396 H 0.59739 0.90245 0.75193
 C397 C 0.86766 0.13511 0.12427
 C398 C 0.86009 0.14315 0.20399
 C399 C 0.84058 0.16950 0.21947
 C400 C 0.82851 0.18781 0.15615
 C401 C 0.83629 0.17897 0.07760
 N402 N 0.85544 0.15331 0.06389
 C403 C 0.89022 0.10886 0.10301
 N404 N 0.90188 0.10738 0.02638
 C405 C 0.92363 0.08507 0.00177
 C406 C 0.93534 0.06242 0.05600
 C407 C 0.92327 0.06301 0.13499
 C408 C 0.90059 0.08598 0.15862
 H409 H 0.83564 0.17616 0.28092
 H410 H 0.82768 0.19282 0.02731
 H411 H 0.93215 0.08546 -0.05986
 H412 H 0.93142 0.04581 0.17863
 H413 H 0.86983 0.13021 0.25436
 H414 H 0.89154 0.08546 0.21964
 C415 C 0.36480 0.63623 0.60336
 C416 C 0.35317 0.64315 0.68099
 C417 C 0.33398 0.66993 0.69343
 C418 C 0.32632 0.68984 0.62915
 C419 C 0.33835 0.68231 0.55277
 N420 N 0.35705 0.65612 0.54199
 C421 C 0.38685 0.60916 0.58643
 N422 N 0.40403 0.60888 0.51586
 C423 C 0.42587 0.58578 0.49683
 C424 C 0.43188 0.56114 0.55106
 C425 C 0.41384 0.56043 0.62321
 C426 C 0.39118 0.58415 0.64087
 H427 H 0.32566 0.67553 0.75351
 H428 H 0.33316 0.69740 0.50197
 H429 H 0.43910 0.58718 0.44027
 H430 H 0.41736 0.54162 0.66633
 H431 H 0.35947 0.62888 0.73237
 H432 H 0.37743 0.58259 0.69651
   
