data_POSCAR
  _audit_creation_date              2014-09-24
  _audit_creation_method            'ToBaCCo'
  _symmetry_space_group_name_H-M    'P1'
  _symmetry_Int_Tables_number       1
  _symmetry_cell_setting            triclinic
  loop_
  _symmetry_equiv_pos_as_xyz
 x,y,z
_cell_length_a 54.1413
_cell_length_b 53.4859
_cell_length_c 56.9437
_cell_angle_alpha 89.987900
_cell_angle_beta 90.064400
_cell_angle_gamma 120.483800
loop_
  _atom_site_label
  _atom_site_type_symbol
  _atom_site_fract_x
  _atom_site_fract_y
  _atom_site_fract_z
C1 C 0.02559 0.51327 1.30064
 C2 C -0.00045 0.50101 1.31269
 C3 C -0.02651 0.48872 1.30060
 C4 C -0.02680 0.48853 1.27575
 C5 C -0.00049 0.50096 1.26331
 C6 C 0.02585 0.51340 1.27578
 C7 C 0.05167 0.52562 1.26306
 C8 C 0.05164 0.52564 1.23862
 C9 C 0.02581 0.51343 1.22593
 C10 C -0.00051 0.50095 1.23836
 C11 C -0.05264 0.47627 1.26300
 C12 C -0.05266 0.47623 1.23856
 C13 C -0.02683 0.48847 1.22586
 C14 C -0.02653 0.48862 1.20100
 C15 C -0.00044 0.50102 1.18900
 C16 C 0.02556 0.51335 1.20112
 H17 H 0.07219 0.53531 1.27193
 H18 H 0.07212 0.53534 1.22974
 H19 H -0.07315 0.46656 1.27185
 H20 H -0.07316 0.46650 1.22967
 H21 H -0.00044 0.50104 1.33178
 H22 H -0.00031 0.50111 1.16992
 C23 C 0.48314 0.50856 1.30000
 C24 C 0.49616 0.49550 1.31201
 C25 C 0.50971 0.48305 1.29990
 C26 C 0.51039 0.48358 1.27504
 C27 C 0.49720 0.49677 1.26268
 C28 C 0.48349 0.50930 1.27519
 C29 C 0.47053 0.52224 1.26259
 C30 C 0.47103 0.52288 1.23814
 C31 C 0.48453 0.51064 1.22539
 C32 C 0.49774 0.49747 1.23774
 C33 C 0.52389 0.47133 1.26222
 C34 C 0.52444 0.47205 1.23778
 C35 C 0.51151 0.48503 1.22520
 C36 C 0.51197 0.48594 1.20039
 C37 C 0.49886 0.49894 1.18843
 C38 C 0.48521 0.51122 1.20058
 H39 H 0.45987 0.53199 1.27153
 H40 H 0.46073 0.53312 1.22932
 H41 H 0.53419 0.46107 1.27102
 H42 H 0.53511 0.46232 1.22880
 H43 H 0.49573 0.49508 1.33108
 H44 H 0.49932 0.49955 1.16937
 C45 C 0.48706 0.97387 1.30007
 C46 C 0.50022 1.00027 1.31217
 C47 C 0.51354 1.02669 1.30014
 C48 C 0.51387 1.02701 1.27528
 C49 C 0.50051 1.00036 1.26279
 C50 C 0.48702 0.97365 1.27521
 C51 C 0.47388 0.94750 1.26243
 C52 C 0.47398 0.94756 1.23799
 C53 C 0.48724 0.97376 1.22535
 C54 C 0.50066 1.00040 1.23783
 C55 C 0.52716 1.05321 1.26258
 C56 C 0.52735 1.05325 1.23814
 C57 C 0.51422 1.02709 1.22539
 C58 C 0.51425 1.02682 1.20052
 C59 C 0.50089 1.00039 1.18847
 C60 C 0.48746 0.97403 1.20054
 H61 H 0.46337 0.92670 1.27126
 H62 H 0.46355 0.92682 1.22907
 H63 H 0.53759 1.07398 1.27147
 H64 H 0.53789 1.07403 1.22930
 H65 H 0.50011 1.00024 1.33126
 H66 H 0.50093 1.00028 1.16939
 C67 C 0.97515 0.48898 0.69976
 C68 C 1.00126 0.50165 0.68782
 C69 C 1.02726 0.51373 0.69999
 C70 C 1.02735 0.51323 0.72485
 C71 C 1.00092 0.50041 0.73717
 C72 C 0.97470 0.48822 0.72457
 C73 C 0.94876 0.47560 0.73710
 C74 C 0.94854 0.47496 0.76154
 C75 C 0.97426 0.48692 0.77439
 C76 C 1.00070 0.49976 0.76211
 C77 C 1.05307 0.52516 0.73774
 C78 C 1.05286 0.52454 0.76218
 C79 C 1.02691 0.51195 0.77474
 C80 C 1.02637 0.51119 0.79960
 C81 C 1.00017 0.49848 0.81146
 C82 C 0.97427 0.48641 0.79920
 H83 H 0.92834 0.46608 0.72809
 H84 H 0.92797 0.46498 0.77031
 H85 H 1.07365 0.53512 0.72899
 H86 H 1.07328 0.53405 0.77118
 H87 H 1.00129 0.50208 0.66875
 H88 H 0.99988 0.49797 0.83053
 C89 C 0.48738 0.51308 0.79998
 C90 C 0.50109 0.50071 0.81196
 C91 C 0.51470 0.48837 0.79982
 C92 C 0.51471 0.48824 0.77500
 C93 C 0.50087 0.50076 0.76263
 C94 C 0.48713 0.51323 0.77516
 C95 C 0.47356 0.52555 0.76256
 C96 C 0.47352 0.52566 0.73810
 C97 C 0.48705 0.51346 0.72533
 C98 C 0.50083 0.50087 0.73770
 C99 C 0.52819 0.47599 0.76223
 C100 C 0.52813 0.47608 0.73777
 C101 C 0.51460 0.48844 0.72516
 C102 C 0.51448 0.48874 0.70034
 C103 C 0.50087 0.50122 0.68837
 C104 C 0.48722 0.51351 0.70051
 H105 H 0.46283 0.53524 0.77152
 H106 H 0.46278 0.53543 0.72927
 H107 H 0.53893 0.46621 0.77106
 H108 H 0.53883 0.46637 0.72880
 H109 H 0.50123 0.50076 0.83103
 H110 H 0.50092 0.50139 0.66930
 C111 C 0.51461 0.02592 0.69985
 C112 C 0.50198 -0.00043 0.68775
 C113 C 0.48878 -0.02686 0.69977
 C114 C 0.48810 -0.02717 0.72462
 C115 C 0.50088 -0.00049 0.73708
 C116 C 0.51418 0.02618 0.72465
 C117 C 0.52670 0.05235 0.73734
 C118 C 0.52619 0.05236 0.76178
 C119 C 0.51315 0.02619 0.77446
 C120 C 0.50038 -0.00048 0.76201
 C121 C 0.47505 -0.05334 0.73736
 C122 C 0.47458 -0.05331 0.76180
 C123 C 0.48712 -0.02712 0.77447
 C124 C 0.48680 -0.02683 0.79928
 C125 C 0.49943 -0.00045 0.81134
 C126 C 0.51252 0.02592 0.79928
 H127 H 0.53702 0.07311 0.72845
 H128 H 0.53615 0.07312 0.77068
 H129 H 0.46507 -0.07412 0.72850
 H130 H 0.46426 -0.07406 0.77071
 H131 H 0.50247 -0.00029 0.66868
 H132 H 0.49908 -0.00044 0.83040
 O133 O 0.37280 0.66430 0.97323
 O134 O 0.37472 0.71350 0.98016
 C135 C 0.35696 0.71762 0.96871
 O136 O 0.33037 0.70449 0.97296
 O137 O 0.28162 0.65686 0.98035
 C138 C 0.27722 0.63448 0.96907
 O139 O 0.29004 0.62073 0.97339
 O140 O 0.33694 0.61934 0.98062
 C141 C 0.35899 0.63732 0.96915
 O142 O 0.37405 0.65672 1.01997
 O143 O 0.37358 0.70471 1.02690
 C144 C 0.36037 0.71809 1.03104
 O145 O 0.33847 0.71400 1.01961
 O146 O 0.29091 0.66516 1.02701
 C147 C 0.27756 0.63826 1.03139
 O148 O 0.28126 0.61996 1.02009
 O149 O 0.32937 0.62098 1.02730
 C150 C 0.35600 0.63461 1.03148
 Cr151 Cr 0.37218 0.68400 1.00007
 Cr152 Cr 0.31113 0.68431 0.99999
 Cr153 Cr 0.31022 0.62188 1.00034
 O154 O 0.33118 0.66339 1.00013
 O155 O 0.62580 0.34263 0.98070
 O156 O 0.62609 0.29455 0.97369
 C157 C 0.63929 0.28117 0.96944
 O158 O 0.66121 0.28519 0.98081
 O159 O 0.70893 0.33397 0.97363
 C160 C 0.72233 0.36089 0.96928
 O161 O 0.71858 0.37917 0.98057
 O162 O 0.67053 0.37831 0.97342
 C163 C 0.64389 0.36479 0.96924
 O164 O 0.62702 0.33492 1.02744
 O165 O 0.62489 0.28562 1.02042
 C166 C 0.64258 0.28131 1.03179
 O167 O 0.66917 0.29437 1.02752
 O168 O 0.71800 0.34197 1.02034
 C169 C 0.72250 0.36439 1.03163
 O170 O 0.70983 0.37827 1.02728
 O171 O 0.66300 0.37982 1.02012
 C172 C 0.64093 0.36188 1.03158
 Cr173 Cr 0.62757 0.31524 1.00056
 Cr174 Cr 0.68854 0.31470 1.00057
 Cr175 Cr 0.68965 0.37726 1.00035
 O176 O 0.66859 0.33573 1.00049
 O177 O 0.66924 0.37885 0.52615
 O178 O 0.71768 0.38055 0.51895
 C179 C 0.72191 0.36269 0.53041
 O180 O 0.70885 0.33571 0.52632
 O181 O 0.66159 0.28633 0.51948
 C182 C 0.63968 0.28206 0.53094
 O183 O 0.62608 0.29504 0.52669
 O184 O 0.62471 0.34247 0.51928
 C185 C 0.64267 0.36495 0.53050
 O186 O 0.66108 0.37947 0.47944
 O187 O 0.70834 0.37879 0.47225
 C188 C 0.72143 0.36529 0.46807
 O189 O 0.71747 0.34322 0.47958
 O190 O 0.66903 0.29506 0.47272
 C191 C 0.64239 0.28154 0.46860
 O192 O 0.62453 0.28550 0.48004
 O193 O 0.62556 0.33416 0.47263
 C194 C 0.63900 0.36104 0.46820
 Cr195 Cr 0.68828 0.37778 0.49921
 Cr196 Cr 0.68842 0.31588 0.49953
 Cr197 Cr 0.62683 0.31513 0.49965
 O198 O 0.66785 0.33627 0.49947
 O199 O 0.32998 0.62180 0.52670
 O200 O 0.28193 0.62104 0.51975
 C201 C 0.27826 0.63935 0.53107
 O202 O 0.29169 0.66626 0.52672
 O203 O 0.33942 0.71500 0.51944
 C204 C 0.36139 0.71899 0.53070
 O205 O 0.37453 0.70558 0.52636
 O206 O 0.37469 0.65745 0.51930
 C207 C 0.35663 0.63533 0.53081
 O208 O 0.33726 0.62023 0.47996
 O209 O 0.29044 0.62189 0.47301
 C210 C 0.27778 0.63582 0.46874
 O211 O 0.28241 0.65827 0.48003
 O212 O 0.33125 0.70584 0.47274
 C213 C 0.35781 0.71885 0.46838
 O214 O 0.37552 0.71446 0.47964
 O215 O 0.37326 0.66510 0.47258
 C216 C 0.35930 0.63813 0.46846
 Cr217 Cr 0.31073 0.62288 0.49985
 Cr218 Cr 0.31197 0.68551 0.49973
 Cr219 Cr 0.37288 0.68484 0.49947
 O220 O 0.33186 0.66441 0.49968
 C221 C 0.46973 0.52110 0.31379
 C222 C 0.45872 0.53149 0.32561
 C223 C 0.44580 0.54381 0.34008
 C224 C 0.42648 0.52707 0.35773
 C225 C 0.41463 0.53923 0.37237
 C226 C 0.42201 0.56836 0.36958
 C227 C 0.44124 0.58492 0.35162
 C228 C 0.45305 0.57270 0.33698
 C229 C 0.41024 0.58153 0.38574
 C230 C 0.42788 0.60984 0.39442
 C231 C 0.41716 0.62178 0.41044
 C232 C 0.38867 0.60564 0.41797
 C233 C 0.37082 0.57763 0.40919
 C234 C 0.38151 0.56565 0.39317
 C235 C 0.37808 0.61739 0.43536
 C236 C 0.36940 0.62701 0.45028
 H237 H 0.42082 0.50472 0.36036
 H238 H 0.40021 0.52602 0.38623
 H239 H 0.44707 0.60729 0.34885
 H240 H 0.46796 0.58584 0.32334
 H241 H 0.45018 0.62249 0.38929
 H242 H 0.43120 0.64342 0.41723
 H243 H 0.34873 0.56495 0.41489
 H244 H 0.36729 0.54396 0.38658
 C245 C 0.47461 0.94888 0.31303
 C246 C 0.46385 0.92714 0.32481
 C247 C 0.45125 0.90157 0.33930
 C248 C 0.46849 0.89661 0.35467
 C249 C 0.45622 0.87241 0.36946
 C250 C 0.42647 0.85281 0.36909
 C251 C 0.40934 0.85783 0.35338
 C252 C 0.42168 0.88205 0.33859
 C253 C 0.41334 0.82771 0.38544
 C254 C 0.38735 0.81985 0.39685
 C255 C 0.37558 0.79697 0.41297
 C256 C 0.38956 0.78159 0.41787
 C257 C 0.41523 0.78898 0.40640
 C258 C 0.42706 0.81187 0.39029
 C259 C 0.37809 0.75894 0.43527
 C260 C 0.36870 0.74039 0.45020
 H261 H 0.49139 0.91165 0.35544
 H262 H 0.46993 0.86941 0.38157
 H263 H 0.38644 0.84297 0.35249
 H264 H 0.40813 0.88567 0.32674
 H265 H 0.37648 0.83185 0.39377
 H266 H 0.35579 0.79155 0.42185
 H267 H 0.42624 0.77723 0.41007
 H268 H 0.44690 0.81716 0.38159
 C269 C 0.05022 0.52479 0.31365
 C270 C 0.07164 0.53477 0.32548
 C271 C 0.09682 0.54645 0.34004
 C272 C 0.09887 0.52919 0.35750
 C273 C 0.12280 0.54070 0.37227
 C274 C 0.14502 0.56970 0.36978
 C275 C 0.14288 0.58681 0.35201
 C276 C 0.11892 0.57523 0.33723
 C277 C 0.16993 0.58217 0.38604
 C278 C 0.18114 0.61040 0.39504
 C279 C 0.20382 0.62168 0.41111
 C280 C 0.21564 0.60497 0.41835
 C281 C 0.20491 0.57703 0.40925
 C282 C 0.18222 0.56568 0.39320
 C283 C 0.23805 0.61608 0.43572
 C284 C 0.25642 0.62520 0.45062
 H285 H 0.08181 0.50693 0.35990
 H286 H 0.12360 0.52710 0.38598
 H287 H 0.15978 0.60909 0.34948
 H288 H 0.11755 0.58877 0.32374
 H289 H 0.17191 0.62348 0.39013
 H290 H 0.21186 0.64328 0.41814
 H291 H 0.21391 0.56390 0.41474
 H292 H 0.17430 0.54403 0.38637
 C293 C 0.52202 0.47068 0.31281
 C294 C 0.53276 0.45990 0.32450
 C295 C 0.54543 0.44721 0.33885
 C296 C 0.52824 0.42435 0.35405
 C297 C 0.54060 0.41273 0.36872
 C298 C 0.57038 0.42388 0.36840
 C299 C 0.58744 0.44664 0.35284
 C300 C 0.57502 0.45822 0.33816
 C301 C 0.58362 0.41237 0.38474
 C302 C 0.60944 0.43135 0.39636
 C303 C 0.62124 0.42069 0.41257
 C304 C 0.60745 0.39095 0.41736
 C305 C 0.58199 0.37183 0.40565
 C306 C 0.57014 0.38244 0.38944
 C307 C 0.61889 0.38022 0.43490
 C308 C 0.62823 0.37139 0.44993
 H309 H 0.50532 0.41577 0.35479
 H310 H 0.52695 0.39552 0.38073
 H311 H 0.61037 0.45544 0.35199
 H312 H 0.58851 0.47590 0.32644
 H313 H 0.62012 0.45452 0.39337
 H314 H 0.64087 0.43569 0.42163
 H315 H 0.57115 0.34876 0.40923
 H316 H 0.55044 0.36726 0.38056
 C317 C 0.52593 0.05164 0.31316
 C318 C 0.53667 0.07336 0.32497
 C319 C 0.54926 0.09893 0.33946
 C320 C 0.57878 0.11864 0.33857
 C321 C 0.59110 0.14291 0.35332
 C322 C 0.57402 0.14777 0.36916
 C323 C 0.54432 0.12797 0.36970
 C324 C 0.53206 0.10372 0.35497
 C325 C 0.58715 0.17289 0.38550
 C326 C 0.57328 0.18852 0.39049
 C327 C 0.58507 0.21136 0.40665
 C328 C 0.61086 0.21889 0.41802
 C329 C 0.62502 0.20375 0.41295
 C330 C 0.61328 0.18092 0.39678
 C331 C 0.62228 0.24146 0.43549
 C332 C 0.63160 0.25998 0.45044
 H333 H 0.59229 0.11514 0.32662
 H334 H 0.61397 0.15793 0.35229
 H335 H 0.53065 0.13086 0.38192
 H336 H 0.50921 0.08852 0.35587
 H337 H 0.55333 0.18309 0.38188
 H338 H 0.57394 0.22295 0.41045
 H339 H 0.64492 0.20930 0.42175
 H340 H 0.62428 0.16907 0.39357
 C341 C 0.94887 0.47722 0.31356
 C342 C 0.92743 0.46723 0.32530
 C343 C 0.90218 0.45553 0.33971
 C344 C 0.90082 0.47207 0.35815
 C345 C 0.87675 0.46049 0.37270
 C346 C 0.85369 0.43214 0.36902
 C347 C 0.85515 0.41577 0.35029
 C348 C 0.87925 0.42742 0.33573
 C349 C 0.82864 0.41953 0.38508
 C350 C 0.81631 0.39064 0.39281
 C351 C 0.79366 0.37922 0.40886
 C352 C 0.78299 0.39646 0.41733
 C353 C 0.79478 0.42505 0.40944
 C354 C 0.81744 0.43653 0.39341
 C355 C 0.76074 0.38520 0.43480
 C356 C 0.74254 0.37600 0.44980
 H357 H 0.91851 0.49380 0.36145
 H358 H 0.87647 0.47348 0.38717
 H359 H 0.83761 0.39402 0.34686
 H360 H 0.88009 0.41445 0.32148
 H361 H 0.82470 0.37713 0.38696
 H362 H 0.78478 0.35710 0.41494
 H363 H 0.78667 0.43858 0.41589
 H364 H 0.82623 0.45871 0.38755
 C365 C 0.52579 0.47391 1.18651
 C366 C 0.53719 0.46415 1.17445
 C367 C 0.55065 0.45281 1.15953
 C368 C 0.55999 0.46454 1.13712
 C369 C 0.57260 0.45333 1.12233
 C370 C 0.57603 0.43017 1.12976
 C371 C 0.56668 0.41859 1.15237
 C372 C 0.55408 0.42987 1.16716
 C373 C 0.58881 0.41787 1.11374
 C374 C 0.57712 0.38767 1.11214
 C375 C 0.58834 0.37608 1.09625
 C376 C 0.61141 0.39449 1.08182
 C377 C 0.62349 0.42457 1.08358
 C378 C 0.61230 0.43620 1.09943
 C379 C 0.62202 0.38261 1.06458
 C380 C 0.63074 0.37296 1.04972
 H381 H 0.55731 0.48220 1.13099
 H382 H 0.57917 0.46242 1.10490
 H383 H 0.56930 0.40098 1.15868
 H384 H 0.54694 0.42066 1.18450
 H385 H 0.55882 0.37298 1.12271
 H386 H 0.57874 0.35275 1.09495
 H387 H 0.64138 0.43903 1.07251
 H388 H 0.62202 0.45954 1.10048
 C389 C 0.94887 0.47694 1.18795
 C390 C 0.92747 0.46678 1.17608
 C391 C 0.90232 0.45485 1.16147
 C392 C 0.88091 0.42568 1.16368
 C393 C 0.85703 0.41387 1.14881
 C394 C 0.85428 0.43113 1.13153
 C395 C 0.87579 0.46051 1.12964
 C396 C 0.89964 0.47225 1.14450
 C397 C 0.82951 0.41844 1.11511
 C398 C 0.81637 0.43430 1.10843
 C399 C 0.79387 0.42283 1.09219
 C400 C 0.78419 0.39538 1.08243
 C401 C 0.79684 0.37927 1.08919
 C402 C 0.81933 0.39069 1.10543
 C403 C 0.76196 0.38418 1.06488
 C404 C 0.74373 0.37502 1.04986
 H405 H 0.88277 0.41203 1.17677
 H406 H 0.84067 0.39128 1.15088
 H407 H 0.87452 0.47425 1.11631
 H408 H 0.91616 0.49482 1.14256
 H409 H 0.82348 0.45556 1.11579
 H410 H 0.78422 0.43548 1.08709
 H411 H 0.78961 0.35806 1.08164
 H412 H 0.82924 0.37811 1.10996
 C413 C 0.52711 0.05177 1.18753
 C414 C 0.53836 0.07348 1.17572
 C415 C 0.55165 0.09902 1.16119
 C416 C 0.57248 0.10273 1.14481
 C417 C 0.58470 0.12694 1.13003
 C418 C 0.57621 0.14778 1.13143
 C419 C 0.55544 0.14400 1.14814
 C420 C 0.54326 0.11976 1.16292
 C421 C 0.58845 0.17290 1.11509
 C422 C 0.57079 0.18211 1.10474
 C423 C 0.58205 0.20489 1.08853
 C424 C 0.61110 0.21883 1.08250
 C425 C 0.62893 0.21012 1.09295
 C426 C 0.61771 0.18732 1.10914
 C427 C 0.62237 0.24136 1.06499
 C428 C 0.63168 0.25982 1.05001
 H429 H 0.57903 0.08673 1.14325
 H430 H 0.60030 0.12898 1.11713
 H431 H 0.54870 0.15983 1.14982
 H432 H 0.52716 0.11711 1.17556
 H433 H 0.54812 0.17122 1.10872
 H434 H 0.56802 0.21135 1.08044
 H435 H 0.65145 0.22076 1.08841
 H436 H 0.63193 0.18098 1.11702
 C437 C 0.47214 0.52423 1.18695
 C438 C 0.46137 0.53495 1.17524
 C439 C 0.44868 0.54759 1.16086
 C440 C 0.41899 0.53604 1.16105
 C441 C 0.40658 0.54761 1.14635
 C442 C 0.42376 0.57090 1.13126
 C443 C 0.45363 0.58257 1.13143
 C444 C 0.46597 0.57095 1.14612
 C445 C 0.41059 0.58248 1.11492
 C446 C 0.42373 0.61249 1.11077
 C447 C 0.41198 0.62322 1.09456
 C448 C 0.38696 0.60412 1.08233
 C449 C 0.37350 0.57428 1.08657
 C450 C 0.38520 0.56350 1.10277
 C451 C 0.37569 0.61503 1.06480
 C452 C 0.36653 0.62404 1.04976
 H453 H 0.40542 0.51795 1.17241
 H454 H 0.38358 0.53838 1.14681
 H455 H 0.46738 0.60021 1.11979
 H456 H 0.48897 0.57995 1.14575
 H457 H 0.44308 0.62766 1.12006
 H458 H 0.42256 0.64637 1.09140
 H459 H 0.35421 0.55930 1.07709
 H460 H 0.37481 0.54027 1.10533
 C461 C 0.05159 0.52574 1.18744
 C462 C 0.07301 0.53594 1.17565
 C463 C 0.09821 0.54791 1.16116
 C464 C 0.11936 0.57721 1.16318
 C465 C 0.14328 0.58905 1.14841
 C466 C 0.14633 0.57170 1.13141
 C467 C 0.12509 0.54220 1.12972
 C468 C 0.10120 0.53042 1.14449
 C469 C 0.17108 0.58443 1.11504
 C470 C 0.18457 0.56881 1.10870
 C471 C 0.20701 0.58029 1.09246
 C472 C 0.21627 0.60748 1.08235
 C473 C 0.20327 0.62335 1.08879
 C474 C 0.18084 0.61194 1.10504
 C475 C 0.23838 0.61862 1.06476
 C476 C 0.25649 0.62771 1.04969
 H477 H 0.11724 0.59094 1.17604
 H478 H 0.15942 0.61174 1.15031
 H479 H 0.12659 0.52838 1.11660
 H480 H 0.08487 0.50775 1.14270
 H481 H 0.17777 0.54774 1.11630
 H482 H 0.21694 0.56782 1.08759
 H483 H 0.21017 0.64435 1.08097
 H484 H 0.17065 0.62431 1.10932
 C485 C 0.47407 0.94767 1.18679
 C486 C 0.46301 0.92598 1.17496
 C487 C 0.44996 0.90045 1.16042
 C488 C 0.45935 0.88045 1.16160
 C489 C 0.44739 0.85625 1.14678
 C490 C 0.42587 0.85176 1.13057
 C491 C 0.41637 0.87184 1.12973
 C492 C 0.42836 0.89601 1.14454
 C493 C 0.41386 0.82669 1.11418
 C494 C 0.38441 0.81139 1.10880
 C495 C 0.37335 0.78859 1.09260
 C496 C 0.39154 0.78076 1.08160
 C497 C 0.42079 0.79558 1.08706
 C498 C 0.43190 0.81837 1.10326
 C499 C 0.38038 0.75819 1.06413
 C500 C 0.37117 0.73967 1.04918
 H501 H 0.47604 0.88367 1.17386
 H502 H 0.45491 0.84100 1.14804
 H503 H 0.40014 0.86923 1.11722
 H504 H 0.42103 0.91143 1.14341
 H505 H 0.36993 0.81704 1.11714
 H506 H 0.35067 0.77725 1.08851
 H507 H 0.43508 0.78979 1.07854
 H508 H 0.45470 0.82996 1.10678
 C509 C 0.52814 0.47651 0.68651
 C510 C 0.53939 0.46645 0.67460
 C511 C 0.55262 0.45461 0.65998
 C512 C 0.57374 0.47243 0.64383
 C513 C 0.58589 0.46081 0.62896
 C514 C 0.57703 0.43113 0.63001
 C515 C 0.55598 0.41344 0.64648
 C516 C 0.54388 0.42513 0.66136
 C517 C 0.58917 0.41860 0.61357
 C518 C 0.57135 0.39148 0.60294
 C519 C 0.58256 0.38020 0.58676
 C520 C 0.61170 0.39581 0.58101
 C521 C 0.62968 0.42264 0.59170
 C522 C 0.61852 0.43398 0.60787
 C523 C 0.62292 0.38474 0.56359
 C524 C 0.63208 0.37562 0.54866
 H525 H 0.58057 0.49525 0.64253
 H526 H 0.60174 0.47490 0.61626
 H527 H 0.54896 0.39060 0.64790
 H528 H 0.52755 0.41115 0.67382
 H529 H 0.54861 0.37932 0.60669
 H530 H 0.56842 0.35949 0.57848
 H531 H 0.65228 0.43490 0.58737
 H532 H 0.63284 0.45474 0.61596
 C533 C 0.52789 0.05228 0.68614
 C534 C 0.53885 0.07398 0.67434
 C535 C 0.55180 0.09953 0.65984
 C536 C 0.57209 0.10318 0.64294
 C537 C 0.58402 0.12745 0.62825
 C538 C 0.57573 0.14841 0.63025
 C539 C 0.55552 0.14469 0.64748
 C540 C 0.54363 0.12039 0.66217
 C541 C 0.58762 0.17361 0.61404
 C542 C 0.56977 0.18299 0.60436
 C543 C 0.58069 0.20590 0.58829
 C544 C 0.60955 0.21976 0.58172
 C545 C 0.62758 0.21089 0.59151
 C546 C 0.61672 0.18797 0.60757
 C547 C 0.62039 0.24229 0.56425
 C548 C 0.62929 0.26070 0.54923
 H549 H 0.57846 0.08709 0.64092
 H550 H 0.59922 0.12948 0.61496
 H551 H 0.54898 0.16062 0.64964
 H552 H 0.52796 0.11778 0.67523
 H553 H 0.54721 0.17213 0.60873
 H554 H 0.56651 0.21250 0.58071
 H555 H 0.64997 0.22148 0.58655
 H556 H 0.63107 0.18149 0.61494
 C557 C 0.94923 0.47691 0.68588
 C558 C 0.92793 0.46696 0.67392
 C559 C 0.90287 0.45522 0.65921
 C560 C 0.90232 0.47109 0.63988
 C561 C 0.87844 0.45940 0.62505
 C562 C 0.85475 0.43161 0.62935
 C563 C 0.85540 0.41592 0.64896
 C564 C 0.87931 0.42768 0.66378
 C565 C 0.82983 0.41884 0.61309
 C566 C 0.81660 0.38945 0.60652
 C567 C 0.79392 0.37774 0.59045
 C568 C 0.78411 0.39518 0.58078
 C569 C 0.79684 0.42432 0.58744
 C570 C 0.81954 0.43609 0.60349
 C571 C 0.76168 0.38347 0.56341
 C572 C 0.74330 0.37386 0.54852
 H573 H 0.92050 0.49237 0.63610
 H574 H 0.87879 0.47184 0.60992
 H575 H 0.83737 0.39463 0.65287
 H576 H 0.87951 0.41522 0.67871
 H577 H 0.82426 0.37571 0.61335
 H578 H 0.78432 0.35519 0.58532
 H579 H 0.78941 0.43802 0.58006
 H580 H 0.82903 0.45868 0.60842
 C581 C 0.47373 0.52610 0.68684
 C582 C 0.46271 0.53653 0.67505
 C583 C 0.44985 0.54889 0.66052
 C584 C 0.42010 0.53695 0.66043
 C585 C 0.40759 0.54831 0.64561
 C586 C 0.42472 0.57181 0.63067
 C587 C 0.45464 0.58385 0.63110
 C588 C 0.46709 0.57244 0.64592
 C589 C 0.41148 0.58326 0.61424
 C590 C 0.42437 0.61328 0.61021
 C591 C 0.41256 0.62393 0.59397
 C592 C 0.38772 0.60475 0.58157
 C593 C 0.37451 0.57489 0.58568
 C594 C 0.38627 0.56420 0.60192
 C595 C 0.37637 0.61562 0.56404
 C596 C 0.36719 0.62466 0.54903
 H597 H 0.40656 0.51871 0.67167
 H598 H 0.38454 0.53880 0.64588
 H599 H 0.46838 0.60165 0.61958
 H600 H 0.49013 0.58176 0.64576
 H601 H 0.44359 0.62853 0.61962
 H602 H 0.42296 0.64709 0.59094
 H603 H 0.35536 0.55984 0.57608
 H604 H 0.37605 0.54096 0.60439
 C605 C 0.47683 0.94821 0.68676
 C606 C 0.46642 0.92650 0.67494
 C607 C 0.45415 0.90097 0.66042
 C608 C 0.42493 0.88033 0.66202
 C609 C 0.41282 0.85612 0.64722
 C610 C 0.42982 0.85226 0.63059
 C611 C 0.45926 0.87296 0.62934
 C612 C 0.47130 0.89715 0.64415
 C613 C 0.41683 0.82724 0.61415
 C614 C 0.43144 0.81260 0.60822
 C615 C 0.41969 0.78985 0.59198
 C616 C 0.39322 0.78142 0.58146
 C617 C 0.37835 0.79558 0.58746
 C618 C 0.39004 0.81832 0.60371
 C619 C 0.38177 0.75893 0.56393
 C620 C 0.37236 0.74048 0.54892
 H621 H 0.41146 0.88308 0.67458
 H622 H 0.39018 0.84039 0.64880
 H623 H 0.47283 0.87083 0.61652
 H624 H 0.49393 0.91307 0.64269
 H625 H 0.45192 0.81873 0.61617
 H626 H 0.43138 0.77903 0.58746
 H627 H 0.35791 0.78932 0.57933
 H628 H 0.37846 0.82940 0.60765
 C629 C 0.05198 0.52573 0.68711
 C630 C 0.07346 0.53614 0.67536
 C631 C 0.09871 0.54837 0.66088
 C632 C 0.10281 0.53065 0.64522
 C633 C 0.12667 0.54261 0.63041
 C634 C 0.14679 0.57254 0.63104
 C635 C 0.14264 0.59014 0.64704
 C636 C 0.11875 0.57811 0.66185
 C637 C 0.17151 0.58537 0.61461
 C638 C 0.18002 0.61204 0.60348
 C639 C 0.20247 0.62350 0.58723
 C640 C 0.21675 0.60853 0.58191
 C641 C 0.20872 0.58221 0.59312
 C642 C 0.18627 0.57069 0.60937
 C643 C 0.23894 0.61969 0.56436
 C644 C 0.25712 0.62880 0.54934
 H645 H 0.08735 0.50763 0.64424
 H646 H 0.12901 0.52855 0.61807
 H647 H 0.15791 0.61318 0.64813
 H648 H 0.11579 0.59203 0.67392
 H649 H 0.16885 0.62367 0.60688
 H650 H 0.20840 0.64382 0.57856
 H651 H 0.21963 0.57044 0.58914
 H652 H 0.18047 0.55032 0.61785
 C653 C 0.47397 0.52560 0.81379
 C654 C 0.46301 0.53602 0.82562
 C655 C 0.45021 0.54842 0.84013
 C656 C 0.46766 0.57375 0.85290
 C657 C 0.45536 0.58531 0.86768
 C658 C 0.42538 0.57164 0.86990
 C659 C 0.40801 0.54634 0.85679
 C660 C 0.42037 0.53482 0.84200
 C661 C 0.41240 0.58335 0.88630
 C662 C 0.38897 0.56451 0.90047
 C663 C 0.37750 0.57556 0.91661
 C664 C 0.38922 0.60555 0.91877
 C665 C 0.41226 0.62447 0.90454
 C666 C 0.42379 0.61346 0.88840
 C667 C 0.37822 0.61691 0.93615
 C668 C 0.36929 0.62631 0.95104
 H669 H 0.49078 0.58438 0.85165
 H670 H 0.46931 0.60456 0.87778
 H671 H 0.38488 0.53552 0.85791
 H672 H 0.40667 0.51521 0.83216
 H673 H 0.37997 0.54125 0.89950
 H674 H 0.35975 0.56073 0.92763
 H675 H 0.42149 0.64772 0.90607
 H676 H 0.44158 0.62850 0.87753
 C677 C 0.05087 0.52260 0.81277
 C678 C 0.07218 0.53254 0.82473
 C679 C 0.09725 0.54425 0.83942
 C680 C 0.11941 0.57299 0.83656
 C681 C 0.14328 0.58463 0.85143
 C682 C 0.14527 0.56762 0.86936
 C683 C 0.12301 0.53865 0.87191
 C684 C 0.09917 0.52708 0.85705
 C685 C 0.17004 0.58020 0.88577
 C686 C 0.18231 0.56380 0.89320
 C687 C 0.20483 0.57525 0.90942
 C688 C 0.21540 0.60321 0.91840
 C689 C 0.20360 0.61985 0.91089
 C690 C 0.18110 0.60846 0.89466
 C691 C 0.23767 0.61447 0.93590
 C692 C 0.25594 0.62372 0.95088
 H693 H 0.11814 0.58646 0.82296
 H694 H 0.16021 0.60689 0.84886
 H695 H 0.12371 0.52513 0.88575
 H696 H 0.08207 0.50484 0.85949
 H697 H 0.17451 0.54213 0.88644
 H698 H 0.21382 0.56219 0.91511
 H699 H 0.21153 0.64147 0.91783
 H700 H 0.17187 0.62148 0.88954
 C701 C 0.47376 0.94683 0.81301
 C702 C 0.46303 0.92513 0.82480
 C703 C 0.45043 0.89955 0.83925
 C704 C 0.42095 0.87976 0.83816
 C705 C 0.40858 0.85547 0.85287
 C706 C 0.42560 0.85071 0.86888
 C707 C 0.45528 0.87058 0.86963
 C708 C 0.46758 0.89484 0.85492
 C709 C 0.41241 0.82563 0.88522
 C710 C 0.42628 0.81004 0.89039
 C711 C 0.41443 0.78726 0.90660
 C712 C 0.38860 0.77977 0.91781
 C713 C 0.37444 0.79487 0.91254
 C714 C 0.38622 0.81762 0.89634
 C715 C 0.37716 0.75733 0.93536
 C716 C 0.36780 0.73896 0.95041
 H717 H 0.40749 0.88320 0.82607
 H718 H 0.38574 0.84039 0.85168
 H719 H 0.46888 0.86775 0.88198
 H720 H 0.49040 0.91011 0.85598
 H721 H 0.44627 0.81545 0.88191
 H722 H 0.42556 0.77570 0.91055
 H723 H 0.35450 0.78934 0.92123
 H724 H 0.37523 0.82945 0.89297
 C725 C 0.52859 0.47623 0.81352
 C726 C 0.54006 0.46636 0.82542
 C727 C 0.55358 0.45486 0.84013
 C728 C 0.56956 0.47067 0.85967
 C729 C 0.58199 0.45926 0.87450
 C730 C 0.57856 0.43180 0.87000
 C731 C 0.56265 0.41617 0.85018
 C732 C 0.55026 0.42765 0.83535
 C733 C 0.59099 0.41933 0.88625
 C734 C 0.57528 0.38983 0.89256
 C735 C 0.58646 0.37841 0.90867
 C736 C 0.61351 0.39627 0.91865
 C737 C 0.62949 0.42554 0.91224
 C738 C 0.61834 0.43700 0.89614
 C739 C 0.62444 0.38487 0.93609
 C740 C 0.63343 0.37557 0.95104
 H741 H 0.57216 0.49169 0.86361
 H742 H 0.59373 0.47164 0.88979
 H743 H 0.55991 0.39513 0.84610
 H744 H 0.53795 0.41524 0.82025
 H745 H 0.55402 0.37575 0.88550
 H746 H 0.57384 0.35576 0.91361
 H747 H 0.65045 0.43956 0.91985
 H748 H 0.63112 0.45970 0.89142
 C749 C 0.94814 0.47376 0.81279
 C750 C 0.92670 0.46341 0.82457
 C751 C 0.90152 0.45131 0.83914
 C752 C 0.88152 0.42155 0.83839
 C753 C 0.85771 0.40966 0.85329
 C754 C 0.85361 0.42742 0.86915
 C755 C 0.87368 0.45737 0.86954
 C756 C 0.89747 0.46919 0.85465
 C757 C 0.82900 0.41472 0.88568
 C758 C 0.81416 0.42935 0.89079
 C759 C 0.79175 0.41792 0.90708
 C760 C 0.78386 0.39172 0.91847
 C761 C 0.79825 0.37683 0.91330
 C762 C 0.82064 0.38821 0.89701
 C763 C 0.76168 0.38060 0.93601
 C764 C 0.74349 0.37148 0.95104
 H765 H 0.88445 0.40751 0.82644
 H766 H 0.84247 0.38660 0.85237
 H767 H 0.87137 0.47155 0.88176
 H768 H 0.91290 0.49223 0.85546
 H769 H 0.81985 0.44962 0.88216
 H770 H 0.78076 0.42963 0.91094
 H771 H 0.79242 0.35661 0.92210
 H772 H 0.83189 0.37663 0.89373
 C773 C 0.52509 0.05228 0.81301
 C774 C 0.53543 0.07396 0.82485
 C775 C 0.54760 0.09947 0.83941
 C776 C 0.57693 0.11986 0.83822
 C777 C 0.58893 0.14402 0.85309
 C778 C 0.57171 0.14807 0.86936
 C779 C 0.54218 0.12761 0.87019
 C780 C 0.53024 0.10348 0.85532
 C781 C 0.58456 0.17303 0.88586
 C782 C 0.57009 0.18792 0.89142
 C783 C 0.58168 0.21063 0.90770
 C784 C 0.60786 0.21877 0.91864
 C785 C 0.62258 0.20435 0.91303
 C786 C 0.61106 0.18166 0.89673
 C787 C 0.61915 0.24124 0.93619
 C788 C 0.62844 0.25968 0.95121
 H789 H 0.59056 0.11696 0.82594
 H790 H 0.61166 0.15955 0.85183
 H791 H 0.52844 0.12988 0.88274
 H792 H 0.50754 0.08775 0.85646
 H793 H 0.54983 0.18201 0.88315
 H794 H 0.57010 0.22166 0.91191
 H795 H 0.64279 0.21036 0.92150
 H796 H 0.62252 0.17038 0.89309
   
