data_POSCAR
  _audit_creation_date              2014-09-24
  _audit_creation_method            'ToBaCCo'
  _symmetry_space_group_name_H-M    'P1'
  _symmetry_Int_Tables_number       1
  _symmetry_cell_setting            triclinic
  loop_
  _symmetry_equiv_pos_as_xyz
 x,y,z
_cell_length_a 40.2415
_cell_length_b 37.1826
_cell_length_c 30.6727
_cell_angle_alpha 90.116600
_cell_angle_beta 89.878900
_cell_angle_gamma 89.996700
loop_
  _atom_site_label
  _atom_site_type_symbol
  _atom_site_fract_x
  _atom_site_fract_y
  _atom_site_fract_z
C1 C 0.30190 0.29817 0.23077
 H2 H 0.30381 0.29913 0.26593
 C3 C 0.32237 0.31991 0.20521
 H4 H 0.33976 0.33787 0.22105
 C5 C 0.27607 0.27425 0.16771
 H6 H 0.25824 0.25618 0.15318
 C7 C 0.29604 0.29557 0.14088
 H8 H 0.29334 0.29363 0.10584
 N9 N 0.27882 0.27651 0.21183
 C10 C 0.20064 0.26729 0.31014
 H11 H 0.19866 0.23841 0.31353
 C12 C 0.18037 0.28988 0.33518
 H13 H 0.16309 0.27817 0.35823
 C14 C 0.22589 0.31758 0.27627
 H15 H 0.24318 0.32839 0.25277
 C16 C 0.20619 0.34109 0.30062
 H17 H 0.20864 0.36977 0.29548
 Zn18 Zn 0.25090 0.24978 0.24959
 N19 N 0.22329 0.28143 0.28199
 C20 C 0.27617 0.22534 0.33128
 N21 N 0.27881 0.22297 0.28714
 C22 C 0.30178 0.20118 0.26805
 C23 C 0.32226 0.17944 0.29349
 C24 C 0.29616 0.20401 0.35799
 C25 C 0.20047 0.23245 0.18949
 C26 C 0.18008 0.20995 0.16463
 C27 C 0.20580 0.15863 0.19898
 C28 C 0.22563 0.18207 0.22314
 N29 N 0.22314 0.21823 0.21743
 H30 H 0.25844 0.24351 0.34593
 H31 H 0.30361 0.20014 0.23287
 H32 H 0.33956 0.16138 0.27754
 H33 H 0.29356 0.20606 0.39305
 H34 H 0.19858 0.26134 0.18611
 H35 H 0.16279 0.22172 0.14174
 H36 H 0.20817 0.12994 0.20410
 H37 H 0.24293 0.17120 0.24649
 C38 C 0.18331 0.32735 0.33091
 C39 C 0.31930 0.31913 0.15961
 C40 C 0.18290 0.17246 0.16889
 C41 C 0.31930 0.18034 0.33911
 C42 C 0.80875 0.77738 0.21715
 H43 H 0.82035 0.75810 0.23853
 C44 C 0.82865 0.80027 0.19226
 H45 H 0.85524 0.79659 0.19413
 C46 C 0.76005 0.80397 0.18874
 H47 H 0.73321 0.80562 0.18826
 C48 C 0.77893 0.82738 0.16318
 H49 H 0.76571 0.84727 0.14430
 N50 N 0.77511 0.77941 0.21475
 C51 C 0.68705 0.77841 0.28222
 H52 H 0.67520 0.75915 0.26096
 C53 C 0.66748 0.80180 0.30702
 H54 H 0.64068 0.80021 0.30451
 C55 C 0.73620 0.80517 0.30966
 H56 H 0.76306 0.80639 0.31020
 C57 C 0.71760 0.82908 0.33498
 H58 H 0.73038 0.84835 0.35546
 Zn59 Zn 0.74780 0.74967 0.24982
 N60 N 0.72077 0.78026 0.28428
 C61 C 0.77336 0.72221 0.32973
 N62 N 0.77425 0.71967 0.28549
 C63 C 0.79344 0.69462 0.26514
 C64 C 0.81344 0.67145 0.28936
 C65 C 0.79295 0.69951 0.35525
 C66 C 0.72206 0.72091 0.17055
 C67 C 0.70249 0.69770 0.14557
 C68 C 0.68187 0.67105 0.21212
 C69 C 0.70181 0.69475 0.23578
 N70 N 0.72112 0.71927 0.21483
 H71 H 0.75744 0.74173 0.34539
 H72 H 0.79319 0.69275 0.22993
 H73 H 0.82835 0.65154 0.27251
 H74 H 0.79232 0.70231 0.39038
 H75 H 0.73819 0.73994 0.15444
 H76 H 0.70384 0.69912 0.11036
 H77 H 0.66628 0.65214 0.22947
 H78 H 0.70186 0.69375 0.27103
 C79 C 0.68273 0.82758 0.33387
 C80 C 0.81403 0.82608 0.16449
 C81 C 0.68202 0.67235 0.16636
 C82 C 0.81345 0.67379 0.33506
 C83 C 0.80363 0.29818 0.73202
 H84 H 0.80553 0.29898 0.76719
 C85 C 0.82414 0.31999 0.70661
 H86 H 0.84153 0.33788 0.72257
 C87 C 0.77785 0.27451 0.66879
 H88 H 0.76005 0.25647 0.65413
 C89 C 0.79787 0.29589 0.64211
 H90 H 0.79523 0.29405 0.60706
 N91 N 0.78057 0.27660 0.71292
 C92 C 0.70253 0.26600 0.81113
 H93 H 0.70072 0.23707 0.81401
 C94 C 0.68196 0.28814 0.83630
 H95 H 0.66461 0.27604 0.85897
 C96 C 0.72759 0.31686 0.77826
 H97 H 0.74490 0.32805 0.75505
 C98 C 0.70758 0.33994 0.80277
 H99 H 0.70983 0.36869 0.79808
 Zn100 Zn 0.75276 0.24948 0.75033
 N101 N 0.72518 0.28063 0.78336
 C102 C 0.77834 0.22404 0.83127
 N103 N 0.78075 0.22222 0.78720
 C104 C 0.80373 0.20087 0.76770
 C105 C 0.82448 0.17897 0.79253
 C106 C 0.79851 0.20257 0.85753
 C107 C 0.70203 0.23321 0.69048
 C108 C 0.68135 0.21120 0.66542
 C109 C 0.70722 0.15923 0.69812
 C110 C 0.72735 0.18219 0.72251
 N111 N 0.72488 0.21845 0.71773
 H112 H 0.76080 0.24223 0.84631
 H113 H 0.80530 0.20016 0.73248
 H114 H 0.84060 0.16104 0.77459
 H115 H 0.79610 0.20627 0.89232
 H116 H 0.70020 0.26215 0.68783
 H117 H 0.66388 0.22341 0.64310
 H118 H 0.70955 0.13045 0.70249
 H119 H 0.74484 0.17090 0.74532
 C120 C 0.68460 0.32568 0.83257
 C121 C 0.82113 0.31935 0.66101
 C122 C 0.68407 0.17364 0.66876
 C123 C 0.82206 0.17871 0.83870
 C124 C 0.30056 0.79914 0.73280
 H125 H 0.30233 0.79961 0.76799
 C126 C 0.32120 0.82120 0.70785
 H127 H 0.33853 0.83891 0.72419
 C128 C 0.27506 0.77609 0.66906
 H129 H 0.25732 0.75820 0.65401
 C130 C 0.29520 0.79773 0.64283
 H131 H 0.29271 0.79621 0.60773
 N132 N 0.27759 0.77773 0.71324
 C133 C 0.19921 0.76626 0.81105
 H134 H 0.19732 0.73731 0.81353
 C135 C 0.17880 0.78823 0.83670
 H136 H 0.16149 0.77597 0.85928
 C137 C 0.22439 0.81735 0.77890
 H138 H 0.24171 0.82872 0.75583
 C139 C 0.20454 0.84026 0.80388
 H140 H 0.20692 0.86905 0.79967
 Zn141 Zn 0.24964 0.75019 0.75015
 N142 N 0.22189 0.78108 0.78346
 C143 C 0.27498 0.72426 0.83113
 N144 N 0.27759 0.72268 0.78694
 C145 C 0.30062 0.70133 0.76727
 C146 C 0.32125 0.67927 0.79213
 C147 C 0.29512 0.70262 0.85727
 C148 C 0.19932 0.73404 0.68941
 C149 C 0.17899 0.71205 0.66379
 C150 C 0.20477 0.66005 0.69651
 C151 C 0.22453 0.68299 0.72147
 N152 N 0.22197 0.71927 0.71693
 H153 H 0.25719 0.74210 0.84627
 H154 H 0.30243 0.70091 0.73208
 H155 H 0.33863 0.66161 0.77570
 H156 H 0.29257 0.70408 0.89237
 H157 H 0.19738 0.76299 0.68695
 H158 H 0.16171 0.72429 0.64125
 H159 H 0.20720 0.63126 0.70070
 H160 H 0.24183 0.67165 0.74448
 C161 C 0.18162 0.82580 0.83363
 C162 C 0.31840 0.82099 0.66221
 C163 C 0.18188 0.67448 0.66683
 C164 C 0.31838 0.67941 0.83777
 C165 C -0.03821 -0.02738 0.02346
 C166 C -0.01994 -0.00009 0.00287
 C167 C -0.03670 0.02817 -0.01790
 C168 C -0.07148 0.02894 -0.01849
 C169 C -0.08961 0.00188 0.00252
 C170 C -0.07301 -0.02616 0.02371
 C171 C 0.01665 -0.00094 0.00324
 C172 C 0.03385 -0.02870 -0.01819
 C173 C 0.06867 -0.02899 -0.01855
 C174 C 0.08631 -0.00201 0.00334
 C175 C 0.06927 0.02550 0.02515
 C176 C 0.03449 0.02626 0.02471
 H177 H -0.02536 -0.04910 0.03988
 H178 H -0.02267 0.04916 -0.03413
 H179 H 0.02017 -0.04954 -0.03521
 H180 H 0.02129 0.04763 0.04150
 H181 H -0.11655 0.00265 0.00238
 H182 H 0.11327 -0.00237 0.00329
 C183 C -0.03599 0.47213 0.51794
 C184 C -0.01910 0.50050 0.49748
 C185 C -0.03724 0.52792 0.47703
 C186 C -0.07204 0.52671 0.47660
 C187 C -0.08876 0.49855 0.49748
 C188 C -0.07077 0.47137 0.51834
 C189 C 0.01750 0.50127 0.49718
 C190 C 0.03537 0.47404 0.47572
 C191 C 0.07015 0.47473 0.47531
 C192 C 0.08716 0.50221 0.49714
 C193 C 0.06947 0.52923 0.51901
 C194 C 0.03466 0.52900 0.51862
 H195 H -0.02207 0.45102 0.53402
 H196 H -0.02429 0.54971 0.46082
 H197 H 0.02219 0.45270 0.45892
 H198 H 0.02095 0.54988 0.53562
 H199 H -0.11571 0.49777 0.49743
 H200 H 0.11411 0.50251 0.49720
 C201 C 0.46331 -0.02700 0.52139
 C202 C 0.48073 0.00130 0.50155
 C203 C 0.46312 0.02943 0.48177
 C204 C 0.42832 0.02908 0.48139
 C205 C 0.41104 0.00100 0.50165
 C206 C 0.42850 -0.02694 0.52187
 C207 C 0.51734 0.00151 0.50142
 C208 C 0.53500 -0.02557 0.47934
 C209 C 0.56980 -0.02498 0.47860
 C210 C 0.58700 0.00217 0.50073
 C211 C 0.56953 0.02899 0.52319
 C212 C 0.53473 0.02891 0.52316
 H213 H 0.47683 -0.04864 0.53700
 H214 H 0.47650 0.05118 0.46608
 H215 H 0.52167 -0.04660 0.46219
 H216 H 0.52120 0.04972 0.54051
 H217 H 0.38408 0.00088 0.50167
 H218 H 0.61396 0.00243 0.50046
 C219 C 0.46296 0.47068 0.01713
 C220 C 0.48059 0.49895 -0.00244
 C221 C 0.46317 0.52728 -0.02215
 C222 C 0.42836 0.52710 -0.02271
 C223 C 0.41089 0.49903 -0.00270
 C224 C 0.42817 0.47092 0.01744
 C225 C 0.51720 0.49888 -0.00217
 C226 C 0.53480 0.47142 -0.02360
 C227 C 0.56960 0.47139 -0.02338
 C228 C 0.58686 0.49834 -0.00096
 C229 C 0.56945 0.52556 0.02086
 C230 C 0.53465 0.52608 0.01986
 H231 H 0.47633 0.44893 0.03274
 H232 H 0.47670 0.54903 -0.03760
 H233 H 0.52143 0.45049 -0.04089
 H234 H 0.52116 0.54713 0.03683
 H235 H 0.38394 0.49906 -0.00276
 H236 H 0.61382 0.49811 -0.00046
 C237 C 0.12216 -0.10299 -0.08777
 C238 C 0.10797 -0.13411 -0.10550
 C239 C 0.12731 -0.15758 -0.13073
 C240 C 0.16108 -0.15006 -0.13864
 C241 C 0.17512 -0.11889 -0.12022
 C242 C 0.15579 -0.09556 -0.09502
 C243 C 0.10233 -0.07803 -0.06295
 C244 C 0.08653 -0.05617 -0.04250
 H245 H 0.08191 -0.14006 -0.10021
 H246 H 0.11572 -0.18117 -0.14479
 H247 H 0.20115 -0.11265 -0.12511
 H248 H 0.16705 -0.07159 -0.08138
 C249 C 0.12424 0.40033 0.40755
 C250 C 0.10993 0.36888 0.39083
 C251 C 0.12916 0.34487 0.36623
 C252 C 0.16290 0.35215 0.35795
 C253 C 0.17706 0.38366 0.37531
 C254 C 0.15785 0.40755 0.39989
 C255 C 0.10449 0.42571 0.43183
 C256 C 0.08854 0.44770 0.45184
 H257 H 0.08389 0.36309 0.39646
 H258 H 0.11748 0.32102 0.35296
 H259 H 0.20308 0.38975 0.37010
 H260 H 0.16919 0.43177 0.41276
 C261 C 0.62369 -0.09831 0.40893
 C262 C 0.61401 -0.13434 0.40543
 C263 C 0.63321 -0.15851 0.38110
 C264 C 0.66239 -0.14691 0.35999
 C265 C 0.67189 -0.11062 0.36378
 C266 C 0.65265 -0.08653 0.38808
 C267 C 0.60402 -0.07325 0.43378
 C268 C 0.58807 -0.05163 0.45436
 H269 H 0.59167 -0.14376 0.42154
 H270 H 0.62546 -0.18636 0.37923
 H271 H 0.69392 -0.10073 0.34741
 H272 H 0.66031 -0.05866 0.39047
 C273 C 0.62412 0.39738 -0.09102
 C274 C 0.61025 0.36595 -0.10839
 C275 C 0.62994 0.34233 -0.13290
 C276 C 0.66372 0.34999 -0.14042
 C277 C 0.67744 0.38147 -0.12238
 C278 C 0.65776 0.40496 -0.09789
 C279 C 0.60395 0.42242 -0.06686
 C280 C 0.58785 0.44430 -0.04689
 H281 H 0.58419 0.35989 -0.10336
 H282 H 0.61860 0.31850 -0.14672
 H283 H 0.70347 0.38783 -0.12701
 H284 H 0.66877 0.42917 -0.08450
 C285 C -0.12129 0.10654 -0.08591
 C286 C -0.14942 0.12287 -0.06815
 C287 C -0.16792 0.14733 -0.09271
 C288 C -0.15889 0.15606 -0.13627
 C289 C -0.12963 0.13956 -0.15297
 C290 C -0.11128 0.11518 -0.12814
 C291 C -0.10336 0.07988 -0.06147
 C292 C -0.08866 0.05696 -0.04156
 H293 H -0.15758 0.11607 -0.03549
 H294 H -0.19040 0.15724 -0.07763
 H295 H -0.11959 0.14603 -0.18466
 H296 H -0.08922 0.10296 -0.14206
 C297 C -0.12629 0.60139 0.41020
 C298 C -0.15835 0.61022 0.42436
 C299 C -0.17786 0.63404 0.40019
 C300 C -0.16554 0.64926 0.36142
 C301 C -0.13315 0.64046 0.34770
 C302 C -0.11368 0.61667 0.37194
 C303 C -0.10675 0.57576 0.43414
 C304 C -0.09071 0.55373 0.45375
 H305 H -0.16842 0.59838 0.45381
 H306 H -0.20283 0.63991 0.41132
 H307 H -0.12280 0.65211 0.31833
 H308 H -0.08889 0.61001 0.36069
 C309 C 0.37669 0.10658 0.41612
 C310 C 0.34364 0.11392 0.42725
 C311 C 0.32517 0.13844 0.40273
 C312 C 0.33952 0.15590 0.36663
 C313 C 0.37295 0.14876 0.35616
 C314 C 0.39138 0.12425 0.38075
 C315 C 0.39511 0.07989 0.43989
 C316 C 0.41033 0.05699 0.45916
 H317 H 0.33198 0.10025 0.45442
 H318 H 0.29938 0.14297 0.41127
 H319 H 0.38482 0.16209 0.32891
 H320 H 0.41696 0.11877 0.37186
 C321 C 0.37652 0.60508 -0.08693
 C322 C 0.34345 0.61201 -0.07552
 C323 C 0.32473 0.63668 -0.09950
 C324 C 0.33884 0.65471 -0.13534
 C325 C 0.37229 0.64797 -0.14611
 C326 C 0.39097 0.62330 -0.12206
 C327 C 0.39518 0.57827 -0.06367
 C328 C 0.41048 0.55524 -0.04471
 H329 H 0.33196 0.59791 -0.04853
 H330 H 0.29894 0.64089 -0.09073
 H331 H 0.38399 0.66174 -0.17316
 H332 H 0.41656 0.61814 -0.13117
 C333 C -0.12719 -0.10100 0.09027
 C334 C -0.15941 -0.10947 0.07693
 C335 C -0.17870 -0.13358 0.10105
 C336 C -0.16617 -0.14988 0.13934
 C337 C -0.13330 -0.14110 0.15192
 C338 C -0.11416 -0.11694 0.12768
 C339 C -0.10781 -0.07521 0.06625
 C340 C -0.09179 -0.05314 0.04660
 H341 H -0.16968 -0.09742 0.04778
 H342 H -0.20303 -0.14008 0.08844
 H343 H -0.12246 -0.15135 0.18161
 H344 H -0.08931 -0.11026 0.13857
 C345 C -0.12144 0.39331 0.58409
 C346 C -0.15452 0.38611 0.57319
 C347 C -0.17301 0.36154 0.59769
 C348 C -0.15863 0.34387 0.63353
 C349 C -0.12516 0.35085 0.64378
 C350 C -0.10672 0.37543 0.61920
 C351 C -0.10309 0.42011 0.56035
 C352 C -0.08814 0.44317 0.54094
 H353 H -0.16621 0.39996 0.54622
 H354 H -0.19882 0.35714 0.58934
 H355 H -0.11328 0.33735 0.67083
 H356 H -0.08111 0.38081 0.62791
 C357 C 0.37661 -0.10478 0.58653
 C358 C 0.34355 -0.11176 0.57524
 C359 C 0.32481 -0.13638 0.59935
 C360 C 0.33888 -0.15433 0.63520
 C361 C 0.37231 -0.14754 0.64586
 C362 C 0.39101 -0.12291 0.62168
 C363 C 0.39528 -0.07802 0.56311
 C364 C 0.41060 -0.05503 0.54402
 H365 H 0.33210 -0.09773 0.54824
 H366 H 0.29904 -0.14063 0.59067
 H367 H 0.38398 -0.16124 0.67292
 H368 H 0.41659 -0.11772 0.63070
 C369 C 0.37659 0.39308 0.08245
 C370 C 0.34350 0.38583 0.07160
 C371 C 0.32506 0.36123 0.09614
 C372 C 0.33949 0.34361 0.13199
 C373 C 0.37295 0.35064 0.14217
 C374 C 0.39135 0.37523 0.11755
 C375 C 0.39496 0.41989 0.05872
 C376 C 0.41017 0.44289 0.03952
 H377 H 0.33178 0.39965 0.04463
 H378 H 0.29925 0.35678 0.08784
 H379 H 0.38488 0.33718 0.16921
 H380 H 0.41696 0.38064 0.12622
 C381 C 0.12347 0.09972 0.09273
 C382 C 0.10930 0.13122 0.10957
 C383 C 0.12863 0.15515 0.13402
 C384 C 0.16237 0.14774 0.14204
 C385 C 0.17640 0.11617 0.12456
 C386 C 0.15707 0.09236 0.10013
 C387 C 0.10363 0.07443 0.06856
 C388 C 0.08764 0.05250 0.04860
 H389 H 0.08327 0.13712 0.10414
 H390 H 0.11705 0.17904 0.14739
 H391 H 0.20241 0.10998 0.12956
 H392 H 0.16832 0.06811 0.08715
 C393 C 0.12274 0.60321 0.58823
 C394 C 0.10845 0.63429 0.60603
 C395 C 0.12769 0.65777 0.63126
 C396 C 0.16145 0.65031 0.63910
 C397 C 0.17560 0.61919 0.62063
 C398 C 0.15637 0.59585 0.59543
 C399 C 0.10301 0.57824 0.56341
 C400 C 0.08729 0.55638 0.54295
 H401 H 0.08240 0.64018 0.60078
 H402 H 0.11602 0.68132 0.64537
 H403 H 0.20162 0.61300 0.62548
 H404 H 0.16771 0.57191 0.58174
 C405 C 0.62367 0.10249 0.59184
 C406 C 0.65733 0.09491 0.59841
 C407 C 0.67697 0.11820 0.62312
 C408 C 0.66319 0.14947 0.64169
 C409 C 0.62939 0.15712 0.63451
 C410 C 0.60973 0.13370 0.60978
 C411 C 0.60357 0.07767 0.56737
 C412 C 0.58758 0.05595 0.54709
 H413 H 0.66838 0.07087 0.58458
 H414 H 0.70301 0.11187 0.62746
 H415 H 0.61801 0.18080 0.64873
 H416 H 0.58366 0.13975 0.60500
 C417 C 0.62246 0.59886 0.09143
 C418 C 0.62538 0.63477 0.07842
 C419 C 0.64469 0.65875 0.10278
 C420 C 0.66133 0.64706 0.14052
 C421 C 0.65815 0.61090 0.15332
 C422 C 0.63886 0.58700 0.12892
 C423 C 0.60315 0.57387 0.06611
 C424 C 0.58747 0.55225 0.04527
 H425 H 0.61277 0.64423 0.04945
 H426 H 0.64633 0.68650 0.09238
 H427 H 0.67102 0.60093 0.18181
 H428 H 0.63691 0.55921 0.13915
   
