data_POSCAR
  _audit_creation_date              2014-09-24
  _audit_creation_method            'ToBaCCo'
  _symmetry_space_group_name_H-M    'P1'
  _symmetry_Int_Tables_number       1
  _symmetry_cell_setting            triclinic
  loop_
  _symmetry_equiv_pos_as_xyz
 x,y,z
_cell_length_a 30.0396
_cell_length_b 31.4864
_cell_length_c 57.4824
_cell_angle_alpha 87.491600
_cell_angle_beta 92.477300
_cell_angle_gamma 119.183200
loop_
  _atom_site_label
  _atom_site_type_symbol
  _atom_site_fract_x
  _atom_site_fract_y
  _atom_site_fract_z
C1 C 0.03837 0.08514 0.53706
 H2 H 0.07400 0.08448 0.53655
 C3 C 0.03452 0.11803 0.55115
 H4 H 0.06767 0.14282 0.56128
 C5 C -0.04680 0.05541 0.52315
 H6 H -0.07794 0.03166 0.51181
 C7 C -0.05244 0.08769 0.53713
 H8 H -0.08852 0.08764 0.53677
 N9 N -0.00180 0.05483 0.52339
 C10 C 0.03438 -0.05915 0.50837
 H11 H 0.03815 -0.05442 0.48967
 C12 C 0.03659 -0.09821 0.51973
 H13 H 0.04235 -0.12330 0.50964
 C14 C 0.01831 -0.03423 0.54392
 H15 H 0.00960 -0.01013 0.55316
 C16 C 0.01991 -0.07300 0.55595
 H17 H 0.01359 -0.07767 0.57451
 Zn18 Zn 0.01175 0.01690 0.50323
 N19 N 0.02495 -0.02839 0.52051
 C20 C 0.11307 0.06029 0.48567
 N21 N 0.06839 0.06141 0.48575
 C22 C 0.06290 0.09724 0.47422
 C23 C 0.10327 0.13400 0.46195
 C24 C 0.15452 0.09633 0.47346
 C25 C -0.08852 -0.05433 0.49258
 C26 C -0.12760 -0.08885 0.47865
 C27 C -0.07483 -0.05220 0.44521
 C28 C -0.03720 -0.01811 0.45979
 N29 N -0.04417 -0.02038 0.48307
 H30 H 0.11690 0.03194 0.49529
 H31 H 0.02717 0.09763 0.47493
 H32 H 0.09827 0.16280 0.45345
 H33 H 0.18969 0.09471 0.47343
 H34 H -0.09252 -0.05621 0.51127
 H35 H -0.16042 -0.11671 0.48758
 H36 H -0.06736 -0.04787 0.42680
 H37 H -0.00144 0.00888 0.45254
 C38 C 0.02825 -0.10608 0.54376
 C39 C -0.01123 0.11993 0.55124
 C40 C -0.12086 -0.08992 0.45444
 C41 C 0.14999 0.13403 0.46148
 C42 C 1.10175 0.04136 0.14546
 H43 H 1.10532 0.07673 0.14804
 C44 C 1.13603 0.03714 0.13144
 H45 H 1.16619 0.06968 0.12343
 C46 C 1.05950 -0.04347 0.15398
 H47 H 1.02998 -0.07458 0.16310
 C48 C 1.09295 -0.04940 0.14001
 H49 H 1.08829 -0.08543 0.13817
 N50 N 1.06460 0.00146 0.15643
 C51 C 0.94691 0.03796 0.17155
 H52 H 0.94775 0.03600 0.19038
 C53 C 0.90818 0.04299 0.15964
 H54 H 0.88000 0.04606 0.16948
 C55 C 0.98110 0.03356 0.13590
 H56 H 1.00830 0.02785 0.12673
 C57 C 0.94300 0.03848 0.12330
 H58 H 0.94158 0.03670 0.10450
 Zn59 Zn 1.02406 0.01279 0.17675
 N60 N 0.98178 0.03247 0.15960
 C61 C 1.06893 0.10365 0.19970
 N62 N 1.06943 0.06110 0.19735
 C63 C 1.10521 0.05264 0.20858
 C64 C 1.14243 0.08763 0.22294
 C65 C 1.10549 0.13972 0.21396
 C66 C 0.93875 -0.07857 0.18126
 C67 C 0.89951 -0.11808 0.19285
 C68 C 0.94641 -0.08869 0.22916
 C69 C 0.98434 -0.04914 0.21693
 N70 N 0.97959 -0.04461 0.19342
 H71 H 1.04072 0.11001 0.19028
 H72 H 1.10530 0.01884 0.20601
 H73 H 1.17124 0.08051 0.23126
 H74 H 1.10440 0.17329 0.21572
 H75 H 0.93560 -0.07369 0.16263
 H76 H 0.86638 -0.14400 0.18306
 H77 H 0.94983 -0.09117 0.24795
 H78 H 1.01646 -0.02127 0.22636
 C79 C 0.90503 0.04190 0.13519
 C80 C 1.13215 -0.00865 0.12865
 C81 C 0.90282 -0.12298 0.21713
 C82 C 1.14310 0.13203 0.22570
 C83 C 0.02996 0.94966 0.85303
 H84 H -0.00362 0.91434 0.85135
 C85 C 0.07135 0.95452 0.86687
 H86 H 0.06931 0.92252 0.87564
 C87 C 0.07399 1.03347 0.84233
 H88 H 0.07512 1.06388 0.83238
 C89 C 0.11632 1.04005 0.85610
 H90 H 0.14938 1.07594 0.85698
 N91 N 0.03196 0.98874 0.84109
 C92 C -0.12552 0.95320 0.82671
 H93 H -0.12625 0.95433 0.80786
 C94 C -0.16696 0.94907 0.83867
 H95 H -0.19996 0.94483 0.82852
 C96 C -0.08083 0.95737 0.86219
 H97 H -0.04635 0.96268 0.87129
 C98 C -0.12156 0.95287 0.87490
 H99 H -0.11651 0.95538 0.89362
 Zn100 Zn -0.02455 0.97576 0.82108
 N101 N -0.08319 0.95825 0.83853
 C102 C -0.07747 0.88287 0.79951
 N103 N -0.03299 0.92538 0.80169
 C104 C 0.00960 0.93337 0.79064
 C105 C 0.00861 0.89801 0.77659
 C106 C -0.08025 0.84640 0.78547
 C107 C -0.00990 1.07022 0.81356
 C108 C -0.00956 1.10894 0.80059
 C109 C -0.01651 1.06665 0.76540
 C110 C -0.01658 1.02883 0.77902
 N111 N -0.01383 1.03102 0.80265
 H112 H -0.11068 0.87710 0.80871
 H113 H 0.04463 0.96728 0.79301
 H114 H 0.04338 0.90490 0.76841
 H115 H -0.11605 0.81295 0.78370
 H116 H -0.00904 1.07048 0.83239
 H117 H -0.00822 1.13905 0.80960
 H118 H -0.01947 1.06394 0.74662
 H119 H -0.02086 0.99695 0.77066
 C120 C -0.16520 0.95028 0.86326
 C121 C 0.11548 1.00013 0.86847
 C122 C -0.01391 1.10697 0.77618
 C123 C -0.03672 0.85376 0.77380
 C124 C 0.46018 -0.00574 -0.01352
 C125 C 0.46557 0.00126 0.01080
 C126 C 0.50927 0.00548 0.02263
 C127 C 0.54772 0.00261 0.01089
 C128 C 0.54132 -0.00648 -0.01330
 C129 C 0.49800 -0.00965 -0.02520
 H130 H 0.49278 -0.01676 -0.04368
 H131 H 0.51403 0.01247 0.04113
 C132 C -0.03248 0.44698 0.64813
 C133 C -0.03228 0.44541 0.67282
 C134 C -0.03484 0.48220 0.68461
 C135 C -0.03668 0.52100 0.67254
 C136 C -0.03534 0.52339 0.64790
 C137 C -0.03361 0.48621 0.63606
 H138 H -0.03298 0.48794 0.61718
 H139 H -0.03513 0.48074 0.70350
 C140 C 0.56477 0.55174 0.32976
 C141 C 0.55836 0.55539 0.35370
 C142 C 0.51636 0.51731 0.36493
 C143 C 0.47985 0.47683 0.35270
 C144 C 0.48530 0.47439 0.32852
 C145 C 0.52818 0.51155 0.31749
 H146 H 0.53286 0.50949 0.29904
 H147 H 0.51169 0.51943 0.38337
 C148 C 0.01050 0.17001 0.58710
 C149 C 0.01055 0.20726 0.59947
 C150 C -0.01498 0.23167 0.59044
 C151 C -0.04140 0.21790 0.56891
 C152 C -0.04114 0.18090 0.55641
 C153 C -0.01473 0.15681 0.56524
 N154 N -0.01246 0.27091 0.60318
 N155 N -0.03846 0.29177 0.59713
 C156 C -0.03511 0.33160 0.60967
 C157 C -0.07125 0.34685 0.60486
 C158 C -0.06991 0.38471 0.61721
 C159 C -0.03198 0.40829 0.63445
 C160 C 0.00548 0.39420 0.63865
 C161 C 0.00361 0.35575 0.62655
 H162 H 0.03045 0.15169 0.59463
 H163 H 0.03081 0.21735 0.61610
 H164 H -0.06128 0.23639 0.56152
 H165 H -0.06031 0.17223 0.53950
 H166 H -0.10105 0.32874 0.59179
 H167 H -0.09907 0.39507 0.61361
 H168 H 0.03578 0.41257 0.65147
 H169 H 0.03243 0.34505 0.63033
 C170 C 0.81031 0.83264 0.22624
 C171 C 0.76937 0.79753 0.23897
 C172 C 0.77659 0.76693 0.25522
 C173 C 0.82562 0.77222 0.25889
 C174 C 0.86686 0.80808 0.24651
 C175 C 0.85943 0.83838 0.22999
 N176 N 0.73374 0.73126 0.26790
 N177 N 0.73444 0.69555 0.27881
 C178 C 0.69177 0.66037 0.29176
 C179 C 0.68848 0.61535 0.29763
 C180 C 0.64677 0.57983 0.30980
 C181 C 0.60856 0.58952 0.31684
 C182 C 0.61205 0.63484 0.31128
 C183 C 0.65326 0.67001 0.29864
 H184 H 0.80385 0.85603 0.21379
 H185 H 0.73183 0.79391 0.23606
 H186 H 0.83211 0.74914 0.27151
 H187 H 0.90447 0.81200 0.24969
 H188 H 0.71794 0.60756 0.29246
 H189 H 0.64450 0.54496 0.31400
 H190 H 0.58274 0.64273 0.31659
 H191 H 0.65526 0.70473 0.29442
 C192 C 0.21035 0.03534 -0.12586
 C193 C 0.25268 0.03786 -0.11351
 C194 C 0.24633 0.01023 -0.09296
 C195 C 0.19703 -0.01922 -0.08449
 C196 C 0.15472 -0.02153 -0.09671
 C197 C 0.16077 0.00524 -0.11771
 N198 N 0.29032 0.01227 -0.08119
 N199 N 0.28671 -0.01539 -0.06371
 C200 C 0.33061 -0.01336 -0.05186
 C201 C 0.32359 -0.04619 -0.03332
 C202 C 0.36562 -0.04461 -0.02111
 C203 C 0.41536 -0.00962 -0.02715
 C204 C 0.42241 0.02266 -0.04604
 C205 C 0.38038 0.02090 -0.05831
 H206 H 0.21640 0.05592 -0.14210
 H207 H 0.29050 0.06071 -0.12020
 H208 H 0.19117 -0.04056 -0.06850
 H209 H 0.11720 -0.04436 -0.08972
 H210 H 0.28545 -0.07292 -0.02827
 H211 H 0.35938 -0.07029 -0.00680
 H212 H 0.46048 0.04986 -0.05097
 H213 H 0.38679 0.04659 -0.07262
 C214 C 0.05967 0.83357 0.55080
 C215 C 0.05513 0.79084 0.56139
 C216 C 0.01581 0.76341 0.57685
 C217 C -0.01870 0.77962 0.58191
 C218 C -0.01400 0.82249 0.57147
 C219 C 0.02507 0.84980 0.55570
 N220 N 0.01186 0.71950 0.58718
 N221 N -0.02499 0.69120 0.60009
 C222 C -0.02850 0.64771 0.61076
 C223 C -0.07026 0.61819 0.62466
 C224 C -0.07359 0.57674 0.63620
 C225 C -0.03477 0.56458 0.63414
 C226 C 0.00629 0.59333 0.61962
 C227 C 0.00952 0.63465 0.60805
 H228 H 0.09033 0.85405 0.53885
 H229 H 0.08210 0.77884 0.55743
 H230 H -0.04937 0.75911 0.59384
 H231 H -0.04166 0.83369 0.57532
 H232 H -0.09990 0.62775 0.62682
 H233 H -0.10584 0.55473 0.64712
 H234 H 0.03662 0.58454 0.61782
 H235 H 0.04211 0.65680 0.59735
 C236 C 0.20184 0.15836 0.26097
 C237 C 0.24172 0.19443 0.27399
 C238 C 0.26427 0.24320 0.26649
 C239 C 0.24615 0.25569 0.24581
 C240 C 0.20637 0.21967 0.23275
 C241 C 0.18389 0.17053 0.24011
 N242 N 0.30552 0.27923 0.28005
 N243 N 0.32633 0.32429 0.27447
 C244 C 0.36755 0.36080 0.28780
 C245 C 0.38474 0.40973 0.28172
 C246 C 0.42365 0.44647 0.29476
 C247 C 0.44616 0.43478 0.31411
 C248 C 0.43009 0.38563 0.31979
 C249 C 0.39073 0.34882 0.30684
 H250 H 0.18492 0.12095 0.26729
 H251 H 0.25517 0.18436 0.28995
 H252 H 0.26303 0.29316 0.23960
 H253 H 0.19402 0.23020 0.21660
 H254 H 0.36730 0.41937 0.26705
 H255 H 0.43547 0.48411 0.29007
 H256 H 0.44749 0.37583 0.33442
 H257 H 0.37835 0.31119 0.31174
 C258 C 0.76562 -0.02905 -0.13484
 C259 C 0.73020 -0.02371 -0.12209
 C260 C 0.72313 -0.03782 -0.09859
 C261 C 0.75130 -0.05843 -0.08795
 C262 C 0.78718 -0.06344 -0.10057
 C263 C 0.79571 -0.04821 -0.12426
 N264 N 0.68846 -0.02927 -0.08584
 N265 N 0.67720 -0.04415 -0.06486
 C266 C 0.64358 -0.03401 -0.05217
 C267 C 0.62601 -0.05770 -0.03064
 C268 C 0.59284 -0.04882 -0.01796
 C269 C 0.57760 -0.01517 -0.02642
 C270 C 0.59557 0.00882 -0.04796
 C271 C 0.62817 -0.00059 -0.06077
 H272 H 0.77113 -0.01519 -0.15263
 H273 H 0.70886 -0.00751 -0.13045
 H274 H 0.74612 -0.07006 -0.06980
 H275 H 0.80726 -0.08029 -0.09167
 H276 H 0.63753 -0.08359 -0.02384
 H277 H 0.57867 -0.06859 -0.00165
 H278 H 0.58445 0.03495 -0.05485
 H279 H 0.64151 0.01845 -0.07731
 C280 C 0.18894 -0.04469 0.12210
 C281 C 0.22676 -0.04680 0.10965
 C282 C 0.24653 -0.01744 0.08967
 C283 C 0.22717 0.01342 0.08189
 C284 C 0.18918 0.01538 0.09423
 C285 C 0.17002 -0.01322 0.11466
 N286 N 0.28657 -0.01917 0.07783
 N287 N 0.30893 0.00928 0.06066
 C288 C 0.34900 0.00757 0.04883
 C289 C 0.37261 0.04068 0.03039
 C290 C 0.41130 0.03947 0.01826
 C291 C 0.42651 0.00464 0.02429
 C292 C 0.40351 -0.02794 0.04306
 C293 C 0.36497 -0.02660 0.05523
 H294 H 0.17558 -0.06671 0.13790
 H295 H 0.24138 -0.07074 0.11582
 H296 H 0.24151 0.03616 0.06635
 H297 H 0.17483 0.03937 0.08779
 H298 H 0.36083 0.06733 0.02538
 H299 H 0.42903 0.06534 0.00402
 H300 H 0.41476 -0.05503 0.04798
 H301 H 0.34742 -0.05249 0.06946
 C302 C 0.85806 0.86138 0.41977
 C303 C 0.82353 0.82132 0.40695
 C304 C 0.77370 0.79215 0.41426
 C305 C 0.75821 0.80381 0.43455
 C306 C 0.79277 0.84341 0.44771
 C307 C 0.84405 0.87308 0.44088
 N308 N 0.74025 0.75009 0.40120
 N309 N 0.69262 0.72572 0.40478
 C310 C 0.65990 0.68282 0.39209
 C311 C 0.60710 0.66421 0.39255
 C312 C 0.57426 0.62277 0.38010
 C313 C 0.59376 0.59884 0.36722
 C314 C 0.64673 0.61665 0.36743
 C315 C 0.67961 0.65867 0.37951
 H316 H 0.89662 0.88049 0.41362
 H317 H 0.83601 0.81244 0.39137
 H318 H 0.71953 0.78196 0.44044
 H319 H 0.77792 0.85114 0.46279
 H320 H 0.59143 0.68230 0.40231
 H321 H 0.53357 0.60967 0.38029
 H322 H 0.66268 0.59801 0.35833
 H323 H 0.72029 0.67190 0.37925
 C324 C -0.05463 0.13256 0.74361
 C325 C -0.06049 0.16835 0.73081
 C326 C -0.03053 0.21741 0.73619
 C327 C 0.00577 0.23048 0.75460
 C328 C 0.01153 0.19468 0.76749
 C329 C -0.01866 0.14532 0.76214
 N330 N -0.03793 0.25306 0.72284
 N331 N -0.01060 0.29840 0.72626
 C332 C -0.01788 0.33422 0.71301
 C333 C 0.01647 0.38342 0.71648
 C334 C 0.01131 0.41940 0.70354
 C335 C -0.02850 0.40666 0.68691
 C336 C -0.06381 0.35728 0.68382
 C337 C -0.05836 0.32123 0.69666
 H338 H -0.07902 0.09480 0.73930
 H339 H -0.08867 0.15782 0.71672
 H340 H 0.02947 0.26823 0.75908
 H341 H 0.03978 0.20559 0.78156
 H342 H 0.04769 0.39385 0.72907
 H343 H 0.03890 0.45727 0.70622
 H344 H -0.09523 0.34671 0.67133
 H345 H -0.08564 0.28339 0.69380
 C346 C 0.81087 0.01098 0.13109
 C347 C 0.76798 0.00556 0.11825
 C348 C 0.77323 0.02867 0.09642
 C349 C 0.82227 0.05834 0.08769
 C350 C 0.86533 0.06379 0.10053
 C351 C 0.86006 0.03978 0.12230
 N352 N 0.72809 0.02011 0.08334
 N353 N 0.72938 0.03965 0.06334
 C354 C 0.68360 0.02970 0.05040
 C355 C 0.68715 0.05487 0.02927
 C356 C 0.64309 0.04605 0.01634
 C357 C 0.59474 0.01131 0.02424
 C358 C 0.59127 -0.01400 0.04541
 C359 C 0.63528 -0.00493 0.05840
 H360 H 0.80536 -0.00873 0.14758
 H361 H 0.73038 -0.01752 0.12512
 H362 H 0.82727 0.07670 0.07085
 H363 H 0.90271 0.08652 0.09338
 H364 H 0.72412 0.08167 0.02293
 H365 H 0.64668 0.06661 0.00026
 H366 H 0.55444 -0.04095 0.05184
 H367 H 0.63149 -0.02504 0.07463
 C368 C 0.24377 0.19332 0.45856
 C369 C 0.28453 0.23269 0.44752
 C370 C 0.27623 0.25378 0.42703
 C371 C 0.22667 0.23427 0.41731
 C372 C 0.18596 0.19470 0.42821
 C373 C 0.19388 0.17408 0.44913
 N374 N 0.31856 0.29495 0.41652
 N375 N 0.31274 0.31880 0.39932
 C376 C 0.35499 0.35966 0.38860
 C377 C 0.34551 0.38531 0.37033
 C378 C 0.38595 0.42439 0.35901
 C379 C 0.43658 0.43788 0.36564
 C380 C 0.44608 0.41296 0.38433
 C381 C 0.40562 0.37407 0.39573
 H382 H 0.25119 0.17881 0.47478
 H383 H 0.32259 0.24737 0.45517
 H384 H 0.21936 0.24959 0.40133
 H385 H 0.14825 0.18023 0.42022
 H386 H 0.30667 0.37470 0.36475
 H387 H 0.37784 0.44358 0.34482
 H388 H 0.48487 0.42289 0.38971
 H389 H 0.41394 0.35489 0.40984
 C390 C -0.00963 0.82816 0.73870
 C391 C -0.00753 0.79261 0.72583
 C392 C -0.03374 0.74370 0.73303
 C393 C -0.06296 0.73045 0.75319
 C394 C -0.06483 0.76604 0.76620
 C395 C -0.03771 0.81542 0.75924
 N396 N -0.02894 0.70859 0.71991
 N397 N -0.05459 0.66311 0.72436
 C398 C -0.04872 0.62833 0.71146
 C399 C -0.08338 0.57884 0.71470
 C400 C -0.07916 0.54403 0.70213
 C401 C -0.03985 0.55827 0.68623
 C402 C -0.00412 0.60787 0.68350
 C403 C -0.00879 0.64272 0.69584
 H404 H 0.01093 0.86570 0.73259
 H405 H 0.01489 0.80323 0.71026
 H406 H -0.08345 0.69281 0.75915
 H407 H -0.08628 0.75504 0.78206
 H408 H -0.11411 0.56730 0.72678
 H409 H -0.10701 0.50597 0.70457
 H410 H 0.02716 0.61959 0.67172
 H411 H 0.01888 0.68076 0.69327
   
