data_POSCAR
  _audit_creation_date              2014-09-24
  _audit_creation_method            'ToBaCCo'
  _symmetry_space_group_name_H-M    'P1'
  _symmetry_Int_Tables_number       1
  _symmetry_cell_setting            triclinic
  loop_
  _symmetry_equiv_pos_as_xyz
 x,y,z
_cell_length_a 48.9196
_cell_length_b 28.6410
_cell_length_c 20.6213
_cell_angle_alpha 90.085200
_cell_angle_beta 89.865400
_cell_angle_gamma 90.037800
loop_
  _atom_site_label
  _atom_site_type_symbol
  _atom_site_fract_x
  _atom_site_fract_y
  _atom_site_fract_z
O1 O 0.76053 0.18865 0.56057
 O2 O 0.71458 0.23588 0.43545
 O3 O 0.76023 0.18854 0.43482
 O4 O 0.71475 0.23561 0.56158
 O5 O 0.73815 0.30171 0.56139
 O6 O 0.78360 0.25466 0.43470
 O7 O 0.73799 0.30197 0.43534
 O8 O 0.78390 0.25478 0.56040
 Cu9 Cu 0.73513 0.20552 0.49812
 Cu10 Cu 0.76324 0.28497 0.49794
 C11 C 0.78013 0.21359 0.58112
 C12 C 0.71844 0.27701 0.41454
 C13 C 0.77976 0.21349 0.41385
 C14 C 0.71868 0.27671 0.58259
 O15 O 0.23759 0.80348 0.56568
 O16 O 0.28322 0.75680 0.43899
 O17 O 0.23752 0.80405 0.43957
 O18 O 0.28315 0.75604 0.56462
 O19 O 0.25964 0.69006 0.56401
 O20 O 0.21403 0.73806 0.43895
 O21 O 0.25973 0.69079 0.43837
 O22 O 0.21406 0.73753 0.56511
 Cu23 Cu 0.26270 0.78679 0.50226
 Cu24 Cu 0.23445 0.70749 0.50152
 C25 C 0.21804 0.77851 0.58657
 C26 C 0.27938 0.71570 0.41787
 C27 C 0.21798 0.77925 0.41842
 C28 C 0.27927 0.71476 0.58489
 O29 O 0.26042 0.31066 -0.56576
 O30 O 0.21448 0.26398 -0.43984
 O31 O 0.26056 0.31016 -0.44015
 O32 O 0.21432 0.26451 -0.56597
 O33 O 0.23720 0.19795 -0.56685
 O34 O 0.28343 0.24357 -0.44107
 O35 O 0.23735 0.19741 -0.44078
 O36 O 0.28329 0.24408 -0.56668
 Cu37 Cu 0.23510 0.29402 -0.50285
 Cu38 Cu 0.26258 0.21399 -0.50395
 C39 C 0.27980 0.28545 -0.58690
 C40 C 0.21808 0.22272 -0.41930
 C41 C 0.27998 0.28477 -0.41993
 C42 C 0.21786 0.22340 -0.58736
 O43 O -0.26266 0.69681 -0.56157
 O44 O -0.21697 0.74364 -0.43554
 O45 O -0.26276 0.69657 -0.43549
 O46 O -0.21679 0.74361 -0.56121
 O47 O -0.24001 0.80984 -0.56100
 O48 O -0.28600 0.76276 -0.43524
 O49 O -0.24020 0.80986 -0.43532
 O50 O -0.28590 0.76302 -0.56138
 Cu51 Cu -0.23749 0.71345 -0.49847
 Cu52 Cu -0.26541 0.79301 -0.49821
 C53 C -0.28209 0.72190 -0.58247
 C54 C -0.22068 0.78486 -0.41472
 C55 C -0.28224 0.72160 -0.41441
 C56 C -0.22045 0.78485 -0.58178
 O57 O -0.03740 0.92062 0.12115
 O58 O -0.06760 0.96141 0.05783
 C59 C -0.06190 0.93262 0.10422
 O60 O 0.03855 1.08566 0.11455
 O61 O 0.06897 1.04187 0.05518
 C62 C 0.06312 1.07337 0.09814
 O63 O -0.03784 1.08051 0.12053
 O64 O -0.06784 1.03902 0.05724
 C65 C -0.06228 1.06811 0.10347
 O66 O 0.03898 0.91696 0.11503
 O67 O 0.06916 0.96125 0.05570
 C68 C 0.06348 0.92973 0.09866
 Zr69 Zr 0.00067 0.94185 0.08213
 O70 O 0.00352 0.93967 0.18448
 O71 O -0.00223 0.86811 0.07814
 Zr72 Zr 0.00037 1.06033 0.08109
 O73 O 0.00300 1.06553 0.18318
 O74 O -0.00298 1.13391 0.07405
 O75 O -0.02371 1.00092 0.09440
 O76 O 0.02406 1.00136 0.09386
 O77 O 0.03956 0.91674 -0.11394
 O78 O 0.06946 0.96124 -0.05439
 C79 C 0.06398 0.92958 -0.09734
 O80 O -0.03796 1.07950 -0.11988
 O81 O -0.06823 1.03793 -0.05689
 C82 C -0.06249 1.06697 -0.10308
 O83 O 0.03880 1.08522 -0.11430
 O84 O 0.06908 1.04160 -0.05468
 C85 C 0.06333 1.07297 -0.09774
 O86 O -0.03685 0.92042 -0.12100
 O87 O -0.06736 0.96104 -0.05773
 C88 C -0.06144 0.93223 -0.10412
 Zr89 Zr 0.00106 0.94104 -0.08067
 O90 O 0.00396 0.93515 -0.18264
 O91 O -0.00187 0.86743 -0.07297
 Zr92 Zr 0.00056 1.05948 -0.08170
 O93 O 0.00364 1.06167 -0.18404
 O94 O -0.00282 1.13316 -0.07853
 Zr95 Zr -0.04023 1.00028 -0.00005
 Zr96 Zr 0.04153 1.00113 0.00039
 O97 O 0.02438 1.00051 -0.09323
 O98 O -0.02334 0.99995 -0.09432
 O99 O 0.02556 0.93267 0.00090
 O100 O -0.02362 1.06807 -0.00042
 O101 O -0.02322 0.93283 0.00058
 O102 O 0.02509 1.06921 -0.00026
 H103 H 0.03599 1.00160 0.13261
 H104 H -0.03637 1.09494 -0.00058
 H105 H 0.03641 1.00058 -0.13194
 H106 H -0.03584 0.90575 0.00060
 H107 H 0.01459 1.14607 0.05725
 H108 H 0.01351 1.14536 -0.05595
 H109 H -0.01031 1.04015 -0.20164
 H110 H -0.00581 0.96223 -0.20101
 H111 H 0.01592 0.85560 -0.05728
 H112 H 0.01443 0.85631 0.05634
 H113 H -0.01004 0.96199 0.20196
 H114 H -0.00828 1.04007 0.20138
 O115 O 0.46229 0.41908 0.11957
 O116 O 0.43200 0.46021 0.05680
 C117 C 0.43777 0.43122 0.10289
 O118 O 0.53843 0.58350 0.11480
 O119 O 0.56876 0.53992 0.05486
 C120 C 0.56297 0.57117 0.09822
 O121 O 0.46202 0.57871 0.12090
 O122 O 0.43185 0.53770 0.05742
 C123 C 0.43753 0.56653 0.10393
 O124 O 0.53873 0.41501 0.11306
 O125 O 0.56891 0.45966 0.05428
 C126 C 0.56323 0.42786 0.09686
 Zr127 Zr 0.50040 0.44003 0.08032
 O128 O 0.50328 0.43601 0.18251
 O129 O 0.49737 0.36636 0.07430
 Zr130 Zr 0.50019 0.55850 0.08123
 O131 O 0.50290 0.56243 0.18344
 O132 O 0.49694 0.63216 0.07572
 O133 O 0.47608 0.49907 0.09372
 O134 O 0.52382 0.49937 0.09298
 O135 O 0.53900 0.41605 -0.11581
 O136 O 0.56904 0.45995 -0.05574
 C137 C 0.56346 0.42861 -0.09908
 O138 O 0.46222 0.57954 -0.12055
 O139 O 0.43197 0.53792 -0.05792
 C140 C 0.43772 0.56703 -0.10393
 O141 O 0.53868 0.58447 -0.11414
 O142 O 0.56889 0.54025 -0.05524
 C143 C 0.56320 0.57193 -0.09789
 O144 O 0.46260 0.42012 -0.12239
 O145 O 0.43212 0.46048 -0.05866
 C146 C 0.43803 0.43190 -0.10536
 Zr147 Zr 0.50058 0.44049 -0.08229
 O148 O 0.50350 0.43593 -0.18443
 O149 O 0.49754 0.36683 -0.07625
 Zr150 Zr 0.50036 0.55898 -0.08145
 O151 O 0.50343 0.56286 -0.18367
 O152 O 0.49707 0.63261 -0.07566
 Zr153 Zr 0.45938 0.49924 -0.00057
 Zr154 Zr 0.54123 0.49977 -0.00053
 O155 O 0.52402 0.49993 -0.09407
 O156 O 0.47630 0.49962 -0.09486
 O157 O 0.52519 0.43138 -0.00106
 O158 O 0.47614 0.56694 -0.00005
 O159 O 0.47637 0.43174 -0.00108
 O160 O 0.52493 0.56795 -0.00001
 H161 H 0.53574 0.49928 0.13174
 H162 H 0.46342 0.59386 0.00016
 H163 H 0.53602 0.50015 -0.13283
 H164 H 0.46372 0.40470 -0.00132
 H165 H 0.51437 0.64432 0.05804
 H166 H 0.51400 0.64459 -0.05541
 H167 H 0.49048 0.53980 -0.20181
 H168 H 0.49255 0.46185 -0.20231
 H169 H 0.51510 0.35484 -0.05938
 H170 H 0.51443 0.35461 0.05424
 H171 H 0.49060 0.45951 0.20065
 H172 H 0.49102 0.53760 0.20118
 C173 C 0.29771 0.30362 0.36964
 C174 C 0.31416 0.32022 0.33269
 C175 C 0.33442 0.34045 0.29059
 C176 C 0.35206 0.37488 0.31464
 C177 C 0.37244 0.39359 0.27484
 C178 C 0.37532 0.37791 0.21082
 C179 C 0.35751 0.34382 0.18648
 C180 C 0.33708 0.32509 0.22634
 C181 C 0.39697 0.39618 0.17099
 C182 C 0.41547 0.41185 0.13906
 H183 H 0.35021 0.38693 0.36429
 H184 H 0.38611 0.41992 0.29414
 H185 H 0.35957 0.33148 0.13703
 H186 H 0.32357 0.29842 0.20733
 C187 C -0.20154 0.80414 0.37218
 C188 C -0.18510 0.82077 0.33517
 C189 C -0.16490 0.84102 0.29280
 C190 C -0.14823 0.87729 0.31550
 C191 C -0.12795 0.89614 0.27546
 C192 C -0.12421 0.87879 0.21251
 C193 C -0.14101 0.84277 0.18955
 C194 C -0.16133 0.82390 0.22964
 C195 C -0.10266 0.89734 0.17246
 C196 C -0.08423 0.91319 0.14040
 H197 H -0.15074 0.89070 0.36431
 H198 H -0.11504 0.92392 0.29377
 H199 H -0.13826 0.82904 0.14099
 H200 H -0.17406 0.79577 0.21166
 C201 C 0.69944 0.70290 0.37043
 C202 C 0.68350 0.68634 0.33227
 C203 C 0.66398 0.66594 0.28846
 C204 C 0.64892 0.62676 0.30789
 C205 C 0.62926 0.60760 0.26661
 C206 C 0.62453 0.62752 0.20566
 C207 C 0.63977 0.66644 0.18586
 C208 C 0.65947 0.68563 0.22722
 C209 C 0.60341 0.60862 0.16485
 C210 C 0.58520 0.59203 0.13299
 H211 H 0.65218 0.61131 0.35517
 H212 H 0.61755 0.57757 0.28249
 H213 H 0.63623 0.68217 0.13888
 H214 H 0.67098 0.71599 0.21177
 C215 C 0.20015 1.20578 0.36833
 C216 C 0.18401 1.18947 0.33043
 C217 C 0.16422 1.16918 0.28720
 C218 C 0.14773 1.13239 0.30894
 C219 C 0.12795 1.11316 0.26807
 C220 C 0.12453 1.13061 0.20519
 C221 C 0.14115 1.16720 0.18314
 C222 C 0.16098 1.18647 0.22412
 C223 C 0.10346 1.11143 0.16446
 C224 C 0.08530 1.09457 0.13270
 H225 H 0.15002 1.11881 0.35764
 H226 H 0.11518 1.08494 0.28567
 H227 H 0.13864 1.18100 0.13464
 H228 H 0.17360 1.21497 0.20685
 C229 C 0.70031 0.29581 -0.37003
 C230 C 0.68447 0.31249 -0.33162
 C231 C 0.66507 0.33309 -0.28752
 C232 C 0.65754 0.30984 -0.23045
 C233 C 0.63779 0.32925 -0.18924
 C234 C 0.62554 0.37195 -0.20503
 C235 C 0.63333 0.39541 -0.26170
 C236 C 0.65303 0.37603 -0.30284
 C237 C 0.60421 0.39107 -0.16488
 C238 C 0.58585 0.40777 -0.13345
 H239 H 0.66667 0.27655 -0.21825
 H240 H 0.63184 0.31075 -0.14565
 H241 H 0.62391 0.42835 -0.27452
 H242 H 0.65863 0.39423 -0.34695
 C243 C 0.20069 0.79645 -0.36839
 C244 C 0.18495 0.81300 -0.32958
 C245 C 0.16574 0.83345 -0.28487
 C246 C 0.15748 0.87988 -0.29316
 C247 C 0.13782 0.89932 -0.25190
 C248 C 0.12631 0.87244 -0.20211
 C249 C 0.13482 0.82618 -0.19322
 C250 C 0.15451 0.80671 -0.23453
 C251 C 0.10488 0.89183 -0.16249
 C252 C 0.08644 0.90867 -0.13142
 H253 H 0.16594 0.90082 -0.33206
 H254 H 0.13130 0.93505 -0.25944
 H255 H 0.12596 0.80502 -0.15507
 H256 H 0.16068 0.77072 -0.22782
 C257 C 0.29796 0.69513 -0.36921
 C258 C 0.31420 0.67825 -0.33219
 C259 C 0.33415 0.65789 -0.28964
 C260 C 0.34661 0.61551 -0.30641
 C261 C 0.36697 0.59668 -0.26683
 C262 C 0.37497 0.62019 -0.21034
 C263 C 0.36226 0.66225 -0.19309
 C264 C 0.34189 0.68109 -0.23270
 C265 C 0.39679 0.60182 -0.17139
 C266 C 0.41538 0.58622 -0.13991
 H267 H 0.34085 0.59736 -0.35045
 H268 H 0.37668 0.56415 -0.28066
 H269 H 0.36833 0.68071 -0.14955
 H270 H 0.33244 0.71394 -0.21940
 C271 C -0.20112 1.19438 -0.37270
 C272 C -0.18488 1.17788 -0.33530
 C273 C -0.16501 1.15787 -0.29216
 C274 C -0.15727 1.18162 -0.23564
 C275 C -0.13716 1.16287 -0.19519
 C276 C -0.12471 1.12031 -0.21116
 C277 C -0.13263 1.09637 -0.26736
 C278 C -0.15273 1.11512 -0.30777
 C279 C -0.10319 1.10185 -0.17129
 C280 C -0.08479 1.08614 -0.13928
 H281 H -0.16656 1.21479 -0.22325
 H282 H -0.13111 1.18173 -0.15196
 H283 H -0.12307 1.06352 -0.28029
 H284 H -0.15846 1.09656 -0.35150
 C285 C 0.70019 0.70357 -0.36994
 C286 C 0.68421 0.68705 -0.33169
 C287 C 0.66463 0.66677 -0.28773
 C288 C 0.65008 0.62683 -0.30637
 C289 C 0.63033 0.60782 -0.26505
 C290 C 0.62499 0.62864 -0.20482
 C291 C 0.63971 0.66834 -0.18579
 C292 C 0.65951 0.68738 -0.22720
 C293 C 0.60378 0.60977 -0.16403
 C294 C 0.58550 0.59306 -0.13231
 H295 H 0.65380 0.61067 -0.35311
 H296 H 0.61902 0.57720 -0.28034
 H297 H 0.63570 0.68478 -0.13939
 H298 H 0.67061 0.71833 -0.21235
 C299 C 0.19959 1.20387 -0.37205
 C300 C 0.18365 1.18749 -0.33363
 C301 C 0.16415 1.16737 -0.28941
 C302 C 0.16025 1.18663 -0.22754
 C303 C 0.14060 1.16768 -0.18567
 C304 C 0.12482 1.12942 -0.20561
 C305 C 0.12894 1.10995 -0.26721
 C306 C 0.14854 1.12887 -0.30899
 C307 C 0.10378 1.11068 -0.16430
 C308 C 0.08559 1.09405 -0.13230
 H309 H 0.17220 1.21646 -0.21198
 H310 H 0.13754 1.18307 -0.13819
 H311 H 0.11681 1.08044 -0.28318
 H312 H 0.15133 1.11376 -0.35675
 C313 C 0.29896 0.30356 -0.37385
 C314 C 0.31541 0.31989 -0.33676
 C315 C 0.33554 0.33991 -0.29421
 C316 C 0.34958 0.38036 -0.31300
 C317 C 0.36978 0.39923 -0.27291
 C318 C 0.37606 0.37772 -0.21383
 C319 C 0.36191 0.33743 -0.19478
 C320 C 0.34168 0.31855 -0.23492
 C321 C 0.39752 0.39643 -0.17388
 C322 C 0.41584 0.41242 -0.14178
 H323 H 0.34508 0.39706 -0.35887
 H324 H 0.38066 0.43030 -0.28821
 H325 H 0.36667 0.32045 -0.14928
 H326 H 0.33102 0.28716 -0.22005
 C327 C -0.20185 0.80414 -0.36870
 C328 C -0.18544 0.82081 -0.33182
 C329 C -0.16521 0.84107 -0.28973
 C330 C -0.15049 0.88038 -0.31017
 C331 C -0.12997 0.89907 -0.27085
 C332 C -0.12405 0.87851 -0.21092
 C333 C -0.13898 0.83952 -0.19007
 C334 C -0.15953 0.82081 -0.22944
 C335 C -0.10222 0.89690 -0.17182
 C336 C -0.08368 0.91269 -0.14027
 H337 H -0.15467 0.89624 -0.35677
 H338 H -0.11855 0.92922 -0.28744
 H339 H -0.13455 0.82336 -0.14381
 H340 H -0.17075 0.79034 -0.21325
 C341 C 0.29819 0.69643 0.37158
 C342 C 0.31455 0.67973 0.33439
 C343 C 0.33462 0.65929 0.29183
 C344 C 0.34842 0.61871 0.31078
 C345 C 0.36863 0.59954 0.27081
 C346 C 0.37517 0.62086 0.21167
 C347 C 0.36123 0.66125 0.19242
 C348 C 0.34099 0.68044 0.23244
 C349 C 0.39675 0.60197 0.17199
 C350 C 0.41518 0.58595 0.14011
 H351 H 0.34375 0.60218 0.35673
 H352 H 0.37934 0.56840 0.28629
 H353 H 0.36619 0.67810 0.14689
 H354 H 0.33052 0.71194 0.21744
 C355 C -0.20262 1.19533 0.36965
 C356 C -0.18645 1.17893 0.33180
 C357 C -0.16653 1.15915 0.28832
 C358 C -0.15400 1.18711 0.24113
 C359 C -0.13351 1.16848 0.20138
 C360 C -0.12549 1.12184 0.20872
 C361 C -0.13828 1.09372 0.25533
 C362 C -0.15875 1.11234 0.29507
 C363 C -0.10348 1.10326 0.17021
 C364 C -0.08476 1.08746 0.13910
 H365 H -0.15977 1.22341 0.23574
 H366 H -0.12369 1.19055 0.16561
 H367 H -0.13217 1.05764 0.26154
 H368 H -0.16821 1.09049 0.33163
 C369 C 0.69994 0.29613 0.36770
 C370 C 0.68399 0.31273 0.32967
 C371 C 0.66447 0.33312 0.28593
 C372 C 0.65977 0.31315 0.22485
 C373 C 0.64003 0.33226 0.18361
 C374 C 0.62495 0.37139 0.20337
 C375 C 0.62988 0.39159 0.26414
 C376 C 0.64958 0.37251 0.30530
 C377 C 0.60378 0.39026 0.16276
 C378 C 0.58553 0.40691 0.13117
 H379 H 0.67114 0.28263 0.20945
 H380 H 0.63634 0.31630 0.13678
 H381 H 0.61830 0.42177 0.27999
 H382 H 0.65299 0.38819 0.35245
 C383 C 0.19958 0.79858 0.37155
 C384 C 0.18369 0.81523 0.33344
 C385 C 0.16423 0.83555 0.28953
 C386 C 0.16095 0.81740 0.22686
 C387 C 0.14133 0.83645 0.18524
 C388 C 0.12497 0.87370 0.20624
 C389 C 0.12847 0.89206 0.26867
 C390 C 0.14803 0.87304 0.31020
 C391 C 0.10395 0.89245 0.16511
 C392 C 0.08576 0.90896 0.13321
 H393 H 0.17334 0.78834 0.21046
 H394 H 0.13876 0.82191 0.13711
 H395 H 0.11587 0.92077 0.28546
 H396 H 0.15033 0.88728 0.35859
   
