data_POSCAR
  _audit_creation_date              2014-09-24
  _audit_creation_method            'ToBaCCo'
  _symmetry_space_group_name_H-M    'P1'
  _symmetry_Int_Tables_number       1
  _symmetry_cell_setting            triclinic
  loop_
  _symmetry_equiv_pos_as_xyz
 x,y,z
_cell_length_a 45.3321
_cell_length_b 45.5301
_cell_length_c 44.6372
_cell_angle_alpha 90.078700
_cell_angle_beta 90.090100
_cell_angle_gamma 89.606400
loop_
  _atom_site_label
  _atom_site_type_symbol
  _atom_site_fract_x
  _atom_site_fract_y
  _atom_site_fract_z
O1 O 0.36569 0.32699 -0.03581
 O2 O 0.33337 0.36839 0.02704
 O3 O 0.37133 0.32521 0.02179
 O4 O 0.32881 0.37095 -0.03106
 O5 O 0.29161 0.34002 -0.02839
 O6 O 0.33471 0.29353 0.02357
 O7 O 0.29685 0.33659 0.02891
 O8 O 0.32829 0.29617 -0.03465
 Cu9 Cu 0.35350 0.35106 -0.00469
 Cu10 Cu 0.30925 0.31331 -0.00243
 C11 C 0.35248 0.30452 -0.04588
 C12 C 0.30933 0.35968 0.03841
 C13 C 0.36041 0.30143 0.03145
 C14 C 0.30283 0.36356 -0.03846
 O15 O 0.66891 0.62154 0.02413
 O16 O 0.62866 0.66380 -0.03339
 O17 O 0.66873 0.62278 -0.03451
 O18 O 0.62840 0.66340 0.02455
 O19 O 0.66361 0.69665 0.02556
 O20 O 0.70368 0.65628 -0.03357
 O21 O 0.66369 0.69729 -0.03267
 O22 O 0.70377 0.65513 0.02470
 Cu23 Cu 0.64525 0.63940 -0.00469
 Cu24 Cu 0.68720 0.67965 -0.00380
 C25 C 0.69335 0.63100 0.03401
 C26 C 0.63935 0.68781 -0.04275
 C27 C 0.69300 0.63280 -0.04435
 C28 C 0.63889 0.68728 0.03468
 O29 O 0.63052 0.33635 1.02731
 O30 O 0.67565 0.36995 0.96768
 O31 O 0.63172 0.33313 0.96901
 O32 O 0.67289 0.37497 1.02574
 O33 O 0.70635 0.33959 1.02786
 O34 O 0.66352 0.29641 0.97324
 O35 O 0.70688 0.33254 0.97018
 O36 O 0.66378 0.30097 1.03156
 Cu37 Cu 0.64944 0.35724 0.99713
 Cu38 Cu 0.68831 0.31370 1.00130
 C39 C 0.63962 0.31282 1.03962
 C40 C 0.69878 0.35668 0.95861
 C41 C 0.64055 0.30768 0.96144
 C42 C 0.69697 0.36477 1.03600
 O43 O 0.32110 0.63060 0.97453
 O44 O 0.35432 0.67636 1.03359
 O45 O 0.32014 0.63058 1.03287
 O46 O 0.35457 0.67726 0.97533
 O47 O 0.31462 0.70530 0.97427
 O48 O 0.28123 0.65999 1.03311
 O49 O 0.31535 0.70572 1.03263
 O50 O 0.28152 0.65913 0.97488
 Cu51 Cu 0.34151 0.65080 1.00407
 Cu52 Cu 0.29424 0.68542 1.00373
 C53 C 0.29554 0.63699 0.96477
 C54 C 0.34056 0.69894 1.04302
 C55 C 0.29476 0.63746 1.04290
 C56 C 0.34036 0.69918 0.96496
 O57 O -0.02624 0.38051 0.34379
 O58 O 0.03096 0.33763 0.38393
 O59 O 0.03131 0.37811 0.34287
 O60 O -0.02659 0.34162 0.38653
 O61 O -0.02776 0.30558 0.35344
 O62 O 0.02769 0.34396 0.30790
 O63 O 0.02911 0.30365 0.34861
 O64 O -0.02980 0.34464 0.31069
 Cu65 Cu 0.00260 0.36297 0.36775
 Cu66 Cu -0.00058 0.32102 0.32668
 C67 C -0.03793 0.36961 0.32044
 C68 C 0.03999 0.31346 0.37275
 C69 C 0.03933 0.36731 0.31791
 C70 C -0.03677 0.31719 0.37774
 O71 O 0.02876 0.67065 0.62255
 O72 O -0.02861 0.63337 0.66714
 O73 O -0.02862 0.67302 0.62504
 O74 O 0.02854 0.62911 0.66306
 O75 O 0.03172 0.66279 0.69855
 O76 O -0.02514 0.70724 0.65988
 O77 O -0.02466 0.66766 0.70197
 O78 O 0.03239 0.70435 0.65792
 Cu79 Cu -0.00031 0.64816 0.64090
 Cu80 Cu 0.00404 0.68904 0.68295
 C81 C 0.04024 0.69403 0.63272
 C82 C -0.03610 0.64414 0.69236
 C83 C -0.03670 0.69761 0.63586
 C84 C 0.03936 0.63808 0.68761
 O85 O 1.03172 0.63782 0.31725
 O86 O 0.97325 0.67284 0.36196
 O87 O 0.97490 0.63967 0.31439
 O88 O 1.03079 0.66972 0.36554
 O89 O 1.03278 0.71014 0.33838
 O90 O 0.97771 0.67942 0.28626
 O91 O 0.97608 0.71250 0.33366
 O92 O 1.03541 0.67800 0.28986
 Cu93 Cu 1.00236 0.65105 0.34267
 Cu94 Cu 1.00586 0.69897 0.30913
 C95 C 1.04349 0.65195 0.29592
 C96 C 0.96469 0.69867 0.35532
 C97 C 0.96691 0.65428 0.29153
 C98 C 1.04116 0.69514 0.36091
 O99 O 0.97091 0.33031 0.61950
 O100 O 1.02663 0.37106 0.66261
 O101 O 1.02853 0.33011 0.62195
 O102 O 0.96914 0.37066 0.66141
 O103 O 0.96886 0.33657 0.69652
 O104 O 1.02689 0.29545 0.65641
 O105 O 1.02640 0.33645 0.69720
 O106 O 0.96967 0.29644 0.65481
 Cu107 Cu 0.99880 0.35396 0.63784
 Cu108 Cu 0.99785 0.31285 0.67975
 C109 C 0.96084 0.30641 0.62976
 C110 C 1.03615 0.36059 0.68717
 C111 C 1.03777 0.30575 0.63247
 C112 C 0.95907 0.36056 0.68588
 O113 O 0.33926 -0.02860 0.37253
 O114 O 0.37860 0.03080 0.33342
 O115 O 0.33671 0.02828 0.37390
 O116 O 0.38119 -0.02660 0.33256
 O117 O 0.34822 -0.02647 0.29610
 O118 O 0.30334 0.02776 0.33782
 O119 O 0.34479 0.03049 0.29775
 O120 O 0.30622 -0.02938 0.33613
 Cu121 Cu 0.36235 0.00107 0.35666
 Cu122 Cu 0.32232 0.00049 0.31336
 C123 C 0.31587 -0.03895 0.36101
 C124 C 0.36834 0.04073 0.30889
 C125 C 0.31227 0.03710 0.36305
 C126 C 0.37240 -0.03572 0.30720
 O127 O 0.63477 0.02911 0.66789
 O128 O 0.67665 -0.03131 0.63285
 O129 O 0.62874 -0.02782 0.66454
 O130 O 0.68114 0.02543 0.63390
 O131 O 0.70972 0.01978 0.67362
 O132 O 0.65499 -0.03055 0.70621
 O133 O 0.70254 -0.03684 0.67448
 O134 O 0.66328 0.02563 0.70794
 Cu135 Cu 0.65252 -0.00069 0.64571
 Cu136 Cu 0.68540 -0.00582 0.69467
 C137 C 0.64210 0.03769 0.69396
 C138 C 0.69658 -0.04449 0.64787
 C139 C 0.63274 -0.03803 0.69066
 C140 C 0.70459 0.03129 0.64820
 O141 O 0.33948 1.03061 0.62714
 O142 O 0.37501 0.97125 0.67071
 O143 O 0.33651 0.97344 0.62710
 O144 O 0.37908 1.02813 0.66953
 O145 O 0.34377 1.03046 0.70350
 O146 O 0.30031 0.97704 0.65997
 O147 O 0.33877 0.97346 0.70364
 O148 O 0.30449 1.03377 0.66137
 Cu149 Cu 0.36110 1.00052 0.64524
 Cu150 Cu 0.31828 1.00386 0.68551
 C151 C 0.31594 1.04240 0.63702
 C152 C 0.36292 0.96234 0.69469
 C153 C 0.31099 0.96627 0.63600
 C154 C 0.36877 1.03855 0.69376
 O155 O 0.66429 1.02501 0.37273
 O156 O 0.62356 0.96814 0.33111
 O157 O 0.66463 0.96788 0.37204
 O158 O 0.62263 1.02542 0.33211
 O159 O 0.65602 1.02522 0.29614
 O160 O 0.69857 0.96860 0.33663
 O161 O 0.65782 0.96831 0.29598
 O162 O 0.69774 1.02579 0.33689
 Cu163 Cu 0.64036 0.99663 0.35555
 Cu164 Cu 0.68096 0.99719 0.31288
 C165 C 0.68815 1.03494 0.36200
 C166 C 0.63390 0.95844 0.30652
 C167 C 0.68875 0.95843 0.36114
 C168 C 0.63192 1.03477 0.30709
 C169 C 0.81792 0.81770 0.50972
 C170 C 0.81845 0.81429 0.47940
 C171 C 0.84085 0.79539 0.46481
 C172 C 0.79844 0.83115 0.45928
 C173 C 0.79868 0.83999 0.52419
 C174 C 0.83721 0.79985 0.52971
 C175 C 0.87094 0.80155 0.46810
 C176 C 0.89202 0.78416 0.45370
 C177 C 0.88337 0.76021 0.43603
 C178 C 0.85315 0.75414 0.43265
 C179 C 0.83205 0.77176 0.44684
 C180 C 0.81046 0.84952 0.43734
 C181 C 0.79221 0.86757 0.41999
 C182 C 0.76137 0.86721 0.42386
 C183 C 0.74938 0.84817 0.44533
 C184 C 0.76770 0.83018 0.46277
 C185 C 0.77910 0.83150 0.54680
 C186 C 0.76016 0.85212 0.55986
 C187 C 0.76064 0.88161 0.55051
 C188 C 0.78039 0.89010 0.52808
 C189 C 0.79966 0.86958 0.51539
 C190 C 0.83665 0.76905 0.52875
 C191 C 0.85570 0.75250 0.54681
 C192 C 0.87580 0.76651 0.56617
 C193 C 0.87543 0.79731 0.56787
 C194 C 0.85633 0.81382 0.54984
 H195 H 0.87803 0.82005 0.48153
 H196 H 0.91515 0.78947 0.45625
 H197 H 0.84574 0.73640 0.41842
 H198 H 0.80885 0.76702 0.44384
 H199 H 0.83414 0.85076 0.43448
 H200 H 0.80262 0.88241 0.40445
 H201 H 0.75798 0.81596 0.47944
 H202 H 0.77810 0.80879 0.55389
 H203 H 0.74474 0.84485 0.57674
 H204 H 0.78118 0.91273 0.52067
 H205 H 0.81513 0.87670 0.49847
 H206 H 0.82146 0.75785 0.51395
 H207 H 0.85432 0.72883 0.54567
 H208 H 0.89036 0.80867 0.58282
 H209 H 0.85691 0.83757 0.55112
 H210 H 0.72576 0.84749 0.44891
 C211 C 0.18856 0.18585 0.51565
 C212 C 0.18943 0.18504 0.48514
 C213 C 0.16940 0.20419 0.46745
 C214 C 0.20896 0.16454 0.46802
 C215 C 0.20894 0.16826 0.53458
 C216 C 0.16555 0.20329 0.53152
 C217 C 0.14786 0.19162 0.44904
 C218 C 0.12731 0.20943 0.43429
 C219 C 0.12793 0.24011 0.43764
 C220 C 0.15041 0.25273 0.45516
 C221 C 0.17092 0.23486 0.46995
 C222 C 0.21030 0.13440 0.47480
 C223 C 0.22849 0.11544 0.45827
 C224 C 0.24521 0.12614 0.43414
 C225 C 0.24304 0.15601 0.42673
 C226 C 0.22526 0.17504 0.44358
 C227 C 0.23965 0.16960 0.53079
 C228 C 0.25834 0.15173 0.54796
 C229 C 0.24670 0.13266 0.56956
 C230 C 0.21591 0.13164 0.57346
 C231 C 0.19731 0.14943 0.55633
 C232 C 0.17326 0.22838 0.54792
 C233 C 0.15147 0.24519 0.56225
 C234 C 0.12168 0.23677 0.56082
 C235 C 0.11420 0.21120 0.54503
 C236 C 0.13590 0.19476 0.53023
 H237 H 0.14648 0.16798 0.44678
 H238 H 0.11051 0.19914 0.42063
 H239 H 0.15246 0.27626 0.45745
 H240 H 0.18782 0.24490 0.48367
 H241 H 0.19703 0.12543 0.49269
 H242 H 0.22883 0.09233 0.46391
 H243 H 0.22427 0.19806 0.43756
 H244 H 0.24908 0.18420 0.51430
 H245 H 0.28193 0.15277 0.54436
 H246 H 0.20592 0.11650 0.58903
 H247 H 0.17368 0.14784 0.55942
 H248 H 0.19609 0.23511 0.54929
 H249 H 0.15800 0.26440 0.57487
 H250 H 0.09146 0.20413 0.54386
 H251 H 0.12964 0.17529 0.51785
 H252 H 0.25538 0.16470 0.40801
 C253 C 0.18239 0.82688 0.48417
 C254 C 0.18321 0.82483 0.51454
 C255 C 0.16336 0.80479 0.53114
 C256 C 0.20246 0.84410 0.53276
 C257 C 0.20274 0.84622 0.46734
 C258 C 0.15959 0.81158 0.46636
 C259 C 0.14485 0.81612 0.55354
 C260 C 0.12611 0.79762 0.56946
 C261 C 0.12582 0.76722 0.56358
 C262 C 0.14423 0.75596 0.54098
 C263 C 0.16303 0.77452 0.52506
 C264 C 0.19824 0.87466 0.53261
 C265 C 0.21561 0.89267 0.55076
 C266 C 0.23755 0.88037 0.56932
 C267 C 0.24204 0.84984 0.56900
 C268 C 0.22434 0.83179 0.55120
 C269 C 0.23346 0.84310 0.47004
 C270 C 0.25235 0.86127 0.45375
 C271 C 0.24075 0.88299 0.43448
 C272 C 0.21000 0.88567 0.43161
 C273 C 0.19122 0.86749 0.44781
 C274 C 0.16763 0.78857 0.44707
 C275 C 0.14645 0.77534 0.42878
 C276 C 0.11710 0.78553 0.42900
 C277 C 0.10920 0.80871 0.44818
 C278 C 0.13021 0.82139 0.46704
 H279 H 0.14459 0.83943 0.55840
 H280 H 0.11151 0.80740 0.58587
 H281 H 0.14431 0.73270 0.53586
 H282 H 0.17744 0.76525 0.50815
 H283 H 0.18131 0.88449 0.51864
 H284 H 0.21208 0.91619 0.54998
 H285 H 0.22779 0.80823 0.55162
 H286 H 0.24280 0.82636 0.48451
 H287 H 0.27584 0.85777 0.45603
 H288 H 0.20041 0.90201 0.41683
 H289 H 0.16759 0.87024 0.44528
 H290 H 0.19032 0.78105 0.44607
 H291 H 0.15323 0.75791 0.41372
 H292 H 0.08676 0.81703 0.44847
 H293 H 0.12381 0.83942 0.48155
 H294 H 0.25895 0.83992 0.58294
 C295 C 0.81815 0.17552 0.48040
 C296 C 0.81651 0.17777 0.51067
 C297 C 0.83650 0.19710 0.52790
 C298 C 0.79575 0.15971 0.52812
 C299 C 0.79815 0.15625 0.46304
 C300 C 0.84114 0.19106 0.46330
 C301 C 0.85569 0.18490 0.54923
 C302 C 0.87468 0.20283 0.56564
 C303 C 0.87448 0.23348 0.56134
 C304 C 0.85529 0.24558 0.53984
 C305 C 0.83632 0.22759 0.52340
 C306 C 0.80129 0.12968 0.53244
 C307 C 0.78178 0.11275 0.54927
 C308 C 0.75624 0.12561 0.56160
 C309 C 0.75061 0.15559 0.55687
 C310 C 0.77052 0.17265 0.54069
 C311 C 0.76748 0.16066 0.46354
 C312 C 0.74894 0.14254 0.44672
 C313 C 0.76073 0.12002 0.42874
 C314 C 0.79150 0.11553 0.42852
 C315 C 0.80998 0.13362 0.44533
 C316 C 0.83373 0.21609 0.44660
 C317 C 0.85526 0.23048 0.42987
 C318 C 0.88433 0.21956 0.42906
 C319 C 0.89153 0.19418 0.44539
 C320 C 0.87017 0.18025 0.46276
 H321 H 0.85630 0.16138 0.55283
 H322 H 0.88981 0.19243 0.58114
 H323 H 0.85481 0.26905 0.53593
 H324 H 0.82138 0.23745 0.50729
 H325 H 0.82073 0.11945 0.52281
 H326 H 0.78629 0.08953 0.55203
 H327 H 0.76602 0.19584 0.53750
 H328 H 0.75794 0.17828 0.47673
 H329 H 0.72533 0.14633 0.44748
 H330 H 0.80144 0.09778 0.41587
 H331 H 0.83356 0.12969 0.44483
 H332 H 0.81131 0.22446 0.44663
 H333 H 0.84904 0.24968 0.41697
 H334 H 0.91376 0.18532 0.44486
 H335 H 0.87608 0.16078 0.47539
 H336 H 0.73093 0.16583 0.56597
 C337 C 0.51085 0.82466 0.82998
 C338 C 0.48087 0.82377 0.83136
 C339 C 0.46260 0.84230 0.81115
 C340 C 0.46523 0.80458 0.85309
 C341 C 0.52985 0.80377 0.84678
 C342 C 0.52629 0.84787 0.81300
 C343 C 0.44177 0.86195 0.82303
 C344 C 0.42545 0.88029 0.80406
 C345 C 0.42957 0.87924 0.77287
 C346 C 0.44968 0.85860 0.76097
 C347 C 0.46606 0.84039 0.77997
 C348 C 0.47336 0.80412 0.88349
 C349 C 0.45972 0.78490 0.90340
 C350 C 0.43686 0.76664 0.89365
 C351 C 0.42792 0.76781 0.86347
 C352 C 0.44202 0.78662 0.84339
 C353 C 0.52649 0.77332 0.84351
 C354 C 0.54406 0.75391 0.86013
 C355 C 0.56526 0.76474 0.88039
 C356 C 0.56906 0.79523 0.88282
 C357 C 0.55160 0.81454 0.86617
 C358 C 0.54567 0.84020 0.78979
 C359 C 0.56232 0.86176 0.77554
 C360 C 0.56020 0.89127 0.78472
 C361 C 0.54078 0.89885 0.80796
 C362 C 0.52370 0.87736 0.82180
 H363 H 0.43862 0.86353 0.84703
 H364 H 0.40987 0.89568 0.81383
 H365 H 0.45274 0.85613 0.73709
 H366 H 0.48153 0.82478 0.77038
 H367 H 0.49054 0.81842 0.89177
 H368 H 0.46685 0.78448 0.92657
 H369 H 0.43525 0.78670 0.82011
 H370 H 0.51024 0.76462 0.82813
 H371 H 0.54101 0.73063 0.85673
 H372 H 0.58537 0.80420 0.89799
 H373 H 0.55466 0.83796 0.86888
 H374 H 0.54819 0.81745 0.78307
 H375 H 0.57766 0.85515 0.75820
 H376 H 0.53905 0.92140 0.81557
 H377 H 0.50919 0.88353 0.84005
 H378 H 0.41065 0.75363 0.85520
 C379 C 0.51691 0.18590 0.18257
 C380 C 0.48687 0.18499 0.18146
 C381 C 0.47014 0.16453 0.20088
 C382 C 0.46919 0.20317 0.16020
 C383 C 0.53450 0.20621 0.16379
 C384 C 0.53395 0.16503 0.20149
 C385 C 0.45174 0.14351 0.18776
 C386 C 0.43628 0.12376 0.20562
 C387 C 0.43879 0.12462 0.23699
 C388 C 0.45674 0.14627 0.25017
 C389 C 0.47228 0.16601 0.23222
 C390 C 0.47541 0.20336 0.12936
 C391 C 0.45814 0.22010 0.10968
 C392 C 0.43396 0.23656 0.12042
 C393 C 0.42723 0.23555 0.15106
 C394 C 0.44474 0.21916 0.17077
 C395 C 0.52940 0.23668 0.16402
 C396 C 0.54618 0.25521 0.14581
 C397 C 0.56865 0.24368 0.12751
 C398 C 0.57358 0.21311 0.12733
 C399 C 0.55684 0.19469 0.14543
 C400 C 0.55111 0.17553 0.22531
 C401 C 0.56765 0.15603 0.24287
 C402 C 0.56797 0.12587 0.23633
 C403 C 0.55065 0.11539 0.21245
 C404 C 0.53375 0.13484 0.19521
 H405 H 0.44966 0.14216 0.16362
 H406 H 0.42244 0.10757 0.19483
 H407 H 0.45864 0.14843 0.27420
 H408 H 0.48589 0.18254 0.24275
 H409 H 0.49341 0.19028 0.12045
 H410 H 0.46332 0.21956 0.08602
 H411 H 0.43922 0.21898 0.19437
 H412 H 0.51244 0.24608 0.17823
 H413 H 0.54175 0.27861 0.14616
 H414 H 0.58984 0.20316 0.11273
 H415 H 0.56096 0.17124 0.14465
 H416 H 0.55151 0.19879 0.23039
 H417 H 0.58066 0.16456 0.26126
 H418 H 0.54988 0.09217 0.20730
 H419 H 0.52069 0.12642 0.17680
 H420 H 0.40853 0.24775 0.15981
 C421 C 0.49137 0.18494 0.81564
 C422 C 0.52127 0.18369 0.81292
 C423 C 0.53566 0.16151 0.79355
 C424 C 0.54114 0.20259 0.83095
 C425 C 0.47673 0.20453 0.83772
 C426 C 0.47187 0.16592 0.79730
 C427 C 0.53250 0.13150 0.79964
 C428 C 0.54672 0.11064 0.78177
 C429 C 0.56403 0.11945 0.75740
 C430 C 0.56726 0.14959 0.75141
 C431 C 0.55327 0.17046 0.76952
 C432 C 0.56186 0.18946 0.85015
 C433 C 0.57915 0.20662 0.86914
 C434 C 0.57649 0.23748 0.86890
 C435 C 0.55618 0.25057 0.84906
 C436 C 0.53876 0.23332 0.83015
 C437 C 0.45428 0.22373 0.82824
 C438 C 0.44066 0.24268 0.84864
 C439 C 0.44937 0.24271 0.87887
 C440 C 0.47166 0.22338 0.88839
 C441 C 0.48482 0.20400 0.86812
 C442 C 0.47284 0.16664 0.76590
 C443 C 0.45503 0.14789 0.74900
 C444 C 0.43567 0.12833 0.76312
 C445 C 0.43462 0.12787 0.79467
 C446 C 0.45238 0.14667 0.81151
 H447 H 0.51932 0.12431 0.81844
 H448 H 0.54428 0.08756 0.78703
 H449 H 0.58119 0.15710 0.73336
 H450 H 0.55615 0.19360 0.76484
 H451 H 0.56384 0.16576 0.85127
 H452 H 0.59374 0.19538 0.88453
 H453 H 0.52302 0.24387 0.81532
 H454 H 0.44763 0.22434 0.80493
 H455 H 0.42380 0.25772 0.84065
 H456 H 0.47854 0.22298 0.91164
 H457 H 0.50147 0.18873 0.87610
 H458 H 0.48752 0.18159 0.75450
 H459 H 0.45642 0.14865 0.72479
 H460 H 0.42078 0.11260 0.80659
 H461 H 0.45146 0.14570 0.83574
 H462 H 0.55354 0.27422 0.84844
 C463 C 0.48578 0.80974 0.18416
 C464 C 0.51582 0.81036 0.18251
 C465 C 0.53289 0.83136 0.20101
 C466 C 0.53315 0.79079 0.16211
 C467 C 0.46795 0.78835 0.16693
 C468 C 0.46907 0.83147 0.20250
 C469 C 0.55094 0.85208 0.18705
 C470 C 0.56640 0.87255 0.20416
 C471 C 0.56420 0.87266 0.23555
 C472 C 0.54674 0.85120 0.24956
 C473 C 0.53120 0.83078 0.23238
 C474 C 0.52625 0.78835 0.13148
 C475 C 0.54290 0.76996 0.11275
 C476 C 0.56720 0.75410 0.12415
 C477 C 0.57466 0.75737 0.15448
 C478 C 0.55774 0.77536 0.17329
 C479 C 0.47333 0.75800 0.16893
 C480 C 0.45727 0.73840 0.15122
 C481 C 0.43519 0.74871 0.13170
 C482 C 0.42953 0.77912 0.13021
 C483 C 0.44562 0.79865 0.14781
 C484 C 0.45215 0.82198 0.22686
 C485 C 0.43615 0.84223 0.24409
 C486 C 0.43611 0.87221 0.23675
 C487 C 0.45312 0.88170 0.21228
 C488 C 0.46949 0.86148 0.19535
 H489 H 0.55266 0.85268 0.16286
 H490 H 0.57994 0.88855 0.19278
 H491 H 0.54523 0.84973 0.27366
 H492 H 0.51787 0.81447 0.24354
 H493 H 0.50813 0.80087 0.12199
 H494 H 0.53716 0.76878 0.08923
 H495 H 0.56380 0.77716 0.19670
 H496 H 0.49024 0.74958 0.18384
 H497 H 0.46217 0.71513 0.15268
 H498 H 0.41342 0.78813 0.11481
 H499 H 0.44125 0.82199 0.14582
 H500 H 0.45157 0.79890 0.23267
 H501 H 0.42339 0.83441 0.26292
 H502 H 0.45412 0.90473 0.20645
 H503 H 0.48237 0.86917 0.17654
 H504 H 0.59349 0.74572 0.16372
 C505 C 0.80992 0.51680 0.80113
 C506 C 0.81255 0.48742 0.80668
 C507 C 0.79609 0.47312 0.83140
 C508 C 0.83279 0.46837 0.78879
 C509 C 0.82924 0.53126 0.77896
 C510 C 0.78998 0.53631 0.81887
 C511 C 0.79768 0.48387 0.86089
 C512 C 0.78005 0.47186 0.88333
 C513 C 0.76144 0.44816 0.87700
 C514 C 0.76078 0.43662 0.84775
 C515 C 0.77800 0.44900 0.82518
 C516 C 0.85479 0.45189 0.80331
 C517 C 0.87468 0.43478 0.78678
 C518 C 0.87307 0.43377 0.75535
 C519 C 0.85032 0.44956 0.74086
 C520 C 0.83039 0.46664 0.75746
 C521 C 0.81719 0.54340 0.75277
 C522 C 0.83549 0.55684 0.73172
 C523 C 0.86589 0.55911 0.73708
 C524 C 0.87789 0.54688 0.76337
 C525 C 0.85969 0.53299 0.78409
 C526 C 0.75993 0.52982 0.82260
 C527 C 0.74241 0.54657 0.84211
 C528 C 0.75456 0.57043 0.85788
 C529 C 0.78407 0.57794 0.85259
 C530 C 0.80162 0.56102 0.83341
 H531 H 0.81203 0.50204 0.86634
 H532 H 0.78099 0.48102 0.90572
 H533 H 0.74627 0.41867 0.84205
 H534 H 0.77655 0.44033 0.80262
 H535 H 0.85690 0.45270 0.82747
 H536 H 0.89168 0.42260 0.79859
 H537 H 0.81305 0.47853 0.74585
 H538 H 0.79370 0.54215 0.74853
 H539 H 0.82586 0.56600 0.71154
 H540 H 0.90136 0.54779 0.76775
 H541 H 0.86928 0.52369 0.80423
 H542 H 0.75025 0.51133 0.81099
 H543 H 0.71945 0.54080 0.84469
 H544 H 0.79387 0.59643 0.86410
 H545 H 0.82464 0.56665 0.83076
 H546 H 0.84753 0.44855 0.71683
 C547 C 0.18567 0.50570 0.18886
 C548 C 0.19037 0.47628 0.19190
 C549 C 0.21029 0.46031 0.17126
 C550 C 0.17320 0.45801 0.21321
 C551 C 0.16224 0.52141 0.20576
 C552 C 0.20276 0.52351 0.16717
 C553 C 0.20380 0.45923 0.14057
 C554 C 0.22126 0.44242 0.12135
 C555 C 0.24543 0.42633 0.13258
 C556 C 0.25245 0.42818 0.16313
 C557 C 0.23471 0.44476 0.18247
 C558 C 0.15823 0.43320 0.20253
 C559 C 0.13998 0.41714 0.22145
 C560 C 0.13605 0.42566 0.25138
 C561 C 0.15215 0.44965 0.26256
 C562 C 0.17075 0.46555 0.24365
 C563 C 0.16938 0.54660 0.22229
 C564 C 0.14765 0.56158 0.23842
 C565 C 0.11836 0.55161 0.23818
 C566 C 0.11121 0.52653 0.22151
 C567 C 0.13285 0.51186 0.20494
 C568 C 0.23365 0.52481 0.16859
 C569 C 0.24934 0.54192 0.14812
 C570 C 0.23431 0.55798 0.12574
 C571 C 0.20337 0.55677 0.12474
 C572 C 0.18777 0.53981 0.14525
 H573 H 0.18486 0.47095 0.13166
 H574 H 0.21579 0.44194 0.09773
 H575 H 0.27111 0.41610 0.17214
 H576 H 0.23986 0.44534 0.20616
 H577 H 0.15989 0.42679 0.17921
 H578 H 0.12812 0.39854 0.21240
 H579 H 0.18273 0.48411 0.25258
 H580 H 0.19189 0.55438 0.22304
 H581 H 0.15392 0.58052 0.25160
 H582 H 0.08876 0.51852 0.22102
 H583 H 0.12674 0.49293 0.19166
 H584 H 0.24557 0.51280 0.18575
 H585 H 0.27305 0.54270 0.15037
 H586 H 0.19114 0.56901 0.10797
 H587 H 0.16392 0.53920 0.14387
 H588 H 0.15053 0.45615 0.28582
 C589 C 0.82004 0.48244 0.18244
 C590 C 0.82349 0.51198 0.17916
 C591 C 0.80387 0.52925 0.15901
 C592 C 0.84716 0.52833 0.19511
 C593 C 0.83754 0.46508 0.20438
 C594 C 0.80026 0.46556 0.16243
 C595 C 0.81611 0.54700 0.13668
 C596 C 0.79792 0.56357 0.11779
 C597 C 0.76703 0.56304 0.12123
 C598 C 0.75487 0.54511 0.14353
 C599 C 0.77310 0.52856 0.16241
 C600 C 0.87659 0.51842 0.19450
 C601 C 0.89831 0.53306 0.21084
 C602 C 0.89133 0.55856 0.22705
 C603 C 0.86215 0.56925 0.22666
 C604 C 0.84028 0.55422 0.21084
 C605 C 0.83825 0.47273 0.23486
 C606 C 0.85622 0.45707 0.25483
 C607 C 0.87338 0.43321 0.24480
 C608 C 0.87229 0.42543 0.21427
 C609 C 0.85437 0.44105 0.19440
 C610 C 0.77616 0.45040 0.17433
 C611 C 0.75842 0.43317 0.15573
 C612 C 0.76517 0.43005 0.12522
 C613 C 0.78925 0.44544 0.11330
 C614 C 0.80656 0.46318 0.13177
 H615 H 0.83980 0.54770 0.13362
 H616 H 0.80817 0.57627 0.10026
 H617 H 0.73119 0.54416 0.14655
 H618 H 0.76323 0.51534 0.17982
 H619 H 0.88269 0.49909 0.18173
 H620 H 0.92066 0.52448 0.21077
 H621 H 0.81780 0.56242 0.21144
 H622 H 0.82523 0.49107 0.24306
 H623 H 0.85680 0.46365 0.27815
 H624 H 0.88592 0.40794 0.20532
 H625 H 0.85438 0.43495 0.17093
 H626 H 0.77112 0.45194 0.19799
 H627 H 0.73985 0.42167 0.16530
 H628 H 0.79456 0.44389 0.08971
 H629 H 0.82523 0.47461 0.12231
 H630 H 0.85600 0.58859 0.23939
 C631 C 0.17998 0.48211 0.81368
 C632 C 0.18015 0.51192 0.81335
 C633 C 0.19818 0.52911 0.83469
 C634 C 0.16059 0.52909 0.79328
 C635 C 0.15967 0.46495 0.79450
 C636 C 0.19878 0.46514 0.83468
 C637 C 0.18400 0.54796 0.85499
 C638 C 0.20034 0.56474 0.87510
 C639 C 0.23138 0.56337 0.87499
 C640 C 0.24554 0.54411 0.85493
 C641 C 0.22909 0.52723 0.83478
 C642 C 0.13012 0.53061 0.79850
 C643 C 0.11222 0.54890 0.78095
 C644 C 0.12457 0.56576 0.75778
 C645 C 0.15491 0.56339 0.75203
 C646 C 0.17286 0.54555 0.76995
 C647 C 0.16065 0.46693 0.76315
 C648 C 0.14105 0.45071 0.74552
 C649 C 0.12006 0.43227 0.75905
 C650 C 0.11968 0.43001 0.79041
 C651 C 0.13927 0.44614 0.80793
 C652 C 0.22267 0.44874 0.82362
 C653 C 0.24011 0.43197 0.84306
 C654 C 0.23338 0.43064 0.87370
 C655 C 0.20949 0.44728 0.88479
 C656 C 0.19238 0.46450 0.86540
 H657 H 0.16014 0.54941 0.85550
 H658 H 0.18848 0.57831 0.89099
 H659 H 0.26938 0.54242 0.85460
 H660 H 0.24042 0.51292 0.81912
 H661 H 0.12038 0.51810 0.81653
 H662 H 0.08877 0.54977 0.78543
 H663 H 0.19638 0.54464 0.76576
 H664 H 0.17672 0.48086 0.75236
 H665 H 0.14285 0.45242 0.72145
 H666 H 0.10399 0.41584 0.80146
 H667 H 0.13824 0.44421 0.83209
 H668 H 0.22782 0.44904 0.79993
 H669 H 0.25852 0.41950 0.83407
 H670 H 0.20420 0.44721 0.90843
 H671 H 0.17396 0.47707 0.87422
 H672 H 0.16484 0.57600 0.73417
 C673 C 0.29535 0.37715 0.06222
 C674 C 0.26723 0.37264 0.07004
 C675 C 0.25076 0.39173 0.09079
 C676 C 0.26328 0.40736 0.11277
 H677 H 0.25463 0.35573 0.05884
 H678 H 0.22699 0.39190 0.08836
 H679 H 0.30760 0.39531 0.07161
 H680 H 0.28661 0.40495 0.11750
 C681 C 0.70989 0.61332 0.05608
 C682 C 0.73616 0.62193 0.06672
 C683 C 0.75518 0.60455 0.08713
 C684 C 0.74689 0.58009 0.10150
 H685 H 0.74523 0.64260 0.05920
 H686 H 0.77706 0.61319 0.09073
 H687 H 0.70053 0.59251 0.06253
 H688 H 0.72437 0.57260 0.09987
 C689 C 0.71662 0.36879 0.93419
 C690 C 0.71655 0.39729 0.92728
 C691 C 0.73542 0.40821 0.90299
 C692 C 0.74223 0.43663 0.90092
 H693 H 0.70325 0.41268 0.94010
 H694 H 0.74472 0.39255 0.88725
 H695 H 0.73132 0.35389 0.92238
 H696 H 0.73465 0.45172 0.91813
 C697 C 0.28205 0.61818 0.94171
 C698 C 0.25574 0.62481 0.92962
 C699 C 0.23973 0.60667 0.90753
 C700 C 0.24936 0.58107 0.89603
 H701 H 0.24449 0.64473 0.93663
 H702 H 0.21860 0.61545 0.90053
 H703 H 0.29403 0.59862 0.93516
 H704 H 0.27115 0.57286 0.90137
 C705 C 0.06336 0.29612 0.38735
 C706 C 0.07491 0.30321 0.41402
 C707 C 0.09823 0.28579 0.42922
 C708 C 0.10508 0.25787 0.42208
 H709 H 0.06750 0.32305 0.42522
 H710 H 0.10896 0.29636 0.44794
 H711 H 0.07115 0.27706 0.37521
 H712 H 0.09250 0.24661 0.40505
 C713 C 0.06247 0.70955 0.61468
 C714 C 0.07533 0.73415 0.62474
 C715 C 0.09618 0.75257 0.60770
 C716 C 0.10599 0.74696 0.57989
 H717 H 0.06979 0.74220 0.64689
 H718 H 0.10370 0.77199 0.61931
 H719 H 0.06744 0.70082 0.59274
 H720 H 0.10011 0.72676 0.56871
 C721 C 0.94169 0.71344 0.37291
 C722 C 0.92592 0.69975 0.39394
 C723 C 0.90323 0.71530 0.41162
 C724 C 0.90625 0.74346 0.41975
 H725 H 0.92856 0.67633 0.39737
 H726 H 0.88439 0.70281 0.41905
 H727 H 0.93741 0.73637 0.36795
 H728 H 0.92671 0.75468 0.41494
 C729 C 0.93897 0.29009 0.61197
 C730 C 0.92721 0.26492 0.62179
 C731 C 0.90642 0.24635 0.60470
 C732 C 0.89455 0.25330 0.57802
 H733 H 0.93368 0.25659 0.64357
 H734 H 0.90053 0.22593 0.61539
 H735 H 0.93327 0.29893 0.59027
 H736 H 0.89875 0.27448 0.56809
 C737 C 0.38364 0.06412 0.29246
 C738 C 0.41004 0.07447 0.30078
 C739 C 0.42657 0.09695 0.28379
 C740 C 0.42175 0.10297 0.25471
 H741 H 0.42014 0.06650 0.32126
 H742 H 0.44445 0.10740 0.29564
 H743 H 0.37262 0.07262 0.27277
 H744 H 0.40543 0.09052 0.24251
 C745 C 0.62573 0.06135 0.70894
 C746 C 0.60480 0.07731 0.69526
 C747 C 0.58776 0.10003 0.71136
 C748 C 0.58003 0.09679 0.74013
 H749 H 0.60075 0.07456 0.67151
 H750 H 0.58031 0.11897 0.69876
 H751 H 0.63121 0.06570 0.73216
 H752 H 0.58488 0.07625 0.75142
 C753 C 0.37692 0.93923 0.71294
 C754 C 0.40396 0.92869 0.70693
 C755 C 0.41984 0.90684 0.72559
 C756 C 0.41232 0.89980 0.75378
 H757 H 0.41544 0.93634 0.68718
 H758 H 0.43971 0.89777 0.71583
 H759 H 0.36461 0.93142 0.73200
 H760 H 0.39378 0.91071 0.76429
 C761 C 0.61835 0.93555 0.28955
 C762 C 0.59203 0.92513 0.29790
 C763 C 0.57558 0.90237 0.28117
 C764 C 0.58106 0.89501 0.25255
 H765 H 0.58203 0.93308 0.31841
 H766 H 0.55732 0.89257 0.29293
 H767 H 0.62932 0.92721 0.26979
 H768 H 0.59775 0.90670 0.24018
 C769 C 0.36537 0.28751 0.92944
 C770 C 0.39420 0.28827 0.92364
 C771 C 0.40712 0.26941 0.90037
 C772 C 0.43586 0.26290 0.90079
 H773 H 0.40867 0.30176 0.93720
 H774 H 0.39276 0.25957 0.88377
 H775 H 0.35126 0.27263 0.91709
 H776 H 0.44950 0.27097 0.91896
 C777 C 0.62347 0.70547 0.93483
 C778 C 0.59627 0.69865 0.92536
 C779 C 0.57855 0.71702 0.90465
 C780 C 0.58406 0.74546 0.89927
 H781 H 0.58611 0.67859 0.93313
 H782 H 0.55913 0.70680 0.89537
 H783 H 0.63457 0.72476 0.92660
 H784 H 0.60223 0.75600 0.91061
 C785 C 0.35381 0.71797 0.06596
 C786 C 0.37998 0.71209 0.07850
 C787 C 0.39329 0.73283 0.09983
 C788 C 0.41976 0.72749 0.11205
 H789 H 0.39204 0.69233 0.07238
 H790 H 0.38128 0.75277 0.10520
 H791 H 0.34189 0.73776 0.07227
 H792 H 0.43064 0.70668 0.10749
 C793 C 0.62150 0.29889 0.06299
 C794 C 0.63077 0.27462 0.07730
 C795 C 0.61325 0.25727 0.09881
 C796 C 0.58573 0.26367 0.10793
 H797 H 0.65247 0.26580 0.07227
 H798 H 0.62410 0.23769 0.10717
 H799 H 0.60006 0.30840 0.06751
 H800 H 0.57524 0.28406 0.10137
 C801 C 0.30153 0.06595 0.61964
 C802 C 0.27774 0.08024 0.63022
 C803 C 0.25997 0.10199 0.61340
 C804 C 0.26691 0.11299 0.58646
 H805 H 0.26952 0.07481 0.65229
 H806 H 0.23984 0.10905 0.62431
 H807 H 0.31026 0.07065 0.59767
 H808 H 0.28797 0.10791 0.57633
 C809 C 0.70396 0.05569 0.37848
 C810 C 0.72975 0.06663 0.36895
 C811 C 0.74873 0.08666 0.38647
 C812 C 0.74040 0.10108 0.41136
 H813 H 0.73868 0.05951 0.34761
 H814 H 0.77066 0.08988 0.37761
 H815 H 0.69514 0.06204 0.40004
 H816 H 0.71781 0.10000 0.41896
 C817 C 0.71333 0.93116 0.63454
 C818 C 0.71447 0.92698 0.60500
 C819 C 0.73295 0.90349 0.59237
 C820 C 0.74063 0.90384 0.56353
 H821 H 0.70275 0.94173 0.59000
 H822 H 0.74159 0.88665 0.60717
 H823 H 0.72630 0.91726 0.64931
 H824 H 0.73368 0.92207 0.54952
 C825 C 0.29902 0.93817 0.37658
 C826 C 0.30612 0.92867 0.40412
 C827 C 0.28832 0.90744 0.42139
 C828 C 0.25949 0.90287 0.41641
 H829 H 0.32604 0.93659 0.41476
 H830 H 0.29927 0.89703 0.44013
 H831 H 0.27993 0.92956 0.36505
 H832 H 0.24833 0.91543 0.39918
 C833 C 0.05866 0.37634 0.70460
 C834 C 0.06931 0.40244 0.69600
 C835 C 0.09156 0.41946 0.71291
 C836 C 0.09861 0.41451 0.74170
 H837 H 0.06180 0.41196 0.67508
 H838 H 0.10115 0.43777 0.70113
 H839 H 0.06652 0.36579 0.72479
 H840 H 0.08722 0.39759 0.75397
 C841 C 0.06677 0.63809 0.27788
 C842 C 0.07114 0.60907 0.27815
 C843 C 0.09450 0.59541 0.26007
 C844 C 0.09514 0.56637 0.25586
 H845 H 0.05705 0.59512 0.29154
 H846 H 0.11091 0.60927 0.24968
 H847 H 0.08003 0.65188 0.26349
 H848 H 0.07740 0.55305 0.26463
 C849 C 0.93910 0.38639 0.30435
 C850 C 0.92459 0.37473 0.28101
 C851 C 0.90287 0.39033 0.26197
 C852 C 0.89332 0.41799 0.26623
 H853 H 0.92948 0.35232 0.27440
 H854 H 0.89460 0.37779 0.24320
 H855 H 0.93477 0.40862 0.31171
 H856 H 0.89988 0.43009 0.28595
 C857 C 0.94260 0.62914 0.71168
 C858 C 0.92568 0.60704 0.70237
 C859 C 0.90660 0.59187 0.72394
 C860 C 0.88479 0.57426 0.71512
 H861 H 0.92606 0.60006 0.67915
 H862 H 0.91015 0.59569 0.74765
 H863 H 0.94103 0.63652 0.73474
 H864 H 0.87971 0.57217 0.69148
 C865 C 0.70847 0.61831 0.93285
 C866 C 0.69883 0.59354 0.91974
 C867 C 0.71497 0.57718 0.89598
 C868 C 0.73747 0.58804 0.87996
 H869 H 0.67847 0.58372 0.92737
 H870 H 0.70778 0.55491 0.89203
 H871 H 0.72921 0.62780 0.92611
 H872 H 0.74494 0.61019 0.88395
 C873 C 0.28671 0.38187 0.94238
 C874 C 0.25818 0.37730 0.93585
 C875 C 0.24052 0.39718 0.91668
 C876 C 0.25182 0.41205 0.89353
 H877 H 0.24648 0.35937 0.94634
 H878 H 0.21697 0.39785 0.92066
 H879 H 0.29763 0.40110 0.93355
 H880 H 0.27476 0.40886 0.88752
 C881 C 0.28105 0.62037 0.06469
 C882 C 0.29322 0.59578 0.07606
 C883 C 0.27871 0.57697 0.09867
 C884 C 0.24946 0.57688 0.10351
 H885 H 0.31521 0.58916 0.06920
 H886 H 0.29296 0.56176 0.11043
 H887 H 0.25969 0.62783 0.07246
 H888 H 0.23536 0.59062 0.08980
 C889 C 0.71309 0.38193 0.05604
 C890 C 0.74028 0.37456 0.06543
 C891 C 0.75819 0.39390 0.08470
 C892 C 0.74664 0.41104 0.10617
 H893 H 0.75097 0.35493 0.05686
 H894 H 0.78191 0.39272 0.08197
 H895 H 0.70356 0.40276 0.06296
 H896 H 0.72330 0.40984 0.11118
 C897 C 0.94172 0.71450 0.62136
 C898 C 0.92891 0.70576 0.59566
 C899 C 0.90649 0.72262 0.57852
 C900 C 0.89722 0.74997 0.58504
 H901 H 0.93509 0.68476 0.58599
 H902 H 0.89830 0.71179 0.55864
 H903 H 0.93566 0.73521 0.63157
 H904 H 0.90660 0.76159 0.60385
 C905 C 0.94190 0.30340 0.39516
 C906 C 0.93251 0.27611 0.38972
 C907 C 0.90971 0.26273 0.40863
 C908 C 0.90708 0.23358 0.41040
 H909 H 0.94210 0.26317 0.37173
 H910 H 0.89548 0.27687 0.42190
 H911 H 0.93321 0.31520 0.41439
 H912 H 0.92294 0.21957 0.39902
 C913 C 0.05999 0.28973 0.61797
 C914 C 0.07457 0.29976 0.59395
 C915 C 0.09845 0.28288 0.57912
 C916 C 0.09816 0.25353 0.57645
 H917 H 0.07032 0.32178 0.58575
 H918 H 0.11572 0.29532 0.56838
 H919 H 0.06604 0.26856 0.62729
 H920 H 0.07920 0.24144 0.58436
 C921 C 0.06193 0.70630 0.38096
 C922 C 0.07107 0.73419 0.38017
 C923 C 0.09312 0.74500 0.40169
 C924 C 0.09490 0.77361 0.40809
 H925 H 0.06173 0.74951 0.36410
 H926 H 0.10751 0.72937 0.41289
 H927 H 0.07024 0.69190 0.39842
 H928 H 0.07883 0.78872 0.39861
 C929 C 0.61138 0.94089 0.70261
 C930 C 0.60847 0.93615 0.73196
 C931 C 0.58774 0.91409 0.74325
 C932 C 0.57954 0.91403 0.77198
 H933 H 0.62140 0.94873 0.74784
 H934 H 0.57900 0.89788 0.72787
 H935 H 0.59727 0.92943 0.68689
 H936 H 0.58675 0.93163 0.78661
 C937 C 0.39075 0.94279 0.29070
 C938 C 0.38669 0.93731 0.26146
 C939 C 0.40547 0.91699 0.24380
 C940 C 0.41861 0.89303 0.25528
 H941 H 0.37001 0.94953 0.24923
 H942 H 0.40667 0.92104 0.21994
 H943 H 0.40882 0.93238 0.30262
 H944 H 0.41482 0.88729 0.27850
 C945 C 0.61413 0.05666 0.29066
 C946 C 0.61840 0.06197 0.26146
 C947 C 0.59960 0.08202 0.24363
 C948 C 0.58608 0.10582 0.25500
 H949 H 0.63503 0.04957 0.24936
 H950 H 0.59839 0.07774 0.21979
 H951 H 0.59606 0.06720 0.30243
 H952 H 0.58983 0.11189 0.27816
 C953 C 0.38646 0.06008 0.71051
 C954 C 0.37670 0.07292 0.73571
 C955 C 0.39400 0.09387 0.75395
 C956 C 0.41808 0.10802 0.74423
 H957 H 0.35523 0.06706 0.74439
 H958 H 0.38550 0.09825 0.77612
 H959 H 0.40820 0.06477 0.70191
 H960 H 0.42501 0.10547 0.72121
 C961 C 0.62226 0.70493 0.05679
 C962 C 0.59335 0.70102 0.06164
 C963 C 0.57521 0.72028 0.08118
 C964 C 0.58589 0.73506 0.10481
 H965 H 0.58171 0.68440 0.04898
 H966 H 0.55178 0.72101 0.07651
 H967 H 0.63367 0.72291 0.06753
 H968 H 0.60873 0.73198 0.11131
 C969 C 0.37762 0.28258 0.05196
 C970 C 0.40671 0.28616 0.05591
 C971 C 0.42507 0.26728 0.07548
 C972 C 0.41486 0.25418 0.10023
 H973 H 0.41818 0.30267 0.04302
 H974 H 0.44835 0.26602 0.07027
 H975 H 0.36629 0.26473 0.06296
 H976 H 0.39225 0.25803 0.10710
 C977 C 0.62365 0.29133 0.93874
 C978 C 0.63327 0.26569 0.92744
 C979 C 0.61712 0.24767 0.90524
 C980 C 0.59313 0.25659 0.88993
 H981 H 0.65396 0.25657 0.93544
 H982 H 0.62636 0.22610 0.90126
 H983 H 0.60292 0.30085 0.93159
 H984 H 0.58523 0.27892 0.89236
 C985 C 0.35348 0.71799 0.94184
 C986 C 0.38254 0.71894 0.93710
 C987 C 0.39497 0.73890 0.91455
 C988 C 0.42352 0.74598 0.91517
 H989 H 0.39736 0.70570 0.95067
 H990 H 0.38038 0.74878 0.89809
 H991 H 0.33892 0.73245 0.92932
 H992 H 0.43732 0.73763 0.93316
 C993 C 0.70541 0.93563 0.37753
 C994 C 0.73001 0.92331 0.36632
 C995 C 0.74879 0.90156 0.38216
 C996 C 0.74124 0.88748 0.40742
 H997 H 0.73785 0.93029 0.34457
 H998 H 0.76978 0.89692 0.37169
 H999 H 0.69728 0.92957 0.39940
 H1000 H 0.71936 0.89044 0.41658
 C1001 C 0.29377 0.94548 0.61782
 C1002 C 0.26463 0.94224 0.62142
 C1003 C 0.24637 0.92343 0.60189
 C1004 C 0.25643 0.89890 0.58862
 H1005 H 0.25311 0.95554 0.63785
 H1006 H 0.22331 0.92943 0.59976
 H1007 H 0.30510 0.93402 0.59990
 H1008 H 0.27861 0.89118 0.59331
 C1009 C 0.29368 0.05822 0.37974
 C1010 C 0.29773 0.06361 0.40900
 C1011 C 0.27827 0.08307 0.42691
 C1012 C 0.26409 0.10654 0.41562
 H1013 H 0.31478 0.05175 0.42107
 H1014 H 0.27714 0.07868 0.45071
 H1015 H 0.27526 0.06820 0.36799
 H1016 H 0.26770 0.11268 0.39249
 C1017 C 0.72649 0.05113 0.63494
 C1018 C 0.71980 0.06847 0.61173
 C1019 C 0.74233 0.08652 0.59702
 C1020 C 0.73447 0.10793 0.57809
 H1021 H 0.69740 0.06921 0.60317
 H1022 H 0.76544 0.08225 0.60167
 H1023 H 0.74856 0.05133 0.64431
 H1024 H 0.71130 0.11334 0.57526
 C1025 C 0.94473 0.64211 0.27092
 C1026 C 0.93861 0.61343 0.27047
 C1027 C 0.91583 0.60132 0.25052
 C1028 C 0.91442 0.57238 0.24564
 H1029 H 0.95074 0.59850 0.28494
 H1030 H 0.90035 0.61613 0.23967
 H1031 H 0.93366 0.65687 0.25546
 H1032 H 0.93136 0.55818 0.25505
 C1033 C 0.93590 0.37654 0.70261
 C1034 C 0.92470 0.40237 0.69343
 C1035 C 0.90178 0.41941 0.70978
 C1036 C 0.89509 0.41559 0.73885
 H1037 H 0.93213 0.41154 0.67239
 H1038 H 0.89137 0.43701 0.69732
 H1039 H 0.92800 0.36639 0.72293
 H1040 H 0.90735 0.39963 0.75187
 C1041 C 0.06041 0.61898 0.70367
 C1042 C 0.06566 0.62216 0.73304
 C1043 C 0.08389 0.60142 0.75068
 C1044 C 0.10635 0.58577 0.73921
 H1045 H 0.05425 0.63927 0.74541
 H1046 H 0.07939 0.60029 0.77447
 H1047 H 0.06972 0.60051 0.69156
 H1048 H 0.11295 0.58915 0.71617
 C1049 C 0.06245 0.38166 0.30014
 C1050 C 0.07678 0.40553 0.30996
 C1051 C 0.09976 0.42104 0.29271
 C1052 C 0.11487 0.40902 0.26990
 H1053 H 0.07066 0.41519 0.33127
 H1054 H 0.10402 0.44348 0.29933
 H1055 H 0.06728 0.37230 0.27841
 H1056 H 0.11063 0.38660 0.26323
   
