data_POSCAR
  _audit_creation_date              2014-09-24
  _audit_creation_method            'ToBaCCo'
  _symmetry_space_group_name_H-M    'P1'
  _symmetry_Int_Tables_number       1
  _symmetry_cell_setting            triclinic
  loop_
  _symmetry_equiv_pos_as_xyz
 x,y,z
_cell_length_a 29.4499
_cell_length_b 29.4500
_cell_length_c 29.4500
_cell_angle_alpha 88.154400
_cell_angle_beta 88.154800
_cell_angle_gamma 88.154500
loop_
  _atom_site_label
  _atom_site_type_symbol
  _atom_site_fract_x
  _atom_site_fract_y
  _atom_site_fract_z
Si1 Si 0.76123 0.61258 0.99946
 Si2 Si 0.74954 0.37380 0.50865
 Si3 Si 0.24953 -0.12619 0.00866
 Si4 Si 0.26124 0.11258 0.49946
 Si5 Si 0.11258 0.49947 0.26124
 Si6 Si -0.12621 0.00866 0.24953
 Si7 Si 0.37380 0.50865 0.74955
 Si8 Si 0.61258 0.99946 0.76123
 Si9 Si 0.00865 0.24955 -0.12620
 Si10 Si 0.49946 0.26122 0.11257
 Si11 Si 0.99947 0.76125 0.61258
 Si12 Si 0.50866 0.74952 0.37380
 C13 C 0.45225 -0.04462 0.29295
 H14 H 0.45511 -0.01208 0.30847
 C15 C 0.47366 -0.08346 0.31215
 H16 H 0.49345 -0.08071 0.34226
 C17 C 0.41984 -0.08896 0.23727
 H18 H 0.39739 -0.09156 0.20929
 C19 C 0.44068 -0.12846 0.25530
 H20 H 0.43454 -0.16095 0.24075
 N21 N 0.42522 -0.04816 0.25668
 C22 C 0.39057 0.08485 0.19499
 H23 H 0.35450 0.07932 0.19366
 C24 C 0.40801 0.12541 0.17772
 H25 H 0.38545 0.15097 0.16250
 C26 C 0.46383 0.05830 0.21698
 H27 H 0.48517 0.03205 0.23262
 C28 C 0.48283 0.09872 0.19990
 H29 H 0.51900 0.10350 0.20196
 Zn30 Zn 0.38678 0.00195 0.23911
 N31 N 0.41830 0.05251 0.21457
 C32 C 0.35929 0.06386 0.30555
 N33 N 0.35348 0.02078 0.29182
 C34 C 0.32839 -0.00909 0.31756
 C35 C 0.30794 0.00426 0.35889
 C36 C 0.33951 0.07847 0.34624
 C37 C 0.37111 -0.02193 0.15186
 C38 C 0.34830 -0.03808 0.11533
 C39 C 0.27989 -0.04125 0.16284
 C40 C 0.30408 -0.02468 0.19870
 N41 N 0.34912 -0.01636 0.19272
 H42 H 0.38040 0.08684 0.28579
 H43 H 0.32522 -0.04350 0.30655
 H44 H 0.28841 -0.01967 0.37953
 H45 H 0.34485 0.11273 0.35689
 H46 H 0.40690 -0.01494 0.14814
 H47 H 0.36658 -0.04374 0.08339
 H48 H 0.24447 -0.04941 0.16803
 H49 H 0.28725 -0.01968 0.23138
 C50 C 0.45441 0.13265 0.18045
 C51 C 0.46700 -0.12590 0.29367
 C52 C 0.30251 -0.04844 0.12098
 C53 C 0.31394 0.04845 0.37334
 C54 C 0.06398 1.04208 0.80517
 H55 H 0.05786 1.00950 0.82188
 C56 C 0.04419 1.08181 0.82301
 H57 H 0.02240 1.07977 0.85330
 C58 C 0.10231 1.08521 0.74726
 H59 H 0.12629 1.08683 0.71881
 C60 C 0.08324 1.12560 0.76392
 H61 H 0.09216 1.15783 0.74782
 N62 N 0.09294 1.04453 0.76829
 C63 C 0.11772 0.90928 0.71428
 H64 H 0.15440 0.91001 0.71492
 C65 C 0.09715 0.87271 0.69558
 H66 H 0.11802 0.84520 0.68169
 C67 C 0.04594 0.94524 0.73020
 H68 H 0.02642 0.97404 0.74308
 C69 C 0.02382 0.90909 0.71141
 H70 H -0.01289 0.90998 0.70979
 Zn71 Zn 0.12756 0.99208 0.75095
 N72 N 0.09216 0.94454 0.73112
 C73 C 0.15102 0.92904 0.82021
 N74 N 0.16066 0.97082 0.80198
 C75 C 0.18992 0.99819 0.82222
 C76 C 0.21103 0.98347 0.86232
 C77 C 0.17130 0.91312 0.85989
 C78 C 0.14167 1.01577 0.66163
 C79 C 0.16394 1.02995 0.62161
 C80 C 0.23481 1.02634 0.66104
 C81 C 0.21107 1.01176 0.70060
 N82 N 0.16515 1.00781 0.70023
 H83 H 0.12650 0.90835 0.80491
 H84 H 0.19609 1.03175 0.80778
 H85 H 0.23392 1.00547 0.87861
 H86 H 0.16291 0.87998 0.87425
 H87 H 0.10521 1.01220 0.66239
 H88 H 0.14458 1.03763 0.59148
 H89 H 0.27108 1.03119 0.66166
 H90 H 0.22905 1.00478 0.73159
 C91 C 0.04988 0.87265 0.69378
 C92 C 0.05458 1.12400 0.80259
 C93 C 0.21074 1.03592 0.62140
 C94 C 0.20133 0.94054 0.88132
 C95 C 0.56399 0.54206 0.30517
 H96 H 0.55788 0.50947 0.32188
 C97 C 0.54420 0.58179 0.32301
 H98 H 0.52241 0.57974 0.35330
 C99 C 0.60230 0.58518 0.24725
 H100 H 0.62629 0.58680 0.21880
 C101 C 0.58324 0.62557 0.26391
 H102 H 0.59215 0.65780 0.24781
 N103 N 0.59294 0.54450 0.26828
 C104 C 0.61772 0.40925 0.21427
 H105 H 0.65440 0.40998 0.21491
 C106 C 0.59715 0.37268 0.19558
 H107 H 0.61802 0.34517 0.18168
 C108 C 0.54595 0.44521 0.23020
 H109 H 0.52643 0.47401 0.24308
 C110 C 0.52382 0.40906 0.21141
 H111 H 0.48712 0.40995 0.20980
 Zn112 Zn 0.62756 0.49205 0.25094
 N113 N 0.59216 0.44451 0.23111
 C114 C 0.65103 0.42902 0.32020
 N115 N 0.66067 0.47079 0.30197
 C116 C 0.68993 0.49817 0.32221
 C117 C 0.71103 0.48345 0.36231
 C118 C 0.67132 0.41309 0.35988
 C119 C 0.64167 0.51574 0.16162
 C120 C 0.66394 0.52993 0.12160
 C121 C 0.73481 0.52632 0.16103
 C122 C 0.71107 0.51174 0.20059
 N123 N 0.66515 0.50778 0.20022
 H124 H 0.62652 0.40831 0.30490
 H125 H 0.69609 0.53173 0.30777
 H126 H 0.73392 0.50545 0.37860
 H127 H 0.66293 0.37995 0.37424
 H128 H 0.60521 0.51217 0.16238
 H129 H 0.64457 0.53760 0.09147
 H130 H 0.77108 0.53118 0.16165
 H131 H 0.72905 0.50477 0.23158
 C132 C 0.54988 0.37262 0.19378
 C133 C 0.55459 0.62397 0.30259
 C134 C 0.71074 0.53590 0.12139
 C135 C 0.70134 0.44052 0.38131
 C136 C 0.95223 0.45541 0.79295
 H137 H 0.95509 0.48795 0.80848
 C138 C 0.97364 0.41657 0.81216
 H139 H 0.99342 0.41932 0.84228
 C140 C 0.91984 0.41107 0.73726
 H141 H 0.89741 0.40847 0.70927
 C142 C 0.94069 0.37157 0.75529
 H143 H 0.93455 0.33908 0.74074
 N144 N 0.92522 0.45187 0.75668
 C145 C 0.89056 0.58487 0.69498
 H146 H 0.85450 0.57935 0.69364
 C147 C 0.90801 0.62543 0.67771
 H148 H 0.88545 0.65099 0.66248
 C149 C 0.96382 0.55833 0.71699
 H150 H 0.98516 0.53209 0.73263
 C151 C 0.98282 0.59875 0.69992
 H152 H 1.01900 0.60353 0.70198
 Zn153 Zn 0.88677 0.50197 0.73910
 N154 N 0.91829 0.55254 0.71456
 C155 C 0.85926 0.56389 0.80554
 N156 N 0.85346 0.52081 0.79181
 C157 C 0.82839 0.49093 0.81755
 C158 C 0.80794 0.50427 0.85888
 C159 C 0.83948 0.57849 0.84622
 C160 C 0.87111 0.47810 0.65185
 C161 C 0.84830 0.46194 0.61532
 C162 C 0.77990 0.45876 0.66283
 C163 C 0.80408 0.47533 0.69868
 N164 N 0.84912 0.48366 0.69271
 H165 H 0.88037 0.58688 0.78577
 H166 H 0.82523 0.45651 0.80655
 H167 H 0.78842 0.48033 0.87953
 H168 H 0.84481 0.61275 0.85687
 H169 H 0.90690 0.48509 0.64813
 H170 H 0.86659 0.45628 0.58337
 H171 H 0.74447 0.45059 0.66802
 H172 H 0.78726 0.48033 0.73137
 C173 C 0.95441 0.63268 0.68045
 C174 C 0.96699 0.37413 0.79367
 C175 C 0.80252 0.45157 0.62097
 C176 C 0.81392 0.54846 0.87333
 C177 C 0.29295 0.45223 -0.04460
 H178 H 0.30848 0.45509 -0.01206
 C179 C 0.31216 0.47365 -0.08344
 H180 H 0.34227 0.49343 -0.08068
 C181 C 0.23726 0.41984 -0.08893
 H182 H 0.20928 0.39740 -0.09154
 C183 C 0.25529 0.44068 -0.12844
 H184 H 0.24074 0.43454 -0.16093
 N185 N 0.25668 0.42521 -0.04814
 C186 C 0.19498 0.39056 0.08487
 H187 H 0.19365 0.35450 0.07934
 C188 C 0.17771 0.40801 0.12543
 H189 H 0.16248 0.38545 0.15099
 C190 C 0.21699 0.46382 0.05832
 H191 H 0.23263 0.48516 0.03208
 C192 C 0.19991 0.48282 0.09874
 H193 H 0.20197 0.51900 0.10353
 Zn194 Zn 0.23910 0.38677 0.00197
 N195 N 0.21456 0.41829 0.05253
 C196 C 0.30554 0.35926 0.06388
 N197 N 0.29181 0.35346 0.02080
 C198 C 0.31755 0.32839 -0.00908
 C199 C 0.35888 0.30793 0.00427
 C200 C 0.34623 0.33948 0.07848
 C201 C 0.15185 0.37111 -0.02191
 C202 C 0.11532 0.34831 -0.03806
 C203 C 0.16283 0.27990 -0.04125
 C204 C 0.19868 0.30408 -0.02468
 N205 N 0.19271 0.34912 -0.01635
 H206 H 0.28578 0.38037 0.08687
 H207 H 0.30654 0.32522 -0.04349
 H208 H 0.37952 0.28841 -0.01967
 H209 H 0.35687 0.34481 0.11275
 H210 H 0.14813 0.40690 -0.01492
 H211 H 0.08337 0.36659 -0.04372
 H212 H 0.16801 0.24447 -0.04941
 H213 H 0.23137 0.28725 -0.01967
 C214 C 0.18045 0.45441 0.13267
 C215 C 0.29367 0.46699 -0.12588
 C216 C 0.12096 0.30252 -0.04843
 C217 C 0.37333 0.31391 0.04846
 C218 C 0.80518 0.06398 1.04206
 H219 H 0.82188 0.05786 1.00948
 C220 C 0.82302 0.04420 1.08180
 H221 H 0.85331 0.02240 1.07976
 C222 C 0.74726 0.10230 1.08519
 H223 H 0.71881 0.12628 1.08680
 C224 C 0.76392 0.08323 1.12557
 H225 H 0.74782 0.09215 1.15781
 N226 N 0.76829 0.09293 1.04451
 C227 C 0.71428 0.11772 0.90925
 H228 H 0.71492 0.15439 0.90999
 C229 C 0.69558 0.09714 0.87268
 H230 H 0.68169 0.11801 0.84517
 C231 C 0.73020 0.04594 0.94521
 H232 H 0.74308 0.02642 0.97402
 C233 C 0.71141 0.02382 0.90907
 H234 H 0.70980 -0.01289 0.90996
 Zn235 Zn 0.75095 0.12756 0.99205
 N236 N 0.73112 0.09215 0.94452
 C237 C 0.82021 0.15102 0.92902
 N238 N 0.80197 0.16066 0.97080
 C239 C 0.82222 0.18992 0.99817
 C240 C 0.86232 0.21103 0.98345
 C241 C 0.85989 0.17131 0.91310
 C242 C 0.66162 0.14166 1.01575
 C243 C 0.62160 0.16393 1.02993
 C244 C 0.66103 0.23480 1.02632
 C245 C 0.70059 0.21106 1.01174
 N246 N 0.70023 0.16514 1.00778
 H247 H 0.80491 0.12650 0.90832
 H248 H 0.80777 0.19608 1.03173
 H249 H 0.87860 0.23392 1.00545
 H250 H 0.87425 0.16292 0.87995
 H251 H 0.66238 0.10520 1.01218
 H252 H 0.59148 0.14456 1.03760
 H253 H 0.66165 0.27107 1.03117
 H254 H 0.73158 0.22905 1.00477
 C255 C 0.69379 0.04987 0.87262
 C256 C 0.80259 0.05458 1.12398
 C257 C 0.62139 0.21073 1.03590
 C258 C 0.88131 0.20133 0.94053
 C259 C 0.30517 0.56398 0.54208
 H260 H 0.32188 0.55786 0.50949
 C261 C 0.32301 0.54419 0.58181
 H262 H 0.35330 0.52239 0.57977
 C263 C 0.24726 0.60230 0.58521
 H264 H 0.21881 0.62629 0.58682
 C265 C 0.26392 0.58323 0.62559
 H266 H 0.24782 0.59215 0.65782
 N267 N 0.26829 0.59293 0.54452
 C268 C 0.21427 0.61772 0.40927
 H269 H 0.21492 0.65440 0.41000
 C270 C 0.19558 0.59715 0.37270
 H271 H 0.18169 0.61802 0.34519
 C272 C 0.23020 0.54594 0.44523
 H273 H 0.24308 0.52642 0.47404
 C274 C 0.21141 0.52382 0.40908
 H275 H 0.20979 0.48711 0.40998
 Zn276 Zn 0.25095 0.62756 0.49207
 N277 N 0.23111 0.59215 0.44453
 C278 C 0.32021 0.65101 0.42903
 N279 N 0.30198 0.66065 0.47081
 C280 C 0.32223 0.68992 0.49818
 C281 C 0.36233 0.71102 0.48346
 C282 C 0.35989 0.67130 0.41311
 C283 C 0.16163 0.64167 0.51577
 C284 C 0.12161 0.66395 0.52995
 C285 C 0.16105 0.73481 0.52634
 C286 C 0.20060 0.71107 0.51176
 N287 N 0.20023 0.66515 0.50780
 H288 H 0.30491 0.62650 0.40834
 H289 H 0.30778 0.69608 0.53174
 H290 H 0.37862 0.73391 0.50546
 H291 H 0.37425 0.66291 0.37996
 H292 H 0.16239 0.60521 0.51220
 H293 H 0.09148 0.64458 0.53762
 H294 H 0.16167 0.77108 0.53118
 H295 H 0.23160 0.72905 0.50478
 C296 C 0.19378 0.54988 0.37264
 C297 C 0.30259 0.55458 0.62399
 C298 C 0.12140 0.71074 0.53591
 C299 C 0.38132 0.70132 0.44053
 C300 C 0.79294 0.95224 0.45539
 H301 H 0.80847 0.95510 0.48793
 C302 C 0.81215 0.97365 0.41655
 H303 H 0.84226 0.99344 0.41931
 C304 C 0.73726 0.91983 0.41105
 H305 H 0.70928 0.89739 0.40845
 C306 C 0.75529 0.94068 0.37155
 H307 H 0.74075 0.93454 0.33906
 N308 N 0.75668 0.92521 0.45185
 C309 C 0.69498 0.89056 0.58485
 H310 H 0.69365 0.85450 0.57933
 C311 C 0.67771 0.90801 0.62541
 H312 H 0.66248 0.88544 0.65097
 C313 C 0.71698 0.96382 0.55831
 H314 H 0.73262 0.98516 0.53206
 C315 C 0.69990 0.98282 0.59873
 H316 H 0.70196 1.01899 0.60351
 Zn317 Zn 0.73910 0.88677 0.50195
 N318 N 0.71456 0.91829 0.55252
 C319 C 0.80554 0.85927 0.56387
 N320 N 0.79182 0.85347 0.52079
 C321 C 0.81756 0.82839 0.49091
 C322 C 0.85889 0.80794 0.50426
 C323 C 0.84623 0.83949 0.57847
 C324 C 0.65186 0.87110 0.47808
 C325 C 0.61533 0.84829 0.46192
 C326 C 0.66284 0.77989 0.45875
 C327 C 0.69869 0.80407 0.47531
 N328 N 0.69272 0.84912 0.48364
 H329 H 0.78578 0.88038 0.58685
 H330 H 0.80655 0.82522 0.45650
 H331 H 0.87953 0.78842 0.48033
 H332 H 0.85688 0.84483 0.61274
 H333 H 0.64813 0.90689 0.48507
 H334 H 0.58338 0.86657 0.45626
 H335 H 0.66803 0.74446 0.45058
 H336 H 0.73138 0.78725 0.48032
 C337 C 0.68045 0.95440 0.63266
 C338 C 0.79367 0.96699 0.37411
 C339 C 0.62098 0.80250 0.45156
 C340 C 0.87334 0.81393 0.54845
 C341 C -0.04460 0.29295 0.45224
 H342 H -0.01206 0.30847 0.45509
 C343 C -0.08344 0.31215 0.47365
 H344 H -0.08068 0.34227 0.49343
 C345 C -0.08894 0.23726 0.41984
 H346 H -0.09154 0.20928 0.39740
 C347 C -0.12844 0.25529 0.44069
 H348 H -0.16093 0.24075 0.43455
 N349 N -0.04814 0.25668 0.42522
 C350 C 0.08486 0.19498 0.39056
 H351 H 0.07933 0.19364 0.35450
 C352 C 0.12542 0.17771 0.40801
 H353 H 0.15098 0.16248 0.38544
 C354 C 0.05832 0.21699 0.46382
 H355 H 0.03208 0.23263 0.48515
 C356 C 0.09874 0.19991 0.48281
 H357 H 0.10353 0.20198 0.51899
 Zn358 Zn 0.00196 0.23910 0.38677
 N359 N 0.05253 0.21456 0.41829
 C360 C 0.06388 0.30554 0.35926
 N361 N 0.02080 0.29181 0.35346
 C362 C -0.00908 0.31756 0.32839
 C363 C 0.00426 0.35889 0.30794
 C364 C 0.07848 0.34623 0.33948
 C365 C -0.02191 0.15185 0.37111
 C366 C -0.03807 0.11532 0.34830
 C367 C -0.04125 0.16284 0.27990
 C368 C -0.02468 0.19869 0.30408
 N369 N -0.01635 0.19271 0.34912
 H370 H 0.08687 0.28577 0.38036
 H371 H -0.04350 0.30655 0.32523
 H372 H -0.01968 0.37953 0.28842
 H373 H 0.11275 0.35687 0.34481
 H374 H -0.01492 0.14813 0.40689
 H375 H -0.04373 0.08338 0.36658
 H376 H -0.04942 0.16802 0.24447
 H377 H -0.01968 0.23138 0.28725
 C378 C 0.13267 0.18045 0.45440
 C379 C -0.12588 0.29367 0.46700
 C380 C -0.04844 0.12097 0.30251
 C381 C 0.04846 0.37333 0.31392
 C382 C 1.04206 0.80518 0.06398
 H383 H 1.00948 0.82188 0.05787
 C384 C 1.08179 0.82302 0.04420
 H385 H 1.07975 0.85331 0.02240
 C386 C 1.08519 0.74726 0.10231
 H387 H 1.08681 0.71882 0.12629
 C388 C 1.12558 0.76392 0.08324
 H389 H 1.15781 0.74783 0.09215
 N390 N 1.04451 0.76829 0.09294
 C391 C 0.90926 0.71427 0.11772
 H392 H 0.90999 0.71491 0.15440
 C393 C 0.87269 0.69558 0.09715
 H394 H 0.84518 0.68169 0.11802
 C395 C 0.94522 0.73020 0.04594
 H396 H 0.97402 0.74308 0.02642
 C397 C 0.90907 0.71141 0.02382
 H398 H 0.90996 0.70980 -0.01289
 Zn399 Zn 0.99206 0.75095 0.12756
 N400 N 0.94452 0.73111 0.09216
 C401 C 0.92902 0.82021 0.15102
 N402 N 0.97080 0.80198 0.16066
 C403 C 0.99817 0.82222 0.18992
 C404 C 0.98345 0.86232 0.21103
 C405 C 0.91310 0.85989 0.17131
 C406 C 1.01576 0.66163 0.14167
 C407 C 1.02994 0.62161 0.16394
 C408 C 1.02633 0.66104 0.23481
 C409 C 1.01175 0.70060 0.21107
 N410 N 1.00779 0.70023 0.16515
 H411 H 0.90832 0.80490 0.12651
 H412 H 1.03173 0.80778 0.19609
 H413 H 1.00545 0.87861 0.23392
 H414 H 0.87995 0.87425 0.16292
 H415 H 1.01219 0.66239 0.10521
 H416 H 1.03761 0.59148 0.14458
 H417 H 1.03118 0.66166 0.27108
 H418 H 1.00477 0.73159 0.22905
 C419 C 0.87263 0.69379 0.04988
 C420 C 1.12398 0.80260 0.05458
 C421 C 1.03591 0.62140 0.21074
 C422 C 0.94052 0.88131 0.20133
 C423 C 0.54207 0.30518 0.56398
 H424 H 0.50949 0.32188 0.55786
 C425 C 0.58181 0.32302 0.54420
 H426 H 0.57976 0.35331 0.52240
 C427 C 0.58520 0.24726 0.60231
 H428 H 0.58682 0.21882 0.62629
 C429 C 0.62559 0.26393 0.58324
 H430 H 0.65782 0.24783 0.59216
 N431 N 0.54452 0.26829 0.59294
 C432 C 0.40927 0.21428 0.61772
 H433 H 0.41000 0.21492 0.65440
 C434 C 0.37270 0.19559 0.59715
 H435 H 0.34519 0.18169 0.61802
 C436 C 0.44523 0.23021 0.54594
 H437 H 0.47403 0.24308 0.52642
 C438 C 0.40908 0.21142 0.52382
 H439 H 0.40998 0.20980 0.48711
 Zn440 Zn 0.49207 0.25095 0.62756
 N441 N 0.44453 0.23112 0.59215
 C442 C 0.42903 0.32021 0.65102
 N443 N 0.47081 0.30198 0.66066
 C444 C 0.49818 0.32222 0.68993
 C445 C 0.48346 0.36232 0.71103
 C446 C 0.41311 0.35989 0.67131
 C447 C 0.51577 0.16163 0.64166
 C448 C 0.52995 0.12161 0.66393
 C449 C 0.52633 0.16104 0.73480
 C450 C 0.51175 0.20060 0.71107
 N451 N 0.50780 0.20023 0.66515
 H452 H 0.40834 0.30491 0.62650
 H453 H 0.53174 0.30777 0.69609
 H454 H 0.50546 0.37860 0.73393
 H455 H 0.37996 0.37425 0.66292
 H456 H 0.51220 0.16239 0.60520
 H457 H 0.53762 0.09148 0.64457
 H458 H 0.53118 0.16165 0.77108
 H459 H 0.50477 0.23158 0.72905
 C460 C 0.37264 0.19379 0.54987
 C461 C 0.62399 0.30260 0.55458
 C462 C 0.53591 0.12139 0.71073
 C463 C 0.44053 0.38131 0.70133
 C464 C 0.45539 0.79295 0.95224
 H465 H 0.48793 0.80848 0.95510
 C466 C 0.41655 0.81216 0.97365
 H467 H 0.41930 0.84227 0.99344
 C468 C 0.41105 0.73727 0.91984
 H469 H 0.40844 0.70929 0.89740
 C470 C 0.37154 0.75530 0.94069
 H471 H 0.33906 0.74075 0.93455
 N472 N 0.45184 0.75668 0.92522
 C473 C 0.58485 0.69499 0.89057
 H474 H 0.57932 0.69365 0.85450
 C475 C 0.62541 0.67771 0.90801
 H476 H 0.65097 0.66249 0.88545
 C477 C 0.55831 0.71699 0.96382
 H478 H 0.53206 0.73263 0.98516
 C479 C 0.59873 0.69991 0.98282
 H480 H 0.60351 0.70198 1.01900
 Zn481 Zn 0.50195 0.73910 0.88677
 N482 N 0.55252 0.71457 0.91830
 C483 C 0.56387 0.80554 0.85927
 N484 N 0.52079 0.79182 0.85347
 C485 C 0.49091 0.81756 0.82839
 C486 C 0.50426 0.85889 0.80793
 C487 C 0.57847 0.84623 0.83949
 C488 C 0.47807 0.65186 0.87112
 C489 C 0.46192 0.61532 0.84831
 C490 C 0.45875 0.66284 0.77990
 C491 C 0.47531 0.69869 0.80408
 N492 N 0.48364 0.69272 0.84913
 H493 H 0.58685 0.78578 0.88038
 H494 H 0.45650 0.80655 0.82522
 H495 H 0.48032 0.87953 0.78841
 H496 H 0.61274 0.85687 0.84483
 H497 H 0.48506 0.64814 0.90690
 H498 H 0.45626 0.58338 0.86659
 H499 H 0.45058 0.66802 0.74447
 H500 H 0.48032 0.73137 0.78726
 C501 C 0.63266 0.68046 0.95441
 C502 C 0.37411 0.79368 0.96700
 C503 C 0.45156 0.62097 0.80252
 C504 C 0.54845 0.87333 0.81392
 C505 C 0.49393 -0.20119 0.33786
 C506 C 0.48268 -0.16705 0.31682
 C507 C 0.99392 0.29884 0.83786
 C508 C 0.98267 0.33298 0.81682
 C509 C 0.02689 1.20000 0.84196
 C510 C 0.03900 1.16560 0.82329
 C511 C 0.52690 0.69997 0.34196
 C512 C 0.53901 0.66557 0.32328
 C513 C 0.51572 0.30597 0.14913
 C514 C 0.52954 0.33644 0.17070
 C515 C 0.01572 0.80599 0.64913
 C516 C 0.02954 0.83647 0.67071
 C517 C 0.98408 0.70977 0.64405
 C518 C 0.97194 0.67457 0.66178
 C519 C 0.48408 0.20974 0.14404
 C520 C 0.47194 0.17454 0.16178
 C521 C 0.33786 0.49392 -0.20116
 C522 C 0.31682 0.48267 -0.16703
 C523 C 0.83786 0.99392 0.29882
 C524 C 0.81682 0.98267 0.33296
 C525 C 0.84196 0.02690 1.19998
 C526 C 0.82329 0.03900 1.16558
 C527 C 0.34196 0.52689 0.69999
 C528 C 0.32329 0.53900 0.66560
 C529 C 0.14913 0.51572 0.30599
 C530 C 0.17070 0.52954 0.33647
 C531 C 0.64913 0.01571 0.80597
 C532 C 0.67071 0.02953 0.83645
 C533 C 0.64404 0.98407 0.70975
 C534 C 0.66177 0.97193 0.67455
 C535 C 0.14405 0.48408 0.20976
 C536 C 0.16178 0.47194 0.17456
 C537 C -0.20117 0.33786 0.49392
 C538 C -0.16703 0.31682 0.48267
 C539 C 0.29882 0.83787 0.99392
 C540 C 0.33295 0.81683 0.98268
 C541 C 1.19997 0.84197 0.02690
 C542 C 1.16558 0.82329 0.03900
 C543 C 0.69999 0.34196 0.52689
 C544 C 0.66559 0.32329 0.53900
 C545 C 0.30599 0.14914 0.51571
 C546 C 0.33646 0.17071 0.52953
 C547 C 0.80598 0.64914 0.01572
 C548 C 0.83645 0.67071 0.02954
 C549 C 0.70975 0.64405 0.98408
 C550 C 0.67455 0.66178 0.97194
 C551 C 0.20976 0.14405 0.48407
 C552 C 0.17456 0.16178 0.47193
 C553 C 0.57669 0.04821 0.74606
 C554 C 0.55652 0.08166 0.73198
 C555 C 1.07669 0.54822 0.24607
 C556 C 1.05651 0.58167 0.23199
 C557 C 0.90651 0.95813 0.23367
 C558 C 0.92401 0.92332 0.22031
 C559 C 0.40651 0.45813 0.73368
 C560 C 0.42402 0.42331 0.72031
 C561 C 0.40906 0.55418 0.76616
 C562 C 0.42964 0.58486 0.78093
 C563 C -0.09094 0.05419 0.26615
 C564 C -0.07036 0.08486 0.28092
 C565 C 0.08088 0.45052 0.28094
 C566 C 0.06401 0.41595 0.29514
 C567 C 0.58088 0.95052 0.78094
 C568 C 0.56401 0.91594 0.79514
 C569 C 0.74606 0.57669 0.04821
 C570 C 0.73198 0.55651 0.08166
 C571 C 0.24607 1.07669 0.54821
 C572 C 0.23199 1.05653 0.58167
 C573 C 0.23367 0.90652 0.95813
 C574 C 0.22030 0.92403 0.92332
 C575 C 0.73368 0.40651 0.45812
 C576 C 0.72031 0.42401 0.42331
 C577 C 0.76616 0.40907 0.55418
 C578 C 0.78093 0.42965 0.58486
 C579 C 0.26615 -0.09093 0.05419
 C580 C 0.28092 -0.07036 0.08487
 C581 C 0.28095 0.08088 0.45052
 C582 C 0.29515 0.06400 0.41595
 C583 C 0.78093 0.58089 0.95052
 C584 C 0.79514 0.56402 0.91594
 C585 C 0.04822 0.74608 0.57669
 C586 C 0.08167 0.73199 0.55652
 C587 C 0.54821 0.24606 1.07668
 C588 C 0.58166 0.23197 1.05651
 C589 C 0.95812 0.23368 0.90651
 C590 C 0.92331 0.22031 0.92401
 C591 C 0.45814 0.73366 0.40651
 C592 C 0.42332 0.72029 0.42402
 C593 C 0.55419 0.76614 0.40906
 C594 C 0.58487 0.78091 0.42964
 C595 C 0.05418 0.26616 -0.09093
 C596 C 0.08485 0.28094 -0.07036
 C597 C 0.45052 0.28093 0.08088
 C598 C 0.41594 0.29513 0.06401
 C599 C 0.95053 0.78095 0.58088
 C600 C 0.91595 0.79515 0.56401
   
