data_POSCAR
  _audit_creation_date              2014-09-24
  _audit_creation_method            'ToBaCCo'
  _symmetry_space_group_name_H-M    'P1'
  _symmetry_Int_Tables_number       1
  _symmetry_cell_setting            triclinic
  loop_
  _symmetry_equiv_pos_as_xyz
 x,y,z
_cell_length_a 59.3026
_cell_length_b 59.1538
_cell_length_c 17.8713
_cell_angle_alpha 89.702800
_cell_angle_beta 90.464700
_cell_angle_gamma 120.331800
loop_
  _atom_site_label
  _atom_site_type_symbol
  _atom_site_fract_x
  _atom_site_fract_y
  _atom_site_fract_z
C1 C 0.25036 0.49491 0.53601
 C2 C 0.25391 0.49902 0.46080
 C3 C 0.23447 0.50064 0.41142
 C4 C 0.27669 0.50011 0.42394
 C5 C 0.27032 0.49378 0.58401
 C6 C 0.22651 0.49118 0.57382
 C7 C 0.22321 0.48307 0.35198
 C8 C 0.20290 0.48227 0.30975
 C9 C 0.19302 0.49918 0.32530
 C10 C 0.20578 0.51782 0.38337
 C11 C 0.22616 0.51854 0.42532
 C12 C 0.27909 0.47773 0.42118
 C13 C 0.30086 0.47890 0.38791
 C14 C 0.32069 0.50254 0.35758
 C15 C 0.31824 0.52493 0.36038
 C16 C 0.29621 0.52364 0.39266
 C17 C 0.29572 0.51538 0.58967
 C18 C 0.31467 0.51374 0.63250
 C19 C 0.30856 0.49045 0.67055
 C20 C 0.28286 0.46908 0.66616
 C21 C 0.26390 0.47080 0.62359
 C22 C 0.22894 0.50669 0.63596
 C23 C 0.20676 0.50461 0.66930
 C24 C 0.18182 0.48712 0.64060
 C25 C 0.17929 0.47093 0.58017
 C26 C 0.20145 0.47260 0.54791
 H27 H 0.22929 0.46898 0.34039
 H28 H 0.19404 0.46679 0.26880
 H29 H 0.20094 0.53269 0.39607
 H30 H 0.23516 0.53282 0.46974
 H31 H 0.26410 0.45941 0.44498
 H32 H 0.30242 0.46144 0.38671
 H33 H 0.29457 0.54105 0.39444
 H34 H 0.30088 0.53344 0.56056
 H35 H 0.33409 0.53074 0.63594
 H36 H 0.27756 0.45077 0.69398
 H37 H 0.24436 0.45396 0.61990
 H38 H 0.24807 0.52093 0.65734
 H39 H 0.20909 0.51724 0.71595
 H40 H 0.16017 0.45703 0.55801
 H41 H 0.19907 0.45981 0.50166
 H42 H 0.33321 0.54330 0.33682
 C43 C 0.48498 -0.26033 0.53817
 C44 C 0.48297 -0.26050 0.46229
 C45 C 0.48495 -0.28042 0.41735
 C46 C 0.48130 -0.23940 0.42211
 C47 C 0.48935 -0.23744 0.58276
 C48 C 0.48560 -0.28186 0.57897
 C49 C 0.50842 -0.28077 0.41676
 C50 C 0.50979 -0.30094 0.38079
 C51 C 0.48762 -0.32128 0.34537
 C52 C 0.46424 -0.32061 0.34467
 C53 C 0.46301 -0.30015 0.37977
 C54 C 0.50078 -0.22338 0.37124
 C55 C 0.50097 -0.20166 0.33954
 C56 C 0.48147 -0.19570 0.35743
 C57 C 0.46142 -0.21239 0.40645
 C58 C 0.46134 -0.23405 0.43842
 C59 C 0.47044 -0.23973 0.63363
 C60 C 0.47464 -0.21805 0.67566
 C61 C 0.49810 -0.19404 0.66870
 C62 C 0.51719 -0.19196 0.61869
 C63 C 0.51277 -0.21347 0.57566
 C64 C 0.46510 -0.30774 0.57166
 C65 C 0.46676 -0.32818 0.60540
 C66 C 0.48899 -0.32325 0.64803
 C67 C 0.50907 -0.29687 0.65706
 C68 C 0.50732 -0.27652 0.62308
 H69 H 0.52551 -0.26569 0.44572
 H70 H 0.52797 -0.30110 0.38267
 H71 H 0.44694 -0.33597 0.31729
 H72 H 0.44473 -0.30018 0.38002
 H73 H 0.51646 -0.22707 0.35844
 H74 H 0.51692 -0.18902 0.30295
 H75 H 0.44598 -0.24638 0.47710
 H76 H 0.45235 -0.25818 0.63994
 H77 H 0.45971 -0.22005 0.71412
 H78 H 0.53532 -0.17357 0.61210
 H79 H 0.52764 -0.21153 0.53703
 H80 H 0.44786 -0.31213 0.53920
 H81 H 0.45015 -0.34773 0.59923
 H82 H 0.52702 -0.29166 0.68658
 H83 H 0.52345 -0.25663 0.62892
 H84 H 0.44588 -0.20864 0.42039
 C85 C 1.23312 0.76742 0.52864
 C86 C 1.23165 0.76992 0.45319
 C87 C 1.25323 0.79159 0.41090
 C88 C 1.20929 0.75048 0.40811
 C89 C 1.21231 0.74516 0.57202
 C90 C 1.25616 0.78720 0.57114
 C91 C 1.24875 0.80931 0.37062
 C92 C 1.26886 0.82960 0.32974
 C93 C 1.29411 0.83267 0.32787
 C94 C 1.29805 0.81417 0.36763
 C95 C 1.27789 0.79392 0.40817
 C96 C 1.18396 0.74608 0.41896
 C97 C 1.16298 0.72671 0.37769
 C98 C 1.16716 0.71141 0.32599
 C99 C 1.19259 0.71632 0.31410
 C100 C 1.21353 0.73590 0.35426
 C101 C 1.20290 0.71907 0.55108
 C102 C 1.18288 0.69847 0.59137
 C103 C 1.17200 0.70319 0.65561
 C104 C 1.18252 0.72964 0.67755
 C105 C 1.20223 0.75016 0.63633
 C106 C 1.27487 0.78120 0.59677
 C107 C 1.29787 0.80042 0.63086
 C108 C 1.30235 0.82600 0.64217
 C109 C 1.28277 0.83144 0.61837
 C110 C 1.26012 0.81234 0.58251
 H111 H 1.22971 0.80765 0.37178
 H112 H 1.26460 0.84340 0.30252
 H113 H 1.31638 0.81439 0.36544
 H114 H 1.28142 0.77979 0.43665
 H115 H 1.18046 0.75737 0.45995
 H116 H 1.14344 0.72308 0.38774
 H117 H 1.23298 0.73916 0.34507
 H118 H 1.21088 0.71457 0.50295
 H119 H 1.17554 0.67900 0.56936
 H120 H 1.17637 0.73492 0.72797
 H121 H 1.20956 0.77011 0.65474
 H122 H 1.27196 0.76177 0.58851
 H123 H 1.31168 0.79481 0.65028
 H124 H 1.28540 0.85085 0.62337
 H125 H 1.24584 0.81726 0.56241
 H126 H 1.19617 0.70478 0.27419
 C127 C 0.74565 0.48512 0.54363
 C128 C 0.74495 0.48370 0.46773
 C129 C 0.76644 0.48399 0.42519
 C130 C 0.72411 0.48479 0.42498
 C131 C 0.72417 0.48482 0.58660
 C132 C 0.76912 0.48971 0.58556
 C133 C 0.78357 0.50612 0.38331
 C134 C 0.80522 0.50740 0.34841
 C135 C 0.81001 0.48644 0.35429
 C136 C 0.79219 0.46392 0.39434
 C137 C 0.77066 0.46275 0.42953
 C138 C 0.72294 0.50786 0.42504
 C139 C 0.70197 0.50841 0.39114
 C140 C 0.68173 0.48583 0.35705
 C141 C 0.68312 0.46281 0.35608
 C142 C 0.70435 0.46237 0.38928
 C143 C 0.69863 0.46353 0.58124
 C144 C 0.67803 0.46425 0.61636
 C145 C 0.68238 0.48632 0.65841
 C146 C 0.70847 0.50720 0.66559
 C147 C 0.72898 0.50639 0.63029
 C148 C 0.77045 0.46873 0.61700
 C149 C 0.79315 0.47307 0.65392
 C150 C 0.81480 0.49868 0.66202
 C151 C 0.81288 0.51967 0.63100
 C152 C 0.79045 0.51514 0.59236
 H153 H 0.78066 0.52276 0.37976
 H154 H 0.81867 0.52515 0.31892
 H155 H 0.79495 0.44722 0.39880
 H156 H 0.75745 0.44541 0.46106
 H157 H 0.73801 0.52525 0.45283
 H158 H 0.70123 0.52632 0.39316
 H159 H 0.70499 0.44439 0.38932
 H160 H 0.69461 0.44641 0.54908
 H161 H 0.65885 0.44703 0.61152
 H162 H 0.71325 0.52508 0.69458
 H163 H 0.74850 0.52318 0.63472
 H164 H 0.75400 0.44897 0.61217
 H165 H 0.79318 0.45633 0.67852
 H166 H 0.82913 0.53958 0.63303
 H167 H 0.78976 0.53149 0.56719
 H168 H 0.66782 0.44524 0.32962
 C169 C 0.51947 0.26067 0.54206
 C170 C 0.51842 0.25843 0.46606
 C171 C 0.51881 0.27936 0.41887
 C172 C 0.51549 0.23485 0.42778
 C173 C 0.51882 0.24036 0.59280
 C174 C 0.51904 0.28288 0.57786
 C175 C 0.49576 0.27522 0.38411
 C176 C 0.49487 0.29598 0.34916
 C177 C 0.51711 0.32126 0.34792
 C178 C 0.54050 0.32497 0.38000
 C179 C 0.54132 0.30422 0.41517
 C180 C 0.49594 0.20958 0.44926
 C181 C 0.49506 0.18751 0.41845
 C182 C 0.51303 0.19029 0.36349
 C183 C 0.53154 0.21545 0.33852
 C184 C 0.53284 0.23759 0.37072
 C185 C 0.53681 0.23178 0.58572
 C186 C 0.53447 0.21105 0.62956
 C187 C 0.51413 0.19841 0.68243
 C188 C 0.49701 0.20826 0.69144
 C189 C 0.49937 0.22887 0.64734
 C190 C 0.54218 0.30440 0.60407
 C191 C 0.54181 0.32578 0.63559
 C192 C 0.51806 0.32566 0.64360
 C193 C 0.49488 0.30365 0.61710
 C194 C 0.49546 0.28269 0.58393
 H195 H 0.47815 0.25620 0.38714
 H196 H 0.47646 0.29245 0.32592
 H197 H 0.55810 0.34403 0.37886
 H198 H 0.55930 0.30770 0.44158
 H199 H 0.48174 0.20694 0.49124
 H200 H 0.48031 0.16822 0.43736
 H201 H 0.54786 0.25687 0.35266
 H202 H 0.55243 0.24086 0.54528
 H203 H 0.54912 0.20549 0.62249
 H204 H 0.48057 0.19918 0.72901
 H205 H 0.48517 0.23508 0.65382
 H206 H 0.56053 0.30472 0.59946
 H207 H 0.56005 0.34179 0.65658
 H208 H 0.47629 0.30291 0.61882
 H209 H 0.47750 0.26627 0.56272
 H210 H 0.54545 0.21795 0.29573
 C211 C 0.75227 0.24823 0.53722
 C212 C 0.74938 0.25010 0.46208
 C213 C 0.72794 0.22829 0.41965
 C214 C 0.76838 0.27323 0.41889
 C215 C 0.77686 0.26685 0.57747
 C216 C 0.73061 0.22719 0.58066
 C217 C 0.72628 0.20379 0.41716
 C218 C 0.70577 0.18296 0.37884
 C219 C 0.68647 0.18624 0.34289
 C220 C 0.68836 0.21090 0.34465
 C221 C 0.70912 0.23187 0.38212
 C222 C 0.78326 0.27038 0.36337
 C223 C 0.80415 0.29244 0.33095
 C224 C 0.81004 0.31780 0.35179
 C225 C 0.79382 0.32042 0.40390
 C226 C 0.77330 0.29832 0.43759
 C227 C 0.77611 0.27878 0.64431
 C228 C 0.79928 0.29808 0.67807
 C229 C 0.82376 0.30640 0.64450
 C230 C 0.82427 0.29321 0.57963
 C231 C 0.80125 0.27328 0.54798
 C232 C 0.70609 0.22536 0.58106
 C233 C 0.68463 0.20370 0.61305
 C234 C 0.68730 0.18342 0.64517
 C235 C 0.71220 0.18591 0.64751
 C236 C 0.73372 0.20772 0.61581
 H237 H 0.74081 0.20081 0.44536
 H238 H 0.70462 0.16409 0.37876
 H239 H 0.67377 0.21391 0.31694
 H240 H 0.71023 0.25071 0.38331
 H241 H 0.77976 0.25112 0.34867
 H242 H 0.81636 0.28951 0.29222
 H243 H 0.76173 0.30076 0.47990
 H244 H 0.75755 0.27385 0.66893
 H245 H 0.79771 0.30765 0.72756
 H246 H 0.84256 0.29772 0.55398
 H247 H 0.80249 0.26325 0.49911
 H248 H 0.70345 0.24039 0.55459
 H249 H 0.66588 0.20267 0.61181
 H250 H 0.71487 0.17054 0.67120
 H251 H 0.75251 0.20882 0.61553
 H252 H 0.79727 0.33953 0.41988
 N253 N 0.97132 0.52289 0.06981
 N254 N 0.95047 0.52546 0.07367
 N255 N 1.02660 0.53870 0.13122
 N256 N 1.04557 0.55291 0.17887
 N257 N 1.02624 0.55322 0.07593
 N258 N 1.04483 0.57789 0.08510
 N259 N 0.97179 0.50873 0.12599
 N260 N 0.95138 0.50136 0.16952
 C261 C 0.93820 0.51190 0.13633
 C262 C 1.05674 0.57729 0.14953
 N263 N 1.03089 0.47574 0.09839
 N264 N 1.05196 0.47415 0.11207
 N265 N 0.97444 0.46167 0.14019
 N266 N 0.95293 0.44927 0.18030
 N267 N 0.97584 0.44562 0.09261
 N268 N 0.95525 0.42193 0.09854
 N269 N 1.02933 0.49178 0.14573
 N270 N 1.04921 0.50142 0.19313
 Mn271 Mn 1.00054 0.50024 0.13663
 C272 C 1.06317 0.49022 0.17159
 C273 C 0.94126 0.42445 0.15389
 N274 N 1.02834 0.55030 -0.08551
 N275 N 1.04695 0.57463 -0.09947
 N276 N 0.97492 0.50373 -0.13752
 N277 N 0.95476 0.49357 -0.18387
 N278 N 0.97353 0.52011 -0.09109
 N279 N 0.95252 0.52175 -0.10515
 N280 N 1.02989 0.53398 -0.13187
 N281 N 1.04968 0.54670 -0.17800
 Mn282 Mn 0.99985 0.53695 -0.00783
 C283 C 1.06019 0.57204 -0.15719
 C284 C 0.94105 0.50510 -0.16328
 N285 N 0.97746 0.44253 -0.06706
 N286 N 0.95724 0.41847 -0.07159
 N287 N 1.03229 0.48665 -0.11827
 N288 N 1.05195 0.49257 -0.16368
 N289 N 1.03260 0.47262 -0.06158
 N290 N 1.05267 0.46888 -0.06628
 N291 N 0.97759 0.45667 -0.12408
 N292 N 0.95777 0.44253 -0.16963
 Mn293 Mn 1.00423 0.45886 0.01572
 Mn294 Mn 1.00371 0.49529 -0.12881
 Cl295 Cl 1.00211 0.49787 0.00390
 C296 C 0.94529 0.41873 -0.13621
 C297 C 1.06457 0.48148 -0.13022
 N298 N 0.47747 0.44751 0.07788
 N299 N 0.47449 0.42388 0.08334
 N300 N 0.46586 0.49079 0.12850
 N301 N 0.45253 0.49730 0.17360
 N302 N 0.45076 0.47552 0.07461
 N303 N 0.42673 0.47103 0.08188
 N304 N 0.49275 0.46270 0.13169
 N305 N 0.50053 0.44977 0.17514
 C306 C 0.48885 0.42549 0.14454
 C307 C 0.42813 0.48480 0.14372
 N308 N 0.53140 0.55550 0.08452
 N309 N 0.53494 0.57924 0.09243
 N310 N 0.54193 0.51142 0.13778
 N311 N 0.55401 0.50314 0.18308
 N312 N 0.55828 0.52783 0.08816
 N313 N 0.58184 0.53135 0.09855
 N314 N 0.51481 0.53944 0.13434
 N315 N 0.50639 0.55182 0.17697
 Mn316 Mn 0.50384 0.50107 0.13421
 C317 C 0.51925 0.57670 0.15037
 C318 C 0.57896 0.51590 0.15793
 N319 N 0.45294 0.47712 -0.08679
 N320 N 0.42949 0.47379 -0.10033
 N321 N 0.49642 0.46489 -0.13176
 N322 N 0.50404 0.45230 -0.17613
 N323 N 0.47938 0.44881 -0.08296
 N324 N 0.47473 0.42476 -0.09315
 N325 N 0.46972 0.49286 -0.13671
 N326 N 0.45823 0.50063 -0.18543
 Mn327 Mn 0.46482 0.46198 -0.00428
 C328 C 0.43314 0.48863 -0.16223
 C329 C 0.49030 0.42728 -0.15136
 N330 N 0.56056 0.52872 -0.07233
 N331 N 0.58405 0.53146 -0.07647
 N332 N 0.51858 0.54122 -0.13031
 N333 N 0.51068 0.55380 -0.17452
 N334 N 0.53355 0.55659 -0.07645
 N335 N 0.53628 0.58008 -0.08263
 N336 N 0.54536 0.51325 -0.12570
 N337 N 0.55802 0.50505 -0.16751
 Mn338 Mn 0.54621 0.54245 0.00600
 Mn339 Mn 0.50756 0.50306 -0.13196
 Cl340 Cl 0.50559 0.50213 0.00108
 C341 C 0.58218 0.51663 -0.13639
 C342 C 0.52200 0.57807 -0.14438
 N343 N 0.44867 -0.02173 0.07988
 N344 N 0.42403 -0.03978 0.09266
 N345 N 0.49661 0.03145 0.12616
 N346 N 0.50625 0.05215 0.17044
 N347 N 0.48194 0.03313 0.07357
 N348 N 0.48144 0.05506 0.07988
 N349 N 0.46405 -0.02318 0.13055
 N350 N 0.45050 -0.04203 0.17883
 C351 C 0.42557 -0.05227 0.15483
 C352 C 0.49663 0.06672 0.14056
 N353 N 0.55576 0.02261 0.07264
 N354 N 0.58037 0.04171 0.07827
 N355 N 0.50891 -0.02993 0.12907
 N356 N 0.49906 -0.05067 0.17361
 N357 N 0.52290 -0.03218 0.07621
 N358 N 0.52285 -0.05437 0.08286
 N359 N 0.54155 0.02501 0.12444
 N360 N 0.55592 0.04580 0.16616
 Mn361 Mn 0.50279 0.00082 0.12850
 C362 C 0.58012 0.05598 0.13711
 C363 C 0.50805 -0.06570 0.14395
 N364 N 0.48026 0.03162 -0.08743
 N365 N 0.48048 0.05389 -0.09801
 N366 N 0.46065 -0.02624 -0.13342
 N367 N 0.44523 -0.04550 -0.17909
 N368 N 0.44688 -0.02309 -0.08172
 N369 N 0.42175 -0.03987 -0.09115
 N370 N 0.49387 0.02842 -0.13951
 N371 N 0.50362 0.04821 -0.18680
 Mn372 Mn 0.46415 0.00503 -0.00386
 C373 C 0.49512 0.06397 -0.16056
 C374 C 0.42101 -0.05382 -0.15181
 N375 N 0.52114 -0.03394 -0.08441
 N376 N 0.52182 -0.05579 -0.09278
 N377 N 0.53887 0.02223 -0.14030
 N378 N 0.55273 0.04258 -0.18441
 N379 N 0.55387 0.02078 -0.08837
 N380 N 0.57822 0.03996 -0.09565
 N381 N 0.50558 -0.03259 -0.13457
 N382 N 0.49505 -0.05347 -0.17781
 Mn383 Mn 0.53870 -0.00570 -0.00594
 Mn384 Mn 0.49972 -0.00210 -0.13783
 Cl385 Cl 0.50131 -0.00050 -0.00478
 C386 C 0.50537 -0.06776 -0.15130
 C387 C 0.57730 0.05333 -0.15605
 C388 C 1.16348 0.48391 0.21742
 C389 C 1.17174 0.49707 0.28728
 C390 C 1.15652 0.50729 0.31698
 C391 C 1.13392 0.50374 0.28019
 C392 C 1.12594 0.48988 0.21207
 C393 C 1.14102 0.48036 0.18087
 C394 C 1.10290 0.48562 0.17647
 C395 C 1.08770 0.49514 0.20820
 C396 C 1.09601 0.50928 0.27549
 C397 C 1.11884 0.51346 0.31132
 H398 H 1.16084 0.51664 0.37116
 H399 H 1.13547 0.47013 0.12776
 H400 H 1.09679 0.47484 0.12427
 H401 H 1.12463 0.52419 0.36359
 H402 H 1.17466 0.47700 0.18799
 H403 H 1.08469 0.51689 0.30098
 C404 C 0.46966 0.63055 0.32739
 C405 C 0.48886 0.65655 0.31135
 C406 C 0.50986 0.66132 0.26506
 C407 C 0.51188 0.64044 0.23584
 C408 C 0.49284 0.61435 0.25378
 C409 C 0.47168 0.60963 0.29916
 C410 C 0.49534 0.59350 0.22621
 C411 C 0.51641 0.59844 0.17984
 C412 C 0.53487 0.62442 0.16114
 C413 C 0.53274 0.64524 0.18925
 H414 H 0.52461 0.68132 0.25177
 H415 H 0.45682 0.58978 0.31327
 H416 H 0.48083 0.57350 0.24029
 H417 H 0.54744 0.66510 0.17463
 H418 H 0.45342 0.62645 0.36342
 H419 H 0.55122 0.62869 0.12538
 C420 C 0.31003 -0.13420 0.22630
 C421 C 0.31488 -0.14635 0.28786
 C422 C 0.34119 -0.13684 0.30887
 C423 C 0.36178 -0.11621 0.27000
 C424 C 0.35652 -0.10444 0.20858
 C425 C 0.33055 -0.11362 0.18723
 C426 C 0.37732 -0.08362 0.17005
 C427 C 0.40326 -0.07442 0.19297
 C428 C 0.40814 -0.08639 0.25422
 C429 C 0.38765 -0.10705 0.29231
 H430 H 0.34598 -0.14453 0.35767
 H431 H 0.32608 -0.10498 0.13996
 H432 H 0.37333 -0.07451 0.12298
 H433 H 0.39205 -0.11583 0.33937
 H434 H 0.29043 -0.14108 0.20571
 H435 H 0.42792 -0.07976 0.27301
 C436 C 0.84756 0.47816 0.36025
 C437 C 0.83396 0.48841 0.32141
 C438 C 0.84375 0.50102 0.25223
 C439 C 0.86683 0.50352 0.22277
 C440 C 0.88022 0.49311 0.26257
 C441 C 0.87037 0.48039 0.33103
 C442 C 0.90337 0.49576 0.23363
 C443 C 0.91353 0.50889 0.16552
 C444 C 0.90006 0.51911 0.12615
 C445 C 0.87687 0.51640 0.15442
 H446 H 0.83338 0.50878 0.22112
 H447 H 0.88046 0.47239 0.36244
 H448 H 0.91356 0.48777 0.26456
 H449 H 0.86687 0.52450 0.12304
 H450 H 0.84086 0.46881 0.41420
 H451 H 0.90745 0.52923 0.07347
 C452 C 0.52858 0.36840 0.35221
 C453 C 0.51554 0.34383 0.31653
 C454 C 0.50031 0.34079 0.25240
 C455 C 0.49779 0.36174 0.22515
 C456 C 0.51083 0.38623 0.26193
 C457 C 0.52632 0.38939 0.32507
 C458 C 0.50796 0.40706 0.23531
 C459 C 0.49213 0.40370 0.17246
 C460 C 0.47944 0.37932 0.13604
 C461 C 0.48226 0.35855 0.16206
 H462 H 0.49042 0.32213 0.22360
 H463 H 0.53644 0.40800 0.35407
 H464 H 0.51794 0.42580 0.26371
 H465 H 0.47216 0.33994 0.13305
 H466 H 0.54008 0.37127 0.40235
 H467 H 0.46724 0.37624 0.08735
 C468 C 0.63842 0.15785 0.32195
 C469 C 0.66397 0.16370 0.30609
 C470 C 0.66784 0.14741 0.25723
 C471 C 0.64637 0.12531 0.22525
 C472 C 0.62075 0.11925 0.24322
 C473 C 0.61698 0.13575 0.29106
 C474 C 0.59929 0.09667 0.21366
 C475 C 0.60300 0.08013 0.16551
 C476 C 0.62848 0.08665 0.14614
 C477 C 0.65003 0.10900 0.17615
 H478 H 0.68753 0.15198 0.24424
 H479 H 0.59745 0.13142 0.30515
 H480 H 0.57967 0.09196 0.22826
 H481 H 0.66953 0.11342 0.16138
 H482 H 0.63506 0.17005 0.35990
 H483 H 0.63174 0.07420 0.10892
 C484 C 0.49697 0.16886 -0.20781
 C485 C 0.51033 0.17596 -0.27696
 C486 C 0.51889 0.15939 -0.30597
 C487 C 0.51361 0.13630 -0.26875
 C488 C 0.49971 0.12932 -0.20077
 C489 C 0.49177 0.14592 -0.17041
 C490 C 0.49376 0.10575 -0.16482
 C491 C 0.50156 0.08909 -0.19641
 C492 C 0.51570 0.09646 -0.26359
 C493 C 0.52163 0.11979 -0.29946
 H494 H 0.52838 0.16335 -0.35981
 H495 H 0.48142 0.14112 -0.11773
 H496 H 0.48297 0.10033 -0.11282
 H497 H 0.53236 0.12482 -0.35153
 H498 H 0.49098 0.18126 -0.18073
 H499 H 0.52207 0.08405 -0.28898
 C500 C 0.63572 0.47352 -0.34005
 C501 C 0.66125 0.48785 -0.30953
 C502 C 0.66518 0.50429 -0.24750
 C503 C 0.64465 0.50689 -0.21868
 C504 C 0.61953 0.49278 -0.25126
 C505 C 0.61523 0.47597 -0.31129
 C506 C 0.59917 0.49589 -0.22373
 C507 C 0.60359 0.51299 -0.16382
 C508 C 0.62853 0.52661 -0.13083
 C509 C 0.64889 0.52358 -0.15799
 H510 H 0.68398 0.51469 -0.21967
 H511 H 0.59606 0.46503 -0.33709
 H512 H 0.57995 0.48511 -0.24928
 H513 H 0.66802 0.53449 -0.13197
 H514 H 0.63147 0.46129 -0.38891
 H515 H 0.63237 0.53978 -0.08437
 C516 C 0.86752 0.34453 -0.37491
 C517 C 0.84711 0.32773 -0.32638
 C518 C 0.85062 0.33295 -0.24877
 C519 C 0.87403 0.35394 -0.22056
 C520 C 0.89383 0.37087 -0.27045
 C521 C 0.89035 0.36600 -0.34738
 C522 C 0.91693 0.39226 -0.24253
 C523 C 0.92099 0.39627 -0.16514
 C524 C 0.90162 0.37893 -0.11573
 C525 C 0.87815 0.35813 -0.14318
 H526 H 0.83575 0.32001 -0.20969
 H527 H 0.90534 0.37878 -0.38643
 H528 H 0.93198 0.40546 -0.28085
 H529 H 0.86331 0.34526 -0.10392
 H530 H 0.86549 0.34192 -0.43499
 H531 H 0.90442 0.38184 -0.05589
 C532 C 0.52547 -0.15647 -0.24587
 C533 C 0.50246 -0.17096 -0.28796
 C534 C 0.48397 -0.16282 -0.29080
 C535 C 0.48872 -0.14000 -0.25363
 C536 C 0.51192 -0.12551 -0.21114
 C537 C 0.53006 -0.13407 -0.20708
 C538 C 0.51688 -0.10236 -0.17519
 C539 C 0.49936 -0.09311 -0.18345
 C540 C 0.47637 -0.10767 -0.22567
 C541 C 0.47095 -0.13106 -0.25981
 H542 H 0.46633 -0.17379 -0.32404
 H543 H 0.54797 -0.12319 -0.17503
 H544 H 0.53475 -0.09109 -0.14319
 H545 H 0.45311 -0.14188 -0.29224
 H546 H 0.53989 -0.16257 -0.24299
 H547 H 0.46256 -0.10091 -0.23241
 C548 C 0.32329 0.47432 -0.21924
 C549 C 0.32909 0.48821 -0.28723
 C550 C 0.35459 0.49962 -0.31565
 C551 C 0.37394 0.49715 -0.27717
 C552 C 0.36784 0.48292 -0.20931
 C553 C 0.34246 0.47167 -0.18071
 C554 C 0.38719 0.48013 -0.17152
 C555 C 0.41258 0.49152 -0.20073
 C556 C 0.41842 0.50586 -0.26783
 C557 C 0.39928 0.50858 -0.30579
 H558 H 0.35930 0.51001 -0.36857
 H559 H 0.33743 0.46081 -0.12859
 H560 H 0.38251 0.46914 -0.11964
 H561 H 0.40431 0.51961 -0.35763
 H562 H 0.30394 0.46564 -0.19546
 H563 H 0.43783 0.51489 -0.29142
 C564 C 1.13465 0.68668 -0.25688
 C565 C 1.15122 0.68223 -0.30363
 C566 C 1.14614 0.65616 -0.30893
 C567 C 1.12527 0.63551 -0.27042
 C568 C 1.10923 0.64062 -0.22398
 C569 C 1.11418 0.66627 -0.21745
 C570 C 1.08830 0.61993 -0.18564
 C571 C 1.08288 0.59406 -0.19453
 C572 C 1.09895 0.58918 -0.24097
 C573 C 1.12008 0.60972 -0.27804
 H574 H 1.15868 0.65158 -0.34104
 H575 H 1.10187 0.67052 -0.18278
 H576 H 1.07593 0.62390 -0.15027
 H577 H 1.13216 0.60537 -0.31341
 H578 H 1.13647 0.70573 -0.25231
 H579 H 1.09522 0.56942 -0.24850
 C580 C 0.85372 0.52688 -0.26159
 C581 C 0.83787 0.50324 -0.30056
 C582 C 0.84586 0.48443 -0.30217
 C583 C 0.86919 0.48933 -0.26738
 C584 C 0.88452 0.51296 -0.22787
 C585 C 0.87654 0.53151 -0.22504
 C586 C 0.90776 0.51780 -0.19271
 C587 C 0.91631 0.49968 -0.19869
 C588 C 0.90121 0.47643 -0.23911
 C589 C 0.87769 0.47117 -0.27258
 H590 H 0.83480 0.46649 -0.33383
 H591 H 0.88804 0.54971 -0.19482
 H592 H 0.91947 0.53590 -0.16216
 H593 H 0.86628 0.45300 -0.30303
 H594 H 0.84808 0.54158 -0.25650
 H595 H 0.90747 0.46218 -0.24413
 C596 C 0.53864 0.37274 -0.32814
 C597 C 0.51735 0.34687 -0.32252
 C598 C 0.49517 0.34259 -0.28209
 C599 C 0.49416 0.36342 -0.24885
 C600 C 0.51529 0.38925 -0.25716
 C601 C 0.53747 0.39369 -0.29659
 C602 C 0.51389 0.41015 -0.22560
 C603 C 0.49189 0.40539 -0.18413
 C604 C 0.47133 0.37960 -0.17428
 C605 C 0.47234 0.35877 -0.20696
 H606 H 0.47897 0.32290 -0.27344
 H607 H 0.55390 0.41338 -0.30332
 H608 H 0.52999 0.43004 -0.23249
 H609 H 0.45605 0.33905 -0.19952
 H610 H 0.55585 0.37718 -0.35996
 H611 H 0.45424 0.37557 -0.14237
 C612 C 0.64004 0.14848 -0.36511
 C613 C 0.66402 0.15941 -0.32629
 C614 C 0.66573 0.14699 -0.26101
 C615 C 0.64393 0.12394 -0.23515
 C616 C 0.61993 0.11318 -0.27455
 C617 C 0.61819 0.12565 -0.33935
 C618 C 0.59813 0.09009 -0.24863
 C619 C 0.60011 0.07754 -0.18407
 C620 C 0.62408 0.08841 -0.14543
 C621 C 0.64577 0.11143 -0.17061
 H622 H 0.68397 0.15534 -0.22998
 H623 H 0.60000 0.11764 -0.37047
 H624 H 0.57972 0.08188 -0.27876
 H625 H 0.66400 0.11941 -0.13970
 H626 H 0.63827 0.15735 -0.41631
 H627 H 0.62606 0.07916 -0.09532
 C628 C 1.14128 0.48954 -0.37482
 C629 C 1.15857 0.48638 -0.32777
 C630 C 1.15386 0.48306 -0.25053
 C631 C 1.13193 0.48273 -0.22044
 C632 C 1.11488 0.48644 -0.26805
 C633 C 1.11971 0.48979 -0.34513
 C634 C 1.09319 0.48652 -0.23788
 C635 C 1.08786 0.48218 -0.16110
 C636 C 1.10461 0.47808 -0.11436
 C637 C 1.12664 0.47862 -0.14367
 H638 H 1.16709 0.48041 -0.21423
 H639 H 1.10679 0.49254 -0.38242
 H640 H 1.08016 0.48942 -0.27435
 H641 H 1.13943 0.47564 -0.10644
 H642 H 1.14479 0.49230 -0.43448
 H643 H 1.10080 0.47473 -0.05497
 C644 C 0.47836 0.63066 -0.35325
 C645 C 0.49142 0.65592 -0.32077
 C646 C 0.50747 0.65994 -0.25739
 C647 C 0.51086 0.63974 -0.22879
 C648 C 0.49795 0.61486 -0.26303
 C649 C 0.48161 0.61048 -0.32474
 C650 C 0.50168 0.59479 -0.23518
 C651 C 0.51816 0.59927 -0.17330
 C652 C 0.53071 0.62400 -0.13900
 C653 C 0.52709 0.64408 -0.16649
 H654 H 0.51686 0.67850 -0.22825
 H655 H 0.47163 0.59150 -0.35185
 H656 H 0.49175 0.57571 -0.26176
 H657 H 0.53708 0.66303 -0.13930
 H658 H 0.46653 0.62650 -0.40325
 H659 H 0.54340 0.62785 -0.09099
 C660 C 0.34957 -0.15432 -0.33320
 C661 C 0.32591 -0.15429 -0.32451
 C662 C 0.32643 -0.13393 -0.28215
 C663 C 0.34972 -0.11433 -0.24958
 C664 C 0.37327 -0.11434 -0.26075
 C665 C 0.37295 -0.13446 -0.30247
 C666 C 0.39668 -0.09432 -0.22956
 C667 C 0.39661 -0.07479 -0.18537
 C668 C 0.37298 -0.07536 -0.17296
 C669 C 0.34978 -0.09480 -0.20538
 H670 H 0.30856 -0.13379 -0.27141
 H671 H 0.39081 -0.13481 -0.31157
 H672 H 0.41481 -0.09418 -0.23856
 H673 H 0.33187 -0.09459 -0.19571
 H674 H 0.35049 -0.16899 -0.36683
 H675 H 0.37252 -0.06048 -0.13904
 C676 C 0.47620 -0.15627 0.37145
 C677 C 0.48259 -0.17173 0.32667
 C678 C 0.49112 -0.16359 0.25309
 C679 C 0.49414 -0.14000 0.22548
 C680 C 0.48804 -0.12440 0.27122
 C681 C 0.47878 -0.13290 0.34387
 C682 C 0.49186 -0.10035 0.24399
 C683 C 0.50222 -0.09159 0.17221
 C684 C 0.50787 -0.10749 0.12710
 C685 C 0.50371 -0.13152 0.15325
 H686 H 0.49567 -0.17549 0.21739
 H687 H 0.47405 -0.12122 0.37990
 H688 H 0.48748 -0.08821 0.27918
 H689 H 0.50843 -0.14326 0.11741
 H690 H 0.46988 -0.16187 0.42865
 H691 H 0.51566 -0.10128 0.07136
 C692 C 0.36911 0.52321 0.34277
 C693 C 0.34372 0.50363 0.32260
 C694 C 0.34029 0.48471 0.26961
 C695 C 0.36196 0.48511 0.23749
 C696 C 0.38749 0.50448 0.25938
 C697 C 0.39086 0.52355 0.31174
 C698 C 0.40915 0.50435 0.22867
 C699 C 0.40555 0.48537 0.17548
 C700 C 0.38012 0.46664 0.15289
 C701 C 0.35850 0.46640 0.18396
 H702 H 0.32072 0.46977 0.25314
 H703 H 0.41026 0.53863 0.32890
 H704 H 0.42874 0.51904 0.24582
 H705 H 0.33907 0.45152 0.16628
 H706 H 0.37209 0.53791 0.38376
 H707 H 0.37690 0.45186 0.11191
 C708 C 1.12732 0.69304 0.24410
 C709 C 1.14501 0.68929 0.28738
 C710 C 1.14179 0.66419 0.29355
 C711 C 1.12106 0.64290 0.25695
 C712 C 1.10357 0.64681 0.21196
 C713 C 1.10686 0.67197 0.20597
 C714 C 1.08293 0.62540 0.17478
 C715 C 1.07915 0.60014 0.18435
 C716 C 1.09644 0.59647 0.22992
 C717 C 1.11740 0.61772 0.26527
 H718 H 1.15528 0.66123 0.32779
 H719 H 1.09357 0.67532 0.17218
 H720 H 1.06942 0.62824 0.14034
 H721 H 1.13057 0.61441 0.29979
 H722 H 1.12964 0.71236 0.23887
 H723 H 1.09381 0.57712 0.23782
 C724 C 0.51426 0.14902 0.38081
 C725 C 0.51246 0.16690 0.33271
 C726 C 0.50945 0.16204 0.25549
 C727 C 0.50747 0.13908 0.22663
 C728 C 0.50943 0.12119 0.27534
 C729 C 0.51307 0.12649 0.35229
 C730 C 0.50698 0.09800 0.24652
 C731 C 0.50158 0.09204 0.17021
 C732 C 0.49964 0.10990 0.12237
 C733 C 0.50289 0.13338 0.15013
 H734 H 0.50781 0.17571 0.21840
 H735 H 0.51451 0.11299 0.39050
 H736 H 0.50824 0.08415 0.28380
 H737 H 0.50126 0.14681 0.11205
 H738 H 0.51668 0.15260 0.44054
 H739 H 0.49557 0.10567 0.06327
 C740 C 0.63349 0.46709 0.33944
 C741 C 0.65928 0.48656 0.32310
 C742 C 0.66370 0.50748 0.27624
 C743 C 0.64272 0.50929 0.24689
 C744 C 0.61679 0.49000 0.26492
 C745 C 0.61239 0.46885 0.31083
 C746 C 0.59583 0.49229 0.23668
 C747 C 0.60059 0.51336 0.18968
 C748 C 0.62643 0.53210 0.17132
 C749 C 0.64731 0.53018 0.20000
 H750 H 0.68356 0.52239 0.26266
 H751 H 0.59267 0.45380 0.32501
 H752 H 0.57592 0.47759 0.25041
 H753 H 0.66706 0.54505 0.18547
 H754 H 0.62971 0.45088 0.37588
 H755 H 0.63055 0.54847 0.13511
 C756 C 0.84840 0.36337 0.36831
 C757 C 0.83385 0.34124 0.32259
 C758 C 0.84310 0.34103 0.25049
 C759 C 0.86697 0.36189 0.22583
 C760 C 0.88138 0.38396 0.27231
 C761 C 0.87175 0.38465 0.34302
 C762 C 0.90546 0.40467 0.24792
 C763 C 0.91566 0.40313 0.17879
 C764 C 0.90131 0.38102 0.13332
 C765 C 0.87699 0.36071 0.15617
 H766 H 0.83198 0.32446 0.21373
 H767 H 0.88264 0.40133 0.37963
 H768 H 0.91653 0.42163 0.28347
 H769 H 0.86625 0.34388 0.11997
 H770 H 0.84223 0.36400 0.42469
 H771 H 0.90885 0.37950 0.07983
   
