data_POSCAR
  _audit_creation_date              2014-09-24
  _audit_creation_method            'ToBaCCo'
  _symmetry_space_group_name_H-M    'P1'
  _symmetry_Int_Tables_number       1
  _symmetry_cell_setting            triclinic
  loop_
  _symmetry_equiv_pos_as_xyz
 x,y,z
_cell_length_a 45.8744
_cell_length_b 46.6680
_cell_length_c 46.0160
_cell_angle_alpha 89.881500
_cell_angle_beta 89.853700
_cell_angle_gamma 90.297700
loop_
  _atom_site_label
  _atom_site_type_symbol
  _atom_site_fract_x
  _atom_site_fract_y
  _atom_site_fract_z
N1 N 0.14728 0.17084 0.22654
 N2 N 0.17196 0.15758 0.23147
 C3 C 0.16890 0.14095 0.25527
 C4 C 0.14035 0.14327 0.26533
 C5 C 0.12738 0.16252 0.24634
 H6 H 0.18582 0.12717 0.26361
 H7 H 0.10532 0.17051 0.24708
 Cu8 Cu 0.20484 0.16124 0.20440
 Cu9 Cu 0.14368 0.19860 0.19538
 Cu10 Cu 0.18211 0.18339 0.13590
 N11 N 0.22764 0.15453 0.16863
 N12 N 0.21765 0.16065 0.14249
 C13 C 0.23652 0.15088 0.12245
 C14 C 0.25994 0.13830 0.13659
 C15 C 0.25350 0.14124 0.16597
 H16 H 0.23379 0.15378 0.09931
 H17 H 0.26592 0.13319 0.18414
 N18 N 0.15594 0.21634 0.13732
 N19 N 0.14199 0.22303 0.16133
 C20 C 0.12713 0.24743 0.15716
 C21 C 0.13159 0.25634 0.12880
 C22 C 0.14982 0.23596 0.11671
 H23 H 0.11373 0.25773 0.17340
 H24 H 0.15870 0.23588 0.09491
 H25 H 0.17313 0.16060 0.17415
 H26 H 0.19339 0.19525 0.17662
 N27 N -0.14293 0.83345 0.22137
 N28 N -0.15730 0.85707 0.21555
 C29 C -0.15186 0.87654 0.23640
 C30 C -0.13320 0.86444 0.25652
 C31 C -0.12804 0.83702 0.24631
 H32 H -0.16105 0.89782 0.23702
 H33 H -0.11382 0.82119 0.25584
 Cu34 Cu -0.18225 0.86040 0.18167
 Cu35 Cu -0.14274 0.80092 0.19482
 Cu36 Cu -0.19364 0.80246 0.13971
 N37 N -0.21552 0.85767 0.15572
 N38 N -0.22046 0.83465 0.14011
 C39 C -0.24549 0.83799 0.12532
 C40 C -0.25694 0.86479 0.13178
 C41 C -0.23705 0.87663 0.15118
 H42 H -0.25431 0.82212 0.11067
 H43 H -0.23835 0.89713 0.16197
 N44 N -0.16456 0.77181 0.14346
 N45 N -0.14591 0.77052 0.16521
 C46 C -0.12883 0.74737 0.16163
 C47 C -0.13688 0.73374 0.13619
 C48 C -0.15957 0.74984 0.12524
 H49 H -0.11092 0.74159 0.17566
 H50 H -0.17135 0.74596 0.10529
 H51 H -0.15660 0.82160 0.15763
 H52 H -0.18549 0.80865 0.18360
 N53 N -0.14480 0.16307 -0.22298
 N54 N -0.15801 0.13912 -0.21545
 C55 C -0.15270 0.11904 -0.23574
 C56 C -0.13553 0.13129 -0.25727
 C57 C -0.13094 0.15923 -0.24843
 H58 H -0.16129 0.09742 -0.23525
 H59 H -0.11815 0.17544 -0.25951
 Cu60 Cu -0.18240 0.13681 -0.18087
 Cu61 Cu -0.14569 0.19708 -0.19888
 Cu62 Cu -0.19948 0.19878 -0.14683
 N63 N -0.21600 0.13998 -0.15529
 N64 N -0.22374 0.16459 -0.14390
 C65 C -0.24870 0.16098 -0.12895
 C66 C -0.25702 0.13237 -0.13066
 C67 C -0.23550 0.11970 -0.14755
 H68 H -0.25932 0.17782 -0.11690
 H69 H -0.23449 0.09765 -0.15460
 N70 N -0.17183 0.23063 -0.15294
 N71 N -0.15060 0.22945 -0.17227
 C72 C -0.13305 0.25237 -0.16896
 C73 C -0.14383 0.26888 -0.14652
 C74 C -0.16854 0.25457 -0.13695
 H75 H -0.11336 0.25628 -0.18134
 H76 H -0.18193 0.26019 -0.11847
 H77 H -0.16122 0.17958 -0.15961
 H78 H -0.18898 0.18748 -0.18866
 N79 N 0.13868 0.84084 -0.21845
 N80 N 0.15914 0.86066 -0.21861
 C81 C 0.15461 0.87860 -0.24108
 C82 C 0.13017 0.86928 -0.25591
 C83 C 0.12058 0.84526 -0.24098
 H84 H 0.16842 0.89664 -0.24669
 H85 H 0.10170 0.83218 -0.24590
 Cu86 Cu 0.19049 0.86006 -0.19032
 Cu87 Cu 0.13666 0.81188 -0.18801
 Cu88 Cu 0.20385 0.79771 -0.15665
 N89 N 0.22107 0.85679 -0.16144
 N90 N 0.22763 0.83196 -0.14973
 C91 C 0.25175 0.83508 -0.13337
 C92 C 0.26048 0.86368 -0.13436
 C93 C 0.24022 0.87672 -0.15238
 H94 H 0.26169 0.81783 -0.12127
 H95 H 0.24011 0.89877 -0.15957
 N96 N 0.17033 0.77082 -0.15471
 N97 N 0.14442 0.77721 -0.16525
 C98 C 0.12530 0.75653 -0.15784
 C99 C 0.13982 0.73594 -0.14198
 C100 C 0.16841 0.74554 -0.14052
 H101 H 0.10242 0.75654 -0.16341
 H102 H 0.18605 0.73566 -0.12868
 H103 H 0.16909 0.82423 -0.15813
 H104 H 0.18009 0.80869 -0.19383
 N105 N 0.16899 1.14577 0.77494
 N106 N 0.14469 1.15953 0.78055
 C107 C 0.12477 1.15280 0.76017
 C108 C 0.13745 1.13406 0.74062
 C109 C 0.16553 1.13013 0.75065
 H110 H 0.10288 1.16124 0.75938
 H111 H 0.18194 1.11630 0.74139
 Cu112 Cu 0.14139 1.18580 0.81324
 Cu113 Cu 0.20236 1.14723 0.80084
 Cu114 Cu 0.20215 1.20118 0.85160
 N115 N 0.14459 1.22001 0.83725
 N116 N 0.16896 1.22684 0.85060
 C117 C 0.16542 1.25190 0.86455
 C118 C 0.13721 1.26106 0.86005
 C119 C 0.12450 1.24027 0.84273
 H120 H 0.18175 1.26217 0.87793
 H121 H 0.10241 1.24004 0.83459
 N122 N 0.23345 1.17267 0.84919
 N123 N 0.23372 1.15222 0.82947
 C124 C 0.25658 1.13496 0.83447
 C125 C 0.27129 1.14489 0.85870
 C126 C 0.25601 1.16890 0.86741
 H127 H 0.26122 1.11568 0.82237
 H128 H 0.26049 1.18217 0.88611
 H129 H 0.18217 1.16343 0.83770
 H130 H 0.19370 1.18993 0.80885
 N131 N 0.82989 0.84847 0.77265
 N132 N 0.85543 0.83691 0.77786
 C133 C 0.87443 0.84531 0.75722
 C134 C 0.85997 0.86284 0.73781
 C135 C 0.83163 0.86422 0.74813
 H136 H 0.89706 0.83902 0.75627
 H137 H 0.81391 0.87657 0.73911
 Cu138 Cu 0.86147 0.81137 0.81059
 Cu139 Cu 0.79694 0.84318 0.79904
 Cu140 Cu 0.81408 0.81287 0.86571
 N141 N 0.86170 0.78205 0.84064
 N142 N 0.84285 0.78251 0.86217
 C143 C 0.84783 0.76013 0.87992
 C144 C 0.87112 0.74475 0.86888
 C145 C 0.87941 0.75938 0.84394
 H146 H 0.83560 0.75563 0.89954
 H147 H 0.89677 0.75377 0.82909
 N148 N 0.77877 0.83552 0.85925
 N149 N 0.77148 0.84597 0.83362
 C150 C 0.74636 0.86057 0.83639
 C151 C 0.73761 0.85939 0.86521
 C152 C 0.75868 0.84325 0.87901
 H153 H 0.73602 0.87238 0.81903
 H154 H 0.75947 0.83765 0.90180
 H155 H 0.82542 0.84266 0.83291
 H156 H 0.80976 0.80708 0.82267
 N157 N 0.15677 0.85240 1.21911
 N158 N 0.14329 0.82846 1.22619
 C159 C 0.12793 0.83252 1.25074
 C160 C 0.13179 0.86065 1.25939
 C161 C 0.15007 0.87273 1.23867
 H162 H 0.11452 0.81639 1.26120
 H163 H 0.15833 0.89447 1.23811
 Cu164 Cu 0.14607 0.79479 1.20189
 Cu165 Cu 0.18205 0.85499 1.18509
 Cu166 Cu 0.20371 0.78904 1.15786
 N167 N 0.14803 0.76497 1.17271
 N168 N 0.17134 0.76176 1.15640
 C169 C 0.16755 0.73881 1.13911
 C170 C 0.14012 0.72747 1.14457
 C171 C 0.12833 0.74464 1.16598
 H172 H 0.18313 0.73158 1.12307
 H173 H 0.10711 0.74239 1.17605
 N174 N 0.22544 0.82482 1.15068
 N175 N 0.21627 0.85007 1.15966
 C176 C 0.23485 0.87043 1.15014
 C177 C 0.25687 0.85737 1.13448
 C178 C 0.25018 0.82841 1.13529
 H179 H 0.23290 0.89301 1.15495
 H180 H 0.26206 0.81125 1.12495
 H181 H 0.17162 0.81806 1.16168
 H182 H 0.19495 0.81462 1.19463
 N183 N 0.84102 1.15044 1.22079
 N184 N 0.85217 1.17538 1.22818
 C185 C 0.86806 1.17228 1.25250
 C186 C 0.86722 1.14371 1.26044
 C187 C 0.85007 1.13039 1.23974
 H188 H 0.87990 1.18934 1.26320
 H189 H 0.84408 1.10795 1.23889
 Cu190 Cu 0.84643 1.20891 1.20411
 Cu191 Cu 0.81501 1.14638 1.18754
 Cu192 Cu 0.78891 1.21064 1.15991
 N193 N 0.84384 1.23699 1.17311
 N194 N 0.82055 1.23875 1.15662
 C195 C 0.82421 1.26040 1.13751
 C196 C 0.85156 1.27229 1.14194
 C197 C 0.86339 1.25692 1.16471
 H198 H 0.80874 1.26616 1.12081
 H199 H 0.88463 1.25995 1.17441
 N200 N 0.76862 1.17380 1.15460
 N201 N 0.77960 1.14916 1.16338
 C202 C 0.76154 1.12779 1.15534
 C203 C 0.73796 1.13960 1.14108
 C204 C 0.74314 1.16883 1.14104
 H205 H 0.76479 1.10539 1.16039
 H206 H 0.72965 1.18524 1.13143
 H207 H 0.82264 1.18376 1.16414
 H208 H 0.79910 1.18585 1.19716
 O209 O 0.54113 0.95021 0.95011
 O210 O 0.57268 0.97381 0.98052
 C211 C 0.56718 0.95645 0.95926
 O212 O 0.46178 1.05287 0.95312
 O213 O 0.42825 1.02598 0.97866
 C214 C 0.43527 1.04580 0.96011
 O215 O 0.54362 1.04957 0.95373
 O216 O 0.57403 1.02123 0.98087
 C217 C 0.56928 1.04077 0.96144
 O218 O 0.45897 0.94797 0.95166
 O219 O 0.42711 0.97675 0.97655
 C220 C 0.43287 0.95656 0.95818
 Zr221 Zr 0.49998 0.96363 0.96611
 O222 O 0.49762 0.96530 0.92019
 O223 O 0.50265 0.91839 0.96458
 Zr224 Zr 0.50181 1.03614 0.96825
 O225 O 0.50041 1.03769 0.92229
 O226 O 0.50574 1.08132 0.97017
 O227 O 0.52699 0.99954 0.96216
 O228 O 0.47582 1.00051 0.96116
 O229 O 0.45607 0.94532 1.05117
 O230 O 0.42567 0.97519 1.02585
 C231 C 0.43035 0.95416 1.04364
 O232 O 0.54029 1.04682 1.05902
 O233 O 0.57233 1.02061 1.03163
 C234 C 0.56650 1.03910 1.05179
 O235 O 0.45837 1.04988 1.05537
 O236 O 0.42681 1.02448 1.02649
 C237 C 0.43231 1.04329 1.04645
 O238 O 0.53817 0.94607 1.05602
 O239 O 0.57134 0.97352 1.03068
 C240 C 0.56462 0.95405 1.04965
 Zr241 Zr 0.49785 0.96140 1.03955
 O242 O 0.49334 0.96087 1.08535
 O243 O 0.49992 0.91610 1.03891
 Zr244 Zr 0.49949 1.03394 1.04167
 O245 O 0.49542 1.03249 1.08748
 O246 O 0.50330 1.07915 1.04279
 Zr247 Zr 0.54298 0.99796 1.00504
 Zr248 Zr 0.45654 0.99967 1.00270
 O249 O 0.47326 0.99797 1.04522
 O250 O 0.52445 0.99703 1.04700
 O251 O 0.47277 0.95746 1.00198
 O252 O 0.52607 1.03976 1.00576
 O253 O 0.52405 0.95682 1.00333
 O254 O 0.47481 1.04117 1.00440
 H255 H 0.46316 1.00114 0.94375
 H256 H 0.53967 1.05630 1.00649
 H257 H 0.45957 0.99766 1.06191
 H258 H 0.53683 0.93977 1.00316
 H259 H 0.48873 1.08858 0.98111
 H260 H 0.48718 1.08709 1.03109
 H261 H 0.51124 1.02020 1.09493
 H262 H 0.51049 0.97088 1.09356
 H263 H 0.48445 0.90919 1.02570
 H264 H 0.48641 0.91061 0.97642
 H265 H 0.51437 0.97688 0.91325
 H266 H 0.51662 1.02584 0.91490
 O267 O -0.05538 0.45876 0.04462
 O268 O -0.02718 0.42729 0.01872
 C269 C -0.04783 0.43305 0.03705
 O270 O -0.04949 0.54165 -0.05599
 O271 O -0.02120 0.57162 -0.02815
 C272 C -0.04059 0.56688 -0.04799
 O273 O -0.05448 0.46118 -0.05530
 O274 O -0.02653 0.42856 -0.03061
 C275 C -0.04684 0.43519 -0.04891
 O276 O -0.04954 0.53906 0.05004
 O277 O -0.02255 0.57029 0.02218
 C278 C -0.04153 0.56471 0.04231
 Zr279 Zr -0.03721 0.49890 0.03238
 O280 O -0.08308 0.50366 0.03202
 O281 O -0.03785 0.49430 0.07816
 Zr282 Zr -0.03642 0.50061 -0.04106
 O283 O -0.08231 0.50487 -0.04214
 O284 O -0.03498 0.49858 -0.08700
 O285 O -0.04326 0.47432 -0.00495
 O286 O -0.04136 0.52472 -0.00383
 O287 O 0.05153 0.53666 0.05003
 O288 O 0.02555 0.56928 0.02321
 C289 C 0.04422 0.56268 0.04319
 O290 O 0.05329 0.45811 -0.05430
 O291 O 0.02346 0.42714 -0.02924
 C292 C 0.04438 0.43245 -0.04744
 O293 O 0.05309 0.53911 -0.05550
 O294 O 0.02664 0.57029 -0.02754
 C295 C 0.04577 0.56481 -0.04751
 O296 O 0.05101 0.45588 0.04639
 O297 O 0.02236 0.42593 0.01897
 C298 C 0.04258 0.43057 0.03801
 Zr299 Zr 0.03656 0.49703 0.03300
 O300 O 0.08269 0.49885 0.03307
 O301 O 0.03606 0.49307 0.07884
 Zr302 Zr 0.03755 0.49869 -0.04041
 O303 O 0.08365 0.50078 -0.04026
 O304 O 0.03754 0.49655 -0.08635
 Zr305 Zr -0.00117 0.45632 -0.00503
 Zr306 Zr 0.00138 0.54128 -0.00317
 O307 O 0.04306 0.52265 -0.00311
 O308 O 0.04194 0.47218 -0.00418
 O309 O 0.00040 0.52332 0.03892
 O310 O -0.00012 0.47499 -0.04668
 O311 O -0.00118 0.47305 0.03743
 O312 O 0.00141 0.52523 -0.04594
 H313 H -0.05807 0.53809 -0.00359
 H314 H -0.00022 0.46232 -0.06393
 H315 H 0.06050 0.53525 -0.00264
 H316 H -0.00186 0.45976 0.05424
 H317 H -0.02382 0.51546 -0.09396
 H318 H 0.02657 0.51329 -0.09359
 H319 H 0.09066 0.48510 -0.02763
 H320 H 0.08984 0.48213 0.02202
 H321 H 0.02469 0.50930 0.08663
 H322 H -0.02510 0.50942 0.08629
 H323 H -0.09125 0.48804 0.02000
 H324 H -0.09064 0.48987 -0.02933
 O325 O 1.04951 -0.05146 0.54040
 O326 O 1.02314 -0.02347 0.57180
 C327 C 1.04232 -0.04298 0.56633
 O328 O 1.05377 0.05088 0.45918
 O329 O 1.02596 0.02507 0.42695
 C330 C 1.04578 0.04398 0.43302
 O331 O 1.05458 0.04787 0.54120
 O332 O 1.02394 0.02352 0.57216
 C333 C 1.04535 0.04101 0.56706
 O334 O 1.04786 -0.05315 0.45829
 O335 O 1.02382 -0.02347 0.42666
 C336 C 1.04141 -0.04436 0.43228
 Zr337 Zr 1.03457 -0.03684 0.49927
 O338 O 1.08061 -0.03847 0.49654
 O339 O 1.03249 -0.08209 0.50221
 Zr340 Zr 1.03793 0.03579 0.49989
 O341 O 1.08400 0.03492 0.49752
 O342 O 1.03883 0.08102 0.50336
 O343 O 1.04162 -0.00098 0.52542
 O344 O 1.04188 -0.00051 0.47455
 O345 O 0.94765 -0.04979 0.45730
 O346 O 0.97448 -0.02163 0.42612
 C347 C 0.95537 -0.04154 0.43141
 O348 O 0.94782 0.05219 0.53998
 O349 O 0.97367 0.02400 0.57157
 C350 C 0.95437 0.04335 0.56597
 O351 O 0.95243 0.05623 0.45800
 O352 O 0.97775 0.02753 0.42655
 C353 C 0.96003 0.04835 0.43197
 O354 O 0.94334 -0.04710 0.53924
 O355 O 0.97282 -0.02290 0.57112
 C356 C 0.95174 -0.04050 0.56537
 Zr357 Zr 0.96093 -0.03398 0.49844
 O358 O 0.91503 -0.03181 0.49444
 O359 O 0.95857 -0.07918 0.50165
 Zr360 Zr 0.96422 0.03872 0.49900
 O361 O 0.91830 0.04028 0.49499
 O362 O 0.96589 0.08388 0.50282
 Zr363 Zr 0.99882 0.00055 0.54205
 Zr364 Zr 0.99996 0.00140 0.45611
 O365 O 0.95754 0.00284 0.47350
 O366 O 0.95650 0.00233 0.52442
 O367 O 0.99787 -0.04068 0.47286
 O368 O 1.00091 0.04224 0.52468
 O369 O 0.99720 -0.04082 0.52401
 O370 O 1.00174 0.04309 0.47361
 H371 H 1.05924 -0.00114 0.46171
 H372 H 1.00133 0.05879 0.53812
 H373 H 0.94076 0.00370 0.46002
 H374 H 0.99637 -0.05768 0.53712
 H375 H 1.02977 0.08894 0.48561
 H376 H 0.97967 0.09102 0.48789
 H377 H 0.90991 0.02887 0.51113
 H378 H 0.90769 -0.02033 0.51092
 H379 H 0.97109 -0.08714 0.48615
 H380 H 1.02068 -0.08902 0.48568
 H381 H 1.08850 -0.02774 0.51331
 H382 H 1.09079 0.02122 0.51243
 C383 C 1.10055 0.10084 0.33638
 C384 C 1.13106 0.10137 0.33418
 C385 C 1.14424 0.11498 0.31023
 C386 C 1.12716 0.12900 0.28905
 C387 C 1.09647 0.12846 0.29205
 C388 C 1.08310 0.11403 0.31531
 C389 C 1.08656 0.08620 0.36125
 C390 C 1.05599 0.08477 0.36283
 C391 C 1.04282 0.07046 0.38626
 C392 C 1.05999 0.05860 0.40846
 C393 C 1.09055 0.06057 0.40690
 C394 C 1.10401 0.07395 0.38299
 C395 C 1.05259 0.11242 0.31781
 C396 C 1.03926 0.09781 0.34103
 C397 C 1.14779 0.08848 0.35613
 C398 C 1.13450 0.07523 0.38024
 H399 H 1.03888 0.12241 0.30159
 H400 H 1.01566 0.09692 0.34205
 H401 H 1.17137 0.08882 0.35478
 H402 H 1.14822 0.06575 0.39677
 H403 H 1.16780 0.11534 0.30875
 H404 H 1.08271 0.13845 0.27591
 H405 H 1.01924 0.06902 0.38761
 H406 H 1.10373 0.05115 0.42393
 C407 C 0.90342 -0.09549 0.33185
 C408 C 0.89552 -0.07860 0.30787
 C409 C 0.88321 -0.09182 0.28344
 C410 C 0.87930 -0.12177 0.28266
 C411 C 0.88754 -0.13842 0.30682
 C412 C 0.89938 -0.12534 0.33162
 C413 C 0.91632 -0.08167 0.35764
 C414 C 0.92374 -0.09846 0.38186
 C415 C 0.93594 -0.08514 0.40636
 C416 C 0.94142 -0.05544 0.40627
 C417 C 0.93397 -0.03897 0.38177
 C418 C 0.92109 -0.05192 0.35750
 C419 C 0.90722 -0.14146 0.35620
 C420 C 0.91905 -0.12823 0.38095
 C421 C 0.90025 -0.04884 0.30874
 C422 C 0.91293 -0.03574 0.33309
 H423 H 0.90414 -0.16449 0.35634
 H424 H 0.92476 -0.14145 0.39944
 H425 H 0.89425 -0.03557 0.29038
 H426 H 0.91628 -0.01276 0.33284
 H427 H 0.87723 -0.07887 0.26483
 H428 H 0.88437 -0.16144 0.30650
 H429 H 0.94186 -0.09788 0.42515
 H430 H 0.93785 -0.01606 0.38182
 C431 C 0.89931 0.09286 0.66602
 C432 C 0.89465 0.07588 0.69087
 C433 C 0.88245 0.08837 0.71575
 C434 C 0.87569 0.11775 0.71604
 C435 C 0.88042 0.13442 0.69092
 C436 C 0.89202 0.12203 0.66574
 C437 C 0.91251 0.07997 0.63994
 C438 C 0.91697 0.09690 0.61501
 C439 C 0.92991 0.08462 0.59038
 C440 C 0.93903 0.05590 0.59100
 C441 C 0.93430 0.03921 0.61613
 C442 C 0.92082 0.05107 0.64060
 C443 C 0.89672 0.13827 0.64040
 C444 C 0.90885 0.12588 0.61540
 C445 C 0.90273 0.04688 0.69047
 C446 C 0.91574 0.03472 0.66579
 H447 H 0.89106 0.16078 0.63991
 H448 H 0.91220 0.13917 0.59634
 H449 H 0.89928 0.03356 0.70949
 H450 H 0.92196 0.01235 0.66648
 H451 H 0.87907 0.07551 0.73511
 H452 H 0.87492 0.15698 0.69092
 H453 H 0.93371 0.09755 0.57114
 H454 H 0.94105 0.01697 0.61658
 C455 C 1.09375 -0.09347 0.66756
 C456 C 1.10458 -0.07557 0.68960
 C457 C 1.11681 -0.08795 0.71449
 C458 C 1.11740 -0.11791 0.71777
 C459 C 1.10601 -0.13556 0.69575
 C460 C 1.09455 -0.12343 0.67033
 C461 C 1.08125 -0.08058 0.64115
 C462 C 1.07114 -0.09844 0.61873
 C463 C 1.05932 -0.08602 0.59361
 C464 C 1.05673 -0.05609 0.59146
 C465 C 1.06673 -0.03850 0.61417
 C466 C 1.07942 -0.05062 0.63892
 C467 C 1.08400 -0.14061 0.64758
 C468 C 1.07269 -0.12833 0.62212
 C469 C 1.10279 -0.04569 0.68636
 C470 C 1.09020 -0.03342 0.66154
 H471 H 1.08459 -0.16375 0.64941
 H472 H 1.06486 -0.14234 0.60506
 H473 H 1.11097 -0.03167 0.70325
 H474 H 1.08897 -0.01028 0.65999
 H475 H 1.12535 -0.07433 0.73156
 H476 H 1.10669 -0.15867 0.69815
 H477 H 1.05124 -0.09952 0.57622
 H478 H 1.06476 -0.01541 0.61241
 C479 C 0.33332 1.09875 1.09848
 C480 C 0.33423 1.10662 1.12787
 C481 C 0.30964 1.11932 1.14061
 C482 C 0.28453 1.12520 1.12389
 C483 C 0.28446 1.11759 1.09416
 C484 C 0.30849 1.10388 1.08156
 C485 C 0.35883 1.08472 1.08518
 C486 C 0.35735 1.07560 1.05617
 C487 C 0.38131 1.06157 1.04389
 C488 C 0.40714 1.05784 1.05991
 C489 C 0.40846 1.06753 1.08885
 C490 C 0.38411 1.08052 1.10178
 C491 C 0.30806 1.09491 1.05242
 C492 C 0.33195 1.08073 1.04003
 C493 C 0.35979 1.10174 1.14390
 C494 C 0.38439 1.08917 1.13101
 H495 H 0.28898 1.09864 1.03914
 H496 H 0.33060 1.07390 1.01758
 H497 H 0.36086 1.10785 1.16658
 H498 H 0.40370 1.08595 1.14411
 H499 H 0.31056 1.12532 1.16330
 H500 H 0.26539 1.12131 1.08089
 H501 H 0.37995 1.05379 1.02177
 H502 H 0.42811 1.06432 1.10145
 C503 C 0.33377 0.90282 0.90472
 C504 C 0.31149 0.91996 0.89340
 C505 C 0.28734 0.90684 0.88030
 C506 C 0.28481 0.87665 0.87909
 C507 C 0.30725 0.85983 0.89127
 C508 C 0.33196 0.87282 0.90363
 C509 C 0.35949 0.91658 0.91802
 C510 C 0.38226 0.89947 0.92857
 C511 C 0.40677 0.91271 0.94100
 C512 C 0.40800 0.94271 0.94371
 C513 C 0.38490 0.95954 0.93332
 C514 C 0.36076 0.94660 0.92004
 C515 C 0.35505 0.85640 0.91469
 C516 C 0.37985 0.86950 0.92675
 C517 C 0.31373 0.94995 0.89546
 C518 C 0.33785 0.96303 0.90875
 H519 H 0.35401 0.83322 0.91387
 H520 H 0.39720 0.85604 0.93490
 H521 H 0.29661 0.96342 0.88687
 H522 H 0.33864 0.98621 0.91007
 H523 H 0.27029 0.92037 0.87176
 H524 H 0.30615 0.83668 0.89039
 H525 H 0.42446 0.89976 0.94931
 H526 H 0.38596 0.98268 0.93529
 C527 C 0.66563 0.90186 1.09956
 C528 C 0.67127 0.87284 1.09418
 C529 C 0.69708 0.86067 1.10474
 C530 C 0.71712 0.87713 1.12113
 C531 C 0.71068 0.90625 1.12652
 C532 C 0.68522 0.91874 1.11554
 C533 C 0.63883 0.91491 1.08795
 C534 C 0.63372 0.94421 1.09250
 C535 C 0.60875 0.95671 1.08055
 C536 C 0.58893 0.94005 1.06453
 C537 C 0.59387 0.91062 1.06070
 C538 C 0.61908 0.89795 1.07212
 C539 C 0.67912 0.94791 1.11998
 C540 C 0.65387 0.96046 1.10852
 C541 C 0.65099 0.85656 1.07826
 C542 C 0.62530 0.86887 1.06751
 H543 H 0.69411 0.96122 1.13220
 H544 H 0.65014 0.98308 1.11218
 H545 H 0.65505 0.83410 1.07401
 H546 H 0.61032 0.85557 1.05526
 H547 H 0.70107 0.83824 1.10046
 H548 H 0.72565 0.91962 1.13864
 H549 H 0.60469 0.97936 1.08357
 H550 H 0.57872 0.89796 1.04794
 C551 C 0.66917 1.09330 0.90779
 C552 C 0.69177 1.07605 0.89719
 C553 C 0.71602 1.08907 0.88389
 C554 C 0.71830 1.11924 0.88203
 C555 C 0.69538 1.13610 0.89324
 C556 C 0.67066 1.12325 0.90569
 C557 C 0.64345 1.07974 0.92142
 C558 C 0.62040 1.09699 0.93114
 C559 C 0.59583 1.08399 0.94372
 C560 C 0.59474 1.05411 0.94744
 C561 C 0.61814 1.03708 0.93804
 C562 C 0.64241 1.04979 0.92453
 C563 C 0.64732 1.13982 0.91595
 C564 C 0.62250 1.12689 0.92826
 C565 C 0.68977 1.04613 0.90032
 C566 C 0.66561 1.03323 0.91397
 H567 H 0.64817 1.16297 0.91433
 H568 H 0.60492 1.14043 0.93578
 H569 H 0.70712 1.03256 0.89233
 H570 H 0.66502 1.01010 0.91613
 H571 H 0.73339 1.07557 0.87590
 H572 H 0.69617 1.15923 0.89166
 H573 H 0.57787 1.09707 0.95125
 H574 H 0.61714 1.01401 0.94078
 C575 C 0.09551 0.33126 0.08935
 C576 C 0.10308 0.33174 0.11889
 C577 C 0.11488 0.30709 0.13162
 C578 C 0.11968 0.28232 0.11490
 C579 C 0.11255 0.28237 0.08516
 C580 C 0.10004 0.30670 0.07234
 C581 C 0.08234 0.35689 0.07606
 C582 C 0.07382 0.35611 0.04678
 C583 C 0.06067 0.38031 0.03447
 C584 C 0.05669 0.40533 0.05106
 C585 C 0.06584 0.40595 0.08021
 C586 C 0.07833 0.38161 0.09296
 C587 C 0.09165 0.30691 0.04298
 C588 C 0.07860 0.33113 0.03046
 C589 C 0.09861 0.35681 0.13512
 C590 C 0.08661 0.38139 0.12232
 H591 H 0.09497 0.28811 0.02963
 H592 H 0.07224 0.33031 0.00781
 H593 H 0.10447 0.35746 0.15790
 H594 H 0.08356 0.40029 0.13560
 H595 H 0.12063 0.30728 0.15445
 H596 H 0.11600 0.26327 0.07226
 H597 H 0.05385 0.37985 0.01192
 H598 H 0.06258 0.42509 0.09310
 C599 C -0.10289 0.34110 -0.10639
 C600 C -0.08566 0.32021 -0.11994
 C601 C -0.09928 0.29696 -0.13358
 C602 C -0.12985 0.29419 -0.13319
 C603 C -0.14683 0.31523 -0.11939
 C604 C -0.13343 0.33894 -0.10617
 C605 C -0.08863 0.36557 -0.09194
 C606 C -0.10583 0.38678 -0.07880
 C607 C -0.09207 0.41006 -0.06515
 C608 C -0.06149 0.41155 -0.06398
 C609 C -0.04461 0.39014 -0.07714
 C610 C -0.05806 0.36720 -0.09143
 C611 C -0.14991 0.36048 -0.09267
 C612 C -0.13634 0.38409 -0.07936
 C613 C -0.05514 0.32281 -0.11931
 C614 C -0.04156 0.34588 -0.10518
 H615 H -0.17349 0.35910 -0.09242
 H616 H -0.14984 0.40024 -0.06924
 H617 H -0.04164 0.30680 -0.12966
 H618 H -0.01797 0.34706 -0.10508
 H619 H -0.08605 0.28064 -0.14379
 H620 H -0.17038 0.31325 -0.11918
 H621 H -0.10500 0.42660 -0.05488
 H622 H -0.02106 0.39169 -0.07665
 C623 C 0.10045 0.66269 -0.10159
 C624 C 0.08520 0.68867 -0.10278
 C625 C 0.09827 0.71244 -0.11620
 C626 C 0.12665 0.71061 -0.12771
 C627 C 0.14194 0.68460 -0.12585
 C628 C 0.12871 0.66036 -0.11317
 C629 C 0.08652 0.63745 -0.08795
 C630 C 0.10132 0.61118 -0.08747
 C631 C 0.08775 0.58716 -0.07472
 C632 C 0.05999 0.58964 -0.06180
 C633 C 0.04579 0.61634 -0.06207
 C634 C 0.05869 0.64014 -0.07555
 C635 C 0.14298 0.63379 -0.11201
 C636 C 0.12944 0.60958 -0.09957
 C637 C 0.05721 0.69039 -0.09048
 C638 C 0.04427 0.66659 -0.07687
 H639 H 0.16473 0.63164 -0.12094
 H640 H 0.14116 0.58949 -0.09927
 H641 H 0.04527 0.71035 -0.09122
 H642 H 0.02272 0.66886 -0.06747
 H643 H 0.08655 0.73253 -0.11727
 H644 H 0.16373 0.68309 -0.13487
 H645 H 0.09898 0.56679 -0.07429
 H646 H 0.02456 0.61856 -0.05197
 C647 C -0.09619 0.66136 0.09643
 C648 C -0.09809 0.66273 0.12686
 C649 C -0.11116 0.68667 0.13984
 C650 C -0.12293 0.70865 0.12254
 C651 C -0.12116 0.70673 0.09205
 C652 C -0.10747 0.68330 0.07888
 C653 C -0.08212 0.63647 0.08266
 C654 C -0.07946 0.63556 0.05226
 C655 C -0.06570 0.61208 0.03930
 C656 C -0.05551 0.58928 0.05647
 C657 C -0.05871 0.59020 0.08685
 C658 C -0.07163 0.61406 0.10014
 C659 C -0.10470 0.68143 0.04852
 C660 C -0.09076 0.65805 0.03543
 C661 C -0.08700 0.64009 0.14364
 C662 C -0.07419 0.61608 0.13050
 H663 H -0.11326 0.69825 0.03475
 H664 H -0.08896 0.65749 0.01195
 H665 H -0.08840 0.64084 0.16714
 H666 H -0.06608 0.59902 0.14424
 H667 H -0.11265 0.68797 0.16332
 H668 H -0.12987 0.72375 0.07863
 H669 H -0.06342 0.61120 0.01584
 H670 H -0.05064 0.57268 0.10003
 C671 C 1.09842 0.09425 0.66649
 C672 C 1.12827 0.10100 0.66597
 C673 C 1.14099 0.11388 0.69041
 C674 C 1.12389 0.12057 0.71492
 C675 C 1.09392 0.11399 0.71493
 C676 C 1.08112 0.10050 0.69089
 C677 C 1.08499 0.08042 0.64099
 C678 C 1.05529 0.07308 0.64182
 C679 C 1.04267 0.05980 0.61762
 C680 C 1.05934 0.05448 0.59247
 C681 C 1.08903 0.06220 0.59185
 C682 C 1.10208 0.07489 0.61625
 C683 C 1.05142 0.09299 0.69079
 C684 C 1.03876 0.07936 0.66673
 C685 C 1.14475 0.09483 0.64098
 C686 C 1.13185 0.08216 0.61648
 H687 H 1.03788 0.09759 0.70951
 H688 H 1.01580 0.07385 0.66756
 H689 H 1.16780 0.09998 0.64029
 H690 H 1.14530 0.07792 0.59761
 H691 H 1.16403 0.11911 0.69019
 H692 H 1.08073 0.11881 0.73386
 H693 H 1.01971 0.05413 0.61813
 H694 H 1.10198 0.05795 0.57260
 C695 C 0.89796 -0.09486 0.66427
 C696 C 0.86865 -0.10361 0.66302
 C697 C 0.85597 -0.11699 0.68739
 C698 C 0.87272 -0.12221 0.71245
 C699 C 0.90207 -0.11336 0.71323
 C700 C 0.91473 -0.09944 0.68933
 C701 C 0.91144 -0.08079 0.63883
 C702 C 0.94059 -0.07166 0.64040
 C703 C 0.95332 -0.05826 0.61629
 C704 C 0.93738 -0.05443 0.59046
 C705 C 0.90823 -0.06392 0.58906
 C706 C 0.89502 -0.07689 0.61339
 C707 C 0.94385 -0.09006 0.69001
 C708 C 0.95653 -0.07626 0.66599
 C709 C 0.85277 -0.09901 0.63734
 C710 C 0.86578 -0.08602 0.61291
 H711 H 0.95695 -0.09338 0.70927
 H712 H 0.97906 -0.06930 0.66739
 H713 H 0.83016 -0.10569 0.63604
 H714 H 0.85281 -0.08305 0.59350
 H715 H 0.83341 -0.12394 0.68664
 H716 H 0.91496 -0.11698 0.73259
 H717 H 0.97588 -0.05127 0.61745
 H718 H 0.89581 -0.06084 0.56929
 C719 C 1.09413 -0.09880 0.33366
 C720 C 1.09949 -0.12839 0.33438
 C721 C 1.11172 -0.14159 0.30992
 C722 C 1.11898 -0.12531 0.28511
 C723 C 1.11381 -0.09561 0.28490
 C724 C 1.10110 -0.08228 0.30903
 C725 C 1.08088 -0.08488 0.35914
 C726 C 1.07487 -0.05543 0.35812
 C727 C 1.06182 -0.04239 0.38218
 C728 C 1.05533 -0.05847 0.40732
 C729 C 1.06191 -0.08786 0.40824
 C730 C 1.07439 -0.10129 0.38400
 C731 C 1.09506 -0.05280 0.30897
 C732 C 1.08202 -0.03962 0.33306
 C733 C 1.09253 -0.14414 0.35954
 C734 C 1.08031 -0.13079 0.38399
 H735 H 1.10030 -0.03984 0.29008
 H736 H 1.07757 -0.01686 0.33209
 H737 H 1.09661 -0.16697 0.36036
 H738 H 1.07532 -0.14370 0.40297
 H739 H 1.11597 -0.16440 0.31037
 H740 H 1.11910 -0.08300 0.26578
 H741 H 1.05704 -0.01966 0.38152
 H742 H 1.05675 -0.10031 0.42752
 C743 C 0.90850 0.10440 0.33328
 C744 C 0.90858 0.09040 0.30627
 C745 C 0.89468 0.10326 0.28255
 C746 C 0.88164 0.13029 0.28554
 C747 C 0.88230 0.14438 0.31254
 C748 C 0.89531 0.13128 0.33668
 C749 C 0.92230 0.09054 0.35851
 C750 C 0.92126 0.10396 0.38580
 C751 C 0.93364 0.09018 0.40993
 C752 C 0.94747 0.06348 0.40668
 C753 C 0.94903 0.05085 0.37891
 C754 C 0.93610 0.06404 0.35488
 C755 C 0.89517 0.14431 0.36418
 C756 C 0.90774 0.13079 0.38838
 C757 C 0.92260 0.06386 0.30353
 C758 C 0.93640 0.05104 0.32738
 H759 H 0.88501 0.16502 0.36710
 H760 H 0.90689 0.14144 0.40926
 H761 H 0.92300 0.05295 0.28278
 H762 H 0.94715 0.03065 0.32432
 H763 H 0.89442 0.09254 0.26167
 H764 H 0.87206 0.16514 0.31487
 H765 H 0.93263 0.10025 0.43111
 H766 H 0.95982 0.03047 0.37601
 C767 C 0.09760 0.33454 -0.10155
 C768 C 0.08186 0.30868 -0.10313
 C769 C 0.09466 0.28489 -0.11654
 C770 C 0.12332 0.28661 -0.12735
 C771 C 0.13896 0.31256 -0.12529
 C772 C 0.12601 0.33678 -0.11278
 C773 C 0.08415 0.35970 -0.08768
 C774 C 0.09952 0.38581 -0.08678
 C775 C 0.08638 0.40980 -0.07391
 C776 C 0.05843 0.40748 -0.06133
 C777 C 0.04372 0.38088 -0.06187
 C778 C 0.05623 0.35709 -0.07543
 C779 C 0.14086 0.36315 -0.11120
 C780 C 0.12775 0.38731 -0.09863
 C781 C 0.05380 0.30705 -0.09092
 C782 C 0.04132 0.33077 -0.07705
 H783 H 0.16276 0.36517 -0.11986
 H784 H 0.13991 0.40726 -0.09799
 H785 H 0.04150 0.28719 -0.09186
 H786 H 0.01974 0.32853 -0.06764
 H787 H 0.08273 0.26482 -0.11780
 H788 H 0.16101 0.31392 -0.13373
 H789 H 0.09803 0.43005 -0.07328
 H790 H 0.02235 0.37871 -0.05200
 C791 C -0.10632 0.33974 0.09463
 C792 C -0.13643 0.34133 0.10000
 C793 C -0.15035 0.31881 0.11490
 C794 C -0.13412 0.29538 0.12516
 C795 C -0.10395 0.29419 0.11970
 C796 C -0.08998 0.31616 0.10412
 C797 C -0.09153 0.36337 0.07910
 C798 C -0.06152 0.36150 0.07329
 C799 C -0.04752 0.38410 0.05869
 C800 C -0.06316 0.40877 0.05080
 C801 C -0.09319 0.41041 0.05688
 C802 C -0.10760 0.38755 0.07072
 C803 C -0.05999 0.31508 0.09795
 C804 C -0.04603 0.33729 0.08262
 C805 C -0.15188 0.36560 0.09073
 C806 C -0.13767 0.38841 0.07652
 H807 H -0.04720 0.29693 0.10505
 H808 H -0.02286 0.33565 0.07832
 H809 H -0.17510 0.36713 0.09478
 H810 H -0.15033 0.40688 0.07004
 H811 H -0.17356 0.31984 0.11926
 H812 H -0.09146 0.27601 0.12728
 H813 H -0.02432 0.38294 0.05428
 H814 H -0.10527 0.42935 0.05065
 C815 C -0.09132 0.66815 -0.09645
 C816 C -0.07428 0.68626 -0.11409
 C817 C -0.08671 0.71127 -0.12548
 C818 C -0.11584 0.71836 -0.11902
 C819 C -0.13250 0.70006 -0.10105
 C820 C -0.12040 0.67483 -0.08985
 C821 C -0.07845 0.64172 -0.08459
 C822 C -0.09560 0.62346 -0.06716
 C823 C -0.08322 0.59838 -0.05590
 C824 C -0.05390 0.59195 -0.06164
 C825 C -0.03696 0.61034 -0.07908
 C826 C -0.04919 0.63530 -0.09077
 C827 C -0.13681 0.65611 -0.07222
 C828 C -0.12464 0.63082 -0.06112
 C829 C -0.04513 0.67904 -0.11990
 C830 C -0.03277 0.65402 -0.10837
 H831 H -0.15927 0.66103 -0.06698
 H832 H -0.13803 0.61698 -0.04761
 H833 H -0.03173 0.69289 -0.13340
 H834 H -0.01020 0.64929 -0.11329
 H835 H -0.07360 0.72537 -0.13898
 H836 H -0.15499 0.70518 -0.09616
 H837 H -0.09605 0.58424 -0.04212
 H838 H -0.01444 0.60508 -0.08362
 C839 C 0.09903 0.65653 0.10242
 C840 C 0.08210 0.67992 0.11132
 C841 C 0.09566 0.70293 0.12549
 C842 C 0.12599 0.70294 0.13006
 C843 C 0.14271 0.67949 0.12073
 C844 C 0.12926 0.65601 0.10720
 C845 C 0.08487 0.63219 0.08766
 C846 C 0.10168 0.60849 0.07935
 C847 C 0.08808 0.58537 0.06538
 C848 C 0.05815 0.58636 0.05897
 C849 C 0.04162 0.61033 0.06719
 C850 C 0.05482 0.63319 0.08194
 C851 C 0.14538 0.63201 0.09841
 C852 C 0.13179 0.60856 0.08489
 C853 C 0.05201 0.67992 0.10566
 C854 C 0.03862 0.65702 0.09104
 H855 H 0.16868 0.63131 0.10207
 H856 H 0.14500 0.59044 0.07849
 H857 H 0.03873 0.69787 0.11239
 H858 H 0.01540 0.65795 0.08688
 H859 H 0.08276 0.72109 0.13239
 H860 H 0.16603 0.67933 0.12446
 H861 H 0.10083 0.56698 0.05879
 H862 H 0.01849 0.61097 0.06241
 C863 C 0.34216 1.10351 0.90198
 C864 C 0.33762 1.09858 0.87224
 C865 C 0.31454 1.11238 0.85815
 C866 C 0.29618 1.13113 0.87355
 C867 C 0.30126 1.13604 0.90333
 C868 C 0.32414 1.12216 0.91770
 C869 C 0.36618 1.08878 0.91696
 C870 C 0.37052 1.09345 0.94681
 C871 C 0.39335 1.07928 0.96095
 C872 C 0.41162 1.06079 0.94534
 C873 C 0.40727 1.05649 0.91548
 C874 C 0.38438 1.07033 0.90115
 C875 C 0.32922 1.12635 0.94751
 C876 C 0.35201 1.11222 0.96183
 C877 C 0.35620 1.07988 0.85719
 C878 C 0.37924 1.06604 0.87140
 H879 H 0.31541 1.14064 0.95989
 H880 H 0.35518 1.11603 0.98483
 H881 H 0.35292 1.07591 0.83424
 H882 H 0.39308 1.05180 0.85900
 H883 H 0.31102 1.10864 0.83520
 H884 H 0.28710 1.15014 0.91550
 H885 H 0.39728 1.08297 0.98383
 H886 H 0.42148 1.04214 0.90361
 C887 C 0.33057 0.89825 1.09456
 C888 C 0.30490 0.91391 1.09901
 C889 C 0.28085 0.90041 1.11210
 C890 C 0.28224 0.87137 1.12039
 C891 C 0.30806 0.85590 1.11545
 C892 C 0.33239 0.86931 1.10273
 C893 C 0.35608 0.91247 1.08124
 C894 C 0.38199 0.89700 1.07741
 C895 C 0.40636 0.91079 1.06522
 C896 C 0.40471 0.93965 1.05644
 C897 C 0.37844 0.95474 1.06009
 C898 C 0.35413 0.94132 1.07276
 C899 C 0.35857 0.85444 1.09823
 C900 C 0.38298 0.86808 1.08587
 C901 C 0.30381 0.94277 1.09032
 C902 C 0.32798 0.95622 1.07730
 H903 H 0.36025 0.83210 1.10445
 H904 H 0.40280 0.85588 1.08291
 H905 H 0.28411 0.95506 1.09360
 H906 H 0.32624 0.97850 1.07091
 H907 H 0.26100 0.91243 1.11554
 H908 H 0.30947 0.83365 1.12203
 H909 H 0.42646 0.89902 1.06224
 H910 H 0.37711 0.97704 1.05359
 C911 C 0.66435 1.09556 1.10533
 C912 C 0.69169 1.08216 1.10534
 C913 C 0.71566 1.09650 1.11752
 C914 C 0.71251 1.12430 1.12891
 C915 C 0.68499 1.13749 1.12855
 C916 C 0.66074 1.12307 1.11706
 C917 C 0.63908 1.08064 1.09247
 C918 C 0.61167 1.09389 1.09280
 C919 C 0.58778 1.07976 1.08027
 C920 C 0.59135 1.05294 1.06674
 C921 C 0.61908 1.04008 1.06644
 C922 C 0.64293 1.05365 1.07966
 C923 C 0.63297 1.13563 1.11699
 C924 C 0.60882 1.12122 1.10522
 C925 C 0.69455 1.05485 1.09285
 C926 C 0.67063 1.04092 1.08005
 H927 H 0.62989 1.15680 1.12609
 H928 H 0.58780 1.13169 1.10555
 H929 H 0.71553 1.04429 1.09269
 H930 H 0.67384 1.02003 1.07036
 H931 H 0.73686 1.08635 1.11751
 H932 H 0.68239 1.15876 1.13756
 H933 H 0.56664 1.09002 1.08027
 H934 H 0.62215 1.01960 1.05585
 C935 C 0.66483 0.90120 0.90492
 C936 C 0.66342 0.89374 0.87540
 C937 C 0.68739 0.88023 0.86237
 C938 C 0.71238 0.87379 0.87882
 C939 C 0.71329 0.88129 0.90844
 C940 C 0.68968 0.89518 0.92155
 C941 C 0.63982 0.91556 0.91871
 C942 C 0.64150 0.92346 0.94809
 C943 C 0.61775 0.93723 0.96106
 C944 C 0.59222 0.94253 0.94505
 C945 C 0.59078 0.93430 0.91566
 C946 C 0.61469 0.92104 0.90228
 C947 C 0.69047 0.90327 0.95094
 C948 C 0.66682 0.91727 0.96396
 C949 C 0.63802 0.89986 0.85958
 C950 C 0.61402 0.91316 0.87282
 H951 H 0.70956 0.89878 0.96397
 H952 H 0.66833 0.92319 0.98667
 H953 H 0.63663 0.89421 0.83680
 H954 H 0.59481 0.91737 0.85988
 H955 H 0.68641 0.87435 0.83963
 H956 H 0.73255 0.87679 0.92121
 H957 H 0.61890 0.94331 0.98377
 H958 H 0.57125 0.93856 0.90318
   
