data_POSCAR
  _audit_creation_date              2014-09-24
  _audit_creation_method            'ToBaCCo'
  _symmetry_space_group_name_H-M    'P1'
  _symmetry_Int_Tables_number       1
  _symmetry_cell_setting            triclinic
  loop_
  _symmetry_equiv_pos_as_xyz
 x,y,z
_cell_length_a 41.7599
_cell_length_b 41.8646
_cell_length_c 41.9199
_cell_angle_alpha 90.036200
_cell_angle_beta 90.051800
_cell_angle_gamma 89.849000
loop_
  _atom_site_label
  _atom_site_type_symbol
  _atom_site_fract_x
  _atom_site_fract_y
  _atom_site_fract_z
C1 C 0.34181 0.34075 1.37808
 C2 C 0.31450 0.35295 1.39330
 C3 C 0.29910 0.38021 1.38133
 C4 C 0.31104 0.39560 1.35414
 C5 C 0.33835 0.38371 1.33863
 C6 C 0.35383 0.35614 1.35061
 C7 C 0.35706 0.31317 1.38958
 C8 C 0.38403 0.30083 1.37391
 C9 C 0.39608 0.31613 1.34672
 C10 C 0.38110 0.34375 1.33491
 C11 C 0.39263 0.35896 1.30744
 C12 C 0.37720 0.38622 1.29553
 C13 C 0.35022 0.39862 1.31110
 H14 H 0.30505 0.34107 1.41427
 H15 H 0.29893 0.41662 1.34490
 H16 H 0.34777 0.30115 1.41053
 H17 H 0.41689 0.30639 1.33461
 H18 H 0.41341 0.34947 1.29512
 H19 H 0.33835 0.41964 1.30160
 C20 C 1.15760 0.66365 0.88598
 C21 C 1.18536 0.65158 0.90062
 C22 C 1.20061 0.62438 0.88826
 C23 C 1.18807 0.60895 0.86133
 C24 C 1.16037 0.62071 0.84643
 C25 C 1.14504 0.64819 0.85875
 C26 C 1.14246 0.69116 0.89780
 C27 C 1.11506 0.70335 0.88267
 C28 C 1.10250 0.68797 0.85573
 C29 C 1.11735 0.66043 0.84360
 C30 C 1.10532 0.64517 0.81632
 C31 C 1.12065 0.61801 0.80408
 C32 C 1.14800 0.60575 0.81913
 H33 H 1.19526 0.66351 0.92138
 H34 H 1.20006 0.58800 0.85179
 H35 H 1.15215 0.70327 0.91856
 H36 H 1.08139 0.69760 0.84403
 H37 H 1.08424 0.65456 0.80440
 H38 H 1.15979 0.58480 0.80938
 C39 C 0.65629 -0.16348 0.11380
 C40 C 0.68397 -0.15147 0.09916
 C41 C 0.69915 -0.12434 0.11152
 C42 C 0.68668 -0.10889 0.13845
 C43 C 0.65905 -0.12057 0.15338
 C44 C 0.64375 -0.14800 0.14105
 C45 C 0.64119 -0.19095 0.10199
 C46 C 0.61388 -0.20308 0.11715
 C47 C 0.60135 -0.18769 0.14411
 C48 C 0.61615 -0.16018 0.15623
 C49 C 0.60416 -0.14492 0.18354
 C50 C 0.61947 -0.11780 0.19577
 C51 C 0.64673 -0.10560 0.18070
 H52 H 0.69391 -0.16335 0.07839
 H53 H 0.69870 -0.08800 0.14793
 H54 H 0.65087 -0.20307 0.08121
 H55 H 0.58030 -0.19728 0.15583
 H56 H 0.58315 -0.15426 0.19548
 H57 H 0.65850 -0.08469 0.19046
 C58 C -0.15906 1.15878 -0.37861
 C59 C -0.18643 1.14675 -0.39382
 C60 C -0.20189 1.11965 -0.38177
 C61 C -0.18997 1.10426 -0.35451
 C62 C -0.16261 1.11597 -0.33902
 C63 C -0.14707 1.14337 -0.35108
 C64 C -0.14373 1.18619 -0.39018
 C65 C -0.11673 1.19833 -0.37452
 C66 C -0.10470 1.18305 -0.34730
 C67 C -0.11974 1.15559 -0.33541
 C68 C -0.10823 1.14040 -0.30787
 C69 C -0.12373 1.11331 -0.29587
 C70 C -0.15076 1.10108 -0.31142
 H71 H -0.19585 1.15864 -0.41484
 H72 H -0.20213 1.08337 -0.34522
 H73 H -0.15293 1.19829 -0.41116
 H74 H -0.08386 1.19272 -0.33526
 H75 H -0.08741 1.14977 -0.29557
 H76 H -0.16268 1.08019 -0.30186
 C77 C 0.65656 0.66364 0.61433
 C78 C 0.68429 0.65153 0.59974
 C79 C 0.69947 0.62434 0.61209
 C80 C 0.68695 0.60892 0.63896
 C81 C 0.65927 0.62070 0.65384
 C82 C 0.64397 0.64821 0.64153
 C83 C 0.64146 0.69118 0.60253
 C84 C 0.61409 0.70342 0.61764
 C85 C 0.60151 0.68806 0.64454
 C86 C 0.61632 0.66049 0.65665
 C87 C 0.60427 0.64525 0.68391
 C88 C 0.61958 0.61807 0.69613
 C89 C 0.64690 0.60577 0.68110
 H90 H 0.69427 0.66339 0.57902
 H91 H 0.69897 0.58797 0.64843
 H92 H 0.65117 0.70327 0.58180
 H93 H 0.58042 0.69773 0.65622
 H94 H 0.58322 0.65467 0.69582
 H95 H 0.65867 0.58480 0.69085
 C96 C 0.84127 0.34055 0.12187
 C97 C 0.81394 0.35279 0.10668
 C98 C 0.79857 0.38005 0.11874
 C99 C 0.81058 0.39538 0.14597
 C100 C 0.83791 0.38345 0.16145
 C101 C 0.85335 0.35589 0.14938
 C102 C 0.85649 0.31298 0.11028
 C103 C 0.88349 0.30060 0.12591
 C104 C 0.89559 0.31585 0.15315
 C105 C 0.88065 0.34346 0.16504
 C106 C 0.89224 0.35861 0.19256
 C107 C 0.87685 0.38586 0.20455
 C108 C 0.84984 0.39829 0.18902
 H109 H 0.80445 0.34095 0.08567
 H110 H 0.79850 0.41639 0.15527
 H111 H 0.84715 0.30100 0.08929
 H112 H 0.91642 0.30608 0.16522
 H113 H 0.91304 0.34908 0.20484
 H114 H 0.83801 0.41931 0.19858
 C115 C 0.34044 0.15883 0.87842
 C116 C 0.31315 0.14671 0.89362
 C117 C 0.29774 0.11957 0.88153
 C118 C 0.30965 0.10422 0.85424
 C119 C 0.33693 0.11604 0.83875
 C120 C 0.35241 0.14348 0.85085
 C121 C 0.35570 0.18629 0.89003
 C122 C 0.38263 0.19853 0.87438
 C123 C 0.39464 0.18329 0.84712
 C124 C 0.37967 0.15580 0.83519
 C125 C 0.39117 0.14065 0.80763
 C126 C 0.37573 0.11352 0.79559
 C127 C 0.34877 0.10119 0.81112
 H128 H 0.30373 0.15856 0.91467
 H129 H 0.29753 0.08330 0.84492
 H130 H 0.34651 0.19835 0.91103
 H131 H 0.41542 0.19304 0.83509
 H132 H 0.41194 0.15010 0.79534
 H133 H 0.33691 0.08026 0.80153
 C134 C 0.15620 0.83621 0.38618
 C135 C 0.18392 0.84825 0.40080
 C136 C 0.19903 0.87539 0.38844
 C137 C 0.18647 0.89081 0.36153
 C138 C 0.15882 0.87909 0.34663
 C139 C 0.14358 0.85165 0.35895
 C140 C 0.14116 0.80873 0.39799
 C141 C 0.11383 0.79656 0.38285
 C142 C 0.10121 0.81192 0.35591
 C143 C 0.11595 0.83943 0.34379
 C144 C 0.10387 0.85467 0.31649
 C145 C 0.11912 0.88179 0.30426
 C146 C 0.14641 0.89402 0.31932
 H147 H 0.19393 0.83640 0.42155
 H148 H 0.19844 0.91171 0.35205
 H149 H 0.15091 0.79663 0.41875
 H150 H 0.08014 0.80230 0.34420
 H151 H 0.08284 0.84530 0.30456
 H152 H 0.15814 0.91494 0.30957
 Zn153 Zn 0.00699 1.04100 -0.01435
 Zn154 Zn -0.02399 0.97687 -0.02076
 Zn155 Zn 0.03968 0.98330 0.01145
 Zn156 Zn -0.01892 1.00845 0.04315
 O157 O 0.00089 1.00236 0.00483
 O158 O -0.01285 1.04371 -0.05198
 O159 O -0.00401 0.94049 -0.03222
 O160 O 0.07257 1.00644 -0.00313
 O161 O -0.03560 0.99635 -0.05723
 O162 O 0.04825 1.04923 -0.02239
 O163 O 0.04282 0.94559 -0.00812
 O164 O 0.00399 0.99377 0.07619
 O165 O -0.06062 0.96499 -0.00170
 O166 O 0.04767 0.97544 0.05267
 O167 O -0.05663 0.98859 0.04534
 O168 O -0.02704 1.04963 0.05149
 O169 O -0.00772 1.07385 0.00886
 C170 C -0.02977 1.02417 -0.06782
 C171 C 0.02372 0.92981 -0.02559
 C172 C 0.07362 1.03332 -0.01707
 C173 C 0.03126 0.98038 0.07767
 C174 C -0.07189 0.97120 0.02576
 C175 C -0.02159 1.07494 0.03578
 Zn176 Zn 0.48105 0.00857 0.45676
 Zn177 Zn 0.47593 -0.02288 0.52067
 Zn178 Zn 0.53961 -0.01659 0.48861
 Zn179 Zn 0.50697 0.04119 0.51433
 O180 O 0.50084 0.00253 0.49514
 O181 O 0.44332 -0.01128 0.45448
 O182 O 0.49584 -0.05925 0.53220
 O183 O 0.54762 -0.02450 0.44741
 O184 O 0.43932 -0.03476 0.50154
 O185 O 0.50399 -0.00616 0.42378
 O186 O 0.54269 -0.05428 0.50820
 O187 O 0.54824 0.04939 0.52245
 O188 O 0.46430 -0.00333 0.55709
 O189 O 0.57251 0.00654 0.50325
 O190 O 0.48710 0.04400 0.55192
 O191 O 0.49232 0.07401 0.49106
 O192 O 0.47297 0.04975 0.44839
 C193 C 0.42805 -0.02863 0.47405
 C194 C 0.52356 -0.06998 0.52565
 C195 C 0.53125 -0.01956 0.42236
 C196 C 0.57359 0.03345 0.51716
 C197 C 0.47014 0.02449 0.56770
 C198 C 0.47847 0.07508 0.46411
 Zn199 Zn 0.98206 0.49148 0.54326
 Zn200 Zn 1.00803 0.45889 0.48567
 Zn201 Zn 0.97662 0.52295 0.47933
 Zn202 Zn 1.04041 0.51664 0.51141
 O203 O 1.00173 0.49753 0.50487
 O204 O 0.97411 0.45031 0.55156
 O205 O 0.98817 0.45612 0.44806
 O206 O 0.93996 0.53482 0.49849
 O207 O 0.99349 0.42607 0.50887
 O208 O 0.94426 0.51136 0.54556
 O209 O 0.96504 0.50341 0.44287
 O210 O 1.04324 0.55433 0.49185
 O211 O 1.04932 0.45066 0.47759
 O212 O 0.99633 0.55934 0.46784
 O213 O 1.07340 0.49352 0.49675
 O214 O 1.04847 0.52453 0.55261
 O215 O 1.00500 0.50616 0.57627
 C216 C 0.97964 0.42500 0.53579
 C217 C 0.97107 0.47560 0.43226
 C218 C 0.92882 0.52869 0.52600
 C219 C 1.02400 0.57006 0.47442
 C220 C 1.07460 0.46660 0.48285
 C221 C 1.03219 0.51957 0.57767
 Zn222 Zn 0.48141 0.49179 0.95685
 Zn223 Zn 0.53985 0.51690 0.98871
 Zn224 Zn 0.47611 0.52333 1.02078
 Zn225 Zn 0.50745 0.45922 1.01441
 O226 O 0.50115 0.49786 0.99523
 O227 O 0.50430 0.50641 0.92385
 O228 O 0.54276 0.55461 1.00827
 O229 O 0.43943 0.53524 1.00162
 O230 O 0.54785 0.52474 0.94751
 O231 O 0.44363 0.51172 0.95455
 O232 O 0.49589 0.55971 1.03227
 O233 O 0.48767 0.45652 1.05201
 O234 O 0.57285 0.49376 1.00337
 O235 O 0.46459 0.50384 1.05724
 O236 O 0.54875 0.45095 1.02250
 O237 O 0.49283 0.42640 0.99121
 O238 O 0.47339 0.45063 0.94853
 C239 C 0.53151 0.51978 0.92245
 C240 C 0.52357 0.57039 1.02569
 C241 C 0.42824 0.52909 0.97410
 C242 C 0.47062 0.47603 1.06783
 C243 C 0.57404 0.46685 1.01726
 C244 C 0.47893 0.42532 0.96429
 C245 C 1.16333 0.46055 0.46440
 C246 C 1.16474 0.43149 0.44795
 C247 C 1.13692 0.41338 0.44389
 C248 C 1.10768 0.42449 0.45578
 C249 C 1.27199 0.39126 0.39570
 C250 C 1.13411 0.47172 0.47634
 C251 C 1.19450 0.42065 0.43439
 C252 C 1.21918 0.41154 0.42255
 C253 C 1.24778 0.40073 0.40822
 C254 C 1.10588 0.45394 0.47190
 H255 H 1.18472 0.47477 0.46765
 H256 H 1.13775 0.39086 0.43116
 H257 H 1.08643 0.41022 0.45194
 H258 H 1.13356 0.49449 0.48860
 C259 C 0.34943 0.57465 0.97559
 C260 C 0.33724 0.56769 0.94525
 C261 C 0.35468 0.54808 0.92454
 C262 C 0.38420 0.53550 0.93399
 C263 C 0.22816 0.61331 0.90182
 C264 C 0.37902 0.56206 0.98514
 C265 C 0.30701 0.58074 0.93497
 C266 C 0.28191 0.59131 0.92539
 C267 C 0.25278 0.60332 0.91312
 C268 C 0.39677 0.54237 0.96439
 H269 H 0.33612 0.58984 0.99181
 H270 H 0.34549 0.54255 0.90099
 H271 H 0.39719 0.52044 0.91742
 H272 H 0.38802 0.56781 1.00868
 C273 C -0.14550 0.95235 0.07503
 C274 C -0.16280 0.93273 0.05426
 C275 C -0.15050 0.92573 0.02398
 C276 C -0.12094 0.93827 0.01455
 C277 C -0.27180 0.88728 0.09722
 C278 C -0.11601 0.96488 0.06569
 C279 C -0.19300 0.91974 0.06440
 C280 C -0.21809 0.90921 0.07388
 C281 C -0.24719 0.89724 0.08602
 C282 C -0.10333 0.95796 0.03536
 H283 H -0.15478 0.95791 0.09852
 H284 H -0.16370 0.91054 0.00772
 H285 H -0.11186 0.93248 -0.00895
 H286 H -0.10313 0.97995 0.08230
 C287 C 0.66236 0.03957 0.53542
 C288 C 0.66367 0.06863 0.55187
 C289 C 0.63575 0.08671 0.55602
 C290 C 0.60652 0.07557 0.54420
 C291 C 0.77097 0.10875 0.60387
 C292 C 0.63316 0.02838 0.52356
 C293 C 0.69342 0.07949 0.56535
 C294 C 0.71811 0.08859 0.57713
 C295 C 0.74674 0.09936 0.59138
 C296 C 0.60483 0.04613 0.52807
 H297 H 0.68383 0.02538 0.53210
 H298 H 0.63649 0.10923 0.56876
 H299 H 0.58520 0.08982 0.54810
 H300 H 0.63270 0.00562 0.51128
 C301 C 0.44156 0.13731 0.40949
 C302 C 0.44637 0.16533 0.42705
 C303 C 0.46235 0.16398 0.45638
 C304 C 0.47319 0.13468 0.46829
 C305 C 0.39802 0.27346 0.38473
 C306 C 0.45236 0.10799 0.42134
 C307 C 0.43407 0.19527 0.41537
 C308 C 0.42323 0.22014 0.40565
 C309 C 0.40991 0.24902 0.39435
 C310 C 0.46812 0.10630 0.45099
 H311 H 0.42917 0.13808 0.38679
 H312 H 0.46614 0.18552 0.47020
 H313 H 0.48522 0.13423 0.49118
 H314 H 0.44807 0.08663 0.40741
 C315 C 0.94244 0.36283 0.59000
 C316 C 0.94716 0.33486 0.57231
 C317 C 0.96323 0.33620 0.54307
 C318 C 0.97424 0.36545 0.53136
 C319 C 0.89814 0.22710 0.61401
 C320 C 0.95342 0.39211 0.57836
 C321 C 0.93463 0.30500 0.58375
 C322 C 0.92361 0.28021 0.59330
 C323 C 0.91013 0.25144 0.60446
 C324 C 0.96925 0.39379 0.54878
 H325 H 0.92998 0.36207 0.61264
 H326 H 0.96696 0.31469 0.52915
 H327 H 0.98632 0.36591 0.50852
 H328 H 0.94917 0.41344 0.59236
 C329 C 0.02443 0.85069 -0.07008
 C330 C 0.05500 0.83915 -0.06247
 C331 C 0.07514 0.85714 -0.04281
 C332 C 0.06490 0.88655 -0.03083
 C333 C 0.10118 0.73070 -0.10629
 C334 C 0.01408 0.88019 -0.05808
 C335 C 0.06613 0.80905 -0.07490
 C336 C 0.07641 0.78408 -0.08499
 C337 C 0.08940 0.75515 -0.09653
 C338 C 0.03425 0.89848 -0.03834
 H339 H 0.00865 0.83695 -0.08531
 H340 H 0.09886 0.84846 -0.03679
 H341 H 0.08105 0.89996 -0.01571
 H342 H -0.00963 0.88868 -0.06431
 C343 C 0.57459 0.64309 1.04291
 C344 C 0.55434 0.66111 1.06249
 C345 C 0.52383 0.64958 1.07006
 C346 C 0.51365 0.62005 1.05810
 C347 C 0.60007 0.76959 1.10614
 C348 C 0.56451 0.61366 1.03096
 C349 C 0.56530 0.69123 1.07488
 C350 C 0.57547 0.71621 1.08492
 C351 C 0.58836 0.74515 1.09642
 C352 C 0.53393 0.60174 1.03843
 H353 H 0.59825 0.65177 1.03692
 H354 H 0.50798 0.66334 1.08524
 H355 H 0.48998 0.61157 1.06429
 H356 H 0.58073 0.60023 1.01589
 C357 C 0.42608 0.47659 1.14685
 C358 C 0.43301 0.44594 1.15834
 C359 C 0.45224 0.42532 1.14035
 C360 C 0.46448 0.43518 1.11100
 C361 C 0.38867 0.40091 1.26669
 C362 C 0.43833 0.48655 1.11741
 C363 C 0.42033 0.43522 1.18840
 C364 C 0.41008 0.42525 1.21335
 C365 C 0.39842 0.41254 1.24226
 C366 C 0.45765 0.46590 1.09912
 H367 H 0.41118 0.49274 1.16059
 H368 H 0.45774 0.40154 1.14900
 H369 H 0.47926 0.41867 1.09759
 H370 H 0.43263 0.51033 1.10896
 C371 C 0.58504 -0.05698 0.35973
 C372 C 0.56664 -0.05301 0.33210
 C373 C 0.53708 -0.03728 0.33379
 C374 C 0.52576 -0.02590 0.36307
 C375 C 0.60770 -0.10298 0.22446
 C376 C 0.57378 -0.04564 0.38903
 C377 C 0.57772 -0.06589 0.30225
 C378 C 0.58705 -0.07718 0.27747
 C379 C 0.59809 -0.09090 0.24875
 C380 C 0.54388 -0.03018 0.39108
 H381 H 0.60794 -0.06916 0.35870
 H382 H 0.52262 -0.03411 0.31254
 H383 H 0.50265 -0.01413 0.36381
 H384 H 0.58832 -0.04934 0.41011
 C385 C -0.04860 1.07474 -0.14042
 C386 C -0.06766 1.05403 -0.15841
 C387 C -0.07433 1.02338 -0.14689
 C388 C -0.06199 1.01350 -0.11742
 C389 C -0.11226 1.09866 -0.26696
 C390 C -0.03627 1.06496 -0.11103
 C391 C -0.08042 1.06464 -0.18851
 C392 C -0.09074 1.07451 -0.21350
 C393 C -0.10248 1.08711 -0.24248
 C394 C -0.04284 1.03423 -0.09913
 H395 H -0.04330 1.09852 -0.14909
 H396 H -0.08909 1.00716 -0.16063
 H397 H -0.06749 0.98971 -0.10895
 H398 H -0.02162 1.08153 -0.09761
 C399 C 1.08595 0.55701 0.64025
 C400 C 1.06763 0.55308 0.66790
 C401 C 1.03814 0.53736 0.66624
 C402 C 1.02681 0.52596 0.63698
 C403 C 1.10883 0.60318 0.77542
 C404 C 1.07468 0.54564 0.61097
 C405 C 1.07873 0.56601 0.69773
 C406 C 1.08809 0.57732 0.72248
 C407 C 1.09917 0.59107 0.75117
 C408 C 1.04485 0.53020 0.60895
 H409 H 1.10880 0.56918 0.64126
 H410 H 1.02375 0.53424 0.68750
 H411 H 1.00375 0.51420 0.63626
 H412 H 1.08916 0.54931 0.58988
 C413 C 0.84991 0.57404 0.52440
 C414 C 0.83776 0.56711 0.55473
 C415 C 0.85526 0.54758 0.57548
 C416 C 0.88481 0.53507 0.56607
 C417 C 0.72857 0.61262 0.59783
 C418 C 0.87953 0.56152 0.51490
 C419 C 0.80750 0.58009 0.56495
 C420 C 0.78237 0.59062 0.57447
 C421 C 0.75322 0.60262 0.58663
 C422 C 0.89734 0.54191 0.53568
 H423 H 0.83655 0.58916 0.50816
 H424 H 0.84610 0.54208 0.59902
 H425 H 0.89785 0.52007 0.58267
 H426 H 0.88849 0.56724 0.49136
 C427 C 0.63634 0.41355 1.05620
 C428 C 0.66419 0.43161 1.05217
 C429 C 0.66279 0.46068 1.03576
 C430 C 0.63357 0.47189 1.02382
 C431 C 0.77146 0.39115 1.10438
 C432 C 0.60710 0.42470 1.04430
 C433 C 0.69395 0.42072 1.06573
 C434 C 0.71863 0.41156 1.07756
 C435 C 0.74725 0.40068 1.09187
 C436 C 0.60532 0.45415 1.02821
 H437 H 0.63715 0.39102 1.06890
 H438 H 0.68421 0.47487 1.03254
 H439 H 0.63304 0.49466 1.01158
 H440 H 0.58584 0.41046 1.04811
 C441 C 0.13567 1.08651 -0.05601
 C442 C 0.16360 1.06844 -0.05189
 C443 C 0.16234 1.03942 -0.03540
 C444 C 0.13317 1.02825 -0.02349
 C445 C 0.27067 1.10858 -0.10410
 C446 C 0.10648 1.07541 -0.04413
 C447 C 0.19330 1.07926 -0.06544
 C448 C 0.21794 1.08836 -0.07727
 C449 C 0.24650 1.09914 -0.09158
 C450 C 0.10484 1.04599 -0.02798
 H451 H 0.13637 1.10900 -0.06876
 H452 H 0.18382 1.02522 -0.03211
 H453 H 0.13275 1.00551 -0.01120
 H454 H 0.08515 1.08965 -0.04802
 C455 C 0.35443 -0.04766 0.42472
 C456 C 0.33715 -0.06722 0.44552
 C457 C 0.34947 -0.07411 0.47582
 C458 C 0.37903 -0.06153 0.48526
 C459 C 0.22811 -0.11294 0.40271
 C460 C 0.38392 -0.03508 0.43406
 C461 C 0.30695 -0.08028 0.43538
 C462 C 0.28186 -0.09087 0.42594
 C463 C 0.25273 -0.10292 0.41386
 C464 C 0.39662 -0.04189 0.46443
 H465 H 0.34513 -0.04219 0.40120
 H466 H 0.33629 -0.08926 0.49210
 H467 H 0.38813 -0.06723 0.50878
 H468 H 0.39679 -0.02007 0.41744
 C469 C 0.52399 -0.14902 0.57017
 C470 C 0.55454 -0.16066 0.56267
 C471 C 0.57477 -0.14275 0.54308
 C472 C 0.56463 -0.11333 0.53105
 C473 C 0.60028 -0.26920 0.60661
 C474 C 0.51374 -0.11952 0.55813
 C475 C 0.56555 -0.19077 0.57514
 C476 C 0.57572 -0.21577 0.58526
 C477 C 0.58859 -0.24473 0.59684
 C478 C 0.53400 -0.10131 0.53845
 H479 H 0.50815 -0.16269 0.58535
 H480 H 0.59847 -0.15151 0.53715
 H481 H 0.58084 -0.09999 0.51598
 H482 H 0.49005 -0.11095 0.56426
 C483 C 1.02408 0.64917 0.43002
 C484 C 1.05459 0.66076 0.43759
 C485 C 1.07489 0.64281 0.45718
 C486 C 1.06487 0.61338 0.46915
 C487 C 1.10007 0.76923 0.39386
 C488 C 1.01396 0.61966 0.44200
 C489 C 1.06548 0.69088 0.42518
 C490 C 1.07560 0.71585 0.41511
 C491 C 1.08842 0.74479 0.40360
 C492 C 1.03429 0.60141 0.46168
 H493 H 1.00818 0.66289 0.41483
 H494 H 1.09856 0.65153 0.46317
 H495 H 1.08114 0.60000 0.48422
 H496 H 0.99029 0.61113 0.43581
 C497 C -0.05870 1.13719 0.09026
 C498 C -0.05397 1.16519 0.07269
 C499 C -0.03797 1.16382 0.04340
 C500 C -0.02703 1.13453 0.03154
 C501 C -0.10254 1.27325 0.11501
 C502 C -0.04780 1.10788 0.07847
 C503 C -0.06636 1.19512 0.08433
 C504 C -0.07726 1.21997 0.09403
 C505 C -0.09063 1.24883 0.10535
 C506 C -0.03202 1.10617 0.04885
 H507 H -0.07110 1.13797 0.11294
 H508 H -0.03423 1.18535 0.02957
 H509 H -0.01499 1.13407 0.00868
 H510 H -0.05203 1.08653 0.09240
 C511 C 0.44161 0.36313 0.91005
 C512 C 0.44637 0.33517 0.92772
 C513 C 0.46250 0.33652 0.95696
 C514 C 0.47353 0.36578 0.96869
 C515 C 0.39744 0.22733 0.88589
 C516 C 0.45260 0.39241 0.92172
 C517 C 0.43385 0.30529 0.91624
 C518 C 0.42285 0.28048 0.90667
 C519 C 0.40939 0.25169 0.89548
 C520 C 0.46850 0.39411 0.95129
 H521 H 0.42910 0.36236 0.88741
 H522 H 0.46626 0.31502 0.97086
 H523 H 0.48566 0.36625 0.99153
 H524 H 0.44833 0.41374 0.90773
 C525 C 0.58516 0.55714 0.85988
 C526 C 0.56677 0.55322 0.83224
 C527 C 0.53727 0.53752 0.83390
 C528 C 0.52600 0.52614 0.86315
 C529 C 0.60776 0.60326 0.72476
 C530 C 0.57395 0.54579 0.88915
 C531 C 0.57780 0.56613 0.80241
 C532 C 0.58710 0.57744 0.77768
 C533 C 0.59814 0.59118 0.74900
 C534 C 0.54411 0.53037 0.89118
 H535 H 0.60801 0.56929 0.85886
 H536 H 0.52282 0.53440 0.81265
 H537 H 0.50293 0.51440 0.86388
 H538 H 0.58848 0.54946 0.91024
 C539 C 0.45117 0.07512 0.64027
 C540 C 0.43206 0.05442 0.65817
 C541 C 0.42542 0.02376 0.64660
 C542 C 0.43782 0.01386 0.61717
 C543 C 0.38722 0.09892 0.76666
 C544 C 0.46356 0.06532 0.61091
 C545 C 0.41924 0.06503 0.68824
 C546 C 0.40885 0.07487 0.71321
 C547 C 0.39705 0.08741 0.74218
 C548 C 0.45702 0.03458 0.59897
 H549 H 0.45645 0.09890 0.64898
 H550 H 0.41063 0.00755 0.66027
 H551 H 0.43234 -0.00993 0.60867
 H552 H 0.47824 0.08188 0.59757
 C553 C 0.08490 0.94286 0.14041
 C554 C 0.06643 0.94678 0.16797
 C555 C 0.03689 0.96254 0.16622
 C556 C 0.02565 0.97398 0.13693
 C557 C 0.10730 0.89659 0.27558
 C558 C 0.07372 0.95426 0.11110
 C559 C 0.07742 0.93381 0.19783
 C560 C 0.08669 0.92246 0.22260
 C561 C 0.09769 0.90869 0.25131
 C562 C 0.04383 0.96974 0.10898
 H563 H 0.10779 0.93066 0.14150
 H564 H 0.02238 0.96567 0.18741
 H565 H 0.00255 0.98577 0.13613
 H566 H 0.08831 0.95059 0.09007
 C567 C 0.95248 0.42485 0.35972
 C568 C 0.93317 0.44544 0.34178
 C569 C 0.92627 0.47610 0.35330
 C570 C 0.93862 0.48608 0.38273
 C571 C 0.88841 0.40050 0.23342
 C572 C 0.96481 0.43473 0.38907
 C573 C 0.92038 0.43472 0.31173
 C574 C 0.91003 0.42476 0.28678
 C575 C 0.89825 0.41209 0.25786
 C576 C 0.95801 0.46545 0.40097
 H577 H 0.95795 0.40106 0.35105
 H578 H 0.91132 0.49224 0.33961
 H579 H 0.93293 0.50986 0.39121
 H580 H 0.97964 0.41823 0.40244
   
