data_POSCAR
  _audit_creation_date              2014-09-24
  _audit_creation_method            'ToBaCCo'
  _symmetry_space_group_name_H-M    'P1'
  _symmetry_Int_Tables_number       1
  _symmetry_cell_setting            triclinic
  loop_
  _symmetry_equiv_pos_as_xyz
 x,y,z
_cell_length_a 33.3542
_cell_length_b 33.3532
_cell_length_c 33.2590
_cell_angle_alpha 90.090300
_cell_angle_beta 90.085000
_cell_angle_gamma 120.173600
loop_
  _atom_site_label
  _atom_site_type_symbol
  _atom_site_fract_x
  _atom_site_fract_y
  _atom_site_fract_z
C1 C 0.52246 0.07039 0.05487
 H2 H 0.55549 0.07161 0.05460
 C3 C 0.51668 0.10177 0.07843
 H4 H 0.54528 0.12718 0.09651
 C5 C 0.44511 0.03651 0.03090
 H6 H 0.41762 0.01160 0.01178
 C7 C 0.43787 0.06734 0.05404
 H8 H 0.40468 0.06583 0.05297
 N9 N 0.48685 0.03842 0.03194
 C10 C 0.51976 -0.07127 0.01295
 H11 H 0.51984 -0.07246 -0.01956
 C12 C 0.52656 -0.10282 0.03525
 H13 H 0.53207 -0.12834 0.01994
 C14 C 0.51082 -0.03769 0.07275
 H15 H 0.50361 -0.01302 0.08725
 C16 C 0.51745 -0.06862 0.09617
 H17 H 0.51575 -0.06736 0.12864
 Zn18 Zn 0.49939 -0.00063 -0.00049
 N19 N 0.51223 -0.03946 0.03190
 C20 C 0.59101 0.03702 -0.03180
 N21 N 0.55100 0.03857 -0.03286
 C22 C 0.54721 0.07030 -0.05573
 C23 C 0.58438 0.10177 -0.07922
 C24 C 0.62910 0.06796 -0.05488
 C25 C 0.40820 -0.07179 -0.01405
 C26 C 0.36973 -0.10365 -0.03637
 C27 C 0.41302 -0.06944 -0.09729
 C28 C 0.45066 -0.03824 -0.07379
 N29 N 0.44756 -0.03986 -0.03295
 H30 H 0.59372 0.01230 -0.01273
 H31 H 0.51526 0.07124 -0.05546
 H32 H 0.58107 0.12698 -0.09725
 H33 H 0.66093 0.06673 -0.05379
 H34 H 0.40702 -0.07284 0.01846
 H35 H 0.33875 -0.12919 -0.02090
 H36 H 0.41613 -0.06811 -0.12977
 H37 H 0.48257 -0.01345 -0.08824
 C38 C 0.52520 -0.10157 0.07724
 C39 C 0.47404 0.10026 0.07797
 C40 C 0.37222 -0.10260 -0.07841
 C41 C 0.62570 0.10063 -0.07875
 C42 C -0.07068 0.47729 0.61167
 H43 H -0.07189 0.44427 0.61195
 C44 C -0.10206 0.48306 0.58811
 H45 H -0.12747 0.45445 0.57004
 C46 C -0.03681 0.55465 0.63563
 H47 H -0.01190 0.58216 0.65474
 C48 C -0.06764 0.56188 0.61248
 H49 H -0.06614 0.59507 0.61355
 N50 N -0.03871 0.51292 0.63459
 C51 C 0.07100 0.48004 0.65358
 H52 H 0.07220 0.47997 0.68609
 C53 C 0.10256 0.47324 0.63127
 H54 H 0.12807 0.46774 0.64659
 C55 C 0.03742 0.48896 0.59378
 H56 H 0.01275 0.49617 0.57928
 C57 C 0.06835 0.48233 0.57036
 H58 H 0.06709 0.48402 0.53789
 Zn59 Zn 0.00035 0.50040 0.66702
 N60 N 0.03919 0.48756 0.63463
 C61 C -0.03727 0.40878 0.69834
 N62 N -0.03883 0.44879 0.69940
 C63 C -0.07056 0.45258 0.72227
 C64 C -0.10202 0.41541 0.74577
 C65 C -0.06820 0.37069 0.72142
 C66 C 0.07150 0.59161 0.68057
 C67 C 0.10334 0.63007 0.70292
 C68 C 0.06917 0.58682 0.76379
 C69 C 0.03796 0.54915 0.74032
 N70 N 0.03958 0.55224 0.69947
 H71 H -0.01256 0.40608 0.67926
 H72 H -0.07150 0.48453 0.72201
 H73 H -0.12723 0.41872 0.76380
 H74 H -0.06697 0.33886 0.72033
 H75 H 0.07257 0.59281 0.64806
 H76 H 0.12894 0.66111 0.68764
 H77 H 0.06803 0.58393 0.79626
 H78 H 0.01319 0.51725 0.75479
 C79 C 0.10130 0.47459 0.58929
 C80 C -0.10056 0.52570 0.58856
 C81 C 0.10225 0.62755 0.74490
 C82 C -0.10087 0.37409 0.74530
 C83 C 0.54775 0.47695 0.38860
 H84 H 0.51577 0.44390 0.38822
 C85 C 0.58495 0.48280 0.41219
 H86 H 0.58164 0.45424 0.43019
 C87 C 0.59158 0.55425 0.36485
 H88 H 0.59428 0.58169 0.34581
 C89 C 0.62971 0.56156 0.38803
 H90 H 0.66156 0.59476 0.38706
 N91 N 0.55154 0.51250 0.36577
 C92 C 0.40873 0.47943 0.34661
 H93 H 0.40743 0.47925 0.31410
 C94 C 0.37036 0.47269 0.36887
 H95 H 0.33929 0.46712 0.35353
 C96 C 0.45135 0.48859 0.40645
 H97 H 0.48329 0.49587 0.42099
 C98 C 0.41378 0.48202 0.42984
 H99 H 0.41678 0.48384 0.46231
 Zn100 Zn 0.49987 0.49985 0.33327
 N101 N 0.44814 0.48704 0.36560
 C102 C 0.44546 0.40813 0.30168
 N103 N 0.48722 0.44817 0.30077
 C104 C 0.52276 0.45195 0.27794
 C105 C 0.51691 0.41474 0.25435
 C106 C 0.43815 0.37000 0.27850
 C107 C 0.52030 0.59099 0.31993
 C108 C 0.52704 0.62936 0.29766
 C109 C 0.51771 0.58593 0.23670
 C110 C 0.51114 0.54836 0.26009
 N111 N 0.51268 0.55158 0.30094
 H112 H 0.41802 0.40543 0.32073
 H113 H 0.55581 0.48393 0.27832
 H114 H 0.54546 0.41805 0.23635
 H115 H 0.40495 0.33815 0.27948
 H116 H 0.52048 0.59229 0.35244
 H117 H 0.53262 0.66044 0.31301
 H118 H 0.51590 0.58293 0.20422
 H119 H 0.50385 0.51642 0.24555
 C120 C 0.37301 0.47420 0.41086
 C121 C 0.62630 0.52545 0.41186
 C122 C 0.52554 0.62670 0.25567
 C123 C 0.47425 0.37340 0.25468
 C124 C 0.19865 0.46525 0.52233
 N125 N 0.23502 0.46509 0.54044
 N126 N 0.26839 0.46503 0.51849
 C127 C 0.26639 0.46514 0.47776
 N128 N 0.22998 0.46522 0.45964
 N129 N 0.19661 0.46528 0.48159
 C130 C 0.16378 0.46735 0.54594
 C131 C 0.13501 0.47011 0.56574
 C132 C 0.30332 0.46713 0.45416
 C133 C 0.33484 0.46981 0.43438
 C134 C 0.53453 0.80108 0.14420
 N135 N 0.53451 0.80313 0.18493
 N136 N 0.53456 0.76976 0.20689
 C137 C 0.53462 0.73333 0.18877
 N138 N 0.53472 0.73132 0.14804
 N139 N 0.53467 0.76469 0.12609
 C140 C 0.53243 0.83595 0.12059
 C141 C 0.52967 0.86472 0.10079
 C142 C 0.53262 0.69640 0.21238
 C143 C 0.52994 0.66488 0.23215
 C144 C 0.26856 0.80257 0.85666
 N145 N 0.27044 0.80455 0.81593
 N146 N 0.23685 0.77103 0.79393
 C147 C 0.20036 0.73453 0.81200
 N148 N 0.19844 0.73259 0.85273
 N149 N 0.23203 0.76611 0.87472
 C150 C 0.30572 0.83760 0.88031
 C151 C 0.33742 0.86653 0.90014
 C152 C 0.16523 0.69746 0.78834
 C153 C 0.13623 0.66584 0.76850
 C154 C 0.80320 0.53794 0.52228
 N155 N 0.76694 0.53798 0.54065
 N156 N 0.73332 0.53795 0.51894
 C157 C 0.73493 0.53789 0.47819
 N158 N 0.77124 0.53795 0.45982
 N159 N 0.80487 0.53798 0.48154
 C160 C 0.83796 0.53521 0.54562
 C161 C 0.86641 0.53159 0.56521
 C162 C 0.69740 0.53510 0.45484
 C163 C 0.66529 0.53142 0.43524
 C164 C 0.46177 0.19649 0.14425
 N165 N 0.46173 0.19482 0.18500
 N166 N 0.46175 0.22845 0.20671
 C167 C 0.46182 0.26476 0.18834
 N168 N 0.46175 0.26638 0.14760
 N169 N 0.46173 0.23275 0.12588
 C170 C 0.46450 0.16173 0.12091
 C171 C 0.46813 0.13328 0.10132
 C172 C 0.46460 0.30229 0.21170
 C173 C 0.46828 0.33441 0.23130
 C174 C -0.26569 0.19713 0.85523
 N175 N -0.26738 0.19537 0.81448
 N176 N -0.23372 0.22904 0.79286
 C177 C -0.19735 0.26548 0.81133
 N178 N -0.19561 0.26718 0.85208
 N179 N -0.22927 0.23352 0.87370
 C180 C -0.30323 0.16229 0.87847
 C181 C -0.33534 0.13376 0.89798
 C182 C -0.16252 0.30302 0.78808
 C183 C -0.13400 0.33513 0.76857
   
