data_POSCAR
  _audit_creation_date              2014-09-24
  _audit_creation_method            'ToBaCCo'
  _symmetry_space_group_name_H-M    'P1'
  _symmetry_Int_Tables_number       1
  _symmetry_cell_setting            triclinic
  loop_
  _symmetry_equiv_pos_as_xyz
 x,y,z
_cell_length_a 32.3606
_cell_length_b 37.1281
_cell_length_c 45.8088
_cell_angle_alpha 89.596900
_cell_angle_beta 91.764600
_cell_angle_gamma 78.324200
loop_
  _atom_site_label
  _atom_site_type_symbol
  _atom_site_fract_x
  _atom_site_fract_y
  _atom_site_fract_z
C1 C 1.20447 0.24789 0.20180
 C2 C 1.23895 0.26677 0.19078
 C3 C 1.25943 0.28222 0.21200
 C4 C 1.24326 0.27819 0.24276
 C5 C 1.22607 0.22114 0.22578
 C6 C 1.24608 0.23677 0.24719
 C7 C 1.17527 0.27846 0.21829
 C8 C 1.19527 0.29387 0.24029
 H9 H 1.24585 0.26877 0.16789
 H10 H 1.26068 0.29036 0.26004
 H11 H 1.22425 0.19231 0.22625
 H12 H 1.14185 0.28690 0.21334
 C13 C 0.73451 -0.27663 0.20160
 C14 C 0.75907 -0.25103 0.18670
 C15 C 0.77716 -0.23003 0.20535
 C16 C 0.76968 -0.23681 0.23783
 C17 C 0.76686 -0.29913 0.22351
 C18 C 0.78439 -0.27843 0.24284
 C19 C 0.70334 -0.25130 0.22065
 C20 C 0.72131 -0.23092 0.24012
 H21 H 0.76167 -0.24941 0.16322
 H22 H 0.78528 -0.22017 0.25298
 H23 H 0.77424 -0.32873 0.22516
 H24 H 0.66983 -0.25101 0.21935
 C25 C 0.70462 0.24746 -0.29742
 C26 C 0.72270 0.27369 -0.31373
 C27 C 0.75056 0.29137 -0.29686
 C28 C 0.75446 0.27969 -0.26599
 C29 C 0.74031 0.22237 -0.28355
 C30 C 0.76719 0.23938 -0.26514
 C31 C 0.68351 0.26899 -0.27358
 C32 C 0.71086 0.28667 -0.25580
 H33 H 0.71593 0.27921 -0.33686
 H34 H 0.77584 0.29363 -0.25313
 H35 H 0.74512 0.19286 -0.28624
 H36 H 0.64968 0.27705 -0.27219
 C37 C 1.23753 -0.25259 -0.29759
 C38 C 1.26456 -0.22701 -0.30958
 C39 C 1.28470 -0.21056 -0.28866
 C40 C 1.27561 -0.22082 -0.25707
 C41 C 1.26735 -0.27928 -0.27713
 C42 C 1.28668 -0.26315 -0.25550
 C43 C 1.20749 -0.22771 -0.27740
 C44 C 1.22702 -0.21196 -0.25553
 H45 H 1.26646 -0.22107 -0.33262
 H46 H 1.29204 -0.20721 -0.24015
 H47 H 1.27113 -0.30880 -0.27914
 H48 H 1.17350 -0.22282 -0.28027
 C49 C 0.25008 0.19598 0.78881
 C50 C 0.26445 0.22305 0.80682
 C51 C 0.28612 0.24707 0.79169
 C52 C 0.28903 0.23950 0.76039
 C53 C 0.22308 0.21808 0.76408
 C54 C 0.24323 0.24093 0.74909
 C55 C 0.28936 0.17585 0.77317
 C56 C 0.30974 0.19839 0.75795
 H57 H 0.26235 0.22262 0.83038
 H58 H 0.30515 0.25810 0.74802
 H59 H 0.19148 0.21460 0.75818
 H60 H 0.29523 0.14660 0.76925
 C61 C 0.71163 0.71789 0.79652
 C62 C 0.73714 0.73687 0.81476
 C63 C 0.76078 0.75882 0.79918
 C64 C 0.75380 0.75784 0.76730
 C65 C 0.68530 0.74628 0.77820
 C66 C 0.70794 0.76790 0.76109
 C67 C 0.74086 0.69679 0.77619
 C68 C 0.76461 0.71857 0.75978
 H69 H 0.73760 0.73510 0.83842
 H70 H 0.77268 0.77497 0.75605
 H71 H 0.65147 0.74891 0.77621
 H72 H 0.73811 0.66947 0.76950
 C73 C 0.76042 0.22010 0.29971
 C74 C 0.79113 0.24227 0.31272
 C75 C 0.80591 0.26368 0.29305
 C76 C 0.78905 0.26070 0.26144
 C77 C 0.72622 0.24857 0.28369
 C78 C 0.74052 0.26931 0.26307
 C79 C 0.78537 0.19820 0.27533
 C80 C 0.79934 0.21929 0.25481
 H81 H 0.80057 0.24109 0.33567
 H82 H 0.80192 0.27779 0.24553
 H83 H 0.69306 0.25038 0.28762
 H84 H 0.79231 0.16858 0.27424
 C85 C 0.22681 0.72053 0.29446
 C86 C 0.25578 0.74147 0.31101
 C87 C 0.27454 0.76306 0.29391
 C88 C 0.26252 0.76200 0.26119
 C89 C 0.19543 0.75000 0.27691
 C90 C 0.21388 0.77126 0.25899
 C91 C 0.25420 0.69952 0.27083
 C92 C 0.27290 0.72102 0.25346
 H93 H 0.26179 0.73866 0.33440
 H94 H 0.27797 0.77956 0.24716
 H95 H 0.16197 0.75013 0.27525
 H96 H 0.25569 0.67065 0.26652
 O97 O 1.05672 0.04158 0.01924
 O98 O 0.91365 -0.03724 0.01063
 O99 O 0.92430 0.07331 0.00989
 O100 O 1.04583 -0.06942 0.02112
 O101 O 0.90833 0.02432 0.02512
 O102 O 1.05843 -0.01878 0.03617
 O103 O 0.97239 -0.05921 0.03215
 O104 O 0.99409 0.06387 0.03140
 C105 C 1.03230 0.05981 0.03683
 C106 C 0.93345 -0.05269 0.03268
 C107 C 0.90890 0.05693 0.02927
 C108 C 1.05904 -0.05151 0.04109
 O109 O 1.07568 -0.04482 -0.01865
 O110 O 0.90265 0.04621 -0.03242
 O111 O 1.02449 0.06871 -0.02315
 O112 O 0.95364 -0.06756 -0.02594
 O113 O 0.92368 -0.01683 -0.04589
 O114 O 1.05799 0.01704 -0.03712
 O115 O 1.02353 -0.06403 -0.03702
 O116 O 0.95840 0.06401 -0.04366
 Co117 Co 1.05496 -0.00103 -0.00063
 Co118 Co 0.91924 0.00395 -0.01013
 Co119 Co 0.97639 0.06113 -0.00614
 Co120 Co 0.99778 -0.05867 -0.00260
 O121 O 0.98709 0.00134 -0.00488
 C122 C 1.06017 -0.06006 -0.03926
 C123 C 0.92211 0.06134 -0.05042
 C124 C 1.04706 0.05046 -0.04162
 C125 C 0.93444 -0.05059 -0.04765
 O126 O 1.07467 0.53766 0.53071
 O127 O 0.93068 0.46103 0.52729
 O128 O 0.94159 0.57119 0.53148
 O129 O 1.06286 0.42729 0.52566
 O130 O 0.92862 0.52058 0.54542
 O131 O 1.07855 0.47539 0.54336
 O132 O 0.99211 0.43656 0.54334
 O133 O 1.01451 0.55917 0.54804
 C134 C 1.05333 0.55464 0.55050
 C135 C 0.95373 0.44385 0.54730
 C136 C 0.92910 0.55285 0.55096
 C137 C 1.07922 0.44227 0.54603
 O138 O 1.08561 0.45694 0.48547
 O139 O 0.91367 0.54870 0.48934
 O140 O 1.03628 0.57031 0.49237
 O141 O 0.96304 0.43492 0.48641
 O142 O 0.93127 0.48765 0.47141
 O143 O 1.06657 0.52083 0.47287
 O144 O 1.03021 0.43975 0.47041
 O145 O 0.96745 0.56777 0.47562
 Co146 Co 1.06913 0.49795 0.50812
 Co147 Co 0.93307 0.50425 0.50841
 Co148 Co 0.99092 0.56069 0.51168
 Co149 Co 1.01101 0.44097 0.50680
 O150 O 1.00104 0.50096 0.50872
 C151 C 1.06605 0.44414 0.46542
 C152 C 0.93069 0.56502 0.47063
 C153 C 1.05557 0.55462 0.47138
 C154 C 0.94203 0.45444 0.46664
 O155 O 0.58440 0.02820 0.51522
 O156 O 0.43017 -0.03320 0.51489
 O157 O 0.45351 0.07281 0.50935
 O158 O 0.56099 -0.07877 0.51719
 O159 O 0.43486 0.02736 0.52830
 O160 O 0.58148 -0.03080 0.53118
 O161 O 0.48925 -0.06196 0.53262
 O162 O 0.52463 0.05633 0.52936
 C163 C 0.56323 0.04811 0.53359
 C164 C 0.45099 -0.05077 0.53575
 C165 C 0.43906 0.05940 0.53065
 C166 C 0.57891 -0.06281 0.53618
 O167 O 0.58886 -0.05596 0.47565
 O168 O 0.42531 0.04784 0.46922
 O169 O 0.55254 0.05905 0.47440
 O170 O 0.46191 -0.06731 0.47621
 O171 O 0.43584 -0.01503 0.45735
 O172 O 0.57692 0.00634 0.45803
 O173 O 0.53229 -0.07115 0.46050
 O174 O 0.48367 0.05911 0.45556
 Co175 Co 0.57572 -0.01213 0.49473
 Co176 Co 0.43863 0.00594 0.49269
 Co177 Co 0.50393 0.05535 0.49245
 Co178 Co 0.51079 -0.06344 0.49641
 O179 O 0.50728 -0.00370 0.49405
 C180 C 0.56923 -0.06931 0.45604
 C181 C 0.44574 0.06096 0.45046
 C182 C 0.57246 0.03995 0.45526
 C183 C 0.44291 -0.04882 0.45517
 O184 O 0.56230 0.50072 0.04035
 O185 O 0.42001 0.48364 0.04072
 O186 O 0.46420 0.55656 0.03604
 O187 O 0.51924 0.42644 0.04326
 O188 O 0.40746 0.54398 0.01922
 O189 O 0.57450 0.43737 0.02531
 O190 O 0.44823 0.42882 0.02927
 O191 O 0.53424 0.55288 0.02176
 C192 C 0.55477 0.53456 0.04231
 C193 C 0.42896 0.45060 0.04741
 C194 C 0.42626 0.55782 0.03894
 C195 C 0.55701 0.42690 0.04660
 O196 O 0.56343 0.45994 -0.03072
 O197 O 0.41641 0.51373 -0.03461
 O198 O 0.50913 0.54527 -0.03518
 O199 O 0.46975 0.42772 -0.02887
 O200 O 0.41176 0.45535 -0.01265
 O201 O 0.56849 0.52026 -0.01634
 O202 O 0.54190 0.41350 -0.01408
 O203 O 0.43808 0.56178 -0.02181
 Co204 Co 0.55966 0.48055 0.00469
 Co205 Co 0.42143 0.49824 0.00317
 Co206 Co 0.48677 0.54805 0.00054
 Co207 Co 0.49442 0.43017 0.00704
 O208 O 0.49058 0.48922 0.00388
 C209 C 0.55849 0.42813 -0.03411
 C210 C 0.42157 0.54494 -0.04095
 C211 C 0.54770 0.53709 -0.03731
 C212 C 0.43099 0.43548 -0.03170
 C213 C 1.19736 0.18190 0.13955
 C214 C 1.15458 0.17862 0.13884
 C215 C 1.12721 0.20048 0.15837
 C216 C 1.14254 0.22420 0.17788
 C217 C 1.18518 0.22705 0.17828
 C218 C 1.21221 0.20520 0.15907
 C219 C 1.08482 0.19801 0.15881
 C220 C 1.06880 0.17427 0.14036
 C221 C 1.09473 0.15175 0.12060
 C222 C 1.13835 0.15399 0.11984
 C223 C 1.16440 0.13144 0.10016
 C224 C 1.14854 0.10785 0.08166
 C225 C 1.10615 0.10568 0.08182
 C226 C 1.07851 0.12725 0.10138
 C227 C 1.03573 0.12355 0.10051
 C228 C 1.02111 0.10066 0.08029
 C229 C 1.04846 0.08055 0.06046
 C230 C 1.09116 0.08250 0.06190
 H231 H 1.22070 0.16635 0.12583
 H232 H 1.12132 0.23916 0.19343
 H233 H 1.24568 0.20523 0.15967
 H234 H 1.06369 0.21460 0.17370
 H235 H 1.03572 0.17428 0.14221
 H236 H 1.19746 0.13132 0.09824
 H237 H 1.16976 0.09133 0.06678
 H238 H 1.01252 0.13828 0.11477
 H239 H 0.98806 0.09917 0.07991
 H240 H 1.11267 0.06688 0.04671
 C241 C 1.21994 0.69050 0.63548
 C242 C 1.18323 0.67734 0.64238
 C243 C 1.16292 0.68994 0.66842
 C244 C 1.17995 0.71327 0.68716
 C245 C 1.21634 0.72625 0.68008
 C246 C 1.23629 0.71410 0.65414
 C247 C 1.12604 0.67871 0.67600
 C248 C 1.10816 0.65572 0.65800
 C249 C 1.12715 0.64221 0.63186
 C250 C 1.16617 0.65206 0.62451
 C251 C 1.18725 0.63572 0.59992
 C252 C 1.17024 0.61161 0.58251
 C253 C 1.13112 0.60348 0.58839
 C254 C 1.10869 0.61882 0.61296
 C255 C 1.06819 0.61085 0.61704
 C256 C 1.05078 0.58911 0.59730
 C257 C 1.07330 0.57410 0.57317
 C258 C 1.11383 0.58077 0.56923
 H259 H 1.23692 0.68311 0.61585
 H260 H 1.16524 0.72036 0.70782
 H261 H 1.26551 0.72191 0.64849
 H262 H 1.11056 0.68804 0.69603
 H263 H 1.07985 0.64827 0.66563
 H264 H 1.21757 0.64042 0.59375
 H265 H 1.18761 0.59974 0.56384
 H266 H 1.04841 0.62210 0.63461
 H267 H 1.01920 0.58459 0.60063
 H268 H 1.13125 0.56970 0.55034
 C269 C 0.61808 0.20086 0.67300
 C270 C 0.63808 0.18126 0.64924
 C271 C 0.67990 0.18464 0.64369
 C272 C 0.69975 0.20789 0.66042
 C273 C 0.67995 0.22733 0.68419
 C274 C 0.63876 0.22296 0.69035
 C275 C 0.70230 0.16426 0.62179
 C276 C 0.68454 0.13957 0.60568
 C277 C 0.64295 0.13513 0.61030
 C278 C 0.61854 0.15770 0.63132
 C279 C 0.57530 0.15665 0.63312
 C280 C 0.55657 0.13428 0.61496
 C281 C 0.58051 0.11108 0.59521
 C282 C 0.62440 0.11001 0.59355
 C283 C 0.64803 0.08383 0.57506
 C284 C 0.62814 0.06239 0.55679
 C285 C 0.58424 0.06618 0.55646
 C286 C 0.56068 0.08957 0.57649
 H287 H 0.58709 0.19836 0.67962
 H288 H 0.73193 0.20976 0.65569
 H289 H 0.62219 0.23531 0.70900
 H290 H 0.73425 0.16701 0.61732
 H291 H 0.70376 0.12529 0.58889
 H292 H 0.55457 0.17408 0.64751
 H293 H 0.52299 0.13517 0.61640
 H294 H 0.68195 0.07917 0.57425
 H295 H 0.64721 0.04366 0.54213
 H296 H 0.52674 0.09188 0.57691
 C297 C 0.66153 0.70444 0.13904
 C298 C 0.66148 0.66650 0.14222
 C299 C 0.68755 0.64672 0.16479
 C300 C 0.71156 0.66458 0.18370
 C301 C 0.71131 0.70229 0.18034
 C302 C 0.68571 0.72183 0.15786
 C303 C 0.68938 0.60915 0.16867
 C304 C 0.66660 0.59037 0.15022
 C305 C 0.64034 0.60863 0.12724
 C306 C 0.63671 0.64755 0.12376
 C307 C 0.60818 0.66627 0.10212
 C308 C 0.58537 0.64757 0.08367
 C309 C 0.59029 0.60950 0.08574
 C310 C 0.61760 0.58932 0.10757
 C311 C 0.62164 0.55055 0.10825
 C312 C 0.60036 0.53284 0.08763
 C313 C 0.57422 0.55308 0.06585
 C314 C 0.56860 0.59146 0.06550
 H315 H 0.64345 0.72161 0.12220
 H316 H 0.72940 0.64862 0.20131
 H317 H 0.68399 0.75110 0.15501
 H318 H 0.70902 0.59392 0.18607
 H319 H 0.66996 0.56144 0.15485
 H320 H 0.60235 0.69563 0.09892
 H321 H 0.56411 0.66312 0.06721
 H322 H 0.64186 0.53290 0.12384
 H323 H 0.60512 0.50312 0.08840
 H324 H 0.54825 0.60743 0.04878
 C325 C 0.86554 -0.18411 0.18318
 C326 C 0.84500 -0.15848 0.16154
 C327 C 0.80045 -0.15349 0.15842
 C328 C 0.77834 -0.17528 0.17448
 C329 C 0.79960 -0.20226 0.19406
 C330 C 0.84300 -0.20568 0.19913
 C331 C 0.77813 -0.12785 0.13841
 C332 C 0.79902 -0.10811 0.12018
 C333 C 0.84353 -0.11365 0.12082
 C334 C 0.86695 -0.13872 0.14222
 C335 C 0.91147 -0.14427 0.14272
 C336 C 0.93250 -0.12730 0.12232
 C337 C 0.91019 -0.10386 0.10072
 C338 C 0.86539 -0.09594 0.10007
 C339 C 0.84434 -0.07137 0.07805
 C340 C 0.86670 -0.05701 0.05686
 C341 C 0.91082 -0.06617 0.05680
 C342 C 0.93248 -0.08893 0.07929
 H343 H 0.89906 -0.18891 0.18776
 H344 H 0.74455 -0.17248 0.17077
 H345 H 0.85987 -0.22644 0.21431
 H346 H 0.74400 -0.12354 0.13635
 H347 H 0.77906 -0.08936 0.10520
 H348 H 0.93122 -0.16244 0.15823
 H349 H 0.96673 -0.13317 0.12316
 H350 H 0.81054 -0.06291 0.07616
 H351 H 0.84914 -0.03893 0.04011
 H352 H 0.96670 -0.09586 0.07969
 C353 C 0.76539 0.36633 0.65328
 C354 C 0.80848 0.36715 0.65793
 C355 C 0.83158 0.34361 0.67991
 C356 C 0.81134 0.32104 0.69715
 C357 C 0.76921 0.31872 0.69063
 C358 C 0.74658 0.34215 0.66889
 C359 C 0.87515 0.34122 0.68326
 C360 C 0.89658 0.35956 0.66392
 C361 C 0.87480 0.38255 0.64131
 C362 C 0.82975 0.38867 0.63998
 C363 C 0.80734 0.41567 0.62039
 C364 C 0.82812 0.43321 0.60047
 C365 C 0.87192 0.42424 0.59903
 C366 C 0.89619 0.39930 0.61964
 C367 C 0.94060 0.39099 0.61669
 C368 C 0.95955 0.40595 0.59365
 C369 C 0.93495 0.42977 0.57302
 C370 C 0.89131 0.43950 0.57644
 H371 H 0.74588 0.38229 0.63638
 H372 H 0.82959 0.30263 0.71345
 H373 H 0.71369 0.34198 0.66381
 H374 H 0.89318 0.32359 0.70010
 H375 H 0.93032 0.35548 0.66735
 H376 H 0.77344 0.42418 0.62015
 H377 H 0.80954 0.45317 0.58537
 H378 H 0.96131 0.37194 0.63114
 H379 H 0.99344 0.39816 0.59160
 H380 H 0.87197 0.45827 0.56085
 C381 C 0.38023 -0.17625 0.68808
 C382 C 0.36163 -0.14557 0.67009
 C383 C 0.31725 -0.13315 0.67113
 C384 C 0.29268 -0.15250 0.68748
 C385 C 0.31131 -0.18459 0.70289
 C386 C 0.35525 -0.19554 0.70406
 C387 C 0.29714 -0.10268 0.65458
 C388 C 0.31943 -0.08566 0.63523
 C389 C 0.36298 -0.09878 0.63133
 C390 C 0.38488 -0.12812 0.64997
 C391 C 0.42885 -0.13996 0.64696
 C392 C 0.45023 -0.12540 0.62535
 C393 C 0.42880 -0.09859 0.60576
 C394 C 0.38505 -0.08433 0.60878
 C395 C 0.36482 -0.05724 0.58824
 C396 C 0.38667 -0.04607 0.56520
 C397 C 0.42948 -0.06110 0.56173
 C398 C 0.45068 -0.08670 0.58259
 H399 H 0.41371 -0.18716 0.68921
 H400 H 0.25853 -0.14417 0.68651
 H401 H 0.37008 -0.22053 0.71573
 H402 H 0.26340 -0.09254 0.65589
 H403 H 0.30113 -0.06259 0.62317
 H404 H 0.44771 -0.16107 0.66071
 H405 H 0.48380 -0.13601 0.62348
 H406 H 0.33182 -0.04471 0.58874
 H407 H 0.36959 -0.02587 0.54968
 H408 H 0.48393 -0.09834 0.58027
 C409 C 0.35849 0.29766 0.17885
 C410 C 0.34865 0.33601 0.17287
 C411 C 0.31200 0.35689 0.18548
 C412 C 0.28508 0.33945 0.20153
 C413 C 0.29347 0.30118 0.20458
 C414 C 0.33092 0.28062 0.19410
 C415 C 0.30090 0.39472 0.18042
 C416 C 0.32329 0.41203 0.16124
 C417 C 0.35787 0.39203 0.14620
 C418 C 0.37210 0.35379 0.15326
 C419 C 0.40807 0.33423 0.13940
 C420 C 0.42710 0.35036 0.11748
 C421 C 0.41144 0.38666 0.10864
 C422 C 0.37763 0.40853 0.12349
 C423 C 0.36390 0.44557 0.11401
 C424 C 0.38151 0.45940 0.08995
 C425 C 0.41319 0.43691 0.07444
 C426 C 0.42879 0.40085 0.08441
 H427 H 0.38587 0.27962 0.17067
 H428 H 0.25570 0.35526 0.20942
 H429 H 0.33759 0.25089 0.19621
 H430 H 0.27350 0.41096 0.19050
 H431 H 0.31186 0.44114 0.15811
 H432 H 0.42195 0.30596 0.14451
 H433 H 0.45375 0.33386 0.10677
 H434 H 0.33895 0.46444 0.12417
 H435 H 0.36927 0.48757 0.08293
 H436 H 0.45392 0.38345 0.07287
 C437 C 0.84794 0.21424 -0.20394
 C438 C 0.83879 0.18089 -0.19323
 C439 C 0.80627 0.16712 -0.20787
 C440 C 0.78465 0.18560 -0.23227
 C441 C 0.79303 0.21926 -0.24245
 C442 C 0.82522 0.23313 -0.22787
 C443 C 0.79439 0.13532 -0.19772
 C444 C 0.81295 0.11745 -0.17254
 C445 C 0.84500 0.13029 -0.15674
 C446 C 0.85974 0.16133 -0.16809
 C447 C 0.89505 0.17146 -0.15408
 C448 C 0.91447 0.15269 -0.12936
 C449 C 0.89868 0.12397 -0.11703
 C450 C 0.86325 0.11272 -0.13017
 C451 C 0.84698 0.08490 -0.11575
 C452 C 0.86583 0.06850 -0.08980
 C453 C 0.90164 0.07893 -0.07758
 C454 C 0.91797 0.10663 -0.09137
 H455 H 0.87163 0.22708 -0.19378
 H456 H 0.75891 0.17454 -0.24172
 H457 H 0.83372 0.25839 -0.23507
 H458 H 0.76980 0.12442 -0.20910
 H459 H 0.80205 0.09301 -0.16637
 H460 H 0.90913 0.19335 -0.16216
 H461 H 0.94176 0.16122 -0.11947
 H462 H 0.81905 0.07584 -0.12348
 H463 H 0.85251 0.04737 -0.07936
 H464 H 0.94533 0.11531 -0.08175
 C465 C 0.86177 0.70208 0.30754
 C466 C 0.84655 0.67453 0.32321
 C467 C 0.80975 0.66373 0.31188
 C468 C 0.79036 0.67885 0.28559
 C469 C 0.80637 0.70538 0.27009
 C470 C 0.84171 0.71733 0.28149
 C471 C 0.79220 0.63795 0.32682
 C472 C 0.81019 0.62251 0.35302
 C473 C 0.84715 0.63180 0.36522
 C474 C 0.86621 0.65761 0.34972
 C475 C 0.90467 0.66507 0.36092
 C476 C 0.92375 0.64827 0.38641
 C477 C 0.90506 0.62385 0.40209
 C478 C 0.86621 0.61558 0.39211
 C479 C 0.84819 0.59140 0.40958
 C480 C 0.86863 0.57550 0.43528
 C481 C 0.90757 0.58305 0.44439
 C482 C 0.92538 0.60746 0.42773
 H483 H 0.88866 0.71288 0.31497
 H484 H 0.76200 0.67042 0.27741
 H485 H 0.85410 0.73829 0.27008
 H486 H 0.76403 0.62965 0.31817
 H487 H 0.79469 0.60264 0.36288
 H488 H 0.92153 0.68324 0.35011
 H489 H 0.95356 0.65454 0.39397
 H490 H 0.81821 0.58435 0.40420
 H491 H 0.85415 0.55683 0.44785
 H492 H 0.95537 0.61380 0.43473
 C493 C 0.26073 0.17147 0.31184
 C494 C 0.30166 0.17322 0.32273
 C495 C 0.32369 0.19713 0.30817
 C496 C 0.30484 0.21879 0.28419
 C497 C 0.26473 0.21605 0.27356
 C498 C 0.24281 0.19244 0.28760
 C499 C 0.36467 0.19888 0.31726
 C500 C 0.38505 0.17652 0.33990
 C501 C 0.36480 0.15187 0.35483
 C502 C 0.32177 0.15149 0.34706
 C503 C 0.30021 0.12975 0.36406
 C504 C 0.32024 0.10839 0.38739
 C505 C 0.36276 0.10702 0.39429
 C506 C 0.38591 0.12813 0.37772
 C507 C 0.42952 0.12416 0.38450
 C508 C 0.44862 0.10171 0.40760
 C509 C 0.42515 0.08237 0.42483
 C510 C 0.38228 0.08475 0.41781
 H511 H 0.24213 0.15343 0.32095
 H512 H 0.32200 0.23680 0.27309
 H513 H 0.21154 0.19014 0.27974
 H514 H 0.38149 0.21736 0.30645
 H515 H 0.41655 0.17990 0.34565
 H516 H 0.26728 0.12933 0.36040
 H517 H 0.30228 0.09250 0.40001
 H518 H 0.45001 0.13753 0.37213
 H519 H 0.48203 0.09992 0.41220
 H520 H 0.36405 0.06938 0.43072
 C521 C 0.36125 0.70768 -0.18995
 C522 C 0.34894 0.67517 -0.18012
 C523 C 0.31672 0.66295 -0.19652
 C524 C 0.29700 0.68311 -0.22084
 C525 C 0.30918 0.71539 -0.23017
 C526 C 0.34159 0.72737 -0.21453
 C527 C 0.30373 0.63084 -0.18850
 C528 C 0.32195 0.61023 -0.16441
 C529 C 0.35372 0.62124 -0.14692
 C530 C 0.36703 0.65456 -0.15461
 C531 C 0.39711 0.66658 -0.13613
 C532 C 0.41311 0.64721 -0.11083
 C533 C 0.40064 0.61468 -0.10320
 C534 C 0.37170 0.60059 -0.12147
 C535 C 0.36186 0.56642 -0.11334
 C536 C 0.37854 0.54816 -0.08753
 C537 C 0.40540 0.56326 -0.06893
 C538 C 0.41677 0.59630 -0.07713
 H539 H 0.38614 0.71856 -0.17932
 H540 H 0.27117 0.67386 -0.23207
 H541 H 0.35209 0.75189 -0.22140
 H542 H 0.27901 0.62148 -0.20101
 H543 H 0.30943 0.58618 -0.15965
 H544 H 0.40825 0.69152 -0.14019
 H545 H 0.43549 0.65793 -0.09702
 H546 H 0.34166 0.55280 -0.12647
 H547 H 0.36987 0.52233 -0.08194
 H548 H 0.43819 0.60787 -0.06310
 C549 C 1.14407 -0.18928 -0.19826
 C550 C 1.15752 -0.16153 -0.18175
 C551 C 1.19568 -0.15122 -0.18945
 C552 C 1.21798 -0.16698 -0.21378
 C553 C 1.20339 -0.19381 -0.23039
 C554 C 1.16662 -0.20504 -0.22190
 C555 C 1.21148 -0.12551 -0.17263
 C556 C 1.19074 -0.11032 -0.14802
 C557 C 1.15243 -0.11948 -0.13965
 C558 C 1.13481 -0.14444 -0.15751
 C559 C 1.09466 -0.15109 -0.15091
 C560 C 1.07319 -0.13533 -0.12700
 C561 C 1.09082 -0.11254 -0.10848
 C562 C 1.13071 -0.10424 -0.11429
 C563 C 1.14714 -0.08137 -0.09420
 C564 C 1.12461 -0.06734 -0.06972
 C565 C 1.08502 -0.07542 -0.06453
 C566 C 1.06839 -0.09797 -0.08413
 H567 H 1.11695 -0.20044 -0.19298
 H568 H 1.24657 -0.15822 -0.21976
 H569 H 1.15546 -0.22700 -0.23309
 H570 H 1.24059 -0.11739 -0.17832
 H571 H 1.20519 -0.09082 -0.13626
 H572 H 1.07824 -0.16778 -0.16426
 H573 H 1.04241 -0.14127 -0.12287
 H574 H 1.17752 -0.07420 -0.09653
 H575 H 1.13812 -0.04989 -0.05491
 H576 H 1.03778 -0.10450 -0.08034
 C577 C 1.11130 0.33300 0.29381
 C578 C 1.13176 0.35542 0.31171
 C579 C 1.17290 0.35912 0.30426
 C580 C 1.19228 0.34109 0.27979
 C581 C 1.17218 0.31777 0.26300
 C582 C 1.13130 0.31443 0.27016
 C583 C 1.19504 0.37985 0.32179
 C584 C 1.17818 0.39555 0.34741
 C585 C 1.13781 0.39184 0.35623
 C586 C 1.11343 0.37298 0.33731
 C587 C 1.07162 0.37209 0.34469
 C588 C 1.05497 0.38702 0.37045
 C589 C 1.07925 0.40320 0.39004
 C590 C 1.12090 0.40620 0.38333
 C591 C 1.14399 0.42267 0.40445
 C592 C 1.12638 0.43514 0.43102
 C593 C 1.08532 0.43169 0.43738
 C594 C 1.06190 0.41612 0.41653
 H595 H 1.08059 0.32769 0.29822
 H596 H 1.22356 0.34462 0.27437
 H597 H 1.11506 0.29599 0.25835
 H598 H 1.22635 0.38314 0.31608
 H599 H 1.19760 0.41071 0.35981
 H600 H 1.05051 0.36031 0.33083
 H601 H 1.02281 0.38533 0.37529
 H602 H 1.17600 0.42566 0.40141
 H603 H 1.14506 0.44731 0.44670
 H604 H 1.02995 0.41357 0.42103
 C605 C 0.63960 -0.20423 0.29791
 C606 C 0.65276 -0.17457 0.31200
 C607 C 0.68961 -0.16385 0.30205
 C608 C 0.71095 -0.18124 0.27801
 C609 C 0.69727 -0.21053 0.26417
 C610 C 0.66162 -0.22192 0.27470
 C611 C 0.70536 -0.13625 0.31647
 C612 C 0.68630 -0.12000 0.34124
 C613 C 0.64968 -0.12992 0.35206
 C614 C 0.63137 -0.15615 0.33621
 C615 C 0.59202 -0.16279 0.34482
 C616 C 0.57228 -0.14596 0.36906
 C617 C 0.59127 -0.12248 0.38604
 C618 C 0.63039 -0.11424 0.37801
 C619 C 0.64897 -0.09135 0.39676
 C620 C 0.62923 -0.07713 0.42208
 C621 C 0.59026 -0.08489 0.42947
 C622 C 0.57132 -0.10738 0.41120
 H623 H 0.61344 -0.21556 0.30507
 H624 H 0.73840 -0.17200 0.27030
 H625 H 0.65109 -0.24549 0.26570
 H626 H 0.73332 -0.12765 0.30890
 H627 H 0.70055 -0.09902 0.35109
 H628 H 0.57499 -0.18028 0.33279
 H629 H 0.54207 -0.15189 0.37482
 H630 H 0.67922 -0.08464 0.39288
 H631 H 0.64451 -0.05981 0.43589
 H632 H 0.54124 -0.11371 0.41684
 C633 C 0.70290 0.35230 -0.19360
 C634 C 0.66738 0.34513 -0.17904
 C635 C 0.64758 0.31736 -0.19044
 C636 C 0.66172 0.29897 -0.21595
 C637 C 0.69676 0.30649 -0.23051
 C638 C 0.71739 0.33318 -0.21869
 C639 C 0.61385 0.30767 -0.17625
 C640 C 0.59956 0.32453 -0.15055
 C641 C 0.61792 0.35255 -0.13828
 C642 C 0.65122 0.36409 -0.15340
 C643 C 0.66656 0.39464 -0.14277
 C644 C 0.65059 0.41288 -0.11794
 C645 C 0.61962 0.40084 -0.10223
 C646 C 0.60339 0.37004 -0.11175
 C647 C 0.57360 0.35785 -0.09405
 C648 C 0.55971 0.37629 -0.06860
 C649 C 0.57469 0.40752 -0.06011
 C650 C 0.60476 0.41956 -0.07698
 H651 H 0.72072 0.37212 -0.18593
 H652 H 0.64622 0.27734 -0.22354
 H653 H 0.74395 0.34067 -0.22920
 H654 H 0.59846 0.28651 -0.18500
 H655 H 0.57309 0.31562 -0.14124
 H656 H 0.69020 0.40592 -0.15367
 H657 H 0.66292 0.43654 -0.11080
 H658 H 0.56093 0.33381 -0.09891
 H659 H 0.53665 0.36637 -0.05575
 H660 H 0.61697 0.44346 -0.07027
 C661 C 1.22415 0.11489 -0.16757
 C662 C 1.18266 0.12909 -0.15862
 C663 C 1.16412 0.16581 -0.16685
 C664 C 1.18589 0.18660 -0.18418
 C665 C 1.22661 0.17184 -0.19364
 C666 C 1.24574 0.13599 -0.18444
 C667 C 1.12418 0.18188 -0.15738
 C668 C 1.10278 0.16287 -0.13884
 C669 C 1.12029 0.12654 -0.12941
 C670 C 1.15978 0.10870 -0.14077
 C671 C 1.17499 0.07111 -0.13396
 C672 C 1.15393 0.05222 -0.11507
 C673 C 1.11736 0.07011 -0.10182
 C674 C 1.09981 0.10748 -0.10886
 C675 C 1.06338 0.12463 -0.09409
 C676 C 1.04602 0.10570 -0.07285
 C677 C 1.06381 0.06899 -0.06583
 C678 C 1.09888 0.05104 -0.08092
 H679 H 1.24154 0.08804 -0.16094
 H680 H 1.17136 0.21481 -0.18991
 H681 H 1.27803 0.12415 -0.18939
 H682 H 1.10958 0.20980 -0.16391
 H683 H 1.07213 0.17737 -0.13258
 H684 H 1.20301 0.05525 -0.14324
 H685 H 1.16706 0.02348 -0.11021
 H686 H 1.04842 0.15306 -0.09754
 H687 H 1.01886 0.12015 -0.06147
 H688 H 1.11294 0.02262 -0.07550
 C689 C 1.21282 0.63790 0.34078
 C690 C 1.17221 0.64959 0.35209
 C691 C 1.15073 0.68612 0.34569
 C692 C 1.16829 0.70887 0.32715
 C693 C 1.20748 0.69607 0.31458
 C694 C 1.23018 0.66091 0.32273
 C695 C 1.11193 0.69990 0.35797
 C696 C 1.09440 0.67858 0.37719
 C697 C 1.11467 0.64209 0.38438
 C698 C 1.15302 0.62676 0.37039
 C699 C 1.17060 0.58903 0.37482
 C700 C 1.15281 0.56748 0.39369
 C701 C 1.11747 0.58280 0.40939
 C702 C 1.09788 0.62035 0.40507
 C703 C 1.06321 0.63491 0.42248
 C704 C 1.04930 0.61323 0.44350
 C705 C 1.06876 0.57623 0.44757
 C706 C 1.10226 0.56092 0.43000
 H707 H 1.23257 0.61155 0.34622
 H708 H 1.15150 0.73684 0.32297
 H709 H 1.26182 0.65103 0.31526
 H710 H 1.09513 0.72771 0.35298
 H711 H 1.06428 0.69131 0.38556
 H712 H 1.19780 0.57507 0.36346
 H713 H 1.16752 0.53867 0.39653
 H714 H 1.04719 0.66331 0.42130
 H715 H 1.02347 0.62571 0.45698
 H716 H 1.11774 0.53234 0.43324
 C717 C 0.70088 0.19973 0.36639
 C718 C 0.69383 0.16387 0.36133
 C719 C 0.71235 0.14513 0.33666
 C720 C 0.73484 0.16259 0.31715
 C721 C 0.74081 0.19858 0.32208
 C722 C 0.72354 0.21668 0.34701
 C723 C 0.70769 0.10923 0.33118
 C724 C 0.68521 0.09124 0.34975
 C725 C 0.66542 0.10888 0.37433
 C726 C 0.66883 0.14617 0.37972
 C727 C 0.64622 0.16489 0.40282
 C728 C 0.62200 0.14768 0.42053
 C729 C 0.61985 0.11100 0.41637
 C730 C 0.64171 0.09076 0.39346
 C731 C 0.63928 0.05314 0.39106
 C732 C 0.61627 0.03663 0.41071
 C733 C 0.59469 0.05710 0.43308
 C734 C 0.59622 0.09437 0.43546
 H735 H 0.68937 0.21561 0.38510
 H736 H 0.74606 0.14809 0.29770
 H737 H 0.72674 0.24467 0.35121
 H738 H 0.72174 0.09475 0.31229
 H739 H 0.68302 0.06369 0.34376
 H740 H 0.64572 0.19334 0.40751
 H741 H 0.60507 0.16326 0.43794
 H742 H 0.65561 0.03542 0.37477
 H743 H 0.61573 0.00769 0.40856
 H744 H 0.57989 0.11044 0.45287
 C745 C 0.62604 0.69582 -0.15677
 C746 C 0.63946 0.65781 -0.15119
 C747 C 0.67944 0.64029 -0.16112
 C748 C 0.70291 0.65962 -0.17850
 C749 C 0.68764 0.69700 -0.18601
 C750 C 0.65011 0.71502 -0.17314
 C751 C 0.69604 0.60373 -0.15320
 C752 C 0.67443 0.58467 -0.13472
 C753 C 0.63438 0.60111 -0.12447
 C754 C 0.61546 0.63730 -0.13462
 C755 C 0.57299 0.65170 -0.12823
 C756 C 0.55078 0.63266 -0.11036
 C757 C 0.57042 0.59919 -0.09753
 C758 C 0.61251 0.58280 -0.10433
 C759 C 0.63160 0.54974 -0.08953
 C760 C 0.61009 0.53444 -0.06829
 C761 C 0.56870 0.55101 -0.06172
 C762 C 0.54860 0.58271 -0.07706
 H763 H 0.59797 0.71182 -0.14760
 H764 H 0.73361 0.64555 -0.18544
 H765 H 0.63909 0.74447 -0.17556
 H766 H 0.72653 0.58996 -0.16080
 H767 H 0.68943 0.55665 -0.12943
 H768 H 0.55577 0.67745 -0.13736
 H769 H 0.51832 0.64489 -0.10576
 H770 H 0.66380 0.53608 -0.09278
 H771 H 0.62618 0.50990 -0.05656
 H772 H 0.51669 0.59587 -0.07179
 C773 C 0.83870 -0.22373 -0.14418
 C774 C 0.84463 -0.18825 -0.15161
 C775 C 0.82305 -0.17091 -0.17701
 C776 C 0.79786 -0.18952 -0.19482
 C777 C 0.79053 -0.22405 -0.18611
 C778 C 0.81181 -0.24083 -0.16078
 C779 C 0.82523 -0.13453 -0.18359
 C780 C 0.84604 -0.11438 -0.16457
 C781 C 0.86730 -0.13048 -0.13880
 C782 C 0.86924 -0.16877 -0.13357
 C783 C 0.89543 -0.18635 -0.11029
 C784 C 0.91571 -0.16660 -0.09098
 C785 C 0.91020 -0.12853 -0.09374
 C786 C 0.88637 -0.10978 -0.11782
 C787 C 0.88109 -0.07095 -0.11900
 C788 C 0.89758 -0.05180 -0.09669
 C789 C 0.92030 -0.07065 -0.07272
 C790 C 0.92747 -0.10912 -0.07194
 H791 H 0.85258 -0.23833 -0.12471
 H792 H 0.78110 -0.17564 -0.21391
 H793 H 0.80830 -0.26792 -0.15374
 H794 H 0.80918 -0.12098 -0.20303
 H795 H 0.84542 -0.08623 -0.17081
 H796 H 0.90138 -0.21569 -0.10664
 H797 H 0.93486 -0.18121 -0.07309
 H798 H 0.86287 -0.05450 -0.13623
 H799 H 0.89168 -0.02204 -0.09790
 H800 H 0.94512 -0.12406 -0.05359
 C801 C 0.89735 0.29087 0.33267
 C802 C 0.88099 0.32829 0.33893
 C803 C 0.84272 0.34550 0.32424
 C804 C 0.82033 0.32501 0.30613
 C805 C 0.83510 0.28723 0.30283
 C806 C 0.87437 0.27071 0.31527
 C807 C 0.82565 0.38246 0.32911
 C808 C 0.84410 0.40229 0.34961
 C809 C 0.88040 0.38575 0.36645
 C810 C 0.89986 0.34844 0.36041
 C811 C 0.93627 0.33191 0.37713
 C812 C 0.95147 0.35007 0.40018
 C813 C 0.93170 0.38568 0.40728
 C814 C 0.89689 0.40467 0.38993
 C815 C 0.87940 0.44146 0.39751
 C816 C 0.89466 0.45775 0.42194
 C817 C 0.92750 0.43799 0.43981
 C818 C 0.94627 0.40214 0.43203
 H819 H 0.92681 0.27577 0.34192
 H820 H 0.78965 0.33772 0.29668
 H821 H 0.88616 0.24144 0.31291
 H822 H 0.79682 0.39595 0.31762
 H823 H 0.82812 0.43036 0.35243
 H824 H 0.95329 0.30434 0.37357
 H825 H 0.97873 0.33577 0.41294
 H826 H 0.85372 0.45842 0.38521
 H827 H 0.87998 0.48573 0.42722
 H828 H 0.97227 0.38683 0.44542
 C829 C 0.36616 -0.21885 0.33991
 C830 C 0.35819 -0.17995 0.34104
 C831 C 0.32457 -0.16014 0.32301
 C832 C 0.29928 -0.17886 0.30556
 C833 C 0.30607 -0.21727 0.30651
 C834 C 0.34023 -0.23699 0.32317
 C835 C 0.31514 -0.12181 0.32352
 C836 C 0.33661 -0.10260 0.34269
 C837 C 0.36883 -0.12103 0.36218
 C838 C 0.38098 -0.16024 0.36046
 C839 C 0.41472 -0.17854 0.37882
 C840 C 0.43391 -0.15976 0.39957
 C841 C 0.42059 -0.12198 0.40289
 C842 C 0.38863 -0.10177 0.38384
 C843 C 0.37707 -0.06328 0.38799
 C844 C 0.39538 -0.04614 0.41064
 C845 C 0.42565 -0.06663 0.43003
 C846 C 0.43868 -0.10445 0.42562
 H847 H 0.39097 -0.23628 0.35262
 H848 H 0.27258 -0.16357 0.29279
 H849 H 0.34596 -0.26678 0.32405
 H850 H 0.28993 -0.10646 0.30953
 H851 H 0.32669 -0.07313 0.34192
 H852 H 0.42700 -0.20769 0.37798
 H853 H 0.45900 -0.17520 0.41361
 H854 H 0.35341 -0.04561 0.37453
 H855 H 0.38500 -0.01677 0.41338
 H856 H 0.46261 -0.12046 0.44021
 C857 C 0.36069 0.30762 -0.18556
 C858 C 0.34424 0.32122 -0.15854
 C859 C 0.30529 0.31284 -0.15060
 C860 C 0.28617 0.28906 -0.16750
 C861 C 0.30403 0.27377 -0.19335
 C862 C 0.34058 0.28474 -0.20280
 C863 C 0.28571 0.32766 -0.12548
 C864 C 0.30416 0.35037 -0.10764
 C865 C 0.34390 0.35831 -0.11370
 C866 C 0.36493 0.34259 -0.13907
 C867 C 0.40658 0.34730 -0.14330
 C868 C 0.42720 0.36617 -0.12323
 C869 C 0.40664 0.38243 -0.09881
 C870 C 0.36410 0.38002 -0.09439
 C871 C 0.34354 0.39936 -0.07065
 C872 C 0.36517 0.41802 -0.05106
 C873 C 0.40802 0.41808 -0.05424
 C874 C 0.42846 0.40078 -0.07853
 H875 H 0.38902 0.31429 -0.19397
 H876 H 0.25652 0.28306 -0.16057
 H877 H 0.35548 0.27394 -0.22261
 H878 H 0.25577 0.32145 -0.11940
 H879 H 0.28725 0.35985 -0.08836
 H880 H 0.42483 0.33518 -0.16134
 H881 H 0.45965 0.36805 -0.12688
 H882 H 0.31055 0.40102 -0.06676
 H883 H 0.34834 0.43184 -0.03289
 H884 H 0.46137 0.40151 -0.08161
 C885 C 1.14064 -0.20749 0.19234
 C886 C 1.14912 -0.17391 0.18181
 C887 C 1.17845 -0.15779 0.19824
 C888 C 1.19919 -0.17546 0.22354
 C889 C 1.19052 -0.20883 0.23337
 C890 C 1.16107 -0.22453 0.21751
 C891 C 1.18718 -0.12427 0.18924
 C892 C 1.16739 -0.10613 0.16437
 C893 C 1.13827 -0.12110 0.14706
 C894 C 1.12965 -0.15594 0.15560
 C895 C 1.10245 -0.17195 0.13736
 C896 C 1.08427 -0.15469 0.11176
 C897 C 1.09170 -0.12049 0.10340
 C898 C 1.11810 -0.10279 0.12116
 C899 C 1.12296 -0.06733 0.11224
 C900 C 1.10349 -0.05091 0.08651
 C901 C 1.07872 -0.06915 0.06857
 C902 C 1.07275 -0.10390 0.07726
 H903 H 1.11835 -0.22148 0.18176
 H904 H 1.22199 -0.16317 0.23568
 H905 H 1.15443 -0.25079 0.22413
 H906 H 1.20961 -0.11182 0.20161
 H907 H 1.17645 -0.08061 0.15896
 H908 H 1.09509 -0.19839 0.14188
 H909 H 1.06401 -0.16831 0.09837
 H910 H 1.14114 -0.05124 0.12477
 H911 H 1.10822 -0.02379 0.08050
 H912 H 1.05299 -0.11793 0.06379
 C913 C 1.18103 0.26373 0.67779
 C914 C 1.18480 0.30041 0.67196
 C915 C 1.20953 0.31683 0.69202
 C916 C 1.22939 0.29711 0.71674
 C917 C 1.22427 0.26123 0.72239
 C918 C 1.20036 0.24470 0.70254
 C919 C 1.21389 0.35302 0.68755
 C920 C 1.19355 0.37374 0.66400
 C921 C 1.16803 0.35897 0.64361
 C922 C 1.16446 0.32139 0.64725
 C923 C 1.14065 0.30607 0.62607
 C924 C 1.12039 0.32672 0.60251
 C925 C 1.12253 0.36359 0.59906
 C926 C 1.14613 0.38042 0.61959
 C927 C 1.14629 0.41822 0.61532
 C928 C 1.12455 0.43798 0.59158
 C929 C 1.10194 0.42097 0.57116
 C930 C 1.10100 0.38372 0.57512
 H931 H 1.16291 0.24894 0.66398
 H932 H 1.24779 0.31011 0.73207
 H933 H 1.19665 0.21666 0.70607
 H934 H 1.23298 0.36566 0.70265
 H935 H 1.19885 0.40136 0.66230
 H936 H 1.13720 0.27786 0.62684
 H937 H 1.10254 0.31366 0.58685
 H938 H 1.16245 0.43359 0.63004
 H939 H 1.12555 0.46685 0.58921
 H940 H 1.08320 0.37038 0.55962
 C941 C 0.63451 -0.20382 0.69668
 C942 C 0.65386 -0.17881 0.68167
 C943 C 0.69027 -0.16934 0.69496
 C944 C 0.70794 -0.18645 0.72135
 C945 C 0.68921 -0.21254 0.73560
 C946 C 0.65175 -0.22022 0.72281
 C947 C 0.70881 -0.14282 0.68180
 C948 C 0.69164 -0.12514 0.65601
 C949 C 0.65576 -0.13416 0.64177
 C950 C 0.63778 -0.16262 0.65417
 C951 C 0.60495 -0.17461 0.63838
 C952 C 0.58904 -0.15841 0.61193
 C953 C 0.60445 -0.12916 0.60038
 C954 C 0.63760 -0.11616 0.61528
 C955 C 0.65047 -0.08512 0.60333
 C956 C 0.63148 -0.06819 0.57765
 C957 C 0.59957 -0.08184 0.56273
 C958 C 0.58643 -0.11253 0.57408
 H959 H 0.60561 -0.21123 0.68899
 H960 H 0.73568 -0.17850 0.73095
 H961 H 0.63596 -0.24058 0.73170
 H962 H 0.73673 -0.13537 0.69169
 H963 H 0.70808 -0.10519 0.64726
 H964 H 0.59153 -0.19735 0.64544
 H965 H 0.56395 -0.16865 0.60056
 H966 H 0.67423 -0.07256 0.61371
 H967 H 0.64188 -0.04419 0.56941
 H968 H 0.56123 -0.12281 0.56288
 C969 C 0.64658 0.30100 0.21079
 C970 C 0.65900 0.32895 0.19419
 C971 C 0.69885 0.33759 0.20117
 C972 C 0.72428 0.31959 0.22455
 C973 C 0.71173 0.29149 0.24056
 C974 C 0.67258 0.28253 0.23322
 C975 C 0.71356 0.36348 0.18430
 C976 C 0.69060 0.37964 0.15975
 C977 C 0.65114 0.37134 0.15160
 C978 C 0.63398 0.34735 0.17016
 C979 C 0.59234 0.34264 0.16415
 C980 C 0.56922 0.35883 0.13978
 C981 C 0.58686 0.37972 0.12011
 C982 C 0.62810 0.38627 0.12560
 C983 C 0.64501 0.40651 0.10431
 C984 C 0.62188 0.41952 0.07881
 C985 C 0.58106 0.41323 0.07376
 C986 C 0.56354 0.39369 0.09471
 H987 H 0.61787 0.29138 0.20609
 H988 H 0.75420 0.32717 0.22984
 H989 H 0.66223 0.26004 0.24395
 H990 H 0.74375 0.37060 0.18963
 H991 H 0.70436 0.39913 0.14782
 H992 H 0.57627 0.32707 0.17828
 H993 H 0.53744 0.35428 0.13599
 H994 H 0.67649 0.41185 0.10624
 H995 H 0.63610 0.43461 0.06294
 H996 H 0.53200 0.38855 0.09092
 C997 C 0.85954 0.20422 0.18439
 C998 C 0.84450 0.17423 0.17187
 C999 C 0.81479 0.15939 0.18773
 C1000 C 0.80046 0.17439 0.21439
 C1001 C 0.81577 0.20384 0.22662
 C1002 C 0.84526 0.21872 0.21129
 C1003 C 0.79915 0.12964 0.17698
 C1004 C 0.81311 0.11333 0.15105
 C1005 C 0.84317 0.12644 0.13450
 C1006 C 0.85795 0.15825 0.14445
 C1007 C 0.88515 0.17317 0.12647
 C1008 C 0.89794 0.15732 0.09995
 C1009 C 0.88527 0.12540 0.09065
 C1010 C 0.85842 0.10904 0.10808
 C1011 C 0.84874 0.07535 0.09864
 C1012 C 0.86466 0.05904 0.07294
 C1013 C 0.89025 0.07579 0.05547
 C1014 C 0.90001 0.10926 0.06425
 H1015 H 0.88279 0.21674 0.17420
 H1016 H 0.77662 0.16323 0.22546
 H1017 H 0.85783 0.24133 0.22027
 H1018 H 0.77596 0.11857 0.18889
 H1019 H 0.79882 0.09085 0.14423
 H1020 H 0.89656 0.19763 0.13204
 H1021 H 0.91864 0.16987 0.08681
 H1022 H 0.83016 0.06013 0.11107
 H1023 H 0.85710 0.03291 0.06683
 H1024 H 0.92036 0.12213 0.05104
 C1025 C 0.82065 0.71152 0.68888
 C1026 C 0.83403 0.67305 0.68593
 C1027 C 0.82552 0.65036 0.70903
 C1028 C 0.80449 0.66574 0.73374
 C1029 C 0.78970 0.70396 0.73601
 C1030 C 0.79898 0.72655 0.71332
 C1031 C 0.83738 0.61222 0.70727
 C1032 C 0.85567 0.59583 0.68241
 C1033 C 0.86350 0.61707 0.65829
 C1034 C 0.85443 0.65630 0.66064
 C1035 C 0.86605 0.67736 0.63763
 C1036 C 0.88423 0.66087 0.61270
 C1037 C 0.89078 0.62286 0.60932
 C1038 C 0.88030 0.60036 0.63196
 C1039 C 0.88605 0.56209 0.62692
 C1040 C 0.90183 0.54703 0.60073
 C1041 C 0.91259 0.56935 0.57863
 C1042 C 0.90731 0.60727 0.58318
 H1043 H 0.82494 0.73086 0.67217
 H1044 H 0.79987 0.64740 0.75127
 H1045 H 0.78776 0.75598 0.71312
 H1046 H 0.83161 0.59471 0.72510
 H1047 H 0.86381 0.56624 0.68297
 H1048 H 0.86199 0.70685 0.63835
 H1049 H 0.89255 0.67820 0.59561
 H1050 H 0.87771 0.54304 0.64242
 H1051 H 0.90550 0.51764 0.59776
 H1052 H 0.91540 0.62481 0.56615
 C1053 C 0.38518 0.12995 0.71456
 C1054 C 0.37875 0.14545 0.68607
 C1055 C 0.35589 0.18220 0.68308
 C1056 C 0.33598 0.20065 0.70714
 C1057 C 0.33884 0.18321 0.73459
 C1058 C 0.36544 0.14857 0.73831
 C1059 C 0.35131 0.19972 0.65582
 C1060 C 0.36785 0.18126 0.63119
 C1061 C 0.38837 0.14386 0.63267
 C1062 C 0.39315 0.12547 0.66050
 C1063 C 0.40970 0.08722 0.66161
 C1064 C 0.42059 0.06746 0.63642
 C1065 C 0.41693 0.08509 0.60924
 C1066 C 0.40238 0.12375 0.60705
 C1067 C 0.40230 0.14057 0.57920
 C1068 C 0.41435 0.11960 0.55457
 C1069 C 0.42619 0.08128 0.55674
 C1070 C 0.42772 0.06417 0.58416
 H1071 H 0.40484 0.10332 0.71915
 H1072 H 0.31595 0.22760 0.70388
 H1073 H 0.36957 0.13508 0.75956
 H1074 H 0.33415 0.22792 0.65340
 H1075 H 0.36198 0.19661 0.61093
 H1076 H 0.41273 0.07130 0.68160
 H1077 H 0.43197 0.03796 0.63826
 H1078 H 0.39393 0.16992 0.57578
 H1079 H 0.41397 0.13343 0.53363
 H1080 H 0.43817 0.03455 0.58603
 C1081 C 0.35401 0.69933 0.19500
 C1082 C 0.33700 0.67441 0.17713
 C1083 C 0.29681 0.66771 0.18406
 C1084 C 0.27603 0.68366 0.20856
 C1085 C 0.29424 0.70672 0.22669
 C1086 C 0.33273 0.71527 0.21936
 C1087 C 0.27758 0.64470 0.16682
 C1088 C 0.29742 0.62760 0.14279
 C1089 C 0.33790 0.63245 0.13517
 C1090 C 0.35832 0.65585 0.15284
 C1091 C 0.39969 0.65912 0.14607
 C1092 C 0.42045 0.64031 0.12291
 C1093 C 0.40073 0.61795 0.10523
 C1094 C 0.35896 0.61408 0.11078
 C1095 C 0.34003 0.59189 0.09157
 C1096 C 0.36195 0.57396 0.06838
 C1097 C 0.40342 0.57732 0.06344
 C1098 C 0.42268 0.59938 0.08196
 H1099 H 0.38360 0.70711 0.19081
 H1100 H 0.24544 0.67797 0.21365
 H1101 H 0.34692 0.73356 0.23294
 H1102 H 0.24678 0.63963 0.17206
 H1103 H 0.28032 0.60997 0.13105
 H1104 H 0.41742 0.67548 0.15871
 H1105 H 0.45238 0.64338 0.11876
 H1106 H 0.30817 0.58799 0.09353
 H1107 H 0.34633 0.55715 0.05431
 H1108 H 0.45474 0.60236 0.07813
   
