data_POSCAR
  _audit_creation_date              2014-09-24
  _audit_creation_method            'ToBaCCo'
  _symmetry_space_group_name_H-M    'P1'
  _symmetry_Int_Tables_number       1
  _symmetry_cell_setting            triclinic
  loop_
  _symmetry_equiv_pos_as_xyz
 x,y,z
_cell_length_a 40.4308
_cell_length_b 37.9991
_cell_length_c 38.6754
_cell_angle_alpha 84.667300
_cell_angle_beta 94.049000
_cell_angle_gamma 94.245600
loop_
  _atom_site_label
  _atom_site_type_symbol
  _atom_site_fract_x
  _atom_site_fract_y
  _atom_site_fract_z
C1 C 0.29460 0.30623 0.23989
 H2 H 0.29731 0.30627 0.26792
 C3 C 0.31650 0.32753 0.21922
 H4 H 0.33609 0.34417 0.23130
 C5 C 0.26649 0.28365 0.18985
 H6 H 0.24752 0.26594 0.17849
 C7 C 0.28785 0.30452 0.16825
 H8 H 0.28501 0.30307 0.14035
 N9 N 0.27008 0.28501 0.22498
 C10 C 0.19577 0.26383 0.30234
 H11 H 0.19363 0.23517 0.30434
 C12 C 0.17617 0.28220 0.32188
 H13 H 0.15893 0.26772 0.33911
 C14 C 0.22054 0.31785 0.27713
 H15 H 0.23748 0.33166 0.25932
 C16 C 0.20140 0.33724 0.29619
 H17 H 0.20389 0.36593 0.29324
 Zn18 Zn 0.24300 0.25496 0.25491
 N19 N 0.21769 0.28179 0.28083
 C20 C 0.27217 0.22653 0.32006
 N21 N 0.27191 0.22712 0.28478
 C22 C 0.29338 0.20856 0.26931
 C23 C 0.31571 0.18763 0.28947
 C24 C 0.29414 0.20590 0.34122
 C25 C 0.18966 0.24118 0.20648
 C26 C 0.16771 0.22075 0.18565
 C27 C 0.19305 0.16829 0.21203
 C28 C 0.21454 0.18968 0.23232
 N29 N 0.21294 0.22551 0.22871
 H30 H 0.25549 0.24209 0.33188
 H31 H 0.29300 0.20996 0.24122
 H32 H 0.33253 0.17272 0.27692
 H33 H 0.29412 0.20536 0.36927
 H34 H 0.18862 0.26967 0.20451
 H35 H 0.14974 0.23348 0.16746
 H36 H 0.19490 0.13985 0.21459
 H37 H 0.23258 0.17759 0.25072
 C38 C 0.17911 0.31924 0.31883
 C39 C 0.31311 0.32658 0.18308
 C40 C 0.16967 0.18400 0.18825
 C41 C 0.31600 0.18619 0.32574
 C42 C 0.79536 0.80753 0.23923
 H43 H 0.79810 0.80769 0.26725
 C44 C 0.81718 0.82885 0.21847
 H45 H 0.83671 0.84559 0.23055
 C46 C 0.76727 0.78466 0.18933
 H47 H 0.74835 0.76683 0.17807
 C48 C 0.78854 0.80552 0.16762
 H49 H 0.78559 0.80389 0.13973
 N50 N 0.77090 0.78616 0.22444
 C51 C 0.69666 0.76479 0.30187
 H52 H 0.69460 0.73613 0.30386
 C53 C 0.67699 0.78308 0.32141
 H54 H 0.65979 0.76853 0.33864
 C55 C 0.72129 0.81889 0.27670
 H56 H 0.73821 0.83277 0.25890
 C57 C 0.70208 0.83820 0.29576
 H58 H 0.70450 0.86690 0.29283
 Zn59 Zn 0.74395 0.75607 0.25448
 N60 N 0.71854 0.78283 0.28037
 C61 C 0.77315 0.72775 0.31965
 N62 N 0.77296 0.72837 0.28437
 C63 C 0.79449 0.70986 0.26892
 C64 C 0.81678 0.68891 0.28910
 C65 C 0.79509 0.70708 0.34083
 C66 C 0.69060 0.74198 0.20614
 C67 C 0.66870 0.72141 0.18539
 C68 C 0.69426 0.66912 0.21186
 C69 C 0.71569 0.69064 0.23207
 N70 N 0.71396 0.72645 0.22838
 H71 H 0.75642 0.74326 0.33145
 H72 H 0.79415 0.71129 0.24083
 H73 H 0.83362 0.67402 0.27657
 H74 H 0.79498 0.70648 0.36888
 H75 H 0.68944 0.77046 0.20411
 H76 H 0.65066 0.73402 0.16719
 H77 H 0.69622 0.64070 0.21448
 H78 H 0.73380 0.67867 0.25047
 C79 C 0.67983 0.82012 0.31839
 C80 C 0.81377 0.82775 0.18232
 C81 C 0.67080 0.68468 0.18807
 C82 C 0.81698 0.68739 0.32537
 C83 C 0.79589 0.30555 0.74116
 H84 H 0.79868 0.30558 0.76918
 C85 C 0.81768 0.32693 0.72042
 H86 H 0.83726 0.34362 0.73244
 C87 C 0.76768 0.28294 0.69118
 H88 H 0.74871 0.26519 0.67988
 C89 C 0.78892 0.30388 0.66952
 H90 H 0.78599 0.30246 0.64161
 N91 N 0.77136 0.28428 0.72631
 C92 C 0.69717 0.26304 0.80380
 H93 H 0.69508 0.23438 0.80586
 C94 C 0.67750 0.28143 0.82326
 H95 H 0.66026 0.26694 0.84049
 C96 C 0.72184 0.31706 0.77849
 H97 H 0.73876 0.33087 0.76064
 C98 C 0.70263 0.33646 0.79746
 H99 H 0.70505 0.36515 0.79441
 Zn100 Zn 0.74436 0.25419 0.75630
 N101 N 0.71907 0.28100 0.78226
 C102 C 0.77358 0.22557 0.82136
 N103 N 0.77332 0.22631 0.78607
 C104 C 0.79477 0.20783 0.77050
 C105 C 0.81709 0.18678 0.79053
 C106 C 0.79554 0.20483 0.84244
 C107 C 0.69094 0.24046 0.70796
 C108 C 0.66899 0.22005 0.68710
 C109 C 0.69441 0.16758 0.71331
 C110 C 0.71590 0.18894 0.73363
 N111 N 0.71426 0.22476 0.73011
 H112 H 0.75691 0.24108 0.83324
 H113 H 0.79436 0.20935 0.74240
 H114 H 0.83383 0.17197 0.77772
 H115 H 0.79539 0.20426 0.87051
 H116 H 0.68987 0.26894 0.70606
 H117 H 0.65100 0.23281 0.66896
 H118 H 0.69630 0.13915 0.71578
 H119 H 0.73398 0.17682 0.75197
 C120 C 0.68034 0.31847 0.82010
 C121 C 0.81417 0.32600 0.68428
 C122 C 0.67100 0.18331 0.68959
 C123 C 0.81741 0.18514 0.82686
 C124 C 0.29485 0.80688 0.74038
 H125 H 0.29755 0.80700 0.76840
 C126 C 0.31672 0.82817 0.71966
 H127 H 0.33628 0.84488 0.73169
 C128 C 0.26680 0.78410 0.69040
 H129 H 0.24788 0.76631 0.67909
 C130 C 0.28813 0.80495 0.66876
 H131 H 0.28531 0.80341 0.64086
 N132 N 0.27037 0.78555 0.72552
 C133 C 0.19610 0.76419 0.80292
 H134 H 0.19405 0.73553 0.80496
 C135 C 0.17637 0.78251 0.82237
 H136 H 0.15914 0.76798 0.83958
 C137 C 0.22070 0.81827 0.77767
 H138 H 0.23762 0.83212 0.75985
 C139 C 0.20143 0.83761 0.79664
 H140 H 0.20381 0.86630 0.79362
 Zn141 Zn 0.24338 0.75545 0.75550
 N142 N 0.21798 0.78221 0.78141
 C143 C 0.27259 0.72692 0.82061
 N144 N 0.27237 0.72767 0.78532
 C145 C 0.29389 0.70924 0.76978
 C146 C 0.31623 0.68827 0.78986
 C147 C 0.29459 0.70624 0.84169
 C148 C 0.19005 0.74152 0.70709
 C149 C 0.16817 0.72102 0.68625
 C150 C 0.19367 0.66865 0.71263
 C151 C 0.21508 0.69011 0.73293
 N152 N 0.21338 0.72592 0.72932
 H153 H 0.25586 0.74237 0.83248
 H154 H 0.29352 0.71076 0.74168
 H155 H 0.33309 0.67346 0.77724
 H156 H 0.29452 0.70556 0.86975
 H157 H 0.18892 0.77000 0.70511
 H158 H 0.15017 0.73369 0.66805
 H159 H 0.19561 0.64023 0.71518
 H160 H 0.23316 0.67807 0.75132
 C161 C 0.17915 0.81955 0.81925
 C162 C 0.31335 0.82709 0.68353
 C163 C 0.17026 0.68428 0.68884
 C164 C 0.31649 0.68665 0.82613
 C165 C 0.03027 -0.03064 -0.03110
 C166 C 0.05148 -0.00669 -0.00717
 C167 C 0.03314 0.01244 0.01159
 C168 C -0.00463 0.00603 0.00483
 C169 C 0.00706 -0.05359 -0.00713
 C170 C -0.01116 -0.03429 0.01162
 C171 C 0.00763 -0.00583 -0.05368
 C172 C -0.01059 0.01330 -0.03478
 H173 H 0.07849 -0.00511 -0.00513
 H174 H -0.01950 0.02168 0.02017
 H175 H 0.00503 -0.08236 -0.00535
 H176 H 0.00587 -0.00388 -0.08195
 C177 C 0.03139 0.46925 0.46948
 C178 C 0.05263 0.49318 0.49341
 C179 C 0.03429 0.51230 0.51219
 C180 C -0.00348 0.50588 0.50546
 C181 C 0.00820 0.44629 0.49345
 C182 C -0.01001 0.46557 0.51223
 C183 C 0.00875 0.49407 0.44693
 C184 C -0.00946 0.51318 0.46585
 H185 H 0.07963 0.49477 0.49542
 H186 H -0.01835 0.52153 0.52082
 H187 H 0.00618 0.41751 0.49524
 H188 H 0.00700 0.49606 0.41866
 C189 C 0.53178 -0.03063 0.46943
 C190 C 0.55301 -0.00674 0.49341
 C191 C 0.53469 0.01235 0.51222
 C192 C 0.49691 0.00597 0.50547
 C193 C 0.50856 -0.05361 0.49337
 C194 C 0.49036 -0.03436 0.51217
 C195 C 0.50914 -0.00577 0.44691
 C196 C 0.49093 0.01332 0.46587
 H197 H 0.58002 -0.00519 0.49545
 H198 H 0.48206 0.02160 0.52085
 H199 H 0.50649 -0.08239 0.49507
 H200 H 0.50732 -0.00381 0.41864
 C201 C 0.53183 0.46893 -0.03052
 C202 C 0.55304 0.49289 -0.00660
 C203 C 0.53470 0.51206 0.01213
 C204 C 0.49692 0.50565 0.00536
 C205 C 0.50860 0.44602 -0.00655
 C206 C 0.49037 0.46534 0.01217
 C207 C 0.50921 0.49374 -0.05313
 C208 C 0.49098 0.51289 -0.03426
 H209 H 0.58005 0.49450 -0.00457
 H210 H 0.48206 0.52133 0.02067
 H211 H 0.50651 0.41724 -0.00479
 H212 H 0.50745 0.49565 -0.08140
 C213 C 0.08434 -0.08662 -0.12797
 C214 C 0.12281 -0.08390 -0.12691
 C215 C 0.12228 -0.12454 -0.12420
 C216 C 0.08411 -0.12757 -0.12557
 C217 C 0.08624 -0.08830 -0.08804
 C218 C 0.08570 -0.12893 -0.08532
 C219 C 0.12441 -0.08527 -0.08668
 C220 C 0.12418 -0.12621 -0.08427
 C221 C 0.14245 -0.14460 -0.14435
 C222 C 0.15913 -0.16100 -0.16093
 C223 C 0.06628 -0.06802 -0.06790
 C224 C 0.04998 -0.05122 -0.05131
 H225 H 0.06773 -0.07011 -0.14571
 H226 H 0.13830 -0.06561 -0.14424
 H227 H 0.06777 -0.14519 -0.14179
 H228 H 0.07021 -0.14721 -0.06799
 H229 H 0.14075 -0.06765 -0.07046
 H230 H 0.14079 -0.14272 -0.06653
 C231 C 0.08612 0.41456 0.37233
 C232 C 0.12459 0.41592 0.37440
 C233 C 0.12279 0.37529 0.37582
 C234 C 0.08463 0.37361 0.37344
 C235 C 0.08709 0.41157 0.41227
 C236 C 0.08528 0.37094 0.41370
 C237 C 0.12525 0.41324 0.41465
 C238 C 0.12376 0.37230 0.41576
 C239 C 0.14276 0.35518 0.35551
 C240 C 0.15928 0.33875 0.33879
 C241 C 0.06728 0.43187 0.43255
 C242 C 0.05106 0.44868 0.44922
 H243 H 0.07042 0.43217 0.35471
 H244 H 0.14098 0.43419 0.35800
 H245 H 0.06815 0.35709 0.35627
 H246 H 0.06888 0.35268 0.43010
 H247 H 0.14173 0.42977 0.43182
 H248 H 0.13946 0.35470 0.43339
 C249 C 0.61653 -0.10979 0.42740
 C250 C 0.60279 -0.14051 0.40564
 C251 C 0.62333 -0.12415 0.37550
 C252 C 0.63739 -0.09374 0.39695
 C253 C 0.58753 -0.08809 0.41208
 C254 C 0.60808 -0.07173 0.38194
 C255 C 0.57347 -0.11849 0.39063
 C256 C 0.59433 -0.10245 0.36018
 C257 C 0.64337 -0.14413 0.35513
 C258 C 0.65994 -0.16047 0.33838
 C259 C 0.56769 -0.06789 0.43242
 C260 C 0.55144 -0.05115 0.44913
 H261 H 0.62543 -0.11258 0.45527
 H262 H 0.60084 -0.16902 0.41515
 H263 H 0.66389 -0.08379 0.39933
 H264 H 0.61003 -0.04323 0.37243
 H265 H 0.54696 -0.12844 0.38826
 H266 H 0.58543 -0.09965 0.33231
 C267 C 0.58733 0.41432 -0.12726
 C268 C 0.62580 0.41527 -0.12459
 C269 C 0.62364 0.37464 -0.12343
 C270 C 0.58549 0.37338 -0.12641
 C271 C 0.58772 0.41107 -0.08735
 C272 C 0.58556 0.37045 -0.08618
 C273 C 0.62587 0.41233 -0.08437
 C274 C 0.62403 0.37139 -0.08351
 C275 C 0.64375 0.35447 -0.14354
 C276 C 0.66038 0.33799 -0.16010
 C277 C 0.56781 0.43145 -0.06725
 C278 C 0.55153 0.44831 -0.05069
 H279 H 0.57202 0.43221 -0.14502
 H280 H 0.64257 0.43347 -0.14061
 H281 H 0.56911 0.35713 -0.14393
 H282 H 0.56878 0.35226 -0.07015
 H283 H 0.64225 0.42858 -0.06686
 H284 H 0.63934 0.35351 -0.06575
 C285 C -0.08104 0.08801 -0.12320
 C286 C -0.11926 0.08361 -0.12143
 C287 C -0.11953 0.12343 -0.11741
 C288 C -0.08163 0.12816 -0.11945
 C289 C -0.07726 0.08125 -0.08338
 C290 C -0.07750 0.12107 -0.07932
 C291 C -0.11516 0.07650 -0.08132
 C292 C -0.11581 0.11672 -0.07758
 C293 C -0.14293 0.14657 -0.13711
 C294 C -0.16203 0.16524 -0.15408
 C295 C -0.05361 0.05741 -0.06518
 C296 C -0.03405 0.03748 -0.05096
 H297 H -0.06649 0.07595 -0.14177
 H298 H -0.13669 0.06846 -0.13896
 H299 H -0.06810 0.14966 -0.13534
 H300 H -0.06006 0.13619 -0.06179
 H301 H -0.12868 0.05499 -0.06543
 H302 H -0.13038 0.12880 -0.05905
 C303 C -0.07929 0.58850 0.37743
 C304 C -0.11755 0.58390 0.37872
 C305 C -0.11806 0.62362 0.38314
 C306 C -0.08012 0.62855 0.38157
 C307 C -0.07594 0.58132 0.41723
 C308 C -0.07641 0.62103 0.42168
 C309 C -0.11388 0.57637 0.41881
 C310 C -0.11476 0.61648 0.42295
 C311 C -0.14139 0.64682 0.36340
 C312 C -0.16044 0.66552 0.34644
 C313 C -0.05236 0.55742 0.43546
 C314 C -0.03286 0.53743 0.44969
 H315 H -0.06446 0.57674 0.35891
 H316 H -0.13472 0.56888 0.36085
 H317 H -0.06650 0.65027 0.36604
 H318 H -0.05922 0.63602 0.43956
 H319 H -0.12749 0.55464 0.43434
 H320 H -0.12961 0.62826 0.44143
 C321 C 0.39168 0.09069 0.43179
 C322 C 0.39978 0.12994 0.41850
 C323 C 0.38143 0.12288 0.38340
 C324 C 0.37295 0.08403 0.39638
 C325 C 0.42394 0.08095 0.41739
 C326 C 0.40556 0.07395 0.38230
 C327 C 0.43243 0.11980 0.40441
 C328 C 0.41370 0.11311 0.36905
 C329 C 0.35790 0.14588 0.36372
 C330 C 0.33871 0.16444 0.34678
 C331 C 0.44772 0.05725 0.43556
 C332 C 0.46738 0.03741 0.44974
 H333 H 0.38291 0.08119 0.45781
 H334 H 0.39712 0.15323 0.43315
 H335 H 0.34823 0.06958 0.39287
 H336 H 0.40819 0.05067 0.36761
 H337 H 0.45715 0.13424 0.40792
 H338 H 0.42250 0.12258 0.34304
 C339 C 0.39208 0.59071 -0.06817
 C340 C 0.40033 0.62993 -0.08147
 C341 C 0.38180 0.62298 -0.11651
 C342 C 0.37318 0.58417 -0.10352
 C343 C 0.42421 0.58080 -0.08272
 C344 C 0.40566 0.57390 -0.11775
 C345 C 0.43284 0.61961 -0.09570
 C346 C 0.41394 0.61304 -0.13101
 C347 C 0.35833 0.64613 -0.13607
 C348 C 0.33917 0.66480 -0.15291
 C349 C 0.44793 0.55697 -0.06463
 C350 C 0.46751 0.53705 -0.05045
 H351 H 0.38338 0.58125 -0.04212
 H352 H 0.39785 0.65324 -0.06678
 H353 H 0.34839 0.56985 -0.10695
 H354 H 0.40811 0.55061 -0.13248
 H355 H 0.45764 0.63392 -0.09228
 H356 H 0.42268 0.62247 -0.15705
 C357 C -0.07844 -0.07902 0.11749
 C358 C -0.11662 -0.07625 0.11359
 C359 C -0.12139 -0.11676 0.12004
 C360 C -0.08361 -0.11983 0.12432
 C361 C -0.07860 -0.08306 0.07832
 C362 C -0.08340 -0.12356 0.08481
 C363 C -0.11637 -0.07997 0.07403
 C364 C -0.12151 -0.12076 0.08087
 C365 C -0.14509 -0.13618 0.14300
 C366 C -0.16447 -0.15281 0.16160
 C367 C -0.05467 -0.06493 0.05483
 C368 C -0.03489 -0.05066 0.03527
 H369 H -0.06046 -0.06164 0.13228
 H370 H -0.13055 -0.05702 0.12570
 H371 H -0.07040 -0.13642 0.14525
 H372 H -0.06949 -0.14282 0.07272
 H373 H -0.12957 -0.06338 0.05309
 H374 H -0.13948 -0.13814 0.06605
 C375 C -0.11403 0.40741 0.56850
 C376 C -0.11065 0.36965 0.58664
 C377 C -0.11995 0.38284 0.62081
 C378 C -0.12369 0.42034 0.60303
 C379 C -0.07729 0.41668 0.57903
 C380 C -0.08655 0.42992 0.61320
 C381 C -0.07358 0.37919 0.59683
 C382 C -0.08321 0.39211 0.63135
 C383 C -0.14358 0.36334 0.64379
 C384 C -0.16291 0.34665 0.66241
 C385 C -0.05342 0.43487 0.55551
 C386 C -0.03369 0.44917 0.53591
 H387 H -0.12643 0.41390 0.54240
 H388 H -0.12081 0.34466 0.57597
 H389 H -0.14458 0.43703 0.60586
 H390 H -0.07636 0.45492 0.62384
 H391 H -0.05271 0.36247 0.59402
 H392 H -0.07080 0.38561 0.65745
 C393 C 0.38612 -0.09277 0.56775
 C394 C 0.38959 -0.13025 0.58653
 C395 C 0.37970 -0.11657 0.62024
 C396 C 0.37586 -0.07936 0.60182
 C397 C 0.42269 -0.08304 0.57865
 C398 C 0.41283 -0.06932 0.61236
 C399 C 0.42650 -0.12025 0.59709
 C400 C 0.41627 -0.10685 0.63115
 C401 C 0.35588 -0.13589 0.64314
 C402 C 0.33642 -0.15242 0.66170
 C403 C 0.44673 -0.06499 0.55524
 C404 C 0.46658 -0.05075 0.53574
 H405 H 0.37400 -0.08678 0.54142
 H406 H 0.37978 -0.15550 0.57615
 H407 H 0.35476 -0.06277 0.60404
 H408 H 0.42267 -0.04406 0.62270
 H409 H 0.44758 -0.13687 0.59489
 H410 H 0.42840 -0.11285 0.65748
 C411 C 0.38602 0.40693 0.06751
 C412 C 0.38949 0.36945 0.08626
 C413 C 0.37951 0.38307 0.11996
 C414 C 0.37566 0.42029 0.10157
 C415 C 0.42256 0.41669 0.07850
 C416 C 0.41261 0.43036 0.11219
 C417 C 0.42637 0.37947 0.09691
 C418 C 0.41605 0.39282 0.13096
 C419 C 0.35566 0.36369 0.14279
 C420 C 0.33619 0.34711 0.16130
 C421 C 0.44664 0.43477 0.05515
 C422 C 0.46653 0.44900 0.03570
 H423 H 0.37394 0.41294 0.04115
 H424 H 0.37972 0.34420 0.07584
 H425 H 0.35454 0.43685 0.10375
 H426 H 0.42240 0.45561 0.12258
 H427 H 0.44748 0.36288 0.09474
 H428 H 0.42813 0.38681 0.15731
 C429 C 0.07725 0.11988 0.07813
 C430 C 0.07450 0.11710 0.11811
 C431 C 0.11259 0.12122 0.12300
 C432 C 0.11563 0.12437 0.08344
 C433 C 0.07945 0.07954 0.08008
 C434 C 0.11753 0.08372 0.08503
 C435 C 0.07639 0.07636 0.11964
 C436 C 0.11476 0.08088 0.12491
 C437 C 0.13193 0.14406 0.14662
 C438 C 0.14869 0.16247 0.16576
 C439 C 0.06188 0.05600 0.05593
 C440 C 0.04833 0.03631 0.03584
 H441 H 0.06162 0.13564 0.05862
 H442 H 0.05703 0.13110 0.13199
 H443 H 0.13197 0.14436 0.06880
 H444 H 0.13504 0.06974 0.07118
 H445 H 0.06004 0.05635 0.13424
 H446 H 0.13038 0.06509 0.14440
 C447 C 0.07902 0.57496 0.62041
 C448 C 0.11734 0.58135 0.62409
 C449 C 0.11345 0.62132 0.62355
 C450 C 0.07540 0.61532 0.62025
 C451 C 0.08048 0.57952 0.58064
 C452 C 0.07656 0.61948 0.58007
 C453 C 0.11852 0.58557 0.58400
 C454 C 0.11489 0.62585 0.58379
 C455 C 0.13268 0.64423 0.64718
 C456 C 0.14936 0.66270 0.66633
 C457 C 0.06300 0.55591 0.55650
 C458 C 0.04948 0.53619 0.53642
 H459 H 0.06406 0.55376 0.63518
 H460 H 0.13431 0.56592 0.64245
 H461 H 0.05789 0.62783 0.63544
 H462 H 0.05958 0.63488 0.56168
 H463 H 0.13607 0.57308 0.56885
 H464 H 0.12985 0.64703 0.56898
 C465 C 0.57952 0.07442 0.62075
 C466 C 0.61785 0.08076 0.62442
 C467 C 0.61401 0.12071 0.62410
 C468 C 0.57596 0.11477 0.62082
 C469 C 0.58095 0.07919 0.58099
 C470 C 0.57708 0.11914 0.58063
 C471 C 0.61900 0.08518 0.58433
 C472 C 0.61542 0.12545 0.58433
 C473 C 0.63331 0.14348 0.64782
 C474 C 0.65005 0.16184 0.66704
 C475 C 0.56342 0.05573 0.55673
 C476 C 0.54989 0.03612 0.53655
 H477 H 0.56455 0.05317 0.63545
 H478 H 0.63482 0.06522 0.64268
 H479 H 0.55849 0.12721 0.63610
 H480 H 0.56010 0.13465 0.56234
 H481 H 0.63651 0.07277 0.56907
 H482 H 0.63039 0.14669 0.56961
 C483 C 0.57668 0.61941 0.07991
 C484 C 0.57587 0.61514 0.12013
 C485 C 0.61391 0.62147 0.12308
 C486 C 0.61499 0.62612 0.08328
 C487 C 0.58089 0.57952 0.08035
 C488 C 0.61891 0.58590 0.08335
 C489 C 0.57978 0.57484 0.12014
 C490 C 0.61808 0.58158 0.12347
 C491 C 0.63317 0.64448 0.14660
 C492 C 0.64988 0.66301 0.16567
 C493 C 0.56339 0.55582 0.05630
 C494 C 0.54987 0.53603 0.03628
 H495 H 0.55944 0.63469 0.06172
 H496 H 0.55841 0.62744 0.13553
 H497 H 0.62968 0.64745 0.06837
 H498 H 0.63643 0.57363 0.06798
 H499 H 0.56509 0.55349 0.13503
 H500 H 0.63532 0.56626 0.14163
   
