data_POSCAR
  _audit_creation_date              2014-09-24
  _audit_creation_method            'ToBaCCo'
  _symmetry_space_group_name_H-M    'P1'
  _symmetry_Int_Tables_number       1
  _symmetry_cell_setting            triclinic
  loop_
  _symmetry_equiv_pos_as_xyz
 x,y,z
_cell_length_a 45.5838
_cell_length_b 45.5831
_cell_length_c 38.1567
_cell_angle_alpha 89.970300
_cell_angle_beta 89.967400
_cell_angle_gamma 89.922700
loop_
  _atom_site_label
  _atom_site_type_symbol
  _atom_site_fract_x
  _atom_site_fract_y
  _atom_site_fract_z
O1 O -0.02867 0.29706 0.03317
 O2 O 0.02937 0.29591 -0.03451
 O3 O -0.02837 0.29673 -0.03493
 O4 O 0.02888 0.29670 0.03341
 O5 O 0.02829 0.24826 0.03382
 O6 O -0.02863 0.24829 -0.03423
 O7 O 0.02799 0.24759 -0.03455
 O8 O -0.02838 0.24863 0.03406
 Cu9 Cu 0.00033 0.30149 -0.00081
 Cu10 Cu -0.00022 0.24338 -0.00017
 C11 C -0.03828 0.27292 0.04525
 C12 C 0.03862 0.27144 -0.04618
 C13 C -0.03828 0.27245 -0.04616
 C14 C 0.03835 0.27240 0.04522
 O15 O 0.52962 0.79748 0.46602
 O16 O 0.47213 0.79777 0.53413
 O17 O 0.52971 0.79748 0.53403
 O18 O 0.47205 0.79770 0.46615
 O19 O 0.47235 0.74926 0.46604
 O20 O 0.52913 0.74905 0.53426
 O21 O 0.47240 0.74933 0.53435
 O22 O 0.52906 0.74905 0.46593
 Cu23 Cu 0.50090 0.80250 0.50008
 Cu24 Cu 0.50073 0.74433 0.50015
 C25 C 0.53911 0.77315 0.45437
 C26 C 0.46248 0.77352 0.54582
 C27 C 0.53922 0.77315 0.54572
 C28 C 0.46239 0.77344 0.45453
 O29 O 1.03123 0.70577 0.03395
 O30 O 0.97343 0.70414 -0.03385
 O31 O 1.03109 0.70573 -0.03386
 O32 O 0.97356 0.70408 0.03427
 O33 O 0.97257 0.75251 0.03433
 O34 O 1.02906 0.75403 -0.03418
 O35 O 0.97247 0.75257 -0.03394
 O36 O 1.02917 0.75407 0.03425
 Cu37 Cu 1.00244 0.70005 0.00014
 Cu38 Cu 1.00068 0.75811 0.00012
 C39 C 1.04015 0.73029 0.04572
 C40 C 0.96317 0.72818 -0.04548
 C41 C 1.03997 0.73025 -0.04571
 C42 C 0.96331 0.72811 0.04593
 O43 O 0.52851 0.19983 0.53406
 O44 O 0.47093 0.19992 0.46607
 O45 O 0.52856 0.20002 0.46603
 O46 O 0.47088 0.19999 0.53408
 O47 O 0.47132 0.24843 0.53424
 O48 O 0.52804 0.24846 0.46593
 O49 O 0.47134 0.24836 0.46595
 O50 O 0.52803 0.24827 0.53423
 Cu51 Cu 0.49973 0.19504 0.50006
 Cu52 Cu 0.49968 0.25321 0.50009
 C53 C 0.53806 0.22411 0.54572
 C54 C 0.46134 0.22423 0.45445
 C55 C 0.53810 0.22434 0.45440
 C56 C 0.46129 0.22431 0.54573
 O57 O 0.70300 -0.02886 0.03360
 O58 O 0.70415 0.02921 -0.03400
 O59 O 0.70324 -0.02849 -0.03448
 O60 O 0.70344 0.02869 0.03389
 O61 O 0.75187 0.02793 0.03412
 O62 O 0.75167 -0.02897 -0.03392
 O63 O 0.75247 0.02761 -0.03422
 O64 O 0.75144 -0.02875 0.03436
 Cu65 Cu 0.69856 0.00017 -0.00032
 Cu66 Cu 0.75669 -0.00061 0.00013
 C67 C 0.72714 -0.03858 0.04559
 C68 C 0.72862 0.03835 -0.04576
 C69 C 0.72749 -0.03849 -0.04580
 C70 C 0.72776 0.03809 0.04559
 O71 O 0.20090 0.47220 0.53370
 O72 O 0.20106 0.52978 0.46563
 O73 O 0.20111 0.47215 0.46570
 O74 O 0.20102 0.52984 0.53366
 O75 O 0.24946 0.52926 0.53389
 O76 O 0.24954 0.47249 0.46564
 O77 O 0.24950 0.52923 0.46556
 O78 O 0.24933 0.47252 0.53394
 Cu79 Cu 0.19613 0.50101 0.49966
 Cu80 Cu 0.25429 0.50087 0.49977
 C81 C 0.22516 0.46255 0.54538
 C82 C 0.22539 0.53930 0.45401
 C83 C 0.22542 0.46250 0.45413
 C84 C 0.22532 0.53935 0.54534
 O85 O 0.29445 1.03101 0.03355
 O86 O 0.29593 0.97329 -0.03439
 O87 O 0.29438 1.03098 -0.03429
 O88 O 0.29608 0.97334 0.03375
 O89 O 0.24765 0.97252 0.03395
 O90 O 0.24608 1.02914 -0.03442
 O91 O 0.24751 0.97251 -0.03434
 O92 O 0.24615 1.02912 0.03401
 Cu93 Cu 0.30009 1.00224 -0.00036
 Cu94 Cu 0.24204 1.00070 -0.00019
 C95 C 0.26995 1.03999 0.04545
 C96 C 0.27187 0.96313 -0.04597
 C97 C 0.26985 1.03999 -0.04601
 C98 C 0.27205 0.96318 0.04549
 O99 O 0.79887 0.52808 0.53450
 O100 O 0.79869 0.47062 0.46643
 O101 O 0.79883 0.52819 0.46648
 O102 O 0.79859 0.47050 0.53442
 O103 O 0.75015 0.47118 0.53458
 O104 O 0.75039 0.52795 0.46634
 O105 O 0.75025 0.47128 0.46630
 O106 O 0.75043 0.52787 0.53466
 Cu107 Cu 0.80365 0.49933 0.50046
 Cu108 Cu 0.74547 0.49960 0.50047
 C109 C 0.77461 0.53773 0.54618
 C110 C 0.77437 0.46118 0.45477
 C111 C 0.77456 0.53785 0.45482
 C112 C 0.77425 0.46103 0.54607
 O113 O 0.22866 0.26949 0.29594
 O114 O 0.24195 0.20345 0.24272
 O115 O 0.26877 0.22842 0.29565
 O116 O 0.20273 0.24377 0.24322
 O117 O 0.22930 0.27012 0.20648
 O118 O 0.29519 0.25525 0.25928
 O119 O 0.26951 0.22934 0.20651
 O120 O 0.25555 0.29556 0.25928
 Cu121 Cu 0.23295 0.23369 0.27324
 Cu122 Cu 0.26503 0.26517 0.22914
 C123 C 0.24005 0.29377 0.28686
 C124 C 0.25757 0.20525 0.21525
 C125 C 0.29318 0.23960 0.28671
 C126 C 0.20484 0.25911 0.21554
 O127 O 0.70479 0.74303 0.25796
 O128 O 0.77099 0.72886 0.20524
 O129 O 0.74488 0.70323 0.25805
 O130 O 0.73025 0.76918 0.20510
 O131 O 0.75692 0.79555 0.24163
 O132 O 0.77153 0.72962 0.29457
 O133 O 0.79704 0.75580 0.24180
 O134 O 0.73091 0.77000 0.29443
 Cu135 Cu 0.73514 0.73345 0.22780
 Cu136 Cu 0.76670 0.76536 0.27188
 C137 C 0.70662 0.75863 0.28544
 C138 C 0.79526 0.74026 0.21427
 C139 C 0.76035 0.70523 0.28561
 C140 C 0.74141 0.79358 0.21409
 O141 O 0.73062 0.22869 0.29519
 O142 O 0.79651 0.24342 0.24219
 O143 O 0.77100 0.26928 0.29518
 O144 O 0.75684 0.20335 0.24228
 O145 O 0.72980 0.22962 0.20593
 O146 O 0.74399 0.29557 0.25882
 O147 O 0.77006 0.27025 0.20581
 O148 O 0.70419 0.25556 0.25884
 Cu149 Cu 0.76636 0.23358 0.27249
 Cu150 Cu 0.73437 0.26537 0.22859
 C151 C 0.70621 0.23994 0.28631
 C152 C 0.79447 0.25901 0.21469
 C153 C 0.75961 0.29362 0.28627
 C154 C 0.74125 0.20530 0.21480
 O155 O 0.27092 0.77137 0.20566
 O156 O 0.25615 0.70534 0.25838
 O157 O 0.23017 0.73115 0.20567
 O158 O 0.29636 0.74493 0.25844
 O159 O 0.27023 0.77173 0.29518
 O160 O 0.20424 0.75868 0.24192
 O161 O 0.22924 0.73171 0.29476
 O162 O 0.24456 0.79784 0.24251
 Cu163 Cu 0.26600 0.73556 0.22826
 Cu164 Cu 0.23447 0.76757 0.27243
 C165 C 0.25989 0.79581 0.21482
 C166 C 0.24048 0.70730 0.28580
 C167 C 0.20606 0.74308 0.21445
 C168 C 0.29451 0.76033 0.28609
 O169 O 0.70389 0.25445 0.74133
 O170 O 0.76974 0.26910 0.79423
 O171 O 0.74357 0.29459 0.74139
 O172 O 0.72946 0.22841 0.79416
 O173 O 0.75703 0.20245 0.75797
 O174 O 0.77048 0.26842 0.70480
 O175 O 0.79631 0.24265 0.75754
 O176 O 0.73033 0.22755 0.70501
 Cu177 Cu 0.73401 0.26424 0.77154
 Cu178 Cu 0.76612 0.23266 0.72750
 C179 C 0.70592 0.23881 0.71391
 C180 C 0.79420 0.25804 0.78517
 C181 C 0.75912 0.29274 0.71385
 C182 C 0.74137 0.20428 0.78540
 O183 O 0.29596 0.74484 0.74140
 O184 O 0.22958 0.73093 0.79380
 O185 O 0.25573 0.70526 0.74109
 O186 O 0.27032 0.77114 0.79411
 O187 O 0.24410 0.79773 0.75724
 O188 O 0.22897 0.73174 0.70468
 O189 O 0.20379 0.75856 0.75752
 O190 O 0.26998 0.77175 0.70462
 Cu191 Cu 0.26548 0.73539 0.77138
 Cu192 Cu 0.23413 0.76754 0.72717
 C193 C 0.29422 0.76032 0.71380
 C194 C 0.20551 0.74290 0.78495
 C195 C 0.24016 0.70730 0.71361
 C196 C 0.25934 0.79562 0.78498
 O197 O 0.25475 0.29580 0.74049
 O198 O 0.26885 0.22966 0.79331
 O199 O 0.29457 0.25566 0.74054
 O200 O 0.22847 0.27033 0.79328
 O201 O 0.20224 0.24337 0.75682
 O202 O 0.26829 0.22887 0.70405
 O203 O 0.24173 0.20357 0.75688
 O204 O 0.22783 0.26968 0.70398
 Cu205 Cu 0.26429 0.26548 0.77064
 Cu206 Cu 0.23244 0.23382 0.72653
 C207 C 0.23920 0.29397 0.71298
 C208 C 0.25717 0.20549 0.78446
 C209 C 0.29266 0.24005 0.71307
 C210 C 0.20423 0.25880 0.78440
 O211 O 0.73117 0.77006 0.70549
 O212 O 0.79716 0.75588 0.75840
 O213 O 0.77174 0.72960 0.70571
 O214 O 0.75716 0.79573 0.75821
 O215 O 0.73031 0.76954 0.79479
 O216 O 0.74495 0.70339 0.74235
 O217 O 0.77095 0.72913 0.79507
 O218 O 0.70491 0.74324 0.74205
 Cu219 Cu 0.76692 0.76542 0.72816
 Cu220 Cu 0.73517 0.73371 0.77236
 C221 C 0.70684 0.75874 0.71448
 C222 C 0.79527 0.74045 0.78603
 C223 C 0.76050 0.70527 0.71481
 C224 C 0.74159 0.79386 0.78572
 C225 C 0.26617 0.10772 0.12055
 C226 C 0.24086 0.09142 0.11303
 C227 C 0.24226 0.06902 0.08797
 C228 C 0.26899 0.06215 0.07106
 C229 C 0.29442 0.07827 0.07981
 C230 C 0.29296 0.10145 0.10399
 C231 C 0.26445 0.13212 0.14585
 C232 C 0.28937 0.14947 0.15206
 C233 C 0.28721 0.17345 0.17503
 C234 C 0.26063 0.17939 0.19244
 C235 C 0.23613 0.16130 0.18665
 C236 C 0.23776 0.13795 0.16288
 C237 C 0.31762 0.11885 0.11152
 C238 C 0.31579 0.14260 0.13490
 C239 C 0.21453 0.09797 0.13055
 C240 C 0.21307 0.12070 0.15527
 H241 H 0.33842 0.11432 0.09886
 H242 H 0.33521 0.15570 0.13956
 H243 H 0.19488 0.08544 0.12509
 H244 H 0.19233 0.12506 0.16817
 H245 H 0.22252 0.05676 0.08196
 H246 H 0.31513 0.07350 0.06702
 H247 H 0.30610 0.18737 0.17954
 H248 H 0.21552 0.16612 0.19966
 C249 C 0.77158 0.60657 0.62206
 C250 C 0.74918 0.58546 0.62136
 C251 C 0.75051 0.56279 0.59665
 C252 C 0.77426 0.56086 0.57318
 C253 C 0.79696 0.58173 0.57481
 C254 C 0.79550 0.60493 0.59892
 C255 C 0.76958 0.63122 0.64696
 C256 C 0.79125 0.65309 0.64659
 C257 C 0.78850 0.67718 0.66927
 C258 C 0.76457 0.67912 0.69253
 C259 C 0.74349 0.65657 0.69317
 C260 C 0.74567 0.63277 0.67010
 C261 C 0.81712 0.62687 0.59989
 C262 C 0.81494 0.65063 0.62319
 C263 C 0.72570 0.58766 0.64508
 C264 C 0.72405 0.61084 0.66917
 H265 H 0.83567 0.62589 0.58216
 H266 H 0.83187 0.66730 0.62274
 H267 H 0.70836 0.57143 0.64488
 H268 H 0.70549 0.61184 0.68688
 H269 H 0.73308 0.54664 0.59563
 H270 H 0.81517 0.58045 0.55657
 H271 H 0.80484 0.69443 0.66875
 H272 H 0.72484 0.65807 0.71073
 C273 C 0.73001 0.89246 0.12143
 C274 C 0.70631 0.89388 0.09796
 C275 C 0.70482 0.91716 0.07390
 C276 C 0.72729 0.93830 0.07265
 C277 C 0.75079 0.93659 0.09648
 C278 C 0.75213 0.91386 0.12114
 C279 C 0.73208 0.86773 0.14625
 C280 C 0.75578 0.86639 0.16970
 C281 C 0.75804 0.84253 0.19269
 C282 C 0.73726 0.81971 0.19171
 C283 C 0.71354 0.82143 0.16814
 C284 C 0.71071 0.84557 0.14551
 C285 C 0.77539 0.91187 0.14516
 C286 C 0.77710 0.88861 0.16916
 C287 C 0.68498 0.87165 0.09856
 C288 C 0.68723 0.84782 0.12180
 H289 H 0.79252 0.92833 0.14526
 H290 H 0.79550 0.88778 0.18711
 H291 H 0.66661 0.87245 0.08058
 H292 H 0.67053 0.83094 0.12105
 H293 H 0.68682 0.91827 0.05538
 H294 H 0.76803 0.95295 0.09576
 H295 H 0.77652 0.84122 0.21049
 H296 H 0.69742 0.80398 0.16735
 C297 C 0.22826 0.39315 0.62067
 C298 C 0.20432 0.39494 0.59760
 C299 C 0.20283 0.41833 0.57371
 C300 C 0.22551 0.43925 0.57223
 C301 C 0.24928 0.43715 0.59564
 C302 C 0.25064 0.41428 0.62014
 C303 C 0.23027 0.36832 0.64536
 C304 C 0.25418 0.36662 0.66847
 C305 C 0.25633 0.34270 0.69138
 C306 C 0.23524 0.32016 0.69066
 C307 C 0.21133 0.32222 0.66740
 C308 C 0.20861 0.34644 0.64487
 C309 C 0.27412 0.41192 0.64379
 C310 C 0.27578 0.38857 0.66768
 C311 C 0.18272 0.37298 0.59842
 C312 C 0.18491 0.34905 0.62151
 H313 H 0.29145 0.42816 0.64371
 H314 H 0.29434 0.38746 0.68536
 H315 H 0.16417 0.37407 0.58073
 H316 H 0.16799 0.33239 0.62095
 H317 H 0.18462 0.41973 0.55552
 H318 H 0.26670 0.45331 0.59473
 H319 H 0.27496 0.34111 0.70894
 H320 H 0.19497 0.30499 0.66680
 C321 C 0.89300 0.27018 0.12145
 C322 C 0.91439 0.24798 0.12103
 C323 C 0.93703 0.24928 0.09624
 C324 C 0.93865 0.27279 0.07239
 C325 C 0.91751 0.29532 0.07375
 C326 C 0.89433 0.29388 0.09796
 C327 C 0.86838 0.26817 0.14643
 C328 C 0.84623 0.28961 0.14582
 C329 C 0.82218 0.28685 0.16861
 C330 C 0.82055 0.26312 0.19221
 C331 C 0.84337 0.24227 0.19305
 C332 C 0.86713 0.24447 0.16990
 C333 C 0.87211 0.31529 0.09869
 C334 C 0.84839 0.31310 0.12208
 C335 C 0.91249 0.22472 0.14508
 C336 C 0.88933 0.22307 0.16923
 H337 H 0.87284 0.33366 0.08069
 H338 H 0.83151 0.32985 0.12143
 H339 H 0.92894 0.20754 0.14509
 H340 H 0.88858 0.20467 0.18719
 H341 H 0.95337 0.23199 0.09544
 H342 H 0.91856 0.31333 0.05523
 H343 H 0.80473 0.30302 0.16791
 H344 H 0.84212 0.22378 0.21086
 C345 C 0.39329 0.77075 0.62137
 C346 C 0.41430 0.74820 0.62069
 C347 C 0.43710 0.74943 0.59609
 C348 C 0.43924 0.77324 0.57273
 C349 C 0.41846 0.79609 0.57435
 C350 C 0.39514 0.79473 0.59834
 C351 C 0.36853 0.76887 0.64615
 C352 C 0.34677 0.79071 0.64578
 C353 C 0.32260 0.78812 0.66837
 C354 C 0.32045 0.76415 0.69155
 C355 C 0.34287 0.74288 0.69218
 C356 C 0.36677 0.74492 0.66921
 C357 C 0.37331 0.81651 0.59930
 C358 C 0.34945 0.81445 0.62249
 C359 C 0.41188 0.72467 0.64430
 C360 C 0.38859 0.72314 0.66828
 H361 H 0.37445 0.83510 0.58165
 H362 H 0.33287 0.83151 0.62203
 H363 H 0.42803 0.70721 0.64411
 H364 H 0.38743 0.70453 0.68592
 H365 H 0.45317 0.73189 0.59507
 H366 H 0.41990 0.81434 0.55621
 H367 H 0.30544 0.80461 0.66785
 H368 H 0.34121 0.72421 0.70969
 C369 C 0.10818 0.73427 0.12037
 C370 C 0.09175 0.75955 0.11288
 C371 C 0.06923 0.75807 0.08798
 C372 C 0.06239 0.73131 0.07122
 C373 C 0.07864 0.70591 0.07995
 C374 C 0.10194 0.70744 0.10396
 C375 C 0.13270 0.73606 0.14548
 C376 C 0.15017 0.71117 0.15166
 C377 C 0.17425 0.71339 0.17446
 C378 C 0.18017 0.74000 0.19173
 C379 C 0.16197 0.76448 0.18597
 C380 C 0.13852 0.76279 0.16237
 C381 C 0.11946 0.68281 0.11146
 C382 C 0.14332 0.68471 0.13465
 C383 C 0.09829 0.78591 0.13025
 C384 C 0.12113 0.78745 0.15479
 H385 H 0.11494 0.66198 0.09891
 H386 H 0.15651 0.66531 0.13930
 H387 H 0.08565 0.80554 0.12480
 H388 H 0.12548 0.80821 0.16758
 H389 H 0.05688 0.77780 0.08198
 H390 H 0.07389 0.68518 0.06727
 H391 H 0.18825 0.69451 0.17896
 H392 H 0.16677 0.78511 0.19889
 C393 C 0.60714 0.22740 0.62128
 C394 C 0.58584 0.24967 0.62071
 C395 C 0.56308 0.24825 0.59611
 C396 C 0.56127 0.22452 0.57263
 C397 C 0.58234 0.20193 0.57413
 C398 C 0.60563 0.20349 0.59813
 C399 C 0.63186 0.22950 0.64607
 C400 C 0.65392 0.20795 0.64561
 C401 C 0.67803 0.21078 0.66823
 C402 C 0.67982 0.23467 0.69153
 C403 C 0.65710 0.25564 0.69223
 C404 C 0.63327 0.25338 0.66923
 C405 C 0.62776 0.18201 0.59899
 C406 C 0.65158 0.18428 0.62218
 C407 C 0.58792 0.27313 0.64443
 C408 C 0.61117 0.27487 0.66842
 H409 H 0.62688 0.16348 0.58124
 H410 H 0.66838 0.16745 0.62165
 H411 H 0.57154 0.29037 0.64433
 H412 H 0.61206 0.29341 0.68615
 H413 H 0.54679 0.26558 0.59519
 H414 H 0.58115 0.18375 0.55589
 H415 H 0.69541 0.19452 0.66765
 H416 H 0.65847 0.27425 0.70982
 C417 C 0.73246 0.10634 0.87947
 C418 C 0.75776 0.08995 0.88698
 C419 C 0.75630 0.06744 0.91190
 C420 C 0.72954 0.06055 0.92868
 C421 C 0.70411 0.07674 0.91992
 C422 C 0.70562 0.10005 0.89588
 C423 C 0.73425 0.13088 0.85436
 C424 C 0.70936 0.14833 0.84818
 C425 C 0.71159 0.17244 0.82538
 C426 C 0.73823 0.17838 0.80813
 C427 C 0.76270 0.16020 0.81389
 C428 C 0.76100 0.13673 0.83748
 C429 C 0.68099 0.11755 0.88837
 C430 C 0.68289 0.14144 0.86518
 C431 C 0.78413 0.09651 0.86961
 C432 C 0.78567 0.11937 0.84506
 H433 H 0.66015 0.11300 0.90092
 H434 H 0.66348 0.15462 0.86053
 H435 H 0.80377 0.08390 0.87507
 H436 H 0.80644 0.12374 0.83227
 H437 H 0.77604 0.05513 0.91790
 H438 H 0.68338 0.07194 0.93263
 H439 H 0.69272 0.18644 0.82087
 H440 H 0.78335 0.16502 0.80098
 C441 C 0.22886 0.60843 0.37840
 C442 C 0.25116 0.58715 0.37907
 C443 C 0.24969 0.56439 0.40369
 C444 C 0.22588 0.56253 0.42709
 C445 C 0.20327 0.58358 0.42548
 C446 C 0.20489 0.60688 0.40147
 C447 C 0.23101 0.63316 0.35359
 C448 C 0.20944 0.65519 0.35396
 C449 C 0.21231 0.67932 0.33133
 C450 C 0.23628 0.68115 0.30811
 C451 C 0.25727 0.65846 0.30749
 C452 C 0.25496 0.63461 0.33050
 C453 C 0.18337 0.62898 0.40051
 C454 C 0.18569 0.65281 0.37730
 C455 C 0.27469 0.58928 0.35542
 C456 C 0.27648 0.61253 0.33141
 H457 H 0.16479 0.62807 0.41820
 H458 H 0.16884 0.66959 0.37777
 H459 H 0.29196 0.57292 0.35560
 H460 H 0.29508 0.61345 0.31375
 H461 H 0.26704 0.54811 0.40468
 H462 H 0.18503 0.58236 0.44366
 H463 H 0.19603 0.69668 0.33186
 H464 H 0.27594 0.65987 0.28997
 C465 C 0.26965 0.89425 0.87808
 C466 C 0.29342 0.89589 0.90141
 C467 C 0.29468 0.91914 0.92553
 C468 C 0.27190 0.94001 0.92697
 C469 C 0.24831 0.93806 0.90330
 C470 C 0.24720 0.91538 0.87859
 C471 C 0.26785 0.86958 0.85317
 C472 C 0.24410 0.86805 0.82983
 C473 C 0.24214 0.84428 0.80671
 C474 C 0.26325 0.82170 0.80746
 C475 C 0.28700 0.82358 0.83097
 C476 C 0.28955 0.84767 0.85370
 C477 C 0.22388 0.91317 0.85469
 C478 C 0.22244 0.88999 0.83059
 C479 C 0.31507 0.87392 0.90061
 C480 C 0.31308 0.85013 0.87731
 H481 H 0.20650 0.92942 0.85475
 H482 H 0.20399 0.88901 0.81273
 H483 H 0.33350 0.87488 0.91849
 H484 H 0.33003 0.83345 0.87791
 H485 H 0.31275 0.92043 0.94392
 H486 H 0.23083 0.95420 0.90418
 H487 H 0.22361 0.84282 0.78899
 H488 H 0.30336 0.80631 0.83161
 C489 C 0.77096 0.39226 0.37904
 C490 C 0.79498 0.39383 0.40201
 C491 C 0.79655 0.41706 0.42607
 C492 C 0.77388 0.43802 0.42781
 C493 C 0.75004 0.43616 0.40451
 C494 C 0.74859 0.41346 0.37985
 C495 C 0.76885 0.36760 0.35418
 C496 C 0.74485 0.36611 0.33119
 C497 C 0.74259 0.34231 0.30814
 C498 C 0.76368 0.31972 0.30863
 C499 C 0.78769 0.32158 0.33175
 C500 C 0.79051 0.34566 0.35441
 C501 C 0.72501 0.41131 0.35630
 C502 C 0.72326 0.38811 0.33224
 C503 C 0.81657 0.37182 0.40092
 C504 C 0.81429 0.34805 0.37765
 H505 H 0.70769 0.42761 0.35659
 H506 H 0.70463 0.38717 0.31466
 H507 H 0.83519 0.37275 0.41852
 H508 H 0.83121 0.33134 0.37800
 H509 H 0.81483 0.41829 0.44417
 H510 H 0.73264 0.45237 0.40561
 H511 H 0.72389 0.34087 0.29068
 H512 H 0.80404 0.30430 0.33215
 C513 C 0.10655 0.26762 0.87892
 C514 C 0.09035 0.24228 0.88664
 C515 C 0.06787 0.24373 0.91161
 C516 C 0.06082 0.27052 0.92824
 C517 C 0.07683 0.29598 0.91929
 C518 C 0.10011 0.29449 0.89519
 C519 C 0.13103 0.26586 0.85371
 C520 C 0.14829 0.29081 0.84730
 C521 C 0.17234 0.28861 0.82438
 C522 C 0.17839 0.26195 0.80724
 C523 C 0.16041 0.23741 0.81326
 C524 C 0.13702 0.23908 0.83697
 C525 C 0.11742 0.31917 0.88747
 C526 C 0.14126 0.31730 0.86418
 C527 C 0.09707 0.21587 0.86942
 C528 C 0.11987 0.21436 0.84478
 H529 H 0.11276 0.34003 0.89990
 H530 H 0.15428 0.33676 0.85935
 H531 H 0.08462 0.19620 0.87505
 H532 H 0.12436 0.19356 0.83211
 H533 H 0.05571 0.22396 0.91776
 H534 H 0.07192 0.31673 0.93188
 H535 H 0.18620 0.30753 0.81970
 H536 H 0.16535 0.21674 0.80046
 C537 C 0.60799 0.76979 0.37843
 C538 C 0.60629 0.79385 0.40135
 C539 C 0.58309 0.79538 0.42549
 C540 C 0.56227 0.77264 0.42737
 C541 C 0.56427 0.74875 0.40413
 C542 C 0.58694 0.74733 0.37939
 C543 C 0.63262 0.76773 0.35349
 C544 C 0.63423 0.74370 0.33055
 C545 C 0.65802 0.74149 0.30742
 C546 C 0.68048 0.76266 0.30779
 C547 C 0.67848 0.78671 0.33085
 C548 C 0.65442 0.78948 0.35358
 C549 C 0.58921 0.72373 0.35589
 C550 C 0.61238 0.72202 0.33175
 C551 C 0.62816 0.81553 0.40011
 C552 C 0.65190 0.81330 0.37677
 H553 H 0.57303 0.70634 0.35628
 H554 H 0.61342 0.70336 0.31421
 H555 H 0.62713 0.83417 0.41767
 H556 H 0.66850 0.83029 0.37701
 H557 H 0.58177 0.81370 0.44353
 H558 H 0.54816 0.73129 0.40533
 H559 H 0.65957 0.72276 0.29001
 H560 H 0.69566 0.80313 0.33117
 C561 C 0.89417 0.73029 0.87877
 C562 C 0.89595 0.70652 0.90213
 C563 C 0.91925 0.70530 0.92617
 C564 C 0.94003 0.72810 0.92751
 C565 C 0.93795 0.75167 0.90380
 C566 C 0.91521 0.75275 0.87916
 C567 C 0.86943 0.73206 0.85395
 C568 C 0.86775 0.75581 0.83059
 C569 C 0.84390 0.75776 0.80757
 C570 C 0.82141 0.73662 0.80845
 C571 C 0.82345 0.71286 0.83196
 C572 C 0.84761 0.71034 0.85460
 C573 C 0.91287 0.77606 0.85523
 C574 C 0.88962 0.77748 0.83122
 C575 C 0.87406 0.68484 0.90145
 C576 C 0.85021 0.68681 0.87823
 H577 H 0.92906 0.79345 0.85520
 H578 H 0.88853 0.79592 0.81334
 H579 H 0.87514 0.66642 0.91935
 H580 H 0.83360 0.66984 0.87891
 H581 H 0.92064 0.68723 0.94460
 H582 H 0.95402 0.76917 0.90460
 H583 H 0.84233 0.77627 0.78982
 H584 H 0.80625 0.69647 0.83269
 C585 C 0.39213 0.22777 0.37905
 C586 C 0.39367 0.20385 0.40221
 C587 C 0.41701 0.20220 0.42614
 C588 C 0.43810 0.22471 0.42758
 C589 C 0.43626 0.24846 0.40409
 C590 C 0.41346 0.24997 0.37955
 C591 C 0.36736 0.22998 0.35434
 C592 C 0.36592 0.25387 0.33117
 C593 C 0.34205 0.25623 0.30825
 C594 C 0.31931 0.23535 0.30902
 C595 C 0.32112 0.21144 0.33233
 C596 C 0.34529 0.20851 0.35488
 C597 C 0.41134 0.27345 0.35583
 C598 C 0.38805 0.27529 0.33191
 C599 C 0.37152 0.18244 0.40143
 C600 C 0.34766 0.18482 0.37830
 H601 H 0.42774 0.29064 0.35588
 H602 H 0.38714 0.29384 0.31418
 H603 H 0.37242 0.16390 0.41918
 H604 H 0.33084 0.16805 0.37890
 H605 H 0.41822 0.18400 0.44439
 H606 H 0.45256 0.26574 0.40496
 H607 H 0.34066 0.27487 0.29065
 H608 H 0.30373 0.19524 0.33297
 C609 C 0.73052 0.89264 0.87837
 C610 C 0.75303 0.91362 0.87923
 C611 C 0.75169 0.93631 0.90392
 C612 C 0.72781 0.93839 0.92720
 C613 C 0.70500 0.91765 0.92540
 C614 C 0.70647 0.89442 0.90132
 C615 C 0.73252 0.86796 0.85351
 C616 C 0.71074 0.84619 0.85372
 C617 C 0.71349 0.82208 0.83108
 C618 C 0.73753 0.82002 0.80800
 C619 C 0.75872 0.84246 0.80751
 C620 C 0.75655 0.86627 0.83055
 C621 C 0.68474 0.87259 0.90019
 C622 C 0.68693 0.84880 0.87693
 C623 C 0.77662 0.91128 0.85570
 C624 C 0.77828 0.88808 0.83163
 H625 H 0.66610 0.87368 0.91777
 H626 H 0.66992 0.83222 0.87727
 H627 H 0.79405 0.92742 0.85603
 H628 H 0.79693 0.88698 0.81407
 H629 H 0.76920 0.95236 0.90508
 H630 H 0.68670 0.91905 0.94349
 H631 H 0.69706 0.80491 0.83148
 H632 H 0.77746 0.84085 0.79009
 C633 C 0.22886 0.39300 0.37900
 C634 C 0.25126 0.41411 0.37963
 C635 C 0.24979 0.43701 0.40407
 C636 C 0.22589 0.43916 0.42733
 C637 C 0.20320 0.41826 0.42575
 C638 C 0.20480 0.39484 0.40192
 C639 C 0.23098 0.36815 0.35438
 C640 C 0.20928 0.34630 0.35478
 C641 C 0.21208 0.32208 0.33230
 C642 C 0.23609 0.31997 0.30917
 C643 C 0.25724 0.34246 0.30853
 C644 C 0.25500 0.36640 0.33141
 C645 C 0.18318 0.37290 0.40101
 C646 C 0.18547 0.34896 0.37798
 C647 C 0.27487 0.41169 0.35613
 C648 C 0.27663 0.38832 0.33229
 H649 H 0.16453 0.37403 0.41858
 H650 H 0.16852 0.33233 0.37847
 H651 H 0.29222 0.42792 0.35628
 H652 H 0.29528 0.38719 0.31473
 H653 H 0.26722 0.45315 0.40504
 H654 H 0.18489 0.41969 0.44381
 H655 H 0.19568 0.30488 0.33282
 H656 H 0.27594 0.34084 0.29107
 C657 C 0.26590 0.10787 0.87906
 C658 C 0.29276 0.10147 0.89533
 C659 C 0.29427 0.07823 0.91946
 C660 C 0.26882 0.06219 0.92841
 C661 C 0.24203 0.06919 0.91178
 C662 C 0.24056 0.09166 0.88679
 C663 C 0.26413 0.13233 0.85381
 C664 C 0.23736 0.13830 0.83706
 C665 C 0.23570 0.16168 0.81332
 C666 C 0.26025 0.17964 0.80729
 C667 C 0.28691 0.17359 0.82444
 C668 C 0.28909 0.14958 0.84738
 C669 C 0.21416 0.09836 0.86955
 C670 C 0.21264 0.12115 0.84490
 C671 C 0.31745 0.11877 0.88760
 C672 C 0.31558 0.14257 0.86427
 H673 H 0.19448 0.08590 0.87519
 H674 H 0.19184 0.12563 0.83222
 H675 H 0.33830 0.11413 0.90005
 H676 H 0.33503 0.15559 0.85943
 H677 H 0.31503 0.07336 0.93205
 H678 H 0.22227 0.05700 0.91795
 H679 H 0.21504 0.16662 0.80051
 H680 H 0.30583 0.18744 0.81974
 C681 C 0.77145 0.60671 0.37884
 C682 C 0.79534 0.60516 0.40201
 C683 C 0.79683 0.58196 0.42616
 C684 C 0.77419 0.56101 0.42781
 C685 C 0.75047 0.56287 0.40431
 C686 C 0.74911 0.58554 0.37955
 C687 C 0.76943 0.63134 0.35386
 C688 C 0.74557 0.63279 0.33067
 C689 C 0.74339 0.65655 0.30750
 C690 C 0.76441 0.67915 0.30807
 C691 C 0.78829 0.67732 0.33140
 C692 C 0.79104 0.65327 0.35418
 C693 C 0.72567 0.58766 0.35579
 C694 C 0.72401 0.61081 0.33163
 C695 C 0.81689 0.62716 0.40100
 C696 C 0.81469 0.65090 0.37763
 H697 H 0.70838 0.57137 0.35601
 H698 H 0.70548 0.61173 0.31389
 H699 H 0.83541 0.62625 0.41876
 H700 H 0.83157 0.66761 0.37806
 H701 H 0.81501 0.58073 0.44441
 H702 H 0.73309 0.54667 0.40533
 H703 H 0.72478 0.65797 0.28989
 H704 H 0.80459 0.69461 0.33188
 C705 C 0.10770 0.73412 0.87921
 C706 C 0.10148 0.70731 0.89569
 C707 C 0.07828 0.70582 0.91984
 C708 C 0.06210 0.73124 0.92865
 C709 C 0.06890 0.75799 0.91180
 C710 C 0.09133 0.75943 0.88676
 C711 C 0.13216 0.73588 0.85397
 C712 C 0.13797 0.76261 0.83704
 C713 C 0.16139 0.76428 0.81337
 C714 C 0.17957 0.73980 0.80760
 C715 C 0.17364 0.71318 0.82489
 C716 C 0.14959 0.71097 0.84776
 C717 C 0.09785 0.78578 0.86932
 C718 C 0.12063 0.78729 0.84466
 C719 C 0.11895 0.68265 0.88814
 C720 C 0.14275 0.68452 0.86482
 H721 H 0.08526 0.80543 0.87481
 H722 H 0.12497 0.80805 0.83183
 H723 H 0.11445 0.66184 0.90074
 H724 H 0.15592 0.66511 0.86015
 H725 H 0.07355 0.68509 0.93259
 H726 H 0.05660 0.77773 0.91785
 H727 H 0.16621 0.78492 0.80043
 H728 H 0.18763 0.69430 0.82039
 C729 C 0.60731 0.22803 0.37887
 C730 C 0.58593 0.25024 0.37949
 C731 C 0.56313 0.24866 0.40406
 C732 C 0.56133 0.22485 0.42746
 C733 C 0.58247 0.20233 0.42589
 C734 C 0.60581 0.20404 0.40193
 C735 C 0.63207 0.23029 0.35412
 C736 C 0.65418 0.20881 0.35453
 C737 C 0.67833 0.21177 0.33194
 C738 C 0.68010 0.23573 0.30870
 C739 C 0.65733 0.25665 0.30807
 C740 C 0.63347 0.25425 0.33104
 C741 C 0.62800 0.18262 0.40102
 C742 C 0.65186 0.18505 0.37787
 C743 C 0.58801 0.27378 0.35586
 C744 C 0.61130 0.27568 0.33191
 H745 H 0.62714 0.16403 0.41870
 H746 H 0.66870 0.16826 0.37836
 H747 H 0.57157 0.29098 0.35600
 H748 H 0.61217 0.29428 0.31425
 H749 H 0.54679 0.26595 0.40502
 H750 H 0.58130 0.18408 0.44408
 H751 H 0.69574 0.19554 0.33248
 H752 H 0.65869 0.27532 0.29053
 C753 C 0.89278 0.26921 0.87809
 C754 C 0.91385 0.24671 0.87903
 C755 C 0.93654 0.24812 0.90370
 C756 C 0.93856 0.27204 0.92687
 C757 C 0.91774 0.29484 0.92499
 C758 C 0.89449 0.29330 0.90094
 C759 C 0.86812 0.26715 0.85322
 C760 C 0.84629 0.28892 0.85333
 C761 C 0.82221 0.28616 0.83063
 C762 C 0.82027 0.26210 0.80759
 C763 C 0.84275 0.24090 0.80724
 C764 C 0.86652 0.24309 0.83034
 C765 C 0.87259 0.31501 0.89972
 C766 C 0.84881 0.31277 0.87646
 C767 C 0.91158 0.22307 0.85560
 C768 C 0.88839 0.22137 0.83152
 H769 H 0.87361 0.33368 0.91723
 H770 H 0.83218 0.32978 0.87672
 H771 H 0.92777 0.20565 0.85600
 H772 H 0.88736 0.20268 0.81402
 H773 H 0.95265 0.23062 0.90491
 H774 H 0.91908 0.31317 0.94300
 H775 H 0.80499 0.30259 0.83094
 H776 H 0.84123 0.22215 0.78987
 C777 C 0.39327 0.77062 0.37894
 C778 C 0.41428 0.74806 0.37969
 C779 C 0.43703 0.74931 0.40432
 C780 C 0.43914 0.77313 0.42765
 C781 C 0.41835 0.79596 0.42596
 C782 C 0.39508 0.79459 0.40194
 C783 C 0.36858 0.76875 0.35408
 C784 C 0.34683 0.79061 0.35436
 C785 C 0.32273 0.78804 0.33168
 C786 C 0.32065 0.76410 0.30848
 C787 C 0.34306 0.74281 0.30795
 C788 C 0.36688 0.74481 0.33103
 C789 C 0.37324 0.81638 0.40091
 C790 C 0.34944 0.81433 0.37766
 C791 C 0.41191 0.72454 0.35609
 C792 C 0.38869 0.72303 0.33204
 H793 H 0.37434 0.83496 0.41854
 H794 H 0.33287 0.83140 0.37805
 H795 H 0.42806 0.70708 0.35633
 H796 H 0.38758 0.70443 0.31441
 H797 H 0.45311 0.73177 0.40537
 H798 H 0.41976 0.81422 0.44408
 H799 H 0.30559 0.80455 0.33213
 H800 H 0.34145 0.72416 0.29043
 C801 C 0.27009 0.89446 0.12167
 C802 C 0.24763 0.91556 0.12121
 C803 C 0.24866 0.93820 0.09641
 C804 C 0.27218 0.94012 0.07262
 C805 C 0.29498 0.91928 0.07402
 C806 C 0.29380 0.89608 0.09822
 C807 C 0.26836 0.86982 0.14665
 C808 C 0.29006 0.84791 0.14606
 C809 C 0.28756 0.82382 0.16883
 C810 C 0.26383 0.82194 0.19241
 C811 C 0.24273 0.84452 0.19323
 C812 C 0.24466 0.86829 0.17009
 C813 C 0.31547 0.87412 0.09897
 C814 C 0.31354 0.85036 0.12235
 C815 C 0.22436 0.91338 0.14522
 C816 C 0.22299 0.89022 0.16939
 H817 H 0.33385 0.87507 0.08100
 H818 H 0.33049 0.83368 0.12171
 H819 H 0.20698 0.92962 0.14520
 H820 H 0.20458 0.88924 0.18732
 H821 H 0.23116 0.95433 0.09557
 H822 H 0.31300 0.92056 0.05553
 H823 H 0.30390 0.80654 0.16813
 H824 H 0.22422 0.84305 0.21101
 C825 C 0.77064 0.39176 0.62148
 C826 C 0.74829 0.41298 0.62075
 C827 C 0.74981 0.43580 0.59620
 C828 C 0.77371 0.43776 0.57294
 C829 C 0.79635 0.41677 0.57462
 C830 C 0.79470 0.39342 0.59856
 C831 C 0.76845 0.36698 0.64621
 C832 C 0.79010 0.34503 0.64590
 C833 C 0.78722 0.32086 0.66846
 C834 C 0.76318 0.31891 0.69155
 C835 C 0.74210 0.34151 0.69211
 C836 C 0.74441 0.36541 0.66916
 C837 C 0.81628 0.37138 0.59957
 C838 C 0.81393 0.34751 0.62271
 C839 C 0.72466 0.41074 0.64425
 C840 C 0.72284 0.38743 0.66818
 H841 H 0.83493 0.37238 0.58201
 H842 H 0.83084 0.33079 0.62231
 H843 H 0.70735 0.42705 0.64402
 H844 H 0.70417 0.38643 0.68574
 H845 H 0.73242 0.45203 0.59516
 H846 H 0.81467 0.41806 0.55655
 H847 H 0.80358 0.30358 0.66800
 H848 H 0.72337 0.34001 0.70955
 C849 C 0.73077 0.10693 0.12149
 C850 C 0.70676 0.10522 0.09853
 C851 C 0.70536 0.08205 0.07438
 C852 C 0.72819 0.06127 0.07253
 C853 C 0.75206 0.06329 0.09579
 C854 C 0.75333 0.08593 0.12055
 C855 C 0.73266 0.13151 0.14648
 C856 C 0.75664 0.13312 0.16948
 C857 C 0.75868 0.15684 0.19268
 C858 C 0.73738 0.17924 0.19232
 C859 C 0.71339 0.17726 0.16920
 C860 C 0.71079 0.15325 0.14639
 C861 C 0.77689 0.08821 0.14410
 C862 C 0.77844 0.11133 0.16829
 C863 C 0.68496 0.12703 0.09975
 C864 C 0.68703 0.15073 0.12314
 H865 H 0.79436 0.07207 0.14372
 H866 H 0.79706 0.11237 0.18588
 H867 H 0.66634 0.12599 0.08216
 H868 H 0.66996 0.16729 0.12290
 H869 H 0.68706 0.08071 0.05632
 H870 H 0.76959 0.04721 0.09462
 H871 H 0.77737 0.15839 0.21014
 H872 H 0.69689 0.19440 0.16889
 C873 C 0.22870 0.60852 0.62088
 C874 C 0.20480 0.60703 0.59773
 C875 C 0.20321 0.58372 0.57375
 C876 C 0.22576 0.56260 0.57225
 C877 C 0.24949 0.56442 0.59573
 C878 C 0.25095 0.58719 0.62032
 C879 C 0.23083 0.63325 0.64568
 C880 C 0.25470 0.63464 0.66886
 C881 C 0.25697 0.65846 0.69189
 C882 C 0.23602 0.68120 0.69120
 C883 C 0.21215 0.67944 0.66786
 C884 C 0.20931 0.65533 0.64522
 C885 C 0.27440 0.58926 0.64405
 C886 C 0.27616 0.61250 0.66805
 C887 C 0.18334 0.62919 0.59859
 C888 C 0.18564 0.65301 0.62179
 H889 H 0.29163 0.57285 0.64395
 H890 H 0.29470 0.61337 0.68578
 H891 H 0.16482 0.62833 0.58084
 H892 H 0.16883 0.66982 0.62124
 H893 H 0.18502 0.58255 0.55551
 H894 H 0.26681 0.54810 0.59482
 H895 H 0.27558 0.65981 0.70949
 H896 H 0.19591 0.69683 0.66728
 C897 C 0.89433 0.73011 0.12175
 C898 C 0.89617 0.70633 0.09844
 C899 C 0.91948 0.70514 0.07439
 C900 C 0.94021 0.72798 0.07299
 C901 C 0.93809 0.75156 0.09665
 C902 C 0.91534 0.75261 0.12131
 C903 C 0.86957 0.73186 0.14654
 C904 C 0.86782 0.75563 0.16984
 C905 C 0.84392 0.75758 0.19281
 C906 C 0.82146 0.73642 0.19195
 C907 C 0.82358 0.71263 0.16853
 C908 C 0.84778 0.71011 0.14593
 C909 C 0.91294 0.77594 0.14518
 C910 C 0.88966 0.77734 0.16917
 C911 C 0.87432 0.68462 0.09916
 C912 C 0.85044 0.68656 0.12237
 H913 H 0.92909 0.79336 0.14517
 H914 H 0.88851 0.79580 0.18701
 H915 H 0.87545 0.66618 0.08130
 H916 H 0.83385 0.66957 0.12172
 H917 H 0.92091 0.68708 0.05599
 H918 H 0.95413 0.76909 0.09580
 H919 H 0.84229 0.77612 0.21050
 H920 H 0.80639 0.69622 0.16782
 C921 C 0.39190 0.22800 0.62102
 C922 C 0.39348 0.20405 0.59794
 C923 C 0.41688 0.20232 0.57407
 C924 C 0.43802 0.22480 0.57261
 C925 C 0.43614 0.24857 0.59605
 C926 C 0.41327 0.25016 0.62052
 C927 C 0.36706 0.23029 0.64565
 C928 C 0.36557 0.25422 0.66874
 C929 C 0.34162 0.25665 0.69159
 C930 C 0.31886 0.23580 0.69082
 C931 C 0.32072 0.21185 0.66758
 C932 C 0.34495 0.20886 0.64511
 C933 C 0.41112 0.27367 0.64417
 C934 C 0.38775 0.27559 0.66801
 C935 C 0.37129 0.18268 0.59873
 C936 C 0.34735 0.18513 0.62177
 H937 H 0.42754 0.29083 0.64411
 H938 H 0.38681 0.29417 0.68567
 H939 H 0.37221 0.16411 0.58104
 H940 H 0.33051 0.16839 0.62118
 H941 H 0.41811 0.18411 0.55587
 H942 H 0.45247 0.26583 0.59516
 H943 H 0.34021 0.27530 0.70914
 H944 H 0.30331 0.19568 0.66694
 C945 C 0.10688 0.26955 0.12157
 C946 C 0.10527 0.29347 0.09842
 C947 C 0.08222 0.29481 0.07410
 C948 C 0.06145 0.27202 0.07227
 C949 C 0.06338 0.24824 0.09571
 C950 C 0.08590 0.24703 0.12064
 C951 C 0.13133 0.26772 0.14677
 C952 C 0.13283 0.24384 0.16996
 C953 C 0.15642 0.24185 0.19334
 C954 C 0.17884 0.26308 0.19298
 C955 C 0.17697 0.28697 0.16966
 C956 C 0.15307 0.28953 0.14667
 C957 C 0.08807 0.22356 0.14439
 C958 C 0.11106 0.22208 0.16876
 C959 C 0.12707 0.31522 0.09964
 C960 C 0.15065 0.31320 0.12322
 H961 H 0.07194 0.20613 0.14401
 H962 H 0.11202 0.20353 0.18649
 H963 H 0.12612 0.33376 0.08190
 H964 H 0.16721 0.33023 0.12296
 H965 H 0.08095 0.31305 0.05590
 H966 H 0.04732 0.23075 0.09456
 H967 H 0.15790 0.22321 0.21093
 H968 H 0.19413 0.30341 0.16933
 C969 C 0.60824 0.76979 0.62144
 C970 C 0.60657 0.79380 0.59842
 C971 C 0.58333 0.79534 0.57435
 C972 C 0.56245 0.77265 0.57263
 C973 C 0.56443 0.74880 0.59596
 C974 C 0.58714 0.74738 0.62064
 C975 C 0.63289 0.76774 0.64634
 C976 C 0.63447 0.74377 0.66940
 C977 C 0.65824 0.74159 0.69252
 C978 C 0.68074 0.76273 0.69204
 C979 C 0.67879 0.78670 0.66884
 C980 C 0.65473 0.78945 0.64611
 C981 C 0.58939 0.72383 0.64425
 C982 C 0.61257 0.72213 0.66834
 C983 C 0.62849 0.81544 0.59951
 C984 C 0.65225 0.81322 0.62281
 H985 H 0.57317 0.70647 0.64397
 H986 H 0.61358 0.70352 0.68597
 H987 H 0.62749 0.83405 0.58187
 H988 H 0.66888 0.83017 0.62245
 H989 H 0.58202 0.81363 0.55624
 H990 H 0.54829 0.73137 0.59489
 H991 H 0.65975 0.72291 0.71004
 H992 H 0.69600 0.80309 0.66843
   
