data_POSCAR
  _audit_creation_date              2014-09-24
  _audit_creation_method            'ToBaCCo'
  _symmetry_space_group_name_H-M    'P1'
  _symmetry_Int_Tables_number       1
  _symmetry_cell_setting            triclinic
  loop_
  _symmetry_equiv_pos_as_xyz
 x,y,z
_cell_length_a 25.1616
_cell_length_b 24.1572
_cell_length_c 24.0186
_cell_angle_alpha 92.421200
_cell_angle_beta 91.683800
_cell_angle_gamma 91.584500
loop_
  _atom_site_label
  _atom_site_type_symbol
  _atom_site_fract_x
  _atom_site_fract_y
  _atom_site_fract_z
N1 N 0.20014 1.30989 0.16117
 N2 N 0.16714 1.31239 0.20264
 C3 C 0.12924 1.34898 0.19143
 C4 C 0.13961 1.37054 0.14049
 C5 C 0.18452 1.34492 0.12218
 H6 H 0.09521 1.35682 0.21682
 H7 H 0.20251 1.34889 0.08212
 Cu8 Cu 0.17326 1.26292 0.26385
 Cu9 Cu 0.25623 1.25599 0.15692
 Cu10 Cu 0.25568 1.15605 0.25620
 N11 N 0.16651 1.20147 0.31279
 N12 N 0.19931 1.16002 0.31001
 C13 C 0.18338 1.12097 0.34474
 C14 C 0.13846 1.13922 0.37044
 C15 C 0.12842 1.19020 0.34925
 H16 H 0.20122 1.08101 0.34849
 H17 H 0.09455 1.21566 0.35732
 N18 N 0.30900 1.15942 0.19787
 N19 N 0.30920 1.19752 0.15999
 C20 C 0.34624 1.18519 0.12239
 C21 C 0.37030 1.13737 0.13760
 C22 C 0.34590 1.12189 0.18533
 H23 H 0.35270 1.20704 0.08468
 H24 H 0.35205 1.08410 0.20692
 H25 H 0.21222 1.19798 0.19807
 H26 H 0.26389 1.23937 0.24052
 N27 N 0.81773 0.70751 0.12641
 N28 N 0.84741 0.70446 0.17218
 C29 C 0.88371 0.66526 0.16433
 C30 C 0.87621 0.64264 0.11099
 C31 C 0.83419 0.67015 0.08782
 H32 H 0.91409 0.65491 0.19465
 H33 H 0.81773 0.66438 0.04580
 Cu34 Cu 0.83826 0.75359 0.23697
 Cu35 Cu 0.76202 0.76184 0.11946
 Cu36 Cu 0.76344 0.86473 0.22372
 N37 N 0.84237 0.81492 0.29218
 N38 N 0.81250 0.85836 0.28714
 C39 C 0.82743 0.89718 0.32679
 C40 C 0.86856 0.87671 0.35831
 C41 C 0.87748 0.82465 0.33515
 H42 H 0.81265 0.93882 0.32952
 H43 H 0.90971 0.79788 0.34571
 N44 N 0.71081 0.86113 0.16143
 N45 N 0.71011 0.82184 0.12140
 C46 C 0.67044 0.83128 0.08427
 C47 C 0.64536 0.87853 0.10226
 C48 C 0.67162 0.89640 0.15106
 H49 H 0.66095 0.80618 0.04676
 H50 H 0.66309 0.93280 0.17665
 H51 H 0.80767 0.81618 0.16784
 H52 H 0.75139 0.78025 0.20263
 N53 N 0.81215 1.28492 -0.14320
 N54 N 0.84199 1.28976 -0.18687
 C55 C 0.87694 1.33258 -0.17721
 C56 C 0.86805 1.35581 -0.12495
 C57 C 0.82698 1.32455 -0.10434
 H58 H 0.90911 1.34307 -0.20413
 H59 H 0.81217 1.32751 -0.06253
 Cu60 Cu 0.83808 1.23457 -0.24828
 Cu61 Cu 0.76326 1.22186 -0.13659
 Cu62 Cu 0.76234 1.11761 -0.23945
 N63 N 0.84758 1.16990 -0.29724
 N64 N 0.81812 1.12431 -0.29395
 C65 C 0.83481 1.08575 -0.33123
 C66 C 0.87672 1.10883 -0.35889
 C67 C 0.88399 1.16201 -0.33650
 H68 H 0.81855 1.04388 -0.33679
 H69 H 0.91423 1.19222 -0.34699
 N70 N 0.71031 1.11982 -0.17930
 N71 N 0.71082 1.15985 -0.14003
 C72 C 0.67157 1.14974 -0.10466
 C73 C 0.64546 1.10111 -0.12243
 C74 C 0.67070 1.08294 -0.16974
 H75 H 0.66290 1.17541 -0.06826
 H76 H 0.66135 1.04550 -0.19479
 H77 H 0.80776 1.16615 -0.18500
 H78 H 0.75134 1.20034 -0.22152
 N79 N 0.16605 0.70558 -0.14580
 N80 N 0.12418 0.71032 -0.17924
 C81 C 0.08618 0.67310 -0.16577
 C82 C 0.10574 0.64392 -0.12183
 C83 C 0.15624 0.66538 -0.11012
 H84 H 0.04706 0.66828 -0.18553
 H85 H 0.18329 0.65352 -0.07717
 Cu86 Cu 0.12331 0.76623 -0.23543
 Cu87 Cu 0.22881 0.75425 -0.14776
 Cu88 Cu 0.22836 0.85382 -0.24715
 N89 N 0.12365 0.82254 -0.29123
 N90 N 0.16537 0.85595 -0.29586
 C91 C 0.15528 0.89170 -0.33602
 C92 C 0.10473 0.87998 -0.35751
 C93 C 0.08541 0.83605 -0.32845
 H94 H 0.18217 0.92461 -0.34779
 H95 H 0.04636 0.81626 -0.33333
 N96 N 0.28842 0.84536 -0.19399
 N97 N 0.28859 0.80737 -0.15605
 C98 C 0.33097 0.81715 -0.12106
 C99 C 0.35872 0.86314 -0.13800
 C100 C 0.33069 0.88022 -0.18405
 H101 H 0.33826 0.79591 -0.08295
 H102 H 0.33772 0.91828 -0.20517
 H103 H 0.19050 0.82093 -0.18020
 H104 H 0.22029 0.77091 -0.23097
 C105 C 0.46059 1.03793 0.03772
 C106 C 0.49701 0.99902 0.06877
 C107 C 0.52433 0.96456 0.03416
 C108 C 0.51264 0.97192 -0.02833
 C109 C 0.49706 1.06858 -0.00144
 C110 C 0.52437 1.03399 -0.03592
 C111 C 0.42461 0.99999 -0.00041
 C112 C 0.45171 0.96551 -0.03491
 H113 H 0.50350 1.00124 0.11375
 H114 H 0.53459 0.94367 -0.05660
 H115 H 0.50356 1.11330 0.00065
 H116 H 0.38142 1.00034 -0.00019
 C117 C 0.04248 0.45975 1.04538
 C118 C 0.07191 0.49734 1.00599
 C119 C 0.03879 0.52544 0.97198
 C120 C -0.02078 0.51341 0.98024
 C121 C 0.00503 0.49793 1.07704
 C122 C -0.02802 0.52600 1.04287
 C123 C 0.00607 0.42190 1.00747
 C124 C -0.02698 0.44991 0.97347
 H125 H 0.11490 0.50327 1.00678
 H126 H -0.04777 0.53614 0.95237
 H127 H 0.00579 0.50367 1.12218
 H128 H 0.00577 0.37693 1.00814
 C129 C 1.04143 0.04461 0.45990
 C130 C 1.00400 0.07608 0.49832
 C131 C 0.97113 0.04211 0.52664
 C132 C 0.97853 -0.02017 0.51406
 C133 C 1.07108 0.00554 0.49771
 C134 C 1.03817 -0.02827 0.52607
 C135 C 1.00501 0.00684 0.42192
 C136 C 0.97215 -0.02698 0.45019
 H137 H 1.00457 0.12097 0.50394
 H138 H 0.95170 -0.04787 0.53700
 H139 H 1.11410 0.00635 0.50355
 H140 H 1.00453 0.00749 0.37668
 C141 C 0.10705 0.40221 1.10986
 C142 C 0.07800 0.42895 1.08144
 C143 C -0.09177 0.60137 1.08467
 C144 C -0.06345 0.56694 1.06453
 C145 C -0.09640 0.39284 0.90747
 C146 C -0.06540 0.42080 0.93657
 C147 C 0.07892 0.60211 0.90860
 C148 C 0.05909 0.56711 0.93638
 C149 C 1.10583 0.10875 0.40209
 C150 C 1.07679 0.08049 0.42889
 C151 C 1.07904 -0.09126 0.60293
 C152 C 1.05879 -0.06368 0.56787
 C153 C 0.90252 -0.09258 0.39305
 C154 C 0.93366 -0.06366 0.42103
 C155 C 0.90721 0.08391 0.60211
 C156 C 0.93561 0.06370 0.56766
 C157 C 0.40406 1.10386 0.10384
 C158 C 0.43054 1.07464 0.07449
 C159 C 0.60236 1.07461 -0.09490
 C160 C 0.56657 1.05475 -0.06929
 C161 C 0.39598 0.89682 -0.10404
 C162 C 0.42367 0.92709 -0.07357
 C163 C 0.60227 0.90591 0.07543
 C164 C 0.56651 0.93137 0.05527
   
