data_POSCAR
  _audit_creation_date              2014-09-24
  _audit_creation_method            'ToBaCCo'
  _symmetry_space_group_name_H-M    'P1'
  _symmetry_Int_Tables_number       1
  _symmetry_cell_setting            triclinic
  loop_
  _symmetry_equiv_pos_as_xyz
 x,y,z
_cell_length_a 53.8314
_cell_length_b 36.4626
_cell_length_c 40.2981
_cell_angle_alpha 89.941200
_cell_angle_beta 90.037100
_cell_angle_gamma 90.130900
loop_
  _atom_site_label
  _atom_site_type_symbol
  _atom_site_fract_x
  _atom_site_fract_y
  _atom_site_fract_z
C1 C 0.23193 0.22869 0.23202
 C2 C 0.23194 0.26738 0.23208
 C3 C 0.25003 0.28646 0.25018
 C4 C 0.26814 0.26741 0.26822
 C5 C 0.26816 0.22871 0.26815
 C6 C 0.25005 0.20960 0.25005
 H7 H 0.25005 0.17981 0.25000
 H8 H 0.25003 0.31621 0.25023
 C9 C 0.76822 0.27042 0.23140
 C10 C 0.76827 0.23172 0.23162
 C11 C 0.75019 0.21263 0.24975
 C12 C 0.73207 0.23171 0.26767
 C13 C 0.73201 0.27034 0.26747
 C14 C 0.75007 0.28948 0.24935
 H15 H 0.74996 0.31925 0.24926
 H16 H 0.75022 0.18288 0.24992
 C17 C 0.73240 0.73213 0.73209
 C18 C 0.73240 0.77076 0.73216
 C19 C 0.75044 0.78988 0.75032
 C20 C 0.76853 0.77079 0.76841
 C21 C 0.76854 0.73209 0.76830
 C22 C 0.75047 0.71303 0.75014
 H23 H 0.75047 0.68327 0.75005
 H24 H 0.75037 0.81965 0.75032
 C25 C 0.26773 0.76820 0.73236
 C26 C 0.26777 0.72956 0.73244
 C27 C 0.24973 0.71038 0.75056
 C28 C 0.23163 0.72940 0.76863
 C29 C 0.23163 0.76811 0.76857
 C30 C 0.24968 0.78724 0.75042
 H31 H 0.24967 0.81699 0.75035
 H32 H 0.24981 0.68061 0.75055
 O33 O 0.97590 -0.00089 -0.04206
 O34 O 1.02444 0.04614 0.00644
 O35 O 1.02428 -0.00109 -0.04200
 O36 O 0.97606 0.04636 0.00636
 O37 O 0.97588 0.00088 0.04271
 O38 O 1.02411 -0.04658 -0.00566
 O39 O 1.02427 0.00065 0.04278
 O40 O 0.97573 -0.04638 -0.00572
 Cu41 Cu 1.00019 0.02722 -0.02148
 Cu42 Cu 0.99998 -0.02745 0.02220
 C43 C 0.96763 -0.03158 -0.03208
 C44 C 1.03255 0.03133 0.03279
 C45 C 1.03234 -0.03185 -0.03199
 C46 C 0.96783 0.03163 0.03269
 O47 O 0.47580 0.49961 0.45742
 O48 O 0.52423 0.54723 0.50565
 O49 O 0.52418 0.49993 0.45725
 O50 O 0.47585 0.54691 0.50581
 O51 O 0.47600 0.50145 0.54218
 O52 O 0.52434 0.45448 0.49362
 O53 O 0.52439 0.50177 0.54202
 O54 O 0.47596 0.45416 0.49380
 Cu55 Cu 0.50000 0.52801 0.47786
 Cu56 Cu 0.50019 0.47338 0.52158
 C57 C 0.46771 0.46885 0.46747
 C58 C 0.53248 0.53253 0.53198
 C59 C 0.53241 0.46927 0.46724
 C60 C 0.46777 0.53211 0.53219
 O61 O -0.02386 0.54631 -0.00564
 O62 O 0.02437 0.49871 0.04278
 O63 O 0.02452 0.54610 -0.00563
 O64 O -0.02401 0.49893 0.04277
 O65 O -0.02419 0.45354 0.00640
 O66 O 0.02434 0.50071 -0.04200
 O67 O 0.02419 0.45333 0.00642
 O68 O -0.02404 0.50093 -0.04200
 Cu69 Cu 0.00027 0.52709 0.02224
 Cu70 Cu 0.00006 0.47255 -0.02146
 C71 C -0.03209 0.53165 -0.03199
 C72 C 0.03242 0.46798 0.03277
 C73 C 0.03262 0.53137 -0.03199
 C74 C -0.03229 0.46828 0.03275
 O75 O 0.47556 0.95330 0.50561
 O76 O 0.52390 1.00091 0.45720
 O77 O 0.52395 0.95366 0.50571
 O78 O 0.47551 1.00054 0.45709
 O79 O 0.47540 1.04603 0.49335
 O80 O 0.52384 0.99915 0.54197
 O81 O 0.52378 1.04640 0.49346
 O82 O 0.47545 0.99879 0.54187
 Cu83 Cu 0.49974 0.97251 0.47774
 Cu84 Cu 0.49960 1.02718 0.52132
 C85 C 0.46735 0.96801 0.53191
 C86 C 0.53200 1.03169 0.46717
 C87 C 0.53207 0.96849 0.53204
 C88 C 0.46728 1.03120 0.46702
 C89 C 1.21445 0.20946 0.21461
 C90 C 1.19878 0.19322 0.19904
 C91 C 1.17986 0.17456 0.18029
 C92 C 1.15772 0.19266 0.17245
 C93 C 1.13934 0.17477 0.15401
 C94 C 1.14286 0.13847 0.14319
 C95 C 1.16519 0.12050 0.15125
 C96 C 1.18356 0.13847 0.16966
 C97 C 1.12334 0.11944 0.12358
 C98 C 1.11772 0.08231 0.12959
 C99 C 1.09931 0.06446 0.11116
 C100 C 1.08630 0.08343 0.08648
 C101 C 1.09176 0.12034 0.08028
 C102 C 1.11015 0.13826 0.09870
 C103 C 1.06734 0.06503 0.06753
 C104 C 1.05146 0.04963 0.05167
 H105 H 1.15464 0.22057 0.18066
 H106 H 1.12224 0.18917 0.14859
 H107 H 1.16859 0.09275 0.14291
 H108 H 1.20067 0.12427 0.17550
 H109 H 1.12732 0.06722 0.14886
 H110 H 1.09518 0.03590 0.11622
 H111 H 1.08184 0.13525 0.06116
 H112 H 1.11426 0.16670 0.09318
 C113 C 0.71397 0.71182 0.71362
 C114 C 0.69832 0.69561 0.69799
 C115 C 0.67945 0.67693 0.67918
 C116 C 0.65825 0.69591 0.66881
 C117 C 0.63990 0.67793 0.65039
 C118 C 0.64252 0.64065 0.64210
 C119 C 0.66391 0.62181 0.65266
 C120 C 0.68224 0.63986 0.67108
 C121 C 0.62302 0.62151 0.62254
 C122 C 0.62956 0.59650 0.59746
 C123 C 0.61118 0.57850 0.57908
 C124 C 0.58606 0.58522 0.58550
 C125 C 0.57936 0.61004 0.61038
 C126 C 0.59770 0.62809 0.62879
 C127 C 0.56717 0.56664 0.56659
 C128 C 0.55133 0.55107 0.55077
 H129 H 0.65593 0.72464 0.67490
 H130 H 0.62382 0.69331 0.64226
 H131 H 0.66631 0.59301 0.64705
 H132 H 0.69856 0.62490 0.67905
 H133 H 0.64887 0.59121 0.59177
 H134 H 0.61658 0.55942 0.55980
 H135 H 0.55996 0.61536 0.61563
 H136 H 0.59207 0.64680 0.64821
 C137 C -0.21436 0.28968 0.21390
 C138 C -0.19877 0.30595 0.19823
 C139 C -0.17996 0.32465 0.17931
 C140 C -0.17385 0.36111 0.18649
 C141 C -0.15543 0.37912 0.16820
 C142 C -0.14285 0.36084 0.14248
 C143 C -0.14915 0.32417 0.13547
 C144 C -0.16759 0.30624 0.15376
 C145 C -0.12324 0.37991 0.12308
 C146 C -0.10133 0.36145 0.11406
 C147 C -0.08288 0.37942 0.09578
 C148 C -0.08608 0.41603 0.08625
 C149 C -0.10779 0.43463 0.09510
 C150 C -0.12626 0.41673 0.11340
 C151 C -0.06710 0.43447 0.06739
 C152 C -0.05120 0.44992 0.05158
 H153 H -0.18326 0.37556 0.20630
 H154 H -0.15078 0.40718 0.17448
 H155 H -0.14004 0.30951 0.11556
 H156 H -0.17224 0.27804 0.14793
 H157 H -0.09831 0.33327 0.12151
 H158 H -0.06611 0.36479 0.08914
 H159 H -0.11049 0.46294 0.08777
 H160 H -0.14304 0.43153 0.11958
 C161 C 0.28609 0.78857 0.71382
 C162 C 0.30165 0.80483 0.69808
 C163 C 0.32040 0.82357 0.67908
 C164 C 0.32657 0.85998 0.68636
 C165 C 0.34490 0.87806 0.66797
 C166 C 0.35733 0.85990 0.64205
 C167 C 0.35097 0.82328 0.63494
 C168 C 0.33261 0.80528 0.65333
 C169 C 0.37684 0.87906 0.62254
 C170 C 0.39869 0.86063 0.61320
 C171 C 0.41704 0.87869 0.59483
 C172 C 0.41381 0.91535 0.58553
 C173 C 0.39216 0.93393 0.59467
 C174 C 0.37378 0.91593 0.61306
 C175 C 0.43271 0.93391 0.56661
 C176 C 0.44853 0.94947 0.55076
 H177 H 0.31728 0.87434 0.70633
 H178 H 0.34960 0.90607 0.67433
 H179 H 0.35996 0.80871 0.61488
 H180 H 0.32791 0.77712 0.64742
 H181 H 0.40174 0.83240 0.62048
 H182 H 0.43377 0.86409 0.58797
 H183 H 0.38944 0.96229 0.58751
 H184 H 0.35704 0.93072 0.61948
 C185 C -0.21304 0.71159 -0.21338
 C186 C -0.19743 0.69526 -0.19787
 C187 C -0.17858 0.67643 -0.17919
 C188 C -0.18254 0.64040 -0.16841
 C189 C -0.16425 0.62226 -0.15006
 C190 C -0.14175 0.63998 -0.14221
 C191 C -0.13796 0.67622 -0.15318
 C192 C -0.15626 0.69428 -0.17156
 C193 C -0.12232 0.62076 -0.12265
 C194 C -0.10889 0.63947 -0.09791
 C195 C -0.09061 0.62136 -0.07952
 C196 C -0.08549 0.58436 -0.08561
 C197 C -0.09874 0.56551 -0.11017
 C198 C -0.11704 0.58356 -0.12857
 C199 C -0.06666 0.56575 -0.06668
 C200 C -0.05088 0.55017 -0.05083
 H201 H -0.19980 0.62639 -0.17408
 H202 H -0.16786 0.59456 -0.14160
 H203 H -0.12072 0.69043 -0.14792
 H204 H -0.15297 0.72214 -0.17988
 H205 H -0.11274 0.66797 -0.09247
 H206 H -0.08051 0.63618 -0.06050
 H207 H -0.09487 0.53690 -0.11515
 H208 H -0.12683 0.56854 -0.14773
 C209 C 0.28565 1.20949 0.28550
 C210 C 0.30131 1.19323 0.30100
 C211 C 0.32021 1.17453 0.31968
 C212 C 0.31679 1.13799 0.32931
 C213 C 0.33514 1.11997 0.34765
 C214 C 0.35718 1.13830 0.35660
 C215 C 0.36043 1.17505 0.34677
 C216 C 0.34206 1.19300 0.32843
 C217 C 0.37668 1.11922 0.37612
 C218 C 0.40198 1.12441 0.36863
 C219 C 0.42033 1.10649 0.38705
 C220 C 0.41366 1.08319 0.41320
 C221 C 0.38856 1.07782 0.42084
 C222 C 0.37018 1.09569 0.40244
 C223 C 0.43257 1.06482 0.43218
 C224 C 0.44842 1.04946 0.44809
 H225 H 0.29996 1.12342 0.32261
 H226 H 0.33222 1.09155 0.35448
 H227 H 0.37703 1.19006 0.35364
 H228 H 0.34487 1.22133 0.32116
 H229 H 0.40758 1.14195 0.34825
 H230 H 0.43971 1.11076 0.38087
 H231 H 0.38320 1.05992 0.44110
 H232 H 0.35089 1.09151 0.40909
 C233 C 1.21328 -0.21145 -0.21300
 C234 C 1.19775 -0.19516 -0.19737
 C235 C 1.17903 -0.17636 -0.17849
 C236 C 1.17273 -0.14015 -0.18624
 C237 C 1.15442 -0.12202 -0.16796
 C238 C 1.14215 -0.13996 -0.14170
 C239 C 1.14864 -0.17639 -0.13413
 C240 C 1.16697 -0.19443 -0.15240
 C241 C 1.12267 -0.12076 -0.12231
 C242 C 1.10091 -0.13933 -0.11256
 C243 C 1.08259 -0.12125 -0.09429
 C244 C 1.08576 -0.08442 -0.08548
 C245 C 1.10732 -0.06570 -0.09505
 C246 C 1.12566 -0.08372 -0.11335
 C247 C 1.06691 -0.06586 -0.06662
 C248 C 1.05111 -0.05033 -0.05081
 H249 H 1.18190 -0.12597 -0.20647
 H250 H 1.14962 -0.09417 -0.17468
 H251 H 1.13977 -0.19077 -0.11380
 H252 H 1.17177 -0.22244 -0.14614
 H253 H 1.09791 -0.16770 -0.11945
 H254 H 1.06594 -0.13597 -0.08709
 H255 H 1.11000 -0.03721 -0.08828
 H256 H 1.14233 -0.06882 -0.12010
 C257 C 0.71353 0.29062 0.28575
 C258 C 0.69788 0.30683 0.30123
 C259 C 0.67901 0.32555 0.31990
 C260 C 0.68248 0.36208 0.32945
 C261 C 0.66418 0.38013 0.34779
 C262 C 0.64214 0.36183 0.35682
 C263 C 0.63884 0.32509 0.34706
 C264 C 0.65716 0.30710 0.32873
 C265 C 0.62270 0.38095 0.37635
 C266 C 0.59738 0.37582 0.36893
 C267 C 0.57909 0.39380 0.38735
 C268 C 0.58585 0.41710 0.41342
 C269 C 0.61097 0.42240 0.42100
 C270 C 0.62929 0.40447 0.40260
 C271 C 0.56700 0.43554 0.43241
 C272 C 0.55121 0.45096 0.44831
 H273 H 0.69930 0.37663 0.32268
 H274 H 0.66713 0.40854 0.35455
 H275 H 0.62225 0.31010 0.35400
 H276 H 0.65432 0.27878 0.32152
 H277 H 0.59172 0.35827 0.34861
 H278 H 0.55970 0.38958 0.38121
 H279 H 0.61640 0.44031 0.44120
 H280 H 0.64859 0.40862 0.40920
 C281 C 0.78593 -0.20997 -0.21402
 C282 C 0.80149 -0.19372 -0.19829
 C283 C 0.82026 -0.17504 -0.17928
 C284 C 0.82634 -0.13855 -0.18641
 C285 C 0.84472 -0.12055 -0.16803
 C286 C 0.85729 -0.13889 -0.14228
 C287 C 0.85102 -0.17559 -0.13532
 C288 C 0.83261 -0.19350 -0.15370
 C289 C 0.87685 -0.11984 -0.12278
 C290 C 0.89877 -0.13827 -0.11368
 C291 C 0.91717 -0.12032 -0.09531
 C292 C 0.91392 -0.08376 -0.08577
 C293 C 0.89220 -0.06517 -0.09468
 C294 C 0.87378 -0.08306 -0.11307
 C295 C 0.93287 -0.06533 -0.06683
 C296 C 0.94874 -0.04990 -0.05096
 H297 H 0.81694 -0.12405 -0.20625
 H298 H 0.84934 -0.09246 -0.17426
 H299 H 0.86011 -0.19030 -0.11538
 H300 H 0.82799 -0.22173 -0.14791
 H301 H 0.90183 -0.16642 -0.12114
 H302 H 0.93395 -0.13493 -0.08862
 H303 H 0.88946 -0.03689 -0.08734
 H304 H 0.85699 -0.06828 -0.11931
 C305 C 0.28651 0.28794 0.28667
 C306 C 0.30205 0.30434 0.30231
 C307 C 0.32077 0.32330 0.32119
 C308 C 0.32741 0.35930 0.31299
 C309 C 0.34573 0.37757 0.33124
 C310 C 0.35765 0.36003 0.35797
 C311 C 0.35082 0.32381 0.36601
 C312 C 0.33250 0.30560 0.34772
 C313 C 0.37714 0.37939 0.37737
 C314 C 0.37823 0.37574 0.41211
 C315 C 0.39659 0.39395 0.43034
 C316 C 0.41410 0.41600 0.41413
 C317 C 0.41318 0.41982 0.37960
 C318 C 0.39483 0.40166 0.36131
 C319 C 0.43302 0.43468 0.43293
 C320 C 0.44886 0.45030 0.44869
 H321 H 0.31840 0.37326 0.29253
 H322 H 0.35035 0.40558 0.32471
 H323 H 0.35988 0.30940 0.38615
 H324 H 0.32754 0.27769 0.35423
 H325 H 0.36469 0.35920 0.42523
 H326 H 0.39709 0.39089 0.45708
 H327 H 0.42669 0.43674 0.36679
 H328 H 0.39468 0.40464 0.33458
 C329 C 0.21419 0.71011 -0.21393
 C330 C 0.19856 0.69381 -0.19835
 C331 C 0.17967 0.67509 -0.17959
 C332 C 0.15753 0.69315 -0.17173
 C333 C 0.13918 0.67520 -0.15328
 C334 C 0.14274 0.63888 -0.14245
 C335 C 0.16506 0.62095 -0.15053
 C336 C 0.18340 0.63898 -0.16896
 C337 C 0.12326 0.61979 -0.12283
 C338 C 0.11765 0.58266 -0.12882
 C339 C 0.09928 0.56475 -0.11036
 C340 C 0.08629 0.58365 -0.08568
 C341 C 0.09173 0.62057 -0.07950
 C342 C 0.11009 0.63854 -0.09794
 C343 C 0.06737 0.56520 -0.06672
 C344 C 0.05150 0.54975 -0.05085
 H345 H 0.15442 0.72107 -0.17993
 H346 H 0.12208 0.68957 -0.14785
 H347 H 0.16849 0.59318 -0.14219
 H348 H 0.20052 0.62482 -0.17480
 H349 H 0.12723 0.56761 -0.14808
 H350 H 0.09516 0.53620 -0.11541
 H351 H 0.08183 0.63543 -0.06039
 H352 H 0.11419 0.66698 -0.09244
 C353 C 0.71366 1.21136 0.28616
 C354 C 0.69807 1.19509 0.30183
 C355 C 0.67928 1.17630 0.32072
 C356 C 0.66749 1.19420 0.34704
 C357 C 0.64908 1.17616 0.36531
 C358 C 0.64224 1.13990 0.35749
 C359 C 0.65425 1.12214 0.33100
 C360 C 0.67263 1.14026 0.31273
 C361 C 0.62267 1.12071 0.37688
 C362 C 0.62539 1.08352 0.38552
 C363 C 0.60697 1.06550 0.40381
 C364 C 0.58561 1.08435 0.41369
 C365 C 0.58272 1.12132 0.40521
 C366 C 0.60112 1.13941 0.38694
 C367 C 0.56668 1.06577 0.43254
 C368 C 0.55084 1.05021 0.44834
 H369 H 0.67256 1.22207 0.35349
 H370 H 0.64042 1.19040 0.38581
 H371 H 0.64917 1.09442 0.32410
 H372 H 0.68159 1.12621 0.29232
 H373 H 0.64190 1.06851 0.37852
 H374 H 0.60943 1.03690 0.41032
 H375 H 0.56622 1.13615 0.41266
 H376 H 0.59833 1.16789 0.38032
 C377 C 0.21355 0.28788 0.21370
 C378 C 0.19799 0.30421 0.19811
 C379 C 0.17923 0.32305 0.17927
 C380 C 0.16710 0.30504 0.15321
 C381 C 0.14874 0.32313 0.13497
 C382 C 0.14227 0.35954 0.14255
 C383 C 0.15460 0.37742 0.16879
 C384 C 0.17294 0.35925 0.18703
 C385 C 0.12277 0.37879 0.12317
 C386 C 0.12577 0.41585 0.11419
 C387 C 0.10742 0.43392 0.09589
 C388 C 0.08584 0.41524 0.08633
 C389 C 0.08266 0.37840 0.09516
 C390 C 0.10099 0.36027 0.11344
 C391 C 0.06698 0.43386 0.06745
 C392 C 0.05120 0.44945 0.05162
 H393 H 0.17189 0.27705 0.14694
 H394 H 0.13983 0.30879 0.11466
 H395 H 0.14982 0.40526 0.17550
 H396 H 0.18216 0.37339 0.20723
 H397 H 0.14246 0.43072 0.12093
 H398 H 0.11011 0.46241 0.08911
 H399 H 0.06599 0.36371 0.08797
 H400 H 0.09798 0.33189 0.12034
 C401 C 0.71400 0.79105 0.71369
 C402 C 0.69841 0.80722 0.69800
 C403 C 0.67961 0.82583 0.67905
 C404 C 0.66900 0.80869 0.65139
 C405 C 0.65056 0.82651 0.63306
 C406 C 0.64251 0.86179 0.64216
 C407 C 0.65333 0.87880 0.66999
 C408 C 0.67175 0.86090 0.68831
 C409 C 0.62290 0.88073 0.62271
 C410 C 0.62475 0.91850 0.61590
 C411 C 0.60631 0.93627 0.59753
 C412 C 0.58577 0.91659 0.58577
 C413 C 0.58374 0.87903 0.59243
 C414 C 0.60217 0.86119 0.61077
 C415 C 0.56682 0.93491 0.56683
 C416 C 0.55094 0.95025 0.55095
 H417 H 0.67501 0.78158 0.64395
 H418 H 0.64283 0.81288 0.61153
 H419 H 0.64730 0.90573 0.67788
 H420 H 0.67978 0.87435 0.70976
 H421 H 0.64063 0.93419 0.62437
 H422 H 0.60810 0.96534 0.59243
 H423 H 0.56788 0.86356 0.58352
 H424 H 0.60004 0.83221 0.61597
 C425 C 0.78672 0.21125 0.21340
 C426 C 0.80236 0.19494 0.19798
 C427 C 0.82123 0.17615 0.17938
 C428 C 0.81726 0.14017 0.16854
 C429 C 0.83556 0.12205 0.15027
 C430 C 0.85810 0.13976 0.14255
 C431 C 0.86190 0.17595 0.15358
 C432 C 0.84358 0.19398 0.17189
 C433 C 0.87755 0.12057 0.12308
 C434 C 0.89104 0.13934 0.09842
 C435 C 0.90934 0.12126 0.08011
 C436 C 0.91441 0.08423 0.08618
 C437 C 0.90110 0.06532 0.11065
 C438 C 0.88278 0.08333 0.12898
 C439 C 0.93326 0.06565 0.06732
 C440 C 0.94904 0.05011 0.05151
 H441 H 0.79998 0.12617 0.17410
 H442 H 0.83195 0.09439 0.14176
 H443 H 0.87916 0.19015 0.14843
 H444 H 0.84687 0.22181 0.18025
 H445 H 0.88722 0.16786 0.09299
 H446 H 0.91948 0.13613 0.06115
 H447 H 0.90493 0.03667 0.11562
 H448 H 0.87295 0.06827 0.14808
 C449 C 0.28623 0.70935 0.71408
 C450 C 0.30189 0.69325 0.69852
 C451 C 0.32081 0.67472 0.67978
 C452 C 0.31703 0.63867 0.66901
 C453 C 0.33539 0.62081 0.65061
 C454 C 0.35777 0.63884 0.64270
 C455 C 0.36136 0.67511 0.65366
 C456 C 0.34300 0.69288 0.67209
 C457 C 0.37726 0.61992 0.62310
 C458 C 0.39054 0.63886 0.59834
 C459 C 0.40889 0.62102 0.57990
 C460 C 0.41422 0.58407 0.58597
 C461 C 0.40113 0.56499 0.61055
 C462 C 0.38277 0.58277 0.62900
 C463 C 0.43311 0.56574 0.56699
 C464 C 0.44894 0.55039 0.55110
 H465 H 0.29988 0.62441 0.67473
 H466 H 0.33193 0.59308 0.64216
 H467 H 0.37850 0.68956 0.64835
 H468 H 0.34613 0.72077 0.68040
 H469 H 0.38652 0.66732 0.59291
 H470 H 0.41886 0.63602 0.56087
 H471 H 0.40516 0.53641 0.61551
 H472 H 0.37311 0.56758 0.64817
   
