data_POSCAR
  _audit_creation_date              2014-09-24
  _audit_creation_method            'ToBaCCo'
  _symmetry_space_group_name_H-M    'P1'
  _symmetry_Int_Tables_number       1
  _symmetry_cell_setting            triclinic
  loop_
  _symmetry_equiv_pos_as_xyz
 x,y,z
_cell_length_a 45.9621
_cell_length_b 46.7763
_cell_length_c 43.3974
_cell_angle_alpha 92.839900
_cell_angle_beta 89.770100
_cell_angle_gamma 93.951400
loop_
  _atom_site_label
  _atom_site_type_symbol
  _atom_site_fract_x
  _atom_site_fract_y
  _atom_site_fract_z
C1 C 0.20141 0.52379 1.04291
 H2 H 0.20253 0.54199 1.02840
 C3 C 0.18085 0.52207 1.06662
 H4 H 0.16754 0.54005 1.07049
 C5 C 0.21861 0.47923 1.05503
 H6 H 0.23281 0.46215 1.04985
 C7 C 0.19817 0.47639 1.07874
 H8 H 0.19718 0.45659 1.09060
 N9 N 0.21976 0.50256 1.03758
 C10 C 0.29233 0.53919 0.98361
 H11 H 0.29289 0.52298 0.96498
 C12 C 0.31312 0.56243 0.98486
 H13 H 0.32980 0.56377 0.96721
 C14 C 0.27062 0.55628 1.02993
 H15 H 0.25431 0.55364 1.04772
 C16 C 0.29099 0.57987 1.03209
 H17 H 0.28976 0.59539 1.05132
 Zn18 Zn 0.24430 0.50418 1.00254
 N19 N 0.27143 0.53667 1.00576
 C20 C 0.22483 0.52622 0.94672
 N21 N 0.21960 0.50615 0.96804
 C22 C 0.19505 0.48818 0.96683
 C23 C 0.17429 0.49032 0.94382
 C24 C 0.20489 0.52878 0.92301
 C25 C 0.28756 0.46919 1.01955
 C26 C 0.30418 0.44531 1.01858
 C27 C 0.27502 0.42513 0.97561
 C28 C 0.25914 0.44961 0.97719
 N29 N 0.26551 0.47090 0.99911
 H30 H 0.24422 0.54059 0.94824
 H31 H 0.19119 0.47271 0.98437
 H32 H 0.15442 0.47650 0.94413
 H33 H 0.20973 0.54470 0.90612
 H34 H 0.29229 0.48655 1.03658
 H35 H 0.32200 0.44480 1.03472
 H36 H 0.26916 0.40816 0.95844
 H37 H 0.24157 0.45144 0.96110
 C38 C 0.31262 0.58321 1.00934
 C39 C 0.17834 0.49780 1.08491
 C40 C 0.29792 0.42269 0.99653
 C41 C 0.17891 0.51102 0.92158
 C42 C 0.79552 0.51309 -0.03215
 H43 H 0.79824 0.52527 -0.01039
 C44 C 0.81655 0.51637 -0.05509
 H45 H 0.83561 0.53077 -0.05033
 C46 C 0.76778 0.47861 -0.06370
 H47 H 0.74883 0.46378 -0.06680
 C48 C 0.78809 0.48168 -0.08765
 H49 H 0.78413 0.46947 -0.10924
 N50 N 0.77171 0.49454 -0.03677
 C51 C 0.70525 0.52951 0.02291
 H52 H 0.70251 0.51351 0.04004
 C53 C 0.68853 0.55340 0.02459
 H54 H 0.67284 0.55566 0.04308
 C55 C 0.72831 0.54551 -0.02268
 H56 H 0.74358 0.54220 -0.04129
 C57 C 0.71177 0.56946 -0.02212
 H58 H 0.71473 0.58462 -0.04013
 Zn59 Zn 0.74578 0.49263 -0.00294
 N60 N 0.72479 0.52612 -0.00037
 C61 C 0.77074 0.51121 0.05537
 N62 N 0.76933 0.49034 0.03235
 C63 C 0.78718 0.46834 0.03206
 C64 C 0.80750 0.46669 0.05554
 C65 C 0.79086 0.51044 0.07932
 C66 C 0.69853 0.46009 -0.03032
 C67 C 0.67653 0.43802 -0.03328
 C68 C 0.69598 0.41688 0.01125
 C69 C 0.71754 0.43945 0.01345
 N70 N 0.71846 0.46046 -0.00721
 H71 H 0.75702 0.52900 0.05470
 H72 H 0.78598 0.45235 0.01314
 H73 H 0.82142 0.44892 0.05488
 H74 H 0.79226 0.52766 0.09698
 H75 H 0.69943 0.47731 -0.04612
 H76 H 0.66079 0.43817 -0.05175
 H77 H 0.69516 0.40074 0.02833
 H78 H 0.73303 0.44047 0.03216
 C79 C 0.69155 0.57359 0.00171
 C80 C 0.81288 0.50089 -0.08356
 C81 C 0.67490 0.41616 -0.01214
 C82 C 0.80983 0.48813 0.07939
 C83 C -0.03644 0.27923 0.48912
 H84 H -0.05143 0.28250 0.50805
 C85 C -0.03747 0.29573 0.46332
 H86 H -0.05314 0.31193 0.46366
 C87 C 0.00365 0.25568 0.46831
 H88 H 0.01992 0.24034 0.47052
 C89 C 0.00340 0.27165 0.44198
 H90 H 0.01897 0.26699 0.42401
 N91 N -0.01606 0.25977 0.49122
 C92 C -0.04925 0.19927 0.55827
 H93 H -0.03204 0.20152 0.57533
 C94 C -0.07224 0.17842 0.56105
 H95 H -0.07277 0.16484 0.58057
 C96 C -0.06890 0.21362 0.51151
 H97 H -0.06712 0.22678 0.49175
 C98 C -0.09232 0.19316 0.51346
 H99 H -0.10828 0.19078 0.49506
 Zn100 Zn -0.01428 0.24119 0.52878
 N101 N -0.04786 0.21615 0.53362
 C102 C -0.03050 0.27216 0.58416
 N103 N -0.01141 0.27058 0.56018
 C104 C 0.00976 0.29176 0.55595
 C105 C 0.01222 0.31592 0.57602
 C106 C -0.02877 0.29607 0.60495
 C107 C 0.01921 0.19603 0.50917
 C108 C 0.04364 0.17989 0.50727
 C109 C 0.06668 0.21165 0.54694
 C110 C 0.04174 0.22707 0.54820
 N111 N 0.01888 0.21941 0.52902
 H112 H -0.04751 0.25532 0.58672
 H113 H 0.02440 0.29007 0.53645
 H114 H 0.02914 0.33262 0.57209
 H115 H -0.04454 0.29749 0.62347
 H116 H 0.00055 0.19017 0.49450
 H117 H 0.04341 0.16132 0.49134
 H118 H 0.08497 0.21867 0.56173
 H119 H 0.04090 0.24539 0.56424
 C120 C -0.09392 0.17489 0.53819
 C121 C -0.01712 0.29252 0.43908
 C122 C 0.06800 0.18786 0.52605
 C123 C -0.00749 0.31853 0.60060
 C124 C 1.00174 0.71541 0.50340
 H125 H 0.98722 0.71047 0.48402
 C126 C 1.00003 0.69831 0.52883
 H127 H 0.98429 0.67998 0.52867
 C128 C 1.04054 0.74483 0.52648
 H129 H 1.05651 0.76278 0.52537
 C130 C 1.03954 0.72831 0.55245
 H131 H 1.05448 0.73408 0.57132
 N132 N 1.02148 0.73839 0.50284
 C133 C 0.98357 0.79850 0.44350
 H134 H 1.00010 0.80127 0.42588
 C135 C 0.95913 0.81477 0.44365
 H136 H 0.95710 0.83018 0.42611
 C137 C 0.96698 0.77616 0.48875
 H138 H 0.97026 0.76160 0.50673
 C139 C 0.94223 0.79175 0.48964
 H140 H 0.92649 0.78834 0.50795
 Zn141 Zn 1.02172 0.76006 0.46716
 N142 N 0.98709 0.77974 0.46594
 C143 C 1.00305 0.72997 0.41119
 N144 N 1.02405 0.73344 0.43333
 C145 C 1.04549 0.71495 0.43480
 C146 C 1.04560 0.69102 0.41439
 C147 C 1.00249 0.70636 0.39006
 C148 C 1.05331 0.80886 0.49066
 C149 C 1.07679 0.82919 0.49435
 C150 C 1.10076 0.80584 0.45132
 C151 C 1.07677 0.78579 0.44853
 N152 N 1.05392 0.78742 0.46843
 H153 H 0.98587 0.74460 0.41087
 H154 H 1.06160 0.71799 0.45298
 H155 H 1.06219 0.67589 0.41664
 H156 H 0.98490 0.70305 0.37347
 H157 H 1.03466 0.80984 0.50586
 H158 H 1.07585 0.84609 0.51223
 H159 H 1.11905 0.80399 0.43572
 H160 H 1.07661 0.76879 0.43073
 C161 C 0.93821 0.81171 0.46720
 C162 C 1.01895 0.70479 0.55391
 C163 C 1.10109 0.82766 0.47477
 C164 C 1.02344 0.68609 0.39226
 C165 C 0.47258 -0.00296 0.29306
 H166 H 0.48857 -0.01872 0.29486
 C167 C 0.44952 -0.00233 0.31407
 H168 H 0.44833 -0.01757 0.33206
 C169 C 0.45630 0.03718 0.26868
 H170 H 0.45928 0.05299 0.25144
 C171 C 0.43254 0.03820 0.28878
 H172 H 0.41715 0.05436 0.28593
 N173 N 0.47585 0.01687 0.27118
 C174 C 0.53016 -0.02058 0.19901
 H175 H 0.54572 -0.00272 0.19537
 C176 C 0.53109 -0.04550 0.18009
 H177 H 0.54770 -0.04597 0.16238
 C178 C 0.48794 -0.03955 0.22411
 H179 H 0.47092 -0.03713 0.24105
 C180 C 0.48763 -0.06469 0.20522
 H181 H 0.47077 -0.08141 0.20912
 Zn182 Zn 0.50967 0.01676 0.24552
 N183 N 0.50928 -0.01825 0.22105
 C184 C 0.57056 0.01694 0.25947
 N185 N 0.54360 0.02095 0.27135
 C186 C 0.54000 0.02644 0.30219
 C187 C 0.56340 0.02577 0.32249
 C188 C 0.59464 0.01627 0.27895
 C189 C 0.48740 0.04485 0.19691
 C190 C 0.48548 0.06581 0.17541
 C191 C 0.52967 0.08997 0.19648
 C192 C 0.53050 0.06866 0.21796
 N193 N 0.50945 0.04675 0.21781
 H194 H 0.57348 0.01363 0.23495
 H195 H 0.51881 0.03073 0.31137
 H196 H 0.55947 0.02869 0.34702
 H197 H 0.61574 0.01250 0.26898
 H198 H 0.47104 0.02709 0.19721
 H199 H 0.46713 0.06416 0.15973
 H200 H 0.54689 0.10696 0.19666
 H201 H 0.54801 0.06956 0.23462
 C202 C 0.50965 -0.06831 0.18287
 C203 C 0.42910 0.01859 0.31231
 C204 C 0.50686 0.08878 0.17478
 C205 C 0.59108 0.01989 0.31105
 C206 C 0.53009 -0.03833 0.70588
 H207 H 0.50925 -0.04988 0.70122
 C208 C 0.55275 -0.04047 0.68467
 H209 H 0.54860 -0.05333 0.66355
 C210 C 0.55946 -0.00609 0.73835
 H211 H 0.56175 0.00747 0.75924
 C212 C 0.58310 -0.00827 0.71812
 H213 H 0.60362 0.00333 0.72419
 N214 N 0.53359 -0.02094 0.73179
 C215 C 0.47244 -0.05228 0.80195
 H216 H 0.45677 -0.03605 0.80343
 C217 C 0.46983 -0.07513 0.82160
 H218 H 0.45145 -0.07667 0.83723
 C219 C 0.51566 -0.06939 0.78028
 H220 H 0.53384 -0.06686 0.76457
 C221 C 0.51418 -0.09227 0.79984
 H222 H 0.53156 -0.10676 0.79895
 Zn223 Zn 0.50025 -0.01727 0.75704
 N224 N 0.49510 -0.04981 0.78175
 C225 C 0.44099 -0.02701 0.73454
 N226 N 0.46809 -0.01422 0.73005
 C227 C 0.47392 0.00166 0.70507
 C228 C 0.45224 0.00546 0.68365
 C229 C 0.41837 -0.02328 0.71388
 C230 C 0.50694 0.01527 0.81398
 C231 C 0.50733 0.04017 0.83321
 C232 C 0.50449 0.06796 0.78804
 C233 C 0.50436 0.04258 0.76968
 N234 N 0.50482 0.01681 0.78284
 H235 H 0.43667 -0.03991 0.75417
 H236 H 0.49569 0.01119 0.70150
 H237 H 0.45789 0.01765 0.66367
 H238 H 0.39680 -0.03292 0.71844
 H239 H 0.50776 -0.00532 0.82406
 H240 H 0.50799 0.03841 0.85798
 H241 H 0.50348 0.08821 0.77715
 H242 H 0.50314 0.04346 0.74492
 C243 C 0.49111 -0.09540 0.82107
 C244 C 0.57987 -0.02535 0.69050
 C245 C 0.50543 0.06691 0.82028
 C246 C 0.42381 -0.00668 0.68804
 C247 C 0.23403 0.05744 0.50506
 C248 C 0.25371 0.05418 0.53294
 C249 C 0.27046 0.03113 0.53046
 C250 C 0.26564 0.01312 0.49988
 C251 C 0.25527 0.05805 0.47754
 C252 C 0.27155 0.03483 0.47479
 C253 C 0.21644 0.02855 0.50096
 C254 C 0.23266 0.00538 0.49870
 H255 H 0.25393 0.06896 0.55292
 H256 H 0.27905 -0.00565 0.49708
 H257 H 0.25866 0.07558 0.46238
 H258 H 0.19280 0.02667 0.50049
 C259 C 0.77537 -0.05409 0.49324
 C260 C 0.75316 -0.05723 0.51977
 C261 C 0.73584 -0.03471 0.52405
 C262 C 0.74259 -0.01086 0.50117
 C263 C 0.75673 -0.04880 0.46513
 C264 C 0.73961 -0.02627 0.46907
 C265 C 0.79221 -0.02535 0.50119
 C266 C 0.77529 -0.00284 0.50534
 H267 H 0.75211 -0.07474 0.53497
 H268 H 0.72898 0.00770 0.50406
 H269 H 0.75710 -0.06201 0.44394
 H270 H 0.81566 -0.02320 0.50437
 C271 C 0.44495 0.27173 0.99496
 C272 C 0.44759 0.25004 0.96754
 C273 C 0.47264 0.23587 0.96721
 C274 C 0.49315 0.24511 0.99449
 C275 C 0.44898 0.25398 1.02344
 C276 C 0.47407 0.24003 1.02311
 C277 C 0.47286 0.29148 0.99378
 C278 C 0.49794 0.27780 0.99306
 H279 H 0.43072 0.24614 0.95021
 H280 H 0.51365 0.23392 0.99463
 H281 H 0.43314 0.25109 1.04163
 H282 H 0.47270 0.31459 0.99290
 C283 C 0.54308 0.72356 0.00409
 C284 C 0.53698 0.74044 -0.02453
 C285 C 0.51255 0.75528 -0.02200
 C286 C 0.49611 0.75185 0.00863
 C287 C 0.54362 0.74628 0.03089
 C288 C 0.51906 0.76114 0.03371
 C289 C 0.51499 0.70479 0.00871
 C290 C 0.49048 0.71931 0.01125
 H291 H 0.55157 0.74295 -0.04392
 H292 H 0.47577 0.76323 0.01001
 H293 H 0.56279 0.75099 0.04510
 H294 H 0.51454 0.68160 0.00878
 C295 C 0.98782 0.44046 0.27783
 C296 C 0.96108 0.44408 0.25749
 C297 C 0.96343 0.46778 0.24042
 C298 C 0.99241 0.48585 0.24505
 C299 C 1.01351 0.44104 0.25511
 C300 C 1.01615 0.46478 0.23799
 C301 C 0.99206 0.46891 0.29690
 C302 C 0.99463 0.49256 0.27989
 H303 H 0.94270 0.42859 0.25467
 H304 H 0.99406 0.50531 0.23141
 H305 H 1.02884 0.42446 0.25376
 H306 H 0.99308 0.47014 0.32188
 C307 C 0.00190 0.56039 0.71960
 C308 C -0.02638 0.55700 0.73852
 C309 C -0.02783 0.53437 0.75737
 C310 C -0.00084 0.51649 0.75456
 C311 C 0.02643 0.56107 0.74344
 C312 C 0.02533 0.53811 0.76166
 C313 C 0.00306 0.53138 0.70190
 C314 C 0.00186 0.50847 0.71998
 H315 H -0.04459 0.56992 0.73563
 H316 H -0.00128 0.49750 0.76877
 H317 H 0.04293 0.57869 0.74581
 H318 H 0.00392 0.52915 0.67695
 C319 C 0.14457 0.13951 0.51912
 C320 C 0.12871 0.14480 0.49261
 C321 C 0.10410 0.16070 0.49485
 C322 C 0.09462 0.17156 0.52368
 C323 C 0.11072 0.16663 0.55015
 C324 C 0.13544 0.15086 0.54789
 C325 C 0.16957 0.12098 0.51686
 C326 C 0.17348 0.10091 0.53923
 C327 C 0.19521 0.08162 0.53572
 C328 C 0.21366 0.08168 0.50973
 C329 C 0.21033 0.10248 0.48784
 C330 C 0.18865 0.12194 0.49149
 H331 H 0.09251 0.16450 0.47394
 H332 H 0.10390 0.17448 0.57274
 H333 H 0.19686 0.06570 0.55281
 H334 H 0.22351 0.10349 0.46728
 H335 H 0.14735 0.14744 0.56871
 H336 H 0.15892 0.09922 0.55882
 H337 H 0.13487 0.13605 0.47015
 H338 H 0.18648 0.13745 0.47407
 C339 C 0.63546 0.64378 0.00304
 C340 C 0.64014 0.62747 -0.02443
 C341 C 0.65880 0.60510 -0.02495
 C342 C 0.67296 0.59826 0.00206
 C343 C 0.66867 0.61470 0.02944
 C344 C 0.65030 0.63734 0.02988
 C345 C 0.61404 0.66633 0.00397
 C346 C 0.59621 0.67036 0.02997
 C347 C 0.57448 0.68976 0.02998
 C348 C 0.56952 0.70550 0.00389
 C349 C 0.58806 0.70218 -0.02179
 C350 C 0.61010 0.68297 -0.02163
 H351 H 0.66146 0.59253 -0.04628
 H352 H 0.67964 0.61008 0.05048
 H353 H 0.56062 0.69172 0.05012
 H354 H 0.58554 0.71368 -0.04242
 H355 H 0.64770 0.64975 0.05131
 H356 H 0.59821 0.65771 0.04997
 H357 H 0.62868 0.63135 -0.04540
 H358 H 0.62384 0.68089 -0.04183
 C359 C 0.86482 -0.13563 0.47414
 C360 C 0.87441 -0.14583 0.44509
 C361 C 0.89820 -0.16297 0.44270
 C362 C 0.91293 -0.17010 0.46931
 C363 C 0.90340 -0.15961 0.49827
 C364 C 0.87960 -0.14269 0.50065
 C365 C 0.84007 -0.11693 0.47707
 C366 C 0.81931 -0.12078 0.50058
 C367 C 0.79762 -0.10154 0.50544
 C368 C 0.79620 -0.07776 0.48690
 C369 C 0.81638 -0.07477 0.46252
 C370 C 0.83799 -0.09410 0.45762
 H371 H 0.90481 -0.17094 0.42008
 H372 H 0.91467 -0.16405 0.51918
 H373 H 0.78277 -0.10539 0.52426
 H374 H 0.81599 -0.05676 0.44781
 H375 H 0.87314 -0.13458 0.52329
 H376 H 0.82013 -0.13853 0.51559
 H377 H 0.86330 -0.14083 0.42428
 H378 H 0.85380 -0.09047 0.43942
 C379 C 0.35177 0.35032 0.99292
 C380 C 0.34005 0.36004 0.96574
 C381 C 0.32225 0.38317 0.96689
 C382 C 0.31548 0.39701 0.99527
 C383 C 0.32635 0.38661 1.02250
 C384 C 0.34439 0.36374 1.02133
 C385 C 0.37297 0.32754 0.99172
 C386 C 0.37412 0.30829 1.01550
 C387 C 0.39631 0.28931 1.01638
 C388 C 0.41793 0.28891 0.99326
 C389 C 0.41543 0.30680 0.96837
 C390 C 0.39353 0.32602 0.96775
 H391 H 0.31449 0.39067 0.94541
 H392 H 0.32114 0.39630 1.04483
 H393 H 0.39641 0.27567 1.03565
 H394 H 0.43146 0.30687 0.94999
 H395 H 0.35325 0.35720 1.04274
 H396 H 0.35811 0.30820 1.03387
 H397 H 0.34485 0.34998 0.94348
 H398 H 0.39360 0.34058 0.94912
 C399 C 0.84161 0.10347 0.53428
 C400 C 0.83377 0.13107 0.52778
 C401 C 0.85444 0.15451 0.52988
 C402 C 0.88332 0.15083 0.53865
 C403 C 0.89091 0.12341 0.54594
 C404 C 0.87037 0.10003 0.54368
 C405 C 0.82072 0.07791 0.52956
 C406 C 0.82146 0.05485 0.54907
 C407 C 0.80542 0.02900 0.54190
 C408 C 0.78790 0.02584 0.51544
 C409 C 0.78534 0.04933 0.49708
 C410 C 0.80176 0.07518 0.50399
 H411 H 0.84793 0.17548 0.52441
 H412 H 0.91310 0.11977 0.55215
 H413 H 0.80741 0.01109 0.55648
 H414 H 0.77213 0.04713 0.47640
 H415 H 0.87742 0.07902 0.54815
 H416 H 0.83522 0.05645 0.56936
 H417 H 0.81174 0.13452 0.52085
 H418 H 0.80083 0.09240 0.48833
 C419 C 0.38144 0.65071 0.01550
 C420 C 0.36814 0.64256 -0.01299
 C421 C 0.34530 0.62119 -0.01489
 C422 C 0.33522 0.60754 0.01166
 C423 C 0.34776 0.61652 0.04031
 C424 C 0.37059 0.63786 0.04220
 C425 C 0.40811 0.67058 0.01693
 C426 C 0.43186 0.66421 0.03503
 C427 C 0.45818 0.68083 0.03408
 C428 C 0.46141 0.70427 0.01505
 C429 C 0.43735 0.71159 -0.00197
 C430 C 0.41093 0.69478 -0.00117
 H431 H 0.33579 0.61506 -0.03724
 H432 H 0.34067 0.60633 0.06117
 H433 H 0.47632 0.67493 0.04771
 H434 H 0.43934 0.72948 -0.01693
 H435 H 0.38019 0.64390 0.06453
 H436 H 0.43055 0.64559 0.04896
 H437 H 0.37615 0.65186 -0.03402
 H438 H 0.39290 0.70036 -0.01514
 C439 C 0.16942 -0.10534 0.48747
 C440 C 0.16105 -0.11551 0.45757
 C441 C 0.13965 -0.13811 0.45329
 C442 C 0.12627 -0.15091 0.47884
 C443 C 0.13597 -0.14185 0.50863
 C444 C 0.15730 -0.11932 0.51290
 C445 C 0.18800 -0.07833 0.49230
 C446 C 0.17953 -0.05731 0.51409
 C447 C 0.19477 -0.03055 0.51677
 C448 C 0.21895 -0.02416 0.49783
 C449 C 0.22846 -0.04556 0.47712
 C450 C 0.21289 -0.07239 0.47411
 H451 H 0.13253 -0.14458 0.43007
 H452 H 0.12656 -0.15179 0.52872
 H453 H 0.18728 -0.01456 0.53332
 H454 H 0.24712 -0.04119 0.46243
 H455 H 0.16372 -0.11223 0.53617
 H456 H 0.16031 -0.06112 0.52822
 H457 H 0.16985 -0.10494 0.43757
 H458 H 0.21999 -0.08834 0.45730
 C459 C 0.60310 0.35164 0.98533
 C460 C 0.59860 0.38053 0.98049
 C461 C 0.62194 0.40124 0.98098
 C462 C 0.65041 0.39371 0.98654
 C463 C 0.65503 0.36490 0.99161
 C464 C 0.63161 0.34405 0.99096
 C465 C 0.57783 0.32996 0.98501
 C466 C 0.57557 0.30827 1.00647
 C467 C 0.55010 0.29008 1.00815
 C468 C 0.52647 0.29358 0.98868
 C469 C 0.52934 0.31413 0.96619
 C470 C 0.55477 0.33197 0.96424
 H471 H 0.61758 0.42334 0.97770
 H472 H 0.67680 0.35846 0.99577
 H473 H 0.54829 0.27438 1.02566
 H474 H 0.51156 0.31681 0.95051
 H475 H 0.63585 0.32198 0.99453
 H476 H 0.59289 0.30620 1.02287
 H477 H 0.57687 0.38732 0.97693
 H478 H 0.55610 0.34781 0.94683
 C479 C 0.49770 0.15419 1.10930
 C480 C 0.48935 0.12535 1.10144
 C481 C 0.49321 0.10413 1.12227
 C482 C 0.50499 0.11128 1.15178
 C483 C 0.51396 0.14018 1.15932
 C484 C 0.51055 0.16138 1.13818
 C485 C 0.49182 0.17668 1.08776
 C486 C 0.51397 0.19703 1.07932
 C487 C 0.50826 0.21767 1.05823
 C488 C 0.48018 0.21872 1.04591
 C489 C 0.45799 0.19859 1.05472
 C490 C 0.46382 0.17766 1.07525
 H491 H 0.48683 0.08208 1.11520
 H492 H 0.52279 0.14661 1.18188
 H493 H 0.52570 0.23294 1.05174
 H494 H 0.43625 0.19866 1.04519
 H495 H 0.51699 0.18354 1.14478
 H496 H 0.53576 0.19658 1.08860
 H497 H 0.47979 0.11926 1.07909
 H498 H 0.44637 0.16227 1.08152
 C499 C 0.01412 0.65015 0.63101
 C500 C 0.04127 0.66142 0.62041
 C501 C 0.04287 0.67956 0.59574
 C502 C 0.01733 0.68683 0.58117
 C503 C -0.00983 0.67618 0.59233
 C504 C -0.01142 0.65801 0.61692
 C505 C 0.01233 0.62906 0.65552
 C506 C -0.00987 0.62952 0.67784
 C507 C -0.01311 0.60811 0.69919
 C508 C 0.00561 0.58547 0.69846
 C509 C 0.02889 0.58617 0.67725
 C510 C 0.03205 0.60748 0.65589
 H511 H 0.06413 0.68726 0.58755
 H512 H -0.02990 0.68175 0.58190
 H513 H -0.03031 0.60973 0.71603
 H514 H 0.04427 0.56961 0.67665
 H515 H -0.03266 0.64946 0.62431
 H516 H -0.02484 0.64643 0.67874
 H517 H 0.06132 0.65602 0.63103
 H518 H 0.04938 0.60644 0.63898
 C519 C 0.49234 0.83822 -0.11286
 C520 C 0.50268 0.83354 -0.14313
 C521 C 0.50136 0.85459 -0.16477
 C522 C 0.49015 0.88119 -0.15666
 C523 C 0.47920 0.88562 -0.12660
 C524 C 0.48004 0.86436 -0.10513
 C525 C 0.49557 0.81653 -0.08918
 C526 C 0.50117 0.82534 -0.05812
 C527 C 0.50573 0.80524 -0.03617
 C528 C 0.50525 0.77598 -0.04479
 C529 C 0.49952 0.76692 -0.07555
 C530 C 0.49438 0.78695 -0.09748
 H531 H 0.50944 0.85003 -0.18782
 H532 H 0.47069 0.90585 -0.11922
 H533 H 0.51088 0.81268 -0.01269
 H534 H 0.49908 0.74434 -0.08257
 H535 H 0.47127 0.86862 -0.08231
 H536 H 0.50304 0.84785 -0.05084
 H537 H 0.51262 0.81390 -0.15001
 H538 H 0.48960 0.77920 -0.12095
 C539 C 0.98499 0.34885 0.36460
 C540 C 0.95915 0.34305 0.38112
 C541 C 0.95822 0.32407 0.40497
 C542 C 0.98327 0.31033 0.41338
 C543 C 1.00895 0.31571 0.39591
 C544 C 1.00975 0.33465 0.37197
 C545 C 0.98632 0.37054 0.34067
 C546 C 1.01090 0.38985 0.33823
 C547 C 1.01126 0.41158 0.31729
 C548 C 0.98703 0.41482 0.29832
 C549 C 0.96273 0.39486 0.30027
 C550 C 0.96249 0.37301 0.32108
 H551 H 0.93745 0.31998 0.41624
 H552 H 1.02918 0.30666 0.40143
 H553 H 1.03030 0.42653 0.31647
 H554 H 0.94349 0.39589 0.28643
 H555 H 1.02995 0.33844 0.35943
 H556 H 1.02951 0.38881 0.35324
 H557 H 0.93965 0.35371 0.37610
 H558 H 0.94342 0.35812 0.32201
 C559 C 0.51111 0.85658 0.12333
 C560 C 0.53706 0.87251 0.13162
 C561 C 0.53659 0.89713 0.15114
 C562 C 0.51009 0.90633 0.16347
 C563 C 0.48413 0.88964 0.15552
 C564 C 0.48465 0.86534 0.13542
 C565 C 0.51177 0.83129 0.10151
 C566 C 0.49375 0.82876 0.07539
 C567 C 0.49582 0.80591 0.05363
 C568 C 0.51575 0.78481 0.05765
 C569 C 0.53294 0.78696 0.08462
 C570 C 0.53120 0.81008 0.10606
 H571 H 0.55732 0.90828 0.15724
 H572 H 0.46307 0.89593 0.16347
 H573 H 0.48222 0.80552 0.03339
 H574 H 0.54785 0.77085 0.08942
 H575 H 0.46432 0.85335 0.12929
 H576 H 0.47871 0.84500 0.07130
 H577 H 0.55777 0.86613 0.12258
 H578 H 0.54502 0.81137 0.12631
 C579 C -0.00235 0.39693 0.65713
 C580 C -0.00721 0.37040 0.67085
 C581 C -0.00933 0.34479 0.65258
 C582 C -0.00655 0.34534 0.62034
 C583 C -0.00245 0.37191 0.60670
 C584 C -0.00043 0.39735 0.62484
 C585 C 0.00077 0.42432 0.67595
 C586 C 0.02139 0.44612 0.66748
 C587 C 0.02236 0.47311 0.68262
 C588 C 0.00293 0.47888 0.70677
 C589 C -0.01656 0.45673 0.71658
 C590 C -0.01770 0.42963 0.70121
 H591 H -0.01245 0.32456 0.66365
 H592 H -0.00098 0.37303 0.58187
 H593 H 0.03800 0.48972 0.67507
 H594 H -0.03186 0.46076 0.73504
 H595 H 0.00245 0.41746 0.61350
 H596 H 0.03646 0.44245 0.64868
 H597 H -0.00872 0.36943 0.69569
 H598 H -0.03388 0.41327 0.70818
 C599 C 0.49490 0.14184 0.88007
 C600 C 0.51617 0.12280 0.88656
 C601 C 0.51995 0.09865 0.86697
 C602 C 0.50277 0.09328 0.84030
 C603 C 0.48203 0.11275 0.83346
 C604 C 0.47806 0.13668 0.85317
 C605 C 0.48941 0.16638 0.90183
 C606 C 0.46072 0.17214 0.90991
 C607 C 0.45530 0.19476 0.93089
 C608 C 0.47845 0.21238 0.94413
 C609 C 0.50718 0.20677 0.93579
 C610 C 0.51261 0.18391 0.91498
 H611 H 0.53622 0.08411 0.87270
 H612 H 0.46826 0.10903 0.81326
 H613 H 0.43292 0.19792 0.93726
 H614 H 0.52553 0.22018 0.94505
 H615 H 0.46168 0.15113 0.84747
 H616 H 0.44242 0.15869 0.90053
 H617 H 0.52931 0.12616 0.90725
 H618 H 0.53494 0.18012 0.90889
 C619 C 1.01381 0.60516 0.34035
 C620 C 1.01884 0.60644 0.37235
 C621 C 1.02236 0.63275 0.38887
 C622 C 1.02055 0.65850 0.37396
 C623 C 1.01510 0.65745 0.34209
 C624 C 1.01196 0.63101 0.32538
 C625 C 1.01017 0.57683 0.32312
 C626 C 0.99002 0.57199 0.29875
 C627 C 0.98544 0.54470 0.28410
 C628 C 1.00054 0.52175 0.29391
 C629 C 1.02118 0.52668 0.31761
 C630 C 1.02614 0.55394 0.33185
 H631 H 1.02585 0.63296 0.41355
 H632 H 1.01363 0.67706 0.33012
 H633 H 0.96937 0.54131 0.26586
 H634 H 1.03358 0.50940 0.32506
 H635 H 1.00840 0.63085 0.30073
 H636 H 0.97714 0.58901 0.29161
 H637 H 1.01953 0.58706 0.38488
 H638 H 1.04246 0.55701 0.34985
 C639 C 1.11073 0.48598 0.15180
 C640 C 1.13599 0.47101 0.15322
 C641 C 1.15846 0.47537 0.13185
 C642 C 1.15619 0.49456 0.10787
 C643 C 1.13064 0.50983 0.10712
 C644 C 1.10842 0.50568 0.12884
 C645 C 1.08657 0.48062 0.17387
 C646 C 1.07348 0.50358 0.18912
 C647 C 1.05071 0.49843 0.21001
 C648 C 1.04027 0.47021 0.21570
 C649 C 1.05329 0.44727 0.20013
 C650 C 1.07631 0.45243 0.17960
 H651 H 1.17783 0.46401 0.13502
 H652 H 1.12666 0.52407 0.08900
 H653 H 1.04179 0.51663 0.22209
 H654 H 1.04550 0.42528 0.20345
 H655 H 1.08892 0.51724 0.12706
 H656 H 1.08125 0.52551 0.18530
 H657 H 1.13851 0.45610 0.17119
 H658 H 1.08582 0.43438 0.16778
 C659 C 0.64835 -0.02940 0.62160
 C660 C 0.62754 -0.05257 0.62490
 C661 C 0.60618 -0.05160 0.64781
 C662 C 0.60413 -0.02702 0.66753
 C663 C 0.62494 -0.00382 0.66432
 C664 C 0.64693 -0.00515 0.64198
 C665 C 0.67112 -0.03057 0.59690
 C666 C 0.68277 -0.00545 0.58352
 C667 C 0.70392 -0.00672 0.56029
 C668 C 0.71349 -0.03321 0.54907
 C669 C 0.70156 -0.05833 0.56222
 C670 C 0.68117 -0.05699 0.58608
 H671 H 0.59122 -0.07030 0.64984
 H672 H 0.62407 0.01570 0.67863
 H673 H 0.71283 0.01325 0.55151
 H674 H 0.70766 -0.07930 0.55409
 H675 H 0.66280 0.01295 0.64083
 H676 H 0.67541 0.01533 0.59065
 H677 H 0.62726 -0.07148 0.60950
 H678 H 0.67348 -0.07685 0.59606
 C679 C -0.12199 0.51348 0.84528
 C680 C -0.13728 0.48657 0.84781
 C681 C -0.15848 0.48240 0.87072
 C682 C -0.16520 0.50514 0.89139
 C683 C -0.15032 0.53214 0.88836
 C684 C -0.12880 0.53614 0.86597
 C685 C -0.09882 0.51809 0.82154
 C686 C -0.09404 0.54493 0.80854
 C687 C -0.07116 0.55011 0.78795
 C688 C -0.05278 0.52833 0.77880
 C689 C -0.05811 0.50118 0.79112
 C690 C -0.08066 0.49620 0.81237
 H691 H -0.16924 0.46122 0.87249
 H692 H -0.15525 0.55039 0.90329
 H693 H -0.06774 0.57155 0.77985
 H694 H -0.04499 0.48359 0.78463
 H695 H -0.11722 0.55704 0.86530
 H696 H -0.10788 0.56220 0.81438
 H697 H -0.13298 0.46869 0.83205
 H698 H -0.08339 0.47532 0.82209
 C699 C 0.36085 0.02477 0.38100
 C700 C 0.37110 -0.00199 0.37174
 C701 C 0.39268 -0.00409 0.34909
 C702 C 0.40509 0.02057 0.33544
 C703 C 0.39479 0.04732 0.34469
 C704 C 0.37280 0.04934 0.36686
 C705 C 0.33800 0.02715 0.40538
 C706 C 0.33788 0.05172 0.42552
 C707 C 0.31617 0.05426 0.44792
 C708 C 0.29448 0.03205 0.45118
 C709 C 0.29472 0.00729 0.43170
 C710 C 0.31605 0.00497 0.40880
 H711 H 0.39957 -0.02515 0.34230
 H712 H 0.40401 0.06691 0.33525
 H713 H 0.31653 0.07341 0.46304
 H714 H 0.27797 -0.00992 0.43365
 H715 H 0.36516 0.07028 0.37279
 H716 H 0.35474 0.06894 0.42429
 H717 H 0.36281 -0.02140 0.38229
 H718 H 0.31496 -0.01403 0.39346
 C719 C 0.11309 0.52207 0.85335
 C720 C 0.13063 0.54571 0.86533
 C721 C 0.15187 0.54212 0.88746
 C722 C 0.15641 0.51470 0.89775
 C723 C 0.13889 0.49101 0.88545
 C724 C 0.11730 0.49470 0.86368
 C725 C 0.09061 0.52602 0.82995
 C726 C 0.06191 0.51436 0.83354
 C727 C 0.04062 0.51857 0.81159
 C728 C 0.04775 0.53412 0.78536
 C729 C 0.07665 0.54551 0.78176
 C730 C 0.09776 0.54170 0.80395
 H731 H 0.16437 0.56098 0.89688
 H732 H 0.14204 0.46952 0.89236
 H733 H 0.01853 0.51001 0.81554
 H734 H 0.08320 0.55703 0.76157
 H735 H 0.10419 0.47612 0.85448
 H736 H 0.05586 0.50246 0.85364
 H737 H 0.12753 0.56707 0.85794
 H738 H 0.11986 0.55061 0.80054
 C739 C 0.65850 0.00418 0.37593
 C740 C 0.63974 0.02628 0.38212
 C741 C 0.61854 0.03207 0.36068
 C742 C 0.61546 0.01582 0.33258
 C743 C 0.63481 -0.00570 0.32604
 C744 C 0.65611 -0.01136 0.34737
 C745 C 0.67971 -0.00341 0.39955
 C746 C 0.68486 -0.03229 0.40353
 C747 C 0.70437 -0.03964 0.42593
 C748 C 0.71914 -0.01832 0.44508
 C749 C 0.71392 0.01053 0.44131
 C750 C 0.69451 0.01792 0.41872
 H751 H 0.60431 0.04908 0.36631
 H752 H 0.63293 -0.01888 0.30483
 H753 H 0.70741 -0.06212 0.42868
 H754 H 0.72514 0.02747 0.45547
 H755 H 0.67053 -0.02818 0.34159
 H756 H 0.67334 -0.04934 0.38973
 H757 H 0.64082 0.03856 0.40394
 H758 H 0.69135 0.04039 0.41605
 C759 C 0.87570 0.48551 0.14942
 C760 C 0.88180 0.47810 0.11842
 C761 C 0.86051 0.47920 0.09576
 C762 C 0.83254 0.48762 0.10355
 C763 C 0.82651 0.49542 0.13449
 C764 C 0.84787 0.49437 0.15719
 C765 C 0.89801 0.48294 0.17360
 C766 C 0.89000 0.47172 0.20209
 C767 C 0.91116 0.46743 0.22406
 C768 C 0.94084 0.47419 0.21801
 C769 C 0.94882 0.48615 0.18990
 C770 C 0.92763 0.49049 0.16793
 H771 H 0.86601 0.47352 0.07206
 H772 H 0.80513 0.50185 0.14125
 H773 H 0.90429 0.45859 0.24571
 H774 H 0.97151 0.49131 0.18441
 H775 H 0.84259 0.50050 0.18083
 H776 H 0.86742 0.46543 0.20708
 H777 H 0.90289 0.47085 0.11171
 H778 H 0.93446 0.49954 0.14637
 C779 C 0.35636 0.00814 0.62252
 C780 C 0.37904 0.02915 0.62955
 C781 C 0.40037 0.02449 0.65113
 C782 C 0.40021 -0.00164 0.66585
 C783 C 0.37761 -0.02278 0.65881
 C784 C 0.35586 -0.01788 0.63754
 C785 C 0.33353 0.01357 0.59959
 C786 C 0.32099 -0.00871 0.57991
 C787 C 0.30025 -0.00315 0.55781
 C788 C 0.29183 0.02488 0.55453
 C789 C 0.30432 0.04707 0.57434
 C790 C 0.32454 0.04144 0.59674
 H791 H 0.41698 0.04157 0.65632
 H792 H 0.37687 -0.04328 0.66939
 H793 H 0.29078 -0.02095 0.54350
 H794 H 0.29894 0.06905 0.57238
 H795 H 0.33857 -0.03445 0.63308
 H796 H 0.32751 -0.03041 0.58116
 H797 H 0.38061 0.04925 0.61813
 H798 H 0.33312 0.05910 0.61184
   
