data_POSCAR
  _audit_creation_date              2014-09-24
  _audit_creation_method            'ToBaCCo'
  _symmetry_space_group_name_H-M    'P1'
  _symmetry_Int_Tables_number       1
  _symmetry_cell_setting            triclinic
  loop_
  _symmetry_equiv_pos_as_xyz
 x,y,z
_cell_length_a 42.5192
_cell_length_b 42.8758
_cell_length_c 42.7029
_cell_angle_alpha 88.976600
_cell_angle_beta 90.066000
_cell_angle_gamma 89.541200
loop_
  _atom_site_label
  _atom_site_type_symbol
  _atom_site_fract_x
  _atom_site_fract_y
  _atom_site_fract_z
C1 C 0.19920 0.52188 1.03262
 H2 H 0.19951 0.53988 1.01455
 C3 C 0.17789 0.52387 1.05728
 H4 H 0.16152 0.54329 1.05682
 C5 C 0.21907 0.47385 1.05263
 H6 H 0.23501 0.45425 1.05056
 C7 C 0.19810 0.47483 1.07779
 H8 H 0.19956 0.45623 1.09515
 N9 N 0.21942 0.49734 1.03087
 C10 C 0.29413 0.53637 0.97286
 H11 H 0.29342 0.52115 0.95294
 C12 C 0.31634 0.56017 0.97398
 H13 H 0.33273 0.56318 0.95480
 C14 C 0.27458 0.54996 1.02279
 H15 H 0.25876 0.54549 1.04210
 C16 C 0.29659 0.57380 1.02501
 H17 H 0.29704 0.58791 1.04579
 Zn18 Zn 0.24637 0.49725 0.99571
 N19 N 0.27374 0.53181 0.99700
 C20 C 0.21995 0.52388 0.93957
 N21 N 0.22004 0.49913 0.95998
 C22 C 0.19948 0.47527 0.95682
 C23 C 0.17824 0.47524 0.93194
 C24 C 0.19875 0.52498 0.91448
 C25 C 0.29195 0.45630 1.02004
 C26 C 0.31232 0.43061 1.02083
 C27 C 0.29150 0.41503 0.97087
 C28 C 0.27143 0.44097 0.97109
 N29 N 0.27186 0.46086 0.99556
 H30 H 0.23588 0.54302 0.94298
 H31 H 0.19954 0.45628 0.97385
 H32 H 0.16192 0.45611 0.92994
 H33 H 0.19889 0.54478 0.89838
 H34 H 0.29231 0.47287 1.03885
 H35 H 0.32847 0.42766 1.04030
 H36 H 0.29077 0.39938 0.95127
 H37 H 0.25595 0.44541 0.95143
 C38 C 0.31795 0.57901 1.00048
 C39 C 0.17689 0.50020 1.08071
 C40 C 0.31235 0.40963 0.99596
 C41 C 0.17765 0.50035 0.91043
 C42 C 0.79458 0.51847 -0.03741
 H43 H 0.79431 0.53724 -0.02082
 C44 C 0.81579 0.51908 -0.06235
 H45 H 0.83191 0.53839 -0.06474
 C46 C 0.77475 0.46980 -0.05354
 H47 H 0.75911 0.45038 -0.04969
 C48 C 0.79574 0.46936 -0.07868
 H49 H 0.79566 0.44978 -0.09435
 N50 N 0.77452 0.49417 -0.03356
 C51 C 0.70258 0.53345 0.02717
 H52 H 0.70357 0.51655 0.04627
 C53 C 0.68165 0.55861 0.02845
 H54 H 0.66644 0.56092 0.04861
 C55 C 0.72056 0.55028 -0.02282
 H56 H 0.73541 0.54665 -0.04296
 C57 C 0.69962 0.57560 -0.02269
 H58 H 0.69886 0.59160 -0.04259
 Zn59 Zn 0.74826 0.49424 0.00220
 N60 N 0.72176 0.52994 0.00199
 C61 C 0.77655 0.51974 0.05603
 N62 N 0.77498 0.49415 0.03772
 C63 C 0.79412 0.46901 0.04296
 C64 C 0.81536 0.46865 0.06794
 C65 C 0.79779 0.52056 0.08094
 C66 C 0.70053 0.45787 -0.02150
 C67 C 0.67841 0.43408 -0.02246
 C68 C 0.69966 0.41313 0.02609
 C69 C 0.72133 0.43751 0.02621
 N70 N 0.72142 0.45919 0.00253
 H71 H 0.76196 0.53992 0.05090
 H72 H 0.79306 0.44933 0.02750
 H73 H 0.83064 0.44859 0.07168
 H74 H 0.79896 0.54119 0.09516
 H75 H 0.70086 0.47564 -0.03981
 H76 H 0.66198 0.43345 -0.04183
 H77 H 0.69945 0.39638 0.04537
 H78 H 0.73748 0.43942 0.04560
 C79 C 0.67993 0.58001 0.00326
 C80 C 0.81669 0.49419 -0.08326
 C81 C 0.67762 0.41144 0.00168
 C82 C 0.81752 0.49480 0.08709
 C83 C -0.01575 0.27785 0.44132
 H84 H -0.03425 0.26074 0.44099
 C85 C -0.01333 0.29970 0.41671
 H86 H -0.03058 0.29903 0.39809
 C87 C 0.02744 0.30043 0.46726
 H88 H 0.04327 0.30048 0.48711
 C89 C 0.03033 0.32301 0.44364
 H90 H 0.04931 0.33954 0.44546
 N91 N 0.00442 0.27876 0.46599
 C92 C -0.05743 0.23059 0.52425
 H93 H -0.05420 0.24692 0.54289
 C94 C -0.08363 0.21122 0.52478
 H95 H -0.10062 0.21346 0.54348
 C96 C -0.03885 0.20704 0.47796
 H97 H -0.02086 0.20516 0.46018
 C98 C -0.06471 0.18715 0.47760
 H99 H -0.06637 0.16987 0.45951
 Zn100 Zn 0.00127 0.25253 0.50183
 N101 N -0.03571 0.22826 0.50102
 C102 C -0.02262 0.30084 0.53790
 N103 N 0.00090 0.27921 0.53670
 C104 C 0.02444 0.27847 0.55832
 C105 C 0.02477 0.30005 0.58245
 C106 C -0.02347 0.32251 0.56188
 C107 C 0.05749 0.22431 0.48022
 C108 C 0.08202 0.20246 0.48076
 C109 C 0.06208 0.18200 0.52988
 C110 C 0.03776 0.20406 0.52827
 N111 N 0.03598 0.22471 0.50378
 H112 H -0.04060 0.30141 0.51994
 H113 H 0.04339 0.26168 0.55648
 H114 H 0.04378 0.29941 0.59936
 H115 H -0.04219 0.33978 0.56230
 H116 H 0.05536 0.24055 0.46069
 H117 H 0.09891 0.20241 0.46179
 H118 H 0.06289 0.16544 0.54932
 H119 H 0.02002 0.20457 0.54641
 C120 C -0.08738 0.18892 0.50142
 C121 C 0.00945 0.32345 0.41793
 C122 C 0.08445 0.18087 0.50577
 C123 C 0.00059 0.32242 0.58436
 C124 C 0.97361 0.70338 0.52824
 H125 H 0.95912 0.70091 0.50761
 C126 C 0.97129 0.68178 0.55298
 H127 H 0.95511 0.66257 0.55090
 C128 C 1.01356 0.73053 0.55489
 H129 H 1.03031 0.74930 0.55540
 C130 C 1.01171 0.70972 0.58036
 H131 H 1.02671 0.71327 0.60045
 N132 N 0.99462 0.72704 0.52953
 C133 C 0.96587 0.80491 0.46952
 H134 H 0.98639 0.80643 0.45463
 C135 C 0.94263 0.82795 0.46761
 H136 H 0.94523 0.84711 0.45096
 C137 C 0.93809 0.77848 0.51000
 H138 H 0.93684 0.75950 0.52693
 C139 C 0.91409 0.80097 0.50869
 H140 H 0.89448 0.79922 0.52477
 Zn141 Zn 0.99829 0.75361 0.49386
 N142 N 0.96341 0.78101 0.49069
 C143 C 0.97961 0.73277 0.43416
 N144 N 1.00043 0.72835 0.45807
 C145 C 1.02177 0.70457 0.45785
 C146 C 1.02259 0.68391 0.43295
 C147 C 0.97970 0.71276 0.40875
 C148 C 1.03314 0.80220 0.51807
 C149 C 1.05778 0.82330 0.52035
 C150 C 1.08502 0.79576 0.47950
 C151 C 1.05967 0.77528 0.47782
 N152 N 1.03445 0.77881 0.49705
 H153 H 0.96252 0.75149 0.43493
 H154 H 1.03769 0.70127 0.47744
 H155 H 1.03914 0.66459 0.43368
 H156 H 0.96297 0.71672 0.38994
 H157 H 1.01253 0.80483 0.53265
 H158 H 1.05573 0.84225 0.53666
 H159 H 1.10500 0.79239 0.46421
 H160 H 1.06006 0.75682 0.46094
 C161 C 0.91657 0.82639 0.48768
 C162 C 0.99060 0.68467 0.57953
 C163 C 1.08419 0.82035 0.50084
 C164 C 1.00115 0.68770 0.40807
 C165 C 0.46259 -0.02338 0.29874
 H166 H 0.48173 -0.04000 0.30141
 C167 C 0.43793 -0.02350 0.32024
 H168 H 0.43867 -0.04014 0.33959
 C169 C 0.43994 0.01973 0.27129
 H170 H 0.44114 0.03696 0.25259
 C171 C 0.41451 0.02014 0.29202
 H172 H 0.39602 0.03734 0.28843
 N173 N 0.46330 -0.00189 0.27499
 C174 C 0.52738 -0.04458 0.20852
 H175 H 0.54712 -0.02890 0.20994
 C176 C 0.52873 -0.06994 0.18852
 H177 H 0.55055 -0.07369 0.17620
 C178 C 0.47613 -0.05834 0.22470
 H179 H 0.45534 -0.05319 0.23826
 C180 C 0.47616 -0.08369 0.20457
 H181 H 0.45470 -0.09688 0.20309
 Zn182 Zn 0.49983 -0.00240 0.24971
 N183 N 0.50140 -0.03927 0.22610
 C184 C 0.55447 -0.02480 0.28217
 N185 N 0.53445 -0.00025 0.27749
 C186 C 0.53695 0.02606 0.29455
 C187 C 0.56081 0.02885 0.31671
 C188 C 0.57831 -0.02330 0.30467
 C189 C 0.47641 0.03266 0.19899
 C190 C 0.47549 0.05636 0.17616
 C191 C 0.52319 0.07726 0.19792
 C192 C 0.52327 0.05307 0.22027
 N193 N 0.49987 0.03158 0.22066
 H194 H 0.55138 -0.04598 0.26922
 H195 H 0.52026 0.04496 0.29091
 H196 H 0.56267 0.05043 0.32931
 H197 H 0.59322 -0.04354 0.30871
 H198 H 0.45843 0.01495 0.19942
 H199 H 0.45645 0.05697 0.15930
 H200 H 0.54220 0.09391 0.19771
 H201 H 0.54242 0.05123 0.23682
 C202 C 0.50260 -0.08994 0.18547
 C203 C 0.41339 -0.00147 0.31718
 C204 C 0.49912 0.07906 0.17543
 C205 C 0.58172 0.00380 0.32242
 C206 C 0.54117 -0.03030 0.70642
 H207 H 0.52243 -0.04710 0.70465
 C208 C 0.56649 -0.03136 0.68565
 H209 H 0.56705 -0.04906 0.66789
 C210 C 0.56205 0.01446 0.73042
 H211 H 0.55995 0.03271 0.74738
 C212 C 0.58772 0.01430 0.71011
 H213 H 0.60543 0.03217 0.71209
 N214 N 0.53938 -0.00761 0.72822
 C215 C 0.47933 -0.03762 0.80521
 H216 H 0.46485 -0.01689 0.80722
 C217 C 0.47718 -0.06149 0.82772
 H218 H 0.46120 -0.05861 0.84718
 C219 C 0.51893 -0.06540 0.77818
 H220 H 0.53548 -0.06670 0.75910
 C221 C 0.51717 -0.09010 0.79988
 H222 H 0.53201 -0.11041 0.79666
 Zn223 Zn 0.50265 -0.00527 0.75314
 N224 N 0.50003 -0.03989 0.78112
 C225 C 0.44285 -0.02344 0.73005
 N226 N 0.46785 -0.00430 0.72559
 C227 C 0.46956 0.01518 0.70021
 C228 C 0.44566 0.01570 0.67780
 C229 C 0.41818 -0.02340 0.70838
 C230 C 0.52506 0.03289 0.80049
 C231 C 0.52592 0.05871 0.81989
 C232 C 0.48123 0.08043 0.79182
 C233 C 0.48135 0.05424 0.77281
 N234 N 0.50314 0.03120 0.77740
 H235 H 0.44205 -0.03889 0.75029
 H236 H 0.48992 0.02988 0.69709
 H237 H 0.44811 0.03069 0.65730
 H238 H 0.39832 -0.03853 0.71259
 H239 H 0.54176 0.01397 0.80394
 H240 H 0.54327 0.05941 0.83844
 H241 H 0.46379 0.09861 0.78784
 H242 H 0.46384 0.05223 0.75462
 C243 C 0.49627 -0.08828 0.82530
 C244 C 0.58997 -0.00859 0.68711
 C245 C 0.50372 0.08286 0.81575
 C246 C 0.41949 -0.00383 0.68162
 Si247 Si 0.25086 -0.00077 0.50171
 Si248 Si 0.75041 0.00786 0.50183
 Si249 Si 0.49621 0.24684 0.99317
 Si250 Si 0.49756 0.74508 0.00816
 Si251 Si 1.00069 0.50407 0.25063
 Si252 Si -0.00576 0.50277 0.74666
 C253 C 0.15645 0.10930 0.50722
 C254 C 0.13957 0.11642 0.47935
 C255 C 0.11658 0.14010 0.47898
 C256 C 0.10957 0.15665 0.50617
 C257 C 0.12614 0.14948 0.53381
 C258 C 0.14937 0.12624 0.53437
 C259 C 0.18063 0.08361 0.50664
 C260 C 0.19909 0.07494 0.53291
 C261 C 0.22067 0.05026 0.53133
 C262 C 0.22447 0.03387 0.50355
 C263 C 0.20638 0.04220 0.47731
 C264 C 0.18479 0.06708 0.47850
 C265 C 0.14532 0.09956 0.45214
 C266 C 0.16728 0.07529 0.45178
 H267 H 0.13237 0.10498 0.43083
 H268 H 0.17060 0.06272 0.43022
 H269 H 0.10350 0.14513 0.45764
 H270 H 0.12126 0.16208 0.55504
 H271 H 0.23383 0.04363 0.55213
 H272 H 0.20901 0.02916 0.45593
 H273 H 0.16126 0.12178 0.55632
 H274 H 0.19708 0.08667 0.55494
 C275 C 0.61047 0.65374 0.00631
 C276 C 0.61407 0.63568 -0.02093
 C277 C 0.63747 0.61242 -0.02214
 C278 C 0.65693 0.60615 0.00379
 C279 C 0.65336 0.62403 0.03074
 C280 C 0.63059 0.64763 0.03200
 C281 C 0.58463 0.67778 0.00694
 C282 C 0.57940 0.69744 0.03261
 C283 C 0.55403 0.71835 0.03263
 C284 C 0.53343 0.72017 0.00711
 C285 C 0.53869 0.70135 -0.01880
 C286 C 0.56423 0.68043 -0.01923
 C287 C 0.59376 0.64029 -0.04646
 C288 C 0.56920 0.66197 -0.04551
 H289 H 0.59649 0.62647 -0.06730
 H290 H 0.55374 0.66420 -0.06564
 H291 H 0.63977 0.59834 -0.04287
 H292 H 0.66825 0.61967 0.05097
 H293 H 0.55017 0.73254 0.05300
 H294 H 0.52262 0.70275 -0.03853
 H295 H 0.62883 0.66038 0.05346
 H296 H 0.59439 0.69686 0.05300
 C297 C 0.85018 -0.09728 0.49045
 C298 C 0.83928 -0.12836 0.48943
 C299 C 0.86094 -0.15332 0.48862
 C300 C 0.89341 -0.14765 0.48811
 C301 C 0.90403 -0.11681 0.48839
 C302 C 0.88282 -0.09196 0.48957
 C303 C 0.82647 -0.07136 0.49244
 C304 C 0.83512 -0.03993 0.49547
 C305 C 0.81232 -0.01665 0.49795
 C306 C 0.78029 -0.02391 0.49739
 C307 C 0.77127 -0.05501 0.49376
 C308 C 0.79410 -0.07883 0.49183
 C309 C 0.80690 -0.13427 0.48906
 C310 C 0.78481 -0.11002 0.48989
 H311 H 0.79850 -0.15803 0.48802
 H312 H 0.76005 -0.11582 0.48950
 H313 H 0.85259 -0.17713 0.48800
 H314 H 0.92898 -0.11189 0.48823
 H315 H 0.82015 0.00707 0.50052
 H316 H 0.74650 -0.06069 0.49274
 H317 H 0.89259 -0.06886 0.48976
 H318 H 0.85931 -0.03274 0.49642
 C319 C 0.38075 0.33470 0.99617
 C320 C 0.37407 0.35186 0.96828
 C321 C 0.35114 0.37561 0.96819
 C322 C 0.33488 0.38301 0.99569
 C323 C 0.34115 0.36565 1.02317
 C324 C 0.36366 0.34176 1.02346
 C325 C 0.40657 0.31065 0.99564
 C326 C 0.41550 0.29268 1.02223
 C327 C 0.44135 0.27243 1.02113
 C328 C 0.45871 0.26951 0.99354
 C329 C 0.44917 0.28597 0.96654
 C330 C 0.42341 0.30658 0.96739
 C331 C 0.39089 0.34586 0.94083
 C332 C 0.41509 0.32378 0.94042
 H333 H 0.38568 0.35890 0.91944
 H334 H 0.42785 0.32049 0.91875
 H335 H 0.34679 0.38914 0.94692
 H336 H 0.32861 0.37063 1.04459
 H337 H 0.44821 0.25978 1.04221
 H338 H 0.46265 0.28368 0.94515
 H339 H 0.36761 0.32949 1.04538
 H340 H 0.40332 0.29437 1.04427
 C341 C 0.83839 0.12094 0.50610
 C342 C 0.84677 0.13489 0.47701
 C343 C 0.87047 0.15753 0.47567
 C344 C 0.88622 0.16648 0.50295
 C345 C 0.87737 0.15308 0.53178
 C346 C 0.85377 0.13072 0.53342
 C347 C 0.81429 0.09560 0.50635
 C348 C 0.80549 0.07925 0.53387
 C349 C 0.78493 0.05416 0.53253
 C350 C 0.77217 0.04515 0.50393
 C351 C 0.77976 0.06177 0.47652
 C352 C 0.80084 0.08681 0.47747
 C353 C 0.83188 0.12576 0.44941
 C354 C 0.80940 0.10225 0.44963
 H355 H 0.83811 0.13659 0.42716
 H356 H 0.79902 0.09564 0.42756
 H357 H 0.87682 0.16807 0.45331
 H358 H 0.88934 0.15926 0.55316
 H359 H 0.77987 0.04107 0.55383
 H360 H 0.77040 0.05435 0.45426
 H361 H 0.84837 0.12112 0.55626
 H362 H 0.81489 0.08477 0.55653
 C363 C 0.39060 0.64819 0.00786
 C364 C 0.37280 0.64585 -0.02004
 C365 C 0.34918 0.62327 -0.02233
 C366 C 0.34252 0.60319 0.00306
 C367 C 0.35965 0.60606 0.03092
 C368 C 0.38339 0.62818 0.03335
 C369 C 0.41628 0.67195 0.00899
 C370 C 0.43674 0.67473 0.03480
 C371 C 0.46060 0.69692 0.03443
 C372 C 0.46427 0.71720 0.00873
 C373 C 0.44446 0.71442 -0.01726
 C374 C 0.42067 0.69190 -0.01741
 C375 C 0.37856 0.66611 -0.04544
 C376 C 0.40177 0.68882 -0.04404
 H377 H 0.36481 0.66447 -0.06673
 H378 H 0.40523 0.70399 -0.06430
 H379 H 0.33568 0.62153 -0.04378
 H380 H 0.35503 0.59071 0.05079
 H381 H 0.47640 0.69811 0.05429
 H382 H 0.44803 0.72910 -0.03781
 H383 H 0.39574 0.62920 0.05537
 H384 H 0.43511 0.65971 0.05523
 C385 C 0.15634 -0.10945 0.50492
 C386 C 0.14842 -0.12298 0.47600
 C387 C 0.12528 -0.14615 0.47484
 C388 C 0.11008 -0.15657 0.50226
 C389 C 0.11909 -0.14407 0.53104
 C390 C 0.14184 -0.12086 0.53242
 C391 C 0.17979 -0.08352 0.50494
 C392 C 0.18696 -0.06656 0.53197
 C393 C 0.20843 -0.04216 0.53063
 C394 C 0.22371 -0.03448 0.50262
 C395 C 0.21644 -0.05067 0.47541
 C396 C 0.19441 -0.07493 0.47630
 C397 C 0.16352 -0.11321 0.44842
 C398 C 0.18631 -0.09000 0.44864
 H399 H 0.15767 -0.12373 0.42629
 H400 H 0.19736 -0.08334 0.42668
 H401 H 0.11857 -0.15548 0.45240
 H402 H 0.10850 -0.15226 0.55269
 H403 H 0.21308 -0.02916 0.55164
 H404 H 0.22718 -0.04386 0.45337
 H405 H 0.14772 -0.11225 0.55524
 H406 H 0.17586 -0.07132 0.55421
 C407 C 0.60588 0.34072 1.00106
 C408 C 0.59837 0.37233 0.99405
 C409 C 0.62188 0.39505 0.99440
 C410 C 0.65307 0.38704 1.00185
 C411 C 0.66047 0.35586 1.00939
 C412 C 0.63725 0.33293 1.00892
 C413 C 0.58000 0.31712 0.99977
 C414 C 0.58486 0.28489 1.00545
 C415 C 0.55985 0.26398 1.00353
 C416 C 0.52956 0.27465 0.99593
 C417 C 0.52442 0.30658 0.99061
 C418 C 0.54926 0.32775 0.99221
 C419 C 0.56745 0.38121 0.98675
 C420 C 0.54340 0.35943 0.98599
 H421 H 0.56172 0.40543 0.98153
 H422 H 0.51985 0.36751 0.98020
 H423 H 0.61581 0.41921 0.98918
 H424 H 0.68442 0.34912 1.01515
 H425 H 0.56418 0.23937 1.00800
 H426 H 0.50113 0.31522 0.98492
 H427 H 0.64434 0.30932 1.01472
 H428 H 0.60773 0.27538 1.01124
 C429 C 0.49943 0.15104 1.10338
 C430 C 0.49240 0.11977 1.09602
 C431 C 0.49221 0.09660 1.11963
 C432 C 0.49916 0.10388 1.15075
 C433 C 0.50642 0.13478 1.15803
 C434 C 0.50650 0.15810 1.13473
 C435 C 0.49912 0.17509 1.07737
 C436 C 0.50514 0.20701 1.08208
 C437 C 0.50434 0.22838 1.05693
 C438 C 0.49760 0.21844 1.02666
 C439 C 0.49172 0.18686 1.02168
 C440 C 0.49226 0.16523 1.04666
 C441 C 0.48574 0.11166 1.06512
 C442 C 0.48578 0.13388 1.04097
 H443 H 0.48045 0.08772 1.05950
 H444 H 0.48050 0.12639 1.01744
 H445 H 0.48714 0.07269 1.11366
 H446 H 0.51168 0.14100 1.18192
 H447 H 0.50893 0.25276 1.06115
 H448 H 0.48638 0.17890 0.99839
 H449 H 0.51216 0.18143 1.14175
 H450 H 0.51036 0.21596 1.10492
 C451 C -0.01268 0.61393 0.65297
 C452 C 0.01592 0.62902 0.64564
 C453 C 0.01679 0.65214 0.62193
 C454 C -0.01066 0.66117 0.60564
 C455 C -0.03923 0.64711 0.61404
 C456 C -0.04028 0.62381 0.63728
 C457 C -0.01221 0.58796 0.67698
 C458 C -0.03864 0.56930 0.68351
 C459 C -0.03660 0.54449 0.70502
 C460 C -0.00853 0.53815 0.72108
 C461 C 0.01794 0.55642 0.71489
 C462 C 0.01644 0.58096 0.69266
 C463 C 0.04351 0.62087 0.66190
 C464 C 0.04366 0.59769 0.68522
 H465 H 0.06537 0.63264 0.65653
 H466 H 0.06563 0.59226 0.69709
 H467 H 0.03912 0.66255 0.61572
 H468 H -0.06097 0.65418 0.60267
 H469 H -0.05697 0.52991 0.70884
 H470 H 0.04006 0.55076 0.72633
 H471 H -0.06294 0.61396 0.64265
 H472 H -0.06081 0.57288 0.67165
 C473 C 0.49235 0.84006 -0.10223
 C474 C 0.52088 0.84620 -0.11810
 C475 C 0.52201 0.86945 -0.14165
 C476 C 0.49481 0.88630 -0.15048
 C477 C 0.46625 0.87901 -0.13566
 C478 C 0.46500 0.85634 -0.11183
 C479 C 0.49255 0.81640 -0.07595
 C480 C 0.46635 0.81118 -0.05641
 C481 C 0.46803 0.78951 -0.03169
 C482 C 0.49547 0.77203 -0.02634
 C483 C 0.52181 0.77716 -0.04531
 C484 C 0.52071 0.79954 -0.06971
 C485 C 0.54810 0.82906 -0.11045
 C486 C 0.54787 0.80585 -0.08716
 H487 H 0.56990 0.83351 -0.12281
 H488 H 0.56950 0.79313 -0.08225
 H489 H 0.54433 0.87477 -0.15265
 H490 H 0.44465 0.89076 -0.14258
 H491 H 0.44780 0.78646 -0.01657
 H492 H 0.54352 0.76462 -0.04043
 H493 H 0.44236 0.85178 -0.10144
 H494 H 0.44464 0.82409 -0.05930
 C495 C 1.01026 0.39778 0.35035
 C496 C 1.00137 0.36754 0.34139
 C497 C 1.00086 0.34302 0.36374
 C498 C 1.01055 0.34774 0.39494
 C499 C 1.02101 0.37769 0.40293
 C500 C 1.02073 0.40224 0.38116
 C501 C 1.00850 0.42376 0.32654
 C502 C 1.01272 0.45518 0.33438
 C503 C 1.01033 0.47869 0.31161
 C504 C 1.00408 0.47165 0.28033
 C505 C 0.99993 0.44041 0.27214
 C506 C 1.00119 0.41654 0.29517
 C507 C 0.99357 0.36193 0.31007
 C508 C 0.99420 0.38576 0.28732
 H509 H 0.98722 0.33867 0.30296
 H510 H 0.98830 0.38015 0.26339
 H511 H 0.99411 0.32000 0.35630
 H512 H 1.02799 0.38301 0.42659
 H513 H 1.01340 0.50246 0.31889
 H514 H 0.99486 0.43475 0.24804
 H515 H 1.02888 0.42453 0.38902
 H516 H 1.01717 0.46223 0.35807
 C517 C 0.50011 0.83769 0.11751
 C518 C 0.52250 0.86177 0.11515
 C519 C 0.52327 0.88535 0.13754
 C520 C 0.50249 0.88536 0.16339
 C521 C 0.48126 0.86025 0.16611
 C522 C 0.47999 0.83701 0.14361
 C523 C 0.49896 0.81397 0.09208
 C524 C 0.47567 0.79076 0.09056
 C525 C 0.47519 0.76982 0.06582
 C526 C 0.49815 0.77124 0.04242
 C527 C 0.52135 0.79412 0.04364
 C528 C 0.52165 0.81574 0.06789
 C529 C 0.54405 0.86236 0.09034
 C530 C 0.54395 0.83957 0.06751
 H531 H 0.56143 0.88067 0.08862
 H532 H 0.56120 0.84101 0.04889
 H533 H 0.53944 0.90430 0.13352
 H534 H 0.46586 0.85761 0.18606
 H535 H 0.45654 0.75288 0.06488
 H536 H 0.53881 0.79557 0.02517
 H537 H 0.46329 0.81850 0.14730
 H538 H 0.45725 0.78884 0.10781
 C539 C 0.00160 0.39516 0.65261
 C540 C -0.02585 0.37731 0.64813
 C541 C -0.02601 0.35349 0.62596
 C542 C 0.00115 0.34655 0.60871
 C543 C 0.02868 0.36335 0.61415
 C544 C 0.02896 0.38740 0.63574
 C545 C 0.00036 0.42140 0.67532
 C546 C 0.02530 0.44245 0.67906
 C547 C 0.02296 0.46660 0.70038
 C548 C -0.00393 0.47002 0.71885
 C549 C -0.02926 0.44982 0.71490
 C550 C -0.02745 0.42577 0.69301
 C551 C -0.05286 0.38321 0.66591
 C552 C -0.05347 0.40659 0.68822
 H553 H -0.07379 0.36936 0.66271
 H554 H -0.07485 0.41004 0.70156
 H555 H -0.04720 0.34015 0.62225
 H556 H 0.04990 0.35834 0.60110
 H557 H 0.04239 0.48260 0.70260
 H558 H -0.05060 0.45318 0.72829
 H559 H 0.05083 0.39954 0.63886
 H560 H 0.04660 0.44100 0.66547
 C561 C 0.50348 0.15840 0.88115
 C562 C 0.47487 0.14482 0.87154
 C563 C 0.47505 0.12094 0.84946
 C564 C 0.50347 0.10981 0.83707
 C565 C 0.53173 0.12364 0.84619
 C566 C 0.53181 0.14768 0.86782
 C567 C 0.50239 0.18266 0.90603
 C568 C 0.52954 0.19719 0.91769
 C569 C 0.52750 0.21772 0.94265
 C570 C 0.49843 0.22445 0.95632
 C571 C 0.47111 0.21128 0.94411
 C572 C 0.47285 0.19045 0.91918
 C573 C 0.44632 0.15447 0.88468
 C574 C 0.44535 0.17670 0.90808
 H575 H 0.42441 0.14418 0.87724
 H576 H 0.42272 0.18284 0.91799
 H577 H 0.45311 0.11014 0.84285
 H578 H 0.55392 0.11573 0.83663
 H579 H 0.54889 0.22757 0.95175
 H580 H 0.44859 0.21621 0.95490
 H581 H 0.55432 0.15712 0.87410
 H582 H 0.55263 0.19254 0.90841
 C583 C 0.99771 0.61853 0.33591
 C584 C 1.02700 0.62884 0.34748
 C585 C 1.02801 0.65196 0.37035
 C586 C 1.00017 0.66483 0.38237
 C587 C 0.97121 0.65488 0.37051
 C588 C 0.96993 0.63216 0.34757
 C589 C 0.99759 0.59275 0.31262
 C590 C 0.96970 0.58034 0.30017
 C591 C 0.97080 0.55479 0.28039
 C592 C 0.99962 0.54131 0.27229
 C593 C 1.02757 0.55405 0.28352
 C594 C 1.02679 0.57960 0.30359
 C595 C 1.05508 0.61555 0.33672
 C596 C 1.05497 0.59138 0.31534
 H597 H 1.07751 0.62354 0.34545
 H598 H 1.07732 0.58143 0.30825
 H599 H 1.05055 0.65975 0.37901
 H600 H 0.94933 0.66406 0.37962
 H601 H 0.94895 0.54499 0.27221
 H602 H 1.04989 0.54327 0.27762
 H603 H 0.94693 0.62526 0.33978
 H604 H 0.94679 0.58949 0.30593
 C605 C 1.10889 0.50534 0.15411
 C606 C 1.12189 0.47624 0.14570
 C607 C 1.14464 0.47464 0.12190
 C608 C 1.15500 0.50179 0.10587
 C609 C 1.14253 0.53070 0.11540
 C610 C 1.12000 0.53247 0.13899
 C611 C 1.08360 0.50594 0.17855
 C612 C 1.06800 0.53357 0.18727
 C613 C 1.04383 0.53275 0.20928
 C614 C 1.03480 0.50455 0.22340
 C615 C 1.05023 0.47692 0.21522
 C616 C 1.07436 0.47736 0.19277
 C617 C 1.11183 0.44879 0.16080
 C618 C 1.08874 0.44937 0.18396
 H619 H 1.12188 0.42645 0.15453
 H620 H 1.08170 0.42747 0.19480
 H621 H 1.15284 0.45181 0.11504
 H622 H 1.15072 0.55253 0.10545
 H623 H 1.03194 0.55433 0.21497
 H624 H 1.04311 0.45497 0.22573
 H625 H 1.11173 0.55541 0.14505
 H626 H 1.07363 0.55599 0.17703
 C627 C 0.66210 -0.00547 0.61614
 C628 C 0.64712 0.02224 0.62610
 C629 C 0.62428 0.02102 0.64974
 C630 C 0.61558 -0.00755 0.66355
 C631 C 0.63053 -0.03499 0.65384
 C632 C 0.65357 -0.03403 0.63053
 C633 C 0.68559 -0.00317 0.59001
 C634 C 0.70206 -0.02919 0.57837
 C635 C 0.72235 -0.02594 0.55280
 C636 C 0.72665 0.00321 0.53828
 C637 C 0.71147 0.02939 0.55047
 C638 C 0.69106 0.02648 0.57606
 C639 C 0.65439 0.05098 0.61193
 C640 C 0.67578 0.05303 0.58735
 H641 H 0.64296 0.07219 0.61962
 H642 H 0.68018 0.07576 0.57679
 H643 H 0.61245 0.04231 0.65664
 H644 H 0.62436 -0.05730 0.66432
 H645 H 0.73418 -0.04646 0.54427
 H646 H 0.71519 0.05216 0.53974
 H647 H 0.66404 -0.05591 0.62387
 H648 H 0.69937 -0.05227 0.58842
 C649 C -0.11283 0.49318 0.84405
 C650 C -0.13043 0.52066 0.84978
 C651 C -0.15359 0.52075 0.87322
 C652 C -0.15984 0.49367 0.89104
 C653 C -0.14297 0.46626 0.88473
 C654 C -0.11979 0.46594 0.86160
 C655 C -0.08742 0.49443 0.81971
 C656 C -0.06727 0.46897 0.81360
 C657 C -0.04340 0.47164 0.79134
 C658 C -0.03934 0.49945 0.77429
 C659 C -0.05900 0.52500 0.78015
 C660 C -0.08287 0.52277 0.80279
 C661 C -0.12476 0.54792 0.83219
 C662 C -0.10165 0.54889 0.80907
 H663 H -0.13837 0.56891 0.83643
 H664 H -0.09815 0.57059 0.79618
 H665 H -0.16689 0.54191 0.87757
 H666 H -0.14722 0.44510 0.89826
 H667 H -0.02786 0.45192 0.78756
 H668 H -0.05521 0.54694 0.76783
 H669 H -0.10755 0.44419 0.85800
 H670 H -0.06916 0.44699 0.82608
 C671 C 0.34136 0.00207 0.38865
 C672 C 0.35454 -0.02684 0.37967
 C673 C 0.37694 -0.02790 0.35557
 C674 C 0.38762 -0.00040 0.34082
 C675 C 0.37455 0.02824 0.34990
 C676 C 0.35164 0.02950 0.37329
 C677 C 0.31788 0.00220 0.41488
 C678 C 0.30239 0.02950 0.42483
 C679 C 0.28163 0.02847 0.45017
 C680 C 0.27581 0.00031 0.46605
 C681 C 0.29084 -0.02699 0.45633
 C682 C 0.31129 -0.02639 0.43057
 C683 C 0.34600 -0.05445 0.39536
 C684 C 0.32521 -0.05418 0.42055
 H685 H 0.35614 -0.07659 0.38854
 H686 H 0.31990 -0.07609 0.43235
 H687 H 0.38635 -0.05029 0.34860
 H688 H 0.38265 0.04996 0.33956
 H689 H 0.27069 0.04993 0.45775
 H690 H 0.28664 -0.04874 0.46892
 H691 H 0.34291 0.05224 0.37950
 H692 H 0.30606 0.05185 0.41352
 C693 C 0.10735 0.50022 0.83761
 C694 C 0.11261 0.52747 0.85508
 C695 C 0.13631 0.52774 0.87805
 C696 C 0.15450 0.50093 0.88446
 C697 C 0.14947 0.47410 0.86694
 C698 C 0.12637 0.47371 0.84373
 C699 C 0.08116 0.50054 0.81404
 C700 C 0.07401 0.47464 0.79551
 C701 C 0.04858 0.47565 0.77484
 C702 C 0.02985 0.50250 0.77193
 C703 C 0.03672 0.52849 0.78999
 C704 C 0.06235 0.52783 0.81080
 C705 C 0.09368 0.55400 0.85011
 C706 C 0.06899 0.55411 0.82858
 H707 H 0.09769 0.57486 0.86345
 H708 H 0.05473 0.57507 0.82596
 H709 H 0.13983 0.54846 0.89177
 H710 H 0.16344 0.45323 0.87132
 H711 H 0.04320 0.45501 0.76173
 H712 H 0.02191 0.54914 0.78803
 H713 H 0.12354 0.45228 0.83126
 H714 H 0.08746 0.45324 0.79683
 C715 C 0.65156 0.00965 0.39584
 C716 C 0.65769 -0.00835 0.36906
 C717 C 0.63525 -0.00969 0.34490
 C718 C 0.60601 0.00566 0.34755
 C719 C 0.59969 0.02238 0.37486
 C720 C 0.62210 0.02454 0.39853
 C721 C 0.67624 0.01107 0.42079
 C722 C 0.67363 0.03080 0.44667
 C723 C 0.69650 0.03030 0.47005
 C724 C 0.72229 0.00996 0.46846
 C725 C 0.72610 -0.00863 0.44206
 C726 C 0.70345 -0.00791 0.41801
 C727 C 0.68582 -0.02546 0.36694
 C728 C 0.70790 -0.02577 0.39119
 H729 H 0.69050 -0.03945 0.34655
 H730 H 0.72891 -0.04000 0.38878
 H731 H 0.64064 -0.02275 0.32407
 H732 H 0.57703 0.03346 0.37837
 H733 H 0.69364 0.04568 0.48962
 H734 H 0.74662 -0.02359 0.44011
 H735 H 0.61558 0.03739 0.41904
 H736 H 0.65423 0.04691 0.44924
 C737 C 0.88801 0.49731 0.15957
 C738 C 0.88479 0.52226 0.13759
 C739 C 0.86120 0.52158 0.11463
 C740 C 0.84128 0.49582 0.11240
 C741 C 0.84483 0.47081 0.13371
 C742 C 0.86776 0.47156 0.15717
 C743 C 0.91367 0.49894 0.18361
 C744 C 0.91768 0.47649 0.20788
 C745 C 0.94293 0.47838 0.22875
 C746 C 0.96488 0.50236 0.22562
 C747 C 0.96024 0.52562 0.20266
 C748 C 0.93477 0.52427 0.18187
 C749 C 0.90567 0.54734 0.13804
 C750 C 0.93042 0.54808 0.15939
 H751 H 0.90327 0.56637 0.12113
 H752 H 0.94638 0.56766 0.15832
 H753 H 0.85897 0.54067 0.09775
 H754 H 0.82971 0.45068 0.13229
 H755 H 0.94515 0.46093 0.24719
 H756 H 0.97662 0.54479 0.20080
 H757 H 0.86960 0.45158 0.17278
 H758 H 0.90158 0.45741 0.21117
 C759 C 0.34769 -0.00595 0.60983
 C760 C 0.36268 0.02237 0.61714
 C761 C 0.38540 0.02303 0.64101
 C762 C 0.39425 -0.00436 0.65743
 C763 C 0.37949 -0.03244 0.64991
 C764 C 0.35647 -0.03327 0.62659
 C765 C 0.32356 -0.00562 0.58415
 C766 C 0.30651 -0.03229 0.57571
 C767 C 0.28453 -0.03078 0.55139
 C768 C 0.27897 -0.00273 0.53504
 C769 C 0.29595 0.02383 0.54288
 C770 C 0.31774 0.02276 0.56759
 C771 C 0.35531 0.04979 0.60029
 C772 C 0.33358 0.04992 0.57584
 H773 H 0.36685 0.07147 0.60583
 H774 H 0.32898 0.07168 0.56329
 H775 H 0.39622 0.04500 0.64676
 H776 H 0.38621 -0.05409 0.66161
 H777 H 0.27227 -0.05178 0.54512
 H778 H 0.29198 0.04545 0.52985
 H779 H 0.34627 -0.05561 0.62177
 H780 H 0.30975 -0.05452 0.58751
   
