data_POSCAR
  _audit_creation_date              2014-09-24
  _audit_creation_method            'ToBaCCo'
  _symmetry_space_group_name_H-M    'P1'
  _symmetry_Int_Tables_number       1
  _symmetry_cell_setting            triclinic
  loop_
  _symmetry_equiv_pos_as_xyz
 x,y,z
_cell_length_a 28.9033
_cell_length_b 29.1820
_cell_length_c 28.1119
_cell_angle_alpha 90.595600
_cell_angle_beta 88.650000
_cell_angle_gamma 88.510500
loop_
  _atom_site_label
  _atom_site_type_symbol
  _atom_site_fract_x
  _atom_site_fract_y
  _atom_site_fract_z
C1 C 0.18711 1.24253 0.18609
 N2 N 0.16531 1.22390 0.22430
 C3 C 0.18273 1.18521 0.24462
 N4 N 0.22229 1.16523 0.22633
 C5 C 0.24445 1.18351 0.18818
 N6 N 0.22667 1.22209 0.16810
 C7 C 0.81965 0.76173 0.18573
 N8 N 0.78114 0.77954 0.16539
 C9 C 0.76015 0.81852 0.18314
 N10 N 0.77818 0.83992 0.22136
 C11 C 0.81665 0.82243 0.24216
 N12 N 0.83717 0.78331 0.22416
 C13 C 0.81039 1.25849 -0.17239
 N14 N 0.82753 1.23700 -0.21245
 C15 C 0.80672 1.19942 -0.23026
 N16 N 0.76863 1.18325 -0.20744
 C17 C 0.75128 1.20444 -0.16731
 N18 N 0.77230 1.24195 -0.15002
 C19 C 0.18524 0.75198 -0.19783
 N20 N 0.16394 0.77394 -0.23397
 C21 C 0.18191 0.81248 -0.25277
 N22 N 0.22170 0.82893 -0.23514
 C23 C 0.24328 0.80735 -0.19898
 N24 N 0.22480 0.76898 -0.18022
 C25 C 0.56651 1.04722 -0.02815
 H26 H 0.56750 1.04903 0.01028
 C27 C 0.59808 1.07162 -0.05561
 H28 H 0.62350 1.09167 -0.03770
 C29 C 0.53392 1.01603 -0.09753
 H30 H 0.50958 0.99351 -0.11370
 C31 C 0.56507 1.03962 -0.12638
 H32 H 0.56411 1.03542 -0.16467
 N33 N 0.53505 1.02040 -0.04935
 C34 C 0.42509 1.00339 0.05719
 H35 H 0.42405 0.96636 0.05747
 C36 C 0.39298 1.02940 0.08449
 H37 H 0.36732 1.01208 0.10593
 C38 C 0.45909 1.07074 0.02771
 H39 H 0.48444 1.08673 0.00495
 C40 C 0.42764 1.09816 0.05459
 H41 H 0.43042 1.13496 0.05287
 Zn42 Zn 0.49619 0.98564 -0.00935
 N43 N 0.45725 1.02426 0.02949
 C44 C 0.53385 0.95240 0.07666
 N45 N 0.53526 0.94874 0.02838
 C46 C 0.56754 0.92145 0.00531
 C47 C 0.60024 0.89645 0.03089
 C48 C 0.56581 0.92790 0.10366
 C49 C 0.42476 0.97265 -0.07173
 C50 C 0.39228 0.94898 -0.09757
 C51 C 0.42633 0.87771 -0.07046
 C52 C 0.45824 0.90287 -0.04498
 N53 N 0.45682 0.94947 -0.04608
 H54 H 0.50876 0.97520 0.09432
 H55 H 0.56860 0.92012 -0.03318
 H56 H 0.62643 0.87649 0.01127
 H57 H 0.56462 0.93173 0.14205
 H58 H 0.42414 1.00974 -0.07154
 H59 H 0.36676 0.96819 -0.11742
 H60 H 0.42869 0.84073 -0.06934
 H61 H 0.48369 0.88511 -0.02391
 C62 C 0.39343 1.07742 0.08293
 C63 C 0.59748 1.06806 -0.10554
 C64 C 0.39225 0.90094 -0.09672
 C65 C 0.59965 0.89952 0.08092
 C66 C -0.00446 0.57331 1.06865
 H67 H 0.03285 0.57509 1.06589
 C68 C -0.02976 0.60557 1.09632
 H69 H -0.01121 0.63222 1.11408
 C70 C -0.07341 0.53805 1.04537
 H71 H -0.09037 0.51244 1.02452
 C72 C -0.10008 0.56958 1.07269
 H73 H -0.13746 0.56759 1.07294
 N74 N -0.02646 0.54042 1.04395
 C75 C 0.07600 0.43102 1.01499
 H76 H 0.07427 0.42902 0.97662
 C77 C 0.10312 0.39914 1.03930
 H78 H 0.12157 0.37259 1.01891
 C79 C 0.05058 0.46629 1.08760
 H80 H 0.02910 0.49172 1.10635
 C81 C 0.07731 0.43513 1.11337
 H82 H 0.07648 0.43722 1.15188
 Zn83 Zn 0.01042 0.50143 1.00349
 N84 N 0.05042 0.46367 1.03928
 C85 C 0.09156 0.53799 0.96054
 N86 N 0.04448 0.53970 0.96251
 C87 C 0.02001 0.57142 0.93769
 C88 C 0.04287 0.60340 0.90978
 C89 C 0.11589 0.56933 0.93296
 C90 C -0.05044 0.42997 0.99378
 C91 C -0.07708 0.39788 0.97058
 C92 C -0.05553 0.43187 0.89553
 C93 C -0.02915 0.46334 0.92025
 N94 N -0.02720 0.46186 0.96851
 H95 H 0.11041 0.51288 0.98098
 H96 H -0.01741 0.57236 0.94037
 H97 H 0.02273 0.62880 0.89079
 H98 H 0.15327 0.56675 0.93171
 H99 H -0.04783 0.42926 1.03210
 H100 H -0.09512 0.37258 0.99139
 H101 H -0.05699 0.43440 0.85727
 H102 H -0.00997 0.48862 0.90077
 C103 C 0.10398 0.40092 1.08933
 C104 C -0.07840 0.60392 1.09864
 C105 C -0.07952 0.39811 0.92081
 C106 C 0.09141 0.60324 0.90778
 C107 C 1.05425 -0.00824 0.57517
 H108 H 1.05258 0.02873 0.57863
 C109 C 1.08172 -0.03410 0.60567
 H110 H 1.10040 -0.01639 0.63285
 C111 C 1.02912 -0.07570 0.53716
 H112 H 1.00787 -0.09187 0.51110
 C113 C 1.05612 -0.10290 0.56691
 H114 H 1.05570 -0.13987 0.56311
 N115 N 1.02901 -0.02923 0.54149
 C116 C 1.00545 0.07179 0.43105
 H117 H 0.96812 0.07106 0.42932
 C118 C 1.03050 0.09822 0.39889
 H119 H 1.01174 0.11708 0.37230
 C120 C 1.07466 0.04504 0.46612
 H121 H 1.09183 0.02347 0.49160
 C122 C 1.10108 0.07106 0.43473
 H123 H 1.13847 0.06953 0.43673
 Zn124 Zn 0.99103 0.00844 0.50328
 N125 N 1.02769 0.04606 0.46390
 C126 C 0.95287 0.09121 0.54359
 N127 N 0.95252 0.04465 0.54498
 C128 C 0.92714 0.02261 0.57856
 C129 C 0.90119 0.04755 0.61295
 C130 C 0.92729 0.11752 0.57720
 C131 C 0.97941 -0.05234 0.42810
 C132 C 0.95601 -0.07882 0.39534
 C133 C 0.88369 -0.05406 0.43341
 C134 C 0.90855 -0.02799 0.46554
 N135 N 0.95559 -0.02795 0.46254
 H136 H 0.97362 0.10814 0.51696
 H137 H 0.92789 -0.01446 0.57917
 H138 H 0.88178 0.02938 0.63989
 H139 H 0.92788 0.15443 0.57474
 H140 H 1.01675 -0.05074 0.42584
 H141 H 0.97595 -0.09680 0.36762
 H142 H 0.84624 -0.05369 0.43609
 H143 H 0.89021 -0.00748 0.49245
 C144 C 1.07914 0.09821 0.40061
 C145 C 1.08320 -0.08222 0.60145
 C146 C 0.90741 -0.08028 0.39802
 C147 C 0.90174 0.09562 0.61322
 C148 C 0.16730 0.28115 1.16477
 C149 C 0.18584 0.30068 1.12589
 C150 C 0.16333 0.33855 1.09964
 C151 C 0.12906 0.36596 1.11760
 H152 H 0.21769 0.28654 1.11000
 H153 H 0.17659 0.34384 1.06390
 H154 H 0.13471 0.29414 1.17985
 H155 H 0.11878 0.36330 1.15469
 C156 C -0.15823 0.72288 1.16536
 C157 C -0.11899 0.70427 1.18238
 C158 C -0.09179 0.66635 1.15893
 C159 C -0.10763 0.63899 1.12459
 H160 H -0.10373 0.71919 1.21359
 H161 H -0.05701 0.66109 1.17146
 H162 H -0.17303 0.70902 1.13349
 H163 H -0.14358 0.64166 1.11495
 C164 C -0.16787 0.29616 0.84738
 C165 C -0.12897 0.31365 0.82875
 C166 C -0.10355 0.35142 0.85098
 C167 C -0.10739 0.36272 0.89738
 H168 H -0.11458 0.30015 0.79537
 H169 H -0.07834 0.36781 0.82836
 H170 H -0.18354 0.31106 0.87947
 H171 H -0.12987 0.34334 0.92045
 C172 C 0.16377 0.71132 0.82303
 C173 C 0.18066 0.69026 0.86137
 C174 C 0.15856 0.65148 0.88585
 C175 C 0.11459 0.63922 0.87966
 H176 H 0.21252 0.70193 0.87635
 H177 H 0.17909 0.63484 0.91261
 H178 H 0.13288 0.69943 0.80644
 H179 H 0.09310 0.65828 0.85545
 C180 C 1.15970 0.16443 0.28264
 C181 C 1.11959 0.18113 0.30183
 C182 C 1.09210 0.15783 0.33909
 C183 C 1.10820 0.12335 0.36588
 H184 H 1.10407 0.21227 0.28795
 H185 H 1.05698 0.17077 0.34455
 H186 H 1.17475 0.13268 0.29534
 H187 H 1.14438 0.11307 0.36318
 C188 C 1.15804 -0.16438 0.71164
 C189 C 1.17269 -0.12504 0.69269
 C190 C 1.14646 -0.09716 0.65825
 C191 C 1.11027 -0.11187 0.63380
 H192 H 1.20451 -0.11043 0.70470
 H193 H 1.15876 -0.06291 0.65265
 H194 H 1.12569 -0.17856 0.70085
 H195 H 1.10035 -0.14725 0.63624
 C196 C 0.83563 -0.15399 0.28032
 C197 C 0.87443 -0.16865 0.30153
 C198 C 0.89855 -0.14295 0.33878
 C199 C 0.88059 -0.10663 0.36318
 H200 H 0.89171 -0.20019 0.28942
 H201 H 0.93301 -0.15569 0.34646
 H202 H 0.81869 -0.12205 0.29143
 H203 H 0.84484 -0.09609 0.35870
 C204 C 0.82473 0.17616 0.72938
 C205 C 0.86315 0.18925 0.70590
 C206 C 0.88524 0.16436 0.66480
 C207 C 0.87592 0.12118 0.65182
 H208 H 0.88016 0.22011 0.71699
 H209 H 0.91284 0.18212 0.64685
 H210 H 0.80658 0.14633 0.71760
 H211 H 0.85079 0.10222 0.67212
 C212 C 0.28593 1.15964 0.16766
 C213 C 0.30678 1.17314 0.12721
 C214 C 0.34582 1.14799 0.10277
 C215 C 0.35743 1.10393 0.11087
 H216 H 0.29464 1.20424 0.11030
 H217 H 0.36292 1.16620 0.07439
 H218 H 0.29845 1.12964 0.18611
 H219 H 0.33772 1.08495 0.13681
 C220 C 0.71162 1.18602 -0.14056
 C221 C 0.68996 1.14832 -0.15413
 C222 C 0.65350 1.12890 -0.12354
 C223 C 0.63181 1.09097 -0.13653
 H224 H 0.70021 1.13074 -0.18702
 H225 H 0.64491 1.14565 -0.08982
 H226 H 0.70098 1.20326 -0.10758
 H227 H 0.63929 1.07615 -0.17149
 C228 C 0.28499 0.82754 -0.17923
 C229 C 0.30523 0.81141 -0.14011
 C230 C 0.34448 0.83337 -0.11663
 C231 C 0.35596 0.87719 -0.12336
 H232 H 0.29248 0.78062 -0.12374
 H233 H 0.36182 0.81306 -0.09017
 H234 H 0.29824 0.85718 -0.19722
 H235 H 0.33593 0.89818 -0.14721
 C236 C 0.71949 0.83922 0.16002
 C237 C 0.70038 0.81998 0.12188
 C238 C 0.66239 0.84121 0.09459
 C239 C 0.63528 0.87654 0.11025
 H240 H 0.71484 0.78792 0.10769
 H241 H 0.65666 0.82593 0.06012
 H242 H 0.70668 0.87191 0.17397
 H243 H 0.63854 0.88924 0.14625
   
