data_POSCAR
  _audit_creation_date              2014-09-24
  _audit_creation_method            'ToBaCCo'
  _symmetry_space_group_name_H-M    'P1'
  _symmetry_Int_Tables_number       1
  _symmetry_cell_setting            triclinic
  loop_
  _symmetry_equiv_pos_as_xyz
 x,y,z
_cell_length_a 22.0218
_cell_length_b 22.0133
_cell_length_c 22.0156
_cell_angle_alpha 62.167100
_cell_angle_beta 117.555900
_cell_angle_gamma 65.659500
loop_
  _atom_site_label
  _atom_site_type_symbol
  _atom_site_fract_x
  _atom_site_fract_y
  _atom_site_fract_z
O1 O 0.66804 0.39921 0.11392
 O2 O 0.45534 0.46848 0.06890
 O3 O 0.60499 0.32066 0.12250
 O4 O 0.52963 0.53509 0.07521
 O5 O 0.39605 0.67025 -0.11646
 O6 O 0.47031 0.45493 -0.06906
 O7 O 0.32135 0.60342 -0.12263
 O8 O 0.53325 0.53303 -0.07771
 Cu9 Cu 0.57720 0.41772 0.11376
 Cu10 Cu 0.41716 0.57810 -0.11509
 C11 C 0.63504 0.45686 0.02414
 C12 C 0.35262 0.54758 -0.03422
 C13 C 0.54999 0.35172 0.03441
 C14 C 0.45274 0.63748 -0.02702
 O15 O -0.09540 0.65454 0.41401
 O16 O -0.05024 0.43781 0.49122
 O17 O -0.05736 0.51090 0.55721
 O18 O -0.08791 0.58156 0.34862
 O19 O 0.09910 0.44785 0.49252
 O20 O 0.12942 0.37772 0.70064
 O21 O 0.13663 0.30434 0.63499
 O22 O 0.09151 0.52094 0.55748
 Cu23 Cu -0.09128 0.55907 0.43882
 Cu24 Cu 0.13209 0.40001 0.61012
 C25 C -0.00855 0.62333 0.47440
 C26 C 0.04992 0.33551 0.57409
 C27 C 0.04042 0.43443 0.66315
 C28 C 0.00129 0.52509 0.38628
 O29 O 0.44528 0.09852 0.50800
 O30 O 0.37962 0.12776 0.30170
 O31 O 0.30225 0.13797 0.36340
 O32 O 0.52183 0.08870 0.44647
 O33 O 0.65386 -0.09855 0.58985
 O34 O 0.43408 -0.04920 0.50712
 O35 O 0.51108 -0.05928 0.44501
 O36 O 0.57735 -0.08876 0.65180
 Cu37 Cu 0.39973 0.13117 0.39118
 Cu38 Cu 0.55674 -0.09249 0.56232
 C39 C 0.52101 0.00073 0.61392
 C40 C 0.43617 0.03844 0.33943
 C41 C 0.33214 0.05175 0.42345
 C42 C 0.62388 -0.01212 0.53038
 C43 C 0.48984 -0.01907 0.01458
 C44 C 0.53177 0.00362 -0.00661
 C45 C 0.53585 0.00073 -0.07104
 C46 C 0.56500 0.04217 0.02221
 C47 C 0.46129 0.00404 0.05663
 C48 C 0.47415 -0.07292 -0.00019
 C49 C 0.63758 -0.06453 -0.02428
 C50 C 0.64076 -0.06753 -0.08499
 C51 C 0.54227 -0.00507 -0.19290
 C52 C 0.44038 0.06157 -0.24066
 C53 C 0.43692 0.06504 -0.18062
 C54 C 0.62460 -0.00539 0.12771
 C55 C 0.63814 0.04506 0.14301
 C56 C 0.59608 0.14062 0.05506
 C57 C 0.54786 0.18033 -0.04381
 C58 C 0.53373 0.13071 -0.05943
 C59 C 0.39545 0.10963 0.00335
 C60 C 0.37683 0.12576 0.05007
 C61 C 0.42139 0.03759 0.14860
 C62 C 0.48111 -0.06489 0.19752
 C63 C 0.50016 -0.08122 0.15142
 C64 C 0.36935 -0.02418 -0.06843
 C65 C 0.35503 -0.07487 -0.08250
 C66 C 0.44539 -0.17460 -0.02837
 C67 C 0.55003 -0.22386 0.04041
 C68 C 0.56459 -0.17387 0.05496
 H69 H 0.71447 -0.11396 0.05961
 H70 H 0.71968 -0.11843 -0.04785
 H71 H 0.36346 0.11077 -0.32439
 H72 H 0.35718 0.11728 -0.21920
 H73 H 0.65612 -0.07812 0.19577
 H74 H 0.67745 0.01232 0.22105
 H75 H 0.49308 0.16576 -0.13871
 H76 H 0.36153 0.17808 -0.07195
 H77 H 0.33043 0.20556 0.01133
 H78 H 0.51589 -0.13368 0.27362
 H79 H 0.54796 -0.16192 0.19196
 H80 H 0.29864 0.05346 -0.11144
 H81 H 0.27411 -0.03679 -0.13490
 H82 H 0.62088 -0.30164 0.08363
 H83 H 0.64657 -0.21391 0.10924
 H84 H 0.51640 0.25321 -0.11171
 C85 C -0.01839 0.49109 0.98508
 C86 C 0.00509 0.53285 1.00565
 C87 C 0.04532 0.56395 0.97758
 C88 C 0.00200 0.53819 1.06931
 C89 C -0.07288 0.47653 0.99986
 C90 C 0.00527 0.46083 0.94437
 C91 C 0.13378 0.53238 1.05905
 C92 C 0.18453 0.54486 1.04415
 C93 C 0.14614 0.59172 0.94616
 C94 C 0.05092 0.63391 0.85838
 C95 C -0.00069 0.62203 0.87296
 C96 C 0.06496 0.43992 1.17869
 C97 C 0.06123 0.44456 1.23801
 C98 C -0.00412 0.54691 1.18980
 C99 C -0.06489 0.64463 1.08230
 C100 C -0.06180 0.64031 1.02219
 C101 C -0.17283 0.56743 0.94546
 C102 C -0.22389 0.55405 0.95912
 C103 C -0.17670 0.45016 1.02628
 C104 C -0.07785 0.35934 1.07988
 C105 C -0.02609 0.37243 1.06678
 C106 C -0.08003 0.50041 0.84943
 C107 C -0.06316 0.47997 0.80438
 C108 C 0.03988 0.41821 0.85453
 C109 C 0.12807 0.37282 0.95332
 C110 C 0.11140 0.39276 0.99904
 H111 H 0.16771 0.49297 1.13759
 H112 H 0.25706 0.51342 1.11184
 H113 H 0.01909 0.67232 0.78091
 H114 H -0.07330 0.65387 0.80491
 H115 H 0.11625 0.35981 1.21762
 H116 H 0.10916 0.36823 1.32149
 H117 H -0.10998 0.71662 0.93854
 H118 H -0.21157 0.64901 0.89200
 H119 H -0.30100 0.62532 0.91626
 H120 H -0.04134 0.27901 1.13101
 H121 H 0.05073 0.30132 1.10924
 H122 H -0.16116 0.54992 0.80789
 H123 H -0.13199 0.51550 0.72797
 H124 H 0.20822 0.32498 0.99287
 H125 H 0.17979 0.35834 1.07447
 H126 H -0.11453 0.72380 1.04502
 C127 C 0.00637 -0.00824 0.47635
 C128 C -0.00913 0.00752 0.52353
 C129 C -0.06571 -0.00522 0.53556
 C130 C 0.01976 0.04595 0.55659
 C131 C 0.04330 0.02183 0.44140
 C132 C -0.00516 -0.06626 0.46619
 C133 C -0.17250 0.05654 0.43719
 C134 C -0.22694 0.04644 0.44664
 C135 C -0.17603 -0.02492 0.55430
 C136 C -0.06967 -0.08678 0.65315
 C137 C -0.01474 -0.07671 0.64373
 C138 C -0.05702 0.12904 0.52773
 C139 C -0.03821 0.17436 0.54762
 C140 C 0.05881 0.13617 0.59882
 C141 C 0.14048 0.04755 0.63598
 C142 C 0.12201 0.00121 0.61678
 C143 C 0.12556 -0.05456 0.46935
 C144 C 0.16988 -0.03494 0.44813
 C145 C 0.13150 0.06249 0.39654
 C146 C 0.04347 0.14398 0.35998
 C147 C -0.00197 0.12475 0.38039
 C148 C 0.05761 -0.17380 0.56572
 C149 C 0.04915 -0.22984 0.55810
 C150 C -0.02156 -0.17980 0.45111
 C151 C -0.08450 -0.07267 0.35111
 C152 C -0.07610 -0.01614 0.35868
 H153 H -0.21376 0.11286 0.35287
 H154 H -0.30945 0.09515 0.36945
 H155 H -0.02976 -0.14196 0.73680
 H156 H 0.06752 -0.12492 0.72056
 H157 H -0.13353 0.16138 0.48694
 H158 H -0.10149 0.24204 0.51952
 H159 H 0.18571 -0.06686 0.64560
 H160 H 0.15815 -0.13148 0.51058
 H161 H 0.23715 -0.09809 0.47581
 H162 H 0.01226 0.22045 0.31884
 H163 H -0.06960 0.18831 0.35202
 H164 H 0.11356 -0.21444 0.64955
 H165 H 0.09865 -0.31291 0.63617
 H166 H -0.13921 -0.03339 0.26795
 H167 H -0.12504 0.06664 0.28098
 H168 H 0.21666 0.01642 0.67688
 C169 C -0.28929 0.44216 1.03491
 C170 C -0.23380 0.44058 1.03515
 C171 C 0.27609 0.57043 0.95106
 C172 C 0.21275 0.58487 0.94384
 C173 C -0.02095 -0.30189 0.45534
 C174 C -0.02535 -0.24195 0.44774
 C175 C 0.06340 0.25622 0.59424
 C176 C 0.06666 0.19678 0.60174
 C177 C 0.53684 -0.00650 -0.31456
 C178 C 0.54359 -0.00842 -0.25601
 C179 C 0.42073 0.04606 0.26420
 C180 C 0.41627 0.04625 0.20741
 C181 C 0.43659 -0.28605 -0.03840
 C182 C 0.43476 -0.23059 -0.03842
 C183 C 0.57538 0.27011 0.05064
 C184 C 0.58980 0.20685 0.05770
 C185 C -0.29623 -0.02629 0.55208
 C186 C -0.23678 -0.03017 0.55924
 C187 C 0.25189 0.06654 0.40175
 C188 C 0.19203 0.07036 0.39360
 C189 C -0.00661 0.54299 1.31019
 C190 C -0.00813 0.54941 1.25200
 C191 C 0.04846 0.41773 0.73901
 C192 C 0.04877 0.41281 0.79602
   
