data_POSCAR
  _audit_creation_date              2014-09-24
  _audit_creation_method            'ToBaCCo'
  _symmetry_space_group_name_H-M    'P1'
  _symmetry_Int_Tables_number       1
  _symmetry_cell_setting            triclinic
  loop_
  _symmetry_equiv_pos_as_xyz
 x,y,z
_cell_length_a 37.8959
_cell_length_b 37.9343
_cell_length_c 12.0708
_cell_angle_alpha 90.113800
_cell_angle_beta 89.985300
_cell_angle_gamma 119.823300
loop_
  _atom_site_label
  _atom_site_type_symbol
  _atom_site_fract_x
  _atom_site_fract_y
  _atom_site_fract_z
C1 C 0.21827 0.50376 0.44240
 C2 C 0.21782 0.50213 0.56106
 C3 C 0.25185 0.50438 0.61546
 C4 C 0.28459 0.50443 0.56016
 C5 C 0.28288 0.50192 0.44199
 C6 C 0.25064 0.50299 0.38738
 H7 H 0.25042 0.50246 0.29853
 H8 H 0.25254 0.50538 0.70428
 C9 C 0.49603 -0.28458 0.44015
 C10 C 0.49737 -0.28356 0.55852
 C11 C 0.49524 -0.25194 0.61370
 C12 C 0.49499 -0.21938 0.55886
 C13 C 0.49737 -0.21853 0.44063
 C14 C 0.49664 -0.25157 0.38532
 H15 H 0.49727 -0.25115 0.29641
 H16 H 0.49450 -0.25240 0.70259
 C17 C 1.28576 0.78131 0.43595
 C18 C 1.28451 0.78185 0.55432
 C19 C 1.25237 0.74874 0.60914
 C20 C 1.21986 0.71629 0.55359
 C21 C 1.21927 0.71748 0.43561
 C22 C 1.25274 0.74913 0.38059
 H23 H 1.25267 0.74901 0.29165
 H24 H 1.25228 0.74854 0.69811
 C25 C 0.77994 0.49444 0.44539
 C26 C 0.78080 0.49623 0.56373
 C27 C 0.74724 0.49464 0.61878
 C28 C 0.71425 0.49412 0.56352
 C29 C 0.71535 0.49589 0.44519
 C30 C 0.74741 0.49464 0.39021
 H31 H 0.74741 0.49448 0.30124
 H32 H 0.74707 0.49444 0.70771
 C33 C 0.50391 0.28484 0.44565
 C34 C 0.50298 0.28448 0.56398
 C35 C 0.50429 0.25247 0.61905
 C36 C 0.50225 0.21871 0.56417
 C37 C 0.50318 0.21920 0.44576
 C38 C 0.50338 0.25192 0.39062
 H39 H 0.50136 0.25096 0.30171
 H40 H 0.50756 0.25419 0.70763
 C41 C 0.71737 0.21907 0.44178
 C42 C 0.71666 0.21962 0.55982
 C43 C 0.74898 0.25230 0.61568
 C44 C 0.78146 0.28522 0.56108
 C45 C 0.78211 0.28448 0.44267
 C46 C 0.74929 0.25226 0.38714
 H47 H 0.74834 0.25329 0.29835
 H48 H 0.74967 0.25108 0.70458
 O49 O 0.94358 0.41231 0.20380
 O50 O 0.89848 0.42054 0.09493
 C51 C 0.90706 0.40320 0.17436
 O52 O 1.05693 0.59196 0.19347
 O53 O 1.10193 0.58134 0.09091
 C54 C 1.09338 0.60042 0.16582
 O55 O 0.94275 0.53197 0.20092
 O56 O 0.89809 0.47759 0.09496
 C57 C 0.90634 0.50390 0.17327
 O58 O 1.05780 0.46636 0.19607
 O59 O 1.10249 0.52190 0.09398
 C60 C 1.09424 0.49467 0.16975
 Zr61 Zr 1.00061 0.45588 0.13789
 O62 O 1.00390 0.45401 0.31259
 O63 O 0.99934 0.39979 0.12244
 Zr64 Zr 0.99999 0.54525 0.13563
 O65 O 1.00371 0.55107 0.31021
 O66 O 0.99555 0.59862 0.12404
 O67 O 0.96452 0.48270 0.15923
 O68 O 1.03513 0.51807 0.15752
 O69 O 1.05704 0.46461 -0.19765
 O70 O 1.10191 0.52039 -0.09609
 C71 C 1.09345 0.49269 -0.17063
 O72 O 0.94265 0.53068 -0.20787
 O73 O 0.89806 0.47765 -0.09830
 C74 C 0.90626 0.50341 -0.17775
 O75 O 1.05709 0.59084 -0.20123
 O76 O 1.10212 0.58033 -0.09871
 C77 C 1.09365 0.59918 -0.17446
 O78 O 0.94291 0.41033 -0.20382
 O79 O 0.89819 0.42038 -0.09847
 C80 C 0.90647 0.40208 -0.17615
 Zr81 Zr 1.00014 0.45475 -0.14003
 O82 O 1.00362 0.45330 -0.31484
 O83 O 0.99671 0.39740 -0.13006
 Zr84 Zr 0.99997 0.54432 -0.14259
 O85 O 1.00353 0.54872 -0.31737
 O86 O 0.99554 0.59776 -0.13439
 Zr87 Zr 0.93981 0.46986 -0.00197
 Zr88 Zr 1.06084 0.53040 -0.00233
 O89 O 1.03490 0.51685 -0.16212
 O90 O 0.96418 0.48155 -0.16348
 O91 O 1.03721 0.46700 -0.00097
 O92 O 0.96423 0.53325 -0.00350
 O93 O 0.96461 0.43107 -0.00060
 O94 O 1.03674 0.56998 -0.00369
 H95 H 1.05260 0.52700 0.22442
 H96 H 0.94517 0.54402 -0.00365
 H97 H 1.05236 0.52531 -0.22896
 H98 H 0.94580 0.40131 -0.00011
 H99 H 1.02145 0.62030 0.09285
 H100 H 1.02135 0.61960 -0.10301
 H101 H 0.98556 0.52114 -0.34713
 H102 H 0.98415 0.46098 -0.34516
 H103 H 1.02075 0.40116 -0.08790
 H104 H 0.99879 0.39024 0.19908
 H105 H 0.98716 0.46509 0.34283
 H106 H 0.98582 0.52373 0.34123
 O107 O 0.58777 0.53085 0.20618
 O108 O 0.57954 0.47766 0.09670
 C109 C 0.59693 0.50348 0.17638
 O110 O 0.40807 0.46550 0.19514
 O111 O 0.41853 0.52092 0.09280
 C112 C 0.39956 0.49346 0.16771
 O113 O 0.46785 0.41095 0.20190
 O114 O 0.52235 0.42047 0.09649
 C115 C 0.49592 0.40247 0.17434
 O116 O 0.53349 0.59118 0.19889
 O117 O 0.47804 0.58063 0.09602
 C118 C 0.50526 0.59952 0.17199
 Zr119 Zr 0.54426 0.54461 0.14009
 O120 O 0.54546 0.54958 0.31480
 O121 O 0.60195 0.59796 0.13129
 Zr122 Zr 0.45477 0.45510 0.13730
 O123 O 0.44932 0.45335 0.31194
 O124 O 0.40128 0.39761 0.12591
 O125 O 0.51741 0.48187 0.16114
 O126 O 0.48200 0.51723 0.15945
 O127 O 0.53482 0.59177 -0.19602
 O128 O 0.47932 0.58144 -0.09372
 C129 C 0.50685 0.60034 -0.16858
 O130 O 0.46913 0.41212 -0.20648
 O131 O 0.52227 0.42037 -0.09680
 C132 C 0.49646 0.40293 -0.17642
 O133 O 0.40896 0.46668 -0.19995
 O134 O 0.41954 0.52213 -0.09701
 C135 C 0.40066 0.49495 -0.17308
 O136 O 0.58916 0.53161 -0.20278
 O137 O 0.57952 0.47737 -0.09657
 C138 C 0.59757 0.50357 -0.17474
 Zr139 Zr 0.54513 0.54506 -0.13805
 O140 O 0.54712 0.55051 -0.31266
 O141 O 0.60276 0.59839 -0.12648
 Zr142 Zr 0.45544 0.45578 -0.14085
 O143 O 0.45069 0.45455 -0.31560
 O144 O 0.40192 0.39823 -0.13226
 Zr145 Zr 0.53010 0.46985 -0.00018
 Zr146 Zr 0.46954 0.53056 -0.00042
 O147 O 0.48296 0.51796 -0.16025
 O148 O 0.51824 0.48245 -0.16165
 O149 O 0.53306 0.57007 0.00108
 O150 O 0.46665 0.43120 -0.00192
 O151 O 0.56891 0.53322 0.00132
 O152 O 0.42989 0.46712 -0.00196
 H153 H 0.47306 0.52582 0.22632
 H154 H 0.45585 0.40144 -0.00230
 H155 H 0.47445 0.52689 -0.22720
 H156 H 0.59869 0.54392 0.00175
 H157 H 0.37967 0.40185 0.09375
 H158 H 0.38000 0.40245 -0.10218
 H159 H 0.47829 0.46425 -0.34549
 H160 H 0.53790 0.52314 -0.34357
 H161 H 0.59853 0.62010 -0.09489
 H162 H 0.59781 0.61988 0.10112
 H163 H 0.53527 0.52197 0.34482
 H164 H 0.47662 0.46212 0.34283
 O165 O 0.53150 -0.05686 0.20283
 O166 O 0.47809 -0.10162 0.09405
 C167 C 0.50412 -0.09322 0.17312
 O168 O 0.46531 0.05742 0.19536
 O169 O 0.52117 0.10221 0.09432
 C170 C 0.49361 0.09382 0.16919
 O171 O 0.41110 -0.05695 0.20235
 O172 O 0.42070 -0.10167 0.09554
 C173 C 0.40270 -0.09339 0.17413
 O174 O 0.59148 0.05685 0.19686
 O175 O 0.58094 0.10177 0.09444
 C176 C 0.59992 0.09330 0.16980
 Zr177 Zr 0.54476 0.00018 0.13774
 O178 O 0.55030 0.00320 0.31239
 O179 O 0.59943 -0.00143 0.12085
 Zr180 Zr 0.45506 0.00028 0.13774
 O181 O 0.45395 0.00407 0.31253
 O182 O 0.39731 -0.00384 0.12851
 O183 O 0.48206 -0.03556 0.15983
 O184 O 0.51730 0.03504 0.15878
 O185 O 0.59206 0.05715 -0.19608
 O186 O 0.58066 0.10204 -0.09534
 C187 C 0.60002 0.09358 -0.16972
 O188 O 0.41185 -0.05663 -0.20650
 O189 O 0.42029 -0.10151 -0.09768
 C190 C 0.40278 -0.09304 -0.17686
 O191 O 0.46592 0.05743 -0.19934
 O192 O 0.52096 0.10218 -0.09535
 C193 C 0.49374 0.09384 -0.17126
 O194 O 0.53187 -0.05721 -0.20520
 O195 O 0.47751 -0.10178 -0.09938
 C196 C 0.50381 -0.09361 -0.17769
 Zr197 Zr 0.54493 0.00009 -0.14021
 O198 O 0.54947 0.00398 -0.31503
 O199 O 0.59867 -0.00387 -0.13210
 Zr200 Zr 0.45533 0.00037 -0.14048
 O201 O 0.45347 0.00389 -0.31506
 O202 O 0.39764 -0.00366 -0.13000
 Zr203 Zr 0.46991 -0.06008 -0.00164
 Zr204 Zr 0.53024 0.06084 -0.00084
 O205 O 0.51755 0.03505 -0.16088
 O206 O 0.48224 -0.03557 -0.16289
 O207 O 0.56991 0.03688 -0.00085
 O208 O 0.43103 -0.03535 -0.00164
 O209 O 0.53335 -0.03564 -0.00130
 O210 O 0.46671 0.03709 -0.00117
 H211 H 0.52605 0.05249 0.22576
 H212 H 0.40126 -0.05426 -0.00168
 H213 H 0.52639 0.05254 -0.22756
 H214 H 0.54427 -0.05457 -0.00148
 H215 H 0.40124 0.02169 0.09528
 H216 H 0.40186 0.02255 -0.10069
 H217 H 0.46444 -0.01290 -0.34562
 H218 H 0.52247 -0.01573 -0.34533
 H219 H 0.61890 0.01976 -0.08877
 H220 H 0.60853 -0.00228 0.19722
 H221 H 0.52254 -0.01295 0.34282
 H222 H 0.46211 -0.01503 0.34278
 C223 C 1.12313 0.48716 0.36229
 C224 C 1.14684 0.46395 0.34606
 C225 C 1.18673 0.50343 0.37286
 C226 C 1.16343 0.52683 0.38797
 C227 C 1.19210 0.51449 0.24736
 C228 C 1.15191 0.47492 0.22143
 C229 C 1.12857 0.49788 0.23855
 C230 C 1.16829 0.53740 0.26322
 H231 H 1.09418 0.47560 0.40876
 H232 H 1.13785 0.43315 0.37761
 H233 H 1.16787 0.55029 0.44945
 H234 H 1.21983 0.52715 0.19513
 H235 H 1.14722 0.45375 0.15213
 H236 H 1.17711 0.56764 0.22770
 C237 C 0.51218 0.63627 0.36406
 C238 C 0.53602 0.68302 0.34778
 C239 C 0.49664 0.68423 0.37144
 C240 C 0.47264 0.63772 0.38681
 C241 C 0.48635 0.67852 0.24549
 C242 C 0.52580 0.67708 0.22258
 C243 C 0.50219 0.63096 0.23981
 C244 C 0.46278 0.63196 0.26154
 H245 H 0.52312 0.61857 0.41169
 H246 H 0.56670 0.70446 0.38089
 H247 H 0.44885 0.61932 0.44790
 H248 H 0.47443 0.69394 0.19176
 H249 H 0.54752 0.69313 0.15423
 H250 H 0.43261 0.61088 0.22483
 C251 C 0.36565 -0.12409 0.36412
 C252 C 0.31889 -0.14617 0.34685
 C253 C 0.31712 -0.18711 0.36790
 C254 C 0.36364 -0.16543 0.38400
 C255 C 0.32287 -0.19099 0.24160
 C256 C 0.32496 -0.14972 0.22146
 C257 C 0.37109 -0.12803 0.23985
 C258 C 0.36946 -0.16881 0.25847
 H259 H 0.38360 -0.09574 0.41260
 H260 H 0.29747 -0.13682 0.38010
 H261 H 0.38190 -0.17168 0.44367
 H262 H 0.30718 -0.21782 0.18627
 H263 H 0.30926 -0.14317 0.15372
 H264 H 0.39031 -0.17806 0.22065
 C265 C 0.84941 0.52459 0.22362
 C266 C 0.80854 0.48531 0.24544
 C267 C 0.81311 0.49498 0.37164
 C268 C 0.85363 0.53427 0.34894
 C269 C 0.83549 0.47067 0.38555
 C270 C 0.83140 0.46140 0.26011
 C271 C 0.87179 0.50066 0.24007
 C272 C 0.87639 0.51013 0.36433
 H273 H 0.85524 0.54664 0.15606
 H274 H 0.78116 0.47401 0.19215
 H275 H 0.86274 0.56495 0.38194
 H276 H 0.82993 0.44640 0.44514
 H277 H 0.82231 0.43144 0.22194
 H278 H 0.90503 0.52085 0.41177
 C279 C 0.47429 0.32479 0.22396
 C280 C 0.51325 0.32234 0.24580
 C281 C 0.50364 0.31749 0.37194
 C282 C 0.46468 0.31959 0.34924
 C283 C 0.52862 0.36402 0.38602
 C284 C 0.53783 0.36897 0.26062
 C285 C 0.49888 0.37095 0.24060
 C286 C 0.48948 0.36632 0.36484
 H287 H 0.45210 0.30891 0.15629
 H288 H 0.52409 0.30571 0.19283
 H289 H 0.43389 0.29856 0.38212
 H290 H 0.55303 0.38235 0.44582
 H291 H 0.56790 0.38933 0.22262
 H292 H 0.47924 0.38466 0.41244
 C293 C 0.62595 0.13117 0.36075
 C294 C 0.66957 0.13894 0.38227
 C295 C 0.68597 0.18489 0.36845
 C296 C 0.64272 0.17741 0.34601
 C297 C 0.69165 0.18093 0.24225
 C298 C 0.67488 0.13486 0.25681
 C299 C 0.63183 0.12745 0.23636
 C300 C 0.64811 0.17312 0.22049
 H301 H 0.59819 0.11032 0.40806
 H302 H 0.67843 0.12310 0.44331
 H303 H 0.62935 0.19535 0.38013
 H304 H 0.71815 0.19976 0.18832
 H305 H 0.68804 0.11728 0.21891
 H306 H 0.63930 0.18702 0.15293
 C307 C 0.50568 0.13214 -0.36132
 C308 C 0.46991 0.14015 -0.38252
 C309 C 0.49943 0.18604 -0.36726
 C310 C 0.53511 0.17836 -0.34522
 C311 C 0.48963 0.18173 -0.24103
 C312 C 0.46046 0.13575 -0.25711
 C313 C 0.49602 0.12814 -0.23706
 C314 C 0.52530 0.17373 -0.21976
 H315 H 0.51256 0.11125 -0.40908
 H316 H 0.44513 0.12438 -0.44333
 H317 H 0.56638 0.19625 -0.37900
 H318 H 0.48171 0.20021 -0.18592
 H319 H 0.42976 0.11814 -0.21965
 H320 H 0.54790 0.18739 -0.15181
 C321 C 0.63070 0.46112 -0.25894
 C322 C 0.63649 0.47013 -0.38443
 C323 C 0.68300 0.49464 -0.36830
 C324 C 0.67727 0.48520 -0.24203
 C325 C 0.68131 0.53388 -0.34726
 C326 C 0.63456 0.50953 -0.36452
 C327 C 0.62915 0.50034 -0.24031
 C328 C 0.67526 0.52446 -0.22187
 H329 H 0.60982 0.43121 -0.22111
 H330 H 0.61822 0.44566 -0.44410
 H331 H 0.69289 0.47397 -0.18661
 H332 H 0.70277 0.56445 -0.38058
 H333 H 0.61660 0.52002 -0.41281
 H334 H 0.69095 0.54667 -0.15410
 C335 C 0.83081 0.36828 -0.25961
 C336 C 0.83416 0.36281 -0.38533
 C337 C 0.81297 0.31634 -0.37026
 C338 C 0.80910 0.32173 -0.24379
 C339 C 0.85418 0.31855 -0.34992
 C340 C 0.87578 0.36527 -0.36612
 C341 C 0.87188 0.37036 -0.24166
 C342 C 0.85067 0.32427 -0.22429
 H343 H 0.82129 0.38881 -0.22106
 H344 H 0.82753 0.38088 -0.44459
 H345 H 0.78229 0.30561 -0.18871
 H346 H 0.86378 0.29744 -0.38402
 H347 H 0.90405 0.38359 -0.41441
 H348 H 0.85758 0.30868 -0.15710
 C349 C 0.46157 -0.16897 -0.26290
 C350 C 0.47069 -0.16568 -0.38843
 C351 C 0.49534 -0.18767 -0.37262
 C352 C 0.48580 -0.19143 -0.24632
 C353 C 0.53452 -0.14686 -0.35122
 C354 C 0.51004 -0.12448 -0.36817
 C355 C 0.50073 -0.12833 -0.24391
 C356 C 0.52499 -0.15030 -0.22583
 H357 H 0.43157 -0.17801 -0.22510
 H358 H 0.44627 -0.17176 -0.44819
 H359 H 0.47463 -0.21821 -0.19103
 H360 H 0.56519 -0.13774 -0.38442
 H361 H 0.52048 -0.09611 -0.41631
 H362 H 0.54720 -0.14389 -0.15810
 C363 C 0.32312 0.47462 -0.22324
 C364 C 0.32180 0.51411 -0.24547
 C365 C 0.31594 0.50391 -0.37154
 C366 C 0.31706 0.46449 -0.34850
 C367 C 0.36250 0.52777 -0.38735
 C368 C 0.36838 0.53754 -0.26199
 C369 C 0.36927 0.49810 -0.24087
 C370 C 0.36385 0.48819 -0.36518
 H371 H 0.30705 0.45289 -0.15500
 H372 H 0.30662 0.52609 -0.19080
 H373 H 0.29550 0.43387 -0.38170
 H374 H 0.38093 0.55154 -0.44836
 H375 H 0.38955 0.56764 -0.22514
 H376 H 0.38147 0.47719 -0.41319
 C377 C 1.12319 0.63557 -0.36654
 C378 C 1.14581 0.68232 -0.35049
 C379 C 1.18644 0.68358 -0.37387
 C380 C 1.16418 0.63704 -0.38890
 C381 C 1.19112 0.67824 -0.24795
 C382 C 1.15019 0.67672 -0.22525
 C383 C 1.12796 0.63055 -0.24219
 C384 C 1.16843 0.63163 -0.26360
 H385 H 1.09464 0.61779 -0.41439
 H386 H 1.13645 0.70370 -0.38361
 H387 H 1.16968 0.61872 -0.45045
 H388 H 1.21852 0.69415 -0.19471
 H389 H 1.14443 0.69290 -0.15713
 H390 H 1.17772 0.61070 -0.22664
 C391 C 0.82607 0.47244 -0.22242
 C392 C 0.81851 0.50844 -0.24182
 C393 C 0.81346 0.49880 -0.36814
 C394 C 0.82061 0.46272 -0.34790
 C395 C 0.85941 0.52779 -0.38467
 C396 C 0.86455 0.53708 -0.25926
 C397 C 0.87168 0.50117 -0.24147
 C398 C 0.86687 0.49160 -0.36549
 H399 H 0.81260 0.44987 -0.15456
 H400 H 0.80061 0.51661 -0.18523
 H401 H 0.80195 0.43152 -0.38154
 H402 H 0.87535 0.55293 -0.44400
 H403 H 0.88279 0.56767 -0.22149
 H404 H 0.88729 0.48420 -0.41369
 C405 C 0.50835 0.37542 -0.36434
 C406 C 0.53710 0.35773 -0.34684
 C407 C 0.50086 0.31482 -0.36785
 C408 C 0.47200 0.33207 -0.38426
 C409 C 0.49112 0.31017 -0.24167
 C410 C 0.52729 0.35343 -0.22144
 C411 C 0.49870 0.37063 -0.24044
 C412 C 0.46263 0.32787 -0.25900
 H413 H 0.51591 0.40324 -0.41226
 H414 H 0.56832 0.37002 -0.38023
 H415 H 0.44686 0.32316 -0.44373
 H416 H 0.48278 0.28395 -0.18598
 H417 H 0.54979 0.36223 -0.15326
 H418 H 0.43201 0.31576 -0.22156
 C419 C 0.67760 0.14977 -0.22042
 C420 C 0.68295 0.14557 -0.34597
 C421 C 0.68425 0.18621 -0.36790
 C422 C 0.67916 0.19073 -0.24174
 C423 C 0.63768 0.16416 -0.38233
 C424 C 0.63615 0.12314 -0.36135
 C425 C 0.63140 0.12777 -0.23676
 C426 C 0.63251 0.16824 -0.25680
 H427 H 0.69380 0.14378 -0.15293
 H428 H 0.70426 0.13627 -0.38029
 H429 H 0.69519 0.21802 -0.18815
 H430 H 0.61936 0.16987 -0.44323
 H431 H 0.61817 0.09469 -0.40942
 H432 H 0.61166 0.17749 -0.21890
 C433 C 1.13148 0.50530 -0.36046
 C434 C 1.17777 0.53438 -0.34414
 C435 C 1.18513 0.49871 -0.36917
 C436 C 1.13917 0.46951 -0.38458
 C437 C 1.18085 0.48809 -0.24345
 C438 C 1.17318 0.52378 -0.21931
 C439 C 1.12754 0.49487 -0.23682
 C440 C 1.13478 0.45928 -0.25970
 H441 H 1.11065 0.51262 -0.40684
 H442 H 1.19586 0.56582 -0.37633
 H443 H 1.12322 0.44513 -0.44636
 H444 H 1.19905 0.47955 -0.18931
 H445 H 1.18696 0.54590 -0.15029
 H446 H 1.11699 0.42841 -0.22359
 C447 C 0.49431 0.62553 -0.35863
 C448 C 0.46513 0.64275 -0.34313
 C449 C 0.50081 0.68562 -0.36772
 C450 C 0.53010 0.66879 -0.38215
 C451 C 0.51117 0.69203 -0.24195
 C452 C 0.47551 0.64886 -0.21814
 C453 C 0.50456 0.63211 -0.23478
 C454 C 0.54015 0.67477 -0.25715
 H455 H 0.48704 0.59744 -0.40514
 H456 H 0.43369 0.62950 -0.37583
 H457 H 0.55452 0.67711 -0.44378
 H458 H 0.51936 0.71888 -0.18865
 H459 H 0.45325 0.64064 -0.14960
 H460 H 0.57100 0.68782 -0.22040
 C461 C 0.32807 -0.13370 -0.26177
 C462 C 0.33316 -0.13830 -0.38685
 C463 C 0.31582 -0.18433 -0.37188
 C464 C 0.31030 -0.17985 -0.24592
 C465 C 0.35866 -0.17789 -0.34896
 C466 C 0.37640 -0.13158 -0.36529
 C467 C 0.37075 -0.12724 -0.24153
 C468 C 0.35349 -0.17295 -0.22380
 H469 H 0.31566 -0.11535 -0.22448
 H470 H 0.32460 -0.12190 -0.44676
 H471 H 0.28365 -0.19806 -0.19187
 H472 H 0.37116 -0.19678 -0.38168
 H473 H 0.40449 -0.11134 -0.41221
 H474 H 0.36191 -0.18692 -0.15552
 C475 C 0.47368 -0.17313 0.21928
 C476 C 0.50994 -0.18009 0.24133
 C477 C 0.49995 -0.18458 0.36727
 C478 C 0.46359 -0.17805 0.34438
 C479 C 0.52851 -0.13855 0.38280
 C480 C 0.53819 -0.13396 0.25776
 C481 C 0.50198 -0.12744 0.23753
 C482 C 0.49202 -0.13174 0.36125
 H483 H 0.45133 -0.18706 0.15084
 H484 H 0.51846 -0.19823 0.18675
 H485 H 0.43226 -0.19689 0.37686
 H486 H 0.55340 -0.12218 0.44292
 H487 H 0.56887 -0.11565 0.22070
 H488 H 0.48410 -0.11148 0.40837
 C489 C 0.35064 0.52444 0.21803
 C490 C 0.30755 0.48857 0.24174
 C491 C 0.31387 0.49881 0.36766
 C492 C 0.35666 0.53471 0.34313
 C493 C 0.33107 0.46984 0.38151
 C494 C 0.32515 0.45989 0.25643
 C495 C 0.36772 0.49568 0.23407
 C496 C 0.37424 0.50584 0.35802
 H497 H 0.35872 0.54671 0.14974
 H498 H 0.28075 0.48020 0.18810
 H499 H 0.36970 0.56607 0.37609
 H500 H 0.32292 0.44545 0.44294
 H501 H 0.31231 0.42912 0.21935
 H502 H 0.40244 0.51330 0.40428
 C503 C 1.13466 0.67525 0.25241
 C504 C 1.13903 0.66994 0.37765
 C505 C 1.18499 0.68645 0.36265
 C506 C 1.18076 0.69216 0.23673
 C507 C 1.17767 0.64335 0.33973
 C508 C 1.13142 0.62646 0.35557
 C509 C 1.12746 0.63236 0.23149
 C510 C 1.17311 0.64875 0.21449
 H511 H 1.11684 0.68822 0.21515
 H512 H 1.12328 0.67875 0.43934
 H513 H 1.19932 0.71862 0.18254
 H514 H 1.19585 0.63018 0.37329
 H515 H 1.11067 0.59864 0.40268
 H516 H 1.18691 0.63999 0.14633
 C517 C 0.47285 0.15059 0.22211
 C518 C 0.46287 0.14576 0.34732
 C519 C 0.50226 0.18598 0.37181
 C520 C 0.51230 0.19114 0.24588
 C521 C 0.52635 0.16335 0.38502
 C522 C 0.48680 0.12274 0.36171
 C523 C 0.49658 0.12797 0.23743
 C524 C 0.53599 0.16804 0.25978
 H525 H 0.45102 0.14529 0.15417
 H526 H 0.43221 0.13657 0.38066
 H527 H 0.52398 0.21880 0.19391
 H528 H 0.55020 0.16839 0.44581
 H529 H 0.47596 0.09401 0.40849
 H530 H 0.56609 0.17715 0.22244
 C531 C 0.67169 0.53702 0.26169
 C532 C 0.66661 0.52743 0.38674
 C533 C 0.68394 0.49858 0.37154
 C534 C 0.68943 0.50849 0.24560
 C535 C 0.64107 0.46249 0.34843
 C536 C 0.62334 0.49121 0.36502
 C537 C 0.62897 0.50109 0.24128
 C538 C 0.64623 0.47251 0.22331
 H539 H 0.68415 0.56770 0.22465
 H540 H 0.67518 0.55238 0.44674
 H541 H 0.71607 0.51671 0.19146
 H542 H 0.62849 0.43116 0.38081
 H543 H 0.59527 0.48355 0.41210
 H544 H 0.63780 0.45012 0.15493
 C545 C 0.82706 0.35374 0.22158
 C546 C 0.82037 0.31068 0.24338
 C547 C 0.81591 0.31613 0.36944
 C548 C 0.82216 0.35886 0.34685
 C549 C 0.86206 0.33366 0.38436
 C550 C 0.86660 0.32862 0.25922
 C551 C 0.87288 0.37120 0.23928
 C552 C 0.86859 0.37679 0.36317
 H553 H 0.81291 0.36202 0.15340
 H554 H 0.80218 0.28399 0.18923
 H555 H 0.80320 0.37127 0.37971
 H556 H 0.87868 0.32526 0.44399
 H557 H 0.88503 0.31633 0.22182
 H558 H 0.88875 0.40486 0.41047
   
