data_POSCAR
  _audit_creation_date              2014-09-24
  _audit_creation_method            'ToBaCCo'
  _symmetry_space_group_name_H-M    'P1'
  _symmetry_Int_Tables_number       1
  _symmetry_cell_setting            triclinic
  loop_
  _symmetry_equiv_pos_as_xyz
 x,y,z
_cell_length_a 37.7148
_cell_length_b 36.4702
_cell_length_c 37.7086
_cell_angle_alpha 90.003700
_cell_angle_beta 90.009600
_cell_angle_gamma 90.005300
loop_
  _atom_site_label
  _atom_site_type_symbol
  _atom_site_fract_x
  _atom_site_fract_y
  _atom_site_fract_z
C1 C 0.59900 0.62426 0.65014
 C2 C 0.57252 0.65125 0.64925
 C3 C 0.57226 0.67789 0.62237
 C4 C 0.59882 0.67762 0.59630
 C5 C 0.62604 0.65142 0.59740
 C6 C 0.62611 0.62456 0.62439
 C7 C 0.59885 0.59710 0.67648
 C8 C 0.62632 0.57093 0.67849
 C9 C 0.65365 0.57197 0.65298
 C10 C 0.65330 0.59804 0.62563
 C11 C 0.67972 0.59800 0.59943
 C12 C 0.67986 0.62478 0.57271
 C13 C 0.65322 0.65164 0.57201
 H14 H 0.55181 0.65133 0.66920
 H15 H 0.59868 0.69831 0.57565
 H16 H 0.57772 0.59708 0.69597
 H17 H 0.67487 0.55193 0.65375
 H18 H 0.70051 0.57747 0.60007
 H19 H 0.65332 0.67224 0.55126
 C20 C 0.90019 0.37418 0.15092
 C21 C 0.92651 0.34701 0.15107
 C22 C 0.92850 0.32084 0.12359
 C23 C 0.90299 0.32191 0.09624
 C24 C 0.87566 0.34799 0.09660
 C25 C 0.87444 0.37451 0.12381
 C26 C 0.89930 0.40117 0.17742
 C27 C 0.87245 0.42782 0.17769
 C28 C 0.84639 0.42757 0.15111
 C29 C 0.84747 0.40138 0.12388
 C30 C 0.82208 0.40162 0.09669
 C31 C 0.82276 0.37476 0.07004
 C32 C 0.84947 0.34796 0.07017
 H33 H 0.94600 0.34697 0.17221
 H34 H 0.90375 0.30186 0.07502
 H35 H 0.91925 0.40123 0.19814
 H36 H 0.82574 0.44827 0.15126
 H37 H 0.80135 0.42222 0.09659
 H38 H 0.85008 0.32744 0.04937
 C39 C 0.40094 0.12427 -0.15012
 C40 C 0.42743 0.15127 -0.14921
 C41 C 0.42769 0.17790 -0.12233
 C42 C 0.40112 0.17763 -0.09627
 C43 C 0.37390 0.15143 -0.09737
 C44 C 0.37383 0.12457 -0.12437
 C45 C 0.40110 0.09711 -0.17645
 C46 C 0.37363 0.07093 -0.17847
 C47 C 0.34629 0.07197 -0.15296
 C48 C 0.34664 0.09805 -0.12561
 C49 C 0.32021 0.09799 -0.09943
 C50 C 0.32007 0.12478 -0.07271
 C51 C 0.34671 0.15164 -0.07199
 H52 H 0.44814 0.15135 -0.16916
 H53 H 0.40126 0.19832 -0.07561
 H54 H 0.42223 0.09709 -0.19595
 H55 H 0.32507 0.05192 -0.15374
 H56 H 0.29943 0.07746 -0.10007
 H57 H 0.34661 0.17223 -0.05124
 C58 C 0.09988 0.87413 0.34898
 C59 C 0.07356 0.84695 0.34884
 C60 C 0.07157 0.82080 0.37633
 C61 C 0.09708 0.82188 0.40368
 C62 C 0.12442 0.84796 0.40331
 C63 C 0.12564 0.87446 0.37610
 C64 C 0.10076 0.90111 0.32248
 C65 C 0.12762 0.92776 0.32221
 C66 C 0.15369 0.92752 0.34878
 C67 C 0.15261 0.90134 0.37602
 C68 C 0.17800 0.90159 0.40321
 C69 C 0.17732 0.87474 0.42986
 C70 C 0.15061 0.84795 0.42974
 H71 H 0.05407 0.84690 0.32771
 H72 H 0.09632 0.80185 0.42491
 H73 H 0.08081 0.90116 0.30177
 H74 H 0.17434 0.94822 0.34863
 H75 H 0.19874 0.92220 0.40330
 H76 H 0.14998 0.82744 0.45055
 N77 N 0.08177 0.18135 0.10745
 N78 N 0.07062 0.16908 0.13830
 C79 C 0.04277 0.18941 0.14896
 C80 C 0.03574 0.21507 0.12300
 C81 C 0.06077 0.20916 0.09695
 H82 H 0.02811 0.18542 0.17330
 H83 H 0.06397 0.22456 0.07265
 Cu84 Cu 0.09224 0.12627 0.16017
 Cu85 Cu 0.12409 0.16203 0.08452
 Cu86 Cu 0.16457 0.08719 0.12439
 N87 N 0.11432 0.08346 0.18154
 N88 N 0.14345 0.06920 0.16822
 C89 C 0.15367 0.04067 0.18847
 C90 C 0.12925 0.03651 0.21545
 C91 C 0.10456 0.06393 0.21024
 H92 H 0.17655 0.02358 0.18342
 H93 H 0.08139 0.06926 0.22632
 N94 N 0.18187 0.10939 0.07997
 N95 N 0.16722 0.13870 0.06553
 C96 C 0.18623 0.14857 0.03682
 C97 C 0.21362 0.12387 0.03269
 C98 C 0.21005 0.09931 0.06029
 H99 H 0.18049 0.17176 0.01992
 H100 H 0.22728 0.07636 0.06599
 H101 H 0.11861 0.10915 0.10351
 H102 H 0.14744 0.14078 0.12967
 N103 N 0.41832 0.81935 0.60648
 N104 N 0.43164 0.83362 0.63561
 C105 C 0.46036 0.81412 0.64537
 C106 C 0.46556 0.78668 0.62068
 C107 C 0.43857 0.79083 0.59626
 H108 H 0.47645 0.81946 0.66854
 H109 H 0.43351 0.77373 0.57338
 Cu110 Cu 0.41026 0.87643 0.65770
 Cu111 Cu 0.37448 0.83732 0.58535
 Cu112 Cu 0.33460 0.91215 0.62584
 N113 N 0.38838 0.91922 0.67933
 N114 N 0.35753 0.93147 0.66818
 C115 C 0.34702 0.95928 0.68919
 C116 C 0.37308 0.96520 0.71422
 C117 C 0.39905 0.93956 0.70719
 H118 H 0.32272 0.97467 0.68599
 H119 H 0.42340 0.93559 0.72183
 N120 N 0.31561 0.88882 0.58270
 N121 N 0.33006 0.85951 0.56805
 C122 C 0.31037 0.84939 0.53987
 C123 C 0.28276 0.87394 0.53631
 C124 C 0.28689 0.89864 0.56370
 H125 H 0.31605 0.82642 0.52266
 H126 H 0.26996 0.92182 0.56946
 H127 H 0.37975 0.89091 0.60248
 H128 H 0.35361 0.85927 0.63132
 N129 N 0.91828 0.68133 0.39258
 N130 N 0.92949 0.66895 0.36179
 C131 C 0.95735 0.68926 0.35110
 C132 C 0.96432 0.71502 0.37698
 C133 C 0.93924 0.70919 0.40302
 H134 H 0.97204 0.68520 0.32679
 H135 H 0.93600 0.72467 0.42727
 Cu136 Cu 0.90777 0.62608 0.34017
 Cu137 Cu 0.87590 0.66206 0.41555
 Cu138 Cu 0.83538 0.58714 0.37561
 N139 N 0.88577 0.58338 0.31852
 N140 N 0.85658 0.56916 0.33177
 C141 C 0.84634 0.54069 0.31145
 C142 C 0.87080 0.53652 0.28450
 C143 C 0.89554 0.56389 0.28979
 H144 H 0.82341 0.52364 0.31644
 H145 H 0.91875 0.56919 0.27376
 N146 N 0.81806 0.60940 0.42004
 N147 N 0.83272 0.63871 0.43450
 C148 C 0.81370 0.64857 0.46320
 C149 C 0.78631 0.62388 0.46731
 C150 C 0.78988 0.59931 0.43971
 H151 H 0.81945 0.67176 0.48012
 H152 H 0.77265 0.57635 0.43402
 H153 H 0.88119 0.60911 0.39675
 H154 H 0.85252 0.64072 0.37046
 N155 N 0.58167 0.31935 -0.10647
 N156 N 0.56833 0.33363 -0.13558
 C157 C 0.53960 0.31413 -0.14533
 C158 C 0.53441 0.28669 -0.12064
 C159 C 0.56141 0.29084 -0.09624
 H160 H 0.52350 0.31948 -0.16849
 H161 H 0.56648 0.27373 -0.07336
 Cu162 Cu 0.58970 0.37644 -0.15768
 Cu163 Cu 0.62552 0.33732 -0.08537
 Cu164 Cu 0.66541 0.41214 -0.12587
 N165 N 0.61158 0.41924 -0.17931
 N166 N 0.64245 0.43148 -0.16818
 C167 C 0.65295 0.45928 -0.18919
 C168 C 0.62687 0.46521 -0.21420
 C169 C 0.60090 0.43958 -0.20716
 H170 H 0.67727 0.47466 -0.18601
 H171 H 0.57655 0.43561 -0.22179
 N172 N 0.68442 0.38880 -0.08275
 N173 N 0.66997 0.35949 -0.06809
 C174 C 0.68967 0.34937 -0.03993
 C175 C 0.71729 0.37391 -0.03638
 C176 C 0.71316 0.39862 -0.06377
 H177 H 0.68398 0.32641 -0.02271
 H178 H 0.73008 0.42180 -0.06953
 H179 H 0.62027 0.39091 -0.10248
 H180 H 0.64636 0.35927 -0.13134
 N181 N -0.02455 0.28792 0.15288
 C182 C -0.04451 0.29418 0.12344
 N183 N -0.03768 0.27404 0.09384
 N184 N -0.01186 0.24911 0.09358
 C185 C 0.00766 0.24278 0.12314
 N186 N 0.00077 0.26245 0.15286
 N187 N 0.52898 0.71644 0.59084
 C188 C 0.54444 0.70621 0.62182
 N189 N 0.53387 0.72261 0.65237
 N190 N 0.50894 0.74847 0.65193
 C191 C 0.49330 0.75848 0.62100
 N192 N 0.50365 0.74192 0.59047
 N193 N 1.03775 0.77402 0.40610
 C194 C 1.04457 0.79414 0.37650
 N195 N 1.02461 0.78785 0.34706
 N196 N 0.99929 0.76238 0.34710
 C197 C 0.99240 0.74273 0.37682
 N198 N 1.01193 0.74909 0.40638
 N199 N 0.47098 0.21646 -0.09080
 C200 C 0.45551 0.20623 -0.12178
 N201 N 0.46607 0.22263 -0.15233
 N202 N 0.49100 0.24849 -0.15189
 C203 C 0.50666 0.25850 -0.12096
 N204 N 0.49632 0.24193 -0.09043
 N205 N 0.15912 -0.03369 0.27891
 C206 C 0.12815 -0.04393 0.29437
 N207 N 0.09760 -0.02756 0.28380
 N208 N 0.09802 -0.00170 0.25885
 C209 C 0.12894 0.00831 0.24320
 N210 N 0.15947 -0.00822 0.25356
 N211 N 0.59702 0.53804 -0.27454
 C212 C 0.62646 0.54428 -0.29451
 N213 N 0.65604 0.52414 -0.28766
 N214 N 0.65630 0.49923 -0.26183
 C215 C 0.62674 0.49291 -0.24230
 N216 N 0.59704 0.51259 -0.24921
 N217 N 0.34391 1.02413 0.78767
 C218 C 0.37349 1.04428 0.79453
 N219 N 0.40293 1.03804 0.77457
 N220 N 0.40292 1.01258 0.74923
 C221 C 0.37321 0.99290 0.74232
 N222 N 0.34365 0.99922 0.76184
 N223 N 0.84093 0.46640 0.22096
 C224 C 0.87191 0.45613 0.20553
 N225 N 0.90247 0.47247 0.21616
 N226 N 0.90204 0.49831 0.24112
 C227 C 0.87111 0.50835 0.25673
 N228 N 0.84057 0.49185 0.24631
 N229 N 0.27594 0.15616 -0.03556
 C230 C 0.29219 0.12454 -0.04541
 N231 N 0.28243 0.09269 -0.02953
 N232 N 0.25752 0.09251 -0.00447
 C233 C 0.24110 0.12408 0.00518
 N234 N 0.25064 0.15588 -0.01091
 N235 N 0.71748 0.59269 0.52952
 C236 C 0.70772 0.62454 0.54540
 N237 N 0.72398 0.65616 0.53556
 N238 N 0.74929 0.65589 0.51091
 C239 C 0.75882 0.62408 0.49482
 N240 N 0.74239 0.59251 0.50446
 N241 N 0.78560 0.40616 0.02593
 C242 C 0.79544 0.37453 0.04218
 N243 N 0.77953 0.34269 0.03241
 N244 N 0.75447 0.34252 0.00751
 C245 C 0.74483 0.37410 -0.00891
 N246 N 0.76093 0.40590 0.00063
 N247 N 0.21448 0.90616 0.47397
 C248 C 0.20464 0.87453 0.45773
 N249 N 0.22054 0.84269 0.46750
 N250 N 0.24560 0.84254 0.49240
 C251 C 0.25523 0.87412 0.50882
 N252 N 0.23914 0.90591 0.49928
   
