data_POSCAR
  _audit_creation_date              2014-09-24
  _audit_creation_method            'ToBaCCo'
  _symmetry_space_group_name_H-M    'P1'
  _symmetry_Int_Tables_number       1
  _symmetry_cell_setting            triclinic
  loop_
  _symmetry_equiv_pos_as_xyz
 x,y,z
_cell_length_a 28.9531
_cell_length_b 17.9391
_cell_length_c 17.9381
_cell_angle_alpha 89.768700
_cell_angle_beta 90.141000
_cell_angle_gamma 89.853600
loop_
  _atom_site_label
  _atom_site_type_symbol
  _atom_site_fract_x
  _atom_site_fract_y
  _atom_site_fract_z
O1 O 0.06490 0.12515 0.13844
 O2 O 0.11591 0.05961 0.06575
 C3 C 0.10629 0.10641 0.11827
 O4 O -0.06344 -0.14126 0.12831
 O5 O -0.11460 -0.06904 0.06154
 C6 C -0.10488 -0.12149 0.10886
 O7 O 0.06554 -0.13355 0.13622
 O8 O 0.11614 -0.06587 0.06478
 C9 C 0.10689 -0.11411 0.11653
 O10 O -0.06410 0.13281 0.13090
 O11 O -0.11489 0.06190 0.06319
 C12 C -0.10545 0.11333 0.11128
 Zr13 Zr 0.00045 0.08987 0.09539
 O14 O -0.00173 0.07964 0.21274
 O15 O 0.00489 0.20751 0.10026
 Zr16 Zr 0.00095 -0.09790 0.09305
 O17 O -0.00335 -0.09871 0.21082
 O18 O 0.00649 -0.21559 0.09099
 O19 O 0.04208 -0.00404 0.10848
 O20 O -0.03975 -0.00423 0.10763
 O21 O -0.06414 0.13681 -0.12791
 O22 O -0.11495 0.06396 -0.06201
 C23 C -0.10547 0.11679 -0.10887
 O24 O 0.06510 -0.12921 -0.13882
 O25 O 0.11612 -0.06476 -0.06497
 C26 C 0.10650 -0.11095 -0.11809
 O27 O -0.06449 -0.13622 -0.13133
 O28 O -0.11555 -0.06595 -0.06300
 C29 C -0.10595 -0.11690 -0.11160
 O30 O 0.06523 0.12882 -0.13498
 O31 O 0.11643 0.06073 -0.06389
 C32 C 0.10672 0.10929 -0.11527
 Zr33 Zr 0.00046 0.09275 -0.09330
 O34 O -0.00194 0.08655 -0.21087
 O35 O 0.00500 0.21048 -0.09574
 Zr36 Zr 0.00053 -0.09507 -0.09520
 O37 O -0.00397 -0.09349 -0.21296
 O38 O 0.00591 -0.21282 -0.09532
 Zr39 Zr 0.06959 -0.00226 -0.00013
 Zr40 Zr -0.06849 -0.00257 -0.00021
 O41 O -0.03991 -0.00083 -0.10791
 O42 O 0.04178 -0.00086 -0.10872
 O43 O -0.04071 0.10597 0.00109
 O44 O 0.04101 -0.11003 -0.00124
 O45 O 0.04050 0.10525 0.00125
 O46 O -0.04049 -0.11124 -0.00127
 H47 H -0.06062 -0.00490 0.15133
 H48 H 0.06195 -0.15380 -0.00159
 H49 H -0.06084 -0.00007 -0.15170
 H50 H 0.06109 0.14928 0.00171
 H51 H -0.01925 -0.23462 0.06020
 H52 H -0.02070 -0.23273 -0.06716
 H53 H 0.01699 -0.05381 -0.23084
 H54 H -0.00169 0.13873 -0.22922
 H55 H -0.01821 0.22989 -0.06041
 H56 H -0.01855 0.22790 0.06552
 H57 H -0.00176 0.13116 0.23245
 H58 H 0.01850 -0.06072 0.22945
 O59 O 0.56440 0.63072 0.63277
 O60 O 0.61543 0.56270 0.56249
 C61 C 0.60582 0.61105 0.61361
 O62 O 0.43554 0.36441 0.62980
 O63 O 0.38440 0.43527 0.56153
 C64 C 0.39408 0.38398 0.61019
 O65 O 0.56454 0.37194 0.63746
 O66 O 0.61549 0.43763 0.56468
 C67 C 0.60591 0.39085 0.61753
 O68 O 0.43520 0.63784 0.62493
 O69 O 0.38412 0.56449 0.56016
 C70 C 0.39379 0.61731 0.60662
 Zr71 Zr 0.49982 0.59500 0.58992
 O72 O 0.49526 0.60017 0.70755
 O73 O 0.50195 0.71236 0.57978
 Zr74 Zr 0.49996 0.40652 0.59325
 O75 O 0.49535 0.40446 0.71099
 O76 O 0.50238 0.28895 0.58696
 O77 O 0.54105 0.50088 0.60650
 O78 O 0.45980 0.50102 0.60533
 O79 O 0.43518 0.63577 0.36654
 O80 O 0.38424 0.56472 0.43415
 C81 C 0.39378 0.61635 0.38593
 O82 O 0.56428 0.36817 0.36289
 O83 O 0.61537 0.43575 0.43366
 C84 C 0.60573 0.38754 0.38235
 O85 O 0.43536 0.36060 0.37098
 O86 O 0.38431 0.43356 0.43631
 C87 C 0.39396 0.38079 0.38975
 O88 O 0.56414 0.62712 0.35883
 O89 O 0.61527 0.56089 0.43171
 C90 C 0.60557 0.60793 0.37897
 Zr91 Zr 0.49973 0.59198 0.40207
 O92 O 0.49730 0.58243 0.28474
 O93 O 0.50349 0.70968 0.39722
 Zr94 Zr 0.49982 0.40412 0.40564
 O95 O 0.49534 0.40328 0.28786
 O96 O 0.50430 0.28636 0.40891
 Zr97 Zr 0.56904 0.49931 0.49810
 Zr98 Zr 0.43069 0.49972 0.49777
 O99 O 0.45929 0.49807 0.39013
 O100 O 0.54109 0.49782 0.38957
 O101 O 0.45845 0.60811 0.49577
 O102 O 0.54041 0.39165 0.49983
 O103 O 0.54019 0.60701 0.49591
 O104 O 0.45852 0.39111 0.49971
 H105 H 0.43929 0.50150 0.64947
 H106 H 0.56136 0.34789 0.50055
 H107 H 0.43831 0.49760 0.34641
 H108 H 0.56096 0.65082 0.49511
 H109 H 0.50246 0.27056 0.63913
 H110 H 0.48217 0.26878 0.44705
 H111 H 0.51690 0.44166 0.26904
 H112 H 0.49715 0.63408 0.26492
 H113 H 0.48478 0.72894 0.43905
 H114 H 0.50181 0.73202 0.63132
 H115 H 0.51883 0.56574 0.72809
 H116 H 0.51862 0.43973 0.73034
 C117 C 0.21431 0.20520 0.22424
 N118 N 0.20693 0.25175 0.28242
 N119 N 0.24232 0.28544 0.31574
 C120 C 0.28612 0.27358 0.29186
 N121 N 0.29350 0.22699 0.23372
 N122 N 0.25811 0.19329 0.20040
 C123 C 0.17620 0.16996 0.18754
 C124 C 0.14422 0.14075 0.15618
 C125 C 0.32412 0.31082 0.32683
 C126 C 0.35604 0.34255 0.35578
 C127 C 0.78665 0.77242 0.20622
 N128 N 0.74280 0.79085 0.18665
 N129 N 0.70705 0.75782 0.21960
 C130 C 0.71410 0.70537 0.27311
 N131 N 0.75795 0.68690 0.29265
 N132 N 0.79370 0.71993 0.25969
 C133 C 0.82507 0.80897 0.17170
 C134 C 0.85720 0.84034 0.14294
 C135 C 0.67567 0.67080 0.30957
 C136 C 0.64352 0.64201 0.34087
 C137 C 0.78620 0.22423 0.79313
 N138 N 0.79356 0.27914 0.74238
 N139 N 0.75802 0.31277 0.70885
 C140 C 0.71408 0.29249 0.72508
 N141 N 0.70672 0.23763 0.77587
 N142 N 0.74225 0.20400 0.80941
 C143 C 0.82443 0.18704 0.82811
 C144 C 0.85650 0.15524 0.85709
 C145 C 0.67590 0.32762 0.68790
 C146 C 0.64387 0.35671 0.65608
 C147 C 0.21443 0.79097 0.77509
 N148 N 0.20708 0.74742 0.71462
 N149 N 0.24240 0.71407 0.68076
 C150 C 0.28611 0.72330 0.70638
 N151 N 0.29347 0.76689 0.76682
 N152 N 0.25815 0.80024 0.80067
 C153 C 0.17639 0.82592 0.81223
 C154 C 0.14444 0.85493 0.84385
 C155 C 0.32403 0.68647 0.67073
 C156 C 0.35590 0.65510 0.64122
 C157 C 0.21473 0.21041 0.78003
 N158 N 0.21319 0.22486 0.70577
 N159 N 0.24848 0.25856 0.67210
 C160 C 0.28638 0.27882 0.71166
 N161 N 0.28792 0.26434 0.78590
 N162 N 0.25263 0.23065 0.81956
 C163 C 0.17662 0.17455 0.81647
 C164 C 0.14466 0.14465 0.84744
 C165 C 0.32429 0.31557 0.67557
 C166 C 0.35616 0.34667 0.64556
 C167 C 0.78598 0.77849 0.78739
 N168 N 0.74315 0.78095 0.81779
 N169 N 0.70773 0.74761 0.78412
 C170 C 0.71406 0.71080 0.71901
 N171 N 0.75689 0.70832 0.68864
 N172 N 0.79230 0.74165 0.72231
 C173 C 0.82406 0.81500 0.82327
 C174 C 0.85604 0.84594 0.85313
 C175 C 0.67585 0.67546 0.68233
 C176 C 0.64382 0.64596 0.65116
 C177 C 0.21251 0.78964 0.21808
 N178 N 0.20707 0.75502 0.28484
 N179 N 0.24283 0.72176 0.31821
 C180 C 0.28513 0.72210 0.28585
 N181 N 0.29057 0.75675 0.21911
 N182 N 0.25481 0.79002 0.18575
 C183 C 0.17391 0.82483 0.18168
 C184 C 0.14161 0.85422 0.15061
 C185 C 0.32353 0.68543 0.32133
 C186 C 0.35569 0.65418 0.35091
 C187 C 0.78597 0.21858 0.21027
 N188 N 0.79173 0.28541 0.24413
 N189 N 0.75621 0.31903 0.27728
 C190 C 0.71386 0.28686 0.27755
 N191 N 0.70811 0.22006 0.24366
 N192 N 0.74362 0.18644 0.21052
 C193 C 0.82431 0.18196 0.17519
 C194 C 0.85644 0.15083 0.14593
 C195 C 0.67571 0.32264 0.31399
 C196 C 0.64371 0.35241 0.34498
   
