data_POSCAR
  _audit_creation_date              2014-09-24
  _audit_creation_method            'ToBaCCo'
  _symmetry_space_group_name_H-M    'P1'
  _symmetry_Int_Tables_number       1
  _symmetry_cell_setting            triclinic
  loop_
  _symmetry_equiv_pos_as_xyz
 x,y,z
_cell_length_a 19.9191
_cell_length_b 19.9255
_cell_length_c 47.0185
_cell_angle_alpha 91.674000
_cell_angle_beta 98.855300
_cell_angle_gamma 120.669000
loop_
  _atom_site_label
  _atom_site_type_symbol
  _atom_site_fract_x
  _atom_site_fract_y
  _atom_site_fract_z
Si1 Si 0.09460 0.08358 0.51035
 Si2 Si 0.97422 -0.10785 0.16120
 Si3 Si -0.07445 1.02226 0.82668
 O4 O 0.54756 0.04174 -0.02509
 O5 O 0.41761 0.00520 0.02801
 O6 O 0.55276 0.01448 0.02830
 O7 O 0.42203 0.05207 -0.02313
 O8 O 0.35017 -0.07335 -0.04123
 O9 O 0.48343 -0.11126 0.01066
 O10 O 0.34691 -0.12051 0.01043
 O11 O 0.47466 -0.08393 -0.04278
 Cu12 Cu 0.49168 0.04079 0.00367
 Cu13 Cu 0.40633 -0.10979 -0.01738
 C14 C 0.53389 -0.01559 -0.04271
 C15 C 0.35995 -0.06433 0.02829
 C16 C 0.54186 -0.05399 0.02808
 C17 C 0.36380 -0.00348 -0.04086
 O18 O -0.07322 0.45167 0.68213
 O19 O -0.02295 0.60417 0.63266
 O20 O -0.03256 0.46966 0.63241
 O21 O -0.08113 0.57979 0.68048
 O22 O 0.04183 0.64206 0.70577
 O23 O 0.09218 0.53450 0.65607
 O24 O 0.10000 0.67082 0.65795
 O25 O 0.05149 0.51731 0.70582
 Cu26 Cu -0.06496 0.52057 0.65469
 Cu27 Cu 0.08386 0.59844 0.68365
 C28 C -0.01835 0.45752 0.70192
 C29 C 0.04768 0.66350 0.63689
 C30 C 0.03733 0.48178 0.63625
 C31 C -0.02881 0.62872 0.70155
 O32 O 0.57146 0.55693 0.30229
 O33 O 0.45628 0.46983 0.35958
 O34 O 0.58490 0.60327 0.35633
 O35 O 0.43383 0.43359 0.30420
 O36 O 0.49844 0.37186 0.31471
 O37 O 0.64890 0.54181 0.36881
 O38 O 0.52079 0.40788 0.36985
 O39 O 0.63805 0.49780 0.31406
 Cu40 Cu 0.50551 0.52220 0.32954
 Cu41 Cu 0.58356 0.44923 0.34278
 C42 C 0.62482 0.54224 0.29847
 C43 C 0.46803 0.42255 0.37414
 C44 C 0.64201 0.60165 0.37172
 C45 C 0.43917 0.37331 0.30071
 C46 C 0.08232 0.26698 0.56896
 C47 C 0.15604 0.27472 0.56787
 C48 C 0.15843 0.21790 0.55083
 C49 C 0.08808 0.15377 0.53481
 C50 C 0.01573 0.14784 0.53622
 N51 N 0.01467 0.20395 0.55302
 C52 C 0.07555 0.32609 0.58617
 N53 N 0.00651 0.32608 0.58016
 C54 C -0.00580 0.37672 0.59522
 C55 C 0.05341 0.43163 0.61813
 C56 C 0.12544 0.43341 0.62461
 C57 C 0.13668 0.38068 0.60883
 H58 H 0.21550 0.22475 0.54974
 H59 H -0.03963 0.09954 0.52379
 H60 H -0.06244 0.37303 0.58951
 H61 H 0.17224 0.47405 0.64238
 H62 H 0.21163 0.32467 0.57930
 H63 H 0.19178 0.38178 0.61505
 C64 C 0.81445 0.69826 0.21369
 C65 C 0.89046 0.71095 0.21284
 C66 C 0.93704 0.76429 0.19514
 C67 C 0.90838 0.80506 0.17863
 C68 C 0.83051 0.78673 0.17870
 N69 N 0.78688 0.73561 0.19618
 C70 C 0.76529 0.65229 0.23466
 N71 N 0.70327 0.66074 0.23820
 C72 C 0.65710 0.62529 0.25791
 C73 C 0.67243 0.57794 0.27593
 C74 C 0.73491 0.56664 0.27233
 C75 C 0.78138 0.60352 0.25174
 H76 H 0.99649 0.77602 0.19535
 H77 H 0.80512 0.81584 0.16621
 H78 H 0.60921 0.63519 0.25969
 H79 H 0.74845 0.53000 0.28563
 H80 H 0.91569 0.68345 0.22648
 H81 H 0.82898 0.59370 0.24950
 C82 C 0.14630 0.05337 -0.11558
 C83 C 0.09692 0.07172 -0.10327
 C84 C 0.03225 0.06847 -0.12108
 C85 C 0.01786 0.04886 -0.15118
 C86 C 0.07224 0.03671 -0.16281
 N87 N 0.13302 0.03710 -0.14492
 C88 C 0.20671 0.04345 -0.09707
 N89 N 0.21364 -0.01932 -0.10400
 C90 C 0.26371 -0.03532 -0.08662
 C91 C 0.31090 0.01381 -0.06067
 C92 C 0.30616 0.08002 -0.05358
 C93 C 0.25374 0.09466 -0.07157
 H94 H -0.00792 0.07778 -0.11091
 H95 H 0.06335 0.02144 -0.18593
 H96 H 0.26639 -0.08639 -0.09301
 H97 H 0.34165 0.11950 -0.03377
 H98 H 0.10510 0.08345 -0.07997
 H99 H 0.24983 0.14528 -0.06560
 C100 C 0.12503 0.90859 0.56392
 C101 C 0.11874 0.89942 0.53373
 C102 C 0.12055 0.95814 0.51777
 C103 C 0.12747 1.02493 0.53184
 C104 C 0.14033 1.03488 0.56220
 N105 N 0.13808 0.97685 0.57730
 C106 C 0.10931 0.84317 0.58118
 N107 N 0.14898 0.85922 0.60913
 C108 C 0.13176 0.80244 0.62698
 C109 C 0.06928 0.72476 0.61724
 C110 C 0.02742 0.70696 0.58854
 C111 C 0.04774 0.76578 0.57037
 H112 H 0.11005 0.94843 0.49431
 H113 H 0.14613 1.08562 0.57390
 H114 H 0.16524 0.81852 0.64902
 H115 H -0.02104 0.64770 0.58022
 H116 H 0.10914 0.84612 0.52250
 H117 H 0.01344 0.75149 0.54851
 C118 C 0.17436 0.10244 0.22745
 C119 C 0.14795 0.02523 0.23342
 C120 C 0.08429 -0.03757 0.21442
 C121 C 0.04571 -0.02407 0.18979
 C122 C 0.07192 0.05391 0.18508
 N123 N 0.13476 0.11443 0.20377
 C124 C 0.24451 0.17101 0.24605
 N125 N 0.24978 0.24187 0.24699
 C126 C 0.31205 0.30726 0.26372
 C127 C 0.37434 0.30375 0.28083
 C128 C 0.37126 0.23183 0.27960
 C129 C 0.30664 0.16546 0.26224
 H130 H 0.06720 -0.09645 0.21876
 H131 H 0.04515 0.06694 0.16594
 H132 H 0.31226 0.36170 0.26385
 H133 H 0.41818 0.22658 0.29231
 H134 H 0.17624 0.01304 0.25240
 H135 H 0.30615 0.11090 0.26137
 C136 C 0.75224 0.01661 -0.11617
 C137 C 0.81618 0.08864 -0.12092
 C138 C 0.86770 0.08895 -0.13788
 C139 C 0.85560 0.01816 -0.15044
 C140 C 0.79030 -0.05256 -0.14597
 N141 N 0.74097 -0.05161 -0.12907
 C142 C 0.69638 0.01249 -0.09774
 N143 N 0.62533 -0.05600 -0.09992
 C144 C 0.57184 -0.06546 -0.08323
 C145 C 0.58874 -0.00372 -0.06261
 C146 C 0.66126 0.06760 -0.06009
 C147 C 0.71529 0.07587 -0.07743
 H148 H 0.91706 0.14478 -0.14131
 H149 H 0.77867 -0.10826 -0.15568
 H150 H 0.51671 -0.12167 -0.08584
 H151 H 0.67723 0.11636 -0.04419
 H152 H 0.82636 0.14447 -0.11215
 H153 H 0.77184 0.13067 -0.07410
 C154 C 0.14426 -0.11190 0.10471
 C155 C 0.09586 -0.18115 0.11644
 C156 C 0.04360 -0.18218 0.13358
 C157 C 0.04003 -0.11465 0.13881
 C158 C 0.08865 -0.04749 0.12655
 N159 N 0.13896 -0.04765 0.11027
 C160 C 0.20155 -0.10450 0.08655
 N161 N 0.26165 -0.03084 0.08427
 C162 C 0.31402 -0.01701 0.06660
 C163 C 0.30670 -0.07957 0.04919
 C164 C 0.24573 -0.15636 0.05135
 C165 C 0.19316 -0.16914 0.07004
 H166 H 0.00640 -0.23516 0.14264
 H167 H 0.08688 0.00549 0.12985
 H168 H 0.35999 0.04311 0.06569
 H169 H 0.23782 -0.20641 0.03825
 H170 H 0.09905 -0.23324 0.11288
 H171 H 0.14518 -0.22847 0.07067
 C172 C 0.86988 0.87433 0.45260
 C173 C 0.87959 0.87701 0.48289
 C174 C 0.94304 0.94403 0.50036
 C175 C 0.99730 1.00721 0.48767
 C176 C 0.98317 1.00373 0.45738
 N177 N 0.92062 0.93821 0.44081
 C178 C 0.80872 0.80255 0.43311
 N179 N 0.77068 0.80942 0.40777
 C180 C 0.71682 0.74596 0.38813
 C181 C 0.70055 0.67042 0.39308
 C182 C 0.73994 0.66203 0.41885
 C183 C 0.79347 0.72792 0.43909
 H184 H 0.95246 0.94458 0.52370
 H185 H 1.02357 1.05086 0.44666
 H186 H 0.68786 0.75476 0.36840
 H187 H 0.72869 0.60461 0.42342
 H188 H 0.83962 0.82733 0.49287
 H189 H 0.82429 0.72093 0.45877
 C190 C -0.06273 0.20541 0.76871
 C191 C -0.13620 0.13742 0.76943
 C192 C -0.13849 0.08068 0.78654
 C193 C -0.06818 0.09126 0.80305
 C194 C 0.00402 0.15968 0.80188
 N195 N 0.00483 0.21431 0.78501
 C196 C -0.05615 0.26912 0.75158
 N197 N 0.01248 0.34067 0.75785
 C198 C 0.02462 0.40198 0.74294
 C199 C -0.03435 0.39323 0.71990
 C200 C -0.10596 0.32033 0.71313
 C201 C -0.11702 0.25811 0.72878
 H202 H -0.19568 0.02910 0.78729
 H203 H 0.05956 0.17067 0.81458
 H204 H 0.08095 0.45709 0.74886
 H205 H -0.15253 0.31070 0.69526
 H206 H -0.19180 0.12842 0.75769
 H207 H -0.17178 0.20196 0.72234
 C208 C 0.78442 -0.08341 0.09975
 C209 C 0.81148 -0.13115 0.09019
 C210 C 0.87180 -0.13437 0.10828
 C211 C 0.90613 -0.08941 0.13560
 C212 C 0.87904 -0.04100 0.14419
 N213 N 0.81971 -0.03905 0.12624
 C214 C 0.71892 -0.07974 0.08171
 N215 N 0.71649 -0.01304 0.08507
 C216 C 0.65932 -0.00459 0.06880
 C217 C 0.59969 -0.06573 0.04761
 C218 C 0.59949 -0.13600 0.04442
 C219 C 0.65886 -0.14329 0.06141
 H220 H 0.89028 -0.17355 0.10115
 H221 H 0.90242 -0.00743 0.16552
 H222 H 0.66134 0.05043 0.07217
 H223 H 0.55441 -0.18473 0.02846
 H224 H 0.78654 -0.16576 0.06904
 H225 H 0.65717 -0.19827 0.05872
 C226 C 0.26379 0.24699 0.45232
 C227 C 0.19362 0.24601 0.45430
 C228 C 0.14372 0.19642 0.47175
 C229 C 0.16234 0.14679 0.48685
 C230 C 0.23233 0.14874 0.48442
 N231 N 0.28061 0.19799 0.46732
 C232 C 0.31822 0.29702 0.43343
 N233 N 0.37157 0.27952 0.42613
 C234 C 0.42132 0.32017 0.40801
 C235 C 0.41855 0.38228 0.39566
 C236 C 0.36562 0.40284 0.40341
 C237 C 0.31597 0.36100 0.42243
 H238 H 0.08994 0.19632 0.47327
 H239 H 0.24865 0.11144 0.49601
 H240 H 0.46159 0.30254 0.40275
 H241 H 0.36231 0.45100 0.39469
 H242 H 0.17585 0.28153 0.44221
 H243 H 0.27687 0.37931 0.42830
 C244 C -0.10511 0.80690 0.77399
 C245 C -0.09890 0.80914 0.80419
 C246 C -0.10040 0.86887 0.81985
 C247 C -0.10679 0.92659 0.80550
 C248 C -0.11946 0.91841 0.77511
 N249 N -0.11762 0.85994 0.76032
 C250 C -0.08999 0.75424 0.75698
 N251 N -0.12964 0.72575 0.72903
 C252 C -0.11269 0.68359 0.71131
 C253 C -0.05041 0.67076 0.72116
 C254 C -0.00864 0.69972 0.74986
 C255 C -0.02875 0.74078 0.76792
 H256 H -0.09010 0.87362 0.84332
 H257 H -0.12490 0.96138 0.76313
 H258 H -0.14612 0.66239 0.68926
 H259 H 0.03967 0.69088 0.75826
 H260 H -0.08970 0.76727 0.81566
 H261 H 0.00553 0.76465 0.78977
   
