data_POSCAR
  _audit_creation_date              2014-09-24
  _audit_creation_method            'ToBaCCo'
  _symmetry_space_group_name_H-M    'P1'
  _symmetry_Int_Tables_number       1
  _symmetry_cell_setting            triclinic
  loop_
  _symmetry_equiv_pos_as_xyz
 x,y,z
_cell_length_a 34.6585
_cell_length_b 36.5363
_cell_length_c 32.6675
_cell_angle_alpha 90.577200
_cell_angle_beta 90.396200
_cell_angle_gamma 89.803400
loop_
  _atom_site_label
  _atom_site_type_symbol
  _atom_site_fract_x
  _atom_site_fract_y
  _atom_site_fract_z
C1 C 1.25324 0.25190 0.24832
 C2 C 0.75288 -0.24808 0.24836
 C3 C 0.75317 0.25186 -0.25161
 C4 C 1.25304 -0.24814 -0.25170
 C5 C 0.24742 0.24926 0.75122
 C6 C 0.74775 0.74924 0.75120
 C7 C 0.74759 0.24917 0.25117
 C8 C 0.24798 0.74916 0.25123
 N9 N 1.06996 0.03748 0.04444
 N10 N 1.09691 0.06196 0.05236
 N11 N 1.04275 -0.03863 0.07226
 N12 N 1.05040 -0.06354 0.10019
 N13 N 1.06893 -0.03941 0.04339
 N14 N 1.09491 -0.06511 0.05077
 N15 N 1.04326 0.03839 0.07274
 N16 N 1.05106 0.06395 0.10043
 C17 C 1.08449 0.07856 0.08705
 C18 C 1.08278 -0.08016 0.08617
 N19 N 0.93252 -0.03712 0.04408
 N20 N 0.90658 -0.06263 0.05059
 N21 N 0.96021 0.03919 0.07353
 N22 N 0.95304 0.06384 0.10229
 N23 N 0.93337 0.03994 0.04499
 N24 N 0.90738 0.06541 0.05344
 N25 N 0.95936 -0.03760 0.07263
 N26 N 0.95218 -0.06339 0.09958
 Mn27 Mn 1.00141 0.00032 0.07321
 C28 C 0.91928 -0.07898 0.08515
 C29 C 0.92027 0.08033 0.08912
 N30 N 1.06809 -0.03882 -0.04492
 N31 N 1.09503 -0.06311 -0.05383
 N32 N 1.04176 0.03789 -0.07241
 N33 N 1.04871 0.06326 -0.09983
 N34 N 1.06860 0.03800 -0.04383
 N35 N 1.09439 0.06365 -0.05092
 N36 N 1.04075 -0.03908 -0.07298
 N37 N 1.04819 -0.06397 -0.10149
 Mn38 Mn 1.06926 -0.00069 -0.00024
 C39 C 1.08197 -0.07895 -0.08881
 C40 C 1.08143 0.07936 -0.08584
 N41 N 0.93234 0.03963 -0.04316
 N42 N 0.90657 0.06554 -0.04983
 N43 N 0.95753 -0.03761 -0.07279
 N44 N 0.94968 -0.06294 -0.10068
 N45 N 0.93145 -0.03749 -0.04385
 N46 N 0.90540 -0.06311 -0.05098
 N47 N 0.95849 0.03921 -0.07204
 N48 N 0.95103 0.06479 -0.09932
 Mn49 Mn 0.93204 0.00126 0.00052
 Mn50 Mn 0.99965 0.00009 -0.07299
 Cl51 Cl 1.00059 0.00024 0.00013
 C52 C 0.91870 0.08123 -0.08480
 C53 C 0.91730 -0.07889 -0.08643
 N54 N 1.06954 0.53870 0.54309
 N55 N 1.09647 0.56316 0.55120
 N56 N 1.04270 0.46240 0.57078
 N57 N 1.05021 0.43727 0.59845
 N58 N 1.06897 0.46187 0.54200
 N59 N 1.09492 0.43612 0.54920
 N60 N 1.04286 0.53938 0.57142
 N61 N 1.05065 0.56477 0.59931
 C62 C 1.08404 0.57952 0.58602
 C63 C 1.08264 0.42080 0.58439
 N64 N 0.93248 0.46325 0.54287
 N65 N 0.90639 0.43792 0.54970
 N66 N 0.95985 0.53971 0.57227
 N67 N 0.95259 0.56427 0.60109
 N68 N 0.93298 0.54036 0.54377
 N69 N 0.90683 0.56566 0.55232
 N70 N 0.95933 0.46289 0.57141
 N71 N 0.95200 0.43737 0.59866
 Mn72 Mn 1.00122 0.50108 0.57188
 C73 C 0.91900 0.42178 0.58443
 C74 C 0.91970 0.58060 0.58801
 N75 N 1.06826 0.46239 0.45374
 N76 N 1.09525 0.43810 0.44501
 N77 N 1.04155 0.53891 0.42610
 N78 N 1.04866 0.56400 0.39837
 N79 N 1.06831 0.53926 0.45477
 N80 N 1.09416 0.56483 0.44744
 N81 N 1.04091 0.46189 0.42572
 N82 N 1.04837 0.43684 0.39739
 Mn83 Mn 1.06914 0.50056 0.49840
 C84 C 1.08221 0.42202 0.41015
 C85 C 1.08135 0.58024 0.41228
 N86 N 0.93212 0.53999 0.45563
 N87 N 0.90653 0.56612 0.44928
 N88 N 0.95764 0.46289 0.42596
 N89 N 0.94992 0.43745 0.39815
 N90 N 0.93157 0.46291 0.45492
 N91 N 0.90569 0.43713 0.44790
 N92 N 0.95826 0.53969 0.42673
 N93 N 0.95100 0.56556 0.39977
 Mn94 Mn 0.93190 0.50165 0.49928
 Mn95 Mn 0.99959 0.50082 0.42568
 Cl96 Cl 1.00046 0.50102 0.49881
 C97 C 0.91878 0.58202 0.41449
 C98 C 0.91765 0.42133 0.41249
 N99 N 0.56897 0.03821 0.54337
 N100 N 0.59606 0.06254 0.55147
 N101 N 0.54204 -0.03795 0.57139
 N102 N 0.54959 -0.06300 0.59916
 N103 N 0.56824 -0.03865 0.54254
 N104 N 0.59415 -0.06441 0.54976
 N105 N 0.54229 0.03908 0.57170
 N106 N 0.55025 0.06447 0.59956
 C107 C 0.58375 0.07904 0.58628
 C108 C 0.58195 -0.07958 0.58505
 N109 N 0.43185 -0.03710 0.54337
 N110 N 0.40605 -0.06271 0.55001
 N111 N 0.45924 0.03944 0.57246
 N112 N 0.45201 0.06407 0.60119
 N113 N 0.43233 0.03997 0.54399
 N114 N 0.40619 0.06529 0.55249
 N115 N 0.45871 -0.03735 0.57190
 N116 N 0.45168 -0.06308 0.59897
 Mn117 Mn 0.50059 0.00079 0.57228
 C118 C 0.41886 -0.07888 0.58463
 C119 C 0.41910 0.08035 0.58810
 N120 N 0.56742 -0.03847 0.45431
 N121 N 0.59446 -0.06270 0.44557
 N122 N 0.54074 0.03795 0.42643
 N123 N 0.54762 0.06327 0.39891
 N124 N 0.56750 0.03833 0.45509
 N125 N 0.59314 0.06411 0.44799
 N126 N 0.54006 -0.03904 0.42629
 N127 N 0.54758 -0.06408 0.39797
 Mn128 Mn 0.56839 -0.00014 0.49882
 C129 C 0.58145 -0.07882 0.41073
 C130 C 0.58020 0.07961 0.41297
 N131 N 0.43134 0.03927 0.45583
 N132 N 0.40586 0.06549 0.44945
 N133 N 0.45676 -0.03802 0.42645
 N134 N 0.44888 -0.06342 0.39861
 N135 N 0.43067 -0.03785 0.45539
 N136 N 0.40460 -0.06347 0.44829
 N137 N 0.45747 0.03883 0.42693
 N138 N 0.45033 0.06469 0.39993
 Mn139 Mn 0.43116 0.00110 0.49964
 Mn140 Mn 0.49876 -0.00009 0.42608
 Cl141 Cl 0.49972 0.00041 0.49920
 C142 C 0.41816 0.08129 0.41462
 C143 C 0.41647 -0.07936 0.41288
 N144 N 0.56906 0.53844 0.04389
 N145 N 0.59607 0.56285 0.05183
 N146 N 0.54187 0.46242 0.07195
 N147 N 0.54931 0.43731 0.09969
 N148 N 0.56805 0.46162 0.04308
 N149 N 0.59384 0.43574 0.05027
 N150 N 0.54235 0.53942 0.07220
 N151 N 0.55021 0.56495 0.09989
 C152 C 0.58368 0.57949 0.08651
 C153 C 0.58159 0.42060 0.08555
 N154 N 0.43168 0.46372 0.04391
 N155 N 0.40585 0.43810 0.05044
 N156 N 0.45928 0.54021 0.07307
 N157 N 0.45207 0.56490 0.10179
 N158 N 0.43240 0.54082 0.04458
 N159 N 0.40630 0.56621 0.05306
 N160 N 0.45852 0.46336 0.07245
 N161 N 0.45147 0.43756 0.09942
 Mn162 Mn 0.50053 0.50134 0.07284
 C163 C 0.41862 0.42183 0.08502
 C164 C 0.41919 0.58127 0.08870
 N165 N 0.56746 0.46178 -0.04518
 N166 N 0.59456 0.43763 -0.05407
 N167 N 0.54103 0.53836 -0.07299
 N168 N 0.54800 0.56364 -0.10050
 N169 N 0.56780 0.53862 -0.04434
 N170 N 0.59356 0.56429 -0.05146
 N171 N 0.54013 0.46134 -0.07323
 N172 N 0.54774 0.43644 -0.10172
 Mn173 Mn 0.56845 0.50011 -0.00063
 C174 C 0.58162 0.42165 -0.08904
 C175 C 0.58066 0.57984 -0.08648
 N176 N 0.43164 0.54010 -0.04362
 N177 N 0.40616 0.56629 -0.05012
 N178 N 0.45686 0.46279 -0.07296
 N179 N 0.44903 0.43738 -0.10076
 N180 N 0.43073 0.46301 -0.04405
 N181 N 0.40467 0.43739 -0.05113
 N182 N 0.45779 0.53956 -0.07250
 N183 N 0.45065 0.56535 -0.09961
 Mn184 Mn 0.43122 0.50194 0.00019
 Mn185 Mn 0.49895 0.50049 -0.07336
 Cl186 Cl 0.49978 0.50096 -0.00024
 C187 C 0.41849 0.58200 -0.08499
 C188 C 0.41662 0.42149 -0.08650
 C189 C 1.17542 0.18112 0.17858
 C190 C 1.17254 0.21908 0.17500
 C191 C 1.19796 0.24132 0.19716
 C192 C 1.22622 0.22603 0.22339
 C193 C 1.22627 0.18753 0.22732
 N194 N 1.20189 0.16652 0.20454
 C195 C 1.15104 0.15650 0.15405
 N196 N 1.16814 0.13014 0.13071
 C197 C 1.14728 0.10573 0.10821
 C198 C 1.10688 0.10633 0.10966
 C199 C 1.08861 0.13306 0.13381
 C200 C 1.11069 0.15867 0.15563
 H201 H 1.19590 0.27071 0.19364
 H202 H 1.24500 0.17361 0.24855
 H203 H 1.16230 0.08525 0.09015
 H204 H 1.05743 0.13421 0.13559
 H205 H 1.15151 0.23130 0.15456
 H206 H 1.09656 0.17927 0.17437
 C207 C 1.17511 0.68135 0.67841
 C208 C 1.17239 0.71931 0.67482
 C209 C 1.19784 0.74146 0.69704
 C210 C 1.22599 0.72606 0.72332
 C211 C 1.22588 0.68756 0.72727
 N212 N 1.20147 0.66664 0.70442
 C213 C 1.15070 0.65686 0.65376
 N214 N 1.16776 0.63066 0.63017
 C215 C 1.14687 0.60644 0.60745
 C216 C 1.10646 0.60708 0.60890
 C217 C 1.08823 0.63364 0.63332
 C218 C 1.11035 0.65906 0.65538
 H219 H 1.19591 0.77085 0.69352
 H220 H 1.24452 0.67359 0.74855
 H221 H 1.16185 0.58607 0.58919
 H222 H 1.05706 0.63481 0.63511
 H223 H 1.15145 0.73160 0.65433
 H224 H 1.09626 0.67954 0.67430
 C225 C 0.67528 0.18115 0.67829
 C226 C 0.67214 0.21914 0.67522
 C227 C 0.69757 0.24135 0.69745
 C228 C 0.72612 0.22602 0.72332
 C229 C 0.72649 0.18745 0.72670
 N230 N 0.70209 0.16649 0.70384
 C231 C 0.65075 0.15656 0.65373
 N232 N 0.66771 0.13009 0.63039
 C233 C 0.64673 0.10581 0.60780
 C234 C 0.60631 0.10663 0.60911
 C235 C 0.58819 0.13345 0.63328
 C236 C 0.61040 0.15892 0.65519
 H237 H 0.69527 0.27076 0.69429
 H238 H 0.74550 0.17343 0.74756
 H239 H 0.66165 0.08526 0.58974
 H240 H 0.55702 0.13478 0.63497
 H241 H 0.65088 0.23143 0.65512
 H242 H 0.59635 0.17958 0.67391
 C243 C 0.67496 0.68146 0.17841
 C244 C 0.67219 0.71943 0.17491
 C245 C 0.69764 0.74156 0.19714
 C246 C 0.72584 0.72615 0.22335
 C247 C 0.72581 0.68764 0.22719
 N248 N 0.70138 0.66673 0.20434
 C249 C 0.65050 0.65697 0.15381
 N250 N 0.66751 0.63060 0.13041
 C251 C 0.64657 0.60634 0.10780
 C252 C 0.60617 0.60712 0.10919
 C253 C 0.58799 0.63387 0.13340
 C254 C 0.61016 0.65932 0.15533
 H255 H 0.69566 0.77096 0.19370
 H256 H 0.74450 0.67365 0.24840
 H257 H 0.66151 0.58583 0.08970
 H258 H 0.55682 0.63514 0.13513
 H259 H 0.65120 0.73174 0.15449
 H260 H 0.59611 0.67994 0.17411
 C261 C 0.82997 -0.18471 0.17172
 C262 C 0.80587 -0.21085 0.15317
 C263 C 0.78140 -0.23167 0.17719
 C264 C 0.78004 -0.22632 0.22003
 C265 C 0.80721 -0.20184 0.23736
 N266 N 0.83054 -0.18163 0.21323
 C267 C 0.85414 -0.15981 0.14744
 N268 N 0.88584 -0.14423 0.16522
 C269 C 0.90792 -0.11933 0.14552
 C270 C 0.89790 -0.10819 0.10588
 C271 C 0.86558 -0.12407 0.08688
 C272 C 0.84367 -0.14980 0.10747
 H273 H 0.76407 -0.25205 0.16164
 H274 H 0.80887 -0.19796 0.27022
 H275 H 0.93259 -0.10759 0.16125
 H276 H 0.85677 -0.11607 0.05637
 H277 H 0.80606 -0.21559 0.12043
 H278 H 0.81805 -0.16054 0.09264
 C279 C 0.82974 0.31595 0.67161
 C280 C 0.80535 0.29006 0.65303
 C281 C 0.78112 0.26895 0.67708
 C282 C 0.78031 0.27372 0.72002
 C283 C 0.80778 0.29794 0.73732
 N284 N 0.83084 0.31845 0.71316
 C285 C 0.85372 0.34113 0.64730
 N286 N 0.88560 0.35659 0.66485
 C287 C 0.90764 0.38150 0.64503
 C288 C 0.89745 0.39276 0.60546
 C289 C 0.86488 0.37707 0.58675
 C290 C 0.84298 0.35135 0.60746
 H291 H 0.76351 0.24886 0.66144
 H292 H 0.80984 0.30143 0.77021
 H293 H 0.93249 0.39309 0.66059
 H294 H 0.85587 0.38514 0.55633
 H295 H 0.80508 0.28572 0.62022
 H296 H 0.81722 0.34076 0.59279
 C297 C 0.33006 -0.18479 0.67156
 C298 C 0.30606 -0.21105 0.65306
 C299 C 0.28162 -0.23187 0.67712
 C300 C 0.28021 -0.22642 0.71994
 C301 C 0.30731 -0.20185 0.73723
 N302 N 0.33060 -0.18163 0.71305
 C303 C 0.35412 -0.15985 0.64721
 N304 N 0.38573 -0.14407 0.66495
 C305 C 0.40769 -0.11911 0.64517
 C306 C 0.39763 -0.10813 0.60548
 C307 C 0.36541 -0.12421 0.58653
 C308 C 0.34362 -0.15000 0.60719
 H309 H 0.26436 -0.25234 0.66162
 H310 H 0.30894 -0.19790 0.77008
 H311 H 0.43229 -0.10721 0.66087
 H312 H 0.35656 -0.11635 0.55598
 H313 H 0.30629 -0.21587 0.62034
 H314 H 0.31806 -0.16089 0.59238
 C315 C 0.33008 0.31545 0.17155
 C316 C 0.30597 0.28930 0.15302
 C317 C 0.28162 0.26837 0.17708
 C318 C 0.28040 0.27362 0.21994
 C319 C 0.30761 0.29808 0.23723
 N320 N 0.33081 0.31840 0.21306
 C321 C 0.35406 0.34051 0.14726
 N322 N 0.38571 0.35622 0.16500
 C323 C 0.40760 0.38129 0.14532
 C324 C 0.39742 0.39248 0.10574
 C325 C 0.36515 0.37648 0.08678
 C326 C 0.34344 0.35057 0.10734
 H327 H 0.26424 0.24802 0.16154
 H328 H 0.30937 0.30189 0.27010
 H329 H 0.43224 0.39312 0.16102
 H330 H 0.35622 0.38451 0.05632
 H331 H 0.30603 0.28465 0.12026
 H332 H 0.31785 0.33974 0.09255
 C333 C 0.82982 0.18805 -0.17305
 C334 C 0.80495 0.21380 -0.15500
 C335 C 0.78075 0.23490 -0.17962
 C336 C 0.78045 0.23026 -0.22259
 C337 C 0.80844 0.20629 -0.23926
 N338 N 0.83144 0.18576 -0.21457
 C339 C 0.85373 0.16273 -0.14829
 N340 N 0.88554 0.14697 -0.16540
 C341 C 0.90746 0.12180 -0.14535
 C342 C 0.89723 0.11057 -0.10595
 C343 C 0.86478 0.12659 -0.08763
 C344 C 0.84298 0.15258 -0.10860
 H345 H 0.76270 0.25484 -0.16438
 H346 H 0.81090 0.20292 -0.27209
 H347 H 0.93224 0.10998 -0.16060
 H348 H 0.85576 0.11854 -0.05736
 H349 H 0.80425 0.21801 -0.12220
 H350 H 0.81728 0.16340 -0.09426
 C351 C 0.83000 0.68884 0.32685
 C352 C 0.80541 0.71483 0.34486
 C353 C 0.78097 0.73564 0.32024
 C354 C 0.78018 0.73044 0.27735
 C355 C 0.80790 0.70623 0.26066
 N356 N 0.83114 0.68600 0.28535
 C357 C 0.85408 0.66380 0.35159
 N358 N 0.88572 0.64793 0.33428
 C359 C 0.90765 0.62274 0.35423
 C360 C 0.89753 0.61158 0.39366
 C361 C 0.86531 0.62777 0.41224
 C362 C 0.84353 0.65381 0.39139
 H363 H 0.76317 0.75586 0.33539
 H364 H 0.81000 0.70248 0.22784
 H365 H 0.93227 0.61079 0.33882
 H366 H 0.85642 0.61976 0.44257
 H367 H 0.80512 0.71942 0.37761
 H368 H 0.81794 0.66476 0.40586
 C369 C 0.33012 0.18869 0.32697
 C370 C 0.30550 0.21468 0.34494
 C371 C 0.28118 0.23558 0.32028
 C372 C 0.28053 0.23047 0.27738
 C373 C 0.30831 0.20628 0.26074
 N374 N 0.33143 0.18596 0.28547
 C375 C 0.35401 0.16349 0.35173
 N376 N 0.38561 0.14750 0.33447
 C377 C 0.40735 0.12216 0.35441
 C378 C 0.39709 0.11096 0.39379
 C379 C 0.36490 0.12728 0.41231
 C380 C 0.34331 0.15347 0.39148
 H381 H 0.26333 0.25577 0.33540
 H382 H 0.31052 0.20259 0.22792
 H383 H 0.43195 0.11013 0.33904
 H384 H 0.35590 0.11926 0.44260
 H385 H 0.30507 0.21919 0.37771
 H386 H 0.31775 0.16451 0.40591
 C387 C 0.33010 0.68884 -0.17308
 C388 C 0.30560 0.71495 -0.15514
 C389 C 0.28119 0.73574 -0.17980
 C390 C 0.28034 0.73041 -0.22267
 C391 C 0.30799 0.70610 -0.23931
 N392 N 0.33121 0.68587 -0.21457
 C393 C 0.35410 0.66378 -0.14825
 N394 N 0.38566 0.64773 -0.16551
 C395 C 0.40750 0.62253 -0.14546
 C396 C 0.39736 0.61155 -0.10596
 C397 C 0.36522 0.62794 -0.08745
 C398 C 0.34353 0.65398 -0.10840
 H399 H 0.26347 0.75605 -0.16471
 H400 H 0.31006 0.70226 -0.27212
 H401 H 0.43207 0.61043 -0.16083
 H402 H 0.35631 0.62008 -0.05707
 H403 H 0.30536 0.71965 -0.12240
 H404 H 0.31800 0.66507 -0.09396
 C405 C 1.17340 -0.17857 -0.18335
 C406 C 1.17123 -0.21657 -0.18007
 C407 C 1.19717 -0.23841 -0.20185
 C408 C 1.22527 -0.22267 -0.22739
 C409 C 1.22455 -0.18417 -0.23117
 N410 N 1.19969 -0.16353 -0.20871
 C411 C 1.14884 -0.15439 -0.15861
 N412 N 1.16579 -0.12815 -0.13490
 C413 C 1.14483 -0.10446 -0.11169
 C414 C 1.10443 -0.10576 -0.11264
 C415 C 1.08627 -0.13230 -0.13725
 C416 C 1.10851 -0.15716 -0.15987
 H417 H 1.19571 -0.26783 -0.19849
 H418 H 1.24313 -0.16997 -0.25194
 H419 H 1.15975 -0.08407 -0.09332
 H420 H 1.05510 -0.13395 -0.13866
 H421 H 1.15043 -0.22913 -0.16004
 H422 H 1.09449 -0.17771 -0.17884
 C423 C 1.17363 0.32171 0.31648
 C424 C 1.17133 0.28372 0.31975
 C425 C 1.19727 0.26179 0.29805
 C426 C 1.22549 0.27744 0.27258
 C427 C 1.22489 0.31595 0.26880
 N428 N 1.20004 0.33666 0.29119
 C429 C 1.14907 0.34601 0.34108
 N430 N 1.16602 0.37241 0.36456
 C431 C 1.14507 0.39628 0.38755
 C432 C 1.10466 0.39502 0.38658
 C433 C 1.08651 0.36830 0.36220
 C434 C 1.10874 0.34325 0.33983
 H435 H 1.19570 0.23238 0.30141
 H436 H 1.24356 0.33011 0.24809
 H437 H 1.16000 0.41679 0.40574
 H438 H 1.05533 0.36666 0.36078
 H439 H 1.15044 0.27122 0.33972
 H440 H 1.09471 0.32258 0.32102
 C441 C 0.67321 -0.17856 0.31674
 C442 C 0.67101 -0.21656 0.31994
 C443 C 0.69697 -0.23838 0.29817
 C444 C 0.72512 -0.22263 0.27271
 C445 C 0.72445 -0.18411 0.26902
 N446 N 0.69956 -0.16350 0.29147
 C447 C 0.64857 -0.15439 0.34140
 N448 N 0.66543 -0.12798 0.36495
 C449 C 0.64440 -0.10426 0.38803
 C450 C 0.60400 -0.10569 0.38710
 C451 C 0.58594 -0.13241 0.36266
 C452 C 0.60825 -0.15731 0.34018
 H453 H 0.69548 -0.26781 0.30147
 H454 H 0.74309 -0.16989 0.24833
 H455 H 0.65925 -0.08373 0.40627
 H456 H 0.55477 -0.13417 0.36127
 H457 H 0.65016 -0.22914 0.33989
 H458 H 0.59430 -0.17799 0.32133
 C459 C 0.67361 0.32167 -0.18303
 C460 C 0.67103 0.28364 -0.18025
 C461 C 0.69694 0.26173 -0.20205
 C462 C 0.72543 0.27739 -0.22718
 C463 C 0.72519 0.31596 -0.23040
 N464 N 0.70034 0.33664 -0.20793
 C465 C 0.64891 0.34595 -0.15841
 N466 N 0.66571 0.37244 -0.13490
 C467 C 0.64465 0.39621 -0.11187
 C468 C 0.60423 0.39479 -0.11278
 C469 C 0.58622 0.36801 -0.13720
 C470 C 0.60857 0.34306 -0.15963
 H471 H 0.69511 0.23229 -0.19904
 H472 H 0.74413 0.33021 -0.25075
 H473 H 0.65949 0.41676 -0.09365
 H474 H 0.55505 0.36623 -0.13860
 H475 H 0.64990 0.27109 -0.16060
 H476 H 0.59462 0.32235 -0.17844
 C477 C 1.16788 0.18368 -0.17772
 C478 C 1.17199 0.17725 -0.21978
 C479 C 1.19709 0.19886 -0.24216
 C480 C 1.21880 0.22681 -0.22295
 C481 C 1.21086 0.23432 -0.18135
 N482 N 1.18682 0.21236 -0.15997
 C483 C 1.14414 0.15910 -0.15259
 N484 N 1.11548 0.13909 -0.17057
 C485 C 1.09427 0.11452 -0.14947
 C486 C 1.10219 0.10818 -0.10797
 C487 C 1.13126 0.12875 -0.08864
 C488 C 1.15202 0.15454 -0.11074
 H489 H 1.20044 0.19314 -0.27454
 H490 H 1.22355 0.25745 -0.16555
 H491 H 1.07208 0.09917 -0.16549
 H492 H 1.13813 0.12467 -0.05661
 H493 H 1.15686 0.15505 -0.23504
 H494 H 1.17481 0.16983 -0.09561
 C495 C 1.16856 0.68409 0.32002
 C496 C 1.17512 0.67613 0.27869
 C497 C 1.20046 0.69773 0.25658
 C498 C 1.22048 0.72728 0.27538
 C499 C 1.20933 0.73637 0.31596
 N500 N 1.18517 0.71431 0.33712
 C501 C 1.14457 0.65958 0.34510
 N502 N 1.11691 0.63854 0.32679
 C503 C 1.09555 0.61407 0.34794
 C504 C 1.10229 0.60888 0.38989
 C505 C 1.13038 0.63047 0.40951
 C506 C 1.15125 0.65617 0.38733
 H507 H 1.20533 0.69068 0.22475
 H508 H 1.21989 0.76075 0.33123
 H509 H 1.07418 0.59790 0.33167
 H510 H 1.13635 0.62730 0.44187
 H511 H 1.16166 0.65277 0.26383
 H512 H 1.17324 0.67229 0.40272
 C513 C 0.66744 0.18370 0.32161
 C514 C 0.67202 0.17711 0.27964
 C515 C 0.69740 0.19861 0.25748
 C516 C 0.71892 0.22662 0.27683
 C517 C 0.71059 0.23425 0.31831
 N518 N 0.68627 0.21239 0.33947
 C519 C 0.64336 0.15925 0.34655
 N520 N 0.61497 0.13908 0.32829
 C521 C 0.59353 0.11457 0.34926
 C522 C 0.60096 0.10848 0.39090
 C523 C 0.62971 0.12926 0.41051
 C524 C 0.65068 0.15497 0.38854
 H525 H 0.70105 0.19280 0.22517
 H526 H 0.72318 0.25741 0.33416
 H527 H 0.57160 0.09905 0.33304
 H528 H 0.63619 0.12538 0.44266
 H529 H 0.65702 0.15488 0.26429
 H530 H 0.67324 0.17039 0.40390
 C531 C 0.66779 0.68380 -0.17813
 C532 C 0.67223 0.67721 -0.22012
 C533 C 0.69752 0.69873 -0.24237
 C534 C 0.71910 0.72673 -0.22309
 C535 C 0.71087 0.73437 -0.18159
 N536 N 0.68663 0.71251 -0.16033
 C537 C 0.64380 0.65935 -0.15310
 N538 N 0.61530 0.63924 -0.17125
 C539 C 0.59391 0.61476 -0.15020
 C540 C 0.60149 0.60863 -0.10860
 C541 C 0.63037 0.62931 -0.08911
 C542 C 0.65131 0.65500 -0.11115
 H543 H 0.70109 0.69291 -0.27469
 H544 H 0.72347 0.75755 -0.16578
 H545 H 0.57187 0.59931 -0.16634
 H546 H 0.63697 0.62540 -0.05699
 H547 H 0.65720 0.65497 -0.23541
 H548 H 0.67397 0.67038 -0.09589
 C549 C 0.82738 -0.18375 -0.17689
 C550 C 0.81961 -0.21956 -0.16464
 C551 C 0.79485 -0.24131 -0.18831
 C552 C 0.77562 -0.22685 -0.22281
 C553 C 0.78683 -0.19158 -0.23538
 N554 N 0.81166 -0.17124 -0.21232
 C555 C 0.85227 -0.15916 -0.15238
 N556 N 0.87668 -0.13615 -0.17189
 C557 C 0.89873 -0.11131 -0.15125
 C558 C 0.89579 -0.10773 -0.10860
 C559 C 0.87077 -0.13109 -0.08784
 C560 C 0.84929 -0.15718 -0.10959
 H561 H 0.78999 -0.26928 -0.17911
 H562 H 0.77607 -0.18003 -0.26358
 H563 H 0.91754 -0.09356 -0.16832
 H564 H 0.86772 -0.12904 -0.05492
 H565 H 0.83296 -0.23077 -0.13743
 H566 H 0.82954 -0.17466 -0.09334
 C567 C 0.82751 0.31617 0.32273
 C568 C 0.81954 0.28046 0.33522
 C569 C 0.79462 0.25872 0.31171
 C570 C 0.77545 0.27310 0.27714
 C571 C 0.78681 0.30826 0.26437
 N572 N 0.81179 0.32859 0.28727
 C573 C 0.85256 0.34076 0.34705
 N574 N 0.87691 0.36372 0.32736
 C575 C 0.89904 0.38862 0.34783
 C576 C 0.89623 0.39233 0.39048
 C577 C 0.87131 0.36900 0.41142
 C578 C 0.84976 0.34285 0.38985
 H579 H 0.78966 0.23081 0.32107
 H580 H 0.77608 0.31973 0.23611
 H581 H 0.91776 0.40634 0.33062
 H582 H 0.86836 0.37115 0.44434
 H583 H 0.83288 0.26930 0.36246
 H584 H 0.83007 0.32543 0.40625
 C585 C 0.32678 -0.18507 0.32267
 C586 C 0.31699 -0.22002 0.33623
 C587 C 0.29227 -0.24184 0.31253
 C588 C 0.27464 -0.22821 0.27644
 C589 C 0.28856 -0.19403 0.26257
 N590 N 0.31325 -0.17367 0.28582
 C591 C 0.35152 -0.16023 0.34723
 N592 N 0.37673 -0.13792 0.32779
 C593 C 0.39870 -0.11291 0.34833
 C594 C 0.39493 -0.10838 0.39082
 C595 C 0.36909 -0.13101 0.41151
 C596 C 0.34765 -0.15726 0.38989
 H597 H 0.28626 -0.26921 0.32305
 H598 H 0.27972 -0.18320 0.23327
 H599 H 0.41814 -0.09579 0.33126
 H600 H 0.36535 -0.12825 0.44429
 H601 H 0.32879 -0.23061 0.36453
 H602 H 0.32728 -0.17407 0.40613
 C603 C 0.32690 0.31649 -0.17694
 C604 C 0.31940 0.28059 -0.16481
 C605 C 0.29471 0.25879 -0.18849
 C606 C 0.27528 0.27325 -0.22285
 C607 C 0.28622 0.30863 -0.23532
 N608 N 0.31101 0.32903 -0.21227
 C609 C 0.35172 0.34112 -0.15243
 N610 N 0.37608 0.36419 -0.17194
 C611 C 0.39807 0.38907 -0.15130
 C612 C 0.39512 0.39263 -0.10865
 C613 C 0.37015 0.36923 -0.08789
 C614 C 0.34873 0.34309 -0.10964
 H615 H 0.29005 0.23076 -0.17939
 H616 H 0.27532 0.32022 -0.26344
 H617 H 0.41684 0.40685 -0.16837
 H618 H 0.36710 0.37128 -0.05496
 H619 H 0.33291 0.26938 -0.13768
 H620 H 0.32904 0.32556 -0.09340
 C621 C 1.17148 -0.18351 0.17975
 C622 C 1.17800 -0.17544 0.22114
 C623 C 1.20273 -0.19754 0.24395
 C624 C 1.22217 -0.22777 0.22587
 C625 C 1.21146 -0.23657 0.18495
 N626 N 1.18780 -0.21409 0.16313
 C627 C 1.14734 -0.15899 0.15429
 N628 N 1.11971 -0.13780 0.17228
 C629 C 1.09798 -0.11348 0.15084
 C630 C 1.10424 -0.10862 0.10886
 C631 C 1.13231 -0.13035 0.08954
 C632 C 1.15359 -0.15589 0.11205
 H633 H 1.20726 -0.19056 0.27591
 H634 H 1.22166 -0.26126 0.17004
 H635 H 1.07666 -0.09719 0.16690
 H636 H 1.13792 -0.12744 0.05716
 H637 H 1.16478 -0.15179 0.23561
 H638 H 1.17552 -0.17217 0.09690
 C639 C 1.17067 0.31720 0.67779
 C640 C 1.17488 0.32385 0.71985
 C641 C 1.19939 0.30174 0.74286
 C642 C 1.22045 0.27301 0.72433
 C643 C 1.21275 0.26564 0.68254
 N644 N 1.18920 0.28805 0.66056
 C645 C 1.14677 0.34177 0.65226
 N646 N 1.11817 0.36196 0.66991
 C647 C 1.09657 0.38634 0.64846
 C648 C 1.10395 0.39223 0.60689
 C649 C 1.13299 0.37148 0.58789
 C650 C 1.15419 0.34591 0.61038
 H651 H 1.20255 0.30745 0.77530
 H652 H 1.22499 0.24209 0.66715
 H653 H 1.07445 0.40184 0.66425
 H654 H 1.13946 0.37522 0.55582
 H655 H 1.16007 0.34644 0.73470
 H656 H 1.17690 0.33042 0.59551
 C657 C 0.67063 -0.18288 0.67815
 C658 C 0.67519 -0.17608 0.72014
 C659 C 0.69989 -0.19813 0.74302
 C660 C 0.72079 -0.22692 0.72441
 C661 C 0.71278 -0.23440 0.68271
 N662 N 0.68905 -0.21206 0.66086
 C663 C 0.64650 -0.15841 0.65275
 N664 N 0.61807 -0.13811 0.67057
 C665 C 0.59629 -0.11382 0.64920
 C666 C 0.60332 -0.10811 0.60753
 C667 C 0.63216 -0.12899 0.58835
 C668 C 0.65353 -0.15447 0.61076
 H669 H 0.70326 -0.19234 0.77542
 H670 H 0.72491 -0.25800 0.66730
 H671 H 0.57433 -0.09821 0.66512
 H672 H 0.63836 -0.12540 0.55619
 H673 H 0.66049 -0.15345 0.73504
 H674 H 0.67610 -0.17005 0.59575
 C675 C 0.67031 0.31707 0.17831
 C676 C 0.67497 0.32384 0.22029
 C677 C 0.69974 0.30181 0.24308
 C678 C 0.72061 0.27302 0.22441
 C679 C 0.71255 0.26558 0.18272
 N680 N 0.68874 0.28791 0.16095
 C681 C 0.64610 0.34155 0.15299
 N682 N 0.61775 0.36189 0.17092
 C683 C 0.59596 0.38623 0.14964
 C684 C 0.60288 0.39195 0.10795
 C685 C 0.63161 0.37101 0.08866
 C686 C 0.65300 0.34548 0.11098
 H687 H 0.70317 0.30758 0.27548
 H688 H 0.72468 0.24201 0.16727
 H689 H 0.57408 0.40188 0.16564
 H690 H 0.63772 0.37461 0.05648
 H691 H 0.66029 0.34646 0.23525
 H692 H 0.67548 0.32987 0.09588
 C693 C 0.82809 0.17977 0.18396
 C694 C 0.81083 0.16654 0.21941
 C695 C 0.78476 0.18853 0.24068
 C696 C 0.77497 0.22378 0.22656
 C697 C 0.79550 0.23676 0.19247
 N698 N 0.82020 0.21444 0.17163
 C699 C 0.85414 0.15624 0.15974
 N700 N 0.84923 0.15357 0.11843
 C701 C 0.87056 0.13013 0.09506
 C702 C 0.89886 0.10793 0.11327
 C703 C 0.90525 0.11127 0.15557
 C704 C 0.88272 0.13513 0.17895
 H705 H 0.77263 0.17779 0.26850
 H706 H 0.79150 0.26453 0.18208
 H707 H 0.86511 0.12854 0.06242
 H708 H 0.92684 0.09464 0.17075
 H709 H 0.81701 0.13921 0.23024
 H710 H 0.88737 0.13694 0.21172
 C711 C 0.82785 0.67978 0.68355
 C712 C 0.81062 0.66648 0.71898
 C713 C 0.78473 0.68850 0.74046
 C714 C 0.77511 0.72387 0.72655
 C715 C 0.79567 0.73691 0.69252
 N716 N 0.82018 0.71456 0.67147
 C717 C 0.85372 0.65624 0.65913
 N718 N 0.84860 0.65364 0.61784
 C719 C 0.86982 0.63024 0.59430
 C720 C 0.89823 0.60804 0.61232
 C721 C 0.90479 0.61128 0.65460
 C722 C 0.88236 0.63508 0.67815
 H723 H 0.77259 0.67770 0.76823
 H724 H 0.79180 0.76475 0.68229
 H725 H 0.86424 0.62872 0.56169
 H726 H 0.92646 0.59464 0.66964
 H727 H 0.81668 0.63907 0.72963
 H728 H 0.88716 0.63683 0.71090
 C729 C 0.32742 0.17966 0.68361
 C730 C 0.31002 0.16632 0.71892
 C731 C 0.28418 0.18838 0.74042
 C732 C 0.27478 0.22384 0.72664
 C733 C 0.29554 0.23692 0.69275
 N734 N 0.31998 0.21453 0.67167
 C735 C 0.35323 0.15610 0.65919
 N736 N 0.34808 0.15347 0.61790
 C737 C 0.36925 0.13002 0.59436
 C738 C 0.39765 0.10781 0.61238
 C739 C 0.40423 0.11108 0.65466
 C740 C 0.38185 0.13492 0.67820
 H741 H 0.27192 0.17753 0.76810
 H742 H 0.29182 0.26482 0.68263
 H743 H 0.36365 0.12848 0.56175
 H744 H 0.42589 0.09443 0.66971
 H745 H 0.31592 0.13884 0.72947
 H746 H 0.38666 0.13668 0.71096
 C747 C 0.32782 0.68136 0.18424
 C748 C 0.31261 0.66895 0.22106
 C749 C 0.28665 0.69082 0.24263
 C750 C 0.27440 0.72524 0.22746
 C751 C 0.29358 0.73765 0.19196
 N752 N 0.31823 0.71536 0.17096
 C753 C 0.35362 0.65770 0.15968
 N754 N 0.34758 0.65408 0.11859
 C755 C 0.36863 0.63046 0.09509
 C756 C 0.39782 0.60900 0.11289
 C757 C 0.40533 0.61332 0.15490
 C758 C 0.38312 0.63737 0.17842
 H759 H 0.27618 0.68049 0.27141
 H760 H 0.28854 0.76492 0.18049
 H761 H 0.36227 0.62815 0.06268
 H762 H 0.42764 0.59735 0.16981
 H763 H 0.32022 0.64224 0.23279
 H764 H 0.38876 0.63993 0.21097
   
