data_POSCAR
  _audit_creation_date              2014-09-24
  _audit_creation_method            'ToBaCCo'
  _symmetry_space_group_name_H-M    'P1'
  _symmetry_Int_Tables_number       1
  _symmetry_cell_setting            triclinic
  loop_
  _symmetry_equiv_pos_as_xyz
 x,y,z
_cell_length_a 41.9392
_cell_length_b 42.5647
_cell_length_c 41.9327
_cell_angle_alpha 89.603900
_cell_angle_beta 90.150400
_cell_angle_gamma 89.810300
loop_
  _atom_site_label
  _atom_site_type_symbol
  _atom_site_fract_x
  _atom_site_fract_y
  _atom_site_fract_z
C1 C 0.20525 0.52279 1.04007
 H2 H 0.20446 0.54177 1.02279
 C3 C 0.18342 0.52207 1.06515
 H4 H 0.16593 0.54074 1.06716
 C5 C 0.22820 0.47476 1.05766
 H6 H 0.24511 0.45592 1.05420
 C7 C 0.20682 0.47308 1.08307
 H8 H 0.20809 0.45300 1.09892
 N9 N 0.22705 0.49935 1.03678
 C10 C 0.30106 0.53797 0.97526
 H11 H 0.30124 0.52006 0.95708
 C12 C 0.32262 0.56279 0.97364
 H13 H 0.33926 0.56383 0.95403
 C14 C 0.27952 0.55762 1.02342
 H15 H 0.26309 0.55516 1.04306
 C16 C 0.30082 0.58282 1.02277
 H17 H 0.30054 0.59988 1.04182
 Zn18 Zn 0.25347 0.50005 1.00024
 N19 N 0.27996 0.53592 0.99974
 C20 C 0.22627 0.52458 0.94312
 N21 N 0.22620 0.50013 0.96420
 C22 C 0.20488 0.47627 0.96149
 C23 C 0.18247 0.47643 0.93680
 C24 C 0.20427 0.52564 0.91807
 C25 C 0.30264 0.46318 1.02442
 C26 C 0.32475 0.43868 1.02584
 C27 C 0.30240 0.41807 0.97716
 C28 C 0.28055 0.44296 0.97671
 N29 N 0.28097 0.46476 1.00029
 H30 H 0.24279 0.54374 0.94611
 H31 H 0.20495 0.45742 0.97892
 H32 H 0.16531 0.45755 0.93510
 H33 H 0.20439 0.54550 0.90185
 H34 H 0.30277 0.48116 1.04253
 H35 H 0.34179 0.43797 1.04523
 H36 H 0.30207 0.40088 0.95824
 H37 H 0.26362 0.44504 0.95734
 C38 C 0.32267 0.58550 0.99767
 C39 C 0.18379 0.49682 1.08692
 C40 C 0.32478 0.41582 1.00197
 C41 C 0.18189 0.50148 0.91496
 C42 C 0.79547 0.52706 -0.03561
 H43 H 0.79481 0.54516 -0.01764
 C44 C 0.81765 0.52880 -0.06031
 H45 H 0.83390 0.54844 -0.06127
 C46 C 0.77565 0.47886 -0.05542
 H47 H 0.75977 0.45907 -0.05302
 C48 C 0.79755 0.47964 -0.08046
 H49 H 0.79819 0.46060 -0.09746
 N50 N 0.77495 0.50245 -0.03369
 C51 C 0.69848 0.53687 0.02706
 H52 H 0.69865 0.51855 0.04507
 C53 C 0.67626 0.56125 0.02875
 H54 H 0.65944 0.56155 0.04823
 C55 C 0.71989 0.55809 -0.02069
 H56 H 0.73652 0.55644 -0.04023
 C57 C 0.69794 0.58286 -0.01998
 H58 H 0.69795 0.60038 -0.03883
 Zn59 Zn 0.74769 0.50080 0.00213
 N60 N 0.71988 0.53585 0.00278
 C61 C 0.77330 0.52450 0.05990
 N62 N 0.77421 0.50046 0.03869
 C63 C 0.79610 0.47695 0.04147
 C64 C 0.81836 0.47711 0.06628
 C65 C 0.79516 0.52559 0.08504
 C66 C 0.70081 0.46312 -0.02420
 C67 C 0.67928 0.43834 -0.02629
 C68 C 0.70052 0.41741 0.02310
 C69 C 0.72181 0.44259 0.02421
 N70 N 0.72159 0.46475 0.00067
 H71 H 0.75633 0.54342 0.05683
 H72 H 0.79669 0.45845 0.02392
 H73 H 0.83605 0.45858 0.06797
 H74 H 0.79446 0.54518 0.10130
 H75 H 0.70079 0.48140 -0.04227
 H76 H 0.66282 0.43767 -0.04616
 H77 H 0.70055 0.40003 0.04209
 H78 H 0.73798 0.44472 0.04417
 C79 C 0.67586 0.58455 0.00498
 C80 C 0.81889 0.50477 -0.08296
 C81 C 0.67891 0.41523 -0.00233
 C82 C 0.81822 0.50186 0.08813
 C83 C -0.02502 0.30116 0.46091
 H84 H -0.04380 0.30173 0.47853
 C85 C -0.02490 0.32304 0.43600
 H86 H -0.04383 0.34038 0.43448
 C87 C 0.02299 0.27843 0.44216
 H88 H 0.04196 0.26143 0.44505
 C89 C 0.02407 0.29992 0.41683
 H90 H 0.04388 0.29877 0.40045
 N91 N -0.00136 0.27939 0.46351
 C92 C -0.04142 0.20467 0.52254
 H93 H -0.02398 0.20392 0.54159
 C94 C -0.06619 0.18286 0.52197
 H95 H -0.06792 0.16534 0.54073
 C96 C -0.05970 0.22758 0.47411
 H97 H -0.05663 0.24452 0.45508
 C98 C -0.08483 0.20616 0.47262
 H99 H -0.10107 0.20706 0.45256
 Zn100 Zn -0.00222 0.25256 0.49966
 N101 N -0.03860 0.22642 0.49881
 C102 C -0.02660 0.27787 0.55763
 N103 N -0.00252 0.27871 0.53594
 C104 C 0.02163 0.29980 0.53841
 C105 C 0.02239 0.32098 0.56362
 C106 C -0.02679 0.29875 0.58324
 C107 C 0.03641 0.20427 0.47660
 C108 C 0.06116 0.18226 0.47693
 C109 C 0.08014 0.20458 0.52624
 C110 C 0.05501 0.22619 0.52500
 N111 N 0.03380 0.22567 0.50039
 H112 H -0.04595 0.26142 0.55486
 H113 H 0.04018 0.30029 0.52054
 H114 H 0.04165 0.33779 0.56524
 H115 H -0.04621 0.29801 0.60015
 H116 H 0.01889 0.20403 0.45762
 H117 H 0.06279 0.16507 0.45808
 H118 H 0.09652 0.20505 0.54619
 H119 H 0.05211 0.24282 0.54411
 C120 C -0.08800 0.18332 0.49663
 C121 C -0.00003 0.32278 0.41362
 C122 C 0.08318 0.18218 0.50209
 C123 C -0.00210 0.32065 0.58625
 C124 C 0.97646 0.69866 0.53545
 H125 H 0.95827 0.69846 0.51712
 C126 C 0.97576 0.67648 0.56009
 H127 H 0.95688 0.65919 0.56082
 C128 C 1.02379 0.72088 0.55641
 H129 H 1.04285 0.73778 0.55452
 C130 C 1.02400 0.69907 0.58147
 H131 H 1.04308 0.69962 0.59885
 N132 N 1.00014 0.72038 0.53413
 C133 C 0.96096 0.79564 0.47478
 H134 H 0.97877 0.79648 0.45618
 C135 C 0.93622 0.81763 0.47502
 H136 H 0.93483 0.83535 0.45641
 C137 C 0.94190 0.77246 0.52262
 H138 H 0.94472 0.75540 0.54161
 C139 C 0.91682 0.79410 0.52381
 H140 H 0.90031 0.79320 0.54356
 Zn141 Zn 1.00025 0.74799 0.49861
 N142 N 0.96342 0.77371 0.49841
 C143 C 0.97818 0.72299 0.43970
 N144 N 1.00202 0.72269 0.46178
 C145 C 1.02691 0.70227 0.45963
 C146 C 1.02848 0.68096 0.43456
 C147 C 0.97881 0.70201 0.41421
 C148 C 1.03617 0.79567 0.52550
 C149 C 1.06012 0.81819 0.52774
 C150 C 1.08206 0.79911 0.47827
 C151 C 1.05772 0.77680 0.47702
 N152 N 1.03545 0.77548 0.50053
 H153 H 0.95823 0.73888 0.44225
 H154 H 1.04524 0.70217 0.47784
 H155 H 1.04817 0.66448 0.43334
 H156 H 0.95943 0.70218 0.39715
 H157 H 1.01778 0.79448 0.54351
 H158 H 1.06007 0.83417 0.54766
 H159 H 1.09950 0.80030 0.45929
 H160 H 1.05626 0.76108 0.45696
 C161 C 0.91412 0.81723 0.49999
 C162 C 0.99980 0.67651 0.58332
 C163 C 1.08329 0.82015 0.50380
 C164 C 1.00406 0.68052 0.41172
 C165 C 0.46094 -0.02677 0.29845
 H166 H 0.47913 -0.04485 0.29851
 C167 C 0.43596 -0.02822 0.32031
 H168 H 0.43508 -0.04758 0.33710
 C169 C 0.44064 0.02090 0.27684
 H170 H 0.44289 0.04029 0.26026
 C171 C 0.41530 0.02041 0.29841
 H172 H 0.39794 0.03931 0.29817
 N173 N 0.46271 -0.00261 0.27715
 C174 C 0.52178 -0.03940 0.20070
 H175 H 0.54026 -0.02173 0.20010
 C176 C 0.52214 -0.06386 0.17876
 H177 H 0.54113 -0.06499 0.16133
 C178 C 0.47410 -0.05878 0.22363
 H179 H 0.45504 -0.05633 0.24071
 C180 C 0.47348 -0.08365 0.20206
 H181 H 0.45398 -0.10013 0.20326
 Zn182 Zn 0.49845 -0.00205 0.24979
 N183 N 0.49810 -0.03737 0.22266
 C184 C 0.55660 -0.02648 0.27489
 N185 N 0.53515 -0.00246 0.27610
 C186 C 0.53801 0.02087 0.29792
 C187 C 0.56327 0.02064 0.31966
 C188 C 0.58221 -0.02762 0.29623
 C189 C 0.47334 0.03593 0.20168
 C190 C 0.47222 0.06050 0.17951
 C191 C 0.52125 0.08055 0.20173
 C192 C 0.52147 0.05555 0.22351
 N193 N 0.49767 0.03389 0.22309
 H194 H 0.55349 -0.04522 0.25795
 H195 H 0.52029 0.03937 0.29873
 H196 H 0.56511 0.03911 0.33720
 H197 H 0.59877 -0.04711 0.29523
 H198 H 0.45503 0.01808 0.20155
 H199 H 0.45283 0.06147 0.16250
 H200 H 0.54047 0.09748 0.20193
 H201 H 0.54099 0.05312 0.24021
 C202 C 0.49769 -0.08633 0.17910
 C203 C 0.41286 -0.00436 0.32043
 C204 C 0.49655 0.08299 0.17928
 C205 C 0.58551 -0.00397 0.31908
 C206 C 0.53754 -0.02429 0.70129
 H207 H 0.51931 -0.04221 0.70187
 C208 C 0.56237 -0.02630 0.67932
 H209 H 0.56314 -0.04596 0.66315
 C210 C 0.55793 0.02364 0.72117
 H211 H 0.55574 0.04339 0.73707
 C212 C 0.58313 0.02260 0.69947
 H213 H 0.60045 0.04141 0.69893
 N214 N 0.53585 0.00029 0.72175
 C215 C 0.47550 -0.03378 0.79887
 H216 H 0.45759 -0.01543 0.79880
 C217 C 0.47410 -0.05797 0.82143
 H218 H 0.45492 -0.05811 0.83860
 C219 C 0.52274 -0.05527 0.77686
 H220 H 0.54199 -0.05379 0.75988
 C221 C 0.52223 -0.07990 0.79905
 H222 H 0.54095 -0.09749 0.79887
 Zn223 Zn 0.49995 0.00192 0.74886
 N224 N 0.49943 -0.03294 0.77706
 C225 C 0.44200 -0.02210 0.72386
 N226 N 0.46348 0.00174 0.72227
 C227 C 0.46084 0.02488 0.69989
 C228 C 0.43577 0.02464 0.67793
 C229 C 0.41660 -0.02327 0.70231
 C230 C 0.52523 0.04044 0.79579
 C231 C 0.52619 0.06517 0.81741
 C232 C 0.47696 0.08506 0.79491
 C233 C 0.47693 0.05993 0.77362
 N234 N 0.50085 0.03825 0.77449
 H235 H 0.44493 -0.04071 0.74126
 H236 H 0.47859 0.04324 0.69879
 H237 H 0.43410 0.04295 0.65993
 H238 H 0.40003 -0.04264 0.70363
 H239 H 0.54361 0.02256 0.79633
 H240 H 0.54549 0.06644 0.83457
 H241 H 0.45754 0.10184 0.79429
 H242 H 0.45737 0.05735 0.75705
 C243 C 0.49773 -0.08131 0.82167
 C244 C 0.58542 -0.00257 0.67822
 C245 C 0.50169 0.08760 0.81727
 C246 C 0.41354 0.00018 0.67887
 C247 C 0.29265 0.02445 0.45823
 H248 H 0.29347 0.04304 0.47568
 C249 C 0.31442 0.02416 0.43312
 H250 H 0.33195 0.04269 0.43109
 C251 C 0.26990 -0.02328 0.44049
 H252 H 0.25317 -0.04222 0.44398
 C253 C 0.29127 -0.02449 0.41503
 H254 H 0.29047 -0.04422 0.39894
 N255 N 0.27108 0.00087 0.46154
 C256 C 0.19886 0.03807 0.52580
 H257 H 0.19967 0.02009 0.54416
 C258 C 0.17691 0.06265 0.52794
 H259 H 0.16097 0.06348 0.54815
 C260 C 0.21819 0.05807 0.47664
 H261 H 0.23389 0.05583 0.45639
 C262 C 0.19651 0.08305 0.47782
 H263 H 0.19577 0.10015 0.45858
 Zn264 Zn 0.24594 0.00065 0.49888
 N265 N 0.21900 0.03627 0.50052
 C266 C 0.27518 0.02337 0.55575
 N267 N 0.27466 0.00008 0.53369
 C268 C 0.29612 -0.02393 0.53469
 C269 C 0.31892 -0.02553 0.55892
 C270 C 0.29772 0.02274 0.58035
 C271 C 0.19669 -0.03771 0.47699
 C272 C 0.17525 -0.06271 0.47750
 C273 C 0.20038 -0.08177 0.52582
 C274 C 0.22140 -0.05643 0.52439
 N275 N 0.21929 -0.03511 0.50013
 H276 H 0.25847 0.04268 0.55409
 H277 H 0.29553 -0.04180 0.51648
 H278 H 0.33577 -0.04481 0.55922
 H279 H 0.29811 0.04142 0.59775
 H280 H 0.19518 -0.02012 0.45830
 H281 H 0.15720 -0.06446 0.45908
 H282 H 0.20221 -0.09832 0.54542
 H283 H 0.23894 -0.05354 0.54303
 C284 C 0.17551 0.08537 0.50364
 C285 C 0.31410 -0.00076 0.41150
 C286 C 0.17692 -0.08494 0.50222
 C287 C 0.31985 -0.00196 0.58206
 C288 C 0.70443 0.02375 0.53846
 H289 H 0.70346 0.04204 0.52044
 C290 C 0.68253 0.02371 0.56347
 H291 H 0.66471 0.04213 0.56482
 C292 C 0.72789 -0.02339 0.55794
 H293 H 0.74497 -0.04221 0.55523
 C294 C 0.70640 -0.02433 0.58331
 H295 H 0.70748 -0.04372 0.60009
 N296 N 0.72650 0.00040 0.53612
 C297 C 0.79893 0.03839 0.47226
 H298 H 0.79892 0.02032 0.45423
 C299 C 0.82031 0.06335 0.47005
 H300 H 0.83661 0.06438 0.45015
 C301 C 0.77827 0.05822 0.52072
 H302 H 0.76234 0.05574 0.54077
 C303 C 0.79937 0.08354 0.51949
 H304 H 0.79941 0.10067 0.53847
 Zn305 Zn 0.75254 0.00007 0.49935
 N306 N 0.77843 0.03631 0.49724
 C307 C 0.72365 0.02131 0.44137
 N308 N 0.72470 -0.00185 0.46389
 C309 C 0.70416 -0.02649 0.46303
 C310 C 0.68162 -0.02874 0.43864
 C311 C 0.70137 0.02002 0.41658
 C312 C 0.80204 -0.03644 0.52433
 C313 C 0.82394 -0.06114 0.52608
 C314 C 0.80145 -0.08212 0.47763
 C315 C 0.77983 -0.05708 0.47686
 N316 N 0.78035 -0.03501 0.50019
 H317 H 0.73961 0.04111 0.44291
 H318 H 0.70514 -0.04425 0.48159
 H319 H 0.66539 -0.04842 0.43854
 H320 H 0.70046 0.03869 0.39892
 H321 H 0.80229 -0.01825 0.54222
 H322 H 0.84099 -0.06180 0.54546
 H323 H 0.80100 -0.09951 0.45890
 H324 H 0.76301 -0.05511 0.45741
 C325 C 0.82077 0.08614 0.49401
 C326 C 0.68320 -0.00074 0.58599
 C327 C 0.82374 -0.08430 0.50250
 C328 C 0.68002 -0.00519 0.41516
 C329 C 0.47775 0.20044 1.03734
 H330 H 0.45955 0.20024 1.01902
 C331 C 0.47673 0.17863 1.06227
 H332 H 0.45759 0.16163 1.06324
 C333 C 0.52546 0.22225 1.05792
 H334 H 0.54474 0.23888 1.05575
 C335 C 0.52539 0.20073 1.08326
 H336 H 0.54452 0.20117 1.10060
 N337 N 0.50179 0.22175 1.03566
 C338 C 0.46318 0.29638 0.97500
 H339 H 0.48085 0.29686 0.95625
 C340 C 0.43833 0.31830 0.97489
 H341 H 0.43676 0.33564 0.95592
 C342 C 0.44442 0.27412 1.02339
 H343 H 0.44732 0.25743 1.04269
 C344 C 0.41923 0.29564 1.02421
 H345 H 0.40281 0.29501 1.04404
 Zn346 Zn 0.50213 0.24844 0.99944
 N347 N 0.46579 0.27490 0.99904
 C348 C 0.47938 0.22280 0.94087
 N349 N 0.50277 0.22202 0.96341
 C350 C 0.52687 0.20061 0.96215
 C351 C 0.52825 0.17894 0.93740
 C352 C 0.47984 0.20148 0.91567
 C353 C 0.54063 0.29621 1.02360
 C354 C 0.56541 0.31803 1.02374
 C355 C 0.58497 0.29562 0.97473
 C356 C 0.55983 0.27420 0.97552
 N357 N 0.53828 0.27489 0.99971
 H358 H 0.46004 0.23951 0.94269
 H359 H 0.54485 0.20021 0.98069
 H360 H 0.54749 0.16199 0.93702
 H361 H 0.46097 0.20200 0.89799
 H362 H 0.52285 0.29660 1.04224
 H363 H 0.56679 0.33522 1.04261
 H364 H 0.60156 0.29506 0.95505
 H365 H 0.55714 0.25762 0.95633
 C366 C 0.41626 0.31823 0.99990
 C367 C 0.50085 0.17853 1.08541
 C368 C 0.58769 0.31802 0.99892
 C369 C 0.50441 0.17916 0.91393
 C370 C 0.47534 0.80072 -0.03756
 H371 H 0.45696 0.80122 -0.01951
 C372 C 0.47489 0.82268 -0.06238
 H373 H 0.45600 0.84007 -0.06357
 C374 C 0.52302 0.77813 -0.05741
 H375 H 0.54211 0.76119 -0.05496
 C376 C 0.52350 0.79976 -0.08266
 H377 H 0.54284 0.79905 -0.09965
 N378 N 0.49912 0.77900 -0.03554
 C379 C 0.46001 0.70506 0.02512
 H380 H 0.47769 0.70452 0.04396
 C381 C 0.43523 0.68326 0.02512
 H382 H 0.43371 0.66594 0.04410
 C383 C 0.44121 0.72735 -0.02340
 H384 H 0.44409 0.74400 -0.04271
 C385 C 0.41606 0.70594 -0.02432
 H386 H 0.39964 0.70659 -0.04424
 Zn387 Zn 0.49905 0.75253 0.00083
 N388 N 0.46260 0.72648 0.00105
 C389 C 0.47602 0.77887 0.05889
 N390 N 0.49958 0.77923 0.03664
 C391 C 0.52366 0.80050 0.03792
 C392 C 0.52480 0.82253 0.06235
 C393 C 0.47627 0.80054 0.08378
 C394 C 0.53744 0.70418 -0.02254
 C395 C 0.56209 0.68207 -0.02225
 C396 C 0.58138 0.70447 0.02691
 C397 C 0.55639 0.72621 0.02568
 N398 N 0.53504 0.72566 0.00120
 H399 H 0.45671 0.76225 0.05705
 H400 H 0.54178 0.80055 0.01960
 H401 H 0.54401 0.83941 0.06277
 H402 H 0.45727 0.80036 0.10122
 H403 H 0.51980 0.70392 -0.04141
 H404 H 0.56355 0.66479 -0.04103
 H405 H 0.59785 0.70494 0.04679
 H406 H 0.55365 0.74294 0.04472
 C407 C 0.41317 0.68337 -0.00001
 C408 C 0.49930 0.82245 -0.08509
 C409 C 0.58417 0.68193 0.00286
 C410 C 0.50077 0.82278 0.08547
 C411 C 1.04087 0.47379 0.20155
 H412 H 1.02231 0.45620 0.20197
 C413 C 1.06550 0.47170 0.17936
 H414 H 1.06584 0.45230 0.16285
 C415 C 1.06223 0.52108 0.22199
 H416 H 1.06046 0.54066 0.23815
 C417 C 1.08724 0.51995 0.20006
 H418 H 1.10486 0.53850 0.19964
 N419 N 1.03973 0.49812 0.22237
 C420 C 0.97784 0.46422 0.29850
 H421 H 0.96019 0.48281 0.29839
 C422 C 0.97596 0.43996 0.32096
 H423 H 0.95666 0.43995 0.33801
 C424 C 1.02505 0.44231 0.27687
 H425 H 1.04453 0.44369 0.26013
 C426 C 1.02406 0.41760 0.29897
 H427 H 1.04263 0.39985 0.29895
 Zn428 Zn 1.00379 0.50027 0.24942
 N429 N 1.00205 0.46494 0.27699
 C430 C 0.94492 0.47900 0.22330
 N431 N 0.96750 0.50188 0.22260
 C432 C 0.96604 0.52582 0.20100
 C433 C 0.94093 0.52767 0.17918
 C434 C 0.91944 0.47988 0.20176
 C435 C 1.03015 0.53758 0.29702
 C436 C 1.03184 0.56214 0.31883
 C437 C 0.98313 0.58341 0.29651
 C438 C 0.98235 0.55843 0.27509
 N439 N 1.00570 0.53616 0.27572
 H440 H 0.94692 0.45972 0.24007
 H441 H 0.98467 0.54335 0.20059
 H442 H 0.94035 0.54680 0.16209
 H443 H 0.90173 0.46143 0.20224
 H444 H 1.04808 0.51924 0.29737
 H445 H 1.05127 0.56263 0.33581
 H446 H 0.96420 0.60078 0.29616
 H447 H 0.96267 0.55649 0.25857
 C448 C 0.99939 0.41643 0.32140
 C449 C 1.08891 0.49510 0.17839
 C450 C 1.00795 0.58524 0.31883
 C451 C 0.91737 0.50440 0.17938
 C452 C -0.04087 0.47573 0.79944
 H453 H -0.02313 0.45726 0.80079
 C454 C -0.06593 0.47636 0.82128
 H455 H -0.06761 0.45820 0.83942
 C456 C -0.05960 0.52274 0.77507
 H457 H -0.05659 0.54125 0.75761
 C458 C -0.08501 0.52426 0.79647
 H459 H -0.10152 0.54378 0.79496
 N460 N -0.03813 0.49875 0.77697
 C461 C 0.02462 0.46054 0.70408
 H462 H 0.04274 0.47857 0.70399
 C463 C 0.02601 0.43621 0.68202
 H464 H 0.04547 0.43559 0.66517
 C465 C -0.02348 0.44040 0.72550
 H466 H -0.04314 0.44259 0.74194
 C467 C -0.02301 0.41563 0.70377
 H468 H -0.04216 0.39863 0.70377
 Zn469 Zn -0.00138 0.49849 0.75093
 N470 N 0.00012 0.46226 0.72517
 C471 C 0.05663 0.47684 0.77926
 N472 N 0.03429 0.50010 0.77855
 C473 C 0.03559 0.52457 0.79919
 C474 C 0.06026 0.52654 0.82147
 C475 C 0.08170 0.47786 0.80124
 C476 C -0.02550 0.53400 0.70043
 C477 C -0.02671 0.55796 0.67759
 C478 C 0.02099 0.58004 0.70067
 C479 C 0.02130 0.55563 0.72313
 N480 N -0.00186 0.53332 0.72268
 H481 H 0.05476 0.45719 0.76320
 H482 H 0.01719 0.54244 0.79848
 H483 H 0.06075 0.54612 0.83775
 H484 H 0.09925 0.45914 0.80182
 H485 H -0.04329 0.51565 0.70031
 H486 H -0.04563 0.55795 0.66003
 H487 H 0.03962 0.59759 0.70102
 H488 H 0.04033 0.55427 0.74050
 C489 C 0.00178 0.41363 0.68152
 C490 C -0.08809 0.50103 0.82009
 C491 C -0.00317 0.58123 0.67754
 C492 C 0.08358 0.50289 0.82268
 C493 C 0.15933 0.14661 0.50290
 C494 C 0.13322 0.15131 0.47709
 C495 C 0.10860 0.15725 0.50354
 C496 C 0.13443 0.15288 0.52937
 C497 C 0.10056 0.12204 0.50505
 C498 C 0.12542 0.11582 0.47862
 C499 C 0.15123 0.11141 0.50443
 C500 C 0.12658 0.11740 0.53089
 H501 H 0.18377 0.15651 0.50203
 H502 H 0.13577 0.16550 0.45495
 H503 H 0.13859 0.16798 0.55043
 H504 H 0.07615 0.11208 0.50591
 H505 H 0.12184 0.10033 0.45774
 H506 H 0.12333 0.10378 0.55329
 C507 C 0.63471 0.65197 0.03064
 C508 C 0.62660 0.61653 0.03160
 C509 C 0.65167 0.61067 0.00553
 C510 C 0.66004 0.64583 0.00456
 C511 C 0.62637 0.61554 -0.02070
 C512 C 0.60108 0.62163 0.00536
 C513 C 0.60938 0.65680 0.00440
 C514 C 0.63442 0.65098 -0.02167
 H515 H 0.63860 0.66677 0.05196
 H516 H 0.62286 0.60270 0.05379
 H517 H 0.68455 0.65558 0.00424
 H518 H 0.62308 0.60029 -0.04181
 H519 H 0.57659 0.61182 0.00567
 H520 H 0.63747 0.66541 -0.04359
 C521 C 0.87262 -0.11746 0.52913
 C522 C 0.86403 -0.15277 0.52797
 C523 C 0.88918 -0.15744 0.50172
 C524 C 0.89796 -0.12240 0.50289
 C525 C 0.86411 -0.15080 0.47566
 C526 C 0.83868 -0.14580 0.50189
 C527 C 0.84753 -0.11077 0.50306
 C528 C 0.87266 -0.11549 0.47684
 H529 H 0.87660 -0.10407 0.55139
 H530 H 0.86006 -0.16796 0.54919
 H531 H 0.92258 -0.11292 0.50328
 H532 H 0.86078 -0.16477 0.45366
 H533 H 0.81404 -0.15522 0.50150
 H534 H 0.87608 -0.09989 0.45581
 C535 C 0.39942 0.37848 1.00221
 C536 C 0.37404 0.38502 0.97613
 C537 C 0.34886 0.38957 1.00233
 C538 C 0.37403 0.38325 1.02842
 C539 C 0.34040 0.35445 1.00131
 C540 C 0.36591 0.34959 0.97511
 C541 C 0.39104 0.34334 1.00121
 C542 C 0.36581 0.34786 1.02742
 H543 H 0.42394 0.38822 1.00256
 H544 H 0.37729 0.40056 0.95503
 H545 H 0.37795 0.39669 1.05066
 H546 H 0.31586 0.34476 1.00095
 H547 H 0.36274 0.33549 0.95317
 H548 H 0.36192 0.33278 1.04873
 C549 C 0.83616 0.14754 0.49482
 C550 C 0.86191 0.15199 0.52095
 C551 C 0.88678 0.15840 0.49481
 C552 C 0.86131 0.15429 0.46866
 C553 C 0.89521 0.12324 0.49338
 C554 C 0.87012 0.11656 0.51950
 C555 C 0.84467 0.11239 0.49339
 C556 C 0.86957 0.11884 0.46723
 H557 H 0.81160 0.15733 0.49539
 H558 H 0.85893 0.16587 0.54306
 H559 H 0.85728 0.16968 0.44756
 H560 H 0.91974 0.11338 0.49282
 H561 H 0.87362 0.10080 0.54043
 H562 H 0.87321 0.10555 0.44487
 C563 C 0.36270 0.65383 -0.02760
 C564 C 0.37127 0.61847 -0.02887
 C565 C 0.34640 0.61190 -0.00271
 C566 C 0.33758 0.64699 -0.00143
 C567 C 0.37177 0.61638 0.02342
 C568 C 0.39684 0.62317 -0.00272
 C569 C 0.38811 0.65827 -0.00146
 C570 C 0.36328 0.65176 0.02470
 H571 H 0.35849 0.66906 -0.04878
 H572 H 0.37512 0.60518 -0.05120
 H573 H 0.31295 0.65658 -0.00092
 H574 H 0.37538 0.60072 0.04440
 H575 H 0.42145 0.61351 -0.00323
 H576 H 0.36017 0.66572 0.04674
 C577 C 0.15006 -0.13678 0.52943
 C578 C 0.11372 -0.13058 0.53114
 C579 C 0.10850 -0.15488 0.50460
 C580 C 0.14457 -0.16134 0.50288
 C581 C 0.11134 -0.12907 0.47889
 C582 C 0.11678 -0.10456 0.50541
 C583 C 0.15285 -0.11096 0.50370
 C584 C 0.14767 -0.13522 0.47717
 H585 H 0.16584 -0.14040 0.55043
 H586 H 0.10008 -0.12817 0.55363
 H587 H 0.15580 -0.18495 0.50185
 H588 H 0.09516 -0.12606 0.45809
 H589 H 0.10549 -0.08096 0.50643
 H590 H 0.16189 -0.13693 0.45496
 C591 C 0.63755 0.34899 1.02420
 C592 C 0.66352 0.35385 0.99843
 C593 C 0.65501 0.38902 0.99693
 C594 C 0.62935 0.38445 1.02271
 C595 C 0.63032 0.38294 0.97044
 C596 C 0.63860 0.34750 0.97192
 C597 C 0.61291 0.34298 0.99771
 C598 C 0.60447 0.37815 0.99623
 H599 H 0.64035 0.33477 1.04633
 H600 H 0.68808 0.34406 0.99932
 H601 H 0.62569 0.39991 1.04360
 H602 H 0.62681 0.39651 0.94802
 H603 H 0.64287 0.33247 0.95084
 H604 H 0.57994 0.38801 0.99535
 C605 C 0.50044 0.11864 1.10386
 C606 C 0.52487 0.11314 1.13105
 C607 C 0.49713 0.10875 1.15460
 C608 C 0.47267 0.11403 1.12759
 C609 C 0.49721 0.14408 1.16210
 C610 C 0.52498 0.14876 1.13825
 C611 C 0.50048 0.15397 1.11128
 C612 C 0.47277 0.14963 1.13483
 H613 H 0.50188 0.10831 1.07966
 H614 H 0.54630 0.09784 1.12962
 H615 H 0.45093 0.10010 1.12265
 H616 H 0.49578 0.15434 1.18632
 H617 H 0.54664 0.16291 1.14291
 H618 H 0.45134 0.16493 1.13624
 C619 C 0.02491 0.61175 0.62936
 C620 C 0.00068 0.61651 0.60183
 C621 C -0.00032 0.65186 0.60912
 C622 C 0.02396 0.64739 0.63641
 C623 C -0.02820 0.64688 0.63235
 C624 C -0.02724 0.61126 0.62527
 C625 C -0.00298 0.60673 0.65258
 C626 C -0.00396 0.64208 0.65993
 H627 H 0.04676 0.59701 0.62825
 H628 H 0.00269 0.60614 0.57770
 H629 H 0.04519 0.66209 0.64133
 H630 H -0.05005 0.66162 0.63343
 H631 H -0.04853 0.59672 0.62017
 H632 H -0.00596 0.65240 0.68408
 C633 C 0.50052 0.88249 -0.10303
 C634 C 0.52517 0.88740 -0.12999
 C635 C 0.49763 0.89286 -0.15372
 C636 C 0.47296 0.88817 -0.12697
 C637 C 0.49679 0.85760 -0.16150
 C638 C 0.52435 0.85185 -0.13747
 C639 C 0.49965 0.84722 -0.11074
 C640 C 0.47213 0.85264 -0.13448
 H641 H 0.50216 0.89258 -0.07874
 H642 H 0.54698 0.90199 -0.12826
 H643 H 0.45158 0.90277 -0.12210
 H644 H 0.49516 0.84757 -0.18581
 H645 H 0.54564 0.83703 -0.14208
 H646 H 0.45031 0.83805 -0.13619
 C647 C 0.99806 0.35528 0.33895
 C648 C 1.02484 0.34959 0.36377
 C649 C 1.00063 0.34627 0.38898
 C650 C 0.97399 0.35059 0.36646
 C651 C 1.00164 0.37986 0.39692
 C652 C 1.02642 0.38525 0.37025
 C653 C 0.99900 0.39079 0.34618
 C654 C 0.97423 0.38627 0.37306
 H655 H 0.99648 0.34418 0.31512
 H656 H 1.04584 0.33415 0.36005
 H657 H 0.95263 0.33524 0.36589
 H658 H 1.00328 0.38888 0.42167
 H659 H 1.04858 0.39925 0.37262
 H660 H 0.95271 0.40058 0.37825
 C661 C 0.50088 0.84010 0.14732
 C662 C 0.52455 0.86748 0.15214
 C663 C 0.49759 0.88937 0.15563
 C664 C 0.47373 0.86427 0.15216
 C665 C 0.49698 0.89714 0.12140
 C666 C 0.52476 0.87394 0.11583
 C667 C 0.50038 0.84717 0.11116
 C668 C 0.47260 0.87058 0.11583
 H669 H 0.50258 0.81666 0.15897
 H670 H 0.54568 0.86718 0.16817
 H671 H 0.45254 0.86041 0.16745
 H672 H 0.49517 0.92148 0.11183
 H673 H 0.54642 0.87931 0.10170
 H674 H 0.45063 0.87264 0.10114
 C675 C -0.02623 0.38489 0.63252
 C676 C -0.00155 0.37999 0.60563
 C677 C -0.00190 0.34446 0.61252
 C678 C -0.02665 0.34907 0.63917
 C679 C 0.02558 0.34795 0.63658
 C680 C 0.02599 0.38374 0.62988
 C681 C 0.00128 0.38843 0.65657
 C682 C 0.00088 0.35290 0.66355
 H683 H -0.04754 0.40036 0.63096
 H684 H -0.00266 0.39101 0.58158
 H685 H -0.04846 0.33493 0.64326
 H686 H 0.04689 0.33247 0.63811
 H687 H 0.04790 0.39761 0.62547
 H688 H 0.00198 0.34196 0.68763
 C689 C 0.52898 0.12878 0.88292
 C690 C 0.50146 0.10525 0.87791
 C691 C 0.50170 0.11293 0.84201
 C692 C 0.52917 0.13629 0.84676
 C693 C 0.47693 0.13926 0.84683
 C694 C 0.47675 0.13180 0.88302
 C695 C 0.50425 0.15514 0.88782
 C696 C 0.50445 0.16291 0.85193
 H697 H 0.55064 0.12392 0.89739
 H698 H 0.50013 0.08129 0.88845
 H699 H 0.55072 0.13799 0.83155
 H700 H 0.45537 0.14385 0.83211
 H701 H 0.45519 0.13006 0.89822
 H702 H 0.50577 0.18690 0.84146
 C703 C 0.98030 0.61531 0.36703
 C704 C 1.00498 0.62070 0.39389
 C705 C 1.00464 0.65607 0.38606
 C706 C 0.97990 0.65093 0.35941
 C707 C 1.03213 0.65176 0.36227
 C708 C 1.03251 0.61612 0.36989
 C709 C 1.00779 0.61094 0.34322
 C710 C 1.00743 0.64629 0.33532
 H711 H 0.95897 0.60003 0.36888
 H712 H 1.00387 0.61031 0.41821
 H713 H 0.95809 0.66508 0.35475
 H714 H 1.05345 0.66705 0.36046
 H715 H 1.05438 0.60211 0.37467
 H716 H 1.00853 0.65662 0.31097
 C717 C 1.12071 0.46854 0.12880
 C718 C 1.12591 0.49423 0.10315
 C719 C 1.16002 0.49516 0.11137
 C720 C 1.15690 0.47016 0.13566
 C721 C 1.15546 0.52034 0.13481
 C722 C 1.11923 0.52004 0.12799
 C723 C 1.11492 0.49439 0.15385
 C724 C 1.15097 0.49536 0.16139
 H725 H 1.10724 0.44649 0.12498
 H726 H 1.11671 0.49375 0.07829
 H727 H 1.17273 0.44945 0.13887
 H728 H 1.17083 0.54148 0.13625
 H729 H 1.10402 0.54111 0.12403
 H730 H 1.16228 0.49586 0.18534
 C731 C 0.62233 -0.00384 0.60334
 C732 C 0.61812 -0.02929 0.62949
 C733 C 0.61175 -0.00323 0.65399
 C734 C 0.61573 0.02219 0.62805
 C735 C 0.64749 -0.00155 0.66214
 C736 C 0.65414 -0.02762 0.63739
 C737 C 0.65808 -0.00217 0.61143
 C738 C 0.65176 0.02388 0.63589
 H739 H 0.61212 -0.00476 0.57892
 H740 H 0.60463 -0.05143 0.62635
 H741 H 0.59967 0.04268 0.62434
 H742 H 0.65764 -0.00062 0.68659
 H743 H 0.66978 -0.04829 0.64170
 H744 H 0.66585 0.04576 0.63835
 C745 C -0.10587 0.50510 0.88081
 C746 C -0.13175 0.53080 0.88439
 C747 C -0.15660 0.50502 0.89096
 C748 C -0.13093 0.47935 0.88762
 C749 C -0.16447 0.50295 0.85518
 C750 C -0.13936 0.52874 0.84832
 C751 C -0.11367 0.50304 0.84502
 C752 C -0.13849 0.47727 0.85156
 H753 H -0.08152 0.50595 0.89121
 H754 H -0.12851 0.55307 0.89758
 H755 H -0.12760 0.45903 0.90404
 H756 H -0.18883 0.50209 0.84483
 H757 H -0.14329 0.54926 0.83230
 H758 H -0.14108 0.45523 0.83781
 C759 C 0.37509 -0.00418 0.39486
 C760 C 0.37976 -0.03012 0.36964
 C761 C 0.38625 -0.00454 0.34435
 C762 C 0.38180 0.02138 0.36937
 C763 C 0.35060 -0.00300 0.33572
 C764 C 0.34382 -0.02859 0.36127
 C765 C 0.33942 -0.00265 0.38631
 C766 C 0.34586 0.02292 0.36105
 H767 H 0.38501 -0.00463 0.41942
 H768 H 0.39335 -0.05220 0.37370
 H769 H 0.39770 0.04192 0.37257
 H770 H 0.34074 -0.00254 0.31113
 H771 H 0.32834 -0.04933 0.35748
 H772 H 0.33166 0.04475 0.35769
 C773 C 0.14564 0.50291 0.83891
 C774 C 0.15163 0.52863 0.86418
 C775 C 0.15648 0.50280 0.88964
 C776 C 0.15081 0.47709 0.86466
 C777 C 0.12073 0.50349 0.89775
 C778 C 0.11561 0.52934 0.87210
 C779 C 0.10990 0.50363 0.84707
 C780 C 0.11478 0.47781 0.87251
 H781 H 0.15569 0.50268 0.81446
 H782 H 0.16660 0.54974 0.86026
 H783 H 0.16554 0.45559 0.86176
 H784 H 0.11063 0.50371 0.92219
 H785 H 0.10146 0.55109 0.87568
 H786 H 0.09936 0.45689 0.87580
 C787 C 0.62927 0.01936 0.38533
 C788 C 0.63625 0.02070 0.34913
 C789 C 0.61148 -0.00534 0.34379
 C790 C 0.60426 -0.00666 0.37973
 C791 C 0.63738 -0.03082 0.34774
 C792 C 0.66244 -0.00476 0.35341
 C793 C 0.65514 -0.00608 0.38933
 C794 C 0.63035 -0.03214 0.38395
 H795 H 0.62608 0.04001 0.40104
 H796 H 0.63850 0.04244 0.33456
 H797 H 0.58008 -0.00743 0.39041
 H798 H 0.64116 -0.05165 0.33243
 H799 H 0.68664 -0.00398 0.34278
 H800 H 0.62741 -0.05414 0.39795
 C801 C 0.88601 0.47892 0.13041
 C802 C 0.85008 0.47789 0.13863
 C803 C 0.84375 0.50347 0.11327
 C804 C 0.87940 0.50449 0.10481
 C805 C 0.84841 0.52942 0.13825
 C806 C 0.85507 0.50383 0.16389
 C807 C 0.89071 0.50486 0.15536
 C808 C 0.88433 0.53044 0.12997
 H809 H 0.90175 0.45815 0.12732
 H810 H 0.83573 0.45626 0.14202
 H811 H 0.88927 0.50473 0.08027
 H812 H 0.83312 0.55040 0.14194
 H813 H 0.84526 0.50357 0.18845
 H814 H 0.89807 0.55233 0.12590
 C815 C 0.33698 -0.00114 0.64386
 C816 C 0.36235 -0.02700 0.65014
 C817 C 0.38784 -0.00133 0.65391
 C818 C 0.36275 0.02452 0.64795
 C819 C 0.39540 -0.00265 0.61807
 C820 C 0.36973 -0.02833 0.61403
 C821 C 0.34460 -0.00247 0.60802
 C822 C 0.37006 0.02318 0.61183
 H823 H 0.31268 -0.00053 0.65427
 H824 H 0.35871 -0.04784 0.66572
 H825 H 0.36007 0.04627 0.66217
 H826 H 0.41969 -0.00325 0.60761
 H827 H 0.37311 -0.05034 0.60041
 H828 H 0.37308 0.04382 0.59581
   
