data_POSCAR
  _audit_creation_date              2014-09-24
  _audit_creation_method            'ToBaCCo'
  _symmetry_space_group_name_H-M    'P1'
  _symmetry_Int_Tables_number       1
  _symmetry_cell_setting            triclinic
  loop_
  _symmetry_equiv_pos_as_xyz
 x,y,z
_cell_length_a 20.3619
_cell_length_b 20.3429
_cell_length_c 20.3787
_cell_angle_alpha 90.031300
_cell_angle_beta 90.085400
_cell_angle_gamma 90.006800
loop_
  _atom_site_label
  _atom_site_type_symbol
  _atom_site_fract_x
  _atom_site_fract_y
  _atom_site_fract_z
O1 O -0.16541 0.09436 0.00696
 O2 O 0.17136 0.09014 -0.00325
 O3 O 0.00116 0.17053 0.09028
 O4 O 0.00331 0.17361 -0.08686
 O5 O 0.00347 0.09483 -0.16806
 O6 O -0.00033 0.08966 0.16947
 O7 O 0.09215 0.17102 -0.00210
 O8 O -0.08436 0.17343 0.00616
 Zr9 Zr 0.00288 0.11853 0.00090
 O10 O 0.06124 0.06303 -0.05977
 O11 O -0.05694 0.06238 0.05977
 C12 C -0.14511 0.15487 0.00958
 C13 C 0.15264 0.15109 -0.00452
 C14 C -0.00145 0.15062 0.15070
 C15 C 0.00412 0.15553 -0.14799
 H16 H 0.09035 0.08876 0.08767
 O17 O 0.06186 0.06128 0.05945
 H18 H -0.08612 0.09305 -0.08591
 O19 O -0.05794 0.06422 -0.05880
 O20 O 0.16918 -0.08699 0.00063
 O21 O -0.16843 -0.08405 -0.00413
 O22 O 0.09086 -0.00303 0.16752
 O23 O 0.08873 0.00708 -0.16980
 O24 O -0.08907 0.00286 -0.16882
 O25 O -0.08669 0.00368 0.16847
 O26 O 0.00108 -0.16756 0.08624
 O27 O -0.00279 -0.16438 -0.09171
 O28 O 0.00267 -0.08808 0.16677
 O29 O -0.00216 -0.08280 -0.17033
 O30 O 0.17057 -0.00221 0.08725
 O31 O -0.16694 0.00529 0.08855
 O32 O -0.16830 0.00538 -0.08830
 O33 O 0.16947 0.00528 -0.09038
 O34 O 0.08868 -0.16672 0.00072
 O35 O -0.08933 -0.16500 -0.00557
 Zr36 Zr 0.11669 0.00212 -0.00118
 Zr37 Zr -0.11400 0.00440 -0.00010
 Zr38 Zr 0.00192 0.00157 0.11474
 Zr39 Zr 0.00041 0.00497 -0.11591
 Zr40 Zr 0.00014 -0.11258 -0.00200
 O41 O -0.05914 -0.05503 -0.06056
 O42 O 0.06053 -0.05780 0.05783
 C43 C 0.14953 -0.14761 0.00262
 C44 C -0.15003 -0.14522 -0.00663
 C45 C 0.15144 -0.00493 0.14794
 C46 C 0.14965 0.00774 -0.15097
 C47 C -0.14983 0.00338 -0.14925
 C48 C -0.14750 0.00502 0.14920
 C49 C 0.00196 -0.14893 0.14732
 C50 C -0.00351 -0.14380 -0.15200
 H51 H -0.08668 -0.08468 0.08546
 O52 O -0.05831 -0.05645 0.05803
 H53 H 0.08751 -0.08390 -0.08909
 O54 O 0.05960 -0.05596 -0.06085
 O55 O 0.33256 0.59108 0.00211
 O56 O 0.67044 0.59374 -0.00274
 O57 O 0.49777 0.67285 0.08793
 O58 O 0.50401 0.67193 -0.08982
 O59 O 0.50415 0.59101 -0.16914
 O60 O 0.49767 0.59310 0.16806
 O61 O 0.58974 0.67324 -0.00308
 O62 O 0.41215 0.67172 0.00167
 Zr63 Zr 0.50130 0.61904 -0.00071
 O64 O 0.56102 0.56294 -0.05973
 O65 O 0.44163 0.56299 0.05858
 C66 C 0.35157 0.65197 0.00378
 C67 C 0.65069 0.65447 -0.00464
 C68 C 0.49583 0.65399 0.14883
 C69 C 0.50534 0.65186 -0.15030
 H70 H 0.58849 0.59209 0.08707
 O71 O 0.56082 0.56362 0.05903
 H72 H 0.41418 0.59027 -0.08813
 O73 O 0.44237 0.56232 -0.06014
 O74 O 0.67170 0.41616 0.00393
 O75 O 0.33416 0.41315 -0.00459
 O76 O 0.58963 0.50289 0.16858
 O77 O 0.59090 0.50610 -0.16858
 O78 O 0.41297 0.50086 -0.16973
 O79 O 0.41222 0.50459 0.16765
 O80 O 0.50300 0.33466 0.08882
 O81 O 0.49959 0.33390 -0.08954
 O82 O 0.50299 0.41546 0.16830
 O83 O 0.49838 0.41415 -0.16933
 O84 O 0.67035 0.50201 0.08949
 O85 O 0.33260 0.50319 0.08714
 O86 O 0.33320 0.50047 -0.08977
 O87 O 0.67102 0.50731 -0.08849
 O88 O 0.59265 0.33502 0.00495
 O89 O 0.41475 0.33344 -0.00374
 Zr90 Zr 0.61747 0.50426 0.00012
 Zr91 Zr 0.38658 0.50264 -0.00110
 Zr92 Zr 0.50133 0.50403 0.11470
 Zr93 Zr 0.50199 0.50272 -0.11572
 Zr94 Zr 0.50308 0.38752 -0.00039
 O95 O 0.44300 0.44304 -0.05995
 O96 O 0.56159 0.44451 0.05945
 C97 C 0.65318 0.35522 0.00720
 C98 C 0.35393 0.35246 -0.00604
 C99 C 0.65060 0.50152 0.15014
 C100 C 0.65160 0.50884 -0.14920
 C101 C 0.35205 0.49971 -0.15060
 C102 C 0.35153 0.50377 0.14797
 C103 C 0.50273 0.35451 0.14944
 C104 C 0.49623 0.35336 -0.15026
 H105 H 0.41479 0.41563 0.08566
 O106 O 0.44307 0.44386 0.05816
 H107 H 0.59038 0.41562 -0.08744
 O108 O 0.56223 0.44381 -0.05963
 O109 O -0.16648 0.59488 0.50028
 O110 O 0.17135 0.58942 0.49485
 O111 O 0.00157 0.67345 0.58492
 O112 O 0.00446 0.67101 0.40778
 O113 O 0.00270 0.59015 0.32853
 O114 O -0.00022 0.59454 0.66614
 O115 O 0.09238 0.67063 0.49332
 O116 O -0.08535 0.67377 0.49862
 Zr117 Zr 0.00272 0.61878 0.49727
 O118 O 0.06149 0.56137 0.43848
 O119 O -0.05739 0.56472 0.55794
 C120 C -0.14656 0.65562 0.49955
 C121 C 0.15284 0.65037 0.49210
 C122 C -0.00033 0.65496 0.64577
 C123 C 0.00383 0.65124 0.34717
 H124 H 0.08995 0.59081 0.58486
 O125 O 0.06142 0.56266 0.55738
 H126 H -0.08550 0.59065 0.41096
 O127 O -0.05767 0.56267 0.43923
 O128 O 0.16866 0.41208 0.50256
 O129 O -0.16896 0.41700 0.49703
 O130 O 0.09028 0.50233 0.66769
 O131 O 0.08924 0.50199 0.33022
 O132 O -0.08874 0.49993 0.33076
 O133 O -0.08695 0.50914 0.66825
 O134 O 0.00139 0.33546 0.59056
 O135 O -0.00393 0.33308 0.41267
 O136 O 0.00243 0.41694 0.66926
 O137 O -0.00332 0.41248 0.33193
 O138 O 0.17046 0.50021 0.58793
 O139 O -0.16725 0.50926 0.58843
 O140 O -0.16816 0.50273 0.41128
 O141 O 0.16973 0.50119 0.40996
 O142 O 0.08752 0.33302 0.50331
 O143 O -0.09002 0.33575 0.49772
 Zr144 Zr 0.11662 0.50164 0.49897
 Zr145 Zr -0.11430 0.50505 0.49958
 Zr146 Zr 0.00141 0.50483 0.61438
 Zr147 Zr 0.00062 0.50203 0.38368
 Zr148 Zr -0.00046 0.38773 0.50076
 O149 O -0.05931 0.44404 0.44072
 O150 O 0.06011 0.44361 0.55942
 C151 C 0.14851 0.35157 0.50445
 C152 C -0.15043 0.35597 0.49530
 C153 C 0.15106 0.50022 0.64867
 C154 C 0.15010 0.50154 0.34927
 C155 C -0.14936 0.50047 0.35053
 C156 C -0.14774 0.51113 0.64908
 C157 C 0.00278 0.35581 0.65103
 C158 C -0.00540 0.35192 0.35181
 H159 H -0.08750 0.41799 0.58762
 O160 O -0.05903 0.44537 0.55940
 H161 H 0.08673 0.41347 0.41294
 O162 O 0.05926 0.44242 0.44056
 O163 O 0.33122 0.08896 0.50115
 O164 O 0.66888 0.09402 0.49644
 O165 O 0.49469 0.17185 0.58732
 O166 O 0.49998 0.17214 0.41117
 O167 O 0.50119 0.09254 0.33067
 O168 O 0.49465 0.09169 0.66718
 O169 O 0.58760 0.17290 0.49642
 O170 O 0.41019 0.17017 0.50196
 Zr171 Zr 0.49967 0.11810 0.49914
 O172 O 0.56035 0.06341 0.43975
 O173 O 0.44086 0.06112 0.55807
 C174 C 0.34974 0.14999 0.50332
 C175 C 0.64859 0.15446 0.49446
 C176 C 0.49167 0.15248 0.64783
 C177 C 0.50039 0.15324 0.35043
 H178 H 0.58697 0.09189 0.58696
 O179 O 0.55975 0.06309 0.55879
 H180 H 0.41228 0.08886 0.41165
 O181 O 0.44109 0.06140 0.43950
 O182 O 0.67191 -0.08361 0.50083
 O183 O 0.33418 -0.08858 0.49480
 O184 O 0.58912 0.00252 0.66836
 O185 O 0.59045 0.00662 0.33078
 O186 O 0.41312 -0.00127 0.32976
 O187 O 0.41182 0.00400 0.66726
 O188 O 0.50625 -0.16610 0.58647
 O189 O 0.50050 -0.16600 0.40916
 O190 O 0.50482 -0.08647 0.66708
 O191 O 0.49968 -0.08546 0.32962
 O192 O 0.66988 0.00264 0.58911
 O193 O 0.33219 0.00263 0.58675
 O194 O 0.33297 -0.00283 0.40954
 O195 O 0.67057 0.00686 0.41095
 O196 O 0.59301 -0.16491 0.49932
 O197 O 0.41540 -0.16752 0.49490
 Zr198 Zr 0.61697 0.00444 0.49958
 Zr199 Zr 0.38601 0.00094 0.49839
 Zr200 Zr 0.50089 0.00256 0.61419
 Zr201 Zr 0.50160 0.00328 0.38350
 Zr202 Zr 0.50328 -0.11269 0.49820
 O203 O 0.44308 -0.05736 0.43896
 O204 O 0.56170 -0.05615 0.55851
 C205 C 0.65356 -0.14474 0.50022
 C206 C 0.35443 -0.14901 0.49279
 C207 C 0.65002 0.00190 0.64971
 C208 C 0.65119 0.00731 0.35018
 C209 C 0.35245 -0.00437 0.34895
 C210 C 0.35113 0.00500 0.64756
 C211 C 0.50692 -0.14705 0.64719
 C212 C 0.49822 -0.14641 0.34853
 H213 H 0.41490 -0.08629 0.58545
 O214 O 0.44274 -0.05781 0.55769
 H215 H 0.58972 -0.08315 0.41130
 O216 O 0.56169 -0.05538 0.43955
 C217 C 0.18810 0.26884 -0.00767
 C218 C 0.20410 0.20195 -0.01006
 C219 C 0.27056 0.18534 -0.02075
 C220 C 0.31947 0.23432 -0.02133
 C221 C 0.30301 0.30100 -0.01123
 C222 C 0.23623 0.31703 -0.00821
 C223 C 0.19992 0.35868 0.03997
 C224 C 0.14709 0.30585 0.04052
 H225 H 0.28524 0.13447 -0.02625
 H226 H 0.37023 0.21957 -0.02723
 H227 H 0.18306 0.40574 0.01796
 H228 H 0.22627 0.36358 0.08757
 H229 H 0.09984 0.32250 0.01877
 H230 H 0.14267 0.28012 0.08847
 C231 C 0.18884 -0.23235 0.48404
 C232 C 0.20467 -0.29924 0.48658
 C233 C 0.27166 -0.31650 0.48178
 C234 C 0.32072 -0.26774 0.48169
 C235 C 0.30387 -0.20064 0.48691
 C236 C 0.23711 -0.18437 0.48425
 C237 C 0.19758 -0.13987 0.52709
 C238 C 0.14465 -0.19257 0.52696
 H239 H 0.28653 -0.36759 0.48100
 H240 H 0.37168 -0.28289 0.48044
 H241 H 0.18256 -0.09425 0.50109
 H242 H 0.22040 -0.13205 0.57611
 H243 H 0.09911 -0.17725 0.50100
 H244 H 0.13684 -0.21546 0.57589
 C245 C 0.81654 0.73929 -0.01389
 C246 C 0.80075 0.80641 -0.01113
 C247 C 0.73329 0.82291 -0.01429
 C248 C 0.68453 0.77370 -0.01325
 C249 C 0.70154 0.70649 -0.00978
 C250 C 0.76840 0.69085 -0.01362
 C251 C 0.80868 0.64661 0.02870
 C252 C 0.86127 0.69956 0.02866
 H253 H 0.71767 0.87380 -0.01479
 H254 H 0.63356 0.78865 -0.01227
 H255 H 0.82377 0.60127 0.00225
 H256 H 0.78623 0.63865 0.07778
 H257 H 0.90678 0.68445 0.00271
 H258 H 0.86932 0.72223 0.07771
 C259 C 0.81393 0.23852 0.48698
 C260 C 0.79789 0.30538 0.48914
 C261 C 0.73093 0.32230 0.48269
 C262 C 0.68204 0.27328 0.48245
 C263 C 0.69905 0.20628 0.48867
 C264 C 0.76587 0.19034 0.48684
 C265 C 0.80532 0.14620 0.53011
 C266 C 0.85809 0.19902 0.53016
 H267 H 0.71595 0.37333 0.48060
 H268 H 0.63104 0.28819 0.48017
 H269 H 0.82065 0.10055 0.50441
 H270 H 0.78229 0.13862 0.57899
 H271 H 0.90364 0.18374 0.50430
 H272 H 0.86571 0.22209 0.57908
 C273 C 0.73914 0.19123 0.02893
 C274 C 0.80500 0.20690 0.01756
 C275 C 0.82174 0.27413 0.01377
 C276 C 0.77254 0.32268 0.01237
 C277 C 0.70547 0.30522 0.01513
 C278 C 0.69054 0.23915 0.02772
 C279 C 0.64437 0.19438 -0.00739
 C280 C 0.69683 0.14174 -0.00458
 H281 H 0.87240 0.28919 0.00792
 H282 H 0.78711 0.37337 0.00537
 H283 H 0.63527 0.21203 -0.05759
 H284 H 0.59996 0.18201 0.02129
 H285 H 0.71561 0.12737 -0.05377
 H286 H 0.68394 0.10013 0.02833
 C287 C 0.73805 -0.31062 0.49623
 C288 C 0.80518 -0.29491 0.49710
 C289 C 0.82175 -0.22751 0.49181
 C290 C 0.77268 -0.17857 0.49191
 C291 C 0.70565 -0.19547 0.49740
 C292 C 0.68982 -0.26240 0.49611
 C293 C 0.64616 -0.30114 0.54035
 C294 C 0.69911 -0.35378 0.54090
 H295 H 0.87259 -0.21206 0.48931
 H296 H 0.78757 -0.12753 0.48955
 H297 H 0.60034 -0.31703 0.51520
 H298 H 0.63884 -0.27719 0.58888
 H299 H 0.68363 -0.40018 0.51654
 H300 H 0.72286 -0.35990 0.58968
 C301 C 0.26603 0.31586 0.51007
 C302 C 0.19917 0.29979 0.50875
 C303 C 0.18222 0.23269 0.51369
 C304 C 0.23107 0.18374 0.51387
 C305 C 0.29806 0.20069 0.50837
 C306 C 0.31415 0.26761 0.50986
 C307 C 0.35747 0.30647 0.46529
 C308 C 0.30470 0.35928 0.46537
 H309 H 0.13126 0.21767 0.51454
 H310 H 0.21606 0.13270 0.51558
 H311 H 0.36423 0.28267 0.41661
 H312 H 0.40359 0.32217 0.49001
 H313 H 0.28074 0.36611 0.41675
 H314 H 0.32055 0.40544 0.48987
 C315 C 0.18500 0.73440 0.00855
 C316 C 0.20079 0.80138 0.00858
 C317 C 0.26747 0.81845 0.01726
 C318 C 0.31657 0.76982 0.01764
 C319 C 0.30022 0.70291 0.00932
 C320 C 0.23342 0.68645 0.00884
 C321 C 0.19547 0.64312 -0.03664
 C322 C 0.14234 0.69568 -0.03686
 H323 H 0.28222 0.86945 0.02115
 H324 H 0.36737 0.78506 0.02178
 H325 H 0.17975 0.59672 -0.01253
 H326 H 0.21991 0.63680 -0.08501
 H327 H 0.09620 0.67947 -0.01272
 H328 H 0.13582 0.71986 -0.08538
 C329 C -0.01015 0.18546 0.26859
 C330 C -0.00739 0.20168 0.20185
 C331 C -0.01352 0.26865 0.18495
 C332 C -0.01457 0.31744 0.23373
 C333 C -0.01014 0.30060 0.30075
 C334 C -0.01161 0.23367 0.31682
 C335 C 0.03190 0.19493 0.36140
 C336 C 0.03365 0.14221 0.30850
 H337 H -0.01469 0.28385 0.13404
 H338 H -0.01575 0.36837 0.21857
 H339 H 0.00587 0.17901 0.40660
 H340 H 0.08026 0.21895 0.36985
 H341 H 0.00886 0.09592 0.32340
 H342 H 0.08300 0.13569 0.28608
 C343 C 0.48588 0.23557 0.81376
 C344 C 0.48791 0.30254 0.79807
 C345 C 0.47959 0.31966 0.73142
 C346 C 0.47763 0.27088 0.68234
 C347 C 0.48388 0.20374 0.69875
 C348 C 0.48334 0.18732 0.76540
 C349 C 0.52888 0.14311 0.80189
 C350 C 0.53357 0.19669 0.85326
 H351 H 0.47790 0.37072 0.71667
 H352 H 0.47465 0.28613 0.63152
 H353 H 0.57585 0.13435 0.77547
 H354 H 0.50374 0.09806 0.81980
 H355 H 0.58228 0.22100 0.85297
 H356 H 0.51374 0.18219 0.90194
 C357 C -0.01427 0.74012 0.80887
 C358 C -0.00400 0.80642 0.79578
 C359 C 0.00750 0.82302 0.72921
 C360 C 0.00853 0.77394 0.67987
 C361 C -0.00173 0.70692 0.69580
 C362 C -0.01302 0.69312 0.76168
 C363 C -0.02941 0.63923 0.80829
 C364 C -0.03103 0.69265 0.86185
 H365 H 0.01618 0.87359 0.71509
 H366 H 0.01770 0.78862 0.62965
 H367 H 0.01155 0.60357 0.81410
 H368 H -0.07834 0.61733 0.79794
 H369 H 0.00877 0.68781 0.89882
 H370 H -0.08094 0.70145 0.88199
 C371 C 0.49079 -0.31278 0.26447
 C372 C 0.49096 -0.29701 0.19739
 C373 C 0.48431 -0.22967 0.18105
 C374 C 0.48492 -0.18075 0.23010
 C375 C 0.49246 -0.19752 0.29692
 C376 C 0.49146 -0.26452 0.31271
 C377 C 0.53586 -0.30363 0.35603
 C378 C 0.53532 -0.35646 0.30320
 H379 H 0.48091 -0.21419 0.13031
 H380 H 0.48200 -0.12973 0.21523
 H381 H 0.51106 -0.31917 0.40205
 H382 H 0.58473 -0.28016 0.36291
 H383 H 0.51044 -0.40244 0.31894
 H384 H 0.58388 -0.36356 0.27930
 C385 C -0.00247 0.73500 0.18051
 C386 C -0.00046 0.80222 0.19618
 C387 C -0.00429 0.81880 0.26357
 C388 C -0.00368 0.76987 0.31238
 C389 C 0.00101 0.70269 0.29568
 C390 C -0.00182 0.68672 0.22882
 C391 C 0.04098 0.64255 0.18896
 C392 C 0.04026 0.69531 0.13607
 H393 H -0.00600 0.86968 0.27919
 H394 H -0.00500 0.78509 0.36329
 H395 H 0.01510 0.59679 0.17402
 H396 H 0.09020 0.63497 0.21145
 H397 H 0.01393 0.67987 0.09079
 H398 H 0.08909 0.71836 0.12781
 C399 C 0.51504 -0.23149 0.81122
 C400 C 0.50714 -0.29808 0.79769
 C401 C 0.50044 -0.31505 0.73051
 C402 C 0.50105 -0.26612 0.68112
 C403 C 0.50852 -0.19880 0.69745
 C404 C 0.51593 -0.18462 0.76385
 C405 C 0.52707 -0.13012 0.81138
 C406 C 0.52586 -0.18327 0.86516
 H407 H 0.49421 -0.36584 0.71588
 H408 H 0.49507 -0.28119 0.63049
 H409 H 0.48497 -0.09562 0.81380
 H410 H 0.57599 -0.10674 0.80497
 H411 H 0.48287 -0.17960 0.89852
 H412 H 0.57411 -0.19032 0.88952
 C413 C 0.49419 0.23706 0.18521
 C414 C 0.49843 0.30386 0.20114
 C415 C 0.49394 0.32104 0.26812
 C416 C 0.49314 0.27216 0.31694
 C417 C 0.49682 0.20497 0.29991
 C418 C 0.49354 0.18891 0.23328
 C419 C 0.53534 0.14363 0.19367
 C420 C 0.53604 0.19644 0.14101
 H421 H 0.49335 0.37210 0.28315
 H422 H 0.49211 0.28728 0.36789
 H423 H 0.50839 0.09857 0.17858
 H424 H 0.58431 0.13485 0.21629
 H425 H 0.50924 0.18181 0.09575
 H426 H 0.58539 0.21850 0.13330
 C427 C 0.00996 0.19162 0.73740
 C428 C 0.00421 0.20528 0.80424
 C429 C -0.00239 0.27301 0.82038
 C430 C -0.00303 0.32222 0.77084
 C431 C 0.00341 0.30557 0.70351
 C432 C 0.00985 0.23879 0.69009
 C433 C 0.02388 0.19121 0.63645
 C434 C 0.02389 0.13778 0.68989
 H435 H -0.00751 0.28839 0.87101
 H436 H -0.00848 0.37308 0.78553
 H437 H 0.07302 0.19935 0.61442
 H438 H -0.01735 0.18676 0.60109
 H439 H 0.07297 0.11541 0.69804
 H440 H -0.01755 0.10266 0.68562
 C441 C 0.26944 -0.00801 0.18287
 C442 C 0.20267 -0.01123 0.19886
 C443 C 0.18629 -0.02251 0.26519
 C444 C 0.23516 -0.02237 0.31408
 C445 C 0.30152 -0.01086 0.29776
 C446 C 0.31758 -0.00785 0.23104
 C447 C 0.35876 0.04056 0.19449
 C448 C 0.30591 0.04043 0.14167
 H449 H 0.13557 -0.02874 0.27987
 H450 H 0.22045 -0.02857 0.36475
 H451 H 0.40589 0.01870 0.17777
 H452 H 0.36340 0.08843 0.22050
 H453 H 0.32269 0.01860 0.09457
 H454 H 0.27974 0.08821 0.13702
 C455 C 0.31632 0.49937 0.73405
 C456 C 0.30262 0.49839 0.80118
 C457 C 0.23473 0.49663 0.81757
 C458 C 0.18539 0.49671 0.76824
 C459 C 0.20191 0.49856 0.70066
 C460 C 0.26888 0.49943 0.68680
 C461 C 0.31698 0.50390 0.63207
 C462 C 0.37069 0.50398 0.68541
 H463 H 0.21920 0.49560 0.86838
 H464 H 0.13444 0.49574 0.78335
 H465 H 0.31312 0.55117 0.60499
 H466 H 0.31704 0.45893 0.60110
 H467 H 0.39767 0.55135 0.68904
 H468 H 0.40187 0.45920 0.68494
 C469 C 0.81427 -0.00527 0.73603
 C470 C 0.80070 0.00292 0.80268
 C471 C 0.73318 0.01100 0.81854
 C472 C 0.68403 0.01078 0.76902
 C473 C 0.70046 0.00199 0.70196
 C474 C 0.76704 -0.00593 0.68869
 C475 C 0.81414 -0.02267 0.63545
 C476 C 0.86764 -0.02207 0.68897
 H477 H 0.71789 0.01787 0.86896
 H478 H 0.63333 0.01740 0.78356
 H479 H 0.81930 0.01750 0.59899
 H480 H 0.80490 -0.07232 0.61455
 H481 H 0.90365 0.01842 0.68332
 H482 H 0.88909 -0.07137 0.69871
 C483 C -0.23469 0.49476 0.18613
 C484 C -0.30158 0.50064 0.19965
 C485 C -0.31804 0.50631 0.26722
 C486 C -0.26876 0.50623 0.31650
 C487 C -0.20140 0.50012 0.30008
 C488 C -0.18755 0.49460 0.23346
 C489 C -0.13323 0.48340 0.18600
 C490 C -0.18657 0.48289 0.13240
 H491 H -0.36874 0.51123 0.28246
 H492 H -0.28371 0.51104 0.36725
 H493 H -0.10943 0.43483 0.19308
 H494 H -0.09934 0.52613 0.18292
 H495 H -0.19339 0.43394 0.10923
 H496 H -0.18308 0.52478 0.09786
 C497 C 0.26714 0.01737 0.81303
 C498 C 0.20037 0.01219 0.79727
 C499 C 0.18333 0.01335 0.73007
 C500 C 0.23217 0.01266 0.68121
 C501 C 0.29939 0.01039 0.69824
 C502 C 0.31527 0.01645 0.76487
 C503 C 0.36066 -0.02340 0.80641
 C504 C 0.30805 -0.02223 0.85926
 H505 H 0.13237 0.01176 0.71498
 H506 H 0.21700 0.01113 0.63027
 H507 H 0.40558 0.00445 0.82020
 H508 H 0.36944 -0.07327 0.78583
 H509 H 0.32264 0.00645 0.90338
 H510 H 0.28662 -0.07145 0.86957
 C511 C 0.31605 0.49873 0.26559
 C512 C 0.29992 0.50013 0.19878
 C513 C 0.23295 0.49369 0.18187
 C514 C 0.18413 0.49296 0.23069
 C515 C 0.20101 0.49865 0.29769
 C516 C 0.26790 0.49810 0.31371
 C517 C 0.30630 0.54302 0.35719
 C518 C 0.35917 0.54349 0.30460
 H519 H 0.21788 0.49134 0.13095
 H520 H 0.13318 0.49010 0.21563
 H521 H 0.32210 0.51844 0.40330
 H522 H 0.28202 0.59152 0.36377
 H523 H 0.40531 0.51887 0.32032
 H524 H 0.36585 0.59233 0.28101
 C525 C 0.81716 0.00254 0.26695
 C526 C 0.80107 0.00334 0.20013
 C527 C 0.73401 -0.00153 0.18319
 C528 C 0.68521 -0.00068 0.23187
 C529 C 0.70216 0.00508 0.29881
 C530 C 0.76898 0.00335 0.31502
 C531 C 0.80819 0.04795 0.35812
 C532 C 0.86097 0.04707 0.30544
 H533 H 0.71888 -0.00414 0.13228
 H534 H 0.63424 -0.00277 0.21673
 H535 H 0.82367 0.02328 0.40428
 H536 H 0.78483 0.09693 0.36467
 H537 H 0.90674 0.02192 0.32135
 H538 H 0.86830 0.09554 0.28131
 C539 C -0.23052 0.51535 0.81545
 C540 C -0.29746 0.51505 0.79953
 C541 C -0.31447 0.52304 0.73283
 C542 C -0.26581 0.52340 0.68387
 C543 C -0.19883 0.51628 0.70033
 C544 C -0.18251 0.51582 0.76715
 C545 C -0.13948 0.46990 0.80492
 C546 C -0.19195 0.46964 0.85793
 H547 H -0.36545 0.52625 0.71796
 H548 H -0.28109 0.52634 0.63307
 H549 H -0.09295 0.49361 0.82091
 H550 H -0.13347 0.42153 0.78019
 H551 H -0.17572 0.49357 0.90426
 H552 H -0.21623 0.42106 0.86417
   
