data_POSCAR
  _audit_creation_date              2014-09-24
  _audit_creation_method            'ToBaCCo'
  _symmetry_space_group_name_H-M    'P1'
  _symmetry_Int_Tables_number       1
  _symmetry_cell_setting            triclinic
  loop_
  _symmetry_equiv_pos_as_xyz
 x,y,z
_cell_length_a 18.0111
_cell_length_b 17.7163
_cell_length_c 24.6065
_cell_angle_alpha 83.238600
_cell_angle_beta 86.856800
_cell_angle_gamma 101.178800
loop_
  _atom_site_label
  _atom_site_type_symbol
  _atom_site_fract_x
  _atom_site_fract_y
  _atom_site_fract_z
C1 C -0.02212 0.54107 1.04314
 C2 C -0.00855 0.57862 0.98783
 C3 C 0.01544 0.53668 0.94721
 C4 C 0.02139 0.45878 0.95877
 C5 C 0.00623 0.42046 1.01350
 C6 C -0.01812 0.46215 1.05403
 H7 H -0.02827 0.43501 1.09616
 H8 H 0.02500 0.56261 0.90471
 C9 C 0.42996 0.01911 0.51259
 C10 C 0.45635 0.02231 0.45702
 C11 C 0.52785 0.00546 0.44445
 C12 C 0.57289 -0.01832 0.48573
 C13 C 0.54594 -0.02117 0.54155
 C14 C 0.47472 -0.00368 0.55391
 H15 H 0.45582 -0.00365 0.59651
 H16 H 0.54581 0.00601 0.40167
 C17 C 0.16986 0.00283 0.25562
 H18 H 0.16713 0.00809 0.21164
 C19 C 0.24026 0.01982 0.27736
 H20 H 0.29137 0.03628 0.24985
 C21 C 0.10672 -0.02112 0.34476
 H22 H 0.05485 -0.03481 0.37108
 C23 C 0.17599 -0.00529 0.36827
 H24 H 0.17606 -0.00757 0.41239
 N25 N 0.10480 -0.01842 0.28932
 C26 C -0.06190 -0.18963 0.23821
 H27 H -0.10588 -0.18083 0.26691
 C28 C -0.07220 -0.25816 0.21438
 H29 H -0.12358 -0.30169 0.22553
 C30 C 0.05664 -0.14324 0.18685
 H31 H 0.10636 -0.09800 0.17564
 C32 C 0.04786 -0.21037 0.16118
 H33 H 0.09169 -0.21666 0.13117
 Zn34 Zn 0.01160 -0.03904 0.25556
 N35 N 0.00182 -0.13366 0.22432
 C36 C 0.00481 0.03112 0.14647
 N37 N 0.01374 0.04420 0.19934
 C38 C 0.02648 0.11741 0.21329
 C39 C 0.02965 0.18107 0.17335
 C40 C 0.00951 0.09326 0.10505
 C41 C -0.08407 -0.10063 0.35240
 C42 C -0.14518 -0.10631 0.39114
 C43 C -0.18364 -0.00052 0.33623
 C44 C -0.12164 0.00331 0.29866
 N45 N -0.07269 -0.04567 0.30755
 H46 H -0.00586 -0.02740 0.13620
 H47 H 0.03399 0.12615 0.25558
 H48 H 0.04000 0.23904 0.18495
 H49 H 0.00278 0.08230 0.06305
 H50 H -0.04558 -0.14031 0.35801
 H51 H -0.15286 -0.15004 0.42672
 H52 H -0.22069 0.04008 0.32843
 H53 H -0.11304 0.04546 0.26229
 C54 C -0.01743 -0.26867 0.17486
 C55 C 0.24400 0.01497 0.33440
 C56 C -0.19589 -0.05570 0.38344
 C57 C 0.02155 0.16914 0.11847
 C58 C -0.05624 0.14955 0.80732
 H59 H -0.11054 0.10997 0.81345
 C60 C -0.04591 0.21758 0.83201
 H61 H -0.09297 0.22961 0.85642
 C62 C 0.07098 0.18148 0.76868
 H63 H 0.11712 0.16659 0.74507
 C64 C 0.08360 0.25026 0.79227
 H65 H 0.13931 0.28773 0.78615
 N66 N 0.00192 0.13256 0.77649
 C67 C 0.11866 -0.00881 0.69913
 H68 H 0.10865 -0.05340 0.73408
 C69 C 0.17998 -0.00492 0.66091
 H70 H 0.21511 -0.04769 0.66702
 C71 C 0.08626 0.10178 0.65003
 H72 H 0.05014 0.14402 0.64656
 C73 C 0.14689 0.10782 0.61083
 H74 H 0.15653 0.15453 0.57707
 Zn75 Zn -0.01122 0.03810 0.74502
 N76 N 0.07248 0.04341 0.69275
 C77 C -0.10644 0.02916 0.65557
 N78 N -0.10431 0.02156 0.71113
 C79 C -0.16921 -0.00213 0.74483
 C80 C -0.23970 -0.01750 0.72303
 C81 C -0.17578 0.01516 0.63204
 C82 C -0.01314 -0.03496 0.85440
 C83 C -0.02044 -0.09801 0.89555
 C84 C -0.03245 -0.18386 0.82575
 C85 C -0.02729 -0.11945 0.78608
 N86 N -0.01667 -0.04670 0.80084
 H87 H -0.05465 0.04523 0.62915
 H88 H -0.16618 -0.01057 0.78882
 H89 H -0.29071 -0.03640 0.75049
 H90 H -0.17601 0.02088 0.58780
 H91 H -0.00528 0.02319 0.86536
 H92 H -0.01799 -0.08822 0.93808
 H93 H -0.04042 -0.24143 0.81352
 H94 H -0.03129 -0.12725 0.74331
 C95 C 0.19468 0.05390 0.61580
 C96 C 0.02505 0.26874 0.82493
 C97 C -0.02943 -0.17330 0.88120
 C98 C -0.24361 -0.00829 0.66596
 N99 N -0.07191 -0.40483 0.17089
 N100 N -0.07490 -0.45683 0.13619
 C101 C -0.03445 -0.42100 0.08919
 C102 C -0.00387 -0.34559 0.09742
 N103 N -0.02948 -0.33768 0.14846
 H104 H 0.03409 -0.30123 0.06945
 N105 N 0.05655 0.23634 0.02567
 N106 N 0.05343 0.30324 -0.00345
 C107 C 0.01927 0.34462 0.02932
 C108 C 0.00286 0.30013 0.08057
 N109 N 0.02666 0.23353 0.07630
 H110 H -0.02512 0.31311 0.11732
 N111 N 0.27220 0.11188 0.53093
 N112 N 0.33398 0.10429 0.50204
 C113 C 0.35935 0.04475 0.52903
 C114 C 0.31147 0.01673 0.57577
 N115 N 0.25750 0.05987 0.57547
 H116 H 0.31638 -0.03015 0.60684
 N117 N -0.37796 -0.06954 0.66938
 N118 N -0.43493 -0.07555 0.63723
 C119 C -0.40755 -0.03404 0.58830
 C120 C -0.33249 -0.00062 0.59206
 N121 N -0.31577 -0.02514 0.64293
 H122 H -0.29448 0.03886 0.56105
 N123 N -0.07516 -0.24586 0.97110
 N124 N -0.07063 -0.31203 1.00069
 C125 C -0.02607 -0.34785 0.97088
 C126 C -0.00544 -0.30145 0.92070
 N127 N -0.03648 -0.23859 0.92291
 H128 H 0.03061 -0.31046 0.88643
 N129 N 0.10055 0.39333 0.84097
 N130 N 0.10210 0.44473 0.87612
 C131 C 0.03991 0.41968 0.91139
 C132 C -0.00109 0.35263 0.89573
 N133 N 0.03925 0.33729 0.85209
 H134 H -0.05293 0.31683 0.91615
 N135 N -0.26367 -0.09865 0.47390
 N136 N -0.32470 -0.08922 0.50275
 C137 C -0.35933 -0.04217 0.47026
 C138 C -0.31750 -0.02431 0.41982
 N139 N -0.25793 -0.05983 0.42398
 H140 H -0.32834 0.01255 0.38417
 N141 N 0.38001 0.06991 0.32918
 N142 N 0.43764 0.07400 0.36068
 C143 C 0.40940 0.03746 0.41089
 C144 C 0.33264 0.00961 0.40878
 N145 N 0.31633 0.03164 0.35729
 H146 H 0.29349 -0.02620 0.44088
   
