data_POSCAR
  _audit_creation_date              2014-09-24
  _audit_creation_method            'ToBaCCo'
  _symmetry_space_group_name_H-M    'P1'
  _symmetry_Int_Tables_number       1
  _symmetry_cell_setting            triclinic
  loop_
  _symmetry_equiv_pos_as_xyz
 x,y,z
_cell_length_a 23.7460
_cell_length_b 23.3610
_cell_length_c 23.6902
_cell_angle_alpha 89.864400
_cell_angle_beta 90.041900
_cell_angle_gamma 90.038900
loop_
  _atom_site_label
  _atom_site_type_symbol
  _atom_site_fract_x
  _atom_site_fract_y
  _atom_site_fract_z
N1 N 0.51935 0.67958 0.60652
 N2 N 0.51022 0.64513 0.64958
 C3 C 0.46401 0.66289 0.67749
 C4 C 0.44351 0.71074 0.65029
 C5 C 0.47932 0.72037 0.60553
 H6 H 0.44654 0.64275 0.71471
 H7 H 0.47647 0.75446 0.57469
 Cu8 Cu 0.55984 0.58067 0.66471
 Cu9 Cu 0.58243 0.66910 0.55504
 Cu10 Cu 0.67129 0.55424 0.58156
 N11 N 0.60983 0.51638 0.67931
 N12 N 0.65342 0.50630 0.64653
 C13 C 0.68093 0.45971 0.66564
 C14 C 0.65290 0.43993 0.71270
 C15 C 0.60808 0.47649 0.72049
 H16 H 0.71838 0.44167 0.64676
 H17 H 0.57676 0.47413 0.75354
 N18 N 0.68230 0.60762 0.51794
 N19 N 0.64847 0.65136 0.50784
 C20 C 0.66700 0.67960 0.46178
 C21 C 0.71447 0.65221 0.44235
 C22 C 0.72323 0.60690 0.47856
 H23 H 0.64756 0.71723 0.44364
 H24 H 0.75691 0.57587 0.47628
 H25 H 0.58996 0.58171 0.56635
 H26 H 0.63469 0.62821 0.61204
 N27 N 0.98212 0.31976 0.10592
 N28 N 0.99136 0.35403 0.14897
 C29 C 1.03752 0.33604 0.17700
 C30 C 1.05779 0.28821 0.14984
 C31 C 1.02199 0.27880 0.10502
 H32 H 1.05504 0.35601 0.21423
 H33 H 1.02468 0.24480 0.07421
 Cu34 Cu 0.94197 0.41863 0.16398
 Cu35 Cu 0.91910 0.33069 0.05432
 Cu36 Cu 0.83061 0.44573 0.08057
 N37 N 0.89217 0.48302 0.17838
 N38 N 0.84862 0.49335 0.14553
 C39 C 0.82124 0.53991 0.16461
 C40 C 0.84924 0.55947 0.21172
 C41 C 0.89395 0.52273 0.21953
 H42 H 0.78382 0.55813 0.14572
 H43 H 0.92522 0.52487 0.25267
 N44 N 0.81946 0.39264 0.01698
 N45 N 0.85316 0.34884 0.00698
 C46 C 0.83455 0.32083 -0.03909
 C47 C 0.78716 0.34845 -0.05862
 C48 C 0.77854 0.39364 -0.02246
 H49 H 0.85386 0.28319 -0.05714
 H50 H 0.74494 0.42477 -0.02480
 H51 H 0.91186 0.41808 0.06557
 H52 H 0.86695 0.37155 0.11123
 N53 N 0.48075 0.18086 -0.10656
 N54 N 0.48995 0.14640 -0.14944
 C55 C 0.53617 0.16425 -0.17741
 C56 C 0.55657 0.21218 -0.15046
 C57 C 0.52073 0.22176 -0.10577
 H58 H 0.55369 0.14411 -0.21451
 H59 H 0.52351 0.25588 -0.07512
 Cu60 Cu 0.44028 0.08190 -0.16398
 Cu61 Cu 0.41762 0.17027 -0.05499
 Cu62 Cu 0.32894 0.05499 -0.08100
 N63 N 0.39067 0.01730 -0.17853
 N64 N 0.34707 0.00706 -0.14575
 C65 C 0.31972 -0.03962 -0.16469
 C66 C 0.34780 -0.05937 -0.21163
 C67 C 0.39252 -0.02259 -0.21949
 H68 H 0.28227 -0.05780 -0.14583
 H69 H 0.42384 -0.02484 -0.25253
 N70 N 0.31779 0.10843 -0.01767
 N71 N 0.35154 0.15230 -0.00776
 C72 C 0.33290 0.18051 0.03812
 C73 C 0.28544 0.15299 0.05763
 C74 C 0.27681 0.10763 0.02166
 H75 H 0.35224 0.21823 0.05607
 H76 H 0.24318 0.07649 0.02406
 H77 H 0.41010 0.08287 -0.06569
 H78 H 0.36531 0.12917 -0.11162
 N79 N 0.01776 0.81893 0.39365
 N80 N 0.00848 0.85350 0.35068
 C81 C -0.03769 0.83563 0.32263
 C82 C -0.05792 0.78757 0.34970
 C83 C -0.02210 0.77790 0.39448
 H84 H -0.05525 0.85586 0.28547
 H85 H -0.02478 0.74371 0.42524
 Cu86 Cu 0.05795 0.91818 0.33608
 Cu87 Cu 0.08083 0.82959 0.44532
 Cu88 Cu 0.16923 0.94515 0.41922
 N89 N 0.10749 0.98290 0.32146
 N90 N 0.15106 0.99315 0.35430
 C91 C 0.17839 1.03986 0.33522
 C92 C 0.15034 1.05961 0.28813
 C93 C 0.10564 1.02281 0.28033
 H94 H 0.21583 1.05803 0.35407
 H95 H 0.07437 1.02503 0.24719
 N96 N 0.18046 0.89161 0.48271
 N97 N 0.14683 0.84763 0.49265
 C98 C 0.16551 0.81937 0.53865
 C99 C 0.21286 0.84700 0.55821
 C100 C 0.22139 0.89246 0.52214
 H101 H 0.14626 0.78155 0.55665
 H102 H 0.25493 0.92369 0.52455
 H103 H 0.08813 0.91704 0.43443
 H104 H 0.13305 0.87098 0.38866
 N105 N 0.19094 0.19613 0.19215
 N106 N 0.30744 0.80398 0.69305
 N107 N 0.80879 0.69565 0.30754
 N108 N 0.69260 0.30578 -0.19343
 C109 C 0.10361 0.25661 0.16440
 C110 C 0.14424 0.22849 0.17730
 C111 C 0.39497 0.74388 0.66555
 C112 C 0.35425 0.77182 0.67834
 C113 C 0.89622 0.75604 0.33514
 C114 C 0.85555 0.72796 0.32229
 C115 C 0.60509 0.24544 -0.16583
 C116 C 0.64580 0.27349 -0.17868
 C117 C 0.16484 0.10832 0.25402
 C118 C 0.17697 0.14917 0.22526
 C119 C 0.66664 0.39379 -0.25509
 C120 C 0.67874 0.35285 -0.22642
 C121 C 0.33336 0.89188 0.75449
 C122 C 0.32130 0.85099 0.72593
 C123 C 0.83476 0.60803 0.24579
 C124 C 0.82267 0.64878 0.27450
 C125 C 0.25182 0.16843 0.10559
 C126 C 0.22350 0.18131 0.14584
 C127 C 0.74802 0.66773 0.39427
 C128 C 0.77629 0.68070 0.35393
 C129 C 0.75354 0.33318 -0.10670
 C130 C 0.72521 0.32043 -0.14704
 C131 C 0.24648 0.83157 0.60629
 C132 C 0.27483 0.81872 0.64665
   
