data_POSCAR
  _audit_creation_date              2014-09-24
  _audit_creation_method            'ToBaCCo'
  _symmetry_space_group_name_H-M    'P1'
  _symmetry_Int_Tables_number       1
  _symmetry_cell_setting            triclinic
  loop_
  _symmetry_equiv_pos_as_xyz
 x,y,z
_cell_length_a 18.9692
_cell_length_b 19.0734
_cell_length_c 19.0593
_cell_angle_alpha 90.396800
_cell_angle_beta 90.128000
_cell_angle_gamma 89.843100
loop_
  _atom_site_label
  _atom_site_type_symbol
  _atom_site_fract_x
  _atom_site_fract_y
  _atom_site_fract_z
O1 O -0.16171 0.12452 0.02659
 O2 O 0.18912 0.05911 -0.03619
 O3 O 0.03448 0.17796 0.08753
 O4 O 0.00835 0.17554 -0.10497
 O5 O -0.02382 0.08744 -0.18183
 O6 O 0.03961 0.09163 0.17193
 O7 O 0.12231 0.15966 -0.02292
 O8 O -0.06267 0.19217 0.00839
 Zr9 Zr 0.01911 0.12002 -0.00718
 O10 O 0.05859 0.04912 -0.07939
 O11 O -0.04111 0.07154 0.06903
 C12 C -0.12936 0.18416 0.01967
 C13 C 0.18158 0.12663 -0.03257
 C14 C 0.03981 0.15648 0.15198
 C15 C -0.01260 0.15237 -0.16634
 H16 H 0.11980 0.07362 0.07152
 O17 O 0.08104 0.04914 0.04681
 H18 H -0.09512 0.10369 -0.07957
 O19 O -0.06451 0.07007 -0.05476
 O20 O 0.15665 -0.12883 -0.02517
 O21 O -0.19497 -0.06278 0.02743
 O22 O 0.12324 -0.02064 0.15855
 O23 O 0.05697 -0.01430 -0.19602
 O24 O -0.13047 0.00887 -0.16263
 O25 O -0.06193 0.01491 0.19148
 O26 O -0.00731 -0.17963 0.09191
 O27 O -0.05000 -0.17892 -0.09267
 O28 O 0.01953 -0.09787 0.17743
 O29 O -0.04664 -0.09667 -0.18057
 O30 O 0.18940 -0.03677 0.05826
 O31 O -0.16152 0.03030 0.12356
 O32 O -0.19561 0.02803 -0.06227
 O33 O 0.15696 -0.02970 -0.12866
 O34 O 0.05648 -0.19591 -0.01157
 O35 O -0.12872 -0.16323 0.01291
 Zr36 Zr 0.11736 -0.02395 -0.02482
 Zr37 Zr -0.12258 0.02000 0.02020
 Zr38 Zr 0.01981 -0.00307 0.11883
 Zr39 Zr -0.02585 -0.00372 -0.12359
 Zr40 Zr -0.02525 -0.12294 -0.00024
 O41 O -0.08879 -0.05362 -0.05234
 O42 O 0.05874 -0.07543 0.04901
 C43 C 0.12392 -0.18829 -0.01771
 C44 C -0.18826 -0.13019 0.02103
 C45 C 0.18196 -0.03384 0.12581
 C46 C 0.12425 -0.02339 -0.18825
 C47 C -0.18927 0.02173 -0.12973
 C48 C -0.12879 0.02673 0.18324
 C49 C 0.01271 -0.16192 0.15462
 C50 C -0.05342 -0.16006 -0.15783
 H51 H -0.09266 -0.07969 0.10833
 O52 O -0.06439 -0.05414 0.07326
 H53 H 0.05721 -0.11036 -0.10783
 O54 O 0.03677 -0.07605 -0.07446
 O55 O 0.30318 0.55711 0.00872
 O56 O 0.65901 0.62509 -0.00194
 O57 O 0.47457 0.67123 0.10803
 O58 O 0.46427 0.68200 -0.08515
 O59 O 0.47197 0.60063 -0.17531
 O60 O 0.48496 0.57733 0.18266
 O61 O 0.55773 0.69214 0.00596
 O62 O 0.36951 0.65846 0.01241
 Zr63 Zr 0.47420 0.61998 0.00686
 O64 O 0.54498 0.57582 -0.06339
 O65 O 0.42471 0.54582 0.06864
 C66 C 0.31009 0.62479 0.01044
 C67 C 0.62563 0.68458 0.00354
 C68 C 0.48100 0.64372 0.17040
 C69 C 0.46389 0.66373 -0.15106
 H70 H 0.57590 0.59982 0.09216
 O71 O 0.55005 0.56666 0.06179
 H72 H 0.38409 0.57608 -0.08655
 O73 O 0.42064 0.55170 -0.05879
 O74 O 0.69276 0.43809 -0.00831
 O75 O 0.33788 0.37078 -0.00679
 O76 O 0.59672 0.50796 0.17283
 O77 O 0.58194 0.52827 -0.18462
 O78 O 0.39332 0.48700 -0.17919
 O79 O 0.41052 0.47083 0.18076
 O80 O 0.53864 0.31678 0.07904
 O81 O 0.51380 0.32518 -0.11021
 O82 O 0.52352 0.39420 0.17144
 O83 O 0.49464 0.41374 -0.19005
 O84 O 0.68084 0.52361 0.08690
 O85 O 0.32424 0.45806 0.09659
 O86 O 0.31847 0.46067 -0.08828
 O87 O 0.67201 0.53698 -0.10326
 O88 O 0.62603 0.33734 -0.01395
 O89 O 0.43899 0.30360 -0.01489
 Zr90 Zr 0.61964 0.52070 -0.00694
 Zr91 Zr 0.37717 0.47473 0.00232
 Zr92 Zr 0.50191 0.48966 0.11962
 Zr93 Zr 0.49125 0.50455 -0.12577
 Zr94 Zr 0.52173 0.37679 -0.01181
 O95 O 0.44499 0.42827 -0.06690
 O96 O 0.57521 0.44375 0.05423
 C97 C 0.68535 0.37067 -0.00835
 C98 C 0.37106 0.31143 -0.01422
 C99 C 0.66013 0.52148 0.15186
 C100 C 0.64694 0.53961 -0.16654
 C101 C 0.33294 0.46663 -0.15393
 C102 C 0.34632 0.45843 0.16067
 C103 C 0.53681 0.33260 0.14532
 C104 C 0.49695 0.34836 -0.17200
 H105 H 0.42754 0.38222 0.08609
 O106 O 0.45026 0.41896 0.05772
 H107 H 0.60253 0.42672 -0.10697
 O108 O 0.56987 0.45022 -0.07381
 O109 O -0.16226 0.62834 0.49992
 O110 O 0.19302 0.56093 0.50115
 O111 O 0.01204 0.67809 0.59866
 O112 O 0.03617 0.68011 0.40514
 O113 O 0.02607 0.59314 0.32079
 O114 O -0.00010 0.58977 0.68000
 O115 O 0.12606 0.66203 0.50275
 O116 O -0.06143 0.69548 0.50373
 Zr117 Zr 0.02181 0.62292 0.50049
 O118 O 0.07459 0.55164 0.43741
 O119 O -0.05340 0.57261 0.55874
 C120 C -0.12925 0.68781 0.50641
 C121 C 0.18554 0.62835 0.49984
 C122 C -0.00215 0.65462 0.66131
 C123 C 0.03743 0.65717 0.34049
 H124 H 0.10335 0.57599 0.59819
 O125 O 0.07042 0.55156 0.56596
 H126 H -0.07264 0.61184 0.40384
 O127 O -0.04947 0.57595 0.43321
 O128 O 0.15959 0.37386 0.50241
 O129 O -0.19590 0.44134 0.48774
 O130 O 0.08457 0.47697 0.67923
 O131 O 0.09794 0.48344 0.32136
 O132 O -0.09052 0.51879 0.31212
 O133 O -0.10373 0.51847 0.67400
 O134 O -0.03551 0.32368 0.58747
 O135 O -0.02669 0.32364 0.39903
 O136 O -0.02215 0.40398 0.67733
 O137 O -0.00600 0.40632 0.31368
 O138 O 0.17426 0.46491 0.59848
 O139 O -0.18161 0.53930 0.58336
 O140 O -0.17462 0.53653 0.39748
 O141 O 0.18060 0.46884 0.40954
 O142 O 0.05825 0.30704 0.49903
 O143 O -0.12859 0.34045 0.48887
 Zr144 Zr 0.12030 0.47843 0.50256
 Zr145 Zr -0.12236 0.52400 0.49250
 Zr146 Zr -0.00676 0.49812 0.62067
 Zr147 Zr 0.00182 0.50093 0.37368
 Zr148 Zr -0.02491 0.38017 0.49432
 O149 O -0.07550 0.44964 0.42862
 O150 O 0.04706 0.42525 0.56167
 C151 C 0.12622 0.31437 0.50020
 C152 C -0.18829 0.37368 0.48762
 C153 C 0.14928 0.46418 0.66161
 C154 C 0.16095 0.47013 0.34429
 C155 C -0.15409 0.53368 0.33303
 C156 C -0.16517 0.53634 0.64904
 C157 C -0.03250 0.34109 0.65320
 C158 C -0.01192 0.34204 0.33535
 H159 H -0.11491 0.42585 0.58568
 O160 O -0.07884 0.44954 0.55700
 H161 H 0.07743 0.39450 0.40866
 O162 O 0.05080 0.42901 0.43667
 O163 O 0.30657 0.06091 0.46647
 O164 O 0.65910 0.12560 0.51581
 O165 O 0.45761 0.18397 0.57747
 O166 O 0.49390 0.17145 0.38891
 O167 O 0.52429 0.08011 0.31468
 O168 O 0.45113 0.10326 0.66712
 O169 O 0.55995 0.19251 0.49431
 O170 O 0.37397 0.16098 0.47525
 Zr171 Zr 0.47766 0.12072 0.48735
 O172 O 0.56050 0.06757 0.44176
 O173 O 0.41443 0.05426 0.54398
 C174 C 0.31413 0.12822 0.47108
 C175 C 0.62689 0.18483 0.50391
 C176 C 0.44922 0.16653 0.64276
 C177 C 0.51586 0.14583 0.32917
 H178 H 0.55906 0.11162 0.59716
 O179 O 0.53821 0.07601 0.56550
 H180 H 0.40928 0.07134 0.38202
 O181 O 0.43773 0.04736 0.41829
 O182 O 0.69061 -0.06188 0.53504
 O183 O 0.33982 -0.12673 0.47319
 O184 O 0.55853 0.02169 0.69127
 O185 O 0.62491 0.00431 0.33668
 O186 O 0.43838 -0.02750 0.30413
 O187 O 0.37112 -0.00348 0.65807
 O188 O 0.50915 -0.17194 0.60624
 O189 O 0.53713 -0.18344 0.42021
 O190 O 0.47656 -0.08412 0.68372
 O191 O 0.53168 -0.10902 0.32581
 O192 O 0.65867 0.03178 0.62347
 O193 O 0.30558 -0.02522 0.55808
 O194 O 0.33881 -0.03676 0.37264
 O195 O 0.69029 0.02902 0.43621
 O196 O 0.62319 -0.16198 0.52693
 O197 O 0.43890 -0.19366 0.49580
 Zr198 Zr 0.61899 0.02111 0.51959
 Zr199 Zr 0.37866 -0.02220 0.47566
 Zr200 Zr 0.47569 0.00638 0.61934
 Zr201 Zr 0.52098 -0.00950 0.37642
 Zr202 Zr 0.52045 -0.12093 0.50914
 O203 O 0.45928 -0.07822 0.43078
 O204 O 0.56054 -0.04830 0.57834
 C205 C 0.68288 -0.12942 0.53432
 C206 C 0.37234 -0.18610 0.48270
 C207 C 0.62592 0.02953 0.68328
 C208 C 0.68312 0.02107 0.36906
 C209 C 0.37123 -0.03708 0.31272
 C210 C 0.31229 -0.01615 0.62516
 C211 C 0.48794 -0.14930 0.66697
 C212 C 0.53312 -0.17103 0.35366
 H213 H 0.40564 -0.10156 0.57945
 O214 O 0.43639 -0.06923 0.55347
 H215 H 0.62106 -0.08274 0.42791
 O216 O 0.58306 -0.05590 0.45140
 N217 N 0.36032 0.18442 -0.03902
 N218 N 0.31075 0.13669 -0.04627
 C219 C 0.24743 0.16715 -0.03603
 C220 C 0.25717 0.23819 -0.02185
 C221 C 0.32998 0.24664 -0.02395
 H222 H 0.21750 0.27735 -0.00992
 H223 H 0.41417 0.17414 -0.04444
 H224 H 0.32066 0.08374 -0.05676
 N225 N 0.36340 -0.31495 0.48131
 N226 N 0.31473 -0.36345 0.48796
 C227 C 0.25128 -0.33201 0.49310
 C228 C 0.25973 -0.25983 0.48880
 C229 C 0.33206 -0.25152 0.48162
 H230 H 0.21963 -0.21950 0.49238
 H231 H 0.41735 -0.32550 0.47780
 H232 H 0.32530 -0.41721 0.48929
 N233 N 0.63370 0.81246 0.02161
 N234 N 0.68536 0.86349 0.02834
 C235 C 0.74868 0.83196 0.02147
 C236 C 0.73887 0.76003 0.01062
 C237 C 0.66588 0.75034 0.01076
 H238 H 0.77910 0.72042 0.00266
 H239 H 0.57958 0.82211 0.02504
 H240 H 0.67507 0.91687 0.03580
 N241 N 0.63428 0.31333 0.49276
 N242 N 0.68224 0.36259 0.48658
 C243 C 0.74645 0.33268 0.48921
 C244 C 0.73919 0.26057 0.49782
 C245 C 0.66670 0.25074 0.49980
 H246 H 0.78033 0.22138 0.50192
 H247 H 0.58003 0.32291 0.49182
 H248 H 0.67072 0.41586 0.48101
 N249 N 0.81320 0.36167 0.01366
 N250 N 0.86107 0.31287 0.02449
 C251 C 0.82999 0.24956 0.02056
 C252 C 0.75861 0.25832 0.00665
 C253 C 0.75055 0.33059 0.00209
 H254 H 0.71906 0.21821 -0.00124
 H255 H 0.82373 0.41541 0.01421
 H256 H 0.91451 0.32311 0.03300
 N257 N 0.81207 -0.13899 0.54554
 N258 N 0.86416 -0.18905 0.53408
 C259 C 0.83241 -0.25059 0.51930
 C260 C 0.75929 -0.24125 0.52141
 C261 C 0.74902 -0.17024 0.53733
 H262 H 0.71919 -0.27994 0.50987
 H263 H 0.82171 -0.08586 0.55498
 H264 H 0.91821 -0.17902 0.53702
 N265 N 0.18458 0.13717 0.48042
 N266 N 0.13596 0.18533 0.49164
 C267 C 0.16694 0.24874 0.49457
 C268 C 0.23924 0.24049 0.48497
 C269 C 0.24796 0.16849 0.47595
 H270 H 0.27936 0.28071 0.48467
 H271 H 0.17419 0.08348 0.47718
 H272 H 0.08224 0.17455 0.49655
 N273 N 0.18092 0.63408 -0.00235
 N274 N 0.13287 0.68272 -0.01326
 C275 C 0.16434 0.74597 -0.01385
 C276 C 0.23626 0.73721 -0.00280
 C277 C 0.24426 0.66503 0.00447
 H278 H 0.27655 0.77721 -0.00006
 H279 H 0.17016 0.58043 -0.00051
 H280 H 0.07916 0.67237 -0.01950
 N281 N 0.05707 0.23481 0.31977
 N282 N 0.07515 0.18898 0.27128
 C283 C 0.04548 0.20743 0.20998
 C284 C 0.00726 0.26970 0.21984
 C285 C 0.01531 0.28420 0.29131
 H286 H -0.02613 0.29655 0.18251
 H287 H 0.07260 0.23155 0.37216
 H288 H 0.10451 0.14366 0.28121
 N289 N 0.39098 0.21658 0.74668
 N290 N 0.40613 0.26214 0.79667
 C291 C 0.46526 0.29681 0.77962
 C292 C 0.48819 0.27349 0.71424
 C293 C 0.43937 0.22184 0.69562
 H294 H 0.53647 0.28713 0.68750
 H295 H 0.35002 0.18018 0.74926
 H296 H 0.37679 0.26855 0.84240
 N297 N -0.07897 0.67454 0.76287
 N298 N -0.09601 0.72380 0.80828
 C299 C -0.06187 0.78280 0.79140
 C300 C -0.02152 0.77093 0.73108
 C301 C -0.03317 0.70055 0.71568
 H302 H 0.01607 0.80581 0.70690
 H303 H -0.09690 0.62298 0.76606
 H304 H -0.12722 0.71564 0.85258
 N305 N 0.51926 -0.29760 0.34287
 N306 N 0.49790 -0.34707 0.29415
 C307 C 0.49051 -0.31552 0.23137
 C308 C 0.50489 -0.24362 0.23960
 C309 C 0.52326 -0.23516 0.31081
 H310 H 0.50318 -0.20357 0.19969
 H311 H 0.52753 -0.30844 0.39591
 H312 H 0.49211 -0.40020 0.30581
 N313 N 0.07264 0.67510 0.21924
 N314 N 0.05914 0.72288 0.16665
 C315 C 0.03338 0.78171 0.19638
 C316 C 0.02983 0.77296 0.26936
 C317 C 0.05230 0.70372 0.28077
 H318 H 0.00587 0.80829 0.30709
 H319 H 0.08817 0.62325 0.21000
 H320 H 0.06739 0.71298 0.11336
 N321 N 0.41347 -0.25020 0.69257
 N322 N 0.40542 -0.29822 0.74107
 C323 C 0.44876 -0.28369 0.79517
 C324 C 0.48627 -0.22265 0.78068
 C325 C 0.46227 -0.20382 0.71429
 H326 H 0.52923 -0.19981 0.81039
 H327 H 0.38775 -0.25082 0.64403
 H328 H 0.37335 -0.34237 0.73540
 N329 N 0.58202 0.16925 0.22116
 N330 N 0.58892 0.21837 0.17364
 C331 C 0.55011 0.27420 0.19306
 C332 C 0.51714 0.26042 0.25687
 C333 C 0.53816 0.19225 0.27201
 H334 H 0.47923 0.29264 0.28471
 H335 H 0.60590 0.11992 0.21758
 H336 H 0.61796 0.21252 0.12742
 N337 N -0.08080 0.22619 0.67742
 N338 N -0.07166 0.17297 0.72528
 C339 C -0.03139 0.19719 0.77871
 C340 C -0.01469 0.26756 0.76642
 C341 C -0.04529 0.28244 0.70091
 H342 H 0.01978 0.30083 0.79723
 H343 H -0.10681 0.22042 0.62934
 H344 H -0.09328 0.12296 0.71900
 N345 N 0.35854 -0.06375 0.18583
 N346 N 0.30908 -0.06278 0.13710
 C347 C 0.24702 -0.04542 0.16697
 C348 C 0.25745 -0.03572 0.23872
 C349 C 0.32939 -0.04738 0.24818
 H350 H 0.21928 -0.01890 0.27750
 H351 H 0.41172 -0.07415 0.17597
 H352 H 0.31839 -0.07233 0.08388
 N353 N 0.16945 0.41170 0.77582
 N354 N 0.22036 0.41386 0.82781
 C355 C 0.27685 0.44831 0.80247
 C356 C 0.26431 0.46705 0.73297
 C357 C 0.19539 0.44484 0.71967
 H358 H 0.29708 0.49927 0.69986
 H359 H 0.11839 0.39250 0.78239
 H360 H 0.21312 0.39439 0.87840
 N361 N 0.63497 0.04851 0.81102
 N362 N 0.68623 0.04516 0.86302
 C363 C 0.74844 0.03068 0.83197
 C364 C 0.73851 0.02535 0.75947
 C365 C 0.66647 0.03636 0.74891
 H366 H 0.77766 0.01252 0.72015
 H367 H 0.58135 0.05707 0.82017
 H368 H 0.67627 0.05164 0.91658
 N369 N -0.26626 0.58950 0.30726
 N370 N -0.31993 0.58188 0.25881
 C371 C -0.29499 0.54353 0.20489
 C372 C -0.22447 0.52580 0.21692
 C373 C -0.20997 0.55330 0.28361
 H374 H -0.19222 0.48992 0.18654
 H375 H -0.27262 0.61288 0.35660
 H376 H -0.37098 0.60136 0.26537
 N377 N 0.18327 -0.03088 0.63423
 N378 N 0.13424 -0.03349 0.68292
 C379 C 0.16498 -0.02675 0.74633
 C380 C 0.23739 -0.01936 0.73771
 C381 C 0.24649 -0.02201 0.66535
 H382 H 0.27713 -0.01167 0.77784
 H383 H 0.17305 -0.03447 0.58043
 H384 H 0.08047 -0.03928 0.67245
 N385 N 0.19292 0.39598 0.24427
 N386 N 0.24270 0.39174 0.19656
 C387 C 0.29312 0.43891 0.21211
 C388 C 0.27534 0.47450 0.27344
 C389 C 0.21062 0.44586 0.29119
 H390 H 0.30123 0.51947 0.29681
 H391 H 0.14610 0.36726 0.24282
 H392 H 0.24008 0.35971 0.15193
 N393 N 0.81037 0.04718 0.35907
 N394 N 0.85965 0.04909 0.31054
 C395 C 0.83002 0.03506 0.24784
 C396 C 0.75815 0.02377 0.25666
 C397 C 0.74818 0.03136 0.32850
 H398 H 0.71965 0.00911 0.21725
 H399 H 0.81989 0.05527 0.41252
 H400 H 0.91291 0.05875 0.32070
 N401 N -0.27718 0.59676 0.67375
 N402 N -0.32690 0.59731 0.72176
 C403 C -0.30544 0.55835 0.77628
 C404 C -0.23814 0.53206 0.76293
 C405 C -0.22292 0.55695 0.69627
 H406 H -0.20819 0.49495 0.79374
 H407 H -0.28190 0.62101 0.62496
 H408 H -0.37582 0.62194 0.71592
   
