data_POSCAR
  _audit_creation_date              2014-09-24
  _audit_creation_method            'ToBaCCo'
  _symmetry_space_group_name_H-M    'P1'
  _symmetry_Int_Tables_number       1
  _symmetry_cell_setting            triclinic
  loop_
  _symmetry_equiv_pos_as_xyz
 x,y,z
_cell_length_a 65.1874
_cell_length_b 65.2374
_cell_length_c 18.8807
_cell_angle_alpha 90.013100
_cell_angle_beta 89.969500
_cell_angle_gamma 119.904900
loop_
  _atom_site_label
  _atom_site_type_symbol
  _atom_site_fract_x
  _atom_site_fract_y
  _atom_site_fract_z
C1 C 0.22691 0.49261 0.46348
 C2 C 0.22542 0.48932 0.53861
 C3 C 0.24339 0.48719 0.57355
 C4 C 0.26357 0.48988 0.53789
 C5 C 0.26507 0.49358 0.46345
 C6 C 0.24715 0.49538 0.42806
 H7 H 0.24810 0.49678 0.37078
 H8 H 0.24291 0.48592 0.63082
 C9 C 0.50895 -0.26446 0.46244
 C10 C 0.50626 -0.26545 0.53739
 C11 C 0.50538 -0.24706 0.57323
 C12 C 0.50812 -0.22688 0.53760
 C13 C 0.51078 -0.22591 0.46264
 C14 C 0.51158 -0.24433 0.42679
 H15 H 0.51254 -0.24363 0.36944
 H16 H 0.50442 -0.24775 0.63058
 C17 C 1.26412 0.77335 0.46110
 C18 C 1.26473 0.77223 0.53646
 C19 C 1.24634 0.75304 0.57247
 C20 C 1.22695 0.73513 0.53618
 C21 C 1.22610 0.73614 0.46155
 C22 C 1.24438 0.75530 0.42526
 H23 H 1.24378 0.75524 0.36788
 H24 H 1.24657 0.75261 0.62989
 C25 C 0.77615 0.51521 0.46393
 C26 C 0.77502 0.51258 0.53889
 C27 C 0.75510 0.51062 0.57459
 C28 C 0.73718 0.51268 0.53899
 C29 C 0.73867 0.51529 0.46402
 C30 C 0.75815 0.51672 0.42811
 H31 H 0.75868 0.51778 0.37073
 H32 H 0.75471 0.50984 0.63193
 C33 C 0.49515 0.26631 0.46438
 C34 C 0.49250 0.26520 0.53934
 C35 C 0.49050 0.24529 0.57506
 C36 C 0.49234 0.22727 0.53947
 C37 C 0.49503 0.22876 0.46452
 C38 C 0.49666 0.24830 0.42861
 H39 H 0.49771 0.24880 0.37123
 H40 H 0.48972 0.24493 0.63240
 C41 C 0.73734 0.22464 0.46298
 C42 C 0.73645 0.22565 0.53761
 C43 C 0.75470 0.24483 0.57390
 C44 C 0.77451 0.26282 0.53803
 C45 C 0.77511 0.26173 0.46266
 C46 C 0.75670 0.24259 0.42666
 H47 H 0.75695 0.24214 0.36925
 H48 H 0.75409 0.24477 0.63128
 N49 N 0.97498 0.52349 0.07588
 N50 N 0.95713 0.52736 0.08531
 N51 N 1.02475 0.53395 0.12450
 N52 N 1.04251 0.54553 0.16886
 N53 N 1.02479 0.54820 0.07537
 N54 N 1.04257 0.56988 0.08500
 N55 N 0.97498 0.50924 0.12497
 N56 N 0.95714 0.50304 0.16913
 C57 C 0.94614 0.51447 0.14372
 C58 C 1.05350 0.56794 0.14353
 N59 N 1.02464 0.47552 0.07563
 N60 N 1.04246 0.47159 0.08501
 N61 N 0.97489 0.46507 0.12512
 N62 N 0.95697 0.45362 0.16909
 N63 N 0.97483 0.45076 0.07614
 N64 N 0.95684 0.42917 0.08544
 N65 N 1.02469 0.48980 0.12467
 N66 N 1.04254 0.49600 0.16873
 Mn67 Mn 0.99983 0.49952 0.12566
 C68 C 1.05350 0.48451 0.14333
 C69 C 0.94585 0.43122 0.14369
 N70 N 1.02462 0.54806 -0.07729
 N71 N 1.04253 0.56968 -0.08706
 N72 N 0.97466 0.50900 -0.12557
 N73 N 0.95674 0.50276 -0.16938
 N74 N 0.97480 0.52335 -0.07660
 N75 N 0.95697 0.52726 -0.08574
 N76 N 1.02445 0.53372 -0.12635
 N77 N 1.04223 0.54517 -0.17080
 Mn78 Mn 0.99981 0.53604 -0.00066
 C79 C 1.05338 0.56760 -0.14564
 C80 C 0.94583 0.51428 -0.14385
 N81 N 0.97466 0.45060 -0.07633
 N82 N 0.95689 0.42890 -0.08574
 N83 N 1.02438 0.48958 -0.12608
 N84 N 1.04244 0.49616 -0.16958
 N85 N 1.02447 0.47541 -0.07692
 N86 N 1.04261 0.47194 -0.08568
 N87 N 0.97458 0.46481 -0.12543
 N88 N 0.95677 0.45316 -0.16958
 Mn89 Mn 0.99965 0.46282 -0.00038
 Mn90 Mn 0.99951 0.49927 -0.12671
 Cl91 Cl 0.99970 0.49941 -0.00052
 C92 C 0.94585 0.43076 -0.14412
 C93 C 1.05366 0.48500 -0.14379
 N94 N 0.47591 0.45097 0.07619
 N95 N 0.47229 0.42935 0.08541
 N96 N 0.46488 0.48986 0.12547
 N97 N 0.45327 0.49629 0.16903
 N98 N 0.45070 0.47565 0.07626
 N99 N 0.42904 0.47200 0.08505
 N100 N 0.49006 0.46523 0.12536
 N101 N 0.49646 0.45371 0.16934
 C102 C 0.48525 0.43134 0.14377
 C103 C 0.43091 0.48500 0.14322
 N104 N 0.52299 0.54843 0.07717
 N105 N 0.52658 0.57003 0.08678
 N106 N 0.53399 0.50945 0.12588
 N107 N 0.54563 0.50318 0.16983
 N108 N 0.54823 0.52380 0.07701
 N109 N 0.56995 0.52770 0.08637
 N110 N 0.50877 0.53407 0.12607
 N111 N 0.50230 0.54548 0.17024
 Mn112 Mn 0.49942 0.49964 0.12653
 C113 C 0.51353 0.56791 0.14509
 C114 C 0.56806 0.51470 0.14452
 N115 N 0.45084 0.47579 -0.07634
 N116 N 0.42910 0.47183 -0.08605
 N117 N 0.49032 0.46550 -0.12523
 N118 N 0.49685 0.45410 -0.16924
 N119 N 0.47606 0.45114 -0.07638
 N120 N 0.47251 0.42956 -0.08585
 N121 N 0.46510 0.49012 -0.12521
 N122 N 0.45348 0.49631 -0.16946
 Mn123 Mn 0.46311 0.46312 -0.00006
 C124 C 0.43102 0.48477 -0.14437
 C125 C 0.48561 0.43167 -0.14403
 N126 N 0.54839 0.52397 -0.07547
 N127 N 0.57013 0.52789 -0.08464
 N128 N 0.50902 0.53435 -0.12463
 N129 N 0.50257 0.54585 -0.16847
 N130 N 0.52314 0.54859 -0.07538
 N131 N 0.52669 0.57018 -0.08439
 N132 N 0.53425 0.50973 -0.12469
 N133 N 0.54598 0.50357 -0.16868
 Mn134 Mn 0.53594 0.53646 0.00083
 Mn135 Mn 0.49968 0.49993 -0.12578
 Cl136 Cl 0.49954 0.49979 0.00037
 C137 C 0.56836 0.51503 -0.14303
 C138 C 0.51373 0.56821 -0.14272
 N139 N 0.45060 -0.02505 0.07678
 N140 N 0.42898 -0.04300 0.08621
 N141 N 0.48984 0.02472 0.12538
 N142 N 0.49624 0.04262 0.16934
 N143 N 0.47554 0.02476 0.07652
 N144 N 0.47182 0.04270 0.08594
 N145 N 0.46494 -0.02502 0.12560
 N146 N 0.45350 -0.04293 0.16953
 C147 C 0.43106 -0.05401 0.14436
 C148 C 0.48487 0.05370 0.14410
 N149 N 0.54816 0.02460 0.07573
 N150 N 0.56990 0.04228 0.08547
 N151 N 0.50904 -0.02511 0.12507
 N152 N 0.50267 -0.04302 0.16896
 N153 N 0.52324 -0.02518 0.07589
 N154 N 0.52693 -0.04314 0.08498
 N155 N 0.53393 0.02462 0.12491
 N156 N 0.54558 0.04230 0.16941
 Mn157 Mn 0.49944 -0.00020 0.12606
 C158 C 0.56801 0.05321 0.14413
 C159 C 0.51397 -0.05413 0.14331
 N160 N 0.47540 0.02468 -0.07610
 N161 N 0.47175 0.04268 -0.08533
 N162 N 0.46466 -0.02516 -0.12497
 N163 N 0.45302 -0.04298 -0.16907
 N164 N 0.45045 -0.02510 -0.07581
 N165 N 0.42874 -0.04288 -0.08513
 N166 N 0.48958 0.02457 -0.12528
 N167 N 0.49597 0.04246 -0.16924
 Mn168 Mn 0.46273 -0.00017 0.00035
 C169 C 0.48471 0.05362 -0.14372
 C170 C 0.43062 -0.05390 -0.14355
 N171 N 0.52309 -0.02527 -0.07663
 N172 N 0.52691 -0.04315 -0.08611
 N173 N 0.53368 0.02447 -0.12580
 N174 N 0.54518 0.04230 -0.16997
 N175 N 0.54799 0.02451 -0.07688
 N176 N 0.56965 0.04238 -0.08646
 N177 N 0.50877 -0.02528 -0.12548
 N178 N 0.50245 -0.04315 -0.16953
 Mn179 Mn 0.53588 -0.00033 -0.00048
 Mn180 Mn 0.49917 -0.00036 -0.12622
 Cl181 Cl 0.49931 -0.00026 -0.00007
 C182 C 0.51389 -0.05417 -0.14430
 C183 C 0.56762 0.05334 -0.14478
 C184 C 1.17005 0.48823 0.34212
 C185 C 1.16551 0.47269 0.39861
 C186 C 1.18420 0.47381 0.43781
 C187 C 1.20789 0.49079 0.42195
 C188 C 1.21219 0.50572 0.36295
 C189 C 1.19341 0.50455 0.32386
 C190 C 1.15066 0.48781 0.30441
 C191 C 1.13421 0.48752 0.27428
 C192 C 1.11435 0.48722 0.23997
 C193 C 1.10448 0.47363 0.17893
 C194 C 1.08475 0.47287 0.14698
 C195 C 1.07467 0.48569 0.17589
 C196 C 1.08483 0.49947 0.23681
 C197 C 1.10454 0.50020 0.26863
 H198 H 1.14748 0.45978 0.41269
 H199 H 1.18006 0.46116 0.48019
 H200 H 1.23003 0.51911 0.34890
 H201 H 1.19713 0.51667 0.28015
 H202 H 1.11192 0.46349 0.15634
 H203 H 1.07731 0.46215 0.10002
 H204 H 1.07746 0.50956 0.26015
 H205 H 1.11202 0.51076 0.31590
 C206 C 0.50793 0.67963 0.34440
 C207 C 0.49243 0.67457 0.40136
 C208 C 0.49247 0.69291 0.43963
 C209 C 0.50830 0.71679 0.42235
 C210 C 0.52327 0.72155 0.36310
 C211 C 0.52318 0.70313 0.32494
 C212 C 0.50845 0.66067 0.30699
 C213 C 0.50895 0.64463 0.27687
 C214 C 0.50962 0.62530 0.24233
 C215 C 0.49684 0.60247 0.27058
 C216 C 0.49796 0.58374 0.23855
 C217 C 0.51194 0.58764 0.17784
 C218 C 0.52455 0.61057 0.14934
 C219 C 0.52340 0.62930 0.18150
 H220 H 0.48029 0.65641 0.41626
 H221 H 0.47962 0.68829 0.48169
 H222 H 0.53587 0.73954 0.34796
 H223 H 0.53526 0.70725 0.28085
 H224 H 0.48613 0.59919 0.31768
 H225 H 0.48802 0.56626 0.26157
 H226 H 0.53542 0.61407 0.10256
 H227 H 0.53339 0.64690 0.15924
 C228 C 0.31973 -0.17167 0.34280
 C229 C 0.32495 -0.18149 0.40104
 C230 C 0.30672 -0.19984 0.43941
 C231 C 0.28279 -0.20854 0.42093
 C232 C 0.27790 -0.19896 0.36041
 C233 C 0.29620 -0.18059 0.32216
 C234 C 0.33855 -0.15212 0.30531
 C235 C 0.35450 -0.13552 0.27520
 C236 C 0.37376 -0.11545 0.24086
 C237 C 0.39662 -0.10545 0.26895
 C238 C 0.41530 -0.08554 0.23717
 C239 C 0.41134 -0.07536 0.17685
 C240 C 0.38837 -0.08563 0.14849
 C241 C 0.36968 -0.10556 0.18042
 H242 H 0.34314 -0.17495 0.41688
 H243 H 0.31149 -0.20756 0.48254
 H244 H 0.25985 -0.20488 0.34431
 H245 H 0.29196 -0.17311 0.27707
 H246 H 0.39997 -0.11294 0.31575
 H247 H 0.43281 -0.07804 0.26008
 H248 H 0.38483 -0.07817 0.10201
 H249 H 0.35205 -0.11315 0.15829
 C250 C 0.83006 0.51195 0.34190
 C251 C 0.82590 0.53088 0.33290
 C252 C 0.80805 0.53171 0.37163
 C253 C 0.79431 0.51370 0.42021
 C254 C 0.79814 0.49443 0.42754
 C255 C 0.81601 0.49363 0.38884
 C256 C 0.84921 0.51169 0.30482
 C257 C 0.86553 0.51164 0.27488
 C258 C 0.88529 0.51176 0.24045
 C259 C 0.89513 0.52530 0.17929
 C260 C 0.91485 0.52603 0.14730
 C261 C 0.92495 0.51325 0.17629
 C262 C 0.91480 0.49951 0.23730
 C263 C 0.89510 0.49880 0.26918
 H264 H 0.83668 0.54514 0.29673
 H265 H 0.80532 0.54668 0.36508
 H266 H 0.78752 0.48021 0.46399
 H267 H 0.81905 0.47889 0.39612
 H268 H 0.88770 0.53543 0.15668
 H269 H 0.92228 0.53673 0.10028
 H270 H 0.92218 0.48945 0.26069
 H271 H 0.88763 0.48829 0.31655
 C272 C 0.49098 0.31954 0.34174
 C273 C 0.51015 0.31573 0.33280
 C274 C 0.51132 0.29812 0.37181
 C275 C 0.49341 0.28430 0.42061
 C276 C 0.47392 0.28781 0.42792
 C277 C 0.47279 0.30542 0.38895
 C278 C 0.49029 0.33840 0.30430
 C279 C 0.48972 0.35441 0.27428
 C280 C 0.48905 0.37378 0.24006
 C281 C 0.47533 0.36988 0.17917
 C282 C 0.47421 0.38866 0.14731
 C283 C 0.48679 0.41154 0.17619
 C284 C 0.50068 0.41533 0.23697
 C285 C 0.50178 0.39655 0.26868
 H286 H 0.52433 0.32657 0.29642
 H287 H 0.52644 0.29562 0.36524
 H288 H 0.45977 0.27711 0.46451
 H289 H 0.45786 0.30819 0.39618
 H290 H 0.46539 0.35232 0.15662
 H291 H 0.46340 0.38525 0.10046
 H292 H 0.51059 0.43277 0.26028
 H293 H 0.51244 0.39976 0.31583
 C294 C 0.68083 0.16878 0.34504
 C295 C 0.67604 0.18246 0.39209
 C296 C 0.69446 0.20084 0.42985
 C297 C 0.71785 0.20561 0.42137
 C298 C 0.72259 0.19207 0.37320
 C299 C 0.70415 0.17370 0.33538
 C300 C 0.66173 0.14944 0.30781
 C301 C 0.64556 0.13309 0.27761
 C302 C 0.62605 0.11340 0.24281
 C303 C 0.62985 0.10366 0.18153
 C304 C 0.61091 0.08415 0.14890
 C305 C 0.58798 0.07416 0.17735
 C306 C 0.58429 0.08419 0.23854
 C307 C 0.60323 0.10368 0.27104
 H308 H 0.65807 0.17884 0.39985
 H309 H 0.69047 0.21129 0.46594
 H310 H 0.74051 0.19548 0.36586
 H311 H 0.70804 0.16321 0.29912
 H312 H 0.64745 0.11104 0.15926
 H313 H 0.61425 0.07679 0.10176
 H314 H 0.56681 0.07689 0.26155
 H315 H 0.60009 0.11108 0.31846
 C316 C 0.49153 0.17161 -0.34180
 C317 C 0.47675 0.18051 -0.32265
 C318 C 0.47725 0.19908 -0.36108
 C319 C 0.49233 0.20887 -0.42027
 C320 C 0.50767 0.20014 -0.43727
 C321 C 0.50712 0.18160 -0.39874
 C322 C 0.49049 0.15194 -0.30410
 C323 C 0.48968 0.13526 -0.27400
 C324 C 0.48881 0.11513 -0.23984
 C325 C 0.50155 0.10502 -0.26832
 C326 C 0.50033 0.08508 -0.23667
 C327 C 0.48631 0.07498 -0.17609
 C328 C 0.47372 0.08535 -0.14737
 C329 C 0.47496 0.10531 -0.17917
 H330 H 0.46460 0.17289 -0.27857
 H331 H 0.46502 0.20502 -0.34617
 H332 H 0.52059 0.20799 -0.47929
 H333 H 0.51891 0.17508 -0.41340
 H334 H 0.51231 0.11246 -0.31529
 H335 H 0.51025 0.07751 -0.25987
 H336 H 0.46282 0.07795 -0.10068
 H337 H 0.46502 0.11299 -0.15673
 C338 C 0.68218 0.51331 -0.34224
 C339 C 0.69064 0.49818 -0.32292
 C340 C 0.70900 0.49818 -0.36138
 C341 C 0.71899 0.51311 -0.42075
 C342 C 0.71071 0.52880 -0.43790
 C343 C 0.69240 0.52875 -0.39936
 C344 C 0.66281 0.51289 -0.30435
 C345 C 0.64643 0.51268 -0.27403
 C346 C 0.62673 0.51263 -0.23943
 C347 C 0.60400 0.49959 -0.26825
 C348 C 0.58494 0.50019 -0.23645
 C349 C 0.58841 0.51389 -0.17541
 C350 C 0.61124 0.52673 -0.14628
 C351 C 0.63030 0.52611 -0.17821
 H352 H 0.68287 0.48616 -0.27865
 H353 H 0.71462 0.48572 -0.34632
 H354 H 0.71877 0.54163 -0.48003
 H355 H 0.68624 0.54081 -0.41411
 H356 H 0.60104 0.48913 -0.31569
 H357 H 0.56754 0.49008 -0.25995
 H358 H 0.61441 0.53740 -0.09923
 H359 H 0.64782 0.53631 -0.15553
 C360 C 0.83061 0.31725 -0.34381
 C361 C 0.83558 0.30727 -0.40215
 C362 C 0.81717 0.28910 -0.44046
 C363 C 0.79331 0.28075 -0.42184
 C364 C 0.78865 0.29047 -0.36120
 C365 C 0.80714 0.30867 -0.32299
 C366 C 0.84966 0.33654 -0.30622
 C367 C 0.86585 0.35287 -0.27601
 C368 C 0.88545 0.37252 -0.24137
 C369 C 0.89513 0.39525 -0.27014
 C370 C 0.91468 0.41428 -0.23807
 C371 C 0.92480 0.41077 -0.17683
 C372 C 0.91482 0.38793 -0.14780
 C373 C 0.89527 0.36891 -0.17997
 H374 H 0.85372 0.31352 -0.41808
 H375 H 0.82175 0.28123 -0.48365
 H376 H 0.77066 0.28479 -0.34495
 H377 H 0.80309 0.31626 -0.27776
 H378 H 0.88769 0.39823 -0.31769
 H379 H 0.92197 0.43168 -0.26151
 H380 H 0.92224 0.38472 -0.10059
 H381 H 0.88793 0.35138 -0.15732
 C382 C 0.51040 -0.17044 -0.34396
 C383 C 0.49482 -0.19387 -0.32446
 C384 C 0.49430 -0.21248 -0.36280
 C385 C 0.50913 -0.20797 -0.42226
 C386 C 0.52527 -0.18418 -0.43958
 C387 C 0.52574 -0.16566 -0.40114
 C388 C 0.51046 -0.15123 -0.30621
 C389 C 0.51060 -0.13489 -0.27593
 C390 C 0.51088 -0.11509 -0.24131
 C391 C 0.49789 -0.10525 -0.26969
 C392 C 0.49871 -0.08553 -0.23771
 C393 C 0.51258 -0.07539 -0.17693
 C394 C 0.52538 -0.08552 -0.14828
 C395 C 0.52455 -0.10525 -0.18038
 H396 H 0.48286 -0.19778 -0.28015
 H397 H 0.48150 -0.23040 -0.34759
 H398 H 0.53804 -0.17976 -0.48175
 H399 H 0.53814 -0.14756 -0.41605
 H400 H 0.48728 -0.11270 -0.31689
 H401 H 0.48862 -0.07813 -0.26086
 H402 H 0.53618 -0.07809 -0.10143
 H403 H 0.53470 -0.11271 -0.15802
 C404 C 0.31882 0.48945 -0.34420
 C405 C 0.32420 0.50546 -0.39983
 C406 C 0.30607 0.50583 -0.43814
 C407 C 0.28208 0.48992 -0.42223
 C408 C 0.27697 0.47436 -0.36440
 C409 C 0.29519 0.47403 -0.32618
 C410 C 0.33763 0.48870 -0.30652
 C411 C 0.35366 0.48819 -0.27631
 C412 C 0.37310 0.48770 -0.24187
 C413 C 0.39593 0.50072 -0.27005
 C414 C 0.41482 0.49989 -0.23797
 C415 C 0.41109 0.48598 -0.17725
 C416 C 0.38814 0.47310 -0.14885
 C417 C 0.36925 0.47395 -0.18107
 H418 H 0.34246 0.51772 -0.41359
 H419 H 0.31096 0.51909 -0.47900
 H420 H 0.25888 0.46168 -0.35037
 H421 H 0.29082 0.46156 -0.28311
 H422 H 0.39911 0.51140 -0.31710
 H423 H 0.43231 0.51003 -0.26092
 H424 H 0.38477 0.46228 -0.10206
 H425 H 0.35164 0.46379 -0.15884
 C426 C 1.16987 0.67975 -0.34600
 C427 C 1.19307 0.68431 -0.33619
 C428 C 1.21171 0.70253 -0.37394
 C429 C 1.20729 0.71625 -0.42223
 C430 C 1.18402 0.71184 -0.43085
 C431 C 1.16541 0.69363 -0.39315
 C432 C 1.15053 0.66061 -0.30875
 C433 C 1.13412 0.64448 -0.27857
 C434 C 1.11427 0.62509 -0.24378
 C435 C 1.10456 0.62906 -0.18269
 C436 C 1.08483 0.61030 -0.15024
 C437 C 1.07456 0.58736 -0.17870
 C438 C 1.08457 0.58350 -0.23968
 C439 C 1.10429 0.60227 -0.27200
 H440 H 1.19671 0.67367 -0.29982
 H441 H 1.22953 0.70567 -0.36646
 H442 H 1.18028 0.72245 -0.46701
 H443 H 1.14755 0.69030 -0.40102
 H444 H 1.11213 0.64666 -0.16044
 H445 H 1.07751 0.61377 -0.10326
 H446 H 1.07707 0.56602 -0.26268
 H447 H 1.11164 0.59900 -0.31930
 C448 C 0.83047 0.51285 -0.34263
 C449 C 0.83574 0.52835 -0.39961
 C450 C 0.81754 0.52853 -0.43805
 C451 C 0.79359 0.51290 -0.42093
 C452 C 0.78860 0.49791 -0.36169
 C453 C 0.80689 0.49778 -0.32334
 C454 C 0.84936 0.51231 -0.30484
 C455 C 0.86549 0.51203 -0.27457
 C456 C 0.88510 0.51191 -0.24001
 C457 C 0.89502 0.52543 -0.17888
 C458 C 0.91467 0.52602 -0.14702
 C459 C 0.92465 0.51313 -0.17613
 C460 C 0.91441 0.49938 -0.23705
 C461 C 0.89476 0.49881 -0.26880
 H462 H 0.85396 0.54037 -0.41433
 H463 H 0.82234 0.54140 -0.48007
 H464 H 0.77052 0.48550 -0.34666
 H465 H 0.80262 0.48572 -0.27916
 H466 H 0.88771 0.53567 -0.15624
 H467 H 0.92218 0.53672 -0.10005
 H468 H 0.92169 0.48924 -0.26053
 H469 H 0.88725 0.48833 -0.31618
 C470 C 0.49226 0.32043 -0.34239
 C471 C 0.47734 0.29685 -0.32302
 C472 C 0.47765 0.27864 -0.36130
 C473 C 0.49269 0.28371 -0.42053
 C474 C 0.50816 0.30768 -0.43775
 C475 C 0.50781 0.32579 -0.39937
 C476 C 0.49139 0.33917 -0.30487
 C477 C 0.49067 0.35511 -0.27480
 C478 C 0.48984 0.37438 -0.24053
 C479 C 0.47597 0.37035 -0.17989
 C480 C 0.47470 0.38904 -0.14798
 C481 C 0.48729 0.41197 -0.17655
 C482 C 0.50134 0.41589 -0.23709
 C483 C 0.50258 0.39719 -0.26887
 H484 H 0.46523 0.29250 -0.27891
 H485 H 0.46532 0.26057 -0.34623
 H486 H 0.52105 0.31255 -0.47982
 H487 H 0.51969 0.34403 -0.41419
 H488 H 0.46602 0.35275 -0.15758
 H489 H 0.46378 0.38554 -0.10131
 H490 H 0.51126 0.43337 -0.26016
 H491 H 0.51335 0.40050 -0.31583
 C492 C 0.68045 0.16928 -0.34435
 C493 C 0.68537 0.19260 -0.33485
 C494 C 0.70379 0.21102 -0.37267
 C495 C 0.71735 0.20624 -0.42070
 C496 C 0.71258 0.18286 -0.42898
 C497 C 0.69416 0.16448 -0.39123
 C498 C 0.66112 0.15018 -0.30705
 C499 C 0.64486 0.13390 -0.27688
 C500 C 0.62536 0.11417 -0.24215
 C501 C 0.60254 0.10433 -0.27045
 C502 C 0.58368 0.08464 -0.23835
 C503 C 0.58745 0.07453 -0.17753
 C504 C 0.61038 0.08466 -0.14894
 C505 C 0.62922 0.10436 -0.18117
 H506 H 0.67486 0.19650 -0.29868
 H507 H 0.70724 0.22893 -0.36545
 H508 H 0.72305 0.17885 -0.46495
 H509 H 0.69055 0.14652 -0.39884
 H510 H 0.59936 0.11176 -0.31769
 H511 H 0.56621 0.07724 -0.26143
 H512 H 0.61378 0.07725 -0.10208
 H513 H 0.64682 0.11181 -0.15889
 C514 C 1.17196 0.49150 -0.33894
 C515 C 1.17975 0.47571 -0.32123
 C516 C 1.19772 0.47529 -0.36060
 C517 C 1.20794 0.49046 -0.41934
 C518 C 1.20049 0.50693 -0.43458
 C519 C 1.18256 0.50730 -0.39508
 C520 C 1.15252 0.49100 -0.30133
 C521 C 1.13591 0.49044 -0.27146
 C522 C 1.11575 0.48965 -0.23768
 C523 C 1.10578 0.47576 -0.17721
 C524 C 1.08564 0.47436 -0.14613
 C525 C 1.07524 0.48684 -0.17538
 C526 C 1.08551 0.50094 -0.23568
 C527 C 1.10563 0.50231 -0.26663
 H528 H 1.17164 0.46338 -0.27780
 H529 H 1.20274 0.46226 -0.34708
 H530 H 1.20865 0.51973 -0.47680
 H531 H 1.17683 0.51979 -0.40875
 H532 H 1.11345 0.46585 -0.15448
 H533 H 1.07811 0.46341 -0.09962
 H534 H 1.07791 0.51078 -0.25924
 H535 H 1.11318 0.51308 -0.31350
 C536 C 0.50893 0.68053 -0.33999
 C537 C 0.49004 0.68479 -0.33134
 C538 C 0.48936 0.70267 -0.37032
 C539 C 0.50747 0.71628 -0.41881
 C540 C 0.52667 0.71231 -0.42581
 C541 C 0.52732 0.69445 -0.38686
 C542 C 0.50917 0.66146 -0.30253
 C543 C 0.50948 0.64531 -0.27254
 C544 C 0.50997 0.62585 -0.23834
 C545 C 0.49725 0.60312 -0.26726
 C546 C 0.49831 0.58429 -0.23573
 C547 C 0.51215 0.58801 -0.17488
 C548 C 0.52468 0.61084 -0.14567
 C549 C 0.52360 0.62966 -0.17732
 H550 H 0.47572 0.67412 -0.29518
 H551 H 0.47446 0.70554 -0.36400
 H552 H 0.54098 0.72285 -0.46215
 H553 H 0.54204 0.69133 -0.39384
 H554 H 0.48667 0.59999 -0.31453
 H555 H 0.48844 0.56689 -0.25928
 H556 H 0.53545 0.61419 -0.09875
 H557 H 0.53354 0.64720 -0.15458
 C558 C 0.31807 -0.17047 -0.34145
 C559 C 0.31387 -0.19351 -0.33124
 C560 C 0.29619 -0.21225 -0.37006
 C561 C 0.28271 -0.20806 -0.41992
 C562 C 0.28659 -0.18500 -0.42849
 C563 C 0.30426 -0.16629 -0.38970
 C564 C 0.33702 -0.15100 -0.30423
 C565 C 0.35314 -0.13452 -0.27434
 C566 C 0.37263 -0.11465 -0.24016
 C567 C 0.36888 -0.10478 -0.17912
 C568 C 0.38780 -0.08507 -0.14718
 C569 C 0.41068 -0.07503 -0.17611
 C570 C 0.41432 -0.08518 -0.23706
 C571 C 0.39540 -0.10487 -0.26887
 H572 H 0.32445 -0.19693 -0.29404
 H573 H 0.29340 -0.22992 -0.36254
 H574 H 0.27615 -0.18147 -0.46596
 H575 H 0.30734 -0.14853 -0.39791
 H576 H 0.35132 -0.11221 -0.15650
 H577 H 0.38450 -0.07763 -0.10020
 H578 H 0.43176 -0.07784 -0.26041
 H579 H 0.39850 -0.11236 -0.31613
 C580 C 0.50930 -0.17123 0.34017
 C581 C 0.52784 -0.17600 0.33138
 C582 C 0.52811 -0.19409 0.37030
 C583 C 0.50992 -0.20744 0.41884
 C584 C 0.49104 -0.20298 0.42597
 C585 C 0.49080 -0.18488 0.38709
 C586 C 0.50960 -0.15185 0.30295
 C587 C 0.50993 -0.13537 0.27308
 C588 C 0.51041 -0.11542 0.23896
 C589 C 0.52414 -0.10555 0.17812
 C590 C 0.52517 -0.08568 0.14646
 C591 C 0.51249 -0.07545 0.17550
 C592 C 0.49857 -0.08562 0.23621
 C593 C 0.49756 -0.10548 0.26773
 H594 H 0.54224 -0.16553 0.29522
 H595 H 0.54278 -0.19732 0.36390
 H596 H 0.47668 -0.21330 0.46239
 H597 H 0.47635 -0.18136 0.39419
 H598 H 0.53418 -0.11310 0.15549
 H599 H 0.53599 -0.07823 0.09966
 H600 H 0.48859 -0.07815 0.25962
 H601 H 0.48691 -0.11297 0.31486
 C602 C 0.31872 0.49051 0.33958
 C603 C 0.31508 0.50983 0.33276
 C604 C 0.29734 0.51067 0.37217
 C605 C 0.28324 0.49228 0.41926
 C606 C 0.28661 0.47266 0.42441
 C607 C 0.30433 0.47185 0.38504
 C608 C 0.33768 0.49008 0.30189
 C609 C 0.35378 0.48963 0.27185
 C610 C 0.37321 0.48902 0.23784
 C611 C 0.39597 0.50184 0.26658
 C612 C 0.41480 0.50067 0.23537
 C613 C 0.41107 0.48662 0.17501
 C614 C 0.38821 0.47397 0.14597
 C615 C 0.36937 0.47516 0.17732
 H616 H 0.32613 0.52436 0.29773
 H617 H 0.29494 0.52589 0.36727
 H618 H 0.27569 0.45814 0.45961
 H619 H 0.30698 0.45680 0.39062
 H620 H 0.39912 0.51259 0.31347
 H621 H 0.43223 0.51064 0.25877
 H622 H 0.38485 0.46304 0.09943
 H623 H 0.35181 0.46513 0.15474
 C624 C 1.16980 0.68020 0.34339
 C625 C 1.18329 0.67514 0.39036
 C626 C 1.20181 0.69338 0.42818
 C627 C 1.20690 0.71686 0.41984
 C628 C 1.19356 0.72188 0.37172
 C629 C 1.17504 0.70361 0.33384
 C630 C 1.15030 0.66127 0.30619
 C631 C 1.13384 0.64519 0.27611
 C632 C 1.11402 0.62577 0.24156
 C633 C 1.10419 0.60297 0.26991
 C634 C 1.08459 0.58410 0.23763
 C635 C 1.07455 0.58783 0.17656
 C636 C 1.08464 0.61074 0.14799
 C637 C 1.10426 0.62961 0.18041
 H638 H 1.17941 0.65710 0.39803
 H639 H 1.21211 0.68918 0.46424
 H640 H 1.19725 0.73987 0.36448
 H641 H 1.16469 0.70770 0.29762
 H642 H 1.11161 0.59981 0.31723
 H643 H 1.07721 0.56664 0.26070
 H644 H 1.07728 0.61410 0.10094
 H645 H 1.11173 0.64719 0.15806
 C646 C 0.49064 0.17123 0.34211
 C647 C 0.50990 0.19409 0.33329
 C648 C 0.51114 0.21291 0.37223
 C649 C 0.49321 0.20898 0.42085
 C650 C 0.47363 0.18610 0.42804
 C651 C 0.47243 0.16731 0.38913
 C652 C 0.48988 0.15164 0.30473
 C653 C 0.48928 0.13503 0.27474
 C654 C 0.48859 0.11499 0.24053
 C655 C 0.47476 0.10513 0.17989
 C656 C 0.47366 0.08525 0.14800
 C657 C 0.48636 0.07500 0.17659
 C658 C 0.50037 0.08514 0.23713
 C659 C 0.50145 0.10501 0.26889
 H660 H 0.52409 0.19730 0.29705
 H661 H 0.52632 0.23043 0.36576
 H662 H 0.45946 0.18277 0.46449
 H663 H 0.45743 0.14970 0.39626
 H664 H 0.46472 0.11271 0.15755
 H665 H 0.46276 0.07781 0.10134
 H666 H 0.51038 0.07765 0.26022
 H667 H 0.51219 0.11249 0.31584
 C668 C 0.68156 0.51209 0.34214
 C669 C 0.67730 0.49379 0.38918
 C670 C 0.69595 0.49457 0.42785
 C671 C 0.71903 0.51381 0.42038
 C672 C 0.72330 0.53180 0.37170
 C673 C 0.70462 0.53098 0.33301
 C674 C 0.66217 0.51184 0.30509
 C675 C 0.64581 0.51180 0.27520
 C676 C 0.62619 0.51194 0.24085
 C677 C 0.60342 0.49887 0.26944
 C678 C 0.58443 0.49960 0.23768
 C679 C 0.58802 0.51346 0.17694
 C680 C 0.61090 0.52634 0.14808
 C681 C 0.62988 0.52559 0.17995
 H682 H 0.65953 0.47907 0.39656
 H683 H 0.69236 0.48037 0.46438
 H684 H 0.74097 0.54673 0.36505
 H685 H 0.70810 0.54523 0.29675
 H686 H 0.60038 0.48828 0.31662
 H687 H 0.56699 0.48946 0.26096
 H688 H 0.61416 0.53712 0.10126
 H689 H 0.64744 0.53579 0.15746
 C690 C 0.82906 0.31869 0.34090
 C691 C 0.81544 0.32313 0.38921
 C692 C 0.79754 0.30454 0.42784
 C693 C 0.79326 0.28134 0.41904
 C694 C 0.80656 0.27690 0.36909
 C695 C 0.82444 0.29552 0.33044
 C696 C 0.84829 0.33798 0.30394
 C697 C 0.86469 0.35422 0.27410
 C698 C 0.88457 0.37367 0.23979
 C699 C 0.89452 0.39643 0.26849
 C700 C 0.91437 0.41523 0.23681
 C701 C 0.92452 0.41146 0.17604
 C702 C 0.91428 0.38859 0.14707
 C703 C 0.89442 0.36980 0.17886
 H704 H 0.81885 0.34099 0.39762
 H705 H 0.78725 0.30827 0.46540
 H706 H 0.80347 0.25913 0.36142
 H707 H 0.83489 0.29189 0.29320
 H708 H 0.88706 0.39960 0.31570
 H709 H 0.92186 0.43267 0.26017
 H710 H 0.92171 0.38519 0.10022
 H711 H 0.88687 0.35224 0.15630
   
