data_POSCAR
  _audit_creation_date              2014-09-24
  _audit_creation_method            'ToBaCCo'
  _symmetry_space_group_name_H-M    'P1'
  _symmetry_Int_Tables_number       1
  _symmetry_cell_setting            triclinic
  loop_
  _symmetry_equiv_pos_as_xyz
 x,y,z
_cell_length_a 53.6006
_cell_length_b 50.0040
_cell_length_c 50.6192
_cell_angle_alpha 92.422300
_cell_angle_beta 94.011800
_cell_angle_gamma 87.793200
loop_
  _atom_site_label
  _atom_site_type_symbol
  _atom_site_fract_x
  _atom_site_fract_y
  _atom_site_fract_z
C1 C 0.61276 0.63528 0.61817
 N2 N 0.61251 0.61577 0.63603
 C3 C 0.63091 0.59630 0.63762
 N4 N 0.64974 0.59661 0.62097
 C5 C 0.65029 0.61598 0.60301
 N6 N 0.63172 0.63527 0.60172
 C7 C 0.90780 0.36376 0.12337
 N8 N 0.90685 0.38288 0.14325
 C9 C 0.88744 0.40117 0.14376
 N10 N 0.86885 0.40032 0.12412
 C11 C 0.86955 0.38143 0.10409
 N12 N 0.88901 0.36322 0.10388
 C13 C 0.38755 0.15864 -0.12091
 N14 N 0.38967 0.13658 -0.13735
 C15 C 0.37333 0.11651 -0.13701
 N16 N 0.35504 0.11848 -0.11970
 C17 C 0.35281 0.14028 -0.10297
 N18 N 0.36903 0.16041 -0.10383
 C19 C 0.10655 0.85069 0.36277
 N20 N 0.12569 0.84828 0.38173
 C21 C 0.14751 0.86076 0.37960
 N22 N 0.15004 0.87599 0.35841
 C23 C 0.13098 0.87904 0.33948
 N24 N 0.10940 0.86621 0.34185
 N25 N 0.09994 0.16080 0.10635
 N26 N 0.08695 0.14570 0.12057
 C27 C 0.06499 0.15847 0.12510
 C28 C 0.06435 0.18297 0.11337
 C29 C 0.08686 0.18385 0.10171
 H30 H 0.05071 0.15085 0.13653
 H31 H 0.09297 0.19981 0.09021
 Cu32 Cu 0.10076 0.11171 0.13327
 Cu33 Cu 0.13196 0.14860 0.09333
 Cu34 Cu 0.15628 0.08723 0.11449
 N35 N 0.11501 0.07777 0.14570
 N36 N 0.13712 0.06873 0.13896
 C37 C 0.14338 0.04612 0.15174
 C38 C 0.12410 0.04060 0.16728
 C39 C 0.10638 0.06109 0.16288
 H40 H 0.16075 0.03466 0.15001
 H41 H 0.08898 0.06416 0.17234
 N42 N 0.17282 0.10892 0.08971
 N43 N 0.16389 0.13254 0.08211
 C44 C 0.17880 0.14171 0.06440
 C45 C 0.19792 0.12287 0.06051
 C46 C 0.19355 0.10240 0.07696
 H47 H 0.17532 0.16012 0.05409
 H48 H 0.20440 0.08385 0.07908
 H49 H 0.12651 0.10807 0.09543
 H50 H 0.14269 0.12512 0.12501
 N51 N 0.40663 0.82519 0.61870
 N52 N 0.41519 0.83553 0.64172
 C53 C 0.43703 0.82292 0.64917
 C54 C 0.44254 0.80371 0.62974
 C55 C 0.42286 0.80582 0.61062
 H56 H 0.44803 0.82717 0.66748
 H57 H 0.42003 0.79339 0.59274
 Cu58 Cu 0.39660 0.86390 0.66008
 Cu59 Cu 0.37396 0.83578 0.60223
 Cu60 Cu 0.33938 0.88446 0.63615
 N61 N 0.37800 0.89285 0.67762
 N62 N 0.35525 0.90012 0.66865
 C63 C 0.34665 0.92044 0.68419
 C64 C 0.36507 0.92642 0.70386
 C65 C 0.38473 0.90850 0.69906
 H66 H 0.32870 0.93079 0.68081
 H67 H 0.40261 0.90709 0.71027
 N68 N 0.32677 0.86650 0.60275
 N69 N 0.34037 0.84898 0.58915
 C70 C 0.32713 0.84168 0.56654
 C71 C 0.30404 0.85507 0.56604
 C72 C 0.30447 0.87057 0.58932
 H73 H 0.33362 0.82741 0.55168
 H74 H 0.28981 0.88435 0.59561
 H75 H 0.37248 0.87423 0.61893
 H76 H 0.35831 0.84754 0.63712
 N77 N 0.89659 0.68935 0.39444
 N78 N 0.90034 0.68313 0.36951
 C79 C 0.91892 0.69775 0.36188
 C80 C 0.92744 0.71392 0.38323
 C81 C 0.91281 0.70804 0.40360
 H82 H 0.92633 0.69591 0.34253
 H83 H 0.91397 0.71657 0.42362
 Cu84 Cu 0.88230 0.65502 0.34973
 Cu85 Cu 0.87119 0.67234 0.41300
 Cu86 Cu 0.84822 0.61419 0.38299
 N87 N 0.87318 0.61991 0.33533
 N88 N 0.86107 0.60340 0.34892
 C89 C 0.85841 0.58014 0.33477
 C90 C 0.86928 0.58234 0.31097
 C91 C 0.87841 0.60789 0.31199
 H92 H 0.84886 0.56311 0.34108
 H93 H 0.88862 0.61684 0.29714
 N94 N 0.83730 0.62903 0.41717
 N95 N 0.84552 0.65168 0.42823
 C96 C 0.83287 0.65797 0.44983
 C97 C 0.81591 0.63825 0.45258
 C98 C 0.81934 0.62017 0.43157
 H99 H 0.83548 0.67584 0.46234
 H100 H 0.80860 0.60262 0.42638
 H101 H 0.87938 0.63665 0.39276
 H102 H 0.84990 0.65543 0.38097
 N103 N 0.58828 0.34066 -0.10615
 N104 N 0.57503 0.35429 -0.12419
 C105 C 0.55368 0.34157 -0.13104
 C106 C 0.55378 0.31857 -0.11672
 C107 C 0.57602 0.31867 -0.10114
 H108 H 0.53958 0.34806 -0.14597
 H109 H 0.58279 0.30382 -0.08718
 Cu110 Cu 0.58762 0.38630 -0.13841
 Cu111 Cu 0.62041 0.35228 -0.09059
 Cu112 Cu 0.64798 0.40132 -0.12317
 N113 N 0.60503 0.41046 -0.15929
 N114 N 0.62878 0.41546 -0.15388
 C115 C 0.63605 0.43238 -0.17159
 C116 C 0.61574 0.43846 -0.18900
 C117 C 0.59633 0.42418 -0.18055
 H118 H 0.65456 0.44029 -0.17135
 H119 H 0.57737 0.42361 -0.18932
 N120 N 0.66401 0.38472 -0.09137
 N121 N 0.65295 0.36677 -0.07831
 C122 C 0.66742 0.36086 -0.05638
 C123 C 0.68875 0.37562 -0.05574
 C124 C 0.68603 0.39045 -0.07828
 H125 H 0.66281 0.34688 -0.04191
 H126 H 0.69872 0.40508 -0.08410
 H127 H 0.61855 0.39217 -0.10128
 H128 H 0.62859 0.36636 -0.12683
 C129 C -0.05125 0.34677 0.14142
 C130 C -0.03146 0.32773 0.14104
 C131 C -0.03249 0.30581 0.12298
 C132 C -0.05326 0.30343 0.10468
 C133 C -0.07276 0.32280 0.10450
 C134 C -0.07221 0.34465 0.12308
 N135 N -0.01227 0.28625 0.12348
 N136 N -0.01525 0.26247 0.11416
 C137 C 0.00497 0.24295 0.11393
 C138 C -0.00042 0.21575 0.11242
 C139 C 0.01892 0.19621 0.11255
 C140 C 0.04397 0.20365 0.11334
 C141 C 0.04936 0.23095 0.11425
 C142 C 0.03001 0.25050 0.11489
 H143 H -0.04990 0.36327 0.15596
 H144 H -0.01547 0.32981 0.15518
 H145 H -0.05429 0.28674 0.09036
 H146 H -0.08843 0.32030 0.09001
 H147 H -0.01966 0.20972 0.11154
 H148 H 0.01430 0.17528 0.11161
 H149 H 0.06854 0.23715 0.11496
 H150 H 0.03455 0.27144 0.11581
 C151 C 0.58836 0.67185 0.59428
 C152 C 0.56919 0.69164 0.59305
 C153 C 0.55431 0.69668 0.61447
 C154 C 0.55859 0.68141 0.63713
 C155 C 0.57747 0.66135 0.63822
 C156 C 0.59264 0.65641 0.61685
 N157 N 0.53485 0.71712 0.61271
 N158 N 0.52370 0.72567 0.63296
 C159 C 0.50380 0.74560 0.63152
 C160 C 0.49547 0.75719 0.65509
 C161 C 0.47583 0.77639 0.65451
 C162 C 0.46386 0.78400 0.63024
 C163 C 0.47218 0.77225 0.60655
 C164 C 0.49212 0.75333 0.60716
 H165 H 0.59964 0.66844 0.57744
 H166 H 0.56602 0.70321 0.57545
 H167 H 0.54723 0.68482 0.65389
 H168 H 0.58034 0.64987 0.65592
 H169 H 0.50425 0.75130 0.67398
 H170 H 0.46969 0.78483 0.67310
 H171 H 0.46341 0.77782 0.58756
 H172 H 0.49818 0.74452 0.58867
 C173 C 1.06504 0.83837 0.34394
 C174 C 1.04327 0.82412 0.34507
 C175 C 1.03988 0.80865 0.36678
 C176 C 1.05855 0.80762 0.38764
 C177 C 1.08054 0.82162 0.38647
 C178 C 1.08419 0.83713 0.36449
 N179 N 1.01773 0.79351 0.36662
 N180 N 1.01184 0.78124 0.38667
 C181 C 0.99007 0.76537 0.38563
 C182 C 0.98257 0.75514 0.40902
 C183 C 0.96186 0.73887 0.40841
 C184 C 0.94855 0.73225 0.38424
 C185 C 0.95604 0.74270 0.36082
 C186 C 0.97652 0.75922 0.36151
 H187 H 1.06692 0.84999 0.32666
 H188 H 1.02901 0.82501 0.32885
 H189 H 1.05636 0.79566 0.40460
 H190 H 1.09467 0.82011 0.40276
 H191 H 0.99291 0.75966 0.42773
 H192 H 0.95668 0.73095 0.42676
 H193 H 0.94604 0.73818 0.34194
 H194 H 0.98196 0.76682 0.34313
 C195 C 0.39904 0.20649 -0.11237
 C196 C 0.41619 0.22686 -0.11250
 C197 C 0.44023 0.22128 -0.12092
 C198 C 0.44677 0.19515 -0.12991
 C199 C 0.42948 0.17490 -0.13032
 C200 C 0.40552 0.18030 -0.12129
 N201 N 0.45771 0.24231 -0.11996
 N202 N 0.48108 0.23731 -0.12108
 C203 C 0.49884 0.25802 -0.12039
 C204 C 0.52417 0.25131 -0.11477
 C205 C 0.54200 0.27105 -0.11340
 C206 C 0.53481 0.29780 -0.11828
 C207 C 0.50943 0.30445 -0.12448
 C208 C 0.49150 0.28475 -0.12526
 H209 H 0.38066 0.21127 -0.10547
 H210 H 0.41091 0.24694 -0.10560
 H211 H 0.46520 0.19041 -0.13669
 H212 H 0.43502 0.15490 -0.13724
 H213 H 0.53004 0.23076 -0.11110
 H214 H 0.56146 0.26530 -0.10887
 H215 H 0.50340 0.32494 -0.12824
 H216 H 0.47201 0.29034 -0.12983
 C217 C 0.15574 -0.09130 0.31507
 C218 C 0.15749 -0.07381 0.29449
 C219 C 0.13687 -0.06858 0.27677
 C220 C 0.11452 -0.08171 0.27933
 C221 C 0.11277 -0.09945 0.29965
 C222 C 0.13324 -0.10422 0.31814
 N223 N 0.13883 -0.04941 0.25685
 N224 N 0.11974 -0.04084 0.24288
 C225 C 0.12137 -0.02136 0.22320
 C226 C 0.09926 -0.00973 0.21179
 C227 C 0.10012 0.01026 0.19344
 C228 C 0.12321 0.01869 0.18591
 C229 C 0.14541 0.00649 0.19689
 C230 C 0.14452 -0.01326 0.21552
 H231 H 0.17201 -0.09446 0.32865
 H232 H 0.17485 -0.06386 0.29267
 H233 H 0.09835 -0.07812 0.26574
 H234 H 0.09513 -0.10896 0.30108
 H235 H 0.08130 -0.01588 0.21749
 H236 H 0.08270 0.01906 0.18512
 H237 H 0.16349 0.01266 0.19162
 H238 H 0.16187 -0.02204 0.22403
 C239 C 0.65041 0.55700 -0.34076
 C240 C 0.65030 0.53756 -0.32173
 C241 C 0.63036 0.53662 -0.30545
 C242 C 0.61038 0.55550 -0.30833
 C243 C 0.61054 0.57519 -0.32711
 C244 C 0.63059 0.57629 -0.34364
 N245 N 0.63115 0.51677 -0.28579
 N246 N 0.61243 0.51269 -0.27253
 C247 C 0.61355 0.49341 -0.25229
 C248 C 0.59153 0.48741 -0.24082
 C249 C 0.59211 0.46919 -0.22056
 C250 C 0.61489 0.45695 -0.21116
 C251 C 0.63696 0.46295 -0.22279
 C252 C 0.63631 0.48091 -0.24326
 H253 H 0.66622 0.55702 -0.35295
 H254 H 0.66585 0.52314 -0.31963
 H255 H 0.59480 0.55525 -0.29586
 H256 H 0.59488 0.58951 -0.32859
 H257 H 0.57390 0.49699 -0.24755
 H258 H 0.57482 0.46517 -0.21188
 H259 H 0.65476 0.45367 -0.21618
 H260 H 0.65360 0.48527 -0.25177
 C261 C 0.39685 1.08752 0.83074
 C262 C 0.39832 1.06542 0.81296
 C263 C 0.37812 1.04854 0.80834
 C264 C 0.35648 1.05370 0.82212
 C265 C 0.35509 1.07557 0.84013
 C266 C 0.37518 1.09287 0.84449
 N267 N 0.37991 1.02653 0.78943
 N268 N 0.36104 1.01287 0.78161
 C269 C 0.36261 0.99085 0.76271
 C270 C 0.34049 0.97962 0.75187
 C271 C 0.34126 0.95862 0.73280
 C272 C 0.36431 0.94822 0.72454
 C273 C 0.38655 0.95918 0.73584
 C274 C 0.38572 0.98044 0.75465
 H275 H 0.41270 1.10036 0.83374
 H276 H 0.41513 1.06161 0.80250
 H277 H 0.34065 1.04086 0.81897
 H278 H 0.33812 1.07914 0.85035
 H279 H 0.32257 0.98741 0.75800
 H280 H 0.32383 0.95043 0.72467
 H281 H 0.40457 0.95173 0.72975
 H282 H 0.40309 0.98875 0.76283
 C283 C 0.89911 0.41714 0.19040
 C284 C 0.89768 0.43629 0.21123
 C285 C 0.88408 0.46044 0.20752
 C286 C 0.87154 0.46514 0.18274
 C287 C 0.87253 0.44579 0.16206
 C288 C 0.88642 0.42164 0.16564
 N289 N 0.88303 0.47970 0.22920
 N290 N 0.87596 0.50396 0.22574
 C291 C 0.87429 0.52317 0.24739
 C292 C 0.87288 0.55045 0.24214
 C293 C 0.87147 0.56972 0.26284
 C294 C 0.87083 0.56192 0.28912
 C295 C 0.87180 0.53451 0.29433
 C296 C 0.87377 0.51526 0.27365
 H297 H 0.90982 0.39864 0.19379
 H298 H 0.90734 0.43240 0.23026
 H299 H 0.86077 0.48361 0.17947
 H300 H 0.86261 0.44983 0.14319
 H301 H 0.87314 0.55677 0.22197
 H302 H 0.87051 0.59070 0.25825
 H303 H 0.87146 0.52798 0.31442
 H304 H 0.87466 0.49425 0.27814
 C305 C 0.32772 0.16567 -0.06939
 C306 C 0.30993 0.16650 -0.05039
 C307 C 0.29783 0.14328 -0.04483
 C308 C 0.30335 0.11921 -0.05892
 C309 C 0.32088 0.11841 -0.07811
 C310 C 0.33345 0.14157 -0.08341
 N311 N 0.28015 0.14451 -0.02481
 N312 N 0.27136 0.12339 -0.01648
 C313 C 0.25343 0.12399 0.00323
 C314 C 0.24681 0.09978 0.01317
 C315 C 0.22909 0.09944 0.03209
 C316 C 0.21743 0.12341 0.04121
 C317 C 0.22416 0.14776 0.03124
 C318 C 0.24211 0.14808 0.01247
 H319 H 0.33698 0.18388 -0.07308
 H320 H 0.30577 0.18519 -0.03973
 H321 H 0.29414 0.10101 -0.05511
 H322 H 0.32487 0.09951 -0.08848
 H323 H 0.25537 0.08109 0.00612
 H324 H 0.22417 0.08031 0.03909
 H325 H 0.21566 0.16657 0.03799
 H326 H 0.24693 0.16705 0.00503
 C327 C 0.68630 0.59306 0.58113
 C328 C 0.70589 0.59326 0.56430
 C329 C 0.71088 0.61661 0.55165
 C330 C 0.69578 0.63982 0.55571
 C331 C 0.67594 0.63955 0.57221
 C332 C 0.67106 0.61619 0.58520
 N333 N 0.73109 0.61615 0.53454
 N334 N 0.73909 0.63748 0.52578
 C335 C 0.75886 0.63705 0.50812
 C336 C 0.76916 0.66124 0.50235
 C337 C 0.78807 0.66162 0.48472
 C338 C 0.79674 0.63774 0.47222
 C339 C 0.78642 0.61344 0.47811
 C340 C 0.76773 0.61306 0.49602
 H341 H 0.68295 0.57471 0.59073
 H342 H 0.71733 0.57522 0.56124
 H343 H 0.69919 0.65808 0.54600
 H344 H 0.66460 0.65771 0.57500
 H345 H 0.76241 0.67986 0.51148
 H346 H 0.79544 0.68068 0.48042
 H347 H 0.79283 0.59470 0.46894
 H348 H 0.76001 0.59410 0.50011
 C349 C 0.85382 0.36937 0.05757
 C350 C 0.83462 0.36858 0.03741
 C351 C 0.81048 0.37825 0.04231
 C352 C 0.80579 0.38934 0.06753
 C353 C 0.82510 0.39071 0.08753
 C354 C 0.84925 0.38053 0.08280
 N355 N 0.79110 0.37676 0.02141
 N356 N 0.76806 0.37872 0.02603
 C357 C 0.74859 0.37785 0.00521
 C358 C 0.72423 0.37283 0.01144
 C359 C 0.70482 0.37172 -0.00844
 C360 C 0.70940 0.37631 -0.03483
 C361 C 0.73379 0.38175 -0.04102
 C362 C 0.75332 0.38224 -0.02119
 H363 H 0.87229 0.36154 0.05333
 H364 H 0.83847 0.36008 0.01802
 H365 H 0.78729 0.39714 0.07169
 H366 H 0.82105 0.39935 0.10681
 H367 H 0.72035 0.36953 0.03174
 H368 H 0.68614 0.36777 -0.00308
 H369 H 0.73782 0.38526 -0.06122
 H370 H 0.77200 0.38635 -0.02642
 C371 C 0.19286 0.86351 0.39482
 C372 C 0.21236 0.86163 0.41456
 C373 C 0.20757 0.85496 0.44023
 C374 C 0.18302 0.84946 0.44586
 C375 C 0.16355 0.85085 0.42601
 C376 C 0.16823 0.85819 0.40036
 N377 N 0.22782 0.85427 0.46023
 N378 N 0.22414 0.85364 0.48476
 C379 C 0.24437 0.85305 0.50480
 C380 C 0.23920 0.85844 0.53123
 C381 C 0.25859 0.85906 0.55117
 C382 C 0.28350 0.85374 0.54499
 C383 C 0.28861 0.84766 0.51851
 C384 C 0.26923 0.84754 0.49851
 H385 H 0.19709 0.86904 0.37521
 H386 H 0.23121 0.86585 0.40996
 H387 H 0.17889 0.84410 0.46555
 H388 H 0.14477 0.84669 0.43089
 H389 H 0.22011 0.86262 0.53633
 H390 H 0.25406 0.86353 0.57143
 H391 H 0.30764 0.84362 0.51317
 H392 H 0.27366 0.84318 0.47821
   
