data_POSCAR
  _audit_creation_date              2014-09-24
  _audit_creation_method            'ToBaCCo'
  _symmetry_space_group_name_H-M    'P1'
  _symmetry_Int_Tables_number       1
  _symmetry_cell_setting            triclinic
  loop_
  _symmetry_equiv_pos_as_xyz
 x,y,z
_cell_length_a 13.7426
_cell_length_b 13.4847
_cell_length_c 34.0964
_cell_angle_alpha 86.137600
_cell_angle_beta 97.559200
_cell_angle_gamma 119.887900
loop_
  _atom_site_label
  _atom_site_type_symbol
  _atom_site_fract_x
  _atom_site_fract_y
  _atom_site_fract_z
C1 C 0.07618 0.27241 0.53995
 H2 H 0.15881 0.31245 0.52997
 C3 C 0.05901 0.32472 0.57008
 H4 H 0.12671 0.40646 0.58156
 C5 C -0.10515 0.10937 0.54264
 H6 H -0.16614 0.02305 0.53320
 C7 C -0.12434 0.15736 0.57382
 H8 H -0.20087 0.10859 0.58797
 N9 N -0.00507 0.16621 0.52694
 C10 C 0.01743 -0.13048 0.52855
 H11 H -0.00997 -0.16175 0.49851
 C12 C -0.00010 -0.20805 0.55982
 H13 H -0.04177 -0.29855 0.55336
 C14 C 0.09721 0.02394 0.57356
 H15 H 0.13167 0.11401 0.57893
 C16 C 0.08176 -0.05031 0.60562
 H17 H 0.10730 -0.01588 0.63533
 Zn18 Zn 0.03555 0.07981 0.49799
 N19 N 0.05957 -0.01765 0.53606
 C20 C 0.22557 0.12689 0.46172
 N21 N 0.16695 0.17528 0.47276
 C22 C 0.18001 0.27574 0.45651
 C23 C 0.25198 0.32988 0.42738
 C24 C 0.29645 0.17696 0.43183
 C25 C -0.16967 -0.11329 0.46421
 C26 C -0.23106 -0.19181 0.43331
 C27 C -0.11603 -0.04946 0.38787
 C28 C -0.05745 0.02514 0.41942
 N29 N -0.07983 -0.00970 0.45706
 H30 H 0.20944 0.04426 0.47355
 H31 H 0.12575 0.30782 0.46285
 H32 H 0.25592 0.40566 0.41293
 H33 H 0.33614 0.13362 0.42107
 H34 H -0.18752 -0.13941 0.49432
 H35 H -0.29390 -0.27671 0.44140
 H36 H -0.09450 -0.01578 0.35865
 H37 H 0.01001 0.10948 0.41359
 C38 C 0.02710 -0.16863 0.59904
 C39 C -0.04034 0.26523 0.58817
 C40 C -0.19932 -0.16385 0.39438
 C41 C 0.30741 0.27797 0.41382
 C42 C 1.17923 0.04286 0.11434
 H43 H 1.16863 0.11579 0.11817
 C44 C 1.23200 0.04047 0.08272
 H45 H 1.26321 0.11241 0.06249
 C46 C 1.14297 -0.14330 0.13442
 H47 H 1.10369 -0.21611 0.15380
 C48 C 1.19601 -0.14921 0.10278
 H49 H 1.19842 -0.22646 0.09794
 N50 N 1.13393 -0.04870 0.13892
 C51 C 0.90861 0.06805 0.13263
 H52 H 0.94862 0.13480 0.15472
 C53 C 0.83442 0.07258 0.10087
 H54 H 0.81720 0.14298 0.09846
 C55 C 0.88573 -0.10260 0.10710
 H56 H 0.90719 -0.16997 0.10942
 C57 C 0.81265 -0.10113 0.07527
 H58 H 0.77774 -0.16781 0.05314
 Zn59 Zn 1.04005 -0.03483 0.17143
 N60 N 0.93282 -0.01877 0.13483
 C61 C 1.07723 0.11634 0.23192
 N62 N 1.12897 0.09271 0.20555
 C63 C 1.24369 0.14487 0.20804
 C64 C 1.31089 0.22053 0.23886
 C65 C 1.14133 0.19088 0.26344
 C66 C 1.01941 -0.16908 0.23930
 C67 C 0.96091 -0.22810 0.27142
 C68 C 0.78520 -0.28486 0.22987
 C69 C 0.84685 -0.22377 0.19873
 N70 N 0.96184 -0.16280 0.20447
 H71 H 0.98596 0.07183 0.22987
 H72 H 1.28361 0.12235 0.18778
 H73 H 1.40162 0.25617 0.24149
 H74 H 1.09861 0.20536 0.28504
 H75 H 1.11057 -0.11804 0.24348
 H76 H 1.00790 -0.22396 0.29995
 H77 H 0.69402 -0.32388 0.22571
 H78 H 0.80172 -0.21632 0.17139
 C79 C 0.78776 -0.01200 0.07145
 C80 C 1.23790 -0.05741 0.07596
 C81 C 0.84237 -0.28124 0.26738
 C82 C 1.25972 0.24134 0.26783
 C83 C 0.00340 0.87835 0.89310
 H84 H -0.08592 0.81660 0.89035
 C85 C 0.07351 0.87221 0.92518
 H86 H 0.03786 0.80455 0.94679
 C87 C 0.15647 1.04404 0.86887
 H88 H 0.18705 1.11244 0.84735
 C89 C 0.23059 1.04086 0.90087
 H90 H 0.31856 1.10698 0.90388
 N91 N 0.04491 0.96358 0.86592
 C92 C -0.28419 0.88540 0.86518
 H93 H -0.33004 0.81834 0.84331
 C94 C -0.33760 0.89071 0.89691
 H95 H -0.42476 0.82652 0.89917
 C96 C -0.11287 1.04639 0.89022
 H97 H -0.02500 1.10698 0.88752
 C98 C -0.16064 1.05219 0.92261
 H99 H -0.10878 1.11966 0.94400
 Zn100 Zn -0.07234 0.96366 0.82981
 N101 N -0.17287 0.96170 0.86315
 C102 C -0.18343 0.84528 0.75898
 N103 N -0.13019 0.83788 0.79471
 C104 C -0.08617 0.76645 0.80010
 C105 C -0.08414 0.70855 0.76810
 C106 C -0.18254 0.78934 0.72602
 C107 C -0.08156 1.15565 0.79647
 C108 C -0.07452 1.23094 0.76542
 C109 C 0.05414 1.18828 0.73823
 C110 C 0.04493 1.11386 0.76993
 N111 N -0.02526 1.09605 0.79748
 H112 H -0.21548 0.90451 0.75506
 H113 H -0.04177 0.76286 0.82817
 H114 H -0.03938 0.66082 0.77260
 H115 H -0.21776 0.80312 0.69723
 H116 H -0.13952 1.13828 0.81785
 H117 H -0.12623 1.27119 0.76378
 H118 H 0.10620 1.19734 0.71552
 H119 H 0.08674 1.06362 0.77088
 C120 C -0.27341 0.97152 0.92737
 C121 C 0.18801 0.95533 0.92992
 C122 C -0.00995 1.24420 0.73486
 C123 C -0.12648 0.72523 0.73003
 C124 C 0.21653 -0.05648 0.00301
 C125 C 0.25810 -0.04528 -0.03325
 C126 C 0.36339 -0.03765 -0.03388
 C127 C 0.42401 -0.05030 0.00130
 C128 C 0.37630 -0.06729 0.03733
 C129 C 0.27590 -0.06512 0.03832
 C130 C 0.53788 -0.04075 0.00057
 C131 C 0.61389 -0.01684 0.03562
 C132 C 0.71978 -0.00682 0.03488
 C133 C 0.75607 -0.00792 -0.00126
 C134 C 0.68448 -0.03003 -0.03681
 C135 C 0.57314 -0.05339 -0.03525
 H136 H 0.13804 -0.05621 0.00390
 H137 H 0.39613 -0.02197 -0.06209
 H138 H 0.41698 -0.07894 0.06512
 H139 H 0.59211 -0.00828 0.06396
 H140 H 0.83899 0.00084 -0.00112
 H141 H 0.51685 -0.07616 -0.06240
 C142 C -0.05543 0.77079 0.66359
 C143 C -0.09489 0.69262 0.69487
 C144 C -0.09218 0.58985 0.69421
 C145 C -0.04687 0.56678 0.66353
 C146 C -0.00486 0.64837 0.63318
 C147 C -0.01049 0.74942 0.63258
 C148 C -0.04256 0.45841 0.66300
 C149 C -0.05270 0.40810 0.62671
 C150 C -0.04595 0.30833 0.62577
 C151 C -0.03143 0.25604 0.66111
 C152 C -0.02077 0.30410 0.69774
 C153 C -0.02600 0.40563 0.69846
 H154 H -0.05789 0.84978 0.66373
 H155 H -0.12582 0.52798 0.71764
 H156 H 0.03462 0.63485 0.61021
 H157 H -0.06592 0.44582 0.59891
 H158 H -0.02759 0.17796 0.65988
 H159 H -0.01455 0.44451 0.72668
 C160 C 0.81978 0.77172 0.33260
 C161 C 0.78054 0.68982 0.30274
 C162 C 0.67814 0.58807 0.30490
 C163 C 0.61336 0.56840 0.33627
 C164 C 0.65404 0.65295 0.36579
 C165 C 0.75830 0.75584 0.36489
 C166 C 0.50203 0.46116 0.33788
 C167 C 0.46190 0.41527 0.37459
 C168 C 0.35643 0.31723 0.37622
 C169 C 0.29089 0.26187 0.34132
 C170 C 0.32867 0.30475 0.30439
 C171 C 0.43381 0.40491 0.30287
 H172 H 0.90129 0.84682 0.33050
 H173 H 0.64985 0.52461 0.28202
 H174 H 0.59985 0.64126 0.38793
 H175 H 0.51182 0.45507 0.40212
 H176 H 0.20985 0.18513 0.34310
 H177 H 0.46055 0.43991 0.27423
   
