data_POSCAR
  _audit_creation_date              2014-09-24
  _audit_creation_method            'ToBaCCo'
  _symmetry_space_group_name_H-M    'P1'
  _symmetry_Int_Tables_number       1
  _symmetry_cell_setting            triclinic
  loop_
  _symmetry_equiv_pos_as_xyz
 x,y,z
_cell_length_a 37.1260
_cell_length_b 38.4289
_cell_length_c 35.0058
_cell_angle_alpha 91.779900
_cell_angle_beta 88.529500
_cell_angle_gamma 92.311000
loop_
  _atom_site_label
  _atom_site_type_symbol
  _atom_site_fract_x
  _atom_site_fract_y
  _atom_site_fract_z
C1 C 0.18548 0.19692 0.20661
 C2 C 0.21756 0.18378 0.19118
 C3 C 0.23617 0.20079 0.16133
 C4 C 0.22271 0.23121 0.14693
 C5 C 0.19066 0.24451 0.16234
 C6 C 0.17206 0.22736 0.19219
 H7 H 0.22776 0.15999 0.20201
 H8 H 0.23674 0.24418 0.12346
 H9 H 0.14701 0.23743 0.20371
 C10 C -0.20743 0.80258 0.22833
 C11 C -0.19199 0.77213 0.21340
 C12 C -0.20717 0.75430 0.18171
 C13 C -0.23780 0.76689 0.16502
 C14 C -0.25322 0.79725 0.17989
 C15 C -0.23810 0.81498 0.21156
 H16 H -0.16785 0.76275 0.22580
 H17 H -0.24908 0.75358 0.14003
 H18 H -0.24973 0.83888 0.22251
 C19 C -0.21598 0.20864 -0.25858
 C20 C -0.24832 0.19531 -0.24218
 C21 C -0.26531 0.21358 -0.21197
 C22 C -0.25019 0.24540 -0.19841
 C23 C -0.21790 0.25884 -0.21461
 C24 C -0.20076 0.24052 -0.24478
 H25 H -0.25952 0.17015 -0.25194
 H26 H -0.26269 0.25902 -0.17422
 H27 H -0.17518 0.25045 -0.25651
 C28 C 0.19700 0.80270 -0.25334
 C29 C 0.18206 0.77073 -0.24098
 C30 C 0.20044 0.75152 -0.21474
 C31 C 0.23369 0.76418 -0.20103
 C32 C 0.24858 0.79611 -0.21320
 C33 C 0.23029 0.81530 -0.23947
 H34 H 0.15590 0.76133 -0.25091
 H35 H 0.24730 0.74974 -0.17989
 H36 H 0.24138 0.84044 -0.24828
 C37 C 0.20473 1.19991 0.76899
 C38 C 0.18945 1.22847 0.78793
 C39 C 0.20078 1.23909 0.82442
 C40 C 0.22776 1.22126 0.84202
 C41 C 0.24322 1.19267 0.82294
 C42 C 0.23171 1.18206 0.78641
 H43 H 0.16785 1.24168 0.77482
 H44 H 0.23600 1.22902 0.87063
 H45 H 0.24291 1.15935 0.77212
 C46 C 0.82389 0.80733 0.76549
 C47 C 0.83741 0.77849 0.78301
 C48 C 0.82148 0.76652 0.81712
 C49 C 0.79183 0.78333 0.83368
 C50 C 0.77824 0.81217 0.81612
 C51 C 0.79424 0.82411 0.78202
 H52 H 0.86082 0.76590 0.77059
 H53 H 0.77980 0.77447 0.86042
 H54 H 0.78410 0.84687 0.76890
 C55 C 0.21620 0.77593 1.27333
 C56 C 0.20211 0.74509 1.25633
 C57 C 0.21823 0.73123 1.22294
 C58 C 0.24892 0.74808 1.20669
 C59 C 0.26329 0.77887 1.22398
 C60 C 0.24697 0.79262 1.25735
 H61 H 0.17745 0.73287 1.26782
 H62 H 0.26056 0.73816 1.18000
 H63 H 0.25713 0.81725 1.26968
 C64 C 0.80386 1.20430 1.26464
 C65 C 0.77251 1.18730 1.25084
 C66 C 0.75398 1.20141 1.22096
 C67 C 0.76680 1.23272 1.20493
 C68 C 0.79813 1.24977 1.21891
 C69 C 0.81649 1.23559 1.24881
 H70 H 0.76317 1.16257 1.26243
 H71 H 0.75314 1.24318 1.18107
 H72 H 0.84130 1.24830 1.25877
 O73 O 0.53460 0.96259 0.93109
 O74 O 0.46286 0.98325 1.08696
 O75 O 0.56884 0.97792 1.03339
 O76 O 0.45163 0.93763 0.97718
 O77 O 0.52043 0.95777 1.06072
 O78 O 0.46708 0.96219 0.92513
 O79 O 0.45539 0.94710 1.04218
 O80 O 0.57445 0.99171 0.96592
 C81 C 0.56618 0.96735 0.94227
 C82 C 0.44898 0.95507 1.07603
 C83 C 0.55283 0.95480 1.05241
 C84 C 0.45264 0.93719 0.94200
 O85 O 0.46784 1.02889 0.93134
 O86 O 0.52519 1.01505 1.09913
 O87 O 0.54708 1.05526 0.98339
 O88 O 0.43074 1.01436 1.03622
 O89 O 0.47894 1.04173 1.05801
 O90 O 0.53598 1.03038 0.92909
 O91 O 0.42619 1.00256 0.96736
 O92 O 0.54448 1.04300 1.04952
 Co93 Co 0.50131 0.99592 0.93591
 Co94 Co 0.50083 0.99999 1.05714
 Co95 Co 0.55369 1.01505 1.00742
 Co96 Co 0.44543 0.97708 1.00555
 O97 O 0.49893 0.99568 0.99900
 C98 C 0.43580 1.02529 0.94325
 C99 C 0.54857 1.03698 1.08443
 C100 C 0.54722 1.05629 0.94814
 C101 C 0.44586 1.04120 1.05159
 O102 O 0.03773 0.47898 0.05472
 O103 O 0.03242 0.53354 -0.07904
 O104 O 0.00087 0.42967 -0.04060
 O105 O 0.04928 0.54297 0.03800
 O106 O 0.03214 0.46832 -0.07359
 O107 O 0.01272 0.53445 0.08311
 O108 O 0.05818 0.54839 -0.02699
 O109 O 0.01484 0.43324 0.02681
 C110 C 0.03956 0.44761 0.04582
 C111 C 0.05809 0.54802 -0.06215
 C112 C 0.02739 0.43794 -0.06221
 C113 C 0.04167 0.54812 0.07216
 O114 O -0.04850 0.52083 0.05462
 O115 O -0.03801 0.46704 -0.07667
 O116 O -0.05165 0.45799 0.04349
 O117 O -0.00922 0.57280 -0.03534
 O118 O -0.03630 0.53307 -0.07292
 O119 O -0.02138 0.47448 0.09337
 O120 O -0.02007 0.56755 0.03399
 O121 O -0.06439 0.45752 -0.02286
 Co122 Co -0.00569 0.49883 0.05230
 Co123 Co -0.00239 0.50039 -0.06880
 Co124 Co -0.02307 0.44940 0.00115
 Co125 Co 0.01771 0.55361 0.00214
 O126 O -0.00198 0.50201 -0.00569
 C127 C -0.04749 0.55303 0.04986
 C128 C -0.06502 0.45632 -0.05813
 C129 C -0.04506 0.45304 0.07815
 C130 C -0.03227 0.56398 -0.06040
 O131 O 1.06998 0.04176 0.45725
 O132 O 0.92521 0.01351 0.53443
 O133 O 0.97456 0.02468 0.42233
 O134 O 1.02832 0.06054 0.54934
 O135 O 0.94956 0.04227 0.47494
 O136 O 1.07765 0.03948 0.52822
 O137 O 0.96702 0.04996 0.54496
 O138 O 1.03831 0.01224 0.41475
 C139 C 1.05933 0.03761 0.42385
 C140 C 0.93509 0.04101 0.55085
 C141 C 0.95653 0.04669 0.44062
 C142 C 1.06144 0.06248 0.54638
 O143 O 1.07411 -0.02722 0.52525
 O144 O 0.91380 -0.01535 0.46743
 O145 O 1.02305 -0.05249 0.44278
 O146 O 0.97375 -0.01852 0.56684
 O147 O 0.95332 -0.04357 0.51458
 O148 O 1.07392 -0.02617 0.45319
 O149 O 1.03926 -0.00558 0.57147
 O150 O 0.96057 -0.04181 0.44553
 Co151 Co 1.06759 0.00679 0.49110
 Co152 Co 0.95352 -0.00072 0.49347
 Co153 Co 0.99985 -0.01258 0.43673
 Co154 Co 1.00224 0.02008 0.55323
 O155 O 1.00820 0.00478 0.49527
 C156 C 1.06352 -0.02595 0.55964
 C157 C 0.92752 -0.03622 0.44181
 C158 C 1.05630 -0.05302 0.44330
 C159 C 0.95880 -0.04450 0.54966
 C160 C 1.08276 0.12750 0.31769
 C161 C 1.11360 0.15523 0.32474
 C162 C 1.13354 0.14137 0.28875
 C163 C 1.10300 0.11400 0.28121
 C164 C 1.10281 0.10172 0.34133
 C165 C 1.12276 0.08792 0.30532
 C166 C 1.13335 0.12909 0.34886
 C167 C 1.15352 0.11557 0.31243
 C168 C 1.15149 0.16269 0.25924
 C169 C 1.16707 0.17928 0.23469
 C170 C 1.08645 0.07916 0.37066
 C171 C 1.07371 0.06030 0.39486
 H172 H 1.05346 0.13215 0.32015
 H173 H 1.11001 0.18314 0.33242
 H174 H 1.09067 0.10803 0.25308
 H175 H 1.12638 0.06002 0.29760
 H176 H 1.14569 0.13507 0.37698
 H177 H 1.18281 0.11088 0.31001
 C178 C 0.84067 -0.12622 0.37367
 C179 C 0.81931 -0.11341 0.33965
 C180 C 0.83919 -0.13908 0.31284
 C181 C 0.86025 -0.15224 0.34637
 C182 C 0.87050 -0.09843 0.36521
 C183 C 0.89034 -0.12412 0.33838
 C184 C 0.84945 -0.08529 0.33167
 C185 C 0.86903 -0.11128 0.30446
 C186 C 0.82217 -0.16123 0.28293
 C187 C 0.80831 -0.17869 0.25763
 C188 C 0.88907 -0.07580 0.39365
 C189 C 0.90573 -0.05745 0.41616
 H190 H 0.82916 -0.13210 0.40244
 H191 H 0.78989 -0.10926 0.33986
 H192 H 0.86456 -0.18000 0.35210
 H193 H 0.91976 -0.12829 0.33812
 H194 H 0.84515 -0.05754 0.32592
 H195 H 0.88059 -0.10536 0.27571
 C196 C 0.84307 0.12906 0.60566
 C197 C 0.81905 0.11784 0.64041
 C198 C 0.83688 0.14747 0.66468
 C199 C 0.86056 0.15906 0.63038
 C200 C 0.87213 0.10478 0.61832
 C201 C 0.88991 0.13442 0.64261
 C202 C 0.84845 0.09322 0.65263
 C203 C 0.86596 0.12317 0.67725
 C204 C 0.81762 0.17076 0.69144
 C205 C 0.80190 0.18909 0.71442
 C206 C 0.89287 0.08120 0.59326
 C207 C 0.91128 0.06238 0.57346
 H208 H 0.83383 0.13119 0.57595
 H209 H 0.78967 0.11130 0.63978
 H210 H 0.86538 0.18637 0.62151
 H211 H 0.91929 0.14100 0.64329
 H212 H 0.84364 0.06591 0.66153
 H213 H 0.87525 0.12100 0.70695
 C214 C 1.13812 -0.11823 0.61796
 C215 C 1.16248 -0.10683 0.65172
 C216 C 1.14290 -0.13447 0.67636
 C217 C 1.11879 -0.14621 0.64296
 C218 C 1.11049 -0.09177 0.63227
 C219 C 1.09086 -0.11939 0.65688
 C220 C 1.13461 -0.08005 0.66567
 C221 C 1.11527 -0.10801 0.69069
 C222 C 1.16156 -0.15778 0.70099
 C223 C 1.17744 -0.17626 0.72154
 C224 C 1.09302 -0.06795 0.60723
 C225 C 1.07925 -0.04855 0.58596
 H226 H 1.14736 -0.12218 0.58778
 H227 H 1.19214 -0.10192 0.64981
 H228 H 1.11248 -0.17366 0.63385
 H229 H 1.06120 -0.12427 0.65876
 H230 H 1.14093 -0.05260 0.67479
 H231 H 1.10604 -0.10407 0.72087
 C232 C 0.38059 1.14611 1.11740
 C233 C 0.35537 1.16695 1.09264
 C234 C 0.32281 1.15298 1.11637
 C235 C 0.34751 1.13257 1.14131
 C236 C 0.37551 1.11460 1.08971
 C237 C 0.34287 1.10081 1.11344
 C238 C 0.35083 1.13499 1.06470
 C239 C 0.31785 1.12145 1.08867
 C240 C 0.29232 1.17243 1.13196
 C241 C 0.26631 1.18657 1.14546
 C242 C 0.40321 1.09100 1.07551
 C243 C 0.42396 1.06938 1.06436
 H244 H 0.40672 1.15601 1.12903
 H245 H 0.36013 1.19440 1.08426
 H246 H 0.34583 1.13173 1.17298
 H247 H 0.33796 1.07339 1.12189
 H248 H 0.35254 1.13575 1.03302
 H249 H 0.29177 1.11147 1.07700
 C250 C 0.39215 0.84067 0.85186
 C251 C 0.35817 0.82153 0.86919
 C252 C 0.33486 0.83913 0.84031
 C253 C 0.36826 0.85790 0.82260
 C254 C 0.38600 0.87146 0.87999
 C255 C 0.36262 0.88894 0.85108
 C256 C 0.35258 0.85268 0.89763
 C257 C 0.32890 0.86993 0.86846
 C258 C 0.30491 0.82254 0.81928
 C259 C 0.27897 0.80986 0.80330
 C260 C 0.41259 0.89180 0.90241
 C261 C 0.43224 0.91113 0.92079
 H262 H 0.41849 0.82885 0.84538
 H263 H 0.35597 0.79358 0.87634
 H264 H 0.37433 0.85990 0.79151
 H265 H 0.36471 0.91689 0.84386
 H266 H 0.34644 0.85069 0.92871
 H267 H 0.30263 0.88186 0.87505
 C268 C 0.64628 0.86266 1.07363
 C269 C 0.67398 0.87657 1.10327
 C270 C 0.66493 0.84466 1.12760
 C271 C 0.63760 0.83033 1.09824
 C272 C 0.61674 0.88220 1.09590
 C273 C 0.60754 0.85030 1.12022
 C274 C 0.64415 0.89636 1.12527
 C275 C 0.63538 0.86422 1.14983
 C276 C 0.69295 0.82568 1.14584
 C277 C 0.71702 0.81186 1.16124
 C278 C 0.59151 0.90540 1.07913
 C279 C 0.57266 0.92679 1.06633
 H280 H 0.65046 0.86225 1.04211
 H281 H 0.70157 0.88723 1.09649
 H282 H 0.63525 0.80291 1.08735
 H283 H 0.57991 0.83975 1.12695
 H284 H 0.64662 0.92375 1.13625
 H285 H 0.63120 0.86469 1.18135
 C286 C 0.64636 1.13786 0.90014
 C287 C 0.65926 1.12795 0.85907
 C288 C 0.65398 1.16556 0.84737
 C289 C 0.64141 1.17581 0.88820
 C290 C 0.60738 1.12858 0.88877
 C291 C 0.60191 1.16619 0.87716
 C292 C 0.62001 1.11842 0.84792
 C293 C 0.61502 1.15634 0.83587
 C294 C 0.68160 1.18444 0.82474
 C295 C 0.70588 1.19862 0.80695
 C296 C 0.58333 1.10569 0.91133
 C297 C 0.56562 1.08440 0.92892
 H298 H 0.65899 1.13008 0.92682
 H299 H 0.68307 1.11237 0.85139
 H300 H 0.65055 1.19966 0.90446
 H301 H 0.57804 1.18164 0.88493
 H302 H 0.61095 1.09457 0.83160
 H303 H 0.60249 1.16414 0.80916
 C304 C 0.13786 0.38490 0.11914
 C305 C 0.11993 0.35317 0.13951
 C306 C 0.14490 0.32899 0.11642
 C307 C 0.16322 0.36023 0.09625
 C308 C 0.11020 0.38000 0.08733
 C309 C 0.13514 0.35583 0.06417
 C310 C 0.09204 0.34869 0.10752
 C311 C 0.11721 0.32419 0.08462
 C312 C 0.16259 0.29965 0.13286
 C313 C 0.17587 0.27482 0.14638
 C314 C 0.08832 0.40686 0.07166
 C315 C 0.06757 0.42687 0.05942
 H316 H 0.14618 0.41018 0.13312
 H317 H 0.11379 0.35177 0.17064
 H318 H 0.19275 0.36462 0.09181
 H319 H 0.14122 0.35725 0.03303
 H320 H 0.06253 0.34416 0.11203
 H321 H 0.10881 0.29895 0.07059
 C322 C -0.15893 0.39866 -0.15165
 C323 C -0.14066 0.36919 -0.17539
 C324 C -0.16859 0.34274 -0.15903
 C325 C -0.18726 0.37168 -0.13564
 C326 C -0.13456 0.39173 -0.11811
 C327 C -0.16248 0.36525 -0.10176
 C328 C -0.11603 0.36272 -0.14155
 C329 C -0.14418 0.33595 -0.12549
 C330 C -0.18651 0.31414 -0.18082
 C331 C -0.20080 0.28946 -0.19726
 C332 C -0.11321 0.41736 -0.09548
 C333 C -0.09282 0.43644 -0.07764
 H334 H -0.16484 0.42476 -0.16207
 H335 H -0.13182 0.37049 -0.20587
 H336 H -0.21681 0.37503 -0.13354
 H337 H -0.17129 0.36393 -0.07128
 H338 H -0.08649 0.35925 -0.14373
 H339 H -0.13818 0.30989 -0.11499
 C340 C 0.11775 0.62026 -0.16679
 C341 C 0.11299 0.65964 -0.15856
 C342 C 0.15396 0.66586 -0.16308
 C343 C 0.15909 0.62689 -0.17167
 C344 C 0.12261 0.61528 -0.12386
 C345 C 0.16361 0.62142 -0.12830
 C346 C 0.11760 0.65430 -0.11540
 C347 C 0.15881 0.66087 -0.12015
 C348 C 0.17060 0.69524 -0.18363
 C349 C 0.18405 0.72045 -0.19887
 C350 C 0.10294 0.58875 -0.10153
 C351 C 0.08403 0.56888 -0.08322
 H352 H 0.10069 0.60319 -0.18575
 H353 H 0.09234 0.67560 -0.17119
 H354 H 0.17631 0.61599 -0.19513
 H355 H 0.18419 0.60542 -0.11560
 H356 H 0.10041 0.66533 -0.09198
 H357 H 0.17584 0.67794 -0.10117
 C358 C -0.10323 0.64856 0.12676
 C359 C -0.12218 0.67712 0.10558
 C360 C -0.15573 0.67114 0.13151
 C361 C -0.13704 0.64290 0.15294
 C362 C -0.11880 0.62109 0.09818
 C363 C -0.15234 0.61499 0.12410
 C364 C -0.13749 0.64933 0.07674
 C365 C -0.17143 0.64373 0.10294
 C366 C -0.17505 0.69994 0.14997
 C367 C -0.19002 0.72437 0.16477
 C368 C -0.09616 0.59456 0.08002
 C369 C -0.07523 0.57446 0.06575
 H370 H -0.07494 0.65031 0.13640
 H371 H -0.10990 0.70293 0.09816
 H372 H -0.13699 0.64057 0.18447
 H373 H -0.16454 0.58914 0.13146
 H374 H -0.13749 0.65168 0.04521
 H375 H -0.19974 0.64208 0.09336
 C376 C 1.15155 0.15348 0.61132
 C377 C 1.13544 0.17790 0.64302
 C378 C 1.15635 0.15900 0.67295
 C379 C 1.17280 0.13497 0.64189
 C380 C 1.11963 0.12747 0.61781
 C381 C 1.14060 0.10873 0.64783
 C382 C 1.10322 0.15150 0.64890
 C383 C 1.12443 0.13296 0.67922
 C384 C 1.17552 0.17491 0.70543
 C385 C 1.18977 0.18676 0.73372
 C386 C 1.09873 0.10744 0.58928
 C387 C 1.08147 0.08830 0.56824
 H388 H 1.16236 0.16172 0.58302
 H389 H 1.13363 0.20658 0.64146
 H390 H 1.20160 0.12833 0.63942
 H391 H 1.14248 0.08006 0.64954
 H392 H 1.07441 0.15811 0.65143
 H393 H 1.11350 0.12460 0.70745
 C394 C 0.88350 -0.14533 0.61403
 C395 C 0.90137 -0.16639 0.64513
 C396 C 0.87637 -0.14964 0.67552
 C397 C 0.85822 -0.12899 0.64500
 C398 C 0.91131 -0.11532 0.62129
 C399 C 0.88626 -0.09875 0.65178
 C400 C 0.92950 -0.13595 0.65181
 C401 C 0.90418 -0.11961 0.68263
 C402 C 0.85687 -0.16683 0.70700
 C403 C 0.84112 -0.17948 0.73402
 C404 C 0.92992 -0.09346 0.59292
 C405 C 0.94399 -0.07258 0.57177
 H406 H 0.87530 -0.15571 0.58547
 H407 H 0.90730 -0.19447 0.64281
 H408 H 0.82872 -0.12626 0.64257
 H409 H 0.88023 -0.07070 0.65427
 H410 H 0.95901 -0.13862 0.65424
 H411 H 0.91244 -0.10914 0.71113
 C412 C 1.14326 -0.15225 0.40780
 C413 C 1.12972 -0.18332 0.38178
 C414 C 1.15608 -0.17082 0.35006
 C415 C 1.16997 -0.14024 0.37560
 C416 C 1.11446 -0.12975 0.39131
 C417 C 1.14087 -0.11744 0.35954
 C418 C 1.10054 -0.16031 0.36576
 C419 C 1.12725 -0.14826 0.33374
 C420 C 1.17894 -0.19192 0.32477
 C421 C 1.19700 -0.20769 0.30163
 C422 C 1.09207 -0.10479 0.41217
 C423 C 1.07485 -0.08216 0.42736
 H424 H 1.14947 -0.15360 0.43855
 H425 H 1.12552 -0.21070 0.39062
 H426 H 1.19876 -0.13224 0.37936
 H427 H 1.14519 -0.09011 0.35055
 H428 H 1.07174 -0.16827 0.36198
 H429 H 1.12094 -0.14679 0.30302
 C430 C 0.87799 0.14512 0.39651
 C431 C 0.89261 0.17102 0.36610
 C432 C 0.86476 0.15540 0.33802
 C433 C 0.84982 0.12993 0.36797
 C434 C 0.90484 0.11846 0.38096
 C435 C 0.87695 0.10300 0.35281
 C436 C 0.91984 0.14391 0.35100
 C437 C 0.89162 0.12872 0.32256
 C438 C 0.84220 0.17441 0.31286
 C439 C 0.82388 0.18885 0.29084
 C440 C 0.92577 0.09564 0.40370
 C441 C 0.94109 0.07450 0.42124
 H442 H 0.87273 0.15164 0.42721
 H443 H 0.89870 0.19927 0.37126
 H444 H 0.82080 0.12436 0.37466
 H445 H 0.87075 0.07478 0.34753
 H446 H 0.94887 0.14941 0.34433
 H447 H 0.89693 0.12212 0.29188
 C448 C 0.12088 0.34267 -0.07389
 C449 C 0.10963 0.30915 -0.09711
 C450 C 0.14156 0.31615 -0.12496
 C451 C 0.15326 0.34921 -0.10202
 C452 C 0.09728 0.36368 -0.09943
 C453 C 0.12922 0.37070 -0.12726
 C454 C 0.08568 0.33061 -0.12236
 C455 C 0.11793 0.33723 -0.15040
 C456 C 0.16489 0.28929 -0.14083
 C457 C 0.18236 0.26666 -0.15571
 C458 C 0.07222 0.39004 -0.08602
 C459 C 0.05156 0.41181 -0.07527
 H460 H 0.12171 0.34524 -0.04224
 H461 H 0.10191 0.28354 -0.08484
 H462 H 0.18131 0.35651 -0.09383
 H463 H 0.13692 0.39631 -0.13954
 H464 H 0.05765 0.32326 -0.13059
 H465 H 0.11701 0.33473 -0.18204
 C466 C -0.10660 0.37190 0.17797
 C467 C -0.14831 0.37143 0.18216
 C468 C -0.14980 0.33308 0.16829
 C469 C -0.10847 0.33315 0.16442
 C470 C -0.10950 0.38248 0.13626
 C471 C -0.11105 0.34410 0.12248
 C472 C -0.15083 0.38249 0.14007
 C473 C -0.15268 0.34366 0.12657
 C474 C -0.17079 0.30453 0.18599
 C475 C -0.18617 0.28003 0.20075
 C476 C -0.08650 0.40894 0.11737
 C477 C -0.06745 0.42966 0.10039
 H478 H -0.08740 0.38378 0.19889
 H479 H -0.16395 0.38234 0.20686
 H480 H -0.09126 0.31253 0.17458
 H481 H -0.09543 0.33313 0.09779
 H482 H -0.16796 0.40314 0.12987
 H483 H -0.17185 0.33177 0.10564
 C484 C -0.07636 0.67065 -0.12442
 C485 C -0.10470 0.66481 -0.15585
 C486 C -0.13010 0.68862 -0.13283
 C487 C -0.10201 0.69485 -0.10162
 C488 C -0.09338 0.63937 -0.10337
 C489 C -0.11875 0.66314 -0.08027
 C490 C -0.12146 0.63311 -0.13457
 C491 C -0.14720 0.65736 -0.11178
 C492 C -0.14932 0.71641 -0.15008
 C493 C -0.16374 0.73973 -0.16511
 C494 C -0.07216 0.61223 -0.08758
 C495 C -0.05413 0.59010 -0.07503
 H496 H -0.04701 0.67581 -0.12945
 H497 H -0.09916 0.66580 -0.18712
 H498 H -0.09427 0.72055 -0.08826
 H499 H -0.12424 0.66211 -0.04899
 H500 H -0.12918 0.60740 -0.14793
 H501 H -0.17656 0.65225 -0.10679
 C502 C 0.10135 0.64141 0.15953
 C503 C 0.12850 0.63191 0.19003
 C504 C 0.15808 0.65357 0.16898
 C505 C 0.13123 0.66339 0.13881
 C506 C 0.11222 0.60935 0.13531
 C507 C 0.14181 0.63103 0.11430
 C508 C 0.13902 0.59940 0.16547
 C509 C 0.16904 0.62153 0.14477
 C510 C 0.18218 0.67961 0.18762
 C511 C 0.19998 0.70245 0.20333
 C512 C 0.08643 0.58599 0.11518
 C513 C 0.06553 0.56802 0.09674
 H514 H 0.07328 0.64933 0.16545
 H515 H 0.12335 0.63254 0.22141
 H516 H 0.12832 0.68994 0.12794
 H517 H 0.14696 0.63043 0.08292
 H518 H 0.14184 0.57282 0.17626
 H519 H 0.19713 0.61367 0.13887
 C520 C 0.33807 1.11457 0.92569
 C521 C 0.34816 1.14423 0.89785
 C522 C 0.31624 1.13213 0.87303
 C523 C 0.30572 1.10286 0.90059
 C524 C 0.36205 1.09014 0.90167
 C525 C 0.33012 1.07808 0.87686
 C526 C 0.37256 1.11942 0.87413
 C527 C 0.34025 1.10768 0.84909
 C528 C 0.29062 1.15486 0.85618
 C529 C 0.26924 1.17267 0.84146
 C530 C 0.38783 1.06666 0.91696
 C531 C 0.40946 1.04753 0.92909
 H532 H 0.33747 1.11708 0.95738
 H533 H 0.35527 1.17168 0.90629
 H534 H 0.27794 1.09634 0.91130
 H535 H 0.32299 1.05063 0.86841
 H536 H 0.40033 1.12594 0.86341
 H537 H 0.34089 1.10512 0.81740
 C538 C 0.36460 0.85716 1.11776
 C539 C 0.37488 0.83208 1.14917
 C540 C 0.34079 0.84185 1.17217
 C541 C 0.33018 0.86656 1.14104
 C542 C 0.38544 0.88706 1.13876
 C543 C 0.35133 0.89677 1.16176
 C544 C 0.39616 0.86238 1.16988
 C545 C 0.36161 0.87173 1.19322
 C546 C 0.31469 0.81756 1.19043
 C547 C 0.29195 0.79896 1.20551
 C548 C 0.40932 0.91218 1.11872
 C549 C 0.42796 0.93230 1.10039
 H550 H 0.36605 0.85144 1.08649
 H551 H 0.38428 0.80523 1.14414
 H552 H 0.30281 0.86800 1.12927
 H553 H 0.34190 0.92361 1.16680
 H554 H 0.42356 0.86100 1.18158
 H555 H 0.36012 0.87743 1.22449
 C556 C 0.64566 1.12606 1.12124
 C557 C 0.63856 1.15461 1.15241
 C558 C 0.67048 1.14207 1.17467
 C559 C 0.67794 1.11385 1.14374
 C560 C 0.62062 1.10054 1.14339
 C561 C 0.65255 1.08803 1.16564
 C562 C 0.61307 1.12874 1.17432
 C563 C 0.64547 1.11658 1.19689
 C564 C 0.69916 1.16453 1.19146
 C565 C 0.72366 1.18202 1.20494
 C566 C 0.59373 1.07738 1.12454
 C567 C 0.57255 1.05862 1.10730
 H568 H 0.64548 1.12971 1.08990
 H569 H 0.63312 1.18222 1.14712
 H570 H 0.70489 1.10798 1.13126
 H571 H 0.65802 1.06043 1.17093
 H572 H 0.58608 1.13457 1.18673
 H573 H 0.64570 1.11295 1.22822
 C574 C 0.66779 0.88137 0.91880
 C575 C 0.66234 0.85316 0.88661
 C576 C 0.69637 0.86783 0.86590
 C577 C 0.70227 0.89568 0.89782
 C578 C 0.64537 0.90616 0.89639
 C579 C 0.67941 0.92079 0.87568
 C580 C 0.63945 0.87831 0.86448
 C581 C 0.67392 0.89264 0.84353
 C582 C 0.72506 0.84709 0.84853
 C583 C 0.74906 0.83074 0.83390
 C584 C 0.61708 0.92784 0.91302
 C585 C 0.59385 0.94585 0.92645
 H586 H 0.66494 0.87700 0.94996
 H587 H 0.65565 0.82512 0.89090
 H588 H 0.72842 0.90258 0.91134
 H589 H 0.68612 0.94883 0.87137
 H590 H 0.61329 0.87142 0.85095
 H591 H 0.67674 0.89704 0.81238
   
