data_POSCAR
  _audit_creation_date              2014-09-24
  _audit_creation_method            'ToBaCCo'
  _symmetry_space_group_name_H-M    'P1'
  _symmetry_Int_Tables_number       1
  _symmetry_cell_setting            triclinic
  loop_
  _symmetry_equiv_pos_as_xyz
 x,y,z
_cell_length_a 40.6148
_cell_length_b 46.2574
_cell_length_c 41.9857
_cell_angle_alpha 88.502600
_cell_angle_beta 88.575500
_cell_angle_gamma 84.219000
loop_
  _atom_site_label
  _atom_site_type_symbol
  _atom_site_fract_x
  _atom_site_fract_y
  _atom_site_fract_z
C1 C 1.21302 0.22285 0.21510
 C2 C 1.23669 0.23916 0.19405
 C3 C 1.25817 0.25366 0.21033
 C4 C 1.25388 0.25068 0.24680
 C5 C 1.23538 0.20347 0.23741
 C6 C 1.25652 0.21784 0.25429
 C7 C 1.19587 0.24661 0.23662
 C8 C 1.21723 0.26093 0.25346
 H9 H 1.23448 0.24115 0.16841
 H10 H 1.27128 0.26249 0.26023
 H11 H 1.23366 0.18032 0.24026
 H12 H 1.16939 0.25171 0.23878
 C13 C 0.71901 -0.27302 0.18677
 C14 C 0.74554 -0.25580 0.17110
 C15 C 0.76536 -0.24421 0.19208
 C16 C 0.75639 -0.25062 0.22742
 C17 C 0.73814 -0.29538 0.20857
 C18 C 0.75737 -0.28400 0.23017
 C19 C 0.70019 -0.25139 0.20929
 C20 C 0.71927 -0.24017 0.23111
 H21 H 0.74708 -0.25093 0.14584
 H22 H 0.77216 -0.24107 0.24473
 H23 H 0.73643 -0.31849 0.20673
 H24 H 0.67366 -0.24593 0.20833
 C25 C 0.72422 0.22775 -0.28725
 C26 C 0.74826 0.24510 -0.30286
 C27 C 0.76510 0.26221 -0.28141
 C28 C 0.75420 0.25815 -0.24792
 C29 C 0.74250 0.21041 -0.26304
 C30 C 0.75902 0.22672 -0.24103
 C31 C 0.70216 0.24896 -0.27007
 C32 C 0.71799 0.26536 -0.24742
 H33 H 0.74803 0.25001 -0.32815
 H34 H 0.76711 0.27026 -0.23073
 H35 H 0.74536 0.18685 -0.26321
 H36 H 0.67657 0.25396 -0.27663
 C37 C 1.23430 -0.27486 -0.30706
 C38 C 1.25787 -0.25565 -0.32460
 C39 C 1.27316 -0.23809 -0.30532
 C40 C 1.26323 -0.24130 -0.26974
 C41 C 1.25599 -0.29129 -0.28177
 C42 C 1.27074 -0.27394 -0.26196
 C43 C 1.21041 -0.25364 -0.28833
 C44 C 1.22510 -0.23637 -0.26835
 H45 H 1.26292 -0.25629 -0.34994
 H46 H 1.27564 -0.22736 -0.25368
 H47 H 1.25955 -0.31480 -0.27991
 H48 H 1.18383 -0.25297 -0.29051
 C49 C 0.23870 0.22868 0.78889
 C50 C 0.25669 0.24827 0.80676
 C51 C 0.27687 0.26606 0.78764
 C52 C 0.27564 0.26019 0.75353
 C53 C 0.21954 0.24807 0.76412
 C54 C 0.23852 0.26487 0.74570
 C55 C 0.26581 0.21087 0.76966
 C56 C 0.28512 0.22713 0.75095
 H57 H 0.25980 0.24584 0.83219
 H58 H 0.29083 0.27338 0.73781
 H59 H 0.19299 0.24857 0.76184
 H60 H 0.26938 0.18735 0.77080
 C61 C 0.72298 0.72904 0.80649
 C62 C 0.74049 0.75021 0.82278
 C63 C 0.76273 0.76518 0.80226
 C64 C 0.76205 0.75609 0.76875
 C65 C 0.70618 0.74584 0.78092
 C66 C 0.72722 0.76047 0.75951
 C67 C 0.74904 0.71001 0.79129
 C68 C 0.77039 0.72442 0.76996
 H69 H 0.73441 0.75710 0.84671
 H70 H 0.77905 0.76677 0.75250
 H71 H 0.67942 0.74979 0.78062
 H72 H 0.75021 0.68654 0.79376
 C73 C 0.74207 0.23402 0.28926
 C74 C 0.76824 0.25034 0.30461
 C75 C 0.78573 0.26629 0.28376
 C76 C 0.77576 0.26398 0.24883
 C77 C 0.72080 0.25748 0.27013
 C78 C 0.73836 0.27318 0.24909
 C79 C 0.76087 0.21582 0.26342
 C80 C 0.77837 0.23129 0.24219
 H81 H 0.77038 0.25128 0.33022
 H82 H 0.79023 0.27658 0.23166
 H83 H 0.69409 0.25935 0.26996
 H84 H 0.75902 0.19276 0.26123
 C85 C 0.23805 0.73397 0.30647
 C86 C 0.25946 0.75500 0.32195
 C87 C 0.27457 0.77256 0.30076
 C88 C 0.26710 0.76727 0.26562
 C89 C 0.21416 0.75380 0.28591
 C90 C 0.22904 0.77082 0.26406
 C91 C 0.26147 0.71746 0.28260
 C92 C 0.27627 0.73459 0.26095
 H93 H 0.26272 0.75622 0.34727
 H94 H 0.27950 0.78117 0.24810
 H95 H 0.18754 0.75397 0.28846
 H96 H 0.26489 0.69394 0.28214
 N97 N 1.05922 0.02105 0.02514
 N98 N 1.08063 0.04044 0.02809
 N99 N 1.03702 -0.03746 0.05148
 N100 N 1.04594 -0.05527 0.07548
 N101 N 1.05955 -0.03969 0.02842
 N102 N 1.08440 -0.05901 0.03632
 N103 N 1.03691 0.02325 0.04831
 N104 N 1.04235 0.04425 0.06754
 C105 C 1.06963 0.05487 0.05460
 C106 C 1.07528 -0.06894 0.06554
 N107 N 0.94170 -0.02900 0.03462
 N108 N 0.91959 -0.04710 0.04278
 N109 N 0.96621 0.02979 0.05213
 N110 N 0.96298 0.05195 0.07144
 N111 N 0.94234 0.03195 0.03147
 N112 N 0.92207 0.05572 0.03627
 N113 N 0.96558 -0.03086 0.05531
 N114 N 0.96028 -0.05006 0.07818
 Mn115 Mn 1.00141 -0.00389 0.05205
 C116 C 0.93163 -0.06022 0.06995
 C117 C 0.93541 0.06803 0.06128
 N118 N 1.05708 -0.04073 -0.04046
 N119 N 1.08157 -0.06009 -0.04907
 N120 N 1.03326 0.02153 -0.06435
 N121 N 1.03809 0.04160 -0.08647
 N122 N 1.05677 0.01995 -0.04330
 N123 N 1.07818 0.03886 -0.05047
 N124 N 1.03327 -0.03920 -0.06130
 N125 N 1.04112 -0.05752 -0.08454
 Mn126 Mn 1.05843 -0.00990 -0.00758
 C127 C 1.07108 -0.07077 -0.07632
 C128 C 1.06616 0.05233 -0.07738
 N129 N 0.93990 0.03088 -0.03713
 N130 N 0.91942 0.05463 -0.04146
 N131 N 0.96127 -0.03269 -0.05737
 N132 N 0.95368 -0.05239 -0.07752
 N133 N 0.93915 -0.02991 -0.03399
 N134 N 0.91611 -0.04766 -0.03754
 N135 N 0.96209 0.02821 -0.06042
 N136 N 0.95740 0.05011 -0.08112
 Mn137 Mn 0.94038 0.00102 -0.00125
 Mn138 Mn 0.99741 -0.00562 -0.06119
 Cl139 Cl 0.99942 -0.00476 -0.00453
 C140 C 0.93071 0.06647 -0.06899
 C141 C 0.92553 -0.06175 -0.06465
 N142 N 0.95511 0.53086 0.44606
 N143 N 0.93642 0.53909 0.42146
 N144 N 1.02028 0.55213 0.46908
 N145 N 1.04127 0.57183 0.46435
 N146 N 1.02411 0.53249 0.44698
 N147 N 1.04798 0.53829 0.42655
 N148 N 0.95150 0.55067 0.46812
 N149 N 0.93033 0.57267 0.45903
 C150 C 0.92060 0.56497 0.43016
 C151 C 1.05855 0.56288 0.43785
 N152 N 1.02011 0.53143 0.56008
 N153 N 1.04316 0.53638 0.58034
 N154 N 0.94902 0.54999 0.53682
 N155 N 0.92754 0.57204 0.54482
 N156 N 0.95121 0.53002 0.55978
 N157 N 0.93140 0.53838 0.58402
 N158 N 1.01796 0.55142 0.53728
 N159 N 1.03949 0.57044 0.54126
 Mn160 Mn 0.98463 0.55117 0.50284
 C161 C 1.05510 0.56078 0.56816
 C162 C 0.91623 0.56436 0.57403
 N163 N 1.03345 0.47006 0.44777
 N164 N 1.05537 0.46407 0.42459
 N165 N 0.96723 0.44755 0.46995
 N166 N 0.94946 0.42618 0.46365
 N167 N 0.96469 0.46761 0.44715
 N168 N 0.94528 0.46011 0.42454
 N169 N 1.03607 0.44961 0.47013
 N170 N 1.05975 0.42906 0.46247
 Mn171 Mn 0.99426 0.50025 0.44672
 C172 C 1.07199 0.43867 0.43423
 C173 C 0.93557 0.43437 0.43548
 N174 N 0.96066 0.46661 0.56061
 N175 N 0.93891 0.45913 0.58253
 N176 N 1.03374 0.44911 0.53925
 N177 N 1.05829 0.42935 0.54675
 N178 N 1.02948 0.46896 0.56119
 N179 N 1.05106 0.46328 0.58403
 N180 N 0.96482 0.44697 0.53842
 N181 N 0.94579 0.42595 0.54439
 Mn182 Mn 0.99025 0.49923 0.56071
 Mn183 Mn 1.00056 0.44810 0.50447
 Cl184 Cl 0.99226 0.49966 0.50368
 C185 C 0.92952 0.43384 0.57179
 C186 C 1.06917 0.43870 0.57457
 N187 N 0.57318 0.02311 0.52747
 N188 N 0.59429 0.04281 0.52968
 N189 N 0.55068 -0.03513 0.55359
 N190 N 0.55971 -0.05321 0.57738
 N191 N 0.57295 -0.03747 0.53030
 N192 N 0.59759 -0.05711 0.53769
 N193 N 0.55086 0.02563 0.55062
 N194 N 0.55615 0.04716 0.56924
 C195 C 0.58332 0.05771 0.55582
 C196 C 0.58879 -0.06710 0.56690
 N197 N 0.45541 -0.02624 0.53579
 N198 N 0.43276 -0.04384 0.54377
 N199 N 0.47975 0.03244 0.55405
 N200 N 0.47506 0.05367 0.57456
 N201 N 0.45611 0.03458 0.53312
 N202 N 0.43460 0.05732 0.53893
 N203 N 0.47891 -0.02822 0.55691
 N204 N 0.47270 -0.04705 0.57994
 Mn205 Mn 0.51505 -0.00137 0.55411
 C206 C 0.44397 -0.05685 0.57126
 C207 C 0.44692 0.06917 0.56476
 N208 N 0.57105 -0.03814 0.46169
 N209 N 0.59487 -0.05841 0.45383
 N210 N 0.54796 0.02465 0.43823
 N211 N 0.55169 0.04663 0.41816
 N212 N 0.57129 0.02245 0.45946
 N213 N 0.59146 0.04276 0.45454
 N214 N 0.54754 -0.03618 0.44057
 N215 N 0.55480 -0.05514 0.41787
 Mn216 Mn 0.57235 -0.00760 0.49470
 C217 C 0.58418 -0.06915 0.42670
 C218 C 0.57903 0.05768 0.42869
 N219 N 0.45429 0.03391 0.46431
 N220 N 0.43224 0.05630 0.45840
 N221 N 0.47586 -0.02935 0.44379
 N222 N 0.46856 -0.04889 0.42335
 N223 N 0.45360 -0.02688 0.46707
 N224 N 0.43073 -0.04472 0.46316
 N225 N 0.47679 0.03133 0.44129
 N226 N 0.47077 0.05186 0.41924
 Mn227 Mn 0.45448 0.00388 0.50008
 Mn228 Mn 0.51202 -0.00244 0.44064
 Cl229 Cl 0.51343 -0.00201 0.49740
 C230 C 0.44305 0.06746 0.43029
 C231 C 0.44046 -0.05850 0.43592
 N232 N 0.54109 0.52375 0.03999
 N233 N 0.55988 0.54517 0.04220
 N234 N 0.51855 0.46485 0.06286
 N235 N 0.52533 0.44523 0.08574
 N236 N 0.54199 0.46300 0.04070
 N237 N 0.56539 0.44217 0.04798
 N238 N 0.51736 0.52574 0.06179
 N239 N 0.51946 0.54856 0.07963
 C240 C 0.54622 0.56040 0.06707
 C241 C 0.55443 0.43099 0.07594
 N242 N 0.42526 0.47159 0.04012
 N243 N 0.40341 0.45278 0.04666
 N244 N 0.44630 0.53097 0.06121
 N245 N 0.44108 0.55292 0.08071
 N246 N 0.42374 0.53271 0.03922
 N247 N 0.40250 0.55597 0.04318
 N248 N 0.44760 0.47022 0.06233
 N249 N 0.44167 0.45058 0.08443
 Mn250 Mn 0.48242 0.49797 0.06237
 C251 C 0.41421 0.43967 0.07433
 C252 C 0.41372 0.56841 0.06917
 N253 N 0.54447 0.46419 -0.02804
 N254 N 0.56925 0.44463 -0.03534
 N255 N 0.52126 0.52779 -0.05012
 N256 N 0.52481 0.55142 -0.06780
 N257 N 0.54342 0.52482 -0.02775
 N258 N 0.56243 0.54623 -0.02939
 N259 N 0.52265 0.46679 -0.05077
 N260 N 0.53208 0.44900 -0.07409
 Mn261 Mn 0.54300 0.49377 0.00623
 C262 C 0.56095 0.43499 -0.06391
 C263 C 0.55073 0.56262 -0.05447
 N264 N 0.42591 0.53364 -0.02940
 N265 N 0.40372 0.55594 -0.03514
 N266 N 0.45114 0.47183 -0.05131
 N267 N 0.44681 0.45190 -0.07236
 N268 N 0.42768 0.47267 -0.02912
 N269 N 0.40684 0.45331 -0.03447
 N270 N 0.44985 0.53269 -0.05106
 N271 N 0.44458 0.55424 -0.07210
 Mn272 Mn 0.42520 0.50259 0.00519
 Mn273 Mn 0.48622 0.49981 -0.05121
 Cl274 Cl 0.48415 0.49841 0.00560
 C275 C 0.41584 0.56872 -0.06176
 C276 C 0.41914 0.44041 -0.06146
 C277 C 1.15760 0.20278 0.20465
 C278 C 1.13873 0.18512 0.18756
 C279 C 1.15271 0.16915 0.16179
 C280 C 1.18634 0.17056 0.15390
 C281 C 1.20524 0.18808 0.17103
 C282 C 1.19106 0.20502 0.19620
 C283 C 1.13220 0.14978 0.14523
 C284 C 1.13810 0.14154 0.11503
 C285 C 1.11905 0.12060 0.09898
 C286 C 1.13336 0.10625 0.07217
 C287 C 1.11708 0.08526 0.05723
 C288 C 1.08609 0.07829 0.06882
 C289 C 1.07118 0.09333 0.09487
 C290 C 1.08733 0.11440 0.10970
 H291 H 1.14590 0.21387 0.22488
 H292 H 1.11310 0.18375 0.19468
 H293 H 1.19850 0.15749 0.13522
 H294 H 1.23129 0.18806 0.16485
 H295 H 1.11176 0.14209 0.15886
 H296 H 1.15851 0.14959 0.10160
 H297 H 1.15757 0.11083 0.06318
 H298 H 1.12903 0.07410 0.03704
 H299 H 1.04702 0.08872 0.10396
 H300 H 1.07468 0.12570 0.12938
 C301 C 1.21177 0.70934 0.64003
 C302 C 1.19303 0.69142 0.62314
 C303 C 1.17763 0.66907 0.63878
 C304 C 1.18066 0.66537 0.67193
 C305 C 1.19920 0.68334 0.68884
 C306 C 1.21567 0.70522 0.67315
 C307 C 1.15668 0.65157 0.62025
 C308 C 1.15044 0.62447 0.62892
 C309 C 1.12750 0.60752 0.61190
 C310 C 1.11517 0.58365 0.62785
 C311 C 1.09212 0.56796 0.61347
 C312 C 1.08098 0.57589 0.58281
 C313 C 1.09412 0.59907 0.56636
 C314 C 1.11729 0.61461 0.58060
 H315 H 1.22216 0.72676 0.62695
 H316 H 1.19029 0.69521 0.59772
 H317 H 1.16784 0.64933 0.68512
 H318 H 1.20024 0.68042 0.71448
 H319 H 1.14602 0.66184 0.59897
 H320 H 1.16167 0.61443 0.65012
 H321 H 1.12285 0.57749 0.65182
 H322 H 1.08252 0.55005 0.62660
 H323 H 1.08636 0.60532 0.54245
 H324 H 1.12701 0.63200 0.56680
 C325 C 0.67950 0.19603 0.70709
 C326 C 0.66224 0.17736 0.68998
 C327 C 0.67121 0.17099 0.65838
 C328 C 0.69843 0.18341 0.64428
 C329 C 0.71592 0.20219 0.66146
 C330 C 0.70633 0.20942 0.69312
 C331 C 0.65235 0.15019 0.64204
 C332 C 0.65238 0.14684 0.61043
 C333 C 0.63321 0.12529 0.59576
 C334 C 0.64520 0.11219 0.56746
 C335 C 0.62870 0.09049 0.55412
 C336 C 0.59971 0.08175 0.56875
 C337 C 0.58689 0.09574 0.59627
 C338 C 0.60337 0.11740 0.60959
 H339 H 0.67198 0.19986 0.73169
 H340 H 0.64177 0.16770 0.70167
 H341 H 0.70705 0.17809 0.62038
 H342 H 0.73742 0.21010 0.64989
 H343 H 0.63757 0.13698 0.65718
 H344 H 0.66757 0.15920 0.59481
 H345 H 0.66787 0.11819 0.55613
 H346 H 0.63893 0.08025 0.53266
 H347 H 0.56428 0.08976 0.60772
 H348 H 0.59259 0.12791 0.63065
 C349 C 0.70276 0.70844 0.13263
 C350 C 0.68229 0.69292 0.11469
 C351 C 0.65493 0.68109 0.12896
 C352 C 0.64846 0.68486 0.16168
 C353 C 0.66891 0.70020 0.17960
 C354 C 0.69621 0.71245 0.16541
 C355 C 0.63591 0.66234 0.11004
 C356 C 0.60462 0.65735 0.11739
 C357 C 0.58771 0.63454 0.10230
 C358 C 0.56189 0.62260 0.11931
 C359 C 0.54764 0.59889 0.10755
 C360 C 0.55903 0.58678 0.07856
 C361 C 0.58361 0.59962 0.06074
 C362 C 0.59764 0.62343 0.07231
 H363 H 0.72414 0.71619 0.12075
 H364 H 0.68824 0.68964 0.08966
 H365 H 0.62859 0.67492 0.17394
 H366 H 0.66387 0.70186 0.20498
 H367 H 0.64910 0.65133 0.09045
 H368 H 0.59162 0.66871 0.13691
 H369 H 0.55353 0.63098 0.14230
 H370 H 0.52845 0.58953 0.12157
 H371 H 0.59232 0.59106 0.03795
 H372 H 0.61636 0.63276 0.05773
 C373 C 0.80946 -0.23321 0.15244
 C374 C 0.83013 -0.21403 0.13830
 C375 C 0.83379 -0.18735 0.15217
 C376 C 0.81739 -0.18080 0.18148
 C377 C 0.79654 -0.20011 0.19567
 C378 C 0.79155 -0.22605 0.18069
 C379 C 0.85228 -0.16622 0.13371
 C380 C 0.86535 -0.14376 0.14631
 C381 C 0.88228 -0.12265 0.12627
 C382 C 0.90897 -0.10984 0.13857
 C383 C 0.92532 -0.08985 0.12009
 C384 C 0.91478 -0.08181 0.08918
 C385 C 0.88769 -0.09422 0.07705
 C386 C 0.87162 -0.11448 0.09536
 H387 H 0.80662 -0.25333 0.14064
 H388 H 0.84258 -0.21972 0.11587
 H389 H 0.81916 -0.16024 0.19267
 H390 H 0.78292 -0.19396 0.21730
 H391 H 0.85574 -0.16977 0.10839
 H392 H 0.86504 -0.14136 0.17190
 H393 H 0.91742 -0.11557 0.16239
 H394 H 0.94600 -0.08046 0.13014
 H395 H 0.87889 -0.08826 0.05340
 H396 H 0.85050 -0.12330 0.08550
 C397 C 0.79375 0.30655 0.72554
 C398 C 0.81281 0.32786 0.71267
 C399 C 0.82536 0.32612 0.68129
 C400 C 0.82016 0.30166 0.66367
 C401 C 0.80113 0.28047 0.67636
 C402 C 0.78666 0.28281 0.70725
 C403 C 0.84441 0.34955 0.66771
 C404 C 0.84565 0.35576 0.63628
 C405 C 0.86628 0.37711 0.62085
 C406 C 0.87461 0.37379 0.58844
 C407 C 0.89468 0.39254 0.57262
 C408 C 0.90657 0.41547 0.58868
 C409 C 0.89747 0.41955 0.62089
 C410 C 0.87759 0.40046 0.63695
 H411 H 0.78354 0.30988 0.74925
 H412 H 0.81699 0.34622 0.72701
 H413 H 0.83109 0.29849 0.64010
 H414 H 0.79851 0.26192 0.66182
 H415 H 0.85744 0.36178 0.68406
 H416 H 0.83177 0.34372 0.62043
 H417 H 0.86605 0.35619 0.57537
 H418 H 0.90108 0.38894 0.54774
 H419 H 0.90625 0.43713 0.63380
 H420 H 0.87101 0.40419 0.66172
 C421 C 0.31796 -0.22706 0.65540
 C422 C 0.33835 -0.20783 0.64089
 C423 C 0.33961 -0.17998 0.65282
 C424 C 0.32059 -0.17195 0.68028
 C425 C 0.29984 -0.19122 0.69472
 C426 C 0.29770 -0.21873 0.68193
 C427 C 0.35891 -0.15945 0.63438
 C428 C 0.37186 -0.13691 0.64696
 C429 C 0.39042 -0.11674 0.62715
 C430 C 0.41699 -0.10429 0.64020
 C431 C 0.43484 -0.08521 0.62189
 C432 C 0.42592 -0.07773 0.59038
 C433 C 0.39899 -0.08983 0.57748
 C434 C 0.38146 -0.10918 0.59562
 H435 H 0.31776 -0.24839 0.64545
 H436 H 0.35287 -0.21462 0.61991
 H437 H 0.32052 -0.15043 0.68979
 H438 H 0.28444 -0.18408 0.71496
 H439 H 0.36355 -0.16382 0.60935
 H440 H 0.37034 -0.13391 0.67246
 H441 H 0.42417 -0.10958 0.66451
 H442 H 0.45534 -0.07602 0.63252
 H443 H 0.39142 -0.08430 0.55334
 H444 H 0.36052 -0.11777 0.58511
 C445 C 0.29393 0.26627 0.16359
 C446 C 0.31139 0.28610 0.14620
 C447 C 0.31590 0.31318 0.15872
 C448 C 0.30293 0.31989 0.18939
 C449 C 0.28532 0.30003 0.20678
 C450 C 0.28015 0.27323 0.19381
 C451 C 0.33252 0.33428 0.13838
 C452 C 0.34802 0.35579 0.15005
 C453 C 0.36483 0.37660 0.12954
 C454 C 0.39169 0.38914 0.14179
 C455 C 0.40791 0.40925 0.12356
 C456 C 0.39725 0.41768 0.09280
 C457 C 0.37015 0.40539 0.08051
 C458 C 0.35407 0.38497 0.09869
 H459 H 0.29072 0.24562 0.15312
 H460 H 0.32112 0.28037 0.12269
 H461 H 0.30512 0.34085 0.19953
 H462 H 0.27446 0.30627 0.22971
 H463 H 0.33317 0.33108 0.11290
 H464 H 0.35026 0.35736 0.17557
 H465 H 0.40028 0.38323 0.16553
 H466 H 0.42863 0.41845 0.13377
 H467 H 0.36131 0.41166 0.05695
 H468 H 0.33285 0.37632 0.08882
 C469 C 0.76747 0.18635 -0.20236
 C470 C 0.78477 0.17194 -0.17746
 C471 C 0.81210 0.18329 -0.16479
 C472 C 0.82098 0.21026 -0.17650
 C473 C 0.80300 0.22527 -0.20102
 C474 C 0.77640 0.21314 -0.21494
 C475 C 0.83064 0.16593 -0.13979
 C476 C 0.86370 0.16379 -0.13805
 C477 C 0.88209 0.14105 -0.11799
 C478 C 0.91290 0.12824 -0.12904
 C479 C 0.92909 0.10439 -0.11272
 C480 C 0.91496 0.09314 -0.08475
 C481 C 0.88506 0.10697 -0.07267
 C482 C 0.86876 0.13071 -0.08910
 H483 H 0.74636 0.17663 -0.21099
 H484 H 0.77715 0.15140 -0.16852
 H485 H 0.84176 0.21972 -0.16675
 H486 H 0.81125 0.24551 -0.20999
 H487 H 0.81693 0.15129 -0.12537
 H488 H 0.87774 0.17618 -0.15482
 H489 H 0.92382 0.13595 -0.15108
 H490 H 0.95232 0.09436 -0.12240
 H491 H 0.87382 0.09902 -0.05092
 H492 H 0.84555 0.14067 -0.07937
 C493 C 0.76219 0.67225 0.26681
 C494 C 0.77954 0.65372 0.28863
 C495 C 0.81006 0.66023 0.29980
 C496 C 0.82295 0.68591 0.28874
 C497 C 0.80564 0.70442 0.26651
 C498 C 0.77527 0.69755 0.25497
 C499 C 0.82816 0.63896 0.32166
 C500 C 0.84917 0.64623 0.34346
 C501 C 0.86614 0.62457 0.36573
 C502 C 0.87449 0.63346 0.39589
 C503 C 0.89117 0.61379 0.41723
 C504 C 0.90038 0.58489 0.40859
 C505 C 0.89200 0.57591 0.37842
 C506 C 0.87503 0.59554 0.35717
 H507 H 0.73841 0.66664 0.25924
 H508 H 0.76902 0.63417 0.29687
 H509 H 0.84680 0.69126 0.29640
 H510 H 0.81654 0.72356 0.25764
 H511 H 0.82228 0.61666 0.32094
 H512 H 0.85260 0.66891 0.34648
 H513 H 0.86808 0.65571 0.40298
 H514 H 0.89750 0.62140 0.44024
 H515 H 0.89907 0.55386 0.37102
 H516 H 0.86976 0.58812 0.33378
 C517 C 0.26507 0.18147 0.29920
 C518 C 0.28446 0.16748 0.32305
 C519 C 0.31653 0.17488 0.32805
 C520 C 0.32844 0.19749 0.30930
 C521 C 0.30887 0.21166 0.28545
 C522 C 0.27720 0.20345 0.27985
 C523 C 0.33645 0.15824 0.35280
 C524 C 0.36965 0.15523 0.35264
 C525 C 0.38903 0.13474 0.37453
 C526 C 0.42047 0.12264 0.36438
 C527 C 0.43837 0.10132 0.38293
 C528 C 0.42532 0.09185 0.41224
 C529 C 0.39462 0.10498 0.42325
 C530 C 0.37664 0.12629 0.40464
 H531 H 0.24040 0.17520 0.29612
 H532 H 0.27449 0.15043 0.33736
 H533 H 0.35266 0.20443 0.31303
 H534 H 0.31876 0.22864 0.27102
 H535 H 0.32307 0.14570 0.36993
 H536 H 0.38321 0.16559 0.33379
 H537 H 0.43076 0.12897 0.34149
 H538 H 0.46214 0.09179 0.37396
 H539 H 0.38417 0.09836 0.44595
 H540 H 0.35305 0.13590 0.41384
 C541 C 0.31982 0.72552 -0.22668
 C542 C 0.33934 0.71260 -0.20209
 C543 C 0.32945 0.68849 -0.18464
 C544 C 0.29961 0.67756 -0.19226
 C545 C 0.28035 0.69027 -0.21688
 C546 C 0.29046 0.71409 -0.23463
 C547 C 0.35186 0.67345 -0.16076
 C548 C 0.34078 0.65744 -0.13639
 C549 C 0.36241 0.63765 -0.11569
 C550 C 0.34906 0.62720 -0.08697
 C551 C 0.36690 0.60555 -0.06876
 C552 C 0.39841 0.59371 -0.07910
 C553 C 0.41232 0.60479 -0.10724
 C554 C 0.39451 0.62649 -0.12543
 H555 H 0.32824 0.74376 -0.24017
 H556 H 0.36243 0.72120 -0.19694
 H557 H 0.29157 0.65849 -0.18012
 H558 H 0.25761 0.68120 -0.22227
 H559 H 0.37809 0.67532 -0.16388
 H560 H 0.31437 0.65813 -0.13171
 H561 H 0.32432 0.63525 -0.07902
 H562 H 0.35558 0.59744 -0.04713
 H563 H 0.43657 0.59603 -0.11580
 H564 H 0.40545 0.63334 -0.14776
 C565 C 1.17515 -0.22536 -0.23277
 C566 C 1.15609 -0.20751 -0.21166
 C567 C 1.16716 -0.18158 -0.20172
 C568 C 1.19789 -0.17373 -0.21348
 C569 C 1.21695 -0.19157 -0.23494
 C570 C 1.20561 -0.21745 -0.24510
 C571 C 1.14515 -0.16296 -0.18030
 C572 C 1.15595 -0.14417 -0.16016
 C573 C 1.13329 -0.12630 -0.13851
 C574 C 1.14537 -0.11727 -0.10978
 C575 C 1.12488 -0.09991 -0.08912
 C576 C 1.09196 -0.09088 -0.09702
 C577 C 1.07981 -0.09987 -0.12576
 C578 C 1.10024 -0.11734 -0.14635
 H579 H 1.16597 -0.24553 -0.23918
 H580 H 1.13260 -0.21412 -0.20290
 H581 H 1.20685 -0.15352 -0.20689
 H582 H 1.24011 -0.18471 -0.24410
 H583 H 1.11911 -0.16620 -0.17996
 H584 H 1.18228 -0.14290 -0.15810
 H585 H 1.17076 -0.12369 -0.10329
 H586 H 1.13501 -0.09314 -0.06721
 H587 H 1.05465 -0.09299 -0.13263
 H588 H 1.09029 -0.12311 -0.16872
 C589 C 1.22241 0.28367 0.30627
 C590 C 1.21063 0.30331 0.32969
 C591 C 1.18258 0.32299 0.32439
 C592 C 1.16637 0.32252 0.29517
 C593 C 1.17800 0.30276 0.27189
 C594 C 1.20599 0.28301 0.27729
 C595 C 1.16948 0.34230 0.35039
 C596 C 1.15178 0.36791 0.34484
 C597 C 1.13522 0.38636 0.37008
 C598 C 1.12476 0.41546 0.36230
 C599 C 1.10553 0.43282 0.38382
 C600 C 1.09610 0.42139 0.41360
 C601 C 1.10758 0.39263 0.42202
 C602 C 1.12687 0.37520 0.40045
 H603 H 1.24372 0.26836 0.31129
 H604 H 1.22329 0.30298 0.35212
 H605 H 1.14410 0.33672 0.29054
 H606 H 1.16494 0.30280 0.24972
 H607 H 1.17510 0.33522 0.37459
 H608 H 1.14911 0.37598 0.32050
 H609 H 1.13072 0.42459 0.33909
 H610 H 1.09711 0.45495 0.37667
 H611 H 1.10052 0.38322 0.44476
 H612 H 1.13377 0.35272 0.40717
 C613 C 0.67366 -0.22898 0.27117
 C614 C 0.65774 -0.21148 0.29448
 C615 C 0.67208 -0.18740 0.30539
 C616 C 0.70338 -0.18158 0.29298
 C617 C 0.71941 -0.19924 0.26948
 C618 C 0.70427 -0.22265 0.25779
 C619 C 0.65229 -0.16806 0.32779
 C620 C 0.66478 -0.14893 0.34634
 C621 C 0.64338 -0.12930 0.36725
 C622 C 0.65611 -0.11984 0.39548
 C623 C 0.63659 -0.10086 0.41529
 C624 C 0.60411 -0.09065 0.40694
 C625 C 0.59140 -0.09999 0.37864
 C626 C 0.61082 -0.11904 0.35894
 H627 H 0.66175 -0.24741 0.26340
 H628 H 0.63380 -0.21657 0.30372
 H629 H 0.71500 -0.16290 0.30037
 H630 H 0.74296 -0.19389 0.25968
 H631 H 0.62601 -0.17033 0.32951
 H632 H 0.69130 -0.14826 0.34732
 H633 H 0.68119 -0.12723 0.40224
 H634 H 0.64711 -0.09382 0.43688
 H635 H 0.56658 -0.09223 0.37144
 H636 H 0.60052 -0.12507 0.33683
 C637 C 0.66517 0.28330 -0.22168
 C638 C 0.64634 0.30229 -0.20168
 C639 C 0.66099 0.32328 -0.18516
 C640 C 0.69525 0.32490 -0.18904
 C641 C 0.71433 0.30580 -0.20922
 C642 C 0.69957 0.28479 -0.22636
 C643 C 0.63909 0.34342 -0.16529
 C644 C 0.64940 0.35889 -0.14161
 C645 C 0.62612 0.37817 -0.12196
 C646 C 0.63456 0.38393 -0.09072
 C647 C 0.61310 0.40197 -0.07158
 C648 C 0.58287 0.41476 -0.08345
 C649 C 0.57450 0.40919 -0.11475
 C650 C 0.59596 0.39127 -0.13391
 H651 H 0.65229 0.26691 -0.23253
 H652 H 0.62004 0.30036 -0.19894
 H653 H 0.70736 0.34130 -0.17725
 H654 H 0.74029 0.30859 -0.21190
 H655 H 0.61282 0.34423 -0.16950
 H656 H 0.67515 0.35624 -0.13510
 H657 H 0.65773 0.37432 -0.08104
 H658 H 0.62029 0.40608 -0.04757
 H659 H 0.55159 0.41911 -0.12468
 H660 H 0.58907 0.38830 -0.15823
 C661 C 1.20507 0.21657 -0.16042
 C662 C 1.18471 0.19870 -0.14347
 C663 C 1.17369 0.17443 -0.15763
 C664 C 1.18321 0.16850 -0.18941
 C665 C 1.20367 0.18630 -0.20635
 C666 C 1.21588 0.21008 -0.19186
 C667 C 1.15392 0.15508 -0.13801
 C668 C 1.13384 0.13710 -0.15025
 C669 C 1.11594 0.11651 -0.13040
 C670 C 1.08707 0.10661 -0.14204
 C671 C 1.07044 0.08615 -0.12458
 C672 C 1.08266 0.07492 -0.09530
 C673 C 1.11152 0.08480 -0.08363
 C674 C 1.12806 0.10530 -0.10099
 H675 H 1.21187 0.23552 -0.14866
 H676 H 1.17742 0.20394 -0.11913
 H677 H 1.17569 0.14976 -0.20111
 H678 H 1.21036 0.18122 -0.23084
 H679 H 1.15556 0.15632 -0.11240
 H680 H 1.12954 0.13785 -0.17561
 H681 H 1.07741 0.11469 -0.16475
 H682 H 1.04831 0.07883 -0.13420
 H683 H 1.12164 0.07636 -0.06123
 H684 H 1.15081 0.11160 -0.09168
 C685 C 1.22293 0.71078 0.36098
 C686 C 1.20552 0.69109 0.37883
 C687 C 1.18497 0.67314 0.36394
 C688 C 1.18182 0.67553 0.33070
 C689 C 1.19922 0.69505 0.31289
 C690 C 1.21989 0.71315 0.32763
 C691 C 1.16572 0.65358 0.38389
 C692 C 1.15275 0.63045 0.37246
 C693 C 1.13047 0.61253 0.39116
 C694 C 1.12385 0.58570 0.37910
 C695 C 1.10098 0.56915 0.39454
 C696 C 1.08422 0.57919 0.42235
 C697 C 1.09120 0.60573 0.43478
 C698 C 1.11389 0.62233 0.41931
 H699 H 1.23854 0.72380 0.37369
 H700 H 1.20813 0.68987 0.40447
 H701 H 1.16539 0.66296 0.31825
 H702 H 1.19629 0.69627 0.28729
 H703 H 1.16264 0.65850 0.40888
 H704 H 1.15858 0.62407 0.34820
 H705 H 1.13604 0.57772 0.35735
 H706 H 1.09604 0.54876 0.38444
 H707 H 1.07851 0.61409 0.45612
 H708 H 1.11733 0.64317 0.42906
 C709 C 0.74105 0.19041 0.32671
 C710 C 0.72454 0.17151 0.34639
 C711 C 0.69064 0.17744 0.35328
 C712 C 0.67407 0.20371 0.34208
 C713 C 0.69059 0.22268 0.32250
 C714 C 0.72398 0.21562 0.31326
 C715 C 0.67343 0.15579 0.37208
 C716 C 0.64122 0.15258 0.36887
 C717 C 0.62473 0.12910 0.38536
 C718 C 0.59689 0.11916 0.37163
 C719 C 0.58162 0.09612 0.38581
 C720 C 0.59388 0.08279 0.41410
 C721 C 0.62100 0.09338 0.42842
 C722 C 0.63618 0.11638 0.41432
 H723 H 0.76707 0.18488 0.32119
 H724 H 0.73809 0.15176 0.35545
 H725 H 0.64836 0.20975 0.34845
 H726 H 0.67682 0.24273 0.31492
 H727 H 0.68858 0.14043 0.38677
 H728 H 0.62692 0.16607 0.35167
 H729 H 0.58737 0.12884 0.34952
 H730 H 0.56058 0.08851 0.37444
 H731 H 0.63062 0.08382 0.45055
 H732 H 0.65673 0.12417 0.42630
 C733 C 0.68184 0.69351 -0.19292
 C734 C 0.65886 0.67719 -0.17795
 C735 C 0.65307 0.67850 -0.14506
 C736 C 0.67129 0.69654 -0.12724
 C737 C 0.69454 0.71312 -0.14230
 C738 C 0.69997 0.71222 -0.17567
 C739 C 0.62887 0.65959 -0.13096
 C740 C 0.61910 0.65893 -0.10029
 C741 C 0.59817 0.63668 -0.08775
 C742 C 0.60439 0.62460 -0.05732
 C743 C 0.58820 0.60098 -0.04630
 C744 C 0.56503 0.58931 -0.06531
 C745 C 0.55711 0.60257 -0.09491
 C746 C 0.57358 0.62610 -0.10610
 H747 H 0.68544 0.69165 -0.21848
 H748 H 0.64556 0.66330 -0.19233
 H749 H 0.66822 0.69780 -0.10168
 H750 H 0.70811 0.72610 -0.12734
 H751 H 0.61960 0.64434 -0.14684
 H752 H 0.62887 0.67282 -0.08333
 H753 H 0.62292 0.63259 -0.04264
 H754 H 0.59445 0.59141 -0.02315
 H755 H 0.53901 0.59421 -0.10980
 H756 H 0.56743 0.63566 -0.12927
 C757 C 0.79860 -0.19471 -0.20639
 C758 C 0.81905 -0.17511 -0.19431
 C759 C 0.82508 -0.17453 -0.16159
 C760 C 0.81069 -0.19458 -0.14123
 C761 C 0.79014 -0.21402 -0.15317
 C762 C 0.78344 -0.21453 -0.18603
 C763 C 0.84706 -0.15341 -0.14971
 C764 C 0.84623 -0.14473 -0.11935
 C765 C 0.86740 -0.12344 -0.10657
 C766 C 0.89668 -0.11590 -0.12199
 C767 C 0.91578 -0.09599 -0.10837
 C768 C 0.90610 -0.08332 -0.07909
 C769 C 0.87714 -0.09112 -0.06362
 C770 C 0.85814 -0.11095 -0.07715
 H771 H 0.79420 -0.19327 -0.23163
 H772 H 0.82993 -0.16003 -0.21065
 H773 H 0.81581 -0.19596 -0.11606
 H774 H 0.78080 -0.22945 -0.13633
 H775 H 0.86320 -0.14388 -0.16701
 H776 H 0.82801 -0.15254 -0.10292
 H777 H 0.90528 -0.12553 -0.14426
 H778 H 0.93811 -0.09050 -0.12074
 H779 H 0.86903 -0.08184 -0.04099
 H780 H 0.83593 -0.11646 -0.06454
 C781 C 0.80890 0.31462 0.27968
 C782 C 0.82694 0.33561 0.29254
 C783 C 0.84422 0.32972 0.32089
 C784 C 0.84494 0.30173 0.33498
 C785 C 0.82702 0.28078 0.32213
 C786 C 0.80812 0.28721 0.29481
 C787 C 0.86105 0.35301 0.33541
 C788 C 0.86372 0.35466 0.36711
 C789 C 0.88103 0.37658 0.38361
 C790 C 0.88819 0.37124 0.41588
 C791 C 0.90526 0.39038 0.43269
 C792 C 0.91542 0.41558 0.41773
 C793 C 0.90749 0.42159 0.38570
 C794 C 0.89047 0.40225 0.36871
 H795 H 0.79442 0.32034 0.25873
 H796 H 0.82638 0.35687 0.28099
 H797 H 0.85923 0.29595 0.35603
 H798 H 0.82760 0.25961 0.33386
 H799 H 0.87037 0.36925 0.31960
 H800 H 0.85304 0.33856 0.38225
 H801 H 0.88104 0.35184 0.42810
 H802 H 0.91083 0.38522 0.45740
 H803 H 0.91495 0.44094 0.37364
 H804 H 0.88482 0.40763 0.34412
 C805 C 0.32418 -0.19911 0.29432
 C806 C 0.34482 -0.17942 0.30594
 C807 C 0.33704 -0.16532 0.33482
 C808 C 0.30723 -0.17017 0.35094
 C809 C 0.28677 -0.18983 0.33942
 C810 C 0.29532 -0.20500 0.31135
 C811 C 0.35997 -0.14538 0.34724
 C812 C 0.36173 -0.14005 0.37845
 C813 C 0.38299 -0.11940 0.39214
 C814 C 0.37495 -0.10931 0.42289
 C815 C 0.39376 -0.08973 0.43706
 C816 C 0.42139 -0.07996 0.42096
 C817 C 0.43002 -0.09042 0.39043
 C818 C 0.41100 -0.10995 0.37609
 H819 H 0.33136 -0.21034 0.27257
 H820 H 0.36732 -0.17572 0.29275
 H821 H 0.29934 -0.15866 0.37233
 H822 H 0.26409 -0.19309 0.35252
 H823 H 0.37584 -0.13529 0.33014
 H824 H 0.34619 -0.15089 0.39526
 H825 H 0.35371 -0.11635 0.43593
 H826 H 0.38657 -0.08218 0.46067
 H827 H 0.45132 -0.08337 0.37755
 H828 H 0.41862 -0.11775 0.35274
 C829 C 0.32308 0.29734 -0.21500
 C830 C 0.34159 0.31727 -0.20067
 C831 C 0.33351 0.32704 -0.16981
 C832 C 0.30582 0.31708 -0.15393
 C833 C 0.28751 0.29713 -0.16801
 C834 C 0.29583 0.28658 -0.19874
 C835 C 0.35347 0.34837 -0.15539
 C836 C 0.35450 0.35205 -0.12379
 C837 C 0.37205 0.37458 -0.10870
 C838 C 0.36137 0.38366 -0.07817
 C839 C 0.37672 0.40497 -0.06287
 C840 C 0.40347 0.41743 -0.07759
 C841 C 0.41474 0.40798 -0.10786
 C842 C 0.39916 0.38678 -0.12335
 H843 H 0.33129 0.28978 -0.23827
 H844 H 0.36263 0.32479 -0.21362
 H845 H 0.29745 0.32514 -0.13087
 H846 H 0.26592 0.29100 -0.15491
 H847 H 0.36738 0.36144 -0.17150
 H848 H 0.34091 0.33864 -0.10779
 H849 H 0.34073 0.37448 -0.06623
 H850 H 0.36761 0.41169 -0.03948
 H851 H 0.43547 0.41710 -0.11967
 H852 H 0.40873 0.37980 -0.14645
 C853 C 1.18067 -0.22063 0.22796
 C854 C 1.16208 -0.20386 0.20548
 C855 C 1.17258 -0.17775 0.19338
 C856 C 1.20228 -0.16862 0.20430
 C857 C 1.22086 -0.18537 0.22713
 C858 C 1.21005 -0.21142 0.23944
 C859 C 1.15080 -0.16009 0.17094
 C860 C 1.16150 -0.14110 0.14938
 C861 C 1.13868 -0.12364 0.12760
 C862 C 1.15049 -0.11465 0.09762
 C863 C 1.12965 -0.09758 0.07693
 C864 C 1.09673 -0.08881 0.08611
 C865 C 1.08492 -0.09778 0.11610
 C866 C 1.10564 -0.11495 0.13666
 H867 H 1.17200 -0.24096 0.23615
 H868 H 1.13934 -0.21140 0.19745
 H869 H 1.21070 -0.14821 0.19604
 H870 H 1.24315 -0.17751 0.23572
 H871 H 1.12495 -0.16402 0.17139
 H872 H 1.18775 -0.13913 0.14653
 H873 H 1.17590 -0.12087 0.09020
 H874 H 1.13949 -0.09077 0.05405
 H875 H 1.05976 -0.09112 0.12394
 H876 H 1.09591 -0.12066 0.15995
 C877 C 1.24075 0.29306 0.69367
 C878 C 1.22605 0.31289 0.67118
 C879 C 1.19461 0.32747 0.67719
 C880 C 1.17800 0.32166 0.70608
 C881 C 1.19253 0.30171 0.72835
 C882 C 1.22393 0.28689 0.72230
 C883 C 1.17881 0.34726 0.65238
 C884 C 1.15673 0.36983 0.65956
 C885 C 1.13769 0.38829 0.63562
 C886 C 1.12280 0.41557 0.64485
 C887 C 1.10159 0.43242 0.62446
 C888 C 1.09449 0.42221 0.59444
 C889 C 1.11009 0.39530 0.58469
 C890 C 1.13147 0.37844 0.60509
 H891 H 1.26489 0.28214 0.68821
 H892 H 1.23924 0.31681 0.64899
 H893 H 1.15336 0.33187 0.71125
 H894 H 1.17906 0.29793 0.75039
 H895 H 1.18603 0.34324 0.62778
 H896 H 1.15225 0.37528 0.68433
 H897 H 1.12702 0.42361 0.66826
 H898 H 1.08996 0.45308 0.63264
 H899 H 1.10495 0.38685 0.56172
 H900 H 1.14181 0.35725 0.59734
 C901 C 0.68335 -0.22809 0.72103
 C902 C 0.66793 -0.20999 0.69779
 C903 C 0.68280 -0.18606 0.68538
 C904 C 0.71458 -0.18142 0.69563
 C905 C 0.73031 -0.19982 0.71903
 C906 C 0.71423 -0.22276 0.73314
 C907 C 0.66281 -0.16572 0.66394
 C908 C 0.67472 -0.14547 0.64479
 C909 C 0.65241 -0.12546 0.62500
 C910 C 0.66345 -0.11599 0.59498
 C911 C 0.64254 -0.09746 0.57578
 C912 C 0.61036 -0.08769 0.58653
 C913 C 0.59950 -0.09680 0.61678
 C914 C 0.62030 -0.11543 0.63586
 H915 H 0.67071 -0.24648 0.72926
 H916 H 0.64378 -0.21446 0.68990
 H917 H 0.72676 -0.16298 0.68680
 H918 H 0.75394 -0.19463 0.72728
 H919 H 0.63654 -0.16808 0.66357
 H920 H 0.70113 -0.14428 0.64228
 H921 H 0.68815 -0.12321 0.58623
 H922 H 0.65167 -0.09055 0.55265
 H923 H 0.57499 -0.08934 0.62583
 H924 H 0.61135 -0.12156 0.65933
 C925 C 0.73381 0.29642 0.19459
 C926 C 0.71622 0.31447 0.17230
 C927 C 0.68635 0.33044 0.18116
 C928 C 0.67538 0.32949 0.21315
 C929 C 0.69297 0.31160 0.23539
 C930 C 0.72192 0.29439 0.22619
 C931 C 0.66717 0.34803 0.15680
 C932 C 0.63400 0.35208 0.15817
 C933 C 0.61366 0.37075 0.13547
 C934 C 0.58136 0.38111 0.14504
 C935 C 0.56172 0.40007 0.12530
 C936 C 0.57395 0.40887 0.09544
 C937 C 0.60571 0.39757 0.08518
 C938 C 0.62541 0.37862 0.10495
 H939 H 0.75594 0.28326 0.18677
 H940 H 0.72535 0.31521 0.14786
 H941 H 0.65325 0.34256 0.22110
 H942 H 0.68374 0.31103 0.25980
 H943 H 0.68091 0.35730 0.13736
 H944 H 0.62087 0.34206 0.17761
 H945 H 0.57157 0.37512 0.16825
 H946 H 0.53723 0.40832 0.13372
 H947 H 0.61559 0.40378 0.06208
 H948 H 0.64967 0.37031 0.09615
 C949 C 0.77852 0.19749 0.19681
 C950 C 0.79408 0.18344 0.17073
 C951 C 0.82590 0.18937 0.16060
 C952 C 0.84114 0.21105 0.17605
 C953 C 0.82533 0.22536 0.20213
 C954 C 0.79429 0.21808 0.21325
 C955 C 0.84241 0.17156 0.13482
 C956 C 0.87536 0.16587 0.13184
 C957 C 0.89140 0.14286 0.11100
 C958 C 0.92253 0.12932 0.11945
 C959 C 0.93712 0.10549 0.10273
 C960 C 0.92101 0.09478 0.07695
 C961 C 0.89070 0.10921 0.06730
 C962 C 0.87603 0.13311 0.08409
 H963 H 0.75413 0.19207 0.20428
 H964 H 0.78157 0.16718 0.15903
 H965 H 0.86523 0.21688 0.16827
 H966 H 0.83779 0.24142 0.21420
 H967 H 0.82662 0.15985 0.12052
 H968 H 0.89110 0.17563 0.14805
 H969 H 0.93508 0.13654 0.13982
 H970 H 0.96072 0.09502 0.11049
 H971 H 0.87800 0.10168 0.04721
 H972 H 0.85261 0.14363 0.07607
 C973 C 0.80820 0.68077 0.76056
 C974 C 0.82821 0.66300 0.74014
 C975 C 0.83423 0.67201 0.70869
 C976 C 0.82193 0.70022 0.69866
 C977 C 0.80242 0.71845 0.71942
 C978 C 0.79410 0.70848 0.75033
 C979 C 0.85290 0.65105 0.68726
 C980 C 0.84690 0.64974 0.65610
 C981 C 0.86330 0.62680 0.63541
 C982 C 0.86652 0.63271 0.60262
 C983 C 0.88273 0.61199 0.58250
 C984 C 0.89573 0.58475 0.59472
 C985 C 0.89117 0.57826 0.62727
 C986 C 0.87507 0.59904 0.64744
 H987 H 0.80400 0.67264 0.78457
 H988 H 0.83806 0.64163 0.74867
 H989 H 0.82701 0.70811 0.67472
 H990 H 0.79210 0.73940 0.71023
 H991 H 0.87052 0.63491 0.69821
 H992 H 0.82935 0.66598 0.64517
 H993 H 0.85718 0.65369 0.59266
 H994 H 0.88571 0.61756 0.55745
 H995 H 0.90070 0.55736 0.63729
 H996 H 0.87181 0.59316 0.67233
 C997 C 0.33254 0.18918 0.74209
 C998 C 0.35570 0.17400 0.72199
 C999 C 0.35895 0.18249 0.68985
 C1000 C 0.33998 0.20772 0.67868
 C1001 C 0.31699 0.22311 0.69898
 C1002 C 0.31239 0.21349 0.73060
 C1003 C 0.38171 0.16400 0.66888
 C1004 C 0.37729 0.16165 0.63750
 C1005 C 0.39689 0.13959 0.61779
 C1006 C 0.38265 0.12968 0.59047
 C1007 C 0.39919 0.10727 0.57270
 C1008 C 0.43045 0.09443 0.58181
 C1009 C 0.44540 0.10522 0.60824
 C1010 C 0.42892 0.12765 0.62597
 H1011 H 0.32996 0.18157 0.76655
 H1012 H 0.37032 0.15492 0.73135
 H1013 H 0.34257 0.21545 0.65430
 H1014 H 0.30189 0.24175 0.68952
 H1015 H 0.40052 0.14952 0.68055
 H1016 H 0.35649 0.17415 0.62641
 H1017 H 0.35819 0.13870 0.58342
 H1018 H 0.38717 0.09954 0.55228
 H1019 H 0.46973 0.09605 0.61552
 H1020 H 0.44134 0.13542 0.64607
 C1021 C 0.32479 0.73283 0.22253
 C1022 C 0.34353 0.71931 0.19760
 C1023 C 0.33251 0.69546 0.18239
 C1024 C 0.30225 0.68553 0.19245
 C1025 C 0.28381 0.69882 0.21741
 C1026 C 0.29515 0.72223 0.23309
 C1027 C 0.35429 0.67940 0.15857
 C1028 C 0.34250 0.66316 0.13626
 C1029 C 0.36335 0.64170 0.11696
 C1030 C 0.34985 0.63079 0.08979
 C1031 C 0.36672 0.60761 0.07348
 C1032 C 0.39730 0.59469 0.08427
 C1033 C 0.41137 0.60617 0.11078
 C1034 C 0.39459 0.62939 0.12703
 H1035 H 0.33405 0.75081 0.23429
 H1036 H 0.36694 0.72715 0.19053
 H1037 H 0.29331 0.66672 0.18208
 H1038 H 0.26076 0.69046 0.22477
 H1039 H 0.38069 0.68036 0.16032
 H1040 H 0.31607 0.66470 0.13265
 H1041 H 0.32572 0.63970 0.08169
 H1042 H 0.35533 0.59922 0.05307
 H1043 H 0.43494 0.59663 0.11962
 H1044 H 0.40553 0.63655 0.14829
   
