data_POSCAR
  _audit_creation_date              2014-09-24
  _audit_creation_method            'ToBaCCo'
  _symmetry_space_group_name_H-M    'P1'
  _symmetry_Int_Tables_number       1
  _symmetry_cell_setting            triclinic
  loop_
  _symmetry_equiv_pos_as_xyz
 x,y,z
_cell_length_a 59.4155
_cell_length_b 59.4756
_cell_length_c 59.8735
_cell_angle_alpha 90.093100
_cell_angle_beta 90.206700
_cell_angle_gamma 90.073900
loop_
  _atom_site_label
  _atom_site_type_symbol
  _atom_site_fract_x
  _atom_site_fract_y
  _atom_site_fract_z
N1 N 0.17161 0.22532 0.22874
 N2 N 0.17793 0.20747 0.24009
 C3 C 0.16360 0.20431 0.25721
 C4 C 0.14760 0.22105 0.25639
 C5 C 0.15308 0.23411 0.23821
 H6 H 0.16469 0.19093 0.26937
 H7 H 0.14427 0.24889 0.23237
 Cu8 Cu 0.20427 0.19017 0.23136
 Cu9 Cu 0.18788 0.23589 0.20260
 Cu10 Cu 0.23534 0.20584 0.18721
 N11 N 0.23119 0.17372 0.22277
 N12 N 0.24325 0.17996 0.20546
 C13 C 0.26076 0.16582 0.20310
 C14 C 0.25952 0.14998 0.21980
 C15 C 0.24065 0.15536 0.23202
 H16 H 0.27339 0.16690 0.19018
 H17 H 0.23433 0.14651 0.24647
 N18 N 0.22467 0.23247 0.17083
 N19 N 0.20658 0.24394 0.17667
 C20 C 0.20368 0.26108 0.16225
 C21 C 0.22073 0.26024 0.14675
 C22 C 0.23374 0.24202 0.15256
 H23 H 0.19020 0.27327 0.16290
 H24 H 0.24867 0.23619 0.14406
 H25 H 0.20115 0.20514 0.19356
 H26 H 0.21880 0.22325 0.21218
 N27 N 0.67140 0.72589 0.73000
 N28 N 0.67775 0.70812 0.74146
 C29 C 0.66336 0.70498 0.75853
 C30 C 0.64728 0.72163 0.75755
 C31 C 0.65278 0.73463 0.73935
 H32 H 0.66449 0.69169 0.77079
 H33 H 0.64395 0.74937 0.73342
 Cu34 Cu 0.70428 0.69098 0.73303
 Cu35 Cu 0.68783 0.73651 0.70399
 Cu36 Cu 0.73570 0.70682 0.68915
 N37 N 0.73143 0.67476 0.72475
 N38 N 0.74363 0.68105 0.70756
 C39 C 0.76128 0.66704 0.70542
 C40 C 0.75997 0.65123 0.72216
 C41 C 0.74093 0.65649 0.73415
 H42 H 0.77403 0.66818 0.69263
 H43 H 0.73450 0.64762 0.74853
 N44 N 0.72495 0.73333 0.67259
 N45 N 0.70669 0.74463 0.67822
 C46 C 0.70378 0.76173 0.66374
 C47 C 0.72101 0.76103 0.64844
 C48 C 0.73413 0.74294 0.65440
 H49 H 0.69019 0.77379 0.66425
 H50 H 0.74920 0.73724 0.64607
 H51 H 0.70146 0.70583 0.69515
 H52 H 0.71876 0.72412 0.71392
 N53 N 0.32787 0.77385 0.73023
 N54 N 0.32174 0.79174 0.74163
 C55 C 0.33636 0.79498 0.75860
 C56 C 0.35235 0.77824 0.75765
 C57 C 0.34657 0.76510 0.73954
 H58 H 0.33546 0.80839 0.77078
 H59 H 0.35528 0.75029 0.73365
 Cu60 Cu 0.29517 0.80888 0.73321
 Cu61 Cu 0.31112 0.76314 0.70429
 Cu62 Cu 0.26369 0.79348 0.68899
 N63 N 0.26854 0.82575 0.72448
 N64 N 0.25629 0.81962 0.70715
 C65 C 0.23897 0.83401 0.70476
 C66 C 0.24057 0.84987 0.72148
 C67 C 0.25942 0.84428 0.73373
 H68 H 0.22622 0.83303 0.69185
 H69 H 0.26594 0.85306 0.74820
 N70 N 0.27392 0.76654 0.67273
 N71 N 0.29198 0.75498 0.67856
 C72 C 0.29455 0.73765 0.66427
 C73 C 0.27731 0.73845 0.64886
 C74 C 0.26453 0.75686 0.65458
 H75 H 0.30795 0.72538 0.66493
 H76 H 0.24956 0.76274 0.64610
 H77 H 0.29786 0.79397 0.69536
 H78 H 0.28025 0.77593 0.71386
 N79 N 0.82844 0.27290 0.23012
 N80 N 0.82279 0.29116 0.24119
 C81 C 0.83762 0.29447 0.25797
 C82 C 0.85323 0.27738 0.25720
 C83 C 0.84704 0.26395 0.23944
 H84 H 0.83709 0.30816 0.26987
 H85 H 0.85537 0.24883 0.23377
 Cu86 Cu 0.79653 0.30875 0.23272
 Cu87 Cu 0.81124 0.26202 0.20456
 Cu88 Cu 0.76379 0.29243 0.18965
 N89 N 0.76951 0.32525 0.22447
 N90 N 0.75678 0.31878 0.20762
 C91 C 0.73929 0.33302 0.20555
 C92 C 0.74126 0.34915 0.22198
 C93 C 0.76052 0.34385 0.23372
 H94 H 0.72616 0.33177 0.19305
 H95 H 0.76740 0.35287 0.24788
 N96 N 0.77363 0.26531 0.17351
 N97 N 0.79170 0.25370 0.17920
 C98 C 0.79405 0.23630 0.16494
 C99 C 0.77665 0.23712 0.14972
 C100 C 0.76402 0.25561 0.15549
 H101 H 0.80747 0.22405 0.16544
 H102 H 0.74906 0.26159 0.14706
 H103 H 0.79817 0.29278 0.19518
 H104 H 0.78084 0.27545 0.21464
 N105 N 0.82685 0.72554 0.26740
 N106 N 0.81981 0.70809 0.25578
 C107 C 0.83370 0.70489 0.23831
 C108 C 0.85016 0.72122 0.23917
 C109 C 0.84543 0.73405 0.25774
 H110 H 0.83204 0.69174 0.22593
 H111 H 0.85479 0.74846 0.26375
 Cu112 Cu 0.79321 0.69126 0.26463
 Cu113 Cu 0.81144 0.73596 0.29411
 Cu114 Cu 0.76450 0.70571 0.31078
 N115 N 0.76715 0.67418 0.27449
 N116 N 0.75600 0.67991 0.29257
 C117 C 0.73888 0.66538 0.29561
 C118 C 0.73943 0.64985 0.27853
 C119 C 0.75749 0.65578 0.26541
 H120 H 0.72696 0.66604 0.30920
 H121 H 0.76312 0.64729 0.25046
 N122 N 0.77571 0.73233 0.32701
 N123 N 0.79360 0.74386 0.32066
 C124 C 0.79687 0.76107 0.33499
 C125 C 0.78028 0.76021 0.35096
 C126 C 0.76715 0.74190 0.34553
 H127 H 0.81024 0.77337 0.33389
 H128 H 0.75243 0.73609 0.35440
 H129 H 0.79831 0.70496 0.30271
 H130 H 0.77994 0.72379 0.28565
 N131 N 0.32593 0.22714 -0.23230
 N132 N 0.31903 0.20977 -0.24413
 C133 C 0.33295 0.20689 -0.26163
 C134 C 0.34926 0.22336 -0.26056
 C135 C 0.34444 0.23593 -0.24184
 H136 H 0.33144 0.19381 -0.27413
 H137 H 0.35372 0.25030 -0.23560
 Cu138 Cu 0.29264 0.19250 -0.23544
 Cu139 Cu 0.31049 0.23697 -0.20537
 Cu140 Cu 0.26398 0.20593 -0.18895
 N141 N 0.26681 0.17497 -0.22571
 N142 N 0.25569 0.18030 -0.20750
 C143 C 0.23875 0.16553 -0.20458
 C144 C 0.23940 0.15025 -0.22189
 C145 C 0.25731 0.15659 -0.23501
 H146 H 0.22689 0.16585 -0.19093
 H147 H 0.26297 0.14840 -0.25011
 N148 N 0.27495 0.23243 -0.17237
 N149 N 0.29266 0.24428 -0.17862
 C150 C 0.29575 0.26135 -0.16408
 C151 C 0.27923 0.26004 -0.14806
 C152 C 0.26632 0.24164 -0.15369
 H153 H 0.30893 0.27385 -0.16508
 H154 H 0.25169 0.23553 -0.14487
 H155 H 0.29777 0.20570 -0.19718
 H156 H 0.27910 0.22457 -0.21387
 N157 N 0.67327 0.27336 -0.23304
 N158 N 0.67958 0.29129 -0.24426
 C159 C 0.66507 0.29469 -0.26128
 C160 C 0.64898 0.27801 -0.26052
 C161 C 0.65455 0.26474 -0.24250
 H162 H 0.66610 0.30821 -0.27330
 H163 H 0.64569 0.24996 -0.23672
 Cu164 Cu 0.70612 0.30838 -0.23551
 Cu165 Cu 0.68981 0.26251 -0.20706
 Cu166 Cu 0.73767 0.29226 -0.19162
 N167 N 0.73322 0.32467 -0.22691
 N168 N 0.74549 0.31828 -0.20973
 C169 C 0.76307 0.33242 -0.20735
 C170 C 0.76164 0.34839 -0.22394
 C171 C 0.74260 0.34311 -0.23607
 H172 H 0.77584 0.33126 -0.19449
 H173 H 0.73607 0.35211 -0.25037
 N174 N 0.72700 0.26549 -0.17542
 N175 N 0.70876 0.25416 -0.18128
 C176 C 0.70590 0.23691 -0.16700
 C177 C 0.72313 0.23752 -0.15157
 C178 C 0.73621 0.25574 -0.15726
 H179 H 0.69230 0.22482 -0.16769
 H180 H 0.75125 0.26145 -0.14875
 H181 H 0.70347 0.29316 -0.19779
 H182 H 0.72077 0.27514 -0.21664
 N183 N 0.17401 0.77475 0.26795
 N184 N 0.18087 0.79246 0.25671
 C185 C 0.16668 0.79606 0.23947
 C186 C 0.15022 0.77973 0.24006
 C187 C 0.15526 0.76647 0.25825
 H188 H 0.16812 0.80951 0.22743
 H189 H 0.14597 0.75196 0.26400
 Cu190 Cu 0.20759 0.80912 0.26578
 Cu191 Cu 0.18980 0.76381 0.29433
 Cu192 Cu 0.23697 0.79373 0.31135
 N193 N 0.23381 0.82600 0.27584
 N194 N 0.24524 0.81989 0.29369
 C195 C 0.26240 0.83436 0.29699
 C196 C 0.26154 0.85026 0.28030
 C197 C 0.24331 0.84461 0.26715
 H198 H 0.27451 0.83341 0.31048
 H199 H 0.23742 0.85342 0.25247
 N200 N 0.22599 0.76681 0.32706
 N201 N 0.20802 0.75539 0.32059
 C202 C 0.20485 0.73802 0.33467
 C203 C 0.22160 0.73866 0.35061
 C204 C 0.23472 0.75700 0.34542
 H205 H 0.19138 0.72582 0.33348
 H206 H 0.24948 0.76274 0.35439
 H207 H 0.20302 0.79459 0.30355
 H208 H 0.22114 0.77614 0.28591
 N209 N 0.47711 0.42270 0.48381
 N210 N 0.45907 0.42892 0.49490
 C211 C 0.45619 0.41502 0.51242
 C212 C 0.47332 0.39942 0.51216
 C213 C 0.48630 0.40466 0.49387
 H214 H 0.44264 0.41604 0.52439
 H215 H 0.50120 0.39593 0.48824
 Cu216 Cu 0.44106 0.45443 0.48517
 Cu217 Cu 0.48723 0.43829 0.45707
 Cu218 Cu 0.45584 0.48426 0.43986
 N219 N 0.42386 0.48054 0.47556
 N220 N 0.42974 0.49211 0.45780
 C221 C 0.41513 0.50915 0.45482
 C222 C 0.39938 0.50812 0.47161
 C223 C 0.40528 0.48986 0.48451
 H224 H 0.41588 0.52135 0.44147
 H225 H 0.39667 0.48388 0.49923
 N226 N 0.48279 0.47372 0.42391
 N227 N 0.49476 0.45621 0.43046
 C228 C 0.51204 0.45328 0.41622
 C229 C 0.51075 0.46971 0.40009
 C230 C 0.49213 0.48239 0.40533
 H231 H 0.52462 0.44022 0.41744
 H232 H 0.48591 0.49683 0.39627
 H233 H 0.47372 0.46916 0.46545
 H234 H 0.45608 0.45037 0.44751
 N235 N -0.02220 -0.07559 0.98321
 N236 N -0.03972 -0.06872 0.99474
 C237 C -0.04263 -0.08248 1.01237
 C238 C -0.02604 -0.09864 1.01173
 C239 C -0.01337 -0.09390 0.99310
 H240 H -0.05581 -0.08097 1.02469
 H241 H 0.00111 -0.10312 0.98716
 Cu242 Cu -0.05702 -0.04256 0.98547
 Cu243 Cu -0.01220 -0.06043 0.95622
 Cu244 Cu -0.04325 -0.01432 0.93882
 N245 N -0.07455 -0.01693 0.97520
 N246 N -0.06905 -0.00597 0.95694
 C247 C -0.08377 0.01090 0.95365
 C248 C -0.09921 0.01041 0.97074
 C249 C -0.09301 -0.00737 0.98414
 H250 H -0.08328 0.02266 0.93989
 H251 H -0.10133 -0.01287 0.99922
 N252 N -0.01658 -0.02533 0.92272
 N253 N -0.00474 -0.04290 0.92934
 C254 C 0.01242 -0.04611 0.91502
 C255 C 0.01118 -0.02981 0.89877
 C256 C -0.00728 -0.01691 0.90402
 H257 H 0.02492 -0.05925 0.91631
 H258 H -0.01338 -0.00245 0.89492
 H259 H -0.02478 -0.02907 0.96418
 H260 H -0.04348 -0.04798 0.94745
 N261 N 1.02266 0.57739 0.98359
 N262 N 1.04060 0.57089 0.99477
 C263 C 1.04370 0.58470 1.01240
 C264 C 1.02678 0.60054 1.01209
 C265 C 1.01372 0.59553 0.99369
 H266 H 1.05721 0.58344 1.02447
 H267 H 0.99892 0.60445 0.98804
 Cu268 Cu 1.05816 0.54510 0.98505
 Cu269 Cu 1.01226 0.56199 0.95676
 Cu270 Cu 1.04333 0.51597 0.93914
 N271 N 1.07545 0.51926 0.97501
 N272 N 1.06955 0.50794 0.95701
 C273 C 1.08421 0.49101 0.95377
 C274 C 1.10003 0.49187 0.97064
 C275 C 1.09409 0.50988 0.98385
 H276 H 1.08345 0.47900 0.94021
 H277 H 1.10273 0.51567 0.99872
 N278 N 1.01627 0.52670 0.92331
 N279 N 1.00443 0.54423 0.93002
 C280 C 0.98704 0.54731 0.91585
 C281 C 0.98810 0.53095 0.89959
 C282 C 1.00671 0.51816 0.90469
 H283 H 0.97452 0.56041 0.91721
 H284 H 1.01277 0.50373 0.89550
 H285 H 1.02545 0.53087 0.96474
 H286 H 1.04333 0.54974 0.94732
 N287 N 0.52319 0.07667 0.48255
 N288 N 0.54155 0.07093 0.49347
 C289 C 0.54474 0.08532 0.51060
 C290 C 0.52747 0.10076 0.51026
 C291 C 0.51408 0.09490 0.49234
 H292 H 0.55849 0.08464 0.52246
 H293 H 0.49886 0.10324 0.48689
 Cu294 Cu 0.55942 0.04513 0.48435
 Cu295 Cu 0.51239 0.06006 0.45660
 Cu296 Cu 0.54322 0.01333 0.44060
 N297 N 0.57616 0.01850 0.47547
 N298 N 0.56971 0.00612 0.45836
 C299 C 0.58411 -0.01116 0.45588
 C300 C 0.60031 -0.00944 0.47231
 C301 C 0.59489 0.00947 0.48447
 H302 H 0.58291 -0.02399 0.44311
 H303 H 0.60393 0.01608 0.49875
 N304 N 0.51593 0.02329 0.42472
 N305 N 0.50418 0.04111 0.43080
 C306 C 0.48668 0.04362 0.41663
 C307 C 0.48758 0.02659 0.40106
 C308 C 0.50622 0.01400 0.40654
 H309 H 0.47428 0.05688 0.41745
 H310 H 0.51228 -0.00072 0.39782
 H311 H 0.52617 0.02959 0.46599
 H312 H 0.54328 0.04753 0.44689
 N313 N -0.02439 0.07932 0.51951
 N314 N -0.04225 0.07297 0.50808
 C315 C -0.04538 0.08726 0.49089
 C316 C -0.02860 0.10327 0.49177
 C317 C -0.01556 0.09785 0.51004
 H318 H -0.05874 0.08613 0.47863
 H319 H -0.00075 0.10666 0.51594
 Cu320 Cu -0.05956 0.04660 0.51671
 Cu321 Cu -0.01378 0.06305 0.54568
 Cu322 Cu -0.04376 0.01549 0.56094
 N323 N -0.07590 0.01958 0.52520
 N324 N -0.06964 0.00751 0.54254
 C325 C -0.08370 -0.01011 0.54475
 C326 C -0.09949 -0.00894 0.52789
 C327 C -0.09419 0.01000 0.51577
 H328 H -0.08257 -0.02279 0.55763
 H329 H -0.10301 0.01628 0.50124
 N330 N -0.01710 0.02627 0.57745
 N331 N -0.00567 0.04439 0.57163
 C332 C 0.01157 0.04731 0.58604
 C333 C 0.01084 0.03022 0.60150
 C334 C -0.00743 0.01717 0.59570
 H335 H 0.02377 0.06079 0.58537
 H336 H -0.01317 0.00218 0.60416
 H337 H -0.02646 0.03209 0.53605
 H338 H -0.04459 0.04961 0.55461
 N339 N 0.47632 0.57943 0.02033
 N340 N 0.45845 0.57318 0.00885
 C341 C 0.45535 0.58758 -0.00824
 C342 C 0.47214 0.60355 -0.00726
 C343 C 0.48518 0.59800 0.01097
 H344 H 0.44197 0.58655 -0.02050
 H345 H 0.50000 0.60676 0.01693
 Cu346 Cu 0.44107 0.54682 0.01736
 Cu347 Cu 0.48687 0.56298 0.04642
 Cu348 Cu 0.45672 0.51542 0.06141
 N349 N 0.42456 0.51986 0.02572
 N350 N 0.43077 0.50766 0.04299
 C351 C 0.41652 0.49019 0.04520
 C352 C 0.40066 0.49160 0.02842
 C353 C 0.40612 0.51053 0.01634
 H354 H 0.41754 0.47749 0.05807
 H355 H 0.39726 0.51700 0.00192
 N356 N 0.48344 0.52599 0.07796
 N357 N 0.49491 0.54413 0.07227
 C358 C 0.51212 0.54694 0.08675
 C359 C 0.51131 0.52978 0.10213
 C360 C 0.49304 0.51679 0.09620
 H361 H 0.52432 0.56043 0.08620
 H362 H 0.48722 0.50180 0.10459
 H363 H 0.47413 0.53213 0.03662
 H364 H 0.45605 0.54959 0.05526
 N365 N 0.52376 -0.07724 0.01978
 N366 N 0.54167 -0.07093 0.00853
 C367 C 0.54511 -0.08552 -0.00837
 C368 C 0.52847 -0.10166 -0.00752
 C369 C 0.51519 -0.09601 0.01044
 H370 H 0.55857 -0.08448 -0.02042
 H371 H 0.50039 -0.10484 0.01620
 Cu372 Cu 0.55853 -0.04414 0.01700
 Cu373 Cu 0.51276 -0.06059 0.04555
 Cu374 Cu 0.54294 -0.01316 0.06132
 N375 N 0.57554 -0.01772 0.02626
 N376 N 0.56931 -0.00566 0.04360
 C377 C 0.58379 0.01157 0.04636
 C378 C 0.59983 0.01014 0.02987
 C379 C 0.59424 -0.00855 0.01738
 H380 H 0.58274 0.02418 0.05935
 H381 H 0.60312 -0.01492 0.00298
 N382 N 0.51581 -0.02348 0.07714
 N383 N 0.50431 -0.04155 0.07114
 C384 C 0.48684 -0.04421 0.08518
 C385 C 0.48748 -0.02702 0.10059
 C386 C 0.50594 -0.01417 0.09515
 H387 H 0.47459 -0.05766 0.08436
 H388 H 0.51175 0.00076 0.10374
 H389 H 0.52546 -0.02964 0.03626
 H390 H 0.54359 -0.04729 0.05474
 N391 N 1.02384 0.42101 0.51939
 N392 N 1.04193 0.42721 0.50838
 C393 C 1.04524 0.41287 0.49125
 C394 C 1.02835 0.39698 0.49172
 C395 C 1.01504 0.40253 0.50968
 H396 H 1.05883 0.41388 0.47933
 H397 H 1.00009 0.39380 0.51523
 Cu398 Cu 1.05930 0.45345 0.51750
 Cu399 Cu 1.01298 0.43733 0.54540
 Cu400 Cu 1.04308 0.48468 0.56149
 N401 N 1.07573 0.48034 0.52645
 N402 N 1.06930 0.49247 0.54368
 C403 C 1.08348 0.50998 0.54625
 C404 C 1.09954 0.50865 0.52977
 C405 C 1.09425 0.48975 0.51747
 H406 H 1.08223 0.52268 0.55914
 H407 H 1.10324 0.48339 0.50312
 N408 N 1.01610 0.47408 0.57738
 N409 N 1.00463 0.45603 0.57125
 C410 C 0.98730 0.45309 0.58542
 C411 C 0.98800 0.47008 0.60105
 C412 C 1.00635 0.48309 0.59560
 H413 H 0.97513 0.43958 0.58454
 H414 H 1.01218 0.49793 0.60435
 H415 H 1.02602 0.46820 0.53615
 H416 H 1.04373 0.45055 0.55504
 Si417 Si 0.37388 0.00020 0.25031
 Si418 Si 0.12621 -0.00131 0.75003
 Si419 Si 0.62580 0.49854 0.25141
 Si420 Si 0.87404 0.50070 0.74997
 Si421 Si 0.25002 0.37689 -0.00067
 Si422 Si 0.75006 0.12415 -0.00131
 Si423 Si 0.24934 0.62328 0.49948
 Si424 Si 0.75071 0.87566 0.49951
 Si425 Si 0.00037 0.24972 0.37365
 Si426 Si -0.00011 0.75101 0.12574
 Si427 Si 0.49887 0.24928 0.62658
 Si428 Si 0.50037 0.75055 0.87509
 C429 C 0.06192 0.25522 0.34140
 C430 C 0.06116 0.23746 0.32602
 C431 C 0.04218 0.22351 0.32505
 C432 C 0.02409 0.22726 0.33944
 C433 C 0.12909 0.22433 0.27141
 C434 C 0.04383 0.25896 0.35580
 C435 C 0.07975 0.23371 0.31113
 C436 C 0.09532 0.23066 0.29864
 C437 C 0.11354 0.22719 0.28397
 C438 C 0.02489 0.24487 0.35504
 H439 H 0.07646 0.26621 0.34220
 H440 H 0.04134 0.20980 0.31314
 H441 H 0.00947 0.21640 0.33844
 H442 H 0.04468 0.27294 0.36733
 C443 C 0.55463 0.72142 0.84247
 C444 C 0.56088 0.73809 0.82720
 C445 C 0.54894 0.75835 0.82641
 C446 C 0.53090 0.76197 0.84088
 C447 C 0.62876 0.72495 0.77254
 C448 C 0.53659 0.72504 0.85697
 C449 C 0.57945 0.73437 0.81228
 C450 C 0.59500 0.73132 0.79977
 C451 C 0.61321 0.72783 0.78510
 C452 C 0.52475 0.74543 0.85639
 H453 H 0.56365 0.70562 0.84312
 H454 H 0.55355 0.77133 0.81459
 H455 H 0.52175 0.77768 0.84001
 H456 H 0.53189 0.71183 0.86841
 C457 C 0.44581 0.77927 0.84232
 C458 C 0.43953 0.76249 0.82709
 C459 C 0.45156 0.74228 0.82635
 C460 C 0.46972 0.73883 0.84084
 C461 C 0.37105 0.77502 0.77256
 C462 C 0.46397 0.77582 0.85683
 C463 C 0.42081 0.76602 0.81218
 C464 C 0.40512 0.76892 0.79970
 C465 C 0.38675 0.77225 0.78507
 C466 C 0.47589 0.75549 0.85631
 H467 H 0.43671 0.79504 0.84293
 H468 H 0.44692 0.72921 0.81456
 H469 H 0.47893 0.72315 0.84002
 H470 H 0.46867 0.78912 0.86825
 C471 C -0.06118 0.24378 0.34106
 C472 C -0.06052 0.26144 0.32565
 C473 C -0.04159 0.27545 0.32472
 C474 C -0.02345 0.27184 0.33921
 C475 C -0.12901 0.27426 0.27123
 C476 C -0.04305 0.24018 0.35555
 C477 C -0.07920 0.26509 0.31073
 C478 C -0.09488 0.26806 0.29826
 C479 C -0.11327 0.27144 0.28367
 C480 C -0.02416 0.25433 0.35485
 H481 H -0.07568 0.23274 0.34182
 H482 H -0.04083 0.28911 0.31279
 H483 H -0.00887 0.28275 0.33825
 H484 H -0.04384 0.22626 0.36711
 C485 C -0.06335 0.75520 0.15484
 C486 C -0.06335 0.73690 0.16953
 C487 C -0.04470 0.72256 0.17042
 C488 C -0.02599 0.72673 0.15697
 C489 C -0.13151 0.72425 0.22390
 C490 C -0.04462 0.75938 0.14139
 C491 C -0.08222 0.73316 0.18405
 C492 C -0.09788 0.73020 0.19645
 C493 C -0.11606 0.72692 0.21119
 C494 C -0.02567 0.74540 0.14268
 H495 H -0.07775 0.76633 0.15393
 H496 H -0.04454 0.70831 0.18167
 H497 H -0.01161 0.71560 0.15796
 H498 H -0.04503 0.77358 0.13015
 C499 C 0.45316 0.22248 0.67147
 C500 C 0.43535 0.23786 0.67102
 C501 C 0.43630 0.25645 0.65672
 C502 C 0.45512 0.25980 0.64314
 C503 C 0.36672 0.22637 0.72513
 C504 C 0.47195 0.22583 0.65791
 C505 C 0.41633 0.23474 0.68551
 C506 C 0.40056 0.23212 0.69786
 C507 C 0.38226 0.22903 0.71251
 C508 C 0.47320 0.24466 0.64385
 H509 H 0.45259 0.20801 0.68241
 H510 H 0.42258 0.26842 0.65618
 H511 H 0.45550 0.27430 0.63229
 H512 H 0.48564 0.21384 0.65853
 C513 C 0.54114 0.25569 0.68181
 C514 C 0.56136 0.26309 0.67242
 C515 C 0.56263 0.26683 0.64938
 C516 C 0.54384 0.26285 0.63577
 C517 C 0.63120 0.27524 0.72538
 C518 C 0.52239 0.25172 0.66822
 C519 C 0.58070 0.26677 0.68651
 C520 C 0.59674 0.26961 0.69858
 C521 C 0.61537 0.27272 0.71296
 C522 C 0.52369 0.25484 0.64502
 H523 H 0.53988 0.25298 0.69965
 H524 H 0.57810 0.27285 0.64195
 H525 H 0.54503 0.26633 0.61809
 H526 H 0.50701 0.24623 0.67604
 C527 C 0.06419 0.76596 0.14829
 C528 C 0.06197 0.76558 0.17157
 C529 C 0.04092 0.76137 0.18111
 C530 C 0.02223 0.75723 0.16748
 C531 C 0.13156 0.77712 0.22496
 C532 C 0.04547 0.76183 0.13464
 C533 C 0.08126 0.76916 0.18575
 C534 C 0.09725 0.77188 0.19791
 C535 C 0.11582 0.77480 0.21241
 C536 C 0.02446 0.75706 0.14416
 H537 H 0.08038 0.76930 0.14071
 H538 H 0.03897 0.76118 0.19910
 H539 H 0.00615 0.75416 0.17529
 H540 H 0.04743 0.76209 0.11667
 C541 C 0.34400 0.06316 0.25497
 C542 C 0.32914 0.06317 0.23677
 C543 C 0.32832 0.04460 0.22238
 C544 C 0.34204 0.02596 0.22640
 C545 C 0.27462 0.13151 0.22350
 C546 C 0.35772 0.04451 0.25900
 C547 C 0.31446 0.08204 0.23306
 C548 C 0.30200 0.09773 0.23003
 C549 C 0.28727 0.11598 0.22652
 C550 C 0.35653 0.02564 0.24494
 H551 H 0.34487 0.07750 0.26612
 H552 H 0.31695 0.04445 0.20820
 H553 H 0.34111 0.01165 0.21523
 H554 H 0.36909 0.04490 0.27311
 C555 C 0.84401 0.55729 0.72232
 C556 C 0.82933 0.56423 0.73922
 C557 C 0.82858 0.55240 0.75939
 C558 C 0.84224 0.53354 0.76254
 C559 C 0.77509 0.63281 0.72602
 C560 C 0.85767 0.53843 0.72546
 C561 C 0.81476 0.58322 0.73572
 C562 C 0.80238 0.59898 0.73274
 C563 C 0.78771 0.61728 0.72916
 C564 C 0.85660 0.52624 0.74547
 H565 H 0.84481 0.56640 0.70668
 H566 H 0.81735 0.55765 0.77262
 H567 H 0.84139 0.52448 0.77819
 H568 H 0.86893 0.53344 0.71221
 C569 C 0.81898 0.45803 0.75556
 C570 C 0.82898 0.43710 0.75945
 C571 C 0.85247 0.43528 0.76007
 C572 C 0.86588 0.45438 0.75705
 C573 C 0.77656 0.36704 0.77246
 C574 C 0.83237 0.47711 0.75256
 C575 C 0.81507 0.41760 0.76291
 C576 C 0.80314 0.40148 0.76589
 C577 C 0.78891 0.38282 0.76943
 C578 C 0.85590 0.47546 0.75361
 H579 H 0.80082 0.45961 0.75488
 H580 H 0.86040 0.41915 0.76297
 H581 H 0.88402 0.45274 0.75760
 H582 H 0.82423 0.49304 0.74941
 C583 C 0.35195 -0.06419 0.26503
 C584 C 0.32847 -0.06215 0.26482
 C585 C 0.31859 -0.04121 0.26066
 C586 C 0.33209 -0.02245 0.25645
 C587 C 0.27567 -0.13199 0.27746
 C588 C 0.36547 -0.04540 0.26084
 C589 C 0.31444 -0.08149 0.26862
 C590 C 0.30241 -0.09754 0.27158
 C591 C 0.28808 -0.11617 0.27483
 C592 C 0.35561 -0.02450 0.25618
 H593 H 0.35979 -0.08028 0.26834
 H594 H 0.30045 -0.03941 0.26061
 H595 H 0.32403 -0.00645 0.25347
 H596 H 0.38360 -0.04721 0.26102
 C597 C 0.18247 -0.04204 0.74221
 C598 C 0.17309 -0.06336 0.73870
 C599 C 0.14969 -0.06606 0.73878
 C600 C 0.13572 -0.04748 0.74221
 C601 C 0.22654 -0.13246 0.72507
 C602 C 0.16851 -0.02346 0.74564
 C603 C 0.18753 -0.08242 0.73503
 C604 C 0.19974 -0.09827 0.73191
 C605 C 0.21415 -0.11674 0.72823
 C606 C 0.14502 -0.02601 0.74548
 H607 H 0.20056 -0.03978 0.74230
 H608 H 0.14224 -0.08250 0.73619
 H609 H 0.11765 -0.04986 0.74235
 H610 H 0.17620 -0.00722 0.74845
 C611 C 0.68215 0.45792 0.24367
 C612 C 0.67282 0.43659 0.24012
 C613 C 0.64942 0.43384 0.24021
 C614 C 0.63542 0.45238 0.24367
 C615 C 0.72641 0.36774 0.22596
 C616 C 0.66815 0.47647 0.24713
 C617 C 0.68729 0.41759 0.23634
 C618 C 0.69953 0.40179 0.23311
 C619 C 0.71399 0.38339 0.22927
 C620 C 0.64467 0.47387 0.24695
 H621 H 0.70024 0.46023 0.24374
 H622 H 0.64201 0.41739 0.23758
 H623 H 0.61735 0.44997 0.24379
 H624 H 0.67580 0.49273 0.24995
 C625 C 0.65836 0.55307 0.28039
 C626 C 0.67049 0.56211 0.26251
 C627 C 0.66881 0.55226 0.24131
 C628 C 0.65518 0.53335 0.23805
 C629 C 0.72440 0.63122 0.27516
 C630 C 0.64474 0.53415 0.27714
 C631 C 0.68499 0.58120 0.26599
 C632 C 0.69729 0.59707 0.26890
 C633 C 0.71186 0.61553 0.27229
 C634 C 0.64316 0.52414 0.25596
 H635 H 0.65959 0.56053 0.29688
 H636 H 0.67815 0.55908 0.22736
 H637 H 0.65418 0.52579 0.22161
 H638 H 0.63574 0.52725 0.29123
 C639 C 0.16928 0.05244 0.74021
 C640 C 0.17096 0.06219 0.76145
 C641 C 0.15883 0.05306 0.77929
 C642 C 0.14519 0.03416 0.77593
 C643 C 0.22454 0.13150 0.77455
 C644 C 0.15565 0.03356 0.73684
 C645 C 0.18543 0.08130 0.76503
 C646 C 0.19767 0.09720 0.76803
 C647 C 0.21212 0.11573 0.77155
 C648 C 0.14361 0.02426 0.75470
 H649 H 0.17862 0.05934 0.72629
 H650 H 0.16004 0.06043 0.79580
 H651 H 0.13618 0.02719 0.78998
 H652 H 0.15464 0.02609 0.72036
 C653 C 0.22264 0.34670 0.05574
 C654 C 0.23782 0.32931 0.06022
 C655 C 0.25647 0.32617 0.04636
 C656 C 0.26002 0.34049 0.02821
 C657 C 0.22425 0.27519 0.12828
 C658 C 0.22619 0.36103 0.03760
 C659 C 0.23409 0.31454 0.07886
 C660 C 0.23096 0.30217 0.09447
 C661 C 0.22730 0.28765 0.11272
 C662 C 0.24511 0.35826 0.02388
 H663 H 0.20799 0.34913 0.06620
 H664 H 0.26817 0.31257 0.04948
 H665 H 0.27419 0.33738 0.01735
 H666 H 0.21399 0.37406 0.03438
 C667 C 0.72320 0.84685 0.55653
 C668 C 0.73841 0.82965 0.56161
 C669 C 0.75746 0.82654 0.54829
 C670 C 0.76115 0.84041 0.52984
 C671 C 0.72455 0.77599 0.62997
 C672 C 0.72689 0.86073 0.53807
 C673 C 0.73451 0.81517 0.58044
 C674 C 0.73129 0.80293 0.59613
 C675 C 0.72761 0.78845 0.61442
 C676 C 0.74576 0.85743 0.52439
 H677 H 0.70849 0.84955 0.56684
 H678 H 0.76945 0.81339 0.55216
 H679 H 0.77609 0.83779 0.51998
 H680 H 0.71504 0.87409 0.53474
 C681 C 0.74422 0.84254 0.43851
 C682 C 0.76411 0.83002 0.43728
 C683 C 0.78015 0.83177 0.45436
 C684 C 0.77614 0.84568 0.47277
 C685 C 0.77715 0.77538 0.36938
 C686 C 0.74021 0.85644 0.45691
 C687 C 0.76794 0.81528 0.41860
 C688 C 0.77099 0.80279 0.40302
 C689 C 0.77439 0.78805 0.38485
 C690 C 0.75593 0.85776 0.47443
 H691 H 0.73178 0.84150 0.42526
 H692 H 0.79574 0.82240 0.45346
 H693 H 0.78898 0.84714 0.48553
 H694 H 0.72481 0.86601 0.45728
 C695 C 0.24343 0.32651 -0.04796
 C696 C 0.26251 0.32928 -0.06134
 C697 C 0.27789 0.34650 -0.05653
 C698 C 0.27421 0.36089 -0.03842
 C699 C 0.27589 0.27497 -0.12948
 C700 C 0.23975 0.34088 -0.02984
 C701 C 0.26630 0.31447 -0.07999
 C702 C 0.26941 0.30204 -0.09560
 C703 C 0.27296 0.28746 -0.11388
 C704 C 0.25510 0.35817 -0.02500
 H705 H 0.23141 0.31325 -0.05152
 H706 H 0.29271 0.34880 -0.06677
 H707 H 0.28626 0.37412 -0.03502
 H708 H 0.22494 0.33853 -0.01961
 C709 C 0.72238 0.15376 -0.05791
 C710 C 0.73942 0.16849 -0.06472
 C711 C 0.75973 0.16937 -0.05281
 C712 C 0.76285 0.15580 -0.03402
 C713 C 0.72662 0.22243 -0.13317
 C714 C 0.72550 0.14018 -0.03910
 C715 C 0.73595 0.18297 -0.08366
 C716 C 0.73301 0.19528 -0.09938
 C717 C 0.72956 0.20986 -0.11766
 C718 C 0.74564 0.14140 -0.02684
 H719 H 0.70664 0.15285 -0.06707
 H720 H 0.77307 0.18064 -0.05796
 H721 H 0.77860 0.15677 -0.02489
 H722 H 0.71215 0.12889 -0.03422
 C723 C 0.22451 0.67240 0.45682
 C724 C 0.23708 0.66933 0.43734
 C725 C 0.25311 0.65215 0.43634
 C726 C 0.25672 0.63825 0.45482
 C727 C 0.22471 0.72348 0.36900
 C728 C 0.22812 0.65851 0.47529
 C729 C 0.23359 0.68390 0.41847
 C730 C 0.23072 0.69625 0.40277
 C731 C 0.22743 0.71087 0.38451
 C732 C 0.24446 0.64151 0.47457
 H733 H 0.21193 0.68555 0.45775
 H734 H 0.26281 0.64949 0.42128
 H735 H 0.26899 0.62492 0.45348
 H736 H 0.21805 0.66110 0.49004
 C737 C 0.27845 0.65672 0.55351
 C738 C 0.26044 0.66902 0.56221
 C739 C 0.23908 0.66708 0.55245
 C740 C 0.23586 0.65317 0.53386
 C741 C 0.27358 0.72336 0.63046
 C742 C 0.27523 0.64280 0.53492
 C743 C 0.26390 0.68370 0.58104
 C744 C 0.26689 0.69612 0.59671
 C745 C 0.27047 0.71077 0.61495
 C746 C 0.25399 0.64126 0.52466
 H747 H 0.29501 0.65791 0.56105
 H748 H 0.22494 0.67630 0.55920
 H749 H 0.21912 0.65157 0.52687
 H750 H 0.28941 0.63340 0.52872
 C751 C 0.75566 0.17942 0.04083
 C752 C 0.75943 0.16955 0.06172
 C753 C 0.75995 0.14610 0.06366
 C754 C 0.75696 0.13259 0.04473
 C755 C 0.77283 0.22219 0.13120
 C756 C 0.75268 0.16593 0.02191
 C757 C 0.76293 0.18356 0.08104
 C758 C 0.76598 0.19554 0.09703
 C759 C 0.76965 0.20982 0.11554
 C760 C 0.75364 0.14243 0.02369
 H761 H 0.75507 0.19755 0.03916
 H762 H 0.76277 0.13827 0.07975
 H763 H 0.75744 0.11447 0.04645
 H764 H 0.74963 0.17397 0.00602
 C765 C 0.49197 0.31471 0.60393
 C766 C 0.48886 0.31200 0.58088
 C767 C 0.48885 0.29040 0.57156
 C768 C 0.49188 0.27159 0.58519
 C769 C 0.47666 0.38109 0.52741
 C770 C 0.49502 0.29588 0.61759
 C771 C 0.48558 0.33127 0.56672
 C772 C 0.48278 0.34717 0.55456
 C773 C 0.47948 0.36556 0.54003
 C774 C 0.49497 0.27422 0.60828
 H775 H 0.49200 0.33134 0.61134
 H776 H 0.48641 0.28809 0.55376
 H777 H 0.49161 0.25506 0.57763
 H778 H 0.49735 0.29820 0.63539
 C779 C -0.00588 0.79295 0.07065
 C780 C -0.00999 0.81398 0.08032
 C781 C -0.01071 0.81610 0.10361
 C782 C -0.00756 0.79720 0.11714
 C783 C -0.02278 0.88306 0.02703
 C784 C -0.00277 0.77407 0.08416
 C785 C -0.01351 0.83327 0.06626
 C786 C -0.01648 0.84918 0.05416
 C787 C -0.01992 0.86755 0.03966
 C788 C -0.00390 0.77601 0.10748
 H789 H -0.00512 0.79114 0.05266
 H790 H -0.01377 0.83231 0.11129
 H791 H -0.00819 0.79906 0.13512
 H792 H 0.00056 0.75807 0.07626
 C793 C -0.00947 0.69889 0.08090
 C794 C 0.01092 0.68716 0.08178
 C795 C 0.02795 0.69425 0.09642
 C796 C 0.02472 0.71320 0.10989
 C797 C 0.02359 0.61876 0.02751
 C798 C -0.01270 0.71782 0.09435
 C799 C 0.01450 0.66814 0.06735
 C800 C 0.01744 0.65240 0.05500
 C801 C 0.02080 0.63418 0.04028
 C802 C 0.00450 0.72530 0.10866
 H803 H -0.02279 0.69351 0.06969
 H804 H 0.04375 0.68522 0.09733
 H805 H 0.03806 0.71831 0.12112
 H806 H -0.02852 0.72681 0.09339
 C807 C 0.52766 0.20390 0.58233
 C808 C 0.51135 0.18702 0.58043
 C809 C 0.49138 0.18864 0.59264
 C810 C 0.48772 0.20709 0.60667
 C811 C 0.52409 0.11914 0.52547
 C812 C 0.52402 0.22234 0.59635
 C813 C 0.51490 0.16831 0.56558
 C814 C 0.51783 0.15274 0.55302
 C815 C 0.52123 0.13459 0.53819
 C816 C 0.50408 0.22404 0.60875
 H817 H 0.54311 0.20293 0.57281
 H818 H 0.47853 0.17578 0.59113
 H819 H 0.47191 0.20819 0.61547
 H820 H 0.53668 0.23534 0.59719
 C821 C -0.02578 0.20825 0.42250
 C822 C -0.01188 0.18928 0.42169
 C823 C 0.00585 0.18842 0.40636
 C824 C 0.00961 0.20641 0.39184
 C825 C -0.02524 0.12170 0.47667
 C826 C -0.02201 0.22624 0.40799
 C827 C -0.01567 0.17079 0.43669
 C828 C -0.01877 0.15530 0.44927
 C829 C -0.02232 0.13717 0.46403
 C830 C -0.00444 0.22535 0.39244
 H831 H -0.03947 0.20915 0.43436
 H832 H 0.01680 0.17389 0.40570
 H833 H 0.02356 0.20549 0.38034
 H834 H -0.03284 0.24085 0.40887
 C835 C 0.47153 0.69617 0.90778
 C836 C 0.48829 0.69004 0.92309
 C837 C 0.50852 0.70211 0.92390
 C838 C 0.51200 0.72017 0.90941
 C839 C 0.47548 0.62209 0.97776
 C840 C 0.47501 0.71423 0.89327
 C841 C 0.48470 0.67144 0.93802
 C842 C 0.48174 0.65587 0.95053
 C843 C 0.47834 0.63765 0.96521
 C844 C 0.49537 0.72620 0.89386
 H845 H 0.45575 0.68704 0.90710
 H846 H 0.52157 0.69759 0.93575
 H847 H 0.52770 0.72941 0.91029
 H848 H 0.46173 0.71883 0.88178
 C849 C 0.49244 0.79929 0.92373
 C850 C 0.51268 0.81135 0.92296
 C851 C 0.52937 0.80512 0.90771
 C852 C 0.52582 0.78698 0.89323
 C853 C 0.52536 0.87967 0.97753
 C854 C 0.48889 0.78115 0.90927
 C855 C 0.51632 0.83003 0.93786
 C856 C 0.51927 0.84568 0.95035
 C857 C 0.52262 0.86401 0.96500
 C858 C 0.50545 0.77502 0.89379
 H859 H 0.47944 0.80389 0.93553
 H860 H 0.54516 0.81424 0.90707
 H861 H 0.53905 0.78231 0.88180
 H862 H 0.47319 0.77192 0.91013
 C863 C -0.00534 0.31125 0.40604
 C864 C 0.01235 0.31057 0.42154
 C865 C 0.02634 0.29167 0.42252
 C866 C 0.02269 0.27357 0.40803
 C867 C 0.02516 0.37848 0.47656
 C868 C -0.00899 0.29314 0.39154
 C869 C 0.01600 0.32916 0.43654
 C870 C 0.01899 0.34473 0.44913
 C871 C 0.02237 0.36295 0.46390
 C872 C 0.00513 0.27428 0.39232
 H873 H -0.01637 0.32572 0.40524
 H874 H 0.04001 0.29090 0.43452
 H875 H 0.03357 0.25901 0.40906
 H876 H -0.02294 0.29392 0.37993
 C877 C 0.29016 0.56706 0.49194
 C878 C 0.31123 0.57639 0.48714
 C879 C 0.31363 0.59977 0.48579
 C880 C 0.29508 0.61373 0.48939
 C881 C 0.38059 0.52292 0.47489
 C882 C 0.27161 0.58101 0.49555
 C883 C 0.33033 0.56196 0.48367
 C884 C 0.34624 0.54974 0.48086
 C885 C 0.36479 0.53531 0.47763
 C886 C 0.27397 0.60447 0.49451
 H887 H 0.28808 0.54898 0.49292
 H888 H 0.32983 0.60719 0.48198
 H889 H 0.29718 0.63178 0.48819
 H890 H 0.25553 0.57334 0.49912
 C891 C 0.79489 0.07881 -0.02878
 C892 C 0.81338 0.07972 -0.01424
 C893 C 0.81321 0.09463 0.00388
 C894 C 0.79447 0.10828 0.00769
 C895 C 0.88212 0.02538 -0.02610
 C896 C 0.77616 0.09247 -0.02498
 C897 C 0.83232 0.06507 -0.01766
 C898 C 0.84808 0.05263 -0.02038
 C899 C 0.86645 0.03795 -0.02348
 C900 C 0.77567 0.10699 -0.00650
 H901 H 0.79487 0.06740 -0.04290
 H902 H 0.82749 0.09558 0.01515
 H903 H 0.79475 0.11968 0.02176
 H904 H 0.76190 0.09145 -0.03625
 C905 C 0.68573 0.10167 0.01312
 C906 C 0.68799 0.07824 0.01303
 C907 C 0.70904 0.06856 0.00897
 C908 C 0.72771 0.08220 0.00478
 C909 C 0.61855 0.02503 0.02643
 C910 C 0.70442 0.11534 0.00894
 C911 C 0.66877 0.06404 0.01692
 C912 C 0.65283 0.05190 0.02002
 C913 C 0.63430 0.03747 0.02352
 C914 C 0.72545 0.10568 0.00442
 H915 H 0.66954 0.10936 0.01635
 H916 H 0.71103 0.05045 0.00903
 H917 H 0.74380 0.07429 0.00192
 H918 H 0.70244 0.13344 0.00907
 C919 C 0.20355 0.58017 0.52891
 C920 C 0.18649 0.57827 0.51281
 C921 C 0.18808 0.59034 0.49281
 C922 C 0.20673 0.60410 0.48883
 C923 C 0.11805 0.52378 0.52622
 C924 C 0.22219 0.59394 0.52494
 C925 C 0.16762 0.56359 0.51661
 C926 C 0.15191 0.55113 0.51969
 C927 C 0.13362 0.53642 0.52323
 C928 C 0.22394 0.60588 0.50484
 H929 H 0.20253 0.57088 0.54442
 H930 H 0.17500 0.58895 0.48022
 H931 H 0.20779 0.61302 0.47314
 H932 H 0.23537 0.59508 0.53744
 C933 C 0.19410 0.40744 -0.02950
 C934 C 0.18792 0.42334 -0.01338
 C935 C 0.20035 0.42518 0.00644
 C936 C 0.21882 0.41116 0.01015
 C937 C 0.11882 0.47703 -0.02619
 C938 C 0.21259 0.39339 -0.02579
 C939 C 0.16896 0.43788 -0.01716
 C940 C 0.15311 0.45016 -0.02014
 C941 C 0.13460 0.46462 -0.02346
 C942 C 0.22499 0.39506 -0.00586
 H943 H 0.18467 0.40596 -0.04496
 H944 H 0.19580 0.43749 0.01899
 H945 H 0.22838 0.41292 0.02549
 H946 H 0.21717 0.38139 -0.03856
 C947 C 0.68581 0.89906 0.48855
 C948 C 0.68846 0.92245 0.48860
 C949 C 0.70981 0.93183 0.49201
 C950 C 0.72847 0.91791 0.49526
 C951 C 0.61907 0.97579 0.47590
 C952 C 0.70446 0.88513 0.49181
 C953 C 0.66932 0.93685 0.48518
 C954 C 0.65340 0.94904 0.48229
 C955 C 0.63485 0.96343 0.47886
 C956 C 0.72596 0.89444 0.49502
 H957 H 0.66935 0.89160 0.48603
 H958 H 0.71204 0.94992 0.49219
 H959 H 0.74473 0.92560 0.49803
 H960 H 0.70212 0.86706 0.49189
 C961 C 0.80507 0.90863 0.52844
 C962 C 0.81399 0.92083 0.51055
 C963 C 0.80418 0.91898 0.48932
 C964 C 0.78542 0.90515 0.48606
 C965 C 0.88215 0.97580 0.52396
 C966 C 0.78629 0.89480 0.52519
 C967 C 0.83286 0.93562 0.51407
 C968 C 0.84851 0.94819 0.51711
 C969 C 0.86670 0.96304 0.52075
 C970 C 0.77630 0.89310 0.50399
 H971 H 0.81249 0.90998 0.54495
 H972 H 0.81091 0.92838 0.47536
 H973 H 0.77785 0.90406 0.46960
 H974 H 0.77945 0.88579 0.53930
 C975 C 0.31381 0.40033 0.01623
 C976 C 0.31265 0.42324 0.01104
 C977 C 0.29277 0.43217 0.00219
 C978 C 0.27408 0.41831 -0.00131
 C979 C 0.38199 0.47669 0.02461
 C980 C 0.29511 0.38645 0.01273
 C981 C 0.33182 0.43761 0.01473
 C982 C 0.34774 0.44981 0.01782
 C983 C 0.36626 0.46425 0.02146
 C984 C 0.27500 0.39537 0.00416
 H985 H 0.32917 0.39320 0.02296
 H986 H 0.29172 0.44984 -0.00207
 H987 H 0.25906 0.42559 -0.00852
 H988 H 0.29649 0.36882 0.01670
 C989 C 0.59665 0.47099 0.30824
 C990 C 0.57951 0.48629 0.31326
 C991 C 0.57652 0.50536 0.29993
 C992 C 0.59046 0.50901 0.28154
 C993 C 0.52572 0.47301 0.38160
 C994 C 0.61060 0.47465 0.28984
 C995 C 0.56499 0.48248 0.33208
 C996 C 0.55271 0.47939 0.34776
 C997 C 0.53820 0.47589 0.36604
 C998 C 0.60745 0.49356 0.27617
 H999 H 0.59924 0.45627 0.31856
 H1000 H 0.56343 0.51741 0.30376
 H1001 H 0.58796 0.52398 0.27168
 H1002 H 0.62391 0.46275 0.28654
 C1003 C 0.09710 -0.02895 0.80683
 C1004 C 0.07992 -0.01370 0.81185
 C1005 C 0.07688 0.00536 0.79852
 C1006 C 0.09082 0.00905 0.78013
 C1007 C 0.02616 -0.02671 0.88025
 C1008 C 0.11105 -0.02526 0.78843
 C1009 C 0.06543 -0.01752 0.83068
 C1010 C 0.05315 -0.02056 0.84637
 C1011 C 0.03864 -0.02396 0.86467
 C1012 C 0.10785 -0.00635 0.77476
 H1013 H 0.09973 -0.04367 0.81715
 H1014 H 0.06375 0.01738 0.80234
 H1015 H 0.08827 0.02401 0.77026
 H1016 H 0.12439 -0.03712 0.78514
 C1017 C 0.08260 0.02862 0.70479
 C1018 C 0.08065 0.01262 0.68773
 C1019 C 0.09293 -0.00740 0.68900
 C1020 C 0.10681 -0.01158 0.70743
 C1021 C 0.02602 0.02666 0.61987
 C1022 C 0.09647 0.02443 0.72322
 C1023 C 0.06593 0.01666 0.66903
 C1024 C 0.05345 0.01991 0.65346
 C1025 C 0.03871 0.02360 0.63531
 C1026 C 0.10833 0.00410 0.72492
 H1027 H 0.07339 0.04430 0.70386
 H1028 H 0.09173 -0.01980 0.67577
 H1029 H 0.11619 -0.02709 0.70784
 H1030 H 0.09808 0.03722 0.73599
 C1031 C 0.59288 0.49227 0.19021
 C1032 C 0.58049 0.51222 0.18888
 C1033 C 0.58222 0.52820 0.20598
 C1034 C 0.59599 0.52407 0.22449
 C1035 C 0.52636 0.52620 0.12060
 C1036 C 0.60665 0.48815 0.20873
 C1037 C 0.56590 0.51621 0.17007
 C1038 C 0.55354 0.51945 0.15440
 C1039 C 0.53893 0.52313 0.13614
 C1040 C 0.60797 0.50382 0.22625
 H1041 H 0.59185 0.47988 0.17695
 H1042 H 0.57293 0.54384 0.20500
 H1043 H 0.59745 0.53687 0.23727
 H1044 H 0.61614 0.47270 0.20917
 C1045 C 0.40347 -0.02750 0.19385
 C1046 C 0.41812 -0.01043 0.18695
 C1047 C 0.41892 0.00991 0.19872
 C1048 C 0.40538 0.01304 0.21751
 C1049 C 0.47227 -0.02342 0.11884
 C1050 C 0.38992 -0.02438 0.21264
 C1051 C 0.43261 -0.01392 0.16806
 C1052 C 0.44496 -0.01690 0.15240
 C1053 C 0.45961 -0.02041 0.13424
 C1054 C 0.39108 -0.00422 0.22480
 H1055 H 0.40263 -0.04327 0.18479
 H1056 H 0.43014 0.02327 0.19350
 H1057 H 0.40629 0.02881 0.22654
 H1058 H 0.37870 -0.03776 0.21761
 C1059 C 0.89632 0.48578 0.68619
 C1060 C 0.91979 0.48632 0.68837
 C1061 C 0.92957 0.49077 0.70922
 C1062 C 0.91597 0.49494 0.72775
 C1063 C 0.97296 0.47334 0.61949
 C1064 C 0.88271 0.48994 0.70475
 C1065 C 0.93393 0.48250 0.66927
 C1066 C 0.94603 0.47949 0.65344
 C1067 C 0.96047 0.47612 0.63507
 C1068 C 0.89245 0.49488 0.72557
 H1069 H 0.88857 0.48224 0.67016
 H1070 H 0.94770 0.49107 0.71113
 H1071 H 0.92395 0.49814 0.74369
 H1072 H 0.86458 0.48951 0.70283
 C1073 C 0.90369 0.49650 0.81277
 C1074 C 0.91838 0.51493 0.81289
 C1075 C 0.91914 0.52935 0.79445
 C1076 C 0.90553 0.52513 0.77582
 C1077 C 0.97290 0.52782 0.88114
 C1078 C 0.89009 0.49227 0.79412
 C1079 C 0.93302 0.51876 0.83173
 C1080 C 0.94546 0.52177 0.84739
 C1081 C 0.96021 0.52510 0.86562
 C1082 C 0.89123 0.50635 0.77538
 H1083 H 0.90288 0.48532 0.82701
 H1084 H 0.93038 0.54370 0.79439
 H1085 H 0.90641 0.53633 0.76160
 H1086 H 0.87885 0.47798 0.79443
 C1087 C 0.39607 0.01039 0.31518
 C1088 C 0.41954 0.00985 0.31320
 C1089 C 0.42935 0.00604 0.29232
 C1090 C 0.41578 0.00302 0.27344
 C1091 C 0.47253 0.02296 0.38258
 C1092 C 0.38249 0.00735 0.29628
 C1093 C 0.43363 0.01334 0.33250
 C1094 C 0.44569 0.01633 0.34846
 C1095 C 0.46007 0.01990 0.36694
 C1096 C 0.39226 0.00397 0.27525
 H1097 H 0.38829 0.01323 0.33127
 H1098 H 0.44749 0.00543 0.29063
 H1099 H 0.42377 -0.00009 0.25755
 H1100 H 0.36435 0.00781 0.29804
   
