data_POSCAR
  _audit_creation_date              2014-09-24
  _audit_creation_method            'ToBaCCo'
  _symmetry_space_group_name_H-M    'P1'
  _symmetry_Int_Tables_number       1
  _symmetry_cell_setting            triclinic
  loop_
  _symmetry_equiv_pos_as_xyz
 x,y,z
_cell_length_a 53.9760
_cell_length_b 53.4518
_cell_length_c 41.6617
_cell_angle_alpha 91.515000
_cell_angle_beta 89.702000
_cell_angle_gamma 90.635700
loop_
  _atom_site_label
  _atom_site_type_symbol
  _atom_site_fract_x
  _atom_site_fract_y
  _atom_site_fract_z
C1 C 0.27272 0.27451 0.23775
 C2 C 0.25280 0.26259 0.25307
 C3 C 0.23297 0.27685 0.26502
 C4 C 0.23280 0.30293 0.26167
 C5 C 0.25249 0.31446 0.24525
 C6 C 0.27264 0.30050 0.23338
 C7 C 0.25253 0.23513 0.25620
 C8 C 0.27253 0.22306 0.27032
 C9 C 0.27247 0.19689 0.27298
 C10 C 0.25234 0.18289 0.26052
 C11 C 0.23238 0.19471 0.24592
 C12 C 0.23244 0.22090 0.24434
 H13 H 0.28814 0.26342 0.22903
 H14 H 0.21804 0.26761 0.27772
 H15 H 0.28810 0.23412 0.27923
 H16 H 0.21730 0.23021 0.23275
 H17 H 0.25183 0.33435 0.24114
 H18 H 0.25188 0.16274 0.26276
 C19 C 0.76740 0.77775 0.23187
 C20 C 0.74788 0.76533 0.24723
 C21 C 0.72816 0.77909 0.26031
 C22 C 0.72749 0.80536 0.25833
 C23 C 0.74708 0.81734 0.24188
 C24 C 0.76737 0.80398 0.22870
 C25 C 0.74818 0.73781 0.25040
 C26 C 0.76905 0.72596 0.26271
 C27 C 0.76902 0.69991 0.26724
 C28 C 0.74779 0.68592 0.25808
 C29 C 0.72733 0.69737 0.24418
 C30 C 0.72744 0.72341 0.24111
 H31 H 0.78280 0.76668 0.22319
 H32 H 0.71416 0.76904 0.27363
 H33 H 0.78517 0.73725 0.26887
 H34 H 0.71173 0.73245 0.23042
 H35 H 0.74550 0.83700 0.23713
 H36 H 0.74679 0.66602 0.26202
 C37 C 0.77138 0.27514 0.73504
 C38 C 0.75171 0.26330 0.75080
 C39 C 0.73237 0.27761 0.76397
 C40 C 0.73232 0.30394 0.76166
 C41 C 0.75187 0.31523 0.74432
 C42 C 0.77151 0.30113 0.73121
 C43 C 0.75126 0.23577 0.75332
 C44 C 0.77121 0.22341 0.76702
 C45 C 0.77135 0.19705 0.76898
 C46 C 0.75101 0.18347 0.75573
 C47 C 0.73092 0.19569 0.74185
 C48 C 0.73110 0.22191 0.74123
 H49 H 0.78644 0.26392 0.72552
 H50 H 0.71824 0.26793 0.77749
 H51 H 0.78684 0.23463 0.77528
 H52 H 0.71566 0.23166 0.73096
 H53 H 0.75138 0.33499 0.73950
 H54 H 0.75022 0.16332 0.75684
 C55 C 0.26891 0.77269 0.74046
 C56 C 0.24902 0.76029 0.75523
 C57 C 0.22956 0.77417 0.76864
 C58 C 0.22966 0.80029 0.76720
 C59 C 0.24933 0.81253 0.75171
 C60 C 0.26940 0.79906 0.73804
 C61 C 0.24831 0.73268 0.75612
 C62 C 0.26802 0.71957 0.76928
 C63 C 0.26719 0.69334 0.77048
 C64 C 0.24670 0.68029 0.75738
 C65 C 0.22690 0.69314 0.74382
 C66 C 0.22776 0.71942 0.74375
 H67 H 0.28408 0.76142 0.73147
 H68 H 0.21425 0.76458 0.78017
 H69 H 0.28361 0.72989 0.77948
 H70 H 0.21250 0.72968 0.73387
 H71 H 0.24831 0.83261 0.74982
 H72 H 0.24652 0.66002 0.75704
 C73 C 0.03398 0.04016 0.01685
 H74 H 0.03550 0.04160 -0.00894
 C75 C 0.04898 0.05510 0.03688
 H76 H 0.06229 0.06771 0.02616
 C77 C 0.01523 0.02125 0.06181
 H78 H 0.00186 0.00822 0.07142
 C79 C 0.02973 0.03599 0.08277
 H80 H 0.02726 0.03416 0.10840
 N81 N 0.01788 0.02332 0.02951
 C82 C 0.01005 -0.03223 -0.04866
 H83 H -0.00981 -0.03253 -0.05208
 C84 C 0.02515 -0.04742 -0.06811
 H85 H 0.01674 -0.05899 -0.08687
 C86 C 0.04499 -0.01659 -0.02011
 H87 H 0.05267 -0.00502 -0.00091
 C88 C 0.06073 -0.03162 -0.03875
 H89 H 0.08036 -0.03134 -0.03352
 Zn90 Zn -0.00104 0.00337 0.00029
 N91 N 0.02018 -0.01682 -0.02565
 C92 C -0.01835 0.02490 -0.05752
 N93 N -0.01956 0.02544 -0.02488
 C94 C -0.03417 0.04211 -0.00871
 C95 C -0.04927 0.05827 -0.02539
 C96 C -0.03319 0.04072 -0.07519
 C97 C -0.01236 -0.03646 0.04048
 C98 C -0.02743 -0.05319 0.05711
 C99 C -0.06336 -0.03261 0.03632
 C100 C -0.04762 -0.01640 0.01996
 N101 N -0.02262 -0.01837 0.02261
 H102 H -0.00614 0.01204 -0.07000
 H103 H -0.03440 0.04250 0.01727
 H104 H -0.06090 0.07125 -0.01201
 H105 H -0.03259 0.03941 -0.10116
 H106 H 0.00758 -0.03788 0.04173
 H107 H -0.01888 -0.06760 0.07092
 H108 H -0.08319 -0.03028 0.03444
 H109 H -0.05548 -0.00229 0.00514
 C110 C 0.05093 -0.04715 -0.06339
 C111 C 0.04710 0.05304 0.07037
 C112 C -0.05334 -0.05134 0.05526
 C113 C -0.04921 0.05744 -0.05911
 C114 C 0.03248 0.53750 0.51234
 H115 H 0.03440 0.53928 0.48664
 C116 C 0.04691 0.55242 0.53304
 H117 H 0.06019 0.56537 0.52293
 C118 C 0.01321 0.51781 0.55639
 H119 H -0.00019 0.50452 0.56535
 C120 C 0.02720 0.53250 0.57802
 H121 H 0.02435 0.53035 0.60354
 N122 N 0.01633 0.52035 0.52421
 C123 C 0.01054 0.46913 0.44150
 H124 H -0.00912 0.46981 0.43670
 C125 C 0.02598 0.45470 0.42157
 H126 H 0.01808 0.44459 0.40115
 C127 C 0.04464 0.48170 0.47391
 H128 H 0.05177 0.49175 0.49478
 C129 C 0.06070 0.46742 0.45476
 H130 H 0.08009 0.46673 0.46119
 Zn131 Zn -0.00184 0.50105 0.49358
 N132 N 0.02010 0.48250 0.46684
 C133 C -0.01346 0.52877 0.43848
 N134 N -0.02008 0.52391 0.46923
 C135 C -0.03901 0.53631 0.48391
 C136 C -0.05343 0.55283 0.46684
 C137 C -0.02672 0.54602 0.42089
 C138 C -0.01207 0.46024 0.53230
 C139 C -0.02644 0.44270 0.54857
 C140 C -0.06309 0.46089 0.52632
 C141 C -0.04799 0.47777 0.51008
 N142 N -0.02300 0.47765 0.51402
 H143 H 0.00240 0.51963 0.42769
 H144 H -0.04333 0.53284 0.50879
 H145 H -0.06929 0.56097 0.47889
 H146 H -0.02044 0.54991 0.39685
 H147 H 0.00790 0.46011 0.53440
 H148 H -0.01724 0.42896 0.56278
 H149 H -0.08297 0.46216 0.52375
 H150 H -0.05641 0.49094 0.49442
 C151 C 0.05148 0.45373 0.42807
 C152 C 0.04446 0.55001 0.56641
 C153 C -0.05241 0.44308 0.54613
 C154 C -0.04749 0.55802 0.43469
 C155 C 0.53233 0.03551 0.51919
 H156 H 0.53318 0.03696 0.49335
 C157 C 0.54746 0.05080 0.53858
 H158 H 0.56020 0.06369 0.52732
 C159 C 0.51508 0.01627 0.56488
 H160 H 0.50222 0.00298 0.57502
 C161 C 0.52975 0.03136 0.58524
 H162 H 0.52791 0.02954 0.61096
 N163 N 0.51690 0.01835 0.53249
 C164 C 0.50806 -0.03731 0.45464
 H165 H 0.48811 -0.03808 0.45228
 C166 C 0.52292 -0.05207 0.43430
 H167 H 0.51424 -0.06390 0.41601
 C168 C 0.54353 -0.02072 0.48122
 H169 H 0.55155 -0.00893 0.49994
 C170 C 0.55904 -0.03516 0.46150
 H171 H 0.57886 -0.03422 0.46536
 Zn172 Zn 0.49763 -0.00179 0.50387
 N173 N 0.51855 -0.02167 0.47712
 C174 C 0.48016 0.02034 0.44664
 N175 N 0.47861 0.02024 0.47925
 C176 C 0.46364 0.03642 0.49568
 C177 C 0.44855 0.05276 0.47927
 C178 C 0.46548 0.03650 0.42924
 C179 C 0.48722 -0.04157 0.54464
 C180 C 0.47251 -0.05831 0.56179
 C181 C 0.43614 -0.03827 0.54144
 C182 C 0.45153 -0.02205 0.52455
 N183 N 0.47658 -0.02372 0.52676
 H184 H 0.49265 0.00785 0.43400
 H185 H 0.46318 0.03634 0.52165
 H186 H 0.43659 0.06535 0.49279
 H187 H 0.46649 0.03590 0.40327
 H188 H 0.50720 -0.04278 0.54554
 H189 H 0.48138 -0.07251 0.57563
 H190 H 0.41627 -0.03613 0.53991
 H191 H 0.44334 -0.00817 0.50967
 C192 C 0.54882 -0.05092 0.43741
 C193 C 0.54640 0.04880 0.57213
 C194 C 0.44656 -0.05673 0.56044
 C195 C 0.44917 0.05275 0.44558
 C196 C 0.53302 0.53975 0.01617
 H197 H 0.53512 0.54137 -0.00954
 C198 C 0.54697 0.55512 0.03693
 H199 H 0.56010 0.56824 0.02686
 C200 C 0.51382 0.51997 0.06018
 H201 H 0.50070 0.50639 0.06912
 C202 C 0.52723 0.53515 0.08184
 H203 H 0.52414 0.53311 0.10734
 N204 N 0.51722 0.52225 0.02802
 C205 C 0.51250 0.46576 -0.04944
 H206 H 0.49266 0.46446 -0.05283
 C207 C 0.52827 0.45088 -0.06837
 H208 H 0.52041 0.43843 -0.08663
 C209 C 0.54675 0.48371 -0.02157
 H210 H 0.55392 0.49608 -0.00286
 C211 C 0.56316 0.46917 -0.03986
 H212 H 0.58280 0.47061 -0.03493
 Zn213 Zn 0.49963 0.50166 -0.00186
 N214 N 0.52195 0.48208 -0.02697
 C215 C 0.48389 0.52255 -0.06054
 N216 N 0.48112 0.52299 -0.02806
 C217 C 0.46521 0.53910 -0.01311
 C218 C 0.45036 0.55470 -0.03101
 C219 C 0.46948 0.53792 -0.07939
 C220 C 0.48912 0.46104 0.03706
 C221 C 0.47452 0.44390 0.05367
 C222 C 0.43803 0.46452 0.03466
 C223 C 0.45332 0.48104 0.01807
 N224 N 0.47838 0.47928 0.01995
 H225 H 0.49721 0.51027 -0.07197
 H226 H 0.46370 0.53941 0.01281
 H227 H 0.43716 0.56667 -0.01863
 H228 H 0.47191 0.53723 -0.10520
 H229 H 0.50910 0.45983 0.03775
 H230 H 0.48352 0.42935 0.06675
 H231 H 0.41817 0.46685 0.03357
 H232 H 0.44505 0.49530 0.00389
 C233 C 0.55401 0.45261 -0.06382
 C234 C 0.54432 0.55286 0.07032
 C235 C 0.44856 0.44560 0.05284
 C236 C 0.45216 0.55403 -0.06468
 C237 C 0.17149 -0.15631 -0.18828
 C238 C 0.17891 -0.15194 -0.22010
 C239 C 0.19769 -0.16610 -0.23464
 C240 C 0.20927 -0.18512 -0.21783
 C241 C 0.20160 -0.18985 -0.18631
 C242 C 0.18302 -0.17553 -0.17163
 C243 C 0.15231 -0.14051 -0.17219
 C244 C 0.13546 -0.15087 -0.15022
 C245 C 0.11830 -0.13575 -0.13390
 C246 C 0.11739 -0.10993 -0.13933
 C247 C 0.13383 -0.09969 -0.16190
 C248 C 0.15114 -0.11476 -0.17799
 C249 C 0.09995 -0.09362 -0.12083
 C250 C 0.10726 -0.06939 -0.11058
 C251 C 0.09124 -0.05426 -0.09244
 C252 C 0.06755 -0.06303 -0.08373
 C253 C 0.06012 -0.08718 -0.09421
 C254 C 0.07609 -0.10225 -0.11262
 H255 H 0.17013 -0.13764 -0.23386
 H256 H 0.20306 -0.16233 -0.25914
 H257 H 0.21044 -0.20424 -0.17273
 H258 H 0.17815 -0.17913 -0.14693
 H259 H 0.13555 -0.17069 -0.14553
 H260 H 0.10613 -0.14426 -0.11646
 H261 H 0.13340 -0.07997 -0.16709
 H262 H 0.16398 -0.10605 -0.19444
 H263 H 0.12559 -0.06221 -0.11605
 H264 H 0.09745 -0.03563 -0.08527
 H265 H 0.04212 -0.09466 -0.08769
 H266 H 0.06971 -0.12068 -0.12045
 C267 C 0.17433 0.34752 0.30385
 C268 C 0.19893 0.35634 0.30385
 C269 C 0.21779 0.34187 0.29017
 C270 C 0.21249 0.31830 0.27587
 C271 C 0.18782 0.30952 0.27573
 C272 C 0.16895 0.32395 0.28971
 C273 C 0.15456 0.36280 0.31917
 C274 C 0.13707 0.35184 0.33971
 C275 C 0.11949 0.36659 0.35583
 C276 C 0.11891 0.39260 0.35157
 C277 C 0.13597 0.40339 0.33023
 C278 C 0.15365 0.38868 0.31433
 C279 C 0.10123 0.40855 0.37016
 C280 C 0.10874 0.43218 0.38239
 C281 C 0.09250 0.44693 0.40073
 C282 C 0.06837 0.43836 0.40751
 C283 C 0.06073 0.41484 0.39500
 C284 C 0.07697 0.40012 0.37651
 H285 H 0.20367 0.37424 0.31510
 H286 H 0.23663 0.34898 0.29137
 H287 H 0.18304 0.29162 0.26454
 H288 H 0.15009 0.31682 0.28914
 H289 H 0.13753 0.33198 0.34414
 H290 H 0.10686 0.35772 0.37241
 H291 H 0.13571 0.42326 0.32586
 H292 H 0.16666 0.39754 0.29822
 H293 H 0.12738 0.43913 0.37835
 H294 H 0.09887 0.46509 0.40959
 H295 H 0.04236 0.40757 0.40002
 H296 H 0.07049 0.38214 0.36716
 C297 C 0.66951 -0.15278 0.30369
 C298 C 0.69265 -0.14164 0.29767
 C299 C 0.71153 -0.15525 0.28258
 C300 C 0.70791 -0.18058 0.27282
 C301 C 0.68435 -0.19148 0.27867
 C302 C 0.66553 -0.17780 0.29392
 C303 C 0.64989 -0.13843 0.32085
 C304 C 0.63585 -0.14947 0.34532
 C305 C 0.61843 -0.13548 0.36282
 C306 C 0.61459 -0.11017 0.35616
 C307 C 0.62818 -0.09935 0.33109
 C308 C 0.64566 -0.11331 0.31370
 C309 C 0.59722 -0.09484 0.37605
 C310 C 0.60347 -0.07005 0.38504
 C311 C 0.58764 -0.05579 0.40460
 C312 C 0.56519 -0.06598 0.41578
 C313 C 0.55876 -0.09068 0.40651
 C314 C 0.57461 -0.10496 0.38688
 H315 H 0.69644 -0.12252 0.30556
 H316 H 0.72933 -0.14597 0.28022
 H317 H 0.67986 -0.21037 0.27062
 H318 H 0.64769 -0.18674 0.29773
 H319 H 0.63892 -0.16871 0.35162
 H320 H 0.60853 -0.14428 0.38225
 H321 H 0.62532 -0.08005 0.32493
 H322 H 0.65591 -0.10443 0.29461
 H323 H 0.62087 -0.06177 0.37748
 H324 H 0.59299 -0.03671 0.41091
 H325 H 0.54169 -0.09915 0.41493
 H326 H 0.56913 -0.12391 0.38011
 C327 C 0.67701 0.34785 -0.19045
 C328 C 0.67196 0.32293 -0.19991
 C329 C 0.68989 0.30858 -0.21601
 C330 C 0.71355 0.31871 -0.22320
 C331 C 0.71817 0.34399 -0.21400
 C332 C 0.70021 0.35824 -0.19800
 C333 C 0.65839 0.36289 -0.17225
 C334 C 0.66590 0.37911 -0.14693
 C335 C 0.64859 0.39355 -0.12997
 C336 C 0.62333 0.39207 -0.13780
 C337 C 0.61572 0.37566 -0.16285
 C338 C 0.63307 0.36125 -0.17993
 C339 C 0.60511 0.40771 -0.11984
 C340 C 0.58220 0.39762 -0.11015
 C341 C 0.56549 0.41221 -0.09223
 C342 C 0.57131 0.43722 -0.08372
 C343 C 0.59405 0.44739 -0.09397
 C344 C 0.61076 0.43280 -0.11176
 H345 H 0.65423 0.31434 -0.19443
 H346 H 0.68465 0.28974 -0.22345
 H347 H 0.73606 0.35278 -0.21759
 H348 H 0.70462 0.37750 -0.19135
 H349 H 0.68517 0.38042 -0.13992
 H350 H 0.65495 0.40567 -0.11039
 H351 H 0.59639 0.37433 -0.16961
 H352 H 0.62673 0.34916 -0.19954
 H353 H 0.57746 0.37826 -0.11575
 H354 H 0.54826 0.40373 -0.08438
 H355 H 0.59889 0.46673 -0.08841
 H356 H 0.62808 0.44121 -0.11940
 C357 C -0.17066 0.15923 -0.18351
 C358 C -0.18415 0.14710 -0.20816
 C359 C -0.20294 0.15953 -0.22404
 C360 C -0.20885 0.18462 -0.21584
 C361 C -0.19469 0.19678 -0.19145
 C362 C -0.17599 0.18425 -0.17555
 C363 C -0.15161 0.14557 -0.16552
 C364 C -0.15007 0.14842 -0.13195
 C365 C -0.13286 0.13485 -0.11476
 C366 C -0.11676 0.11816 -0.13074
 C367 C -0.11799 0.11561 -0.16436
 C368 C -0.13528 0.12913 -0.18156
 C369 C -0.09921 0.10299 -0.11226
 C370 C -0.07487 0.09910 -0.12330
 C371 C -0.05855 0.08450 -0.10599
 C372 C -0.06624 0.07343 -0.07731
 C373 C -0.09059 0.07737 -0.06631
 C374 C -0.10686 0.09199 -0.08355
 H375 H -0.18048 0.12777 -0.21483
 H376 H -0.21221 0.14941 -0.24340
 H377 H -0.19866 0.21566 -0.18319
 H378 H -0.16577 0.19416 -0.15677
 H379 H -0.16256 0.16074 -0.11887
 H380 H -0.13216 0.13742 -0.08891
 H381 H -0.10596 0.10274 -0.17730
 H382 H -0.13587 0.12673 -0.20743
 H383 H -0.06836 0.10759 -0.14515
 H384 H -0.03982 0.08210 -0.11488
 H385 H -0.09727 0.06871 -0.04466
 H386 H -0.12563 0.09426 -0.07473
 C387 C -0.16908 0.66255 0.31107
 C388 C -0.18499 0.64967 0.28946
 C389 C -0.20428 0.66195 0.27448
 C390 C -0.20917 0.68731 0.28164
 C391 C -0.19328 0.70025 0.30319
 C392 C -0.17329 0.68821 0.31714
 C393 C -0.14881 0.64909 0.32778
 C394 C -0.13989 0.65769 0.35786
 C395 C -0.12171 0.64456 0.37400
 C396 C -0.11254 0.62176 0.36137
 C397 C -0.12130 0.61330 0.33115
 C398 C -0.13865 0.62700 0.31437
 C399 C -0.09471 0.60649 0.37998
 C400 C -0.07898 0.58912 0.36440
 C401 C -0.06384 0.57349 0.38197
 C402 C -0.06303 0.57539 0.41574
 C403 C -0.07782 0.59365 0.43119
 C404 C -0.09376 0.60850 0.41373
 H405 H -0.18305 0.62987 0.28431
 H406 H -0.21537 0.65129 0.25732
 H407 H -0.19636 0.71963 0.30994
 H408 H -0.16129 0.69924 0.33280
 H409 H -0.14721 0.67431 0.36961
 H410 H -0.11511 0.65242 0.39658
 H411 H -0.11530 0.59575 0.32041
 H412 H -0.14414 0.61992 0.29090
 H413 H -0.07831 0.58727 0.33852
 H414 H -0.05322 0.55961 0.36874
 H415 H -0.07740 0.59660 0.45694
 H416 H -0.10567 0.62114 0.42712
 C417 C 0.33059 0.15867 0.32205
 C418 C 0.32028 0.14835 0.29368
 C419 C 0.30181 0.16097 0.27743
 C420 C 0.29312 0.18416 0.28922
 C421 C 0.30377 0.19472 0.31724
 C422 C 0.32231 0.18215 0.33342
 C423 C 0.34927 0.14459 0.34025
 C424 C 0.34853 0.14462 0.37398
 C425 C 0.36534 0.13055 0.39113
 C426 C 0.38326 0.11597 0.37499
 C427 C 0.38427 0.11624 0.34127
 C428 C 0.36750 0.13041 0.32411
 C429 C 0.40037 0.10009 0.39325
 C430 C 0.42525 0.09734 0.38370
 C431 C 0.44113 0.08203 0.40067
 C432 C 0.43252 0.06924 0.42765
 C433 C 0.40770 0.07206 0.43726
 C434 C 0.39181 0.08724 0.42023
 H435 H 0.32602 0.13020 0.28442
 H436 H 0.29426 0.15249 0.25566
 H437 H 0.29735 0.21244 0.32713
 H438 H 0.33011 0.19079 0.35494
 H439 H 0.33456 0.15509 0.38718
 H440 H 0.36428 0.13105 0.41710
 H441 H 0.39768 0.10506 0.32807
 H442 H 0.36878 0.13022 0.29816
 H443 H 0.43253 0.10725 0.36332
 H444 H 0.46025 0.08044 0.39295
 H445 H 0.40042 0.06209 0.45761
 H446 H 0.37265 0.08852 0.42785
 C447 C 0.32569 0.65283 -0.18462
 C448 C 0.30071 0.64639 -0.17935
 C449 C 0.28182 0.65953 -0.19397
 C450 C 0.28743 0.67948 -0.21413
 C451 C 0.31238 0.68610 -0.21927
 C452 C 0.33132 0.67288 -0.20470
 C453 C 0.34568 0.63867 -0.16907
 C454 C 0.36668 0.65110 -0.15637
 C455 C 0.38502 0.63777 -0.14077
 C456 C 0.38278 0.61173 -0.13753
 C457 C 0.36194 0.59929 -0.15062
 C458 C 0.34365 0.61258 -0.16624
 C459 C 0.40169 0.59758 -0.11987
 C460 C 0.40869 0.57351 -0.13060
 C461 C 0.42537 0.55960 -0.11300
 C462 C 0.43554 0.56944 -0.08429
 C463 C 0.42900 0.59375 -0.07395
 C464 C 0.41226 0.60765 -0.09152
 H465 H 0.29571 0.63140 -0.16350
 H466 H 0.26275 0.65431 -0.18908
 H467 H 0.31726 0.70123 -0.23497
 H468 H 0.35039 0.67811 -0.20955
 H469 H 0.36870 0.67121 -0.15791
 H470 H 0.40098 0.64787 -0.13126
 H471 H 0.35947 0.57930 -0.14822
 H472 H 0.32789 0.60239 -0.17615
 H473 H 0.40116 0.56535 -0.15257
 H474 H 0.42980 0.54085 -0.12149
 H475 H 0.43675 0.60202 -0.05217
 H476 H 0.40710 0.62603 -0.08242
 C477 C -0.17458 -0.15759 0.17939
 C478 C -0.18887 -0.14519 0.20295
 C479 C -0.20764 -0.15781 0.21933
 C480 C -0.21300 -0.18337 0.21254
 C481 C -0.19825 -0.19575 0.18901
 C482 C -0.17939 -0.18306 0.17279
 C483 C -0.15513 -0.14381 0.16134
 C484 C -0.15154 -0.14856 0.12830
 C485 C -0.13407 -0.13480 0.11104
 C486 C -0.11985 -0.11582 0.12634
 C487 C -0.12314 -0.11137 0.15949
 C488 C -0.14050 -0.12524 0.17679
 C489 C -0.10226 -0.10019 0.10766
 C490 C -0.07960 -0.09202 0.12100
 C491 C -0.06363 -0.07640 0.10393
 C492 C -0.06987 -0.06868 0.07302
 C493 C -0.09230 -0.07726 0.05945
 C494 C -0.10833 -0.09273 0.07659
 H495 H -0.18580 -0.12550 0.20854
 H496 H -0.21732 -0.14739 0.23802
 H497 H -0.20172 -0.21503 0.18177
 H498 H -0.16858 -0.19327 0.15494
 H499 H -0.16265 -0.16254 0.11555
 H500 H -0.13176 -0.13898 0.08564
 H501 H -0.11272 -0.09673 0.17201
 H502 H -0.14250 -0.12134 0.20230
 H503 H -0.07419 -0.09767 0.14470
 H504 H -0.04663 -0.06997 0.11524
 H505 H -0.09752 -0.07202 0.03551
 H506 H -0.12574 -0.09840 0.06570
 C507 C -0.17061 0.33815 0.67743
 C508 C -0.18156 0.34999 0.70444
 C509 C -0.19986 0.33780 0.72219
 C510 C -0.20814 0.31362 0.71308
 C511 C -0.19711 0.30170 0.68618
 C512 C -0.17846 0.31372 0.66877
 C513 C -0.15159 0.35151 0.65799
 C514 C -0.15028 0.34769 0.62449
 C515 C -0.13311 0.36094 0.60612
 C516 C -0.11705 0.37874 0.62064
 C517 C -0.11815 0.38233 0.65419
 C518 C -0.13500 0.36874 0.67262
 C519 C -0.09983 0.39407 0.60086
 C520 C -0.07669 0.40209 0.61292
 C521 C -0.06125 0.41772 0.59511
 C522 C -0.06831 0.42544 0.56448
 C523 C -0.09110 0.41675 0.55201
 C524 C -0.10673 0.40151 0.57006
 H525 H -0.17636 0.36891 0.71165
 H526 H -0.20755 0.34743 0.74308
 H527 H -0.20317 0.28322 0.67814
 H528 H -0.17022 0.30378 0.64850
 H529 H -0.16290 0.33485 0.61221
 H530 H -0.13254 0.35725 0.58046
 H531 H -0.10638 0.39607 0.66630
 H532 H -0.13505 0.37187 0.69839
 H533 H -0.07047 0.39640 0.63624
 H534 H -0.04402 0.42420 0.60576
 H535 H -0.09701 0.42180 0.52829
 H536 H -0.12450 0.39607 0.56003
 C537 C 0.32745 -0.16272 0.68838
 C538 C 0.32246 -0.18815 0.68178
 C539 C 0.30366 -0.20077 0.69821
 C540 C 0.28917 -0.18838 0.72202
 C541 C 0.29481 -0.16290 0.72893
 C542 C 0.31350 -0.15033 0.71231
 C543 C 0.34664 -0.14895 0.66983
 C544 C 0.36145 -0.13030 0.68481
 C545 C 0.37853 -0.11645 0.66702
 C546 C 0.38136 -0.12102 0.63381
 C547 C 0.36698 -0.14010 0.61898
 C548 C 0.34978 -0.15381 0.63673
 C549 C 0.39862 -0.10542 0.61458
 C550 C 0.39211 -0.09824 0.58354
 C551 C 0.40783 -0.08285 0.56584
 C552 C 0.43039 -0.07404 0.57879
 C553 C 0.43708 -0.08148 0.60967
 C554 C 0.42141 -0.09703 0.62730
 H555 H 0.33302 -0.19838 0.66369
 H556 H 0.30000 -0.21997 0.69081
 H557 H 0.28541 -0.15246 0.74782
 H558 H 0.31674 -0.13068 0.71796
 H559 H 0.35981 -0.12631 0.71034
 H560 H 0.38908 -0.10175 0.67919
 H561 H 0.36893 -0.14439 0.59356
 H562 H 0.33851 -0.16784 0.62431
 H563 H 0.37458 -0.10407 0.57310
 H564 H 0.40226 -0.07784 0.54194
 H565 H 0.45420 -0.07487 0.62052
 H566 H 0.42718 -0.10247 0.65095
 C567 C 0.33106 0.33817 0.18157
 C568 C 0.31971 0.34975 0.20846
 C569 C 0.30123 0.33732 0.22562
 C570 C 0.29331 0.31311 0.21609
 C571 C 0.30486 0.30138 0.18946
 C572 C 0.32360 0.31370 0.17253
 C573 C 0.35002 0.35191 0.16255
 C574 C 0.35118 0.34881 0.12895
 C575 C 0.36815 0.36261 0.11094
 C576 C 0.38419 0.38016 0.12599
 C577 C 0.38330 0.38296 0.15964
 C578 C 0.36657 0.36891 0.17768
 C579 C 0.40119 0.39602 0.10667
 C580 C 0.42463 0.40332 0.11844
 C581 C 0.44002 0.41922 0.10095
 C582 C 0.43253 0.42800 0.07102
 C583 C 0.40935 0.42020 0.05892
 C584 C 0.39382 0.40460 0.07659
 H585 H 0.32467 0.36868 0.21593
 H586 H 0.29310 0.34678 0.24634
 H587 H 0.29909 0.28286 0.18120
 H588 H 0.33218 0.30401 0.15229
 H589 H 0.33857 0.33614 0.11636
 H590 H 0.36859 0.35958 0.08516
 H591 H 0.39512 0.39647 0.17210
 H592 H 0.36656 0.37149 0.20353
 H593 H 0.43113 0.39679 0.14124
 H594 H 0.45760 0.42501 0.11127
 H595 H 0.40310 0.42617 0.03572
 H596 H 0.37580 0.39970 0.06688
 C597 C 0.17315 0.15163 0.20182
 C598 C 0.16793 0.17278 0.22142
 C599 C 0.18711 0.18670 0.23594
 C600 C 0.21189 0.17964 0.23141
 C601 C 0.21712 0.15836 0.21219
 C602 C 0.19800 0.14459 0.19746
 C603 C 0.15292 0.13726 0.18534
 C604 C 0.15426 0.11111 0.18134
 C605 C 0.13599 0.09775 0.16430
 C606 C 0.11578 0.11016 0.15103
 C607 C 0.11411 0.13624 0.15573
 C608 C 0.13249 0.14964 0.17258
 C609 C 0.09706 0.09604 0.13145
 C610 C 0.08705 0.10650 0.10381
 C611 C 0.07044 0.09279 0.08445
 C612 C 0.06357 0.06819 0.09206
 C613 C 0.07321 0.05790 0.12003
 C614 C 0.08967 0.07168 0.13953
 H615 H 0.14900 0.17851 0.22572
 H616 H 0.18256 0.20288 0.25093
 H617 H 0.23609 0.15274 0.20787
 H618 H 0.20277 0.12874 0.18202
 H619 H 0.16951 0.10092 0.19128
 H620 H 0.13806 0.07774 0.16086
 H621 H 0.09862 0.14636 0.14626
 H622 H 0.13097 0.16978 0.17490
 H623 H 0.09250 0.12508 0.09662
 H624 H 0.06308 0.10147 0.06340
 H625 H 0.06854 0.03893 0.12648
 H626 H 0.09671 0.06318 0.16089
 C627 C 0.16649 0.65160 0.69978
 C628 C 0.17533 0.67381 0.68634
 C629 C 0.19477 0.68735 0.70075
 C630 C 0.20567 0.67911 0.72912
 C631 C 0.19649 0.65707 0.74285
 C632 C 0.17720 0.64340 0.72824
 C633 C 0.14670 0.63667 0.68351
 C634 C 0.14896 0.61063 0.67938
 C635 C 0.13111 0.59673 0.66224
 C636 C 0.11048 0.60853 0.64907
 C637 C 0.10792 0.63452 0.65404
 C638 C 0.12589 0.64843 0.67093
 C639 C 0.09235 0.59398 0.62908
 C640 C 0.08223 0.60437 0.60148
 C641 C 0.06626 0.59033 0.58165
 C642 C 0.06013 0.56544 0.58873
 C643 C 0.06981 0.55519 0.61670
 C644 C 0.08568 0.56931 0.63667
 H645 H 0.16767 0.68035 0.66414
 H646 H 0.20165 0.70396 0.68917
 H647 H 0.20415 0.65042 0.76498
 H648 H 0.17053 0.62648 0.73930
 H649 H 0.16498 0.60113 0.68849
 H650 H 0.13392 0.57685 0.65844
 H651 H 0.09203 0.64414 0.64479
 H652 H 0.12353 0.66844 0.67417
 H653 H 0.08716 0.62319 0.59466
 H654 H 0.05882 0.59897 0.56061
 H655 H 0.06565 0.53602 0.62275
 H656 H 0.09285 0.56083 0.65798
 C657 C 0.67097 0.15276 0.69889
 C658 C 0.67977 0.17467 0.68465
 C659 C 0.69911 0.18859 0.69866
 C660 C 0.70994 0.18107 0.72745
 C661 C 0.70082 0.15931 0.74193
 C662 C 0.68164 0.14523 0.72770
 C663 C 0.65114 0.13752 0.68319
 C664 C 0.65345 0.11145 0.67971
 C665 C 0.63546 0.09723 0.66326
 C666 C 0.61462 0.10873 0.65019
 C667 C 0.61204 0.13478 0.65446
 C668 C 0.63017 0.14902 0.67063
 C669 C 0.59615 0.09377 0.63121
 C670 C 0.58528 0.10367 0.60377
 C671 C 0.56877 0.08930 0.58507
 C672 C 0.56286 0.06455 0.59312
 C673 C 0.57340 0.05477 0.62086
 C674 C 0.58977 0.06922 0.63972
 H675 H 0.67210 0.18068 0.66219
 H676 H 0.70595 0.20497 0.68653
 H677 H 0.70839 0.15324 0.76441
 H678 H 0.67499 0.12855 0.73934
 H679 H 0.66959 0.10217 0.68884
 H680 H 0.63829 0.07731 0.65997
 H681 H 0.59600 0.14420 0.64531
 H682 H 0.62778 0.16905 0.67338
 H683 H 0.58996 0.12237 0.59622
 H684 H 0.56070 0.09760 0.56420
 H685 H 0.56947 0.03572 0.62763
 H686 H 0.59750 0.06111 0.66095
 C687 C 0.66722 0.65333 0.20384
 C688 C 0.69198 0.64610 0.19917
 C689 C 0.71133 0.66015 0.21285
 C690 C 0.70647 0.68190 0.23134
 C691 C 0.68176 0.68913 0.23627
 C692 C 0.66233 0.67493 0.22277
 C693 C 0.64681 0.63875 0.18807
 C694 C 0.62640 0.65094 0.17495
 C695 C 0.60816 0.63734 0.15810
 C696 C 0.60996 0.61124 0.15374
 C697 C 0.63003 0.59900 0.16760
 C698 C 0.64813 0.61256 0.18468
 C699 C 0.59169 0.59692 0.13365
 C700 C 0.58453 0.57243 0.14145
 C701 C 0.56887 0.55832 0.12123
 C702 C 0.55976 0.56841 0.09283
 C703 C 0.56627 0.59318 0.08558
 C704 C 0.58213 0.60720 0.10564
 H705 H 0.69650 0.62993 0.18417
 H706 H 0.73021 0.65440 0.20817
 H707 H 0.67750 0.70571 0.25066
 H708 H 0.64347 0.68083 0.22723
 H709 H 0.62487 0.67110 0.17686
 H710 H 0.59275 0.64734 0.14820
 H711 H 0.63221 0.57898 0.16447
 H712 H 0.66335 0.60250 0.19493
 H713 H 0.59121 0.56404 0.16308
 H714 H 0.56446 0.53924 0.12746
 H715 H 0.55928 0.60172 0.06423
 H716 H 0.58743 0.62588 0.09865
   
