data_POSCAR
  _audit_creation_date              2014-09-24
  _audit_creation_method            'ToBaCCo'
  _symmetry_space_group_name_H-M    'P1'
  _symmetry_Int_Tables_number       1
  _symmetry_cell_setting            triclinic
  loop_
  _symmetry_equiv_pos_as_xyz
 x,y,z
_cell_length_a 30.1940
_cell_length_b 33.2258
_cell_length_c 27.6745
_cell_angle_alpha 89.862200
_cell_angle_beta 90.032100
_cell_angle_gamma 89.162700
loop_
  _atom_site_label
  _atom_site_type_symbol
  _atom_site_fract_x
  _atom_site_fract_y
  _atom_site_fract_z
O1 O 0.24507 0.28398 0.31171
 O2 O 0.20550 0.19883 0.23929
 O3 O 0.26630 0.20766 0.30544
 O4 O 0.18480 0.27432 0.24537
 O5 O 0.23497 0.28997 0.19066
 O6 O 0.31463 0.21925 0.24741
 O7 O 0.25358 0.21360 0.18201
 O8 O 0.29656 0.29555 0.25695
 Cu9 Cu 0.22059 0.23983 0.28128
 Cu10 Cu 0.27987 0.25614 0.21362
 C11 C 0.27804 0.30383 0.29699
 C12 C 0.22233 0.19216 0.19794
 C13 C 0.30416 0.20162 0.28641
 C14 C 0.19603 0.29350 0.20774
 O15 O 0.80472 0.28208 0.22670
 O16 O 0.75912 0.20790 0.31192
 O17 O 0.80120 0.20409 0.22997
 O18 O 0.76339 0.28645 0.30927
 O19 O 0.70083 0.29084 0.26812
 O20 O 0.73590 0.20396 0.19401
 O21 O 0.69403 0.21351 0.27600
 O22 O 0.74177 0.28213 0.18603
 Cu23 Cu 0.78851 0.24489 0.27342
 Cu24 Cu 0.71175 0.24780 0.22707
 C25 C 0.78111 0.29430 0.19141
 C26 C 0.71854 0.19860 0.30906
 C27 C 0.77492 0.18971 0.19881
 C28 C 0.72587 0.30303 0.30182
 O29 O 0.73834 0.78566 0.81365
 O30 O 0.69408 0.71423 0.72466
 O31 O 0.73451 0.70733 0.80815
 O32 O 0.69794 0.79225 0.73155
 O33 O 0.76262 0.79141 0.69432
 O34 O 0.79823 0.70497 0.76917
 O35 O 0.75819 0.71369 0.68629
 O36 O 0.80330 0.78290 0.77705
 Cu37 Cu 0.70976 0.74983 0.77331
 Cu38 Cu 0.78708 0.74805 0.72801
 C39 C 0.77840 0.79643 0.81046
 C40 C 0.71844 0.70221 0.68995
 C41 C 0.77262 0.69159 0.80174
 C42 C 0.72411 0.80647 0.70012
 O43 O 0.29536 0.79317 0.73223
 O44 O 0.24963 0.71225 0.80726
 O45 O 0.30895 0.71582 0.74078
 O46 O 0.23379 0.78910 0.79927
 O47 O 0.18304 0.77819 0.74354
 O48 O 0.25873 0.70609 0.68406
 O49 O 0.19840 0.70166 0.75185
 O50 O 0.24344 0.78352 0.67738
 Cu51 Cu 0.27707 0.75400 0.77541
 Cu52 Cu 0.21593 0.74118 0.70847
 C53 C 0.27727 0.80212 0.69208
 C54 C 0.21622 0.69321 0.79233
 C55 C 0.29649 0.69840 0.70250
 C56 C 0.19534 0.79571 0.78183
 C57 C 0.98102 -0.01796 0.01809
 C58 C 1.02602 -0.01894 0.02349
 C59 C 1.04881 0.00886 0.05703
 C60 C 1.05525 -0.04629 -0.00507
 C61 C 0.95732 -0.04948 -0.00970
 C62 C 0.95401 0.01549 0.03926
 C63 C 1.08243 0.03364 0.03956
 C64 C 1.10368 0.06038 0.07035
 C65 C 1.09219 0.06238 0.11964
 C66 C 1.05863 0.03735 0.13703
 C67 C 1.03731 0.01063 0.10612
 C68 C 1.05247 -0.04746 -0.05569
 C69 C 1.08193 -0.07147 -0.08235
 C70 C 1.11493 -0.09461 -0.05876
 C71 C 1.11790 -0.09293 -0.00821
 C72 C 1.08835 -0.06908 0.01838
 C73 C 0.96773 -0.09056 -0.00337
 C74 C 0.94770 -0.11962 -0.03212
 C75 C 0.91549 -0.10844 -0.06629
 C76 C 0.90352 -0.06757 -0.07120
 C77 C 0.92433 -0.03838 -0.04321
 C78 C 0.91805 0.00727 0.06970
 C79 C 0.89551 0.03868 0.09333
 C80 C 0.90873 0.07877 0.08679
 C81 C 0.94346 0.08695 0.05482
 C82 C 0.96532 0.05573 0.03057
 H83 H 1.09155 0.03287 0.00172
 H84 H 1.12821 0.07993 0.05488
 H85 H 1.04892 0.03843 0.17468
 H86 H 1.01173 -0.00857 0.12038
 H87 H 1.02806 -0.02913 -0.07461
 H88 H 1.07946 -0.07082 -0.12132
 H89 H 1.09144 -0.06824 0.05736
 H90 H 0.99200 -0.10012 0.02326
 H91 H 0.95731 -0.15094 -0.02763
 H92 H 0.87931 -0.05799 -0.09786
 H93 H 0.91553 -0.00698 -0.04867
 H94 H 0.90861 -0.02352 0.07665
 H95 H 0.86925 0.03139 0.11833
 H96 H 0.95411 0.11759 0.04910
 H97 H 0.99216 0.06287 0.00621
 H98 H 1.14322 -0.11015 0.01080
 C99 C 0.47746 0.50987 0.47614
 C100 C 0.52238 0.51355 0.47809
 C101 C 0.54369 0.54033 0.51407
 C102 C 0.55174 0.49044 0.44479
 C103 C 0.45568 0.47719 0.44839
 C104 C 0.44800 0.53972 0.50013
 C105 C 0.57627 0.56756 0.49965
 C106 C 0.59613 0.59281 0.53352
 C107 C 0.58393 0.59100 0.58260
 C108 C 0.55159 0.56353 0.59688
 C109 C 0.53212 0.53810 0.56315
 C110 C 0.54414 0.49138 0.39476
 C111 C 0.56806 0.46588 0.36407
 C112 C 0.60058 0.43942 0.38255
 C113 C 0.60970 0.43998 0.43251
 C114 C 0.58564 0.46552 0.46325
 C115 C 0.47093 0.43709 0.45182
 C116 C 0.45175 0.40703 0.42389
 C117 C 0.41564 0.41607 0.39374
 C118 C 0.39914 0.45579 0.39162
 C119 C 0.41910 0.48609 0.41857
 C120 C 0.41896 0.52760 0.53671
 C121 C 0.39070 0.55573 0.55872
 C122 C 0.39033 0.59612 0.54346
 C123 C 0.41860 0.60793 0.50601
 C124 C 0.44768 0.58003 0.48491
 H125 H 0.58579 0.56971 0.46201
 H126 H 0.62017 0.61425 0.52092
 H127 H 0.54164 0.56148 0.63440
 H128 H 0.50800 0.51657 0.57542
 H129 H 0.51855 0.51087 0.37973
 H130 H 0.56039 0.46615 0.32582
 H131 H 0.59198 0.46439 0.50176
 H132 H 0.49804 0.42907 0.47575
 H133 H 0.46483 0.37655 0.42617
 H134 H 0.37170 0.46366 0.36805
 H135 H 0.40650 0.51666 0.41539
 H136 H 0.41851 0.49648 0.54839
 H137 H 0.36851 0.54578 0.58691
 H138 H 0.41849 0.63885 0.49352
 H139 H 0.46950 0.58966 0.45619
 H140 H 0.63384 0.41964 0.44850
 C141 C 0.02078 0.49682 -0.01084
 C142 C -0.02400 0.49120 -0.01021
 C143 C -0.04567 0.46474 0.02589
 C144 C -0.05347 0.51220 -0.04555
 C145 C 0.04097 0.52788 -0.04259
 C146 C 0.05203 0.47194 0.01890
 C147 C -0.07584 0.43573 0.01048
 C148 C -0.09584 0.41012 0.04383
 C149 C -0.08638 0.41336 0.09349
 C150 C -0.05646 0.44265 0.10884
 C151 C -0.03668 0.46842 0.07548
 C152 C -0.04556 0.50903 -0.09538
 C153 C -0.06916 0.53329 -0.12797
 C154 C -0.10177 0.56052 -0.11155
 C155 C -0.11140 0.56196 -0.06176
 C156 C -0.08758 0.53780 -0.02914
 C157 C 0.02543 0.56798 -0.04217
 C158 C 0.04320 0.59635 -0.07374
 C159 C 0.07810 0.58561 -0.10473
 C160 C 0.09463 0.54585 -0.10417
 C161 C 0.07610 0.51723 -0.07346
 C162 C 0.08690 0.49053 0.04358
 C163 C 0.11803 0.46752 0.06931
 C164 C 0.11443 0.42557 0.07175
 C165 C 0.07971 0.40681 0.04701
 C166 C 0.04918 0.42975 0.02028
 H167 H -0.08319 0.43233 -0.02759
 H168 H -0.11773 0.38724 0.03036
 H169 H -0.04853 0.44572 0.14683
 H170 H -0.01415 0.49110 0.08832
 H171 H -0.01980 0.48899 -0.10881
 H172 H -0.06110 0.53155 -0.16606
 H173 H -0.09415 0.54064 0.00919
 H174 H -0.00082 0.57719 -0.01778
 H175 H 0.03012 0.62688 -0.07351
 H176 H 0.12110 0.53664 -0.12828
 H177 H 0.08870 0.48655 -0.07431
 H178 H 0.09019 0.52294 0.04263
 H179 H 0.14481 0.48252 0.08768
 H180 H 0.07697 0.37435 0.04708
 H181 H 0.02374 0.41448 0.00008
 H182 H -0.13560 0.58305 -0.04744
 C183 C 0.52240 1.01798 0.52223
 C184 C 0.47773 1.01292 0.52116
 C185 C 0.45585 0.97909 0.54699
 C186 C 0.44886 1.04126 0.49386
 C187 C 0.54362 1.04868 0.49136
 C188 C 0.55113 0.99439 0.55586
 C189 C 0.47227 0.93940 0.54271
 C190 C 0.45329 0.90814 0.56905
 C191 C 0.41631 0.91554 0.59846
 C192 C 0.39875 0.95484 0.60142
 C193 C 0.41840 0.98629 0.57604
 C194 C 0.43958 1.03460 0.44493
 C195 C 0.41112 1.06088 0.41982
 C196 C 0.39130 1.09393 0.44363
 C197 C 0.40096 1.10050 0.49252
 C198 C 0.43001 1.07470 0.51725
 C199 C 0.54120 1.08956 0.50386
 C200 C 0.55945 1.11865 0.47346
 C201 C 0.58168 1.10708 0.43111
 C202 C 0.58430 1.06616 0.41879
 C203 C 0.56475 1.03726 0.44830
 C204 C 0.54217 0.99462 0.60564
 C205 C 0.56530 0.96876 0.63684
 C206 C 0.59837 0.94260 0.61912
 C207 C 0.60862 0.94363 0.56949
 C208 C 0.58536 0.96944 0.53828
 H209 H 0.50014 0.93265 0.51938
 H210 H 0.46726 0.87802 0.56614
 H211 H 0.37067 0.96152 0.62452
 H212 H 0.40479 1.01634 0.58020
 H213 H 0.45403 1.00888 0.42646
 H214 H 0.40362 1.05465 0.38235
 H215 H 0.43733 1.08046 0.55491
 H216 H 0.52462 1.09891 0.53675
 H217 H 0.55667 1.15014 0.48321
 H218 H 0.60030 1.05672 0.38559
 H219 H 0.56550 1.00610 0.43704
 H220 H 0.51611 1.01387 0.62004
 H221 H 0.55665 0.96855 0.67482
 H222 H 0.63302 0.92333 0.55402
 H223 H 0.59271 0.96818 0.50013
 H224 H 0.38605 1.12571 0.51155
 C225 C 1.20545 0.15974 0.16727
 C226 C 1.16921 0.13910 0.17852
 C227 C 1.15165 0.10900 0.14493
 C228 C 1.11295 0.09115 0.15342
 H229 H 1.15149 0.14546 0.21177
 H230 H 1.17066 0.10194 0.11286
 H231 H 1.22239 0.15379 0.13343
 H232 H 1.09565 0.09781 0.18686
 C233 C 0.70087 0.67497 0.65288
 C234 C 0.65973 0.66072 0.65456
 C235 C 0.64297 0.63432 0.61613
 C236 C 0.60286 0.61796 0.61962
 H237 H 0.63811 0.66866 0.68443
 H238 H 0.66401 0.62776 0.58539
 H239 H 0.72242 0.66665 0.62310
 H240 H 0.58352 0.62337 0.65204
 C241 C -0.20095 0.32270 0.15577
 C242 C -0.16119 0.33942 0.16072
 C243 C -0.14414 0.36709 0.12368
 C244 C -0.10562 0.38585 0.12987
 H245 H -0.14099 0.33258 0.19217
 H246 H -0.16374 0.37241 0.09147
 H247 H -0.22119 0.33015 0.12455
 H248 H -0.08787 0.38169 0.16364
 C249 C 0.29516 0.83461 0.66206
 C250 C 0.33743 0.84563 0.66507
 C251 C 0.35444 0.87853 0.63499
 C252 C 0.39789 0.88232 0.62738
 H253 H 0.35994 0.82979 0.68931
 H254 H 0.33112 0.89938 0.61819
 H255 H 0.27344 0.84884 0.63567
 H256 H 0.42063 0.85952 0.64126
 C257 C -0.21381 0.65972 -0.16850
 C258 C -0.17470 0.64071 -0.17380
 C259 C -0.15987 0.60937 -0.13942
 C260 C -0.12174 0.58925 -0.14667
 H261 H -0.15267 0.64896 -0.20303
 H262 H -0.17992 0.60345 -0.10786
 H263 H -0.23579 0.65050 -0.13966
 H264 H -0.10367 0.59454 -0.17991
 C265 C 0.33493 1.17549 0.30803
 C266 C 0.32790 1.15800 0.35090
 C267 C 0.36125 1.13073 0.37267
 C268 C 0.35879 1.12084 0.41941
 H269 H 0.29769 1.16438 0.37085
 H270 H 0.38852 1.11968 0.35072
 H271 H 0.36606 1.16985 0.28950
 H272 H 0.33300 1.13449 0.44149
 C273 C 1.16560 -0.17806 -0.19536
 C274 C 1.17445 -0.15997 -0.15336
 C275 C 1.14088 -0.13416 -0.12970
 C276 C 1.14778 -0.11962 -0.08536
 H277 H 1.20610 -0.16494 -0.13560
 H278 H 1.10983 -0.12839 -0.14819
 H279 H 1.13344 -0.17313 -0.21204
 H280 H 1.17828 -0.12777 -0.06679
 C281 C 0.71136 0.33636 0.33331
 C282 C 0.67394 0.35725 0.32507
 C283 C 0.65835 0.38870 0.35869
 C284 C 0.62127 0.40980 0.34914
 H285 H 0.65390 0.35046 0.29367
 H286 H 0.67707 0.39395 0.39136
 H287 H 0.73166 0.34353 0.36435
 H288 H 0.60461 0.40474 0.31498
 C289 C 0.79547 -0.17444 -0.15440
 C290 C 0.83881 -0.16934 -0.14740
 C291 C 0.85504 -0.13861 -0.11374
 C292 C 0.89699 -0.13956 -0.09828
 H293 H 0.86266 -0.18805 -0.16660
 H294 H 0.83239 -0.11526 -0.10127
 H295 H 0.77174 -0.15704 -0.13341
 H296 H 0.91835 -0.16470 -0.10831
 C297 C 0.29485 0.33670 0.32702
 C298 C 0.33690 0.34841 0.32416
 C299 C 0.35369 0.38079 0.35501
 C300 C 0.39710 0.38403 0.36329
 H301 H 0.35965 0.33311 0.29981
 H302 H 0.33037 0.40139 0.37207
 H303 H 0.27287 0.35020 0.35357
 H304 H 0.41972 0.36132 0.34911
 C305 C 0.19848 0.66095 -0.17729
 C306 C 0.15621 0.64992 -0.17981
 C307 C 0.13923 0.61846 -0.14760
 C308 C 0.09599 0.61607 -0.13805
 H309 H 0.13361 0.66522 -0.20444
 H310 H 0.16256 0.59813 -0.12994
 H311 H 0.22016 0.64739 -0.15037
 H312 H 0.07336 0.63860 -0.15276
 C313 C 0.70128 1.17152 0.34252
 C314 C 0.65781 1.16477 0.34653
 C315 C 0.64100 1.13475 0.38083
 C316 C 0.60002 1.13796 0.39877
 H317 H 0.63410 1.18189 0.32501
 H318 H 0.66248 1.10995 0.39186
 H319 H 0.72407 1.15617 0.36692
 H320 H 0.57993 1.16448 0.39086
 C321 C 0.16268 0.31912 0.18343
 C322 C 0.17325 0.34593 0.14947
 C323 C 0.13851 0.36925 0.12411
 C324 C 0.14839 0.40194 0.09832
 H325 H 0.20767 0.35072 0.14024
 H326 H 0.10437 0.35988 0.12718
 H327 H 0.12831 0.31575 0.19382
 H328 H 0.18210 0.41277 0.09836
 C329 C 0.70981 0.84049 0.66941
 C330 C 0.67162 0.86034 0.67695
 C331 C 0.65641 0.89255 0.64401
 C332 C 0.61848 0.91261 0.65263
 H333 H 0.65072 0.85213 0.70715
 H334 H 0.67613 0.89920 0.61243
 H335 H 0.73100 0.84915 0.63965
 H336 H 0.60074 0.90635 0.68583
 C337 C 0.78966 0.15609 0.16786
 C338 C 0.83265 0.14764 0.16136
 C339 C 0.84785 0.11394 0.13080
 C340 C 0.88988 0.11223 0.11566
 H341 H 0.85734 0.16635 0.17831
 H342 H 0.82467 0.09094 0.12035
 H343 H 0.76489 0.13879 0.14903
 H344 H 0.91151 0.13708 0.12392
 C345 C 0.32628 0.66851 0.68011
 C346 C 0.32289 0.65824 0.63368
 C347 C 0.35296 0.62778 0.61276
 C348 C 0.35986 0.62608 0.56516
 H349 H 0.29846 0.67297 0.61068
 H350 H 0.37073 0.60732 0.63671
 H351 H 0.35251 0.65542 0.70212
 H352 H 0.34483 0.64868 0.54179
   
