data_POSCAR
  _audit_creation_date              2014-09-24
  _audit_creation_method            'ToBaCCo'
  _symmetry_space_group_name_H-M    'P1'
  _symmetry_Int_Tables_number       1
  _symmetry_cell_setting            triclinic
  loop_
  _symmetry_equiv_pos_as_xyz
 x,y,z
_cell_length_a 45.9577
_cell_length_b 41.5501
_cell_length_c 45.7580
_cell_angle_alpha 86.506800
_cell_angle_beta 91.333400
_cell_angle_gamma 87.550300
loop_
  _atom_site_label
  _atom_site_type_symbol
  _atom_site_fract_x
  _atom_site_fract_y
  _atom_site_fract_z
C1 C 0.19652 0.24004 0.22514
 N2 N 0.19707 0.26362 0.20339
 C3 C 0.21578 0.26116 0.18114
 N4 N 0.23453 0.23499 0.18091
 C5 C 0.23457 0.21143 0.20288
 N6 N 0.21534 0.21390 0.22493
 C7 C 0.69416 0.75173 0.73705
 N8 N 0.71473 0.72774 0.74255
 C9 C 0.73111 0.71670 0.72077
 N10 N 0.72715 0.73019 0.69303
 C11 C 0.70679 0.75474 0.68732
 N12 N 0.69017 0.76522 0.70936
 C13 C 0.31702 0.79157 0.71055
 N14 N 0.31510 0.76385 0.69644
 C15 C 0.29159 0.75950 0.67872
 N16 N 0.27000 0.78305 0.67519
 C17 C 0.27197 0.81087 0.68907
 N18 N 0.29558 0.81484 0.70663
 C19 C 0.83591 0.25976 0.24228
 N20 N 0.82543 0.24192 0.22076
 C21 C 0.80012 0.25120 0.20614
 N22 N 0.78535 0.27840 0.21311
 C23 C 0.79538 0.29643 0.23462
 N24 N 0.82071 0.28705 0.24925
 C25 C 0.80884 0.69808 0.26030
 N26 N 0.79253 0.67328 0.25288
 C27 C 0.76575 0.66956 0.26389
 N28 N 0.75528 0.69076 0.28290
 C29 C 0.77147 0.71551 0.29095
 N30 N 0.79837 0.71933 0.27950
 C31 C 0.31385 0.23400 -0.22841
 N32 N 0.29057 0.21542 -0.23173
 C33 C 0.26651 0.21948 -0.21538
 N34 N 0.26580 0.24266 -0.19569
 C35 C 0.28891 0.26162 -0.19227
 N36 N 0.31293 0.25708 -0.20855
 C37 C 0.69635 0.26294 -0.21156
 N38 N 0.69931 0.24246 -0.18741
 C39 C 0.71879 0.24764 -0.16577
 N40 N 0.73597 0.27340 -0.16858
 C41 C 0.73358 0.29396 -0.19292
 N42 N 0.71349 0.28879 -0.21437
 C43 C 0.19034 0.78958 0.27703
 N44 N 0.18752 0.76720 0.29955
 C45 C 0.20783 0.76351 0.32158
 N46 N 0.23119 0.78255 0.32113
 C47 C 0.23430 0.80503 0.29870
 N48 N 0.21377 0.80837 0.27665
 C49 C 0.45943 0.41977 0.45683
 N50 N 0.43475 0.43763 0.46189
 C51 C 0.42343 0.45952 0.44093
 N52 N 0.43692 0.46353 0.41499
 C53 C 0.46163 0.44602 0.40987
 N54 N 0.47280 0.42412 0.43085
 C55 C -0.00860 -0.05407 0.95876
 N56 N 0.00700 -0.04560 0.93475
 C57 C -0.00296 -0.02072 0.91584
 N58 N -0.02837 -0.00457 0.92104
 C59 C -0.04410 -0.01292 0.94473
 N60 N -0.03413 -0.03769 0.96350
 C61 C 0.99898 0.58847 0.97493
 N62 N 0.97847 0.58510 0.95363
 C63 C 0.98149 0.56153 0.93463
 N64 N 1.00546 0.54122 0.93683
 C65 C 1.02636 0.54439 0.95779
 N66 N 1.02310 0.56805 0.97698
 C67 C 0.51693 0.07643 0.49010
 N68 N 0.49967 0.07363 0.46609
 C69 C 0.50570 0.05072 0.44699
 N70 N 0.52964 0.03048 0.45180
 C71 C 0.54739 0.03324 0.47576
 N72 N 0.54084 0.05622 0.49485
 C73 C -0.05321 0.03586 0.52616
 N74 N -0.07707 0.01786 0.52471
 C75 C -0.08269 -0.00431 0.54673
 N76 N -0.06417 -0.00827 0.57037
 C77 C -0.04033 0.00981 0.57218
 N78 N -0.03490 0.03181 0.54997
 C79 C 0.46335 0.57369 0.00480
 N80 N 0.44016 0.55458 0.00572
 C81 C 0.43822 0.53097 0.02737
 N82 N 0.45970 0.52665 0.04831
 C83 C 0.48299 0.54582 0.04766
 N84 N 0.48472 0.56927 0.02585
 C85 C 0.52947 -0.04769 0.01994
 N86 N 0.50706 -0.04697 0.03887
 C87 C 0.50889 -0.02985 0.06321
 N88 N 0.53324 -0.01339 0.06850
 C89 C 0.55566 -0.01403 0.04978
 N90 N 0.55363 -0.03126 0.02561
 C91 C 1.04214 0.39292 0.54777
 N92 N 1.05993 0.41790 0.54239
 C93 C 1.05838 0.44393 0.55912
 N94 N 1.03875 0.44500 0.58081
 C95 C 1.02102 0.42013 0.58623
 N96 N 1.02300 0.39418 0.56981
 C97 C 0.42226 0.02343 0.22040
 H98 H 0.42272 0.04156 0.23639
 C99 C 0.44201 0.02406 0.19768
 H100 H 0.45760 0.04289 0.19624
 C101 C 0.40190 -0.02364 0.20344
 H102 H 0.38669 -0.04264 0.20617
 C103 C 0.42125 -0.02391 0.18033
 H104 H 0.42060 -0.04342 0.16577
 N105 N 0.40260 -0.00004 0.22276
 C106 C 0.33086 0.03859 0.27275
 H107 H 0.33001 0.01968 0.29001
 C108 C 0.31021 0.06431 0.27130
 H109 H 0.29359 0.06513 0.28767
 C110 C 0.35328 0.06003 0.23020
 H111 H 0.36988 0.05809 0.21400
 C112 C 0.33306 0.08623 0.22791
 H113 H 0.33514 0.10441 0.21027
 Zn114 Zn 0.37779 -0.00001 0.25524
 N115 N 0.35194 0.03697 0.25247
 C116 C 0.39850 0.02314 0.30864
 N117 N 0.40187 -0.00045 0.28953
 C118 C 0.42351 -0.02378 0.29359
 C119 C 0.44295 -0.02383 0.31757
 C120 C 0.41728 0.02388 0.33299
 C121 C 0.33403 -0.03695 0.23393
 C122 C 0.31411 -0.06133 0.23402
 C123 C 0.33611 -0.08405 0.27956
 C124 C 0.35567 -0.05913 0.27858
 N125 N 0.35422 -0.03621 0.25601
 H126 H 0.38141 0.04168 0.30495
 H127 H 0.42591 -0.04211 0.27790
 H128 H 0.46021 -0.04243 0.32030
 H129 H 0.41341 0.04263 0.34796
 H130 H 0.33310 -0.01814 0.21647
 H131 H 0.29798 -0.06119 0.21637
 H132 H 0.33786 -0.10175 0.29786
 H133 H 0.37160 -0.05780 0.29616
 C134 C 0.31090 0.08845 0.24855
 C135 C 0.44163 0.00032 0.17717
 C136 C 0.31465 -0.08511 0.25717
 C137 C 0.44030 0.00046 0.33748
 C138 C 0.09007 0.00038 0.69747
 H139 H 0.09303 -0.02188 0.71097
 C140 C 0.06892 0.00306 0.67491
 H141 H 0.05618 -0.01762 0.67113
 C142 C 0.10417 0.05370 0.68578
 H143 H 0.11781 0.07347 0.69016
 C144 C 0.08333 0.05743 0.66300
 H145 H 0.08129 0.08007 0.64992
 N146 N 0.10749 0.02529 0.70215
 C147 C 0.18825 -0.01636 0.74152
 H148 H 0.19012 -0.00076 0.75950
 C149 C 0.21000 -0.03987 0.73749
 H150 H 0.22864 -0.04230 0.75252
 C151 C 0.16159 -0.03194 0.70011
 H152 H 0.14289 -0.02840 0.68537
 C153 C 0.18284 -0.05604 0.69536
 H154 H 0.18020 -0.07064 0.67678
 Zn155 Zn 0.13673 0.01940 0.73207
 N156 N 0.16446 -0.01312 0.72325
 C157 C 0.12650 -0.02211 0.78177
 N158 N 0.11904 0.00704 0.76780
 C159 C 0.09847 0.02722 0.77862
 C160 C 0.08483 0.01856 0.80474
 C161 C 0.11340 -0.03174 0.80788
 C162 C 0.17413 0.06617 0.71210
 C163 C 0.19290 0.09152 0.71372
 C164 C 0.17736 0.09873 0.76306
 C165 C 0.15888 0.07310 0.76051
 N166 N 0.15768 0.05737 0.73531
 H167 H 0.14242 -0.03819 0.77259
 H168 H 0.09281 0.05018 0.76700
 H169 H 0.06915 0.03554 0.81317
 H170 H 0.11958 -0.05506 0.81864
 H171 H 0.17326 0.05277 0.69258
 H172 H 0.20626 0.09771 0.69519
 H173 H 0.17867 0.10998 0.78370
 H174 H 0.14635 0.06511 0.77905
 C175 C 0.20728 -0.06041 0.71450
 C176 C 0.06541 0.03196 0.65722
 C177 C 0.19489 0.10805 0.73945
 C178 C 0.09208 -0.01153 0.81959
 C179 C 0.57567 0.45943 0.20162
 H180 H 0.57829 0.43680 0.21460
 C181 C 0.55510 0.46286 0.17860
 H182 H 0.54199 0.44266 0.17385
 C183 C 0.58910 0.51349 0.19262
 H184 H 0.60186 0.53340 0.19862
 C185 C 0.56881 0.51796 0.16934
 H186 H 0.56626 0.54151 0.15794
 N187 N 0.59234 0.48446 0.20801
 C188 C 0.66928 0.43929 0.25420
 H189 H 0.66890 0.45153 0.27440
 C190 C 0.69115 0.41572 0.24996
 H191 H 0.70718 0.40993 0.26733
 C192 C 0.64812 0.43200 0.20750
 H193 H 0.63153 0.43857 0.19086
 C194 C 0.66953 0.40839 0.20233
 H195 H 0.66894 0.39678 0.18177
 Zn196 Zn 0.61845 0.47779 0.24064
 N197 N 0.64804 0.44648 0.23333
 C198 C 0.60258 0.43527 0.28835
 N199 N 0.59621 0.46370 0.27274
 C200 C 0.57290 0.48301 0.27911
 C201 C 0.55535 0.47449 0.30253
 C202 C 0.58556 0.42576 0.31198
 C203 C 0.65479 0.52903 0.22843
 C204 C 0.66964 0.55680 0.23374
 C205 C 0.64708 0.55790 0.28085
 C206 C 0.63274 0.53007 0.27468
 N207 N 0.63669 0.51634 0.24874
 H208 H 0.62081 0.41989 0.28257
 H209 H 0.56823 0.50537 0.26615
 H210 H 0.53767 0.49103 0.30764
 H211 H 0.59106 0.40321 0.32442
 H212 H 0.65770 0.51747 0.20808
 H213 H 0.68344 0.56671 0.21695
 H214 H 0.64380 0.56845 0.30166
 H215 H 0.61880 0.51930 0.29086
 C216 C 0.69130 0.39974 0.22371
 C217 C 0.55162 0.49227 0.16194
 C218 C 0.66609 0.57137 0.26047
 C219 C 0.56156 0.44538 0.31929
 C220 C 0.91091 0.50988 0.71128
 H221 H 0.90942 0.53102 0.72394
 C222 C 0.93365 0.50604 0.69206
 H223 H 0.94964 0.52440 0.68995
 C224 C 0.89175 0.46028 0.69890
 H225 H 0.87546 0.44246 0.70183
 C226 C 0.91423 0.45543 0.67935
 H227 H 0.91433 0.43410 0.66697
 N228 N 0.89041 0.48736 0.71414
 C229 C 0.81892 0.54600 0.74589
 H230 H 0.81515 0.53355 0.76683
 C231 C 0.80272 0.57430 0.73721
 H232 H 0.78620 0.58312 0.75155
 C233 C 0.84422 0.54854 0.70133
 H234 H 0.86006 0.53816 0.68716
 C235 C 0.82836 0.57676 0.69168
 H236 H 0.83240 0.58811 0.67031
 Zn237 Zn 0.86146 0.49613 0.74142
 N238 N 0.83965 0.53413 0.72826
 C239 C 0.88137 0.53019 0.79006
 N240 N 0.88198 0.50168 0.77694
 C241 C 0.89984 0.47640 0.78723
 C242 C 0.91798 0.47913 0.81172
 C243 C 0.89921 0.53400 0.81467
 C244 C 0.81962 0.45342 0.72284
 C245 C 0.79977 0.42893 0.72603
 C246 C 0.81212 0.42341 0.77771
 C247 C 0.83181 0.44785 0.77350
 N248 N 0.83548 0.46204 0.74634
 H249 H 0.86781 0.55038 0.78095
 H250 H 0.90038 0.45424 0.77596
 H251 H 0.93230 0.45881 0.81935
 H252 H 0.89892 0.55728 0.82400
 H253 H 0.82239 0.46563 0.70159
 H254 H 0.78749 0.42223 0.70701
 H255 H 0.80939 0.41329 0.79973
 H256 H 0.84375 0.45583 0.79213
 C257 C 0.80778 0.59036 0.70994
 C258 C 0.93567 0.47854 0.67586
 C259 C 0.79599 0.41330 0.75366
 C260 C 0.91794 0.50818 0.82576
 C261 C 0.19850 0.46136 0.00706
 H262 H 0.21490 0.46007 0.02449
 C263 C 0.17389 0.48212 0.00849
 H264 H 0.17144 0.49673 0.02717
 C265 C 0.18201 0.44412 -0.03859
 H266 H 0.18551 0.42974 -0.05719
 C267 C 0.15708 0.46454 -0.03806
 H268 H 0.14199 0.46567 -0.05660
 N269 N 0.20190 0.44251 -0.01601
 C270 C 0.25847 0.36075 0.01718
 H271 H 0.27512 0.36164 0.00086
 C272 C 0.26015 0.33662 0.03980
 H273 H 0.27826 0.31899 0.04088
 C274 C 0.21441 0.38249 0.03527
 H275 H 0.19630 0.39998 0.03305
 C276 C 0.21521 0.35874 0.05826
 H277 H 0.19736 0.35831 0.07323
 Zn278 Zn 0.23582 0.41470 -0.01617
 N279 N 0.23610 0.38335 0.01558
 C280 C 0.28726 0.43561 0.01075
 N281 N 0.26882 0.44023 -0.01297
 C282 C 0.27309 0.46370 -0.03425
 C283 C 0.29731 0.48279 -0.03271
 C284 C 0.31166 0.45423 0.01324
 C285 C 0.21566 0.37026 -0.05434
 C286 C 0.21661 0.34983 -0.07745
 C287 C 0.26154 0.37314 -0.09248
 C288 C 0.25971 0.39318 -0.06906
 N289 N 0.23704 0.39134 -0.05051
 H290 H 0.28298 0.41767 0.02800
 H291 H 0.25776 0.46736 -0.05258
 H292 H 0.30054 0.50110 -0.05008
 H293 H 0.32554 0.45006 0.03259
 H294 H 0.19816 0.36885 -0.03898
 H295 H 0.19954 0.33293 -0.07988
 H296 H 0.27972 0.37537 -0.10692
 H297 H 0.27683 0.40958 -0.06537
 C298 C 0.23860 0.33563 0.06097
 C299 C 0.15252 0.48358 -0.01400
 C300 C 0.24000 0.35063 -0.09659
 C301 C 0.31721 0.47797 -0.00895
 C302 C 0.72302 0.05911 0.00659
 H303 H 0.73677 0.06155 -0.01222
 C304 C 0.69821 0.04110 0.00523
 H305 H 0.69294 0.02973 -0.01479
 C306 C 0.71347 0.07091 0.05556
 H307 H 0.71981 0.08214 0.07527
 C308 C 0.68830 0.05313 0.05513
 H309 H 0.67574 0.05083 0.07477
 N310 N 0.72994 0.07398 0.03130
 C311 C 0.78126 0.15334 -0.00224
 H312 H 0.80105 0.14903 0.01094
 C313 C 0.77941 0.17833 -0.02415
 H314 H 0.79788 0.19328 -0.02779
 C315 C 0.73328 0.13866 -0.01384
 H316 H 0.71522 0.12343 -0.00955
 C317 C 0.73050 0.16334 -0.03593
 H318 H 0.71004 0.16689 -0.04811
 Zn319 Zn 0.76399 0.09790 0.02962
 N320 N 0.75871 0.13349 0.00185
 C321 C 0.80726 0.07597 -0.00820
 N322 N 0.79438 0.06986 0.01787
 C323 C 0.80257 0.04344 0.03562
 C324 C 0.82601 0.02323 0.02836
 C325 C 0.83051 0.05622 -0.01650
 C326 C 0.75442 0.13516 0.07786
 C327 C 0.76166 0.14989 0.10351
 C328 C 0.80871 0.12157 0.10437
 C329 C 0.80056 0.10739 0.07874
 N330 N 0.77379 0.11434 0.06604
 H331 H 0.79955 0.09615 -0.02270
 H332 H 0.79137 0.03863 0.05586
 H333 H 0.83288 0.00289 0.04321
 H334 H 0.83996 0.06178 -0.03749
 H335 H 0.73344 0.14066 0.06707
 H336 H 0.74564 0.16598 0.11259
 H337 H 0.83029 0.11613 0.11391
 H338 H 0.81609 0.09166 0.06862
 C339 C 0.75415 0.18290 -0.04193
 C340 C 0.68023 0.03826 0.02949
 C341 C 0.78943 0.14356 0.11679
 C342 C 0.84081 0.02995 0.00237
 C343 C 0.20381 0.54956 0.49124
 H344 H 0.21868 0.55106 0.47327
 C345 C 0.18218 0.52690 0.49163
 H346 H 0.18032 0.51120 0.47369
 C347 C 0.18906 0.56722 0.53708
 H348 H 0.19239 0.58224 0.55521
 C349 C 0.16719 0.54491 0.53839
 H350 H 0.15423 0.54325 0.55778
 N351 N 0.20680 0.56921 0.51373
 C352 C 0.25601 0.65132 0.48251
 H353 H 0.27176 0.65083 0.50049
 C354 C 0.25667 0.67529 0.45993
 H355 H 0.27304 0.69325 0.46072
 C356 C 0.21572 0.62824 0.45981
 H357 H 0.19979 0.60985 0.45992
 C358 C 0.21561 0.65185 0.43663
 H359 H 0.19965 0.65072 0.41906
 Zn360 Zn 0.23859 0.59677 0.51371
 N361 N 0.23603 0.62816 0.48190
 C362 C 0.29075 0.57624 0.48792
 N363 N 0.27306 0.57064 0.51091
 C364 C 0.27878 0.54543 0.53089
 C365 C 0.30309 0.52453 0.52801
 C366 C 0.31526 0.55613 0.48430
 C367 C 0.21708 0.64211 0.55064
 C368 C 0.21771 0.66336 0.57304
 C369 C 0.26403 0.63847 0.58995
 C370 C 0.26250 0.61763 0.56714
 N371 N 0.23940 0.62007 0.54790
 H372 H 0.28576 0.59606 0.47201
 H373 H 0.26418 0.54131 0.54882
 H374 H 0.30723 0.50436 0.54391
 H375 H 0.32917 0.56176 0.46613
 H376 H 0.19919 0.64382 0.53475
 H377 H 0.20003 0.68127 0.57438
 H378 H 0.28274 0.63602 0.60478
 H379 H 0.28020 0.60023 0.56432
 C380 C 0.23644 0.67582 0.43649
 C381 C 0.16347 0.52433 0.51538
 C382 C 0.24169 0.66232 0.59266
 C383 C 0.32138 0.52939 0.50417
 C384 C 0.68862 0.90934 0.48780
 H385 H 0.70132 0.90908 0.50803
 C386 C 0.66277 0.92827 0.48447
 H387 H 0.65592 0.94181 0.50269
 C388 C 0.68265 0.89110 0.44012
 H389 H 0.69062 0.87687 0.42276
 C390 C 0.65668 0.90984 0.43578
 H391 H 0.64480 0.90962 0.41507
 N392 N 0.69791 0.89098 0.46595
 C393 C 0.75413 0.81613 0.51275
 H394 H 0.77357 0.81765 0.49992
 C395 C 0.75412 0.79538 0.53796
 H396 H 0.77363 0.78087 0.54438
 C397 C 0.70540 0.83385 0.52035
 H398 H 0.68635 0.84868 0.51335
 C399 C 0.70444 0.81348 0.54575
 H400 H 0.68440 0.81277 0.55764
 Zn401 Zn 0.73374 0.86682 0.47318
 N402 N 0.73034 0.83564 0.50499
 C403 C 0.77620 0.89379 0.50966
 N404 N 0.76195 0.89664 0.48318
 C405 C 0.76734 0.92102 0.46313
 C406 C 0.78905 0.94253 0.46866
 C407 C 0.79797 0.91487 0.51618
 C408 C 0.72890 0.82268 0.42847
 C409 C 0.73806 0.80560 0.40461
 C410 C 0.78259 0.83431 0.40470
 C411 C 0.77262 0.85078 0.42847
 N412 N 0.74603 0.84505 0.43972
 H413 H 0.77086 0.87510 0.52582
 H414 H 0.75526 0.92319 0.44248
 H415 H 0.79357 0.96124 0.45207
 H416 H 0.80878 0.91175 0.53742
 H417 H 0.70821 0.81786 0.43826
 H418 H 0.72412 0.78758 0.39665
 H419 H 0.80388 0.83922 0.39623
 H420 H 0.78652 0.86768 0.43821
 C421 C 0.72941 0.79466 0.55538
 C422 C 0.64639 0.92891 0.45802
 C423 C 0.76529 0.81149 0.39226
 C424 C 0.80516 0.93926 0.49520
 C425 C 0.04250 0.17960 0.42763
 H426 H 0.06376 0.18978 0.42655
 C427 C 0.03723 0.15527 0.44903
 H428 H 0.05469 0.14653 0.46416
 C429 C -0.00638 0.17972 0.41008
 H430 H -0.02363 0.19006 0.39559
 C431 C -0.01264 0.15548 0.43118
 H432 H -0.03477 0.14781 0.43227
 N433 N 0.02086 0.19117 0.40858
 C434 C 0.06369 0.23970 0.33527
 H435 H 0.05055 0.26200 0.33367
 C436 C 0.08631 0.23514 0.31599
 H437 H 0.08974 0.25394 0.29919
 C438 C 0.07384 0.18782 0.35858
 H439 H 0.06875 0.16936 0.37507
 C440 C 0.09683 0.18227 0.33975
 H441 H 0.10939 0.15956 0.34202
 Zn442 Zn 0.02845 0.22678 0.38245
 N443 N 0.05828 0.21651 0.35641
 C444 C 0.06574 0.27490 0.40222
 N445 N 0.04003 0.26022 0.40577
 C446 C 0.02152 0.26834 0.42709
 C447 C 0.02829 0.29244 0.44564
 C448 C 0.07341 0.29924 0.42037
 C449 C -0.01733 0.21945 0.34179
 C450 C -0.04308 0.22795 0.32578
 C451 C -0.04367 0.27999 0.34660
 C452 C -0.01800 0.27044 0.36226
 N453 N -0.00566 0.24039 0.36003
 H454 H 0.08040 0.26775 0.38545
 H455 H 0.00127 0.25619 0.42944
 H456 H 0.01261 0.29908 0.46173
 H457 H 0.09386 0.31087 0.41728
 H458 H -0.00691 0.19579 0.34020
 H459 H -0.05214 0.21024 0.31230
 H460 H -0.05334 0.30390 0.34898
 H461 H -0.00809 0.28711 0.37626
 C462 C 0.10378 0.20640 0.31860
 C463 C 0.00939 0.14283 0.45105
 C464 C -0.05673 0.25867 0.32818
 C465 C 0.05475 0.30801 0.44262
 C466 C -0.01675 0.72060 0.09594
 H467 H -0.03644 0.73589 0.09386
 C468 C -0.01271 0.69526 0.07752
 H469 H -0.02999 0.69112 0.06199
 C470 C 0.02918 0.70788 0.11926
 H471 H 0.04577 0.71322 0.13513
 C472 C 0.03420 0.68241 0.10119
 H473 H 0.05451 0.66817 0.10366
 N474 N 0.00398 0.72635 0.11640
 C475 C -0.04070 0.78305 0.18111
 H476 H -0.02627 0.80290 0.18179
 C477 C -0.06461 0.78188 0.19941
 H478 H -0.06856 0.80102 0.21406
 C479 C -0.05286 0.73387 0.16130
 H480 H -0.04811 0.71507 0.14662
 C481 C -0.07697 0.73169 0.17929
 H482 H -0.09087 0.71155 0.17734
 Zn483 Zn -0.00176 0.76272 0.13913
 N484 N -0.03542 0.75941 0.16235
 C485 C -0.03039 0.81872 0.11196
 N486 N -0.00551 0.79977 0.11274
 C487 C 0.01608 0.80567 0.09352
 C488 C 0.01312 0.83163 0.07252
 C489 C -0.03420 0.84490 0.09149
 C490 C 0.03288 0.74062 0.18676
 C491 C 0.05526 0.74010 0.20783
 C492 C 0.07139 0.79015 0.18531
 C493 C 0.04855 0.78971 0.16459
 N494 N 0.03008 0.76498 0.16556
 H495 H -0.04765 0.81328 0.12683
 H496 H 0.03551 0.78995 0.09434
 H497 H 0.03074 0.83587 0.05773
 H498 H -0.05428 0.85956 0.09118
 H499 H 0.01759 0.72152 0.18722
 H500 H 0.05714 0.72039 0.22448
 H501 H 0.08548 0.81034 0.18431
 H502 H 0.04548 0.80925 0.14796
 C503 C -0.08297 0.75583 0.19891
 C504 C 0.01334 0.67597 0.07971
 C505 C 0.07503 0.76488 0.20722
 C506 C -0.01250 0.85152 0.07121
 C507 C 0.49219 0.20934 0.61198
 H508 H 0.47117 0.22215 0.61129
 C509 C 0.49661 0.18253 0.59529
 H510 H 0.47848 0.17459 0.58253
 C511 C 0.54112 0.20450 0.62964
 H512 H 0.55867 0.21349 0.64247
 C513 C 0.54647 0.17759 0.61337
 H514 H 0.56805 0.16596 0.61416
 N515 N 0.51432 0.21983 0.62866
 C516 C 0.47591 0.27961 0.69447
 H517 H 0.48981 0.29988 0.69174
 C518 C 0.45397 0.28004 0.71500
 H519 H 0.45115 0.30076 0.72810
 C520 C 0.46251 0.22829 0.68024
 H521 H 0.46601 0.20814 0.66671
 C522 C 0.44015 0.22777 0.70050
 H523 H 0.42703 0.20680 0.70248
 Zn524 Zn 0.50795 0.25854 0.64813
 N525 N 0.47936 0.25435 0.67715
 C526 C 0.46865 0.30672 0.62196
 N527 N 0.49506 0.29118 0.61956
 C528 C 0.51210 0.29772 0.59624
 C529 C 0.50297 0.32114 0.57436
 C530 C 0.45865 0.33022 0.60061
 C531 C 0.55291 0.24965 0.68987
 C532 C 0.57830 0.25615 0.70527
 C533 C 0.58217 0.30472 0.67407
 C534 C 0.55661 0.29726 0.65922
 N535 N 0.54282 0.26982 0.66707
 H536 H 0.45505 0.30073 0.64024
 H537 H 0.53288 0.28476 0.59472
 H538 H 0.51737 0.32626 0.55651
 H539 H 0.43754 0.34228 0.60290
 H540 H 0.54108 0.22845 0.69613
 H541 H 0.58531 0.23997 0.72373
 H542 H 0.59298 0.32658 0.66756
 H543 H 0.54780 0.31352 0.64159
 C544 C 0.43525 0.25434 0.71774
 C545 C 0.52429 0.16660 0.59547
 C546 C 0.59359 0.28380 0.69711
 C547 C 0.47570 0.33759 0.57631
 C548 C 0.52564 0.74117 0.90900
 H549 H 0.53913 0.76150 0.91190
 C550 C 0.52722 0.71481 0.92956
 H551 H 0.54213 0.71488 0.94824
 C552 C 0.48894 0.71693 0.88177
 H553 H 0.47360 0.71797 0.86351
 C554 C 0.48994 0.69009 0.90162
 H555 H 0.47595 0.67052 0.89747
 N556 N 0.50651 0.74187 0.88582
 C557 C 0.53428 0.81043 0.81718
 H558 H 0.51489 0.82614 0.81451
 C559 C 0.55695 0.81393 0.79761
 H560 H 0.55502 0.83259 0.78000
 C561 C 0.55952 0.76573 0.84236
 H562 H 0.55996 0.74628 0.85917
 C563 C 0.58273 0.76842 0.82336
 H564 H 0.60060 0.75061 0.82589
 Zn565 Zn 0.50217 0.77989 0.86085
 N566 N 0.53586 0.78647 0.83884
 C567 C 0.51235 0.83992 0.88472
 N568 N 0.49470 0.81448 0.88507
 C569 C 0.47330 0.81135 0.90495
 C570 C 0.46965 0.83384 0.92621
 C571 C 0.50937 0.86304 0.90548
 C572 C 0.47635 0.75371 0.81298
 C573 C 0.45484 0.74846 0.79203
 C574 C 0.42389 0.78898 0.81310
 C575 C 0.44601 0.79335 0.83377
 N576 N 0.47149 0.77556 0.83347
 H577 H 0.52938 0.84185 0.86893
 H578 H 0.45980 0.79065 0.90498
 H579 H 0.45307 0.83045 0.94243
 H580 H 0.52369 0.88302 0.90454
 H581 H 0.49694 0.74006 0.81317
 H582 H 0.45897 0.73074 0.77605
 H583 H 0.40350 0.80275 0.81432
 H584 H 0.44270 0.81072 0.85016
 C585 C 0.58151 0.79269 0.80043
 C586 C 0.50873 0.68917 0.92639
 C587 C 0.42830 0.76632 0.79176
 C588 C 0.48836 0.85957 0.92724
 C589 C 0.17531 0.24368 0.24835
 C590 C 0.16625 0.21902 0.26535
 C591 C 0.14276 0.22484 0.28597
 C592 C 0.12875 0.20071 0.29929
 H593 H 0.17492 0.19467 0.26295
 H594 H 0.13657 0.24964 0.28976
 H595 H 0.16526 0.26756 0.25012
 H596 H 0.13604 0.17600 0.29626
 C597 C 0.67565 0.76104 0.76118
 C598 C 0.65081 0.77877 0.75720
 C599 C 0.63094 0.78174 0.78177
 C600 C 0.60386 0.79446 0.77760
 H601 H 0.64405 0.78869 0.73552
 H602 H 0.63820 0.77169 0.80322
 H603 H 0.68154 0.75048 0.78289
 H604 H 0.59742 0.80562 0.75626
 C605 C 0.34151 0.79711 0.73056
 C606 C 0.36233 0.77477 0.73860
 C607 C 0.38490 0.78202 0.76028
 C608 C 0.40563 0.76003 0.76955
 H609 H 0.36230 0.75109 0.72987
 H610 H 0.38447 0.80588 0.76860
 H611 H 0.34176 0.82049 0.73988
 H612 H 0.40657 0.73684 0.75988
 C613 C -0.13779 0.24964 0.25657
 C614 C -0.12532 0.26564 0.27773
 C615 C -0.09736 0.25353 0.29164
 C616 C -0.08467 0.26933 0.31279
 H617 H -0.13560 0.28769 0.28487
 H618 H -0.08726 0.23170 0.28407
 H619 H -0.12695 0.22767 0.24987
 H620 H -0.09525 0.29160 0.31910
 C621 C -0.16235 0.70055 0.24717
 C622 C -0.14804 0.72779 0.24390
 C623 C -0.12122 0.72787 0.22673
 C624 C -0.10851 0.75515 0.21825
 H625 H -0.15694 0.74999 0.25208
 H626 H -0.11220 0.70493 0.22032
 H627 H -0.15363 0.67911 0.23748
 H628 H -0.11700 0.77782 0.22588
 C629 C 0.33814 0.22899 0.75433
 C630 C 0.36240 0.24555 0.75639
 C631 C 0.38680 0.23990 0.73668
 C632 C 0.41099 0.25657 0.73849
 H633 H 0.36423 0.26369 0.77233
 H634 H 0.38422 0.22295 0.71986
 H635 H 0.33704 0.21074 0.73841
 H636 H 0.41230 0.27429 0.75488
 C637 C 0.67443 0.25618 0.76603
 C638 C 0.66238 0.27849 0.74669
 C639 C 0.63775 0.26982 0.72799
 C640 C 0.62047 0.29209 0.71307
 H641 H 0.66918 0.30317 0.74615
 H642 H 0.63313 0.24453 0.72746
 H643 H 0.66614 0.23209 0.76717
 H644 H 0.62602 0.31721 0.71272
 C645 C 0.16822 0.79376 0.25310
 C646 C 0.14412 0.77686 0.25326
 C647 C 0.12209 0.78097 0.22929
 C648 C 0.09829 0.76351 0.23030
 H649 H 0.14047 0.75959 0.27139
 H650 H 0.12582 0.79768 0.21084
 H651 H 0.17177 0.81119 0.23507
 H652 H 0.09606 0.74636 0.24888
 C653 C 0.25584 0.18389 0.20254
 C654 C 0.26019 0.16216 0.22517
 C655 C 0.28270 0.13588 0.22425
 C656 C 0.28852 0.11543 0.24762
 H657 H 0.24756 0.16414 0.24475
 H658 H 0.29427 0.13343 0.20415
 H659 H 0.26904 0.18208 0.18332
 H660 H 0.27577 0.11817 0.26704
 C661 C 0.75201 0.68951 0.72807
 C662 C 0.76385 0.67101 0.70826
 C663 C 0.78144 0.64181 0.71833
 C664 C 0.79148 0.62065 0.69975
 H665 H 0.75929 0.67631 0.68508
 H666 H 0.78585 0.63738 0.74163
 H667 H 0.75615 0.68305 0.75116
 H668 H 0.78830 0.62602 0.67638
 C669 C 0.75228 0.31958 0.80450
 C670 C 0.75245 0.34064 0.78113
 C671 C 0.77376 0.36623 0.77973
 C672 C 0.77466 0.38740 0.75650
 H673 H 0.73723 0.33889 0.76289
 H674 H 0.78926 0.36695 0.79779
 H675 H 0.76781 0.32200 0.82237
 H676 H 0.75951 0.38514 0.73829
 C677 C 0.25827 -0.17535 0.29889
 C678 C 0.26295 -0.15297 0.27738
 C679 C 0.28763 -0.13157 0.27900
 C680 C 0.29196 -0.10955 0.25709
 H681 H 0.24819 -0.14987 0.25848
 H682 H 0.30144 -0.13349 0.29851
 H683 H 0.27347 -0.17834 0.31745
 H684 H 0.27722 -0.10860 0.23815
 C685 C 0.24971 -0.16507 0.68567
 C686 C 0.25149 -0.13708 0.69854
 C687 C 0.22757 -0.11233 0.69707
 C688 C 0.23055 -0.08558 0.71154
 H689 H 0.27086 -0.13235 0.71131
 H690 H 0.20743 -0.11682 0.68560
 H691 H 0.23050 -0.16945 0.67255
 H692 H 0.25084 -0.08282 0.72356
 C693 C 0.77861 0.32574 0.24219
 C694 C 0.75457 0.33616 0.22675
 C695 C 0.73636 0.36428 0.23440
 C696 C 0.71255 0.37317 0.21790
 H697 H 0.74767 0.32328 0.20806
 H698 H 0.74236 0.37703 0.25337
 H699 H 0.78585 0.33862 0.26073
 H700 H 0.70809 0.35983 0.19875
 C701 C 0.74881 0.64234 0.25511
 C702 C 0.72258 0.63622 0.26552
 C703 C 0.70714 0.60804 0.25636
 C704 C 0.68168 0.60039 0.26787
 H705 H 0.71263 0.65169 0.28109
 H706 H 0.71739 0.59285 0.24081
 H707 H 0.75853 0.62652 0.23968
 H708 H 0.67265 0.61503 0.28458
 C709 C 0.24280 0.19975 0.78191
 C710 C 0.24201 0.17669 0.76270
 C711 C 0.21762 0.15485 0.76145
 C712 C 0.21710 0.13276 0.74136
 H713 H 0.25986 0.17325 0.74794
 H714 H 0.20047 0.15681 0.77713
 H715 H 0.22458 0.20314 0.79621
 H716 H 0.23412 0.13258 0.72531
 C717 C 0.21502 0.28701 0.15768
 C718 C 0.23016 0.28527 0.13323
 C719 C 0.22734 0.31169 0.11025
 C720 C 0.24092 0.30979 0.08485
 H721 H 0.24413 0.26420 0.12990
 H722 H 0.21413 0.33299 0.11452
 H723 H 0.20074 0.30803 0.16039
 H724 H 0.25501 0.28875 0.08169
 C725 C 0.70252 0.77060 0.65771
 C726 C 0.71821 0.76257 0.63477
 C727 C 0.71406 0.78096 0.60623
 C728 C 0.73078 0.77468 0.58348
 H729 H 0.73467 0.74305 0.63720
 H730 H 0.69807 0.80092 0.60450
 H731 H 0.68621 0.79026 0.65492
 H732 H 0.74763 0.75559 0.58630
 C733 C 0.75928 0.73708 0.31246
 C734 C 0.77494 0.75749 0.32711
 C735 C 0.76136 0.77585 0.35031
 C736 C 0.77720 0.79366 0.36758
 H737 H 0.79792 0.75961 0.32292
 H738 H 0.73818 0.77422 0.35329
 H739 H 0.73655 0.73457 0.31767
 H740 H 0.80022 0.79541 0.36337
 C741 C 0.28842 0.28686 -0.17094
 C742 C 0.26462 0.29465 -0.15615
 C743 C 0.26509 0.31951 -0.13449
 C744 C 0.24104 0.32743 -0.12006
 H745 H 0.24459 0.28246 -0.15986
 H746 H 0.28551 0.33041 -0.12985
 H747 H 0.30824 0.29949 -0.16743
 H748 H 0.22128 0.31509 -0.12469
 C749 C 0.72059 0.22497 -0.13977
 C750 C 0.73721 0.22896 -0.11603
 C751 C 0.73706 0.20499 -0.09097
 C752 C 0.75327 0.20772 -0.06666
 H753 H 0.75063 0.24971 -0.11503
 H754 H 0.72390 0.18419 -0.09295
 H755 H 0.70712 0.20418 -0.14011
 H756 H 0.76761 0.22769 -0.06560
 C757 C 0.20405 0.73878 0.34549
 C758 C 0.22341 0.73290 0.36759
 C759 C 0.21888 0.70745 0.39070
 C760 C 0.23868 0.70119 0.41243
 H761 H 0.24286 0.74670 0.36855
 H762 H 0.19922 0.69414 0.38971
 H763 H 0.18474 0.72471 0.34465
 H764 H 0.25772 0.71574 0.41276
 C765 C 0.29030 0.72979 0.66280
 C766 C 0.26658 0.72250 0.64754
 C767 C 0.26674 0.69427 0.62956
 C768 C 0.24275 0.68737 0.61442
 H769 H 0.24704 0.73810 0.64751
 H770 H 0.28701 0.68048 0.62764
 H771 H 0.30960 0.71381 0.66322
 H772 H 0.22315 0.70244 0.61661
 C773 C 0.78846 0.23278 0.18242
 C774 C 0.80026 0.20451 0.17530
 C775 C 0.78799 0.18808 0.15053
 C776 C 0.79940 0.15974 0.14297
 H777 H 0.81912 0.19369 0.18743
 H778 H 0.77020 0.20018 0.13775
 H779 H 0.76937 0.24306 0.17029
 H780 H 0.81807 0.14892 0.15544
 C781 C 0.47204 0.39569 0.47898
 C782 C 0.46128 0.39127 0.50571
 C783 C 0.47452 0.36655 0.52695
 C784 C 0.46421 0.36256 0.55395
 H785 H 0.44262 0.40589 0.51200
 H786 H 0.49232 0.35125 0.51994
 H787 H 0.49091 0.38117 0.47305
 H788 H 0.44568 0.37773 0.55973
 C789 C 0.00194 0.91905 -0.02050
 C790 C -0.01187 0.91221 0.00443
 C791 C -0.00273 0.88484 0.02512
 C792 C -0.01789 0.87924 0.04946
 H793 H -0.03082 0.92698 0.00973
 H794 H 0.01548 0.86908 0.01984
 H795 H 0.02112 0.90470 -0.02581
 H796 H -0.03642 0.89542 0.05319
 C797 C -0.00553 0.61307 -0.00599
 C798 C 0.01201 0.61818 0.01686
 C799 C 0.00476 0.64501 0.03551
 C800 C 0.01970 0.64914 0.06036
 H801 H 0.03122 0.60263 0.02203
 H802 H -0.01304 0.66166 0.02829
 H803 H -0.02492 0.62872 -0.00997
 H804 H 0.03795 0.63250 0.06649
 C805 C 0.50939 0.10186 0.51008
 C806 C 0.52454 0.10650 0.53465
 C807 C 0.51587 0.13317 0.55298
 C808 C 0.53103 0.13889 0.57732
 H809 H 0.54344 0.09096 0.54107
 H810 H 0.49741 0.14889 0.54568
 H811 H 0.49049 0.11761 0.50409
 H812 H 0.55023 0.12362 0.58335
 C813 C -0.04757 0.05929 0.50172
 C814 C -0.02391 0.07691 0.50086
 C815 C -0.01945 0.10013 0.47589
 C816 C 0.00400 0.11818 0.47497
 H817 H -0.00783 0.07440 0.51866
 H818 H -0.03558 0.10207 0.45822
 H819 H -0.06345 0.06197 0.48374
 H820 H 0.02022 0.11460 0.49260
 C821 C 0.46455 0.59919 0.98118
 C822 C 0.48726 0.61799 0.97766
 C823 C 0.48664 0.64352 0.95390
 C824 C 0.50923 0.66235 0.94935
 H825 H 0.50617 0.61468 0.99231
 H826 H 0.46689 0.64739 0.94060
 H827 H 0.44595 0.60258 0.96612
 H828 H 0.52821 0.65902 0.96391
 C829 C 0.52866 0.93465 0.99495
 C830 C 0.50601 0.91771 0.98683
 C831 C 0.50807 0.89857 0.96079
 C832 C 0.48598 0.88137 0.95172
 H833 H 0.48634 0.91744 0.99946
 H834 H 0.52864 0.89760 0.94979
 H835 H 0.54784 0.93465 0.98155
 H836 H 0.46605 0.88158 0.96396
 C837 C 0.04211 0.36627 0.53075
 C838 C 0.05746 0.36340 0.50649
 C839 C 0.05283 0.33556 0.48880
 C840 C 0.06269 0.33407 0.46165
 H841 H 0.07167 0.38213 0.49883
 H842 H 0.03997 0.31637 0.49798
 H843 H 0.02745 0.34740 0.53707
 H844 H 0.07674 0.35250 0.45305
 C845 C 0.39695 0.47941 0.44573
 C846 C 0.38421 0.48048 0.47164
 C847 C 0.35854 0.50232 0.47471
 C848 C 0.34661 0.50659 0.50067
 H849 H 0.39309 0.46608 0.49058
 H850 H 0.34936 0.51509 0.45508
 H851 H 0.38809 0.49458 0.42724
 H852 H 0.35518 0.49239 0.51987
 C853 C 0.92999 0.00441 -0.05057
 C854 C 0.91242 -0.00287 -0.02845
 C855 C 0.88604 0.01745 -0.02432
 C856 C 0.86681 0.00935 -0.00394
 H857 H 0.91745 -0.02356 -0.01329
 H858 H 0.88314 0.03971 -0.03774
 H859 H 0.92396 0.02479 -0.06579
 H860 H 0.87098 -0.01277 0.00962
 C861 C 0.58189 0.00393 0.05585
 C862 C 0.60522 0.00240 0.03899
 C863 C 0.63109 0.02105 0.04462
 C864 C 0.65383 0.01923 0.02695
 H865 H 0.60523 -0.01266 0.02045
 H866 H 0.63093 0.03686 0.06255
 H867 H 0.58198 0.01876 0.07453
 H868 H 0.65253 0.00388 0.00866
 C869 C 0.07770 0.47107 0.55455
 C870 C 0.09918 0.47149 0.53534
 C871 C 0.11882 0.49867 0.53366
 C872 C 0.14179 0.49875 0.51620
 H873 H 0.10288 0.45141 0.52163
 H874 H 0.11438 0.51859 0.54728
 H875 H 0.07460 0.49119 0.56835
 H876 H 0.14498 0.47910 0.50189
 C877 C 0.05218 0.52201 -0.04132
 C878 C 0.07608 0.52521 -0.02470
 C879 C 0.10138 0.50236 -0.02675
 C880 C 0.12645 0.50576 -0.01199
 H881 H 0.07727 0.54493 -0.01033
 H882 H 0.09915 0.48237 -0.04060
 H883 H 0.05177 0.50247 -0.05598
 H884 H 0.12774 0.52515 0.00275
 C885 C 0.57262 1.01346 0.48098
 C886 C 0.58160 0.99061 0.46331
 C887 C 0.60911 0.97157 0.47003
 C888 C 0.61865 0.94860 0.45275
 H889 H 0.56896 0.98609 0.44380
 H890 H 0.62170 0.97718 0.48913
 H891 H 0.58577 1.01734 0.50035
 H892 H 0.60574 0.94439 0.43333
 C893 C 0.89308 0.97658 0.54524
 C894 C 0.87353 0.97953 0.52293
 C895 C 0.84912 0.95776 0.52158
 C896 C 0.82922 0.96140 0.49962
 H897 H 0.87565 0.99778 0.50522
 H898 H 0.84831 0.93825 0.53821
 H899 H 0.89025 0.95849 0.56293
 H900 H 0.83135 0.98105 0.48319
 C901 C 0.41311 0.51004 0.02835
 C902 C 0.39053 0.51450 0.00931
 C903 C 0.36577 0.49311 0.01051
 C904 C 0.34289 0.49850 -0.00811
 H905 H 0.39021 0.53416 -0.00741
 H906 H 0.36683 0.47278 0.02644
 H907 H 0.41316 0.49057 0.04523
 H908 H 0.34324 0.51878 -0.02417
 C909 C 0.47641 0.45195 0.38203
 C910 C 0.50234 0.43808 0.37665
 C911 C 0.51740 0.44697 0.34953
 C912 C 0.54446 0.43546 0.34511
 H913 H 0.51305 0.42109 0.39278
 H914 H 0.50621 0.46346 0.33339
 H915 H 0.46614 0.46930 0.36592
 H916 H 0.55460 0.41792 0.36115
 C917 C 0.01276 -0.01060 0.88946
 C918 C 0.03859 -0.02329 0.88229
 C919 C 0.05216 -0.01118 0.85514
 C920 C 0.07821 -0.02261 0.84717
 H921 H 0.04958 -0.04228 0.89625
 H922 H 0.04006 0.00693 0.84120
 H923 H 0.00238 0.00859 0.87522
 H924 H 0.08931 -0.04182 0.86081
 C925 C -0.02067 0.00511 0.59814
 C926 C 0.00241 0.02309 0.60195
 C927 C 0.02180 0.01754 0.62804
 C928 C 0.04443 0.03620 0.63198
 H929 H 0.00716 0.04206 0.58566
 H930 H 0.01718 -0.00170 0.64403
 H931 H -0.02540 -0.01366 0.61463
 H932 H 0.04758 0.05606 0.61602
 C933 C 0.50623 0.54205 0.07049
 C934 C 0.50593 0.51993 0.09292
 C935 C 0.52923 0.51781 0.11571
 C936 C 0.52912 0.49550 0.13806
 H937 H 0.48826 0.50350 0.09473
 H938 H 0.54664 0.53448 0.11384
 H939 H 0.52400 0.55836 0.06892
 H940 H 0.51208 0.47821 0.13855
 C941 C 0.48479 -0.02994 0.08396
 C942 C 0.48571 -0.01386 0.10841
 C943 C 0.46210 -0.01527 0.12964
 C944 C 0.46372 0.00094 0.15402
 H945 H 0.50438 0.00020 0.11318
 H946 H 0.44355 -0.02952 0.12511
 H947 H 0.46610 -0.04399 0.07926
 H948 H 0.48219 0.01589 0.15710
 C949 C 0.99897 0.42111 0.60895
 C950 C 0.99221 0.44776 0.62264
 C951 C 0.96843 0.44822 0.64360
 C952 C 0.95987 0.47569 0.65521
 H953 H 1.00356 0.46970 0.61763
 H954 H 0.95801 0.42592 0.64928
 H955 H 0.98699 0.39953 0.61359
 H956 H 0.97152 0.49729 0.64961
 C957 C 0.95887 0.55874 0.91170
 C958 C 0.96008 0.53561 0.89265
 C959 C 0.93752 0.53419 0.86943
 C960 C 0.93893 0.51087 0.85053
 H961 H 0.97805 0.51777 0.89392
 H962 H 0.91985 0.55230 0.86803
 H963 H 0.94077 0.57642 0.91035
 H964 H 0.95643 0.49250 0.85343
 C965 C 0.48628 0.04930 0.42111
 C966 C 0.48643 0.02483 0.40345
 C967 C 0.46540 0.02584 0.37850
 C968 C 0.46163 0.00034 0.36249
 H969 H 0.50138 0.00410 0.40771
 H970 H 0.45294 0.04820 0.37337
 H971 H 0.47041 0.06923 0.41693
 H972 H 0.47515 -0.02141 0.36757
   
