data_POSCAR
  _audit_creation_date              2014-09-24
  _audit_creation_method            'ToBaCCo'
  _symmetry_space_group_name_H-M    'P1'
  _symmetry_Int_Tables_number       1
  _symmetry_cell_setting            triclinic
  loop_
  _symmetry_equiv_pos_as_xyz
 x,y,z
_cell_length_a 54.6902
_cell_length_b 51.5374
_cell_length_c 16.3096
_cell_angle_alpha 90.000000
_cell_angle_beta 89.999800
_cell_angle_gamma 90.000000
loop_
  _atom_site_label
  _atom_site_type_symbol
  _atom_site_fract_x
  _atom_site_fract_y
  _atom_site_fract_z
O1 O 0.22981 0.27495 0.16712
 O2 O 0.27645 0.22456 0.20164
 O3 O 0.22990 0.22442 0.16704
 O4 O 0.27639 0.27494 0.20169
 O5 O 0.26759 0.27497 0.33391
 O6 O 0.22108 0.22448 0.29917
 O7 O 0.26763 0.22445 0.33384
 O8 O 0.22102 0.27485 0.29934
 Cu9 Cu 0.25400 0.24972 0.17109
 Cu10 Cu 0.24347 0.24969 0.32986
 C11 C 0.21740 0.28338 0.22731
 C12 C 0.28005 0.21603 0.27367
 C13 C 0.21746 0.21593 0.22712
 C14 C 0.27999 0.28345 0.27375
 O15 O 0.73065 0.22487 0.33391
 O16 O 0.77717 0.27536 0.29917
 O17 O 0.73061 0.27539 0.33384
 O18 O 0.77723 0.22498 0.29934
 O19 O 0.76844 0.22489 0.16713
 O20 O 0.72180 0.27528 0.20164
 O21 O 0.76835 0.27542 0.16704
 O22 O 0.72186 0.22490 0.20169
 Cu23 Cu 0.75478 0.25015 0.32986
 Cu24 Cu 0.74425 0.25011 0.17109
 C25 C 0.71826 0.21639 0.27375
 C26 C 0.78079 0.28391 0.22712
 C27 C 0.71820 0.28381 0.27367
 C28 C 0.78085 0.21646 0.22731
 O29 O 0.76844 0.77495 0.83497
 O30 O 0.72180 0.72456 0.80046
 O31 O 0.76835 0.72442 0.83506
 O32 O 0.72186 0.77494 0.80041
 O33 O 0.73065 0.77497 0.66819
 O34 O 0.77717 0.72448 0.70292
 O35 O 0.73061 0.72445 0.66826
 O36 O 0.77723 0.77485 0.70275
 Cu37 Cu 0.74425 0.74972 0.83101
 Cu38 Cu 0.75478 0.74969 0.67224
 C39 C 0.78085 0.78338 0.77479
 C40 C 0.71820 0.71603 0.72843
 C41 C 0.78079 0.71593 0.77498
 C42 C 0.71826 0.78345 0.72835
 O43 O 0.27645 0.77528 0.80046
 O44 O 0.22981 0.72489 0.83497
 O45 O 0.27639 0.72490 0.80040
 O46 O 0.22990 0.77542 0.83506
 O47 O 0.22108 0.77536 0.70292
 O48 O 0.26759 0.72487 0.66819
 O49 O 0.22102 0.72498 0.70275
 O50 O 0.26763 0.77539 0.66826
 Cu51 Cu 0.25400 0.75011 0.83101
 Cu52 Cu 0.24347 0.75015 0.67224
 C53 C 0.28005 0.78381 0.72843
 C54 C 0.21740 0.71646 0.77479
 C55 C 0.27999 0.71639 0.72834
 C56 C 0.21746 0.78391 0.77498
 C57 C 0.97754 -0.04922 -0.07755
 C58 C 0.99986 -0.06069 -0.09843
 C59 C 1.02218 -0.04921 -0.07758
 C60 C 1.02235 -0.02476 -0.03787
 C61 C 0.99986 -0.01244 -0.01842
 C62 C 0.97737 -0.02477 -0.03787
 C63 C 0.95537 -0.01206 -0.01856
 C64 C 0.95537 0.01190 0.02065
 C65 C 0.97737 0.02460 0.03996
 C66 C 0.99986 0.01228 0.02051
 C67 C 1.04435 -0.01206 -0.01855
 C68 C 1.04435 0.01190 0.02064
 C69 C 1.02235 0.02460 0.03997
 C70 C 1.02218 0.04904 0.07968
 C71 C 0.99986 0.06053 0.10053
 C72 C 0.97754 0.04906 0.07965
 H73 H 0.93781 -0.02036 -0.03399
 H74 H 0.93781 0.02020 0.03609
 H75 H 1.06190 -0.02037 -0.03395
 H76 H 1.06190 0.02021 0.03604
 H77 H 0.99987 -0.07958 -0.12782
 H78 H 0.99987 0.07942 0.12991
 C79 C 0.47665 0.45079 0.42240
 C80 C 0.49897 0.43931 0.40156
 C81 C 0.52128 0.45079 0.42244
 C82 C 0.52145 0.47524 0.46214
 C83 C 0.49896 0.48756 0.48159
 C84 C 0.47647 0.47524 0.46212
 C85 C 0.45447 0.48794 0.48144
 C86 C 0.45447 0.51190 0.52066
 C87 C 0.47647 0.52460 0.53998
 C88 C 0.49896 0.51228 0.52051
 C89 C 0.54345 0.48794 0.48145
 C90 C 0.54345 0.51190 0.52065
 C91 C 0.52145 0.52460 0.53996
 C92 C 0.52128 0.54905 0.57966
 C93 C 0.49897 0.56053 0.60054
 C94 C 0.47664 0.54905 0.57969
 H95 H 0.43692 0.47964 0.46599
 H96 H 0.43692 0.52020 0.53610
 H97 H 0.56101 0.47964 0.46602
 H98 H 0.56101 0.52020 0.53608
 H99 H 0.49897 0.42043 0.37216
 H100 H 0.49897 0.57941 0.62994
 C101 C 0.02071 0.54906 -0.07755
 C102 C -0.00162 0.56053 -0.09844
 C103 C -0.02393 0.54904 -0.07758
 C104 C -0.02410 0.52460 -0.03787
 C105 C -0.00161 0.51228 -0.01841
 C106 C 0.02088 0.52460 -0.03786
 C107 C 0.04288 0.51190 -0.01855
 C108 C 0.04288 0.48794 0.02066
 C109 C 0.02088 0.47523 0.03996
 C110 C -0.00161 0.48756 0.02051
 C111 C -0.04610 0.51190 -0.01854
 C112 C -0.04610 0.48794 0.02064
 C113 C -0.02410 0.47524 0.03997
 C114 C -0.02393 0.45079 0.07968
 C115 C -0.00162 0.43931 0.10053
 C116 C 0.02071 0.45078 0.07965
 H117 H 0.06043 0.52020 -0.03399
 H118 H 0.06043 0.47964 0.03609
 H119 H -0.06365 0.52021 -0.03394
 H120 H -0.06365 0.47963 0.03604
 H121 H -0.00162 0.57942 -0.12781
 H122 H -0.00162 0.42042 0.12991
 C123 C 0.47696 0.95079 0.57966
 C124 C 0.49928 0.93931 0.60054
 C125 C 0.52160 0.95079 0.57969
 C126 C 0.52177 0.97524 0.53997
 C127 C 0.49929 0.98756 0.52051
 C128 C 0.47680 0.97524 0.53996
 C129 C 0.45480 0.98794 0.52065
 C130 C 0.45480 1.01190 0.48144
 C131 C 0.47680 1.02460 0.46214
 C132 C 0.49929 1.01228 0.48159
 C133 C 0.54378 0.98794 0.52066
 C134 C 0.54378 1.01190 0.48143
 C135 C 0.52177 1.02460 0.46212
 C136 C 0.52160 1.04905 0.42240
 C137 C 0.49928 1.06053 0.40156
 C138 C 0.47696 1.04905 0.42244
 H139 H 0.43724 0.97964 0.53608
 H140 H 0.43724 1.02020 0.46602
 H141 H 0.56133 0.97964 0.53610
 H142 H 0.56133 1.02020 0.46599
 H143 H 0.49928 0.92043 0.62994
 H144 H 0.49928 1.07941 0.37215
 C145 C 1.16345 0.16204 0.18705
 N146 N 1.17758 0.17057 0.12415
 N147 N 1.19525 0.18789 0.13723
 C148 C 1.19947 0.19729 0.21376
 N149 N 1.18543 0.18860 0.27674
 N150 N 1.16773 0.17133 0.26360
 C151 C 1.14341 0.14367 0.17220
 N152 N 1.12812 0.13670 0.23398
 N153 N 1.10945 0.12070 0.22000
 C154 C 1.10541 0.11102 0.14377
 N155 N 1.12079 0.11785 0.08209
 N156 N 1.13943 0.13391 0.09603
 C157 C 1.08435 0.09408 0.12785
 N158 N 1.08058 0.08392 0.05210
 N159 N 1.06108 0.06917 0.03711
 C160 C 1.04469 0.06392 0.09744
 N161 N 1.04835 0.07429 0.17298
 N162 N 1.06788 0.08899 0.18801
 C163 C 0.66292 0.66151 0.68762
 N164 N 0.66691 0.67118 0.76389
 N165 N 0.68472 0.68832 0.77705
 C166 C 0.69916 0.69645 0.71440
 N167 N 0.69523 0.68671 0.63819
 N168 N 0.67745 0.66953 0.62505
 C169 C 0.64277 0.64327 0.67267
 N170 N 0.63896 0.63328 0.59670
 N171 N 0.62024 0.61734 0.58267
 C172 C 0.60462 0.61085 0.64405
 N173 N 0.60850 0.62076 0.72008
 N174 N 0.62724 0.63666 0.73414
 C175 C 0.58350 0.59400 0.62802
 N176 N 0.56695 0.58904 0.68803
 N177 N 0.54740 0.57438 0.67293
 C178 C 0.54379 0.56393 0.59747
 N179 N 0.56026 0.56906 0.53729
 N180 N 0.57980 0.58375 0.55235
 C181 C -0.16520 0.33780 0.18705
 N182 N -0.17933 0.32926 0.12415
 N183 N -0.19700 0.31195 0.13723
 C184 C -0.20122 0.30255 0.21376
 N185 N -0.18718 0.31124 0.27674
 N186 N -0.16948 0.32851 0.26361
 C187 C -0.14516 0.35617 0.17220
 N188 N -0.12987 0.36313 0.23398
 N189 N -0.11120 0.37914 0.22000
 C190 C -0.10717 0.38882 0.14378
 N191 N -0.12255 0.38199 0.08209
 N192 N -0.14119 0.36593 0.09603
 C193 C -0.08610 0.40576 0.12785
 N194 N -0.08234 0.41592 0.05210
 N195 N -0.06283 0.43067 0.03711
 C196 C -0.04644 0.43591 0.09744
 N197 N -0.05010 0.42555 0.17298
 N198 N -0.06963 0.41085 0.18801
 C199 C 0.33533 0.83833 0.68762
 N200 N 0.33133 0.82866 0.76388
 N201 N 0.31353 0.81151 0.77705
 C202 C 0.29909 0.80339 0.71440
 N203 N 0.30301 0.81313 0.63819
 N204 N 0.32080 0.83031 0.62505
 C205 C 0.35547 0.85657 0.67267
 N206 N 0.35929 0.86655 0.59670
 N207 N 0.37801 0.88250 0.58267
 C208 C 0.39363 0.88899 0.64405
 N209 N 0.38975 0.87908 0.72008
 N210 N 0.37101 0.86318 0.73414
 C211 C 0.41475 0.90584 0.62802
 N212 N 0.43130 0.91079 0.68803
 N213 N 0.45085 0.92545 0.67293
 C214 C 0.45445 0.93591 0.59747
 N215 N 0.43798 0.93078 0.53729
 N216 N 0.41845 0.91608 0.55235
 C217 C -0.16520 0.66204 -0.18495
 N218 N -0.16948 0.67133 -0.26151
 N219 N -0.18718 0.68860 -0.27464
 C220 C -0.20122 0.69729 -0.21166
 N221 N -0.19700 0.68789 -0.13514
 N222 N -0.17933 0.67058 -0.12205
 C223 C -0.14516 0.64367 -0.17010
 N224 N -0.14118 0.63391 -0.09393
 N225 N -0.12254 0.61785 -0.07999
 C226 C -0.10717 0.61102 -0.14168
 N227 N -0.11120 0.62070 -0.21791
 N228 N -0.12987 0.63670 -0.23188
 C229 C -0.08610 0.59408 -0.12575
 N230 N -0.06963 0.58899 -0.18592
 N231 N -0.05010 0.57429 -0.17088
 C232 C -0.04644 0.56392 -0.09534
 N233 N -0.06283 0.56917 -0.03501
 N234 N -0.08233 0.58392 -0.05000
 C235 C 0.33533 1.16151 0.31447
 N236 N 0.33133 1.17118 0.23821
 N237 N 0.31353 1.18832 0.22504
 C238 C 0.29909 1.19645 0.28769
 N239 N 0.30302 1.18671 0.36391
 N240 N 0.32080 1.16953 0.37704
 C241 C 0.35548 1.14327 0.32943
 N242 N 0.35929 1.13328 0.40539
 N243 N 0.37801 1.11734 0.41943
 C244 C 0.39362 1.11085 0.35805
 N245 N 0.38975 1.12076 0.28202
 N246 N 0.37101 1.13666 0.26795
 C247 C 0.41474 1.09400 0.37407
 N248 N 0.43130 1.08904 0.31406
 N249 N 0.45085 1.07438 0.32917
 C250 C 0.45445 1.06393 0.40462
 N251 N 0.43798 1.06905 0.46480
 N252 N 0.41845 1.08375 0.44974
 C253 C 1.16345 -0.16220 -0.18496
 N254 N 1.17758 -0.17074 -0.12205
 N255 N 1.19525 -0.18805 -0.13514
 C256 C 1.19947 -0.19746 -0.21166
 N257 N 1.18543 -0.18876 -0.27464
 N258 N 1.16773 -0.17149 -0.26151
 C259 C 1.14341 -0.14383 -0.17010
 N260 N 1.12812 -0.13687 -0.23188
 N261 N 1.10945 -0.12086 -0.21791
 C262 C 1.10541 -0.11118 -0.14168
 N263 N 1.12079 -0.11801 -0.07999
 N264 N 1.13943 -0.13407 -0.09393
 C265 C 1.08435 -0.09424 -0.12576
 N266 N 1.08058 -0.08408 -0.05000
 N267 N 1.06108 -0.06933 -0.03502
 C268 C 1.04469 -0.06409 -0.09534
 N269 N 1.04835 -0.07445 -0.17088
 N270 N 1.06788 -0.08915 -0.18592
 C271 C 0.66292 0.33833 0.31448
 N272 N 0.67745 0.33031 0.37704
 N273 N 0.69523 0.31313 0.36391
 C274 C 0.69916 0.30339 0.28770
 N275 N 0.68472 0.31152 0.22505
 N276 N 0.66691 0.32866 0.23821
 C277 C 0.64277 0.35657 0.32943
 N278 N 0.62724 0.36318 0.26795
 N279 N 0.60850 0.37908 0.28202
 C280 C 0.60462 0.38899 0.35805
 N281 N 0.62024 0.38250 0.41943
 N282 N 0.63896 0.36656 0.40539
 C283 C 0.58350 0.40584 0.37407
 N284 N 0.57980 0.41608 0.44975
 N285 N 0.56026 0.43078 0.46480
 C286 C 0.54379 0.43591 0.40462
 N287 N 0.54740 0.42546 0.32917
 N288 N 0.56695 0.41080 0.31407
 C289 C 0.83612 -0.16209 -0.18461
 N290 N 0.82158 -0.17006 -0.12202
 N291 N 0.80380 -0.18726 -0.13508
 C292 C 0.79989 -0.19706 -0.21123
 N293 N 0.81435 -0.18898 -0.27389
 N294 N 0.83215 -0.17182 -0.26081
 C295 C 0.85625 -0.14381 -0.16979
 N296 N 0.87178 -0.13722 -0.23130
 N297 N 0.89048 -0.12126 -0.21737
 C298 C 0.89432 -0.11126 -0.14145
 N299 N 0.87871 -0.11773 -0.08002
 N300 N 0.86003 -0.13373 -0.09392
 C301 C 0.91540 -0.09433 -0.12557
 N302 N 0.91906 -0.08398 -0.05002
 N303 N 0.93856 -0.06921 -0.03509
 C304 C 0.95504 -0.06413 -0.09528
 N305 N 0.95148 -0.07469 -0.17061
 N306 N 0.93196 -0.08941 -0.18559
 C307 C 0.33520 0.33804 0.31460
 N308 N 0.32066 0.33002 0.37715
 N309 N 0.30290 0.31281 0.36401
 C310 C 0.29900 0.30305 0.28781
 N311 N 0.31344 0.31118 0.22518
 N312 N 0.33123 0.32835 0.23835
 C313 C 0.35532 0.35631 0.32953
 N314 N 0.37086 0.36291 0.26807
 N315 N 0.38958 0.37886 0.28210
 C316 C 0.39341 0.38883 0.35807
 N317 N 0.37778 0.38235 0.41943
 N318 N 0.35909 0.36636 0.40544
 C319 C 0.41449 0.40574 0.37406
 N320 N 0.41815 0.41605 0.44966
 N321 N 0.43765 0.43079 0.46470
 C322 C 0.45414 0.43590 0.40456
 N323 N 0.45059 0.42538 0.32917
 N324 N 0.43106 0.41067 0.31409
 C325 C 0.16212 0.66193 -0.18461
 N326 N 0.16609 0.67166 -0.26080
 N327 N 0.18389 0.68882 -0.27389
 C328 C 0.19835 0.69690 -0.21123
 N329 N 0.19445 0.68710 -0.13507
 N330 N 0.17667 0.66990 -0.12202
 C331 C 0.14200 0.64365 -0.16979
 N332 N 0.13822 0.63357 -0.09392
 N333 N 0.11953 0.61757 -0.08002
 C334 C 0.10392 0.61110 -0.14145
 N335 N 0.10776 0.62110 -0.21737
 N336 N 0.12647 0.63706 -0.23130
 C337 C 0.08285 0.59417 -0.12557
 N338 N 0.06628 0.58925 -0.18558
 N339 N 0.04677 0.57453 -0.17061
 C340 C 0.04321 0.56397 -0.09528
 N341 N 0.05969 0.56905 -0.03509
 N342 N 0.07918 0.58382 -0.05002
 C343 C 0.66305 1.16180 0.31459
 N344 N 0.66702 1.17149 0.23834
 N345 N 0.68481 1.18865 0.22518
 C346 C 0.69925 1.19679 0.28781
 N347 N 0.69535 1.18703 0.36401
 N348 N 0.67759 1.16982 0.37715
 C349 C 0.64293 1.14352 0.32952
 N350 N 0.63916 1.13348 0.40544
 N351 N 0.62047 1.11749 0.41943
 C352 C 0.60484 1.11101 0.35807
 N353 N 0.60867 1.12098 0.28210
 N354 N 0.62738 1.13692 0.26807
 C355 C 0.58376 1.09410 0.37405
 N356 N 0.56718 1.08917 0.31409
 N357 N 0.54766 1.07446 0.32917
 C358 C 0.54411 1.06394 0.40456
 N359 N 0.56060 1.06905 0.46470
 N360 N 0.58010 1.08379 0.44966
 C361 C 0.16212 0.33791 0.18671
 N362 N 0.17667 0.32993 0.12412
 N363 N 0.19444 0.31274 0.13717
 C364 C 0.19835 0.30294 0.21333
 N365 N 0.18390 0.31102 0.27599
 N366 N 0.16609 0.32818 0.26291
 C367 C 0.14200 0.35619 0.17188
 N368 N 0.12647 0.36277 0.23340
 N369 N 0.10776 0.37874 0.21946
 C370 C 0.10393 0.38874 0.14354
 N371 N 0.11954 0.38227 0.08212
 N372 N 0.13822 0.36627 0.09601
 C373 C 0.08285 0.40567 0.12767
 N374 N 0.07919 0.41602 0.05212
 N375 N 0.05969 0.43079 0.03718
 C376 C 0.04321 0.43587 0.09738
 N377 N 0.04677 0.42531 0.17271
 N378 N 0.06629 0.41059 0.18768
 C379 C 0.66305 0.83804 0.68750
 N380 N 0.67758 0.83002 0.62494
 N381 N 0.69535 0.81281 0.63808
 C382 C 0.69925 0.80305 0.71429
 N383 N 0.68481 0.81119 0.77692
 N384 N 0.66702 0.82835 0.76375
 C385 C 0.64293 0.85631 0.67257
 N386 N 0.62738 0.86291 0.73403
 N387 N 0.60867 0.87886 0.72000
 C388 C 0.60484 0.88883 0.64403
 N389 N 0.62047 0.88235 0.58266
 N390 N 0.63916 0.86636 0.59666
 C391 C 0.58376 0.90574 0.62804
 N392 N 0.58010 0.91605 0.55243
 N393 N 0.56060 0.93079 0.53739
 C394 C 0.54411 0.93590 0.59753
 N395 N 0.54766 0.92538 0.67292
 N396 N 0.56718 0.91067 0.68800
 C397 C 0.83612 0.16193 0.18671
 N398 N 0.82158 0.16990 0.12411
 N399 N 0.80380 0.18710 0.13717
 C400 C 0.79990 0.19690 0.21333
 N401 N 0.81435 0.18881 0.27599
 N402 N 0.83215 0.17166 0.26290
 C403 C 0.85625 0.14365 0.17188
 N404 N 0.87178 0.13706 0.23340
 N405 N 0.89048 0.12110 0.21947
 C406 C 0.89432 0.11110 0.14354
 N407 N 0.87871 0.11757 0.08212
 N408 N 0.86003 0.13357 0.09601
 C409 C 0.91540 0.09417 0.12766
 N410 N 0.91906 0.08382 0.05211
 N411 N 0.93856 0.06905 0.03718
 C412 C 0.95504 0.06397 0.09738
 N413 N 0.95148 0.07453 0.17270
 N414 N 0.93196 0.08925 0.18768
 C415 C 0.33520 0.66180 0.68750
 N416 N 0.32066 0.66982 0.62494
 N417 N 0.30290 0.68703 0.63808
 C418 C 0.29900 0.69679 0.71429
 N419 N 0.31344 0.68865 0.77692
 N420 N 0.33123 0.67149 0.76375
 C421 C 0.35532 0.64352 0.67257
 N422 N 0.37086 0.63693 0.73403
 N423 N 0.38958 0.62098 0.72000
 C424 C 0.39340 0.61101 0.64403
 N425 N 0.37778 0.61749 0.58266
 N426 N 0.35909 0.63348 0.59666
 C427 C 0.41449 0.59410 0.62804
 N428 N 0.41815 0.58379 0.55243
 N429 N 0.43765 0.56905 0.53740
 C430 C 0.45414 0.56394 0.59753
 N431 N 0.45059 0.57446 0.67292
 N432 N 0.43106 0.58916 0.68801
   
