data_POSCAR
  _audit_creation_date              2014-09-24
  _audit_creation_method            'ToBaCCo'
  _symmetry_space_group_name_H-M    'P1'
  _symmetry_Int_Tables_number       1
  _symmetry_cell_setting            triclinic
  loop_
  _symmetry_equiv_pos_as_xyz
 x,y,z
_cell_length_a 29.7281
_cell_length_b 29.6550
_cell_length_c 29.9910
_cell_angle_alpha 89.948100
_cell_angle_beta 89.936000
_cell_angle_gamma 89.928100
loop_
  _atom_site_label
  _atom_site_type_symbol
  _atom_site_fract_x
  _atom_site_fract_y
  _atom_site_fract_z
N1 N 0.27218 0.39555 1.37110
 N2 N 0.27558 0.36385 1.40164
 C3 C 0.24105 0.36785 1.43060
 C4 C 0.21514 0.40401 1.41728
 C5 C 0.23553 0.42087 1.37955
 H6 H 0.23492 0.34594 1.45880
 H7 H 0.22431 0.44906 1.35951
 Cu8 Cu 0.32427 0.31993 1.40010
 Cu9 Cu 0.31478 0.40116 1.32210
 Cu10 Cu 0.40048 0.32202 1.31694
 N11 N 0.37188 0.27503 1.39572
 N12 N 0.40161 0.27603 1.36320
 C13 C 0.43007 0.24091 1.36769
 C14 C 0.41728 0.21696 1.40497
 C15 C 0.38033 0.23915 1.42201
 H16 H 0.45750 0.23309 1.34525
 H17 H 0.36080 0.22949 1.45093
 N18 N 0.39378 0.37114 1.27322
 N19 N 0.36111 0.40133 1.27509
 C20 C 0.36537 0.42996 1.24039
 C21 C 0.40241 0.41700 1.21592
 C22 C 0.41967 0.37977 1.23735
 H23 H 0.34308 0.45786 1.23317
 H24 H 0.44868 0.36026 1.22723
 H25 H 0.33191 0.33354 1.32027
 H26 H 0.36869 0.37131 1.35416
 N27 N 1.22423 0.60514 0.87139
 N28 N 1.22160 0.63759 0.90117
 C29 C 1.25625 0.63362 0.92990
 C30 C 1.28147 0.59675 0.91725
 C31 C 1.26048 0.57942 0.88013
 H32 H 1.26303 0.65605 0.95749
 H33 H 1.27118 0.55069 0.86061
 Cu34 Cu 1.17374 0.68228 0.89849
 Cu35 Cu 1.18140 0.59933 0.82271
 Cu36 Cu 1.09589 0.67893 0.81735
 N37 N 1.12562 0.72664 0.89523
 N38 N 1.09523 0.72524 0.86339
 C39 C 1.06668 0.76026 0.86822
 C40 C 1.08012 0.78448 0.90506
 C41 C 1.11749 0.76260 0.92144
 H42 H 1.03885 0.76788 0.84626
 H43 H 1.13758 0.77260 0.94980
 N44 N 1.10235 0.62943 0.77395
 N45 N 1.13490 0.59910 0.77599
 C46 C 1.13066 0.57038 0.74145
 C47 C 1.09378 0.58337 0.71688
 C48 C 1.07656 0.62077 0.73807
 H49 H 1.15296 0.54246 0.73431
 H50 H 1.04775 0.64044 0.72771
 H51 H 1.16435 0.66690 0.81918
 H52 H 1.12811 0.63027 0.85486
 N53 N 0.72666 -0.10412 0.12793
 N54 N 0.72408 -0.13645 0.09802
 C55 C 0.75887 -0.13255 0.06936
 C56 C 0.78414 -0.09584 0.08222
 C57 C 0.76304 -0.07859 0.11938
 H58 H 0.76565 -0.15483 0.04163
 H59 H 0.77371 -0.04998 0.13903
 Cu60 Cu 0.67576 -0.18061 0.10003
 Cu61 Cu 0.68354 -0.09802 0.17643
 Cu62 Cu 0.59824 -0.17745 0.18176
 N63 N 0.62811 -0.22537 0.10397
 N64 N 0.59785 -0.22391 0.13601
 C65 C 0.56937 -0.25889 0.13146
 C66 C 0.58263 -0.28320 0.09460
 C67 C 0.61990 -0.26137 0.07785
 H68 H 0.54158 -0.26636 0.15356
 H69 H 0.63971 -0.27130 0.04923
 N70 N 0.60428 -0.12788 0.22500
 N71 N 0.63675 -0.09755 0.22302
 C72 C 0.63228 -0.06885 0.25759
 C73 C 0.59532 -0.08192 0.28209
 C74 C 0.57833 -0.11929 0.26083
 H75 H 0.65450 -0.04097 0.26484
 H76 H 0.54960 -0.13904 0.27117
 H77 H 0.66677 -0.16556 0.17952
 H78 H 0.63038 -0.12865 0.14425
 N79 N -0.22447 1.10213 -0.37102
 N80 N -0.22110 1.13387 -0.40153
 C81 C -0.25558 1.12990 -0.43042
 C82 C -0.28146 1.09377 -0.41719
 C83 C -0.26103 1.07686 -0.37950
 H84 H -0.26179 1.15188 -0.45855
 H85 H -0.27228 1.04868 -0.35947
 Cu86 Cu -0.17275 1.17794 -0.40001
 Cu87 Cu -0.18202 1.09665 -0.32197
 Cu88 Cu -0.09690 1.17620 -0.31675
 N89 N -0.12550 1.22299 -0.39558
 N90 N -0.09588 1.22223 -0.36300
 C91 C -0.06783 1.25760 -0.36741
 C92 C -0.08076 1.28147 -0.40470
 C93 C -0.11736 1.25896 -0.42183
 H94 H -0.04062 1.26570 -0.34488
 H95 H -0.13692 1.26850 -0.45074
 N96 N -0.10340 1.12704 -0.27303
 N97 N -0.13584 1.09668 -0.27492
 C98 C -0.13158 1.06818 -0.24010
 C99 C -0.09477 1.08139 -0.21555
 C100 C -0.07768 1.11866 -0.23704
 H101 H -0.15378 1.04027 -0.23281
 H102 H -0.04896 1.13843 -0.22680
 H103 H -0.16550 1.16436 -0.32011
 H104 H -0.12832 1.12672 -0.35389
 N105 N 0.72359 0.60142 0.62741
 N106 N 0.72082 0.63361 0.59729
 C107 C 0.75550 0.62956 0.56853
 C108 C 0.78091 0.59289 0.58146
 C109 C 0.75998 0.57581 0.61883
 H110 H 0.76229 0.65192 0.54083
 H111 H 0.77091 0.54742 0.63873
 Cu112 Cu 0.67299 0.67840 0.59992
 Cu113 Cu 0.68099 0.59606 0.67655
 Cu114 Cu 0.59560 0.67579 0.68160
 N115 N 0.62494 0.72290 0.60305
 N116 N 0.59473 0.72175 0.63514
 C117 C 0.56638 0.75692 0.63035
 C118 C 0.57967 0.78107 0.59334
 C119 C 0.61683 0.75886 0.57678
 H120 H 0.53880 0.76483 0.65257
 H121 H 0.63688 0.76878 0.54830
 N122 N 0.60213 0.62665 0.72548
 N123 N 0.63467 0.59630 0.72365
 C124 C 0.63063 0.56808 0.75873
 C125 C 0.59387 0.58144 0.78340
 C126 C 0.57656 0.61852 0.76170
 H127 H 0.65304 0.54035 0.76620
 H128 H 0.54788 0.63841 0.77202
 H129 H 0.62771 0.62665 0.64444
 H130 H 0.66412 0.66358 0.67946
 N131 N 0.77451 0.39921 0.12858
 N132 N 0.77735 0.36684 0.09871
 C133 C 0.74283 0.37076 0.06983
 C134 C 0.71744 0.40751 0.08240
 C135 C 0.73819 0.42481 0.11971
 H136 H 0.73614 0.34825 0.04227
 H137 H 0.72720 0.45335 0.13935
 Cu138 Cu 0.82503 0.32204 0.10164
 Cu139 Cu 0.81702 0.40478 0.17772
 Cu140 Cu 0.90231 0.32488 0.18312
 N141 N 0.87289 0.27744 0.10494
 N142 N 0.90311 0.27871 0.13693
 C143 C 0.93155 0.24364 0.13216
 C144 C 0.91829 0.21940 0.09527
 C145 C 0.88106 0.24147 0.07874
 H146 H 0.95928 0.23592 0.15421
 H147 H 0.86113 0.23158 0.05024
 N148 N 0.89581 0.37420 0.22669
 N149 N 0.86332 0.40460 0.22480
 C150 C 0.86743 0.43291 0.25974
 C151 C 0.90420 0.41954 0.28437
 C152 C 0.92143 0.38239 0.26279
 H153 H 0.84507 0.46071 0.26714
 H154 H 0.95009 0.36249 0.27311
 H155 H 0.87029 0.37396 0.14581
 H156 H 0.83380 0.33727 0.18110
 N157 N 0.27666 0.10325 0.87091
 N158 N 0.27920 0.13571 0.90067
 C159 C 0.24449 0.13183 0.92940
 C160 C 0.21932 0.09499 0.91679
 C161 C 0.24040 0.07760 0.87967
 H162 H 0.23764 0.15429 0.95698
 H163 H 0.22978 0.04885 0.86020
 Cu164 Cu 0.32710 0.18027 0.89806
 Cu165 Cu 0.31962 0.09736 0.82220
 Cu166 Cu 0.40517 0.17673 0.81702
 N167 N 0.37524 0.22451 0.89492
 N168 N 0.40576 0.22301 0.86313
 C169 C 0.43420 0.25802 0.86798
 C170 C 0.42064 0.28241 0.90473
 C171 C 0.38324 0.26051 0.92106
 H172 H 0.46207 0.26563 0.84603
 H173 H 0.36301 0.27064 0.94933
 N174 N 0.39881 0.12730 0.77353
 N175 N 0.36626 0.09705 0.77548
 C176 C 0.37042 0.06856 0.74070
 C177 C 0.40725 0.08164 0.71604
 C178 C 0.42450 0.11885 0.73745
 H179 H 0.34800 0.04086 0.73337
 H180 H 0.45315 0.13865 0.72701
 H181 H 0.37276 0.12809 0.85444
 H182 H 0.33668 0.16489 0.81876
 N183 N 0.22539 0.89615 0.37275
 N184 N 0.22290 0.86366 0.40256
 C185 C 0.25736 0.86788 0.43150
 C186 C 0.28231 0.90497 0.41896
 C187 C 0.26136 0.92211 0.38167
 H188 H 0.26426 0.84540 0.45907
 H189 H 0.27199 0.95082 0.36206
 Cu190 Cu 0.17548 0.81854 0.39944
 Cu191 Cu 0.18294 0.90164 0.32361
 Cu192 Cu 0.09773 0.82202 0.31821
 N193 N 0.12712 0.77446 0.39647
 N194 N 0.09680 0.77600 0.36456
 C195 C 0.06811 0.74120 0.36947
 C196 C 0.08125 0.71689 0.40640
 C197 C 0.11870 0.73860 0.42279
 H198 H 0.04035 0.73368 0.34743
 H199 H 0.13866 0.72849 0.45122
 N200 N 0.10438 0.87120 0.27445
 N201 N 0.13682 0.90155 0.27645
 C202 C 0.13277 0.92998 0.24156
 C203 C 0.09614 0.91672 0.21679
 C204 C 0.07887 0.87952 0.23826
 H205 H 0.15501 0.95787 0.23435
 H206 H 0.05019 0.85975 0.22789
 H207 H 0.12982 0.87060 0.35574
 H208 H 0.16617 0.83404 0.32007
 Zn209 Zn 0.00856 1.05622 -0.02522
 Zn210 Zn -0.03433 0.96508 -0.03450
 Zn211 Zn 0.05675 0.97450 0.00762
 Zn212 Zn -0.02448 1.00797 0.05559
 O213 O 0.00155 1.00087 0.00079
 O214 O -0.02061 1.06052 -0.07698
 O215 O -0.00606 0.91472 -0.05287
 O216 O 0.10182 1.00849 -0.01334
 O217 O -0.05280 0.99352 -0.08430
 O218 O 0.06603 1.06925 -0.03777
 O219 O 0.06101 0.92223 -0.02147
 O220 O 0.00957 0.98687 0.10022
 O221 O -0.08447 0.94657 -0.00618
 O222 O 0.06986 0.96169 0.06454
 O223 O -0.07654 0.97857 0.06015
 O224 O -0.03722 1.06559 0.06843
 O225 O -0.01261 1.10147 0.00835
 C226 C -0.04491 1.03307 -0.09847
 C227 C 0.03348 0.90048 -0.04540
 C228 C 0.10190 1.04692 -0.03185
 C229 C 0.04778 0.96790 0.10019
 C230 C -0.09841 0.95426 0.03309
 C231 C -0.03128 1.10155 0.04636
 Zn232 Zn 0.47427 0.00805 0.44385
 Zn233 Zn 0.46496 -0.03473 0.53417
 Zn234 Zn 0.55579 -0.02549 0.49125
 Zn235 Zn 0.50795 0.05634 0.52418
 O236 O 0.50066 0.00096 0.49845
 O237 O 0.42211 -0.02128 0.43981
 O238 O 0.49317 -0.08542 0.55198
 O239 O 0.56880 -0.03766 0.43422
 O240 O 0.41435 -0.05283 0.50644
 O241 O 0.50814 -0.01284 0.39897
 O242 O 0.55997 -0.07813 0.51981
 O243 O 0.56547 0.06915 0.53651
 O244 O 0.44725 -0.00628 0.58429
 O245 O 0.60099 0.00813 0.51236
 O246 O 0.47920 0.06077 0.57616
 O247 O 0.48666 0.10162 0.49065
 O248 O 0.46143 0.06563 0.43101
 C249 C 0.40022 -0.04527 0.46721
 C250 C 0.53252 -0.09992 0.54389
 C251 C 0.54654 -0.03143 0.39874
 C252 C 0.60121 0.04655 0.53081
 C253 C 0.45529 0.03332 0.59816
 C254 C 0.46760 0.10163 0.45287
 Zn255 Zn 1.00686 0.44283 0.47526
 Zn256 Zn 1.05544 0.52392 0.50840
 Zn257 Zn 0.96444 0.53439 0.46617
 Zn258 Zn 0.97386 0.49097 0.55612
 O259 O 1.00006 0.49811 0.50140
 O260 O 1.06425 0.42957 0.46240
 O261 O 1.06006 0.57632 0.47960
 O262 O 0.94621 0.50640 0.41608
 O263 O 1.10043 0.48972 0.48737
 O264 O 0.97748 0.43889 0.42359
 O265 O 0.99300 0.58487 0.44837
 O266 O 0.92141 0.51989 0.56036
 O267 O 1.06835 0.53661 0.56533
 O268 O 0.91394 0.55258 0.49425
 O269 O 1.00751 0.51245 0.60075
 O270 O 0.96171 0.43332 0.56923
 O271 O 0.98596 0.39755 0.50896
 C272 C 1.10026 0.45151 0.46847
 C273 C 1.03267 0.59864 0.45595
 C274 C 0.95364 0.46675 0.40197
 C275 C 0.89960 0.54431 0.53328
 C276 C 1.04586 0.53105 0.60082
 C277 C 0.96768 0.39739 0.54715
 Zn278 Zn 0.49209 0.55701 0.97502
 Zn279 Zn 0.53509 0.46585 0.96556
 Zn280 Zn 0.52457 0.50847 1.05579
 Zn281 Zn 0.44372 0.47528 1.00738
 O282 O 0.49895 0.50156 1.00084
 O283 O 0.52108 0.56129 0.92310
 O284 O 0.58550 0.44786 0.99385
 O285 O 0.53736 0.56593 1.06882
 O286 O 0.55322 0.49422 0.91552
 O287 O 0.51353 0.60203 1.00859
 O288 O 0.57674 0.47929 1.06038
 O289 O 0.43020 0.46252 1.06421
 O290 O 0.50711 0.41523 0.94748
 O291 O 0.49029 0.48730 1.10026
 O292 O 0.43971 0.42295 0.97834
 O293 O 0.39875 0.50943 0.98638
 O294 O 0.43464 0.57040 0.96273
 C295 C 0.54522 0.53377 0.90138
 C296 C 0.59913 0.45551 1.03322
 C297 C 0.53194 0.60192 1.04667
 C298 C 0.45202 0.46854 1.09997
 C299 C 0.46753 0.40102 0.95476
 C300 C 0.39875 0.54808 0.96832
 C301 C 1.17641 0.41921 0.43620
 C302 C 1.14180 0.43346 0.45179
 C303 C 0.32246 0.58064 0.93694
 C304 C 0.35715 0.56627 0.95211
 C305 C -0.17488 0.92041 0.06263
 C306 C -0.14012 0.93523 0.04796
 C307 C 0.67757 0.07800 0.56292
 C308 C 0.64287 0.06410 0.54742
 C309 C 0.43571 0.17810 0.42066
 C310 C 0.45104 0.14336 0.43504
 C311 C 0.93709 0.32060 0.57969
 C312 C 0.95181 0.35553 0.56523
 C313 C 0.06228 0.82357 -0.07918
 C314 C 0.04805 0.85853 -0.06431
 C315 C 0.56413 0.67808 1.07889
 C316 C 0.54867 0.64347 1.06451
 C317 C 0.41898 0.43678 1.17539
 C318 C 0.43364 0.45210 1.14110
 C319 C 0.57899 -0.06247 0.32283
 C320 C 0.56458 -0.04746 0.35733
 C321 C -0.07845 1.06215 -0.17468
 C322 C -0.06374 1.04775 -0.14004
 C323 C 1.07762 0.56349 0.67633
 C324 C 1.06352 0.54789 0.64201
 C325 C 0.82231 0.57709 0.56222
 C326 C 0.85743 0.56278 0.54785
 C327 C 0.67621 0.42313 1.06282
 C328 C 0.64120 0.43722 1.04809
 C329 C 0.17830 1.07901 -0.06345
 C330 C 0.14357 1.06483 -0.04819
 C331 C 0.32338 -0.07882 0.43839
 C332 C 0.35826 -0.06413 0.45278
 C333 C 0.56104 -0.17738 0.57691
 C334 C 0.54699 -0.14218 0.56234
 C335 C 1.06212 0.67566 0.42290
 C336 C 1.04760 0.64068 0.43748
 C337 C -0.06252 1.17822 0.07868
 C338 C -0.04753 1.14336 0.06425
 C339 C 0.43929 0.32382 0.92127
 C340 C 0.45324 0.35891 0.93603
 C341 C 0.57796 0.56259 0.82465
 C342 C 0.56363 0.54836 0.85955
 C343 C 0.42306 0.06254 0.67491
 C344 C 0.43717 0.04810 0.64003
 C345 C 0.08002 0.93624 0.17597
 C346 C 0.06577 0.95146 0.14148
 C347 C 0.92029 0.43840 0.32547
 C348 C 0.93488 0.45245 0.36027
   
