data_POSCAR
  _audit_creation_date              2014-09-24
  _audit_creation_method            'ToBaCCo'
  _symmetry_space_group_name_H-M    'P1'
  _symmetry_Int_Tables_number       1
  _symmetry_cell_setting            triclinic
  loop_
  _symmetry_equiv_pos_as_xyz
 x,y,z
_cell_length_a 39.7706
_cell_length_b 39.7706
_cell_length_c 34.9881
_cell_angle_alpha 90.000000
_cell_angle_beta 90.000000
_cell_angle_gamma 90.000000
loop_
  _atom_site_label
  _atom_site_type_symbol
  _atom_site_fract_x
  _atom_site_fract_y
  _atom_site_fract_z
C1 C 0.35272 -0.00002 0.25001
 C2 C 0.14729 -0.00002 0.75001
 C3 C 0.64729 0.49998 0.25001
 C4 C 0.85272 0.49998 0.75001
 C5 C 0.25001 0.39727 1.00001
 C6 C 0.75001 0.10270 1.00001
 C7 C 0.25001 0.60270 0.50001
 C8 C 0.75001 0.89727 0.50001
 C9 C 0.00001 0.24998 0.37501
 C10 C 0.00001 0.74998 0.12501
 C11 C 0.50001 0.24998 0.62501
 C12 C 0.50001 0.74998 0.87501
 C13 C -0.24999 0.60270 1.00001
 C14 C -0.24999 0.39727 0.50001
 C15 C 0.25001 -0.10273 0.00001
 C16 C 0.25001 1.10270 0.50001
 C17 C 0.14729 0.49998 0.25001
 C18 C -0.14728 0.99998 0.25001
 C19 C 0.35272 0.49998 -0.24999
 C20 C 0.64729 -0.00002 -0.24999
 C21 C 0.00001 0.24998 0.87501
 C22 C 0.50001 0.24998 0.12501
 C23 C 0.00001 0.74998 0.62501
 C24 C 0.50001 0.74998 0.37501
 B25 B -0.01990 0.01802 1.03297
 B26 B -0.03743 0.00963 0.99077
 B27 B -0.00729 0.03874 0.99405
 B28 B 0.02127 0.02611 1.02679
 B29 B 0.00800 -0.01216 1.04342
 B30 B -0.02890 -0.02203 1.02106
 B31 B 0.01991 -0.01805 0.96704
 B32 B 0.03744 -0.00966 1.00924
 B33 B 0.00730 -0.03878 1.00596
 B34 B -0.02126 -0.02614 0.97322
 B35 B -0.00799 0.01212 0.95659
 B36 B 0.02891 0.02200 0.97896
 B37 B 0.48010 0.51802 0.53297
 B38 B 0.46257 0.50963 0.49077
 B39 B 0.49271 0.53874 0.49405
 B40 B 0.52127 0.52611 0.52679
 B41 B 0.50800 0.48784 0.54342
 B42 B 0.47110 0.47797 0.52106
 B43 B 0.51991 0.48195 0.46704
 B44 B 0.53744 0.49034 0.50924
 B45 B 0.50730 0.46122 0.50596
 B46 B 0.47874 0.47386 0.47322
 B47 B 0.49201 0.51212 0.45659
 B48 B 0.52891 0.52200 0.47896
 B49 B 0.51991 0.98195 0.53297
 B50 B 0.53744 0.99034 0.49077
 B51 B 0.50730 0.96122 0.49405
 B52 B 0.47874 0.97386 0.52679
 B53 B 0.49201 1.01212 0.54342
 B54 B 0.52891 1.02200 0.52106
 B55 B 0.48010 1.01802 0.46704
 B56 B 0.46257 1.00963 0.50924
 B57 B 0.49271 1.03874 0.50596
 B58 B 0.52127 1.02611 0.47323
 B59 B 0.50800 0.98784 0.45660
 B60 B 0.47110 0.97797 0.47896
 B61 B 0.01991 0.48195 1.03297
 B62 B 0.03744 0.49034 0.99077
 B63 B 0.00730 0.46122 0.99405
 B64 B -0.02126 0.47386 1.02679
 B65 B -0.00799 0.51212 1.04342
 B66 B 0.02891 0.52200 1.02106
 B67 B -0.01990 0.51802 0.96704
 B68 B -0.03743 0.50963 1.00924
 B69 B -0.00729 0.53874 1.00596
 B70 B 0.02127 0.52611 0.97323
 B71 B 0.00800 0.48784 0.95660
 B72 B -0.02890 0.47797 0.97896
 B73 B 0.01991 0.51802 0.46704
 B74 B 0.03744 0.50963 0.50924
 B75 B 0.00730 0.53874 0.50596
 B76 B -0.02126 0.52611 0.47322
 B77 B -0.00799 0.48784 0.45659
 B78 B 0.02891 0.47797 0.47896
 B79 B -0.01990 0.48195 0.53297
 B80 B -0.03743 0.49034 0.49077
 B81 B -0.00729 0.46122 0.49405
 B82 B 0.02127 0.47386 0.52679
 B83 B 0.00800 0.51212 0.54342
 B84 B -0.02890 0.52200 0.52106
 B85 B 0.51991 0.01802 -0.03296
 B86 B 0.53744 0.00963 0.00924
 B87 B 0.50730 0.03874 0.00596
 B88 B 0.47874 0.02611 -0.02678
 B89 B 0.49201 -0.01216 -0.04341
 B90 B 0.52891 -0.02203 -0.02104
 B91 B 0.48010 -0.01805 0.03297
 B92 B 0.46257 -0.00966 -0.00923
 B93 B 0.49271 -0.03878 -0.00595
 B94 B 0.52127 -0.02614 0.02679
 B95 B 0.50800 0.01212 0.04342
 B96 B 0.47110 0.02200 0.02106
 B97 B 0.48010 0.48195 -0.03296
 B98 B 0.46257 0.49034 0.00924
 B99 B 0.49271 0.46122 0.00596
 B100 B 0.52127 0.47386 -0.02677
 B101 B 0.50800 0.51212 -0.04340
 B102 B 0.47110 0.52200 -0.02104
 B103 B 0.51991 0.51802 0.03297
 B104 B 0.53744 0.50963 -0.00923
 B105 B 0.50730 0.53874 -0.00595
 B106 B 0.47874 0.52611 0.02679
 B107 B 0.49201 0.48784 0.04342
 B108 B 0.52891 0.47797 0.02106
 B109 B -0.01990 0.98195 0.46704
 B110 B -0.03743 0.99034 0.50924
 B111 B -0.00729 0.96122 0.50596
 B112 B 0.02127 0.97386 0.47323
 B113 B 0.00800 1.01212 0.45660
 B114 B -0.02890 1.02200 0.47896
 B115 B 0.01991 1.01802 0.53297
 B116 B 0.03744 1.00963 0.49077
 B117 B 0.00730 1.03874 0.49405
 B118 B -0.02126 1.02611 0.52679
 B119 B -0.00799 0.98784 0.54342
 B120 B 0.02891 0.97797 0.52106
 B121 B 0.76804 0.23008 0.21704
 B122 B 0.75965 0.21255 0.25924
 B123 B 0.78877 0.24269 0.25596
 B124 B 0.77613 0.27125 0.22322
 B125 B 0.73787 0.25798 0.20659
 B126 B 0.72799 0.22108 0.22896
 B127 B 0.73198 0.26989 0.28297
 B128 B 0.74036 0.28742 0.24077
 B129 B 0.71125 0.25728 0.24405
 B130 B 0.72388 0.22872 0.27679
 B131 B 0.76215 0.24199 0.29342
 B132 B 0.77202 0.27889 0.27106
 B133 B 0.73198 0.76989 0.71704
 B134 B 0.74036 0.78742 0.75924
 B135 B 0.71125 0.75728 0.75596
 B136 B 0.72388 0.72872 0.72323
 B137 B 0.76215 0.74199 0.70660
 B138 B 0.77202 0.77889 0.72896
 B139 B 0.76804 0.73008 0.78297
 B140 B 0.75965 0.71255 0.74077
 B141 B 0.78877 0.74269 0.74405
 B142 B 0.77613 0.77125 0.77679
 B143 B 0.73787 0.75798 0.79342
 B144 B 0.72799 0.72108 0.77106
 B145 B 0.26804 0.26989 0.78297
 B146 B 0.25965 0.28742 0.74077
 B147 B 0.28877 0.25728 0.74405
 B148 B 0.27613 0.22872 0.77679
 B149 B 0.23787 0.24199 0.79342
 B150 B 0.22799 0.27889 0.77106
 B151 B 0.23198 0.23008 0.71704
 B152 B 0.24036 0.21255 0.75924
 B153 B 0.21125 0.24269 0.75596
 B154 B 0.22388 0.27125 0.72323
 B155 B 0.26215 0.25798 0.70659
 B156 B 0.27202 0.22108 0.72896
 B157 B 0.23198 0.73008 0.28297
 B158 B 0.24036 0.71255 0.24077
 B159 B 0.21125 0.74269 0.24405
 B160 B 0.22388 0.77125 0.27679
 B161 B 0.26215 0.75798 0.29342
 B162 B 0.27202 0.72108 0.27106
 B163 B 0.26804 0.76989 0.21704
 B164 B 0.25965 0.78742 0.25924
 B165 B 0.28877 0.75728 0.25596
 B166 B 0.27613 0.72872 0.22323
 B167 B 0.23787 0.74199 0.20659
 B168 B 0.22799 0.77889 0.22896
 B169 B 0.26804 0.73008 0.71704
 B170 B 0.25965 0.71255 0.75924
 B171 B 0.28877 0.74269 0.75596
 B172 B 0.27613 0.77125 0.72322
 B173 B 0.23787 0.75798 0.70659
 B174 B 0.22799 0.72108 0.72896
 B175 B 0.23198 0.76989 0.78297
 B176 B 0.24036 0.78742 0.74077
 B177 B 0.21125 0.75728 0.74405
 B178 B 0.22388 0.72872 0.77679
 B179 B 0.26215 0.74199 0.79342
 B180 B 0.27202 0.77889 0.77106
 B181 B 0.23198 0.26989 0.21704
 B182 B 0.24036 0.28742 0.25924
 B183 B 0.21125 0.25728 0.25596
 B184 B 0.22388 0.22872 0.22323
 B185 B 0.26215 0.24199 0.20660
 B186 B 0.27202 0.27889 0.22896
 B187 B 0.26804 0.23008 0.28297
 B188 B 0.25965 0.21255 0.24077
 B189 B 0.28877 0.24269 0.24405
 B190 B 0.27613 0.27125 0.27679
 B191 B 0.23787 0.25798 0.29342
 B192 B 0.22799 0.22108 0.27106
 B193 B 0.76804 0.76989 0.28297
 B194 B 0.75965 0.78742 0.24077
 B195 B 0.78877 0.75728 0.24405
 B196 B 0.77613 0.72872 0.27679
 B197 B 0.73787 0.74199 0.29342
 B198 B 0.72799 0.77889 0.27106
 B199 B 0.73198 0.73008 0.21704
 B200 B 0.74036 0.71255 0.25924
 B201 B 0.71125 0.74269 0.25596
 B202 B 0.72388 0.77125 0.22323
 B203 B 0.76215 0.75798 0.20659
 B204 B 0.77202 0.72108 0.22896
 B205 B 0.73198 0.23008 0.78297
 B206 B 0.74036 0.21255 0.74077
 B207 B 0.71125 0.24269 0.74405
 B208 B 0.72388 0.27125 0.77679
 B209 B 0.76215 0.25798 0.79342
 B210 B 0.77202 0.22108 0.77106
 B211 B 0.76804 0.26989 0.71704
 B212 B 0.75965 0.28742 0.75924
 B213 B 0.78877 0.25728 0.75596
 B214 B 0.77613 0.22872 0.72322
 B215 B 0.73787 0.24199 0.70659
 B216 B 0.72799 0.27889 0.72896
 C217 C 0.37369 1.00974 0.28250
 C218 C 0.39006 1.01839 0.30973
 C219 C 0.40869 1.02760 0.34230
 C220 C 0.42462 1.03310 0.37083
 C221 C 0.44351 1.03517 0.40472
 C222 C 0.45986 1.03175 0.43334
 C223 C -0.12631 0.50974 0.78250
 C224 C -0.10994 0.51839 0.80973
 C225 C -0.09131 0.52760 0.84230
 C226 C -0.07538 0.53310 0.87083
 C227 C -0.05649 0.53517 0.90472
 C228 C -0.04014 0.53175 0.93334
 C229 C 0.12632 -0.00977 0.78250
 C230 C 0.10995 -0.01842 0.80973
 C231 C 0.09133 -0.02763 0.84230
 C232 C 0.07540 -0.03313 0.87083
 C233 C 0.05650 -0.03520 0.90472
 C234 C 0.04016 -0.03178 0.93334
 C235 C 0.62632 0.49023 0.28250
 C236 C 0.60995 0.48158 0.30973
 C237 C 0.59133 0.47237 0.34230
 C238 C 0.57540 0.46687 0.37083
 C239 C 0.55650 0.46480 0.40472
 C240 C 0.54016 0.46822 0.43334
 C241 C 0.62632 0.50974 0.21751
 C242 C 0.60995 0.51839 0.19028
 C243 C 0.59133 0.52760 0.15771
 C244 C 0.57540 0.53310 0.12918
 C245 C 0.55650 0.53517 0.09530
 C246 C 0.54016 0.53175 0.06667
 C247 C 0.12632 1.00974 0.71751
 C248 C 0.10995 1.01839 0.69028
 C249 C 0.09133 1.02760 0.65771
 C250 C 0.07540 1.03310 0.62918
 C251 C 0.05650 1.03517 0.59529
 C252 C 0.04016 1.03175 0.56667
 C253 C -0.12631 0.49023 0.71751
 C254 C -0.10994 0.48158 0.69028
 C255 C -0.09131 0.47237 0.65771
 C256 C -0.07538 0.46687 0.62918
 C257 C -0.05648 0.46480 0.59529
 C258 C -0.04014 0.46822 0.56667
 C259 C 0.37369 -0.00977 0.21751
 C260 C 0.39006 -0.01842 0.19028
 C261 C 0.40869 -0.02763 0.15771
 C262 C 0.42462 -0.03313 0.12918
 C263 C 0.44352 -0.03520 0.09529
 C264 C 0.45986 -0.03178 0.06667
 C265 C 0.27890 0.41803 0.01018
 C266 C 0.30450 0.43319 0.01632
 C267 C 0.33603 0.44864 0.02065
 C268 C 0.36396 0.46008 0.02184
 C269 C 0.39730 0.47166 0.02038
 C270 C 0.42604 0.48042 0.01687
 C271 C -0.22110 0.91803 0.51018
 C272 C -0.19550 0.93319 0.51632
 C273 C -0.16397 0.94864 0.52065
 C274 C -0.13604 0.96008 0.52184
 C275 C -0.10270 0.97166 0.52038
 C276 C -0.07396 0.98042 0.51687
 C277 C -0.22110 0.08194 0.98983
 C278 C -0.19550 0.06678 0.98369
 C279 C -0.16397 0.05133 0.97936
 C280 C -0.13604 0.03988 0.97817
 C281 C -0.10270 0.02830 0.97963
 C282 C -0.07396 0.01955 0.98314
 C283 C 0.27890 0.58194 0.48983
 C284 C 0.30450 0.56678 0.48369
 C285 C 0.33603 0.55133 0.47936
 C286 C 0.36396 0.53988 0.47817
 C287 C 0.39730 0.52830 0.47963
 C288 C 0.42604 0.51955 0.48314
 C289 C 0.22111 0.58194 0.51018
 C290 C 0.19551 0.56678 0.51632
 C291 C 0.16398 0.55133 0.52065
 C292 C 0.13605 0.53988 0.52184
 C293 C 0.10271 0.52830 0.52038
 C294 C 0.07397 0.51955 0.51687
 C295 C 0.72111 0.08194 0.01018
 C296 C 0.69551 0.06678 0.01632
 C297 C 0.66398 0.05133 0.02065
 C298 C 0.63605 0.03988 0.02184
 C299 C 0.60271 0.02830 0.02038
 C300 C 0.57397 0.01955 0.01687
 C301 C 0.72111 0.91803 0.48983
 C302 C 0.69551 0.93319 0.48369
 C303 C 0.66398 0.94864 0.47936
 C304 C 0.63605 0.96008 0.47817
 C305 C 0.60271 0.97166 0.47963
 C306 C 0.57397 0.98042 0.48314
 C307 C 0.22111 0.41803 0.98983
 C308 C 0.19551 0.43319 0.98369
 C309 C 0.16398 0.44864 0.97936
 C310 C 0.13605 0.46008 0.97817
 C311 C 0.10271 0.47166 0.97963
 C312 C 0.07397 0.48042 0.98314
 C313 C -0.00443 0.28010 0.39924
 C314 C -0.00782 0.30539 0.41823
 C315 C -0.01119 0.33581 0.43927
 C316 C -0.01317 0.36252 0.45579
 C317 C -0.01397 0.39492 0.47295
 C318 C -0.01276 0.42350 0.48484
 C319 C 0.49557 -0.21990 -0.10076
 C320 C 0.49218 -0.19461 -0.08177
 C321 C 0.48881 -0.16419 -0.06073
 C322 C 0.48683 -0.13748 -0.04421
 C323 C 0.48603 -0.10508 -0.02705
 C324 C 0.48724 -0.07650 -0.01516
 C325 C 0.00444 -0.21990 1.10078
 C326 C 0.00784 -0.19461 1.08178
 C327 C 0.01121 -0.16419 1.06074
 C328 C 0.01319 -0.13748 1.04423
 C329 C 0.01399 -0.10508 1.02706
 C330 C 0.01278 -0.07650 1.01517
 C331 C 0.50444 0.28010 0.60078
 C332 C 0.50784 0.30539 0.58178
 C333 C 0.51121 0.33581 0.56074
 C334 C 0.51319 0.36252 0.54423
 C335 C 0.51399 0.39492 0.52706
 C336 C 0.51278 0.42350 0.51517
 C337 C 0.49557 1.21986 0.60078
 C338 C 0.49218 1.19457 0.58178
 C339 C 0.48881 1.16416 0.56074
 C340 C 0.48683 1.13744 0.54423
 C341 C 0.48603 1.10505 0.52706
 C342 C 0.48724 1.07647 0.51517
 C343 C -0.00443 0.71986 1.10078
 C344 C -0.00782 0.69457 1.08178
 C345 C -0.01119 0.66416 1.06074
 C346 C -0.01317 0.63744 1.04423
 C347 C -0.01397 0.60505 1.02706
 C348 C -0.01276 0.57647 1.01517
 C349 C 0.50444 0.71986 -0.10076
 C350 C 0.50784 0.69457 -0.08177
 C351 C 0.51121 0.66416 -0.06073
 C352 C 0.51319 0.63744 -0.04421
 C353 C 0.51399 0.60505 -0.02705
 C354 C 0.51278 0.57647 -0.01516
 C355 C 0.00444 1.21986 0.39924
 C356 C 0.00784 1.19457 0.41823
 C357 C 0.01121 1.16416 0.43927
 C358 C 0.01319 1.13744 0.45579
 C359 C 0.01399 1.10505 0.47295
 C360 C 0.01278 1.07647 0.48484
 C361 C 0.75976 0.62367 0.96751
 C362 C 0.76841 0.64004 0.94028
 C363 C 0.77762 0.65866 0.90771
 C364 C 0.78312 0.67459 0.87918
 C365 C 0.78519 0.69349 0.84529
 C366 C 0.78177 0.70983 0.81667
 C367 C 0.25976 0.12367 0.46751
 C368 C 0.26841 0.14004 0.44028
 C369 C 0.27762 0.15866 0.40771
 C370 C 0.28312 0.17459 0.37918
 C371 C 0.28519 0.19349 0.34529
 C372 C 0.28177 0.20983 0.31667
 C373 C 0.74025 0.37630 0.46751
 C374 C 0.73160 0.35993 0.44028
 C375 C 0.72239 0.34131 0.40771
 C376 C 0.71689 0.32538 0.37918
 C377 C 0.71482 0.30648 0.34529
 C378 C 0.71824 0.29013 0.31667
 C379 C 0.24025 0.87630 0.96751
 C380 C 0.23160 0.85993 0.94028
 C381 C 0.22239 0.84131 0.90771
 C382 C 0.21689 0.82538 0.87918
 C383 C 0.21482 0.80648 0.84529
 C384 C 0.21824 0.79013 0.81667
 C385 C 0.25976 0.87630 0.03250
 C386 C 0.26841 0.85993 0.05973
 C387 C 0.27762 0.84131 0.09230
 C388 C 0.28312 0.82538 0.12083
 C389 C 0.28519 0.80648 0.15472
 C390 C 0.28177 0.79013 0.18334
 C391 C 0.75976 0.37630 0.53250
 C392 C 0.76841 0.35993 0.55973
 C393 C 0.77762 0.34131 0.59230
 C394 C 0.78312 0.32538 0.62083
 C395 C 0.78519 0.30648 0.65472
 C396 C 0.78177 0.29013 0.68334
 C397 C 0.24025 0.12367 0.53250
 C398 C 0.23160 0.14004 0.55973
 C399 C 0.22239 0.15866 0.59230
 C400 C 0.21689 0.17459 0.62083
 C401 C 0.21482 0.19349 0.65472
 C402 C 0.21824 0.20983 0.68334
 C403 C 0.74025 0.62367 0.03250
 C404 C 0.73160 0.64004 0.05973
 C405 C 0.72239 0.65866 0.09230
 C406 C 0.71689 0.67459 0.12083
 C407 C 0.71482 0.69349 0.15472
 C408 C 0.71824 0.70983 0.18334
 C409 C 0.16805 0.52888 0.23983
 C410 C 0.18321 0.55448 0.23369
 C411 C 0.19866 0.58601 0.22936
 C412 C 0.21011 0.61394 0.22817
 C413 C 0.22169 0.64728 0.22963
 C414 C 0.23044 0.67602 0.23314
 C415 C 0.66805 0.02888 0.73983
 C416 C 0.68321 0.05448 0.73369
 C417 C 0.69866 0.08601 0.72936
 C418 C 0.71011 0.11394 0.72817
 C419 C 0.72169 0.14728 0.72963
 C420 C 0.73044 0.17602 0.73314
 C421 C 0.83196 0.02888 0.26018
 C422 C 0.81681 0.05448 0.26632
 C423 C 0.80135 0.08601 0.27065
 C424 C 0.78991 0.11394 0.27184
 C425 C 0.77833 0.14728 0.27038
 C426 C 0.76958 0.17602 0.26687
 C427 C 0.33196 0.52888 0.76018
 C428 C 0.31681 0.55448 0.76632
 C429 C 0.30135 0.58601 0.77065
 C430 C 0.28991 0.61394 0.77184
 C431 C 0.27833 0.64728 0.77038
 C432 C 0.26958 0.67602 0.76687
 C433 C 0.33196 0.47109 0.73983
 C434 C 0.31681 0.44549 0.73369
 C435 C 0.30135 0.41396 0.72936
 C436 C 0.28991 0.38603 0.72817
 C437 C 0.27833 0.35269 0.72963
 C438 C 0.26958 0.32395 0.73314
 C439 C 0.83196 0.97109 0.23983
 C440 C 0.81681 0.94549 0.23369
 C441 C 0.80135 0.91396 0.22936
 C442 C 0.78991 0.88603 0.22817
 C443 C 0.77833 0.85269 0.22963
 C444 C 0.76958 0.82395 0.23314
 C445 C 0.66805 0.97109 0.76018
 C446 C 0.68321 0.94549 0.76632
 C447 C 0.69866 0.91396 0.77065
 C448 C 0.71011 0.88603 0.77184
 C449 C 0.72169 0.85269 0.77038
 C450 C 0.73044 0.82395 0.76687
 C451 C 0.16805 0.47109 0.26018
 C452 C 0.18321 0.44549 0.26632
 C453 C 0.19866 0.41396 0.27065
 C454 C 0.21011 0.38603 0.27184
 C455 C 0.22169 0.35269 0.27038
 C456 C 0.23044 0.32395 0.26687
 C457 C 0.03013 0.24555 0.85078
 C458 C 0.05542 0.24216 0.83178
 C459 C 0.08584 0.23878 0.81074
 C460 C 0.11255 0.23681 0.79423
 C461 C 0.14494 0.23600 0.77706
 C462 C 0.17352 0.23721 0.76517
 C463 C 0.53013 0.74555 0.35078
 C464 C 0.55542 0.74216 0.33178
 C465 C 0.58584 0.73878 0.31074
 C466 C 0.61255 0.73681 0.29423
 C467 C 0.64494 0.73600 0.27706
 C468 C 0.67352 0.73721 0.26517
 C469 C 0.53013 0.25442 0.14924
 C470 C 0.55542 0.25781 0.16823
 C471 C 0.58584 0.26118 0.18927
 C472 C 0.61255 0.26316 0.20579
 C473 C 0.64494 0.26396 0.22295
 C474 C 0.67352 0.26275 0.23484
 C475 C 0.03013 0.75442 0.64924
 C476 C 0.05542 0.75781 0.66823
 C477 C 0.08584 0.76118 0.68927
 C478 C 0.11255 0.76316 0.70579
 C479 C 0.14494 0.76396 0.72295
 C480 C 0.17352 0.76275 0.73484
 C481 C 0.96989 0.74555 0.64924
 C482 C 0.94460 0.74216 0.66823
 C483 C 0.91418 0.73878 0.68927
 C484 C 0.88747 0.73681 0.70579
 C485 C 0.85507 0.73600 0.72295
 C486 C 0.82649 0.73721 0.73484
 C487 C 0.46989 0.24555 0.14924
 C488 C 0.44460 0.24216 0.16823
 C489 C 0.41418 0.23878 0.18927
 C490 C 0.38747 0.23681 0.20579
 C491 C 0.35507 0.23600 0.22295
 C492 C 0.32649 0.23721 0.23484
 C493 C 0.46989 0.75442 0.35078
 C494 C 0.44460 0.75781 0.33178
 C495 C 0.41418 0.76118 0.31074
 C496 C 0.38747 0.76316 0.29423
 C497 C 0.35507 0.76396 0.27706
 C498 C 0.32649 0.76275 0.26517
 C499 C 0.96989 0.25442 0.85078
 C500 C 0.94460 0.25781 0.83178
 C501 C 0.91418 0.26118 0.81074
 C502 C 0.88747 0.26316 0.79423
 C503 C 0.85507 0.26396 0.77706
 C504 C 0.82649 0.26275 0.76517
 C505 C 0.62632 0.99023 0.71751
 C506 C 0.60995 0.98158 0.69028
 C507 C 0.59133 0.97237 0.65771
 C508 C 0.57540 0.96687 0.62918
 C509 C 0.55650 0.96480 0.59529
 C510 C 0.54016 0.96822 0.56667
 C511 C 0.12632 0.49023 1.21751
 C512 C 0.10995 0.48158 1.19028
 C513 C 0.09133 0.47237 1.15771
 C514 C 0.07540 0.46687 1.12918
 C515 C 0.05650 0.46480 1.09529
 C516 C 0.04016 0.46822 1.06667
 C517 C -0.12631 0.00974 1.21751
 C518 C -0.10994 0.01839 1.19028
 C519 C -0.09131 0.02760 1.15771
 C520 C -0.07538 0.03310 1.12918
 C521 C -0.05648 0.03517 1.09529
 C522 C -0.04014 0.03175 1.06667
 C523 C 0.37369 0.50974 0.71751
 C524 C 0.39006 0.51839 0.69028
 C525 C 0.40869 0.52760 0.65771
 C526 C 0.42462 0.53310 0.62918
 C527 C 0.44352 0.53517 0.59529
 C528 C 0.45986 0.53175 0.56667
 C529 C 0.37369 0.49023 -0.21750
 C530 C 0.39006 0.48158 -0.19027
 C531 C 0.40869 0.47237 -0.15770
 C532 C 0.42462 0.46687 -0.12917
 C533 C 0.44352 0.46480 -0.09528
 C534 C 0.45986 0.46822 -0.06666
 C535 C -0.12631 0.99023 0.28250
 C536 C -0.10994 0.98158 0.30973
 C537 C -0.09131 0.97237 0.34230
 C538 C -0.07538 0.96687 0.37083
 C539 C -0.05648 0.96480 0.40472
 C540 C -0.04014 0.96822 0.43334
 C541 C 0.12632 0.50974 0.28250
 C542 C 0.10995 0.51839 0.30973
 C543 C 0.09133 0.52760 0.34230
 C544 C 0.07540 0.53310 0.37083
 C545 C 0.05650 0.53517 0.40472
 C546 C 0.04016 0.53175 0.43334
 C547 C 0.62632 0.00974 -0.21750
 C548 C 0.60995 0.01839 -0.19027
 C549 C 0.59133 0.02760 -0.15770
 C550 C 0.57540 0.03310 -0.12917
 C551 C 0.55650 0.03517 -0.09528
 C552 C 0.54016 0.03175 -0.06666
 C553 C 0.72111 0.58194 -0.01017
 C554 C 0.69551 0.56678 -0.01631
 C555 C 0.66398 0.55133 -0.02064
 C556 C 0.63605 0.53988 -0.02183
 C557 C 0.60271 0.52830 -0.02037
 C558 C 0.57397 0.51955 -0.01686
 C559 C 0.22111 1.08194 0.48983
 C560 C 0.19551 1.06678 0.48369
 C561 C 0.16398 1.05133 0.47936
 C562 C 0.13605 1.03988 0.47817
 C563 C 0.10271 1.02830 0.47963
 C564 C 0.07397 1.01955 0.48314
 C565 C 0.22111 -0.08197 1.01018
 C566 C 0.19551 -0.06681 1.01632
 C567 C 0.16398 -0.05136 1.02065
 C568 C 0.13605 -0.03992 1.02184
 C569 C 0.10271 -0.02834 1.02038
 C570 C 0.07397 -0.01958 1.01687
 C571 C 0.72111 0.41803 0.51018
 C572 C 0.69551 0.43319 0.51632
 C573 C 0.66398 0.44864 0.52065
 C574 C 0.63605 0.46008 0.52184
 C575 C 0.60271 0.47166 0.52038
 C576 C 0.57397 0.48042 0.51687
 C577 C -0.22110 0.41803 0.48983
 C578 C -0.19550 0.43319 0.48369
 C579 C -0.16397 0.44864 0.47936
 C580 C -0.13604 0.46008 0.47817
 C581 C -0.10270 0.47166 0.47963
 C582 C -0.07396 0.48042 0.48314
 C583 C 0.27890 -0.08197 -0.01017
 C584 C 0.30450 -0.06681 -0.01631
 C585 C 0.33603 -0.05136 -0.02064
 C586 C 0.36396 -0.03992 -0.02183
 C587 C 0.39730 -0.02834 -0.02037
 C588 C 0.42604 -0.01958 -0.01686
 C589 C 0.27890 1.08194 0.51018
 C590 C 0.30450 1.06678 0.51632
 C591 C 0.33603 1.05133 0.52065
 C592 C 0.36396 1.03988 0.52184
 C593 C 0.39730 1.02830 0.52038
 C594 C 0.42604 1.01955 0.51687
 C595 C -0.22110 0.58194 1.01018
 C596 C -0.19550 0.56678 1.01632
 C597 C -0.16397 0.55133 1.02065
 C598 C -0.13604 0.53988 1.02184
 C599 C -0.10270 0.52830 1.02038
 C600 C -0.07396 0.51955 1.01687
 C601 C 0.00444 0.71986 0.60078
 C602 C 0.00784 0.69457 0.58178
 C603 C 0.01121 0.66416 0.56074
 C604 C 0.01319 0.63744 0.54423
 C605 C 0.01399 0.60505 0.52706
 C606 C 0.01278 0.57647 0.51517
 C607 C 0.50444 0.21986 0.10078
 C608 C 0.50784 0.19457 0.08178
 C609 C 0.51121 0.16416 0.06074
 C610 C 0.51319 0.13744 0.04423
 C611 C 0.51399 0.10505 0.02706
 C612 C 0.51278 0.07647 0.01517
 C613 C -0.00443 0.21986 0.89924
 C614 C -0.00782 0.19457 0.91823
 C615 C -0.01119 0.16416 0.93927
 C616 C -0.01317 0.13744 0.95579
 C617 C -0.01397 0.10505 0.97295
 C618 C -0.01276 0.07647 0.98484
 C619 C 0.49557 0.71986 0.39924
 C620 C 0.49218 0.69457 0.41823
 C621 C 0.48881 0.66416 0.43927
 C622 C 0.48683 0.63744 0.45579
 C623 C 0.48603 0.60505 0.47295
 C624 C 0.48724 0.57647 0.48484
 C625 C 0.50444 0.78010 0.39924
 C626 C 0.50784 0.80539 0.41823
 C627 C 0.51121 0.83581 0.43927
 C628 C 0.51319 0.86252 0.45579
 C629 C 0.51399 0.89492 0.47295
 C630 C 0.51278 0.92350 0.48484
 C631 C 0.00444 0.28010 0.89924
 C632 C 0.00784 0.30539 0.91823
 C633 C 0.01121 0.33581 0.93927
 C634 C 0.01319 0.36252 0.95579
 C635 C 0.01399 0.39492 0.97295
 C636 C 0.01278 0.42350 0.98484
 C637 C 0.49557 0.28010 0.10078
 C638 C 0.49218 0.30539 0.08178
 C639 C 0.48881 0.33581 0.06074
 C640 C 0.48683 0.36252 0.04423
 C641 C 0.48603 0.39492 0.02706
 C642 C 0.48724 0.42350 0.01517
 C643 C -0.00443 0.78010 0.60078
 C644 C -0.00782 0.80539 0.58178
 C645 C -0.01119 0.83581 0.56074
 C646 C -0.01317 0.86252 0.54423
 C647 C -0.01397 0.89492 0.52706
 C648 C -0.01276 0.92350 0.51517
 C649 C 0.24025 0.37630 0.03250
 C650 C 0.23160 0.35993 0.05973
 C651 C 0.22239 0.34131 0.09230
 C652 C 0.21689 0.32538 0.12083
 C653 C 0.21482 0.30648 0.15472
 C654 C 0.21824 0.29013 0.18334
 C655 C 0.74025 0.87630 0.53250
 C656 C 0.73160 0.85993 0.55973
 C657 C 0.72239 0.84131 0.59230
 C658 C 0.71689 0.82538 0.62083
 C659 C 0.71482 0.80648 0.65472
 C660 C 0.71824 0.79013 0.68334
 C661 C 0.25976 0.62367 0.53250
 C662 C 0.26841 0.64004 0.55973
 C663 C 0.27762 0.65866 0.59230
 C664 C 0.28312 0.67459 0.62083
 C665 C 0.28519 0.69349 0.65472
 C666 C 0.28177 0.70983 0.68334
 C667 C 0.75976 0.12367 0.03250
 C668 C 0.76841 0.14004 0.05973
 C669 C 0.77762 0.15866 0.09230
 C670 C 0.78312 0.17459 0.12083
 C671 C 0.78519 0.19349 0.15472
 C672 C 0.78177 0.20983 0.18334
 C673 C 0.74025 0.12367 0.96751
 C674 C 0.73160 0.14004 0.94028
 C675 C 0.72239 0.15866 0.90771
 C676 C 0.71689 0.17459 0.87918
 C677 C 0.71482 0.19349 0.84529
 C678 C 0.71824 0.20983 0.81667
 C679 C 0.24025 0.62367 0.46751
 C680 C 0.23160 0.64004 0.44028
 C681 C 0.22239 0.65866 0.40771
 C682 C 0.21689 0.67459 0.37918
 C683 C 0.21482 0.69349 0.34529
 C684 C 0.21824 0.70983 0.31667
 C685 C 0.75976 0.87630 0.46751
 C686 C 0.76841 0.85993 0.44028
 C687 C 0.77762 0.84131 0.40771
 C688 C 0.78312 0.82538 0.37918
 C689 C 0.78519 0.80648 0.34529
 C690 C 0.78177 0.79013 0.31667
 C691 C 0.25976 0.37630 0.96751
 C692 C 0.26841 0.35993 0.94028
 C693 C 0.27762 0.34131 0.90771
 C694 C 0.28312 0.32538 0.87918
 C695 C 0.28519 0.30648 0.84529
 C696 C 0.28177 0.29013 0.81667
 C697 C 0.83196 0.47109 0.76018
 C698 C 0.81681 0.44549 0.76632
 C699 C 0.80135 0.41396 0.77065
 C700 C 0.78991 0.38603 0.77184
 C701 C 0.77833 0.35269 0.77038
 C702 C 0.76958 0.32395 0.76687
 C703 C 0.33196 0.97109 0.26018
 C704 C 0.31681 0.94549 0.26632
 C705 C 0.30135 0.91396 0.27065
 C706 C 0.28991 0.88603 0.27184
 C707 C 0.27833 0.85269 0.27038
 C708 C 0.26958 0.82395 0.26687
 C709 C 0.16805 0.97109 0.73983
 C710 C 0.18321 0.94549 0.73369
 C711 C 0.19866 0.91396 0.72936
 C712 C 0.21011 0.88603 0.72817
 C713 C 0.22169 0.85269 0.72963
 C714 C 0.23044 0.82395 0.73314
 C715 C 0.66805 0.47109 0.23983
 C716 C 0.68321 0.44549 0.23369
 C717 C 0.69866 0.41396 0.22936
 C718 C 0.71011 0.38603 0.22817
 C719 C 0.72169 0.35269 0.22963
 C720 C 0.73044 0.32395 0.23314
 C721 C 0.66805 0.52888 0.26018
 C722 C 0.68321 0.55448 0.26632
 C723 C 0.69866 0.58601 0.27065
 C724 C 0.71011 0.61394 0.27184
 C725 C 0.72169 0.64728 0.27038
 C726 C 0.73044 0.67602 0.26687
 C727 C 0.16805 0.02888 0.76018
 C728 C 0.18321 0.05448 0.76632
 C729 C 0.19866 0.08601 0.77065
 C730 C 0.21011 0.11394 0.77184
 C731 C 0.22169 0.14728 0.77038
 C732 C 0.23044 0.17602 0.76687
 C733 C 0.33196 0.02888 0.23983
 C734 C 0.31681 0.05448 0.23369
 C735 C 0.30135 0.08601 0.22936
 C736 C 0.28991 0.11394 0.22817
 C737 C 0.27833 0.14728 0.22963
 C738 C 0.26958 0.17602 0.23314
 C739 C 0.83196 0.52888 0.73983
 C740 C 0.81681 0.55448 0.73369
 C741 C 0.80135 0.58601 0.72936
 C742 C 0.78991 0.61394 0.72817
 C743 C 0.77833 0.64728 0.72963
 C744 C 0.76958 0.67602 0.73314
 C745 C 0.96989 0.75442 0.14924
 C746 C 0.94460 0.75781 0.16823
 C747 C 0.91418 0.76118 0.18927
 C748 C 0.88747 0.76316 0.20579
 C749 C 0.85507 0.76396 0.22295
 C750 C 0.82649 0.76275 0.23484
 C751 C 0.46989 0.25442 0.64924
 C752 C 0.44460 0.25781 0.66823
 C753 C 0.41418 0.26118 0.68927
 C754 C 0.38747 0.26316 0.70579
 C755 C 0.35507 0.26396 0.72295
 C756 C 0.32649 0.26275 0.73484
 C757 C 0.46989 0.74555 0.85078
 C758 C 0.44460 0.74216 0.83178
 C759 C 0.41418 0.73878 0.81074
 C760 C 0.38747 0.73681 0.79423
 C761 C 0.35507 0.73600 0.77706
 C762 C 0.32649 0.73721 0.76517
 C763 C 0.96989 0.24555 0.35078
 C764 C 0.94460 0.24216 0.33178
 C765 C 0.91418 0.23878 0.31074
 C766 C 0.88747 0.23681 0.29423
 C767 C 0.85507 0.23600 0.27706
 C768 C 0.82649 0.23721 0.26517
 C769 C 0.03013 0.25442 0.35078
 C770 C 0.05542 0.25781 0.33178
 C771 C 0.08584 0.26118 0.31074
 C772 C 0.11255 0.26316 0.29423
 C773 C 0.14494 0.26396 0.27706
 C774 C 0.17352 0.26275 0.26517
 C775 C 0.53013 0.75442 0.85078
 C776 C 0.55542 0.75781 0.83178
 C777 C 0.58584 0.76118 0.81074
 C778 C 0.61255 0.76316 0.79423
 C779 C 0.64494 0.76396 0.77706
 C780 C 0.67352 0.76275 0.76517
 C781 C 0.53013 0.24555 0.64924
 C782 C 0.55542 0.24216 0.66823
 C783 C 0.58584 0.23878 0.68927
 C784 C 0.61255 0.23681 0.70579
 C785 C 0.64494 0.23600 0.72295
 C786 C 0.67352 0.23721 0.73484
 C787 C 0.03013 0.74555 0.14924
 C788 C 0.05542 0.74216 0.16823
 C789 C 0.08584 0.73878 0.18927
 C790 C 0.11255 0.73681 0.20579
 C791 C 0.14494 0.73600 0.22295
 C792 C 0.17352 0.73721 0.23484
   
