data_POSCAR
  _audit_creation_date              2014-09-24
  _audit_creation_method            'ToBaCCo'
  _symmetry_space_group_name_H-M    'P1'
  _symmetry_Int_Tables_number       1
  _symmetry_cell_setting            triclinic
  loop_
  _symmetry_equiv_pos_as_xyz
 x,y,z
_cell_length_a 32.2123
_cell_length_b 32.2108
_cell_length_c 32.2291
_cell_angle_alpha 100.874700
_cell_angle_beta 79.207500
_cell_angle_gamma 101.565000
loop_
  _atom_site_label
  _atom_site_type_symbol
  _atom_site_fract_x
  _atom_site_fract_y
  _atom_site_fract_z
O1 O 0.54802 0.51521 0.04002
 O2 O 0.43401 0.50213 0.02987
 O3 O 0.48426 0.45181 0.04059
 O4 O 0.49778 0.56552 0.02932
 O5 O 0.51400 0.54836 -0.04084
 O6 O 0.50047 0.43464 -0.02956
 O7 O 0.45023 0.48498 -0.04028
 O8 O 0.56425 0.49805 -0.03013
 Cu9 Cu 0.48938 0.51039 0.04204
 Cu10 Cu 0.50888 0.48977 -0.04229
 C11 C 0.57530 0.50832 0.00671
 C12 C 0.42295 0.49188 -0.00697
 C13 C 0.49061 0.42412 0.00747
 C14 C 0.50765 0.57605 -0.00772
 O15 O -0.04028 0.54872 0.51474
 O16 O -0.02982 0.43511 0.50263
 O17 O -0.02925 0.49862 0.56542
 O18 O -0.04083 0.48522 0.45196
 O19 O 0.02949 0.50279 0.43482
 O20 O 0.04107 0.51619 0.54827
 O21 O 0.04050 0.45268 0.48550
 O22 O 0.03003 0.56630 0.49761
 Cu23 Cu -0.04215 0.49015 0.51042
 Cu24 Cu 0.04237 0.51126 0.48982
 C25 C -0.00697 0.57662 0.50774
 C26 C 0.00717 0.42479 0.49250
 C27 C 0.00792 0.50917 0.57592
 C28 C -0.00767 0.49223 0.42431
 O29 O 0.50336 0.02988 0.56555
 O30 O 0.51559 0.03969 0.45172
 O31 O 0.45288 0.04081 0.51518
 O32 O 0.56608 0.02871 0.50206
 O33 O 0.54741 -0.04163 0.48594
 O34 O 0.43422 -0.02953 0.49907
 O35 O 0.49693 -0.03065 0.43558
 O36 O 0.48471 -0.04046 0.54942
 Cu37 Cu 0.51136 0.04187 0.51025
 Cu38 Cu 0.48894 -0.04267 0.49088
 C39 C 0.49242 -0.00701 0.57664
 C40 C 0.50785 0.00624 0.42451
 C41 C 0.42452 0.00773 0.50888
 C42 C 0.57578 -0.00855 0.49224
 C43 C 0.49711 -0.04404 -0.09364
 C44 C 0.49938 -0.08500 -0.08674
 C45 C 0.50170 -0.09267 -0.04607
 C46 C 0.50187 -0.05875 -0.01115
 C47 C 0.49947 -0.01705 -0.01776
 C48 C 0.49703 -0.00963 -0.05918
 C49 C 0.49459 0.03195 -0.06501
 C50 C 0.49462 0.06561 -0.03082
 C51 C 0.49712 0.05896 0.01049
 C52 C 0.49954 0.01727 0.01710
 C53 C 0.50437 -0.06540 0.03016
 C54 C 0.50443 -0.03173 0.06434
 C55 C 0.50201 0.00985 0.05851
 C56 C 0.50197 0.04427 0.09297
 C57 C 0.49965 0.08522 0.08608
 C58 C 0.49728 0.09288 0.04542
 H59 H 0.49262 0.03884 -0.09612
 H60 H 0.49266 0.09697 -0.03708
 H61 H 0.50631 -0.09675 0.03643
 H62 H 0.50641 -0.03863 0.09545
 H63 H 0.49936 -0.11125 -0.11338
 H64 H 0.49968 0.11147 0.11272
 C65 C 0.04596 0.50294 0.90724
 C66 C 0.08666 0.50069 0.91490
 C67 C 0.09363 0.49830 0.95581
 C68 C 0.05921 0.49804 0.99020
 C69 C 0.01775 0.50037 0.98280
 C70 C 0.01107 0.50287 0.94115
 C71 C -0.03029 0.50522 0.93452
 C72 C -0.06444 0.50505 0.96816
 C73 C -0.05853 0.50254 1.00970
 C74 C -0.01707 0.50021 1.01711
 C75 C 0.06512 0.49552 1.03175
 C76 C 0.03097 0.49536 1.06539
 C77 C -0.01038 0.49772 1.05877
 C78 C -0.04527 0.49769 1.09267
 C79 C -0.08597 0.49992 1.08502
 C80 C -0.09295 0.50228 1.04410
 H81 H -0.03662 0.50724 0.90319
 H82 H -0.09559 0.50693 0.96129
 H83 H 0.09626 0.49363 1.03862
 H84 H 0.03730 0.49334 1.09672
 H85 H 0.11327 0.50081 0.88866
 H86 H -0.11257 0.49983 1.11126
 C87 C -0.04458 -0.09425 0.50197
 C88 C -0.08550 -0.08755 0.49945
 C89 C -0.09292 -0.04681 0.49725
 C90 C -0.05875 -0.01159 0.49749
 C91 C -0.01707 -0.01800 0.50008
 C92 C -0.00992 -0.05951 0.50236
 C93 C 0.03165 -0.06515 0.50494
 C94 C 0.06555 -0.03068 0.50526
 C95 C 0.05917 0.01073 0.50301
 C96 C 0.01750 0.01714 0.50041
 C97 C -0.06513 0.02982 0.49525
 C98 C -0.03123 0.06429 0.49557
 C99 C 0.01035 0.05865 0.49813
 C100 C 0.04502 0.09339 0.49851
 C101 C 0.08594 0.08669 0.50103
 C102 C 0.09334 0.04595 0.50326
 H103 H 0.03836 -0.09632 0.50672
 H104 H 0.09689 -0.03683 0.50729
 H105 H -0.09646 0.03597 0.49324
 H106 H -0.03794 0.09547 0.49379
 H107 H -0.11195 -0.11441 0.49921
 H108 H 0.11239 0.11354 0.50126
 C109 C -0.21545 0.50685 1.02886
 C110 C -0.22594 0.54532 1.02177
 C111 C -0.26863 0.54668 1.01705
 C112 C -0.30053 0.50956 1.01936
 C113 C -0.29000 0.47102 1.02627
 C114 C -0.24734 0.46967 1.03105
 C115 C -0.23758 0.43081 1.03796
 C116 C -0.26906 0.39429 1.04001
 C117 C -0.31077 0.39558 1.03528
 C118 C -0.32132 0.43341 1.02854
 C119 C -0.27839 0.58550 1.01008
 C120 C -0.24685 0.62195 1.00780
 C121 C -0.20510 0.62061 1.01237
 C122 C -0.19458 0.58282 1.01928
 C123 C -0.34421 0.51078 1.01468
 C124 C -0.38079 0.51053 1.01094
 C125 C -0.17196 0.50550 1.03407
 C126 C -0.13595 0.50416 1.03853
 H127 H -0.20559 0.42819 1.04180
 H128 H -0.26103 0.36483 1.04527
 H129 H -0.33507 0.36710 1.03679
 H130 H -0.35422 0.43278 1.02508
 H131 H -0.31041 0.58809 1.00631
 H132 H -0.25486 0.65139 1.00244
 H133 H -0.18071 0.64900 1.01055
 H134 H -0.16166 0.58335 1.02262
 C135 C 0.21610 0.49364 0.97108
 C136 C 0.22660 0.45510 0.97797
 C137 C 0.26928 0.45370 0.98270
 C138 C 0.30116 0.49086 0.98059
 C139 C 0.29061 0.52947 0.97389
 C140 C 0.24796 0.53085 0.96910
 C141 C 0.23820 0.56979 0.96240
 C142 C 0.26965 0.60635 0.96057
 C143 C 0.31134 0.60503 0.96531
 C144 C 0.32191 0.56712 0.97184
 C145 C 0.27905 0.41481 0.98948
 C146 C 0.24753 0.37832 0.99156
 C147 C 0.20579 0.37970 0.98698
 C148 C 0.19526 0.41755 0.98025
 C149 C 0.34482 0.48961 0.98528
 C150 C 0.38142 0.48987 0.98902
 C151 C 0.17263 0.49501 0.96584
 C152 C 0.13662 0.49639 0.96138
 H153 H 0.20621 0.57244 0.95857
 H154 H 0.26161 0.63587 0.95548
 H155 H 0.33563 0.63354 0.96398
 H156 H 0.35480 0.56773 0.97531
 H157 H 0.31107 0.41219 0.99324
 H158 H 0.25555 0.34883 0.99677
 H159 H 0.18142 0.35127 0.98864
 H160 H 0.16235 0.41705 0.97690
 C161 C -0.03018 -0.21685 0.50686
 C162 C -0.00280 -0.22423 0.53334
 C163 C 0.00203 -0.26686 0.53467
 C164 C -0.02049 -0.30186 0.50945
 C165 C -0.04787 -0.29447 0.48294
 C166 C -0.05275 -0.25185 0.48168
 C167 C -0.08029 -0.24529 0.45494
 C168 C -0.10236 -0.27983 0.43015
 C169 C -0.09758 -0.32149 0.43136
 C170 C -0.07068 -0.32892 0.45736
 C171 C 0.02959 -0.27344 0.56135
 C172 C 0.05179 -0.23887 0.58601
 C173 C 0.04711 -0.19719 0.58469
 C174 C 0.02015 -0.18976 0.55873
 C175 C -0.01520 -0.34543 0.51019
 C176 C -0.01115 -0.38194 0.50972
 C177 C -0.03507 -0.17333 0.50538
 C178 C -0.03929 -0.13729 0.50393
 H179 H -0.08508 -0.21347 0.45290
 H180 H -0.12330 -0.27422 0.40989
 H181 H -0.11485 -0.34821 0.41210
 H182 H -0.06803 -0.36192 0.45718
 H183 H 0.03426 -0.30528 0.56345
 H184 H 0.07276 -0.24447 0.60625
 H185 H 0.06444 -0.17045 0.60390
 H186 H 0.01754 -0.15677 0.55880
 C187 C 0.03064 0.21597 0.49351
 C188 C 0.00302 0.22329 0.46723
 C189 C -0.00182 0.26591 0.46586
 C190 C 0.02095 0.30095 0.49081
 C191 C 0.04855 0.29362 0.51712
 C192 C 0.05343 0.25102 0.51843
 C193 C 0.08120 0.24451 0.54497
 C194 C 0.10347 0.27909 0.56954
 C195 C 0.09868 0.32074 0.56828
 C196 C 0.07157 0.32812 0.54246
 C197 C -0.02962 0.27242 0.43939
 C198 C -0.05207 0.23781 0.41501
 C199 C -0.04737 0.19614 0.41638
 C200 C -0.02018 0.18877 0.44211
 C201 C 0.01566 0.34451 0.49000
 C202 C 0.01159 0.38100 0.49039
 C203 C 0.03553 0.17246 0.49504
 C204 C 0.03973 0.13643 0.49652
 H205 H 0.08600 0.21270 0.54703
 H206 H 0.12457 0.27353 0.58965
 H207 H 0.11609 0.34749 0.58738
 H208 H 0.06893 0.36110 0.54260
 H209 H -0.03431 0.30425 0.43727
 H210 H -0.07322 0.24336 0.39495
 H211 H -0.06490 0.16936 0.39739
 H212 H -0.01756 0.15579 0.44209
 C213 C 0.49270 -0.02928 -0.21632
 C214 C 0.46497 -0.00376 -0.22444
 C215 C 0.46379 0.00091 -0.26718
 C216 C 0.49042 -0.01988 -0.30153
 C217 C 0.51822 -0.04534 -0.29339
 C218 C 0.51933 -0.05008 -0.25067
 C219 C 0.54738 -0.07569 -0.24334
 C220 C 0.57364 -0.09596 -0.27724
 C221 C 0.57261 -0.09128 -0.31901
 C222 C 0.54528 -0.06632 -0.32718
 C223 C 0.43582 0.02657 -0.27451
 C224 C 0.40978 0.04708 -0.24057
 C225 C 0.41098 0.04257 -0.19878
 C226 C 0.43818 0.01747 -0.19061
 C227 C 0.48975 -0.01481 -0.34522
 C228 C 0.49032 -0.01096 -0.38182
 C229 C 0.49393 -0.03415 -0.17271
 C230 C 0.49522 -0.03846 -0.13664
 H231 H 0.54935 -0.08031 -0.21142
 H232 H 0.59492 -0.11540 -0.27106
 H233 H 0.59308 -0.10708 -0.34523
 H234 H 0.54566 -0.06368 -0.36023
 H235 H 0.43379 0.03105 -0.30647
 H236 H 0.38857 0.06661 -0.24675
 H237 H 0.39071 0.05860 -0.17253
 H238 H 0.43799 0.01492 -0.15757
 C239 C 0.50686 0.02931 0.21546
 C240 C 0.48051 0.05021 0.25001
 C241 C 0.48180 0.04529 0.29263
 C242 C 0.50951 0.01958 0.30049
 C243 C 0.53585 -0.00132 0.26595
 C244 C 0.53449 0.00352 0.22330
 C245 C 0.56099 -0.01781 0.18928
 C246 C 0.58810 -0.04317 0.19717
 C247 C 0.58946 -0.04786 0.23887
 C248 C 0.56371 -0.02725 0.27299
 C249 C 0.45502 0.06638 0.32662
 C250 C 0.42779 0.09159 0.31873
 C251 C 0.42658 0.09645 0.27705
 C252 C 0.45257 0.07608 0.24296
 C253 C 0.51040 0.01437 0.34409
 C254 C 0.51001 0.01044 0.38063
 C255 C 0.50543 0.03432 0.17194
 C256 C 0.50398 0.03869 0.13593
 H257 H 0.56105 -0.01514 0.15629
 H258 H 0.60815 -0.05927 0.17077
 H259 H 0.61059 -0.06758 0.24482
 H260 H 0.56587 -0.03187 0.30487
 H261 H 0.45479 0.06362 0.35961
 H262 H 0.40753 0.10747 0.34509
 H263 H 0.40539 0.11609 0.27108
 H264 H 0.45047 0.08083 0.21112
 C265 C 0.50672 -0.21537 -0.03215
 C266 C 0.53723 -0.22290 -0.00924
 C267 C 0.53868 -0.26549 -0.00428
 C268 C 0.50953 -0.30023 -0.02215
 C269 C 0.47895 -0.29268 -0.04499
 C270 C 0.47757 -0.25012 -0.05004
 C271 C 0.44673 -0.24335 -0.07299
 C272 C 0.41803 -0.27766 -0.09042
 C273 C 0.41936 -0.31929 -0.08548
 C274 C 0.44936 -0.32691 -0.06303
 C275 C 0.56946 -0.27226 0.01872
 C276 C 0.59796 -0.23791 0.03639
 C277 C 0.59649 -0.19625 0.03162
 C278 C 0.56655 -0.18864 0.00909
 C279 C 0.51047 -0.34371 -0.01669
 C280 C 0.51004 -0.38017 -0.01243
 C281 C 0.50515 -0.17191 -0.03715
 C282 C 0.50367 -0.13584 -0.04124
 H283 H 0.44443 -0.21155 -0.07769
 H284 H 0.39464 -0.27191 -0.10786
 H285 H 0.39703 -0.34584 -0.09912
 H286 H 0.44907 -0.35986 -0.06003
 H287 H 0.57182 -0.30409 0.02329
 H288 H 0.62130 -0.24365 0.05390
 H289 H 0.61867 -0.16968 0.04545
 H290 H 0.56664 -0.15568 0.00624
 C291 C 0.49200 0.21556 0.03164
 C292 C 0.46133 0.22307 0.00890
 C293 C 0.45975 0.26565 0.00403
 C294 C 0.48894 0.30041 0.02181
 C295 C 0.51968 0.29289 0.04448
 C296 C 0.52118 0.25033 0.04944
 C297 C 0.55218 0.24359 0.07221
 C298 C 0.58092 0.27792 0.08955
 C299 C 0.57947 0.31954 0.08469
 C300 C 0.54931 0.32713 0.06243
 C301 C 0.42882 0.27240 -0.01879
 C302 C 0.40028 0.23802 -0.03638
 C303 C 0.40187 0.19637 -0.03169
 C304 C 0.43197 0.18878 -0.00933
 C305 C 0.48790 0.34389 0.01641
 C306 C 0.48827 0.38034 0.01217
 C307 C 0.49367 0.17210 0.03657
 C308 C 0.49523 0.13604 0.04061
 H309 H 0.55457 0.21179 0.07684
 H310 H 0.60442 0.27218 0.10686
 H311 H 0.60182 0.34611 0.09827
 H312 H 0.54950 0.36009 0.05950
 H313 H 0.42636 0.30422 -0.02328
 H314 H 0.37682 0.24375 -0.05375
 H315 H 0.37966 0.16978 -0.04544
 H316 H 0.43196 0.15582 -0.00655
 C317 C -0.21569 -0.03363 0.49175
 C318 C -0.22309 -0.00645 0.46509
 C319 C -0.26570 -0.00149 0.46387
 C320 C -0.30063 -0.02367 0.48936
 C321 C -0.29322 -0.05094 0.51595
 C322 C -0.25063 -0.05596 0.51711
 C323 C -0.24403 -0.08334 0.54396
 C324 C -0.27851 -0.10509 0.56901
 C325 C -0.32015 -0.10015 0.56792
 C326 C -0.32762 -0.07344 0.54177
 C327 C -0.27231 0.02590 0.43704
 C328 C -0.23780 0.04781 0.41216
 C329 C -0.19613 0.04299 0.41338
 C330 C -0.18867 0.01621 0.43948
 C331 C -0.34413 -0.01801 0.48893
 C332 C -0.38055 -0.01354 0.48968
 C333 C -0.17218 -0.03834 0.49340
 C334 C -0.13609 -0.04220 0.49503
 H335 H -0.21222 -0.08823 0.54591
 H336 H -0.27287 -0.12590 0.58937
 H337 H -0.34683 -0.11713 0.58743
 H338 H -0.36060 -0.07067 0.54204
 H339 H -0.30414 0.03066 0.43501
 H340 H -0.24342 0.06864 0.39182
 H341 H -0.16943 0.06010 0.39401
 H342 H -0.15570 0.01348 0.43932
 C343 C 0.21607 0.03276 0.50895
 C344 C 0.22340 0.00566 0.53571
 C345 C 0.26599 0.00071 0.53704
 C346 C 0.30096 0.02283 0.51154
 C347 C 0.29362 0.05000 0.48483
 C348 C 0.25105 0.05501 0.48357
 C349 C 0.24451 0.08230 0.45659
 C350 C 0.27903 0.10397 0.43151
 C351 C 0.32065 0.09903 0.43269
 C352 C 0.32806 0.07241 0.45898
 C353 C 0.27254 -0.02660 0.56398
 C354 C 0.23798 -0.04845 0.58887
 C355 C 0.19634 -0.04365 0.58754
 C356 C 0.18894 -0.01694 0.56134
 C357 C 0.34445 0.01717 0.51208
 C358 C 0.38085 0.01271 0.51139
 C359 C 0.17258 0.03748 0.50721
 C360 C 0.13650 0.04135 0.50552
 H361 H 0.21272 0.08718 0.45456
 H362 H 0.27344 0.12470 0.41105
 H363 H 0.34736 0.11594 0.41316
 H364 H 0.36103 0.06965 0.45878
 H365 H 0.30435 -0.03135 0.56609
 H366 H 0.24355 -0.06922 0.60929
 H367 H 0.16960 -0.06071 0.60692
 H368 H 0.15598 -0.01422 0.56142
 C369 C -0.03150 0.49281 1.21549
 C370 C -0.04274 0.52610 1.24872
 C371 C -0.03787 0.52484 1.29136
 C372 C -0.02187 0.49024 1.30053
 C373 C -0.01066 0.45694 1.26732
 C374 C -0.01544 0.45826 1.22464
 C375 C -0.00386 0.42471 1.19193
 C376 C 0.01191 0.39077 1.20113
 C377 C 0.01652 0.38946 1.24287
 C378 C 0.00541 0.42208 1.27572
 C379 C -0.04917 0.55860 1.32403
 C380 C -0.06482 0.59259 1.31481
 C381 C -0.06966 0.59377 1.27312
 C382 C -0.05881 0.56100 1.24033
 C383 C -0.01663 0.48932 1.34409
 C384 C -0.01244 0.48980 1.38057
 C385 C -0.03634 0.49424 1.17194
 C386 C -0.04037 0.49568 1.13583
 H387 H -0.00685 0.42433 1.15896
 H388 H 0.02061 0.36537 1.17572
 H389 H 0.02877 0.36302 1.24984
 H390 H 0.00957 0.41967 1.30768
 H391 H -0.04602 0.55914 1.35698
 H392 H -0.07322 0.61815 1.34016
 H393 H -0.08186 0.62023 1.26613
 H394 H -0.06312 0.56337 1.20841
 C395 C 0.03214 0.50813 0.78452
 C396 C 0.01550 0.54244 0.77562
 C397 C 0.01064 0.54389 0.73300
 C398 C 0.02234 0.51096 0.69959
 C399 C 0.03894 0.47662 0.70850
 C400 C 0.04390 0.47523 0.75109
 C401 C 0.06055 0.44059 0.75922
 C402 C 0.07190 0.40819 0.72623
 C403 C 0.06699 0.40949 0.68459
 C404 C 0.05076 0.44324 0.67563
 C405 C -0.00602 0.57849 0.72486
 C406 C -0.01762 0.61074 0.75791
 C407 C -0.01294 0.60930 0.79959
 C408 C 0.00341 0.57561 0.80854
 C409 C 0.01698 0.51198 0.65609
 C410 C 0.01271 0.51156 0.61965
 C411 C 0.03703 0.50656 0.82802
 C412 C 0.04107 0.50503 0.86410
 H413 H 0.06495 0.43813 0.79109
 H414 H 0.08455 0.38191 0.73302
 H415 H 0.07579 0.38422 0.65909
 H416 H 0.04758 0.44282 0.64271
 H417 H -0.01026 0.58099 0.69295
 H418 H -0.03033 0.63699 0.75112
 H419 H -0.02203 0.63441 0.82515
 H420 H 0.00644 0.57588 0.84147
   
