data_POSCAR
  _audit_creation_date              2014-09-24
  _audit_creation_method            'ToBaCCo'
  _symmetry_space_group_name_H-M    'P1'
  _symmetry_Int_Tables_number       1
  _symmetry_cell_setting            triclinic
  loop_
  _symmetry_equiv_pos_as_xyz
 x,y,z
_cell_length_a 65.3929
_cell_length_b 65.4389
_cell_length_c 19.1133
_cell_angle_alpha 89.712200
_cell_angle_beta 90.091400
_cell_angle_gamma 119.939600
loop_
  _atom_site_label
  _atom_site_type_symbol
  _atom_site_fract_x
  _atom_site_fract_y
  _atom_site_fract_z
C1 C 0.24315 0.48899 0.53278
 C2 C 0.24164 0.48705 0.46152
 C3 C 0.22309 0.48911 0.42263
 C4 C 0.25890 0.48399 0.41851
 C5 C 0.26384 0.49115 0.57206
 C6 C 0.22416 0.48938 0.57482
 C7 C 0.20631 0.47011 0.38359
 C8 C 0.18846 0.47173 0.34820
 C9 C 0.18726 0.49280 0.34894
 C10 C 0.20494 0.51206 0.38728
 C11 C 0.22239 0.51011 0.42394
 C12 C 0.26551 0.46723 0.43634
 C13 C 0.28303 0.46586 0.39827
 C14 C 0.29379 0.48070 0.34014
 C15 C 0.28608 0.49647 0.32009
 C16 C 0.26897 0.49818 0.35902
 C17 C 0.28705 0.50743 0.55138
 C18 C 0.30625 0.50828 0.58624
 C19 C 0.30261 0.49352 0.64400
 C20 C 0.27952 0.47816 0.66707
 C21 C 0.26029 0.47690 0.63117
 C22 C 0.22995 0.50682 0.62564
 C23 C 0.21226 0.50763 0.66435
 C24 C 0.18829 0.49117 0.65251
 C25 C 0.18262 0.47339 0.60255
 C26 C 0.20035 0.47226 0.56520
 H27 H 0.20689 0.45387 0.38117
 H28 H 0.17649 0.45665 0.31731
 H29 H 0.20481 0.52841 0.39320
 H30 H 0.23533 0.52500 0.45387
 H31 H 0.25753 0.45560 0.48080
 H32 H 0.28853 0.45357 0.41561
 H33 H 0.26394 0.51099 0.34340
 H34 H 0.29029 0.51918 0.50746
 H35 H 0.32397 0.52047 0.56823
 H36 H 0.27637 0.46663 0.71154
 H37 H 0.24258 0.46442 0.64862
 H38 H 0.24821 0.51999 0.63491
 H39 H 0.21743 0.52117 0.70364
 H40 H 0.16445 0.46053 0.59113
 H41 H 0.19544 0.45812 0.52809
 H42 H 0.29336 0.50766 0.27444
 C43 C 0.50379 -0.24959 0.53680
 C44 C 0.50136 -0.25093 0.46562
 C45 C 0.50111 -0.27055 0.42550
 C46 C 0.49900 -0.23279 0.42464
 C47 C 0.50723 -0.22867 0.57709
 C48 C 0.50228 -0.26954 0.57826
 C49 C 0.51849 -0.27686 0.43645
 C50 C 0.51761 -0.29584 0.40067
 C51 C 0.49979 -0.30849 0.35112
 C52 C 0.48296 -0.30148 0.33822
 C53 C 0.48357 -0.28280 0.37519
 C54 C 0.51352 -0.22208 0.36619
 C55 C 0.51276 -0.20376 0.33063
 C56 C 0.49762 -0.19573 0.35339
 C57 C 0.48241 -0.20703 0.41000
 C58 C 0.48277 -0.22571 0.44451
 C59 C 0.49324 -0.23184 0.63622
 C60 C 0.49528 -0.21242 0.67238
 C61 C 0.51121 -0.18930 0.64984
 C62 C 0.52584 -0.18618 0.59204
 C63 C 0.52413 -0.20565 0.55681
 C64 C 0.48196 -0.29182 0.57597
 C65 C 0.48074 -0.31062 0.61432
 C66 C 0.49998 -0.30767 0.65565
 C67 C 0.52022 -0.28496 0.65814
 C68 C 0.52120 -0.26613 0.62055
 H69 H 0.53266 -0.26724 0.47333
 H70 H 0.53073 -0.30077 0.41287
 H71 H 0.46932 -0.31035 0.29930
 H72 H 0.47018 -0.27803 0.36499
 H73 H 0.52599 -0.22740 0.34947
 H74 H 0.52461 -0.19526 0.28697
 H75 H 0.47088 -0.23420 0.48807
 H76 H 0.48034 -0.24940 0.65367
 H77 H 0.48425 -0.21559 0.71791
 H78 H 0.53823 -0.16871 0.57279
 H79 H 0.53560 -0.20272 0.51255
 H80 H 0.46710 -0.29469 0.54386
 H81 H 0.46503 -0.32767 0.60848
 H82 H 0.53513 -0.28129 0.69105
 H83 H 0.53691 -0.24891 0.62366
 H84 H 0.47037 -0.20128 0.42769
 C85 C 1.25070 0.75275 0.53433
 C86 C 1.25061 0.75211 0.46299
 C87 C 1.27090 0.77001 0.42165
 C88 C 1.23030 0.73376 0.42263
 C89 C 1.23146 0.73378 0.57614
 C90 C 1.27009 0.77240 0.57391
 C91 C 1.26777 0.78508 0.37639
 C92 C 1.28698 0.80303 0.34057
 C93 C 1.30986 0.80607 0.34789
 C94 C 1.31253 0.79004 0.39153
 C95 C 1.29331 0.77237 0.42829
 C96 C 1.20714 0.72879 0.43582
 C97 C 1.18823 0.71125 0.39825
 C98 C 1.19211 0.69881 0.34492
 C99 C 1.21544 0.70449 0.33012
 C100 C 1.23429 0.72168 0.36874
 C101 C 1.22702 0.71054 0.57298
 C102 C 1.20826 0.69262 0.61055
 C103 C 1.19315 0.69744 0.65137
 C104 C 1.19815 0.72107 0.65481
 C105 C 1.21723 0.73899 0.61844
 C106 C 1.28174 0.76749 0.62714
 C107 C 1.30065 0.78577 0.66272
 C108 C 1.30867 0.80970 0.64585
 C109 C 1.29618 0.81430 0.59332
 C110 C 1.27704 0.79595 0.55879
 H111 H 1.25048 0.78327 0.37000
 H112 H 1.28357 0.81402 0.30554
 H113 H 1.32965 0.79176 0.40070
 H114 H 1.29597 0.76074 0.46291
 H115 H 1.20364 0.73843 0.47535
 H116 H 1.17055 0.70730 0.41167
 H117 H 1.25203 0.72550 0.35674
 H118 H 1.23794 0.70625 0.54062
 H119 H 1.20501 0.67482 0.60425
 H120 H 1.18785 0.72605 0.68738
 H121 H 1.22062 0.75694 0.62203
 H122 H 1.27634 0.74940 0.64077
 H123 H 1.30838 0.78078 0.70470
 H124 H 1.30152 0.83197 0.57569
 H125 H 1.26790 0.80019 0.51908
 H126 H 1.21924 0.69579 0.28829
 C127 C 0.74845 0.50058 0.53703
 C128 C 0.74863 0.50001 0.46567
 C129 C 0.76895 0.50163 0.42604
 C130 C 0.72887 0.49875 0.42391
 C131 C 0.72988 0.50250 0.57635
 C132 C 0.76731 0.50015 0.57911
 C133 C 0.79208 0.51973 0.43954
 C134 C 0.81111 0.52080 0.40333
 C135 C 0.80741 0.50424 0.35102
 C136 C 0.78412 0.48661 0.33591
 C137 C 0.76511 0.48531 0.37315
 C138 C 0.73319 0.51699 0.37688
 C139 C 0.71450 0.51715 0.34195
 C140 C 0.69121 0.49882 0.35245
 C141 C 0.68701 0.48003 0.39729
 C142 C 0.70570 0.48003 0.43295
 C143 C 0.71766 0.48664 0.63065
 C144 C 0.69986 0.48796 0.66712
 C145 C 0.69362 0.50524 0.65018
 C146 C 0.70662 0.52153 0.59635
 C147 C 0.72462 0.52032 0.56080
 C148 C 0.77146 0.48115 0.57502
 C149 C 0.79019 0.48161 0.61184
 C150 C 0.80553 0.50134 0.65276
 C151 C 0.80066 0.52004 0.65771
 C152 C 0.78166 0.51929 0.62203
 H153 H 0.79546 0.53302 0.47843
 H154 H 0.82874 0.53448 0.41704
 H155 H 0.78051 0.47391 0.29488
 H156 H 0.74738 0.47144 0.36102
 H157 H 0.75097 0.53153 0.36910
 H158 H 0.71819 0.53168 0.30701
 H159 H 0.70209 0.46572 0.46867
 H160 H 0.72182 0.47306 0.64465
 H161 H 0.69169 0.47572 0.71000
 H162 H 0.70253 0.53479 0.57879
 H163 H 0.73427 0.53319 0.52026
 H164 H 0.76044 0.46616 0.54224
 H165 H 0.79328 0.46699 0.60463
 H166 H 0.81107 0.53514 0.69069
 H167 H 0.77850 0.53399 0.62643
 H168 H 0.66920 0.46574 0.40635
 C169 C 0.49510 0.24584 0.53692
 C170 C 0.49513 0.24521 0.46556
 C171 C 0.49701 0.26513 0.42327
 C172 C 0.49348 0.22484 0.42622
 C173 C 0.49572 0.22720 0.57962
 C174 C 0.49476 0.26534 0.57573
 C175 C 0.47864 0.26145 0.37783
 C176 C 0.47945 0.28039 0.34140
 C177 C 0.49887 0.30322 0.34884
 C178 C 0.51766 0.30672 0.39244
 C179 C 0.51671 0.28782 0.42952
 C180 C 0.47598 0.20157 0.44174
 C181 C 0.47508 0.18265 0.40545
 C182 C 0.49120 0.18659 0.35120
 C183 C 0.50809 0.21000 0.33397
 C184 C 0.50927 0.22886 0.37125
 C185 C 0.51472 0.22308 0.57478
 C186 C 0.51468 0.20483 0.61322
 C187 C 0.49539 0.19000 0.65682
 C188 C 0.47662 0.19477 0.66217
 C189 C 0.47696 0.21330 0.62469
 C190 C 0.51148 0.27734 0.62801
 C191 C 0.51198 0.29628 0.66302
 C192 C 0.49579 0.30399 0.64653
 C193 C 0.47857 0.29118 0.59487
 C194 C 0.47790 0.27200 0.56095
 H195 H 0.46338 0.24401 0.37219
 H196 H 0.46489 0.27723 0.30745
 H197 H 0.53277 0.32418 0.39917
 H198 H 0.53114 0.29089 0.46394
 H199 H 0.46305 0.19800 0.48221
 H200 H 0.46193 0.16493 0.42067
 H201 H 0.52268 0.24666 0.35745
 H202 H 0.52942 0.23379 0.54035
 H203 H 0.52928 0.20173 0.60541
 H204 H 0.46185 0.18472 0.69693
 H205 H 0.46229 0.21650 0.62968
 H206 H 0.52439 0.27219 0.64138
 H207 H 0.52484 0.30426 0.70434
 H208 H 0.46603 0.29628 0.57751
 H209 H 0.46441 0.26261 0.52198
 H210 H 0.52036 0.21383 0.29131
 C211 C 0.75396 0.24981 0.53522
 C212 C 0.75366 0.24948 0.46379
 C213 C 0.73486 0.22945 0.42358
 C214 C 0.77202 0.26944 0.42237
 C215 C 0.77374 0.26898 0.57526
 C216 C 0.73422 0.23129 0.57691
 C217 C 0.72835 0.20597 0.43931
 C218 C 0.70972 0.18736 0.40385
 C219 C 0.69769 0.19179 0.35007
 C220 C 0.70513 0.21537 0.33203
 C221 C 0.72339 0.23395 0.36861
 C222 C 0.78673 0.26565 0.37752
 C223 C 0.80519 0.28458 0.34216
 C224 C 0.80890 0.30752 0.34994
 C225 C 0.79352 0.31114 0.39254
 C226 C 0.77525 0.29223 0.42872
 C227 C 0.76889 0.28053 0.62855
 C228 C 0.78719 0.29907 0.66511
 C229 C 0.81114 0.30694 0.64905
 C230 C 0.81570 0.29455 0.59646
 C231 C 0.79729 0.27569 0.56108
 C232 C 0.71117 0.22733 0.56930
 C233 C 0.69259 0.20933 0.60723
 C234 C 0.69679 0.19498 0.65314
 C235 C 0.71995 0.19928 0.66157
 C236 C 0.73855 0.21745 0.62425
 H237 H 0.73744 0.20202 0.47987
 H238 H 0.70447 0.16951 0.41976
 H239 H 0.69682 0.21955 0.28964
 H240 H 0.72834 0.25189 0.35463
 H241 H 0.78436 0.24814 0.37171
 H242 H 0.81668 0.28135 0.30900
 H243 H 0.76386 0.29539 0.46261
 H244 H 0.75081 0.27532 0.64163
 H245 H 0.78215 0.30661 0.70720
 H246 H 0.83338 0.29973 0.57952
 H247 H 0.80152 0.26658 0.52155
 H248 H 0.70757 0.23804 0.53352
 H249 H 0.67488 0.20630 0.59964
 H250 H 0.72366 0.18864 0.69726
 H251 H 0.75626 0.22039 0.63108
 H252 H 0.79610 0.32869 0.39945
 O253 O 0.96792 0.45198 0.12938
 O254 O 0.94154 0.45686 0.06237
 C255 C 0.94657 0.44630 0.11143
 O256 O 1.03342 0.55847 0.11471
 O257 O 1.05937 0.55119 0.05418
 C258 C 1.05463 0.56350 0.09736
 O259 O 0.96739 0.52352 0.12343
 O260 O 0.94136 0.49120 0.06009
 C261 C 0.94617 0.50732 0.10668
 O262 O 1.03406 0.48339 0.12044
 O263 O 1.05968 0.51601 0.05664
 C264 C 1.05519 0.49948 0.10197
 Zr265 Zr 1.00075 0.47837 0.08895
 O266 O 1.00377 0.48119 0.19926
 O267 O 0.99834 0.44491 0.09378
 Zr268 Zr 1.00034 0.52970 0.08491
 O269 O 1.00329 0.53091 0.19536
 O270 O 0.99751 0.56054 0.08481
 O271 O 0.97941 0.49344 0.10116
 O272 O 1.02113 0.51448 0.09933
 O273 O 1.03353 0.48188 -0.11910
 O274 O 1.05938 0.51529 -0.05952
 C275 C 1.05474 0.49823 -0.10243
 O276 O 0.96678 0.52190 -0.13030
 O277 O 0.94104 0.49041 -0.06275
 C278 C 0.94564 0.50595 -0.11163
 O279 O 1.03294 0.55699 -0.12512
 O280 O 1.05911 0.55046 -0.06245
 C281 C 1.05424 0.56225 -0.10770
 O282 O 0.96720 0.45024 -0.12516
 O283 O 0.94133 0.45617 -0.05947
 C284 C 0.94598 0.44496 -0.10684
 Zr285 Zr 1.00031 0.47721 -0.08789
 O286 O 1.00279 0.47865 -0.19845
 O287 O 0.99790 0.44372 -0.08754
 Zr288 Zr 0.99994 0.52858 -0.09189
 O289 O 1.00237 0.52834 -0.20233
 O290 O 0.99712 0.55940 -0.09683
 Zr291 Zr 0.96501 0.48563 -0.00056
 Zr292 Zr 1.03538 0.52114 -0.00227
 O293 O 1.02066 0.51318 -0.10321
 O294 O 0.97892 0.49214 -0.10300
 O295 O 1.02154 0.48434 0.00034
 O296 O 0.97960 0.52250 -0.00329
 O297 O 0.98006 0.46372 0.00135
 O298 O 1.02110 0.54376 -0.00430
 H299 H 1.03204 0.52018 0.13980
 H300 H 0.96898 0.52924 -0.00396
 H301 H 1.03138 0.51837 -0.14418
 H302 H 0.96962 0.44637 0.00255
 H303 H 1.00964 0.57197 0.05240
 H304 H 1.00940 0.57123 -0.06585
 H305 H 0.98828 0.51394 -0.21943
 H306 H 0.98878 0.47893 -0.21678
 H307 H 1.01035 0.44469 -0.05601
 H308 H 1.01060 0.44545 0.06238
 H309 H 0.98989 0.48178 0.21716
 H310 H 0.98932 0.51673 0.21431
 O311 O 0.54768 0.51603 0.13240
 O312 O 0.54439 0.48611 0.06279
 C313 C 0.55417 0.50109 0.11322
 O314 O 0.44055 0.47118 0.11533
 O315 O 0.44657 0.50451 0.05724
 C316 C 0.43460 0.48683 0.09918
 O317 O 0.47833 0.44283 0.12231
 O318 O 0.51108 0.45099 0.05776
 C319 C 0.49521 0.43887 0.10456
 O320 O 0.51417 0.54862 0.12631
 O321 O 0.48117 0.54076 0.06339
 C322 C 0.49747 0.55292 0.10882
 Zr323 Zr 0.52046 0.52144 0.09262
 O324 O 0.51673 0.52001 0.20288
 O325 O 0.55319 0.55316 0.10015
 Zr326 Zr 0.47042 0.46869 0.08494
 O327 O 0.46814 0.46879 0.19542
 O328 O 0.44058 0.43438 0.08166
 O329 O 0.50673 0.48516 0.10195
 O330 O 0.48415 0.50430 0.10211
 O331 O 0.51607 0.55190 -0.11386
 O332 O 0.48208 0.54246 -0.05393
 C333 C 0.49901 0.55566 -0.09670
 O334 O 0.48096 0.44654 -0.13235
 O335 O 0.51235 0.45268 -0.06404
 C336 C 0.49727 0.44182 -0.11369
 O337 O 0.44421 0.47562 -0.12799
 O338 O 0.44786 0.50599 -0.05978
 C339 C 0.43757 0.49038 -0.10836
 O340 O 0.55039 0.51997 -0.12283
 O341 O 0.54565 0.48798 -0.05979
 C342 C 0.55645 0.50444 -0.10627
 Zr343 Zr 0.52251 0.52436 -0.08373
 O344 O 0.52233 0.52736 -0.19404
 O345 O 0.55527 0.55620 -0.07834
 Zr346 Zr 0.47253 0.47148 -0.09160
 O347 O 0.47283 0.47449 -0.20200
 O348 O 0.44242 0.43735 -0.09575
 Zr349 Zr 0.51559 0.48032 -0.00035
 Zr350 Zr 0.47736 0.51255 0.00132
 O351 O 0.48656 0.50752 -0.10001
 O352 O 0.50912 0.48847 -0.10195
 O353 O 0.51395 0.53664 0.00550
 O354 O 0.47895 0.45685 -0.00425
 O355 O 0.53624 0.51731 0.00448
 O356 O 0.45612 0.47556 -0.00362
 H357 H 0.47786 0.50863 0.14307
 H358 H 0.47296 0.43965 -0.00603
 H359 H 0.48137 0.51309 -0.14099
 H360 H 0.55367 0.52478 0.00597
 H361 H 0.42907 0.43493 0.04920
 H362 H 0.42958 0.43783 -0.06987
 H363 H 0.48810 0.47672 -0.21895
 H364 H 0.52140 0.51300 -0.21394
 H365 H 0.55282 0.56756 -0.05084
 H366 H 0.55263 0.56463 0.06744
 H367 H 0.51731 0.50599 0.21973
 H368 H 0.48289 0.47028 0.21455
 O369 O 0.52190 -0.03260 0.13114
 O370 O 0.49261 -0.05871 0.05861
 C371 C 0.50715 -0.05384 0.11026
 O372 O 0.47825 0.02998 0.11856
 O373 O 0.51144 0.05723 0.06021
 C374 C 0.49403 0.05154 0.10304
 O375 O 0.44990 -0.03611 0.12175
 O376 O 0.45777 -0.06070 0.05613
 C377 C 0.44588 -0.05692 0.10351
 O378 O 0.55547 0.03377 0.12491
 O379 O 0.54781 0.05918 0.06217
 C380 C 0.55990 0.05484 0.10761
 Zr381 Zr 0.52838 0.00030 0.09021
 O382 O 0.52892 0.00251 0.20070
 O383 O 0.55993 -0.00129 0.09210
 Zr384 Zr 0.47556 -0.00210 0.08533
 O385 O 0.47493 -0.00055 0.19588
 O386 O 0.44207 -0.00480 0.07660
 O387 O 0.49206 -0.02199 0.10044
 O388 O 0.51134 0.01948 0.10174
 O389 O 0.55785 0.03561 -0.11669
 O390 O 0.54905 0.06003 -0.05402
 C391 C 0.56189 0.05641 -0.09832
 O392 O 0.45207 -0.03386 -0.13174
 O393 O 0.45855 -0.05939 -0.06559
 C394 C 0.44742 -0.05495 -0.11416
 O395 O 0.48067 0.03182 -0.12188
 O396 O 0.51279 0.05816 -0.05828
 C397 C 0.49618 0.05311 -0.10358
 O398 O 0.52585 -0.03047 -0.12640
 O399 O 0.49389 -0.05768 -0.06350
 C400 C 0.51027 -0.05202 -0.11010
 Zr401 Zr 0.53034 0.00163 -0.08638
 O402 O 0.53245 0.00499 -0.19673
 O403 O 0.56219 0.00063 -0.08332
 Zr404 Zr 0.47755 -0.00073 -0.09099
 O405 O 0.48084 0.00275 -0.20123
 O406 O 0.44363 -0.00420 -0.09563
 Zr407 Zr 0.48661 -0.03539 -0.00226
 Zr408 Zr 0.51929 0.03487 0.00140
 O409 O 0.51359 0.02105 -0.10049
 O410 O 0.49427 -0.02053 -0.10357
 O411 O 0.54325 0.02217 0.00332
 O412 O 0.46319 -0.02213 -0.00407
 O413 O 0.52362 -0.01940 0.00133
 O414 O 0.48232 0.01946 -0.00204
 H415 H 0.51584 0.02981 0.14333
 H416 H 0.44596 -0.03328 -0.00536
 H417 H 0.51893 0.03205 -0.14092
 H418 H 0.53092 -0.02952 0.00221
 H419 H 0.43635 -0.00565 0.12510
 H420 H 0.44242 0.00466 -0.05557
 H421 H 0.48162 -0.01098 -0.21931
 H422 H 0.51801 -0.00848 -0.21614
 H423 H 0.57346 0.01389 -0.05389
 H424 H 0.57200 0.01249 0.06565
 H425 H 0.51356 -0.01028 0.21800
 H426 H 0.47739 -0.01329 0.21449
 C427 C 1.13341 0.49790 0.24120
 C428 C 1.12965 0.47581 0.26490
 C429 C 1.14776 0.47415 0.29934
 C430 C 1.16975 0.49444 0.31421
 C431 C 1.17276 0.51647 0.29240
 C432 C 1.15508 0.51814 0.25624
 C433 C 1.11383 0.49881 0.20302
 C434 C 1.11660 0.51950 0.17105
 C435 C 1.09767 0.51952 0.13724
 C436 C 1.07541 0.49906 0.13530
 C437 C 1.07262 0.47822 0.16546
 C438 C 1.09171 0.47785 0.19797
 C439 C 1.10756 0.45552 0.25595
 C440 C 1.08887 0.45661 0.22448
 H441 H 1.10452 0.43858 0.27476
 H442 H 1.07202 0.44048 0.21999
 H443 H 1.14377 0.45697 0.31861
 H444 H 1.18927 0.53271 0.29930
 H445 H 1.10041 0.53571 0.11332
 H446 H 1.05565 0.46215 0.16272
 H447 H 1.15873 0.53553 0.24090
 H448 H 1.13326 0.53578 0.17094
 C449 C 0.49619 0.63148 0.24485
 C450 C 0.51825 0.65088 0.26402
 C451 C 0.51932 0.67055 0.29682
 C452 C 0.49862 0.67098 0.31374
 C453 C 0.47674 0.65138 0.29623
 C454 C 0.47550 0.63199 0.26198
 C455 C 0.49586 0.61102 0.20864
 C456 C 0.47506 0.59176 0.18213
 C457 C 0.47570 0.57307 0.14928
 C458 C 0.49697 0.57290 0.14285
 C459 C 0.51782 0.59211 0.16823
 C460 C 0.51749 0.61129 0.19975
 C461 C 0.53910 0.65037 0.25159
 C462 C 0.53869 0.63084 0.22130
 H463 H 0.55599 0.66515 0.26667
 H464 H 0.55528 0.63117 0.21387
 H465 H 0.53640 0.68555 0.30912
 H466 H 0.46041 0.65076 0.31019
 H467 H 0.45941 0.55855 0.12955
 H468 H 0.53444 0.59238 0.16209
 H469 H 0.45818 0.61741 0.25066
 H470 H 0.45819 0.59089 0.18554
 C471 C 0.36882 -0.13746 0.24356
 C472 C 0.34950 -0.13498 0.26511
 C473 C 0.33003 -0.15377 0.29836
 C474 C 0.32951 -0.17517 0.31322
 C475 C 0.34924 -0.17711 0.29358
 C476 C 0.36845 -0.15869 0.25895
 C477 C 0.38899 -0.11712 0.20656
 C478 C 0.40819 -0.11838 0.17790
 C479 C 0.42655 -0.09888 0.14405
 C480 C 0.42636 -0.07759 0.13865
 C481 C 0.40727 -0.07621 0.16648
 C482 C 0.38849 -0.09583 0.19918
 C483 C 0.34987 -0.11359 0.25473
 C484 C 0.36910 -0.09433 0.22344
 H485 H 0.33517 -0.11160 0.27183
 H486 H 0.36863 -0.07810 0.21733
 H487 H 0.31581 -0.15106 0.31581
 H488 H 0.34965 -0.19326 0.30214
 H489 H 0.44109 -0.10038 0.12277
 H490 H 0.40679 -0.05994 0.16138
 H491 H 0.38288 -0.16143 0.24500
 H492 H 0.40928 -0.13427 0.18044
 C493 C 0.86743 0.50799 0.24399
 C494 C 0.84699 0.48590 0.25652
 C495 C 0.82758 0.48476 0.29159
 C496 C 0.82781 0.50543 0.31268
 C497 C 0.84775 0.52732 0.29725
 C498 C 0.86731 0.52863 0.26375
 C499 C 0.88816 0.50842 0.20920
 C500 C 0.91008 0.52924 0.20078
 C501 C 0.92888 0.52874 0.16809
 C502 C 0.92626 0.50756 0.14218
 C503 C 0.90460 0.48668 0.15086
 C504 C 0.88576 0.48688 0.18538
 C505 C 0.84597 0.46512 0.23340
 C506 C 0.86477 0.46564 0.19744
 H507 H 0.83026 0.44820 0.24244
 H508 H 0.86299 0.44911 0.17988
 H509 H 0.81240 0.46768 0.30316
 H510 H 0.84823 0.54362 0.31055
 H511 H 0.94548 0.54507 0.16227
 H512 H 0.90259 0.47018 0.13214
 H513 H 0.88200 0.54597 0.25308
 H514 H 0.91319 0.54604 0.21979
 C515 C 0.49990 0.36196 0.24267
 C516 C 0.47978 0.34568 0.28120
 C517 C 0.47951 0.32645 0.31496
 C518 C 0.49925 0.32340 0.31236
 C519 C 0.51938 0.33983 0.27572
 C520 C 0.51973 0.35883 0.24104
 C521 C 0.49924 0.38195 0.20607
 C522 C 0.51770 0.39823 0.16289
 C523 C 0.51623 0.41650 0.12985
 C524 C 0.49646 0.41925 0.13940
 C525 C 0.47788 0.40301 0.18190
 C526 C 0.47901 0.38431 0.21447
 C527 C 0.46016 0.34880 0.28655
 C528 C 0.45989 0.36785 0.25456
 H529 H 0.44482 0.33642 0.31644
 H530 H 0.44434 0.36957 0.26072
 H531 H 0.46407 0.31405 0.34449
 H532 H 0.53482 0.33779 0.27320
 H533 H 0.53071 0.42854 0.09671
 H534 H 0.46235 0.40470 0.18900
 H535 H 0.53572 0.37089 0.21375
 H536 H 0.53334 0.39707 0.15330
 C537 C 0.63796 0.13464 0.24522
 C538 C 0.65671 0.13162 0.26972
 C539 C 0.67630 0.15037 0.30244
 C540 C 0.67720 0.17203 0.31383
 C541 C 0.65809 0.17456 0.29171
 C542 C 0.63883 0.15626 0.25759
 C543 C 0.61772 0.11448 0.20860
 C544 C 0.59942 0.11648 0.17629
 C545 C 0.58090 0.09717 0.14313
 C546 C 0.57987 0.07525 0.14209
 C547 C 0.59821 0.07314 0.17313
 C548 C 0.61729 0.09266 0.20505
 C549 C 0.65560 0.10979 0.26252
 C550 C 0.63611 0.09061 0.23212
 H551 H 0.66985 0.10738 0.28179
 H552 H 0.63594 0.07399 0.22881
 H553 H 0.69088 0.14804 0.31880
 H554 H 0.65775 0.19065 0.30175
 H555 H 0.56722 0.09940 0.11859
 H556 H 0.59790 0.05643 0.17116
 H557 H 0.62464 0.15926 0.24257
 H558 H 0.59922 0.13286 0.17514
 C559 C 0.49307 0.13120 -0.23812
 C560 C 0.51490 0.15193 -0.25038
 C561 C 0.51560 0.17119 -0.28544
 C562 C 0.49469 0.17067 -0.30691
 C563 C 0.47300 0.15024 -0.29163
 C564 C 0.47219 0.13083 -0.25829
 C565 C 0.49314 0.11066 -0.20328
 C566 C 0.47260 0.08847 -0.19501
 C567 C 0.47365 0.06982 -0.16279
 C568 C 0.49509 0.07290 -0.13717
 C569 C 0.51565 0.09487 -0.14529
 C570 C 0.51491 0.11355 -0.17928
 C571 C 0.53592 0.15348 -0.22662
 C572 C 0.53588 0.13485 -0.19079
 H573 H 0.55266 0.16945 -0.23526
 H574 H 0.55259 0.13701 -0.17294
 H575 H 0.53256 0.18697 -0.29301
 H576 H 0.45641 0.14854 -0.30827
 H577 H 0.45758 0.05297 -0.15739
 H578 H 0.53238 0.09724 -0.12688
 H579 H 0.45501 0.11574 -0.24879
 H580 H 0.45563 0.08502 -0.21394
 C581 C 0.63686 0.50774 -0.24655
 C582 C 0.63817 0.48684 -0.24581
 C583 C 0.65676 0.48608 -0.28007
 C584 C 0.67488 0.50613 -0.31443
 C585 C 0.67363 0.52707 -0.31265
 C586 C 0.65501 0.52784 -0.27966
 C587 C 0.61631 0.50758 -0.21120
 C588 C 0.61244 0.52694 -0.21323
 C589 C 0.59299 0.52585 -0.17951
 C590 C 0.57700 0.50557 -0.14235
 C591 C 0.58066 0.48618 -0.14034
 C592 C 0.59985 0.48689 -0.17527
 C593 C 0.62095 0.46675 -0.21064
 C594 C 0.60240 0.46688 -0.17530
 H595 H 0.62196 0.45071 -0.20973
 H596 H 0.58967 0.45095 -0.14831
 H597 H 0.65630 0.46934 -0.28162
 H598 H 0.68745 0.54343 -0.33441
 H599 H 0.59057 0.54106 -0.18212
 H600 H 0.56834 0.47032 -0.11237
 H601 H 0.65541 0.54452 -0.27979
 H602 H 0.62406 0.54298 -0.24109
 C603 C 0.86691 0.36619 -0.24527
 C604 C 0.87148 0.34999 -0.28064
 C605 C 0.85307 0.33033 -0.31418
 C606 C 0.82983 0.32666 -0.31582
 C607 C 0.82588 0.34358 -0.28224
 C608 C 0.84396 0.36282 -0.24748
 C609 C 0.88687 0.38652 -0.20825
 C610 C 0.88367 0.40232 -0.16619
 C611 C 0.90282 0.42102 -0.13298
 C612 C 0.92575 0.42476 -0.14150
 C613 C 0.92908 0.40887 -0.18232
 C614 C 0.90981 0.38962 -0.21458
 C615 C 0.89450 0.35364 -0.28312
 C616 C 0.91331 0.37325 -0.25193
 H617 H 0.89811 0.34134 -0.31063
 H618 H 0.93082 0.37545 -0.25629
 H619 H 0.85712 0.31769 -0.33702
 H620 H 0.80902 0.34283 -0.28461
 H621 H 0.89958 0.43261 -0.10049
 H622 H 0.94661 0.41120 -0.18807
 H623 H 0.83965 0.37516 -0.22404
 H624 H 0.86650 0.40038 -0.15736
 C625 C 0.51370 -0.12912 -0.24854
 C626 C 0.49223 -0.15078 -0.25312
 C627 C 0.49155 -0.17010 -0.28690
 C628 C 0.51216 -0.16864 -0.31445
 C629 C 0.53356 -0.14732 -0.30785
 C630 C 0.53435 -0.12781 -0.27570
 C631 C 0.51349 -0.10870 -0.21391
 C632 C 0.53339 -0.08587 -0.21172
 C633 C 0.53225 -0.06746 -0.17868
 C634 C 0.51136 -0.07139 -0.14626
 C635 C 0.49142 -0.09401 -0.14863
 C636 C 0.49218 -0.11248 -0.18317
 C637 C 0.47160 -0.15315 -0.22331
 C638 C 0.47166 -0.13454 -0.18806
 H639 H 0.45518 -0.16979 -0.22641
 H640 H 0.45529 -0.13736 -0.16511
 H641 H 0.47479 -0.18627 -0.29217
 H642 H 0.54988 -0.14573 -0.32684
 H643 H 0.54789 -0.05015 -0.17778
 H644 H 0.47511 -0.09718 -0.12451
 H645 H 0.55133 -0.11200 -0.27183
 H646 H 0.54992 -0.08179 -0.23577
 C647 C 0.36072 0.49176 -0.25614
 C648 C 0.34553 0.49687 -0.21666
 C649 C 0.32642 0.49720 -0.24932
 C650 C 0.32281 0.49347 -0.32154
 C651 C 0.33845 0.48944 -0.36108
 C652 C 0.35710 0.48845 -0.32891
 C653 C 0.38031 0.49061 -0.21891
 C654 C 0.39473 0.48317 -0.25185
 C655 C 0.41296 0.48269 -0.21526
 C656 C 0.41748 0.48986 -0.14527
 C657 C 0.40296 0.49686 -0.11144
 C658 C 0.38414 0.49680 -0.14727
 C659 C 0.34976 0.50204 -0.14525
 C660 C 0.36894 0.50248 -0.11165
 H661 H 0.33829 0.50619 -0.11511
 H662 H 0.37169 0.50698 -0.05661
 H663 H 0.31456 0.50076 -0.21893
 H664 H 0.33596 0.48665 -0.41700
 H665 H 0.42388 0.47712 -0.24233
 H666 H 0.40606 0.50197 -0.05685
 H667 H 0.36859 0.48531 -0.36200
 H668 H 0.39211 0.47746 -0.30558
 C669 C 1.13329 0.64195 -0.24463
 C670 C 1.15406 0.64064 -0.25368
 C671 C 1.17362 0.65882 -0.28868
 C672 C 1.17341 0.67911 -0.31299
 C673 C 1.15292 0.68061 -0.30092
 C674 C 1.13319 0.66233 -0.26788
 C675 C 1.11247 0.62172 -0.20953
 C676 C 1.09022 0.62018 -0.20429
 C677 C 1.07134 0.60084 -0.17149
 C678 C 1.07423 0.58276 -0.14221
 C679 C 1.09628 0.58413 -0.14726
 C680 C 1.11517 0.60311 -0.18190
 C681 C 1.15538 0.62139 -0.22659
 C682 C 1.13651 0.60325 -0.19037
 H683 H 1.17137 0.62046 -0.23276
 H684 H 1.13852 0.58888 -0.16979
 H685 H 1.18941 0.65749 -0.29377
 H686 H 1.15148 0.69545 -0.31981
 H687 H 1.05447 0.60016 -0.16852
 H688 H 1.09862 0.57011 -0.12565
 H689 H 1.11806 0.66457 -0.26089
 H690 H 1.08693 0.63350 -0.22604
 C691 C 0.86604 0.50553 -0.24816
 C692 C 0.84532 0.48345 -0.25684
 C693 C 0.82552 0.48209 -0.29038
 C694 C 0.82548 0.50261 -0.31332
 C695 C 0.84599 0.52455 -0.30178
 C696 C 0.86591 0.52599 -0.27027
 C697 C 0.88706 0.50618 -0.21430
 C698 C 0.90920 0.52694 -0.20963
 C699 C 0.92818 0.52668 -0.17704
 C700 C 0.92555 0.50585 -0.14750
 C701 C 0.90368 0.48503 -0.15264
 C702 C 0.88463 0.48494 -0.18702
 C703 C 0.84429 0.46291 -0.23061
 C704 C 0.86336 0.46370 -0.19530
 H705 H 0.82835 0.44598 -0.23653
 H706 H 0.86155 0.44736 -0.17513
 H707 H 0.80976 0.46498 -0.29527
 H708 H 0.84728 0.54085 -0.31988
 H709 H 0.94492 0.54297 -0.17404
 H710 H 0.90161 0.46878 -0.13104
 H711 H 0.88099 0.54335 -0.26347
 H712 H 0.91233 0.54349 -0.23141
 C713 C 0.49933 0.36393 -0.25204
 C714 C 0.47835 0.34712 -0.28538
 C715 C 0.47715 0.32731 -0.31760
 C716 C 0.49689 0.32393 -0.31965
 C717 C 0.51789 0.34129 -0.28767
 C718 C 0.51907 0.36079 -0.25438
 C719 C 0.49962 0.38445 -0.21637
 C720 C 0.51900 0.40118 -0.17713
 C721 C 0.51822 0.41977 -0.14410
 C722 C 0.49828 0.42241 -0.15005
 C723 C 0.47888 0.40583 -0.18897
 C724 C 0.47926 0.38676 -0.22102
 C725 C 0.45864 0.35022 -0.28686
 C726 C 0.45920 0.36978 -0.25630
 H727 H 0.44256 0.33743 -0.31277
 H728 H 0.44354 0.37144 -0.25946
 H729 H 0.46034 0.31426 -0.33888
 H730 H 0.53406 0.34065 -0.29019
 H731 H 0.53330 0.43208 -0.11364
 H732 H 0.46317 0.40737 -0.19289
 H733 H 0.53579 0.37344 -0.23196
 H734 H 0.53478 0.40005 -0.17030
 C735 C 0.63913 0.13781 -0.23562
 C736 C 0.65590 0.13411 -0.27169
 C737 C 0.67479 0.15290 -0.30699
 C738 C 0.67702 0.17536 -0.30849
 C739 C 0.66015 0.17890 -0.27403
 C740 C 0.64149 0.16044 -0.23780
 C741 C 0.61937 0.11732 -0.19789
 C742 C 0.60255 0.11941 -0.15729
 C743 C 0.58424 0.09972 -0.12423
 C744 C 0.58204 0.07735 -0.13106
 C745 C 0.59898 0.07517 -0.17026
 C746 C 0.61767 0.09494 -0.20297
 C747 C 0.65352 0.11163 -0.27329
 C748 C 0.63468 0.09242 -0.24036
 H749 H 0.66629 0.10877 -0.30120
 H750 H 0.63349 0.07533 -0.24390
 H751 H 0.68754 0.14995 -0.33470
 H752 H 0.66155 0.19611 -0.27450
 H753 H 0.57160 0.10204 -0.09382
 H754 H 0.59771 0.05807 -0.17517
 H755 H 0.62905 0.16424 -0.21247
 H756 H 0.60321 0.13606 -0.15015
 C757 C 1.13315 0.49631 -0.23795
 C758 C 1.12967 0.47406 -0.25855
 C759 C 1.14788 0.47243 -0.29219
 C760 C 1.16935 0.49280 -0.30891
 C761 C 1.17235 0.51488 -0.29035
 C762 C 1.15464 0.51664 -0.25501
 C763 C 1.11348 0.49726 -0.20084
 C764 C 1.11601 0.51817 -0.17203
 C765 C 1.09702 0.51825 -0.13917
 C766 C 1.07493 0.49764 -0.13504
 C767 C 1.07237 0.47658 -0.16197
 C768 C 1.09156 0.47616 -0.19345
 C769 C 1.10785 0.45365 -0.24701
 C770 C 1.08906 0.45474 -0.21653
 H771 H 1.10509 0.43661 -0.26325
 H772 H 1.07239 0.43851 -0.21012
 H773 H 1.14519 0.45519 -0.30547
 H774 H 1.18828 0.53101 -0.30436
 H775 H 1.09961 0.53463 -0.11765
 H776 H 1.05553 0.46041 -0.15741
 H777 H 1.15793 0.53412 -0.24306
 H778 H 1.13253 0.53458 -0.17364
 C779 C 0.49724 0.63419 -0.23361
 C780 C 0.51901 0.65286 -0.25810
 C781 C 0.51984 0.67215 -0.29329
 C782 C 0.49910 0.67307 -0.30706
 C783 C 0.47747 0.65408 -0.28358
 C784 C 0.47655 0.63509 -0.24724
 C785 C 0.49717 0.61400 -0.19583
 C786 C 0.47667 0.59526 -0.16566
 C787 C 0.47743 0.57658 -0.13257
 C788 C 0.49856 0.57600 -0.12909
 C789 C 0.51917 0.59480 -0.15764
 C790 C 0.51868 0.61385 -0.19009
 C791 C 0.53980 0.65195 -0.24888
 C792 C 0.53959 0.63273 -0.21643
 H793 H 0.55649 0.66618 -0.26801
 H794 H 0.55610 0.63273 -0.21154
 H795 H 0.53670 0.68579 -0.31321
 H796 H 0.46106 0.65409 -0.29066
 H797 H 0.46129 0.56232 -0.11074
 H798 H 0.53568 0.59472 -0.15418
 H799 H 0.45941 0.62123 -0.23070
 H800 H 0.45990 0.59466 -0.16688
 C801 C 0.36882 -0.13436 -0.25212
 C802 C 0.35220 -0.12995 -0.28609
 C803 C 0.33229 -0.14843 -0.31843
 C804 C 0.32865 -0.17162 -0.31996
 C805 C 0.34581 -0.17552 -0.28724
 C806 C 0.36540 -0.15733 -0.25385
 C807 C 0.38949 -0.11426 -0.21648
 C808 C 0.40605 -0.11715 -0.17674
 C809 C 0.42480 -0.09791 -0.14382
 C810 C 0.42778 -0.07522 -0.15037
 C811 C 0.41134 -0.07217 -0.18975
 C812 C 0.39211 -0.09149 -0.22172
 C813 C 0.35559 -0.10706 -0.28812
 C814 C 0.37528 -0.08819 -0.25754
 H815 H 0.34293 -0.10359 -0.31450
 H816 H 0.37717 -0.07079 -0.26116
 H817 H 0.31939 -0.14448 -0.34027
 H818 H 0.34494 -0.19242 -0.28930
 H819 H 0.43695 -0.10088 -0.11290
 H820 H 0.41314 -0.05482 -0.19416
 H821 H 0.37789 -0.16160 -0.23091
 H822 H 0.40468 -0.13414 -0.16940
 C823 C 0.50188 -0.13424 0.25650
 C824 C 0.49676 -0.15426 0.21577
 C825 C 0.49556 -0.17424 0.24756
 C826 C 0.49844 -0.17493 0.32001
 C827 C 0.50250 -0.15553 0.36073
 C828 C 0.50434 -0.13535 0.32949
 C829 C 0.50399 -0.11291 0.22015
 C830 C 0.51140 -0.09131 0.25450
 C831 C 0.51285 -0.07202 0.21839
 C832 C 0.50669 -0.07387 0.14753
 C833 C 0.49970 -0.09514 0.11250
 C834 C 0.49877 -0.11445 0.14782
 C835 C 0.49251 -0.15437 0.14389
 C836 C 0.49303 -0.13507 0.11092
 H837 H 0.48836 -0.16978 0.11281
 H838 H 0.48925 -0.13616 0.05538
 H839 H 0.49200 -0.18943 0.21621
 H840 H 0.50469 -0.15584 0.41686
 H841 H 0.51839 -0.05572 0.24636
 H842 H 0.49536 -0.09655 0.05729
 H843 H 0.50750 -0.12094 0.36339
 H844 H 0.51633 -0.08888 0.30898
 C845 C 0.35154 0.47992 0.23237
 C846 C 0.35086 0.50110 0.23865
 C847 C 0.33213 0.50120 0.27401
 C848 C 0.31340 0.48029 0.30178
 C849 C 0.31374 0.45915 0.29326
 C850 C 0.33254 0.45894 0.25933
 C851 C 0.37246 0.48083 0.19704
 C852 C 0.37591 0.46125 0.19343
 C853 C 0.39600 0.46320 0.16145
 C854 C 0.41303 0.48461 0.13147
 C855 C 0.40963 0.50413 0.13418
 C856 C 0.38983 0.50254 0.16778
 C857 C 0.36882 0.52209 0.20942
 C858 C 0.38769 0.52271 0.17379
 H859 H 0.36820 0.53828 0.21370
 H860 H 0.40108 0.53937 0.15180
 H861 H 0.33239 0.51776 0.28072
 H862 H 0.29932 0.44262 0.31238
 H863 H 0.39819 0.44785 0.16010
 H864 H 0.42276 0.52083 0.11178
 H865 H 0.33174 0.44215 0.25427
 H866 H 0.36353 0.44439 0.21598
 C867 C 1.13289 0.64348 0.23330
 C868 C 1.15340 0.64192 0.24565
 C869 C 1.17249 0.65986 0.28234
 C870 C 1.17192 0.67995 0.30528
 C871 C 1.15189 0.68184 0.29026
 C872 C 1.13262 0.66387 0.25513
 C873 C 1.11244 0.62340 0.19704
 C874 C 1.09041 0.62211 0.18853
 C875 C 1.07173 0.60272 0.15588
 C876 C 1.07462 0.58432 0.12996
 C877 C 1.09653 0.58552 0.13764
 C878 C 1.11520 0.60456 0.17226
 C879 C 1.15484 0.62255 0.22096
 C880 C 1.13631 0.60448 0.18395
 H881 H 1.17063 0.62145 0.22981
 H882 H 1.13835 0.58996 0.16550
 H883 H 1.18768 0.65795 0.29376
 H884 H 1.15114 0.69739 0.30513
 H885 H 1.05496 0.60216 0.15074
 H886 H 1.09882 0.57123 0.11865
 H887 H 1.11782 0.66643 0.24495
 H888 H 1.08707 0.63563 0.20786
 C889 C 0.48932 0.12778 0.24253
 C890 C 0.51098 0.14887 0.25316
 C891 C 0.51147 0.16774 0.28917
 C892 C 0.49052 0.16643 0.31310
 C893 C 0.46899 0.14576 0.30030
 C894 C 0.46836 0.12667 0.26587
 C895 C 0.48971 0.10771 0.20614
 C896 C 0.46949 0.08528 0.19848
 C897 C 0.47090 0.06708 0.16500
 C898 C 0.49238 0.07087 0.13741
 C899 C 0.51257 0.09315 0.14460
 C900 C 0.51151 0.11135 0.17986
 C901 C 0.53204 0.15111 0.22724
 C902 C 0.53224 0.13290 0.19035
 H903 H 0.54861 0.16732 0.23489
 H904 H 0.54896 0.13560 0.17078
 H905 H 0.52830 0.18341 0.29908
 H906 H 0.45245 0.14436 0.31617
 H907 H 0.45508 0.05001 0.16035
 H908 H 0.52931 0.09617 0.12436
 H909 H 0.45127 0.11135 0.25729
 H910 H 0.45253 0.08130 0.21891
 C911 C 0.63334 0.50190 0.25462
 C912 C 0.63490 0.48110 0.25063
 C913 C 0.65363 0.48008 0.28335
 C914 C 0.67132 0.49976 0.31846
 C915 C 0.67003 0.52048 0.32108
 C916 C 0.65128 0.52157 0.28989
 C917 C 0.61288 0.50216 0.21993
 C918 C 0.60887 0.52138 0.22461
 C919 C 0.58971 0.52087 0.19060
 C920 C 0.57415 0.50133 0.15053
 C921 C 0.57782 0.48198 0.14626
 C922 C 0.59677 0.48211 0.18134
 C923 C 0.61798 0.46162 0.21315
 C924 C 0.59950 0.46222 0.17849
 H925 H 0.61921 0.44574 0.20976
 H926 H 0.58704 0.44677 0.14949
 H927 H 0.65475 0.46412 0.28029
 H928 H 0.68347 0.53585 0.34819
 H929 H 0.58726 0.53601 0.19502
 H930 H 0.56577 0.46666 0.11617
 H931 H 0.65132 0.53802 0.29354
 H932 H 0.62021 0.53691 0.25453
 C933 C 0.86893 0.36631 0.25235
 C934 C 0.84611 0.36345 0.24443
 C935 C 0.82659 0.34442 0.27710
 C936 C 0.82937 0.32772 0.31589
 C937 C 0.85188 0.33028 0.32225
 C938 C 0.87143 0.34932 0.29123
 C939 C 0.88936 0.38706 0.21780
 C940 C 0.91289 0.39233 0.22648
 C941 C 0.93129 0.41163 0.19248
 C942 C 0.92683 0.42620 0.14851
 C943 C 0.90345 0.42127 0.14014
 C944 C 0.88481 0.40210 0.17518
 C945 C 0.84286 0.37933 0.20302
 C946 C 0.86173 0.39802 0.16830
 H947 H 0.82539 0.37709 0.19651
 H948 H 0.85823 0.40959 0.13601
 H949 H 0.80914 0.34230 0.27119
 H950 H 0.85439 0.31759 0.35217
 H951 H 0.94912 0.41498 0.20024
 H952 H 0.89972 0.43242 0.10664
 H953 H 0.88824 0.35025 0.29786
 H954 H 0.91753 0.38188 0.25959
   
