data_POSCAR
  _audit_creation_date              2014-09-24
  _audit_creation_method            'ToBaCCo'
  _symmetry_space_group_name_H-M    'P1'
  _symmetry_Int_Tables_number       1
  _symmetry_cell_setting            triclinic
  loop_
  _symmetry_equiv_pos_as_xyz
 x,y,z
_cell_length_a 46.9093
_cell_length_b 46.7349
_cell_length_c 46.8336
_cell_angle_alpha 90.000300
_cell_angle_beta 90.012900
_cell_angle_gamma 89.940000
loop_
  _atom_site_label
  _atom_site_type_symbol
  _atom_site_fract_x
  _atom_site_fract_y
  _atom_site_fract_z
C1 C 0.27152 0.25014 0.22847
 C2 C 0.25022 0.27129 0.22864
 C3 C 0.22893 0.27146 0.24973
 C4 C 0.22912 0.25009 0.27083
 C5 C 0.25023 0.22875 0.27103
 C6 C 0.27134 0.22897 0.24976
 H7 H 0.24977 0.28725 0.21187
 H8 H 0.21277 0.25006 0.28716
 H9 H 0.28813 0.21303 0.25021
 C10 C 0.72825 -0.24990 0.22788
 C11 C 0.74984 -0.27102 0.22828
 C12 C 0.77145 -0.27139 0.24932
 C13 C 0.77107 -0.24972 0.27028
 C14 C 0.75000 -0.22844 0.27040
 C15 C 0.72882 -0.22867 0.24929
 H16 H 0.75123 -0.28586 0.21067
 H17 H 0.78623 -0.25000 0.28768
 H18 H 0.71235 -0.21251 0.25030
 C19 C 0.72907 0.25028 0.77166
 C20 C 0.75036 0.27140 0.77159
 C21 C 0.77181 0.27196 0.75038
 C22 C 0.77120 0.25046 0.72915
 C23 C 0.75007 0.22919 0.72896
 C24 C 0.72912 0.22929 0.75029
 H25 H 0.74946 0.28780 0.78783
 H26 H 0.78803 0.24904 0.71344
 H27 H 0.71233 0.21339 0.74984
 C28 C 0.27110 -0.25051 0.77172
 C29 C 0.27090 -0.22937 0.75050
 C30 C 0.24974 -0.22907 0.72937
 C31 C 0.22852 -0.25026 0.72962
 C32 C 0.22809 -0.27193 0.75069
 C33 C 0.24977 -0.27158 0.77167
 H34 H 0.28771 -0.21350 0.74998
 H35 H 0.21287 -0.25004 0.71269
 H36 H 0.24944 -0.28672 0.78913
 C37 C 0.72845 -0.25032 0.77153
 C38 C 0.74981 -0.27141 0.77150
 C39 C 0.77153 -0.27173 0.75059
 C40 C 0.77112 -0.25004 0.72956
 C41 C 0.74992 -0.22879 0.72932
 C42 C 0.72870 -0.22911 0.75037
 H43 H 0.75010 -0.28658 0.78893
 H44 H 0.78632 -0.25028 0.71221
 H45 H 0.71229 -0.21279 0.75029
 C46 C 0.27157 0.25006 0.77134
 C47 C 0.27140 0.22890 0.75004
 C48 C 0.25027 0.22868 0.72878
 C49 C 0.22913 0.25000 0.72900
 C50 C 0.22895 0.27134 0.75012
 C51 C 0.25025 0.27119 0.77119
 H52 H 0.28819 0.21298 0.74957
 H53 H 0.21277 0.24997 0.71268
 H54 H 0.24981 0.28713 0.78798
 C55 C 0.27200 -0.25050 0.22789
 C56 C 0.25047 -0.27165 0.22837
 C57 C 0.22919 -0.27172 0.24947
 C58 C 0.22933 -0.25042 0.27053
 C59 C 0.25036 -0.22915 0.27070
 C60 C 0.27148 -0.22933 0.24944
 H61 H 0.24950 -0.28784 0.21193
 H62 H 0.21256 -0.24997 0.28642
 H63 H 0.28837 -0.21367 0.25092
 C64 C 0.72883 0.25012 0.22836
 C65 C 0.75010 0.27126 0.22852
 C66 C 0.77134 0.27147 0.24966
 C67 C 0.77113 0.25017 0.27083
 C68 C 0.75005 0.22885 0.27103
 C69 C 0.72899 0.22901 0.24970
 H70 H 0.75011 0.28762 0.21213
 H71 H 0.78788 0.24975 0.28675
 H72 H 0.71223 0.21309 0.25016
 O73 O 0.27410 0.02739 0.47213
 O74 O 0.27409 -0.02829 0.52777
 O75 O 0.27409 -0.02832 0.47216
 O76 O 0.27410 0.02742 0.52772
 O77 O 0.22708 0.02747 0.52771
 O78 O 0.22707 -0.02826 0.47216
 O79 O 0.22708 -0.02823 0.52775
 O80 O 0.22709 0.02745 0.47213
 Cu81 Cu 0.27881 -0.00046 0.49995
 Cu82 Cu 0.22237 -0.00039 0.49994
 C83 C 0.25060 0.03697 0.46259
 C84 C 0.25058 -0.03780 0.53730
 C85 C 0.25057 -0.03783 0.46263
 C86 C 0.25059 0.03700 0.53724
 O87 O 0.72627 0.02786 0.52787
 O88 O 0.72626 -0.02788 0.47229
 O89 O 0.72625 -0.02786 0.52789
 O90 O 0.72629 0.02783 0.47228
 O91 O 0.77330 0.02776 0.47230
 O92 O 0.77327 -0.02792 0.52791
 O93 O 0.77328 -0.02795 0.47231
 O94 O 0.77329 0.02779 0.52789
 Cu95 Cu 0.72156 -0.00001 0.50008
 Cu96 Cu 0.77799 -0.00009 0.50010
 C97 C 0.74978 0.03738 0.53741
 C98 C 0.74977 -0.03746 0.46276
 C99 C 0.74975 -0.03743 0.53743
 C100 C 0.74980 0.03734 0.46276
 O101 O 0.47237 0.27380 0.02770
 O102 O 0.52788 0.27379 -0.02789
 O103 O 0.47237 0.27380 -0.02789
 O104 O 0.52788 0.27379 0.02770
 O105 O 0.52792 0.22660 0.02770
 O106 O 0.47242 0.22661 -0.02789
 O107 O 0.52792 0.22660 -0.02789
 O108 O 0.47242 0.22661 0.02770
 Cu109 Cu 0.50012 0.27852 -0.00009
 Cu110 Cu 0.50017 0.22188 -0.00009
 C111 C 0.46288 0.25020 0.03723
 C112 C 0.53741 0.25020 -0.03742
 C113 C 0.46288 0.25020 -0.03742
 C114 C 0.53741 0.25019 0.03723
 O115 O 0.52783 0.72593 0.02792
 O116 O 0.47226 0.72587 -0.02765
 O117 O 0.52777 0.72592 -0.02768
 O118 O 0.47232 0.72589 0.02795
 O119 O 0.47224 0.77308 0.02793
 O120 O 0.52768 0.77311 -0.02769
 O121 O 0.47218 0.77306 -0.02766
 O122 O 0.52774 0.77312 0.02790
 Cu123 Cu 0.50005 0.72117 0.00014
 Cu124 Cu 0.49995 0.77782 0.00012
 C125 C 0.53731 0.74954 0.03743
 C126 C 0.46269 0.74946 -0.03717
 C127 C 0.53723 0.74952 -0.03722
 C128 C 0.46277 0.74948 0.03747
 O129 O 0.02763 0.47248 0.27285
 O130 O -0.02795 0.52818 0.27282
 O131 O -0.02788 0.47248 0.27286
 O132 O 0.02756 0.52818 0.27283
 O133 O 0.02754 0.52816 0.22573
 O134 O -0.02789 0.47244 0.22577
 O135 O -0.02797 0.52815 0.22573
 O136 O 0.02762 0.47245 0.22576
 Cu137 Cu -0.00016 0.50033 0.27756
 Cu138 Cu -0.00018 0.50030 0.22103
 C139 C 0.03715 0.46292 0.24931
 C140 C -0.03749 0.53771 0.24927
 C141 C -0.03738 0.46291 0.24932
 C142 C 0.03706 0.53771 0.24928
 O143 O 0.02763 0.52797 0.72736
 O144 O -0.02785 0.47228 0.72721
 O145 O -0.02787 0.52799 0.72731
 O146 O 0.02765 0.47227 0.72725
 O147 O 0.02764 0.47218 0.77434
 O148 O -0.02790 0.52791 0.77441
 O149 O -0.02787 0.47219 0.77431
 O150 O 0.02761 0.52789 0.77445
 Cu151 Cu -0.00011 0.50014 0.72257
 Cu152 Cu -0.00013 0.50003 0.77909
 C153 C 0.03714 0.53747 0.75093
 C154 C -0.03737 0.46269 0.75074
 C155 C -0.03741 0.53750 0.75087
 C156 C 0.03717 0.46268 0.75078
 C157 C 0.33644 0.25019 0.16363
 C158 C 0.32402 0.22441 0.17233
 C159 C 0.30292 0.22437 0.19341
 C160 C 0.29394 0.25016 0.20607
 C161 C 0.30655 0.27597 0.19715
 C162 C 0.32766 0.27596 0.17608
 C163 C 0.35817 0.25020 0.14194
 C164 C 0.37636 0.25020 0.12377
 C165 C 0.39808 0.25020 0.10206
 C166 C 0.40868 0.22430 0.09146
 C167 C 0.42977 0.22427 0.07037
 C168 C 0.44054 0.25020 0.05958
 C169 C 0.42974 0.27614 0.07039
 C170 C 0.40865 0.27611 0.09149
 H171 H 0.33060 0.20435 0.16278
 H172 H 0.29337 0.20421 0.19955
 H173 H 0.30036 0.29612 0.20674
 H174 H 0.33719 0.29603 0.16955
 H175 H 0.40065 0.20412 0.09950
 H176 H 0.43762 0.20394 0.06252
 H177 H 0.43756 0.29647 0.06256
 H178 H 0.40058 0.29628 0.09954
 C179 C 0.66389 0.74984 0.16376
 C180 C 0.67729 0.72434 0.17164
 C181 C 0.69845 0.72438 0.19266
 C182 C 0.70673 0.75005 0.20641
 C183 C 0.69279 0.77562 0.19806
 C184 C 0.67168 0.77543 0.17699
 C185 C 0.64214 0.74974 0.14207
 C186 C 0.62392 0.74968 0.12391
 C187 C 0.60218 0.74964 0.10222
 C188 C 0.59151 0.77553 0.09164
 C189 C 0.57040 0.77553 0.07056
 C190 C 0.55967 0.74957 0.05977
 C191 C 0.57053 0.72365 0.07056
 C192 C 0.59165 0.72372 0.09164
 H193 H 0.67122 0.70432 0.16169
 H194 H 0.70733 0.70390 0.19876
 H195 H 0.69879 0.79617 0.20676
 H196 H 0.66159 0.79537 0.17085
 H197 H 0.59952 0.79572 0.09969
 H198 H 0.56250 0.79584 0.06273
 H199 H 0.56274 0.70331 0.06272
 H200 H 0.59976 0.70355 0.09968
 C201 C 0.66393 0.25023 -0.16375
 C202 C 0.67686 0.22454 -0.17203
 C203 C 0.69802 0.22454 -0.19305
 C204 C 0.70655 0.25029 -0.20604
 C205 C 0.69339 0.27601 -0.19759
 C206 C 0.67222 0.27595 -0.17658
 C207 C 0.64217 0.25021 -0.14208
 C208 C 0.62395 0.25020 -0.12393
 C209 C 0.60222 0.25019 -0.10224
 C210 C 0.59167 0.22429 -0.09165
 C211 C 0.57057 0.22426 -0.07056
 C212 C 0.55975 0.25020 -0.05977
 C213 C 0.57050 0.27613 -0.07058
 C214 C 0.59159 0.27610 -0.09167
 H215 H 0.67064 0.20451 -0.16219
 H216 H 0.70797 0.20446 -0.19889
 H217 H 0.69920 0.29611 -0.20749
 H218 H 0.66228 0.29595 -0.17040
 H219 H 0.59975 0.20411 -0.09968
 H220 H 0.56276 0.20393 -0.06271
 H221 H 0.56263 0.29646 -0.06275
 H222 H 0.59962 0.29628 -0.09972
 C223 C 0.33610 0.74942 -0.16348
 C224 C 0.32742 0.72367 -0.17599
 C225 C 0.30628 0.72367 -0.19705
 C226 C 0.29356 0.74947 -0.20589
 C227 C 0.30245 0.77525 -0.19318
 C228 C 0.32358 0.77520 -0.17212
 C229 C 0.35785 0.74940 -0.14180
 C230 C 0.37607 0.74939 -0.12364
 C231 C 0.39781 0.74940 -0.10195
 C232 C 0.40847 0.72351 -0.09138
 C233 C 0.42958 0.72349 -0.07030
 C234 C 0.44034 0.74944 -0.05951
 C235 C 0.42948 0.77536 -0.07029
 C236 C 0.40836 0.77532 -0.09137
 H237 H 0.33703 0.70360 -0.16951
 H238 H 0.30014 0.70353 -0.20667
 H239 H 0.29281 0.79541 -0.19928
 H240 H 0.33009 0.79525 -0.16252
 H241 H 0.40045 0.70332 -0.09943
 H242 H 0.43747 0.70317 -0.06247
 H243 H 0.43729 0.79570 -0.06246
 H244 H 0.40026 0.79549 -0.09941
 C245 C 0.16386 0.33635 0.24946
 C246 C 0.19219 0.34363 0.24363
 C247 C 0.21336 0.32254 0.24369
 C248 C 0.20644 0.29386 0.24962
 C249 C 0.17788 0.28676 0.25546
 C250 C 0.15675 0.30788 0.25537
 C251 C 0.14209 0.35808 0.24941
 C252 C 0.12385 0.37628 0.24938
 C253 C 0.10209 0.39800 0.24936
 C254 C 0.09146 0.40859 0.27520
 C255 C 0.07032 0.42971 0.27522
 C256 C 0.05953 0.44053 0.24933
 C257 C 0.07036 0.42973 0.22345
 C258 C 0.09150 0.40861 0.22350
 H259 H 0.19794 0.36561 0.23910
 H260 H 0.23520 0.32872 0.23946
 H261 H 0.17182 0.26483 0.25972
 H262 H 0.13486 0.30200 0.25983
 H263 H 0.09951 0.40053 0.29534
 H264 H 0.06245 0.43756 0.29549
 H265 H 0.06252 0.43758 0.20316
 H266 H 0.09958 0.40055 0.20337
 C267 C 0.16368 0.66394 0.75106
 C268 C 0.15828 0.69062 0.73876
 C269 C 0.17936 0.71173 0.73860
 C270 C 0.20651 0.70665 0.75085
 C271 C 0.21144 0.67944 0.76323
 C272 C 0.19027 0.65841 0.76328
 C273 C 0.14194 0.64223 0.75110
 C274 C 0.12372 0.62405 0.75110
 C275 C 0.10198 0.60234 0.75107
 C276 C 0.09142 0.59167 0.77689
 C277 C 0.07031 0.57057 0.77688
 C278 C 0.05948 0.55985 0.75098
 C279 C 0.07024 0.57073 0.72512
 C280 C 0.09135 0.59183 0.72520
 H281 H 0.13763 0.69522 0.72945
 H282 H 0.17364 0.73234 0.72984
 H283 H 0.23199 0.67363 0.77194
 H284 H 0.19477 0.63770 0.77266
 H285 H 0.09950 0.59966 0.79705
 H286 H 0.06249 0.56266 0.79715
 H287 H 0.06238 0.56294 0.70482
 H288 H 0.09938 0.59994 0.70508
 C289 C -0.16417 0.66432 0.24926
 C290 C -0.15877 0.69103 0.26146
 C291 C -0.17986 0.71218 0.26154
 C292 C -0.20699 0.70711 0.24930
 C293 C -0.21194 0.67985 0.23705
 C294 C -0.19077 0.65878 0.23709
 C295 C -0.14241 0.64258 0.24924
 C296 C -0.12418 0.62437 0.24923
 C297 C -0.10242 0.60264 0.24924
 C298 C -0.09185 0.59199 0.22340
 C299 C -0.07072 0.57087 0.22337
 C300 C -0.05986 0.56011 0.24926
 C301 C -0.07063 0.57097 0.27514
 C302 C -0.09177 0.59209 0.27510
 H303 H -0.13812 0.69562 0.27076
 H304 H -0.17417 0.73283 0.27025
 H305 H -0.23251 0.67407 0.22837
 H306 H -0.19527 0.63804 0.22779
 H307 H -0.09995 0.60001 0.20326
 H308 H -0.06290 0.56297 0.20309
 H309 H -0.06275 0.56315 0.29543
 H310 H -0.09980 0.60019 0.29523
 C311 C -0.16379 0.33611 0.75047
 C312 C -0.17716 0.32833 0.77594
 C313 C -0.19831 0.30728 0.77600
 C314 C -0.20662 0.29341 0.75044
 C315 C -0.19272 0.30166 0.72489
 C316 C -0.17161 0.32275 0.72498
 C317 C -0.14205 0.35782 0.75048
 C318 C -0.12385 0.37602 0.75052
 C319 C -0.10214 0.39775 0.75057
 C320 C -0.09153 0.40838 0.72475
 C321 C -0.07044 0.42951 0.72477
 C322 C -0.05969 0.44030 0.75068
 C323 C -0.07050 0.42945 0.77653
 C324 C -0.09158 0.40832 0.77645
 H325 H -0.17107 0.33838 0.79587
 H326 H -0.20712 0.30129 0.79646
 H327 H -0.19874 0.29284 0.70442
 H328 H -0.16155 0.32880 0.70506
 H329 H -0.09955 0.40035 0.70459
 H330 H -0.06259 0.43740 0.70450
 H331 H -0.06269 0.43728 0.79684
 H332 H -0.09965 0.40023 0.79656
 C333 C 0.25048 0.16374 0.33602
 C334 C 0.25640 0.15652 0.30764
 C335 C 0.25634 0.17764 0.28650
 C336 C 0.25033 0.20631 0.29349
 C337 C 0.24441 0.21335 0.32210
 C338 C 0.24450 0.19219 0.34321
 C339 C 0.25053 0.14198 0.35776
 C340 C 0.25056 0.12374 0.37597
 C341 C 0.25058 0.10197 0.39771
 C342 C 0.27639 0.09130 0.40828
 C343 C 0.27643 0.07015 0.42939
 C344 C 0.25059 0.05937 0.44022
 C345 C 0.22475 0.07024 0.42944
 C346 C 0.22477 0.09140 0.40833
 H347 H 0.26099 0.13455 0.30183
 H348 H 0.26063 0.17151 0.26462
 H349 H 0.24008 0.23527 0.32822
 H350 H 0.23997 0.19803 0.36513
 H351 H 0.29649 0.09933 0.40020
 H352 H 0.29668 0.06225 0.43722
 H353 H 0.20450 0.06242 0.43731
 H354 H 0.20467 0.09951 0.40029
 C355 C 0.74989 0.16418 0.66396
 C356 C 0.74403 0.15694 0.69235
 C357 C 0.74407 0.17805 0.71350
 C358 C 0.75000 0.20673 0.70651
 C359 C 0.75588 0.21377 0.67789
 C360 C 0.75581 0.19263 0.65678
 C361 C 0.74985 0.14242 0.64221
 C362 C 0.74983 0.12419 0.62399
 C363 C 0.74981 0.10241 0.60226
 C364 C 0.72400 0.09182 0.59168
 C365 C 0.72396 0.07065 0.57057
 C366 C 0.74979 0.05980 0.55976
 C367 C 0.77564 0.07061 0.57055
 C368 C 0.77562 0.09177 0.59165
 H369 H 0.73950 0.13497 0.69815
 H370 H 0.73983 0.17190 0.73538
 H371 H 0.76017 0.23570 0.67180
 H372 H 0.76030 0.19847 0.63485
 H373 H 0.70390 0.09991 0.59974
 H374 H 0.70370 0.06280 0.56274
 H375 H 0.79588 0.06272 0.56270
 H376 H 0.79572 0.09983 0.59970
 C377 C 0.25035 -0.16427 0.66418
 C378 C 0.25580 -0.15692 0.69264
 C379 C 0.25564 -0.17799 0.71383
 C380 C 0.24997 -0.20671 0.70683
 C381 C 0.24456 -0.21388 0.67815
 C382 C 0.24475 -0.19278 0.65699
 C383 C 0.25045 -0.14256 0.64239
 C384 C 0.25051 -0.12437 0.62413
 C385 C 0.25054 -0.10266 0.60233
 C386 C 0.27635 -0.09210 0.59173
 C387 C 0.27640 -0.07100 0.57056
 C388 C 0.25057 -0.06018 0.55970
 C389 C 0.22472 -0.07095 0.57051
 C390 C 0.22474 -0.09205 0.59167
 H391 H 0.26009 -0.13491 0.69845
 H392 H 0.25958 -0.17178 0.73576
 H393 H 0.24054 -0.23585 0.67204
 H394 H 0.24059 -0.19871 0.63502
 H395 H 0.29645 -0.10017 0.59983
 H396 H 0.29666 -0.06317 0.56272
 H397 H 0.20448 -0.06309 0.56262
 H398 H 0.20463 -0.10008 0.59973
 C399 C 0.74983 -0.16386 0.33581
 C400 C 0.72430 -0.17701 0.32770
 C401 C 0.72430 -0.19802 0.30644
 C402 C 0.74990 -0.20614 0.29301
 C403 C 0.77547 -0.19283 0.30137
 C404 C 0.77541 -0.17181 0.32262
 C405 C 0.74980 -0.14220 0.35766
 C406 C 0.74978 -0.12404 0.37595
 C407 C 0.74977 -0.10235 0.39777
 C408 C 0.72396 -0.09175 0.40839
 C409 C 0.72393 -0.07064 0.42955
 C410 C 0.74977 -0.05986 0.44038
 C411 C 0.77561 -0.07068 0.42956
 C412 C 0.77558 -0.09179 0.40840
 H413 H 0.70440 -0.17108 0.33784
 H414 H 0.70435 -0.20817 0.30076
 H415 H 0.79545 -0.19843 0.29121
 H416 H 0.79529 -0.16172 0.32870
 H417 H 0.70386 -0.09978 0.40031
 H418 H 0.70367 -0.06277 0.43741
 H419 H 0.79586 -0.06285 0.43742
 H420 H 0.79568 -0.09985 0.40032
 C421 C 0.66355 0.74961 -0.16366
 C422 C 0.67206 0.72390 -0.17639
 C423 C 0.69317 0.72391 -0.19746
 C424 C 0.70603 0.74968 -0.20608
 C425 C 0.69732 0.77543 -0.19315
 C426 C 0.67622 0.77536 -0.17207
 C427 C 0.64184 0.74957 -0.14196
 C428 C 0.62366 0.74955 -0.12378
 C429 C 0.60197 0.74954 -0.10207
 C430 C 0.59143 0.72363 -0.09149
 C431 C 0.57036 0.72359 -0.07038
 C432 C 0.55954 0.74953 -0.05958
 C433 C 0.57028 0.77547 -0.07038
 C434 C 0.59136 0.77545 -0.09148
 H435 H 0.66234 0.70385 -0.17008
 H436 H 0.69919 0.70380 -0.20726
 H437 H 0.70709 0.79555 -0.19906
 H438 H 0.66984 0.79538 -0.16229
 H439 H 0.59950 0.70346 -0.09954
 H440 H 0.56255 0.70326 -0.06253
 H441 H 0.56242 0.79579 -0.06253
 H442 H 0.59937 0.79563 -0.09953
 C443 C 0.33649 0.25014 -0.16384
 C444 C 0.32407 0.22435 -0.17252
 C445 C 0.30297 0.22430 -0.19360
 C446 C 0.29400 0.25009 -0.20627
 C447 C 0.30662 0.27590 -0.19738
 C448 C 0.32773 0.27590 -0.17631
 C449 C 0.35821 0.25016 -0.14215
 C450 C 0.37640 0.25017 -0.12397
 C451 C 0.39810 0.25019 -0.10225
 C452 C 0.40870 0.22428 -0.09165
 C453 C 0.42979 0.22426 -0.07055
 C454 C 0.44055 0.25020 -0.05977
 C455 C 0.42975 0.27613 -0.07058
 C456 C 0.40866 0.27610 -0.09168
 H457 H 0.33065 0.20430 -0.16295
 H458 H 0.29341 0.20414 -0.19973
 H459 H 0.30042 0.29605 -0.20698
 H460 H 0.33726 0.29597 -0.16979
 H461 H 0.40067 0.20410 -0.09970
 H462 H 0.43764 0.20393 -0.06270
 H463 H 0.43757 0.29646 -0.06275
 H464 H 0.40060 0.29627 -0.09975
 C465 C 0.33636 0.74945 0.16383
 C466 C 0.32293 0.72394 0.17149
 C467 C 0.30178 0.72387 0.19251
 C468 C 0.29355 0.74946 0.20647
 C469 C 0.30752 0.77504 0.19833
 C470 C 0.32862 0.77496 0.17727
 C471 C 0.35810 0.74945 0.14216
 C472 C 0.37630 0.74945 0.12399
 C473 C 0.39801 0.74946 0.10230
 C474 C 0.40862 0.72356 0.09171
 C475 C 0.42971 0.72353 0.07062
 C476 C 0.44046 0.74948 0.05983
 C477 C 0.42964 0.77541 0.07063
 C478 C 0.40856 0.77537 0.09173
 H479 H 0.32896 0.70399 0.16137
 H480 H 0.29291 0.70337 0.19842
 H481 H 0.30155 0.79554 0.20722
 H482 H 0.33874 0.79492 0.17130
 H483 H 0.40060 0.70338 0.09976
 H484 H 0.43756 0.70321 0.06277
 H485 H 0.43745 0.79574 0.06279
 H486 H 0.40049 0.79554 0.09978
 C487 C 0.66387 0.25014 0.16359
 C488 C 0.67647 0.22439 0.17217
 C489 C 0.69758 0.22436 0.19324
 C490 C 0.70639 0.25014 0.20599
 C491 C 0.69358 0.27593 0.19721
 C492 C 0.67246 0.27590 0.17615
 C493 C 0.64213 0.25014 0.14192
 C494 C 0.62393 0.25015 0.12375
 C495 C 0.60221 0.25016 0.10205
 C496 C 0.59166 0.22426 0.09145
 C497 C 0.57056 0.22424 0.07036
 C498 C 0.55975 0.25018 0.05958
 C499 C 0.57051 0.27612 0.07039
 C500 C 0.59160 0.27607 0.09148
 H501 H 0.67002 0.20434 0.16253
 H502 H 0.70729 0.20422 0.19930
 H503 H 0.69963 0.29607 0.20689
 H504 H 0.66277 0.29595 0.16972
 H505 H 0.59973 0.20408 0.09949
 H506 H 0.56275 0.20392 0.06250
 H507 H 0.56264 0.29645 0.06255
 H508 H 0.59963 0.29625 0.09954
 C509 C -0.16403 0.66408 0.75085
 C510 C -0.15868 0.69074 0.73854
 C511 C -0.17979 0.71186 0.73841
 C512 C -0.20691 0.70680 0.75069
 C513 C -0.21179 0.67959 0.76307
 C514 C -0.19059 0.65856 0.76309
 C515 C -0.14226 0.64236 0.75090
 C516 C -0.12403 0.62416 0.75091
 C517 C -0.10228 0.60243 0.75091
 C518 C -0.09163 0.59191 0.72505
 C519 C -0.07051 0.57078 0.72501
 C520 C -0.05976 0.55989 0.75089
 C521 C -0.07062 0.57063 0.77678
 C522 C -0.09175 0.59176 0.77676
 H523 H -0.13805 0.69533 0.72921
 H524 H -0.17414 0.73248 0.72962
 H525 H -0.23232 0.67380 0.77180
 H526 H -0.19505 0.63784 0.77248
 H527 H -0.09964 0.60004 0.70492
 H528 H -0.06261 0.56299 0.70472
 H529 H -0.06282 0.56270 0.79706
 H530 H -0.09986 0.59975 0.79689
 C531 C -0.16368 0.33628 0.24951
 C532 C -0.17224 0.32359 0.22384
 C533 C -0.19337 0.30251 0.22386
 C534 C -0.20620 0.29384 0.24960
 C535 C -0.19742 0.30672 0.27529
 C536 C -0.17630 0.32781 0.27522
 C537 C -0.14197 0.35800 0.24946
 C538 C -0.12378 0.37620 0.24942
 C539 C -0.10209 0.39794 0.24939
 C540 C -0.09152 0.40851 0.22353
 C541 C -0.07045 0.42965 0.22347
 C542 C -0.05968 0.44050 0.24934
 C543 C -0.07045 0.42972 0.27524
 C544 C -0.09152 0.40858 0.27523
 H545 H -0.16255 0.32993 0.20383
 H546 H -0.19940 0.29272 0.20379
 H547 H -0.20714 0.30075 0.29539
 H548 H -0.16988 0.33755 0.29520
 H549 H -0.09957 0.40042 0.20340
 H550 H -0.06263 0.43749 0.20318
 H551 H -0.06262 0.43760 0.29551
 H552 H -0.09956 0.40054 0.29537
 C553 C 0.16384 0.33615 0.75048
 C554 C 0.19217 0.34347 0.75626
 C555 C 0.21336 0.32240 0.75617
 C556 C 0.20645 0.29372 0.75025
 C557 C 0.17788 0.28658 0.74447
 C558 C 0.15673 0.30768 0.74460
 C559 C 0.14206 0.35785 0.75057
 C560 C 0.12382 0.37604 0.75062
 C561 C 0.10206 0.39776 0.75067
 C562 C 0.09147 0.40831 0.77654
 C563 C 0.07034 0.42943 0.77661
 C564 C 0.05952 0.44028 0.75075
 C565 C 0.07031 0.42951 0.72484
 C566 C 0.09144 0.40839 0.72484
 H567 H 0.19791 0.36546 0.76077
 H568 H 0.23520 0.32861 0.76035
 H569 H 0.17184 0.26464 0.74022
 H570 H 0.13484 0.30178 0.74017
 H571 H 0.09955 0.40022 0.79666
 H572 H 0.06250 0.43726 0.79691
 H573 H 0.06245 0.43740 0.70457
 H574 H 0.09949 0.40036 0.70469
 C575 C 0.16382 0.66388 0.24933
 C576 C 0.17212 0.67684 0.22371
 C577 C 0.19337 0.69779 0.22372
 C578 C 0.20660 0.70604 0.24939
 C579 C 0.19806 0.69292 0.27504
 C580 C 0.17682 0.67196 0.27498
 C581 C 0.14199 0.64228 0.24929
 C582 C 0.12372 0.62416 0.24927
 C583 C 0.10193 0.60252 0.24927
 C584 C 0.09131 0.59195 0.22342
 C585 C 0.07018 0.57088 0.22339
 C586 C 0.05939 0.56008 0.24927
 C587 C 0.07021 0.57086 0.27515
 C588 C 0.09134 0.59194 0.27512
 H589 H 0.16212 0.67080 0.20375
 H590 H 0.19919 0.70780 0.20370
 H591 H 0.20807 0.69862 0.29508
 H592 H 0.17059 0.66202 0.29492
 H593 H 0.09937 0.60000 0.20328
 H594 H 0.06232 0.56304 0.20310
 H595 H 0.06237 0.56302 0.29544
 H596 H 0.09942 0.59997 0.29526
 C597 C 0.74977 -0.16393 0.66420
 C598 C 0.77539 -0.17220 0.67710
 C599 C 0.77546 -0.19330 0.69826
 C600 C 0.74984 -0.20638 0.70682
 C601 C 0.72419 -0.19791 0.69372
 C602 C 0.72418 -0.17682 0.67255
 C603 C 0.74973 -0.14222 0.64242
 C604 C 0.74972 -0.12404 0.62417
 C605 C 0.74972 -0.10232 0.60239
 C606 C 0.77554 -0.09176 0.59179
 C607 C 0.77558 -0.07064 0.57065
 C608 C 0.74974 -0.05981 0.55981
 C609 C 0.72390 -0.07059 0.57061
 C610 C 0.72392 -0.09171 0.59176
 H611 H 0.79531 -0.16231 0.67084
 H612 H 0.79549 -0.19914 0.70819
 H613 H 0.70419 -0.20785 0.69958
 H614 H 0.70423 -0.17062 0.66264
 H615 H 0.79564 -0.09983 0.59988
 H616 H 0.79583 -0.06281 0.56280
 H617 H 0.70365 -0.06272 0.56274
 H618 H 0.70381 -0.09975 0.59982
 C619 C 0.25046 -0.16434 0.33586
 C620 C 0.24454 -0.19280 0.34297
 C621 C 0.24450 -0.21389 0.32180
 C622 C 0.25040 -0.20676 0.29322
 C623 C 0.25633 -0.17808 0.28630
 C624 C 0.25635 -0.15702 0.30750
 C625 C 0.25048 -0.14265 0.35766
 C626 C 0.25051 -0.12446 0.37592
 C627 C 0.25053 -0.10275 0.39769
 C628 C 0.22473 -0.09213 0.40833
 C629 C 0.22471 -0.07101 0.42947
 C630 C 0.25056 -0.06023 0.44026
 C631 C 0.27639 -0.07105 0.42943
 C632 C 0.27635 -0.09217 0.40828
 H633 H 0.24003 -0.19870 0.36488
 H634 H 0.24020 -0.23584 0.32785
 H635 H 0.26061 -0.17188 0.26444
 H636 H 0.26089 -0.13504 0.30176
 H637 H 0.20462 -0.10018 0.40027
 H638 H 0.20446 -0.06315 0.43734
 H639 H 0.29665 -0.06321 0.43727
 H640 H 0.29644 -0.10025 0.40019
 C641 C 0.74995 0.16394 0.33609
 C642 C 0.75600 0.19237 0.34322
 C643 C 0.75606 0.21349 0.32208
 C644 C 0.75003 0.20643 0.29350
 C645 C 0.74395 0.17778 0.28656
 C646 C 0.74393 0.15669 0.30773
 C647 C 0.74990 0.14222 0.35786
 C648 C 0.74987 0.12401 0.37609
 C649 C 0.74985 0.10228 0.39785
 C650 C 0.77565 0.09165 0.40848
 C651 C 0.77567 0.07052 0.42961
 C652 C 0.74982 0.05973 0.44039
 C653 C 0.72398 0.07056 0.42955
 C654 C 0.72403 0.09170 0.40842
 H655 H 0.76062 0.19822 0.36512
 H656 H 0.76045 0.23541 0.32814
 H657 H 0.73959 0.17162 0.26471
 H658 H 0.73929 0.13473 0.30198
 H659 H 0.79576 0.09970 0.40044
 H660 H 0.79591 0.06264 0.43749
 H661 H 0.70373 0.06272 0.43737
 H662 H 0.70394 0.09978 0.40033
 C663 C 0.25051 0.16373 0.66377
 C664 C 0.25642 0.15649 0.69215
 C665 C 0.25636 0.17759 0.71330
 C666 C 0.25036 0.20626 0.70632
 C667 C 0.24445 0.21333 0.67771
 C668 C 0.24454 0.19218 0.65659
 C669 C 0.25055 0.14199 0.64202
 C670 C 0.25057 0.12376 0.62381
 C671 C 0.25058 0.10200 0.60208
 C672 C 0.27639 0.09135 0.59152
 C673 C 0.27643 0.07019 0.57041
 C674 C 0.25059 0.05941 0.55959
 C675 C 0.22475 0.07028 0.57035
 C676 C 0.22478 0.09144 0.59146
 H677 H 0.26099 0.13451 0.69795
 H678 H 0.26065 0.17144 0.73518
 H679 H 0.24014 0.23525 0.67161
 H680 H 0.24001 0.19803 0.63467
 H681 H 0.29649 0.09938 0.59960
 H682 H 0.29669 0.06229 0.56259
 H683 H 0.20450 0.06246 0.56248
 H684 H 0.20467 0.09955 0.59949
   
