data_POSCAR
  _audit_creation_date              2014-09-24
  _audit_creation_method            'ToBaCCo'
  _symmetry_space_group_name_H-M    'P1'
  _symmetry_Int_Tables_number       1
  _symmetry_cell_setting            triclinic
  loop_
  _symmetry_equiv_pos_as_xyz
 x,y,z
_cell_length_a 38.8984
_cell_length_b 38.8928
_cell_length_c 38.8861
_cell_angle_alpha 90.010100
_cell_angle_beta 89.996700
_cell_angle_gamma 89.946800
loop_
  _atom_site_label
  _atom_site_type_symbol
  _atom_site_fract_x
  _atom_site_fract_y
  _atom_site_fract_z
C1 C 0.19950 0.15490 0.19986
 C2 C 0.18466 0.14033 0.22936
 C3 C 0.15511 0.15490 0.24484
 C4 C 0.14078 0.18464 0.22955
 C5 C 0.15535 0.19937 0.20004
 C6 C 0.18476 0.18442 0.18509
 C7 C 0.22902 0.14030 0.18506
 C8 C 0.24436 0.15463 0.15534
 C9 C 0.22892 0.18421 0.14081
 C10 C 0.19947 0.19906 0.15541
 C11 C 0.18471 0.22864 0.14092
 C12 C 0.15534 0.24375 0.15565
 C13 C 0.14077 0.22885 0.18518
 H14 H 0.19739 0.11845 0.24091
 H15 H 0.11739 0.19591 0.23956
 H16 H 0.23900 0.11685 0.19623
 H17 H 0.24044 0.19693 0.11892
 H18 H 0.19639 0.24022 0.11842
 H19 H 0.11787 0.24007 0.19644
 C20 C -0.19976 0.84507 0.19991
 C21 C -0.18491 0.85965 0.22940
 C22 C -0.15516 0.84530 0.24467
 C23 C -0.14061 0.81576 0.22916
 C24 C -0.15517 0.80104 0.19963
 C25 C -0.18483 0.81575 0.18494
 C26 C -0.22925 0.85971 0.18509
 C27 C -0.24455 0.84543 0.15532
 C28 C -0.22909 0.81587 0.14076
 C29 C -0.19960 0.80106 0.15532
 C30 C -0.18481 0.77152 0.14077
 C31 C -0.15534 0.75651 0.15537
 C32 C -0.14065 0.77150 0.18480
 H33 H -0.19612 0.88305 0.23946
 H34 H -0.11872 0.80300 0.24065
 H35 H -0.23928 0.88311 0.19633
 H36 H -0.24062 0.80315 0.11887
 H37 H -0.19602 0.76041 0.11779
 H38 H -0.11818 0.75985 0.19649
 C39 C -0.20033 0.15555 -0.19961
 C40 C -0.18545 0.14092 -0.22906
 C41 C -0.15595 0.15548 -0.24404
 C42 C -0.14129 0.18494 -0.22910
 C43 C -0.15583 0.19981 -0.19963
 C44 C -0.18543 0.18501 -0.18477
 C45 C -0.22979 0.14101 -0.18478
 C46 C -0.24510 0.15542 -0.15506
 C47 C -0.22964 0.18499 -0.14055
 C48 C -0.20014 0.19974 -0.15513
 C49 C -0.18535 0.22931 -0.14068
 C50 C -0.15594 0.24431 -0.15540
 C51 C -0.14132 0.22931 -0.18488
 H52 H -0.19666 0.11797 -0.24018
 H53 H -0.11884 0.19663 -0.24075
 H54 H -0.23978 0.11758 -0.19596
 H55 H -0.24116 0.19777 -0.11868
 H56 H -0.19704 0.24097 -0.11821
 H57 H -0.11837 0.24041 -0.19613
 C58 C 0.20004 0.84436 -0.20023
 C59 C 0.18517 0.85895 -0.22969
 C60 C 0.15562 0.84439 -0.24513
 C61 C 0.14135 0.81463 -0.22984
 C62 C 0.15599 0.79983 -0.20038
 C63 C 0.18541 0.81473 -0.18548
 C64 C 0.22956 0.85890 -0.18544
 C65 C 0.24461 0.84427 -0.15598
 C66 C 0.22971 0.81479 -0.14131
 C67 C 0.20024 0.79995 -0.15584
 C68 C 0.18553 0.77041 -0.14133
 C69 C 0.15611 0.75539 -0.15601
 C70 C 0.14148 0.77034 -0.18551
 H71 H 0.19785 0.88085 -0.24121
 H72 H 0.11795 0.80339 -0.23982
 H73 H 0.24061 0.88190 -0.19662
 H74 H 0.24137 0.80308 -0.11886
 H75 H 0.19726 0.75881 -0.11886
 H76 H 0.11855 0.75918 -0.19672
 C77 C 0.15483 1.19951 0.80023
 C78 C 0.14026 1.18464 0.77074
 C79 C 0.15485 1.15508 0.75527
 C80 C 0.18459 1.14077 0.77058
 C81 C 0.19932 1.15537 0.80007
 C82 C 0.18436 1.18479 0.81500
 C83 C 0.14022 1.22904 0.81502
 C84 C 0.15455 1.24440 0.84473
 C85 C 0.18414 1.22899 0.85926
 C86 C 0.19900 1.19953 0.84467
 C87 C 0.22859 1.18480 0.85917
 C88 C 0.24370 1.15543 0.84446
 C89 C 0.22880 1.14082 0.81494
 H90 H 0.11838 1.19734 0.75918
 H91 H 0.19586 1.11737 0.76058
 H92 H 0.11677 1.23900 0.80384
 H93 H 0.19686 1.24054 0.88114
 H94 H 0.24017 1.19651 0.88166
 H95 H 0.24002 1.11791 0.80370
 C96 C 0.84479 0.80009 0.79994
 C97 C 0.85937 0.81492 0.77045
 C98 C 0.84504 0.84467 0.75516
 C99 C 0.81550 0.85924 0.77065
 C100 C 0.80077 0.84470 0.80018
 C101 C 0.81547 0.81504 0.81490
 C102 C 0.85942 0.77061 0.81479
 C103 C 0.84514 0.75534 0.84456
 C104 C 0.81559 0.77082 0.85912
 C105 C 0.80078 0.80030 0.84453
 C106 C 0.77126 0.81512 0.85908
 C107 C 0.75626 0.84459 0.84445
 C108 C 0.77125 0.85924 0.81500
 H109 H 0.88277 0.80370 0.76040
 H110 H 0.80275 0.88113 0.75914
 H111 H 0.88282 0.76057 0.80356
 H112 H 0.80287 0.75931 0.88102
 H113 H 0.76016 0.80394 0.88206
 H114 H 0.75961 0.88171 0.80331
 C115 C 0.15544 0.79990 1.19940
 C116 C 0.14096 0.81470 1.22898
 C117 C 0.15565 0.84411 1.24403
 C118 C 0.18513 0.85872 1.22906
 C119 C 0.19991 0.84418 1.19955
 C120 C 0.18508 0.81459 1.18472
 C121 C 0.14088 0.77040 1.18461
 C122 C 0.15542 0.75493 1.15503
 C123 C 0.18514 0.77021 1.14067
 C124 C 0.19994 0.79967 1.15525
 C125 C 0.22939 0.81453 1.14066
 C126 C 0.24434 0.84403 1.15526
 C127 C 0.22938 0.85871 1.18473
 H128 H 0.11849 0.80303 1.24061
 H129 H 0.19636 0.88166 1.24020
 H130 H 0.11901 0.75889 1.19735
 H131 H 0.19634 0.76021 1.11724
 H132 H 0.24053 0.80330 1.11770
 H133 H 0.24100 0.88116 1.19645
 C134 C 0.84447 1.19991 1.20026
 C135 C 0.85906 1.18505 1.22972
 C136 C 0.84450 1.15551 1.24518
 C137 C 0.81474 1.14124 1.22990
 C138 C 0.79994 1.15586 1.20043
 C139 C 0.81484 1.18527 1.18552
 C140 C 0.85900 1.22943 1.18545
 C141 C 0.84437 1.24446 1.15599
 C142 C 0.81490 1.22955 1.14133
 C143 C 0.80006 1.20009 1.15587
 C144 C 0.77052 1.18537 1.14137
 C145 C 0.75550 1.15596 1.15606
 C146 C 0.77045 1.14134 1.18557
 H147 H 0.88096 1.19774 1.24124
 H148 H 0.80350 1.11784 1.23989
 H149 H 0.88200 1.24049 1.19663
 H150 H 0.80318 1.24120 1.11888
 H151 H 0.75892 1.19710 1.11890
 H152 H 0.75928 1.11842 1.19679
 N153 N 0.53603 1.06124 0.96314
 N154 N 0.56214 1.08249 0.95892
 N155 N 0.46376 1.03722 0.93918
 N156 N 0.43761 1.04147 0.91796
 N157 N 0.46368 1.06107 0.96310
 N158 N 0.43747 1.08224 0.95883
 N159 N 0.53612 1.03738 0.93922
 N160 N 0.56229 1.04172 0.91805
 C161 C 0.57814 1.06993 0.93071
 C162 C 0.42159 1.06963 0.93060
 N163 N 0.46406 0.93924 0.96293
 N164 N 0.43799 0.91796 0.95859
 N165 N 0.53636 0.96331 0.93912
 N166 N 0.56251 0.95908 0.91789
 N167 N 0.53642 0.93941 0.96298
 N168 N 0.56261 0.91822 0.95866
 N169 N 0.46400 0.96315 0.93908
 N170 N 0.43789 0.95882 0.91783
 Mn171 Mn 0.50006 1.00027 0.93874
 C172 C 0.42205 0.93056 0.93038
 C173 C 0.57850 0.93088 0.93046
 N174 N 0.46362 1.06099 1.03717
 N175 N 0.43738 1.08211 1.04145
 N176 N 0.53604 1.03725 1.06107
 N177 N 0.56216 1.04158 1.08231
 N178 N 0.53598 1.06116 1.03721
 N179 N 0.56205 1.08244 1.04154
 N180 N 0.46368 1.03708 1.06102
 N181 N 0.43749 1.04125 1.08221
 Mn182 Mn 0.49983 1.06153 1.00015
 C183 C 0.42146 1.06942 1.06962
 C184 C 0.57800 1.06984 1.06974
 N185 N 0.53638 0.93933 1.03705
 N186 N 0.56260 0.91818 1.04133
 N187 N 0.46393 0.96302 1.06093
 N188 N 0.43777 0.95866 1.08212
 N189 N 0.46402 0.93916 1.03701
 N190 N 0.43793 0.91789 1.04124
 N191 N 0.53629 0.96319 1.06097
 N192 N 0.56244 0.95895 1.08220
 Mn193 Mn 0.50022 0.93887 0.99999
 Mn194 Mn 0.49999 1.00013 1.06141
 Cl195 Cl 0.50003 1.00020 1.00007
 C196 C 0.57847 0.93080 1.06957
 C197 C 0.42194 0.93043 1.06945
 N198 N 0.03702 0.46376 0.06090
 N199 N 0.04128 0.43761 0.08213
 N200 N 0.06103 0.53606 0.03700
 N201 N 0.08226 0.56218 0.04124
 N202 N 0.03716 0.53613 0.06090
 N203 N 0.04148 0.56230 0.08209
 N204 N 0.06088 0.46369 0.03700
 N205 N 0.08206 0.43748 0.04127
 C206 C 0.06944 0.42160 0.06949
 C207 C 0.06968 0.57816 0.06945
 N208 N 0.03709 0.53609 -0.06095
 N209 N 0.04146 0.56220 -0.08221
 N210 N 0.06083 0.46366 -0.03707
 N211 N 0.08197 0.43742 -0.04136
 N212 N 0.03693 0.46372 -0.06094
 N213 N 0.04113 0.43754 -0.08214
 N214 N 0.06099 0.53603 -0.03708
 N215 N 0.08229 0.56208 -0.04141
 Mn216 Mn 0.06135 0.49986 -0.00004
 C217 C 0.06972 0.57803 -0.06963
 C218 C 0.06930 0.42151 -0.06955
 N219 N -0.03689 0.53635 0.06095
 N220 N -0.04111 0.56253 0.08217
 N221 N -0.06093 0.46404 0.03710
 N222 N -0.08219 0.43795 0.04141
 N223 N -0.03703 0.46398 0.06096
 N224 N -0.04135 0.43785 0.08219
 N225 N -0.06078 0.53641 0.03708
 N226 N -0.08193 0.56263 0.04137
 Mn227 Mn 0.00007 0.50006 0.06134
 C228 C -0.06928 0.57853 0.06957
 C229 C -0.06959 0.42200 0.06961
 N230 N -0.03712 0.46395 -0.06088
 N231 N -0.04148 0.43780 -0.08209
 N232 N -0.06083 0.53640 -0.03699
 N233 N -0.08200 0.56260 -0.04128
 N234 N -0.03696 0.53632 -0.06089
 N235 N -0.04122 0.56246 -0.08213
 N236 N -0.06098 0.46403 -0.03697
 N237 N -0.08225 0.43794 -0.04123
 Mn238 Mn -0.00001 0.50002 -0.06133
 Mn239 Mn -0.06129 0.50022 0.00005
 Cl240 Cl 0.00003 0.50004 0.00001
 C241 C -0.06970 0.42196 -0.06945
 C242 C -0.06938 0.57848 -0.06951
 N243 N 0.93908 0.03699 0.53617
 N244 N 0.91786 0.04129 0.56232
 N245 N 0.96299 0.06082 0.46379
 N246 N 0.95868 0.08206 0.43766
 N247 N 0.93911 0.03695 0.46379
 N248 N 0.91788 0.04128 0.43765
 N249 N 0.96295 0.06086 0.53617
 N250 N 0.95864 0.08209 0.56232
 C251 C 0.93044 0.06949 0.57825
 C252 C 0.93047 0.06948 0.42173
 N253 N 1.06092 0.03687 0.46384
 N254 N 1.08214 0.04111 0.43769
 N255 N 1.03699 0.06081 0.53620
 N256 N 1.04122 0.08203 0.56237
 N257 N 1.06088 0.03692 0.53623
 N258 N 1.08205 0.04120 0.56242
 N259 N 1.03704 0.06076 0.46382
 N260 N 1.04133 0.08195 0.43764
 Mn261 Mn 0.99999 0.06123 0.49999
 C262 C 1.06954 0.06931 0.42173
 C263 C 1.06940 0.06941 0.57834
 N264 N 0.93914 -0.03711 0.46383
 N265 N 0.91796 -0.04136 0.43764
 N266 N 0.96299 -0.06097 0.53623
 N267 N 0.95869 -0.08217 0.56239
 N268 N 0.93910 -0.03707 0.53621
 N269 N 0.91787 -0.04134 0.56236
 N270 N 0.96302 -0.06101 0.46384
 N271 N 0.95877 -0.08221 0.43766
 Mn272 Mn 0.93869 -0.00006 0.50000
 C273 C 0.93059 -0.06957 0.42171
 C274 C 0.93048 -0.06954 0.57830
 N275 N 1.06091 -0.03715 0.53626
 N276 N 1.08215 -0.04147 0.56239
 N277 N 1.03707 -0.06106 0.46388
 N278 N 1.04135 -0.08229 0.43773
 N279 N 1.06094 -0.03720 0.46388
 N280 N 1.08216 -0.04152 0.43772
 N281 N 1.03704 -0.06102 0.53626
 N282 N 1.04136 -0.08225 0.56239
 Mn283 Mn 1.06133 -0.00014 0.50005
 Mn284 Mn 1.00003 -0.06143 0.50005
 Cl285 Cl 1.00001 -0.00010 0.50002
 C286 C 1.06958 -0.06967 0.57831
 C287 C 1.06955 -0.06972 0.42180
 C288 C 1.11123 0.11101 0.33501
 C289 C 1.13004 0.09051 0.31230
 C290 C 1.14446 0.10482 0.28266
 C291 C 1.14036 0.14018 0.27496
 C292 C 1.12111 0.16040 0.29836
 C293 C 1.10680 0.14593 0.32798
 C294 C 1.09653 0.09625 0.36559
 C295 C 1.08422 0.08394 0.39122
 H296 H 1.13337 0.06331 0.31736
 H297 H 1.15761 0.08753 0.26530
 H298 H 1.11809 0.18782 0.29493
 H299 H 1.09251 0.16214 0.34559
 C300 C 0.88883 -0.11103 0.33489
 C301 C 0.90930 -0.12977 0.31210
 C302 C 0.89496 -0.14411 0.28243
 C303 C 0.85960 -0.13998 0.27478
 C304 C 0.83941 -0.12077 0.29825
 C305 C 0.85391 -0.10655 0.32789
 C306 C 0.90362 -0.09643 0.36550
 C307 C 0.91595 -0.08419 0.39117
 H308 H 0.93650 -0.13313 0.31713
 H309 H 0.91223 -0.15722 0.26502
 H310 H 0.81199 -0.11773 0.29484
 H311 H 0.83773 -0.09229 0.34555
 C312 C 0.88851 0.11115 0.66492
 C313 C 0.90974 0.12271 0.69156
 C314 C 0.89532 0.13708 0.72120
 C315 C 0.85942 0.14005 0.72458
 C316 C 0.83830 0.12829 0.69766
 C317 C 0.85277 0.11395 0.66804
 C318 C 0.90335 0.09647 0.63436
 C319 C 0.91574 0.08417 0.60874
 H320 H 0.93744 0.12058 0.68944
 H321 H 0.91222 0.14551 0.74165
 H322 H 0.81061 0.13063 0.69930
 H323 H 0.83611 0.10516 0.64752
 C324 C 1.11148 -0.11158 0.66487
 C325 C 1.10712 -0.14651 0.67185
 C326 C 1.12152 -0.16103 0.70141
 C327 C 1.14078 -0.14084 0.72481
 C328 C 1.14481 -0.10547 0.71716
 C329 C 1.13029 -0.09111 0.68757
 C330 C 1.09669 -0.09677 0.63434
 C331 C 1.08432 -0.08440 0.60875
 H332 H 1.09282 -0.16268 0.65425
 H333 H 1.11855 -0.18845 0.70481
 H334 H 1.15796 -0.08821 0.73451
 H335 H 1.13357 -0.06391 0.68254
 C336 C 0.33456 1.11079 1.11140
 C337 C 0.32749 1.10629 1.14630
 C338 C 0.29785 1.12055 1.16079
 C339 C 0.27446 1.13983 1.14059
 C340 C 0.28217 1.14397 1.10524
 C341 C 0.31184 1.12959 1.09092
 C342 C 0.36520 1.09619 1.09662
 C343 C 0.39089 1.08398 1.08429
 H344 H 0.34511 1.09198 1.16249
 H345 H 0.29439 1.11749 1.18820
 H346 H 0.26482 1.15713 1.08796
 H347 H 0.31693 1.13297 1.06373
 C348 C 0.33555 0.88870 0.88842
 C349 C 0.30899 0.87703 0.90969
 C350 C 0.27938 0.86261 0.89528
 C351 C 0.27597 0.85970 0.85937
 C352 C 0.30282 0.87155 0.83822
 C353 C 0.33241 0.88594 0.85268
 C354 C 0.36606 0.90345 0.90326
 C355 C 0.39162 0.91582 0.91565
 H356 H 0.31112 0.87913 0.93739
 H357 H 0.25899 0.85411 0.91221
 H358 H 0.30115 0.86925 0.81052
 H359 H 0.35286 0.89481 0.83599
 C360 C 0.66527 0.88930 1.11138
 C361 C 0.68801 0.87053 1.09089
 C362 C 0.71767 0.85613 1.10522
 C363 C 0.72535 0.86022 1.14059
 C364 C 0.70193 0.87947 1.16079
 C365 C 0.67230 0.89375 1.14631
 C366 C 0.63466 0.90394 1.09660
 C367 C 0.60900 0.91619 1.08425
 H368 H 0.68296 0.86719 1.06369
 H369 H 0.73505 0.84300 1.08794
 H370 H 0.70536 0.88249 1.18821
 H371 H 0.65467 0.90803 1.16250
 C372 C 0.66479 1.11165 0.88896
 C373 C 0.67183 1.10716 0.85405
 C374 C 0.70142 1.12143 0.83953
 C375 C 0.72481 1.14070 0.85971
 C376 C 0.71711 1.14487 0.89506
 C377 C 0.68748 1.13048 0.90942
 C378 C 0.63424 1.09697 0.90377
 C379 C 0.60862 1.08465 0.91609
 H380 H 0.65423 1.09283 0.83788
 H381 H 0.70486 1.11835 0.81212
 H382 H 0.73445 1.15804 0.91232
 H383 H 0.68242 1.13386 0.93662
 C384 C 0.11111 0.33488 0.11132
 C385 C 0.11402 0.33178 0.14705
 C386 C 0.12836 0.30214 0.16148
 C387 C 0.14000 0.27519 0.14031
 C388 C 0.13695 0.27855 0.10441
 C389 C 0.12257 0.30821 0.09003
 C390 C 0.09640 0.36545 0.09652
 C391 C 0.08409 0.39108 0.08417
 H392 H 0.10531 0.35232 0.16375
 H393 H 0.13078 0.30051 0.18917
 H394 H 0.14528 0.25807 0.08748
 H395 H 0.12035 0.31032 0.06234
 C396 C -0.11162 0.33539 -0.11118
 C397 C -0.11450 0.33222 -0.14690
 C398 C -0.12888 0.30261 -0.16130
 C399 C -0.14060 0.27574 -0.14010
 C400 C -0.13759 0.27917 -0.10420
 C401 C -0.12317 0.30881 -0.08986
 C402 C -0.09684 0.36592 -0.09642
 C403 C -0.08446 0.39151 -0.08410
 H404 H -0.10572 0.35269 -0.16364
 H405 H -0.13126 0.30092 -0.18899
 H406 H -0.14598 0.25876 -0.08724
 H407 H -0.12098 0.31096 -0.06217
 C408 C 0.11173 0.66444 -0.11158
 C409 C 0.12333 0.69106 -0.09033
 C410 C 0.13776 0.72065 -0.10473
 C411 C 0.14076 0.72400 -0.14064
 C412 C 0.12901 0.69709 -0.16178
 C413 C 0.11461 0.66752 -0.14732
 C414 C 0.09692 0.63397 -0.09675
 C415 C 0.08451 0.60842 -0.08437
 H416 H 0.12114 0.68897 -0.06263
 H417 H 0.14618 0.74109 -0.08782
 H418 H 0.13138 0.69871 -0.18948
 H419 H 0.10580 0.64703 -0.16400
 C420 C -0.11102 0.66532 0.11119
 C421 C -0.14675 0.66852 0.11399
 C422 C -0.16118 0.69818 0.12829
 C423 C -0.14002 0.72507 0.14001
 C424 C -0.10412 0.72162 0.13705
 C425 C -0.08975 0.69193 0.12271
 C426 C -0.09623 0.63473 0.09653
 C427 C -0.08391 0.60907 0.08424
 H428 H -0.16345 0.64803 0.10522
 H429 H -0.18886 0.69989 0.13063
 H430 H -0.08719 0.74205 0.14544
 H431 H -0.06206 0.68976 0.12058
 C432 C 1.11103 0.11112 0.66510
 C433 C 1.14595 0.10672 0.67215
 C434 C 1.16039 0.12106 0.70176
 C435 C 1.14015 0.14030 0.72516
 C436 C 1.10480 0.14438 0.71744
 C437 C 1.09051 0.12992 0.68780
 C438 C 1.09630 0.09640 0.63452
 C439 C 1.08401 0.08408 0.60887
 H440 H 1.16217 0.09243 0.65455
 H441 H 1.18781 0.11806 0.70521
 H442 H 1.08749 0.15752 0.73479
 H443 H 1.06331 0.13323 0.68272
 C444 C 0.88884 -0.11136 0.66500
 C445 C 0.87006 -0.09088 0.68775
 C446 C 0.85567 -0.10522 0.71739
 C447 C 0.85978 -0.14058 0.72505
 C448 C 0.87902 -0.16078 0.70162
 C449 C 0.89329 -0.14628 0.67200
 C450 C 0.90351 -0.09656 0.63443
 C451 C 0.91581 -0.08421 0.60880
 H452 H 0.86672 -0.06367 0.68272
 H453 H 0.84254 -0.08794 0.73478
 H454 H 0.88205 -0.18820 0.70503
 H455 H 0.90758 -0.16246 0.65437
 C456 C 1.11136 -0.11155 0.33514
 C457 C 1.09007 -0.12309 0.30852
 C458 C 1.10444 -0.13750 0.27887
 C459 C 1.14033 -0.14053 0.27546
 C460 C 1.16150 -0.12882 0.30237
 C461 C 1.14708 -0.11444 0.33200
 C462 C 1.09657 -0.09679 0.36569
 C463 C 1.08423 -0.08443 0.39130
 H464 H 1.06239 -0.12088 0.31066
 H465 H 1.08750 -0.14589 0.25843
 H466 H 1.18918 -0.13122 0.30070
 H467 H 1.16378 -0.10568 0.35249
 C468 C 0.88855 0.11139 0.33519
 C469 C 0.85362 0.10704 0.32821
 C470 C 0.83909 0.12143 0.29865
 C471 C 0.85927 0.14068 0.27525
 C472 C 0.89464 0.14471 0.28289
 C473 C 0.90900 0.13019 0.31248
 C474 C 0.90337 0.09660 0.36570
 C475 C 0.91575 0.08421 0.39128
 H476 H 0.83745 0.09274 0.34582
 H477 H 0.81167 0.11847 0.29526
 H478 H 0.91189 0.15785 0.26553
 H479 H 0.93621 0.13347 0.31750
 C480 C 0.11068 0.33462 -0.11134
 C481 C 0.12950 0.31191 -0.09086
 C482 C 0.14389 0.28224 -0.10518
 C483 C 0.13974 0.27450 -0.14053
 C484 C 0.12044 0.29788 -0.16072
 C485 C 0.10617 0.32753 -0.14624
 C486 C 0.09608 0.36526 -0.09656
 C487 C 0.08386 0.39094 -0.08422
 H488 H 0.13289 0.31701 -0.06367
 H489 H 0.15706 0.26489 -0.08790
 H490 H 0.11736 0.29440 -0.18813
 H491 H 0.09185 0.34513 -0.16243
 C492 C -0.11132 0.33544 0.11155
 C493 C -0.11406 0.33230 0.14729
 C494 C -0.12840 0.30270 0.16176
 C495 C -0.14022 0.27583 0.14063
 C496 C -0.13733 0.27922 0.10471
 C497 C -0.12296 0.30884 0.09030
 C498 C -0.09662 0.36596 0.09671
 C499 C -0.08430 0.39155 0.08432
 H500 H -0.10521 0.35278 0.16398
 H501 H -0.13068 0.30104 0.18947
 H502 H -0.14580 0.25880 0.08780
 H503 H -0.12087 0.31097 0.06259
 C504 C -0.11095 0.66522 -0.11140
 C505 C -0.12973 0.68798 -0.09093
 C506 C -0.14414 0.71762 -0.10529
 C507 C -0.14006 0.72526 -0.14067
 C508 C -0.12082 0.70181 -0.16085
 C509 C -0.10652 0.67220 -0.14634
 C510 C -0.09629 0.63463 -0.09658
 C511 C -0.08402 0.60899 -0.08421
 H512 H -0.13305 0.68296 -0.06373
 H513 H -0.15727 0.73501 -0.08803
 H514 H -0.11781 0.70521 -0.18828
 H515 H -0.09224 0.65455 -0.16251
 C516 C 0.11149 0.66483 0.11111
 C517 C 0.09101 0.68755 0.12993
 C518 C 0.10534 0.71717 0.14438
 C519 C 0.14068 0.72484 0.14026
 C520 C 0.16088 0.70143 0.12099
 C521 C 0.14640 0.67184 0.10667
 C522 C 0.09671 0.63428 0.09640
 C523 C 0.08438 0.60866 0.08409
 H524 H 0.06382 0.68251 0.13327
 H525 H 0.08806 0.73453 0.15754
 H526 H 0.18829 0.70485 0.11796
 H527 H 0.16258 0.65422 0.09235
 C528 C 0.33487 1.11126 0.88878
 C529 C 0.33174 1.11413 0.85305
 C530 C 0.30209 1.12845 0.83862
 C531 C 0.27515 1.14011 0.85979
 C532 C 0.27855 1.13711 0.89570
 C533 C 0.30822 1.12276 0.91007
 C534 C 0.36544 1.09657 0.90358
 C535 C 0.39107 1.08426 0.91592
 H536 H 0.35226 1.10540 0.83635
 H537 H 0.30044 1.13083 0.81093
 H538 H 0.25808 1.14546 0.91263
 H539 H 0.31034 1.12057 0.93777
 C540 C 0.33534 0.88844 1.11099
 C541 C 0.33225 0.85271 1.11377
 C542 C 0.30264 0.83824 1.12810
 C543 C 0.27571 0.85938 1.13986
 C544 C 0.27906 0.89528 1.13691
 C545 C 0.30868 0.90969 1.12255
 C546 C 0.36588 0.90328 1.09634
 C547 C 0.39148 0.91568 1.08407
 H548 H 0.35277 0.83603 1.10499
 H549 H 0.30102 0.81055 1.13043
 H550 H 0.25860 0.91220 1.14534
 H551 H 0.31078 0.93739 1.12043
 C552 C 0.66450 1.11169 1.11166
 C553 C 0.66760 1.11456 1.14739
 C554 C 0.69719 1.12891 1.16185
 C555 C 0.72410 1.14062 1.14071
 C556 C 0.72074 1.13762 1.10480
 C557 C 0.69113 1.12323 1.09040
 C558 C 0.63400 1.09694 1.09683
 C559 C 0.60843 1.08458 1.08446
 H560 H 0.64710 1.10579 1.16408
 H561 H 0.69882 1.13129 1.18955
 H562 H 0.74119 1.14601 1.08788
 H563 H 0.68903 1.12105 1.06270
 C564 C 0.66518 0.88902 0.88872
 C565 C 0.66834 0.85329 0.88594
 C566 C 0.69797 0.83882 0.87160
 C567 C 0.72485 0.85995 0.85983
 C568 C 0.72143 0.89586 0.86277
 C569 C 0.69178 0.91027 0.87713
 C570 C 0.63462 0.90386 0.90342
 C571 C 0.60900 0.91622 0.91575
 H572 H 0.64786 0.83661 0.89475
 H573 H 0.69965 0.81113 0.86928
 H574 H 0.74185 0.91277 0.85433
 H575 H 0.68963 0.93797 0.87925
   
