data_POSCAR
  _audit_creation_date              2014-09-24
  _audit_creation_method            'ToBaCCo'
  _symmetry_space_group_name_H-M    'P1'
  _symmetry_Int_Tables_number       1
  _symmetry_cell_setting            triclinic
  loop_
  _symmetry_equiv_pos_as_xyz
 x,y,z
_cell_length_a 13.4380
_cell_length_b 13.4271
_cell_length_c 13.4306
_cell_angle_alpha 86.671400
_cell_angle_beta 93.350500
_cell_angle_gamma 86.661000
loop_
  _atom_site_label
  _atom_site_type_symbol
  _atom_site_fract_x
  _atom_site_fract_y
  _atom_site_fract_z
O1 O 0.60434 0.52528 0.11008
 O2 O 0.33579 0.52248 0.03470
 O3 O 0.47158 0.39161 0.11807
 O4 O 0.46611 0.65899 0.03995
 O5 O 0.50484 0.62113 -0.11124
 O6 O 0.50726 0.35371 -0.03395
 O7 O 0.37458 0.48770 -0.11707
 O8 O 0.64174 0.48713 -0.04140
 Cu9 Cu 0.46556 0.52826 0.09085
 Cu10 Cu 0.51087 0.48325 -0.09094
 C11 C 0.66902 0.50700 0.04693
 C12 C 0.30908 0.50562 -0.05499
 C13 C 0.49033 0.32679 0.05557
 C14 C 0.48507 0.68589 -0.04874
 O15 O -0.10900 0.61095 0.50989
 O16 O -0.03290 0.34240 0.50970
 O17 O -0.04180 0.47274 0.64693
 O18 O -0.11943 0.47571 0.38057
 O19 O 0.03175 0.51382 0.34213
 O20 O 0.11013 0.50911 0.60982
 O21 O 0.11835 0.38132 0.47242
 O22 O 0.04306 0.64848 0.47515
 Cu23 Cu -0.09069 0.47170 0.51593
 Cu24 Cu 0.09079 0.51715 0.47105
 C25 C -0.04588 0.67610 0.49255
 C26 C 0.05619 0.31611 0.49059
 C27 C 0.04711 0.49011 0.67437
 C28 C -0.05744 0.49515 0.31569
 O29 O 0.52835 0.04136 0.66106
 O30 O 0.53079 0.11642 0.39303
 O31 O 0.39445 0.11079 0.52317
 O32 O 0.66243 0.03257 0.52840
 O33 O 0.62391 -0.11846 0.48972
 O34 O 0.35755 -0.04139 0.48680
 O35 O 0.49340 -0.03505 0.35473
 O36 O 0.49350 -0.11067 0.62296
 Cu37 Cu 0.53298 0.09046 0.53000
 Cu38 Cu 0.48816 -0.09136 0.48460
 C39 C 0.51054 -0.04769 0.68823
 C40 C 0.51207 0.05407 0.32793
 C41 C 0.33008 0.04744 0.50477
 C42 C 0.68889 -0.05679 0.51027
 C43 C 0.49550 -0.17693 -0.17983
 C44 C 0.50765 -0.07678 -0.20963
 C45 C 0.51540 -0.00675 -0.13570
 C46 C 0.50112 -0.03328 -0.03407
 C47 C 0.48529 -0.13436 -0.00808
 C48 C 0.48742 -0.20673 -0.07930
 C49 C 0.50217 0.04359 0.04396
 C50 C 0.51311 0.01496 0.14739
 C51 C 0.50968 0.08611 0.22007
 C52 C 0.50198 0.18803 0.18938
 C53 C 0.49422 0.21906 0.08756
 C54 C 0.49106 0.14692 0.01605
 H55 H 0.49332 -0.23266 -0.23503
 H56 H 0.53191 0.06844 -0.15884
 H57 H 0.47171 -0.15871 0.06752
 H58 H 0.52570 -0.06250 0.17334
 H59 H 0.50174 0.24341 0.24492
 H60 H 0.47799 0.17320 -0.06126
 C61 C -0.19158 0.50252 1.17852
 C62 C -0.22302 0.50701 1.07712
 C63 C -0.15107 0.51011 1.00504
 C64 C -0.04732 0.50254 1.03286
 C65 C -0.01892 0.49384 1.13616
 C66 C -0.08982 0.49726 1.20852
 C67 C 0.03080 0.50222 0.95584
 C68 C 0.13272 0.51395 0.98335
 C69 C 0.20710 0.50523 0.91423
 C70 C 0.17785 0.49539 0.81339
 C71 C 0.07713 0.49086 0.78222
 C72 C 0.00510 0.48960 0.85394
 H73 H -0.24656 0.50253 1.23441
 H74 H -0.17802 0.51957 0.92775
 H75 H 0.05827 0.48221 1.16276
 H76 H 0.15618 0.52927 1.05866
 H77 H 0.23356 0.49246 0.75827
 H78 H -0.07081 0.47931 0.82827
 C79 C -0.17479 -0.19030 0.50401
 C80 C -0.07448 -0.22132 0.49425
 C81 C -0.00364 -0.14797 0.48695
 C82 C -0.02978 -0.04570 0.49890
 C83 C -0.13101 -0.01881 0.51297
 C84 C -0.20394 -0.08915 0.51018
 C85 C 0.04717 0.03243 0.49708
 C86 C 0.01807 0.13582 0.48769
 C87 C 0.08862 0.20876 0.49148
 C88 C 0.19047 0.17904 0.49741
 C89 C 0.22223 0.07766 0.50276
 C90 C 0.15077 0.00524 0.50568
 H91 H -0.23102 -0.24494 0.50567
 H92 H 0.07180 -0.17216 0.47273
 H93 H -0.15543 0.05693 0.52565
 H94 H -0.05925 0.16195 0.47592
 H95 H 0.24531 0.23508 0.49792
 H96 H 0.17789 -0.07198 0.51641
   
