data_POSCAR
  _audit_creation_date              2014-09-24
  _audit_creation_method            'ToBaCCo'
  _symmetry_space_group_name_H-M    'P1'
  _symmetry_Int_Tables_number       1
  _symmetry_cell_setting            triclinic
  loop_
  _symmetry_equiv_pos_as_xyz
 x,y,z
_cell_length_a 39.1083
_cell_length_b 41.9326
_cell_length_c 38.2654
_cell_angle_alpha 90.556300
_cell_angle_beta 90.940000
_cell_angle_gamma 90.621000
loop_
  _atom_site_label
  _atom_site_type_symbol
  _atom_site_fract_x
  _atom_site_fract_y
  _atom_site_fract_z
C1 C 1.26063 0.25502 0.26540
 C2 C 0.76028 -0.24042 0.24340
 C3 C 0.74844 0.25149 -0.23490
 C4 C 1.24476 -0.25551 -0.25698
 C5 C 0.25252 0.25228 0.73837
 C6 C 0.75881 0.74707 0.75494
 C7 C 0.74070 0.23604 0.23638
 C8 C 0.24296 0.74314 0.25511
 N9 N 1.08158 0.03762 0.03173
 N10 N 1.10667 0.05854 0.03716
 N11 N 1.05600 -0.02790 0.05865
 N12 N 1.06403 -0.04876 0.08309
 N13 N 1.07799 -0.02920 0.03308
 N14 N 1.10164 -0.05062 0.03962
 N15 N 1.05943 0.03912 0.05712
 N16 N 1.06880 0.06100 0.08038
 C17 C 1.09813 0.07318 0.06749
 C18 C 1.09240 -0.06299 0.07064
 N19 N 0.95691 -0.02419 0.04011
 N20 N 0.93323 -0.04534 0.04850
 N21 N 0.98573 0.04232 0.06150
 N22 N 0.98056 0.06415 0.08600
 N23 N 0.96082 0.04267 0.03806
 N24 N 0.93834 0.06466 0.04577
 N25 N 0.98244 -0.02457 0.06281
 N26 N 0.97682 -0.04583 0.08725
 Mn27 Mn 1.02093 0.00725 0.06038
 C28 C 0.94617 -0.05883 0.07786
 C29 C 0.95106 0.07821 0.07546
 N30 N 1.07209 -0.03128 -0.04246
 N31 N 1.09364 -0.05398 -0.05121
 N32 N 1.05030 0.03616 -0.06615
 N33 N 1.05449 0.05931 -0.08884
 N34 N 1.07597 0.03567 -0.04365
 N35 N 1.09857 0.05823 -0.05066
 N36 N 1.04622 -0.03071 -0.06473
 N37 N 1.04933 -0.05284 -0.08903
 Mn38 Mn 1.07730 0.00318 -0.00537
 C39 C 1.07878 -0.06744 -0.08016
 C40 C 1.08471 0.07288 -0.07885
 N41 N 0.95526 0.04095 -0.03700
 N42 N 0.93258 0.06332 -0.04399
 N43 N 0.97301 -0.02781 -0.06065
 N44 N 0.96298 -0.04986 -0.08362
 N45 N 0.95138 -0.02610 -0.03488
 N46 N 0.92622 -0.04697 -0.03942
 N47 N 0.97744 0.03891 -0.06224
 N48 N 0.97054 0.05951 -0.08700
 Mn49 Mn 0.95577 0.00836 0.00162
 Mn50 Mn 1.01177 0.00409 -0.06371
 Cl51 Cl 1.01646 0.00569 -0.00171
 C52 C 0.94279 0.07488 -0.07521
 C53 C 0.93390 -0.06185 -0.06977
 N54 N 1.04218 0.52991 0.53681
 N55 N 1.06359 0.55287 0.54655
 N56 N 1.02595 0.45903 0.55323
 N57 N 1.03643 0.43786 0.57636
 N58 N 1.04961 0.46393 0.52980
 N59 N 1.07682 0.44666 0.53667
 N60 N 1.01872 0.52556 0.56048
 N61 N 1.02361 0.54556 0.58705
 C62 C 1.05154 0.56268 0.57774
 C63 C 1.06800 0.43000 0.56525
 N64 N 0.92874 0.45104 0.52643
 N65 N 0.90579 0.42843 0.53242
 N66 N 0.94526 0.51811 0.55821
 N67 N 0.93646 0.53763 0.58373
 N68 N 0.92165 0.51742 0.53341
 N69 N 0.89613 0.53631 0.54143
 N70 N 0.95218 0.45183 0.55147
 N71 N 0.94551 0.43009 0.57518
 Mn72 Mn 0.98553 0.48860 0.55617
 C73 C 0.91691 0.41523 0.56267
 C74 C 0.90582 0.54897 0.57277
 N75 N 1.04973 0.47003 0.45470
 N76 N 1.07510 0.45098 0.44647
 N77 N 1.01951 0.53584 0.43691
 N78 N 1.02566 0.55874 0.41429
 N79 N 1.04252 0.53651 0.46227
 N80 N 1.06460 0.56013 0.45786
 N81 N 1.02604 0.46949 0.42999
 N82 N 1.03456 0.45004 0.40436
 Mn83 Mn 1.04624 0.50010 0.49589
 C84 C 1.06514 0.43847 0.41508
 C85 C 1.05331 0.57419 0.42825
 N86 N 0.92218 0.52405 0.45838
 N87 N 0.89805 0.54568 0.45473
 N88 N 0.95262 0.46235 0.42756
 N89 N 0.94698 0.44365 0.40009
 N90 N 0.92931 0.45743 0.45130
 N91 N 0.90752 0.43493 0.44080
 N92 N 0.94615 0.52844 0.43523
 N93 N 0.93906 0.55300 0.41528
 Mn94 Mn 0.92512 0.48742 0.49232
 Mn95 Mn 0.98605 0.49903 0.43213
 Cl96 Cl 0.98572 0.49370 0.49416
 C97 C 0.90906 0.56366 0.42775
 C98 C 0.91913 0.42631 0.40899
 N99 N 0.53759 0.03252 0.56625
 N100 N 0.55835 0.04329 0.59150
 N101 N 0.46487 0.05033 0.53916
 N102 N 0.44106 0.07188 0.54411
 N103 N 0.46554 0.02993 0.56491
 N104 N 0.44184 0.03680 0.58792
 N105 N 0.53650 0.05288 0.54042
 N106 N 0.55648 0.07772 0.54723
 C107 C 0.57040 0.07134 0.57889
 C108 C 0.42659 0.06292 0.57442
 N109 N 0.46670 0.02327 0.44028
 N110 N 0.44520 0.02901 0.41417
 N111 N 0.53700 0.04834 0.46605
 N112 N 0.55863 0.07147 0.45891
 N113 N 0.53843 0.02540 0.44254
 N114 N 0.56097 0.03275 0.41834
 N115 N 0.46522 0.04589 0.46414
 N116 N 0.44251 0.06742 0.45508
 Mn117 Mn 0.50079 0.04948 0.50239
 C118 C 0.42986 0.05638 0.42411
 C119 C 0.57376 0.06145 0.42938
 N120 N 0.46736 -0.03823 0.56888
 N121 N 0.44534 -0.04388 0.59379
 N122 N 0.53884 -0.06033 0.54705
 N123 N 0.56071 -0.08247 0.55675
 N124 N 0.53877 -0.03684 0.57007
 N125 N 0.56018 -0.04272 0.59622
 N126 N 0.46678 -0.06145 0.54559
 N127 N 0.44406 -0.08349 0.55404
 Mn128 Mn 0.50246 -0.00315 0.56782
 C129 C 0.43065 -0.07192 0.58397
 C130 C 0.57417 -0.07099 0.58724
 N131 N 0.53949 -0.04400 0.44636
 N132 N 0.56049 -0.05334 0.42164
 N133 N 0.46728 -0.06613 0.46978
 N134 N 0.44404 -0.08868 0.46340
 N135 N 0.46745 -0.04526 0.44440
 N136 N 0.44394 -0.05269 0.42047
 N137 N 0.53887 -0.06496 0.47170
 N138 N 0.55920 -0.08902 0.46471
 Mn139 Mn 0.50316 -0.01020 0.44305
 Mn140 Mn 0.50286 -0.06350 0.50859
 Cl141 Cl 0.50243 -0.00690 0.50544
 C142 C 0.57301 -0.08122 0.43375
 C143 C 0.42939 -0.07974 0.43271
 N144 N 0.55979 0.53756 0.03930
 N145 N 0.58251 0.56055 0.04543
 N146 N 0.53731 0.46931 0.06072
 N147 N 0.54562 0.44628 0.08259
 N148 N 0.55934 0.47076 0.03521
 N149 N 0.58300 0.44890 0.03896
 N150 N 0.53729 0.53654 0.06440
 N151 N 0.54373 0.55912 0.08793
 C152 C 0.57195 0.57394 0.07571
 C153 C 0.57409 0.43357 0.06841
 N154 N 0.43837 0.47011 0.04058
 N155 N 0.41413 0.44918 0.04739
 N156 N 0.46383 0.53621 0.06796
 N157 N 0.45906 0.55800 0.09259
 N158 N 0.43898 0.53694 0.04453
 N159 N 0.41656 0.55896 0.05265
 N160 N 0.46306 0.46898 0.06420
 N161 N 0.45601 0.44717 0.08788
 Mn162 Mn 0.50045 0.50267 0.06477
 C163 C 0.42552 0.43471 0.07668
 C164 C 0.42948 0.57214 0.08254
 N165 N 0.55484 0.47325 -0.03982
 N166 N 0.57779 0.45204 -0.04918
 N167 N 0.53024 0.54118 -0.05932
 N168 N 0.53610 0.56294 -0.08321
 N169 N 0.55556 0.54045 -0.03637
 N170 N 0.57940 0.56166 -0.04425
 N171 N 0.52993 0.47442 -0.06319
 N172 N 0.53556 0.45456 -0.08936
 Mn173 Mn 0.55773 0.50554 -0.00039
 C174 C 0.56515 0.44037 -0.07995
 C175 C 0.56667 0.57585 -0.07332
 N176 N 0.43470 0.53967 -0.03049
 N177 N 0.40969 0.55986 -0.03631
 N178 N 0.45619 0.47359 -0.05959
 N179 N 0.44698 0.45330 -0.08478
 N180 N 0.43393 0.47298 -0.03429
 N181 N 0.40896 0.45252 -0.04164
 N182 N 0.45683 0.54062 -0.05589
 N183 N 0.44750 0.56161 -0.07957
 Mn184 Mn 0.43631 0.50495 0.00512
 Mn185 Mn 0.49328 0.50744 -0.05977
 Cl186 Cl 0.49697 0.50512 0.00245
 C187 C 0.41830 0.57376 -0.06672
 C188 C 0.41761 0.44007 -0.07296
 C189 C 1.18828 0.19694 0.23734
 C190 C 1.19472 0.19048 0.20174
 C191 C 1.22465 0.20395 0.18737
 C192 C 1.24584 0.22460 0.20741
 C193 C 1.23766 0.23295 0.24204
 C194 C 1.20955 0.21731 0.25699
 C195 C 1.23351 0.19659 0.15309
 C196 C 1.21339 0.17598 0.13266
 C197 C 1.18300 0.16228 0.14554
 C198 C 1.17303 0.17045 0.18032
 C199 C 1.14140 0.15878 0.19239
 C200 C 1.12086 0.13874 0.17190
 C201 C 1.13095 0.12931 0.13866
 C202 C 1.16209 0.14085 0.12482
 C203 C 1.17108 0.12998 0.09100
 C204 C 1.15013 0.10846 0.07218
 C205 C 1.11956 0.09720 0.08627
 C206 C 1.10999 0.10805 0.11935
 H207 H 1.16747 0.18607 0.25115
 H208 H 1.26911 0.23353 0.19592
 H209 H 1.20376 0.22125 0.28428
 H210 H 1.25643 0.20676 0.14193
 H211 H 1.22214 0.17170 0.10652
 H212 H 1.13134 0.16521 0.21748
 H213 H 1.09684 0.13030 0.18237
 H214 H 1.19443 0.13706 0.07857
 H215 H 1.15811 0.10034 0.04666
 H216 H 1.08638 0.09941 0.13054
 C217 C 1.21733 0.68386 0.67218
 C218 C 1.18238 0.67817 0.67858
 C219 C 1.16844 0.69173 0.70916
 C220 C 1.18815 0.71269 0.73043
 C221 C 1.22190 0.72099 0.72151
 C222 C 1.23660 0.70444 0.69345
 C223 C 1.13492 0.68425 0.71832
 C224 C 1.11489 0.66361 0.69772
 C225 C 1.12734 0.65036 0.66637
 C226 C 1.16123 0.65881 0.65607
 C227 C 1.17264 0.64846 0.62312
 C228 C 1.15241 0.62913 0.60161
 C229 C 1.12021 0.61903 0.61215
 C230 C 1.10705 0.62929 0.64465
 C231 C 1.07440 0.61748 0.65411
 C232 C 1.05603 0.59627 0.63223
 C233 C 1.06944 0.58646 0.60025
 C234 C 1.10131 0.59831 0.59025
 H235 H 1.23081 0.67227 0.65135
 H236 H 1.17706 0.72209 0.75404
 H237 H 1.26329 0.70816 0.68737
 H238 H 1.12406 0.69436 0.74179
 H239 H 1.08931 0.65918 0.70661
 H240 H 1.19689 0.65568 0.61264
 H241 H 1.16230 0.62173 0.57653
 H242 H 1.06272 0.62346 0.67858
 H243 H 1.03145 0.58726 0.64057
 H244 H 1.11200 0.59072 0.56559
 C245 C 0.70389 0.17127 0.73988
 C246 C 0.68489 0.17893 0.70945
 C247 C 0.68620 0.21100 0.69811
 C248 C 0.70578 0.23406 0.71665
 C249 C 0.72680 0.22568 0.74523
 C250 C 0.72397 0.19415 0.75745
 C251 C 0.66817 0.21994 0.66815
 C252 C 0.64976 0.19755 0.64834
 C253 C 0.64810 0.16517 0.65812
 C254 C 0.66474 0.15596 0.68996
 C255 C 0.66044 0.12420 0.70132
 C256 C 0.64099 0.10211 0.68209
 C257 C 0.62582 0.11035 0.65028
 C258 C 0.62975 0.14181 0.63745
 C259 C 0.61551 0.14844 0.60412
 C260 C 0.59707 0.12526 0.58524
 C261 C 0.59196 0.09467 0.59872
 C262 C 0.60668 0.08725 0.63119
 H263 H 0.70419 0.14770 0.75077
 H264 H 0.70551 0.25864 0.70813
 H265 H 0.73693 0.18678 0.78116
 H266 H 0.66869 0.24450 0.65955
 H267 H 0.63643 0.20663 0.62576
 H268 H 0.67126 0.11567 0.72547
 H269 H 0.63811 0.07815 0.69211
 H270 H 0.61858 0.17114 0.59156
 H271 H 0.58638 0.13158 0.55998
 H272 H 0.60327 0.06350 0.64162
 C273 C 0.73674 0.68863 0.18181
 C274 C 0.70121 0.69128 0.17630
 C275 C 0.68424 0.71600 0.19422
 C276 C 0.70284 0.73821 0.21505
 C277 C 0.73838 0.73495 0.22145
 C278 C 0.75467 0.70990 0.20358
 C279 C 0.64874 0.71848 0.19116
 C280 C 0.62962 0.69616 0.17180
 C281 C 0.64554 0.67126 0.15327
 C282 C 0.68204 0.67006 0.15385
 C283 C 0.69821 0.64821 0.13137
 C284 C 0.67938 0.62718 0.11029
 C285 C 0.64381 0.62623 0.11165
 C286 C 0.62629 0.64784 0.13361
 C287 C 0.59033 0.64435 0.13579
 C288 C 0.57277 0.62047 0.11684
 C289 C 0.59028 0.59994 0.09452
 C290 C 0.62571 0.60324 0.09164
 H291 H 0.75153 0.66989 0.17019
 H292 H 0.68919 0.75837 0.22535
 H293 H 0.78185 0.70673 0.20523
 H294 H 0.63547 0.73746 0.20455
 H295 H 0.60236 0.69965 0.17085
 H296 H 0.72556 0.64743 0.12863
 H297 H 0.69290 0.61095 0.09330
 H298 H 0.57524 0.65887 0.15294
 H299 H 0.54535 0.61804 0.11967
 H300 H 0.63944 0.58693 0.07490
 C301 C 0.78981 -0.19564 0.16058
 C302 C 0.82026 -0.18005 0.17216
 C303 C 0.83111 -0.18507 0.20714
 C304 C 0.81183 -0.20425 0.22941
 C305 C 0.78198 -0.22045 0.21754
 C306 C 0.77105 -0.21508 0.18283
 C307 C 0.86101 -0.17065 0.22007
 C308 C 0.88082 -0.15147 0.19898
 C309 C 0.87120 -0.14546 0.16395
 C310 C 0.84001 -0.15939 0.15052
 C311 C 0.82931 -0.15166 0.11621
 C312 C 0.84813 -0.13086 0.09585
 C313 C 0.87878 -0.11751 0.10837
 C314 C 0.89126 -0.12522 0.14223
 C315 C 0.92339 -0.11226 0.15291
 C316 C 0.94128 -0.09136 0.13160
 C317 C 0.92797 -0.08267 0.09896
 C318 C 0.89694 -0.09621 0.08723
 H319 H 0.77961 -0.19338 0.13443
 H320 H 0.81983 -0.20625 0.25655
 H321 H 0.74751 -0.22548 0.17254
 H322 H 0.86931 -0.17429 0.24691
 H323 H 0.90321 -0.14100 0.21137
 H324 H 0.80594 -0.16071 0.10443
 H325 H 0.83855 -0.12520 0.06992
 H326 H 0.93565 -0.11788 0.17745
 H327 H 0.96551 -0.08161 0.14106
 H328 H 0.88673 -0.08998 0.06170
 C329 C 0.80977 0.31849 0.73718
 C330 C 0.81504 0.31251 0.70129
 C331 C 0.79715 0.28643 0.68552
 C332 C 0.77645 0.26623 0.70563
 C333 C 0.77052 0.27291 0.74123
 C334 C 0.78812 0.29912 0.75652
 C335 C 0.79996 0.28068 0.64968
 C336 C 0.81917 0.30092 0.62889
 C337 C 0.83771 0.32704 0.64346
 C338 C 0.83713 0.33175 0.68053
 C339 C 0.85924 0.35503 0.69573
 C340 C 0.88021 0.37391 0.67538
 C341 C 0.87917 0.37122 0.63905
 C342 C 0.85744 0.34822 0.62239
 C343 C 0.85574 0.34807 0.58533
 C344 C 0.87507 0.36972 0.56594
 C345 C 0.89726 0.39155 0.58273
 C346 C 0.89943 0.39190 0.61927
 H347 H 0.82126 0.33851 0.75098
 H348 H 0.76545 0.24518 0.69321
 H349 H 0.78500 0.30469 0.78397
 H350 H 0.78654 0.26067 0.63739
 H351 H 0.81994 0.29489 0.60147
 H352 H 0.86175 0.35858 0.72358
 H353 H 0.89697 0.39128 0.68826
 H354 H 0.83883 0.33230 0.57065
 H355 H 0.87269 0.36935 0.53769
 H356 H 0.91601 0.40925 0.63248
 C357 C 0.26942 -0.20403 0.66356
 C358 C 0.29806 -0.18671 0.67667
 C359 C 0.30582 -0.18885 0.71281
 C360 C 0.28819 -0.21059 0.73369
 C361 C 0.26227 -0.23059 0.71948
 C362 C 0.25147 -0.22496 0.68478
 C363 C 0.33152 -0.16969 0.72784
 C364 C 0.34998 -0.14853 0.70762
 C365 C 0.34435 -0.14674 0.67114
 C366 C 0.31893 -0.16712 0.65524
 C367 C 0.31643 -0.16856 0.61841
 C368 C 0.33808 -0.15061 0.59774
 C369 C 0.36197 -0.12957 0.61291
 C370 C 0.36443 -0.12633 0.64982
 C371 C 0.38693 -0.10272 0.66387
 C372 C 0.40755 -0.08458 0.64219
 C373 C 0.40676 -0.08961 0.60600
 C374 C 0.38367 -0.11185 0.59139
 H375 H 0.25974 -0.20123 0.63722
 H376 H 0.29535 -0.21268 0.76104
 H377 H 0.22907 -0.23668 0.67355
 H378 H 0.33748 -0.17109 0.75556
 H379 H 0.36982 -0.13503 0.72113
 H380 H 0.29908 -0.18468 0.60474
 H381 H 0.33600 -0.15316 0.56956
 H382 H 0.38875 -0.09731 0.69143
 H383 H 0.42485 -0.06704 0.65395
 H384 H 0.38245 -0.11518 0.56325
 C385 C 0.34290 0.29870 0.23559
 C386 C 0.33120 0.31581 0.20612
 C387 C 0.29618 0.31248 0.19653
 C388 C 0.27413 0.29328 0.21600
 C389 C 0.28624 0.27514 0.24422
 C390 C 0.32083 0.27909 0.25434
 C391 C 0.28312 0.32838 0.16756
 C392 C 0.30416 0.34711 0.14721
 C393 C 0.33930 0.35116 0.15538
 C394 C 0.35284 0.33616 0.18598
 C395 C 0.38729 0.34250 0.19569
 C396 C 0.40778 0.36277 0.17628
 C397 C 0.39523 0.37681 0.14585
 C398 C 0.36110 0.37049 0.13443
 C399 C 0.35024 0.38369 0.10230
 C400 C 0.37164 0.40371 0.08355
 C401 C 0.40465 0.41132 0.09589
 C402 C 0.41656 0.39737 0.12683
 H403 H 0.36903 0.29977 0.24488
 H404 H 0.24722 0.29193 0.20877
 H405 H 0.33112 0.26753 0.27728
 H406 H 0.25627 0.32616 0.16034
 H407 H 0.29174 0.35885 0.12566
 H408 H 0.39910 0.33275 0.21878
 H409 H 0.43387 0.36737 0.18513
 H410 H 0.32548 0.37879 0.09062
 H411 H 0.36195 0.41365 0.05936
 H412 H 0.44230 0.40270 0.13628
 C413 C 0.80206 0.22712 -0.15321
 C414 C 0.82180 0.20197 -0.16672
 C415 C 0.82102 0.19698 -0.20336
 C416 C 0.79821 0.21386 -0.22466
 C417 C 0.77537 0.23598 -0.21039
 C418 C 0.77988 0.24421 -0.17481
 C419 C 0.84240 0.17462 -0.21856
 C420 C 0.86431 0.15662 -0.19808
 C421 C 0.86484 0.15954 -0.16126
 C422 C 0.84240 0.18182 -0.14526
 C423 C 0.83993 0.18203 -0.10847
 C424 C 0.85867 0.16104 -0.08798
 C425 C 0.88156 0.13994 -0.10315
 C426 C 0.88595 0.13983 -0.13990
 C427 C 0.91136 0.11991 -0.15381
 C428 C 0.93000 0.09960 -0.13242
 C429 C 0.92395 0.09820 -0.09651
 C430 C 0.89998 0.11873 -0.08185
 H431 H 0.80378 0.23454 -0.12617
 H432 H 0.79712 0.20887 -0.25253
 H433 H 0.76636 0.26387 -0.16319
 H434 H 0.84202 0.17081 -0.24663
 H435 H 0.87934 0.13938 -0.21191
 H436 H 0.82237 0.19718 -0.09483
 H437 H 0.85523 0.16139 -0.05992
 H438 H 0.91791 0.11979 -0.18105
 H439 H 0.94888 0.08442 -0.14433
 H440 H 0.89581 0.11830 -0.05391
 C441 C 0.83742 0.70897 0.27535
 C442 C 0.82796 0.69863 0.30879
 C443 C 0.79668 0.70977 0.32197
 C444 C 0.77611 0.73061 0.30232
 C445 C 0.78481 0.74009 0.26817
 C446 C 0.81643 0.72883 0.25575
 C447 C 0.78553 0.69946 0.35451
 C448 C 0.80390 0.67711 0.37347
 C449 C 0.83482 0.66463 0.36098
 C450 C 0.84788 0.67681 0.32895
 C451 C 0.88036 0.66669 0.31807
 C452 C 0.89854 0.64403 0.33654
 C453 C 0.88508 0.63025 0.36636
 C454 C 0.85314 0.64033 0.37928
 C455 C 0.84057 0.62491 0.40940
 C456 C 0.85886 0.60040 0.42546
 C457 C 0.89022 0.59057 0.41223
 C458 C 0.90334 0.60598 0.38298
 H459 H 0.86031 0.70117 0.26273
 H460 H 0.75325 0.73852 0.31448
 H461 H 0.82509 0.73457 0.22984
 H462 H 0.76179 0.70815 0.36509
 H463 H 0.79328 0.67028 0.39812
 H464 H 0.89278 0.67608 0.29542
 H465 H 0.92323 0.63677 0.32694
 H466 H 0.81630 0.63059 0.42066
 H467 H 0.84816 0.58881 0.44804
 H468 H 0.92762 0.59856 0.37249
 C469 C 0.28626 0.20536 0.34653
 C470 C 0.31127 0.18478 0.33295
 C471 C 0.31779 0.18632 0.29674
 C472 C 0.30203 0.20946 0.27597
 C473 C 0.27881 0.23135 0.29011
 C474 C 0.26996 0.22766 0.32539
 C475 C 0.33990 0.16465 0.28134
 C476 C 0.35571 0.14129 0.30113
 C477 C 0.35098 0.13945 0.33756
 C478 C 0.32942 0.16235 0.35390
 C479 C 0.32778 0.16294 0.39073
 C480 C 0.34654 0.14190 0.41096
 C481 C 0.36676 0.11878 0.39536
 C482 C 0.36830 0.11637 0.35844
 C483 C 0.38736 0.09103 0.34404
 C484 C 0.40604 0.07057 0.36550
 C485 C 0.40644 0.07482 0.40179
 C486 C 0.38612 0.09847 0.41660
 H487 H 0.27771 0.20393 0.37311
 H488 H 0.30768 0.21044 0.24835
 H489 H 0.24974 0.24136 0.33694
 H490 H 0.34491 0.16563 0.25359
 H491 H 0.37272 0.12578 0.28728
 H492 H 0.31339 0.18049 0.40485
 H493 H 0.34526 0.14383 0.43918
 H494 H 0.38826 0.08631 0.31634
 H495 H 0.42119 0.05209 0.35353
 H496 H 0.38579 0.10139 0.44479
 C497 C 0.32745 0.70005 -0.23035
 C498 C 0.31663 0.68237 -0.20113
 C499 C 0.28167 0.68391 -0.19227
 C500 C 0.25901 0.70263 -0.21163
 C501 C 0.27059 0.72237 -0.23856
 C502 C 0.30482 0.71944 -0.24876
 C503 C 0.26942 0.66726 -0.16369
 C504 C 0.29142 0.65010 -0.14253
 C505 C 0.32668 0.64846 -0.14954
 C506 C 0.33922 0.66357 -0.18024
 C507 C 0.37380 0.65921 -0.18904
 C508 C 0.39547 0.64102 -0.16843
 C509 C 0.38394 0.62730 -0.13770
 C510 C 0.34964 0.63151 -0.12728
 C511 C 0.33988 0.61882 -0.09474
 C512 C 0.36263 0.60105 -0.07466
 C513 C 0.39576 0.59539 -0.08622
 C514 C 0.40651 0.60909 -0.11743
 H515 H 0.35339 0.70002 -0.23935
 H516 H 0.23227 0.70322 -0.20458
 H517 H 0.31447 0.73200 -0.27114
 H518 H 0.24255 0.66800 -0.15717
 H519 H 0.27977 0.63774 -0.12116
 H520 H 0.38487 0.66897 -0.21224
 H521 H 0.42167 0.63789 -0.17651
 H522 H 0.31499 0.62243 -0.08381
 H523 H 0.35392 0.59114 -0.05029
 H524 H 0.43238 0.60526 -0.12621
 C525 C 1.22263 -0.20830 -0.17323
 C526 C 1.19221 -0.19260 -0.18284
 C527 C 1.17896 -0.19814 -0.21710
 C528 C 1.19591 -0.21828 -0.24052
 C529 C 1.22525 -0.23505 -0.23014
 C530 C 1.23889 -0.22858 -0.19645
 C531 C 1.14898 -0.18335 -0.22801
 C532 C 1.13147 -0.16341 -0.20556
 C533 C 1.14359 -0.15702 -0.17118
 C534 C 1.17489 -0.17128 -0.15988
 C535 C 1.18811 -0.16331 -0.12628
 C536 C 1.17164 -0.14195 -0.10458
 C537 C 1.14092 -0.12822 -0.11497
 C538 C 1.12594 -0.13614 -0.14802
 C539 C 1.09386 -0.12274 -0.15645
 C540 C 1.07844 -0.10120 -0.13389
 C541 C 1.09427 -0.09228 -0.10215
 C542 C 1.12524 -0.10629 -0.09253
 H543 H 1.23489 -0.20542 -0.14800
 H544 H 1.18615 -0.22110 -0.26706
 H545 H 1.26298 -0.23845 -0.18782
 H546 H 1.13881 -0.18732 -0.25425
 H547 H 1.10880 -0.15272 -0.21639
 H548 H 1.21169 -0.17263 -0.11599
 H549 H 1.18312 -0.13614 -0.07930
 H550 H 1.07980 -0.12845 -0.18016
 H551 H 1.05415 -0.09110 -0.14171
 H552 H 1.13738 -0.09985 -0.06773
 C553 C 1.23643 0.32064 0.33157
 C554 C 1.20162 0.32647 0.32355
 C555 C 1.18718 0.31080 0.29378
 C556 C 1.20616 0.28862 0.27471
 C557 C 1.23957 0.28034 0.28521
 C558 C 1.25501 0.29844 0.31243
 C559 C 1.15371 0.31709 0.28317
 C560 C 1.13377 0.33816 0.30186
 C561 C 1.14640 0.35363 0.33246
 C562 C 1.18081 0.34747 0.34368
 C563 C 1.19296 0.36182 0.37509
 C564 C 1.17248 0.38175 0.39472
 C565 C 1.13914 0.38842 0.38389
 C566 C 1.12561 0.37471 0.35249
 C567 C 1.09175 0.38275 0.34253
 C568 C 1.07235 0.40321 0.36299
 C569 C 1.08580 0.41636 0.39407
 C570 C 1.11923 0.40881 0.40442
 H571 H 1.25024 0.33300 0.35228
 H572 H 1.19454 0.27794 0.25149
 H573 H 1.28157 0.29470 0.31956
 H574 H 1.14263 0.30536 0.26021
 H575 H 1.10816 0.34124 0.29184
 H576 H 1.21814 0.35758 0.38575
 H577 H 1.18291 0.39206 0.41877
 H578 H 1.07942 0.37397 0.31894
 H579 H 1.04661 0.40879 0.35433
 H580 H 1.12994 0.41907 0.42836
 C581 C 0.72126 -0.16243 0.28198
 C582 C 0.69556 -0.17382 0.30414
 C583 C 0.69118 -0.20724 0.30658
 C584 C 0.71086 -0.22803 0.28621
 C585 C 0.73741 -0.21679 0.26475
 C586 C 0.74151 -0.18323 0.26297
 C587 C 0.66732 -0.21982 0.32955
 C588 C 0.64860 -0.19991 0.35113
 C589 C 0.65204 -0.16639 0.34955
 C590 C 0.67450 -0.15316 0.32427
 C591 C 0.67461 -0.11979 0.31943
 C592 C 0.65427 -0.09993 0.33931
 C593 C 0.63391 -0.11227 0.36559
 C594 C 0.63311 -0.14560 0.37173
 C595 C 0.61380 -0.15662 0.40024
 C596 C 0.59515 -0.13552 0.42074
 C597 C 0.59470 -0.10289 0.41333
 C598 C 0.61426 -0.09139 0.38580
 H599 H 0.72717 -0.13741 0.27944
 H600 H 0.70531 -0.25339 0.28704
 H601 H 0.76025 -0.17193 0.24677
 H602 H 0.66357 -0.24540 0.33142
 H603 H 0.63072 -0.21152 0.36809
 H604 H 0.68935 -0.10828 0.29955
 H605 H 0.65486 -0.07452 0.33433
 H606 H 0.61317 -0.18130 0.40782
 H607 H 0.58047 -0.14495 0.44214
 H608 H 0.61446 -0.06606 0.38031
 C609 C 0.68270 0.27620 -0.16598
 C610 C 0.67492 0.30787 -0.17516
 C611 C 0.68736 0.31928 -0.20728
 C612 C 0.71052 0.30120 -0.22667
 C613 C 0.72164 0.27121 -0.21493
 C614 C 0.70475 0.25799 -0.18616
 C615 C 0.67696 0.34886 -0.21968
 C616 C 0.65474 0.36761 -0.20060
 C617 C 0.64334 0.35808 -0.16742
 C618 C 0.65485 0.32836 -0.15387
 C619 C 0.64758 0.32088 -0.11886
 C620 C 0.62965 0.34180 -0.09774
 C621 C 0.61678 0.37015 -0.11115
 C622 C 0.62211 0.37798 -0.14665
 C623 C 0.60579 0.40539 -0.15993
 C624 C 0.58655 0.42496 -0.13829
 C625 C 0.58363 0.41831 -0.10274
 C626 C 0.59861 0.39082 -0.08925
 H627 H 0.67149 0.26469 -0.14375
 H628 H 0.71978 0.31071 -0.25099
 H629 H 0.70986 0.23374 -0.17831
 H630 H 0.68613 0.35767 -0.24441
 H631 H 0.64842 0.39037 -0.21169
 H632 H 0.65712 0.29966 -0.10649
 H633 H 0.62558 0.33558 -0.07068
 H634 H 0.60678 0.41190 -0.18709
 H635 H 0.57457 0.44590 -0.14921
 H636 H 0.59558 0.38528 -0.06184
 C637 C 1.23920 0.19376 -0.18587
 C638 C 1.20352 0.19411 -0.18057
 C639 C 1.18390 0.21577 -0.20054
 C640 C 1.19955 0.23580 -0.22489
 C641 C 1.23451 0.23295 -0.23260
 C642 C 1.25422 0.21289 -0.21111
 C643 C 1.14853 0.21691 -0.19673
 C644 C 1.13179 0.19543 -0.17541
 C645 C 1.15001 0.17242 -0.15618
 C646 C 1.18656 0.17320 -0.15694
 C647 C 1.20483 0.15297 -0.13420
 C648 C 1.18801 0.13144 -0.11293
 C649 C 1.15247 0.12844 -0.11428
 C650 C 1.13290 0.14866 -0.13615
 C651 C 1.09709 0.14333 -0.13818
 C652 C 1.08163 0.11894 -0.11933
 C653 C 1.10109 0.09949 -0.09739
 C654 C 1.13644 0.10469 -0.09452
 H655 H 1.25615 0.17809 -0.17194
 H656 H 1.18389 0.25329 -0.23786
 H657 H 1.28153 0.21117 -0.21487
 H658 H 1.13343 0.23391 -0.21134
 H659 H 1.10443 0.19776 -0.17410
 H660 H 1.23231 0.15348 -0.13184
 H661 H 1.20310 0.11630 -0.09599
 H662 H 1.08048 0.15671 -0.15517
 H663 H 1.05426 0.11519 -0.12209
 H664 H 1.15171 0.08936 -0.07794
 C665 C 1.20733 0.66468 0.29106
 C666 C 1.18190 0.67531 0.31390
 C667 C 1.18045 0.70839 0.32112
 C668 C 1.20094 0.73004 0.30253
 C669 C 1.22341 0.71958 0.27609
 C670 C 1.22796 0.68614 0.27330
 C671 C 1.15827 0.71962 0.34659
 C672 C 1.13758 0.69862 0.36505
 C673 C 1.13716 0.66554 0.35759
 C674 C 1.15861 0.65402 0.33045
 C675 C 1.15518 0.62185 0.31965
 C676 C 1.13248 0.60122 0.33566
 C677 C 1.11303 0.61149 0.36370
 C678 C 1.11548 0.64362 0.37565
 C679 C 1.09663 0.65212 0.40563
 C680 C 1.07620 0.62963 0.42261
 C681 C 1.07323 0.59843 0.40971
 C682 C 1.09144 0.58953 0.38018
 H683 H 1.21265 0.63971 0.28722
 H684 H 1.19854 0.75539 0.30769
 H685 H 1.24768 0.67573 0.25755
 H686 H 1.15703 0.74491 0.35249
 H687 H 1.12108 0.70920 0.38413
 H688 H 1.16885 0.61217 0.29779
 H689 H 1.13049 0.57679 0.32623
 H690 H 1.09809 0.67563 0.41725
 H691 H 1.06271 0.63660 0.44593
 H692 H 1.08969 0.56507 0.37077
 C693 C 0.70075 0.15463 0.26460
 C694 C 0.68448 0.16260 0.29614
 C695 C 0.68717 0.19463 0.30792
 C696 C 0.70425 0.21758 0.28819
 C697 C 0.72087 0.20971 0.25687
 C698 C 0.71855 0.17756 0.24558
 C699 C 0.67285 0.20383 0.33947
 C700 C 0.65648 0.18173 0.36020
 C701 C 0.65305 0.14945 0.34975
 C702 C 0.66591 0.13998 0.31652
 C703 C 0.65898 0.10855 0.30449
 C704 C 0.64011 0.08716 0.32424
 C705 C 0.62850 0.09575 0.35726
 C706 C 0.63595 0.12666 0.37096
 C707 C 0.62603 0.13354 0.40552
 C708 C 0.60709 0.11167 0.42444
 C709 C 0.59745 0.08209 0.40989
 C710 C 0.60901 0.07383 0.37657
 H711 H 0.70091 0.13066 0.25424
 H712 H 0.70485 0.24210 0.29748
 H713 H 0.73043 0.16936 0.22199
 H714 H 0.67458 0.22841 0.34845
 H715 H 0.64566 0.19104 0.38385
 H716 H 0.66675 0.10005 0.27921
 H717 H 0.63465 0.06357 0.31357
 H718 H 0.63276 0.15550 0.41890
 H719 H 0.59940 0.11837 0.45055
 H720 H 0.60226 0.05071 0.36538
 C721 C 0.73351 0.69271 -0.16890
 C722 C 0.69788 0.68796 -0.17372
 C723 C 0.68217 0.70234 -0.20315
 C724 C 0.70130 0.72148 -0.22585
 C725 C 0.73644 0.72745 -0.21979
 C726 C 0.75223 0.71164 -0.19164
 C727 C 0.64743 0.69730 -0.21012
 C728 C 0.62784 0.67799 -0.18881
 C729 C 0.64216 0.66303 -0.15915
 C730 C 0.67759 0.66876 -0.15098
 C731 C 0.69148 0.65525 -0.12027
 C732 C 0.67197 0.63583 -0.09900
 C733 C 0.63786 0.62890 -0.10735
 C734 C 0.62231 0.64246 -0.13742
 C735 C 0.58764 0.63433 -0.14473
 C736 C 0.56967 0.61333 -0.12347
 C737 C 0.58535 0.59977 -0.09412
 C738 C 0.61936 0.60804 -0.08593
 H739 H 0.74798 0.68161 -0.14826
 H740 H 0.68859 0.73099 -0.24874
 H741 H 0.77954 0.71412 -0.18710
 H742 H 0.63520 0.70827 -0.23255
 H743 H 0.60128 0.67554 -0.19627
 H744 H 0.71747 0.65947 -0.11160
 H745 H 0.68390 0.62585 -0.07584
 H746 H 0.57371 0.64320 -0.16702
 H747 H 0.54339 0.60737 -0.13040
 H748 H 0.63177 0.59761 -0.06328
 C749 C 0.82930 -0.18964 -0.22832
 C750 C 0.82629 -0.18193 -0.19246
 C751 C 0.79863 -0.19580 -0.17435
 C752 C 0.77648 -0.21794 -0.19106
 C753 C 0.78170 -0.22772 -0.22586
 C754 C 0.80726 -0.21173 -0.24458
 C755 C 0.79317 -0.18766 -0.13952
 C756 C 0.81476 -0.16625 -0.12196
 C757 C 0.84320 -0.15228 -0.13847
 C758 C 0.84937 -0.16064 -0.17417
 C759 C 0.87876 -0.14796 -0.19019
 C760 C 0.90092 -0.12721 -0.17238
 C761 C 0.89477 -0.11808 -0.13798
 C762 C 0.86584 -0.13038 -0.12044
 C763 C 0.86072 -0.11995 -0.08561
 C764 C 0.88314 -0.09820 -0.06929
 C765 C 0.91150 -0.08614 -0.08685
 C766 C 0.91737 -0.09642 -0.12110
 H767 H 0.84819 -0.17885 -0.24475
 H768 H 0.75507 -0.22728 -0.17668
 H769 H 0.81070 -0.21702 -0.27205
 H770 H 0.77195 -0.19807 -0.12555
 H771 H 0.80863 -0.16159 -0.09509
 H772 H 0.88581 -0.15404 -0.21648
 H773 H 0.92312 -0.11811 -0.18582
 H774 H 0.83939 -0.12766 -0.07028
 H775 H 0.87801 -0.09060 -0.04277
 H776 H 0.93922 -0.08707 -0.13495
 C777 C 0.79256 0.26638 0.31813
 C778 C 0.80378 0.29696 0.30817
 C779 C 0.79632 0.30664 0.27363
 C780 C 0.77545 0.28766 0.25142
 C781 C 0.76207 0.25798 0.26213
 C782 C 0.77317 0.24711 0.29530
 C783 C 0.81017 0.33507 0.26116
 C784 C 0.83181 0.35383 0.28213
 C785 C 0.83920 0.34553 0.31708
 C786 C 0.82336 0.31760 0.33085
 C787 C 0.82658 0.31180 0.36702
 C788 C 0.84526 0.33232 0.38894
 C789 C 0.86266 0.35855 0.37546
 C790 C 0.86093 0.36487 0.33913
 C791 C 0.88138 0.39009 0.32632
 C792 C 0.90118 0.40920 0.34901
 C793 C 0.90076 0.40417 0.38506
 C794 C 0.88170 0.37867 0.39817
 H795 H 0.79997 0.25602 0.34278
 H796 H 0.77080 0.29613 0.22539
 H797 H 0.76791 0.22303 0.30364
 H798 H 0.80463 0.34271 0.23470
 H799 H 0.84125 0.37551 0.27065
 H800 H 0.81353 0.29225 0.37941
 H801 H 0.84639 0.32740 0.41669
 H802 H 0.88312 0.39522 0.29885
 H803 H 0.91615 0.42859 0.33835
 H804 H 0.88195 0.37434 0.42607
 C805 C 0.30796 -0.23735 0.32793
 C806 C 0.30677 -0.20375 0.33106
 C807 C 0.28259 -0.18778 0.30984
 C808 C 0.26084 -0.20480 0.28659
 C809 C 0.26400 -0.23815 0.28107
 C810 C 0.28700 -0.25398 0.30385
 C811 C 0.28028 -0.15463 0.31153
 C812 C 0.30275 -0.13670 0.33237
 C813 C 0.32811 -0.15131 0.35318
 C814 C 0.32891 -0.18542 0.35406
 C815 C 0.35170 -0.19992 0.37796
 C816 C 0.37372 -0.18181 0.39933
 C817 C 0.37488 -0.14863 0.39695
 C818 C 0.35247 -0.13290 0.37341
 C819 C 0.35622 -0.09941 0.37023
 C820 C 0.38094 -0.08246 0.38973
 C821 C 0.40236 -0.09800 0.41355
 C822 C 0.39892 -0.13109 0.41741
 H823 H 0.32553 -0.25153 0.34299
 H824 H 0.24153 -0.19130 0.27294
 H825 H 0.28954 -0.27965 0.30217
 H826 H 0.26138 -0.14224 0.29585
 H827 H 0.29911 -0.11127 0.33212
 H828 H 0.35276 -0.22538 0.38123
 H829 H 0.39065 -0.19403 0.41735
 H830 H 0.34133 -0.08572 0.35193
 H831 H 0.38338 -0.05695 0.38606
 H832 H 0.41590 -0.14338 0.43532
 C833 C 0.33577 0.29122 -0.22296
 C834 C 0.32285 0.31504 -0.20054
 C835 C 0.28692 0.31671 -0.19713
 C836 C 0.26513 0.29688 -0.21736
 C837 C 0.27807 0.27428 -0.24105
 C838 C 0.31386 0.27098 -0.24226
 C839 C 0.27281 0.33806 -0.17339
 C840 C 0.29364 0.35745 -0.15232
 C841 C 0.32960 0.35700 -0.15499
 C842 C 0.34433 0.33659 -0.18070
 C843 C 0.37985 0.33905 -0.18639
 C844 C 0.40043 0.36022 -0.16709
 C845 C 0.38673 0.37895 -0.14057
 C846 C 0.35127 0.37696 -0.13348
 C847 C 0.33905 0.39473 -0.10474
 C848 C 0.36087 0.41456 -0.08497
 C849 C 0.39545 0.41770 -0.09326
 C850 C 0.40832 0.39971 -0.12101
 H851 H 0.36276 0.28681 -0.22513
 H852 H 0.23767 0.29886 -0.21467
 H853 H 0.32551 0.25232 -0.25746
 H854 H 0.24531 0.33956 -0.17077
 H855 H 0.28064 0.37346 -0.13496
 H856 H 0.39236 0.32568 -0.20659
 H857 H 0.42746 0.36168 -0.17276
 H858 H 0.31292 0.39331 -0.09635
 H859 H 0.35040 0.42791 -0.06333
 H860 H 0.43524 0.40157 -0.12713
 C861 C 1.16353 -0.21832 0.21334
 C862 C 1.17813 -0.19400 0.19298
 C863 C 1.21419 -0.19266 0.19117
 C864 C 1.23449 -0.21303 0.21154
 C865 C 1.21999 -0.23589 0.23423
 C866 C 1.18386 -0.23910 0.23276
 C867 C 1.22993 -0.17096 0.16903
 C868 C 1.21059 -0.15072 0.14825
 C869 C 1.17453 -0.15059 0.14973
 C870 C 1.15815 -0.17157 0.17365
 C871 C 1.12257 -0.16870 0.17835
 C872 C 1.10349 -0.14651 0.15983
 C873 C 1.11879 -0.12708 0.13502
 C874 C 1.15436 -0.12948 0.12887
 C875 C 1.16817 -0.11087 0.10174
 C876 C 1.14776 -0.08996 0.08264
 C877 C 1.11308 -0.08646 0.09011
 C878 C 1.09868 -0.10519 0.11629
 H879 H 1.13632 -0.22272 0.21372
 H880 H 1.26211 -0.21088 0.21020
 H881 H 1.17048 -0.25804 0.24586
 H882 H 1.25757 -0.16975 0.16751
 H883 H 1.22481 -0.13450 0.13218
 H884 H 1.10889 -0.18251 0.19731
 H885 H 1.07636 -0.14477 0.16479
 H886 H 1.19450 -0.11243 0.09409
 H887 H 1.15942 -0.07603 0.06222
 H888 H 1.07167 -0.10306 0.12175
 C889 C 1.17554 0.27342 0.67881
 C890 C 1.17962 0.30656 0.67366
 C891 C 1.20988 0.32133 0.68702
 C892 C 1.23300 0.30423 0.70787
 C893 C 1.22721 0.27183 0.71565
 C894 C 1.19942 0.25637 0.69849
 C895 C 1.21704 0.35315 0.67948
 C896 C 1.19491 0.37066 0.65865
 C897 C 1.16388 0.35732 0.64568
 C898 C 1.15527 0.32531 0.65488
 C899 C 1.12220 0.31357 0.64623
 C900 C 1.09848 0.33237 0.62869
 C901 C 1.10731 0.36293 0.61757
 C902 C 1.14062 0.37534 0.62478
 C903 C 1.14954 0.40510 0.61020
 C904 C 1.12590 0.42225 0.59052
 C905 C 1.09249 0.41079 0.58537
 C906 C 1.08319 0.38114 0.59897
 H907 H 1.15467 0.25990 0.66703
 H908 H 1.25595 0.31638 0.71724
 H909 H 1.19563 0.23090 0.70129
 H910 H 1.24018 0.36463 0.68959
 H911 H 1.20210 0.39520 0.65448
 H912 H 1.11343 0.29030 0.65415
 H913 H 1.07311 0.32267 0.62330
 H914 H 1.17490 0.41530 0.61262
 H915 H 1.13365 0.44494 0.57969
 H916 H 1.05750 0.37191 0.59421
 C917 C 0.72407 -0.21265 0.67069
 C918 C 0.69885 -0.19207 0.68381
 C919 C 0.69493 -0.19053 0.72049
 C920 C 0.71361 -0.21078 0.74253
 C921 C 0.73724 -0.23272 0.72913
 C922 C 0.74328 -0.23195 0.69293
 C923 C 0.67261 -0.16856 0.73507
 C924 C 0.65435 -0.14770 0.71404
 C925 C 0.65676 -0.14878 0.67726
 C926 C 0.67819 -0.17233 0.66188
 C927 C 0.67745 -0.17607 0.62516
 C928 C 0.65691 -0.15713 0.60411
 C929 C 0.63716 -0.13304 0.61859
 C930 C 0.63757 -0.12783 0.65529
 C931 C 0.61887 -0.10168 0.66837
 C932 C 0.59930 -0.08270 0.64607
 C933 C 0.59739 -0.08927 0.61016
 C934 C 0.61671 -0.11426 0.59653
 H935 H 0.73064 -0.21334 0.64344
 H936 H 0.71004 -0.20935 0.77054
 H937 H 0.76357 -0.24552 0.68136
 H938 H 0.66948 -0.16723 0.76315
 H939 H 0.63748 -0.13169 0.72739
 H940 H 0.69150 -0.19443 0.61195
 H941 H 0.65663 -0.16132 0.57610
 H942 H 0.61921 -0.09498 0.69563
 H943 H 0.58491 -0.06324 0.65716
 H944 H 0.61584 -0.11910 0.56864
 C945 C 0.65808 0.28180 0.20891
 C946 C 0.66884 0.30018 0.18037
 C947 C 0.70242 0.29532 0.16840
 C948 C 0.72463 0.27442 0.18585
 C949 C 0.71453 0.25722 0.21566
 C950 C 0.68023 0.26096 0.22593
 C951 C 0.71396 0.31164 0.13923
 C952 C 0.69293 0.33283 0.12165
 C953 C 0.65944 0.33912 0.13299
 C954 C 0.64745 0.32304 0.16332
 C955 C 0.61494 0.33103 0.17619
 C956 C 0.59475 0.35380 0.16001
 C957 C 0.60571 0.36918 0.13001
 C958 C 0.63788 0.36161 0.11560
 C959 C 0.64711 0.37698 0.08432
 C960 C 0.62601 0.39971 0.06905
 C961 C 0.59495 0.40804 0.08420
 C962 C 0.58473 0.39238 0.11450
 H963 H 0.63242 0.28260 0.21865
 H964 H 0.75040 0.27204 0.17628
 H965 H 0.66935 0.24805 0.24718
 H966 H 0.73966 0.30805 0.12986
 H967 H 0.70419 0.34462 0.09972
 H968 H 0.60462 0.32077 0.19950
 H969 H 0.57023 0.35946 0.17120
 H970 H 0.67033 0.37187 0.07071
 H971 H 0.63436 0.41110 0.04534
 H972 H 0.56052 0.39836 0.12617
 C973 C 0.77744 0.19244 0.15567
 C974 C 0.81165 0.18628 0.16593
 C975 C 0.82231 0.19632 0.19981
 C976 C 0.79986 0.21251 0.22182
 C977 C 0.76610 0.21960 0.21113
 C978 C 0.75524 0.20840 0.17787
 C979 C 0.85527 0.18976 0.21201
 C980 C 0.87780 0.17262 0.19168
 C981 C 0.86839 0.16160 0.15788
 C982 C 0.83520 0.16956 0.14432
 C983 C 0.82667 0.16056 0.10961
 C984 C 0.84884 0.14284 0.08949
 C985 C 0.88032 0.13322 0.10307
 C986 C 0.89088 0.14266 0.13727
 C987 C 0.92316 0.13190 0.14960
 C988 C 0.94327 0.11187 0.12917
 C989 C 0.93206 0.10207 0.09586
 C990 C 0.90094 0.11350 0.08271
 H991 H 0.76657 0.18437 0.13106
 H992 H 0.80906 0.21894 0.24771
 H993 H 0.72897 0.21125 0.16922
 H994 H 0.86365 0.19761 0.23787
 H995 H 0.90262 0.16858 0.20327
 H996 H 0.80297 0.16705 0.09698
 H997 H 0.84094 0.13610 0.06312
 H998 H 0.93325 0.13769 0.17525
 H999 H 0.96727 0.10337 0.13989
 H1000 H 0.89208 0.10618 0.05682
 C1001 C 0.83427 0.69293 0.72914
 C1002 C 0.81988 0.67359 0.70213
 C1003 C 0.78473 0.67758 0.69394
 C1004 C 0.76531 0.70026 0.71193
 C1005 C 0.78063 0.72143 0.73646
 C1006 C 0.81500 0.71600 0.74604
 C1007 C 0.76917 0.65925 0.66745
 C1008 C 0.78803 0.63796 0.64777
 C1009 C 0.82334 0.63367 0.65424
 C1010 C 0.83917 0.65073 0.68287
 C1011 C 0.87373 0.64437 0.69126
 C1012 C 0.89247 0.62279 0.67188
 C1013 C 0.87793 0.60720 0.64288
 C1014 C 0.84330 0.61264 0.63328
 C1015 C 0.83037 0.59724 0.60263
 C1016 C 0.85081 0.57692 0.58302
 C1017 C 0.88465 0.57105 0.59328
 C1018 C 0.89805 0.58630 0.62325
 H1019 H 0.86055 0.69129 0.73767
 H1020 H 0.73826 0.70240 0.70582
 H1021 H 0.82744 0.72934 0.76705
 H1022 H 0.74217 0.66186 0.66137
 H1023 H 0.77395 0.62479 0.62786
 H1024 H 0.88715 0.65537 0.71307
 H1025 H 0.91888 0.61862 0.67944
 H1026 H 0.80482 0.60084 0.59263
 H1027 H 0.83992 0.56561 0.55976
 H1028 H 0.92439 0.58218 0.63114
 C1029 C 0.30859 0.22527 0.66186
 C1030 C 0.30766 0.19160 0.66366
 C1031 C 0.28641 0.17763 0.68906
 C1032 C 0.26720 0.19674 0.71158
 C1033 C 0.27068 0.23026 0.71178
 C1034 C 0.29038 0.24402 0.68528
 C1035 C 0.28491 0.14456 0.69246
 C1036 C 0.30576 0.12501 0.67279
 C1037 C 0.32837 0.13781 0.64809
 C1038 C 0.32770 0.17140 0.64185
 C1039 C 0.34713 0.18361 0.61414
 C1040 C 0.36794 0.16402 0.59444
 C1041 C 0.37107 0.13176 0.60219
 C1042 C 0.35159 0.11814 0.62929
 C1043 C 0.35721 0.08567 0.63735
 C1044 C 0.38122 0.06775 0.61926
 C1045 C 0.39994 0.08133 0.59226
 C1046 C 0.39432 0.11320 0.58347
 H1047 H 0.32414 0.23800 0.64356
 H1048 H 0.24996 0.18497 0.72920
 H1049 H 0.29265 0.26971 0.68349
 H1050 H 0.26819 0.13366 0.71138
 H1051 H 0.30319 0.09976 0.67717
 H1052 H 0.34645 0.20828 0.60660
 H1053 H 0.38249 0.17449 0.57348
 H1054 H 0.34447 0.07375 0.65836
 H1055 H 0.38534 0.04320 0.62664
 H1056 H 0.40910 0.12402 0.56289
 C1057 C 0.26596 0.69049 0.17769
 C1058 C 0.30202 0.68943 0.17913
 C1059 C 0.31906 0.70862 0.20474
 C1060 C 0.30049 0.72797 0.22781
 C1061 C 0.26425 0.72663 0.22862
 C1062 C 0.24774 0.70856 0.20165
 C1063 C 0.35467 0.70785 0.20784
 C1064 C 0.37363 0.68701 0.18758
 C1065 C 0.35774 0.66670 0.16240
 C1066 C 0.32162 0.66935 0.15669
 C1067 C 0.30630 0.65182 0.12878
 C1068 C 0.32517 0.63119 0.10832
 C1069 C 0.35984 0.62651 0.11528
 C1070 C 0.37672 0.64395 0.14254
 C1071 C 0.41161 0.63706 0.14939
 C1072 C 0.42874 0.61393 0.12991
 C1073 C 0.41191 0.59724 0.10272
 C1074 C 0.37755 0.60397 0.09534
 H1075 H 0.25078 0.67652 0.15935
 H1076 H 0.31497 0.74347 0.24536
 H1077 H 0.22006 0.70731 0.20008
 H1078 H 0.36803 0.72281 0.22701
 H1079 H 0.40092 0.68770 0.19189
 H1080 H 0.27969 0.65388 0.12160
 H1081 H 0.31224 0.61821 0.08724
 H1082 H 0.42610 0.64842 0.17032
 H1083 H 0.45525 0.60903 0.13624
 H1084 H 0.36416 0.59093 0.07459
   
