data_POSCAR
  _audit_creation_date              2014-09-24
  _audit_creation_method            'ToBaCCo'
  _symmetry_space_group_name_H-M    'P1'
  _symmetry_Int_Tables_number       1
  _symmetry_cell_setting            triclinic
  loop_
  _symmetry_equiv_pos_as_xyz
 x,y,z
_cell_length_a 45.2248
_cell_length_b 42.8756
_cell_length_c 44.8163
_cell_angle_alpha 89.506400
_cell_angle_beta 90.306500
_cell_angle_gamma 89.868900
loop_
  _atom_site_label
  _atom_site_type_symbol
  _atom_site_fract_x
  _atom_site_fract_y
  _atom_site_fract_z
N1 N 0.19550 1.25397 0.17205
 N2 N 0.17558 1.25606 0.19323
 C3 C 0.15639 1.27912 0.18618
 C4 C 0.16505 1.29208 0.15935
 C5 C 0.18975 1.27561 0.15084
 H6 H 0.13691 1.28505 0.19885
 H7 H 0.20170 1.27812 0.13012
 Cu8 Cu 0.17519 1.22711 0.22691
 Cu9 Cu 0.22536 1.22126 0.17181
 Cu10 Cu 0.22114 1.16496 0.22733
 N11 N 0.17123 1.19333 0.25586
 N12 N 0.18936 1.16929 0.25610
 C13 C 0.18090 1.14895 0.27745
 C14 C 0.15630 1.16105 0.29121
 C15 C 0.15054 1.18910 0.27704
 H16 H 0.19119 1.12658 0.28190
 H17 H 0.13218 1.20468 0.28114
 N18 N 0.25181 1.16465 0.19628
 N19 N 0.25351 1.18632 0.17523
 C20 C 0.27540 1.17880 0.15633
 C21 C 0.28796 1.15123 0.16604
 C22 C 0.27260 1.14274 0.19130
 H23 H 0.28094 1.19159 0.13624
 H24 H 0.27555 1.12156 0.20425
 H25 H 0.19899 1.18965 0.19429
 H26 H 0.22637 1.21175 0.21720
 N27 N 0.80652 0.74432 0.17127
 N28 N 0.82812 0.74481 0.19107
 C29 C 0.84815 0.72272 0.18414
 C30 C 0.83834 0.70769 0.15888
 C31 C 0.81201 0.72191 0.15119
 H32 H 0.86885 0.71870 0.19576
 H33 H 0.79855 0.71721 0.13172
 Cu34 Cu 0.82880 0.77607 0.22232
 Cu35 Cu 0.77435 0.77464 0.17118
 Cu36 Cu 0.77539 0.83019 0.22701
 N37 N 0.82939 0.80729 0.25361
 N38 N 0.80813 0.82820 0.25541
 C39 C 0.81444 0.84814 0.27758
 C40 C 0.84095 0.83912 0.29025
 C41 C 0.85005 0.81330 0.27458
 H42 H 0.80142 0.86844 0.28317
 H43 H 0.87066 0.80074 0.27745
 N44 N 0.74419 0.82840 0.19619
 N45 N 0.74382 0.80727 0.17490
 C46 C 0.72143 0.81384 0.15587
 C47 C 0.70718 0.84018 0.16578
 C48 C 0.72207 0.84895 0.19124
 H49 H 0.71679 0.80146 0.13546
 H50 H 0.71805 0.86969 0.20417
 H51 H 0.79749 0.81005 0.19173
 H52 H 0.77566 0.78345 0.21627
 N53 N 0.81101 1.24856 -0.17137
 N54 N 0.83201 1.24528 -0.19130
 C55 C 0.85380 1.26580 -0.18554
 C56 C 0.84581 1.28274 -0.16085
 C57 C 0.81866 1.27131 -0.15230
 H58 H 0.87444 1.26742 -0.19751
 H59 H 0.80610 1.27808 -0.13293
 Cu60 Cu 0.82982 1.21263 -0.22107
 Cu61 Cu 0.77687 1.22091 -0.16962
 Cu62 Cu 0.77318 1.16228 -0.22253
 N63 N 0.82763 1.17999 -0.25081
 N64 N 0.80533 1.16033 -0.25132
 C65 C 0.80995 1.13910 -0.27282
 C66 C 0.83646 1.14606 -0.28635
 C67 C 0.84725 1.17193 -0.27193
 H68 H 0.79565 1.11954 -0.27752
 H69 H 0.86825 1.18324 -0.27583
 N70 N 0.74284 1.16816 -0.19155
 N71 N 0.74418 1.19057 -0.17152
 C72 C 0.72186 1.18682 -0.15201
 C73 C 0.70582 1.16100 -0.16029
 C74 C 0.71963 1.14960 -0.18527
 H75 H 0.71848 1.20067 -0.13226
 H76 H 0.71413 1.12838 -0.19690
 H77 H 0.79724 1.18269 -0.18857
 H78 H 0.77648 1.20938 -0.21428
 N79 N 0.19349 0.75328 -0.17244
 N80 N 0.17083 0.75739 -0.19062
 C81 C 0.14837 0.73905 -0.18165
 C82 C 0.15764 0.72260 -0.15674
 C83 C 0.18632 0.73202 -0.15141
 H84 H 0.12683 0.73794 -0.19218
 H85 H 0.20072 0.72439 -0.13341
 Cu86 Cu 0.17315 0.78673 -0.22383
 Cu87 Cu 0.23048 0.77604 -0.17745
 Cu88 Cu 0.22625 0.84043 -0.22509
 N89 N 0.17699 0.81524 -0.25758
 N90 N 0.19800 0.83643 -0.25788
 C91 C 0.19386 0.85562 -0.28149
 C92 C 0.16914 0.84564 -0.29678
 C93 C 0.15881 0.82015 -0.28106
 H94 H 0.20669 0.87640 -0.28601
 H95 H 0.13852 0.80758 -0.28525
 N96 N 0.25877 0.83392 -0.19625
 N97 N 0.26065 0.80921 -0.17850
 C98 C 0.28407 0.81261 -0.16009
 C99 C 0.29752 0.84059 -0.16687
 C100 C 0.28102 0.85357 -0.18974
 H101 H 0.28981 0.79684 -0.14199
 H102 H 0.28415 0.87633 -0.19981
 H103 H 0.20694 0.81410 -0.19073
 H104 H 0.22665 0.79350 -0.22126
 C105 C 0.46830 0.98230 -0.01935
 C106 C 0.48250 1.00016 0.00247
 C107 C 0.46577 1.01622 0.02362
 C108 C 0.43476 1.01471 0.02308
 C109 C 0.42075 0.99670 0.00111
 C110 C 0.43732 0.98038 -0.02017
 C111 C 0.51494 1.00182 0.00345
 C112 C 0.53006 1.02174 -0.01614
 C113 C 0.56100 1.02417 -0.01463
 C114 C 0.57659 1.00590 0.00640
 C115 C 0.56168 0.98563 0.02597
 C116 C 0.53071 0.98389 0.02443
 H117 H 0.48142 0.97005 -0.03569
 H118 H 0.47698 1.02971 0.04058
 H119 H 0.51763 1.03581 -0.03204
 H120 H 0.51878 0.96875 0.03963
 H121 H 0.39684 0.99539 0.00055
 H122 H 0.60053 1.00682 0.00697
 C123 C -0.01495 0.46582 0.97651
 C124 C 0.00311 0.48326 0.99556
 C125 C 0.02397 0.46819 1.01387
 C126 C 0.02684 0.43557 1.01339
 C127 C 0.00866 0.41831 0.99410
 C128 C -0.01226 0.43320 0.97553
 C129 C 0.00046 0.51742 0.99593
 C130 C -0.02064 0.53174 1.01408
 C131 C -0.02351 0.56436 1.01418
 C132 C -0.00503 0.58240 0.99579
 C133 C 0.01620 0.56828 0.97750
 C134 C 0.01884 0.53564 0.97779
 H135 H -0.03074 0.47778 0.96216
 H136 H 0.03809 0.48193 1.02827
 H137 H -0.03493 0.51745 1.02787
 H138 H 0.03483 0.52428 0.96358
 H139 H 0.01019 0.39309 0.99420
 H140 H -0.00658 0.60760 0.99639
 C141 C 0.97634 -0.01726 0.46727
 C142 C 0.99635 0.00141 0.48303
 C143 C 1.01508 0.02183 0.46754
 C144 C 1.01373 0.02396 0.43627
 C145 C 0.99371 0.00498 0.42073
 C146 C 0.97497 -0.01574 0.43598
 C147 C 0.99748 -0.00018 0.51581
 C148 C 1.02039 -0.01650 0.53025
 C149 C 1.02164 -0.01803 0.56155
 C150 C 0.99972 -0.00283 0.57818
 C151 C 0.97671 0.01372 0.56395
 C152 C 0.97570 0.01480 0.53262
 H153 H 0.96180 -0.03283 0.47943
 H154 H 1.03020 0.03648 0.47994
 H155 H 1.03726 -0.02782 0.51708
 H156 H 0.95799 0.02721 0.52123
 H157 H 0.99331 0.00570 0.39656
 H158 H 1.00063 -0.00382 0.60232
 C159 C 0.08406 0.37760 1.04187
 C160 C 0.08670 0.38619 1.07181
 C161 C 0.07063 0.41170 1.08243
 C162 C 0.05159 0.42822 1.06329
 C163 C 0.14975 0.31316 1.14244
 C164 C 0.06501 0.39402 1.02273
 C165 C 0.10472 0.36771 1.09182
 C166 C 0.11932 0.35133 1.10822
 C167 C 0.13592 0.33116 1.12694
 C168 C 0.04832 0.41931 1.03331
 H169 H 0.09638 0.35789 1.03341
 H170 H 0.07239 0.41845 1.10561
 H171 H 0.03876 0.44735 1.07215
 H172 H 0.06324 0.38687 0.99968
 C173 C -0.08082 0.62156 1.04212
 C174 C -0.08333 0.61247 1.07205
 C175 C -0.06738 0.58665 1.08277
 C176 C -0.04850 0.57037 1.06374
 C177 C -0.14569 0.68529 1.14156
 C178 C -0.06194 0.60539 1.02311
 C179 C -0.10114 0.63075 1.09191
 C180 C -0.11559 0.64706 1.10808
 C181 C -0.13201 0.66724 1.12642
 C182 C -0.04525 0.57989 1.03382
 H183 H -0.09307 0.64150 1.03358
 H184 H -0.06905 0.57952 1.10595
 H185 H -0.03571 0.55101 1.07266
 H186 H -0.06018 0.61298 1.00008
 C187 C -0.07980 0.40368 0.93385
 C188 C -0.06800 0.37824 0.91855
 C189 C -0.03791 0.37108 0.92145
 C190 C -0.01972 0.38913 0.93973
 C191 C -0.13614 0.30451 0.85518
 C192 C -0.06164 0.42178 0.95214
 C193 C -0.08687 0.35893 0.90056
 C194 C -0.10257 0.34228 0.88585
 C195 C -0.12078 0.32220 0.86909
 C196 C -0.03142 0.41459 0.95543
 H197 H -0.10310 0.40931 0.93190
 H198 H -0.02854 0.35143 0.90972
 H199 H 0.00354 0.38330 0.94147
 H200 H -0.07135 0.44101 0.96418
 C201 C 0.08449 0.59975 0.93869
 C202 C 0.07292 0.62587 0.92371
 C203 C 0.04275 0.63278 0.92580
 C204 C 0.02425 0.61386 0.94301
 C205 C 0.14040 0.70111 0.86067
 C206 C 0.06601 0.58076 0.95592
 C207 C 0.09196 0.64585 0.90646
 C208 C 0.10760 0.66295 0.89206
 C209 C 0.12550 0.68337 0.87517
 C210 C 0.03571 0.58774 0.95843
 H211 H 0.10782 0.59422 0.93727
 H212 H 0.03353 0.65288 0.91422
 H213 H 0.00094 0.61956 0.94416
 H214 H 0.07552 0.56102 0.96778
 C215 C 1.04077 0.08199 0.37832
 C216 C 1.07074 0.08437 0.38580
 C217 C 1.08192 0.06798 0.41058
 C218 C 1.06328 0.04878 0.42745
 C219 C 1.13930 0.14651 0.31201
 C220 C 1.02215 0.06281 0.39508
 C221 C 1.09013 0.10232 0.36698
 C222 C 1.10594 0.11679 0.35033
 C223 C 1.12406 0.13310 0.32998
 C224 C 1.03326 0.04568 0.41962
 H225 H 1.03188 0.09460 0.35921
 H226 H 1.10511 0.06956 0.41651
 H227 H 1.07250 0.03566 0.44605
 H228 H 0.99906 0.06126 0.38877
 C229 C 1.07484 -0.08311 0.58314
 C230 C 1.08769 -0.07110 0.60910
 C231 C 1.08003 -0.04118 0.61864
 C232 C 1.05911 -0.02360 0.60274
 C233 C 1.15418 -0.13823 0.68166
 C234 C 1.05391 -0.06551 0.56715
 C235 C 1.10725 -0.09003 0.62713
 C236 C 1.12284 -0.10561 0.64331
 C237 C 1.14017 -0.12345 0.66345
 C238 C 1.04548 -0.03576 0.57707
 H239 H 1.08048 -0.10632 0.57565
 H240 H 1.08982 -0.03166 0.63871
 H241 H 1.05339 -0.00058 0.61066
 H242 H 1.04360 -0.07556 0.54762
 C243 C 0.93367 -0.08731 0.40919
 C244 C 0.91866 -0.07528 0.38421
 C245 C 0.92113 -0.04361 0.37691
 C246 C 0.93890 -0.02411 0.39416
 C247 C 0.85675 -0.14484 0.31091
 C248 C 0.95146 -0.06780 0.42654
 C249 C 0.90146 -0.09541 0.36538
 C250 C 0.88725 -0.11165 0.34885
 C251 C 0.87076 -0.12992 0.32872
 C252 C 0.95453 -0.03606 0.41897
 H253 H 0.93202 -0.11184 0.41495
 H254 H 0.90961 -0.03406 0.35762
 H255 H 0.94053 0.00030 0.38803
 H256 H 0.96348 -0.07772 0.44532
 C257 C 0.92538 0.07714 0.59179
 C258 C 0.91444 0.06348 0.61796
 C259 C 0.92290 0.03309 0.62584
 C260 C 0.94264 0.01661 0.60795
 C261 C 0.85084 0.12894 0.69285
 C262 C 0.94511 0.06069 0.57384
 C263 C 0.89581 0.08118 0.63753
 C264 C 0.88091 0.09616 0.65445
 C265 C 0.86430 0.11381 0.67487
 C266 C 0.95425 0.03038 0.58192
 H267 H 0.91911 0.10073 0.58558
 H268 H 0.91458 0.02230 0.64606
 H269 H 0.94895 -0.00684 0.61454
 H270 H 0.95391 0.07203 0.55413
 C271 C 0.40676 1.07983 0.07241
 C272 C 0.38143 1.06626 0.08468
 C273 C 0.37407 1.03550 0.07764
 C274 C 0.39171 1.01852 0.05804
 C275 C 0.30928 1.13286 0.15028
 C276 C 0.42445 1.06289 0.05281
 C277 C 0.36243 1.08426 0.10363
 C278 C 0.34614 1.09949 0.11896
 C279 C 0.32655 1.11746 0.13623
 C280 C 0.41692 1.03215 0.04513
 H281 H 0.41259 1.10367 0.07764
 H282 H 0.35453 1.02472 0.08704
 H283 H 0.38564 0.99472 0.05296
 H284 H 0.44356 1.07412 0.04305
 C285 C 0.61752 1.08207 -0.04348
 C286 C 0.61028 1.08363 -0.07384
 C287 C 0.58616 1.06668 -0.08474
 C288 C 0.56967 1.04780 -0.06540
 C289 C 0.68327 1.14570 -0.14313
 C290 C 0.60113 1.06322 -0.02416
 C291 C 0.62862 1.10147 -0.09380
 C292 C 0.64497 1.11593 -0.10993
 C293 C 0.66517 1.13228 -0.12814
 C294 C 0.57725 1.04555 -0.03496
 H295 H 0.63614 1.09511 -0.03480
 H296 H 0.58044 1.06760 -0.10823
 H297 H 0.55156 1.03428 -0.07441
 H298 H 0.60720 1.06238 -0.00076
 C299 C 0.38085 0.95348 -0.07714
 C300 C 0.39083 0.92328 -0.08315
 C301 C 0.41681 0.91218 -0.06962
 C302 C 0.43242 0.93102 -0.04965
 C303 C 0.32004 0.85607 -0.14985
 C304 C 0.39635 0.97229 -0.05719
 C305 C 0.37347 0.90348 -0.10216
 C306 C 0.35773 0.88763 -0.11761
 C307 C 0.33797 0.87009 -0.13521
 C308 C 0.42208 0.96112 -0.04290
 H309 H 0.36081 0.96233 -0.08754
 H310 H 0.42468 0.88880 -0.07406
 H311 H 0.45204 0.92171 -0.03881
 H312 H 0.38813 0.99554 -0.05280
 C313 C 0.58804 0.91560 0.07128
 C314 C 0.61264 0.92797 0.08606
 C315 C 0.61993 0.95942 0.08205
 C316 C 0.60302 0.97833 0.06296
 C317 C 0.68516 0.85801 0.14988
 C318 C 0.57106 0.93449 0.05218
 C319 C 0.63123 0.90823 0.10435
 C320 C 0.64752 0.89202 0.11919
 C321 C 0.66743 0.87345 0.13601
 C322 C 0.57858 0.96599 0.04754
 H323 H 0.58229 0.89124 0.07410
 H324 H 0.63892 0.96925 0.09339
 H325 H 0.60908 1.00260 0.06020
 H326 H 0.55255 0.92426 0.04039
   
