data_POSCAR
  _audit_creation_date              2014-09-24
  _audit_creation_method            'ToBaCCo'
  _symmetry_space_group_name_H-M    'P1'
  _symmetry_Int_Tables_number       1
  _symmetry_cell_setting            triclinic
  loop_
  _symmetry_equiv_pos_as_xyz
 x,y,z
_cell_length_a 14.9917
_cell_length_b 36.1421
_cell_length_c 31.9057
_cell_angle_alpha 90.000000
_cell_angle_beta 90.000000
_cell_angle_gamma 89.999700
loop_
  _atom_site_label
  _atom_site_type_symbol
  _atom_site_fract_x
  _atom_site_fract_y
  _atom_site_fract_z
B1 B -0.07265 -0.01844 0.02757
 B2 B 0.03535 -0.03012 0.03422
 B3 B -0.01755 -0.04018 -0.01120
 B4 B -0.08873 -0.00471 -0.02264
 B5 B -0.07810 0.02697 0.01614
 B6 B -0.00138 0.01107 0.05087
 B7 B 0.08467 0.02051 -0.02331
 B8 B -0.02306 0.03306 -0.02955
 B9 B 0.02902 0.04227 0.01610
 B10 B 0.10001 0.00732 0.02656
 B11 B 0.08923 -0.02480 -0.01189
 B12 B 0.01173 -0.00853 -0.04694
 B13 B 0.55094 0.48698 0.53998
 B14 B 0.43902 0.48478 0.53713
 B15 B 0.49029 0.52644 0.54053
 B16 B 0.58737 0.52427 0.51314
 B17 B 0.59427 0.48132 0.49179
 B18 B 0.50154 0.45703 0.50665
 B19 B 0.44597 0.51516 0.45950
 B20 B 0.55780 0.51704 0.46272
 B21 B 0.50619 0.47554 0.45920
 B22 B 0.40910 0.47773 0.48651
 B23 B 0.40219 0.52068 0.50786
 B24 B 0.49491 0.54497 0.49302
 B25 B 0.58467 0.02051 0.52331
 B26 B 0.47694 0.03306 0.52955
 B27 B 0.52902 0.04227 0.48390
 B28 B 0.60001 0.00732 0.47344
 B29 B 0.58923 -0.02480 0.51189
 B30 B 0.51173 -0.00853 0.54694
 B31 B 0.42735 -0.01844 0.47243
 B32 B 0.53535 -0.03012 0.46578
 B33 B 0.48245 -0.04018 0.51120
 B34 B 0.41127 -0.00471 0.52264
 B35 B 0.42190 0.02697 0.48386
 B36 B 0.49862 0.01107 0.44913
 B37 B -0.05403 0.51516 0.04050
 B38 B 0.05780 0.51704 0.03728
 B39 B 0.00619 0.47554 0.04080
 B40 B -0.09090 0.47773 0.01349
 B41 B -0.09781 0.52068 -0.00786
 B42 B -0.00509 0.54497 0.00698
 B43 B 0.05094 0.48698 -0.03998
 B44 B -0.06098 0.48478 -0.03713
 B45 B -0.00971 0.52644 -0.04053
 B46 B 0.08737 0.52427 -0.01314
 B47 B 0.09427 0.48132 0.00821
 B48 B 0.00154 0.45703 -0.00665
 B49 B 0.08466 0.48141 0.47669
 B50 B -0.02306 0.46886 0.47045
 B51 B 0.02900 0.45965 0.51610
 B52 B 0.09999 0.49460 0.52657
 B53 B 0.08922 0.52672 0.48812
 B54 B 0.01173 0.51045 0.45306
 B55 B -0.07267 0.52037 0.52757
 B56 B 0.03533 0.53204 0.53422
 B57 B -0.01756 0.54210 0.48880
 B58 B -0.08874 0.50663 0.47735
 B59 B -0.07812 0.47495 0.51614
 B60 B -0.00141 0.49085 0.55088
 B61 B 0.44596 -0.01324 -0.04050
 B62 B 0.55779 -0.01512 -0.03728
 B63 B 0.50618 0.02639 -0.04080
 B64 B 0.40909 0.02419 -0.01350
 B65 B 0.40218 -0.01876 0.00786
 B66 B 0.49490 -0.04305 -0.00698
 B67 B 0.55092 0.01494 0.03998
 B68 B 0.43900 0.01714 0.03712
 B69 B 0.49028 -0.02452 0.04053
 B70 B 0.58736 -0.02235 0.01314
 B71 B 0.59425 0.02060 -0.00821
 B72 B 0.50152 0.04489 0.00665
 B73 B 0.42733 0.52037 -0.02757
 B74 B 0.53533 0.53204 -0.03422
 B75 B 0.48244 0.54210 0.01120
 B76 B 0.41126 0.50663 0.02265
 B77 B 0.42188 0.47495 -0.01614
 B78 B 0.49859 0.49085 -0.05088
 B79 B 0.58466 0.48141 0.02331
 B80 B 0.47694 0.46886 0.02955
 B81 B 0.52900 0.45965 -0.01610
 B82 B 0.59999 0.49460 -0.02657
 B83 B 0.58922 0.52672 0.01188
 B84 B 0.51173 0.51045 0.04694
 B85 B 0.05092 0.01494 0.46002
 B86 B -0.06100 0.01714 0.46288
 B87 B -0.00972 -0.02452 0.45947
 B88 B 0.08736 -0.02235 0.48686
 B89 B 0.09425 0.02060 0.50821
 B90 B 0.00152 0.04489 0.49335
 B91 B -0.05404 -0.01324 0.54050
 B92 B 0.05779 -0.01512 0.53728
 B93 B 0.00618 0.02639 0.54080
 B94 B -0.09091 0.02419 0.51350
 B95 B -0.09782 -0.01876 0.49214
 B96 B -0.00510 -0.04305 0.50698
 B97 B 0.82360 0.28698 0.25786
 B98 B 0.71487 0.27907 0.26856
 B99 B 0.74638 0.29093 0.21930
 B100 B 0.84601 0.27088 0.20947
 B101 B 0.87455 0.24574 0.25258
 B102 B 0.79327 0.25153 0.28937
 B103 B 0.72047 0.21679 0.22186
 B104 B 0.82912 0.22508 0.21101
 B105 B 0.79730 0.21308 0.25994
 B106 B 0.69726 0.23308 0.27015
 B107 B 0.66773 0.25775 0.22652
 B108 B 0.74965 0.25225 0.19002
 B109 B 0.68451 0.78932 0.76127
 B110 B 0.65796 0.77739 0.71169
 B111 B 0.76528 0.78626 0.72488
 B112 B 0.78421 0.76999 0.77369
 B113 B 0.68691 0.75072 0.79077
 B114 B 0.60844 0.75599 0.75239
 B115 B 0.74335 0.71223 0.72176
 B116 B 0.76883 0.72380 0.77148
 B117 B 0.66106 0.71557 0.75813
 B118 B 0.64375 0.73159 0.70948
 B119 B 0.74097 0.75084 0.69249
 B120 B 0.81931 0.74581 0.73077
 B121 B 0.32358 0.21494 0.74213
 B122 B 0.21485 0.22286 0.73144
 B123 B 0.24636 0.21099 0.78070
 B124 B 0.34599 0.23104 0.79052
 B125 B 0.37454 0.25619 0.74742
 B126 B 0.29326 0.25039 0.71062
 B127 B 0.22046 0.28514 0.77814
 B128 B 0.32910 0.27684 0.78898
 B129 B 0.29728 0.28884 0.74006
 B130 B 0.19725 0.26885 0.72984
 B131 B 0.16771 0.24418 0.77347
 B132 B 0.24963 0.24967 0.80998
 B133 B 0.16107 0.78635 0.24187
 B134 B 0.26884 0.77812 0.22852
 B135 B 0.24337 0.78968 0.27825
 B136 B 0.14376 0.77034 0.29052
 B137 B 0.10844 0.74593 0.24761
 B138 B 0.18691 0.75120 0.20923
 B139 B 0.26528 0.71565 0.27512
 B140 B 0.15796 0.72453 0.28831
 B141 B 0.18451 0.71260 0.23873
 B142 B 0.28421 0.73193 0.22631
 B143 B 0.31932 0.75611 0.26923
 B144 B 0.24098 0.75108 0.30751
 B145 B 0.24335 0.71223 0.77824
 B146 B 0.26883 0.72380 0.72852
 B147 B 0.16106 0.71557 0.74187
 B148 B 0.14375 0.73159 0.79052
 B149 B 0.24097 0.75084 0.80751
 B150 B 0.31931 0.74581 0.76923
 B151 B 0.18451 0.78932 0.73873
 B152 B 0.15796 0.77739 0.78831
 B153 B 0.26528 0.78626 0.77512
 B154 B 0.28421 0.76999 0.72631
 B155 B 0.18691 0.75072 0.70923
 B156 B 0.10844 0.75599 0.74761
 B157 B 0.22047 0.21679 0.27814
 B158 B 0.32912 0.22508 0.28899
 B159 B 0.29730 0.21308 0.24006
 B160 B 0.19726 0.23308 0.22985
 B161 B 0.16773 0.25775 0.27348
 B162 B 0.24965 0.25225 0.30998
 B163 B 0.32360 0.28698 0.24214
 B164 B 0.21487 0.27907 0.23144
 B165 B 0.24638 0.29093 0.28070
 B166 B 0.34601 0.27088 0.29053
 B167 B 0.37455 0.24574 0.24742
 B168 B 0.29327 0.25153 0.21063
 B169 B 0.76528 0.71565 0.22488
 B170 B 0.65796 0.72453 0.21169
 B171 B 0.68451 0.71260 0.26127
 B172 B 0.78421 0.73193 0.27369
 B173 B 0.81932 0.75611 0.23077
 B174 B 0.74098 0.75108 0.19249
 B175 B 0.66107 0.78635 0.25813
 B176 B 0.76884 0.77812 0.27148
 B177 B 0.74337 0.78968 0.22175
 B178 B 0.64376 0.77034 0.20948
 B179 B 0.60844 0.74593 0.25239
 B180 B 0.68691 0.75120 0.29077
 B181 B 0.74636 0.21099 0.71930
 B182 B 0.71485 0.22286 0.76856
 B183 B 0.82358 0.21494 0.75787
 B184 B 0.84599 0.23104 0.70948
 B185 B 0.74963 0.24967 0.69002
 B186 B 0.66771 0.24418 0.72653
 B187 B 0.79728 0.28884 0.75994
 B188 B 0.82910 0.27684 0.71102
 B189 B 0.72046 0.28514 0.72186
 B190 B 0.69725 0.26885 0.77016
 B191 B 0.79326 0.25039 0.78938
 B192 B 0.87454 0.25619 0.75258
 C193 C 0.13396 0.40688 0.89299
 C194 C 0.12329 0.42046 0.85319
 C195 C 0.10694 0.45770 0.84518
 C196 C 0.09405 0.48116 0.87988
 C197 C 0.09954 0.46714 0.92139
 C198 C 0.12760 0.42997 0.92734
 O199 O 0.14503 0.37056 0.89456
 C200 C 0.14236 0.36084 0.85465
 C201 C 0.12988 0.39029 0.82799
 C202 C 0.12869 0.38620 0.78482
 C203 C 0.14930 0.35109 0.76884
 C204 C 0.16992 0.32096 0.79576
 C205 C 0.15637 0.32535 0.83920
 H206 H 0.09861 0.46785 0.81351
 H207 H 0.07282 0.50909 0.87392
 H208 H 0.13465 0.41778 0.95815
 H209 H 0.11815 0.40957 0.76419
 H210 H 0.15694 0.34848 0.73565
 H211 H 0.16262 0.30247 0.86077
 C212 C 0.36133 0.59537 0.39103
 C213 C 0.37232 0.58173 0.35126
 C214 C 0.39341 0.54499 0.34354
 C215 C 0.40922 0.52207 0.37833
 C216 C 0.39979 0.53547 0.42004
 C217 C 0.36975 0.57246 0.42571
 O218 O 0.34736 0.63155 0.39210
 C219 C 0.34820 0.64088 0.35198
 C220 C 0.36217 0.61143 0.32559
 C221 C 0.36152 0.61511 0.28226
 C222 C 0.33777 0.64980 0.26585
 C223 C 0.31665 0.67995 0.29262
 C224 C 0.33194 0.67602 0.33608
 H225 H 0.40392 0.53498 0.31195
 H226 H 0.43661 0.49538 0.37187
 H227 H 0.36167 0.58457 0.45650
 H228 H 0.37323 0.59167 0.26187
 H229 H 0.32918 0.65224 0.23254
 H230 H 0.32647 0.69907 0.35741
 C231 C 0.86133 0.90655 0.60897
 C232 C 0.87233 0.92019 0.64874
 C233 C 0.89342 0.95693 0.65646
 C234 C 0.90922 0.97984 0.62167
 C235 C 0.89979 0.96645 0.57996
 C236 C 0.86975 0.92946 0.57429
 O237 O 0.84737 0.87037 0.60790
 C238 C 0.84821 0.86104 0.64802
 C239 C 0.86218 0.89049 0.67441
 C240 C 0.86153 0.88681 0.71774
 C241 C 0.83778 0.85211 0.73415
 C242 C 0.81665 0.82197 0.70738
 C243 C 0.83194 0.82590 0.66392
 H244 H 0.90393 0.96693 0.68805
 H245 H 0.93662 1.00653 0.62813
 H246 H 0.86167 0.91735 0.54350
 H247 H 0.87325 0.91025 0.73813
 H248 H 0.82919 0.84968 0.76746
 H249 H 0.82647 0.80285 0.64259
 C250 C 0.63395 0.09505 0.10701
 C251 C 0.62327 0.08147 0.14681
 C252 C 0.60690 0.04422 0.15482
 C253 C 0.59401 0.02077 0.12013
 C254 C 0.59951 0.03479 0.07861
 C255 C 0.62758 0.07195 0.07266
 O256 O 0.64503 0.13136 0.10544
 C257 C 0.64236 0.14108 0.14535
 C258 C 0.62987 0.11164 0.17201
 C259 C 0.62867 0.11573 0.21517
 C260 C 0.64930 0.15084 0.23116
 C261 C 0.66993 0.18097 0.20424
 C262 C 0.65638 0.17657 0.16080
 H263 H 0.59856 0.03408 0.18649
 H264 H 0.57276 -0.00716 0.12609
 H265 H 0.63464 0.08414 0.04185
 H266 H 0.61812 0.09236 0.23580
 H267 H 0.65694 0.15345 0.26435
 H268 H 0.66264 0.19946 0.13923
 C269 C 0.85319 0.09625 0.39073
 C270 C 0.85702 0.07948 0.35217
 C271 C 0.86964 0.04174 0.34756
 C272 C 0.88447 0.02075 0.38389
 C273 C 0.88836 0.03746 0.42427
 C274 C 0.86740 0.07581 0.42742
 O275 O 0.84103 0.13261 0.38819
 C276 C 0.83794 0.13880 0.34712
 C277 C 0.84876 0.10731 0.32367
 C278 C 0.85224 0.10787 0.28010
 C279 C 0.84092 0.14210 0.25982
 C280 C 0.82360 0.17491 0.28307
 C281 C 0.82440 0.17293 0.32765
 H282 H 0.87194 0.02903 0.31685
 H283 H 0.90022 -0.00778 0.37918
 H284 H 0.86914 0.09013 0.45720
 H285 H 0.86265 0.08277 0.26226
 H286 H 0.84091 0.14241 0.22597
 H287 H 0.81275 0.19700 0.34703
 C288 C 0.35319 0.40567 0.60927
 C289 C 0.35703 0.42244 0.64783
 C290 C 0.36968 0.46018 0.65245
 C291 C 0.38452 0.48117 0.61611
 C292 C 0.38839 0.46446 0.57573
 C293 C 0.36740 0.42611 0.57258
 O294 O 0.34101 0.36932 0.61180
 C295 C 0.33793 0.36312 0.65288
 C296 C 0.34877 0.39461 0.67633
 C297 C 0.35226 0.39405 0.71990
 C298 C 0.34092 0.35982 0.74017
 C299 C 0.32359 0.32702 0.71693
 C300 C 0.32438 0.32899 0.67235
 H301 H 0.37200 0.47289 0.68315
 H302 H 0.40029 0.50970 0.62083
 H303 H 0.36913 0.41179 0.54280
 H304 H 0.36268 0.41915 0.73774
 H305 H 0.34092 0.35951 0.77403
 H306 H 0.31272 0.30493 0.65296
 C307 C 0.64102 0.90641 0.89103
 C308 C 0.63909 0.92350 0.85261
 C309 C 0.63164 0.96159 0.84837
 C310 C 0.61883 0.98251 0.88498
 C311 C 0.61052 0.96514 0.92482
 C312 C 0.62855 0.92664 0.92773
 O313 O 0.64796 0.86992 0.88843
 C314 C 0.64940 0.86385 0.84744
 C315 C 0.64281 0.89559 0.82403
 C316 C 0.63816 0.89508 0.78048
 C317 C 0.64464 0.86059 0.76029
 C318 C 0.65801 0.82754 0.78369
 C319 C 0.65740 0.82952 0.82814
 H320 H 0.63171 0.97462 0.81783
 H321 H 0.60828 1.01164 0.88110
 H322 H 0.62447 0.91197 0.95725
 H323 H 0.63109 0.92037 0.76263
 H324 H 0.64508 0.86022 0.72644
 H325 H 0.66616 0.80532 0.84764
 C326 C 0.14102 0.59551 0.10897
 C327 C 0.13908 0.57842 0.14740
 C328 C 0.13164 0.54033 0.15163
 C329 C 0.11883 0.51941 0.11502
 C330 C 0.11052 0.53679 0.07519
 C331 C 0.12856 0.57528 0.07227
 O332 O 0.14796 0.63200 0.11157
 C333 C 0.14940 0.63807 0.15256
 C334 C 0.14280 0.60633 0.17597
 C335 C 0.13815 0.60684 0.21952
 C336 C 0.14462 0.64133 0.23971
 C337 C 0.15800 0.67439 0.21631
 C338 C 0.15739 0.67240 0.17186
 H339 H 0.13170 0.52730 0.18217
 H340 H 0.10828 0.49028 0.11890
 H341 H 0.12449 0.58995 0.04275
 H342 H 0.13107 0.58155 0.23737
 H343 H 0.14506 0.64170 0.27356
 H344 H 0.16616 0.69661 0.15236
 C345 C 0.38698 0.89859 0.11157
 C346 C 0.46202 0.88237 0.12795
 C347 C 0.54743 0.89578 0.12020
 C348 C 0.55599 0.92678 0.09383
 C349 C 0.47959 0.94428 0.07626
 C350 C 0.39378 0.92933 0.08539
 O351 O 0.31192 0.88196 0.12322
 C352 C 0.34033 0.85471 0.14774
 C353 C 0.43126 0.85359 0.15140
 C354 C 0.47437 0.82705 0.17524
 C355 C 0.42185 0.80261 0.19913
 C356 C 0.32722 0.80404 0.19759
 C357 C 0.28707 0.82945 0.16935
 H358 H 0.60543 0.88258 0.13366
 H359 H 0.62233 0.93677 0.08668
 H360 H 0.33339 0.94109 0.07242
 H361 H 0.54602 0.82562 0.17531
 H362 H 0.45497 0.78281 0.21904
 H363 H 0.21682 0.83069 0.16467
 C364 C 0.60338 0.39592 0.38989
 C365 C 0.52979 0.38578 0.36709
 C366 C 0.44786 0.40322 0.37130
 C367 C 0.44076 0.43184 0.40086
 C368 C 0.51647 0.44441 0.42348
 C369 C 0.59896 0.42537 0.41804
 O370 O 0.67466 0.37528 0.38178
 C371 C 0.64531 0.35179 0.35290
 C372 C 0.55731 0.35720 0.34268
 C373 C 0.51361 0.33607 0.31277
 C374 C 0.56389 0.30943 0.29117
 C375 C 0.65634 0.30478 0.29899
 C376 C 0.69552 0.32462 0.33264
 H377 H 0.39146 0.39475 0.35267
 H378 H 0.37653 0.44470 0.40565
 H379 H 0.65841 0.43286 0.43526
 H380 H 0.44385 0.34053 0.30572
 H381 H 0.53130 0.29287 0.26783
 H382 H 0.76361 0.31994 0.34225
 C383 C 0.88699 0.60332 0.88842
 C384 C 0.96202 0.61956 0.87206
 C385 C 1.04744 0.60615 0.87982
 C386 C 1.05600 0.57515 0.90618
 C387 C 0.97960 0.55764 0.92374
 C388 C 0.89379 0.57258 0.91460
 O389 O 0.81192 0.61994 0.87676
 C390 C 0.84033 0.64720 0.85226
 C391 C 0.93125 0.64833 0.84860
 C392 C 0.97436 0.67488 0.82477
 C393 C 0.92184 0.69931 0.80088
 C394 C 0.82721 0.69788 0.80241
 C395 C 0.78706 0.67246 0.83064
 H396 H 1.10543 0.61936 0.86636
 H397 H 1.12234 0.56517 0.91333
 H398 H 0.83341 0.56082 0.92757
 H399 H 1.04601 0.67631 0.82471
 H400 H 0.95496 0.71912 0.78098
 H401 H 0.71682 0.67121 0.83531
 C402 C 0.10336 0.10600 0.61011
 C403 C 0.02978 0.11614 0.63291
 C404 C -0.05215 0.09870 0.62870
 C405 C -0.05925 0.07007 0.59914
 C406 C 0.01645 0.05751 0.57652
 C407 C 0.09895 0.07656 0.58196
 O408 O 0.17464 0.12664 0.61821
 C409 C 0.14529 0.15014 0.64709
 C410 C 0.05730 0.14472 0.65732
 C411 C 0.01359 0.16585 0.68723
 C412 C 0.06388 0.19250 0.70882
 C413 C 0.15632 0.19714 0.70101
 C414 C 0.19550 0.17730 0.66736
 H415 H -0.10855 0.10716 0.64734
 H416 H -0.12348 0.05721 0.59436
 H417 H 0.15839 0.06906 0.56473
 H418 H -0.05616 0.16139 0.69428
 H419 H 0.03129 0.20905 0.73216
 H420 H 0.26359 0.18198 0.65774
 C421 C 0.21554 0.40856 0.41325
 C422 C 0.20244 0.42442 0.37455
 C423 C 0.18409 0.46159 0.36926
 C424 C 0.16762 0.48236 0.40527
 C425 C 0.15958 0.46484 0.44521
 C426 C 0.19584 0.42873 0.44992
 O427 O 0.23331 0.37251 0.41061
 C428 C 0.22828 0.36569 0.36958
 C429 C 0.20643 0.39635 0.34656
 C430 C 0.18331 0.39457 0.30450
 C431 C 0.18805 0.36004 0.28466
 C432 C 0.22377 0.32875 0.30556
 C433 C 0.24059 0.33161 0.34956
 H434 H 0.17857 0.47383 0.33841
 H435 H 0.14928 0.51105 0.40080
 H436 H 0.19541 0.41489 0.47998
 H437 H 0.15956 0.41872 0.28783
 H438 H 0.16701 0.35868 0.25251
 H439 H 0.26296 0.30821 0.36788
 C440 C 0.30857 0.59682 0.90945
 C441 C 0.30635 0.57958 0.87108
 C442 C 0.31663 0.54168 0.86652
 C443 C 0.33851 0.52124 0.90237
 C444 C 0.35580 0.53921 0.94136
 C445 C 0.33229 0.57707 0.94550
 O446 O 0.29744 0.63321 0.90675
 C447 C 0.28995 0.63898 0.86575
 C448 C 0.29733 0.60720 0.84255
 C449 C 0.30104 0.60743 0.79906
 C450 C 0.29171 0.64161 0.77860
 C451 C 0.27346 0.67454 0.80149
 C452 C 0.27642 0.67300 0.84608
 H453 H 0.31203 0.52852 0.83613
 H454 H 0.35164 0.49200 0.89836
 H455 H 0.34213 0.59198 0.97436
 H456 H 0.31073 0.58217 0.78142
 H457 H 0.29161 0.64138 0.74493
 H458 H 0.26627 0.69725 0.86534
 C459 C 0.71554 0.09336 0.58676
 C460 C 0.70243 0.07750 0.62546
 C461 C 0.68408 0.04033 0.63075
 C462 C 0.66761 0.01956 0.59474
 C463 C 0.65958 0.03708 0.55480
 C464 C 0.69585 0.07319 0.55009
 O465 O 0.73331 0.12941 0.58940
 C466 C 0.72827 0.13623 0.63043
 C467 C 0.70642 0.10557 0.65345
 C468 C 0.68329 0.10735 0.69551
 C469 C 0.68803 0.14188 0.71535
 C470 C 0.72375 0.17318 0.69444
 C471 C 0.74058 0.17031 0.65045
 H472 H 0.67855 0.02809 0.66160
 H473 H 0.64926 -0.00913 0.59921
 H474 H 0.69542 0.08703 0.52003
 H475 H 0.65953 0.08321 0.71218
 H476 H 0.66698 0.14325 0.74749
 H477 H 0.76295 0.19372 0.63213
 C478 C 0.80858 0.90510 0.09055
 C479 C 0.80639 0.92234 0.12892
 C480 C 0.81668 0.96024 0.13349
 C481 C 0.83856 0.98068 0.09764
 C482 C 0.85582 0.96271 0.05865
 C483 C 0.83230 0.92485 0.05451
 O484 O 0.79744 0.86871 0.09325
 C485 C 0.78996 0.86294 0.13425
 C486 C 0.79736 0.89472 0.15746
 C487 C 0.80110 0.89448 0.20094
 C488 C 0.79175 0.86031 0.22140
 C489 C 0.77348 0.82738 0.19851
 C490 C 0.77642 0.82893 0.15392
 H491 H 0.81210 0.97340 0.16388
 H492 H 0.85170 1.00992 0.10166
 H493 H 0.84213 0.90994 0.02565
 H494 H 0.81080 0.91974 0.21858
 H495 H 0.79166 0.86053 0.25508
 H496 H 0.76626 0.80467 0.13466
 C497 C 0.91491 0.08961 0.86895
 C498 C 0.97022 0.11922 0.87541
 C499 C 1.01317 0.12611 0.91232
 C500 C 1.00651 0.09973 0.94312
 C501 C 0.95885 0.06606 0.93743
 C502 C 0.90894 0.06151 0.89964
 O503 O 0.86872 0.09305 0.83336
 C504 C 0.89747 0.12537 0.81788
 C505 C 0.96168 0.14128 0.84231
 C506 C 0.99657 0.17599 0.83581
 C507 C 0.95806 0.19720 0.80482
 C508 C 0.88433 0.18395 0.78071
 C509 C 0.85914 0.14608 0.78536
 H510 H 1.05212 0.15096 0.91724
 H511 H 1.04718 0.10555 0.96951
 H512 H 0.86930 0.03697 0.89406
 H513 H 1.04723 0.18760 0.85608
 H514 H 0.98246 0.22524 0.80289
 H515 H 0.80499 0.13415 0.76859
 C516 C 0.03781 0.61369 0.61420
 C517 C 0.06077 0.59422 0.64954
 C518 C 0.09377 0.55859 0.64830
 C519 C 0.09698 0.54122 0.60943
 C520 C 0.06164 0.55850 0.57268
 C521 C 0.03508 0.59612 0.57511
 O522 O 0.02563 0.64951 0.62175
 C523 C 0.04103 0.65228 0.66272
 C524 C 0.05931 0.61882 0.68118
 C525 C 0.08454 0.61515 0.72273
 C526 C 0.10203 0.64754 0.74493
 C527 C 0.10168 0.68218 0.72431
 C528 C 0.05928 0.68498 0.68444
 H529 H 0.11791 0.54482 0.67621
 H530 H 0.12177 0.51310 0.60899
 H531 H 0.00960 0.61090 0.54833
 H532 H 0.09584 0.58831 0.73682
 H533 H 0.12312 0.64484 0.77695
 H534 H 0.05446 0.71108 0.66798
 C535 C 0.53784 0.88823 0.38580
 C536 C 0.56082 0.90771 0.35046
 C537 C 0.59383 0.94333 0.35171
 C538 C 0.59703 0.96070 0.39058
 C539 C 0.56167 0.94342 0.42733
 C540 C 0.53509 0.90581 0.42489
 O541 O 0.52564 0.85242 0.37825
 C542 C 0.54105 0.84964 0.33728
 C543 C 0.55936 0.88310 0.31882
 C544 C 0.58460 0.88678 0.27727
 C545 C 0.60207 0.85439 0.25507
 C546 C 0.60170 0.81975 0.27569
 C547 C 0.55929 0.81695 0.31556
 H548 H 0.61799 0.95710 0.32380
 H549 H 0.62184 0.98882 0.39102
 H550 H 0.50960 0.89103 0.45166
 H551 H 0.59591 0.91362 0.26319
 H552 H 0.62317 0.85709 0.22305
 H553 H 0.55445 0.79085 0.33201
 C554 C 0.41493 0.41231 0.13105
 C555 C 0.47023 0.38270 0.12459
 C556 C 0.51317 0.37581 0.08768
 C557 C 0.50651 0.40219 0.05688
 C558 C 0.45885 0.43587 0.06257
 C559 C 0.40895 0.44041 0.10036
 O560 O 0.36874 0.40888 0.16664
 C561 C 0.39750 0.37655 0.18213
 C562 C 0.46169 0.36064 0.15769
 C563 C 0.49658 0.32592 0.16419
 C564 C 0.45807 0.30472 0.19518
 C565 C 0.38435 0.31797 0.21929
 C566 C 0.35916 0.35585 0.21464
 H567 H 0.55212 0.35096 0.08276
 H568 H 0.54717 0.39637 0.03049
 H569 H 0.36932 0.46495 0.10595
 H570 H 0.54724 0.31431 0.14391
 H571 H 0.48247 0.27667 0.19711
 H572 H 0.30502 0.36778 0.23142
 C573 C 0.53483 0.63454 0.06579
 C574 C 0.46485 0.63635 0.09356
 C575 C 0.39002 0.61387 0.09016
 C576 C 0.38971 0.58691 0.05848
 C577 C 0.46506 0.58196 0.03181
 C578 C 0.53635 0.60773 0.03437
 O579 O 0.60294 0.65596 0.07660
 C580 C 0.57626 0.67086 0.11246
 C581 C 0.49295 0.65953 0.12450
 C582 C 0.45727 0.66826 0.16340
 C583 C 0.51068 0.68851 0.19159
 C584 C 0.59772 0.70053 0.17995
 C585 C 0.62770 0.69303 0.13866
 H586 H 0.33628 0.61545 0.11272
 H587 H 0.33407 0.56785 0.05747
 H588 H 0.59637 0.60444 0.01587
 H589 H 0.39152 0.65878 0.17174
 H590 H 0.48418 0.69457 0.22239
 H591 H 0.68905 0.70396 0.12661
 C592 C 0.03483 0.86738 0.93421
 C593 C -0.03515 0.86557 0.90644
 C594 C -0.10997 0.88805 0.90984
 C595 C -0.11029 0.91501 0.94152
 C596 C -0.03493 0.91996 0.96819
 C597 C 0.03635 0.89419 0.96563
 O598 O 0.10294 0.84596 0.92340
 C599 C 0.07626 0.83106 0.88754
 C600 C -0.00705 0.84240 0.87550
 C601 C -0.04273 0.83366 0.83660
 C602 C 0.01069 0.81342 0.80841
 C603 C 0.09772 0.80139 0.82005
 C604 C 0.12770 0.80889 0.86134
 H605 H -0.16372 0.88647 0.88728
 H606 H -0.16592 0.93407 0.94253
 H607 H 0.09637 0.89748 0.98413
 H608 H -0.10848 0.84315 0.82826
 H609 H -0.01581 0.80735 0.77761
 H610 H 0.18905 0.79796 0.87339
 C611 C 0.46769 0.13387 0.42962
 C612 C 0.53588 0.13718 0.40117
 C613 C 0.61146 0.11486 0.40228
 C614 C 0.61523 0.08700 0.43297
 C615 C 0.54255 0.08132 0.46090
 C616 C 0.46959 0.10643 0.45984
 O617 O 0.39733 0.15455 0.42057
 C618 C 0.42066 0.17066 0.38502
 C619 C 0.50433 0.16097 0.37172
 C620 C 0.53757 0.17157 0.33311
 C621 C 0.48068 0.19127 0.30606
 C622 C 0.39279 0.20119 0.31890
 C623 C 0.36550 0.19224 0.36010
 H624 H 0.66274 0.11718 0.37862
 H625 H 0.67109 0.06806 0.43244
 H626 H 0.41132 0.10270 0.47944
 H627 H 0.60456 0.16419 0.32450
 H628 H 0.50544 0.19867 0.27533
 H629 H 0.30338 0.20154 0.37299
 C630 C 0.96767 0.36805 0.57039
 C631 C 1.03587 0.36474 0.59884
 C632 C 1.11145 0.38706 0.59772
 C633 C 1.11522 0.41492 0.56704
 C634 C 1.04253 0.42060 0.53910
 C635 C 0.96958 0.39549 0.54016
 O636 O 0.89731 0.34737 0.57943
 C637 C 0.92064 0.33126 0.61499
 C638 C 1.00431 0.34095 0.62828
 C639 C 1.03755 0.33035 0.66689
 C640 C 0.98067 0.31065 0.69395
 C641 C 0.89277 0.30073 0.68111
 C642 C 0.86548 0.30968 0.63990
 H643 H 1.16272 0.38474 0.62138
 H644 H 1.17108 0.43386 0.56756
 H645 H 0.91130 0.39922 0.52056
 H646 H 1.10454 0.33772 0.67550
 H647 H 1.00542 0.30325 0.72467
 H648 H 0.80336 0.30038 0.62701
 C649 C 0.86133 0.59537 0.10897
 C650 C 0.87232 0.58173 0.14874
 C651 C 0.89341 0.54499 0.15646
 C652 C 0.90922 0.52207 0.12167
 C653 C 0.89979 0.53547 0.07996
 C654 C 0.86975 0.57246 0.07429
 O655 O 0.84736 0.63155 0.10790
 C656 C 0.84820 0.64088 0.14802
 C657 C 0.86217 0.61143 0.17441
 C658 C 0.86152 0.61511 0.21774
 C659 C 0.83777 0.64980 0.23415
 C660 C 0.81665 0.67995 0.20738
 C661 C 0.83194 0.67602 0.16392
 H662 H 0.90392 0.53498 0.18805
 H663 H 0.93661 0.49538 0.12813
 H664 H 0.86167 0.58457 0.04350
 H665 H 0.87323 0.59167 0.23813
 H666 H 0.82918 0.65224 0.26746
 H667 H 0.82647 0.69907 0.14259
 C668 C 0.63396 0.40688 0.60701
 C669 C 0.62329 0.42046 0.64681
 C670 C 0.60694 0.45770 0.65482
 C671 C 0.59405 0.48116 0.62012
 C672 C 0.59954 0.46714 0.57861
 C673 C 0.62760 0.42997 0.57266
 O674 O 0.64503 0.37056 0.60544
 C675 C 0.64236 0.36084 0.64535
 C676 C 0.62988 0.39029 0.67201
 C677 C 0.62869 0.38620 0.71518
 C678 C 0.64930 0.35109 0.73116
 C679 C 0.66992 0.32096 0.70424
 C680 C 0.65637 0.32535 0.66080
 H681 H 0.59861 0.46785 0.68649
 H682 H 0.57282 0.50909 0.62608
 H683 H 0.63465 0.41778 0.54185
 H684 H 0.61815 0.40957 0.73581
 H685 H 0.65694 0.34848 0.76435
 H686 H 0.66262 0.30247 0.63923
 C687 C 0.13395 0.09505 0.39299
 C688 C 0.12327 0.08147 0.35319
 C689 C 0.10690 0.04422 0.34518
 C690 C 0.09401 0.02077 0.37987
 C691 C 0.09951 0.03479 0.42139
 C692 C 0.12758 0.07195 0.42734
 O693 O 0.14503 0.13136 0.39456
 C694 C 0.14236 0.14108 0.35465
 C695 C 0.12987 0.11164 0.32799
 C696 C 0.12867 0.11573 0.28483
 C697 C 0.14930 0.15084 0.26884
 C698 C 0.16993 0.18097 0.29576
 C699 C 0.15638 0.17657 0.33920
 H700 H 0.09856 0.03408 0.31351
 H701 H 0.07276 -0.00716 0.37391
 H702 H 0.13464 0.08414 0.45815
 H703 H 0.11812 0.09236 0.26420
 H704 H 0.15694 0.15345 0.23565
 H705 H 0.16264 0.19946 0.36077
 C706 C 0.36133 0.90655 0.89103
 C707 C 0.37233 0.92019 0.85126
 C708 C 0.39342 0.95693 0.84354
 C709 C 0.40922 0.97984 0.87833
 C710 C 0.39979 0.96645 0.92004
 C711 C 0.36975 0.92946 0.92571
 O712 O 0.34737 0.87037 0.89210
 C713 C 0.34821 0.86104 0.85198
 C714 C 0.36218 0.89049 0.82559
 C715 C 0.36153 0.88681 0.78226
 C716 C 0.33778 0.85211 0.76585
 C717 C 0.31665 0.82197 0.79262
 C718 C 0.33194 0.82590 0.83608
 H719 H 0.40393 0.96693 0.81195
 H720 H 0.43662 1.00653 0.87187
 H721 H 0.36167 0.91735 0.95650
 H722 H 0.37325 0.91025 0.76187
 H723 H 0.32919 0.84968 0.73254
 H724 H 0.32647 0.80285 0.85741
 C725 C 0.14102 0.90641 0.60897
 C726 C 0.13909 0.92350 0.64739
 C727 C 0.13164 0.96159 0.65163
 C728 C 0.11883 0.98251 0.61502
 C729 C 0.11052 0.96514 0.57518
 C730 C 0.12855 0.92664 0.57227
 O731 O 0.14796 0.86992 0.61157
 C732 C 0.14940 0.86385 0.65256
 C733 C 0.14281 0.89559 0.67597
 C734 C 0.13816 0.89508 0.71952
 C735 C 0.14464 0.86059 0.73971
 C736 C 0.15801 0.82754 0.71631
 C737 C 0.15740 0.82952 0.67186
 H738 H 0.13171 0.97462 0.68217
 H739 H 0.10828 1.01164 0.61890
 H740 H 0.12447 0.91197 0.54275
 H741 H 0.13109 0.92037 0.73737
 H742 H 0.14508 0.86022 0.77356
 H743 H 0.16616 0.80532 0.65236
 C744 C 0.64102 0.59551 0.39103
 C745 C 0.63908 0.57842 0.35260
 C746 C 0.63164 0.54033 0.34837
 C747 C 0.61883 0.51941 0.38498
 C748 C 0.61052 0.53679 0.42481
 C749 C 0.62856 0.57528 0.42773
 O750 O 0.64796 0.63200 0.38843
 C751 C 0.64940 0.63807 0.34744
 C752 C 0.64280 0.60633 0.32403
 C753 C 0.63815 0.60684 0.28048
 C754 C 0.64462 0.64133 0.26029
 C755 C 0.65800 0.67439 0.28369
 C756 C 0.65739 0.67240 0.32814
 H757 H 0.63170 0.52730 0.31783
 H758 H 0.60828 0.49028 0.38110
 H759 H 0.62449 0.58995 0.45725
 H760 H 0.63107 0.58155 0.26263
 H761 H 0.64506 0.64170 0.22644
 H762 H 0.66616 0.69661 0.34764
 C763 C 0.35319 0.09625 0.10927
 C764 C 0.35702 0.07948 0.14783
 C765 C 0.36964 0.04173 0.15244
 C766 C 0.38447 0.02075 0.11611
 C767 C 0.38836 0.03746 0.07573
 C768 C 0.36740 0.07581 0.07258
 O769 O 0.34103 0.13261 0.11181
 C770 C 0.33794 0.13880 0.15288
 C771 C 0.34876 0.10731 0.17633
 C772 C 0.35224 0.10787 0.21990
 C773 C 0.34092 0.14210 0.24018
 C774 C 0.32360 0.17491 0.21693
 C775 C 0.32440 0.17293 0.17235
 H776 H 0.37194 0.02903 0.18315
 H777 H 0.40022 -0.00778 0.12082
 H778 H 0.36914 0.09013 0.04280
 H779 H 0.36265 0.08277 0.23774
 H780 H 0.34091 0.14241 0.27403
 H781 H 0.31275 0.19700 0.15297
 C782 C 0.85319 0.40567 0.89073
 C783 C 0.85703 0.42244 0.85217
 C784 C 0.86968 0.46018 0.84755
 C785 C 0.88452 0.48117 0.88389
 C786 C 0.88839 0.46446 0.92427
 C787 C 0.86740 0.42611 0.92742
 O788 O 0.84101 0.36932 0.88820
 C789 C 0.83793 0.36312 0.84712
 C790 C 0.84877 0.39461 0.82367
 C791 C 0.85226 0.39405 0.78010
 C792 C 0.84092 0.35982 0.75983
 C793 C 0.82359 0.32702 0.78307
 C794 C 0.82438 0.32899 0.82765
 H795 H 0.87200 0.47289 0.81685
 H796 H 0.90029 0.50970 0.87917
 H797 H 0.86913 0.41179 0.95720
 H798 H 0.86268 0.41915 0.76226
 H799 H 0.84092 0.35951 0.72597
 H800 H 0.81272 0.30493 0.84704
 C801 C 0.60336 0.10600 0.88989
 C802 C 0.52978 0.11614 0.86709
 C803 C 0.44785 0.09870 0.87130
 C804 C 0.44075 0.07007 0.90085
 C805 C 0.51645 0.05751 0.92348
 C806 C 0.59895 0.07656 0.91804
 O807 O 0.67464 0.12664 0.88179
 C808 C 0.64529 0.15014 0.85291
 C809 C 0.55730 0.14472 0.84268
 C810 C 0.51359 0.16585 0.81277
 C811 C 0.56388 0.19250 0.79118
 C812 C 0.65632 0.19714 0.79899
 C813 C 0.69550 0.17730 0.83264
 H814 H 0.39145 0.10716 0.85266
 H815 H 0.37652 0.05721 0.90564
 H816 H 0.65839 0.06906 0.93527
 H817 H 0.44384 0.16139 0.80572
 H818 H 0.53129 0.20905 0.76784
 H819 H 0.76359 0.18198 0.84226
 C820 C 0.38699 0.60332 0.61158
 C821 C 0.46202 0.61956 0.62794
 C822 C 0.54744 0.60615 0.62018
 C823 C 0.55600 0.57515 0.59382
 C824 C 0.47960 0.55764 0.57626
 C825 C 0.39379 0.57258 0.58540
 O826 O 0.31192 0.61994 0.62324
 C827 C 0.34033 0.64720 0.64774
 C828 C 0.43125 0.64833 0.65140
 C829 C 0.47436 0.67488 0.67523
 C830 C 0.42184 0.69931 0.69912
 C831 C 0.32721 0.69788 0.69759
 C832 C 0.28706 0.67246 0.66936
 H833 H 0.60543 0.61936 0.63364
 H834 H 0.62234 0.56517 0.58667
 H835 H 0.33341 0.56082 0.57243
 H836 H 0.54601 0.67631 0.67529
 H837 H 0.45496 0.71912 0.71902
 H838 H 0.21682 0.67121 0.66469
 C839 C 0.10338 0.39592 0.11011
 C840 C 0.02979 0.38578 0.13291
 C841 C -0.05214 0.40322 0.12870
 C842 C -0.05924 0.43184 0.09914
 C843 C 0.01647 0.44441 0.07652
 C844 C 0.09896 0.42537 0.08196
 O845 O 0.17466 0.37528 0.11822
 C846 C 0.14531 0.35179 0.14710
 C847 C 0.05731 0.35720 0.15732
 C848 C 0.01361 0.33607 0.18723
 C849 C 0.06389 0.30943 0.20883
 C850 C 0.15634 0.30478 0.20101
 C851 C 0.19552 0.32462 0.16736
 H852 H -0.10854 0.39475 0.14733
 H853 H -0.12347 0.44470 0.09435
 H854 H 0.15841 0.43286 0.06474
 H855 H -0.05615 0.34053 0.19428
 H856 H 0.03130 0.29287 0.23217
 H857 H 0.26361 0.31994 0.15775
 C858 C 0.88698 0.89859 0.38843
 C859 C 0.96202 0.88237 0.37205
 C860 C 1.04743 0.89578 0.37980
 C861 C 1.05599 0.92678 0.40617
 C862 C 0.97959 0.94428 0.42374
 C863 C 0.89378 0.92933 0.41461
 O864 O 0.81192 0.88196 0.37678
 C865 C 0.84033 0.85471 0.35226
 C866 C 0.93126 0.85359 0.34860
 C867 C 0.97437 0.82705 0.32476
 C868 C 0.92185 0.80261 0.30087
 C869 C 0.82722 0.80404 0.30241
 C870 C 0.78707 0.82945 0.33065
 H871 H 1.10543 0.88258 0.36634
 H872 H 1.12233 0.93677 0.41332
 H873 H 0.83339 0.94109 0.42758
 H874 H 1.04602 0.82562 0.32469
 H875 H 0.95497 0.78281 0.28096
 H876 H 0.71682 0.83069 0.33533
 C877 C 0.80857 0.59682 0.59055
 C878 C 0.80635 0.57958 0.62892
 C879 C 0.81663 0.54168 0.63348
 C880 C 0.83851 0.52124 0.59763
 C881 C 0.85580 0.53921 0.55864
 C882 C 0.83229 0.57707 0.55450
 O883 O 0.79744 0.63321 0.59325
 C884 C 0.78995 0.63898 0.63425
 C885 C 0.79733 0.60720 0.65745
 C886 C 0.80104 0.60743 0.70094
 C887 C 0.79171 0.64161 0.72140
 C888 C 0.77346 0.67454 0.69851
 C889 C 0.77642 0.67300 0.65392
 H890 H 0.81203 0.52852 0.66387
 H891 H 0.85164 0.49200 0.60164
 H892 H 0.84213 0.59198 0.52564
 H893 H 0.81073 0.58217 0.71858
 H894 H 0.79161 0.64138 0.75507
 H895 H 0.76627 0.69725 0.63466
 C896 C 0.71554 0.40856 0.08675
 C897 C 0.70244 0.42442 0.12545
 C898 C 0.68409 0.46159 0.13074
 C899 C 0.66762 0.48236 0.09473
 C900 C 0.65958 0.46484 0.05479
 C901 C 0.69584 0.42873 0.05008
 O902 O 0.73331 0.37251 0.08939
 C903 C 0.72828 0.36569 0.13042
 C904 C 0.70643 0.39635 0.15344
 C905 C 0.68331 0.39457 0.19550
 C906 C 0.68805 0.36004 0.21534
 C907 C 0.72377 0.32875 0.19444
 C908 C 0.74059 0.33161 0.15044
 H909 H 0.67857 0.47383 0.16159
 H910 H 0.64928 0.51105 0.09920
 H911 H 0.69541 0.41489 0.02002
 H912 H 0.65956 0.41872 0.21217
 H913 H 0.66701 0.35868 0.24749
 H914 H 0.76296 0.30821 0.13212
 C915 C 0.30858 0.90510 0.40945
 C916 C 0.30639 0.92234 0.37108
 C917 C 0.31668 0.96024 0.36651
 C918 C 0.33856 0.98068 0.40236
 C919 C 0.35582 0.96271 0.44135
 C920 C 0.33230 0.92485 0.44549
 O921 O 0.29744 0.86871 0.40675
 C922 C 0.28996 0.86294 0.36575
 C923 C 0.29736 0.89472 0.34254
 C924 C 0.30110 0.89448 0.29906
 C925 C 0.29175 0.86031 0.27860
 C926 C 0.27348 0.82738 0.30149
 C927 C 0.27642 0.82893 0.34608
 H928 H 0.31210 0.97340 0.33612
 H929 H 0.35170 1.00992 0.39834
 H930 H 0.34213 0.90994 0.47435
 H931 H 0.31080 0.91974 0.28142
 H932 H 0.29166 0.86053 0.24492
 H933 H 0.26626 0.80467 0.36534
 C934 C 0.21554 0.09336 0.91324
 C935 C 0.20243 0.07750 0.87454
 C936 C 0.18408 0.04033 0.86925
 C937 C 0.16761 0.01956 0.90526
 C938 C 0.15958 0.03708 0.94520
 C939 C 0.19585 0.07319 0.94991
 O940 O 0.23331 0.12941 0.91060
 C941 C 0.22827 0.13623 0.86957
 C942 C 0.20642 0.10557 0.84655
 C943 C 0.18329 0.10735 0.80449
 C944 C 0.18803 0.14188 0.78465
 C945 C 0.22375 0.17318 0.80556
 C946 C 0.24058 0.17031 0.84955
 H947 H 0.17855 0.02809 0.83840
 H948 H 0.14926 -0.00913 0.90079
 H949 H 0.19542 0.08703 0.97997
 H950 H 0.15953 0.08321 0.78782
 H951 H 0.16698 0.14325 0.75251
 H952 H 0.26295 0.19372 0.86787
 C953 C 0.03784 0.88823 0.11420
 C954 C 0.06082 0.90771 0.14954
 C955 C 0.09383 0.94333 0.14829
 C956 C 0.09703 0.96070 0.10942
 C957 C 0.06167 0.94342 0.07267
 C958 C 0.03509 0.90581 0.07511
 O959 O 0.02564 0.85242 0.12175
 C960 C 0.04105 0.84964 0.16272
 C961 C 0.05936 0.88310 0.18118
 C962 C 0.08460 0.88678 0.22273
 C963 C 0.10207 0.85439 0.24493
 C964 C 0.10170 0.81975 0.22431
 C965 C 0.05929 0.81695 0.18444
 H966 H 0.11799 0.95710 0.17620
 H967 H 0.12184 0.98882 0.10898
 H968 H 0.00960 0.89103 0.04834
 H969 H 0.09591 0.91362 0.23681
 H970 H 0.12317 0.85709 0.27695
 H971 H 0.05445 0.79085 0.16799
 C972 C 0.91493 0.41231 0.36895
 C973 C 0.97023 0.38270 0.37541
 C974 C 1.01317 0.37581 0.41232
 C975 C 1.00651 0.40219 0.44312
 C976 C 0.95885 0.43587 0.43743
 C977 C 0.90895 0.44041 0.39964
 O978 O 0.86874 0.40888 0.33336
 C979 C 0.89750 0.37655 0.31787
 C980 C 0.96169 0.36064 0.34231
 C981 C 0.99658 0.32592 0.33581
 C982 C 0.95807 0.30472 0.30482
 C983 C 0.88435 0.31797 0.28071
 C984 C 0.85916 0.35585 0.28536
 H985 H 1.05212 0.35096 0.41724
 H986 H 1.04717 0.39637 0.46951
 H987 H 0.86932 0.46495 0.39405
 H988 H 1.04724 0.31431 0.35609
 H989 H 0.98247 0.27667 0.30289
 H990 H 0.80502 0.36778 0.26858
 C991 C 0.41491 0.08961 0.63105
 C992 C 0.47022 0.11922 0.62459
 C993 C 0.51317 0.12611 0.58768
 C994 C 0.50651 0.09973 0.55688
 C995 C 0.45885 0.06606 0.56257
 C996 C 0.40894 0.06151 0.60036
 O997 O 0.36872 0.09305 0.66664
 C998 C 0.39747 0.12537 0.68212
 C999 C 0.46168 0.14128 0.65769
 C1000 C 0.49657 0.17599 0.66419
 C1001 C 0.45806 0.19720 0.69518
 C1002 C 0.38433 0.18395 0.71929
 C1003 C 0.35914 0.14608 0.71464
 H1004 H 0.55212 0.15096 0.58276
 H1005 H 0.54718 0.10555 0.53049
 H1006 H 0.36930 0.03697 0.60594
 H1007 H 0.54723 0.18760 0.64392
 H1008 H 0.48246 0.22524 0.69711
 H1009 H 0.30499 0.13415 0.73141
 C1010 C 0.53781 0.61369 0.88579
 C1011 C 0.56077 0.59422 0.85046
 C1012 C 0.59377 0.55859 0.85170
 C1013 C 0.59698 0.54122 0.89057
 C1014 C 0.56164 0.55850 0.92732
 C1015 C 0.53508 0.59612 0.92489
 O1016 O 0.52563 0.64951 0.87825
 C1017 C 0.54103 0.65228 0.83728
 C1018 C 0.55931 0.61882 0.81882
 C1019 C 0.58454 0.61515 0.77727
 C1020 C 0.60203 0.64754 0.75507
 C1021 C 0.60168 0.68218 0.77569
 C1022 C 0.55928 0.68498 0.81556
 H1023 H 0.61791 0.54482 0.82379
 H1024 H 0.62177 0.51310 0.89101
 H1025 H 0.50960 0.61090 0.95167
 H1026 H 0.59584 0.58831 0.76318
 H1027 H 0.62312 0.64484 0.72305
 H1028 H 0.55446 0.71108 0.83202
 C1029 C 0.46767 0.36805 0.92961
 C1030 C 0.53587 0.36474 0.90116
 C1031 C 0.61145 0.38706 0.90228
 C1032 C 0.61522 0.41492 0.93296
 C1033 C 0.54253 0.42060 0.96090
 C1034 C 0.46958 0.39549 0.95984
 O1035 O 0.39731 0.34738 0.92057
 C1036 C 0.42064 0.33126 0.88501
 C1037 C 0.50431 0.34095 0.87172
 C1038 C 0.53755 0.33035 0.83311
 C1039 C 0.48067 0.31065 0.80605
 C1040 C 0.39277 0.30073 0.81889
 C1041 C 0.36548 0.30968 0.86010
 H1042 H 0.66272 0.38474 0.87862
 H1043 H 0.67108 0.43386 0.93244
 H1044 H 0.41130 0.39922 0.97944
 H1045 H 0.60454 0.33772 0.82450
 H1046 H 0.50542 0.30325 0.77533
 H1047 H 0.30336 0.30038 0.87298
 C1048 C 0.96769 0.13387 0.07038
 C1049 C 1.03588 0.13718 0.09883
 C1050 C 1.11146 0.11486 0.09772
 C1051 C 1.11523 0.08700 0.06703
 C1052 C 1.04255 0.08132 0.03910
 C1053 C 0.96959 0.10643 0.04016
 O1054 O 0.89733 0.15455 0.07943
 C1055 C 0.92066 0.17066 0.11498
 C1056 C 1.00433 0.16097 0.12828
 C1057 C 1.03757 0.17157 0.16689
 C1058 C 0.98068 0.19127 0.19394
 C1059 C 0.89279 0.20119 0.18110
 C1060 C 0.86550 0.19224 0.13990
 H1061 H 1.16274 0.11718 0.12138
 H1062 H 1.17109 0.06806 0.06756
 H1063 H 0.91132 0.10270 0.02056
 H1064 H 1.10456 0.16419 0.17550
 H1065 H 1.00544 0.19867 0.22467
 H1066 H 0.80338 0.20154 0.12701
 C1067 C 0.53483 0.86738 0.56579
 C1068 C 0.46485 0.86557 0.59356
 C1069 C 0.39003 0.88805 0.59016
 C1070 C 0.38971 0.91501 0.55848
 C1071 C 0.46507 0.91996 0.53181
 C1072 C 0.53635 0.89419 0.53437
 O1073 O 0.60294 0.84596 0.57660
 C1074 C 0.57626 0.83106 0.61246
 C1075 C 0.49295 0.84240 0.62450
 C1076 C 0.45727 0.83366 0.66340
 C1077 C 0.51069 0.81342 0.69159
 C1078 C 0.59772 0.80139 0.67995
 C1079 C 0.62770 0.80889 0.63866
 H1080 H 0.33628 0.88647 0.61272
 H1081 H 0.33408 0.93407 0.55747
 H1082 H 0.59637 0.89748 0.51587
 H1083 H 0.39152 0.84315 0.67174
 H1084 H 0.48419 0.80735 0.72239
 H1085 H 0.68905 0.79796 0.62661
 C1086 C 0.03483 0.63454 0.43421
 C1087 C -0.03515 0.63635 0.40644
 C1088 C -0.10998 0.61387 0.40984
 C1089 C -0.11029 0.58691 0.44152
 C1090 C -0.03494 0.58196 0.46819
 C1091 C 0.03635 0.60773 0.46563
 O1092 O 0.10294 0.65596 0.42340
 C1093 C 0.07626 0.67086 0.38754
 C1094 C -0.00705 0.65953 0.37550
 C1095 C -0.04273 0.66826 0.33660
 C1096 C 0.01068 0.68851 0.30841
 C1097 C 0.09772 0.70053 0.32005
 C1098 C 0.12770 0.69303 0.36134
 H1099 H -0.16372 0.61545 0.38728
 H1100 H -0.16593 0.56785 0.44253
 H1101 H 0.09637 0.60444 0.48413
 H1102 H -0.10848 0.65878 0.32826
 H1103 H -0.01582 0.69457 0.27761
 H1104 H 0.18905 0.70396 0.37339
   
