data_POSCAR
  _audit_creation_date              2014-09-24
  _audit_creation_method            'ToBaCCo'
  _symmetry_space_group_name_H-M    'P1'
  _symmetry_Int_Tables_number       1
  _symmetry_cell_setting            triclinic
  loop_
  _symmetry_equiv_pos_as_xyz
 x,y,z
_cell_length_a 59.4866
_cell_length_b 59.5553
_cell_length_c 59.7042
_cell_angle_alpha 89.995300
_cell_angle_beta 90.006400
_cell_angle_gamma 90.019900
loop_
  _atom_site_label
  _atom_site_type_symbol
  _atom_site_fract_x
  _atom_site_fract_y
  _atom_site_fract_z
N1 N 0.17097 0.22492 0.22942
 N2 N 0.17681 0.20688 0.24073
 C3 C 0.16240 0.20402 0.25792
 C4 C 0.14686 0.22115 0.25719
 C5 C 0.15267 0.23413 0.23899
 H6 H 0.16310 0.19054 0.27005
 H7 H 0.14422 0.24911 0.23316
 Cu8 Cu 0.20263 0.18891 0.23186
 Cu9 Cu 0.18746 0.23508 0.20314
 Cu10 Cu 0.23406 0.20386 0.18745
 N11 N 0.22910 0.17184 0.22313
 N12 N 0.24131 0.17778 0.20574
 C13 C 0.25848 0.16324 0.20337
 C14 C 0.25685 0.14747 0.22017
 C15 C 0.23812 0.15330 0.23245
 H16 H 0.27117 0.16406 0.19043
 H17 H 0.23162 0.14466 0.24701
 N18 N 0.22403 0.23078 0.17108
 N19 N 0.20627 0.24268 0.17706
 C20 C 0.20374 0.25988 0.16261
 C21 C 0.22067 0.25863 0.14695
 C22 C 0.23325 0.24010 0.15267
 H23 H 0.19057 0.27237 0.16336
 H24 H 0.24796 0.23390 0.14402
 H25 H 0.19994 0.20403 0.19397
 H26 H 0.21804 0.22156 0.21260
 N27 N 0.67119 0.72536 0.72984
 N28 N 0.67730 0.70756 0.74138
 C29 C 0.66292 0.70467 0.75859
 C30 C 0.64710 0.72155 0.75763
 C31 C 0.65273 0.73440 0.73928
 H32 H 0.66381 0.69135 0.77086
 H33 H 0.64405 0.74918 0.73327
 Cu34 Cu 0.70344 0.68995 0.73271
 Cu35 Cu 0.68754 0.73549 0.70345
 Cu36 Cu 0.73420 0.70434 0.68771
 N37 N 0.72963 0.67260 0.72371
 N38 N 0.74158 0.67834 0.70607
 C39 C 0.75861 0.66367 0.70352
 C40 C 0.75715 0.64802 0.72045
 C41 C 0.73867 0.65405 0.73299
 H42 H 0.77109 0.66431 0.69037
 H43 H 0.73234 0.64554 0.74770
 N44 N 0.72403 0.73118 0.67128
 N45 N 0.70626 0.74304 0.67728
 C46 C 0.70364 0.76021 0.66280
 C47 C 0.72054 0.75897 0.64710
 C48 C 0.73318 0.74048 0.65284
 H49 H 0.69046 0.77268 0.66356
 H50 H 0.74791 0.73432 0.64418
 H51 H 0.70015 0.70439 0.69463
 H52 H 0.71835 0.72240 0.71270
 N53 N 0.32778 0.77486 0.73032
 N54 N 0.32138 0.79239 0.74211
 C55 C 0.33574 0.79529 0.75933
 C56 C 0.35183 0.77868 0.75815
 C57 C 0.34639 0.76599 0.73963
 H58 H 0.33465 0.80843 0.77178
 H59 H 0.35531 0.75145 0.73341
 Cu60 Cu 0.29497 0.80975 0.73374
 Cu61 Cu 0.31160 0.76487 0.70379
 Cu62 Cu 0.26503 0.79602 0.68792
 N63 N 0.26911 0.82736 0.72430
 N64 N 0.25747 0.82190 0.70636
 C65 C 0.24061 0.83673 0.70359
 C66 C 0.24189 0.85220 0.72069
 C67 C 0.26005 0.84592 0.73356
 H68 H 0.22840 0.83631 0.69017
 H69 H 0.26618 0.85423 0.74847
 N70 N 0.27532 0.76929 0.67142
 N71 N 0.29307 0.75742 0.67747
 C72 C 0.29577 0.74029 0.66297
 C73 C 0.27895 0.74157 0.64718
 C74 C 0.26626 0.76002 0.65291
 H75 H 0.30895 0.72782 0.66377
 H76 H 0.25156 0.76619 0.64421
 H77 H 0.29896 0.79612 0.69544
 H78 H 0.28058 0.77761 0.71283
 N79 N 0.82877 0.27447 0.23037
 N80 N 0.82235 0.29199 0.24218
 C81 C 0.83671 0.29490 0.25941
 C82 C 0.85280 0.27831 0.25818
 C83 C 0.84740 0.26561 0.23966
 H84 H 0.83559 0.30804 0.27187
 H85 H 0.85632 0.25108 0.23341
 Cu86 Cu 0.79591 0.30932 0.23385
 Cu87 Cu 0.81257 0.26449 0.20385
 Cu88 Cu 0.76594 0.29560 0.18805
 N89 N 0.77000 0.32690 0.22445
 N90 N 0.75836 0.32144 0.20652
 C91 C 0.74148 0.33624 0.20379
 C92 C 0.74271 0.35171 0.22091
 C93 C 0.76091 0.34542 0.23374
 H94 H 0.72925 0.33582 0.19039
 H95 H 0.76700 0.35373 0.24866
 N96 N 0.77625 0.26890 0.17151
 N97 N 0.79402 0.25703 0.17753
 C98 C 0.79671 0.23993 0.16300
 C99 C 0.77987 0.24120 0.14724
 C100 C 0.76718 0.25965 0.15300
 H101 H 0.80989 0.22745 0.16379
 H102 H 0.75246 0.26580 0.14433
 H103 H 0.79988 0.29572 0.19554
 H104 H 0.78154 0.27717 0.21293
 N105 N 0.82898 0.72511 0.27022
 N106 N 0.82312 0.70704 0.25897
 C107 C 0.83752 0.70412 0.24179
 C108 C 0.85308 0.72125 0.24246
 C109 C 0.84728 0.73429 0.26062
 H110 H 0.83680 0.69060 0.22971
 H111 H 0.85575 0.74929 0.26639
 Cu112 Cu 0.79728 0.68911 0.26792
 Cu113 Cu 0.81251 0.73537 0.29647
 Cu114 Cu 0.76588 0.70421 0.31228
 N115 N 0.77080 0.67207 0.27671
 N116 N 0.75859 0.67808 0.29408
 C117 C 0.74141 0.66356 0.29650
 C118 C 0.74302 0.64773 0.27976
 C119 C 0.76175 0.65350 0.26747
 H120 H 0.72872 0.66443 0.30945
 H121 H 0.76824 0.64481 0.25294
 N122 N 0.77594 0.73118 0.32856
 N123 N 0.79371 0.74305 0.32254
 C124 C 0.79627 0.76030 0.33693
 C125 C 0.77934 0.75910 0.35261
 C126 C 0.76674 0.74056 0.34694
 H127 H 0.80946 0.77277 0.33615
 H128 H 0.75203 0.73439 0.35562
 H129 H 0.80001 0.70435 0.30575
 H130 H 0.78192 0.72184 0.28707
 N131 N 0.32910 0.22550 -0.23045
 N132 N 0.32279 0.20793 -0.24225
 C133 C 0.33722 0.20504 -0.25941
 C134 C 0.35326 0.22169 -0.25814
 C135 C 0.34774 0.23442 -0.23968
 H136 H 0.33620 0.19187 -0.27184
 H137 H 0.35659 0.24900 -0.23343
 Cu138 Cu 0.29636 0.19054 -0.23400
 Cu139 Cu 0.31276 0.23550 -0.20403
 Cu140 Cu 0.26615 0.20428 -0.18837
 N141 N 0.27046 0.17289 -0.22467
 N142 N 0.25872 0.17837 -0.20681
 C143 C 0.24187 0.16351 -0.20412
 C144 C 0.24322 0.14800 -0.22118
 C145 C 0.26146 0.15431 -0.23394
 H146 H 0.22957 0.16394 -0.19078
 H147 H 0.26765 0.14597 -0.24880
 N148 N 0.27631 0.23106 -0.17185
 N149 N 0.29408 0.24296 -0.17782
 C150 C 0.29668 0.26010 -0.16331
 C151 C 0.27977 0.25881 -0.14762
 C152 C 0.26714 0.24032 -0.15340
 H153 H 0.30984 0.27260 -0.16405
 H154 H 0.25241 0.23413 -0.14478
 H155 H 0.30012 0.20425 -0.19571
 H156 H 0.28182 0.22269 -0.21323
 N157 N 0.67096 0.27455 -0.23015
 N158 N 0.67710 0.29235 -0.24171
 C159 C 0.66271 0.29525 -0.25891
 C160 C 0.64688 0.27837 -0.25791
 C161 C 0.65248 0.26551 -0.23956
 H162 H 0.66362 0.30857 -0.27119
 H163 H 0.64379 0.25074 -0.23352
 Cu164 Cu 0.70325 0.30995 -0.23304
 Cu165 Cu 0.68733 0.26444 -0.20375
 Cu166 Cu 0.73402 0.29560 -0.18804
 N167 N 0.72947 0.32730 -0.22407
 N168 N 0.74142 0.32158 -0.20643
 C169 C 0.75847 0.33624 -0.20389
 C170 C 0.75702 0.35188 -0.22083
 C171 C 0.73853 0.34584 -0.23337
 H172 H 0.77095 0.33561 -0.19074
 H173 H 0.73220 0.35434 -0.24808
 N174 N 0.72383 0.26878 -0.17159
 N175 N 0.70604 0.25691 -0.17757
 C176 C 0.70343 0.23974 -0.16309
 C177 C 0.72035 0.24099 -0.14739
 C178 C 0.73299 0.25947 -0.15315
 H179 H 0.69024 0.22727 -0.16383
 H180 H 0.74773 0.26564 -0.14451
 H181 H 0.69997 0.29555 -0.19495
 H182 H 0.71815 0.27752 -0.21301
 N183 N 0.17170 0.77542 0.27014
 N184 N 0.17758 0.79349 0.25888
 C185 C 0.16320 0.79639 0.24167
 C186 C 0.14764 0.77926 0.24233
 C187 C 0.15341 0.76624 0.26051
 H188 H 0.16394 0.80989 0.22957
 H189 H 0.14493 0.75125 0.26629
 Cu190 Cu 0.20342 0.81142 0.26784
 Cu191 Cu 0.18814 0.76518 0.29642
 Cu192 Cu 0.23476 0.79633 0.31226
 N193 N 0.22990 0.82845 0.27665
 N194 N 0.24208 0.82244 0.29405
 C195 C 0.25928 0.83695 0.29649
 C196 C 0.25768 0.85275 0.27972
 C197 C 0.23896 0.84700 0.26738
 H198 H 0.27196 0.83607 0.30945
 H199 H 0.23248 0.85568 0.25283
 N200 N 0.22466 0.76938 0.32856
 N201 N 0.20689 0.75751 0.32252
 C202 C 0.20430 0.74028 0.33692
 C203 C 0.22121 0.74147 0.35261
 C204 C 0.23383 0.76000 0.34695
 H205 H 0.19111 0.72780 0.33612
 H206 H 0.24854 0.76617 0.35564
 H207 H 0.20064 0.79621 0.30569
 H208 H 0.21875 0.77870 0.28704
 N209 N 0.47508 0.42105 0.48017
 N210 N 0.45706 0.42699 0.49149
 C211 C 0.45416 0.41267 0.50873
 C212 C 0.47126 0.39708 0.50803
 C213 C 0.48425 0.40277 0.48980
 H214 H 0.44069 0.41347 0.52087
 H215 H 0.49921 0.39426 0.48399
 Cu216 Cu 0.43916 0.45283 0.48255
 Cu217 Cu 0.48530 0.43741 0.45383
 Cu218 Cu 0.45421 0.48403 0.43804
 N219 N 0.42217 0.47932 0.47376
 N220 N 0.42816 0.49144 0.45633
 C221 C 0.41368 0.50865 0.45393
 C222 C 0.39790 0.50714 0.47074
 C223 C 0.40365 0.48844 0.48306
 H224 H 0.41454 0.52129 0.44095
 H225 H 0.39499 0.48202 0.49764
 N226 N 0.48109 0.47386 0.42166
 N227 N 0.49294 0.45609 0.42768
 C228 C 0.51015 0.45346 0.41324
 C229 C 0.50896 0.47034 0.39753
 C230 C 0.49046 0.48299 0.40324
 H231 H 0.52260 0.44026 0.41402
 H232 H 0.48432 0.49771 0.39456
 H233 H 0.47191 0.46802 0.46322
 H234 H 0.45425 0.44996 0.44466
 N235 N -0.02448 -0.07855 0.97961
 N236 N -0.04230 -0.07240 0.99115
 C237 C -0.04523 -0.08676 1.00835
 C238 C -0.02836 -0.10259 1.00741
 C239 C -0.01548 -0.09700 0.98906
 H240 H -0.05856 -0.08584 1.02063
 H241 H -0.00071 -0.10570 0.98306
 Cu242 Cu -0.05986 -0.04625 0.98246
 Cu243 Cu -0.01431 -0.06224 0.95322
 Cu244 Cu -0.04540 -0.01557 0.93746
 N245 N -0.07717 -0.02005 0.97347
 N246 N -0.07140 -0.00812 0.95583
 C247 C -0.08604 0.00894 0.95330
 C248 C -0.10170 0.00752 0.97023
 C249 C -0.09571 -0.01097 0.98276
 H250 H -0.08536 0.02141 0.94015
 H251 H -0.10423 -0.01727 0.99748
 N252 N -0.01857 -0.02579 0.92102
 N253 N -0.00672 -0.04357 0.92703
 C254 C 0.01046 -0.04622 0.91255
 C255 C 0.00925 -0.02934 0.89684
 C256 C -0.00923 -0.01667 0.90258
 H257 H 0.02291 -0.05942 0.91331
 H258 H -0.01537 -0.00195 0.89392
 H259 H -0.02735 -0.03144 0.96244
 H260 H -0.04542 -0.04958 0.94438
 N261 N 1.02463 0.57835 0.98005
 N262 N 1.04219 0.57194 0.99183
 C263 C 1.04514 0.58631 1.00902
 C264 C 1.02856 0.60242 1.00781
 C265 C 1.01581 0.59698 0.98932
 H266 H 1.05831 0.58521 1.02146
 H267 H 1.00126 0.60590 0.98311
 Cu268 Cu 1.05947 0.54548 0.98353
 Cu269 Cu 1.01454 0.56212 0.95359
 Cu270 Cu 1.04556 0.51545 0.93785
 N271 N 1.07701 0.51956 0.97416
 N272 N 1.07147 0.50789 0.95628
 C273 C 1.08626 0.49100 0.95356
 C274 C 1.10180 0.49226 0.97063
 C275 C 1.09556 0.51048 0.98342
 H276 H 1.08578 0.47875 0.94020
 H277 H 1.10394 0.51660 0.99829
 N278 N 1.01880 0.52576 0.92135
 N279 N 1.00698 0.54355 0.92734
 C280 C 0.98982 0.54624 0.91284
 C281 C 0.99103 0.52937 0.89712
 C282 C 1.00948 0.51667 0.90288
 H283 H 0.97737 0.55943 0.91361
 H284 H 1.01559 0.50193 0.89424
 H285 H 1.02721 0.53114 0.96273
 H286 H 1.04576 0.54938 0.94524
 N287 N 0.52439 0.07867 0.48049
 N288 N 0.54196 0.07227 0.49226
 C289 C 0.54490 0.08662 0.50946
 C290 C 0.52829 0.10270 0.50829
 C291 C 0.51555 0.09727 0.48980
 H292 H 0.55808 0.08553 0.52190
 H293 H 0.50097 0.10617 0.48360
 Cu294 Cu 0.55929 0.04586 0.48391
 Cu295 Cu 0.51431 0.06246 0.45402
 Cu296 Cu 0.54541 0.01587 0.43820
 N297 N 0.57687 0.01998 0.47450
 N298 N 0.57134 0.00833 0.45660
 C299 C 0.58616 -0.00853 0.45386
 C300 C 0.60170 -0.00728 0.47092
 C301 C 0.59544 0.01091 0.48375
 H302 H 0.58570 -0.02077 0.44048
 H303 H 0.60380 0.01702 0.49863
 N304 N 0.51863 0.02614 0.42173
 N305 N 0.50677 0.04389 0.42775
 C306 C 0.48959 0.04655 0.41327
 C307 C 0.49081 0.02970 0.39754
 C308 C 0.50930 0.01704 0.40326
 H309 H 0.47710 0.05972 0.41408
 H310 H 0.51544 0.00232 0.39461
 H311 H 0.52703 0.03149 0.46311
 H312 H 0.54555 0.04979 0.44564
 N313 N -0.02475 0.07903 0.52004
 N314 N -0.04259 0.07288 0.50854
 C315 C -0.04556 0.08726 0.49136
 C316 C -0.02870 0.10311 0.49229
 C317 C -0.01577 0.09750 0.51060
 H318 H -0.05892 0.08634 0.47911
 H319 H -0.00098 0.10620 0.51658
 Cu320 Cu -0.06012 0.04670 0.51721
 Cu321 Cu -0.01451 0.06267 0.54638
 Cu322 Cu -0.04555 0.01593 0.56211
 N323 N -0.07741 0.02046 0.52618
 N324 N -0.07160 0.00850 0.54378
 C325 C -0.08622 -0.00857 0.54632
 C326 C -0.10193 -0.00713 0.52942
 C327 C -0.09597 0.01138 0.51691
 H328 H -0.08551 -0.02107 0.55944
 H329 H -0.10453 0.01770 0.50223
 N330 N -0.01868 0.02614 0.57851
 N331 N -0.00685 0.04394 0.57252
 C332 C 0.01038 0.04656 0.58695
 C333 C 0.00921 0.02964 0.60262
 C334 C -0.00928 0.01698 0.59690
 H335 H 0.02284 0.05976 0.58618
 H336 H -0.01539 0.00223 0.60553
 H337 H -0.02756 0.03187 0.53712
 H338 H -0.04559 0.04995 0.55526
 N339 N 0.47551 0.57851 0.02003
 N340 N 0.45798 0.57209 0.00820
 C341 C 0.45506 0.58649 -0.00898
 C342 C 0.47163 0.60261 -0.00772
 C343 C 0.48434 0.59716 0.01079
 H344 H 0.44192 0.58538 -0.02145
 H345 H 0.49887 0.60609 0.01705
 Cu346 Cu 0.44068 0.54561 0.01642
 Cu347 Cu 0.48555 0.56225 0.04648
 Cu348 Cu 0.45450 0.51554 0.06210
 N349 N 0.42312 0.51967 0.02574
 N350 N 0.42863 0.50798 0.04362
 C351 C 0.41382 0.49108 0.04629
 C352 C 0.39833 0.49234 0.02919
 C353 C 0.40459 0.51058 0.01643
 H354 H 0.41428 0.47881 0.05965
 H355 H 0.39625 0.51671 0.00154
 N356 N 0.48123 0.52583 0.07867
 N357 N 0.49306 0.54363 0.07272
 C358 C 0.51019 0.54631 0.08725
 C359 C 0.50896 0.52941 0.10295
 C360 C 0.49052 0.51671 0.09714
 H361 H 0.52265 0.55951 0.08652
 H362 H 0.48439 0.50195 0.10574
 H363 H 0.47291 0.53126 0.03728
 H364 H 0.45431 0.54947 0.05474
 N365 N 0.52480 -0.07851 0.02031
 N366 N 0.54261 -0.07235 0.00878
 C367 C 0.54550 -0.08667 -0.00846
 C368 C 0.52861 -0.10250 -0.00753
 C369 C 0.51576 -0.09694 0.01083
 H370 H 0.55882 -0.08573 -0.02075
 H371 H 0.50098 -0.10565 0.01684
 Cu372 Cu 0.56021 -0.04624 0.01751
 Cu373 Cu 0.51468 -0.06226 0.04676
 Cu374 Cu 0.54585 -0.01566 0.06260
 N375 N 0.57757 -0.02007 0.02654
 N376 N 0.57184 -0.00818 0.04422
 C377 C 0.58651 0.00885 0.04679
 C378 C 0.60215 0.00747 0.02983
 C379 C 0.59611 -0.01097 0.01725
 H380 H 0.58587 0.02129 0.05997
 H381 H 0.60460 -0.01723 0.00251
 N382 N 0.51901 -0.02591 0.07904
 N383 N 0.50713 -0.04366 0.07300
 C384 C 0.48995 -0.04633 0.08747
 C385 C 0.49120 -0.02949 0.10322
 C386 C 0.50970 -0.01683 0.09751
 H387 H 0.47747 -0.05950 0.08667
 H388 H 0.51586 -0.00213 0.10619
 H389 H 0.52775 -0.03145 0.03759
 H390 H 0.54581 -0.04965 0.05559
 N391 N 1.02481 0.42146 0.51994
 N392 N 1.04285 0.42737 0.50863
 C393 C 1.04572 0.41304 0.49139
 C394 C 1.02859 0.39747 0.49208
 C395 C 1.01560 0.40319 0.51031
 H396 H 1.05920 0.41381 0.47927
 H397 H 1.00062 0.39470 0.51612
 Cu398 Cu 1.06080 0.45318 0.51758
 Cu399 Cu 1.01462 0.43782 0.54627
 Cu400 Cu 1.04579 0.48440 0.56208
 N401 N 1.07784 0.47964 0.52637
 N402 N 1.07187 0.49178 0.54380
 C403 C 1.08638 0.50897 0.54620
 C404 C 1.10217 0.50743 0.52939
 C405 C 1.09638 0.48873 0.51708
 H406 H 1.08554 0.52161 0.55918
 H407 H 1.10503 0.48230 0.50250
 N408 N 1.01888 0.47426 0.57844
 N409 N 1.00700 0.45651 0.57242
 C410 C 0.98979 0.45389 0.58686
 C411 C 0.99101 0.47076 0.60258
 C412 C 1.00953 0.48339 0.59687
 H413 H 0.97731 0.44070 0.58608
 H414 H 1.01571 0.49809 0.60555
 H415 H 1.02808 0.46842 0.53689
 H416 H 1.04569 0.45034 0.55547
 C417 C 0.40811 0.01028 0.22016
 H418 H 0.40898 0.02552 0.22999
 C419 C 0.42281 0.00713 0.20219
 H420 H 0.43499 0.02001 0.19807
 C421 C 0.39141 -0.02531 0.21368
 H422 H 0.37942 -0.03807 0.21840
 C423 C 0.40580 -0.02913 0.19558
 H424 H 0.40468 -0.04472 0.18630
 N425 N 0.39264 -0.00573 0.22539
 C426 C 0.33926 0.02995 0.26066
 H427 H 0.33833 0.02012 0.27587
 C428 C 0.32461 0.04799 0.25746
 H429 H 0.31239 0.05215 0.27026
 C430 C 0.35609 0.03640 0.22522
 H431 H 0.36812 0.03164 0.21255
 C432 C 0.34175 0.05456 0.22135
 H433 H 0.34294 0.06386 0.20580
 Zn434 Zn 0.37369 -0.00028 0.25028
 N435 N 0.35477 0.02468 0.24476
 C436 C 0.39118 0.02486 0.28692
 N437 N 0.39251 0.00526 0.27526
 C438 C 0.40801 -0.01068 0.28059
 C439 C 0.42263 -0.00743 0.29861
 C440 C 0.40549 0.02878 0.30506
 C441 C 0.33939 -0.03065 0.23975
 C442 C 0.32477 -0.04873 0.24289
 C443 C 0.34179 -0.05525 0.27907
 C444 C 0.35611 -0.03705 0.27525
 N445 N 0.35484 -0.02533 0.25571
 H446 H 0.37917 0.03757 0.28211
 H447 H 0.40896 -0.02594 0.27080
 H448 H 0.43484 -0.02025 0.30280
 H449 H 0.40430 0.04439 0.31429
 H450 H 0.33850 -0.02081 0.22454
 H451 H 0.31261 -0.05292 0.23005
 H452 H 0.34294 -0.06455 0.29463
 H453 H 0.36808 -0.03225 0.28798
 C454 C 0.32592 0.06043 0.23764
 C455 C 0.42158 -0.01273 0.18976
 C456 C 0.32604 -0.06117 0.26272
 C457 C 0.42130 0.01246 0.31098
 C458 C 0.09223 -0.01065 0.71945
 H459 H 0.09129 -0.02589 0.72927
 C460 C 0.07758 -0.00743 0.70146
 H461 H 0.06533 -0.02025 0.69733
 C462 C 0.10911 0.02486 0.71299
 H463 H 0.12115 0.03756 0.71773
 C464 C 0.09476 0.02875 0.69488
 H465 H 0.09596 0.04434 0.68560
 N466 N 0.10777 0.00528 0.72470
 C467 C 0.16090 -0.03061 0.76018
 H468 H 0.16185 -0.02074 0.77536
 C469 C 0.17546 -0.04873 0.75706
 H470 H 0.18762 -0.05293 0.76989
 C471 C 0.14411 -0.03706 0.72472
 H472 H 0.13213 -0.03227 0.71200
 C473 C 0.15836 -0.05531 0.72092
 H474 H 0.15714 -0.06465 0.70540
 Zn475 Zn 0.12665 -0.00022 0.74965
 N476 N 0.14544 -0.02530 0.74423
 C477 C 0.10896 -0.02518 0.78633
 N478 N 0.10774 -0.00561 0.77460
 C479 C 0.09230 0.01041 0.77983
 C480 C 0.07763 0.00730 0.79782
 C481 C 0.09460 -0.02897 0.80445
 C482 C 0.16110 0.02995 0.73912
 C483 C 0.17576 0.04801 0.74223
 C484 C 0.15868 0.05471 0.77834
 C485 C 0.14433 0.03653 0.77456
 N486 N 0.14561 0.02474 0.75507
 H487 H 0.12093 -0.03795 0.78160
 H488 H 0.09144 0.02564 0.76998
 H489 H 0.06546 0.02018 0.80194
 H490 H 0.09571 -0.04455 0.81375
 H491 H 0.16200 0.02006 0.72395
 H492 H 0.18796 0.05213 0.72940
 H493 H 0.15751 0.06408 0.79386
 H494 H 0.13231 0.03182 0.78727
 C495 C 0.17411 -0.06123 0.73727
 C496 C 0.07890 0.01243 0.68904
 C497 C 0.17448 0.06053 0.76200
 C498 C 0.07884 -0.01255 0.81027
 C499 C 0.59176 0.48931 0.22002
 H500 H 0.59085 0.47406 0.22983
 C501 C 0.57711 0.49249 0.20201
 H502 H 0.56491 0.47964 0.19785
 C503 C 0.60854 0.52487 0.21359
 H504 H 0.62054 0.53761 0.21836
 C505 C 0.59419 0.52873 0.19547
 H506 H 0.59536 0.54432 0.18620
 N507 N 0.60725 0.50528 0.22529
 C508 C 0.66050 0.46955 0.26074
 H509 H 0.66141 0.47942 0.27593
 C510 C 0.67513 0.45149 0.25760
 H511 H 0.68732 0.44734 0.27042
 C512 C 0.64371 0.46305 0.22528
 H513 H 0.63170 0.46780 0.21258
 C514 C 0.65803 0.44486 0.22147
 H515 H 0.65685 0.43553 0.20594
 Zn516 Zn 0.62613 0.49982 0.25024
 N517 N 0.64501 0.47481 0.24480
 C518 C 0.60855 0.47478 0.28690
 N519 N 0.60726 0.49435 0.27519
 C520 C 0.59178 0.51033 0.28046
 C521 C 0.57715 0.50716 0.29847
 C522 C 0.59422 0.47093 0.30504
 C523 C 0.66051 0.53009 0.23972
 C524 C 0.67515 0.54815 0.24286
 C525 C 0.65808 0.55478 0.27899
 C526 C 0.64374 0.53659 0.27518
 N527 N 0.64503 0.52483 0.25567
 H528 H 0.62055 0.46204 0.28215
 H529 H 0.59088 0.52557 0.27064
 H530 H 0.56495 0.52001 0.30262
 H531 H 0.59538 0.45534 0.31432
 H532 H 0.66141 0.52022 0.22454
 H533 H 0.68734 0.55230 0.23003
 H534 H 0.65691 0.56411 0.29452
 H535 H 0.63174 0.53184 0.28789
 C536 C 0.67383 0.43900 0.23781
 C537 C 0.57839 0.51236 0.18960
 C538 C 0.67387 0.56064 0.26265
 C539 C 0.57843 0.48729 0.31090
 C540 C 0.90816 0.51051 0.71969
 H541 H 0.90907 0.52573 0.72955
 C542 C 0.92282 0.50737 0.70170
 H543 H 0.93503 0.52022 0.69759
 C544 C 0.89137 0.47498 0.71316
 H545 H 0.87935 0.46224 0.71787
 C546 C 0.90572 0.47116 0.69503
 H547 H 0.90454 0.45560 0.68571
 N548 N 0.89266 0.49453 0.72491
 C549 C 0.83940 0.53020 0.76038
 H550 H 0.83848 0.52032 0.77556
 C551 C 0.82477 0.54826 0.75725
 H552 H 0.81258 0.55240 0.77008
 C553 C 0.85619 0.53674 0.72494
 H554 H 0.86819 0.53200 0.71223
 C555 C 0.84186 0.55493 0.72114
 H556 H 0.84304 0.56427 0.70561
 Zn557 Zn 0.87377 0.49995 0.74985
 N558 N 0.85489 0.52496 0.74444
 C559 C 0.89136 0.52495 0.78654
 N560 N 0.89264 0.50538 0.77482
 C561 C 0.90813 0.48940 0.78007
 C562 C 0.92278 0.49257 0.79807
 C563 C 0.90571 0.52879 0.80466
 C564 C 0.83939 0.46969 0.73930
 C565 C 0.82475 0.45162 0.74241
 C566 C 0.84183 0.44494 0.77853
 C567 C 0.85617 0.46313 0.77475
 N568 N 0.85488 0.47492 0.75525
 H569 H 0.87937 0.53769 0.78179
 H570 H 0.90903 0.47417 0.77023
 H571 H 0.93497 0.47971 0.80221
 H572 H 0.90455 0.54437 0.81396
 H573 H 0.83848 0.47958 0.72412
 H574 H 0.81256 0.44749 0.72957
 H575 H 0.84300 0.43559 0.79405
 H576 H 0.86817 0.46786 0.78746
 C577 C 0.82607 0.56077 0.73747
 C578 C 0.92153 0.48754 0.68923
 C579 C 0.82604 0.43911 0.76218
 C580 C 0.92150 0.51242 0.81051
 C581 C 0.21982 0.41008 0.01027
 H582 H 0.22973 0.41097 0.02544
 C583 C 0.20173 0.42470 0.00718
 H584 H 0.19760 0.43686 0.02002
 C585 C 0.21324 0.39335 -0.02519
 H586 H 0.21797 0.38137 -0.03791
 C587 C 0.19503 0.40766 -0.02896
 H588 H 0.18565 0.40650 -0.04447
 N589 N 0.22505 0.39463 -0.00569
 C590 C 0.26067 0.34141 0.02985
 H591 H 0.27592 0.34052 0.02000
 C592 C 0.25753 0.32676 0.04784
 H593 H 0.27040 0.31459 0.05196
 C594 C 0.22508 0.35814 0.03636
 H595 H 0.21232 0.37013 0.03164
 C596 C 0.22126 0.34380 0.05448
 H597 H 0.20567 0.34495 0.06379
 Zn598 Zn 0.25010 0.37577 -0.00031
 N599 N 0.24467 0.35688 0.02462
 C600 C 0.28691 0.39334 0.02465
 N601 N 0.27514 0.39465 0.00514
 C602 C 0.28039 0.41013 -0.01079
 C603 C 0.29848 0.42476 -0.00765
 C604 C 0.30512 0.40766 0.02847
 C605 C 0.23957 0.34148 -0.03056
 C606 C 0.24275 0.32686 -0.04857
 C607 C 0.27902 0.34394 -0.05512
 C608 C 0.27516 0.35825 -0.03699
 N609 N 0.25556 0.35695 -0.02529
 H610 H 0.28216 0.38134 0.03735
 H611 H 0.27051 0.41105 -0.02598
 H612 H 0.30263 0.43695 -0.02046
 H613 H 0.31447 0.40648 0.04400
 H614 H 0.22431 0.34055 -0.02073
 H615 H 0.22989 0.31467 -0.05272
 H616 H 0.29462 0.34512 -0.06440
 H617 H 0.28791 0.37024 -0.03222
 C618 C 0.23766 0.32802 0.06030
 C619 C 0.18920 0.42342 -0.01260
 C620 C 0.26264 0.32816 -0.06099
 C621 C 0.31098 0.42345 0.01214
 C622 C 0.71992 0.08977 -0.01041
 H623 H 0.72976 0.08885 -0.02562
 C624 C 0.70183 0.07516 -0.00721
 H625 H 0.69765 0.06296 -0.02002
 C626 C 0.71349 0.10657 0.02504
 H627 H 0.71827 0.11858 0.03772
 C628 C 0.69529 0.09226 0.02891
 H629 H 0.68598 0.09345 0.04446
 N630 N 0.72522 0.10526 0.00550
 C631 C 0.76066 0.15844 -0.03030
 H632 H 0.77595 0.15937 -0.02052
 C633 C 0.75743 0.17305 -0.04832
 H634 H 0.77028 0.18524 -0.05252
 C635 C 0.72505 0.14165 -0.03663
 H636 H 0.71232 0.12966 -0.03183
 C637 C 0.72115 0.15595 -0.05477
 H638 H 0.70552 0.15476 -0.06401
 Zn639 Zn 0.75024 0.12414 -0.00002
 N640 N 0.74469 0.14297 -0.02498
 C641 C 0.78699 0.10656 -0.02505
 N642 N 0.77527 0.10529 -0.00550
 C643 C 0.78059 0.08984 0.01045
 C644 C 0.79867 0.07523 0.00728
 C645 C 0.80519 0.09226 -0.02889
 C646 C 0.73977 0.15849 0.03017
 C647 C 0.74297 0.17312 0.04817
 C648 C 0.77927 0.15611 0.05467
 C649 C 0.77539 0.14177 0.03655
 N650 N 0.75576 0.14303 0.02489
 H651 H 0.78219 0.11853 -0.03775
 H652 H 0.77075 0.08894 0.02567
 H653 H 0.80286 0.06307 0.02011
 H654 H 0.81449 0.09342 -0.04445
 H655 H 0.72449 0.15937 0.02038
 H656 H 0.73010 0.18529 0.05234
 H657 H 0.79490 0.15497 0.06392
 H658 H 0.78814 0.12980 0.03178
 C659 C 0.73751 0.17173 -0.06069
 C660 C 0.68938 0.07647 0.01260
 C661 C 0.76289 0.17187 0.06055
 C662 C 0.81111 0.07651 -0.01255
 C663 C 0.21988 0.58996 0.48934
 H664 H 0.22981 0.58903 0.47419
 C665 C 0.20179 0.57534 0.49245
 H666 H 0.19769 0.56312 0.47963
 C667 C 0.21324 0.60678 0.52474
 H668 H 0.21795 0.61879 0.53745
 C669 C 0.19503 0.59246 0.52852
 H670 H 0.18564 0.59365 0.54402
 N671 N 0.22508 0.60546 0.50527
 C672 C 0.26087 0.65859 0.46972
 H673 H 0.27608 0.65949 0.47962
 C674 C 0.25778 0.67322 0.45170
 H675 H 0.27067 0.68540 0.44762
 C676 C 0.22529 0.64185 0.46312
 H677 H 0.21251 0.62987 0.46781
 C678 C 0.22153 0.65617 0.44497
 H679 H 0.20596 0.65502 0.43561
 Zn680 Zn 0.25016 0.62430 0.49992
 N681 N 0.24483 0.64313 0.47491
 C682 C 0.28706 0.60666 0.47516
 N683 N 0.27521 0.60542 0.49463
 C684 C 0.28039 0.58998 0.51062
 C685 C 0.29845 0.57531 0.50757
 C686 C 0.30524 0.59231 0.47143
 C687 C 0.23950 0.65869 0.52999
 C688 C 0.24258 0.67336 0.54798
 C689 C 0.27881 0.65631 0.55479
 C690 C 0.27505 0.64195 0.53668
 N691 N 0.25551 0.64321 0.52486
 H692 H 0.28237 0.61864 0.46241
 H693 H 0.27046 0.58911 0.52578
 H694 H 0.30253 0.56314 0.52042
 H695 H 0.31463 0.59343 0.45592
 H696 H 0.22430 0.65958 0.52008
 H697 H 0.22970 0.68556 0.55202
 H698 H 0.29436 0.65517 0.56417
 H699 H 0.28782 0.62994 0.53202
 C700 C 0.23795 0.67195 0.43919
 C701 C 0.18923 0.57665 0.51220
 C702 C 0.26239 0.67211 0.56052
 C703 C 0.31101 0.57654 0.48781
 C704 C 0.71970 0.91049 0.51049
 H705 H 0.72961 0.91137 0.52566
 C706 C 0.70162 0.92511 0.50741
 H707 H 0.69750 0.93728 0.52026
 C708 C 0.71311 0.89377 0.47503
 H709 H 0.71783 0.88180 0.46230
 C710 C 0.69490 0.90810 0.47127
 H711 H 0.68553 0.90695 0.45576
 N712 N 0.72492 0.89504 0.49452
 C713 C 0.76052 0.84179 0.53003
 H714 H 0.77576 0.84088 0.52018
 C715 C 0.75737 0.82714 0.54803
 H716 H 0.77024 0.81494 0.55214
 C717 C 0.72495 0.85854 0.53656
 H718 H 0.71219 0.87053 0.53184
 C719 C 0.72112 0.84420 0.55468
 H720 H 0.70554 0.84535 0.56399
 Zn721 Zn 0.74996 0.87616 0.49989
 N722 N 0.74453 0.85727 0.52482
 C723 C 0.78682 0.89369 0.52481
 N724 N 0.77502 0.89501 0.50531
 C725 C 0.78026 0.91051 0.48938
 C726 C 0.79835 0.92513 0.49252
 C727 C 0.80503 0.90801 0.52862
 C728 C 0.73936 0.84188 0.46966
 C729 C 0.74251 0.82726 0.45164
 C730 C 0.77878 0.84432 0.44504
 C731 C 0.77496 0.85863 0.46318
 N732 N 0.75537 0.85734 0.47491
 H733 H 0.78208 0.88168 0.53750
 H734 H 0.77036 0.91144 0.47421
 H735 H 0.80248 0.93733 0.47971
 H736 H 0.81439 0.90682 0.54414
 H737 H 0.72412 0.84096 0.47950
 H738 H 0.72963 0.81508 0.44750
 H739 H 0.79437 0.84548 0.43574
 H740 H 0.78772 0.87061 0.46792
 C741 C 0.73751 0.82841 0.56049
 C742 C 0.68908 0.92385 0.48764
 C743 C 0.76238 0.82855 0.43919
 C744 C 0.81087 0.92382 0.51230
 C745 C 0.01023 0.22021 0.40894
 H746 H 0.02544 0.23015 0.40977
 C747 C 0.00717 0.20222 0.42362
 H748 H 0.02008 0.19819 0.43577
 C749 C -0.02536 0.21348 0.39231
 H750 H -0.03815 0.21812 0.38034
 C751 C -0.02909 0.19535 0.40669
 H752 H -0.04465 0.18595 0.40560
 N753 N -0.00582 0.22533 0.39351
 C754 C 0.02976 0.26086 0.34032
 H755 H 0.01986 0.27606 0.33940
 C756 C 0.04781 0.25770 0.32569
 H757 H 0.05190 0.27054 0.31349
 C758 C 0.03636 0.22535 0.35708
 H759 H 0.03165 0.21263 0.36908
 C760 C 0.05453 0.22153 0.34276
 H761 H 0.06388 0.20597 0.34392
 Zn762 Zn -0.00048 0.25031 0.37461
 N763 N 0.02456 0.24489 0.35578
 C764 C 0.02448 0.28719 0.39206
 N765 N 0.00491 0.27539 0.39335
 C766 C -0.01109 0.28060 0.40879
 C767 C -0.00795 0.29865 0.42340
 C768 C 0.02829 0.30536 0.40637
 C769 C -0.03077 0.23955 0.34042
 C770 C -0.04884 0.24261 0.32580
 C771 C -0.05557 0.27888 0.34267
 C772 C -0.03738 0.27514 0.35700
 N773 N -0.02556 0.25560 0.35580
 H774 H 0.03723 0.28247 0.38010
 H775 H -0.02632 0.27070 0.40970
 H776 H -0.02082 0.30275 0.43557
 H777 H 0.04387 0.31471 0.40522
 H778 H -0.02086 0.22435 0.33958
 H779 H -0.05294 0.22970 0.31368
 H780 H -0.06494 0.29444 0.34376
 H781 H -0.03266 0.28794 0.36892
 C782 C 0.06033 0.23788 0.32697
 C783 C -0.01265 0.18965 0.42244
 C784 C -0.06137 0.26243 0.32698
 C785 C 0.01190 0.31116 0.42213
 C786 C -0.01035 0.71985 0.09062
 H787 H -0.02557 0.72976 0.08974
 C788 C -0.00727 0.70179 0.07602
 H789 H -0.02017 0.69769 0.06388
 C790 C 0.02524 0.71325 0.10728
 H791 H 0.03803 0.71797 0.11922
 C792 C 0.02900 0.69507 0.09298
 H793 H 0.04456 0.68570 0.09412
 N794 N 0.00569 0.72507 0.10602
 C795 C -0.02991 0.76076 0.15908
 H796 H -0.02001 0.77598 0.15993
 C797 C -0.04794 0.75764 0.17374
 H798 H -0.05203 0.77052 0.18588
 C799 C -0.03650 0.72518 0.14246
 H800 H -0.03179 0.71241 0.13051
 C801 C -0.05466 0.72139 0.15681
 H802 H -0.06400 0.70581 0.15571
 Zn803 Zn 0.00033 0.75011 0.12482
 N804 N -0.02470 0.74474 0.14367
 C805 C -0.02464 0.78692 0.10725
 N806 N -0.00508 0.77512 0.10599
 C807 C 0.01092 0.78031 0.09054
 C808 C 0.00780 0.79833 0.07591
 C809 C -0.02844 0.80507 0.09292
 C810 C 0.03064 0.73955 0.15904
 C811 C 0.04869 0.74271 0.17367
 C812 C 0.05536 0.77892 0.15665
 C813 C 0.03718 0.77509 0.14233
 N814 N 0.02540 0.75553 0.14361
 H815 H -0.03740 0.78222 0.11923
 H816 H 0.02615 0.77041 0.08966
 H817 H 0.02068 0.80242 0.06374
 H818 H -0.04401 0.81443 0.09406
 H819 H 0.02076 0.72432 0.15995
 H820 H 0.05281 0.72986 0.18584
 H821 H 0.06469 0.79451 0.15551
 H822 H 0.03244 0.78783 0.13037
 C823 C -0.06045 0.73780 0.17254
 C824 C 0.01256 0.68926 0.07726
 C825 C 0.06119 0.76256 0.17241
 C826 C -0.01204 0.81085 0.07716
 C827 C 0.48943 0.21991 0.59145
 H828 H 0.47424 0.22985 0.59058
 C829 C 0.49249 0.20190 0.57679
 H830 H 0.47959 0.19786 0.56463
 C831 C 0.52500 0.21319 0.60812
 H832 H 0.53779 0.21784 0.62008
 C833 C 0.52873 0.19504 0.59376
 H834 H 0.54428 0.18564 0.59488
 N835 N 0.50547 0.22504 0.60688
 C836 C 0.46990 0.26068 0.65999
 H837 H 0.47982 0.27588 0.66089
 C838 C 0.45183 0.25757 0.67460
 H839 H 0.44773 0.27044 0.68675
 C840 C 0.46327 0.22515 0.64329
 H841 H 0.46798 0.21240 0.63132
 C842 C 0.44507 0.22137 0.65759
 H843 H 0.43568 0.20582 0.65644
 Zn844 Zn 0.50015 0.25005 0.62573
 N845 N 0.47510 0.24468 0.64456
 C846 C 0.47522 0.28689 0.60819
 N847 N 0.49478 0.27510 0.60693
 C848 C 0.51080 0.28029 0.59150
 C849 C 0.50768 0.29831 0.57686
 C850 C 0.47143 0.30504 0.59385
 C851 C 0.53045 0.23936 0.65993
 C852 C 0.54853 0.24244 0.67454
 C853 C 0.55527 0.27868 0.65759
 C854 C 0.53707 0.27493 0.64329
 N855 N 0.52524 0.25539 0.64453
 H856 H 0.46245 0.28219 0.62015
 H857 H 0.52602 0.27039 0.59061
 H858 H 0.52055 0.30239 0.56469
 H859 H 0.45584 0.31439 0.59498
 H860 H 0.52052 0.22416 0.66081
 H861 H 0.55263 0.22955 0.68667
 H862 H 0.56465 0.29424 0.65647
 H863 H 0.53235 0.28770 0.63135
 C864 C 0.43927 0.23776 0.67333
 C865 C 0.51230 0.18933 0.57801
 C866 C 0.56107 0.26226 0.67331
 C867 C 0.48783 0.31082 0.57809
 C868 C 0.51045 0.72004 0.90933
 H869 H 0.52566 0.72996 0.91017
 C870 C 0.50741 0.70200 0.92396
 H871 H 0.52033 0.69793 0.93609
 C872 C 0.47484 0.71336 0.89273
 H873 H 0.46203 0.71804 0.88080
 C874 C 0.47112 0.69519 0.90707
 H875 H 0.45555 0.68580 0.90597
 N876 N 0.49439 0.72520 0.89394
 C877 C 0.52989 0.76086 0.84079
 H878 H 0.51999 0.77607 0.83992
 C879 C 0.54792 0.75775 0.82613
 H880 H 0.55201 0.77063 0.81397
 C881 C 0.53652 0.72531 0.85745
 H882 H 0.53182 0.71255 0.86941
 C883 C 0.55467 0.72153 0.84309
 H884 H 0.56403 0.70597 0.84421
 Zn885 Zn 0.49970 0.75022 0.87509
 N886 N 0.52471 0.74485 0.85622
 C887 C 0.52468 0.78707 0.89258
 N888 N 0.50513 0.77526 0.89389
 C889 C 0.48914 0.78045 0.90935
 C890 C 0.49229 0.79848 0.92397
 C891 C 0.52850 0.80524 0.90690
 C892 C 0.46935 0.73957 0.84093
 C893 C 0.45126 0.74267 0.82635
 C894 C 0.44456 0.77889 0.84334
 C895 C 0.46279 0.77512 0.85762
 N896 N 0.47460 0.75558 0.85634
 H897 H 0.53743 0.78237 0.88060
 H898 H 0.47392 0.77054 0.91027
 H899 H 0.47943 0.80257 0.93616
 H900 H 0.54408 0.81460 0.90573
 H901 H 0.47926 0.72437 0.84002
 H902 H 0.44713 0.72980 0.81421
 H903 H 0.43520 0.79445 0.84449
 H904 H 0.46753 0.78788 0.86956
 C905 C 0.56045 0.73793 0.82735
 C906 C 0.48758 0.68944 0.92277
 C907 C 0.43873 0.76249 0.82762
 C908 C 0.51213 0.81101 0.92268
 C909 C 0.12835 0.22471 0.27222
 C910 C 0.11279 0.22770 0.28480
 C911 C 0.09455 0.23123 0.29950
 C912 C 0.07896 0.23426 0.31203
 C913 C 0.62854 0.72501 0.77262
 C914 C 0.61295 0.72794 0.78518
 C915 C 0.59469 0.73140 0.79986
 C916 C 0.57908 0.73437 0.81239
 C917 C 0.37044 0.77530 0.77309
 C918 C 0.38607 0.77242 0.78561
 C919 C 0.40438 0.76900 0.80025
 C920 C 0.42003 0.76605 0.81273
 C921 C -0.12959 0.27511 0.27233
 C922 C -0.11396 0.27225 0.28487
 C923 C -0.09567 0.26886 0.29953
 C924 C -0.08004 0.26594 0.31205
 C925 C -0.12842 0.72476 0.22740
 C926 C -0.11287 0.72772 0.21480
 C927 C -0.09465 0.73121 0.20007
 C928 C -0.07907 0.73421 0.18751
 C929 C 0.37092 0.22493 0.72777
 C930 C 0.38658 0.22783 0.71529
 C931 C 0.40492 0.23126 0.70068
 C932 C 0.42058 0.23421 0.68822
 C933 C 0.62929 0.27511 0.72792
 C934 C 0.61368 0.27220 0.71538
 C935 C 0.59539 0.26876 0.70073
 C936 C 0.57975 0.26580 0.68822
 C937 C 0.12915 0.77574 0.22726
 C938 C 0.11361 0.77275 0.21465
 C939 C 0.09539 0.76923 0.19992
 C940 C 0.07981 0.76620 0.18737
 C941 C 0.27160 0.12878 0.22403
 C942 C 0.28400 0.11310 0.22722
 C943 C 0.29856 0.09476 0.23089
 C944 C 0.31102 0.07911 0.23398
 C945 C 0.77186 0.62927 0.72420
 C946 C 0.78423 0.61355 0.72730
 C947 C 0.79875 0.59516 0.73088
 C948 C 0.81119 0.57948 0.73390
 C949 C 0.77174 0.37063 0.77541
 C950 C 0.78413 0.38634 0.77231
 C951 C 0.79868 0.40472 0.76874
 C952 C 0.81113 0.42040 0.76574
 C953 C 0.27167 -0.12956 0.27613
 C954 C 0.28410 -0.11388 0.27299
 C955 C 0.29868 -0.09553 0.26938
 C956 C 0.31114 -0.07987 0.26632
 C957 C 0.22804 -0.12998 0.72415
 C958 C 0.21573 -0.11420 0.72719
 C959 C 0.20128 -0.09575 0.73072
 C960 C 0.18891 -0.08000 0.73371
 C961 C 0.72803 0.37049 0.22460
 C962 C 0.71566 0.38622 0.22766
 C963 C 0.70114 0.40461 0.23121
 C964 C 0.68871 0.42030 0.23422
 C965 C 0.72825 0.62903 0.27598
 C966 C 0.71582 0.61334 0.27286
 C967 C 0.70125 0.59499 0.26927
 C968 C 0.68878 0.57933 0.26624
 C969 C 0.22860 0.12917 0.77512
 C970 C 0.21627 0.11340 0.77206
 C971 C 0.20179 0.09496 0.76853
 C972 C 0.18936 0.07925 0.76554
 C973 C 0.22437 0.27352 0.12837
 C974 C 0.22744 0.28600 0.11278
 C975 C 0.23102 0.30061 0.09452
 C976 C 0.23406 0.31310 0.07892
 C977 C 0.72420 0.77386 0.62852
 C978 C 0.72727 0.78634 0.61293
 C979 C 0.73085 0.80097 0.59468
 C980 C 0.73390 0.81347 0.57909
 C981 C 0.77568 0.77402 0.37115
 C982 C 0.77261 0.78652 0.38673
 C983 C 0.76904 0.80115 0.40498
 C984 C 0.76599 0.81363 0.42057
 C985 C 0.27607 0.27368 -0.12904
 C986 C 0.27297 0.28615 -0.11345
 C987 C 0.26936 0.30076 -0.09519
 C988 C 0.26629 0.31325 -0.07960
 C989 C 0.72402 0.22612 -0.12881
 C990 C 0.72710 0.21365 -0.11321
 C991 C 0.73071 0.19907 -0.09493
 C992 C 0.73381 0.18661 -0.07932
 C993 C 0.22485 0.72655 0.37116
 C994 C 0.22788 0.71403 0.38674
 C995 C 0.23140 0.69939 0.40498
 C996 C 0.23440 0.68688 0.42057
 C997 C 0.27537 0.72669 0.62858
 C998 C 0.27238 0.71420 0.61298
 C999 C 0.26890 0.69957 0.59471
 C1000 C 0.26593 0.68706 0.57912
 C1001 C 0.77625 0.22634 0.12864
 C1002 C 0.77319 0.21388 0.11303
 C1003 C 0.76961 0.19927 0.09476
 C1004 C 0.76654 0.18679 0.07916
 C1005 C 0.47477 0.37863 0.52314
 C1006 C 0.47773 0.36313 0.53577
 C1007 C 0.48122 0.34495 0.55054
 C1008 C 0.48423 0.32941 0.56311
 C1009 C -0.02494 0.87887 0.02242
 C1010 C -0.02203 0.86331 0.03499
 C1011 C -0.01859 0.84507 0.04968
 C1012 C -0.01562 0.82947 0.06222
 C1013 C 0.02522 0.62103 0.02274
 C1014 C 0.02238 0.63666 0.03525
 C1015 C 0.01901 0.65496 0.04988
 C1016 C 0.01609 0.67059 0.06237
 C1017 C 0.52493 0.12128 0.52326
 C1018 C 0.52208 0.13686 0.53581
 C1019 C 0.51871 0.15512 0.55051
 C1020 C 0.51581 0.17071 0.56305
 C1021 C -0.02531 0.12166 0.47728
 C1022 C -0.02244 0.13723 0.46470
 C1023 C -0.01907 0.15546 0.44998
 C1024 C -0.01615 0.17104 0.43742
 C1025 C 0.47499 0.62123 0.97737
 C1026 C 0.47783 0.63686 0.96485
 C1027 C 0.48119 0.65516 0.95020
 C1028 C 0.48409 0.67078 0.93770
 C1029 C 0.52515 0.87900 0.97743
 C1030 C 0.52221 0.86345 0.96485
 C1031 C 0.51874 0.84522 0.95015
 C1032 C 0.51574 0.82963 0.93762
 C1033 C 0.02506 0.37903 0.47700
 C1034 C 0.02207 0.36352 0.46437
 C1035 C 0.01854 0.34532 0.44964
 C1036 C 0.01552 0.32976 0.43708
 C1037 C 0.37925 0.52196 0.47455
 C1038 C 0.36361 0.53443 0.47768
 C1039 C 0.34530 0.54906 0.48127
 C1040 C 0.32967 0.56158 0.48428
 C1041 C 0.87958 0.02226 -0.02599
 C1042 C 0.86388 0.03466 -0.02286
 C1043 C 0.84550 0.04919 -0.01924
 C1044 C 0.82982 0.06163 -0.01618
 C1045 C 0.62088 0.02222 0.02606
 C1046 C 0.63659 0.03461 0.02294
 C1047 C 0.65498 0.04915 0.01932
 C1048 C 0.67067 0.06159 0.01625
 C1049 C 0.12085 0.52223 0.52557
 C1050 C 0.13652 0.53467 0.52243
 C1051 C 0.15487 0.54925 0.51881
 C1052 C 0.17053 0.56173 0.51578
 C1053 C 0.12059 0.47758 -0.02569
 C1054 C 0.13634 0.46523 -0.02265
 C1055 C 0.15476 0.45072 -0.01912
 C1056 C 0.17047 0.43830 -0.01614
 C1057 C 0.62050 0.97805 0.47459
 C1058 C 0.63625 0.96569 0.47762
 C1059 C 0.65466 0.95117 0.48113
 C1060 C 0.67036 0.93874 0.48411
 C1061 C 0.87934 0.97812 0.52566
 C1062 C 0.86364 0.96571 0.52254
 C1063 C 0.84526 0.95116 0.51894
 C1064 C 0.82958 0.93871 0.51590
 C1065 C 0.37955 0.47765 0.02546
 C1066 C 0.36381 0.46528 0.02236
 C1067 C 0.34541 0.45076 0.01877
 C1068 C 0.32971 0.43833 0.01574
 C1069 C 0.52388 0.47397 0.37897
 C1070 C 0.53639 0.47701 0.36338
 C1071 C 0.55102 0.48059 0.34512
 C1072 C 0.56351 0.48366 0.32952
 C1073 C 0.02418 -0.02571 0.87828
 C1074 C 0.03670 -0.02268 0.86270
 C1075 C 0.05136 -0.01914 0.84446
 C1076 C 0.06388 -0.01613 0.82887
 C1077 C 0.02419 0.02596 0.62113
 C1078 C 0.03673 0.02286 0.63668
 C1079 C 0.05141 0.01922 0.65489
 C1080 C 0.06394 0.01612 0.67045
 C1081 C 0.52385 0.52576 0.12154
 C1082 C 0.53633 0.52268 0.13714
 C1083 C 0.55096 0.51908 0.15540
 C1084 C 0.56346 0.51602 0.17099
 C1085 C 0.47628 -0.02589 0.12179
 C1086 C 0.46377 -0.02288 0.13738
 C1087 C 0.44910 -0.01935 0.15561
 C1088 C 0.43656 -0.01633 0.17118
 C1089 C 0.97611 0.47437 0.62115
 C1090 C 0.96360 0.47739 0.63675
 C1091 C 0.94897 0.48093 0.65501
 C1092 C 0.93647 0.48394 0.67061
 C1093 C 0.97610 0.52574 0.87855
 C1094 C 0.96359 0.52268 0.86297
 C1095 C 0.94895 0.51909 0.84472
 C1096 C 0.93644 0.51604 0.82912
 C1097 C 0.47588 0.02604 0.37899
 C1098 C 0.46336 0.02294 0.36342
 C1099 C 0.44872 0.01929 0.34518
 C1100 C 0.43622 0.01617 0.32959
   
