data_POSCAR
  _audit_creation_date              2014-09-24
  _audit_creation_method            'ToBaCCo'
  _symmetry_space_group_name_H-M    'P1'
  _symmetry_Int_Tables_number       1
  _symmetry_cell_setting            triclinic
  loop_
  _symmetry_equiv_pos_as_xyz
 x,y,z
_cell_length_a 67.7769
_cell_length_b 67.4333
_cell_length_c 26.6508
_cell_angle_alpha 90.350500
_cell_angle_beta 89.686200
_cell_angle_gamma 119.459900
loop_
  _atom_site_label
  _atom_site_type_symbol
  _atom_site_fract_x
  _atom_site_fract_y
  _atom_site_fract_z
C1 C 0.19606 0.48355 0.55554
 C2 C 0.18683 0.48644 0.51106
 C3 C 0.19265 0.48207 0.46332
 C4 C 0.21032 0.47647 0.45956
 C5 C 0.22082 0.47437 0.50411
 C6 C 0.21346 0.47760 0.55214
 C7 C 0.22553 0.47747 0.59473
 C8 C 0.24395 0.47383 0.59106
 C9 C 0.25147 0.47005 0.54452
 C10 C 0.23988 0.47073 0.50040
 C11 C 0.21944 0.47526 0.41277
 C12 C 0.23780 0.47164 0.40925
 C13 C 0.24844 0.46969 0.45227
 C14 C 0.26845 0.46837 0.44815
 C15 C 0.27943 0.46747 0.49117
 C16 C 0.27154 0.46812 0.53975
 H17 H 0.22199 0.48167 0.63157
 H18 H 0.25284 0.47559 0.62552
 H19 H 0.21367 0.47851 0.37784
 H20 H 0.24418 0.47131 0.37210
 H21 H 0.17320 0.49045 0.51403
 H22 H 0.29472 0.46629 0.48601
 C23 C 0.52154 -0.28020 0.44772
 C24 C 0.51823 -0.29275 0.49141
 C25 C 0.52410 -0.28259 0.53924
 C26 C 0.53231 -0.25860 0.54316
 C27 C 0.53505 -0.24568 0.49883
 C28 C 0.52983 -0.25653 0.45107
 C29 C 0.53202 -0.24366 0.40806
 C30 C 0.53939 -0.22050 0.41145
 C31 C 0.54479 -0.20925 0.45802
 C32 C 0.54236 -0.22192 0.50227
 C33 C 0.53658 -0.24724 0.58971
 C34 C 0.54411 -0.22404 0.59287
 C35 C 0.54632 -0.21109 0.54999
 C36 C 0.55302 -0.18750 0.55323
 C37 C 0.55677 -0.17518 0.50861
 C38 C 0.55173 -0.18582 0.46169
 H39 H 0.52758 -0.25143 0.37126
 H40 H 0.54058 -0.21158 0.37702
 H41 H 0.53360 -0.25588 0.62503
 H42 H 0.54831 -0.21648 0.62982
 H43 H 0.51225 -0.31084 0.48716
 H44 H 0.56129 -0.15735 0.51027
 C45 C 1.20323 0.72216 0.45084
 C46 C 1.19204 0.71213 0.49530
 C47 C 1.20141 0.72067 0.54275
 C48 C 1.22357 0.74020 0.54502
 C49 C 1.23524 0.75074 0.49958
 C50 C 1.22482 0.74169 0.45252
 C51 C 1.23686 0.75127 0.40822
 C52 C 1.25897 0.76908 0.40946
 C53 C 1.27002 0.77864 0.45513
 C54 C 1.25806 0.76918 0.50094
 C55 C 1.23550 0.74793 0.59040
 C56 C 1.25767 0.76572 0.59178
 C57 C 1.26932 0.77696 0.54792
 C58 C 1.29263 0.79388 0.54904
 C59 C 1.30411 0.80195 0.50333
 C60 C 1.29331 0.79567 0.45656
 H61 H 1.22963 0.74445 0.37182
 H62 H 1.26748 0.77405 0.37373
 H63 H 1.22868 0.73957 0.62560
 H64 H 1.26588 0.76933 0.62784
 H65 H 1.17535 0.69721 0.49231
 H66 H 1.32174 0.81517 0.50443
 C67 C 0.71431 0.52424 0.45901
 C68 C 0.70352 0.52091 0.50526
 C69 C 0.71443 0.52236 0.55091
 C70 C 0.73720 0.52644 0.54948
 C71 C 0.74836 0.52947 0.50230
 C72 C 0.73691 0.52866 0.45705
 C73 C 0.74778 0.53079 0.41082
 C74 C 0.76915 0.53291 0.40850
 C75 C 0.78050 0.53286 0.45228
 C76 C 0.77039 0.53163 0.49991
 C77 C 0.74825 0.52504 0.59272
 C78 C 0.76969 0.52711 0.59037
 C79 C 0.78146 0.53078 0.54465
 C80 C 0.80273 0.53114 0.54113
 C81 C 0.81165 0.53159 0.49309
 C82 C 0.80105 0.53251 0.44935
 H83 H 0.73959 0.53000 0.37560
 H84 H 0.77637 0.53382 0.37170
 H85 H 0.74007 0.52087 0.62891
 H86 H 0.77599 0.52428 0.62501
 H87 H 0.68621 0.51781 0.50535
 H88 H 0.82756 0.53155 0.48900
 C89 C 0.46393 0.18490 0.54281
 C90 C 0.46332 0.17487 0.49640
 C91 C 0.46243 0.18485 0.45140
 C92 C 0.46195 0.20556 0.45234
 C93 C 0.46271 0.21618 0.49912
 C94 C 0.46359 0.20572 0.54455
 C95 C 0.46574 0.21713 0.59007
 C96 C 0.46731 0.23849 0.59128
 C97 C 0.46640 0.24936 0.54702
 C98 C 0.46428 0.23804 0.50022
 C99 C 0.46217 0.21659 0.40770
 C100 C 0.46387 0.23796 0.40863
 C101 C 0.46525 0.24912 0.45426
 C102 C 0.46900 0.27162 0.45508
 C103 C 0.47151 0.28264 0.50093
 C104 C 0.46978 0.27202 0.54724
 H105 H 0.46711 0.21006 0.62533
 H106 H 0.47046 0.24661 0.62751
 H107 H 0.46173 0.20910 0.37141
 H108 H 0.46484 0.24591 0.37293
 H109 H 0.46432 0.15929 0.49518
 H110 H 0.47408 0.29984 0.50011
 C111 C 0.72096 0.20384 0.54770
 C112 C 0.71104 0.19315 0.50240
 C113 C 0.72094 0.20247 0.45620
 C114 C 0.74159 0.22330 0.45484
 C115 C 0.75195 0.23455 0.50054
 C116 C 0.74161 0.22471 0.54714
 C117 C 0.75134 0.23673 0.59159
 C118 C 0.77075 0.25802 0.59065
 C119 C 0.78170 0.26822 0.54519
 C120 C 0.77186 0.25635 0.49946
 C121 C 0.75139 0.23382 0.40909
 C122 C 0.77068 0.25511 0.40793
 C123 C 0.78104 0.26676 0.45246
 C124 C 0.79949 0.28912 0.45118
 C125 C 0.80870 0.30068 0.49596
 C126 C 0.80079 0.29069 0.54329
 H127 H 0.74355 0.23016 0.62769
 H128 H 0.77609 0.26664 0.62624
 H129 H 0.74387 0.22606 0.37354
 H130 H 0.77695 0.26263 0.37151
 H131 H 0.69500 0.17735 0.50308
 H132 H 0.82313 0.31773 0.49330
 N133 N 0.97467 0.53246 0.05190
 N134 N 0.95813 0.53729 0.05869
 N135 N 1.02123 0.54081 0.09049
 N136 N 1.03774 0.55105 0.12323
 N137 N 1.02231 0.55520 0.05616
 N138 N 1.03956 0.57579 0.06501
 N139 N 0.97361 0.51794 0.08588
 N140 N 0.95628 0.51228 0.11623
 C141 C 0.94676 0.52440 0.09888
 C142 C 1.04900 0.57281 0.10700
 N143 N 1.02085 0.48364 0.05906
 N144 N 1.03685 0.47859 0.07047
 N145 N 0.97272 0.47499 0.08759
 N146 N 0.95557 0.46433 0.11879
 N147 N 0.97323 0.46071 0.05456
 N148 N 0.95648 0.43981 0.06280
 N149 N 1.02028 0.49782 0.09227
 N150 N 1.03586 0.50292 0.12684
 Mn151 Mn 0.99694 0.50789 0.08948
 C152 C 1.04611 0.49094 0.11277
 C153 C 0.94555 0.44248 0.10283
 N154 N 1.02447 0.55536 -0.05248
 N155 N 1.04123 0.57623 -0.06153
 N156 N 0.97722 0.51821 -0.08976
 N157 N 0.96148 0.51294 -0.12400
 N158 N 0.97674 0.53245 -0.05661
 N159 N 0.96056 0.53732 -0.06763
 N160 N 1.02471 0.54092 -0.08540
 N161 N 1.04156 0.55135 -0.11728
 Mn162 Mn 0.99956 0.54418 -0.00025
 C163 C 1.05180 0.57327 -0.10196
 C164 C 0.95116 0.52485 -0.10974
 N165 N 0.97536 0.46082 -0.05393
 N166 N 0.95858 0.44006 -0.06386
 N167 N 1.02394 0.49812 -0.08365
 N168 N 1.04140 0.50405 -0.11374
 N169 N 1.02308 0.48376 -0.04951
 N170 N 1.03992 0.47932 -0.05590
 N171 N 0.97637 0.47525 -0.08807
 N172 N 0.96038 0.46488 -0.12183
 Mn173 Mn 0.99813 0.47194 0.00255
 Mn174 Mn 1.00055 0.50811 -0.08708
 Cl175 Cl 0.99880 0.50803 0.00119
 C176 C 0.94939 0.44302 -0.10633
 C177 C 1.05122 0.49227 -0.09611
 N178 N 0.46787 0.44649 0.05825
 N179 N 0.46384 0.42566 0.06849
 N180 N 0.45682 0.48470 0.08682
 N181 N 0.44529 0.49064 0.11742
 N182 N 0.44341 0.47009 0.05303
 N183 N 0.42224 0.46548 0.06020
 N184 N 0.48125 0.46100 0.09221
 N185 N 0.48687 0.45055 0.12616
 C186 C 0.47595 0.42857 0.11089
 C187 C 0.42381 0.47862 0.10035
 N188 N 0.51288 0.54091 0.05338
 N189 N 0.51711 0.56205 0.06087
 N190 N 0.52302 0.50357 0.09252
 N191 N 0.53370 0.49846 0.12682
 N192 N 0.53732 0.51730 0.05875
 N193 N 0.55823 0.52207 0.06947
 N194 N 0.49853 0.52721 0.08713
 N195 N 0.49241 0.53854 0.11808
 Mn196 Mn 0.48990 0.49412 0.09014
 C197 C 0.50402 0.56018 0.10117
 C198 C 0.55559 0.51003 0.11191
 N199 N 0.44494 0.46887 -0.05545
 N200 N 0.42402 0.46391 -0.06700
 N201 N 0.48382 0.45897 -0.08363
 N202 N 0.49002 0.44782 -0.11479
 N203 N 0.46937 0.44513 -0.05023
 N204 N 0.46517 0.42400 -0.05823
 N205 N 0.45936 0.48250 -0.08918
 N206 N 0.44878 0.48724 -0.12434
 Mn207 Mn 0.45611 0.45736 0.00141
 C208 C 0.42683 0.47569 -0.10999
 C209 C 0.47839 0.42611 -0.09850
 N210 N 0.53893 0.51597 -0.04963
 N211 N 0.56011 0.52060 -0.05706
 N212 N 0.50106 0.52502 -0.08896
 N213 N 0.49640 0.53554 -0.12451
 N214 N 0.51445 0.53960 -0.05512
 N215 N 0.51939 0.56057 -0.06704
 N216 N 0.52547 0.50137 -0.08334
 N217 N 0.53695 0.49549 -0.11421
 Mn218 Mn 0.52616 0.52872 0.00187
 Mn219 Mn 0.49243 0.49196 -0.08663
 Cl220 Cl 0.49114 0.49304 0.00171
 C221 C 0.55846 0.50749 -0.09737
 C222 C 0.50778 0.55764 -0.11027
 N223 N 0.46004 -0.02735 0.05450
 N224 N 0.43985 -0.04484 0.06479
 N225 N 0.49490 0.02245 0.08343
 N226 N 0.49917 0.03942 0.11421
 N227 N 0.48007 0.02034 0.04933
 N228 N 0.47357 0.03572 0.05657
 N229 N 0.47480 -0.02521 0.08880
 N230 N 0.46520 -0.04119 0.12306
 C231 C 0.44347 -0.05332 0.10759
 C232 C 0.48586 0.04758 0.09704
 N233 N 0.55358 0.02689 0.05225
 N234 N 0.57404 0.04415 0.06146
 N235 N 0.51896 -0.02124 0.09066
 N236 N 0.51527 -0.03629 0.12589
 N237 N 0.53356 -0.02078 0.05744
 N238 N 0.54031 -0.03552 0.06945
 N239 N 0.53892 0.02640 0.08533
 N240 N 0.54886 0.04337 0.11748
 Mn241 Mn 0.50688 0.00060 0.08743
 C242 C 0.57067 0.05438 0.10201
 C243 C 0.52856 -0.04515 0.11211
 N244 N 0.47994 0.01772 -0.05925
 N245 N 0.47380 0.03301 -0.07025
 N246 N 0.47440 -0.02960 -0.08700
 N247 N 0.46448 -0.04691 -0.11835
 N248 N 0.45979 -0.02998 -0.05388
 N249 N 0.43941 -0.04755 -0.06218
 N250 N 0.49444 0.01808 -0.09264
 N251 N 0.49869 0.03367 -0.12696
 Mn252 Mn 0.46967 -0.00484 -0.00235
 C253 C 0.48578 0.04287 -0.11252
 C254 C 0.44274 -0.05801 -0.10233
 N255 N 0.53351 -0.02324 -0.05097
 N256 N 0.54074 -0.03801 -0.05843
 N257 N 0.53864 0.02205 -0.09082
 N258 N 0.54822 0.03827 -0.12463
 N259 N 0.55332 0.02430 -0.05619
 N260 N 0.57342 0.04204 -0.06583
 N261 N 0.51854 -0.02575 -0.08510
 N262 N 0.51485 -0.04254 -0.11612
 Mn263 Mn 0.54376 0.00182 0.00062
 Mn264 Mn 0.50650 -0.00384 -0.08936
 Cl265 Cl 0.50670 -0.00157 -0.00093
 C266 C 0.52870 -0.05008 -0.09884
 C267 C 0.56986 0.05059 -0.10857
 C268 C 1.15462 0.48598 0.34655
 N269 N 1.15861 0.49873 0.38863
 N270 N 1.17105 0.49751 0.42557
 C271 C 1.18035 0.48370 0.42209
 N272 N 1.17609 0.47073 0.37992
 N273 N 1.16352 0.47185 0.34281
 C274 C 1.14031 0.48733 0.30706
 N275 N 1.13369 0.47324 0.26644
 N276 N 1.11984 0.47424 0.23233
 C277 C 1.11223 0.48941 0.23772
 N278 N 1.11906 0.50354 0.27806
 N279 N 1.13280 0.50252 0.31203
 C280 C 1.09601 0.49018 0.20257
 N281 N 1.08818 0.50488 0.21169
 N282 N 1.07259 0.50522 0.18226
 C283 C 1.06424 0.49092 0.14241
 N284 N 1.07219 0.47629 0.13270
 N285 N 1.08782 0.47591 0.16238
 C286 C 0.51022 0.68005 0.31854
 N287 N 0.49397 0.67386 0.35438
 N288 N 0.49720 0.68710 0.39420
 C289 C 0.51675 0.70715 0.39963
 N290 N 0.53294 0.71351 0.36348
 N291 N 0.52971 0.70022 0.32358
 C292 C 0.50756 0.66393 0.27829
 N293 N 0.52423 0.66896 0.24391
 N294 N 0.52263 0.65328 0.21091
 C295 C 0.50435 0.63199 0.21131
 N296 N 0.48757 0.62714 0.24518
 N297 N 0.48913 0.64280 0.27797
 C298 C 0.50345 0.61379 0.17917
 N299 N 0.48738 0.59187 0.18771
 N300 N 0.48739 0.57492 0.16191
 C301 C 0.50336 0.57923 0.12633
 N302 N 0.51927 0.60118 0.11709
 N303 N 0.51937 0.61817 0.14323
 C304 C 0.33367 -0.16772 0.33663
 N305 N 0.34265 -0.17202 0.37762
 N306 N 0.32947 -0.18418 0.41542
 C307 C 0.30664 -0.19284 0.41395
 N308 N 0.29768 -0.18843 0.37270
 N309 N 0.31091 -0.17614 0.33474
 C310 C 0.34889 -0.15313 0.29689
 N311 N 0.34118 -0.14617 0.25751
 N312 N 0.35565 -0.13168 0.22376
 C313 C 0.37829 -0.12370 0.22833
 N314 N 0.38586 -0.13090 0.26735
 N315 N 0.37147 -0.14531 0.30092
 C316 C 0.39481 -0.10645 0.19415
 N317 N 0.41724 -0.09726 0.20396
 N318 N 0.43259 -0.08063 0.17558
 C319 C 0.42615 -0.07260 0.13611
 N320 N 0.40372 -0.08192 0.12569
 N321 N 0.38828 -0.09856 0.15435
 C322 C 0.83308 0.52729 0.31935
 N323 N 0.83172 0.54646 0.32826
 N324 N 0.82085 0.54798 0.36874
 C325 C 0.81099 0.53039 0.40159
 N326 N 0.81227 0.51126 0.39245
 N327 N 0.82303 0.50971 0.35204
 C328 C 0.84678 0.52595 0.27796
 N329 N 0.84871 0.50697 0.27265
 N330 N 0.86278 0.50613 0.23883
 C331 C 0.87545 0.52422 0.20883
 N332 N 0.87326 0.54313 0.21335
 N333 N 0.85917 0.54399 0.24740
 C334 C 0.89272 0.52374 0.17611
 N335 N 0.90514 0.54083 0.14333
 N336 N 0.92198 0.54083 0.11707
 C337 C 0.92705 0.52384 0.12315
 N338 N 0.91451 0.50675 0.15552
 N339 N 0.89762 0.50664 0.18130
 C340 C 0.47497 0.31268 0.33221
 N341 N 0.49153 0.31975 0.36725
 N342 N 0.48988 0.30627 0.40514
 C343 C 0.47166 0.28512 0.40941
 N344 N 0.45507 0.27793 0.37423
 N345 N 0.45673 0.29146 0.33618
 C346 C 0.47621 0.32864 0.29338
 N347 N 0.45969 0.32248 0.25834
 N348 N 0.46032 0.33774 0.22575
 C349 C 0.47743 0.35968 0.22727
 N350 N 0.49399 0.36570 0.26198
 N351 N 0.49342 0.35048 0.29431
 C352 C 0.47752 0.37719 0.19457
 N353 N 0.49240 0.39947 0.20360
 N354 N 0.49199 0.41571 0.17631
 C355 C 0.47678 0.41030 0.13869
 N356 N 0.46200 0.38800 0.12911
 N357 N 0.46231 0.37171 0.15674
 C358 C 0.68146 0.16705 0.33197
 N359 N 0.67311 0.17488 0.36870
 N360 N 0.68593 0.18652 0.40747
 C361 C 0.70767 0.19092 0.41092
 N362 N 0.71613 0.18313 0.37416
 N363 N 0.70323 0.17140 0.33530
 C364 C 0.66644 0.15295 0.29139
 N365 N 0.67352 0.14331 0.25577
 N366 N 0.65908 0.12927 0.22137
 C367 C 0.63710 0.12440 0.22148
 N368 N 0.63018 0.13427 0.25671
 N369 N 0.64456 0.14828 0.29093
 C370 C 0.62038 0.10746 0.18703
 N371 N 0.59808 0.10056 0.19382
 N372 N 0.58242 0.08403 0.16568
 C373 C 0.58843 0.07382 0.12940
 N374 N 0.61076 0.08089 0.12190
 N375 N 0.62649 0.09741 0.15037
 C376 C 0.47351 0.15103 -0.33660
 N377 N 0.45574 0.15508 -0.33622
 N378 N 0.45291 0.16650 -0.37371
 C379 C 0.46779 0.17426 -0.41273
 N380 N 0.48552 0.17024 -0.41285
 N381 N 0.48837 0.15893 -0.37547
 C382 C 0.47617 0.13710 -0.29786
 N383 N 0.49362 0.13269 -0.30136
 N384 N 0.49560 0.11890 -0.26884
 C385 C 0.48023 0.10896 -0.23141
 N386 N 0.46286 0.11354 -0.22738
 N387 N 0.46085 0.12736 -0.26010
 C388 C 0.48200 0.09259 -0.19817
 N389 N 0.46747 0.08269 -0.15913
 N390 N 0.46881 0.06709 -0.13095
 C391 C 0.48464 0.06080 -0.14109
 N392 N 0.49916 0.07079 -0.17989
 N393 N 0.49791 0.08641 -0.20779
 C394 C 0.67463 0.51351 -0.32384
 N395 N 0.69744 0.52736 -0.32119
 N396 N 0.71057 0.52989 -0.36097
 C397 C 0.70140 0.51883 -0.40492
 N398 N 0.67855 0.50520 -0.40705
 N399 N 0.66551 0.50246 -0.36743
 C400 C 0.65934 0.51095 -0.28203
 N401 N 0.63740 0.49427 -0.28466
 N402 N 0.62247 0.49273 -0.25023
 C403 C 0.62882 0.50786 -0.21178
 N404 N 0.65089 0.52444 -0.20847
 N405 N 0.66594 0.52593 -0.24301
 C406 C 0.61127 0.50702 -0.17780
 N407 N 0.61604 0.52274 -0.14086
 N408 N 0.59936 0.52265 -0.11372
 C409 C 0.57739 0.50691 -0.12288
 N410 N 0.57276 0.49113 -0.15929
 N411 N 0.58935 0.49116 -0.18611
 C412 C 0.83738 0.33127 -0.33679
 N413 N 0.82666 0.30823 -0.33251
 N414 N 0.81441 0.29495 -0.37056
 C415 C 0.81242 0.30415 -0.41433
 N416 N 0.82344 0.32723 -0.41816
 N417 N 0.83548 0.34045 -0.38028
 C418 C 0.85160 0.34657 -0.29660
 N419 N 0.85997 0.36930 -0.30175
 N420 N 0.87402 0.38381 -0.26783
 C421 C 0.88036 0.37624 -0.22735
 N422 N 0.87185 0.35343 -0.22168
 N423 N 0.85766 0.33882 -0.25574
 C424 C 0.89720 0.39301 -0.19277
 N425 N 0.90536 0.38680 -0.15287
 N426 N 0.92171 0.40261 -0.12416
 C427 C 0.93043 0.42511 -0.13460
 N428 N 0.92210 0.43119 -0.17410
 N429 N 0.90582 0.41548 -0.20253
 C430 C 0.55107 -0.15301 -0.32004
 N431 N 0.53686 -0.17574 -0.32464
 N432 N 0.53819 -0.18711 -0.36441
 C433 C 0.55359 -0.17620 -0.40149
 N434 N 0.56767 -0.15336 -0.39673
 N435 N 0.56661 -0.14205 -0.35661
 C436 C 0.54827 -0.14001 -0.27898
 N437 N 0.56585 -0.11966 -0.26443
 N438 N 0.56278 -0.10685 -0.23042
 C439 C 0.54195 -0.11377 -0.21040
 N440 N 0.52440 -0.13417 -0.22478
 N441 N 0.52755 -0.14715 -0.25817
 C442 C 0.53804 -0.09850 -0.17760
 N443 N 0.51766 -0.09924 -0.17783
 N444 N 0.51458 -0.08404 -0.15185
 C445 C 0.53165 -0.06780 -0.12405
 N446 N 0.55192 -0.06728 -0.12302
 N447 N 0.55512 -0.08226 -0.14971
 C448 C 0.31294 0.46887 -0.34542
 N449 N 0.32120 0.47650 -0.39190
 N450 N 0.30768 0.47607 -0.42821
 C451 C 0.28525 0.46828 -0.41990
 N452 N 0.27691 0.46026 -0.37327
 N453 N 0.29047 0.46056 -0.33666
 C454 C 0.32868 0.47011 -0.30626
 N455 N 0.32148 0.45986 -0.26088
 N456 N 0.33643 0.46099 -0.22686
 C457 C 0.35902 0.47251 -0.23710
 N458 N 0.36606 0.48280 -0.28225
 N459 N 0.35121 0.48159 -0.31612
 C460 C 0.37607 0.47374 -0.20151
 N461 N 0.39831 0.48664 -0.21343
 N462 N 0.41426 0.48739 -0.18351
 C463 C 0.40867 0.47525 -0.14042
 N464 N 0.38641 0.46240 -0.12796
 N465 N 0.37034 0.46167 -0.15806
 C466 C 1.16240 0.68251 -0.33723
 N467 N 1.16141 0.67289 -0.38251
 N468 N 1.17397 0.68538 -0.42061
 C469 C 1.18846 0.70807 -0.41523
 N470 N 1.18919 0.71779 -0.36981
 N471 N 1.17640 0.70528 -0.33149
 C472 C 1.14842 0.66786 -0.29611
 N473 N 1.14372 0.67628 -0.25397
 N474 N 1.12985 0.66216 -0.21881
 C475 C 1.12043 0.63922 -0.22458
 N476 N 1.12545 0.63100 -0.26636
 N477 N 1.13907 0.64500 -0.30142
 C478 C 1.10407 0.62290 -0.18863
 N479 N 1.09623 0.60039 -0.19658
 N480 N 1.08006 0.58488 -0.16770
 C481 C 1.07101 0.59118 -0.12959
 N482 N 1.07900 0.61375 -0.12080
 N483 N 1.09530 0.62939 -0.14993
 C484 C 0.84128 0.52832 -0.34187
 N485 N 0.82801 0.53798 -0.33431
 N486 N 0.81526 0.53875 -0.37153
 C487 C 0.81529 0.52994 -0.41766
 N488 N 0.82893 0.52066 -0.42474
 N489 N 0.84147 0.51972 -0.38776
 C490 C 0.85561 0.52703 -0.30229
 N491 N 0.86565 0.51419 -0.31052
 N492 N 0.87954 0.51334 -0.27677
 C493 C 0.88410 0.52537 -0.23340
 N494 N 0.87399 0.53821 -0.22473
 N495 N 0.85991 0.53898 -0.25861
 C496 C 0.90051 0.52481 -0.19843
 N497 N 0.90786 0.53828 -0.15682
 N498 N 0.92378 0.53819 -0.12756
 C499 C 0.93282 0.52464 -0.13907
 N500 N 0.92528 0.51112 -0.18029
 N501 N 0.90947 0.51121 -0.20935
 C502 C 0.47576 0.31189 -0.32887
 N503 N 0.46268 0.28889 -0.32613
 N504 N 0.46099 0.27578 -0.36551
 C505 C 0.47222 0.28516 -0.40914
 N506 N 0.48501 0.30821 -0.41145
 N507 N 0.48688 0.32124 -0.37221
 C508 C 0.47760 0.32706 -0.28719
 N509 N 0.49352 0.34937 -0.28977
 N510 N 0.49457 0.36403 -0.25496
 C511 C 0.47967 0.35704 -0.21615
 N512 N 0.46382 0.33461 -0.21297
 N513 N 0.46283 0.31984 -0.24789
 C514 C 0.48006 0.37422 -0.18137
 N515 N 0.46437 0.36883 -0.14430
 N516 N 0.46408 0.38521 -0.11634
 C517 C 0.47941 0.40746 -0.12475
 N518 N 0.49516 0.41269 -0.16126
 N519 N 0.49551 0.39641 -0.18892
 C520 C 0.68105 0.16911 -0.32817
 N521 N 0.67270 0.17638 -0.36556
 N522 N 0.68577 0.18816 -0.40389
 C523 C 0.70778 0.19331 -0.40624
 N524 N 0.71630 0.18626 -0.36860
 N525 N 0.70315 0.17438 -0.33015
 C526 C 0.66562 0.15415 -0.28909
 N527 N 0.67283 0.14518 -0.25272
 N528 N 0.65810 0.13010 -0.22024
 C529 C 0.63567 0.12344 -0.22318
 N530 N 0.62860 0.13264 -0.25914
 N531 N 0.64328 0.14771 -0.29139
 C532 C 0.61886 0.10542 -0.19083
 N533 N 0.59648 0.09642 -0.20102
 N534 N 0.58097 0.07918 -0.17418
 C535 C 0.58722 0.07033 -0.13589
 N536 N 0.60960 0.07945 -0.12513
 N537 N 0.62518 0.09666 -0.15229
 C538 C 1.16577 0.49134 -0.31640
 N539 N 1.16925 0.50445 -0.35736
 N540 N 1.17952 0.50218 -0.39777
 C541 C 1.18717 0.48696 -0.39902
 N542 N 1.18387 0.47393 -0.35759
 N543 N 1.17330 0.47600 -0.31709
 C544 C 1.15256 0.49305 -0.27438
 N545 N 1.14294 0.47658 -0.23884
 N546 N 1.12877 0.47730 -0.20473
 C547 C 1.12382 0.49456 -0.20505
 N548 N 1.13384 0.51117 -0.23993
 N549 N 1.14787 0.51041 -0.27390
 C550 C 1.10632 0.49459 -0.17227
 N551 N 1.10009 0.51063 -0.17953
 N552 N 1.08291 0.51001 -0.15405
 C553 C 1.07128 0.49340 -0.12001
 N554 N 1.07766 0.47747 -0.11184
 N555 N 1.09487 0.47801 -0.13772
 C556 C 0.51783 0.67352 -0.34571
 N557 N 0.53286 0.69610 -0.34164
 N558 N 0.53477 0.71041 -0.37815
 C559 C 0.52168 0.70282 -0.42006
 N560 N 0.50691 0.68010 -0.42388
 N561 N 0.50494 0.66581 -0.38756
 C562 C 0.51571 0.65725 -0.30675
 N563 N 0.50043 0.63486 -0.31270
 N564 N 0.49869 0.61966 -0.27889
 C565 C 0.51212 0.62622 -0.23769
 N566 N 0.52736 0.64868 -0.23138
 N567 N 0.52911 0.66394 -0.26535
 C568 C 0.51055 0.60887 -0.20231
 N569 N 0.52377 0.61447 -0.16067
 N570 N 0.52269 0.59825 -0.13040
 C571 C 0.50839 0.57593 -0.14088
 N572 N 0.49514 0.57043 -0.18222
 N573 N 0.49616 0.58657 -0.21228
 C574 C 0.33164 -0.17356 -0.32643
 N575 N 0.30894 -0.18143 -0.32536
 N576 N 0.29606 -0.19266 -0.36470
 C577 C 0.30536 -0.19638 -0.40668
 N578 N 0.32809 -0.18838 -0.40719
 N579 N 0.34089 -0.17738 -0.36796
 C580 C 0.34666 -0.15966 -0.28561
 N581 N 0.36898 -0.15329 -0.28799
 N582 N 0.38345 -0.13898 -0.25433
 C583 C 0.37622 -0.13040 -0.21690
 N584 N 0.35379 -0.13699 -0.21385
 N585 N 0.33924 -0.15141 -0.24765
 C586 C 0.39301 -0.11287 -0.18349
 N587 N 0.38689 -0.10307 -0.14629
 N588 N 0.40265 -0.08594 -0.11912
 C589 C 0.42503 -0.07799 -0.12849
 N590 N 0.43105 -0.08796 -0.16526
 N591 N 0.41537 -0.10508 -0.19213
 C592 C 0.54491 -0.14803 0.34560
 N593 N 0.56039 -0.15524 0.34138
 N594 N 0.56263 -0.16748 0.37790
 C595 C 0.54946 -0.17286 0.41976
 N596 N 0.53414 -0.16554 0.42387
 N597 N 0.53187 -0.15343 0.38750
 C598 C 0.54222 -0.13419 0.30672
 N599 N 0.52603 -0.12810 0.31260
 N600 N 0.52362 -0.11496 0.27904
 C601 C 0.53730 -0.10734 0.23817
 N602 N 0.55349 -0.11349 0.23189
 N603 N 0.55590 -0.12673 0.26562
 C604 C 0.53480 -0.09198 0.20312
 N605 N 0.54831 -0.08334 0.16202
 N606 N 0.54621 -0.06867 0.13211
 C607 C 0.53055 -0.06215 0.14243
 N608 N 0.51704 -0.07092 0.18323
 N609 N 0.51909 -0.08556 0.21292
 C610 C 0.30610 0.47495 0.31844
 N611 N 0.31287 0.49234 0.35181
 N612 N 0.30035 0.49040 0.39199
 C613 C 0.28047 0.47105 0.40023
 N614 N 0.27346 0.45366 0.36665
 N615 N 0.28607 0.45558 0.32637
 C616 C 0.32149 0.47659 0.27764
 N617 N 0.31639 0.45882 0.24605
 N618 N 0.33162 0.45986 0.21262
 C619 C 0.35246 0.47868 0.20981
 N620 N 0.35734 0.49650 0.24086
 N621 N 0.34215 0.49549 0.27404
 C622 C 0.37039 0.47925 0.17760
 N623 N 0.39208 0.49605 0.18426
 N624 N 0.40893 0.49597 0.15863
 C625 C 0.40473 0.47920 0.12500
 N626 N 0.38298 0.46253 0.11754
 N627 N 0.36608 0.46250 0.14361
 C628 C 1.16816 0.68418 0.32473
 N629 N 1.17638 0.67552 0.35941
 N630 N 1.18824 0.68802 0.39837
 C631 C 1.19250 0.70976 0.40405
 N632 N 1.18450 0.71863 0.36915
 N633 N 1.17253 0.70604 0.33008
 C634 C 1.15316 0.66917 0.28509
 N635 N 1.14289 0.67641 0.25192
 N636 N 1.12775 0.66185 0.21923
 C637 C 1.12233 0.63958 0.21877
 N638 N 1.13284 0.63252 0.25147
 N639 N 1.14795 0.64702 0.28391
 C640 C 1.10418 0.62270 0.18674
 N641 N 1.09638 0.60023 0.19490
 N642 N 1.07903 0.58451 0.16875
 C643 C 1.06887 0.59061 0.13311
 N644 N 1.07679 0.61311 0.12427
 N645 N 1.09411 0.62891 0.15084
 C646 C 0.47104 0.15362 0.32343
 N647 N 0.48764 0.16355 0.35828
 N648 N 0.48491 0.17384 0.39827
 C649 C 0.46553 0.17476 0.40485
 N650 N 0.44888 0.16496 0.36991
 N651 N 0.45159 0.15453 0.32985
 C652 C 0.47390 0.14085 0.28184
 N653 N 0.45682 0.12833 0.24921
 N654 N 0.45922 0.11529 0.21450
 C655 C 0.47877 0.11436 0.21131
 N656 N 0.49586 0.12714 0.24344
 N657 N 0.49349 0.14013 0.27795
 C658 C 0.48106 0.09834 0.17744
 N659 N 0.49915 0.09508 0.18264
 N660 N 0.50079 0.07929 0.15576
 C661 C 0.48451 0.06624 0.12225
 N662 N 0.46652 0.06968 0.11616
 N663 N 0.46478 0.08544 0.14349
 C664 C 0.67248 0.51697 0.33708
 N665 N 0.66608 0.50032 0.37191
 N666 N 0.67976 0.50249 0.40966
 C667 C 0.70043 0.52133 0.41400
 N668 N 0.70691 0.53804 0.37913
 N669 N 0.69319 0.53586 0.34121
 C670 C 0.65639 0.51496 0.29803
 N671 N 0.66200 0.53135 0.26272
 N672 N 0.64664 0.52991 0.22962
 C673 C 0.62514 0.51209 0.23088
 N674 N 0.61966 0.49566 0.26588
 N675 N 0.63499 0.49704 0.29872
 C676 C 0.60749 0.51106 0.19751
 N677 N 0.58549 0.49542 0.20612
 N678 N 0.56909 0.49499 0.17819
 C679 C 0.57405 0.51007 0.14033
 N680 N 0.59607 0.52559 0.13116
 N681 N 0.61253 0.52613 0.15943
 C682 C 0.83190 0.32795 0.32407
 N683 N 0.82240 0.33547 0.35885
 N684 N 0.81144 0.32269 0.39823
 C685 C 0.80941 0.30181 0.40424
 N686 N 0.81878 0.29415 0.36932
 N687 N 0.82982 0.30699 0.32985
 C688 C 0.84581 0.34327 0.28372
 N689 N 0.85705 0.33706 0.25037
 N690 N 0.87123 0.35196 0.21687
 C691 C 0.87468 0.37358 0.21569
 N692 N 0.86318 0.37961 0.24856
 N693 N 0.84902 0.36475 0.28185
 C694 C 0.89190 0.39094 0.18284
 N695 N 0.89785 0.41313 0.18970
 N696 N 0.91463 0.42938 0.16322
 C697 C 0.92603 0.42408 0.12857
 N698 N 0.91992 0.40186 0.12097
 N699 N 0.90318 0.38554 0.14783
   
