data_POSCAR
  _audit_creation_date              2014-09-24
  _audit_creation_method            'ToBaCCo'
  _symmetry_space_group_name_H-M    'P1'
  _symmetry_Int_Tables_number       1
  _symmetry_cell_setting            triclinic
  loop_
  _symmetry_equiv_pos_as_xyz
 x,y,z
_cell_length_a 39.8311
_cell_length_b 39.2223
_cell_length_c 50.6917
_cell_angle_alpha 89.122100
_cell_angle_beta 89.373900
_cell_angle_gamma 89.565300
loop_
  _atom_site_label
  _atom_site_type_symbol
  _atom_site_fract_x
  _atom_site_fract_y
  _atom_site_fract_z
C1 C 1.19910 0.26195 0.28813
 H2 H 1.19816 0.23442 0.28953
 C3 C 1.17997 0.28168 0.30544
 H4 H 1.16410 0.26935 0.32017
 C5 C 1.22191 0.31170 0.26791
 H6 H 1.23889 0.32327 0.25370
 C7 C 1.20319 0.33240 0.28489
 H8 H 1.20556 0.35987 0.28354
 N9 N 1.21948 0.27714 0.26981
 C10 C 1.23636 0.19876 0.21092
 H11 H 1.26350 0.19741 0.21089
 C12 C 1.21818 0.17867 0.19371
 H13 H 1.23131 0.16170 0.18039
 C14 C 1.18603 0.22320 0.22781
 H15 H 1.17362 0.24107 0.24073
 C16 C 1.16690 0.20357 0.21089
 H17 H 1.13980 0.20616 0.21101
 Zn18 Zn 1.24681 0.24804 0.24917
 N19 N 1.22012 0.22033 0.22762
 C20 C 1.26842 0.18643 0.27445
 N21 N 1.27182 0.22094 0.27328
 C22 C 1.29066 0.23762 0.29114
 C23 C 1.30706 0.21953 0.31120
 C24 C 1.28441 0.16730 0.29421
 C25 C 1.25986 0.29312 0.20743
 C26 C 1.27889 0.31228 0.18939
 C27 C 1.32928 0.29129 0.21045
 C28 C 1.30927 0.27248 0.22816
 N29 N 1.27519 0.27393 0.22644
 H30 H 1.25261 0.17373 0.26055
 H31 H 1.29231 0.26513 0.29009
 H32 H 1.32171 0.23322 0.32544
 H33 H 1.28119 0.13988 0.29512
 H34 H 1.23275 0.29341 0.20629
 H35 H 1.26643 0.32744 0.17432
 H36 H 1.35638 0.28997 0.21185
 H37 H 1.32098 0.25654 0.24305
 C38 C 1.18314 0.18115 0.19367
 C39 C 1.18218 0.31721 0.30389
 C40 C 1.31391 0.31137 0.19089
 C41 C 1.30371 0.18404 0.31290
 C42 C 0.69079 -0.26052 0.29416
 H43 H 0.69313 -0.28795 0.29292
 C44 C 0.67056 -0.24613 0.31379
 H45 H 0.65713 -0.26248 0.32764
 C46 C 0.70634 -0.20566 0.27817
 H47 H 0.72087 -0.19001 0.26462
 C48 C 0.68637 -0.19021 0.29754
 H49 H 0.68535 -0.16267 0.29869
 N50 N 0.70812 -0.24026 0.27682
 C51 C 0.72986 -0.30608 0.20987
 H52 H 0.75697 -0.30460 0.20909
 C53 C 0.71280 -0.32457 0.19093
 H54 H 0.72679 -0.33752 0.17556
 C55 C 0.67837 -0.29008 0.23030
 H56 H 0.66499 -0.27602 0.24530
 C57 C 0.66034 -0.30828 0.21173
 H58 H 0.63316 -0.30841 0.21266
 Zn59 Zn 0.73732 -0.26257 0.25272
 N60 N 0.71253 -0.28939 0.22910
 C61 C 0.76957 -0.32427 0.27036
 N62 N 0.76659 -0.28993 0.27336
 C63 C 0.78372 -0.27347 0.29236
 C64 C 0.80528 -0.29150 0.30908
 C65 C 0.79093 -0.34332 0.28674
 C66 C 0.74622 -0.20957 0.21510
 C67 C 0.76424 -0.18805 0.19793
 C68 C 0.81579 -0.21088 0.21589
 C69 C 0.79686 -0.23196 0.23268
 N70 N 0.76269 -0.23097 0.23203
 H71 H 0.75521 -0.33696 0.25551
 H72 H 0.78048 -0.24624 0.29453
 H73 H 0.81874 -0.27815 0.32419
 H74 H 0.79312 -0.37066 0.28439
 H75 H 0.71907 -0.20976 0.21457
 H76 H 0.75096 -0.17148 0.18423
 H77 H 0.84296 -0.21228 0.21628
 H78 H 0.80961 -0.24974 0.24566
 C79 C 0.67771 -0.32557 0.19181
 C80 C 0.66846 -0.21065 0.31560
 C81 C 0.79937 -0.18890 0.19823
 C82 C 0.80893 -0.32672 0.30625
 C83 C 0.70280 0.25477 -0.21259
 H84 H 0.70276 0.22718 -0.21200
 C85 C 0.68200 0.27304 -0.19539
 H86 H 0.66576 0.25952 -0.18158
 C87 C 0.72489 0.30618 -0.23058
 H88 H 0.74221 0.31904 -0.24382
 C89 C 0.70452 0.32541 -0.21373
 H90 H 0.70599 0.35298 -0.21427
 N91 N 0.72364 0.27149 -0.22977
 C92 C 0.74855 0.19902 -0.29178
 H93 H 0.77566 0.19992 -0.29098
 C94 C 0.73302 0.17966 -0.31098
 H95 H 0.74817 0.16548 -0.32496
 C96 C 0.69565 0.21737 -0.27512
 H97 H 0.68122 0.23268 -0.26150
 C98 C 0.67910 0.19834 -0.29405
 H99 H 0.65193 0.19882 -0.29480
 Zn100 Zn 0.75345 0.24509 -0.25072
 N101 N 0.72980 0.21731 -0.27431
 C102 C 0.77976 0.18337 -0.22864
 N103 N 0.77961 0.21802 -0.22739
 C104 C 0.79698 0.23447 -0.20850
 C105 C 0.81587 0.21597 -0.19010
 C106 C 0.79834 0.16389 -0.21059
 C107 C 0.76570 0.29317 -0.29057
 C108 C 0.78452 0.31373 -0.30779
 C109 C 0.83500 0.29387 -0.28613
 C110 C 0.81517 0.27367 -0.26929
 N111 N 0.78116 0.27382 -0.27174
 H112 H 0.76519 0.17073 -0.24338
 H113 H 0.79596 0.26200 -0.20770
 H114 H 0.82956 0.22927 -0.17509
 H115 H 0.79825 0.13633 -0.21161
 H116 H 0.73868 0.29231 -0.29234
 H117 H 0.77185 0.32883 -0.32282
 H118 H 0.86208 0.29332 -0.28417
 H119 H 0.82704 0.25750 -0.25464
 C120 C 0.69798 0.17945 -0.31220
 C121 C 0.68300 0.30869 -0.19589
 C122 C 0.81952 0.31403 -0.30562
 C123 C 0.81654 0.18037 -0.19115
 C124 C 1.20025 -0.23602 -0.21011
 H125 H 1.20242 -0.26351 -0.20898
 C126 C 1.18163 -0.21860 -0.19107
 H127 H 1.16926 -0.23268 -0.17524
 C128 C 1.21448 -0.18392 -0.23172
 H129 H 1.22785 -0.17051 -0.24730
 C130 C 1.19610 -0.16549 -0.21304
 H131 H 1.19510 -0.13791 -0.21440
 N132 N 1.21605 -0.21857 -0.22998
 C133 C 1.23144 -0.29252 -0.29187
 H134 H 1.25829 -0.29001 -0.29459
 C135 C 1.21344 -0.31411 -0.30796
 H136 H 1.22640 -0.32834 -0.32319
 C137 C 1.18153 -0.27615 -0.26922
 H138 H 1.16917 -0.26079 -0.25447
 C139 C 1.16252 -0.29747 -0.28497
 H140 H 1.13554 -0.29866 -0.28223
 Zn141 Zn 1.24235 -0.24437 -0.25372
 N142 N 1.21537 -0.27423 -0.27290
 C143 C 1.27251 -0.30443 -0.23302
 N144 N 1.27363 -0.26974 -0.23342
 C145 C 1.29476 -0.25261 -0.21749
 C146 C 1.31577 -0.27050 -0.20014
 C147 C 1.29308 -0.32326 -0.21602
 C148 C 1.24332 -0.19874 -0.29610
 C149 C 1.25694 -0.18005 -0.31722
 C150 C 1.31240 -0.19686 -0.30283
 C151 C 1.29773 -0.21528 -0.28193
 N152 N 1.26373 -0.21593 -0.27905
 H153 H 1.25490 -0.31761 -0.24519
 H154 H 1.29462 -0.22502 -0.21780
 H155 H 1.33206 -0.25671 -0.18714
 H156 H 1.29152 -0.35083 -0.21545
 H157 H 1.21636 -0.20031 -0.29362
 H158 H 1.24048 -0.16690 -0.33095
 H159 H 1.33945 -0.19690 -0.30532
 H160 H 1.31343 -0.22980 -0.26856
 C161 C 1.17870 -0.31651 -0.30453
 C162 C 1.17961 -0.18302 -0.19252
 C163 C 1.29177 -0.17937 -0.32075
 C164 C 1.31466 -0.30615 -0.19928
 C165 C 0.26064 0.19192 0.71295
 H166 H 0.23353 0.19298 0.71189
 C167 C 0.27882 0.17062 0.69611
 H168 H 0.26571 0.15523 0.68201
 C169 C 0.31093 0.21128 0.73217
 H170 H 0.32338 0.22756 0.74593
 C171 C 0.33008 0.19032 0.71566
 H172 H 0.35722 0.19042 0.71685
 N173 N 0.27682 0.21152 0.73065
 C174 C 0.20231 0.23033 0.79253
 H175 H 0.20209 0.25791 0.79269
 C176 C 0.18244 0.21200 0.81057
 H177 H 0.16678 0.22554 0.82462
 C178 C 0.22367 0.17898 0.77452
 H179 H 0.24025 0.16617 0.76085
 C180 C 0.20421 0.15967 0.79222
 H181 H 0.20572 0.13207 0.79187
 Zn182 Zn 0.24987 0.24027 0.75204
 N183 N 0.22222 0.21367 0.77487
 C184 C 0.18928 0.26715 0.73017
 N185 N 0.22345 0.26772 0.72901
 C186 C 0.23995 0.28672 0.71037
 C187 C 0.22203 0.30658 0.69217
 C188 C 0.17039 0.28665 0.71232
 C189 C 0.29588 0.25187 0.79229
 C190 C 0.31507 0.27083 0.80962
 C191 C 0.29459 0.32243 0.78849
 C192 C 0.27576 0.30251 0.77153
 N193 N 0.27687 0.26786 0.77362
 H194 H 0.17659 0.25129 0.74468
 H195 H 0.26711 0.28626 0.70961
 H196 H 0.23539 0.32157 0.67738
 H197 H 0.14322 0.28597 0.71330
 H198 H 0.29584 0.22433 0.79384
 H199 H 0.32998 0.25788 0.82451
 H200 H 0.29338 0.34998 0.78682
 H201 H 0.25991 0.31482 0.75704
 C202 C 0.18343 0.17632 0.81043
 C203 C 0.31385 0.16980 0.69749
 C204 C 0.31437 0.30645 0.80774
 C205 C 0.18692 0.30653 0.69314
 C206 C 0.76332 0.71373 0.70755
 H207 H 0.73627 0.71545 0.70621
 C208 C 0.78148 0.69365 0.68983
 H209 H 0.76843 0.67978 0.67479
 C210 C 0.81353 0.73021 0.72846
 H211 H 0.82599 0.74492 0.74323
 C212 C 0.83266 0.71044 0.71111
 H213 H 0.85976 0.70978 0.71272
 N214 N 0.77947 0.73123 0.72654
 C215 C 0.70476 0.74692 0.78870
 H216 H 0.70597 0.77434 0.79047
 C217 C 0.68388 0.72803 0.80560
 H218 H 0.66888 0.74097 0.82040
 C219 C 0.72359 0.69649 0.76775
 H220 H 0.73959 0.68422 0.75336
 C221 C 0.70306 0.67660 0.78427
 H222 H 0.70317 0.64912 0.78235
 Zn223 Zn 0.75295 0.75852 0.74924
 N224 N 0.72391 0.73101 0.77014
 C225 C 0.69379 0.78955 0.72866
 N226 N 0.72797 0.78917 0.72776
 C227 C 0.74528 0.80948 0.71046
 C228 C 0.72816 0.83161 0.69335
 C229 C 0.67571 0.81130 0.71188
 C230 C 0.79812 0.76368 0.79064
 C231 C 0.81781 0.77974 0.80930
 C232 C 0.80041 0.83427 0.79105
 C233 C 0.78103 0.81720 0.77270
 N234 N 0.78041 0.78250 0.77273
 H235 H 0.68045 0.77265 0.74203
 H236 H 0.77242 0.80824 0.70986
 H237 H 0.74211 0.84753 0.67952
 H238 H 0.64852 0.81124 0.71255
 H239 H 0.79669 0.73615 0.79049
 H240 H 0.83169 0.76457 0.82358
 H241 H 0.80062 0.86189 0.79105
 H242 H 0.76617 0.83172 0.75876
 C243 C 0.68307 0.69253 0.80339
 C244 C 0.81646 0.69198 0.69167
 C245 C 0.81891 0.81535 0.80952
 C246 C 0.69306 0.83247 0.69406
 C247 C 0.76599 0.21635 0.20931
 H248 H 0.73888 0.21789 0.20873
 C249 C 0.78330 0.19427 0.19257
 H250 H 0.76954 0.17867 0.17900
 C251 C 0.81723 0.23536 0.22726
 H252 H 0.83039 0.25185 0.24044
 C253 C 0.83551 0.21365 0.21084
 H254 H 0.86268 0.21327 0.21155
 N255 N 0.78309 0.23606 0.22638
 C256 C 0.71195 0.25937 0.28921
 H257 H 0.71368 0.28689 0.28909
 C258 C 0.69130 0.24279 0.30763
 H259 H 0.67697 0.25749 0.32181
 C260 C 0.72904 0.20641 0.27119
 H261 H 0.74422 0.19232 0.25728
 C262 C 0.70870 0.18882 0.28929
 H263 H 0.70804 0.16122 0.28915
 Zn264 Zn 0.75781 0.26585 0.24778
 N265 N 0.73000 0.24108 0.27132
 C266 C 0.69726 0.29206 0.22685
 N267 N 0.73136 0.29344 0.22523
 C268 C 0.74713 0.31224 0.20608
 C269 C 0.72838 0.33070 0.18755
 C270 C 0.67761 0.31013 0.20875
 C271 C 0.80431 0.27446 0.28710
 C272 C 0.82479 0.29168 0.30448
 C273 C 0.80793 0.34492 0.28368
 C274 C 0.78773 0.32664 0.26660
 N275 N 0.78642 0.29203 0.26861
 H276 H 0.68518 0.27623 0.24167
 H277 H 0.77426 0.31228 0.20493
 H278 H 0.74105 0.34525 0.17212
 H279 H 0.65049 0.30849 0.20992
 H280 H 0.80229 0.24699 0.28850
 H281 H 0.83868 0.27751 0.31934
 H282 H 0.80860 0.37249 0.28228
 H283 H 0.77271 0.34012 0.25215
 C284 C 0.68967 0.20723 0.30760
 C285 C 0.81835 0.19292 0.19340
 C286 C 0.82649 0.32721 0.30282
 C287 C 0.69332 0.32941 0.18884
 C288 C 0.27418 0.70738 0.21475
 H289 H 0.24704 0.70750 0.21583
 C290 C 0.29080 0.68752 0.19599
 H291 H 0.27644 0.67216 0.18264
 C292 C 0.32607 0.72808 0.23023
 H293 H 0.33969 0.74446 0.24321
 C294 C 0.34368 0.70860 0.21173
 H295 H 0.37082 0.70980 0.21069
 N296 N 0.29192 0.72701 0.23147
 C297 C 0.22368 0.74492 0.29792
 H298 H 0.22427 0.77247 0.29844
 C299 C 0.20408 0.72676 0.31623
 H300 H 0.18950 0.74033 0.33093
 C301 C 0.24202 0.69349 0.27819
 H302 H 0.25709 0.68059 0.26352
 C303 C 0.22276 0.67434 0.29615
 H304 H 0.22288 0.64677 0.29514
 Zn305 Zn 0.26695 0.75503 0.25477
 N306 N 0.24175 0.72816 0.27915
 C307 C 0.20375 0.77963 0.23666
 N308 N 0.23767 0.78188 0.23360
 C309 C 0.25158 0.80130 0.21393
 C310 C 0.23113 0.81961 0.19645
 C311 C 0.18240 0.79754 0.21960
 C312 C 0.31710 0.76692 0.29164
 C313 C 0.33825 0.78588 0.30750
 C314 C 0.31521 0.83750 0.28799
 C315 C 0.29450 0.81751 0.27248
 N316 N 0.29593 0.78287 0.27447
 H317 H 0.19310 0.76336 0.25190
 H318 H 0.27859 0.80208 0.21160
 H319 H 0.24241 0.83473 0.18068
 H320 H 0.15544 0.79529 0.22198
 H321 H 0.31734 0.73937 0.29311
 H322 H 0.35482 0.77279 0.32119
 H323 H 0.31363 0.86506 0.28637
 H324 H 0.27700 0.82974 0.25917
 C325 C 0.20347 0.69116 0.31523
 C326 C 0.32585 0.68822 0.19441
 C327 C 0.33728 0.82155 0.30571
 C328 C 0.19623 0.81756 0.19924
 O329 O 1.06151 0.03236 0.02280
 O330 O 0.93230 -0.04484 0.02434
 O331 O 0.95923 0.05876 0.02284
 O332 O 1.03459 -0.07159 0.02714
 O333 O 0.93952 0.01244 0.03829
 O334 O 1.05413 -0.02422 0.03951
 O335 O 0.97758 -0.06376 0.04050
 O336 O 1.01533 0.05190 0.03720
 C337 C 1.04569 0.04758 0.04047
 C338 C 0.94705 -0.05920 0.04305
 C339 C 0.94451 0.04314 0.04116
 C340 C 1.04981 -0.05487 0.04404
 O341 O 1.06104 -0.04823 -0.01013
 O342 O 0.93406 0.03386 -0.01291
 O343 O 1.03688 0.05652 -0.01424
 O344 O 0.95841 -0.07100 -0.01112
 O345 O 0.94046 -0.02373 -0.02660
 O346 O 1.05562 0.00883 -0.02726
 O347 O 1.01518 -0.06654 -0.02462
 O348 O 0.98069 0.05071 -0.02827
 Co349 Co 1.05220 -0.00769 0.00618
 Co350 Co 0.94250 -0.00566 0.00583
 Co351 Co 0.99795 0.04864 0.00455
 Co352 Co 0.99653 -0.06237 0.00783
 O353 O 0.99731 -0.00678 0.00611
 C354 C 1.04554 -0.06247 -0.02804
 C355 C 0.95025 0.04754 -0.03134
 C356 C 1.05155 0.03962 -0.03164
 C357 C 0.94466 -0.05466 -0.02947
 O358 O 1.06601 0.53928 0.51982
 O359 O 0.93951 0.46170 0.52069
 O360 O 0.96342 0.56587 0.51910
 O361 O 1.04219 0.43511 0.51881
 O362 O 0.94581 0.51886 0.53467
 O363 O 1.06034 0.48146 0.53374
 O364 O 0.98589 0.44201 0.53454
 O365 O 1.01939 0.55883 0.53378
 C366 C 1.04950 0.55361 0.53763
 C367 C 0.95560 0.44665 0.53843
 C368 C 0.94930 0.54980 0.53747
 C369 C 1.05659 0.45048 0.53679
 O370 O 1.06655 0.46177 0.48220
 O371 O 0.93945 0.54059 0.48330
 O372 O 1.04191 0.56622 0.48326
 O373 O 0.96385 0.43647 0.48398
 O374 O 0.94581 0.48382 0.46940
 O375 O 1.06052 0.51953 0.46846
 O376 O 1.02021 0.44288 0.46845
 O377 O 0.98552 0.55956 0.46809
 Co378 Co 1.05762 0.50054 0.50110
 Co379 Co 0.94834 0.50117 0.50199
 Co380 Co 1.00258 0.55660 0.50103
 Co381 Co 1.00299 0.44508 0.50146
 O382 O 1.00291 0.50084 0.50140
 C383 C 1.05045 0.44756 0.46448
 C384 C 0.95528 0.55464 0.46480
 C385 C 1.05716 0.55058 0.46549
 C386 C 0.95012 0.45313 0.46590
 O387 O 0.57085 0.03591 0.51414
 O388 O 0.41781 -0.02442 0.50487
 O389 O 0.46599 0.06521 0.52247
 O390 O 0.51980 -0.04279 0.53737
 O391 O 0.45161 0.01403 0.53258
 O392 O 0.56637 -0.02687 0.51829
 O393 O 0.46067 -0.04501 0.52662
 O394 O 0.52867 0.06963 0.52611
 C395 C 0.55862 0.05938 0.52853
 C396 C 0.42970 -0.04772 0.52115
 C397 C 0.45276 0.04462 0.53849
 C398 C 0.55080 -0.03842 0.53833
 O399 O 0.55157 -0.02718 0.46455
 O400 O 0.43241 0.03868 0.48677
 O401 O 0.53400 0.07497 0.47573
 O402 O 0.47778 -0.05888 0.47573
 O403 O 0.45408 -0.01202 0.46393
 O404 O 0.56041 0.03076 0.46193
 O405 O 0.53655 -0.06595 0.49063
 O406 O 0.47418 0.06472 0.46945
 Co407 Co 0.55753 0.00296 0.49055
 Co408 Co 0.45512 0.00045 0.49807
 Co409 Co 0.50055 0.06282 0.49841
 Co410 Co 0.49904 -0.04748 0.50633
 O411 O 0.50517 0.00739 0.49739
 C412 C 0.54801 -0.05772 0.46868
 C413 C 0.44357 0.05897 0.46962
 C414 C 0.55374 0.06144 0.45981
 C415 C 0.46220 -0.04177 0.45863
 O416 O 0.55962 0.54130 0.01092
 O417 O 0.43341 0.46159 0.01421
 O418 O 0.45662 0.56588 0.01163
 O419 O 0.53673 0.43688 0.01268
 O420 O 0.43887 0.51910 0.02738
 O421 O 0.55426 0.48435 0.02598
 O422 O 0.48021 0.44284 0.02818
 O423 O 0.51325 0.55957 0.02610
 C424 C 0.54369 0.55537 0.02915
 C425 C 0.44977 0.44678 0.03196
 C426 C 0.44295 0.54993 0.03024
 C427 C 0.55119 0.45351 0.02994
 O428 O 0.56054 0.46244 -0.02475
 O429 O 0.43196 0.53997 -0.02424
 O430 O 0.53434 0.56645 -0.02526
 O431 O 0.45829 0.43581 -0.02216
 O432 O 0.43870 0.48231 -0.03750
 O433 O 0.55270 0.51962 -0.03997
 O434 O 0.51441 0.44274 -0.03800
 O435 O 0.47819 0.55927 -0.03911
 Co436 Co 0.55096 0.50187 -0.00690
 Co437 Co 0.44155 0.50084 -0.00512
 Co438 Co 0.49570 0.55685 -0.00655
 Co439 Co 0.49735 0.44555 -0.00494
 O440 O 0.49637 0.50126 -0.00589
 C441 C 0.54468 0.44701 -0.04195
 C442 C 0.44786 0.55512 -0.04224
 C443 C 0.54861 0.55055 -0.04337
 C444 C 0.44326 0.45140 -0.04020
 C445 C 1.06234 0.09906 0.10155
 C446 C 1.09701 0.09441 0.10430
 C447 C 1.11465 0.07354 0.08670
 C448 C 1.09782 0.05784 0.06617
 C449 C 1.16402 0.16162 0.17539
 C450 C 1.04543 0.08334 0.08103
 C451 C 1.11479 0.11206 0.12448
 C452 C 1.13003 0.12730 0.14093
 C453 C 1.14823 0.14561 0.15972
 C454 C 1.06311 0.06289 0.06294
 H455 H 1.04845 0.11519 0.11504
 H456 H 1.14149 0.06977 0.08864
 H457 H 1.11205 0.04207 0.05264
 H458 H 1.01867 0.08761 0.07909
 C459 C 1.11596 0.57624 0.58700
 C460 C 1.09714 0.59535 0.60505
 C461 C 1.06258 0.59972 0.60160
 C462 C 1.04695 0.58558 0.57986
 C463 C 1.15976 0.66289 0.67792
 C464 C 1.10037 0.56208 0.56521
 C465 C 1.11361 0.61228 0.62617
 C466 C 1.12768 0.62744 0.64323
 C467 C 1.14464 0.64618 0.66235
 C468 C 1.06580 0.56704 0.56125
 H469 H 1.14276 0.57283 0.58949
 H470 H 1.04784 0.61458 0.61543
 H471 H 1.02023 0.58967 0.57739
 H472 H 1.11543 0.54772 0.55129
 C473 C 0.58512 0.11510 0.58489
 C474 C 0.61708 0.10211 0.59049
 C475 C 0.63029 0.07524 0.57562
 C476 C 0.61149 0.06137 0.55524
 C477 C 0.68153 0.16111 0.66727
 C478 C 0.56634 0.10132 0.56462
 C479 C 0.63600 0.11674 0.61150
 C480 C 0.65093 0.12995 0.62917
 C481 C 0.66764 0.14638 0.64981
 C482 C 0.57925 0.07427 0.54954
 H483 H 0.57466 0.13590 0.59624
 H484 H 0.65502 0.06497 0.57981
 H485 H 0.62207 0.04045 0.54411
 H486 H 0.54162 0.11186 0.56083
 C487 C 0.55983 0.60199 0.09272
 C488 C 0.59453 0.59734 0.09537
 C489 C 0.61241 0.57832 0.07669
 C490 C 0.59580 0.56436 0.05527
 C491 C 0.65956 0.65682 0.17177
 C492 C 0.54314 0.58802 0.07132
 C493 C 0.61199 0.61289 0.11679
 C494 C 0.62683 0.62632 0.13441
 C495 C 0.64443 0.64254 0.15472
 C496 C 0.56103 0.56931 0.05224
 H497 H 0.54573 0.61668 0.10704
 H498 H 0.63926 0.57454 0.07854
 H499 H 0.61020 0.54991 0.04100
 H500 H 0.51633 0.59216 0.06956
 C501 C 0.92565 -0.10854 0.10592
 C502 C 0.89089 -0.10316 0.10774
 C503 C 0.87485 -0.08238 0.08899
 C504 C 0.89329 -0.06758 0.06823
 C505 C 0.81867 -0.16874 0.17959
 C506 C 0.94418 -0.09370 0.08517
 C507 C 0.87138 -0.12007 0.12812
 C508 C 0.85476 -0.13477 0.14472
 C509 C 0.83520 -0.15270 0.16370
 C510 C 0.92808 -0.07342 0.06591
 H511 H 0.93834 -0.12462 0.12030
 H512 H 0.84798 -0.07804 0.09017
 H513 H 0.88021 -0.05193 0.05380
 H514 H 0.97095 -0.09858 0.08393
 C515 C 0.88722 0.42124 0.58713
 C516 C 0.90502 0.40033 0.60478
 C517 C 0.93965 0.39559 0.60130
 C518 C 0.95632 0.41122 0.57998
 C519 C 0.83756 0.33205 0.67768
 C520 C 0.90381 0.43685 0.56578
 C521 C 0.88741 0.38249 0.62566
 C522 C 0.87217 0.36703 0.64260
 C523 C 0.85377 0.34838 0.66181
 C524 C 0.93846 0.43164 0.56180
 H525 H 0.86041 0.42504 0.58962
 H526 H 0.95365 0.37940 0.61483
 H527 H 0.98304 0.40684 0.57746
 H528 H 0.88946 0.45260 0.55220
 C529 C 0.40226 -0.10946 0.57471
 C530 C 0.36773 -0.10313 0.57613
 C531 C 0.35279 -0.08042 0.55805
 C532 C 0.37262 -0.06333 0.53912
 C533 C 0.30621 -0.16204 0.65667
 C534 C 0.42204 -0.09238 0.55599
 C535 C 0.34850 -0.11877 0.59718
 C536 C 0.33406 -0.13209 0.61558
 C537 C 0.31863 -0.14803 0.63766
 C538 C 0.40757 -0.06868 0.53831
 H539 H 0.41409 -0.12694 0.58859
 H540 H 0.32604 -0.07531 0.55902
 H541 H 0.36084 -0.04510 0.52584
 H542 H 0.44887 -0.09702 0.55591
 C543 C 0.43471 0.39501 0.09472
 C544 C 0.39993 0.39860 0.09802
 C545 C 0.38168 0.41896 0.08026
 C546 C 0.39800 0.43517 0.05902
 C547 C 0.33380 0.33045 0.17198
 C548 C 0.45110 0.41123 0.07350
 C549 C 0.38271 0.38044 0.11900
 C550 C 0.36782 0.36488 0.13613
 C551 C 0.34978 0.34638 0.15570
 C552 C 0.43283 0.43115 0.05524
 H553 H 0.44910 0.37930 0.10833
 H554 H 0.35475 0.42193 0.08261
 H555 H 0.38329 0.45048 0.04537
 H556 H 0.47797 0.40773 0.07115
 C557 C 0.88199 0.07454 -0.07884
 C558 C 0.90020 0.09377 -0.09748
 C559 C 0.93501 0.09689 -0.09499
 C560 C 0.95148 0.08132 -0.07371
 C561 C 0.83514 0.16087 -0.17188
 C562 C 0.89838 0.05899 -0.05754
 C563 C 0.88293 0.11135 -0.11851
 C564 C 0.86814 0.12656 -0.13572
 C565 C 0.85048 0.14487 -0.15541
 C566 C 0.93324 0.06255 -0.05459
 H567 H 0.85504 0.07197 -0.08057
 H568 H 0.94935 0.11174 -0.10929
 H569 H 0.97837 0.08442 -0.07199
 H570 H 0.88372 0.04455 -0.04321
 C571 C 0.93728 0.60071 0.40010
 C572 C 0.90299 0.59416 0.39727
 C573 C 0.88623 0.57388 0.41605
 C574 C 0.90344 0.56069 0.43782
 C575 C 0.83027 0.65442 0.32405
 C576 C 0.95462 0.58743 0.42188
 C577 C 0.88439 0.60959 0.37598
 C578 C 0.86793 0.62304 0.35888
 C579 C 0.84787 0.63954 0.33970
 C580 C 0.93771 0.56764 0.44113
 H581 H 0.95048 0.61648 0.38570
 H582 H 0.85970 0.56870 0.41409
 H583 H 0.88981 0.54532 0.45221
 H584 H 0.98104 0.59309 0.42387
 C585 C 0.41604 0.11412 0.41190
 C586 C 0.38226 0.10534 0.40966
 C587 C 0.36805 0.08174 0.42749
 C588 C 0.38773 0.06681 0.44739
 C589 C 0.31799 0.16689 0.33213
 C590 C 0.43567 0.09929 0.43165
 C591 C 0.36274 0.12075 0.38884
 C592 C 0.34774 0.13454 0.37105
 C593 C 0.33137 0.15162 0.35003
 C594 C 0.42181 0.07537 0.44957
 H595 H 0.42730 0.13236 0.39825
 H596 H 0.34189 0.07476 0.42592
 H597 H 0.37644 0.04837 0.46083
 H598 H 0.46182 0.10643 0.43275
 C599 C 0.43268 0.60707 -0.10454
 C600 C 0.39784 0.60463 -0.10693
 C601 C 0.37944 0.58487 -0.08872
 C602 C 0.39576 0.56811 -0.06789
 C603 C 0.33397 0.67483 -0.18021
 C604 C 0.44904 0.59036 -0.08377
 C605 C 0.38087 0.62336 -0.12750
 C606 C 0.36652 0.63949 -0.14443
 C607 C 0.34930 0.65858 -0.16389
 C608 C 0.43069 0.57105 -0.06504
 H609 H 0.44715 0.62229 -0.11852
 H610 H 0.35244 0.58281 -0.09041
 H611 H 0.38102 0.55331 -0.05383
 H612 H 0.47599 0.59302 -0.08214
 C613 C 1.06212 -0.10876 -0.09192
 C614 C 1.09676 -0.10428 -0.09512
 C615 C 1.11454 -0.08561 -0.07664
 C616 C 1.09784 -0.07177 -0.05486
 C617 C 1.16143 -0.16471 -0.17252
 C618 C 1.04536 -0.09492 -0.07017
 C619 C 1.11422 -0.11980 -0.11687
 C620 C 1.12897 -0.13338 -0.13478
 C621 C 1.14639 -0.14995 -0.15534
 C622 C 1.06312 -0.07653 -0.05130
 H623 H 1.04814 -0.12320 -0.10609
 H624 H 1.14137 -0.08202 -0.07894
 H625 H 1.11210 -0.05753 -0.04074
 H626 H 1.01857 -0.09885 -0.06800
 C627 C 1.06567 0.40043 0.40078
 C628 C 1.10030 0.40455 0.39722
 C629 C 1.11843 0.42375 0.41516
 C630 C 1.10212 0.43827 0.43687
 C631 C 1.16408 0.33774 0.32262
 C632 C 1.04930 0.41494 0.42244
 C633 C 1.11747 0.38766 0.37594
 C634 C 1.13198 0.37268 0.35860
 C635 C 1.14917 0.35424 0.33890
 C636 C 1.06745 0.43364 0.44090
 H637 H 1.05141 0.38556 0.38704
 H638 H 1.14526 0.42704 0.41261
 H639 H 1.11669 0.45272 0.45066
 H640 H 1.02255 0.41106 0.42497
 C641 C 0.57569 -0.13975 0.43547
 C642 C 0.58508 -0.12721 0.41040
 C643 C 0.58058 -0.09265 0.40426
 C644 C 0.56774 -0.07049 0.42314
 C645 C 0.64896 -0.19523 0.33643
 C646 C 0.56258 -0.11748 0.45450
 C647 C 0.60107 -0.14875 0.39112
 C648 C 0.61544 -0.16478 0.37422
 C649 C 0.63318 -0.18175 0.35392
 C650 C 0.55911 -0.08248 0.44860
 H651 H 0.57911 -0.16649 0.44046
 H652 H 0.58771 -0.08263 0.38498
 H653 H 0.56510 -0.04373 0.41790
 H654 H 0.55605 -0.12738 0.47393
 C655 C 0.56120 0.39376 -0.10258
 C656 C 0.59590 0.39760 -0.10596
 C657 C 0.61360 0.41865 -0.08901
 C658 C 0.59681 0.43529 -0.06847
 C659 C 0.66315 0.32803 -0.17740
 C660 C 0.54435 0.41041 -0.08206
 C661 C 0.61360 0.37903 -0.12616
 C662 C 0.62879 0.36313 -0.14268
 C663 C 0.64707 0.34425 -0.16159
 C664 C 0.56207 0.43102 -0.06459
 H665 H 0.54724 0.37753 -0.11556
 H666 H 0.64046 0.42182 -0.09143
 H667 H 0.61110 0.45111 -0.05541
 H668 H 0.51756 0.40668 -0.07961
 C669 C 1.10292 0.05493 -0.09405
 C670 C 1.09817 0.09004 -0.09805
 C671 C 1.07716 0.10827 -0.08094
 C672 C 1.06149 0.09167 -0.05962
 C673 C 1.16511 0.15795 -0.17157
 C674 C 1.08721 0.03823 -0.07273
 C675 C 1.11587 0.10779 -0.11896
 C676 C 1.13105 0.12323 -0.13596
 C677 C 1.14923 0.14181 -0.15536
 C678 C 1.06668 0.05657 -0.05509
 H679 H 1.11917 0.04058 -0.10716
 H680 H 1.07330 0.13544 -0.08385
 H681 H 1.04565 0.10642 -0.04648
 H682 H 1.09159 0.01116 -0.06978
 C683 C 1.08905 0.62210 0.42107
 C684 C 1.10956 0.60421 0.40337
 C685 C 1.11180 0.56863 0.40530
 C686 C 1.09413 0.55104 0.42516
 C687 C 1.18309 0.67203 0.33375
 C688 C 1.07136 0.60457 0.44096
 C689 C 1.12920 0.62248 0.38384
 C690 C 1.14602 0.63793 0.36782
 C691 C 1.16597 0.65622 0.34935
 C692 C 1.07405 0.56890 0.44341
 H693 H 1.08711 0.64964 0.41975
 H694 H 1.12760 0.55452 0.39171
 H695 H 1.09665 0.52355 0.42653
 H696 H 1.05601 0.61899 0.45466
 C697 C 0.57837 0.13633 0.41587
 C698 C 0.60094 0.12071 0.39841
 C699 C 0.60750 0.08574 0.40067
 C700 C 0.59185 0.06641 0.42050
 C701 C 0.66922 0.18958 0.32676
 C702 C 0.56263 0.11702 0.43577
 C703 C 0.61829 0.14052 0.37862
 C704 C 0.63368 0.15649 0.36213
 C705 C 0.65252 0.17454 0.34298
 C706 C 0.56943 0.08189 0.43839
 H707 H 0.57320 0.16344 0.41427
 H708 H 0.62499 0.07346 0.38725
 H709 H 0.59756 0.03940 0.42197
 H710 H 0.54543 0.12962 0.44921
 C711 C 0.59888 0.56837 -0.10586
 C712 C 0.59470 0.60371 -0.10865
 C713 C 0.57427 0.62136 -0.09076
 C714 C 0.55865 0.60390 -0.06982
 C715 C 0.66387 0.67359 -0.17960
 C716 C 0.58324 0.55083 -0.08494
 C717 C 0.61269 0.62218 -0.12899
 C718 C 0.62834 0.63806 -0.14546
 C719 C 0.64726 0.65706 -0.16413
 C720 C 0.56337 0.56854 -0.06648
 H721 H 0.61470 0.55448 -0.11957
 H722 H 0.57090 0.64871 -0.09273
 H723 H 0.54334 0.61817 -0.05601
 H724 H 0.58725 0.52357 -0.08290
 C725 C 0.89847 -0.06996 -0.09303
 C726 C 0.90193 -0.10531 -0.09540
 C727 C 0.92027 -0.12399 -0.07665
 C728 C 0.93466 -0.10746 -0.05535
 C729 C 0.83801 -0.16761 -0.17076
 C730 C 0.91283 -0.05338 -0.07177
 C731 C 0.88554 -0.12250 -0.11651
 C732 C 0.87112 -0.13677 -0.13391
 C733 C 0.85354 -0.15340 -0.15394
 C734 C 0.93075 -0.07203 -0.05254
 H735 H 0.88429 -0.05527 -0.10741
 H736 H 0.92308 -0.15138 -0.07831
 H737 H 0.94848 -0.12243 -0.04093
 H738 H 0.90951 -0.02605 -0.07019
 C739 C 0.90604 0.44069 0.40115
 C740 C 0.90948 0.40549 0.39797
 C741 C 0.92703 0.38589 0.41665
 C742 C 0.94069 0.40140 0.43869
 C743 C 0.84589 0.34525 0.32172
 C744 C 0.91966 0.45624 0.42314
 C745 C 0.89351 0.38934 0.37624
 C746 C 0.87924 0.37578 0.35847
 C747 C 0.86161 0.35961 0.33831
 C748 C 0.93679 0.43667 0.44228
 H749 H 0.89242 0.45605 0.38683
 H750 H 0.92974 0.35858 0.41436
 H751 H 0.95395 0.38579 0.45304
 H752 H 0.91642 0.48350 0.42530
 C753 C 0.41566 -0.05670 0.39519
 C754 C 0.42430 -0.09067 0.39016
 C755 C 0.44771 -0.10757 0.40620
 C756 C 0.46136 -0.09107 0.42782
 C757 C 0.35592 -0.16027 0.32121
 C758 C 0.42932 -0.04012 0.41678
 C759 C 0.40707 -0.10903 0.37001
 C760 C 0.39166 -0.12483 0.35395
 C761 C 0.37270 -0.14377 0.33596
 C762 C 0.45166 -0.05744 0.43372
 H763 H 0.39749 -0.04339 0.38297
 H764 H 0.45455 -0.13387 0.40253
 H765 H 0.47862 -0.10501 0.44044
 H766 H 0.42134 -0.01424 0.42083
 C767 C 0.41837 0.37989 -0.08526
 C768 C 0.39765 0.39710 -0.10326
 C769 C 0.39272 0.43235 -0.10117
 C770 C 0.40802 0.45023 -0.08091
 C771 C 0.33304 0.32648 -0.17395
 C772 C 0.43365 0.39768 -0.06499
 C773 C 0.38057 0.37832 -0.12327
 C774 C 0.36591 0.36225 -0.13960
 C775 C 0.34835 0.34308 -0.15831
 C776 C 0.42835 0.43298 -0.06242
 H777 H 0.42238 0.35262 -0.08668
 H778 H 0.37672 0.44595 -0.11497
 H779 H 0.40354 0.47741 -0.07949
 H780 H 0.44931 0.38374 -0.05115
 C781 C 1.08019 -0.12316 0.09201
 C782 C 1.10000 -0.10403 0.10889
 C783 C 1.10207 -0.06867 0.10528
 C784 C 1.08503 -0.05256 0.08455
 C785 C 1.17470 -0.16513 0.18065
 C786 C 1.06310 -0.10709 0.07124
 C787 C 1.11945 -0.12075 0.12915
 C788 C 1.13641 -0.13466 0.14574
 C789 C 1.15688 -0.15099 0.16475
 C790 C 1.06575 -0.07168 0.06707
 H791 H 1.07844 -0.15056 0.09461
 H792 H 1.11734 -0.05361 0.11821
 H793 H 1.08749 -0.02523 0.08191
 H794 H 1.04837 -0.12245 0.05815
 C795 C 1.10632 0.43134 0.59870
 C796 C 1.10266 0.39595 0.60115
 C797 C 1.08306 0.37860 0.58302
 C798 C 1.06762 0.39643 0.56229
 C799 C 1.16803 0.32620 0.67411
 C800 C 1.09088 0.44924 0.57799
 C801 C 1.11988 0.37725 0.62169
 C802 C 1.13471 0.36136 0.63853
 C803 C 1.15251 0.34249 0.65788
 C804 C 1.07166 0.43189 0.55940
 H805 H 1.12144 0.44504 0.61260
 H806 H 1.08004 0.35122 0.58471
 H807 H 1.05284 0.38241 0.54837
 H808 H 1.09437 0.47656 0.57633
 C809 C 0.62279 -0.05919 0.58422
 C810 C 0.60627 -0.07724 0.60448
 C811 C 0.57134 -0.08063 0.60395
 C812 C 0.55307 -0.06694 0.58286
 C813 C 0.67483 -0.14615 0.67578
 C814 C 0.60459 -0.04549 0.56309
 C815 C 0.62529 -0.09433 0.62479
 C816 C 0.64108 -0.10976 0.64130
 C817 C 0.65937 -0.12895 0.66011
 C818 C 0.56960 -0.04981 0.56193
 H819 H 0.64984 -0.05646 0.58441
 H820 H 0.55830 -0.09463 0.61949
 H821 H 0.52616 -0.07066 0.58258
 H822 H 0.61801 -0.03228 0.54735
 C823 C 0.60221 0.44065 0.09175
 C824 C 0.60141 0.40520 0.09491
 C825 C 0.58309 0.38552 0.07739
 C826 C 0.56610 0.40124 0.05644
 C827 C 0.67343 0.34644 0.16913
 C828 C 0.58528 0.45640 0.07086
 C829 C 0.62042 0.38906 0.11558
 C830 C 0.63691 0.37574 0.13267
 C831 C 0.65657 0.36013 0.15243
 C832 C 0.56740 0.43681 0.05280
 H833 H 0.61632 0.45609 0.10521
 H834 H 0.58234 0.35803 0.07970
 H835 H 0.55240 0.38558 0.04289
 H836 H 0.58663 0.48387 0.06863
 C837 C 0.89514 0.06241 0.10342
 C838 C 0.90093 0.09737 0.10582
 C839 C 0.92200 0.11422 0.08772
 C840 C 0.93671 0.09638 0.06693
 C841 C 0.83667 0.17117 0.17576
 C842 C 0.90989 0.04446 0.08264
 C843 C 0.88399 0.11645 0.12597
 C844 C 0.86936 0.13313 0.14223
 C845 C 0.85187 0.15337 0.16057
 C846 C 0.93043 0.06143 0.06398
 H847 H 0.87879 0.04918 0.11732
 H848 H 0.92660 0.14129 0.08942
 H849 H 0.95262 0.11002 0.05296
 H850 H 0.90472 0.01752 0.08089
 C851 C 0.89893 0.56713 0.59973
 C852 C 0.90273 0.60242 0.60190
 C853 C 0.92278 0.62021 0.58360
 C854 C 0.93846 0.60294 0.56289
 C855 C 0.83566 0.67198 0.67325
 C856 C 0.91464 0.54976 0.57904
 C857 C 0.88501 0.62072 0.62219
 C858 C 0.86976 0.63651 0.63870
 C859 C 0.85152 0.65547 0.65752
 C860 C 0.93420 0.56761 0.56021
 H861 H 0.88343 0.55312 0.61378
 H862 H 0.92588 0.64754 0.58509
 H863 H 0.95353 0.61731 0.54879
 H864 H 0.91100 0.52252 0.57750
 C865 C 0.42497 0.10468 0.59218
 C866 C 0.40268 0.08442 0.60689
 C867 C 0.39797 0.05030 0.60007
 C868 C 0.41501 0.03676 0.57821
 C869 C 0.33307 0.14909 0.67950
 C870 C 0.44186 0.09132 0.57037
 C871 C 0.38357 0.09965 0.62799
 C872 C 0.36764 0.11405 0.64491
 C873 C 0.34902 0.13244 0.66390
 C874 C 0.43671 0.05738 0.56290
 H875 H 0.42880 0.13110 0.59725
 H876 H 0.38068 0.03441 0.61129
 H877 H 0.41052 0.01056 0.57288
 H878 H 0.45856 0.10777 0.55908
 C879 C 0.42051 0.61989 0.07815
 C880 C 0.40197 0.60190 0.09733
 C881 C 0.39748 0.56673 0.09487
 C882 C 0.41113 0.54967 0.07318
 C883 C 0.34326 0.66901 0.17444
 C884 C 0.43414 0.60291 0.05643
 C885 C 0.38667 0.61977 0.11903
 C886 C 0.37342 0.63502 0.13685
 C887 C 0.35739 0.65321 0.15732
 C888 C 0.42934 0.56767 0.05360
 H889 H 0.42413 0.64712 0.07984
 H890 H 0.38315 0.55255 0.10958
 H891 H 0.40713 0.52250 0.07158
 H892 H 0.44823 0.61739 0.04176
   
