data_POSCAR
  _audit_creation_date              2014-09-24
  _audit_creation_method            'ToBaCCo'
  _symmetry_space_group_name_H-M    'P1'
  _symmetry_Int_Tables_number       1
  _symmetry_cell_setting            triclinic
  loop_
  _symmetry_equiv_pos_as_xyz
 x,y,z
_cell_length_a 42.9311
_cell_length_b 42.9385
_cell_length_c 45.6025
_cell_angle_alpha 89.931400
_cell_angle_beta 90.000000
_cell_angle_gamma 89.819500
loop_
  _atom_site_label
  _atom_site_type_symbol
  _atom_site_fract_x
  _atom_site_fract_y
  _atom_site_fract_z
C1 C -0.08451 0.31684 0.00039
 C2 C -0.06831 0.32167 0.02654
 C3 C -0.03576 0.32399 0.02629
 C4 C -0.01867 0.31944 0.00012
 C5 C -0.03560 0.31377 -0.02598
 C6 C -0.06825 0.31329 -0.02593
 C7 C 0.01641 0.31950 0.00023
 C8 C 0.03348 0.32408 -0.02595
 C9 C 0.06602 0.32187 -0.02616
 C10 C 0.08225 0.31708 -0.00002
 C11 C 0.06603 0.31348 0.02627
 C12 C 0.03340 0.31388 0.02634
 H13 H -0.10975 0.31522 0.00060
 H14 H -0.02413 0.32898 0.04677
 H15 H -0.02379 0.30901 -0.04643
 H16 H 0.02189 0.32899 -0.04648
 H17 H 0.10747 0.31550 -0.00024
 H18 H 0.02173 0.30909 0.04683
 C19 C 0.41598 0.81771 0.49998
 C20 C 0.43217 0.82253 0.52610
 C21 C 0.46469 0.82480 0.52589
 C22 C 0.48179 0.82027 0.49971
 C23 C 0.46484 0.81464 0.47361
 C24 C 0.43222 0.81415 0.47369
 C25 C 0.51687 0.82030 0.49981
 C26 C 0.53393 0.82485 0.47362
 C27 C 0.56647 0.82263 0.47341
 C28 C 0.58270 0.81784 0.49954
 C29 C 0.56649 0.81427 0.52584
 C30 C 0.53386 0.81471 0.52593
 H31 H 0.39076 0.81608 0.50020
 H32 H 0.47625 0.82970 0.54641
 H33 H 0.47655 0.80991 0.45312
 H34 H 0.52234 0.82973 0.45309
 H35 H 0.60793 0.81625 0.49932
 H36 H 0.52219 0.80996 0.54643
 C37 C 1.08449 0.68319 0.00010
 C38 C 1.06829 0.67836 0.02626
 C39 C 1.03574 0.67604 0.02602
 C40 C 1.01866 0.68058 -0.00017
 C41 C 1.03558 0.68625 -0.02628
 C42 C 1.06824 0.68674 -0.02622
 C43 C 0.98357 0.68053 -0.00006
 C44 C 0.96652 0.67589 -0.02623
 C45 C 0.93397 0.67809 -0.02645
 C46 C 0.91774 0.68293 -0.00033
 C47 C 0.93395 0.68658 0.02594
 C48 C 0.96658 0.68618 0.02603
 H49 H 1.10973 0.68481 0.00032
 H50 H 1.02410 0.67106 0.04650
 H51 H 1.02377 0.69101 -0.04674
 H52 H 0.97811 0.67095 -0.04674
 H53 H 0.89251 0.68450 -0.00056
 H54 H 0.97825 0.69102 0.04650
 C55 C 0.58401 0.18231 0.50058
 C56 C 0.56781 0.17749 0.52671
 C57 C 0.53529 0.17521 0.52649
 C58 C 0.51820 0.17973 0.50030
 C59 C 0.53515 0.18536 0.47419
 C60 C 0.56778 0.18586 0.47428
 C61 C 0.48311 0.17969 0.50039
 C62 C 0.46606 0.17518 0.47420
 C63 C 0.43352 0.17739 0.47398
 C64 C 0.41728 0.18214 0.50010
 C65 C 0.43348 0.18568 0.52640
 C66 C 0.46611 0.18525 0.52650
 H67 H 0.60923 0.18394 0.50080
 H68 H 0.52374 0.17031 0.54702
 H69 H 0.52345 0.19010 0.45369
 H70 H 0.47766 0.17032 0.45368
 H71 H 0.39205 0.18373 0.49987
 H72 H 0.47777 0.18997 0.54700
 C73 C 0.68317 -0.08310 0.00046
 C74 C 0.67846 -0.06684 0.02660
 C75 C 0.67618 -0.03428 0.02628
 C76 C 0.68066 -0.01726 0.00002
 C77 C 0.68621 -0.03430 -0.02604
 C78 C 0.68664 -0.06692 -0.02587
 C79 C 0.68070 0.01783 0.00001
 C80 C 0.67626 0.03488 -0.02624
 C81 C 0.67860 0.06742 -0.02656
 C82 C 0.68332 0.08364 -0.00042
 C83 C 0.68676 0.06743 0.02591
 C84 C 0.68626 0.03482 0.02607
 H85 H 0.68477 -0.10834 0.00065
 H86 H 0.67129 -0.02258 0.04675
 H87 H 0.69093 -0.02269 -0.04658
 H88 H 0.67136 0.02322 -0.04672
 H89 H 0.68497 0.10887 -0.00061
 H90 H 0.69095 0.02316 0.04662
 C91 C 0.18229 0.41680 0.50011
 C92 C 0.17742 0.43290 0.52628
 C93 C 0.17519 0.46543 0.52617
 C94 C 0.17978 0.48261 0.50006
 C95 C 0.18545 0.46576 0.47390
 C96 C 0.18592 0.43313 0.47388
 C97 C 0.17975 0.51768 0.50029
 C98 C 0.17513 0.53488 0.47417
 C99 C 0.17732 0.56740 0.47405
 C100 C 0.18217 0.58349 0.50022
 C101 C 0.18582 0.56713 0.52646
 C102 C 0.18539 0.53451 0.52644
 H103 H 0.18390 0.39158 0.50026
 H104 H 0.17026 0.47692 0.54672
 H105 H 0.19023 0.47755 0.45345
 H106 H 0.17022 0.52341 0.45362
 H107 H 0.18374 0.60870 0.50007
 H108 H 0.19019 0.52270 0.54689
 C109 C 0.31700 1.08316 -0.00034
 C110 C 0.32177 1.06678 0.02572
 C111 C 0.32397 1.03424 0.02538
 C112 C 0.31937 1.01732 -0.00085
 C113 C 0.31376 1.03444 -0.02690
 C114 C 0.31339 1.06709 -0.02672
 C115 C 0.31927 0.98223 -0.00086
 C116 C 0.32366 0.96522 -0.02710
 C117 C 0.32128 0.93268 -0.02739
 C118 C 0.31655 0.91642 -0.00124
 C119 C 0.31317 0.93259 0.02509
 C120 C 0.31371 0.96520 0.02523
 H121 H 0.31546 1.10840 0.00005
 H122 H 0.32887 1.02256 0.04587
 H123 H 0.30894 1.02280 -0.04740
 H124 H 0.32856 0.97691 -0.04759
 H125 H 0.31487 0.89120 -0.00140
 H126 H 0.30907 0.97683 0.04576
 C127 C 0.81776 0.58319 0.49981
 C128 C 0.82265 0.56707 0.52600
 C129 C 0.82489 0.53454 0.52595
 C130 C 0.82028 0.51737 0.49987
 C131 C 0.81459 0.53423 0.47368
 C132 C 0.81412 0.56686 0.47360
 C133 C 0.82030 0.48230 0.50016
 C134 C 0.82491 0.46511 0.47408
 C135 C 0.82272 0.43259 0.47403
 C136 C 0.81789 0.41650 0.50023
 C137 C 0.81425 0.43284 0.52643
 C138 C 0.81467 0.46547 0.52635
 H139 H 0.81615 0.60841 0.49991
 H140 H 0.82983 0.52304 0.54652
 H141 H 0.80980 0.52246 0.45326
 H142 H 0.82982 0.47659 0.45351
 H143 H 0.81631 0.39128 0.50013
 H144 H 0.80988 0.47727 0.54678
 O145 O 0.24979 0.20225 0.23062
 O146 O 0.22094 0.25895 0.28506
 O147 O 0.20630 0.24446 0.23091
 O148 O 0.26297 0.21535 0.28491
 O149 O 0.29747 0.24979 0.26938
 O150 O 0.24067 0.27882 0.21503
 O151 O 0.25530 0.29331 0.26918
 O152 O 0.28422 0.23675 0.21509
 Cu153 Cu 0.23145 0.22686 0.25945
 Cu154 Cu 0.27281 0.26822 0.24060
 C155 C 0.27187 0.21002 0.21362
 C156 C 0.23361 0.28558 0.28656
 C157 C 0.21402 0.26618 0.21355
 C158 C 0.28972 0.22767 0.28636
 O159 O 0.75025 0.79805 0.23010
 O160 O 0.77906 0.74124 0.28459
 O161 O 0.79370 0.75580 0.23042
 O162 O 0.73706 0.78487 0.28440
 O163 O 0.70253 0.75050 0.26890
 O164 O 0.75930 0.72150 0.21458
 O165 O 0.74466 0.70693 0.26874
 O166 O 0.71579 0.76361 0.21460
 Cu167 Cu 0.76857 0.77338 0.25895
 Cu168 Cu 0.72717 0.73209 0.24014
 C169 C 0.72816 0.79033 0.21311
 C170 C 0.76637 0.71462 0.28611
 C171 C 0.78596 0.73411 0.21309
 C172 C 0.71030 0.77258 0.28586
 O173 O 0.79786 0.24983 0.23029
 O174 O 0.74156 0.22082 0.28494
 O175 O 0.75579 0.20650 0.23064
 O176 O 0.78504 0.26268 0.28473
 O177 O 0.75042 0.29740 0.26958
 O178 O 0.72124 0.24109 0.21513
 O179 O 0.70700 0.25540 0.26943
 O180 O 0.76318 0.28448 0.21514
 Cu181 Cu 0.77348 0.23138 0.25919
 Cu182 Cu 0.73189 0.27301 0.24079
 C183 C 0.78993 0.27204 0.21345
 C184 C 0.71490 0.23357 0.28665
 C185 C 0.73394 0.21441 0.21345
 C186 C 0.77266 0.28945 0.28638
 O187 O 0.27875 0.75886 0.21468
 O188 O 0.24956 0.70257 0.26927
 O189 O 0.23679 0.71548 0.21480
 O190 O 0.29298 0.74456 0.26902
 O191 O 0.25844 0.77916 0.28444
 O192 O 0.20212 0.75014 0.22987
 O193 O 0.21495 0.73731 0.28434
 O194 O 0.24420 0.79346 0.23011
 Cu195 Cu 0.26809 0.72695 0.24042
 Cu196 Cu 0.22651 0.76859 0.25872
 C197 C 0.26604 0.78554 0.21293
 C198 C 0.22733 0.71053 0.28606
 C199 C 0.21004 0.72792 0.21309
 C200 C 0.28510 0.76641 0.28618
 O201 O 0.75088 0.20242 0.77033
 O202 O 0.77969 0.25908 0.71588
 O203 O 0.79411 0.24461 0.77016
 O204 O 0.73790 0.21552 0.71596
 O205 O 0.70312 0.24997 0.73124
 O206 O 0.75945 0.27899 0.78578
 O207 O 0.74504 0.29347 0.73150
 O208 O 0.71616 0.23694 0.78561
 Cu209 Cu 0.76923 0.22702 0.74154
 Cu210 Cu 0.72753 0.26840 0.76008
 C211 C 0.72865 0.21020 0.78719
 C212 C 0.76687 0.28571 0.71425
 C213 C 0.78616 0.26633 0.78744
 C214 C 0.71109 0.22784 0.71436
 O215 O 0.24904 0.79769 0.76975
 O216 O 0.22028 0.74097 0.71546
 O217 O 0.20585 0.75545 0.76970
 O218 O 0.26204 0.78456 0.71542
 O219 O 0.29685 0.75015 0.73081
 O220 O 0.24053 0.72111 0.78542
 O221 O 0.25496 0.70661 0.73119
 O222 O 0.28378 0.76321 0.78514
 Cu223 Cu 0.23072 0.77305 0.74103
 Cu224 Cu 0.27245 0.73172 0.75970
 C225 C 0.27126 0.78994 0.78664
 C226 C 0.23313 0.71434 0.71391
 C227 C 0.21381 0.73375 0.78703
 C228 C 0.28887 0.77226 0.71387
 O229 O 0.25913 0.22021 0.71538
 O230 O 0.20239 0.24919 0.76974
 O231 O 0.21547 0.26217 0.71539
 O232 O 0.24468 0.20578 0.76962
 O233 O 0.27899 0.24026 0.78530
 O234 O 0.24986 0.29678 0.73073
 O235 O 0.23684 0.28373 0.78507
 O236 O 0.29345 0.25468 0.73105
 Cu237 Cu 0.22703 0.23077 0.74098
 Cu238 Cu 0.26834 0.27226 0.75959
 C239 C 0.28574 0.23292 0.71379
 C240 C 0.21012 0.27136 0.78661
 C241 C 0.22774 0.28893 0.71383
 C242 C 0.26639 0.21361 0.78692
 O243 O 0.74085 0.77951 0.71484
 O244 O 0.79761 0.75050 0.76923
 O245 O 0.78454 0.73758 0.71490
 O246 O 0.75530 0.79387 0.76907
 O247 O 0.72101 0.75935 0.78478
 O248 O 0.75019 0.70292 0.73028
 O249 O 0.76319 0.71591 0.78461
 O250 O 0.70656 0.74498 0.73055
 Cu251 Cu 0.77296 0.76894 0.74045
 Cu252 Cu 0.73169 0.72739 0.75911
 C253 C 0.71425 0.76678 0.71327
 C254 C 0.78990 0.72831 0.78613
 C255 C 0.77230 0.71081 0.71336
 C256 C 0.73360 0.78600 0.78638
 C257 C 0.31463 0.11546 0.10200
 N258 N 0.29616 0.10430 0.12372
 N259 N 0.28930 0.12193 0.14689
 C260 C 0.30065 0.15128 0.14900
 N261 N 0.31922 0.16239 0.12734
 N262 N 0.32608 0.14476 0.10418
 C263 C 0.31923 0.09773 0.07572
 C264 C 0.32142 0.08335 0.05313
 C265 C 0.29118 0.17120 0.17262
 C266 C 0.28258 0.18856 0.19174
 C267 C 0.81560 0.61628 0.60195
 N268 N 0.79785 0.60485 0.62407
 N269 N 0.79092 0.62253 0.64718
 C270 C 0.80149 0.65220 0.64883
 N271 N 0.81935 0.66359 0.62678
 N272 N 0.82627 0.64591 0.60367
 C273 C 0.82019 0.59843 0.57576
 C274 C 0.82234 0.58389 0.55326
 C275 C 0.79189 0.67210 0.67241
 C276 C 0.78317 0.68943 0.69150
 C277 C 0.68556 0.88517 0.10144
 N278 N 0.70395 0.89628 0.12320
 N279 N 0.71078 0.87859 0.14638
 C280 C 0.69946 0.84923 0.14845
 N281 N 0.68095 0.83816 0.12675
 N282 N 0.67414 0.85584 0.10358
 C283 C 0.68102 0.90295 0.07514
 C284 C 0.67890 0.91738 0.05253
 C285 C 0.70890 0.82925 0.17209
 C286 C 0.71747 0.81184 0.19122
 C287 C 0.18448 0.38363 0.60231
 N288 N 0.20230 0.39500 0.62438
 N289 N 0.20923 0.37729 0.64750
 C290 C 0.19859 0.34764 0.64923
 N291 N 0.18065 0.33632 0.62723
 N292 N 0.17373 0.35402 0.60410
 C293 C 0.17989 0.40151 0.57609
 C294 C 0.17773 0.41606 0.55357
 C295 C 0.20818 0.32771 0.67283
 C296 C 0.21689 0.31035 0.69194
 C297 C 0.88384 0.31475 0.10140
 N298 N 0.85428 0.32575 0.10338
 N299 N 0.83675 0.31895 0.12663
 C300 C 0.84823 0.30088 0.14855
 N301 N 0.87784 0.28999 0.14662
 N302 N 0.89537 0.29680 0.12338
 C303 C 0.90152 0.31924 0.07505
 C304 C 0.91590 0.32130 0.05244
 C305 C 0.82847 0.29141 0.17227
 C306 C 0.81123 0.28280 0.19148
 C307 C 0.38319 0.81534 0.60224
 N308 N 0.39460 0.79725 0.62418
 N309 N 0.37697 0.79034 0.64732
 C310 C 0.34736 0.80127 0.64920
 N311 N 0.33600 0.81946 0.62732
 N312 N 0.35363 0.82637 0.60417
 C313 C 0.40098 0.81996 0.57599
 C314 C 0.41545 0.82216 0.55344
 C315 C 0.32750 0.79172 0.67282
 C316 C 0.31021 0.78306 0.69195
 C317 C 0.11613 0.68526 0.10111
 N318 N 0.14568 0.67424 0.10314
 N319 N 0.16321 0.68103 0.12637
 C320 C 0.15174 0.69911 0.14824
 N321 N 0.12214 0.71003 0.14628
 N322 N 0.10461 0.70323 0.12305
 C323 C 0.09846 0.68079 0.07478
 C324 C 0.08408 0.67873 0.05217
 C325 C 0.17151 0.70857 0.17195
 C326 C 0.18874 0.71717 0.19114
 C327 C 0.61677 0.18471 0.60284
 N328 N 0.64633 0.17369 0.60481
 N329 N 0.66396 0.18060 0.62794
 C330 C 0.65259 0.19881 0.64976
 N331 N 0.62299 0.20974 0.64786
 N332 N 0.60536 0.20282 0.62473
 C333 C 0.59899 0.18008 0.57660
 C334 C 0.58452 0.17788 0.55406
 C335 C 0.67245 0.20837 0.67336
 C336 C 0.68974 0.21704 0.69248
 C337 C 0.68583 0.11543 0.89865
 N338 N 0.67435 0.14480 0.89650
 N339 N 0.68122 0.16249 0.87337
 C340 C 0.69984 0.15138 0.85173
 N341 N 0.71122 0.12196 0.85381
 N342 N 0.70434 0.10427 0.87694
 C343 C 0.68125 0.09764 0.92492
 C344 C 0.67908 0.08321 0.94751
 C345 C 0.70932 0.17134 0.82814
 C346 C 0.71793 0.18873 0.80905
 C347 C 0.18427 0.61649 0.39793
 N348 N 0.17359 0.64618 0.39609
 N349 N 0.18045 0.66376 0.37289
 C350 C 0.19827 0.65220 0.35085
 N351 N 0.20885 0.62247 0.35262
 N352 N 0.20198 0.60489 0.37583
 C353 C 0.17973 0.59872 0.42420
 C354 C 0.17761 0.58422 0.44675
 C355 C 0.20781 0.67199 0.32717
 C356 C 0.21649 0.68923 0.30800
 C357 C 0.31399 0.88475 0.89788
 N358 N 0.32562 0.85544 0.89573
 N359 N 0.31876 0.83775 0.87263
 C360 C 0.30001 0.84881 0.85103
 N361 N 0.28849 0.87816 0.85313
 N362 N 0.29535 0.89585 0.87622
 C363 C 0.31859 0.90252 0.92412
 C364 C 0.32076 0.91693 0.94669
 C365 C 0.29055 0.82883 0.82750
 C366 C 0.28196 0.81143 0.80845
 C367 C 0.81574 0.38352 0.39800
 N368 N 0.82646 0.35384 0.39622
 N369 N 0.81959 0.33626 0.37306
 C370 C 0.80173 0.34780 0.35102
 N371 N 0.79112 0.37752 0.35274
 N372 N 0.79800 0.39510 0.37590
 C373 C 0.82030 0.40129 0.42424
 C374 C 0.82243 0.41578 0.44676
 C375 C 0.79218 0.32801 0.32739
 C376 C 0.78349 0.31076 0.30826
 C377 C 0.11513 0.31461 0.89778
 N378 N 0.10397 0.29632 0.87597
 N379 N 0.12171 0.28936 0.85290
 C380 C 0.15118 0.30044 0.85098
 N381 N 0.16230 0.31884 0.87272
 N382 N 0.14456 0.32580 0.89579
 C383 C 0.09726 0.31927 0.92398
 C384 C 0.08275 0.32149 0.94650
 C385 C 0.17119 0.29085 0.82745
 C386 C 0.18862 0.28217 0.80841
 C387 C 0.61549 0.81550 0.39728
 N388 N 0.60429 0.79726 0.37545
 N389 N 0.62198 0.79039 0.35232
 C390 C 0.65144 0.80149 0.35036
 N391 N 0.66260 0.81984 0.37213
 N392 N 0.64491 0.82671 0.39526
 C393 C 0.59767 0.82009 0.42352
 C394 C 0.58319 0.82227 0.44606
 C395 C 0.67141 0.79198 0.32678
 C396 C 0.68881 0.78335 0.30769
 C397 C 0.88488 0.68519 0.89745
 N398 N 0.85546 0.67400 0.89550
 N399 N 0.83772 0.68092 0.87239
 C400 C 0.84884 0.69929 0.85059
 N401 N 0.87831 0.71037 0.85248
 N402 N 0.89605 0.70345 0.87558
 C403 C 0.90275 0.68058 0.92368
 C404 C 0.91725 0.67841 0.94621
 C405 C 0.82883 0.70884 0.82703
 C406 C 0.81141 0.71751 0.80796
 C407 C 0.38453 0.18462 0.39782
 N408 N 0.39572 0.20293 0.37600
 N409 N 0.37803 0.20983 0.35286
 C410 C 0.34859 0.19869 0.35088
 N411 N 0.33745 0.18027 0.37265
 N412 N 0.35513 0.17337 0.39579
 C413 C 0.40234 0.17999 0.42408
 C414 C 0.41681 0.17778 0.44663
 C415 C 0.32863 0.20823 0.32729
 C416 C 0.31122 0.21688 0.30820
 C417 C 0.69988 0.88228 0.89956
 N418 N 0.72267 0.88943 0.88012
 N419 N 0.72783 0.87128 0.85692
 C420 C 0.71034 0.84547 0.85243
 N421 N 0.68751 0.83836 0.87184
 N422 N 0.68234 0.85651 0.89504
 C423 C 0.69524 0.90093 0.92531
 C424 C 0.69140 0.91596 0.94735
 C425 C 0.71726 0.82489 0.82850
 C426 C 0.72407 0.80727 0.80893
 C427 C 0.19967 0.38246 0.39930
 N428 N 0.22347 0.38873 0.38067
 N429 N 0.22876 0.37048 0.35757
 C430 C 0.21041 0.34542 0.35236
 N431 N 0.18657 0.33920 0.37095
 N432 N 0.18127 0.35745 0.39406
 C433 C 0.19486 0.40114 0.42501
 C434 C 0.19087 0.41614 0.44705
 C435 C 0.21736 0.32471 0.32853
 C436 C 0.22415 0.30697 0.30904
 C437 C 0.30023 0.11713 0.90015
 N438 N 0.27725 0.11014 0.88086
 N439 N 0.27204 0.12833 0.85766
 C440 C 0.28967 0.15403 0.85300
 N441 N 0.31269 0.16098 0.87226
 N442 N 0.31790 0.14279 0.89546
 C443 C 0.30492 0.09844 0.92590
 C444 C 0.30882 0.08339 0.94795
 C445 C 0.28273 0.17465 0.82906
 C446 C 0.27591 0.19230 0.80949
 C447 C 0.80031 0.61758 0.39895
 N448 N 0.77639 0.61144 0.38043
 N449 N 0.77108 0.62971 0.35731
 C450 C 0.78955 0.65467 0.35196
 N451 N 0.81351 0.66077 0.37044
 N452 N 0.81882 0.64249 0.39357
 C453 C 0.80513 0.59888 0.42468
 C454 C 0.80915 0.58387 0.44674
 C455 C 0.78259 0.67542 0.32811
 C456 C 0.77581 0.69319 0.30861
 C457 C 0.11781 0.69999 0.90046
 N458 N 0.11093 0.72335 0.88146
 N459 N 0.12900 0.72856 0.85821
 C460 C 0.15448 0.71056 0.85322
 N461 N 0.16133 0.68717 0.87219
 N462 N 0.14325 0.68195 0.89543
 C463 C 0.09927 0.69528 0.92628
 C464 C 0.08436 0.69135 0.94838
 C465 C 0.17500 0.71749 0.82924
 C466 C 0.19258 0.72427 0.80964
 C467 C 0.61854 0.19950 0.39972
 N468 N 0.64416 0.18166 0.39491
 N469 N 0.66234 0.18695 0.37175
 C470 C 0.65542 0.21021 0.35267
 N471 N 0.62976 0.22801 0.35745
 N472 N 0.61158 0.22272 0.38061
 C473 C 0.59987 0.19472 0.42545
 C474 C 0.58486 0.19076 0.44748
 C475 C 0.67602 0.21720 0.32876
 C476 C 0.69365 0.22404 0.30921
 C477 C 0.88217 0.30006 0.90078
 N478 N 0.88905 0.27671 0.88183
 N479 N 0.87097 0.27150 0.85859
 C480 C 0.84550 0.28950 0.85357
 N481 N 0.83866 0.31289 0.87248
 N482 N 0.85674 0.31810 0.89572
 C483 C 0.90071 0.30477 0.92659
 C484 C 0.91563 0.30869 0.94869
 C485 C 0.82497 0.28259 0.82960
 C486 C 0.80739 0.27581 0.81001
 C487 C 0.38147 0.80049 0.39916
 N488 N 0.38841 0.77724 0.38012
 N489 N 0.37023 0.77195 0.35697
 C490 C 0.34458 0.78977 0.35213
 N491 N 0.33768 0.81306 0.37114
 N492 N 0.35586 0.81835 0.39428
 C493 C 0.40013 0.80528 0.42488
 C494 C 0.41515 0.80924 0.44690
 C495 C 0.32398 0.78278 0.32825
 C496 C 0.30635 0.77593 0.30872
 C497 C 0.29989 0.88178 0.09969
 N498 N 0.31740 0.85586 0.10423
 N499 N 0.31221 0.83770 0.12744
 C500 C 0.28938 0.84494 0.14685
 N501 N 0.27192 0.87090 0.14234
 N502 N 0.27711 0.88906 0.11914
 C503 C 0.30454 0.90044 0.07394
 C504 C 0.30839 0.91547 0.05189
 C505 C 0.28243 0.82437 0.17079
 C506 C 0.27560 0.80677 0.19036
 C507 C 0.80061 0.38229 0.60117
 N508 N 0.81904 0.35719 0.60649
 N509 N 0.81379 0.33901 0.62967
 C510 C 0.78997 0.34540 0.64827
 N511 N 0.77158 0.37054 0.64299
 N512 N 0.77683 0.38873 0.61981
 C513 C 0.80538 0.40091 0.57539
 C514 C 0.80934 0.41587 0.55331
 C515 C 0.78305 0.32475 0.67218
 C516 C 0.77630 0.30707 0.69172
 C517 C 0.70006 0.11817 0.10044
 N518 N 0.68247 0.14401 0.10500
 N519 N 0.68767 0.16217 0.12817
 C520 C 0.71059 0.15499 0.14752
 N521 N 0.72814 0.12911 0.14299
 N522 N 0.72294 0.11096 0.11982
 C523 C 0.69540 0.09953 0.07472
 C524 C 0.69154 0.08452 0.05269
 C525 C 0.71755 0.17557 0.17141
 C526 C 0.72439 0.19318 0.19094
 C527 C 0.19946 0.61769 0.60108
 N528 N 0.18094 0.64271 0.60641
 N529 N 0.18619 0.66090 0.62954
 C530 C 0.21009 0.65460 0.64809
 N531 N 0.22856 0.62953 0.64280
 N532 N 0.22331 0.61134 0.61967
 C533 C 0.19469 0.59906 0.57535
 C534 C 0.19073 0.58410 0.55330
 C535 C 0.21699 0.67526 0.67194
 C536 C 0.22373 0.69296 0.69143
 C537 C 0.88300 0.70020 0.10041
 N538 N 0.85771 0.68208 0.10540
 N539 N 0.83942 0.68734 0.12850
 C540 C 0.84589 0.71086 0.14735
 N541 N 0.87122 0.72893 0.14239
 N542 N 0.88951 0.72367 0.11929
 C543 C 0.90175 0.69544 0.07473
 C544 C 0.91683 0.69149 0.05272
 C545 C 0.82514 0.71781 0.17116
 C546 C 0.80738 0.72461 0.19063
 C547 C 0.38258 0.19912 0.60093
 N548 N 0.35716 0.18115 0.60580
 N549 N 0.33892 0.18638 0.62894
 C550 C 0.34556 0.20971 0.64794
 N551 N 0.37102 0.22763 0.64310
 N552 N 0.38927 0.22241 0.61996
 C553 C 0.40130 0.19442 0.57521
 C554 C 0.41636 0.19051 0.55319
 C555 C 0.32486 0.21664 0.67180
 C556 C 0.30713 0.22343 0.69130
 C557 C 0.11697 0.30000 0.10079
 N558 N 0.11041 0.27660 0.11980
 N559 N 0.12870 0.27138 0.14292
 C560 C 0.15407 0.28941 0.14777
 N561 N 0.16059 0.31285 0.12880
 N562 N 0.14230 0.31808 0.10568
 C563 C 0.09822 0.30471 0.07509
 C564 C 0.08315 0.30862 0.05307
 C565 C 0.17483 0.28248 0.17160
 C566 C 0.19259 0.27568 0.19108
 C567 C 0.61738 0.80071 0.60039
 N568 N 0.64274 0.81874 0.60530
 N569 N 0.66099 0.81348 0.62844
 C570 C 0.65441 0.79005 0.64740
 N571 N 0.62901 0.77207 0.64252
 N572 N 0.61076 0.77732 0.61938
 C573 C 0.59867 0.80546 0.57467
 C574 C 0.58361 0.80940 0.55264
 C575 C 0.67512 0.78309 0.67126
 C576 C 0.69285 0.77628 0.69077
   
