data_POSCAR
  _audit_creation_date              2014-09-24
  _audit_creation_method            'ToBaCCo'
  _symmetry_space_group_name_H-M    'P1'
  _symmetry_Int_Tables_number       1
  _symmetry_cell_setting            triclinic
  loop_
  _symmetry_equiv_pos_as_xyz
 x,y,z
_cell_length_a 30.8309
_cell_length_b 30.6551
_cell_length_c 23.6495
_cell_angle_alpha 90.494900
_cell_angle_beta 90.203200
_cell_angle_gamma 120.797800
loop_
  _atom_site_label
  _atom_site_type_symbol
  _atom_site_fract_x
  _atom_site_fract_y
  _atom_site_fract_z
O1 O -0.08691 0.42876 0.02201
 O2 O 0.00590 0.55663 0.07840
 O3 O -0.07986 0.51477 0.01984
 O4 O -0.01718 0.46070 0.09882
 O5 O 0.03720 0.47912 0.02965
 O6 O -0.02989 0.52944 -0.05317
 O7 O 0.05336 0.57013 0.00330
 O8 O -0.03600 0.44277 -0.04987
 Cu9 Cu -0.04796 0.49014 0.06247
 Cu10 Cu 0.01135 0.50593 -0.02336
 C11 C -0.07728 0.41460 -0.02473
 C12 C 0.04515 0.58543 0.04959
 C13 C -0.06698 0.53013 -0.03020
 C14 C 0.02085 0.46102 0.07853
 O15 O 0.52877 0.58639 -0.02515
 O16 O 0.48648 0.45718 -0.07966
 O17 O 0.44386 0.49969 -0.02546
 O18 O 0.57134 0.54423 -0.08001
 O19 O 0.59290 0.52422 0.00050
 O20 O 0.46602 0.48107 0.05562
 O21 O 0.50843 0.43814 0.00128
 O22 O 0.55045 0.56665 0.05549
 Cu23 Cu 0.50545 0.52376 -0.06076
 Cu24 Cu 0.53162 0.50059 0.03632
 C25 C 0.54632 0.59824 0.02490
 C26 C 0.49062 0.42582 -0.04857
 C27 C 0.43352 0.48348 0.02475
 C28 C 0.60372 0.54134 -0.04936
 O29 O 0.54089 1.01236 -0.07142
 O30 O 0.41369 0.93774 -0.01153
 O31 O 0.46194 1.02080 -0.07078
 O32 O 0.49381 0.93038 -0.00976
 O33 O 0.51996 0.97663 0.06870
 O34 O 0.48886 1.06738 0.00734
 O35 O 0.43985 0.98418 0.06680
 O36 O 0.56807 1.05795 0.00745
 Cu37 Cu 0.47485 0.97061 -0.04865
 Cu38 Cu 0.50677 1.02621 0.04541
 C39 C 0.57600 1.04827 -0.04251
 C40 C 0.40516 0.94769 0.03795
 C41 C 0.47095 1.06012 -0.04255
 C42 C 0.51181 0.93783 0.04014
 O43 O 1.06681 0.57083 0.50566
 O44 O 0.99054 0.44253 0.56269
 O45 O 1.07239 0.48916 0.50004
 O46 O 0.98249 0.52238 0.55966
 O47 O 0.93825 0.49755 0.48002
 O48 O 1.02743 0.46384 0.42105
 O49 O 0.94567 0.41656 0.48358
 O50 O 1.02265 0.54556 0.42597
 Cu51 Cu 1.03254 0.50840 0.53995
 Cu52 Cu 0.97898 0.47793 0.44473
 C53 C 1.05779 0.58018 0.45632
 C54 C 0.95424 0.40809 0.53373
 C55 C 1.06597 0.47219 0.44955
 C56 C 0.94525 0.51592 0.52969
 O57 O 0.53859 0.55881 0.42209
 O58 O 0.49315 0.42997 0.47576
 O59 O 0.45231 0.47379 0.42098
 O60 O 0.58005 0.51471 0.47506
 O61 O 0.56067 0.53600 0.55648
 O62 O 0.43346 0.49622 0.50202
 O63 O 0.47445 0.45248 0.55684
 O64 O 0.51943 0.58047 0.50345
 Cu65 Cu 0.51793 0.49210 0.44027
 Cu66 Cu 0.49513 0.51847 0.53786
 C67 C 0.53610 0.59133 0.45349
 C68 C 0.47668 0.41963 0.52593
 C69 C 0.42139 0.47867 0.45193
 C70 C 0.59184 0.53169 0.52536
 O71 O 0.48051 -0.11409 0.53010
 O72 O 0.43227 -0.04606 0.61360
 O73 O 0.39755 -0.11108 0.53106
 O74 O 0.51476 -0.04969 0.61577
 O75 O 0.54838 0.01373 0.55558
 O76 O 0.43229 -0.04942 0.46878
 O77 O 0.46625 0.01667 0.55246
 O78 O 0.51569 -0.05069 0.46997
 Cu79 Cu 0.45308 -0.08666 0.57863
 Cu80 Cu 0.49418 -0.01112 0.50557
 C81 C 0.50568 -0.09439 0.48555
 C82 C 0.44132 -0.00289 0.59723
 C83 C 0.39491 -0.09104 0.48545
 C84 C 0.55102 -0.00676 0.60095
 C85 C 0.19798 0.45685 0.20158
 C86 C 0.18696 0.44232 0.25901
 C87 C 0.21883 0.42995 0.28892
 C88 C 0.26242 0.43464 0.26427
 C89 C 0.27332 0.44952 0.20721
 C90 C 0.24094 0.46055 0.17689
 H91 H 0.25013 0.47428 0.13400
 H92 H 0.20995 0.41648 0.33185
 C93 C 0.58467 0.75740 0.21647
 C94 C 0.59259 0.76054 0.27575
 C95 C 0.59482 0.80101 0.30635
 C96 C 0.58599 0.83683 0.28049
 C97 C 0.58062 0.83557 0.22079
 C98 C 0.58076 0.79612 0.18961
 H99 H 0.57616 0.79474 0.14429
 H100 H 0.60263 0.80416 0.35135
 C101 C 0.24277 0.83999 0.22437
 C102 C 0.24846 0.83088 0.28185
 C103 C 0.21047 0.78607 0.30701
 C104 C 0.16632 0.75133 0.27752
 C105 C 0.15992 0.76163 0.22106
 C106 C 0.19787 0.80577 0.19522
 H107 H 0.19234 0.81321 0.15190
 H108 H 0.21705 0.77613 0.34852
 C109 C 0.83152 0.56735 0.71310
 C110 C 0.83981 0.58367 0.77037
 C111 C 0.80629 0.59552 0.79662
 C112 C 0.76285 0.58822 0.76861
 C113 C 0.75416 0.57173 0.71143
 C114 C 0.78893 0.56199 0.68423
 H115 H 0.78058 0.54629 0.64180
 H116 H 0.81363 0.60983 0.83975
 C117 C 0.44229 0.26229 0.71253
 C118 C 0.43079 0.25502 0.77078
 C119 C 0.42571 0.21182 0.79741
 C120 C 0.43424 0.17671 0.76802
 C121 C 0.44561 0.18422 0.70955
 C122 C 0.44973 0.22679 0.68296
 H123 H 0.46118 0.23321 0.63913
 H124 H 0.41510 0.20585 0.84147
 C125 C 0.73714 0.18171 0.71276
 C126 C 0.73401 0.17615 0.77235
 C127 C 0.77534 0.21161 0.80572
 C128 C 0.81836 0.25288 0.78159
 C129 C 0.82120 0.25806 0.72198
 C130 C 0.78021 0.22236 0.68877
 H131 H 0.78034 0.22709 0.64346
 H132 H 0.77361 0.20854 0.85118
 C133 C 0.04601 0.44054 0.11295
 C134 C 0.09610 0.46174 0.11372
 C135 C 0.12092 0.44392 0.15289
 C136 C 0.16964 0.47388 0.16656
 H137 H 0.11917 0.49440 0.08753
 H138 H 0.09932 0.40624 0.17058
 H139 H 0.02331 0.41059 0.14243
 H140 H 0.19115 0.51059 0.14659
 C141 C 0.56101 0.64884 0.04804
 C142 C 0.56823 0.65858 0.10357
 C143 C 0.57942 0.70754 0.12861
 C144 C 0.57557 0.71112 0.18466
 H145 H 0.56378 0.62890 0.13184
 H146 H 0.59059 0.73964 0.10131
 H147 H 0.56325 0.67747 0.01962
 H148 H 0.56357 0.67698 0.20876
 C149 C 0.35488 0.91442 0.06219
 C150 C 0.34288 0.92020 0.11489
 C151 C 0.29581 0.88018 0.14052
 C152 C 0.28421 0.88388 0.19416
 H153 H 0.36934 0.95261 0.14050
 H154 H 0.27279 0.84533 0.11663
 H155 H 0.32802 0.88183 0.03705
 H156 H 0.30863 0.91848 0.21779
 C157 C 0.90964 0.52995 0.55232
 C158 C 0.90761 0.53801 0.60751
 C159 C 0.87230 0.55255 0.63001
 C160 C 0.86455 0.55126 0.68569
 H161 H 0.93195 0.53319 0.63680
 H162 H 0.85392 0.56534 0.60109
 H163 H 0.88383 0.53257 0.52323
 H164 H 0.88403 0.53815 0.71250
 C165 C 0.46124 0.36936 0.54891
 C166 C 0.45669 0.36141 0.60458
 C167 C 0.44528 0.31266 0.62868
 C168 C 0.45156 0.30943 0.68419
 H169 H 0.46375 0.39219 0.63330
 H170 H 0.43201 0.27992 0.60094
 H171 H 0.45654 0.33948 0.52017
 H172 H 0.46460 0.34333 0.71002
 C173 C 0.59569 0.02015 0.63820
 C174 C 0.62835 0.06984 0.63282
 C175 C 0.66939 0.09857 0.67414
 C176 C 0.69524 0.14929 0.67315
 H177 H 0.62305 0.09046 0.59908
 H178 H 0.67776 0.07853 0.70583
 H179 H 0.59959 -0.00019 0.67324
 H180 H 0.68755 0.16831 0.63952
 C181 C 0.46287 0.09684 0.93342
 C182 C 0.44738 0.09375 0.87978
 C183 C 0.44505 0.13598 0.85363
 C184 C 0.43347 0.13402 0.79866
 H185 H 0.43848 0.06078 0.85385
 H186 H 0.45556 0.16963 0.87889
 H187 H 0.47187 0.13022 0.95863
 H188 H 0.42576 0.10047 0.77511
 C189 C 0.65114 0.55517 0.92936
 C190 C 0.66582 0.57394 0.87747
 C191 C 0.71171 0.57863 0.85273
 C192 C 0.72536 0.59547 0.80005
 H193 H 0.64209 0.58238 0.85135
 H194 H 0.73123 0.56313 0.87557
 H195 H 0.67602 0.54821 0.95530
 H196 H 0.70437 0.60945 0.77741
 C197 C 0.88437 0.36617 0.94890
 C198 C 0.89261 0.34964 0.89980
 C199 C 0.85135 0.30627 0.86874
 C200 C 0.85975 0.29104 0.81879
 H201 H 0.92953 0.37017 0.88047
 H202 H 0.81334 0.28946 0.88491
 H203 H 0.84754 0.34539 0.96836
 H204 H 0.89801 0.30975 0.80300
 C205 C 0.52176 0.87611 0.45134
 C206 C 0.54554 0.89221 0.40191
 C207 C 0.55570 0.85842 0.36700
 C208 C 0.57928 0.87279 0.31715
 H209 H 0.55592 0.92944 0.38634
 H210 H 0.54143 0.82003 0.38155
 H211 H 0.51157 0.83871 0.46625
 H212 H 0.59147 0.91064 0.30252
 C213 C 0.37180 0.46638 0.42914
 C214 C 0.35539 0.44519 0.37798
 C215 C 0.31111 0.44311 0.35123
 C216 C 0.29735 0.42527 0.29836
 H217 H 0.37707 0.43287 0.35371
 H218 H 0.29324 0.46121 0.37252
 H219 H 0.34975 0.47813 0.45356
 H220 H 0.31689 0.40880 0.27731
 C221 C 0.08917 0.63186 0.43452
 C222 C 0.08861 0.64248 0.38003
 C223 C 0.12304 0.69376 0.35861
 C224 C 0.12985 0.70151 0.30299
 H225 H 0.06417 0.61256 0.35043
 H226 H 0.14319 0.72472 0.38861
 H227 H 0.11505 0.66144 0.46358
 H228 H 0.10823 0.66934 0.27478
 C229 C 0.90428 0.54587 0.94040
 C230 C 0.91288 0.56203 0.88703
 C231 C 0.87526 0.56960 0.85717
 C232 C 0.88188 0.58598 0.80394
 H233 H 0.94552 0.56664 0.86450
 H234 H 0.83955 0.55742 0.87780
 H235 H 0.87171 0.54263 0.96186
 H236 H 0.91720 0.59670 0.78325
 C237 C 0.47675 0.37515 0.92941
 C238 C 0.45299 0.35703 0.87983
 C239 C 0.44759 0.31028 0.85469
 C240 C 0.42556 0.29340 0.80403
 H241 H 0.44032 0.37851 0.85587
 H242 H 0.46616 0.29260 0.87512
 H243 H 0.48855 0.35307 0.95364
 H244 H 0.40852 0.31258 0.78360
 C245 C 0.62631 0.08008 0.93272
 C246 C 0.63268 0.08544 0.87675
 C247 C 0.68237 0.12100 0.85247
 C248 C 0.68587 0.13780 0.79954
 H249 H 0.60030 0.06557 0.84859
 H250 H 0.71559 0.13365 0.87869
 H251 H 0.65806 0.10246 0.96098
 H252 H 0.65116 0.12374 0.77552
 C253 C 0.10278 0.46455 0.42506
 C254 C 0.10115 0.45168 0.37040
 C255 C 0.14354 0.44987 0.34421
 C256 C 0.14402 0.44198 0.28837
 H257 H 0.06940 0.44464 0.34383
 H258 H 0.17544 0.45754 0.37069
 H259 H 0.13520 0.47218 0.45074
 H260 H 0.11252 0.43743 0.26343
 C261 C 0.55013 0.64155 0.43163
 C262 C 0.57103 0.65754 0.38098
 C263 C 0.57527 0.70352 0.35660
 C264 C 0.59687 0.72075 0.30642
 H265 H 0.58197 0.63499 0.35593
 H266 H 0.55652 0.72072 0.37786
 H267 H 0.54020 0.66488 0.45675
 H268 H 0.61441 0.70221 0.28539
 C269 C 0.35022 0.88419 0.45400
 C270 C 0.34568 0.89782 0.40171
 C271 C 0.29761 0.86820 0.37074
 C272 C 0.29590 0.86489 0.31420
 H273 H 0.37779 0.92867 0.38062
 H274 H 0.26352 0.84746 0.39528
 H275 H 0.31831 0.85091 0.47228
 H276 H 0.33085 0.88651 0.29131
 C277 C 0.52179 0.89997 0.06523
 C278 C 0.54306 0.90656 0.11639
 C279 C 0.54896 0.86635 0.14238
 C280 C 0.57449 0.87487 0.19115
 H281 H 0.55558 0.94164 0.13981
 H282 H 0.53078 0.82929 0.12211
 H283 H 0.51021 0.86521 0.04153
 H284 H 0.59112 0.91231 0.21016
 C285 C 0.38349 0.46843 0.04741
 C286 C 0.37470 0.46385 0.10292
 C287 C 0.32584 0.45290 0.12566
 C288 C 0.32090 0.45824 0.18105
 H289 H 0.40467 0.47052 0.13226
 H290 H 0.29421 0.44081 0.09687
 H291 H 0.35425 0.46401 0.01825
 H292 H 0.35341 0.46985 0.20835
 C293 C 0.08298 0.63658 0.06993
 C294 C 0.07640 0.65830 0.11559
 C295 C 0.11888 0.70580 0.13894
 C296 C 0.11467 0.72459 0.18831
 H297 H 0.04090 0.63923 0.13804
 H298 H 0.15552 0.72216 0.11903
 H299 H 0.11852 0.65622 0.04759
 H300 H 0.07844 0.70647 0.20928
 C301 C 0.42311 0.02479 0.63134
 C302 C 0.44516 0.07525 0.62908
 C303 C 0.42904 0.10325 0.66584
 C304 C 0.45988 0.15290 0.67539
 H305 H 0.47722 0.09657 0.60161
 H306 H 0.39215 0.08326 0.68528
 H307 H 0.39318 0.00373 0.66136
 H308 H 0.49566 0.17262 0.65353
 C309 C 0.64200 0.54560 0.54788
 C310 C 0.65161 0.55071 0.60344
 C311 C 0.70083 0.56235 0.62687
 C312 C 0.70608 0.55941 0.68266
 H313 H 0.62206 0.54485 0.63259
 H314 H 0.73246 0.57397 0.59876
 H315 H 0.67063 0.54927 0.51861
 H316 H 0.67319 0.54773 0.70877
 C317 C 0.92033 0.35828 0.55910
 C318 C 0.91618 0.35263 0.61527
 C319 C 0.87728 0.30474 0.64065
 C320 C 0.86392 0.30354 0.69482
 H321 H 0.93933 0.38484 0.64294
 H322 H 0.85873 0.27102 0.61410
 H323 H 0.89515 0.32696 0.53143
 H324 H 0.88404 0.33827 0.71966
   
