data_POSCAR
  _audit_creation_date              2014-09-24
  _audit_creation_method            'ToBaCCo'
  _symmetry_space_group_name_H-M    'P1'
  _symmetry_Int_Tables_number       1
  _symmetry_cell_setting            triclinic
  loop_
  _symmetry_equiv_pos_as_xyz
 x,y,z
_cell_length_a 26.4746
_cell_length_b 26.5844
_cell_length_c 37.8174
_cell_angle_alpha 90.201500
_cell_angle_beta 89.778800
_cell_angle_gamma 116.793500
loop_
  _atom_site_label
  _atom_site_type_symbol
  _atom_site_fract_x
  _atom_site_fract_y
  _atom_site_fract_z
C1 C 0.02301 0.54484 1.28146
 C2 C -0.03713 0.51540 1.27878
 C3 C -0.06189 0.50332 1.24498
 C4 C -0.02955 0.52118 1.21392
 C5 C 0.02962 0.55438 1.21678
 C6 C 0.05507 0.56417 1.25016
 H7 H 0.10069 0.58868 1.25168
 H8 H -0.10742 0.47851 1.24271
 C9 C 0.53226 0.49763 1.21785
 C10 C 0.48203 0.50386 1.21786
 C11 C 0.45738 0.50692 1.25012
 C12 C 0.48210 0.50560 1.28289
 C13 C 0.53284 0.49941 1.28269
 C14 C 0.55711 0.49592 1.25020
 H15 H 0.59427 0.48867 1.25010
 H16 H 0.42043 0.51447 1.24938
 C17 C 0.46858 0.97287 1.28791
 C18 C 0.48646 1.03224 1.28596
 C19 C 0.49492 1.05770 1.25239
 C20 C 0.48960 1.02719 1.22126
 C21 C 0.47483 0.96941 1.22311
 C22 C 0.46416 0.94285 1.25618
 H23 H 0.44971 0.89767 1.25679
 H24 H 0.50962 1.10281 1.25020
 C25 C 0.97391 0.48721 0.71893
 C26 C 1.03330 0.50783 0.71862
 C27 C 1.06248 0.51802 0.75086
 C28 C 1.03389 0.50561 0.78363
 C29 C 0.97394 0.48295 0.78357
 C30 C 0.94509 0.47470 0.75139
 H31 H 0.89942 0.45839 0.75164
 H32 H 1.10809 0.53398 0.75022
 C33 C 0.50176 0.52434 0.78437
 C34 C 0.51431 0.47811 0.78411
 C35 C 0.51970 0.45516 0.75177
 C36 C 0.51220 0.47687 0.71958
 C37 C 0.49941 0.52306 0.71981
 C38 C 0.49446 0.54623 0.75221
 H39 H 0.48375 0.58110 0.75245
 H40 H 0.53041 0.42028 0.75168
 C41 C 0.46573 -0.02833 0.78251
 C42 C 0.49340 0.03158 0.78064
 C43 C 0.50996 0.05816 0.74766
 C44 C 0.50037 0.02709 0.71632
 C45 C 0.47419 -0.03224 0.71783
 C46 C 0.45740 -0.05919 0.75071
 H47 H 0.43590 -0.10486 0.75116
 H48 H 0.53117 0.10382 0.74637
 O49 O 0.42150 0.65971 0.97177
 O50 O 0.41565 0.75235 0.96242
 C51 C 0.38675 0.77677 0.95296
 O52 O 0.34449 0.77359 0.97065
 O53 O 0.25697 0.67949 0.95738
 C54 C 0.23400 0.62760 0.94988
 O55 O 0.23706 0.59081 0.97006
 O56 O 0.33423 0.59214 0.96104
 C57 C 0.38583 0.61973 0.95285
 O58 O 0.41596 0.67355 1.04259
 O59 O 0.41318 0.76912 1.03403
 C60 C 0.37388 0.77448 1.05093
 O61 O 0.32294 0.75233 1.04067
 O62 O 0.23100 0.66155 1.02756
 C63 C 0.22472 0.61885 1.04583
 O64 O 0.25331 0.59213 1.04065
 O65 O 0.34858 0.58677 1.03152
 C66 C 0.39185 0.62122 1.04861
 Cr67 Cr 0.41366 0.71254 1.00276
 Cr68 Cr 0.29030 0.71523 0.99921
 Cr69 Cr 0.29482 0.59336 1.00096
 O70 O 0.33308 0.67375 1.00153
 O71 O 0.59019 0.33775 0.96835
 O72 O 0.59249 0.24213 0.96155
 C73 C 0.61870 0.21332 0.95583
 O74 O 0.66005 0.21772 0.97477
 O75 O 0.75204 0.30916 0.96214
 C76 C 0.77709 0.36066 0.95356
 O77 O 0.77302 0.39927 0.97163
 O78 O 0.67906 0.40318 0.95966
 C79 C 0.62776 0.37784 0.95055
 O80 O 0.58943 0.32555 1.03933
 O81 O 0.58791 0.22748 1.03308
 C82 C 0.62400 0.22058 1.05218
 O83 O 0.67611 0.24159 1.04452
 O84 O 0.77171 0.32868 1.03251
 C85 C 0.77861 0.37268 1.04953
 O86 O 0.75347 0.40178 1.04181
 O87 O 0.66120 0.41064 1.02980
 C88 C 0.61605 0.37765 1.04600
 Cr89 Cr 0.59305 0.28448 1.00068
 Cr90 Cr 0.71360 0.27599 1.00343
 Cr91 Cr 0.71506 0.40075 1.00082
 O92 O 0.67379 0.32048 1.00196
 O93 O 0.66756 0.41814 0.52858
 O94 O 0.76232 0.41156 0.53706
 C95 C 0.78953 0.38350 0.54300
 O96 O 0.78202 0.34007 0.52513
 O97 O 0.68911 0.25106 0.54103
 C98 C 0.63760 0.22790 0.55036
 O99 O 0.59961 0.23497 0.53373
 O100 O 0.60148 0.33304 0.54402
 C101 C 0.62715 0.38597 0.54843
 O102 O 0.67670 0.40961 0.45811
 O103 O 0.77396 0.40877 0.46615
 C104 C 0.78093 0.37169 0.44844
 O105 O 0.75697 0.31970 0.45603
 O106 O 0.66540 0.22723 0.47157
 C107 C 0.62060 0.22087 0.45564
 O108 O 0.59422 0.24908 0.46335
 O109 O 0.59093 0.34427 0.47386
 C110 C 0.62348 0.38428 0.45387
 Cr111 Cr 0.71879 0.40904 0.49758
 Cr112 Cr 0.72168 0.28603 0.49846
 Cr113 Cr 0.59961 0.29169 0.50360
 O114 O 0.68003 0.32891 0.49973
 O115 O 0.33687 0.57480 0.53034
 O116 O 0.24129 0.58065 0.53532
 C117 C 0.21427 0.60914 0.54065
 O118 O 0.22217 0.65209 0.52221
 O119 O 0.31347 0.74203 0.53801
 C120 C 0.36381 0.76491 0.54928
 O121 O 0.40340 0.75798 0.53432
 O122 O 0.40143 0.66044 0.54623
 C123 C 0.37614 0.60757 0.55068
 O124 O 0.33244 0.58211 0.45946
 O125 O 0.23429 0.58158 0.46390
 C126 C 0.22851 0.61837 0.44535
 O127 O 0.25106 0.67022 0.45311
 O128 O 0.34105 0.76299 0.46838
 C129 C 0.38621 0.76768 0.45344
 O130 O 0.41349 0.74194 0.46415
 O131 O 0.41703 0.64777 0.47676
 C132 C 0.38585 0.60755 0.45639
 Cr133 Cr 0.28751 0.58275 0.49738
 Cr134 Cr 0.28365 0.70535 0.49557
 Cr135 Cr 0.40580 0.70078 0.50516
 O136 O 0.32561 0.66297 0.49932
 C137 C 0.39751 0.48990 0.31737
 C138 C 0.45697 0.51364 0.31426
 C139 C 0.49025 0.54869 0.34187
 C140 C 0.46480 0.56099 0.37113
 C141 C 0.40524 0.53733 0.37337
 C142 C 0.37204 0.50122 0.34664
 C143 C 0.37977 0.55137 0.40179
 C144 C 0.41301 0.58975 0.42787
 C145 C 0.47230 0.61255 0.42563
 C146 C 0.49794 0.59810 0.39763
 H147 H 0.53596 0.56954 0.33964
 H148 H 0.32628 0.48244 0.34803
 H149 H 0.33402 0.53358 0.40297
 H150 H 0.54370 0.61672 0.39638
 H151 H 0.37029 0.46168 0.29726
 H152 H 0.49903 0.64207 0.44536
 C153 C 0.41703 0.95396 0.34462
 C154 C 0.45036 0.94205 0.31994
 C155 C 0.46394 0.89765 0.32739
 C156 C 0.44585 0.86684 0.35889
 C157 C 0.41195 0.87886 0.38312
 C158 C 0.39788 0.92259 0.37571
 C159 C 0.39254 0.84676 0.41420
 C160 C 0.40786 0.80366 0.42169
 C161 C 0.44281 0.79320 0.39770
 C162 C 0.46128 0.82417 0.36655
 H163 H 0.49046 0.88832 0.30928
 H164 H 0.37178 0.93239 0.39387
 H165 H 0.36585 0.85541 0.43254
 H166 H 0.48748 0.81454 0.34836
 H167 H 0.40395 0.98636 0.33936
 H168 H 0.45490 0.75997 0.40262
 C169 C 0.03512 0.58348 0.34185
 C170 C 0.05230 0.55923 0.31401
 C171 C 0.10123 0.55161 0.31848
 C172 C 0.13176 0.56683 0.35017
 C173 C 0.11496 0.59254 0.37748
 C174 C 0.06645 0.60044 0.37311
 C175 C 0.14709 0.60994 0.40862
 C176 C 0.19426 0.59976 0.41316
 C177 C 0.20941 0.57233 0.38650
 C178 C 0.17884 0.55663 0.35499
 H179 H 0.11461 0.53216 0.29760
 H180 H 0.05289 0.61998 0.39379
 H181 H 0.13514 0.63064 0.42946
 H182 H 0.19197 0.53650 0.33444
 H183 H -0.00122 0.59160 0.33892
 H184 H 0.24577 0.56430 0.38978
 C185 C 0.61589 0.51890 0.32189
 C186 C 0.55762 0.48837 0.31522
 C187 C 0.52383 0.44468 0.33827
 C188 C 0.54800 0.43122 0.36744
 C189 C 0.60679 0.46169 0.37370
 C190 C 0.64026 0.50582 0.35093
 C191 C 0.63125 0.44687 0.40221
 C192 C 0.59768 0.40182 0.42461
 C193 C 0.53908 0.37247 0.41832
 C194 C 0.51452 0.38702 0.39006
 H195 H 0.47902 0.42032 0.33294
 H196 H 0.68538 0.52970 0.35530
 H197 H 0.67644 0.46997 0.40664
 H198 H 0.46939 0.36326 0.38568
 H199 H 0.64260 0.55264 0.30435
 H200 H 0.51207 0.33762 0.43503
 C201 C 0.48962 0.11385 0.31832
 C202 C 0.50275 0.06808 0.31602
 C203 C 0.53576 0.06121 0.34306
 C204 C 0.55574 0.09954 0.37133
 C205 C 0.54158 0.14474 0.37327
 C206 C 0.50816 0.15122 0.34682
 C207 C 0.56206 0.18346 0.40123
 C208 C 0.59786 0.17863 0.42693
 C209 C 0.61214 0.13381 0.42463
 C210 C 0.59085 0.09431 0.39724
 H211 H 0.54847 0.02783 0.34122
 H212 H 0.49696 0.18570 0.34790
 H213 H 0.55122 0.21821 0.40247
 H214 H 0.60236 0.06004 0.39611
 H215 H 0.46379 0.12013 0.29835
 H216 H 0.63949 0.12908 0.44417
 C217 C 0.87765 0.50235 0.31057
 C218 C 0.92630 0.49374 0.30810
 C219 C 0.93553 0.46085 0.33405
 C220 C 0.89664 0.43696 0.36184
 C221 C 0.84929 0.44803 0.36456
 C222 C 0.84022 0.48073 0.33885
 C223 C 0.81149 0.42597 0.39287
 C224 C 0.81904 0.39115 0.41782
 C225 C 0.86469 0.37827 0.41437
 C226 C 0.90374 0.40164 0.38678
 H227 H 0.97153 0.45190 0.33180
 H228 H 0.80385 0.48917 0.34042
 H229 H 0.77589 0.43553 0.39545
 H230 H 0.93944 0.39221 0.38498
 H231 H 0.86944 0.52744 0.29101
 H232 H 0.87108 0.35167 0.43367
 C233 C 0.61460 0.51793 1.17714
 C234 C 0.55658 0.48733 1.18473
 C235 C 0.52195 0.44424 1.16165
 C236 C 0.54489 0.43108 1.13167
 C237 C 0.60345 0.46146 1.12432
 C238 C 0.63783 0.50533 1.14706
 C239 C 0.62669 0.44602 1.09513
 C240 C 0.59209 0.39972 1.07393
 C241 C 0.53373 0.37103 1.08113
 C242 C 0.51032 0.38673 1.10954
 H243 H 0.47738 0.41969 1.16772
 H244 H 0.68278 0.52913 1.14198
 H245 H 0.67178 0.46817 1.08993
 H246 H 0.46534 0.36324 1.11472
 H247 H 0.64197 0.55131 1.19469
 H248 H 0.50608 0.33560 1.06499
 C249 C 0.95039 0.54214 1.15386
 C250 C 0.94282 0.50349 1.18114
 C251 C 0.90621 0.44599 1.17556
 C252 C 0.87813 0.42726 1.14329
 C253 C 0.88422 0.46678 1.11668
 C254 C 0.92076 0.52403 1.12210
 C255 C 0.85277 0.44841 1.08543
 C256 C 0.81692 0.39087 1.08003
 C257 C 0.81381 0.35155 1.10562
 C258 C 0.84367 0.36967 1.13727
 H259 H 0.90089 0.41553 1.19606
 H260 H 0.92606 0.55484 1.10190
 H261 H 0.85553 0.47879 1.06550
 H262 H 0.83916 0.33877 1.15724
 H263 H 0.97724 0.58676 1.15766
 H264 H 0.78624 0.30710 1.10180
 C265 C 0.46269 0.04788 1.16141
 C266 C 0.50396 0.05792 1.18734
 C267 C 0.55995 0.09763 1.18112
 C268 C 0.57507 0.12722 1.14921
 C269 C 0.53348 0.11780 1.12316
 C270 C 0.47730 0.07784 1.12953
 C271 C 0.54901 0.14842 1.09132
 C272 C 0.60578 0.18733 1.08516
 C273 C 0.64650 0.19551 1.11129
 C274 C 0.63130 0.16603 1.14300
 H275 H 0.59181 0.10494 1.20112
 H276 H 0.44481 0.06974 1.10992
 H277 H 0.51730 0.14161 1.07135
 H278 H 0.66361 0.17362 1.16268
 H279 H 0.41924 0.01715 1.16599
 H280 H 0.69040 0.22548 1.10745
 C281 C 0.39952 0.48054 1.17722
 C282 C 0.45725 0.51298 1.18481
 C283 C 0.49073 0.55722 1.16216
 C284 C 0.46670 0.57016 1.13280
 C285 C 0.40838 0.53790 1.12545
 C286 C 0.37535 0.49258 1.14759
 C287 C 0.38395 0.55286 1.09688
 C288 C 0.41700 0.60062 1.07640
 C289 C 0.47512 0.63144 1.08368
 C290 C 0.49979 0.61615 1.11139
 H291 H 0.53508 0.58296 1.16825
 H292 H 0.33062 0.46735 1.14250
 H293 H 0.33908 0.52902 1.09157
 H294 H 0.54453 0.64115 1.11660
 H295 H 0.37309 0.44628 1.19452
 H296 H 0.50162 0.66800 1.06802
 C297 C 0.09676 0.63367 1.17936
 C298 C 0.06688 0.57551 1.18549
 C299 C 0.07262 0.53762 1.16192
 C300 C 0.10800 0.55763 1.13229
 C301 C 0.13752 0.61633 1.12590
 C302 C 0.13149 0.65398 1.14959
 C303 C 0.17363 0.63629 1.09646
 C304 C 0.18200 0.59834 1.07420
 C305 C 0.15236 0.54020 1.08076
 C306 C 0.11516 0.51995 1.10931
 H307 H 0.04991 0.49272 1.16693
 H308 H 0.15401 0.69905 1.14528
 H309 H 0.19700 0.68122 1.09176
 H310 H 0.09292 0.47492 1.11384
 H311 H 0.09262 0.66325 1.19748
 H312 H 0.15832 0.51035 1.06381
 C313 C 0.51349 0.94544 1.16827
 C314 C 0.46748 0.93551 1.19066
 C315 C 0.41326 0.89491 1.18124
 C316 C 0.40452 0.86524 1.14934
 C317 C 0.45077 0.87527 1.12666
 C318 C 0.50527 0.91533 1.13657
 C319 C 0.44143 0.84550 1.09445
 C320 C 0.38621 0.80682 1.08453
 C321 C 0.34089 0.79762 1.10757
 C322 C 0.34995 0.82625 1.13959
 H323 H 0.37769 0.88766 1.19838
 H324 H 0.54132 0.92386 1.11964
 H325 H 0.47672 0.85298 1.07703
 H326 H 0.31409 0.81807 1.15665
 H327 H 0.55564 0.97685 1.17525
 H328 H 0.29797 0.76759 1.10102
 C329 C 0.49176 0.39413 0.68042
 C330 C 0.52153 0.45238 0.68652
 C331 C 0.56401 0.48629 0.66279
 C332 C 0.57799 0.46197 0.63379
 C333 C 0.54858 0.40310 0.62818
 C334 C 0.50490 0.36968 0.65134
 C335 C 0.56422 0.37849 0.60004
 C336 C 0.60924 0.41189 0.57751
 C337 C 0.63757 0.47052 0.58311
 C338 C 0.62202 0.49532 0.61092
 H339 H 0.58765 0.53115 0.66777
 H340 H 0.48183 0.32453 0.64743
 H341 H 0.54185 0.33329 0.59605
 H342 H 0.64497 0.54048 0.61482
 H343 H 0.45896 0.36748 0.69862
 H344 H 0.67225 0.49741 0.56614
 C345 C 0.47593 0.05216 0.65728
 C346 C 0.51710 0.05794 0.68240
 C347 C 0.57413 0.09478 0.67574
 C348 C 0.59003 0.12602 0.64431
 C349 C 0.54824 0.12091 0.61941
 C350 C 0.49134 0.08349 0.62603
 C351 C 0.56397 0.15376 0.58857
 C352 C 0.62108 0.19126 0.58204
 C353 C 0.66234 0.19487 0.60661
 C354 C 0.64695 0.16276 0.63751
 H355 H 0.60592 0.09909 0.69512
 H356 H 0.45876 0.07885 0.60722
 H357 H 0.53175 0.15025 0.56975
 H358 H 0.67953 0.16703 0.65624
 H359 H 0.43173 0.02408 0.66222
 H360 H 0.70658 0.22351 0.60232
 C361 C 0.90594 0.50466 0.68156
 C362 C 0.94035 0.47758 0.68611
 C363 C 0.94039 0.43960 0.66024
 C364 C 0.90563 0.42809 0.63033
 C365 C 0.87064 0.45511 0.62614
 C366 C 0.87157 0.49377 0.65175
 C367 C 0.83421 0.44194 0.59694
 C368 C 0.83157 0.40136 0.57206
 C369 C 0.86742 0.37559 0.57621
 C370 C 0.90422 0.38899 0.60496
 H371 H 0.96633 0.41804 0.66391
 H372 H 0.84507 0.51489 0.64902
 H373 H 0.80673 0.46201 0.59424
 H374 H 0.93084 0.36800 0.60768
 H375 H 0.90547 0.53406 0.70131
 H376 H 0.86655 0.34437 0.55743
 C377 C 0.51745 0.60398 0.67989
 C378 C 0.48754 0.54614 0.68712
 C379 C 0.44291 0.51147 0.66495
 C380 C 0.42721 0.53469 0.63630
 C381 C 0.45701 0.59316 0.62951
 C382 C 0.50257 0.62730 0.65117
 C383 C 0.44022 0.61670 0.60155
 C384 C 0.39380 0.58266 0.58024
 C385 C 0.36480 0.52446 0.58710
 C386 C 0.38138 0.50071 0.61484
 H387 H 0.41922 0.46693 0.67083
 H388 H 0.52594 0.67216 0.64632
 H389 H 0.46319 0.66157 0.59656
 H390 H 0.35805 0.45584 0.61968
 H391 H 0.55185 0.63120 0.69689
 H392 H 0.32901 0.49715 0.57108
 C393 C 0.50883 0.93666 0.66425
 C394 C 0.46360 0.93306 0.68538
 C395 C 0.40794 0.89700 0.67525
 C396 C 0.39734 0.86516 0.64404
 C397 C 0.44303 0.86858 0.62295
 C398 C 0.49868 0.90450 0.63334
 C399 C 0.43223 0.83605 0.59189
 C400 C 0.37624 0.80074 0.58141
 C401 C 0.33132 0.79847 0.60252
 C402 C 0.34175 0.83013 0.63353
 H403 H 0.37298 0.89453 0.69142
 H404 H 0.53427 0.90786 0.61753
 H405 H 0.46729 0.83839 0.57590
 H406 H 0.30626 0.82711 0.64933
 H407 H 0.55203 0.96434 0.67180
 H408 H 0.28778 0.77144 0.59534
 C409 C 0.09937 0.48954 0.67969
 C410 C 0.06628 0.51783 0.68537
 C411 C 0.06646 0.55641 0.66000
 C412 C 0.10026 0.56729 0.62948
 C413 C 0.13384 0.53893 0.62424
 C414 C 0.13265 0.49975 0.64933
 C415 C 0.16923 0.55121 0.59450
 C416 C 0.17247 0.59229 0.57000
 C417 C 0.13811 0.61953 0.57515
 C418 C 0.10215 0.60695 0.60450
 H419 H 0.04136 0.57872 0.66445
 H420 H 0.15809 0.47762 0.64574
 H421 H 0.19559 0.52999 0.59109
 H422 H 0.07666 0.62904 0.60801
 H423 H 0.09951 0.45953 0.69895
 H424 H 0.13961 0.65129 0.55674
 C425 C 0.53421 0.57073 0.84378
 C426 C 0.49232 0.54836 0.81759
 C427 C 0.43982 0.54776 0.82304
 C428 C 0.42828 0.56791 0.85462
 C429 C 0.47005 0.58984 0.88132
 C430 C 0.52316 0.59142 0.87548
 C431 C 0.45736 0.60868 0.91344
 C432 C 0.40301 0.60426 0.91908
 C433 C 0.36252 0.58322 0.89194
 C434 C 0.37506 0.56545 0.86002
 H435 H 0.40741 0.53026 0.80286
 H436 H 0.55581 0.60805 0.89550
 H437 H 0.48877 0.62495 0.93423
 H438 H 0.34280 0.54905 0.83974
 H439 H 0.57524 0.57190 0.83973
 H440 H 0.32066 0.58040 0.89544
 C441 C 0.04929 0.47763 0.84329
 C442 C 0.06581 0.51666 0.81520
 C443 C 0.11514 0.56797 0.81920
 C444 C 0.14506 0.58156 0.85114
 C445 C 0.12734 0.54253 0.87935
 C446 C 0.07979 0.49035 0.87493
 C447 C 0.15703 0.55678 0.91156
 C448 C 0.20297 0.61035 0.91611
 C449 C 0.22004 0.64867 0.88779
 C450 C 0.19171 0.63428 0.85556
 H451 H 0.12851 0.59893 0.79814
 H452 H 0.06586 0.45954 0.89603
 H453 H 0.14356 0.52701 0.93327
 H454 H 0.20586 0.66471 0.83423
 H455 H 0.01355 0.43647 0.84055
 H456 H 0.25584 0.68992 0.89050
 C457 C 0.41909 0.95985 0.84082
 C458 C 0.44624 0.94217 0.81488
 C459 C 0.45332 0.89369 0.82172
 C460 C 0.43611 0.86513 0.85401
 C461 C 0.40937 0.88352 0.87986
 C462 C 0.40075 0.93080 0.87283
 C463 C 0.39218 0.85450 0.91227
 C464 C 0.40321 0.80847 0.91930
 C465 C 0.43017 0.79105 0.89327
 C466 C 0.44608 0.81877 0.86095
 H467 H 0.47485 0.87959 0.80261
 H468 H 0.37990 0.94540 0.89208
 H469 H 0.37144 0.86826 0.93212
 H470 H 0.46653 0.80409 0.84145
 H471 H 0.41019 0.99515 0.83598
 H472 H 0.43842 0.75519 0.89773
 C473 C 0.48136 0.42907 0.84243
 C474 C 0.52416 0.45413 0.81696
 C475 C 0.57753 0.45702 0.82269
 C476 C 0.58883 0.43611 0.85391
 C477 C 0.54586 0.41091 0.87972
 C478 C 0.49209 0.40741 0.87363
 C479 C 0.55783 0.39047 0.91123
 C480 C 0.61257 0.39637 0.91731
 C481 C 0.65459 0.42132 0.89126
 C482 C 0.64278 0.44070 0.85981
 H483 H 0.61056 0.47663 0.80301
 H484 H 0.45861 0.38839 0.89304
 H485 H 0.52527 0.37140 0.93122
 H486 H 0.67604 0.45979 0.84025
 H487 H 0.43979 0.42639 0.83812
 H488 H 0.69691 0.42566 0.89514
 C489 C 0.94683 0.51388 0.84026
 C490 C 0.94008 0.47063 0.81648
 C491 C 0.90201 0.41481 0.82445
 C492 C 0.87205 0.40179 0.85645
 C493 C 0.87888 0.44536 0.88044
 C494 C 0.91622 0.50138 0.87197
 C495 C 0.84833 0.43206 0.91241
 C496 C 0.81176 0.37563 0.92086
 C497 C 0.80616 0.33282 0.89686
 C498 C 0.83577 0.34578 0.86496
 H499 H 0.89709 0.38145 0.80612
 H500 H 0.92214 0.53536 0.88999
 H501 H 0.85306 0.46548 0.93061
 H502 H 0.83022 0.31192 0.84692
 H503 H 0.97611 0.55719 0.83431
 H504 H 0.77796 0.28905 0.90243
 C505 C 0.49190 0.10950 0.81681
 C506 C 0.51066 0.06823 0.81241
 C507 C 0.54705 0.06328 0.83764
 C508 C 0.56444 0.09933 0.86714
 C509 C 0.54481 0.14038 0.87143
 C510 C 0.50851 0.14506 0.84621
 C511 C 0.56223 0.17662 0.90066
 C512 C 0.59975 0.17324 0.92573
 C513 C 0.61931 0.13248 0.92119
 C514 C 0.60155 0.09560 0.89223
 H515 H 0.56215 0.03187 0.83401
 H516 H 0.49327 0.17646 0.84909
 H517 H 0.54713 0.20817 0.90353
 H518 H 0.61712 0.06446 0.88934
 H519 H 0.46401 0.11385 0.79751
 H520 H 0.64823 0.12900 0.94006
   
