data_POSCAR
  _audit_creation_date              2014-09-24
  _audit_creation_method            'ToBaCCo'
  _symmetry_space_group_name_H-M    'P1'
  _symmetry_Int_Tables_number       1
  _symmetry_cell_setting            triclinic
  loop_
  _symmetry_equiv_pos_as_xyz
 x,y,z
_cell_length_a 48.6215
_cell_length_b 47.8622
_cell_length_c 35.6686
_cell_angle_alpha 90.452400
_cell_angle_beta 89.942100
_cell_angle_gamma 119.424400
loop_
  _atom_site_label
  _atom_site_type_symbol
  _atom_site_fract_x
  _atom_site_fract_y
  _atom_site_fract_z
O1 O -0.00734 0.50434 -0.05898
 O2 O 0.04457 0.47492 -0.02371
 O3 O -0.01116 0.44807 -0.05580
 O4 O 0.04795 0.52998 -0.02601
 O5 O 0.02565 0.52114 0.02981
 O6 O -0.03515 0.44114 -0.00145
 O7 O 0.02088 0.46497 0.03128
 O8 O -0.02843 0.49864 -0.00275
 Cu9 Cu 0.02057 0.48994 -0.04680
 Cu10 Cu -0.00678 0.48024 0.01971
 C11 C -0.02626 0.50718 -0.03675
 C12 C 0.04232 0.46587 0.01004
 C13 C -0.03389 0.43088 -0.03401
 C14 C 0.04726 0.53923 0.00733
 O15 O 0.48342 0.49833 0.05407
 O16 O 0.55889 0.51274 0.01373
 O17 O 0.53903 0.54918 0.04750
 O18 O 0.50429 0.46398 0.02007
 O19 O 0.48865 0.47426 -0.03355
 O20 O 0.52517 0.55942 -0.00736
 O21 O 0.54487 0.52329 -0.04102
 O22 O 0.47006 0.51021 -0.00018
 Cu23 Cu 0.52299 0.50536 0.03951
 Cu24 Cu 0.50605 0.51807 -0.02604
 C25 C 0.46391 0.50197 0.03388
 C26 C 0.56395 0.51894 -0.02091
 C27 C 0.53717 0.56867 0.02502
 C28 C 0.49084 0.45459 -0.01170
 O29 O 0.51362 0.99005 0.05136
 O30 O 0.49429 1.04903 0.01181
 O31 O 0.46404 0.99793 0.05147
 O32 O 0.54326 1.04259 0.01181
 O33 O 0.52698 1.01467 -0.04077
 O34 O 0.44712 0.96743 0.00061
 O35 O 0.47623 1.01959 -0.03966
 O36 O 0.49758 0.96176 -0.00107
 Cu37 Cu 0.50550 1.02250 0.03702
 Cu38 Cu 0.48532 0.98780 -0.02538
 C39 C 0.50866 0.96564 0.03195
 C40 C 0.48243 1.04467 -0.02086
 C41 C 0.44207 0.97517 0.03303
 C42 C 0.54854 1.03758 -0.02175
 O43 O 0.96438 0.50480 0.49292
 O44 O 1.00180 0.46275 0.44827
 O45 O 0.95487 0.44576 0.49409
 O46 O 1.01260 0.52171 0.44826
 O47 O 1.04298 0.53381 0.49831
 O48 O 0.98932 0.45635 0.53983
 O49 O 1.03635 0.47739 0.49470
 O50 O 0.99383 0.51329 0.54337
 Cu51 Cu 0.98006 0.48268 0.46614
 Cu52 Cu 1.01863 0.49664 0.52424
 C53 C 0.97225 0.51565 0.52602
 C54 C 1.02574 0.46338 0.46336
 C55 C 0.96319 0.43770 0.52409
 C56 C 1.03805 0.54060 0.46554
 O57 O 0.52943 0.53687 0.46080
 O58 O 0.48942 0.46194 0.51456
 O59 O 0.47079 0.49159 0.46800
 O60 O 0.54776 0.50785 0.50636
 O61 O 0.54102 0.53312 0.55461
 O62 O 0.46536 0.51891 0.51477
 O63 O 0.48180 0.48830 0.56082
 O64 O 0.52329 0.56345 0.50804
 Cu65 Cu 0.50981 0.49673 0.48272
 Cu66 Cu 0.50240 0.52855 0.53949
 C67 C 0.53323 0.56287 0.47527
 C68 C 0.47841 0.46235 0.54672
 C69 C 0.45513 0.50288 0.48453
 C70 C 0.55750 0.52347 0.53689
 O71 O 0.48594 -0.04147 0.51108
 O72 O 0.45938 0.01495 0.54248
 O73 O 0.43273 -0.04218 0.51011
 O74 O 0.51300 0.01548 0.54240
 O75 O 0.52382 0.03784 0.48652
 O76 O 0.44296 -0.01852 0.45512
 O77 O 0.47133 0.03810 0.48708
 O78 O 0.49654 -0.01926 0.45514
 Cu79 Cu 0.47159 -0.01555 0.53210
 Cu80 Cu 0.48465 0.01158 0.46526
 C81 C 0.49531 -0.04035 0.47760
 C82 C 0.46183 0.03685 0.52053
 C83 C 0.42418 -0.04058 0.47690
 C84 C 0.53192 0.03694 0.52013
 C85 C 0.32418 0.48235 0.24050
 C86 C 0.32229 0.48282 0.27892
 C87 C 0.29075 0.46338 0.28799
 N88 N 0.27341 0.45096 0.25651
 C89 C 0.29375 0.46259 0.22747
 C90 C 0.27836 0.45629 0.32472
 C91 C 0.24560 0.44247 0.33181
 C92 C 0.23083 0.42828 0.36517
 C93 C 0.19978 0.42112 0.36189
 C94 C 0.19652 0.43120 0.32666
 N95 N 0.22448 0.44401 0.30849
 C96 C 0.16918 0.43122 0.31328
 C97 C 0.16553 0.43737 0.27556
 C98 C 0.14478 0.44722 0.26276
 C99 C 0.14780 0.44925 0.22444
 C100 C 0.16964 0.43966 0.21513
 N101 N 0.18049 0.43257 0.24650
 C102 C 0.17882 0.43619 0.17854
 C103 C 0.20490 0.43125 0.17321
 C104 C 0.21082 0.41855 0.14112
 C105 C 0.24124 0.42386 0.14433
 C106 C 0.25288 0.43955 0.17833
 N107 N 0.23038 0.44333 0.19606
 C108 C 0.28483 0.45469 0.18955
 H109 H 0.34547 0.49542 0.22416
 H110 H 0.34185 0.49633 0.29790
 H111 H 0.23417 0.45834 0.21909
 H112 H 0.24145 0.42408 0.38958
 H113 H 0.18187 0.41045 0.38332
 H114 H 0.12953 0.45292 0.27941
 H115 H 0.13546 0.45717 0.20591
 H116 H 0.25391 0.41831 0.12327
 H117 H 0.22982 0.45676 0.28357
 H118 H 0.19538 0.40802 0.11715
 C119 C 0.55774 0.69837 0.26897
 C120 C 0.55699 0.69944 0.23053
 C121 C 0.56789 0.73126 0.22129
 N122 N 0.57456 0.74942 0.25276
 C123 C 0.56823 0.72938 0.28183
 C124 C 0.57288 0.74403 0.18473
 C125 C 0.57853 0.77559 0.17925
 C126 C 0.59222 0.79402 0.14773
 C127 C 0.58728 0.81995 0.15017
 C128 C 0.57085 0.81656 0.18317
 N129 N 0.56627 0.78991 0.20109
 C130 C 0.55561 0.83416 0.19293
 C131 C 0.54669 0.83553 0.23029
 C132 C 0.52649 0.84658 0.24179
 C133 C 0.52491 0.84429 0.28020
 C134 C 0.54424 0.83196 0.29083
 N135 N 0.55754 0.82669 0.26027
 C136 C 0.55057 0.82684 0.32812
 C137 C 0.56388 0.80702 0.33622
 C138 C 0.57758 0.80631 0.37005
 C139 C 0.58408 0.78135 0.36768
 C140 C 0.57421 0.76756 0.33246
 N141 N 0.56214 0.78347 0.31343
 C142 C 0.57371 0.73927 0.31970
 H143 H 0.55083 0.67713 0.28562
 H144 H 0.54902 0.67899 0.21187
 H145 H 0.54978 0.77611 0.28820
 H146 H 0.60309 0.78843 0.12451
 H147 H 0.59352 0.83826 0.12913
 H148 H 0.51384 0.85495 0.22440
 H149 H 0.51074 0.85053 0.29812
 H150 H 0.59424 0.77377 0.38966
 H151 H 0.55071 0.77916 0.22326
 H152 H 0.58189 0.82177 0.39420
 C153 C 0.30815 0.84846 0.23000
 C154 C 0.30618 0.84571 0.26836
 C155 C 0.27470 0.82490 0.27662
 N156 N 0.25771 0.81421 0.24460
 C157 C 0.27809 0.82840 0.21620
 C158 C 0.26108 0.81704 0.31275
 C159 C 0.22985 0.79166 0.31724
 C160 C 0.21067 0.78742 0.34790
 C161 C 0.18488 0.75720 0.34434
 C162 C 0.18906 0.74398 0.31154
 N163 N 0.21615 0.76539 0.29482
 C164 C 0.17138 0.71134 0.30096
 C165 C 0.17067 0.70157 0.26334
 C166 C 0.15892 0.67030 0.25075
 C167 C 0.16220 0.67177 0.21238
 C168 C 0.17591 0.70391 0.20292
 N169 N 0.18095 0.72201 0.23409
 C170 C 0.18234 0.71624 0.16607
 C171 C 0.20253 0.74923 0.15900
 C172 C 0.20416 0.76456 0.12553
 C173 C 0.22893 0.79546 0.12893
 C174 C 0.24168 0.79809 0.16436
 N175 N 0.22539 0.76989 0.18253
 C176 C 0.26919 0.82505 0.17818
 H177 H 0.32931 0.86311 0.21401
 H178 H 0.32579 0.85767 0.28763
 H179 H 0.23185 0.76389 0.20774
 H180 H 0.21546 0.80383 0.37119
 H181 H 0.16598 0.74563 0.36447
 H182 H 0.14935 0.64872 0.26734
 H183 H 0.15560 0.65152 0.19371
 H184 H 0.23703 0.81367 0.10750
 H185 H 0.22723 0.76022 0.27297
 H186 H 0.18937 0.75439 0.10098
 C187 C 0.70532 0.56196 0.73391
 C188 C 0.70410 0.55895 0.77215
 C189 C 0.72760 0.55198 0.78222
 N190 N 0.74251 0.54980 0.75125
 C191 C 0.72878 0.55565 0.72164
 C192 C 0.73289 0.54439 0.81877
 C193 C 0.76043 0.54308 0.82888
 C194 C 0.76454 0.53087 0.86230
 C195 C 0.79461 0.53518 0.86199
 C196 C 0.80842 0.55047 0.82876
 N197 N 0.78749 0.55537 0.80883
 C198 C 0.84007 0.56076 0.81841
 C199 C 0.85086 0.56918 0.78126
 C200 C 0.88220 0.58391 0.77026
 C201 C 0.88218 0.58443 0.73180
 C202 C 0.85082 0.57001 0.72067
 N203 N 0.83174 0.56082 0.75093
 C204 C 0.83997 0.56275 0.68328
 C205 C 0.80846 0.55345 0.67316
 C206 C 0.79428 0.53927 0.63928
 C207 C 0.76477 0.53654 0.63932
 C208 C 0.76163 0.54893 0.67330
 N209 N 0.78830 0.55910 0.69382
 C210 C 0.73536 0.55238 0.68372
 H211 H 0.69011 0.56749 0.71716
 H212 H 0.68748 0.56139 0.79011
 H213 H 0.79378 0.57249 0.71856
 H214 H 0.74790 0.52023 0.88498
 H215 H 0.80508 0.52796 0.88397
 H216 H 0.90287 0.59289 0.78807
 H217 H 0.90285 0.59394 0.71406
 H218 H 0.74759 0.52660 0.61684
 H219 H 0.79244 0.56912 0.78474
 H220 H 0.80421 0.53184 0.61671
 C221 C 0.45976 0.15917 0.76451
 C222 C 0.45870 0.16071 0.72608
 C223 C 0.44165 0.17619 0.71804
 N224 N 0.43222 0.18400 0.75017
 C225 C 0.44332 0.17374 0.77857
 C226 C 0.43403 0.18221 0.68179
 C227 C 0.42393 0.20505 0.67598
 C228 C 0.40910 0.20748 0.64392
 C229 C 0.40717 0.23518 0.64763
 C230 C 0.42073 0.24876 0.68189
 N231 N 0.43065 0.23017 0.69907
 C232 C 0.42639 0.27900 0.69523
 C233 C 0.43521 0.28906 0.73262
 C234 C 0.44992 0.32058 0.74522
 C235 C 0.45272 0.31961 0.78345
 C236 C 0.43875 0.28745 0.79289
 N237 N 0.42827 0.26891 0.76168
 C238 C 0.43423 0.27480 0.82947
 C239 C 0.42511 0.24217 0.83452
 C240 C 0.41163 0.22459 0.86664
 C241 C 0.41256 0.19641 0.86281
 C242 C 0.42636 0.19764 0.82836
 N243 N 0.43324 0.22521 0.81099
 C244 C 0.43809 0.17726 0.81683
 H245 H 0.47170 0.14897 0.78016
 H246 H 0.46976 0.15198 0.70643
 H247 H 0.44792 0.23436 0.78774
 H248 H 0.40117 0.19138 0.61996
 H249 H 0.39758 0.24462 0.62709
 H250 H 0.45819 0.34199 0.72851
 H251 H 0.46397 0.34030 0.80184
 H252 H 0.40561 0.17797 0.88381
 H253 H 0.44487 0.23646 0.72290
 H254 H 0.40357 0.23204 0.89106
 C255 C 0.66909 0.15719 0.72478
 C256 C 0.67026 0.15510 0.76315
 C257 C 0.70176 0.16712 0.77252
 N258 N 0.71978 0.17656 0.74130
 C259 C 0.69993 0.17058 0.71211
 C260 C 0.71399 0.16878 0.80891
 C261 C 0.74674 0.18765 0.81602
 C262 C 0.76251 0.18457 0.84674
 C263 C 0.79198 0.21143 0.84759
 C264 C 0.79337 0.22998 0.81723
 N265 N 0.76600 0.21498 0.79770
 C266 C 0.81743 0.26180 0.81076
 C267 C 0.82268 0.27471 0.77424
 C268 C 0.84266 0.30640 0.76442
 C269 C 0.84267 0.30736 0.72589
 C270 C 0.82187 0.27651 0.71369
 N271 N 0.80992 0.25664 0.74313
 C272 C 0.81591 0.26627 0.67605
 C273 C 0.78926 0.23722 0.66501
 C274 C 0.78482 0.22294 0.62994
 C275 C 0.75469 0.19706 0.62953
 C276 C 0.74155 0.19640 0.66430
 N277 N 0.76288 0.22080 0.68582
 C278 C 0.70963 0.17601 0.67423
 H279 H 0.64800 0.15012 0.70824
 H280 H 0.65024 0.14623 0.78185
 H281 H 0.75820 0.22821 0.71141
 H282 H 0.75314 0.16572 0.86743
 H283 H 0.80986 0.21730 0.86891
 H284 H 0.85593 0.32678 0.78275
 H285 H 0.85612 0.32836 0.70882
 H286 H 0.74346 0.18102 0.60599
 H287 H 0.75898 0.22540 0.77695
 H288 H 0.80128 0.23081 0.60679
 C289 C 0.08682 0.43927 0.07424
 C290 C 0.11632 0.45546 0.05837
 C291 C 0.12234 0.47281 0.02548
 C292 C 0.09704 0.47415 0.00858
 C293 C 0.06662 0.45902 0.02521
 C294 C 0.06135 0.44088 0.05830
 O295 O 0.08663 0.42523 0.10633
 C296 C 0.11675 0.43319 0.11100
 C297 C 0.13586 0.45203 0.08263
 C298 C 0.16851 0.46598 0.08363
 C299 C 0.18211 0.46049 0.11532
 C300 C 0.16306 0.44044 0.14476
 C301 C 0.12971 0.42605 0.14198
 H302 H 0.14584 0.48552 0.01374
 H303 H 0.10163 0.48846 -0.01642
 H304 H 0.03854 0.42946 0.07191
 H305 H 0.18310 0.48159 0.06151
 H306 H 0.20762 0.47238 0.11723
 H307 H 0.11442 0.41067 0.16382
 C308 C 0.56811 0.64391 0.08444
 C309 C 0.55383 0.65884 0.06662
 C310 C 0.53673 0.64725 0.03357
 C311 C 0.53346 0.61861 0.01869
 C312 C 0.54649 0.60169 0.03746
 C313 C 0.56469 0.61499 0.07045
 O314 O 0.58177 0.65806 0.11665
 C315 C 0.57549 0.68208 0.11944
 C316 C 0.55813 0.68329 0.08973
 C317 C 0.54560 0.70383 0.08894
 C318 C 0.55090 0.72373 0.12022
 C319 C 0.56934 0.72363 0.15110
 C320 C 0.58248 0.70292 0.15004
 H321 H 0.52544 0.65929 0.02033
 H322 H 0.51919 0.60871 -0.00631
 H323 H 0.57447 0.60243 0.08576
 H324 H 0.53102 0.70349 0.06584
 H325 H 0.53992 0.73868 0.12078
 H326 H 0.59654 0.70206 0.17305
 C327 C 0.36670 0.90869 0.07296
 C328 C 0.35557 0.92643 0.09154
 C329 C 0.37060 0.95972 0.09024
 C330 C 0.39856 0.97545 0.06947
 C331 C 0.41062 0.95778 0.05019
 C332 C 0.39412 0.92387 0.05130
 O333 O 0.35064 0.87763 0.08095
 C334 C 0.32898 0.87577 0.10511
 C335 C 0.33094 0.90499 0.11234
 C336 C 0.31226 0.90913 0.13889
 C337 C 0.29099 0.88216 0.15922
 C338 C 0.28889 0.85191 0.15280
 C339 C 0.30776 0.84851 0.12491
 H340 H 0.36181 0.97317 0.10585
 H341 H 0.41128 1.00143 0.06908
 H342 H 0.40349 0.90995 0.03789
 H343 H 0.31469 0.93249 0.14458
 H344 H 0.27680 0.88490 0.18083
 H345 H 0.30710 0.82580 0.12029
 C346 C 0.92670 0.53562 0.59649
 C347 C 0.92020 0.55585 0.57576
 C348 C 0.93077 0.56448 0.53920
 C349 C 0.94846 0.55146 0.52326
 C350 C 0.95570 0.53083 0.54423
 C351 C 0.94501 0.52315 0.58155
 O352 O 0.91274 0.52880 0.62975
 C353 C 0.89721 0.54514 0.63008
 C354 C 0.90119 0.56232 0.59787
 C355 C 0.88658 0.58070 0.59215
 C356 C 0.86702 0.58131 0.62077
 C357 C 0.86199 0.56322 0.65390
 C358 C 0.87746 0.54496 0.65853
 H359 H 0.92494 0.57999 0.52321
 H360 H 0.95638 0.55724 0.49454
 H361 H 0.94955 0.50680 0.59777
 H362 H 0.89002 0.59398 0.56653
 H363 H 0.85542 0.59548 0.61704
 H364 H 0.87379 0.53065 0.68334
 C365 C 0.45545 0.38225 0.59003
 C366 C 0.43018 0.37798 0.61154
 C367 C 0.41937 0.40001 0.61262
 C368 C 0.43533 0.42765 0.59075
 C369 C 0.46126 0.43247 0.56808
 C370 C 0.47118 0.40920 0.56732
 O371 O 0.46378 0.36003 0.59578
 C372 C 0.44333 0.34134 0.62145
 C373 C 0.42211 0.35117 0.63177
 C374 C 0.39999 0.33648 0.66002
 C375 C 0.40028 0.31114 0.67909
 C376 C 0.42262 0.30129 0.66988
 C377 C 0.44396 0.31607 0.64003
 H378 H 0.39992 0.39649 0.63045
 H379 H 0.42763 0.44537 0.59157
 H380 H 0.49141 0.41274 0.55098
 H381 H 0.38387 0.34497 0.66801
 H382 H 0.38415 0.30011 0.70222
 H383 H 0.46179 0.30953 0.63328
 C384 C 0.60366 0.08373 0.58155
 C385 C 0.61732 0.11295 0.56393
 C386 C 0.60550 0.11815 0.53085
 C387 C 0.57814 0.09233 0.51564
 C388 C 0.56289 0.06224 0.53398
 C389 C 0.57615 0.05785 0.56722
 O390 O 0.61837 0.08403 0.61301
 C391 C 0.64163 0.11417 0.61546
 C392 C 0.64183 0.13290 0.58631
 C393 C 0.66295 0.16561 0.58444
 C394 C 0.68485 0.17956 0.61377
 C395 C 0.68573 0.16065 0.64375
 C396 C 0.66377 0.12738 0.64439
 H397 H 0.61664 0.14140 0.51756
 H398 H 0.56814 0.09620 0.49040
 H399 H 0.56497 0.03527 0.58200
 H400 H 0.66222 0.17998 0.56159
 H401 H 0.70112 0.20512 0.61324
 H402 H 0.66375 0.11234 0.66693
 C403 C 0.45751 0.08913 0.91247
 C404 C 0.47330 0.11941 0.92796
 C405 C 0.49086 0.12640 0.96080
 C406 C 0.49265 0.10121 0.97820
 C407 C 0.47734 0.06985 0.96233
 C408 C 0.45925 0.06373 0.92909
 O409 O 0.44228 0.08780 0.88100
 C410 C 0.44881 0.11797 0.87647
 C411 C 0.46792 0.13822 0.90435
 C412 C 0.47871 0.17098 0.90465
 C413 C 0.46917 0.18340 0.87516
 C414 C 0.44873 0.16301 0.84648
 C415 C 0.43851 0.12976 0.84711
 H416 H 0.50305 0.15047 0.97239
 H417 H 0.50678 0.10641 1.00342
 H418 H 0.44739 0.04012 0.91621
 H419 H 0.49410 0.18645 0.92665
 H420 H 0.47751 0.20895 0.87470
 H421 H 0.42300 0.11369 0.82557
 C422 C 0.63633 0.53900 0.92172
 C423 C 0.63453 0.50938 0.92091
 C424 C 0.61179 0.48313 0.94035
 C425 C 0.58967 0.48743 0.96113
 C426 C 0.59023 0.51730 0.96120
 C427 C 0.61390 0.54355 0.94135
 O428 O 0.65979 0.56064 0.90108
 C429 C 0.67277 0.54418 0.88663
 C430 C 0.65785 0.51260 0.89747
 C431 C 0.66585 0.49038 0.88344
 C432 C 0.69033 0.50118 0.85717
 C433 C 0.70694 0.53388 0.84655
 C434 C 0.69815 0.55576 0.86176
 H435 H 0.61088 0.46008 0.93922
 H436 H 0.57127 0.46716 0.97592
 H437 H 0.61447 0.56644 0.94074
 H438 H 0.65320 0.46547 0.89171
 H439 H 0.69658 0.48420 0.84515
 H440 H 0.71021 0.58074 0.85372
 C441 C 0.91724 0.36000 0.90543
 C442 C 0.88980 0.34583 0.92588
 C443 C 0.88702 0.35718 0.96083
 C444 C 0.91340 0.38471 0.97501
 C445 C 0.94160 0.40104 0.95360
 C446 C 0.94354 0.38789 0.91850
 O447 O 0.91457 0.34595 0.87234
 C448 C 0.88465 0.32273 0.87169
 C449 C 0.86839 0.32191 0.90360
 C450 C 0.83607 0.30181 0.90730
 C451 C 0.81977 0.28205 0.87667
 C452 C 0.83597 0.28196 0.84348
 C453 C 0.86916 0.30209 0.84160
 H454 H 0.86512 0.34561 0.97635
 H455 H 0.91115 0.39406 1.00190
 H456 H 0.96449 0.39949 0.90124
 H457 H 0.82363 0.30227 0.93227
 H458 H 0.79436 0.26729 0.87847
 H459 H 0.88234 0.30260 0.81690
 C460 C 0.52723 0.91584 0.41885
 C461 C 0.51443 0.88702 0.43729
 C462 C 0.49656 0.88105 0.46971
 C463 C 0.49141 0.90565 0.48348
 C464 C 0.50358 0.93532 0.46440
 C465 C 0.52198 0.94048 0.43172
 O466 O 0.54282 0.91631 0.38805
 C467 C 0.53954 0.88708 0.38686
 C468 C 0.52216 0.86813 0.41618
 C469 C 0.51401 0.83600 0.41898
 C470 C 0.52387 0.82279 0.39016
 C471 C 0.54205 0.84186 0.35967
 C472 C 0.55043 0.87471 0.35856
 H473 H 0.48659 0.85812 0.48363
 H474 H 0.47708 0.90117 0.50833
 H475 H 0.53146 0.96274 0.41640
 H476 H 0.49976 0.82138 0.44192
 H477 H 0.51677 0.79753 0.39113
 H478 H 0.56410 0.88986 0.33561
 C479 C 0.38399 0.47545 0.42094
 C480 C 0.36966 0.49115 0.43716
 C481 C 0.38153 0.51027 0.46905
 C482 C 0.40938 0.51348 0.48479
 C483 C 0.42496 0.49788 0.46838
 C484 C 0.41181 0.47840 0.43603
 O485 O 0.36934 0.45920 0.39014
 C486 C 0.34535 0.46490 0.38677
 C487 C 0.34451 0.48437 0.41478
 C488 C 0.32222 0.49460 0.41570
 C489 C 0.30014 0.48465 0.38631
 C490 C 0.30056 0.46465 0.35698
 C491 C 0.32328 0.45428 0.35764
 H492 H 0.36994 0.52256 0.48118
 H493 H 0.41904 0.52855 0.50944
 H494 H 0.42309 0.46630 0.42264
 H495 H 0.32229 0.51028 0.43778
 H496 H 0.28313 0.49305 0.38586
 H497 H 0.32428 0.43919 0.33550
 C498 C 0.08221 0.60512 0.39589
 C499 C 0.11071 0.62160 0.41418
 C500 C 0.11606 0.61356 0.44963
 C501 C 0.09116 0.58708 0.46693
 C502 C 0.06154 0.56861 0.44845
 C503 C 0.05707 0.57816 0.41232
 O504 O 0.08227 0.61726 0.36241
 C505 C 0.11155 0.64175 0.35958
 C506 C 0.12986 0.64510 0.39045
 C507 C 0.16146 0.66829 0.39325
 C508 C 0.17477 0.68921 0.36310
 C509 C 0.15633 0.68720 0.33127
 C510 C 0.12418 0.66290 0.32944
 H511 H 0.13872 0.62714 0.46346
 H512 H 0.09546 0.58060 0.49446
 H513 H 0.03494 0.56493 0.39727
 H514 H 0.17545 0.67007 0.41767
 H515 H 0.19949 0.70728 0.36464
 H516 H 0.10954 0.66074 0.30554
 C517 C 0.92432 0.52726 0.89954
 C518 C 0.91776 0.54628 0.92283
 C519 C 0.92833 0.55295 0.95980
 C520 C 0.94647 0.53955 0.97316
 C521 C 0.95410 0.52050 0.94930
 C522 C 0.94290 0.51439 0.91193
 O523 O 0.91097 0.52266 0.86599
 C524 C 0.89579 0.53929 0.86802
 C525 C 0.89941 0.55449 0.90203
 C526 C 0.88551 0.57328 0.90995
 C527 C 0.86688 0.57619 0.88180
 C528 C 0.86201 0.55988 0.84693
 C529 C 0.87692 0.54134 0.84002
 H530 H 0.92258 0.56766 0.97779
 H531 H 0.95496 0.54437 1.00183
 H532 H 0.94800 0.49956 0.89329
 H533 H 0.88877 0.58514 0.93684
 H534 H 0.85568 0.59055 0.88730
 H535 H 0.87340 0.52837 0.81385
 C536 C 0.45417 0.38071 0.92977
 C537 C 0.46583 0.36324 0.94735
 C538 C 0.48328 0.37338 0.98038
 C539 C 0.48967 0.40316 0.99544
 C540 C 0.47982 0.42281 0.97645
 C541 C 0.46113 0.41084 0.94349
 O542 O 0.43897 0.36727 0.89807
 C543 C 0.44161 0.34103 0.89519
 C544 C 0.45828 0.33772 0.92432
 C545 C 0.46721 0.31427 0.92460
 C546 C 0.45898 0.29368 0.89338
 C547 C 0.44110 0.29600 0.86322
 C548 C 0.43156 0.31961 0.86494
 H549 H 0.49225 0.35920 0.99366
 H550 H 0.50397 0.41164 1.02063
 H551 H 0.45310 0.42495 0.92814
 H552 H 0.48132 0.31284 0.94717
 H553 H 0.46725 0.27640 0.89230
 H554 H 0.41794 0.32217 0.84260
 C555 C 0.61282 0.07862 0.90830
 C556 C 0.63200 0.10624 0.92804
 C557 C 0.62636 0.11118 0.96493
 C558 C 0.59931 0.08703 0.98210
 C559 C 0.57778 0.05882 0.96195
 C560 C 0.58520 0.05440 0.92456
 O561 O 0.62263 0.07911 0.87334
 C562 C 0.64829 0.10785 0.87099
 C563 C 0.65466 0.12545 0.90361
 C564 C 0.67877 0.15699 0.90680
 C565 C 0.69737 0.17097 0.87512
 C566 C 0.69248 0.15309 0.84138
 C567 C 0.66742 0.12090 0.83942
 H568 H 0.64199 0.13313 0.97985
 H569 H 0.59454 0.09121 1.01065
 H570 H 0.56955 0.03337 0.90817
 H571 H 0.68268 0.17061 0.93251
 H572 H 0.71575 0.19584 0.87690
 H573 H 0.66286 0.10662 0.81414
 C574 C 0.08872 0.44925 0.42065
 C575 C 0.07038 0.42135 0.40083
 C576 C 0.03756 0.40554 0.40145
 C577 C 0.02303 0.41924 0.42304
 C578 C 0.04142 0.44794 0.44374
 C579 C 0.07475 0.46284 0.44307
 O580 O 0.11932 0.46217 0.41322
 C581 C 0.12031 0.44202 0.38817
 C582 C 0.09099 0.41652 0.37985
 C583 C 0.08622 0.39382 0.35233
 C584 C 0.11263 0.39795 0.33201
 C585 C 0.14292 0.42454 0.33932
 C586 C 0.14694 0.44652 0.36835
 H587 H 0.02364 0.38406 0.38489
 H588 H -0.00250 0.40781 0.42323
 H589 H 0.08927 0.48529 0.45772
 H590 H 0.06285 0.37430 0.34584
 H591 H 0.10942 0.38126 0.30952
 H592 H 0.16969 0.46746 0.37365
 C593 C 0.55100 0.64036 0.42904
 C594 C 0.57741 0.64647 0.40869
 C595 C 0.59076 0.62658 0.40947
 C596 C 0.57620 0.59918 0.43201
 C597 C 0.54919 0.59260 0.45353
 C598 C 0.53669 0.61374 0.45244
 O599 O 0.54025 0.66040 0.42150
 C600 C 0.56031 0.67962 0.39587
 C601 C 0.58367 0.67228 0.38733
 C602 C 0.60600 0.68796 0.35957
 C603 C 0.60369 0.71162 0.33912
 C604 C 0.57911 0.71878 0.34637
 C605 C 0.55756 0.70307 0.37578
 H606 H 0.61107 0.63144 0.39249
 H607 H 0.58577 0.58298 0.43257
 H608 H 0.51554 0.60868 0.46782
 H609 H 0.62389 0.68147 0.35303
 H610 H 0.62011 0.72339 0.31643
 H611 H 0.53812 0.70753 0.38116
 C612 C 0.35524 0.91362 0.41417
 C613 C 0.34021 0.88507 0.43308
 C614 C 0.35013 0.88076 0.46801
 C615 C 0.37714 0.90670 0.48373
 C616 C 0.39453 0.93581 0.46363
 C617 C 0.38279 0.93936 0.42860
 O618 O 0.34244 0.91244 0.38092
 C619 C 0.31922 0.88229 0.37848
 C620 C 0.31720 0.86442 0.40940
 C621 C 0.29723 0.83147 0.41085
 C622 C 0.27890 0.81631 0.37898
 C623 C 0.27985 0.83425 0.34690
 C624 C 0.29977 0.86800 0.34739
 H625 H 0.33788 0.85803 0.48234
 H626 H 0.38547 0.90325 0.51052
 H627 H 0.39521 0.96110 0.41238
 H628 H 0.29686 0.81770 0.43497
 H629 H 0.26447 0.79043 0.37897
 H630 H 0.30110 0.88256 0.32366
 C631 C 0.53420 0.92152 0.09841
 C632 C 0.52162 0.89220 0.08062
 C633 C 0.50585 0.88578 0.04648
 C634 C 0.50257 0.91053 0.03014
 C635 C 0.51471 0.94087 0.04825
 C636 C 0.53100 0.94643 0.08282
 O637 O 0.54800 0.92243 0.13088
 C638 C 0.54386 0.89295 0.13369
 C639 C 0.52769 0.87351 0.10373
 C640 C 0.51969 0.84142 0.10142
 C641 C 0.52882 0.82884 0.13119
 C642 C 0.54603 0.84845 0.16219
 C643 C 0.55366 0.88105 0.16338
 H644 H 0.49612 0.86245 0.03309
 H645 H 0.48989 0.90574 0.00383
 H646 H 0.54044 0.96922 0.09744
 H647 H 0.50658 0.82652 0.07777
 H648 H 0.52247 0.80375 0.13021
 H649 H 0.56666 0.89650 0.18673
 C650 C 0.39477 0.47772 0.09916
 C651 C 0.37932 0.49152 0.08150
 C652 C 0.38974 0.50819 0.04810
 C653 C 0.41736 0.51094 0.03228
 C654 C 0.43411 0.49743 0.05023
 C655 C 0.42252 0.48051 0.08418
 O656 O 0.38080 0.46286 0.13064
 C657 C 0.35611 0.46755 0.13296
 C658 C 0.35428 0.48511 0.10368
 C659 C 0.33088 0.49364 0.10095
 C660 C 0.30837 0.48363 0.12961
 C661 C 0.30936 0.46505 0.15989
 C662 C 0.33360 0.45684 0.16148
 H663 H 0.37713 0.51881 0.03475
 H664 H 0.42598 0.52411 0.00642
 H665 H 0.43472 0.46989 0.09851
 H666 H 0.33015 0.50776 0.07782
 H667 H 0.29014 0.49037 0.12834
 H668 H 0.33493 0.44273 0.18427
 C669 C 0.09291 0.61243 0.06833
 C670 C 0.12201 0.62613 0.05133
 C671 C 0.12762 0.61379 0.01855
 C672 C 0.10235 0.58588 0.00308
 C673 C 0.07242 0.57072 0.02088
 C674 C 0.06764 0.58459 0.05369
 O675 O 0.09269 0.62715 0.09989
 C676 C 0.12236 0.65052 0.10312
 C677 C 0.14135 0.65087 0.07430
 C678 C 0.17368 0.67206 0.07353
 C679 C 0.18694 0.69361 0.10377
 C680 C 0.16775 0.69388 0.13368
 C681 C 0.13488 0.67220 0.13293
 H682 H 0.15077 0.62485 0.00579
 H683 H 0.10646 0.57540 -0.02184
 H684 H 0.04517 0.57351 0.06809
 H685 H 0.18829 0.67152 0.05094
 H686 H 0.21218 0.70979 0.10423
 H687 H 0.11968 0.67172 0.15542
 C688 C 0.43822 0.08534 0.58365
 C689 C 0.45186 0.11404 0.56492
 C690 C 0.46685 0.11824 0.53056
 C691 C 0.46840 0.09197 0.51521
 C692 C 0.45559 0.06239 0.53460
 C693 C 0.43984 0.05899 0.56912
 O694 O 0.42616 0.08680 0.61657
 C695 C 0.43263 0.11715 0.61880
 C696 C 0.44858 0.13489 0.58806
 C697 C 0.45997 0.16776 0.58590
 C698 C 0.45487 0.18299 0.61676
 C699 C 0.43802 0.16521 0.64867
 C700 C 0.42637 0.13163 0.64927
 H701 H 0.47761 0.14113 0.51649
 H702 H 0.48081 0.09518 0.48899
 H703 H 0.43015 0.03692 0.58485
 H704 H 0.47317 0.18136 0.56180
 H705 H 0.46453 0.20875 0.61613
 H706 H 0.41368 0.11740 0.67327
 C707 C 0.62246 0.52672 0.59734
 C708 C 0.64858 0.54894 0.57812
 C709 C 0.64637 0.56294 0.54504
 C710 C 0.61600 0.55373 0.53129
 C711 C 0.58884 0.53151 0.55113
 C712 C 0.59205 0.51779 0.58460
 O713 O 0.62974 0.51629 0.62811
 C714 C 0.66110 0.53246 0.62852
 C715 C 0.67379 0.55297 0.59876
 C716 C 0.70609 0.57334 0.59475
 C717 C 0.72609 0.57280 0.62278
 C718 C 0.71364 0.55171 0.65368
 C719 C 0.68061 0.53079 0.65603
 H720 H 0.66723 0.58032 0.53038
 H721 H 0.61356 0.56430 0.50564
 H722 H 0.57155 0.50073 0.60011
 H723 H 0.71551 0.58958 0.57133
 H724 H 0.75125 0.58905 0.62073
 H725 H 0.67040 0.51429 0.67912
 C726 C 0.89550 0.36662 0.57060
 C727 C 0.91016 0.34917 0.57954
 C728 C 0.94112 0.35860 0.56961
 C729 C 0.95788 0.38746 0.55016
 C730 C 0.94344 0.40597 0.54067
 C731 C 0.91159 0.39516 0.55040
 O732 O 0.86688 0.35472 0.58551
 C733 C 0.86350 0.32931 0.60423
 C734 C 0.88931 0.32484 0.60130
 C735 C 0.89180 0.30102 0.62053
 C736 C 0.86681 0.28114 0.64411
 C737 C 0.84017 0.28548 0.64797
 C738 C 0.83824 0.30963 0.62745
 H739 H 0.95231 0.34480 0.57764
 H740 H 0.98235 0.39578 0.54303
 H741 H 0.90042 0.40942 0.54441
 H742 H 0.91261 0.29837 0.61823
 H743 H 0.86843 0.26288 0.66015
 H744 H 0.81837 0.31374 0.63076
   
