data_POSCAR
  _audit_creation_date              2014-09-24
  _audit_creation_method            'ToBaCCo'
  _symmetry_space_group_name_H-M    'P1'
  _symmetry_Int_Tables_number       1
  _symmetry_cell_setting            triclinic
  loop_
  _symmetry_equiv_pos_as_xyz
 x,y,z
_cell_length_a 40.6993
_cell_length_b 41.0588
_cell_length_c 42.8455
_cell_angle_alpha 89.938300
_cell_angle_beta 90.012700
_cell_angle_gamma 120.397200
loop_
  _atom_site_label
  _atom_site_type_symbol
  _atom_site_fract_x
  _atom_site_fract_y
  _atom_site_fract_z
C1 C -0.00111 0.51482 1.33457
 C2 C 0.03421 0.53462 1.31932
 C3 C 0.03449 0.53600 1.28649
 C4 C 0.00097 0.51336 1.26900
 C5 C -0.03359 0.49145 1.28545
 C6 C -0.03537 0.49384 1.31809
 C7 C 0.00216 0.51153 1.23390
 C8 C -0.03119 0.49876 1.21575
 C9 C -0.03082 0.49368 1.18339
 C10 C 0.00370 0.50412 1.16842
 C11 C 0.03754 0.51917 1.18549
 C12 C 0.03651 0.52167 1.21805
 H13 H -0.00184 0.51525 1.35982
 H14 H 0.06130 0.55305 1.27476
 H15 H -0.05957 0.47351 1.27294
 H16 H -0.05794 0.49202 1.22640
 H17 H 0.00441 0.50168 1.14326
 H18 H 0.06284 0.53102 1.23052
 C19 C 0.49460 0.49659 1.33676
 C20 C 0.47521 0.51183 1.32099
 C21 C 0.47349 0.50961 1.28817
 C22 C 0.49531 0.49768 1.27102
 C23 C 0.51662 0.48501 1.28799
 C24 C 0.51448 0.48202 1.32077
 C25 C 0.49667 0.49944 1.23573
 C26 C 0.50968 0.47899 1.21803
 C27 C 0.51395 0.48323 1.18548
 C28 C 0.50258 0.50588 1.16994
 C29 C 0.48745 0.52452 1.18651
 C30 C 0.48563 0.52224 1.21915
 H31 H 0.49444 0.49629 1.36203
 H32 H 0.45668 0.51919 1.27621
 H33 H 0.53373 0.47588 1.27589
 H34 H 0.51717 0.46000 1.22906
 H35 H 0.50439 0.50805 1.14471
 H36 H 0.47609 0.53914 1.23099
 C37 C 0.50847 0.99884 1.33151
 C38 C 0.49078 0.96505 1.31487
 C39 C 0.49106 0.96573 1.28225
 C40 C 0.51205 1.00008 1.26564
 C41 C 0.53197 1.03379 1.28328
 C42 C 0.52835 1.03375 1.31605
 C43 C 0.51143 1.00083 1.23035
 C44 C 0.52236 1.03468 1.21371
 C45 C 0.51927 1.03482 1.18111
 C46 C 0.50328 1.00074 1.16475
 C47 C 0.49260 0.96697 1.18041
 C48 C 0.49809 0.96730 1.21273
 H49 H 0.50732 0.99761 1.35679
 H50 H 0.47459 0.93903 1.27049
 H51 H 0.54858 1.06052 1.27166
 H52 H 0.53228 1.06124 1.22547
 H53 H 0.49994 1.00055 1.13963
 H54 H 0.49090 0.94082 1.22366
 C55 C 0.99730 0.49286 0.66626
 C56 C 0.96323 0.47473 0.68312
 C57 C 0.96421 0.47803 0.71567
 C58 C 0.99856 0.50176 0.73171
 C59 C 1.03212 0.52225 0.71365
 C60 C 1.03226 0.51666 0.68113
 C61 C 0.99944 0.50418 0.76695
 C62 C 1.03402 0.51846 0.78375
 C63 C 1.03466 0.51972 0.81649
 C64 C 1.00047 0.50539 0.83299
 C65 C 0.96578 0.49059 0.81719
 C66 C 0.96548 0.49099 0.78445
 H67 H 0.99607 0.49031 0.64105
 H68 H 0.93771 0.46123 0.72795
 H69 H 1.05871 0.54134 0.72487
 H70 H 1.06077 0.52769 0.77203
 H71 H 1.00085 0.50551 0.85829
 H72 H 0.93835 0.48119 0.77322
 C73 C 0.49314 0.49025 0.66446
 C74 C 0.50851 0.47210 0.68155
 C75 C 0.51063 0.47527 0.71414
 C76 C 0.49975 0.49846 0.73008
 C77 C 0.48635 0.51820 0.71199
 C78 C 0.48189 0.51331 0.67950
 C79 C 0.50204 0.50174 0.76516
 C80 C 0.48101 0.51492 0.78184
 C81 C 0.48365 0.51860 0.81440
 C82 C 0.50482 0.50616 0.83095
 C83 C 0.52456 0.49148 0.81530
 C84 C 0.52461 0.49096 0.78259
 H85 H 0.49133 0.48762 0.63926
 H86 H 0.52049 0.45895 0.72654
 H87 H 0.47892 0.53736 0.72273
 H88 H 0.46256 0.52272 0.77004
 H89 H 0.50559 0.50753 0.85624
 H90 H 0.54178 0.48123 0.77132
 C91 C 0.50408 0.00181 0.66907
 C92 C 0.51941 0.03573 0.68534
 C93 C 0.51849 0.03551 0.71793
 C94 C 0.50573 0.00165 0.73500
 C95 C 0.49274 -0.03221 0.71770
 C96 C 0.48949 -0.03275 0.68486
 C97 C 0.50513 0.00170 0.77037
 C98 C 0.48452 -0.03224 0.78761
 C99 C 0.48314 -0.03254 0.82054
 C100 C 0.50151 0.00228 0.83631
 C101 C 0.52183 0.03629 0.82000
 C102 C 0.52436 0.03583 0.78744
 H103 H 0.50461 0.00270 0.64376
 H104 H 0.52824 0.06229 0.72923
 H105 H 0.48320 -0.05868 0.72947
 H106 H 0.46742 -0.05870 0.77576
 H107 H 0.50135 0.00329 0.86156
 H108 H 0.54209 0.06260 0.77610
 O109 O 0.39218 0.65927 0.97155
 O110 O 0.38908 0.72069 0.96284
 C111 C 0.37138 0.73846 0.95920
 O112 O 0.34248 0.73174 0.97537
 O113 O 0.27958 0.66703 0.96634
 C114 C 0.26211 0.63187 0.96062
 O115 O 0.26904 0.60888 0.97497
 O116 O 0.33337 0.61131 0.96367
 C117 C 0.36858 0.62946 0.95719
 O118 O 0.39358 0.66938 1.03334
 O119 O 0.39349 0.73234 1.02518
 C120 C 0.37051 0.73776 1.04137
 O121 O 0.33478 0.71972 1.03703
 O122 O 0.27034 0.65682 1.02869
 C123 C 0.26482 0.62739 1.04307
 O124 O 0.28225 0.61005 1.03647
 O125 O 0.34548 0.61047 1.02576
 C126 C 0.37576 0.63443 1.03975
 Cr127 Cr 0.38988 0.69433 0.99827
 Cr128 Cr 0.30783 0.69269 1.00175
 Cr129 Cr 0.30868 0.61237 1.00018
 O130 O 0.33545 0.66642 1.00022
 O131 O 0.61010 0.34610 0.97365
 O132 O 0.61240 0.28420 0.96339
 C133 C 0.62935 0.26563 0.96000
 O134 O 0.65747 0.27133 0.97686
 O135 O 0.72076 0.33577 0.96744
 C136 C 0.73941 0.37121 0.96290
 O137 O 0.73327 0.39407 0.97830
 O138 O 0.66965 0.39246 0.96516
 C139 C 0.63433 0.37550 0.95903
 O140 O 0.60812 0.33373 1.03547
 O141 O 0.60726 0.27039 1.02515
 C142 C 0.62960 0.26468 1.04200
 O143 O 0.66557 0.28345 1.03871
 O144 O 0.73086 0.34622 1.02944
 C145 C 0.73617 0.37498 1.04478
 O146 O 0.71740 0.39137 1.03952
 O147 O 0.65513 0.39259 1.02648
 C148 C 0.62520 0.36892 1.04104
 Cr149 Cr 0.61152 0.30964 0.99948
 Cr150 Cr 0.69267 0.31021 1.00308
 Cr151 Cr 0.69281 0.39057 1.00234
 O152 O 0.66566 0.33682 1.00166
 O153 O 0.65363 0.38358 0.52857
 O154 O 0.71623 0.38172 0.53694
 C155 C 0.73487 0.36481 0.54018
 O156 O 0.72959 0.33747 0.52283
 O157 O 0.66546 0.27359 0.53065
 C158 C 0.63022 0.25643 0.53738
 O159 O 0.60620 0.26252 0.52352
 O160 O 0.60606 0.32452 0.53523
 C161 C 0.62352 0.35917 0.54232
 O162 O 0.66453 0.38653 0.46634
 O163 O 0.72922 0.38842 0.47505
 C164 C 0.73533 0.36694 0.45773
 O165 O 0.71731 0.33136 0.46070
 O166 O 0.65561 0.26638 0.46849
 C167 C 0.62546 0.26007 0.45462
 O168 O 0.60686 0.27604 0.46188
 O169 O 0.60557 0.33788 0.47394
 C170 C 0.62909 0.36858 0.46039
 Cr171 Cr 0.68983 0.38292 0.50159
 Cr172 Cr 0.69086 0.30321 0.49581
 Cr173 Cr 0.60839 0.30134 0.49858
 O174 O 0.66289 0.32907 0.49867
 O175 O 0.34170 0.61190 0.52570
 O176 O 0.27931 0.61456 0.53570
 C177 C 0.26253 0.63280 0.54174
 O178 O 0.26988 0.66318 0.52778
 O179 O 0.33467 0.72527 0.53733
 C180 C 0.36973 0.74135 0.54405
 O181 O 0.39305 0.73439 0.53018
 O182 O 0.38845 0.66941 0.53842
 C183 C 0.37066 0.63392 0.54199
 O184 O 0.33254 0.61685 0.46395
 O185 O 0.26843 0.61543 0.47442
 C186 C 0.26317 0.63930 0.45985
 O187 O 0.28221 0.67432 0.46538
 O188 O 0.34572 0.73666 0.47539
 C189 C 0.37573 0.74257 0.46128
 O190 O 0.39342 0.72538 0.46793
 O191 O 0.39183 0.66122 0.47632
 C192 C 0.36827 0.63317 0.45996
 Cr193 Cr 0.30670 0.61688 0.50002
 Cr194 Cr 0.30914 0.69872 0.50152
 Cr195 Cr 0.38952 0.69660 0.50311
 O196 O 0.33511 0.67086 0.50168
 C197 C 0.42781 0.56605 0.37414
 C198 C 0.46265 0.56888 0.38283
 C199 C 0.47759 0.55063 0.36528
 C200 C 0.45925 0.53011 0.33810
 C201 C 0.42572 0.52931 0.32851
 C202 C 0.40997 0.54658 0.34644
 C203 C 0.41183 0.58423 0.39482
 C204 C 0.37536 0.57967 0.39052
 C205 C 0.36131 0.59598 0.41136
 C206 C 0.38354 0.61779 0.43656
 C207 C 0.42004 0.62296 0.44069
 C208 C 0.43390 0.60576 0.42060
 C209 C 0.48286 0.59034 0.40882
 C210 C 0.46912 0.60893 0.42696
 H211 H 0.50987 0.59294 0.41518
 H212 H 0.48590 0.62525 0.44678
 H213 H 0.50474 0.55401 0.37227
 H214 H 0.41038 0.51379 0.30794
 H215 H 0.33291 0.59137 0.40782
 H216 H 0.43713 0.63907 0.46049
 H217 H 0.38389 0.54444 0.33822
 H218 H 0.35696 0.56287 0.37171
 C219 C 0.43746 0.86365 0.36989
 C220 C 0.47765 0.88637 0.36857
 C221 C 0.49473 0.91906 0.35006
 C222 C 0.47240 0.92901 0.33211
 C223 C 0.43279 0.90556 0.33196
 C224 C 0.41538 0.87324 0.35071
 C225 C 0.42034 0.83078 0.39201
 C226 C 0.38089 0.80905 0.39778
 C227 C 0.36653 0.78010 0.41992
 C228 C 0.39099 0.77160 0.43649
 C229 C 0.43021 0.79242 0.43042
 C230 C 0.44509 0.82239 0.40892
 C231 C 0.50054 0.87654 0.38589
 C232 C 0.48461 0.84488 0.40523
 H233 H 0.53131 0.89367 0.38453
 H234 H 0.50357 0.83856 0.41821
 H235 H 0.52548 0.93708 0.34976
 H236 H 0.41527 0.91288 0.31797
 H237 H 0.33612 0.76438 0.42422
 H238 H 0.44935 0.78642 0.44351
 H239 H 0.38473 0.85635 0.35001
 H240 H 0.36073 0.81457 0.38609
 C241 C 0.13571 0.58207 0.37383
 C242 C 0.10331 0.54734 0.38218
 C243 C 0.07011 0.53253 0.36426
 C244 C 0.06836 0.55080 0.33698
 C245 C 0.10147 0.58424 0.32772
 C246 C 0.13450 0.59992 0.34608
 C247 C 0.16992 0.59776 0.39481
 C248 C 0.20214 0.63408 0.39094
 C249 C 0.23270 0.64766 0.41188
 C250 C 0.23212 0.62506 0.43668
 C251 C 0.20038 0.58886 0.44052
 C252 C 0.16913 0.57548 0.42038
 C253 C 0.10422 0.52704 0.40811
 C254 C 0.13669 0.54047 0.42644
 H255 H 0.07950 0.50014 0.41420
 H256 H 0.13604 0.52358 0.44615
 H257 H 0.04606 0.50544 0.37096
 H258 H 0.10159 0.59944 0.30703
 H259 H 0.25684 0.67586 0.40867
 H260 H 0.19930 0.57156 0.46010
 H261 H 0.15880 0.62590 0.33812
 H262 H 0.20385 0.65264 0.37236
 C263 C 0.56573 0.43208 0.37455
 C264 C 0.52980 0.42699 0.38279
 C265 C 0.51342 0.44360 0.36488
 C266 C 0.53137 0.46459 0.33778
 C267 C 0.56590 0.46735 0.32847
 C268 C 0.58309 0.45177 0.34679
 C269 C 0.58323 0.41578 0.39569
 C270 C 0.62076 0.42287 0.39201
 C271 C 0.63588 0.40768 0.41299
 C272 C 0.61369 0.38451 0.43766
 C273 C 0.57640 0.37731 0.44143
 C274 C 0.56141 0.39334 0.42123
 C275 C 0.51002 0.40497 0.40870
 C276 C 0.52516 0.38788 0.42713
 H277 H 0.48221 0.40063 0.41471
 H278 H 0.50860 0.37090 0.44682
 H279 H 0.48560 0.43874 0.37159
 H280 H 0.58093 0.48326 0.30792
 H281 H 0.66488 0.41383 0.40980
 H282 H 0.55935 0.36017 0.46090
 H283 H 0.60992 0.45543 0.33886
 H284 H 0.63902 0.44063 0.37349
 C285 C 0.57068 0.13544 0.36824
 C286 C 0.53543 0.10320 0.37589
 C287 C 0.52238 0.06966 0.35903
 C288 C 0.54276 0.06780 0.33315
 C289 C 0.57661 0.10080 0.32442
 C290 C 0.59064 0.13396 0.34193
 C291 C 0.58496 0.16974 0.38849
 C292 C 0.62221 0.20103 0.38613
 C293 C 0.63501 0.23110 0.40707
 C294 C 0.61063 0.23118 0.43009
 C295 C 0.57323 0.20086 0.43210
 C296 C 0.56068 0.16964 0.41224
 C297 C 0.51297 0.10474 0.39996
 C298 C 0.52491 0.13756 0.41723
 H299 H 0.48557 0.08023 0.40542
 H300 H 0.50645 0.13735 0.43555
 H301 H 0.49509 0.04544 0.36525
 H302 H 0.59344 0.10078 0.30487
 H303 H 0.66423 0.25412 0.40565
 H304 H 0.55482 0.20043 0.45060
 H305 H 0.61701 0.15817 0.33439
 H306 H 0.64230 0.20207 0.36916
 C307 C 0.86173 0.43839 0.37063
 C308 C 0.89141 0.47481 0.37899
 C309 C 0.92487 0.49277 0.36132
 C310 C 0.92958 0.47572 0.33451
 C311 C 0.89882 0.44061 0.32502
 C312 C 0.86556 0.42201 0.34298
 C313 C 0.82766 0.41911 0.39170
 C314 C 0.79843 0.38123 0.38775
 C315 C 0.76816 0.36422 0.40897
 C316 C 0.76606 0.38475 0.43427
 C317 C 0.79474 0.42254 0.43808
 C318 C 0.82568 0.43951 0.41754
 C319 C 0.88766 0.49337 0.40493
 C320 C 0.85520 0.47633 0.42349
 H321 H 0.91021 0.52155 0.41102
 H322 H 0.85368 0.49187 0.44334
 H323 H 0.94695 0.52089 0.36811
 H324 H 0.90101 0.42622 0.30467
 H325 H 0.74642 0.33493 0.40562
 H326 H 0.79380 0.43850 0.45788
 H327 H 0.84330 0.39479 0.33497
 H328 H 0.79889 0.36408 0.36889
 C329 C 0.56169 0.43012 1.12939
 C330 C 0.57610 0.46952 1.12756
 C331 C 0.56062 0.48639 1.14627
 C332 C 0.53111 0.46486 1.16732
 C333 C 0.51773 0.42611 1.17013
 C334 C 0.53269 0.40883 1.15132
 C335 C 0.57790 0.41304 1.10769
 C336 C 0.56409 0.37388 1.10595
 C337 C 0.57954 0.35946 1.08456
 C338 C 0.60933 0.38371 1.06459
 C339 C 0.62346 0.42273 1.06649
 C340 C 0.60782 0.43741 1.08742
 C341 C 0.60578 0.49195 1.10698
 C342 C 0.62153 0.47630 1.08757
 H343 H 0.61698 0.52214 1.10581
 H344 H 0.64442 0.49491 1.07201
 H345 H 0.57153 0.51652 1.14445
 H346 H 0.49500 0.40902 1.18634
 H347 H 0.56803 0.32924 1.08360
 H348 H 0.64622 0.44186 1.05104
 H349 H 0.52108 0.37886 1.15417
 H350 H 0.54107 0.35391 1.12055
 C351 C 0.86543 0.44296 1.12955
 C352 C 0.89120 0.42944 1.12738
 C353 C 0.92488 0.44633 1.14493
 C354 C 0.93334 0.47633 1.16518
 C355 C 0.90743 0.48914 1.16805
 C356 C 0.87393 0.47282 1.15038
 C357 C 0.83045 0.42495 1.10935
 C358 C 0.80401 0.43754 1.10818
 C359 C 0.77284 0.42079 1.08783
 C360 C 0.76703 0.39083 1.06840
 C361 C 0.79269 0.37752 1.07008
 C362 C 0.82437 0.39453 1.08992
 C363 C 0.88330 0.39911 1.10777
 C364 C 0.85046 0.38183 1.08964
 H365 H 0.90290 0.38859 1.10635
 H366 H 0.84575 0.35855 1.07473
 H367 H 0.94450 0.43585 1.14310
 H368 H 0.91343 0.51224 1.18365
 H369 H 0.75357 0.43170 1.08701
 H370 H 0.78882 0.35461 1.05505
 H371 H 0.85516 0.48396 1.15336
 H372 H 0.80727 0.46074 1.12227
 C373 C 0.56105 0.13608 1.12631
 C374 C 0.58527 0.13230 1.14788
 C375 C 0.57088 0.09999 1.16689
 C376 C 0.53300 0.07061 1.16381
 C377 C 0.50911 0.07433 1.14241
 C378 C 0.52277 0.10671 1.12405
 C379 C 0.57771 0.17040 1.10579
 C380 C 0.55562 0.17747 1.08462
 C381 C 0.57261 0.20854 1.06471
 C382 C 0.61216 0.23358 1.06518
 C383 C 0.63433 0.22765 1.08706
 C384 C 0.61735 0.19649 1.10750
 C385 C 0.62394 0.16002 1.14948
 C386 C 0.63973 0.19114 1.12944
 H387 H 0.64253 0.15711 1.16593
 H388 H 0.66999 0.21128 1.13109
 H389 H 0.58959 0.09683 1.18306
 H390 H 0.47982 0.05184 1.13968
 H391 H 0.55458 0.21243 1.04836
 H392 H 0.66481 0.24706 1.08804
 H393 H 0.50312 0.10762 1.10769
 H394 H 0.52517 0.15931 1.08289
 C395 C 0.43800 0.57604 1.13116
 C396 C 0.47755 0.58940 1.12921
 C397 C 0.49387 0.57312 1.14785
 C398 C 0.47153 0.54461 1.16932
 C399 C 0.43299 0.53327 1.17280
 C400 C 0.41629 0.54864 1.15390
 C401 C 0.42099 0.59146 1.10872
 C402 C 0.38136 0.57615 1.10560
 C403 C 0.36681 0.59032 1.08330
 C404 C 0.39135 0.62059 1.06408
 C405 C 0.43083 0.63639 1.06721
 C406 C 0.44574 0.62137 1.08870
 C407 C 0.50045 0.61875 1.10860
 C408 C 0.48501 0.63498 1.08930
 H409 H 0.53083 0.62942 1.10744
 H410 H 0.50396 0.65770 1.07384
 H411 H 0.52387 0.58234 1.14555
 H412 H 0.41544 0.51142 1.18944
 H413 H 0.33622 0.57761 1.08108
 H414 H 0.44988 0.65925 1.05186
 H415 H 0.38639 0.53855 1.15730
 H416 H 0.36113 0.55257 1.11952
 C417 C 0.14156 0.56663 1.13287
 C418 C 0.11418 0.52773 1.13014
 C419 C 0.08047 0.51205 1.14779
 C420 C 0.07429 0.53437 1.16900
 C421 C 0.10256 0.57219 1.17325
 C422 C 0.13577 0.58826 1.15536
 C423 C 0.17523 0.58314 1.11138
 C424 C 0.20088 0.62231 1.10895
 C425 C 0.23040 0.63653 1.08713
 C426 C 0.23564 0.61208 1.06777
 C427 C 0.21089 0.57301 1.07043
 C428 C 0.18012 0.55847 1.09137
 C429 C 0.12055 0.50486 1.10973
 C430 C 0.15325 0.51976 1.09128
 H431 H 0.09994 0.47496 1.10801
 H432 H 0.15684 0.50089 1.07585
 H433 H 0.05888 0.48257 1.14495
 H434 H 0.09832 0.58972 1.18974
 H435 H 0.24908 0.66682 1.08520
 H436 H 0.21432 0.55408 1.05491
 H437 H 0.15638 0.61762 1.15935
 H438 H 0.19789 0.64251 1.12291
 C439 C 0.43989 0.86393 1.12737
 C440 C 0.42287 0.88660 1.12921
 C441 C 0.44041 0.92017 1.14653
 C442 C 0.47419 0.93108 1.16293
 C443 C 0.49010 0.90782 1.16245
 C444 C 0.47333 0.87469 1.14473
 C445 C 0.42157 0.82967 1.10683
 C446 C 0.43841 0.80764 1.10055
 C447 C 0.42129 0.77729 1.07984
 C448 C 0.38665 0.76765 1.06534
 C449 C 0.36912 0.78872 1.07202
 C450 C 0.38671 0.82009 1.09198
 C451 C 0.38844 0.87563 1.11385
 C452 C 0.37043 0.84275 1.09607
 H453 H 0.37517 0.89274 1.11562
 H454 H 0.34384 0.83553 1.08461
 H455 H 0.42769 0.93785 1.14748
 H456 H 0.51600 0.91573 1.17531
 H457 H 0.43539 0.76147 1.07490
 H458 H 0.34272 0.78188 1.06039
 H459 H 0.48691 0.85794 1.14499
 H460 H 0.46528 0.81402 1.11066
 C461 C 0.55903 0.41881 0.62995
 C462 C 0.51977 0.40618 0.62645
 C463 C 0.50314 0.42328 0.64363
 C464 C 0.52484 0.45192 0.66513
 C465 C 0.56305 0.46271 0.67002
 C466 C 0.58007 0.44652 0.65260
 C467 C 0.57652 0.40240 0.60911
 C468 C 0.61615 0.41685 0.60756
 C469 C 0.63130 0.40218 0.58631
 C470 C 0.60733 0.37223 0.56667
 C471 C 0.56781 0.35698 0.56849
 C472 C 0.55236 0.37254 0.58886
 C473 C 0.49745 0.37670 0.60582
 C474 C 0.51326 0.35968 0.58792
 H475 H 0.46727 0.36657 0.60349
 H476 H 0.49478 0.33698 0.57229
 H477 H 0.47336 0.41443 0.64028
 H478 H 0.58012 0.48463 0.68673
 H479 H 0.66192 0.41452 0.58500
 H480 H 0.54925 0.33443 0.55274
 H481 H 0.60967 0.45617 0.65714
 H482 H 0.63601 0.44027 0.62176
 C483 C 0.56898 0.13628 0.62944
 C484 C 0.58607 0.11367 0.63098
 C485 C 0.56995 0.08127 0.64978
 C486 C 0.53753 0.07148 0.66777
 C487 C 0.52181 0.09488 0.66772
 C488 C 0.53724 0.12694 0.64869
 C489 C 0.58519 0.16879 0.60701
 C490 C 0.56776 0.19031 0.60101
 C491 C 0.58279 0.21899 0.57868
 C492 C 0.61587 0.22739 0.56210
 C493 C 0.63397 0.20673 0.56831
 C494 C 0.61843 0.17703 0.59006
 C495 C 0.61890 0.12331 0.61362
 C496 C 0.63511 0.15469 0.59399
 H497 H 0.63225 0.10625 0.61517
 H498 H 0.66047 0.16090 0.58097
 H499 H 0.58239 0.06332 0.65030
 H500 H 0.49691 0.08771 0.68177
 H501 H 0.56836 0.23462 0.57428
 H502 H 0.65922 0.21269 0.55523
 H503 H 0.52381 0.14381 0.64925
 H504 H 0.54201 0.18487 0.61271
 C505 C 0.85939 0.42206 0.62955
 C506 C 0.88806 0.41291 0.62383
 C507 C 0.92131 0.42913 0.64204
 C508 C 0.92638 0.45413 0.66632
 C509 C 0.89711 0.46160 0.67304
 C510 C 0.86404 0.44585 0.65493
 C511 C 0.82576 0.40652 0.60793
 C512 C 0.79742 0.41662 0.60972
 C513 C 0.76768 0.40275 0.58802
 C514 C 0.76514 0.37814 0.56424
 C515 C 0.79285 0.36741 0.56265
 C516 C 0.82327 0.38180 0.58386
 C517 C 0.88368 0.38806 0.59971
 C518 C 0.85176 0.37248 0.58040
 H519 H 0.90540 0.38070 0.59554
 H520 H 0.84983 0.35355 0.56195
 H521 H 0.94359 0.42276 0.63707
 H522 H 0.90044 0.48083 0.69169
 H523 H 0.74673 0.41152 0.58978
 H524 H 0.79153 0.34877 0.54417
 H525 H 0.84277 0.45307 0.66092
 H526 H 0.79811 0.43577 0.62725
 C527 C 0.43401 0.56808 0.62555
 C528 C 0.42087 0.52914 0.62155
 C529 C 0.43673 0.51167 0.63916
 C530 C 0.46537 0.53221 0.66117
 C531 C 0.47788 0.57057 0.66561
 C532 C 0.46253 0.58837 0.64802
 C533 C 0.41709 0.58587 0.60548
 C534 C 0.42932 0.62471 0.60649
 C535 C 0.41368 0.64012 0.58639
 C536 C 0.38519 0.61722 0.56496
 C537 C 0.37220 0.57837 0.56433
 C538 C 0.38813 0.56270 0.58404
 C539 C 0.39198 0.50781 0.60002
 C540 C 0.37581 0.52418 0.58181
 H541 H 0.38177 0.47797 0.59711
 H542 H 0.35365 0.50645 0.56538
 H543 H 0.42649 0.48183 0.63600
 H544 H 0.50006 0.58701 0.68242
 H545 H 0.42425 0.67018 0.58742
 H546 H 0.35043 0.56037 0.54772
 H547 H 0.47343 0.61796 0.65235
 H548 H 0.45136 0.64381 0.62221
 C549 C 0.43540 0.86602 0.63135
 C550 C 0.43011 0.89663 0.62410
 C551 C 0.44865 0.92993 0.64159
 C552 C 0.47104 0.93305 0.66777
 C553 C 0.47369 0.90134 0.67638
 C554 C 0.45668 0.86853 0.65814
 C555 C 0.41761 0.83221 0.61030
 C556 C 0.42619 0.80300 0.61204
 C557 C 0.41029 0.77310 0.59071
 C558 C 0.38463 0.77111 0.56794
 C559 C 0.37545 0.79962 0.56630
 C560 C 0.39270 0.83068 0.58649
 C561 C 0.40578 0.89368 0.59976
 C562 C 0.38663 0.86098 0.58193
 H563 H 0.40113 0.91690 0.59461
 H564 H 0.36786 0.85997 0.56353
 H565 H 0.44406 0.95298 0.63552
 H566 H 0.49057 0.90236 0.69629
 H567 H 0.41807 0.75149 0.59193
 H568 H 0.35649 0.79865 0.54804
 H569 H 0.46028 0.84535 0.66543
 H570 H 0.44605 0.80347 0.62899
 C571 C 0.13419 0.56890 0.62694
 C572 C 0.10485 0.53161 0.62051
 C573 C 0.07117 0.51504 0.63811
 C574 C 0.06654 0.53410 0.66356
 C575 C 0.09698 0.57033 0.67107
 C576 C 0.13005 0.58766 0.65281
 C577 C 0.16861 0.58638 0.60614
 C578 C 0.19678 0.62498 0.60741
 C579 C 0.22756 0.64010 0.58665
 C580 C 0.23150 0.61689 0.56486
 C581 C 0.20388 0.57847 0.56355
 C582 C 0.17199 0.56337 0.58327
 C583 C 0.10953 0.51066 0.59695
 C584 C 0.14279 0.52589 0.57928
 H585 H 0.08731 0.48183 0.59235
 H586 H 0.14519 0.50838 0.56155
 H587 H 0.04923 0.48631 0.63278
 H588 H 0.09477 0.58635 0.69016
 H589 H 0.24840 0.66999 0.58762
 H590 H 0.20629 0.56073 0.54603
 H591 H 0.15215 0.61565 0.65943
 H592 H 0.19492 0.64408 0.62363
 C593 C 0.43036 0.56771 0.86814
 C594 C 0.47020 0.58245 0.86966
 C595 C 0.48714 0.56650 0.85163
 C596 C 0.46522 0.53628 0.83154
 C597 C 0.42610 0.52268 0.82882
 C598 C 0.40873 0.53808 0.84700
 C599 C 0.41316 0.58406 0.88949
 C600 C 0.37358 0.56963 0.89186
 C601 C 0.35902 0.58474 0.91337
 C602 C 0.38355 0.61484 0.93279
 C603 C 0.42300 0.62991 0.93000
 C604 C 0.43785 0.61452 0.90903
 C605 C 0.49297 0.61282 0.88934
 C606 C 0.47719 0.62878 0.90835
 H607 H 0.52351 0.62431 0.89020
 H608 H 0.49603 0.65211 0.92332
 H609 H 0.51757 0.57747 0.85331
 H610 H 0.40881 0.49944 0.81323
 H611 H 0.32845 0.57254 0.91503
 H612 H 0.44234 0.65294 0.94503
 H613 H 0.37844 0.52626 0.84433
 H614 H 0.35338 0.54621 0.87783
 C615 C 0.13729 0.56933 0.87140
 C616 C 0.10824 0.53138 0.87642
 C617 C 0.07528 0.51516 0.85791
 C618 C 0.07100 0.53585 0.83386
 C619 C 0.10059 0.57268 0.82771
 C620 C 0.13334 0.58936 0.84630
 C621 C 0.17071 0.58643 0.89328
 C622 C 0.19925 0.62493 0.89247
 C623 C 0.22902 0.63970 0.91418
 C624 C 0.23140 0.61639 0.93693
 C625 C 0.20332 0.57797 0.93770
 C626 C 0.17282 0.56307 0.91656
 C627 C 0.11207 0.50990 0.89998
 C628 C 0.14394 0.52524 0.91931
 H629 H 0.09003 0.48073 0.90357
 H630 H 0.14552 0.50741 0.93721
 H631 H 0.05268 0.48640 0.86235
 H632 H 0.09780 0.58901 0.80911
 H633 H 0.25026 0.66946 0.91314
 H634 H 0.20446 0.55978 0.95550
 H635 H 0.15502 0.61795 0.84080
 H636 H 0.19871 0.64424 0.87567
 C637 C 0.43125 0.86573 0.87379
 C638 C 0.42959 0.89758 0.88406
 C639 C 0.44649 0.93089 0.86632
 C640 C 0.46415 0.93304 0.83749
 C641 C 0.46323 0.90024 0.82643
 C642 C 0.44742 0.86728 0.84440
 C643 C 0.41539 0.83171 0.89466
 C644 C 0.42001 0.80044 0.88877
 C645 C 0.40568 0.76999 0.90961
 C646 C 0.38575 0.76970 0.93639
 C647 C 0.38089 0.80058 0.94234
 C648 C 0.39628 0.83179 0.92223
 C649 C 0.41078 0.89600 0.91187
 C650 C 0.39378 0.86353 0.93021
 H651 H 0.40896 0.92020 0.91952
 H652 H 0.37937 0.86366 0.95144
 H653 H 0.44457 0.95477 0.87468
 H654 H 0.47667 0.90042 0.80458
 H655 H 0.41004 0.74657 0.90474
 H656 H 0.36637 0.80100 0.96343
 H657 H 0.44825 0.84337 0.83493
 H658 H 0.43533 0.79938 0.86862
 C659 C 0.57567 0.44131 0.87074
 C660 C 0.53642 0.42910 0.87346
 C661 C 0.52035 0.44571 0.85516
 C662 C 0.54246 0.47401 0.83353
 C663 C 0.58093 0.48517 0.82975
 C664 C 0.59751 0.46918 0.84827
 C665 C 0.59199 0.42403 0.89208
 C666 C 0.63115 0.43599 0.89323
 C667 C 0.64496 0.41991 0.91456
 C668 C 0.62005 0.39123 0.93497
 C669 C 0.58099 0.37872 0.93352
 C670 C 0.56696 0.39515 0.91277
 C671 C 0.51330 0.40038 0.89441
 C672 C 0.52816 0.38347 0.91338
 H673 H 0.48319 0.39084 0.89621
 H674 H 0.50906 0.36140 0.92928
 H675 H 0.49035 0.43650 0.85761
 H676 H 0.59831 0.50680 0.81291
 H677 H 0.67526 0.43018 0.91523
 H678 H 0.56142 0.35691 0.94940
 H679 H 0.62732 0.47900 0.84469
 H680 H 0.65162 0.45819 0.87832
 C681 C 0.86426 0.43763 0.87364
 C682 C 0.89310 0.47550 0.87930
 C683 C 0.92567 0.49288 0.86033
 C684 C 0.92978 0.47343 0.83520
 C685 C 0.90040 0.43664 0.82857
 C686 C 0.86805 0.41883 0.84757
 C687 C 0.83115 0.41933 0.89580
 C688 C 0.80267 0.38083 0.89414
 C689 C 0.77291 0.36506 0.91590
 C690 C 0.77056 0.38736 0.93957
 C691 C 0.79879 0.42567 0.94134
 C692 C 0.82915 0.44157 0.92011
 C693 C 0.88945 0.49577 0.90395
 C694 C 0.85790 0.47934 0.92363
 H695 H 0.91133 0.52486 0.90809
 H696 H 0.85639 0.49629 0.94234
 H697 H 0.94808 0.52157 0.86521
 H698 H 0.90306 0.42117 0.80922
 H699 H 0.75157 0.33540 0.91408
 H700 H 0.79769 0.44310 0.95984
 H701 H 0.84655 0.39035 0.84161
 H702 H 0.80315 0.36233 0.87652
 C703 C 0.57078 0.13916 0.87355
 C704 C 0.58005 0.11097 0.88035
 C705 C 0.56448 0.07783 0.86247
 C706 C 0.54030 0.07249 0.83730
 C707 C 0.53253 0.10110 0.82958
 C708 C 0.54741 0.13401 0.84752
 C709 C 0.58616 0.17305 0.89456
 C710 C 0.57605 0.20115 0.89177
 C711 C 0.59023 0.23143 0.91275
 C712 C 0.61520 0.23473 0.93672
 C713 C 0.62568 0.20708 0.93939
 C714 C 0.61098 0.17620 0.91901
 C715 C 0.60468 0.11586 0.90500
 C716 C 0.62022 0.14800 0.92364
 H717 H 0.61208 0.09447 0.90999
 H718 H 0.63915 0.15042 0.94244
 H719 H 0.57107 0.05601 0.86815
 H720 H 0.51398 0.09748 0.81011
 H721 H 0.58155 0.25226 0.91024
 H722 H 0.64446 0.20888 0.95812
 H723 H 0.54016 0.15491 0.84075
 H724 H 0.55672 0.19987 0.87394
   
