data_POSCAR
  _audit_creation_date              2014-09-24
  _audit_creation_method            'ToBaCCo'
  _symmetry_space_group_name_H-M    'P1'
  _symmetry_Int_Tables_number       1
  _symmetry_cell_setting            triclinic
  loop_
  _symmetry_equiv_pos_as_xyz
 x,y,z
_cell_length_a 22.4404
_cell_length_b 22.4001
_cell_length_c 56.4169
_cell_angle_alpha 90.685300
_cell_angle_beta 89.594300
_cell_angle_gamma 120.086200
loop_
  _atom_site_label
  _atom_site_type_symbol
  _atom_site_fract_x
  _atom_site_fract_y
  _atom_site_fract_z
C1 C -0.04665 0.03785 0.51521
 C2 C -0.10323 -0.01255 0.49817
 C3 C -0.08432 -0.05278 0.48539
 C4 C -0.01129 -0.03889 0.49072
 C5 C -0.02967 -0.00758 0.53048
 C6 C -0.01179 -0.04821 0.51771
 C7 C 0.01681 0.07906 0.49972
 C8 C 0.03531 0.03919 0.48687
 H9 H -0.15414 -0.01823 0.49716
 H10 H 0.00436 -0.07123 0.48030
 H11 H -0.03897 -0.01319 0.54948
 H12 H 0.04266 0.13485 0.49804
 C13 C 0.95295 -0.08974 0.18249
 C14 C 1.00455 -0.09530 0.16576
 C15 C 1.04409 -0.03614 0.15320
 C16 C 1.02828 0.02215 0.15856
 C17 C 0.99410 -0.02958 0.19727
 C18 C 1.03604 0.03181 0.18419
 C19 C 0.91098 -0.06989 0.16652
 C20 C 0.95025 -0.01141 0.15395
 H21 H 1.01120 -0.14007 0.16471
 H22 H 1.05994 0.07009 0.14830
 H23 H 1.00092 -0.03282 0.21620
 H24 H 0.85537 -0.10084 0.16460
 C25 C 0.09440 1.05493 0.84945
 C26 C 0.10105 1.11105 0.83241
 C27 C 0.04224 1.09149 0.81967
 C28 C -0.01703 1.01835 0.82504
 C29 C 0.03148 1.03804 0.86476
 C30 C -0.02668 1.01951 0.85203
 C31 C 0.07264 0.99099 0.83397
 C32 C 0.01462 0.97185 0.82116
 H33 H 0.14627 1.16215 0.83139
 H34 H -0.06474 1.00217 0.81465
 H35 H 0.03459 1.04784 0.88376
 H36 H 0.10260 0.96519 0.83230
 O37 O 0.50838 0.10649 0.02759
 O38 O 0.62547 0.11302 -0.02020
 O39 O 0.51334 0.11998 -0.01827
 O40 O 0.62711 0.10968 0.02594
 O41 O 0.56934 -0.00417 0.02308
 O42 O 0.45455 0.00611 -0.02118
 O43 O 0.56627 -0.00090 -0.02279
 O44 O 0.45100 -0.00734 0.02465
 Cu45 Cu 0.57449 0.12374 0.00417
 Cu46 Cu 0.50433 -0.01299 0.00078
 C47 C 0.45927 0.04803 0.03394
 C48 C 0.61514 0.05672 -0.02958
 C49 C 0.46502 0.06503 -0.02728
 C50 C 0.61828 0.05133 0.03173
 O51 O 0.00224 0.45363 0.64520
 O52 O 0.01102 0.58030 0.68955
 O53 O 0.01517 0.46551 0.69108
 O54 O 0.00844 0.57213 0.64364
 O55 O -0.10532 0.51663 0.64572
 O56 O -0.09849 0.40831 0.69352
 O57 O -0.10265 0.52348 0.69190
 O58 O -0.11146 0.39782 0.64762
 Cu59 Cu 0.02061 0.52344 0.66726
 Cu60 Cu -0.11591 0.45598 0.67005
 C61 C -0.05635 0.40455 0.63884
 C62 C -0.04464 0.57361 0.69797
 C63 C -0.04007 0.41838 0.70011
 C64 C -0.04914 0.56256 0.63658
 O65 O 0.48000 0.36893 0.31030
 O66 O 0.59141 0.48475 0.35824
 O67 O 0.47616 0.36524 0.35650
 O68 O 0.59884 0.48188 0.31224
 O69 O 0.54320 0.54002 0.31107
 O70 O 0.41953 0.42235 0.35538
 O71 O 0.53434 0.54141 0.35704
 O72 O 0.42471 0.42745 0.30946
 Cu73 Cu 0.54216 0.41931 0.33454
 Cu74 Cu 0.47489 0.48864 0.33324
 C75 C 0.43363 0.37918 0.30176
 C76 C 0.58193 0.53334 0.36547
 C77 C 0.42664 0.37332 0.36319
 C78 C 0.59175 0.53042 0.30412
 C79 C -0.05387 0.20479 0.59572
 C80 C -0.11792 0.15344 0.58118
 C81 C -0.07256 0.17155 0.55892
 C82 C -0.00855 0.22217 0.57325
 C83 C -0.06853 0.26280 0.58959
 C84 C -0.02318 0.28085 0.56732
 C85 C -0.13267 0.21230 0.57530
 C86 C -0.08721 0.22954 0.55273
 C87 C -0.07035 0.12183 0.54242
 C88 C -0.06306 0.08260 0.52960
 C89 C -0.06452 0.31373 0.60695
 C90 C -0.06058 0.35545 0.62145
 H91 H -0.03998 0.19522 0.61356
 H92 H -0.15696 0.10050 0.58665
 H93 H 0.04255 0.22570 0.57222
 H94 H 0.01592 0.33376 0.56184
 H95 H -0.18368 0.20892 0.57638
 H96 H -0.10106 0.23900 0.53487
 C97 C 0.73332 0.64639 0.22882
 C98 C 0.74270 0.71820 0.22327
 C99 C 0.82108 0.74964 0.22525
 C100 C 0.81264 0.67871 0.23053
 C101 C 0.73113 0.66120 0.25538
 C102 C 0.80950 0.69259 0.25739
 C103 C 0.73977 0.73217 0.25005
 C104 C 0.81874 0.76426 0.25182
 C105 C 0.87013 0.80209 0.20907
 C106 C 0.90881 0.84892 0.19655
 C107 C 0.68096 0.61368 0.27251
 C108 C 0.63993 0.57553 0.28685
 H109 H 0.69749 0.59734 0.21958
 H110 H 0.71580 0.72923 0.20903
 H111 H 0.84317 0.65737 0.22230
 H112 H 0.83637 0.68157 0.27164
 H113 H 0.70934 0.75369 0.25825
 H114 H 0.85449 0.81327 0.26111
 C115 C 0.30611 0.02777 -0.09738
 C116 C 0.23559 0.02033 -0.09100
 C117 C 0.25250 0.08201 -0.10696
 C118 C 0.32239 0.08947 -0.11361
 C119 C 0.33834 0.07809 -0.07639
 C120 C 0.35553 0.13991 -0.09232
 C121 C 0.26842 0.07062 -0.06980
 C122 C 0.28467 0.13236 -0.08598
 C123 C 0.20123 0.07959 -0.12342
 C124 C 0.15514 0.07195 -0.13620
 C125 C 0.38437 0.07396 -0.05908
 C126 C 0.42130 0.06976 -0.04463
 H127 H 0.31529 -0.01536 -0.10185
 H128 H 0.18568 -0.02890 -0.09062
 H129 H 0.34403 0.09737 -0.13180
 H130 H 0.40550 0.18905 -0.09264
 H131 H 0.24664 0.06267 -0.05162
 H132 H 0.27539 0.17543 -0.08152
 C133 C -0.01744 0.69835 0.55946
 C134 C -0.07489 0.71374 0.55208
 C135 C -0.02378 0.79120 0.55539
 C136 C 0.03371 0.77680 0.56249
 C137 C -0.03947 0.69555 0.58548
 C138 C 0.01155 0.77306 0.58873
 C139 C -0.09692 0.71002 0.57838
 C140 C -0.04579 0.78816 0.58142
 C141 C -0.01619 0.84668 0.53997
 C142 C -0.01233 0.89407 0.52886
 C143 C -0.04659 0.64485 0.60307
 C144 C -0.04972 0.60579 0.61817
 H145 H -0.00601 0.66064 0.55065
 H146 H -0.11019 0.69001 0.53677
 H147 H 0.08745 0.80477 0.55578
 H148 H 0.04690 0.79698 0.60402
 H149 H -0.15066 0.68210 0.58510
 H150 H -0.05725 0.82576 0.59032
 C151 C 0.25465 0.27869 0.23615
 C152 C 0.26390 0.24220 0.21404
 C153 C 0.19821 0.17556 0.22108
 C154 C 0.18817 0.21130 0.24289
 C155 C 0.29668 0.25538 0.25084
 C156 C 0.23091 0.18869 0.25776
 C157 C 0.30696 0.21973 0.22904
 C158 C 0.24031 0.15235 0.23577
 C159 C 0.14112 0.12799 0.20582
 C160 C 0.09233 0.08492 0.19484
 C161 C 0.34890 0.29902 0.26830
 C162 C 0.38912 0.33510 0.28334
 H163 H 0.26119 0.33120 0.23652
 H164 H 0.27671 0.26369 0.19589
 H165 H 0.13880 0.20749 0.24840
 H166 H 0.21788 0.16700 0.27589
 H167 H 0.35638 0.22360 0.22358
 H168 H 0.23378 0.09983 0.23543
 C169 C 0.72470 0.02743 -0.10676
 C170 C 0.79911 0.08427 -0.11317
 C171 C 0.82289 0.03125 -0.11036
 C172 C 0.74944 -0.02564 -0.10424
 C173 C 0.74120 0.04688 -0.08044
 C174 C 0.76511 -0.00605 -0.07769
 C175 C 0.81467 0.10372 -0.08657
 C176 C 0.83913 0.05069 -0.08402
 C177 C 0.87161 0.02371 -0.12571
 C178 C 0.91567 0.01993 -0.13679
 C179 C 0.69662 0.05401 -0.06294
 C180 C 0.65987 0.05719 -0.04792
 H181 H 0.67710 0.01810 -0.11591
 H182 H 0.81353 0.12117 -0.12799
 H183 H 0.72313 -0.07886 -0.11168
 H184 H 0.75083 -0.04300 -0.06288
 H185 H 0.84105 0.15694 -0.07912
 H186 H 0.88665 0.06005 -0.07480
 C187 C 0.29360 -0.01719 0.10479
 C188 C 0.28249 0.03842 0.11735
 C189 C 0.20635 -0.00167 0.10993
 C190 C 0.21660 -0.05743 0.09764
 C191 C 0.31021 0.02390 0.08170
 C192 C 0.23404 -0.01618 0.07432
 C193 C 0.30001 0.07970 0.09398
 C194 C 0.22299 0.03941 0.08684
 C195 C 0.14810 -0.01573 0.12543
 C196 C 0.10035 -0.02614 0.13807
 C197 C 0.36645 0.03623 0.06542
 C198 C 0.41041 0.04356 0.05142
 H199 H 0.32334 -0.04023 0.11204
 H200 H 0.30174 0.06066 0.13525
 H201 H 0.18171 -0.11394 0.09928
 H202 H 0.21466 -0.03845 0.05644
 H203 H 0.33490 0.13621 0.09233
 H204 H 0.19326 0.06244 0.07959
 C205 C 0.72041 0.75560 0.41098
 C206 C 0.70966 0.75780 0.43805
 C207 C 0.78697 0.78565 0.44174
 C208 C 0.79834 0.78426 0.41490
 C209 C 0.70803 0.68192 0.41334
 C210 C 0.78536 0.70977 0.41703
 C211 C 0.69660 0.68325 0.44018
 C212 C 0.77467 0.71201 0.44413
 C213 C 0.83152 0.84379 0.45735
 C214 C 0.86912 0.89134 0.47010
 C215 C 0.66374 0.62577 0.39700
 C216 C 0.62676 0.58194 0.38296
 H217 H 0.69764 0.77298 0.39717
 H218 H 0.67901 0.77821 0.44683
 H219 H 0.84056 0.82643 0.40465
 H220 H 0.81602 0.68938 0.40824
 H221 H 0.65436 0.64105 0.45042
 H222 H 0.79750 0.69475 0.45796
 C223 C -0.07025 0.23753 0.76329
 C224 C -0.04131 0.19052 0.75533
 C225 C 0.00959 0.21832 0.77617
 C226 C -0.01915 0.26464 0.78439
 C227 C -0.01575 0.29552 0.74787
 C228 C 0.03515 0.32334 0.76870
 C229 C 0.01298 0.24915 0.73968
 C230 C 0.06403 0.27631 0.76074
 C231 C 0.02332 0.17461 0.79172
 C232 C 0.03320 0.13755 0.80444
 C233 C -0.02807 0.33874 0.73158
 C234 C -0.03546 0.37477 0.71757
 H235 H -0.12558 0.22204 0.76418
 H236 H -0.07253 0.13543 0.74998
 H237 H -0.03212 0.27059 0.80297
 H238 H 0.06638 0.37843 0.77406
 H239 H 0.02597 0.24312 0.72111
 H240 H 0.11937 0.29182 0.75984
 C241 C 0.82963 0.06199 0.07066
 C242 C 0.85499 0.10078 0.09473
 C243 C 0.84225 0.03341 0.10610
 C244 C 0.81767 -0.00545 0.08233
 C245 C 0.75556 0.04267 0.07730
 C246 C 0.74303 -0.02457 0.08870
 C247 C 0.78009 0.08157 0.10106
 C248 C 0.76816 0.01415 0.11267
 C249 C 0.88703 0.02405 0.12257
 C250 C 0.91906 0.01109 0.13662
 C251 C 0.70621 0.04609 0.06129
 C252 C 0.66559 0.04829 0.04797
 H253 H 0.85430 0.08164 0.05317
 H254 H 0.90155 0.15220 0.09736
 H255 H 0.83374 -0.04119 0.07476
 H256 H 0.69652 -0.07607 0.08610
 H257 H 0.76396 0.11728 0.10861
 H258 H 0.74335 -0.00554 0.13015
 C259 C 0.28825 0.17885 0.42319
 C260 C 0.26197 0.19947 0.44557
 C261 C 0.18765 0.14698 0.43836
 C262 C 0.21294 0.12553 0.41625
 C263 C 0.28260 0.23422 0.40916
 C264 C 0.20828 0.18174 0.40193
 C265 C 0.25716 0.25544 0.43128
 C266 C 0.18220 0.20241 0.42428
 C267 C 0.13386 0.10204 0.45507
 C268 C 0.08901 0.07007 0.46932
 C269 C 0.33475 0.28402 0.39297
 C270 C 0.37699 0.32517 0.37953
 H271 H 0.33258 0.16984 0.42257
 H272 H 0.28354 0.20616 0.46369
 H273 H 0.19422 0.07163 0.41026
 H274 H 0.18672 0.17509 0.38381
 H275 H 0.27575 0.30929 0.43730
 H276 H 0.13796 0.21158 0.42487
 C277 C -0.09053 0.74532 0.74497
 C278 C -0.08965 0.74241 0.77243
 C279 C -0.02963 0.81723 0.77289
 C280 C -0.03033 0.82108 0.74574
 C281 C -0.03777 0.72065 0.74383
 C282 C 0.02219 0.79548 0.74433
 C283 C -0.03705 0.71686 0.77098
 C284 C 0.02299 0.79239 0.77169
 C285 C -0.02069 0.87185 0.78953
 C286 C -0.00790 0.91737 0.80370
 C287 C -0.04055 0.66754 0.72769
 C288 C -0.04221 0.62441 0.71429
 H289 H -0.13730 0.72526 0.73377
 H290 H -0.13564 0.72124 0.78413
 H291 H -0.02766 0.86443 0.73554
 H292 H 0.06823 0.81676 0.73266
 H293 H -0.03967 0.67356 0.78120
 H294 H 0.06982 0.81232 0.78285
   
