data_POSCAR
  _audit_creation_date              2014-09-24
  _audit_creation_method            'ToBaCCo'
  _symmetry_space_group_name_H-M    'P1'
  _symmetry_Int_Tables_number       1
  _symmetry_cell_setting            triclinic
  loop_
  _symmetry_equiv_pos_as_xyz
 x,y,z
_cell_length_a 25.8600
_cell_length_b 25.8590
_cell_length_c 73.3631
_cell_angle_alpha 89.979200
_cell_angle_beta 90.049800
_cell_angle_gamma 120.035600
loop_
  _atom_site_label
  _atom_site_type_symbol
  _atom_site_fract_x
  _atom_site_fract_y
  _atom_site_fract_z
C1 C -0.05353 -0.06510 0.48549
 C2 C -0.01662 -0.03356 0.50018
 C3 C -0.00982 -0.06462 0.51474
 C4 C -0.03907 -0.12755 0.51483
 C5 C -0.07681 -0.15841 0.49994
 C6 C -0.08483 -0.12807 0.48513
 C7 C 0.01615 0.03246 0.50016
 C8 C 0.01067 0.06386 0.51490
 C9 C 0.04123 0.12658 0.51497
 C10 C 0.07839 0.15767 0.50016
 C11 C 0.08479 0.12679 0.48536
 C12 C 0.05301 0.06407 0.48543
 H13 H -0.05612 -0.03965 0.47418
 H14 H 0.02133 -0.03872 0.52542
 H15 H -0.01756 0.03927 0.52632
 H16 H 0.05698 0.03965 0.47402
 H17 H -0.10401 -0.20643 0.50064
 H18 H 0.10243 0.20605 0.50016
 C19 C 1.06516 0.01150 0.15186
 C20 C 1.03343 0.01680 0.16654
 C21 C 1.06447 0.05454 0.18112
 C22 C 1.12703 0.08768 0.18109
 C23 C 1.15843 0.08159 0.16639
 C24 C 1.12828 0.04323 0.15155
 C25 C 0.96746 -0.01667 0.16653
 C26 C 0.93623 -0.05412 0.18119
 C27 C 0.87352 -0.08699 0.18118
 C28 C 0.84229 -0.08085 0.16642
 C29 C 0.87300 -0.04296 0.15171
 C30 C 0.93573 -0.01145 0.15182
 H31 H 1.03975 -0.01650 0.14053
 H32 H 1.03965 0.05936 0.19225
 H33 H 0.96100 -0.05892 0.19235
 H34 H 0.96005 0.01732 0.14047
 H35 H 1.20664 0.10471 0.16721
 H36 H 0.79392 -0.10446 0.16660
 C37 C 0.05277 0.98948 0.84820
 C38 C 0.01528 0.98327 0.83354
 C39 C 0.01024 0.94676 0.81878
 C40 C 0.04187 0.91585 0.81861
 C41 C 0.07982 0.92288 0.83329
 C42 C 0.08644 0.96010 0.84829
 C43 C -0.01812 1.01583 0.83353
 C44 C -0.01293 1.05254 0.81881
 C45 C -0.04446 1.08355 0.81864
 C46 C -0.08250 1.07640 0.83329
 C47 C -0.08928 1.03899 0.84825
 C48 C -0.05570 1.00951 0.84816
 H49 H 0.05771 1.02024 0.85896
 H50 H -0.01854 0.94239 0.80743
 H51 H 0.01593 1.05701 0.80749
 H52 H -0.06075 0.97861 0.85889
 H53 H 0.10156 0.89642 0.83330
 H54 H -0.10415 1.10294 0.83330
 O55 O 0.57462 0.04962 -0.01768
 O56 O 0.47506 0.05093 0.01763
 O57 O 0.57383 0.04733 0.01783
 O58 O 0.47339 0.04841 -0.01789
 O59 O 0.42337 -0.05009 -0.01761
 O60 O 0.52348 -0.05117 0.01761
 O61 O 0.42472 -0.04758 0.01791
 O62 O 0.52460 -0.04889 -0.01791
 Cu63 Cu 0.52924 0.05892 -0.00003
 Cu64 Cu 0.46903 -0.05928 0.00000
 C65 C 0.56678 0.00043 -0.02392
 C66 C 0.43304 0.00219 0.02389
 C67 C 0.56561 -0.00239 0.02383
 C68 C 0.43112 -0.00095 -0.02386
 O69 O 0.05102 0.47523 0.64931
 O70 O 0.05123 0.57597 0.68448
 O71 O 0.04800 0.47377 0.68482
 O72 O 0.04944 0.57505 0.64896
 O73 O -0.04907 0.52617 0.64904
 O74 O -0.05050 0.42525 0.68438
 O75 O -0.04727 0.52745 0.68456
 O76 O -0.04748 0.42634 0.64888
 Cu77 Cu 0.05977 0.52988 0.66691
 Cu78 Cu -0.05843 0.47144 0.66670
 C79 C 0.00203 0.43371 0.64299
 C80 C 0.00232 0.56907 0.69062
 C81 C -0.00179 0.43211 0.69073
 C82 C 0.00013 0.56770 0.64286
 O83 O 0.47450 0.42489 0.31586
 O84 O 0.57555 0.52475 0.35116
 O85 O 0.47320 0.42581 0.35137
 O86 O 0.57452 0.52618 0.31564
 O87 O 0.52594 0.57605 0.31590
 O88 O 0.42494 0.47600 0.35114
 O89 O 0.52729 0.57494 0.35142
 O90 O 0.42592 0.47476 0.31562
 Cu91 Cu 0.52929 0.47041 0.33351
 Cu92 Cu 0.47118 0.53044 0.33352
 C93 C 0.43310 0.43262 0.30961
 C94 C 0.56882 0.56676 0.35741
 C95 C 0.43166 0.43395 0.35737
 C96 C 0.56734 0.56834 0.30965
 C97 C 0.02044 0.22314 0.55937
 C98 C 0.07694 0.24268 0.55182
 C99 C 0.08380 0.21118 0.53745
 C100 C 0.03413 0.15960 0.53042
 C101 C -0.02247 0.14010 0.53816
 C102 C -0.02923 0.17174 0.55254
 C103 C 0.01375 0.25631 0.57402
 C104 C 0.00962 0.28522 0.58624
 C105 C 0.00690 0.32126 0.60073
 C106 C 0.05992 0.36601 0.60850
 C107 C 0.05817 0.40221 0.62231
 C108 C 0.00321 0.39419 0.62859
 C109 C -0.05001 0.34878 0.62079
 C110 C -0.04811 0.31255 0.60693
 H111 H 0.11572 0.28234 0.55704
 H112 H 0.12803 0.22683 0.53194
 H113 H -0.06164 0.10098 0.53290
 H114 H -0.07319 0.15631 0.55825
 H115 H 0.10274 0.37317 0.60380
 H116 H 0.09997 0.43669 0.62801
 H117 H -0.09300 0.34151 0.62531
 H118 H -0.08945 0.27804 0.60098
 C119 C 0.77803 0.79425 0.22545
 C120 C 0.75934 0.77708 0.20745
 C121 C 0.79042 0.81565 0.19306
 C122 C 0.84067 0.87202 0.19649
 C123 C 0.85930 0.88877 0.21463
 C124 C 0.82810 0.85012 0.22901
 C125 C 0.74472 0.75521 0.24025
 C126 C 0.71579 0.72276 0.25258
 C127 C 0.67983 0.68454 0.26718
 C128 C 0.63538 0.69330 0.27490
 C129 C 0.59919 0.65574 0.28880
 C130 C 0.60692 0.60872 0.29520
 C131 C 0.65205 0.60047 0.28746
 C132 C 0.68826 0.63819 0.27351
 H133 H 0.72060 0.73395 0.20455
 H134 H 0.77549 0.80115 0.17924
 H135 H 0.89738 0.93212 0.21771
 H136 H 0.84272 0.86401 0.24289
 H137 H 0.62843 0.72899 0.27010
 H138 H 0.56493 0.66340 0.29445
 H139 H 0.65910 0.56469 0.29207
 H140 H 0.72253 0.63098 0.26761
 C141 C 0.20466 -0.01664 -0.10802
 C142 C 0.21462 -0.03216 -0.12535
 C143 C 0.17589 -0.03982 -0.13971
 C144 C 0.12593 -0.03210 -0.13707
 C145 C 0.11692 -0.01607 -0.11938
 C146 C 0.15582 -0.00858 -0.10507
 C147 C 0.24377 -0.01063 -0.09319
 C148 C 0.27630 -0.00698 -0.08086
 C149 C 0.31459 -0.00467 -0.06626
 C150 C 0.36107 0.05015 -0.05997
 C151 C 0.39890 0.05167 -0.04605
 C152 C 0.39064 -0.00174 -0.03829
 C153 C 0.34350 -0.05652 -0.04465
 C154 C 0.30583 -0.05789 -0.05852
 H155 H 0.25258 -0.03821 -0.12781
 H156 H 0.18702 -0.04957 -0.15299
 H157 H 0.07850 -0.01168 -0.11618
 H158 H 0.14728 0.00277 -0.09162
 H159 H 0.36829 0.09164 -0.06588
 H160 H 0.43478 0.09452 -0.04146
 H161 H 0.33582 -0.09846 -0.03899
 H162 H 0.27005 -0.10057 -0.06330
 C163 C -0.01505 0.77790 0.55847
 C164 C -0.03049 0.75240 0.54113
 C165 C -0.03835 0.78338 0.52678
 C166 C -0.03093 0.84094 0.52945
 C167 C -0.01488 0.86603 0.54713
 C168 C -0.00719 0.83473 0.56144
 C169 C -0.00902 0.74484 0.57330
 C170 C -0.00541 0.71603 0.58565
 C171 C -0.00322 0.68011 0.60029
 C172 C -0.05652 0.63547 0.60793
 C173 C -0.05526 0.59931 0.62186
 C174 C -0.00053 0.60725 0.62837
 C175 C 0.05295 0.65256 0.62070
 C176 C 0.05156 0.68875 0.60672
 H177 H -0.03638 0.70846 0.53865
 H178 H -0.04808 0.76253 0.51349
 H179 H -0.01067 0.90877 0.55035
 H180 H 0.00411 0.85462 0.57489
 H181 H -0.09916 0.62836 0.60305
 H182 H -0.09726 0.56491 0.62745
 H183 H 0.09577 0.65977 0.62540
 H184 H 0.09310 0.72317 0.60087
 C185 C 0.22221 0.20674 0.22536
 C186 C 0.17248 0.15066 0.22892
 C187 C 0.14136 0.11192 0.21455
 C188 C 0.15973 0.12880 0.19640
 C189 C 0.20962 0.18540 0.19297
 C190 C 0.24062 0.22406 0.20736
 C191 C 0.25552 0.24584 0.24017
 C192 C 0.28448 0.27831 0.25249
 C193 C 0.32049 0.31652 0.26711
 C194 C 0.31207 0.36286 0.27344
 C195 C 0.34832 0.40055 0.28740
 C196 C 0.39349 0.39229 0.29514
 C197 C 0.40121 0.34530 0.28873
 C198 C 0.36498 0.30777 0.27483
 H199 H 0.15808 0.13665 0.24282
 H200 H 0.10355 0.06839 0.21763
 H201 H 0.22434 0.19997 0.17915
 H202 H 0.27910 0.26735 0.20445
 H203 H 0.27777 0.37006 0.26754
 H204 H 0.34128 0.43631 0.29202
 H205 H 0.43549 0.33763 0.29438
 H206 H 0.37192 0.27209 0.27002
 C207 C 0.79249 0.01567 -0.10812
 C208 C 0.78262 0.03136 -0.12545
 C209 C 0.82135 0.03903 -0.13979
 C210 C 0.87121 0.03113 -0.13713
 C211 C 0.88011 0.01490 -0.11945
 C212 C 0.84122 0.00741 -0.10516
 C213 C 0.75342 0.00970 -0.09331
 C214 C 0.72096 0.00611 -0.08098
 C215 C 0.68279 0.00389 -0.06638
 C216 C 0.69159 0.05716 -0.05868
 C217 C 0.65408 0.05587 -0.04480
 C218 C 0.60706 0.00114 -0.03838
 C219 C 0.59874 -0.05233 -0.04610
 C220 C 0.63641 -0.05090 -0.06004
 H221 H 0.74475 0.03756 -0.12792
 H222 H 0.81030 0.04893 -0.15307
 H223 H 0.91845 0.01037 -0.11624
 H224 H 0.84969 -0.00408 -0.09171
 H225 H 0.72729 0.09981 -0.06350
 H226 H 0.66179 0.09785 -0.03916
 H227 H 0.56296 -0.09515 -0.04147
 H228 H 0.62917 -0.09242 -0.06593
 C229 C 0.22476 0.02272 0.10785
 C230 C 0.25050 0.07532 0.11807
 C231 C 0.21890 0.08226 0.13240
 C232 C 0.16041 0.03649 0.13686
 C233 C 0.13517 -0.01635 0.12624
 C234 C 0.16708 -0.02303 0.11194
 C235 C 0.25778 0.01601 0.09315
 C236 C 0.28643 0.01171 0.08090
 C237 C 0.32205 0.00858 0.06635
 C238 C 0.36744 0.06139 0.05869
 C239 C 0.40317 0.05916 0.04481
 C240 C 0.39403 0.00393 0.03837
 C241 C 0.34800 -0.04905 0.04607
 C242 C 0.31225 -0.04668 0.06000
 H243 H 0.29502 0.11135 0.11489
 H244 H 0.24007 0.12476 0.13939
 H245 H 0.09170 -0.05409 0.12930
 H246 H 0.14687 -0.06421 0.10418
 H247 H 0.37545 0.10439 0.06351
 H248 H 0.43816 0.10079 0.03919
 H249 H 0.33986 -0.09224 0.04142
 H250 H 0.27723 -0.08785 0.06586
 C251 C 0.79813 0.77569 0.44133
 C252 C 0.82534 0.75010 0.45146
 C253 C 0.86389 0.78163 0.46580
 C254 C 0.87627 0.83991 0.47040
 C255 C 0.84839 0.86505 0.45987
 C256 C 0.80977 0.83319 0.44555
 C257 C 0.75833 0.74268 0.42662
 C258 C 0.72531 0.71396 0.41437
 C259 C 0.68649 0.67822 0.39982
 C260 C 0.69392 0.63285 0.39218
 C261 C 0.65587 0.59696 0.37831
 C262 C 0.60966 0.60592 0.37187
 C263 C 0.60269 0.65193 0.37955
 C264 C 0.64092 0.68785 0.39346
 H265 H 0.81708 0.70573 0.44818
 H266 H 0.88553 0.76064 0.47273
 H267 H 0.85393 0.90837 0.46303
 H268 H 0.78855 0.85329 0.43786
 H269 H 0.72901 0.62497 0.39700
 H270 H 0.66253 0.56200 0.37271
 H271 H 0.56756 0.65994 0.37490
 H272 H 0.63474 0.72284 0.39931
 C273 C -0.02298 0.20199 0.77445
 C274 C -0.07972 0.16414 0.78172
 C275 C -0.08678 0.12548 0.79604
 C276 C -0.03707 0.12415 0.80328
 C277 C 0.01980 0.16224 0.79583
 C278 C 0.02675 0.20091 0.78151
 C279 C -0.01606 0.24207 0.75983
 C280 C -0.01163 0.27529 0.74763
 C281 C -0.00840 0.31430 0.73313
 C282 C -0.06116 0.30680 0.72540
 C283 C -0.05885 0.34493 0.71155
 C284 C -0.00359 0.39127 0.70520
 C285 C 0.04934 0.39831 0.71297
 C286 C 0.04689 0.36001 0.72687
 H287 H -0.11854 0.16451 0.77632
 H288 H -0.13117 0.09620 0.80133
 H289 H 0.05900 0.16278 0.80128
 H290 H 0.07090 0.23015 0.77602
 H291 H -0.10418 0.27160 0.73014
 H292 H -0.10044 0.33821 0.70587
 H293 H 0.09255 0.43354 0.70839
 H294 H 0.08803 0.36622 0.73278
 C295 C 0.77551 -0.02242 0.10748
 C296 C 0.82660 0.02741 0.11439
 C297 C 0.85849 0.02075 0.12872
 C298 C 0.83959 -0.03593 0.13634
 C299 C 0.78826 -0.08574 0.12926
 C300 C 0.75649 -0.07898 0.11493
 C301 C 0.74218 -0.01579 0.09285
 C302 C 0.71326 -0.01155 0.08065
 C303 C 0.67734 -0.00851 0.06616
 C304 C 0.68702 0.04671 0.05980
 C305 C 0.65101 0.04899 0.04592
 C306 C 0.60485 -0.00404 0.03826
 C307 C 0.59584 -0.05922 0.04471
 C308 C 0.63182 -0.06137 0.05854
 H309 H 0.84161 0.07142 0.10876
 H310 H 0.89738 0.06004 0.13403
 H311 H 0.77304 -0.13002 0.13468
 H312 H 0.71707 -0.11788 0.10965
 H313 H 0.72214 0.08792 0.06562
 H314 H 0.65906 0.09215 0.04126
 H315 H 0.56076 -0.10089 0.03913
 H316 H 0.62392 -0.10434 0.06337
 C317 C 0.20208 0.22390 0.44099
 C318 C 0.16478 0.24304 0.44851
 C319 C 0.12644 0.21137 0.46288
 C320 C 0.12489 0.16002 0.46993
 C321 C 0.16237 0.14094 0.46222
 C322 C 0.20073 0.17274 0.44785
 C323 C 0.24194 0.25721 0.42635
 C324 C 0.27502 0.28614 0.41415
 C325 C 0.31392 0.32209 0.39966
 C326 C 0.30651 0.36755 0.39205
 C327 C 0.34460 0.40358 0.37823
 C328 C 0.39082 0.39468 0.37179
 C329 C 0.39777 0.34858 0.37943
 C330 C 0.35951 0.31253 0.39330
 H331 H 0.16536 0.28251 0.44327
 H332 H 0.09759 0.22671 0.46836
 H333 H 0.16272 0.10201 0.46750
 H334 H 0.22954 0.15762 0.44217
 H335 H 0.27141 0.37537 0.39688
 H336 H 0.33796 0.43861 0.37266
 H337 H 0.43290 0.34062 0.37478
 H338 H 0.36566 0.27746 0.39912
 C339 C 0.02115 0.79817 0.77429
 C340 C -0.02873 0.79900 0.78130
 C341 C -0.02202 0.83744 0.79566
 C342 C 0.03474 0.87552 0.80321
 C343 C 0.08459 0.87445 0.79601
 C344 C 0.07779 0.83603 0.78165
 C345 C 0.01451 0.75829 0.75964
 C346 C 0.01037 0.72525 0.74743
 C347 C 0.00757 0.68646 0.73293
 C348 C -0.04752 0.64075 0.72652
 C349 C -0.04953 0.60261 0.71264
 C350 C 0.00364 0.60980 0.70504
 C351 C 0.05870 0.65615 0.71154
 C352 C 0.06056 0.69412 0.72536
 H353 H -0.07280 0.76974 0.77574
 H354 H -0.06134 0.83671 0.80107
 H355 H 0.12892 0.90373 0.80137
 H356 H 0.11672 0.83584 0.77629
 H357 H -0.08884 0.63441 0.73230
 H358 H -0.09259 0.56737 0.70794
 H359 H 0.10047 0.66299 0.70600
 H360 H 0.10344 0.72931 0.73023
   
