data_POSCAR
  _audit_creation_date              2014-09-24
  _audit_creation_method            'ToBaCCo'
  _symmetry_space_group_name_H-M    'P1'
  _symmetry_Int_Tables_number       1
  _symmetry_cell_setting            triclinic
  loop_
  _symmetry_equiv_pos_as_xyz
 x,y,z
_cell_length_a 21.9032
_cell_length_b 23.0892
_cell_length_c 25.0783
_cell_angle_alpha 89.610400
_cell_angle_beta 89.140100
_cell_angle_gamma 87.564300
loop_
  _atom_site_label
  _atom_site_type_symbol
  _atom_site_fract_x
  _atom_site_fract_y
  _atom_site_fract_z
C1 C 1.21793 0.21853 0.19840
 C2 C 1.25618 0.26327 0.17101
 C3 C 1.29221 0.29257 0.20413
 C4 C 1.28792 0.27205 0.26308
 C5 C 1.26429 0.17834 0.22682
 C6 C 1.29965 0.20531 0.26210
 C7 C 1.18291 0.25136 0.24296
 C8 C 1.21938 0.27937 0.27749
 H9 H 1.25579 0.26963 0.12820
 H10 H 1.31782 0.29553 0.29010
 H11 H 1.26455 0.13156 0.22370
 H12 H 1.13360 0.25249 0.24525
 C13 C 0.70901 -0.29079 0.21269
 C14 C 0.74849 -0.25271 0.17774
 C15 C 0.78637 -0.21927 0.20541
 C16 C 0.77961 -0.22526 0.26628
 C17 C 0.75335 -0.32456 0.24919
 C18 C 0.79020 -0.29034 0.27716
 C19 C 0.67419 -0.24792 0.24940
 C20 C 0.71099 -0.21365 0.27818
 H21 H 0.74452 -0.25101 0.13480
 H22 H 0.81007 -0.19757 0.28914
 H23 H 0.75519 -0.37140 0.25273
 H24 H 0.62481 -0.24492 0.25107
 C25 C 0.70545 0.20560 -0.28558
 C26 C 0.74649 0.24279 -0.31419
 C27 C 0.78774 0.27241 -0.28073
 C28 C 0.78011 0.25704 -0.22372
 C29 C 0.74470 0.16565 -0.25533
 C30 C 0.78551 0.19329 -0.22093
 C31 C 0.67469 0.24244 -0.24578
 C32 C 0.71555 0.27146 -0.21137
 H33 H 0.74823 0.24406 -0.35734
 H34 H 0.81234 0.27903 -0.19756
 H35 H 0.73869 0.11931 -0.25327
 H36 H 0.62559 0.24322 -0.23993
 C37 C 1.20349 -0.29076 -0.29278
 C38 C 1.23188 -0.24238 -0.32590
 C39 C 1.27159 -0.21058 -0.29813
 C40 C 1.27775 -0.22876 -0.23931
 C41 C 1.25807 -0.32585 -0.26966
 C42 C 1.29629 -0.29359 -0.24103
 C43 C 1.17354 -0.26005 -0.24477
 C44 C 1.21209 -0.22748 -0.21718
 H45 H 1.22614 -0.23787 -0.36857
 H46 H 1.30924 -0.20225 -0.21634
 H47 H 1.26300 -0.37268 -0.27189
 H48 H 1.12594 -0.26383 -0.23339
 C49 C 0.23078 0.21337 0.80484
 C50 C 0.26246 0.25789 0.83253
 C51 C 0.28872 0.29998 0.79753
 C52 C 0.27787 0.28928 0.74095
 C53 C 0.18363 0.24612 0.77045
 C54 C 0.20755 0.28575 0.73689
 C55 C 0.27793 0.18738 0.76544
 C56 C 0.30223 0.22663 0.73110
 H57 H 0.26968 0.25638 0.87514
 H58 H 0.29765 0.32163 0.71338
 H59 H 0.13506 0.23903 0.77312
 H60 H 0.29081 0.14157 0.76515
 C61 C 0.70887 0.72510 0.78660
 C62 C 0.74540 0.76436 0.81706
 C63 C 0.78475 0.79917 0.78442
 C64 C 0.77945 0.78727 0.72732
 C65 C 0.67579 0.76227 0.74910
 C66 C 0.71408 0.79596 0.71529
 C67 C 0.75215 0.69071 0.75415
 C68 C 0.79189 0.72452 0.72180
 H69 H 0.73949 0.76982 0.85969
 H70 H 0.80959 0.81354 0.70149
 H71 H 0.62639 0.76685 0.74957
 H72 H 0.75551 0.64371 0.75549
 C73 C 0.69941 0.21599 0.28467
 C74 C 0.74028 0.25304 0.31764
 C75 C 0.77992 0.28483 0.28854
 C76 C 0.77585 0.27475 0.22792
 C77 C 0.66839 0.25789 0.24515
 C78 C 0.70844 0.28779 0.21433
 C79 C 0.74285 0.17826 0.25014
 C80 C 0.78337 0.20871 0.22058
 H81 H 0.73836 0.25213 0.36075
 H82 H 0.80843 0.29986 0.20359
 H83 H 0.61925 0.26193 0.24120
 H84 H 0.73669 0.13238 0.24535
 C85 C 0.20437 0.71334 0.29046
 C86 C 0.23863 0.75538 0.32538
 C87 C 0.28239 0.78431 0.29830
 C88 C 0.28713 0.77010 0.23877
 C89 C 0.17883 0.75120 0.24507
 C90 C 0.22207 0.78116 0.21849
 C91 C 0.25463 0.67444 0.26427
 C92 C 0.29737 0.70401 0.23687
 H93 H 0.23137 0.75938 0.36804
 H94 H 0.32227 0.79448 0.21671
 H95 H 0.13043 0.75734 0.23738
 H96 H 0.25436 0.62751 0.26491
 N97 N 0.93512 0.06399 -0.08558
 N98 N 0.90206 0.08506 -0.12531
 N99 N 1.05871 0.10584 -0.04419
 N100 N 1.09541 0.14931 -0.04897
 N101 N 1.06308 0.07188 -0.08607
 N102 N 1.10394 0.09143 -0.12037
 N103 N 0.93234 0.10025 -0.04507
 N104 N 0.89823 0.14708 -0.05728
 C105 C 0.87875 0.13645 -0.10701
 C106 C 1.12402 0.13941 -0.09611
 N107 N 1.06502 0.04409 0.10084
 N108 N 1.09972 0.05389 0.14190
 N109 N 0.93321 0.08285 0.07073
 N110 N 0.89533 0.12255 0.09210
 N111 N 0.93838 0.03713 0.10220
 N112 N 0.90349 0.04424 0.14506
 N113 N 1.06014 0.08984 0.06962
 N114 N 1.09199 0.13214 0.08874
 Mn115 Mn 0.99589 0.09496 0.01277
 C116 C 1.11693 0.10843 0.13339
 C117 C 0.87646 0.09715 0.13789
 N118 N 1.07656 -0.05221 -0.10062
 N119 N 1.11664 -0.05772 -0.14029
 N120 N 0.95328 -0.10488 -0.06477
 N121 N 0.91505 -0.14566 -0.07449
 N122 N 0.94854 -0.06275 -0.10013
 N123 N 0.90761 -0.07555 -0.13658
 N124 N 1.08100 -0.09716 -0.06838
 N125 N 1.12397 -0.13452 -0.08539
 Mn126 Mn 1.00565 0.00534 -0.09379
 C127 C 1.14650 -0.10888 -0.12977
 C128 C 0.88679 -0.12747 -0.11917
 N129 N 0.95243 -0.08539 0.08854
 N130 N 0.91371 -0.10375 0.12492
 N131 N 1.08344 -0.11319 0.04511
 N132 N 1.12326 -0.15658 0.05378
 N133 N 1.07990 -0.07828 0.08622
 N134 N 1.11786 -0.09672 0.12360
 N135 N 0.95619 -0.12058 0.04780
 N136 N 0.91980 -0.16409 0.05512
 Mn137 Mn 1.00891 -0.02067 0.09456
 Mn138 Mn 1.01856 -0.10919 -0.01027
 Cl139 Cl 1.00693 -0.00721 0.00064
 C140 C 0.89343 -0.15256 0.10322
 C141 C 1.14553 -0.14488 0.10225
 N142 N 1.10904 0.53985 0.55567
 N143 N 1.15382 0.57523 0.56277
 N144 N 1.06215 0.42458 0.59557
 N145 N 1.08263 0.39404 0.63690
 N146 N 1.10142 0.41941 0.55524
 N147 N 1.14897 0.38557 0.56867
 N148 N 1.06770 0.54566 0.59401
 N149 N 1.08373 0.58503 0.62854
 C150 C 1.13729 0.60339 0.60801
 C151 C 1.13624 0.36917 0.61918
 N152 N 0.88702 0.43763 0.56406
 N153 N 0.84299 0.40223 0.57522
 N154 N 0.93416 0.55827 0.60017
 N155 N 0.91991 0.59523 0.63931
 N156 N 0.88966 0.55850 0.56555
 N157 N 0.84380 0.59335 0.58107
 N158 N 0.92828 0.43540 0.60168
 N159 N 0.91265 0.39829 0.63982
 Mn160 Mn 0.99810 0.49119 0.59847
 C161 C 0.85936 0.37760 0.62219
 C162 C 0.86366 0.61759 0.62594
 N163 N 1.09670 0.42258 0.43787
 N164 N 1.13678 0.38182 0.42088
 N165 N 1.06140 0.55085 0.40749
 N166 N 1.07634 0.59124 0.37240
 N167 N 1.10474 0.54315 0.44270
 N168 N 1.14968 0.57793 0.43318
 N169 N 1.05204 0.42950 0.40368
 N170 N 1.05911 0.39273 0.36401
 Mn171 Mn 1.10316 0.48068 0.49784
 C172 C 1.11171 0.36313 0.37514
 C173 C 1.13138 0.60803 0.38973
 N174 N 0.88653 0.56273 0.45099
 N175 N 0.84106 0.59987 0.43951
 N176 N 0.92189 0.44151 0.40849
 N177 N 0.90469 0.40680 0.37019
 N178 N 0.88272 0.44146 0.44861
 N179 N 0.83776 0.40716 0.43866
 N180 N 0.92857 0.56268 0.41299
 N181 N 0.91257 0.59983 0.37489
 Mn182 Mn 0.88641 0.49977 0.50731
 Mn183 Mn 0.99108 0.49651 0.40779
 Cl184 Cl 0.99467 0.49177 0.50303
 C185 C 0.85854 0.62362 0.39261
 C186 C 0.85230 0.38537 0.39003
 N187 N 0.44455 0.11938 0.44632
 N188 N 0.44125 0.16231 0.41134
 N189 N 0.38996 0.07938 0.55246
 N190 N 0.34748 0.09077 0.58872
 N191 N 0.43628 0.11307 0.55786
 N192 N 0.42561 0.14951 0.59797
 N193 N 0.39911 0.08469 0.44074
 N194 N 0.36365 0.10321 0.40142
 C195 C 0.39101 0.15143 0.38323
 C196 C 0.36979 0.13443 0.61663
 N197 N 0.41347 -0.08709 0.55317
 N198 N 0.39335 -0.12604 0.58720
 N199 N 0.38243 -0.04011 0.43834
 N200 N 0.33701 -0.04825 0.40554
 N201 N 0.41895 -0.08667 0.44069
 N202 N 0.40016 -0.12694 0.40842
 N203 N 0.37418 -0.04269 0.54961
 N204 N 0.32601 -0.05063 0.58074
 Mn205 Mn 0.38607 0.02058 0.49484
 C206 C 0.33929 -0.10215 0.60480
 C207 C 0.34965 -0.10195 0.38612
 N208 N 0.56936 0.09265 0.56090
 N209 N 0.58752 0.12956 0.59687
 N210 N 0.61012 0.05162 0.44659
 N211 N 0.65205 0.05672 0.40884
 N212 N 0.57380 0.09835 0.44890
 N213 N 0.58929 0.13607 0.41193
 N214 N 0.60798 0.04754 0.55774
 N215 N 0.65313 0.05258 0.59130
 Mn216 Mn 0.50615 0.10652 0.50402
 C217 C 0.63948 0.10346 0.61577
 C218 C 0.63791 0.10923 0.38724
 N219 N 0.54819 -0.10593 0.44385
 N220 N 0.55354 -0.14592 0.40684
 N221 N 0.59361 -0.07510 0.55496
 N222 N 0.63366 -0.09346 0.59084
 N223 N 0.54535 -0.10694 0.55589
 N224 N 0.55121 -0.14791 0.59264
 N225 N 0.59558 -0.07299 0.44302
 N226 N 0.63527 -0.09058 0.40547
 Mn227 Mn 0.48149 -0.09706 0.49879
 Mn228 Mn 0.60242 -0.01223 0.50023
 Cl229 Cl 0.49397 0.00442 0.49954
 C230 C 0.60765 -0.13590 0.38306
 C231 C 0.60631 -0.13869 0.61423
 N232 N 0.62031 0.54638 0.05173
 N233 N 0.66835 0.57641 0.06329
 N234 N 0.55659 0.43539 0.08642
 N235 N 0.56217 0.39589 0.12425
 N236 N 0.59982 0.42779 0.04982
 N237 N 0.63716 0.38361 0.06300
 N238 N 0.57739 0.55412 0.08843
 N239 N 0.59470 0.58955 0.12564
 C240 C 0.65121 0.60343 0.10924
 C241 C 0.61187 0.36366 0.10888
 N242 N 0.38548 0.47027 0.05521
 N243 N 0.33745 0.43977 0.06711
 N244 N 0.44779 0.57977 0.09213
 N245 N 0.43772 0.61490 0.13293
 N246 N 0.40658 0.58979 0.05530
 N247 N 0.36823 0.63269 0.06967
 N248 N 0.42809 0.46095 0.09078
 N249 N 0.41051 0.42403 0.12782
 Mn250 Mn 0.50266 0.50758 0.08963
 C251 C 0.35396 0.41099 0.11230
 C252 C 0.38887 0.64855 0.11770
 N253 N 0.60002 0.43174 -0.06772
 N254 N 0.63869 0.39040 -0.08602
 N255 N 0.57741 0.56055 -0.09919
 N256 N 0.59410 0.60165 -0.13268
 N257 N 0.61988 0.55044 -0.06342
 N258 N 0.66654 0.58388 -0.07174
 N259 N 0.55511 0.44097 -0.10142
 N260 N 0.56074 0.40527 -0.14196
 Mn261 Mn 0.61069 0.48874 -0.00741
 C262 C 0.61254 0.37384 -0.13201
 C263 C 0.64980 0.61580 -0.11489
 N264 N 0.40496 0.59235 -0.05945
 N265 N 0.36467 0.63399 -0.07269
 N266 N 0.42497 0.46637 -0.09912
 N267 N 0.40735 0.42737 -0.13356
 N268 N 0.38495 0.47234 -0.05980
 N269 N 0.33999 0.43681 -0.06556
 N270 N 0.44654 0.58511 -0.09742
 N271 N 0.43487 0.62084 -0.13761
 Mn272 Mn 0.39504 0.53126 -0.00225
 Mn273 Mn 0.50118 0.51330 -0.09968
 Cl274 Cl 0.50237 0.51016 -0.00503
 C275 C 0.38458 0.65198 -0.12109
 C276 C 0.35424 0.40927 -0.11179
 C277 C 1.17764 0.18919 0.15992
 C278 C 1.15339 0.13874 0.17156
 H279 H 1.16769 0.21020 0.12203
 H280 H 1.16183 0.11788 0.20971
 C281 C 1.15983 0.67261 0.67801
 C282 C 1.17646 0.64490 0.63331
 H283 H 1.11549 0.66529 0.69603
 H284 H 1.22114 0.65128 0.61564
 C285 C 0.66350 0.17891 0.67953
 C286 C 0.67788 0.12712 0.65258
 H287 H 0.62111 0.20253 0.67004
 H288 H 0.72096 0.10381 0.65964
 C289 C 0.66894 0.67096 0.18154
 C290 C 0.69039 0.64083 0.13925
 H291 H 0.62209 0.66666 0.19503
 H292 H 0.73745 0.64407 0.12607
 C293 C 0.83000 -0.18105 0.17940
 C294 C 0.85040 -0.19033 0.12943
 H295 H 0.84703 -0.14585 0.20248
 H296 H 0.83681 -0.22744 0.10709
 C297 C 0.82878 0.31359 0.69917
 C298 C 0.82248 0.33731 0.64750
 H299 H 0.86310 0.32982 0.72517
 H300 H 0.78311 0.32684 0.62462
 C301 C 0.31398 -0.17137 0.67531
 C302 C 0.29543 -0.13322 0.63804
 H303 H 0.36181 -0.17524 0.68577
 H304 H 0.24712 -0.12596 0.63053
 C305 C 0.33051 0.33969 0.18386
 C306 C 0.31470 0.36995 0.13970
 H307 H 0.37216 0.34849 0.20448
 H308 H 0.27116 0.36368 0.12124
 C309 C 0.82156 0.15877 -0.18669
 C310 C 0.84462 0.17614 -0.13807
 H311 H 0.82639 0.11306 -0.19642
 H312 H 0.83382 0.21919 -0.12285
 C313 C 0.83538 0.68532 0.31465
 C314 C 0.81704 0.65998 0.35978
 H315 H 0.88328 0.68474 0.30324
 H316 H 0.76907 0.66270 0.37118
 C317 C 0.33081 0.16948 0.30348
 C318 C 0.36747 0.18968 0.34026
 H319 H 0.32132 0.12374 0.30469
 H320 H 0.38111 0.23414 0.33888
 C321 C 0.34448 0.67893 -0.20827
 C322 C 0.34756 0.69006 -0.15614
 H323 H 0.37111 0.64269 -0.22513
 H324 H 0.31594 0.72174 -0.13798
 C325 C 1.19112 -0.19656 -0.16932
 C326 C 1.18709 -0.13882 -0.16863
 H327 H 1.16745 -0.22128 -0.13914
 H328 H 1.20548 -0.11418 -0.20166
 C329 C 1.19657 0.31524 0.32343
 C330 C 1.13762 0.31872 0.33863
 H331 H 1.22875 0.34188 0.34324
 H332 H 1.10444 0.29384 0.31847
 C333 C 0.68825 -0.17112 0.31877
 C334 C 0.63208 -0.17337 0.34013
 H335 H 0.71933 -0.13978 0.33331
 H336 H 0.60204 -0.20660 0.32796
 C337 C 0.69569 0.30957 -0.17032
 C338 C 0.63583 0.33332 -0.16862
 H339 H 0.72861 0.32439 -0.14220
 H340 H 0.60566 0.32501 -0.20115
 C341 C 1.20154 0.16756 -0.16152
 C342 C 1.16467 0.18125 -0.12043
 H343 H 1.20304 0.12345 -0.17626
 H344 H 1.16188 0.22529 -0.10566
 C345 C 1.15677 0.67911 0.31937
 C346 C 1.17153 0.64877 0.36306
 H347 H 1.11226 0.67502 0.30182
 H348 H 1.21682 0.65207 0.37933
 C349 C 0.65605 0.18314 0.31917
 C350 C 0.67535 0.13585 0.34606
 H351 H 0.61079 0.20229 0.32708
 H352 H 0.72099 0.11718 0.33936
 C353 C 0.66847 0.68980 -0.18274
 C354 C 0.68717 0.65645 -0.13876
 H355 H 0.62329 0.68298 -0.19818
 H356 H 0.73243 0.66129 -0.12296
 C357 C 0.82462 -0.15978 -0.19544
 C358 C 0.84315 -0.16163 -0.14231
 H359 H 0.84638 -0.13034 -0.22286
 H360 H 0.82890 -0.19742 -0.11769
 C361 C 0.82232 0.32535 0.31305
 C362 C 0.81258 0.34578 0.36263
 H363 H 0.86092 0.33947 0.28962
 H364 H 0.77221 0.33456 0.38503
 C365 C 0.32595 -0.17947 0.32495
 C366 C 0.30716 -0.13338 0.35347
 H367 H 0.37423 -0.19118 0.32101
 H368 H 0.25929 -0.11940 0.35407
 C369 C 0.32337 0.34576 -0.18460
 C370 C 0.31838 0.36640 -0.13227
 H371 H 0.35141 0.36843 -0.21319
 H372 H 0.28206 0.35147 -0.10656
 C373 C 1.20534 -0.17360 0.17981
 C374 C 1.18153 -0.18747 0.13334
 H375 H 1.20577 -0.12885 0.19247
 H376 H 1.18284 -0.23231 0.12066
 C377 C 1.16662 0.32198 0.70305
 C378 C 1.18037 0.33613 0.65279
 H379 H 1.12125 0.33299 0.71877
 H380 H 1.22432 0.32259 0.63562
 C381 C 0.69119 -0.16889 0.67344
 C382 C 0.63134 -0.17320 0.65469
 H383 H 0.72189 -0.14017 0.65314
 H384 H 0.60265 -0.20667 0.66984
 C385 C 0.68970 0.32582 0.16945
 C386 C 0.63816 0.31813 0.14302
 H387 H 0.71814 0.36153 0.15884
 H388 H 0.60917 0.28287 0.15341
 C389 C 0.82371 0.18194 0.17916
 C390 C 0.83763 0.12500 0.17884
 H391 H 0.84243 0.20975 0.14862
 H392 H 0.82282 0.09735 0.21107
 C393 C 0.83642 0.69876 0.68746
 C394 C 0.82338 0.64834 0.65999
 H395 H 0.87642 0.72217 0.67596
 H396 H 0.77563 0.63806 0.65752
 C397 C 0.34309 0.20895 0.68591
 C398 C 0.33592 0.15769 0.66291
 H399 H 0.37543 0.23884 0.66970
 H400 H 0.29908 0.13114 0.67644
 C401 C 0.34487 0.67377 0.20442
 C402 C 0.35371 0.68796 0.15328
 H403 H 0.36581 0.63397 0.22016
 H404 H 0.32710 0.72363 0.13569
   
