data_POSCAR
  _audit_creation_date              2014-09-24
  _audit_creation_method            'ToBaCCo'
  _symmetry_space_group_name_H-M    'P1'
  _symmetry_Int_Tables_number       1
  _symmetry_cell_setting            triclinic
  loop_
  _symmetry_equiv_pos_as_xyz
 x,y,z
_cell_length_a 40.2434
_cell_length_b 40.3202
_cell_length_c 49.7387
_cell_angle_alpha 90.185400
_cell_angle_beta 89.293300
_cell_angle_gamma 89.926200
loop_
  _atom_site_label
  _atom_site_type_symbol
  _atom_site_fract_x
  _atom_site_fract_y
  _atom_site_fract_z
Si1 Si 1.25324 0.24770 0.24950
 Si2 Si 0.75136 -0.25452 0.24958
 Si3 Si 0.75015 0.24437 -0.25098
 Si4 Si 1.25032 -0.25335 -0.24941
 Si5 Si 0.24940 0.25409 0.75007
 Si6 Si 0.74998 0.75637 0.74973
 Si7 Si 0.74722 0.25378 0.25103
 Si8 Si 0.24819 0.75320 0.24961
 O9 O 1.05788 0.01784 0.03372
 O10 O 0.94392 -0.01559 0.03538
 O11 O 0.98410 0.05812 0.03429
 O12 O 1.01767 -0.05569 0.03499
 O13 O 0.93811 0.03993 0.02018
 O14 O 1.06363 -0.03817 0.01946
 O15 O 0.96176 -0.06167 0.02061
 O16 O 1.03996 0.06342 0.01859
 C17 C 1.05390 0.04791 0.03696
 C18 C 0.94781 -0.04556 0.03900
 C19 C 0.95401 0.05441 0.03812
 C20 C 1.04779 -0.05188 0.03808
 O21 O 1.05731 -0.01806 -0.03279
 O22 O 0.94405 0.01804 -0.03174
 O23 O 1.01858 0.05648 -0.03300
 O24 O 0.98292 -0.05654 -0.03155
 O25 O 0.93733 -0.03737 -0.01643
 O26 O 1.06427 0.03783 -0.01859
 O27 O 1.03869 -0.06317 -0.01710
 O28 O 0.96285 0.06377 -0.01746
 Co29 Co 1.05501 -0.00008 0.00051
 Co30 Co 0.94662 0.00117 0.00178
 Co31 Co 1.00132 0.05467 0.00066
 Co32 Co 1.00031 -0.05353 0.00169
 O33 O 1.00081 0.00056 0.00116
 C34 C 1.05269 -0.04804 -0.03590
 C35 C 0.94821 0.04798 -0.03538
 C36 C 1.04861 0.05206 -0.03676
 C37 C 0.95294 -0.05199 -0.03480
 O38 O 1.06343 0.53947 0.51825
 O39 O 0.93723 0.46176 0.51802
 O40 O 0.96181 0.56331 0.51863
 O41 O 1.03895 0.43795 0.51899
 O42 O 0.94320 0.51752 0.53327
 O43 O 1.05708 0.48387 0.53357
 O44 O 0.98274 0.44398 0.53329
 O45 O 1.01738 0.55743 0.53323
 C46 C 1.04738 0.55349 0.53665
 C47 C 0.95250 0.44742 0.53632
 C48 C 0.94724 0.54753 0.53684
 C49 C 1.05279 0.45394 0.53724
 O50 O 1.06456 0.46210 0.48187
 O51 O 0.93770 0.53869 0.48150
 O52 O 1.03909 0.56348 0.48101
 O53 O 0.96316 0.43737 0.48100
 O54 O 0.94462 0.48298 0.46627
 O55 O 1.05815 0.51767 0.46648
 O56 O 1.01922 0.44375 0.46674
 O57 O 0.98355 0.55688 0.46645
 Co58 Co 1.05501 0.50075 0.50003
 Co59 Co 0.94650 0.50026 0.49978
 Co60 Co 1.00048 0.55456 0.49984
 Co61 Co 1.00100 0.44649 0.50000
 O62 O 1.00075 0.50051 0.49991
 C63 C 1.04933 0.44777 0.46350
 C64 C 0.95358 0.55262 0.46306
 C65 C 1.05388 0.54762 0.46284
 C66 C 0.94905 0.45299 0.46274
 O67 O 0.55427 0.01483 0.53225
 O68 O 0.44075 -0.02009 0.53297
 O69 O 0.47990 0.05390 0.53320
 O70 O 0.51496 -0.05944 0.53206
 O71 O 0.43423 0.03564 0.51852
 O72 O 0.56068 -0.04082 0.51698
 O73 O 0.45921 -0.06562 0.51759
 O74 O 0.53576 0.06059 0.51788
 C75 C 0.55031 0.04485 0.53583
 C76 C 0.44520 -0.05005 0.53626
 C77 C 0.44984 0.04970 0.53684
 C78 C 0.54494 -0.05497 0.53540
 O79 O 0.55453 -0.01947 0.46520
 O80 O 0.44081 0.01489 0.46634
 O81 O 0.51481 0.05454 0.46605
 O82 O 0.48040 -0.05898 0.46543
 O83 O 0.43456 -0.04089 0.48088
 O84 O 0.56062 0.03617 0.48035
 O85 O 0.53623 -0.06529 0.47989
 O86 O 0.45894 0.06048 0.48142
 Co87 Co 0.55176 -0.00234 0.49874
 Co88 Co 0.44334 -0.00260 0.49963
 Co89 Co 0.49737 0.05162 0.49960
 Co90 Co 0.49768 -0.05660 0.49878
 O91 O 0.49754 -0.00248 0.49919
 C92 C 0.55050 -0.04945 0.46160
 C93 C 0.44513 0.04485 0.46298
 C94 C 0.54489 0.05055 0.46231
 C95 C 0.45034 -0.05482 0.46226
 O96 O 0.56310 0.54061 0.01768
 O97 O 0.43794 0.46261 0.01870
 O98 O 0.46132 0.56434 0.01888
 O99 O 0.53980 0.43899 0.01756
 O100 O 0.44358 0.51839 0.03373
 O101 O 0.55761 0.48482 0.03242
 O102 O 0.48397 0.44472 0.03296
 O103 O 0.51718 0.55843 0.03316
 C104 C 0.54722 0.55425 0.03637
 C105 C 0.45390 0.44856 0.03677
 C106 C 0.44706 0.54847 0.03719
 C107 C 0.55384 0.45479 0.03580
 O108 O 0.56424 0.46393 -0.01972
 O109 O 0.43708 0.53943 -0.01813
 O110 O 0.53829 0.56514 -0.01906
 O111 O 0.46287 0.43826 -0.01879
 O112 O 0.44394 0.48380 -0.03325
 O113 O 0.55713 0.51962 -0.03430
 O114 O 0.51864 0.44520 -0.03419
 O115 O 0.48263 0.55824 -0.03337
 Co116 Co 0.55476 0.50219 -0.00092
 Co117 Co 0.44638 0.50112 0.00020
 Co118 Co 0.49992 0.55577 -0.00012
 Co119 Co 0.50124 0.44757 -0.00060
 O120 O 0.50057 0.50166 -0.00036
 C121 C 0.54873 0.44921 -0.03775
 C122 C 0.45269 0.55358 -0.03664
 C123 C 0.55280 0.54962 -0.03754
 C124 C 0.44835 0.45384 -0.03685
 C125 C 1.18224 0.18241 0.22064
 C126 C 1.18596 0.18511 0.19272
 C127 C 1.20974 0.20669 0.18186
 C128 C 1.22985 0.22541 0.19880
 C129 C 1.22650 0.22261 0.22682
 C130 C 1.20238 0.20115 0.23762
 C131 C 1.16559 0.16582 0.17501
 C132 C 1.14911 0.14998 0.15953
 C133 C 1.13056 0.13184 0.14065
 C134 C 1.11538 0.11669 0.12391
 C135 C 1.09809 0.09901 0.10320
 C136 C 1.07870 0.11642 0.08481
 C137 C 1.06380 0.09968 0.06349
 C138 C 1.06822 0.06529 0.06028
 C139 C 1.08710 0.04784 0.07921
 C140 C 1.10202 0.06466 0.10051
 H141 H 1.16381 0.16588 0.22926
 H142 H 1.21273 0.20906 0.16027
 H143 H 1.24787 0.24203 0.18985
 H144 H 1.19907 0.19902 0.25918
 H145 H 1.07557 0.14302 0.08669
 H146 H 1.04922 0.11370 0.04932
 H147 H 1.09083 0.02132 0.07730
 H148 H 1.11706 0.05097 0.11459
 C149 C 1.17976 0.68086 0.72227
 C150 C 1.18254 0.68418 0.69431
 C151 C 1.20522 0.70679 0.68329
 C152 C 1.22535 0.72570 0.70006
 C153 C 1.22323 0.72198 0.72806
 C154 C 1.19993 0.69984 0.73909
 C155 C 1.16250 0.66440 0.67668
 C156 C 1.14643 0.64829 0.66109
 C157 C 1.12838 0.63002 0.64196
 C158 C 1.11355 0.61498 0.62493
 C159 C 1.09648 0.59776 0.60383
 C160 C 1.11451 0.57838 0.58536
 C161 C 1.09842 0.56347 0.56371
 C162 C 1.06408 0.56787 0.56026
 C163 C 1.04600 0.58676 0.57927
 C164 C 1.06216 0.60168 0.60089
 H165 H 1.16216 0.66356 0.73103
 H166 H 1.20739 0.70975 0.66170
 H167 H 1.24243 0.74317 0.69099
 H168 H 1.19760 0.69704 0.76068
 H169 H 1.14109 0.57524 0.58743
 H170 H 1.11293 0.54889 0.54949
 H171 H 1.01949 0.59048 0.57718
 H172 H 1.04799 0.61671 0.61503
 C173 C 0.72023 0.17751 0.69096
 C174 C 0.68551 0.17968 0.69198
 C175 C 0.67003 0.20093 0.71062
 C176 C 0.68919 0.22004 0.72808
 C177 C 0.72399 0.21789 0.72714
 C178 C 0.73938 0.19662 0.70840
 C179 C 0.66587 0.16087 0.67337
 C180 C 0.64965 0.14541 0.65743
 C181 C 0.63100 0.12765 0.63833
 C182 C 0.61547 0.11276 0.62161
 C183 C 0.59748 0.09534 0.60110
 C184 C 0.57745 0.11296 0.58329
 C185 C 0.56153 0.09641 0.56234
 C186 C 0.56553 0.06200 0.55891
 C187 C 0.58509 0.04435 0.57727
 C188 C 0.60101 0.06096 0.59820
 H189 H 0.73249 0.16133 0.67650
 H190 H 0.64320 0.20302 0.71143
 H191 H 0.67671 0.23675 0.74193
 H192 H 0.76622 0.19499 0.70715
 H193 H 0.57455 0.13957 0.58535
 H194 H 0.54650 0.11062 0.54861
 H195 H 0.58856 0.01781 0.57518
 H196 H 0.61648 0.04708 0.61185
 C197 C 0.71911 0.67449 0.19558
 C198 C 0.68456 0.67844 0.19601
 C199 C 0.66981 0.70185 0.21326
 C200 C 0.68961 0.72164 0.22971
 C201 C 0.72432 0.71833 0.22885
 C202 C 0.73888 0.69426 0.21200
 C203 C 0.66452 0.65951 0.17783
 C204 C 0.64825 0.64413 0.16193
 C205 C 0.62984 0.62673 0.14254
 C206 C 0.61466 0.61242 0.12533
 C207 C 0.59722 0.59607 0.10402
 C208 C 0.56295 0.60065 0.10125
 C209 C 0.54647 0.58655 0.07945
 C210 C 0.56418 0.56785 0.06010
 C211 C 0.59847 0.56280 0.06338
 C212 C 0.61486 0.57687 0.08520
 H213 H 0.73078 0.65646 0.18230
 H214 H 0.64308 0.70509 0.21373
 H215 H 0.67770 0.73968 0.24276
 H216 H 0.76561 0.69110 0.21129
 H217 H 0.54909 0.61555 0.11569
 H218 H 0.52002 0.59074 0.07749
 H219 H 0.61268 0.54832 0.04890
 H220 H 0.64141 0.57323 0.08716
 C221 C 0.81275 -0.17879 0.22238
 C222 C 0.81483 -0.18457 0.19465
 C223 C 0.79741 -0.21104 0.18332
 C224 C 0.77829 -0.23191 0.19963
 C225 C 0.77666 -0.22676 0.22753
 C226 C 0.79360 -0.19971 0.23873
 C227 C 0.83461 -0.16350 0.17757
 C228 C 0.85088 -0.14661 0.16245
 C229 C 0.86947 -0.12775 0.14380
 C230 C 0.88489 -0.11239 0.12709
 C231 C 0.90265 -0.09499 0.10624
 C232 C 0.92278 -0.11271 0.08809
 C233 C 0.93805 -0.09646 0.06649
 C234 C 0.93328 -0.06225 0.06275
 C235 C 0.91372 -0.04443 0.08148
 C236 C 0.89841 -0.06077 0.10307
 H237 H 0.82581 -0.15811 0.23133
 H238 H 0.79858 -0.21555 0.16184
 H239 H 0.76490 -0.25187 0.19020
 H240 H 0.79170 -0.19443 0.26003
 H241 H 0.92616 -0.13922 0.09034
 H242 H 0.95315 -0.11077 0.05249
 H243 H 0.90971 -0.01803 0.07915
 H244 H 0.88280 -0.04685 0.11697
 C245 C 0.82940 0.28843 0.70853
 C246 C 0.81345 0.30896 0.69004
 C247 C 0.77870 0.30981 0.68930
 C248 C 0.75998 0.29035 0.70705
 C249 C 0.77584 0.27007 0.72583
 C250 C 0.81067 0.26896 0.72631
 C251 C 0.83265 0.32879 0.67156
 C252 C 0.84850 0.34528 0.65584
 C253 C 0.86676 0.36434 0.63708
 C254 C 0.88210 0.38029 0.62067
 C255 C 0.90009 0.39881 0.60056
 C256 C 0.88285 0.41877 0.58246
 C257 C 0.90001 0.43520 0.56186
 C258 C 0.93467 0.43178 0.55910
 C259 C 0.95191 0.41231 0.57778
 C260 C 0.93468 0.39587 0.59835
 H261 H 0.85628 0.28737 0.70912
 H262 H 0.76609 0.32544 0.67497
 H263 H 0.73311 0.29121 0.70620
 H264 H 0.82350 0.25303 0.74021
 H265 H 0.85608 0.42120 0.58399
 H266 H 0.88611 0.45015 0.54786
 H267 H 0.97862 0.40928 0.57619
 H268 H 0.94826 0.38046 0.61225
 C269 C 0.29719 -0.17243 0.71519
 C270 C 0.31993 -0.18756 0.69748
 C271 C 0.32269 -0.22216 0.69680
 C272 C 0.30226 -0.24157 0.71329
 C273 C 0.27865 -0.22658 0.73040
 C274 C 0.27672 -0.19187 0.73171
 C275 C 0.33923 -0.16782 0.67902
 C276 C 0.35481 -0.15175 0.66285
 C277 C 0.37235 -0.13347 0.64316
 C278 C 0.38672 -0.11829 0.62573
 C279 C 0.40310 -0.10070 0.60424
 C280 C 0.42246 -0.11810 0.58534
 C281 C 0.43661 -0.10151 0.56341
 C282 C 0.43148 -0.06727 0.56008
 C283 C 0.41259 -0.04982 0.57948
 C284 C 0.39842 -0.06649 0.60139
 H285 H 0.29491 -0.14566 0.71593
 H286 H 0.34021 -0.23414 0.68319
 H287 H 0.30434 -0.26833 0.71225
 H288 H 0.25925 -0.17968 0.74514
 H289 H 0.42618 -0.14460 0.58733
 H290 H 0.45121 -0.11553 0.54889
 H291 H 0.40833 -0.02341 0.57750
 H292 H 0.38341 -0.05281 0.61587
 C293 C 0.29410 0.32872 0.21023
 C294 C 0.32046 0.31461 0.19554
 C295 C 0.32719 0.28067 0.19781
 C296 C 0.30736 0.26082 0.21444
 C297 C 0.28065 0.27478 0.22889
 C298 C 0.27425 0.30888 0.22686
 C299 C 0.33955 0.33461 0.17716
 C300 C 0.35504 0.35105 0.16121
 C301 C 0.37264 0.36980 0.14190
 C302 C 0.38730 0.38528 0.12484
 C303 C 0.40439 0.40301 0.10383
 C304 C 0.43880 0.39961 0.10053
 C305 C 0.45509 0.41500 0.07897
 C306 C 0.43704 0.43385 0.06039
 C307 C 0.40258 0.43776 0.06421
 C308 C 0.38637 0.42237 0.08580
 H309 H 0.28855 0.35492 0.20847
 H310 H 0.34743 0.26947 0.18641
 H311 H 0.31251 0.23450 0.21571
 H312 H 0.25358 0.32013 0.23762
 H313 H 0.45296 0.38461 0.11435
 H314 H 0.48167 0.41165 0.07658
 H315 H 0.38810 0.45230 0.05031
 H316 H 0.35970 0.42511 0.08817
 C317 C 0.81660 0.21693 -0.19234
 C318 C 0.81525 0.18224 -0.19266
 C319 C 0.79447 0.16599 -0.21084
 C320 C 0.77509 0.18436 -0.22860
 C321 C 0.77652 0.21913 -0.22841
 C322 C 0.79723 0.23529 -0.21007
 C323 C 0.83455 0.16345 -0.17386
 C324 C 0.85047 0.14802 -0.15776
 C325 C 0.86878 0.13031 -0.13848
 C326 C 0.88404 0.11548 -0.12161
 C327 C 0.90171 0.09814 -0.10094
 C328 C 0.89781 0.06386 -0.09790
 C329 C 0.91349 0.04735 -0.07686
 C330 C 0.93315 0.06501 -0.05853
 C331 C 0.93750 0.09933 -0.06208
 C332 C 0.92183 0.11577 -0.08314
 H333 H 0.83241 0.22978 -0.17826
 H334 H 0.79303 0.13916 -0.21111
 H335 H 0.75884 0.17133 -0.24216
 H336 H 0.79832 0.26212 -0.20942
 H337 H 0.88227 0.04997 -0.11154
 H338 H 0.90976 0.02088 -0.07468
 H339 H 0.95263 0.11354 -0.04837
 H340 H 0.92501 0.14231 -0.08531
 C341 C 0.82524 0.71425 0.30112
 C342 C 0.81854 0.68044 0.30431
 C343 C 0.79214 0.66594 0.29053
 C344 C 0.77238 0.68523 0.27375
 C345 C 0.77897 0.71918 0.27048
 C346 C 0.80549 0.73354 0.28435
 C347 C 0.83775 0.66108 0.32271
 C348 C 0.85347 0.64528 0.33866
 C349 C 0.87142 0.62738 0.35797
 C350 C 0.88636 0.61264 0.37503
 C351 C 0.90371 0.59578 0.39606
 C352 C 0.88601 0.57632 0.41454
 C353 C 0.90237 0.56175 0.43612
 C354 C 0.93666 0.56658 0.43949
 C355 C 0.95442 0.58554 0.42047
 C356 C 0.93798 0.60012 0.39892
 H357 H 0.84540 0.72580 0.31193
 H358 H 0.78648 0.63987 0.29311
 H359 H 0.75156 0.67363 0.26393
 H360 H 0.81074 0.75970 0.28266
 H361 H 0.85946 0.57286 0.41252
 H362 H 0.88811 0.54710 0.45035
 H363 H 0.98088 0.58957 0.42251
 H364 H 0.95189 0.61521 0.38475
 C365 C 0.29458 0.16712 0.28908
 C366 C 0.32065 0.18162 0.30327
 C367 C 0.32728 0.21547 0.30029
 C368 C 0.30743 0.23488 0.28370
 C369 C 0.28051 0.22075 0.27015
 C370 C 0.27472 0.18654 0.27246
 C371 C 0.33972 0.16215 0.32171
 C372 C 0.35516 0.14623 0.33777
 C373 C 0.37258 0.12806 0.35726
 C374 C 0.38687 0.11295 0.37449
 C375 C 0.40318 0.09540 0.39572
 C376 C 0.42236 0.11285 0.41429
 C377 C 0.43647 0.09628 0.43598
 C378 C 0.43146 0.06204 0.43939
 C379 C 0.41275 0.04455 0.42031
 C380 C 0.39863 0.06119 0.39863
 H381 H 0.28934 0.14089 0.29113
 H382 H 0.34757 0.22692 0.31101
 H383 H 0.31322 0.26093 0.28146
 H384 H 0.25478 0.17469 0.26179
 H385 H 0.42599 0.13935 0.41222
 H386 H 0.45094 0.11034 0.45026
 H387 H 0.40860 0.01813 0.42237
 H388 H 0.38376 0.04748 0.38440
 C389 C 0.29558 0.66540 -0.21387
 C390 C 0.31775 0.68039 -0.19609
 C391 C 0.32052 0.71498 -0.19532
 C392 C 0.30070 0.73452 -0.21183
 C393 C 0.27771 0.71968 -0.22905
 C394 C 0.27573 0.68497 -0.23041
 C395 C 0.33667 0.66056 -0.17779
 C396 C 0.35217 0.64460 -0.16178
 C397 C 0.36993 0.62672 -0.14231
 C398 C 0.38481 0.61216 -0.12509
 C399 C 0.40226 0.59568 -0.10388
 C400 C 0.43651 0.60026 -0.10111
 C401 C 0.45309 0.58607 -0.07945
 C402 C 0.43551 0.56726 -0.06022
 C403 C 0.40123 0.56221 -0.06348
 C404 C 0.38471 0.57639 -0.08518
 H405 H 0.29333 0.63864 -0.21469
 H406 H 0.33762 0.72685 -0.18167
 H407 H 0.30281 0.76127 -0.21075
 H408 H 0.25872 0.67290 -0.24393
 H409 H 0.45031 0.61522 -0.11544
 H410 H 0.47954 0.59028 -0.07751
 H411 H 0.38710 0.54767 -0.04909
 H412 H 0.35818 0.57276 -0.08712
 C413 C 1.20269 -0.21313 -0.18242
 C414 C 1.18062 -0.19030 -0.19358
 C415 C 1.17897 -0.18700 -0.22156
 C416 C 1.19967 -0.20619 -0.23825
 C417 C 1.22240 -0.22851 -0.22707
 C418 C 1.22337 -0.23225 -0.19906
 C419 C 1.16024 -0.17011 -0.17607
 C420 C 1.14399 -0.15353 -0.16057
 C421 C 1.12590 -0.13457 -0.14151
 C422 C 1.11121 -0.11879 -0.12451
 C423 C 1.09460 -0.10050 -0.10339
 C424 C 1.09957 -0.06628 -0.10081
 C425 C 1.08541 -0.04900 -0.07909
 C426 C 1.06625 -0.06583 -0.05963
 C427 C 1.06078 -0.10006 -0.06273
 C428 C 1.07491 -0.11727 -0.08446
 H429 H 1.20401 -0.21606 -0.16081
 H430 H 1.16187 -0.16951 -0.23043
 H431 H 1.19823 -0.20337 -0.25985
 H432 H 1.23998 -0.24984 -0.18988
 H433 H 1.11486 -0.05308 -0.11530
 H434 H 1.08994 -0.02261 -0.07728
 H435 H 1.04595 -0.11363 -0.04816
 H436 H 1.07097 -0.14376 -0.08624
 C437 C 1.17327 0.29571 0.28642
 C438 C 1.18848 0.31413 0.30672
 C439 C 1.22299 0.31290 0.30955
 C440 C 1.24220 0.29307 0.29233
 C441 C 1.22711 0.27406 0.27221
 C442 C 1.19251 0.27585 0.26915
 C443 C 1.16880 0.33391 0.32500
 C444 C 1.15277 0.35021 0.34081
 C445 C 1.13448 0.36886 0.35990
 C446 C 1.11920 0.38430 0.37673
 C447 C 1.10132 0.40202 0.39745
 C448 C 1.11859 0.42163 0.41585
 C449 C 1.10157 0.43709 0.43710
 C450 C 1.06706 0.43299 0.44022
 C451 C 1.04977 0.41387 0.42127
 C452 C 1.06685 0.39842 0.40004
 H453 H 1.14657 0.29665 0.28396
 H454 H 1.23504 0.32720 0.32511
 H455 H 1.26882 0.29281 0.29475
 H456 H 1.18023 0.26224 0.25339
 H457 H 1.14529 0.42453 0.41402
 H458 H 1.11548 0.45183 0.45131
 H459 H 1.02315 0.41038 0.42312
 H460 H 1.05327 0.38323 0.38593
 C461 C 0.70439 -0.21380 0.31649
 C462 C 0.68598 -0.18768 0.30567
 C463 C 0.68738 -0.18157 0.27797
 C464 C 0.70710 -0.20160 0.26119
 C465 C 0.72550 -0.22784 0.27200
 C466 C 0.72407 -0.23380 0.29975
 C467 C 0.66572 -0.16740 0.32316
 C468 C 0.64909 -0.15100 0.33851
 C469 C 0.63013 -0.13248 0.35728
 C470 C 0.61445 -0.11723 0.37399
 C471 C 0.59645 -0.09969 0.39476
 C472 C 0.57630 -0.11724 0.41288
 C473 C 0.56076 -0.10075 0.43435
 C474 C 0.56528 -0.06647 0.43798
 C475 C 0.58487 -0.04884 0.41928
 C476 C 0.60044 -0.06541 0.39783
 H477 H 0.70346 -0.21875 0.33789
 H478 H 0.67323 -0.16143 0.26939
 H479 H 0.70794 -0.19671 0.23979
 H480 H 0.73787 -0.25399 0.30854
 H481 H 0.57311 -0.14379 0.41070
 H482 H 0.54565 -0.11492 0.44834
 H483 H 0.58871 -0.02239 0.42152
 H484 H 0.61606 -0.05161 0.38395
 C485 C 0.68428 0.27560 -0.19163
 C486 C 0.68616 0.31023 -0.19295
 C487 C 0.70716 0.32523 -0.21196
 C488 C 0.72621 0.30570 -0.22960
 C489 C 0.72422 0.27098 -0.22846
 C490 C 0.70333 0.25606 -0.20925
 C491 C 0.66716 0.33033 -0.17438
 C492 C 0.65148 0.34700 -0.15857
 C493 C 0.63340 0.36621 -0.13967
 C494 C 0.61820 0.38226 -0.12313
 C495 C 0.60038 0.40083 -0.10283
 C496 C 0.56590 0.39738 -0.10004
 C497 C 0.54889 0.41377 -0.07921
 C498 C 0.56625 0.43370 -0.06086
 C499 C 0.60076 0.43766 -0.06421
 C500 C 0.61770 0.42127 -0.08506
 H501 H 0.66829 0.26372 -0.17688
 H502 H 0.70903 0.35200 -0.21300
 H503 H 0.74264 0.31784 -0.24380
 H504 H 0.70183 0.22930 -0.20786
 H505 H 0.55226 0.38159 -0.11367
 H506 H 0.52229 0.41032 -0.07717
 H507 H 0.61475 0.45297 -0.05047
 H508 H 0.64439 0.42410 -0.08704
 C509 C 1.20407 0.21285 -0.18266
 C510 C 1.18590 0.18645 -0.19336
 C511 C 1.18668 0.18050 -0.22113
 C512 C 1.20564 0.20089 -0.23808
 C513 C 1.22391 0.22733 -0.22738
 C514 C 1.22299 0.23320 -0.19957
 C515 C 1.16657 0.16567 -0.17565
 C516 C 1.15072 0.14888 -0.16012
 C517 C 1.13255 0.12997 -0.14118
 C518 C 1.11737 0.11449 -0.12438
 C519 C 1.09964 0.09684 -0.10358
 C520 C 1.06527 0.10095 -0.10043
 C521 C 1.04846 0.08576 -0.07900
 C522 C 1.06592 0.06640 -0.06038
 C523 C 1.10031 0.06176 -0.06409
 C524 C 1.11705 0.07694 -0.08554
 H525 H 1.20360 0.21773 -0.16122
 H526 H 1.17270 0.16015 -0.22964
 H527 H 1.20609 0.19603 -0.25951
 H528 H 1.23668 0.25354 -0.19083
 H529 H 1.05156 0.11637 -0.11424
 H530 H 1.02194 0.08970 -0.07671
 H531 H 1.11437 0.04684 -0.05016
 H532 H 1.14367 0.07365 -0.08775
 C533 C 1.18328 0.68340 0.27711
 C534 C 1.18696 0.68517 0.30505
 C535 C 1.21001 0.70719 0.31597
 C536 C 1.22890 0.72775 0.29920
 C537 C 1.22470 0.72693 0.27117
 C538 C 1.20224 0.70398 0.26025
 C539 C 1.16714 0.66477 0.32279
 C540 C 1.15100 0.64844 0.33849
 C541 C 1.13263 0.63009 0.35775
 C542 C 1.11743 0.61500 0.37483
 C543 C 1.09987 0.59762 0.39593
 C544 C 1.07961 0.61522 0.41409
 C545 C 1.06416 0.59885 0.43561
 C546 C 1.06886 0.56460 0.43930
 C547 C 1.08869 0.54694 0.42063
 C548 C 1.10415 0.56339 0.39913
 H549 H 1.16571 0.66625 0.26838
 H550 H 1.21338 0.70852 0.33752
 H551 H 1.24677 0.74401 0.30846
 H552 H 1.19903 0.70222 0.23870
 H553 H 1.07614 0.64172 0.41185
 H554 H 1.04890 0.61308 0.44955
 H555 H 1.09269 0.52053 0.42289
 H556 H 1.11982 0.54950 0.38526
 C557 C 0.67578 0.21988 0.30499
 C558 C 0.68029 0.18546 0.30466
 C559 C 0.70413 0.17129 0.28737
 C560 C 0.72380 0.19152 0.27084
 C561 C 0.71992 0.22611 0.27161
 C562 C 0.69542 0.24008 0.28849
 C563 C 0.66134 0.16496 0.32285
 C564 C 0.64579 0.14834 0.33869
 C565 C 0.62793 0.12955 0.35790
 C566 C 0.61297 0.11409 0.37485
 C567 C 0.59548 0.09639 0.39574
 C568 C 0.56107 0.10014 0.39892
 C569 C 0.54443 0.08468 0.42031
 C570 C 0.56209 0.06540 0.43885
 C571 C 0.59654 0.06117 0.43515
 C572 C 0.61311 0.07662 0.41375
 H573 H 0.65741 0.23114 0.31826
 H574 H 0.70782 0.14467 0.28694
 H575 H 0.74222 0.18004 0.25782
 H576 H 0.69186 0.26671 0.28920
 H577 H 0.54719 0.11544 0.38514
 H578 H 0.51786 0.08830 0.42259
 H579 H 0.61075 0.04631 0.44902
 H580 H 0.63976 0.07359 0.41150
 C581 C 0.70351 0.71605 -0.18312
 C582 C 0.68553 0.68947 -0.19375
 C583 C 0.68698 0.68296 -0.22143
 C584 C 0.70635 0.70301 -0.23837
 C585 C 0.72437 0.72966 -0.22774
 C586 C 0.72283 0.73605 -0.20001
 C587 C 0.66573 0.66911 -0.17605
 C588 C 0.64953 0.65266 -0.16051
 C589 C 0.63108 0.63405 -0.14154
 C590 C 0.61581 0.61867 -0.12471
 C591 C 0.59823 0.60087 -0.10391
 C592 C 0.60248 0.56658 -0.10124
 C593 C 0.58714 0.54971 -0.07993
 C594 C 0.56747 0.56702 -0.06095
 C595 C 0.56275 0.60134 -0.06414
 C596 C 0.57807 0.61813 -0.08547
 H597 H 0.70254 0.72136 -0.16176
 H598 H 0.67318 0.66246 -0.22989
 H599 H 0.70725 0.69776 -0.25973
 H600 H 0.73628 0.75659 -0.19132
 H601 H 0.61808 0.55298 -0.11536
 H602 H 0.59115 0.52325 -0.07804
 H603 H 0.54760 0.61528 -0.04994
 H604 H 0.57465 0.64468 -0.08732
 C605 C 0.79081 -0.16446 -0.20839
 C606 C 0.81695 -0.17924 -0.19449
 C607 C 0.82358 -0.21306 -0.19803
 C608 C 0.80400 -0.23209 -0.21521
 C609 C 0.77769 -0.21747 -0.22916
 C610 C 0.77122 -0.18349 -0.22558
 C611 C 0.83599 -0.16017 -0.17564
 C612 C 0.85162 -0.14466 -0.15935
 C613 C 0.86958 -0.12707 -0.13973
 C614 C 0.88460 -0.11254 -0.12251
 C615 C 0.90216 -0.09584 -0.10138
 C616 C 0.93642 -0.10050 -0.09861
 C617 C 0.95313 -0.08578 -0.07717
 C618 C 0.93567 -0.06632 -0.05817
 C619 C 0.90137 -0.06125 -0.06141
 C620 C 0.88474 -0.07596 -0.08287
 H621 H 0.78520 -0.13839 -0.20557
 H622 H 0.84354 -0.22485 -0.18717
 H623 H 0.80916 -0.25827 -0.21710
 H624 H 0.75055 -0.17170 -0.23544
 H625 H 0.95014 -0.11588 -0.11280
 H626 H 0.97957 -0.09004 -0.07525
 H627 H 0.88733 -0.04623 -0.04719
 H628 H 0.85822 -0.07221 -0.08482
 C629 C 0.78967 0.29785 0.31807
 C630 C 0.81617 0.31592 0.30709
 C631 C 0.82220 0.31501 0.27931
 C632 C 0.80157 0.29634 0.26261
 C633 C 0.77453 0.27870 0.27348
 C634 C 0.76910 0.27922 0.30142
 C635 C 0.83700 0.33515 0.32456
 C636 C 0.85370 0.35096 0.33994
 C637 C 0.87242 0.36911 0.35877
 C638 C 0.88768 0.38429 0.37550
 C639 C 0.90503 0.40201 0.39622
 C640 C 0.90077 0.43631 0.39917
 C641 C 0.91568 0.45310 0.42051
 C642 C 0.93491 0.43571 0.43925
 C643 C 0.93970 0.40139 0.43576
 C644 C 0.92480 0.38467 0.41440
 H645 H 0.78493 0.29810 0.33957
 H646 H 0.84289 0.32857 0.27060
 H647 H 0.80710 0.29533 0.24128
 H648 H 0.74915 0.26529 0.31062
 H649 H 0.88545 0.44997 0.38527
 H650 H 0.91164 0.47955 0.42263
 H651 H 0.95452 0.38738 0.44977
 H652 H 0.92821 0.35812 0.41235
 C653 C 0.27828 -0.17690 0.30274
 C654 C 0.31294 -0.17955 0.30184
 C655 C 0.32813 -0.20162 0.28369
 C656 C 0.30873 -0.22166 0.26706
 C657 C 0.27384 -0.22015 0.26871
 C658 C 0.25886 -0.19688 0.28616
 C659 C 0.33271 -0.16073 0.32043
 C660 C 0.34879 -0.14552 0.33664
 C661 C 0.36709 -0.12830 0.35633
 C662 C 0.38225 -0.11410 0.37368
 C663 C 0.39980 -0.09772 0.39503
 C664 C 0.43411 -0.10219 0.39774
 C665 C 0.45074 -0.08779 0.41938
 C666 C 0.43318 -0.06884 0.43867
 C667 C 0.39884 -0.06397 0.43550
 C668 C 0.38229 -0.07835 0.41384
 H669 H 0.26622 -0.15983 0.31662
 H670 H 0.35496 -0.20370 0.28266
 H671 H 0.32125 -0.23838 0.25327
 H672 H 0.23204 -0.19476 0.28754
 H673 H 0.44793 -0.11718 0.38334
 H674 H 0.47722 -0.09189 0.42124
 H675 H 0.38469 -0.04935 0.44992
 H676 H 0.35573 -0.07474 0.41197
 C677 C 0.32388 0.28412 -0.19828
 C678 C 0.31763 0.31802 -0.19479
 C679 C 0.29141 0.33298 -0.20848
 C680 C 0.27139 0.31407 -0.22543
 C681 C 0.27750 0.28002 -0.22897
 C682 C 0.30387 0.26521 -0.21521
 C683 C 0.33713 0.33703 -0.17622
 C684 C 0.35307 0.35263 -0.16019
 C685 C 0.37122 0.37053 -0.14086
 C686 C 0.38622 0.38552 -0.12388
 C687 C 0.40346 0.40306 -0.10303
 C688 C 0.39924 0.43734 -0.09998
 C689 C 0.41437 0.45405 -0.07872
 C690 C 0.43381 0.43658 -0.06016
 C691 C 0.43849 0.40227 -0.06372
 C692 C 0.42336 0.38563 -0.08501
 H693 H 0.34388 0.27220 -0.18758
 H694 H 0.28609 0.35912 -0.20569
 H695 H 0.25071 0.32602 -0.23515
 H696 H 0.30876 0.23898 -0.21710
 H697 H 0.38385 0.45107 -0.11379
 H698 H 0.41041 0.48050 -0.07654
 H699 H 0.45347 0.38821 -0.04984
 H700 H 0.42677 0.35909 -0.08716
 C701 C 1.16857 -0.20119 0.21545
 C702 C 1.18393 -0.17916 0.19750
 C703 C 1.21860 -0.17675 0.19673
 C704 C 1.23786 -0.19688 0.21325
 C705 C 1.22270 -0.22006 0.23052
 C706 C 1.18781 -0.22138 0.23202
 C707 C 1.16435 -0.16008 0.17902
 C708 C 1.14847 -0.14459 0.16289
 C709 C 1.13042 -0.12699 0.14332
 C710 C 1.11545 -0.11246 0.12609
 C711 C 1.09806 -0.09571 0.10489
 C712 C 1.11578 -0.07665 0.08612
 C713 C 1.09932 -0.06192 0.06461
 C714 C 1.06489 -0.06614 0.06155
 C715 C 1.04714 -0.08477 0.08081
 C716 C 1.06367 -0.09951 0.10230
 H717 H 1.14173 -0.20310 0.21637
 H718 H 1.23080 -0.15972 0.18301
 H719 H 1.26469 -0.19492 0.21197
 H720 H 1.17517 -0.23807 0.24566
 H721 H 1.14240 -0.07354 0.08790
 H722 H 1.11362 -0.04757 0.05020
 H723 H 1.02059 -0.08839 0.07904
 H724 H 1.04969 -0.11425 0.11667
 C725 C 1.21658 0.32517 0.69655
 C726 C 1.18208 0.32085 0.69669
 C727 C 1.16750 0.29734 0.71380
 C728 C 1.18742 0.27778 0.73032
 C729 C 1.22210 0.28143 0.72970
 C730 C 1.23647 0.30563 0.71302
 C731 C 1.16199 0.33957 0.67839
 C732 C 1.14583 0.35492 0.66240
 C733 C 1.12768 0.37253 0.64297
 C734 C 1.11285 0.38725 0.62579
 C735 C 1.09596 0.40444 0.60461
 C736 C 1.07667 0.38665 0.58633
 C737 C 1.06209 0.40288 0.56465
 C738 C 1.06674 0.43713 0.56095
 C739 C 1.08553 0.45497 0.57977
 C740 C 1.10011 0.43867 0.60143
 H741 H 1.22816 0.34327 0.68341
 H742 H 1.14082 0.29379 0.71407
 H743 H 1.17565 0.25956 0.74317
 H744 H 1.26316 0.30900 0.71243
 H745 H 1.07334 0.36014 0.58858
 H746 H 1.04759 0.38854 0.55058
 H747 H 1.08945 0.48140 0.57750
 H748 H 1.11506 0.45267 0.61542
 C749 C 0.71711 -0.17282 0.69600
 C750 C 0.68266 -0.17746 0.69590
 C751 C 0.66811 -0.20105 0.71295
 C752 C 0.68801 -0.22040 0.72963
 C753 C 0.72266 -0.21646 0.72923
 C754 C 0.73699 -0.19215 0.71264
 C755 C 0.66259 -0.15911 0.67736
 C756 C 0.64634 -0.14420 0.66117
 C757 C 0.62794 -0.12726 0.64150
 C758 C 0.61276 -0.11327 0.62413
 C759 C 0.59526 -0.09715 0.60274
 C760 C 0.56106 -0.10202 0.59979
 C761 C 0.54449 -0.08787 0.57808
 C762 C 0.56204 -0.06880 0.55899
 C763 C 0.59626 -0.06354 0.56241
 C764 C 0.61275 -0.07767 0.58414
 H765 H 0.72867 -0.15466 0.68289
 H766 H 0.64146 -0.20485 0.71304
 H767 H 0.67627 -0.23870 0.74241
 H768 H 0.76366 -0.18856 0.71220
 H769 H 0.54729 -0.11711 0.61404
 H770 H 0.51809 -0.09224 0.57602
 H771 H 0.61037 -0.04881 0.54814
 H772 H 0.63923 -0.07378 0.58621
 C773 C 0.66802 0.29450 0.20953
 C774 C 0.68278 0.32068 0.19537
 C775 C 0.71658 0.32744 0.19868
 C776 C 0.73562 0.30792 0.21586
 C777 C 0.72103 0.28155 0.23003
 C778 C 0.68705 0.27498 0.22672
 C779 C 0.66370 0.33958 0.17648
 C780 C 0.64811 0.35503 0.16018
 C781 C 0.63034 0.37273 0.14055
 C782 C 0.61561 0.38750 0.12334
 C783 C 0.59862 0.40476 0.10224
 C784 C 0.60232 0.43908 0.09936
 C785 C 0.58728 0.45553 0.07798
 C786 C 0.56846 0.43775 0.05913
 C787 C 0.56436 0.40337 0.06248
 C788 C 0.57938 0.38700 0.08389
 H789 H 0.64196 0.28879 0.20690
 H790 H 0.72837 0.34742 0.18763
 H791 H 0.76180 0.31316 0.21756
 H792 H 0.67527 0.25428 0.23675
 H793 H 0.61718 0.45307 0.11343
 H794 H 0.59079 0.48204 0.07597
 H795 H 0.54985 0.38907 0.04839
 H796 H 0.57637 0.36042 0.08592
 C797 C 0.78873 0.20815 0.18375
 C798 C 0.81516 0.18998 0.19433
 C799 C 0.82128 0.19114 0.22199
 C800 C 0.80096 0.21037 0.23896
 C801 C 0.77441 0.22854 0.22839
 C802 C 0.76845 0.22734 0.20068
 C803 C 0.83567 0.17013 0.17663
 C804 C 0.85220 0.15381 0.16110
 C805 C 0.87081 0.13512 0.14216
 C806 C 0.88611 0.11956 0.12535
 C807 C 0.90365 0.10153 0.10455
 C808 C 0.93803 0.10534 0.10117
 C809 C 0.95462 0.08946 0.07985
 C810 C 0.93694 0.06970 0.06157
 C811 C 0.90255 0.06544 0.06547
 C812 C 0.88603 0.08129 0.08681
 H813 H 0.78373 0.20740 0.16241
 H814 H 0.84164 0.17716 0.23041
 H815 H 0.80586 0.21100 0.26032
 H816 H 0.74801 0.24091 0.19204
 H817 H 0.95191 0.12099 0.11475
 H818 H 0.98115 0.09312 0.07740
 H819 H 0.88832 0.05023 0.05182
 H820 H 0.85942 0.07820 0.08921
 C821 C 0.81173 0.68113 0.72107
 C822 C 0.81336 0.68715 0.69338
 C823 C 0.79549 0.71361 0.68255
 C824 C 0.77641 0.73419 0.69929
 C825 C 0.77522 0.72882 0.72715
 C826 C 0.79261 0.70178 0.73786
 C827 C 0.83309 0.66636 0.67582
 C828 C 0.84929 0.64968 0.66033
 C829 C 0.86782 0.63096 0.64135
 C830 C 0.88321 0.61562 0.62447
 C831 C 0.90099 0.59802 0.60356
 C832 C 0.92129 0.61548 0.58548
 C833 C 0.93686 0.59892 0.56403
 C834 C 0.93223 0.56465 0.56036
 C835 C 0.91240 0.54713 0.57898
 C836 C 0.89682 0.56377 0.60041
 H837 H 0.82512 0.66047 0.72965
 H838 H 0.79629 0.71832 0.66112
 H839 H 0.76271 0.75415 0.69020
 H840 H 0.79109 0.69630 0.75911
 H841 H 0.92466 0.64200 0.58770
 H842 H 0.95213 0.61302 0.55012
 H843 H 0.90846 0.52070 0.57672
 H844 H 0.88110 0.55002 0.61425
 C845 C 0.29417 0.21080 0.68280
 C846 C 0.31168 0.18410 0.69362
 C847 C 0.31011 0.17814 0.72132
 C848 C 0.29136 0.19908 0.73813
 C849 C 0.27430 0.22634 0.72744
 C850 C 0.27546 0.23168 0.69957
 C851 C 0.33105 0.16298 0.67607
 C852 C 0.34702 0.14604 0.66062
 C853 C 0.36536 0.12708 0.64170
 C854 C 0.38069 0.11163 0.62487
 C855 C 0.39855 0.09409 0.60398
 C856 C 0.43291 0.09828 0.60089
 C857 C 0.44982 0.08325 0.57934
 C858 C 0.43246 0.06397 0.56054
 C859 C 0.39808 0.05924 0.56417
 C860 C 0.38125 0.07425 0.58575
 H861 H 0.29496 0.21547 0.66136
 H862 H 0.32324 0.15731 0.72989
 H863 H 0.28984 0.19365 0.75939
 H864 H 0.26200 0.25182 0.69050
 H865 H 0.44652 0.11366 0.61485
 H866 H 0.47632 0.08724 0.57711
 H867 H 0.38411 0.04436 0.55011
 H868 H 0.35464 0.07090 0.58791
 C869 C 0.28690 0.70704 0.18323
 C870 C 0.30993 0.68505 0.19418
 C871 C 0.31326 0.68319 0.22213
 C872 C 0.29405 0.70372 0.23898
 C873 C 0.27167 0.72671 0.22804
 C874 C 0.26775 0.72756 0.19999
 C875 C 0.33020 0.66486 0.17647
 C876 C 0.34679 0.64872 0.16084
 C877 C 0.36574 0.63058 0.14170
 C878 C 0.38146 0.61564 0.12474
 C879 C 0.39961 0.59839 0.10378
 C880 C 0.39653 0.56398 0.10089
 C881 C 0.41252 0.54758 0.07951
 C882 C 0.43168 0.56546 0.06066
 C883 C 0.43520 0.59992 0.06406
 C884 C 0.41923 0.61625 0.08545
 H885 H 0.28379 0.70843 0.16165
 H886 H 0.33082 0.66607 0.23088
 H887 H 0.29706 0.70196 0.26055
 H888 H 0.24996 0.74386 0.19071
 H889 H 0.38137 0.54989 0.11490
 H890 H 0.40940 0.52101 0.07748
 H891 H 0.44992 0.61432 0.04996
 H892 H 0.42177 0.64289 0.08746
   
