data_POSCAR
  _audit_creation_date              2014-09-24
  _audit_creation_method            'ToBaCCo'
  _symmetry_space_group_name_H-M    'P1'
  _symmetry_Int_Tables_number       1
  _symmetry_cell_setting            triclinic
  loop_
  _symmetry_equiv_pos_as_xyz
 x,y,z
_cell_length_a 50.8389
_cell_length_b 51.2340
_cell_length_c 50.4044
_cell_angle_alpha 96.515200
_cell_angle_beta 96.311200
_cell_angle_gamma 97.682400
loop_
  _atom_site_label
  _atom_site_type_symbol
  _atom_site_fract_x
  _atom_site_fract_y
  _atom_site_fract_z
C1 C 0.68037 0.65190 0.94612
 H2 H 0.67827 0.63107 0.93830
 C3 C 0.66313 0.66784 0.93501
 H4 H 0.64777 0.65906 0.91864
 C5 C 0.70268 0.68829 0.97739
 H6 H 0.71819 0.69602 0.99391
 C7 C 0.68535 0.70492 0.96722
 H8 H 0.68764 0.72552 0.97595
 N9 N 0.69982 0.66231 0.96671
 C10 C 0.77151 0.67106 0.98174
 H11 H 0.76375 0.67425 0.96177
 C12 C 0.79823 0.68063 0.99152
 H13 H 0.81067 0.69099 0.97876
 C14 C 0.76484 0.65361 1.02238
 H15 H 0.75190 0.64299 1.03441
 C16 C 0.79144 0.66291 1.03301
 H17 H 0.79857 0.65911 1.05305
 Zn18 Zn 0.72191 0.63838 0.97967
 N19 N 0.75569 0.65682 0.99671
 C20 C 0.73476 0.62778 0.92766
 N21 N 0.72804 0.61565 0.94913
 C22 C 0.72593 0.58881 0.94830
 C23 C 0.73189 0.57330 0.92567
 C24 C 0.74078 0.61310 0.90471
 C25 C 0.68035 0.62578 1.01052
 C26 C 0.66763 0.61450 1.03051
 C27 C 0.70362 0.58865 1.03728
 C28 C 0.71560 0.60043 1.01698
 N29 N 0.70415 0.61906 1.00445
 H30 H 0.73531 0.64898 0.92823
 H31 H 0.72000 0.57937 0.96522
 H32 H 0.73070 0.55204 0.92567
 H33 H 0.74650 0.62340 0.88814
 H34 H 0.67143 0.64054 1.00039
 H35 H 0.64897 0.62093 1.03502
 H36 H 0.71368 0.57444 1.04731
 H37 H 0.73462 0.59543 1.01195
 C38 C 0.80878 0.67578 1.01713
 C39 C 0.66540 0.69468 0.94561
 C40 C 0.67949 0.59607 1.04489
 C41 C 0.73982 0.58552 0.90363
 C42 C 0.73684 0.37034 0.47785
 H43 H 0.75750 0.37047 0.48588
 C44 C 0.71659 0.35388 0.48693
 H45 H 0.72191 0.34130 0.50194
 C46 C 0.70502 0.38747 0.44926
 H47 H 0.70065 0.40096 0.43493
 C48 C 0.68403 0.37156 0.45811
 H49 H 0.66359 0.37271 0.45021
 N50 N 0.73080 0.38658 0.45927
 C51 C 0.80712 0.40413 0.42856
 H52 H 0.80965 0.42561 0.43122
 C53 C 0.82720 0.39094 0.41906
 H54 H 0.84512 0.40249 0.41434
 C55 C 0.78065 0.36315 0.43170
 H56 H 0.76237 0.35235 0.43639
 C57 C 0.80012 0.34912 0.42203
 H58 H 0.79665 0.32763 0.41970
 Zn59 Zn 0.75971 0.40978 0.45052
 N60 N 0.78478 0.39017 0.43546
 C61 C 0.80103 0.42788 0.49341
 N62 N 0.77566 0.43034 0.48343
 C63 C 0.76011 0.44407 0.49846
 C64 C 0.76965 0.45510 0.52503
 C65 C 0.81132 0.43856 0.51973
 C66 C 0.73811 0.41770 0.39984
 C67 C 0.72889 0.43142 0.37921
 C68 C 0.73946 0.47215 0.41005
 C69 C 0.74874 0.45762 0.43009
 N70 N 0.74758 0.43085 0.42471
 H71 H 0.81292 0.41635 0.48162
 H72 H 0.73979 0.44526 0.49027
 H73 H 0.75659 0.46498 0.53704
 H74 H 0.83127 0.43552 0.52742
 H75 H 0.73767 0.39642 0.39611
 H76 H 0.72122 0.42042 0.35965
 H77 H 0.74026 0.49342 0.41474
 H78 H 0.75676 0.46772 0.44990
 C79 C 0.82403 0.36306 0.41610
 C80 C 0.68974 0.35458 0.47730
 C81 C 0.72924 0.45900 0.38421
 C82 C 0.79532 0.45166 0.53621
 C83 C 0.22999 -0.14302 -0.00877
 H84 H 0.25032 -0.14336 0.00000
 C85 C 0.20986 -0.16339 -0.00589
 H86 H 0.21505 -0.17940 0.00500
 C87 C 0.19859 -0.12071 -0.03213
 H88 H 0.19431 -0.10369 -0.04182
 C89 C 0.17772 -0.14059 -0.02943
 H90 H 0.15745 -0.13879 -0.03732
 N91 N 0.22403 -0.12204 -0.02137
 C92 C 0.30815 -0.09517 -0.01898
 H93 H 0.31104 -0.07628 -0.00640
 C94 C 0.33048 -0.10687 -0.02500
 H95 H 0.35033 -0.09680 -0.01691
 C96 C 0.27906 -0.13121 -0.04500
 H97 H 0.25899 -0.14053 -0.05306
 C98 C 0.30069 -0.14374 -0.05118
 H99 H 0.29693 -0.16266 -0.06399
 Zn100 Zn 0.25187 -0.09324 -0.02035
 N101 N 0.28301 -0.10755 -0.02879
 C102 C 0.27598 -0.05206 0.02251
 N103 N 0.25741 -0.07421 0.01520
 C104 C 0.24263 -0.08443 0.03355
 C105 C 0.24761 -0.07379 0.06056
 C106 C 0.28158 -0.04063 0.04952
 C107 C 0.23900 -0.08295 -0.07279
 C108 C 0.23102 -0.06871 -0.09349
 C109 C 0.22983 -0.03122 -0.06009
 C110 C 0.23783 -0.04629 -0.04003
 N111 N 0.24211 -0.07168 -0.04670
 H112 H 0.28689 -0.04356 0.00754
 H113 H 0.22732 -0.10140 0.02756
 H114 H 0.23613 -0.08301 0.07479
 H115 H 0.29717 -0.02369 0.05516
 H116 H 0.24243 -0.10323 -0.07751
 H117 H 0.22852 -0.07852 -0.11400
 H118 H 0.22630 -0.01115 -0.05401
 H119 H 0.24018 -0.03782 -0.01913
 C120 C 0.32683 -0.13163 -0.04110
 C121 C 0.18320 -0.16200 -0.01565
 C122 C 0.22598 -0.04241 -0.08744
 C123 C 0.26784 -0.05212 0.06905
 C124 C 0.20910 0.18783 0.46852
 H125 H 0.22832 0.18763 0.46139
 C126 C 0.19034 0.20132 0.45556
 H127 H 0.19556 0.21164 0.43884
 C128 C 0.17834 0.17357 0.49778
 H129 H 0.17317 0.16193 0.51350
 C130 C 0.15919 0.18719 0.48574
 H131 H 0.13971 0.18607 0.49269
 N132 N 0.20278 0.17396 0.48902
 C133 C 0.27248 0.17497 0.54223
 H134 H 0.26070 0.16778 0.55714
 C135 C 0.29934 0.18561 0.55008
 H136 H 0.30750 0.18686 0.57102
 C137 C 0.27690 0.18030 0.49683
 H138 H 0.26855 0.17689 0.47589
 C139 C 0.30384 0.19105 0.50379
 H140 H 0.31558 0.19651 0.48807
 Zn141 Zn 0.22719 0.15246 0.50396
 N142 N 0.26177 0.17234 0.51593
 C143 C 0.25184 0.11064 0.48359
 N144 N 0.23263 0.12566 0.47696
 C145 C 0.22047 0.12373 0.45123
 C146 C 0.22858 0.10710 0.43069
 C147 C 0.26018 0.09342 0.46383
 C148 C 0.20856 0.15419 0.55437
 C149 C 0.19921 0.14456 0.57690
 C150 C 0.19963 0.09987 0.55592
 C151 C 0.20889 0.11040 0.53361
 N152 N 0.21341 0.13718 0.53334
 H153 H 0.26148 0.11289 0.50412
 H154 H 0.20521 0.13580 0.44636
 H155 H 0.21938 0.10647 0.41016
 H156 H 0.27612 0.08229 0.46947
 H157 H 0.21217 0.17538 0.55365
 H158 H 0.19568 0.15864 0.59335
 H159 H 0.19628 0.07854 0.55581
 H160 H 0.21254 0.09715 0.51660
 C161 C 0.31556 0.19336 0.53067
 C162 C 0.16491 0.20091 0.46401
 C163 C 0.19474 0.11706 0.57802
 C164 C 0.24904 0.09206 0.43686
 C165 C 0.18776 0.47004 0.22112
 H166 H 0.18610 0.46223 0.24002
 C167 C 0.20383 0.45938 0.20317
 H168 H 0.21468 0.44355 0.20858
 C169 C 0.17428 0.49896 0.19046
 H170 H 0.16183 0.51347 0.18495
 C171 C 0.19044 0.48917 0.17211
 H172 H 0.19044 0.49665 0.15286
 N173 N 0.17297 0.48908 0.21431
 C174 C 0.14465 0.51464 0.29023
 H175 H 0.12348 0.50872 0.28376
 C176 C 0.15366 0.52364 0.31725
 H177 H 0.13929 0.52474 0.33154
 C178 C 0.18911 0.51990 0.27935
 H179 H 0.20275 0.51813 0.26445
 C180 C 0.19896 0.52985 0.30619
 H181 H 0.22028 0.53563 0.31193
 Zn182 Zn 0.14683 0.49750 0.23677
 N183 N 0.16236 0.51232 0.27205
 C184 C 0.13320 0.45228 0.26063
 N185 N 0.12544 0.46467 0.23924
 C186 C 0.10569 0.45243 0.21958
 C187 C 0.09183 0.42742 0.22200
 C188 C 0.12042 0.42719 0.26350
 C189 C 0.14317 0.54677 0.22168
 C190 C 0.13228 0.56762 0.21137
 C191 C 0.08870 0.54082 0.20509
 C192 C 0.10053 0.52032 0.21561
 N193 N 0.12748 0.52342 0.22296
 H194 H 0.14984 0.46160 0.27534
 H195 H 0.10088 0.46184 0.20190
 H196 H 0.07586 0.41805 0.20647
 H197 H 0.12686 0.41794 0.28089
 H198 H 0.16442 0.54899 0.22828
 H199 H 0.14546 0.58576 0.21017
 H200 H 0.06734 0.53784 0.19878
 H201 H 0.08814 0.50209 0.21784
 C202 C 0.18110 0.53127 0.32551
 C203 C 0.20489 0.46859 0.17806
 C204 C 0.10475 0.56473 0.20245
 C205 C 0.09927 0.41453 0.24421
 C206 C -0.13654 -0.01612 0.22026
 H207 H -0.13215 -0.00650 0.24082
 C208 C -0.15476 -0.00698 0.20217
 H209 H -0.16429 0.00969 0.20931
 C210 C -0.12859 -0.04914 0.18643
 H211 H -0.11801 -0.06533 0.18038
 C212 C -0.14662 -0.04053 0.16750
 H213 H -0.14973 -0.05041 0.14701
 N214 N -0.12399 -0.03688 0.21223
 C215 C -0.10009 -0.06805 0.28621
 H216 H -0.07918 -0.06866 0.28434
 C217 C -0.11050 -0.07513 0.30927
 H218 H -0.09741 -0.08145 0.32494
 C219 C -0.14222 -0.05843 0.26813
 H220 H -0.15452 -0.05190 0.25207
 C221 C -0.15350 -0.06537 0.29086
 H222 H -0.17441 -0.06399 0.29203
 Zn223 Zn -0.09855 -0.04582 0.23848
 N224 N -0.11574 -0.05904 0.26666
 C225 C -0.07429 -0.00446 0.27889
 N226 N -0.07534 -0.01382 0.25240
 C227 C -0.06350 0.00126 0.23519
 C228 C -0.05109 0.02734 0.24427
 C229 C -0.06215 0.02129 0.28876
 C230 C -0.09452 -0.09699 0.21600
 C231 C -0.08207 -0.11815 0.20628
 C232 C -0.04011 -0.08844 0.21267
 C233 C -0.05337 -0.06785 0.22240
 N234 N -0.08011 -0.07246 0.22375
 H235 H -0.08422 -0.01628 0.29226
 H236 H -0.06506 -0.00641 0.21408
 H237 H -0.04297 0.03951 0.23004
 H238 H -0.06256 0.02851 0.30973
 H239 H -0.11572 -0.10013 0.21762
 H240 H -0.09397 -0.13749 0.20023
 H241 H -0.01880 -0.08436 0.21174
 H242 H -0.04227 -0.04827 0.22908
 C243 C -0.13739 -0.07322 0.31210
 C244 C -0.15993 -0.01899 0.17521
 C245 C -0.05448 -0.11404 0.20450
 C246 C -0.05115 0.03790 0.27124
 C247 C 0.37308 0.49831 0.74468
 H248 H 0.37669 0.50798 0.76524
 C249 C 0.35579 0.50759 0.72578
 H250 H 0.34609 0.52438 0.73215
 C251 C 0.38231 0.46526 0.71157
 H252 H 0.39314 0.44912 0.70606
 C253 C 0.36510 0.47393 0.69191
 H254 H 0.36275 0.46421 0.67139
 N255 N 0.38599 0.47760 0.73735
 C256 C 0.40815 0.44572 0.81165
 H257 H 0.42944 0.44624 0.81120
 C258 C 0.39614 0.43571 0.83275
 H259 H 0.40841 0.42855 0.84850
 C260 C 0.36643 0.45451 0.79158
 H261 H 0.35480 0.46154 0.77537
 C262 C 0.35364 0.44490 0.81241
 H263 H 0.33228 0.44476 0.81195
 Zn264 Zn 0.41116 0.46930 0.76434
 N265 N 0.39330 0.45518 0.79180
 C266 C 0.43362 0.51154 0.80478
 N267 N 0.43314 0.50190 0.77844
 C268 C 0.44422 0.51719 0.76098
 C269 C 0.45506 0.54379 0.76953
 C270 C 0.44416 0.53794 0.81412
 C271 C 0.41745 0.41874 0.74198
 C272 C 0.43047 0.39863 0.73088
 C273 C 0.47121 0.43005 0.73639
 C274 C 0.45740 0.44957 0.74757
 N275 N 0.43092 0.44366 0.74980
 H276 H 0.42437 0.49934 0.81829
 H277 H 0.44310 0.50922 0.74001
 H278 H 0.46254 0.55601 0.75502
 H279 H 0.44321 0.54543 0.83491
 H280 H 0.39644 0.41458 0.74425
 H281 H 0.41920 0.37904 0.72450
 H282 H 0.49221 0.43521 0.73447
 H283 H 0.46780 0.46943 0.75427
 C284 C 0.36855 0.43545 0.83344
 C285 C 0.35185 0.49562 0.69889
 C286 C 0.45768 0.40419 0.72773
 C287 C 0.45419 0.55472 0.79621
 C288 C 0.67014 0.97485 0.70286
 H289 H 0.67563 0.97449 0.72410
 C290 C 0.68592 0.96447 0.68440
 H291 H 0.70350 0.95629 0.69167
 C292 C 0.64042 0.98537 0.66738
 H293 H 0.62232 0.99305 0.66085
 C294 C 0.65590 0.97578 0.64833
 H295 H 0.64958 0.97624 0.62719
 N296 N 0.64773 0.98485 0.69407
 C297 C 0.65004 0.99000 0.76795
 H298 H 0.64779 0.96951 0.75895
 C299 C 0.66054 0.99696 0.79502
 H300 H 0.66679 0.98161 0.80632
 C301 C 0.64310 1.03428 0.76427
 H302 H 0.63561 1.04869 0.75254
 C303 C 0.65334 1.04212 0.79127
 H304 H 0.65383 1.06265 0.79958
 Zn305 Zn 0.62404 0.99714 0.71766
 N306 N 0.64164 1.00860 0.75312
 C307 C 0.59945 0.94372 0.70948
 N308 N 0.59714 0.96869 0.72049
 C309 C 0.57841 0.97301 0.73710
 C310 C 0.56155 0.95162 0.74389
 C311 C 0.58332 0.92173 0.71612
 C312 C 0.62887 1.04561 0.69832
 C313 C 0.62139 1.06817 0.68837
 C314 C 0.57507 1.05017 0.68888
 C315 C 0.58350 1.02776 0.69882
 N316 N 0.61008 1.02609 0.70362
 H317 H 0.61485 0.94067 0.69677
 H318 H 0.57752 0.99299 0.74620
 H319 H 0.54749 0.95545 0.75800
 H320 H 0.58618 0.90195 0.70805
 H321 H 0.64984 1.04367 0.70209
 H322 H 0.63690 1.08343 0.68457
 H323 H 0.55388 1.05125 0.68526
 H324 H 0.56883 1.01184 0.70276
 C325 C 0.66202 1.02333 0.80727
 C326 C 0.67882 0.96488 0.65673
 C327 C 0.59419 1.07083 0.68364
 C328 C 0.56449 0.92553 0.73402
 C329 C -0.00789 0.23819 -0.11873
 H330 H 0.00132 0.25877 -0.11549
 C331 C 0.00310 0.21957 -0.13464
 H332 H 0.02077 0.22616 -0.14367
 C333 C -0.04175 0.20486 -0.11004
 H334 H -0.05893 0.19923 -0.09996
 C335 C -0.03138 0.18546 -0.12592
 H336 H -0.04081 0.16497 -0.12801
 N337 N -0.02982 0.23062 -0.10675
 C338 C -0.06085 0.30488 -0.09012
 H339 H -0.06083 0.30619 -0.06854
 C340 C -0.06839 0.32544 -0.10378
 H341 H -0.07431 0.34251 -0.09253
 C342 C -0.05299 0.28097 -0.13085
 H343 H -0.04714 0.26353 -0.14137
 C344 C -0.06065 0.30093 -0.14536
 H345 H -0.06035 0.29868 -0.16695
 Zn346 Zn -0.04041 0.25764 -0.08351
 N347 N -0.05262 0.28359 -0.10365
 C348 C 0.00164 0.29830 -0.06070
 N349 N -0.00916 0.27273 -0.05968
 C350 C 0.00461 0.25639 -0.04593
 C351 C 0.03090 0.26522 -0.03377
 C352 C 0.02775 0.30786 -0.04895
 C353 C -0.09259 0.23538 -0.08131
 C354 C -0.11482 0.22459 -0.07014
 C355 C -0.08766 0.23140 -0.02673
 C356 C -0.06600 0.24232 -0.03880
 N357 N -0.06877 0.24369 -0.06569
 H358 H -0.00912 0.31086 -0.07225
 H359 H -0.00413 0.23593 -0.04601
 H360 H 0.04207 0.25150 -0.02422
 H361 H 0.03629 0.32789 -0.05119
 H362 H -0.09423 0.23703 -0.10262
 H363 H -0.13337 0.21797 -0.08337
 H364 H -0.08467 0.23025 -0.00531
 H365 H -0.04695 0.24949 -0.02672
 C366 C -0.06801 0.32376 -0.13174
 C367 C -0.00844 0.19273 -0.13820
 C368 C -0.11264 0.22203 -0.04245
 C369 C 0.04311 0.29096 -0.03618
 C370 C 0.46551 0.21278 0.18354
 H371 H 0.45567 0.22974 0.18000
 C372 C 0.45467 0.19434 0.19933
 H373 H 0.43668 0.19749 0.20815
 C374 C 0.50002 0.18732 0.17518
 H375 H 0.51716 0.18400 0.16516
 C376 C 0.49012 0.16866 0.19107
 H377 H 0.50006 0.15144 0.19312
 N378 N 0.48773 0.20892 0.17169
 C379 C 0.53558 0.27937 0.15401
 H380 H 0.54188 0.27022 0.13585
 C381 C 0.54626 0.30555 0.16403
 H382 H 0.56102 0.31604 0.15359
 C383 C 0.50732 0.27733 0.18834
 H384 H 0.49167 0.26645 0.19731
 C385 C 0.51717 0.30374 0.19879
 H386 H 0.50920 0.31284 0.21602
 Zn387 Zn 0.49938 0.23255 0.14740
 N388 N 0.51633 0.26586 0.16605
 C389 C 0.46224 0.26344 0.12785
 N390 N 0.46856 0.23838 0.12534
 C391 C 0.45171 0.21789 0.11015
 C392 C 0.42716 0.22227 0.09714
 C393 C 0.43777 0.26850 0.11593
 C394 C 0.54848 0.21691 0.14238
 C395 C 0.56857 0.20561 0.13082
 C396 C 0.54037 0.19771 0.08804
 C397 C 0.52053 0.20910 0.10060
 N398 N 0.52478 0.21792 0.12747
 H399 H 0.47572 0.27954 0.13989
 H400 H 0.45699 0.19805 0.10878
 H401 H 0.41370 0.20582 0.08539
 H402 H 0.43294 0.28851 0.11869
 H403 H 0.55152 0.22447 0.16359
 H404 H 0.58701 0.20464 0.14340
 H405 H 0.53653 0.19015 0.06682
 H406 H 0.50169 0.21049 0.08901
 C407 C 0.53659 0.31831 0.18628
 C408 C 0.46693 0.17180 0.20308
 C409 C 0.56458 0.19543 0.10341
 C410 C 0.41977 0.24776 0.10064
 C411 C 0.97781 0.71715 0.69642
 H412 H 0.97011 0.73576 0.69618
 C413 C 0.96556 0.69764 0.71022
 H414 H 0.94879 0.70165 0.72076
 C415 C 1.00774 0.68857 0.68177
 H416 H 1.02340 0.68446 0.66983
 C417 C 0.99650 0.66879 0.69576
 H418 H 1.00403 0.64995 0.69460
 N419 N 0.99830 0.71224 0.68219
 C420 C 1.05126 0.78250 0.68095
 H421 H 1.06534 0.77139 0.67205
 C422 C 1.05972 0.80903 0.69164
 H423 H 1.08034 0.81750 0.69127
 C424 C 1.00714 0.78581 0.69032
 H425 H 0.98637 0.77717 0.68855
 C426 C 1.01473 0.81246 0.70110
 H427 H 0.99971 0.82369 0.70818
 Zn428 Zn 1.01227 0.73739 0.66009
 N429 N 1.02527 0.77139 0.68027
 C430 C 0.99040 0.76387 0.62033
 N431 N 0.98450 0.74321 0.63436
 C432 C 0.95904 0.73033 0.63273
 C433 C 0.93800 0.73936 0.61782
 C434 C 0.97011 0.77342 0.60513
 C435 C 1.06209 0.72018 0.65935
 C436 C 1.08380 0.71114 0.64861
 C437 C 1.06090 0.71090 0.60398
 C438 C 1.03948 0.72006 0.61567
 N439 N 1.04051 0.72456 0.64294
 H440 H 1.01079 0.77385 0.62217
 H441 H 0.95479 0.71381 0.64391
 H442 H 0.91772 0.72958 0.61763
 H443 H 0.97529 0.79057 0.59499
 H444 H 1.06241 0.72383 0.68096
 H445 H 1.10065 0.70789 0.66229
 H446 H 1.05974 0.70739 0.58226
 H447 H 1.02208 0.72353 0.60294
 C448 C 1.04124 0.82457 0.70137
 C449 C 0.97481 0.67302 0.70981
 C450 C 1.08348 0.70633 0.62056
 C451 C 0.94335 0.76175 0.60448
 C452 C 0.50206 0.73571 0.36602
 H453 H 0.51125 0.75604 0.36617
 C454 C 0.50784 0.71578 0.34734
 H455 H 0.52154 0.72100 0.33313
 C456 C 0.47393 0.70430 0.38527
 H457 H 0.46119 0.69993 0.40049
 C458 C 0.47958 0.68360 0.36721
 H459 H 0.47082 0.66338 0.36846
 N460 N 0.48525 0.72973 0.38435
 C461 C 0.46895 0.80940 0.40823
 H462 H 0.47522 0.81136 0.42967
 C463 C 0.46108 0.83101 0.39658
 H464 H 0.46133 0.84949 0.40945
 C465 C 0.46099 0.78261 0.36584
 H466 H 0.46059 0.76357 0.35402
 C467 C 0.45259 0.80357 0.35336
 H468 H 0.44613 0.80029 0.33189
 Zn469 Zn 0.48102 0.75803 0.41011
 N470 N 0.46934 0.78601 0.39273
 C471 C 0.53015 0.79133 0.42324
 N472 N 0.51540 0.76941 0.42985
 C473 C 0.52660 0.75344 0.44631
 C474 C 0.55374 0.75928 0.45669
 C475 C 0.55734 0.79750 0.43260
 C476 C 0.42960 0.73890 0.41777
 C477 C 0.40824 0.73004 0.43118
 C478 C 0.43821 0.73843 0.47288
 C479 C 0.45902 0.74738 0.45864
 N480 N 0.45444 0.74695 0.43149
 H481 H 0.52135 0.80315 0.40924
 H482 H 0.51480 0.73547 0.45033
 H483 H 0.56264 0.74598 0.46903
 H484 H 0.56896 0.81445 0.42625
 H485 H 0.42649 0.73914 0.39622
 H486 H 0.38877 0.72331 0.41968
 H487 H 0.44228 0.73852 0.49443
 H488 H 0.47873 0.75459 0.46928
 C489 C 0.45279 0.82837 0.36869
 C490 C 0.49683 0.68928 0.34800
 C491 C 0.41244 0.72940 0.45907
 C492 C 0.56952 0.78111 0.44909
 C493 C 0.37854 -0.02640 0.29182
 C494 C 0.35957 -0.03457 0.26549
 C495 C 0.34602 -0.01496 0.25771
 C496 C 0.35222 0.01102 0.27727
 C497 C 0.39653 -0.00127 0.28717
 C498 C 0.38282 0.01833 0.27946
 C499 C 0.36074 -0.01682 0.31222
 C500 C 0.34698 0.00276 0.30490
 H501 H 0.35836 -0.05351 0.25310
 H502 H 0.34084 0.02681 0.27100
 H503 H 0.41812 0.00030 0.28880
 H504 H 0.35942 -0.02492 0.33106
 C505 C 0.08943 1.06253 0.77076
 C506 C 0.10136 1.07241 0.74668
 C507 C 0.11812 1.05688 0.73579
 C508 C 0.12119 1.03217 0.75007
 C509 C 0.07572 1.03408 0.76054
 C510 C 0.09237 1.01806 0.74984
 C511 C 0.11350 1.05927 0.79043
 C512 C 0.12999 1.04311 0.77995
 H513 H 0.09676 1.09038 0.73893
 H514 H 0.13490 1.01944 0.74126
 H515 H 0.05520 1.02693 0.76292
 H516 H 0.11557 1.06689 0.81163
 C517 C 0.58171 0.55776 0.24418
 C518 C 0.59076 0.56544 0.21782
 C519 C 0.60718 0.54952 0.20687
 C520 C 0.61309 0.52703 0.22346
 C521 C 0.56892 0.52857 0.23742
 C522 C 0.58536 0.51238 0.22670
 C523 C 0.60764 0.55725 0.26253
 C524 C 0.62391 0.54081 0.25206
 H525 H 0.58449 0.58199 0.20847
 H526 H 0.62656 0.51405 0.21460
 H527 H 0.54901 0.52133 0.24166
 H528 H 0.61110 0.56658 0.28325
 C529 C 0.87239 0.46698 0.77292
 C530 C 0.86213 0.45963 0.74295
 C531 C 0.84991 0.47864 0.73185
 C532 C 0.84883 0.50336 0.75201
 C533 C 0.89055 0.49367 0.77461
 C534 C 0.87834 0.51274 0.76355
 C535 C 0.84793 0.47339 0.78596
 C536 C 0.83573 0.49262 0.77548
 H537 H 0.86539 0.44154 0.73124
 H538 H 0.83869 0.51879 0.74306
 H539 H 0.91159 0.49660 0.78246
 H540 H 0.84206 0.46471 0.80344
 C541 C 0.28078 0.36195 -0.02000
 C542 C 0.25127 0.35064 -0.02851
 C543 C 0.23896 0.33965 -0.00884
 C544 C 0.25764 0.34051 0.01758
 C545 C 0.28085 0.38134 0.00556
 C546 C 0.26864 0.37021 0.02523
 C547 C 0.29340 0.33863 -0.01037
 C548 C 0.28158 0.32755 0.00934
 H549 H 0.24073 0.35261 -0.04790
 H550 H 0.24782 0.33122 0.03352
 H551 H 0.28865 0.40229 0.00729
 H552 H 0.31141 0.33255 -0.01716
 C553 C 0.73874 0.06966 1.04579
 C554 C 0.71471 0.08129 1.05511
 C555 C 0.70492 0.09835 1.03911
 C556 C 0.71997 0.10180 1.01451
 C557 C 0.72915 0.05652 1.01683
 C558 C 0.71933 0.07335 1.00037
 C559 C 0.75897 0.09376 1.04300
 C560 C 0.74944 0.11047 1.02645
 H561 H 0.70661 0.07682 1.07336
 H562 H 0.71204 0.11569 1.00136
 H563 H 0.73055 0.03602 1.00990
 H564 H 0.77972 0.09618 1.05181
 C565 C 0.26104 0.58835 0.56321
 C566 C 0.23902 0.60293 0.57306
 C567 C 0.23006 0.61981 0.55641
 C568 C 0.24394 0.62030 0.53072
 C569 C 0.24914 0.57427 0.53511
 C570 C 0.24042 0.59104 0.51800
 C571 C 0.28271 0.61030 0.55819
 C572 C 0.27401 0.62693 0.54107
 H573 H 0.23121 0.60009 0.59185
 H574 H 0.23658 0.63397 0.51697
 H575 H 0.24897 0.55330 0.52890
 H576 H 0.30356 0.61139 0.56621
 C577 C 0.79416 0.87499 0.47655
 C578 C 0.77154 0.85193 0.46714
 C579 C 0.76153 0.83986 0.48741
 C580 C 0.77639 0.85118 0.51554
 C581 C 0.78289 0.89333 0.49722
 C582 C 0.77370 0.88096 0.51776
 C583 C 0.81525 0.86288 0.49306
 C584 C 0.80626 0.85038 0.51333
 H585 H 0.76198 0.84804 0.44650
 H586 H 0.76896 0.84093 0.53213
 H587 H 0.78203 0.91409 0.49550
 H588 H 0.83578 0.86382 0.48889
 C589 C -0.03178 0.27061 0.35241
 C590 C -0.03969 0.24137 0.34065
 C591 C -0.01988 0.23046 0.32934
 C592 C 0.00617 0.25001 0.33062
 C593 C -0.00643 0.27106 0.37214
 C594 C 0.01341 0.26009 0.36086
 C595 C -0.02229 0.28438 0.32912
 C596 C -0.00226 0.27402 0.31790
 H597 H -0.05878 0.22991 0.34239
 H598 H 0.02224 0.24121 0.32117
 H599 H -0.00507 0.27798 0.39344
 H600 H -0.02931 0.30234 0.32361
 C601 C 1.04866 0.73454 0.06959
 C602 C 1.05833 0.71255 0.08444
 C603 C 1.04180 0.70330 0.10185
 C604 C 1.01655 0.71698 0.10266
 C605 C 1.02051 0.72288 0.05593
 C606 C 1.00348 0.71398 0.07316
 C607 C 1.04439 0.75576 0.09194
 C608 C 1.02738 0.74686 0.10909
 H609 H 1.07707 0.70530 0.08186
 H610 H 1.00302 0.70954 0.11688
 H611 H 1.01421 0.72353 0.03481
 H612 H 1.05248 0.77653 0.09266
 C613 C 0.55595 0.26269 0.57509
 C614 C 0.56513 0.23936 0.58816
 C615 C 0.54878 0.22946 0.60536
 C616 C 0.52443 0.24405 0.60812
 C617 C 0.52726 0.25238 0.56185
 C618 C 0.51062 0.24283 0.57914
 C619 C 0.55293 0.28308 0.59877
 C620 C 0.53625 0.27358 0.61597
 H621 H 0.58288 0.23099 0.58378
 H622 H 0.51117 0.23611 0.62234
 H623 H 0.52050 0.25388 0.54101
 H624 H 0.56160 0.30379 0.60044
 C625 C 0.46851 0.78616 0.88073
 C626 C 0.45951 0.75737 0.86774
 C627 C 0.47614 0.74796 0.85077
 C628 C 0.50019 0.76868 0.84781
 C629 C 0.49716 0.78642 0.89416
 C630 C 0.51373 0.77690 0.87701
 C631 C 0.47152 0.80196 0.85714
 C632 C 0.48829 0.79330 0.84002
 H633 H 0.44283 0.74472 0.87349
 H634 H 0.51359 0.76129 0.83363
 H635 H 0.50289 0.79110 0.91569
 H636 H 0.46242 0.81973 0.85530
 C637 C 0.42778 -0.10882 0.33348
 N638 N 0.42640 -0.13292 0.31873
 N639 N 0.43478 -0.15313 0.33002
 C640 C 0.44462 -0.15013 0.35657
 N641 N 0.44607 -0.12587 0.37120
 N642 N 0.43785 -0.10563 0.35989
 C643 C 0.41708 -0.08699 0.32157
 N644 N 0.42025 -0.06241 0.33578
 N645 N 0.40882 -0.04307 0.32584
 C646 C 0.39365 -0.04762 0.30140
 N647 N 0.39086 -0.07213 0.28702
 N648 N 0.40242 -0.09144 0.29689
 C649 C 0.91242 0.38624 0.82655
 N650 N 0.91666 0.38954 0.85385
 N651 N 0.92286 0.36968 0.86707
 C652 C 0.92505 0.34576 0.85351
 N653 N 0.92094 0.34256 0.82617
 N654 N 0.91464 0.36239 0.81293
 C655 C 0.90427 0.40771 0.81214
 N656 N 0.89636 0.40338 0.78521
 N657 N 0.88706 0.42234 0.77250
 C658 C 0.88547 0.44635 0.78624
 N659 N 0.89390 0.45079 0.81310
 N660 N 0.90309 0.43181 0.82581
 C661 C 0.02953 1.13613 0.81994
 N662 N 0.04060 1.16205 0.82478
 N663 N 0.02824 1.17993 0.83769
 C664 C 0.00433 1.17266 0.84638
 N665 N -0.00687 1.14666 0.84139
 N666 N 0.00549 1.12871 0.82836
 C667 C 0.04418 1.11671 0.80666
 N668 N 0.03321 1.09084 0.79954
 N669 N 0.04720 1.07351 0.78791
 C670 C 0.07266 1.08147 0.78312
 N671 N 0.08351 1.10730 0.79037
 N672 N 0.06953 1.12458 0.80183
 C673 C 0.52367 0.62961 0.29862
 N674 N 0.52518 0.65470 0.29217
 N675 N 0.51596 0.67345 0.30748
 C676 C 0.50473 0.66783 0.32979
 N677 N 0.50273 0.64255 0.33595
 N678 N 0.51212 0.62380 0.32070
 C679 C 0.53632 0.60987 0.28318
 N680 N 0.53950 0.58637 0.29221
 N681 N 0.55320 0.56957 0.27939
 C682 C 0.56410 0.57559 0.25701
 N683 N 0.56061 0.59897 0.24786
 N684 N 0.54702 0.61579 0.26071
 C685 C 0.55913 0.40051 0.20686
 N686 N 0.53760 0.38775 0.21628
 N687 N 0.53086 0.36150 0.21042
 C688 C 0.54536 0.34704 0.19488
 N689 N 0.56704 0.35987 0.18574
 N690 N 0.57386 0.38606 0.19169
 C691 C 0.56594 0.42954 0.21220
 N692 N 0.58856 0.44196 0.20441
 N693 N 0.59461 0.46832 0.20887
 C694 C 0.57816 0.48327 0.22107
 N695 N 0.55547 0.47083 0.22877
 N696 N 0.54947 0.44445 0.22442
 C697 C 0.06305 0.90690 0.72288
 N698 N 0.03774 0.89513 0.72413
 N699 N 0.03093 0.86895 0.71776
 C700 C 0.04916 0.85349 0.70996
 N701 N 0.07453 0.86533 0.70891
 N702 N 0.08135 0.89150 0.71528
 C703 C 0.07048 0.93582 0.72942
 N704 N 0.09574 0.94757 0.72788
 N705 N 0.10255 0.97377 0.73398
 C706 C 0.08436 0.98923 0.74178
 N707 N 0.05906 0.97747 0.74320
 N708 N 0.05223 0.95127 0.73709
 C709 C 0.93467 0.60895 0.74138
 N710 N 0.96091 0.60999 0.73811
 N711 N 0.97381 0.63066 0.72870
 C712 C 0.96104 0.65122 0.72239
 N713 N 0.93489 0.65039 0.72616
 N714 N 0.92191 0.62959 0.73537
 C715 C 0.92000 0.58499 0.74937
 N716 N 0.89283 0.58086 0.74640
 N717 N 0.87956 0.55810 0.75151
 C718 C 0.89296 0.53871 0.75994
 N719 N 0.92013 0.54305 0.76329
 N720 N 0.93339 0.56571 0.75801
 C721 C 0.43242 0.11051 0.24257
 N722 N 0.41819 0.12980 0.23542
 N723 N 0.42932 0.14966 0.22349
 C724 C 0.45505 0.15093 0.21812
 N725 N 0.46928 0.13172 0.22553
 N726 N 0.45822 0.11194 0.23756
 C727 C 0.41980 0.08757 0.25400
 N728 N 0.43443 0.06876 0.26160
 N729 N 0.42278 0.04703 0.27029
 C730 C 0.39603 0.04322 0.27160
 N731 N 0.38145 0.06218 0.26425
 N732 N 0.39311 0.08397 0.25563
 C733 C 0.33152 0.40665 -0.10307
 N734 N 0.35680 0.40252 -0.10654
 N735 N 0.36857 0.41176 -0.12662
 C736 C 0.35546 0.42537 -0.14414
 N737 N 0.33013 0.42949 -0.14062
 N738 N 0.31838 0.42034 -0.12045
 C739 C 0.31855 0.39586 -0.08122
 N740 N 0.29422 0.40168 -0.07584
 N741 N 0.28239 0.39123 -0.05632
 C742 C 0.29436 0.37440 -0.04164
 N743 N 0.31881 0.36889 -0.04692
 N744 N 0.33067 0.37942 -0.06628
 C745 C 0.83288 0.91202 0.38421
 N746 N 0.85908 0.91167 0.38152
 N747 N 0.86840 0.91629 0.35860
 C748 C 0.85188 0.92136 0.33737
 N749 N 0.82562 0.92183 0.34011
 N750 N 0.81625 0.91714 0.36308
 C751 C 0.82284 0.90535 0.40913
 N752 N 0.79642 0.90354 0.41199
 N753 N 0.78742 0.89507 0.43387
 C754 C 0.80453 0.88804 0.45360
 N755 N 0.83099 0.89060 0.45091
 N756 N 0.83996 0.89910 0.42916
 C757 C 0.79110 0.01238 1.12028
 N758 N 0.80264 -0.00911 1.11231
 N759 N 0.81813 -0.01961 1.13009
 C760 C 0.82272 -0.00899 1.15649
 N761 N 0.81077 0.01229 1.16431
 N762 N 0.79535 0.02277 1.14660
 C763 C 0.77576 0.02561 1.10084
 N764 N 0.76765 0.04897 1.10923
 N765 N 0.75533 0.06231 1.09175
 C766 C 0.75037 0.05273 1.06519
 N767 N 0.75833 0.02921 1.05673
 N768 N 0.77082 0.01588 1.07427
 C769 C 0.30747 0.52989 0.64052
 N770 N 0.31174 0.54093 0.66665
 N771 N 0.32530 0.52964 0.68514
 C772 C 0.33526 0.50687 0.67829
 N773 N 0.33075 0.49563 0.65211
 N774 N 0.31708 0.50692 0.63354
 C775 C 0.29412 0.54381 0.62029
 N776 N 0.28771 0.53286 0.59414
 N777 N 0.27664 0.54650 0.57595
 C778 C 0.27170 0.57156 0.58332
 N779 N 0.27823 0.58240 0.60943
 N780 N 0.28908 0.56876 0.62756
 C781 C 0.20708 0.55674 0.40730
 N782 N 0.21905 0.56871 0.38811
 N783 N 0.21113 0.56040 0.36204
 C784 C 0.19071 0.54007 0.35425
 N785 N 0.17873 0.52820 0.37349
 N786 N 0.18690 0.53624 0.39950
 C787 C 0.21565 0.56576 0.43606
 N788 N 0.21089 0.54908 0.45466
 N789 N 0.21869 0.55712 0.48075
 C790 C 0.23112 0.58229 0.48926
 N791 N 0.23566 0.59905 0.47068
 N792 N 0.22821 0.59089 0.44454
 C793 C 0.68709 0.04428 0.88859
 N794 N 0.68684 0.01905 0.87683
 N795 N 0.67899 0.01234 0.85055
 C796 C 0.67109 0.03056 0.83491
 N797 N 0.67156 0.05584 0.84680
 N798 N 0.67938 0.06256 0.87307
 C799 C 0.69533 0.05168 0.91765
 N800 N 0.69489 0.07678 0.92939
 N801 N 0.70233 0.08356 0.95571
 C802 C 0.71048 0.06551 0.97133
 N803 N 0.71088 0.04037 0.95958
 N804 N 0.70341 0.03357 0.93324
 C805 C 0.72213 0.93110 0.59897
 N806 N 0.70722 0.95031 0.59325
 N807 N 0.69366 0.96117 0.61169
 C808 C 0.69467 0.95344 0.63664
 N809 N 0.70982 0.93440 0.64242
 N810 N 0.72320 0.92335 0.62390
 C811 C 0.73626 0.91849 0.57826
 N812 N 0.74590 0.89543 0.58147
 N813 N 0.75794 0.88358 0.56227
 C814 C 0.76102 0.89447 0.53926
 N815 N 0.75155 0.91764 0.53616
 N816 N 0.73929 0.92937 0.55524
 C817 C 0.24026 0.42901 0.11692
 N818 N 0.23564 0.45439 0.11584
 N819 N 0.22509 0.46724 0.13560
 C820 C 0.21894 0.45531 0.15733
 N821 N 0.22403 0.43008 0.15858
 N822 N 0.23439 0.41715 0.13873
 C823 C 0.24965 0.41404 0.09405
 N824 N 0.24816 0.38722 0.09223
 N825 N 0.25478 0.37337 0.07059
 C826 C 0.26336 0.38581 0.05004
 N827 N 0.26521 0.41268 0.05205
 N828 N 0.25838 0.42652 0.07360
 C829 C -0.11418 0.32257 0.39229
 N830 N -0.11002 0.34937 0.39863
 N831 N -0.12969 0.36219 0.40604
 C832 C -0.15430 0.34873 0.40742
 N833 N -0.15839 0.32187 0.40115
 N834 N -0.13874 0.30904 0.39364
 C835 C -0.09263 0.30865 0.38341
 N836 N -0.09741 0.28232 0.37412
 N837 N -0.07810 0.27005 0.36487
 C838 C -0.05327 0.28362 0.36468
 N839 N -0.04846 0.30988 0.37433
 N840 N -0.06778 0.32217 0.38349
 C841 C 0.39131 0.83146 0.93651
 N842 N 0.36632 0.81758 0.93400
 N843 N 0.34604 0.82925 0.94161
 C844 C 0.34988 0.85529 0.95206
 N845 N 0.37502 0.86910 0.95501
 N846 N 0.39535 0.85743 0.94726
 C847 C 0.41278 0.81900 0.92539
 N848 N 0.43686 0.83345 0.92385
 N849 N 0.45504 0.82264 0.91084
 C850 C 0.44981 0.79701 0.89893
 N851 N 0.42595 0.78249 0.90109
 N852 N 0.40781 0.79325 0.91406
 C853 C 1.12220 0.78606 0.00862
 N854 N 1.14778 0.78090 0.01094
 N855 N 1.16693 0.79684 0.00222
 C856 C 1.16131 0.81856 -0.00920
 N857 N 1.13556 0.82334 -0.01208
 N858 N 1.11637 0.80743 -0.00329
 C859 C 1.10201 0.77053 0.02148
 N860 N 1.07736 0.77773 0.02244
 N861 N 1.06016 0.76559 0.03684
 C862 C 1.06696 0.74580 0.05081
 N863 N 1.09145 0.73828 0.04939
 N864 N 1.10864 0.75043 0.03502
 C865 C 0.62936 0.31104 0.51154
 N866 N 0.62372 0.33109 0.49742
 N867 N 0.64271 0.34453 0.48591
 C868 C 0.66806 0.33853 0.48825
 N869 N 0.67351 0.31829 0.50216
 N870 N 0.65454 0.30479 0.51352
 C871 C 0.60930 0.29730 0.52599
 N872 N 0.61541 0.27696 0.53938
 N873 N 0.59827 0.26557 0.55425
 C874 C 0.57433 0.27407 0.55639
 N875 N 0.56808 0.29430 0.54276
 N876 N 0.58525 0.30569 0.52779
 C877 C 0.39855 0.21553 0.55127
 N878 N 0.38699 0.21550 0.52567
 N879 N 0.36061 0.20888 0.51922
 C880 C 0.34473 0.20212 0.53812
 N881 N 0.35636 0.20236 0.56376
 N882 N 0.38273 0.20895 0.57022
 C883 C 0.42769 0.22229 0.55833
 N884 N 0.43921 0.22175 0.58383
 N885 N 0.46561 0.22795 0.59031
 C886 C 0.48152 0.23484 0.57153
 N887 N 0.46999 0.23529 0.54599
 N888 N 0.44358 0.22908 0.53950
 C889 C 0.89156 0.69201 0.04200
 N890 N 0.87448 0.68370 0.05925
 N891 N 0.84815 0.67899 0.05156
 C892 C 0.83787 0.68259 0.02639
 N893 N 0.85504 0.69111 0.00928
 N894 N 0.88133 0.69574 0.01692
 C895 C 0.92064 0.69679 0.05009
 N896 N 0.93745 0.70336 0.03199
 N897 N 0.96380 0.70817 0.03921
 C898 C 0.97441 0.70658 0.06481
 N899 N 0.95759 0.69985 0.08289
 N900 N 0.93119 0.69496 0.07565
 C901 C 0.60821 0.73874 0.91451
 N902 N 0.61550 0.71822 0.89894
 N903 N 0.63416 0.70472 0.90870
 C904 C 0.64642 0.71129 0.93437
 N905 N 0.63955 0.73222 0.94980
 N906 N 0.62067 0.74562 0.94009
 C907 C 0.58557 0.75146 0.90436
 N908 N 0.57364 0.76733 0.92128
 N909 N 0.55127 0.77632 0.91244
 C910 C 0.54009 0.76986 0.88635
 N911 N 0.55239 0.75445 0.86940
 N912 N 0.57464 0.74538 0.87823
 C913 C 0.10389 0.23302 0.42150
 N914 N 0.12556 0.22727 0.40974
 N915 N 0.14527 0.21772 0.42346
 C916 C 0.14397 0.21333 0.44940
 N917 N 0.12233 0.21925 0.46118
 N918 N 0.10273 0.22900 0.44753
 C919 C 0.08134 0.24194 0.40593
 N920 N 0.06113 0.25054 0.41837
 N921 N 0.03988 0.25705 0.40410
 C922 C 0.03794 0.25506 0.37682
 N923 N 0.05825 0.24665 0.36442
 N924 N 0.07960 0.24030 0.37870
 C925 C 0.57277 0.13946 0.65370
 N926 N 0.59855 0.13496 0.65637
 N927 N 0.60517 0.11326 0.66594
 C928 C 0.58629 0.09500 0.67317
 N929 N 0.56040 0.09951 0.67054
 N930 N 0.55375 0.12134 0.66099
 C931 C 0.56604 0.16325 0.64221
 N932 N 0.54091 0.16985 0.64074
 N933 N 0.53532 0.19122 0.62954
 C934 C 0.55463 0.20662 0.61930
 N935 N 0.57968 0.19999 0.62097
 N936 N 0.58528 0.17884 0.63225
 C937 C 1.07448 0.62544 0.16443
 N938 N 1.10114 0.62602 0.17111
 N939 N 1.11047 0.60697 0.18352
 C940 C 1.09360 0.58635 0.18971
 N941 N 1.06679 0.58576 0.18314
 N942 N 1.05739 0.60498 0.17076
 C943 C 1.06514 0.64607 0.14922
 N944 N 1.03885 0.64897 0.14475
 N945 N 1.03117 0.66749 0.13013
 C946 C 1.04951 0.68353 0.11930
 N947 N 1.07567 0.68061 0.12401
 N948 N 1.08332 0.66238 0.13872
 C949 C 0.98332 0.82365 0.17247
 N950 N 0.99689 0.84866 0.17880
 N951 N 0.98502 0.86833 0.18935
 C952 C 0.95905 0.86382 0.19385
 N953 N 0.94557 0.83869 0.18772
 N954 N 0.95746 0.81899 0.17721
 C955 C 0.99588 0.80263 0.15874
 N956 N 0.98254 0.77752 0.15190
 N957 N 0.99309 0.75927 0.13713
 C958 C 1.01731 0.76552 0.12861
 N959 N 1.03079 0.79047 0.13594
 N960 N 1.02034 0.80864 0.15077
 C961 C 0.49552 0.34580 0.68822
 N962 N 0.50818 0.37116 0.69473
 N963 N 0.49643 0.38956 0.70779
 C964 C 0.47149 0.38338 0.71474
 N965 N 0.45900 0.35789 0.70845
 N966 N 0.47077 0.33947 0.69546
 C967 C 0.50752 0.32615 0.67173
 N968 N 0.49492 0.30077 0.66499
 N969 N 0.50462 0.28367 0.64805
 C970 C 0.52723 0.29135 0.63715
 N971 N 0.54001 0.31662 0.64427
 N972 N 0.53039 0.33367 0.66127
 C973 C 0.46838 0.63727 0.81909
 N974 N 0.45635 0.62072 0.83477
 N975 N 0.45271 0.59455 0.82782
 C976 C 0.46083 0.58375 0.80481
 N977 N 0.47309 0.60033 0.78915
 N978 N 0.47693 0.62662 0.79621
 C979 C 0.47065 0.66615 0.82654
 N980 N 0.48680 0.68369 0.81496
 N981 N 0.48849 0.70982 0.82234
 C982 C 0.47381 0.71927 0.84125
 N983 N 0.45763 0.70163 0.85259
 N984 N 0.45613 0.67565 0.84545
 C985 C -0.03169 0.11976 0.29674
 N986 N -0.04553 0.10350 0.31145
 N987 N -0.05083 0.07749 0.30365
 C988 C -0.04271 0.06657 0.28070
 N989 N -0.02864 0.08284 0.26599
 N990 N -0.02311 0.10896 0.27395
 C991 C -0.02790 0.14858 0.30492
 N992 N -0.00956 0.16550 0.29508
 N993 N -0.00680 0.19164 0.30283
 C994 C -0.02255 0.20173 0.32033
 N995 N -0.04084 0.18474 0.33000
 N996 N -0.04338 0.15871 0.32255
 C997 C 0.05712 0.34349 0.26077
 N998 N 0.08359 0.35032 0.26964
 N999 N 0.09716 0.37240 0.26347
 C1000 C 0.08487 0.38850 0.24811
 N1001 N 0.05855 0.38126 0.23858
 N1002 N 0.04490 0.35925 0.24494
 C1003 C 0.04133 0.32187 0.27148
 N1004 N 0.01437 0.32050 0.26983
 N1005 N 0.00030 0.30404 0.28343
 C1006 C 0.01258 0.28814 0.29902
 N1007 N 0.03945 0.28880 0.29994
 N1008 N 0.05358 0.30547 0.28650
 C1009 C 0.52607 0.86257 0.76853
 N1010 N 0.54813 0.85960 0.75623
 N1011 N 0.55973 0.87925 0.74429
 C1012 C 0.54984 0.90265 0.74437
 N1013 N 0.52755 0.90538 0.75636
 N1014 N 0.51586 0.88571 0.76811
 C1015 C 0.51473 0.84238 0.78431
 N1016 N 0.49260 0.84601 0.79614
 N1017 N 0.48370 0.82966 0.81294
 C1018 C 0.49656 0.80900 0.81868
 N1019 N 0.51844 0.80497 0.80641
 N1020 N 0.52737 0.82139 0.78951
 C1021 C 0.64749 0.57074 0.10993
 N1022 N 0.63554 0.58727 0.09497
 N1023 N 0.64573 0.59504 0.07347
 C1024 C 0.66844 0.58674 0.06591
 N1025 N 0.68017 0.56978 0.08077
 N1026 N 0.66992 0.56194 0.10234
 C1027 C 0.63673 0.56390 0.13459
 N1028 N 0.64739 0.54674 0.14989
 N1029 N 0.63785 0.54173 0.17275
 C1030 C 0.61746 0.55385 0.18117
 N1031 N 0.60684 0.57084 0.16572
 N1032 N 0.61624 0.57573 0.14292
 C1033 C 0.16612 1.08889 0.64622
 N1034 N 0.17339 1.07172 0.62672
 N1035 N 0.18257 1.08054 0.60503
 C1036 C 0.18483 1.10680 0.60205
 N1037 N 0.17765 1.12380 0.62169
 N1038 N 0.16845 1.11504 0.64324
 C1039 C 0.15483 1.07990 0.66986
 N1040 N 0.14474 1.09755 0.68653
 N1041 N 0.13352 1.09005 0.70755
 C1042 C 0.13199 1.06459 0.71297
 N1043 N 0.14242 1.04683 0.69653
 N1044 N 0.15358 1.05435 0.67525
 C1045 C 0.19603 0.99783 0.85360
 N1046 N 0.20121 1.00939 0.87958
 N1047 N 0.21150 0.99646 0.89875
 C1048 C 0.21696 0.97132 0.89284
 N1049 N 0.21220 0.96005 0.86663
 N1050 N 0.20188 0.97296 0.84744
 C1051 C 0.18198 1.01109 0.83318
 N1052 N 0.17463 0.99895 0.80753
 N1053 N 0.15917 1.00978 0.79002
 C1054 C 0.15047 1.03312 0.79756
 N1055 N 0.15839 1.04549 0.82302
 N1056 N 0.17386 1.03473 0.84046
 C1057 C 0.69464 0.49904 0.32429
 N1058 N 0.70218 0.51154 0.34976
 N1059 N 0.71379 0.49909 0.36864
 C1060 C 0.71816 0.47359 0.36285
 N1061 N 0.71089 0.46126 0.33725
 N1062 N 0.69936 0.47372 0.31836
 C1063 C 0.67932 0.51168 0.30426
 N1064 N 0.67109 0.49884 0.27902
 N1065 N 0.65455 0.50886 0.26185
 C1066 C 0.64558 0.53206 0.26928
 N1067 N 0.65433 0.54518 0.29432
 N1068 N 0.67093 0.53522 0.31145
 C1069 C 0.81992 0.46881 0.61933
 N1070 N 0.79853 0.47881 0.60808
 N1071 N 0.79095 0.47398 0.58156
 C1072 C 0.80461 0.45916 0.56534
 N1073 N 0.82618 0.44957 0.57671
 N1074 N 0.83363 0.45424 0.60313
 C1075 C 0.82757 0.47212 0.64860
 N1076 N 0.84460 0.45670 0.65919
 N1077 N 0.85144 0.45878 0.68564
 C1078 C 0.84165 0.47648 0.70262
 N1079 N 0.82473 0.49214 0.69207
 N1080 N 0.81766 0.48988 0.66550
 C1081 C 0.29311 -0.03034 0.15161
 N1082 N 0.27653 -0.05332 0.14241
 N1083 N 0.26790 -0.05962 0.11630
 C1084 C 0.27566 -0.04336 0.09822
 N1085 N 0.29208 -0.02017 0.10746
 N1086 N 0.30059 -0.01373 0.13370
 C1087 C 0.30471 -0.02522 0.18003
 N1088 N 0.31784 -0.00094 0.19119
 N1089 N 0.33006 0.00269 0.21643
 C1090 C 0.32982 -0.01790 0.23124
 N1091 N 0.31651 -0.04205 0.22011
 N1092 N 0.30404 -0.04559 0.19507
 C1093 C 0.28452 0.05064 0.37721
 N1094 N 0.26931 0.06943 0.37082
 N1095 N 0.25727 0.08205 0.38958
 C1096 C 0.26011 0.07642 0.41539
 N1097 N 0.27509 0.05741 0.42156
 N1098 N 0.28697 0.04472 0.40284
 C1099 C 0.29935 0.03762 0.35744
 N1100 N 0.31316 0.01806 0.36441
 N1101 N 0.32792 0.00691 0.34746
 C1102 C 0.32962 0.01490 0.32286
 N1103 N 0.31568 0.03441 0.31572
 N1104 N 0.30078 0.04559 0.33273
 C1105 C 0.76850 0.54260 0.83976
 N1106 N 0.75907 0.53015 0.85994
 N1107 N 0.74918 0.54357 0.87979
 C1108 C 0.74840 0.57001 0.88029
 N1109 N 0.75738 0.58231 0.85978
 N1110 N 0.76729 0.56890 0.83993
 C1111 C 0.78262 0.52851 0.82006
 N1112 N 0.79459 0.54137 0.80140
 N1113 N 0.81044 0.52949 0.78604
 C1114 C 0.81493 0.50437 0.78889
 N1115 N 0.80237 0.49135 0.80706
 N1116 N 0.78651 0.50316 0.82231
 C1117 C 0.14840 0.67595 0.58975
 N1118 N 0.12748 0.68068 0.57265
 N1119 N 0.10690 0.69064 0.58225
 C1120 C 0.10649 0.69617 0.60926
 N1121 N 0.12759 0.69161 0.62615
 N1122 N 0.14803 0.68168 0.61662
 C1123 C 0.17048 0.66318 0.58018
 N1124 N 0.18825 0.65524 0.59850
 N1125 N 0.20744 0.64207 0.59067
 C1126 C 0.20986 0.63641 0.56419
 N1127 N 0.19244 0.64480 0.54570
 N1128 N 0.17298 0.65789 0.55357
 C1129 C 0.62371 0.15545 1.07236
 N1130 N 0.62255 0.15983 1.09919
 N1131 N 0.60387 0.17266 1.10876
 C1132 C 0.58535 0.18155 1.09194
 N1133 N 0.58636 0.17711 1.06495
 N1134 N 0.60529 0.16436 1.05531
 C1135 C 0.64440 0.14064 1.06270
 N1136 N 0.65035 0.13972 1.03698
 N1137 N 0.66965 0.12635 1.02920
 C1138 C 0.68343 0.11330 1.04683
 N1139 N 0.67731 0.11429 1.07241
 N1140 N 0.65829 0.12774 1.08019
 C1141 C 0.82500 0.18427 0.98972
 N1142 N 0.82215 0.18851 0.96356
 N1143 N 0.84239 0.20127 0.95320
 C1144 C 0.86636 0.21032 0.96849
 N1145 N 0.86886 0.20644 0.99486
 N1146 N 0.84868 0.19359 1.00521
 C1147 C 0.80386 0.16772 1.00048
 N1148 N 0.80900 0.15935 1.02484
 N1149 N 0.79114 0.14195 1.03352
 C1150 C 0.76736 0.13235 1.01828
 N1151 N 0.76190 0.14123 0.99419
 N1152 N 0.77987 0.15856 0.98541
 C1153 C 0.35042 0.69477 0.49808
 N1154 N 0.34538 0.70044 0.47253
 N1155 N 0.36496 0.71200 0.46040
 C1156 C 0.39033 0.71838 0.47330
 N1157 N 0.39521 0.71307 0.49903
 N1158 N 0.37566 0.70143 0.51115
 C1159 C 0.32960 0.67959 0.51053
 N1160 N 0.33602 0.67031 0.53418
 N1161 N 0.31799 0.65430 0.54429
 C1162 C 0.29280 0.64701 0.53124
 N1163 N 0.28616 0.65674 0.50785
 N1164 N 0.30427 0.67270 0.49764
 C1165 C 0.65300 0.79508 0.46701
 N1166 N 0.63767 0.78682 0.48580
 N1167 N 0.61104 0.78189 0.48015
 C1168 C 0.59887 0.78557 0.45572
 N1169 N 0.61429 0.79373 0.43705
 N1170 N 0.64078 0.79829 0.44255
 C1171 C 0.68216 0.80244 0.47298
 N1172 N 0.69672 0.80609 0.45239
 N1173 N 0.72245 0.81641 0.45718
 C1174 C 0.73472 0.82364 0.48275
 N1175 N 0.72037 0.81927 0.50346
 N1176 N 0.69453 0.80877 0.49866
 C1177 C 0.12639 0.31228 -0.01962
 N1178 N 0.11388 0.29204 -0.00825
 N1179 N 0.08730 0.28555 -0.01283
 C1180 C 0.07228 0.29928 -0.02867
 N1181 N 0.08491 0.31973 -0.03959
 N1182 N 0.11138 0.32605 -0.03523
 C1183 C 0.15569 0.31875 -0.01650
 N1184 N 0.16735 0.33385 -0.03364
 N1185 N 0.19381 0.34001 -0.03137
 C1186 C 0.20973 0.33147 -0.01176
 N1187 N 0.19810 0.31640 0.00552
 N1188 N 0.17153 0.30997 0.00308
 C1189 C 0.34832 0.26807 0.06500
 N1190 N 0.36034 0.24911 0.05200
 N1191 N 0.38246 0.24168 0.06373
 C1192 C 0.39360 0.25329 0.08872
 N1193 N 0.38130 0.27191 0.10183
 N1194 N 0.35905 0.27910 0.09025
 C1195 C 0.32676 0.27945 0.05069
 N1196 N 0.31314 0.29660 0.06425
 N1197 N 0.29700 0.31057 0.05100
 C1198 C 0.29412 0.30808 0.02371
 N1199 N 0.30718 0.29041 0.01018
 N1200 N 0.32306 0.27625 0.02340
 C1201 C 0.88200 0.79922 0.56989
 N1202 N 0.90811 0.80879 0.56946
 N1203 N 0.92740 0.79657 0.58005
 C1204 C 0.92145 0.77414 0.59146
 N1205 N 0.89524 0.76443 0.59185
 N1206 N 0.87583 0.77669 0.58117
 C1207 C 0.86138 0.81312 0.55747
 N1208 N 0.83474 0.80411 0.55587
 N1209 N 0.81674 0.81647 0.54280
 C1210 C 0.82487 0.83818 0.53093
 N1211 N 0.85141 0.84732 0.53314
 N1212 N 0.86926 0.83512 0.54617
   
