data_POSCAR
  _audit_creation_date              2014-09-24
  _audit_creation_method            'ToBaCCo'
  _symmetry_space_group_name_H-M    'P1'
  _symmetry_Int_Tables_number       1
  _symmetry_cell_setting            triclinic
  loop_
  _symmetry_equiv_pos_as_xyz
 x,y,z
_cell_length_a 48.0864
_cell_length_b 48.7071
_cell_length_c 49.8567
_cell_angle_alpha 91.594400
_cell_angle_beta 91.331600
_cell_angle_gamma 89.804300
loop_
  _atom_site_label
  _atom_site_type_symbol
  _atom_site_fract_x
  _atom_site_fract_y
  _atom_site_fract_z
C1 C 0.20276 1.22932 0.19975
 C2 C 0.22268 1.20820 0.19954
 C3 C 0.22212 1.18822 0.21869
 C4 C 0.20168 1.18910 0.23831
 C5 C 0.18203 1.20977 0.23837
 C6 C 0.18262 1.23007 0.21897
 C7 C 0.19726 1.25049 0.18273
 N8 N 0.17405 1.26433 0.19096
 C9 C 0.16515 1.25166 0.21331
 C10 C 0.16366 1.20433 0.25824
 N11 N 0.17153 1.18071 0.27051
 C12 C 0.19503 1.17148 0.25824
 C13 C 0.24251 1.16935 0.21253
 N14 N 0.25543 1.17731 0.19005
 C15 C 0.24342 1.20114 0.18206
 H16 H 0.20906 1.25448 0.16509
 H17 H 0.14717 1.25718 0.22489
 H18 H 0.14584 1.21696 0.26304
 H19 H 0.20603 1.15260 0.26228
 H20 H 0.24720 1.15093 0.22341
 H21 H 0.24848 1.21195 0.16414
 C22 C 0.80498 0.77988 0.17589
 C23 C 0.78351 0.79941 0.17479
 C24 C 0.78142 0.81937 0.19490
 C25 C 0.80080 0.82007 0.21638
 C26 C 0.82198 0.80095 0.21734
 C27 C 0.82402 0.78061 0.19698
 C28 C 0.81277 0.75895 0.15859
 N29 N 0.83629 0.74664 0.16850
 C30 C 0.84309 0.76006 0.19218
 C31 C 0.83840 0.80744 0.23954
 N32 N 0.82778 0.83016 0.25237
 C33 C 0.80458 0.83781 0.23809
 C34 C 0.75964 0.83633 0.18790
 N35 N 0.74848 0.82721 0.16398
 C36 C 0.76299 0.80455 0.15590
 H37 H 0.80170 0.75348 0.14012
 H38 H 0.86101 0.75610 0.20498
 H39 H 0.85665 0.79600 0.24567
 H40 H 0.79173 0.85561 0.24218
 H41 H 0.75317 0.85459 0.19896
 H42 H 0.75916 0.79275 0.13748
 C43 C 0.78727 1.22261 -0.19097
 C44 C 0.76832 1.20097 -0.18901
 C45 C 0.76812 1.17968 -0.20795
 C46 C 0.78668 1.17990 -0.22923
 C47 C 0.80506 1.20137 -0.23131
 C48 C 0.80542 1.22286 -0.21196
 C49 C 0.79360 1.24480 -0.17434
 N50 N 0.81538 1.25877 -0.18454
 C51 C 0.82244 1.24528 -0.20781
 C52 C 0.82130 1.19552 -0.25309
 N53 N 0.81345 1.17081 -0.26444
 C54 C 0.79211 1.16129 -0.24968
 C55 C 0.74896 1.16076 -0.20012
 N56 N 0.73741 1.17013 -0.17697
 C57 C 0.74915 1.19474 -0.17006
 H58 H 0.78295 1.24981 -0.15600
 H59 H 0.83961 1.25021 -0.22040
 H60 H 0.83838 1.20810 -0.25920
 H61 H 0.78095 1.14228 -0.25326
 H62 H 0.74395 1.14150 -0.21043
 H63 H 0.74475 1.20679 -0.15207
 C64 C 0.20128 0.76574 -0.18838
 C65 C 0.22150 0.78645 -0.18666
 C66 C 0.22174 0.80656 -0.20566
 C67 C 0.20188 0.80615 -0.22672
 C68 C 0.18215 0.78568 -0.22850
 C69 C 0.18181 0.76533 -0.20912
 C70 C 0.19507 0.74457 -0.17191
 N71 N 0.17207 0.73104 -0.18194
 C72 C 0.16407 0.74385 -0.20493
 C73 C 0.16498 0.79115 -0.25016
 N74 N 0.17362 0.81466 -0.26174
 C75 C 0.19638 0.82377 -0.24723
 C76 C 0.24249 0.82478 -0.19819
 N77 N 0.25492 0.81619 -0.17512
 C78 C 0.24219 0.79270 -0.16797
 H79 H 0.20675 0.73988 -0.15384
 H80 H 0.14610 0.73895 -0.21754
 H81 H 0.14691 0.77912 -0.25608
 H82 H 0.20846 0.84187 -0.25093
 H83 H 0.24798 0.84305 -0.20872
 H84 H 0.24695 0.78148 -0.14999
 C85 C 0.53895 1.04392 -0.00521
 H86 H 0.54104 1.04282 0.01638
 C87 C 0.55763 1.05957 -0.01935
 H88 H 0.57394 1.07076 -0.00848
 C89 C 0.51532 1.03032 -0.04565
 H90 H 0.49924 1.01840 -0.05591
 C91 C 0.53337 1.04595 -0.06055
 H92 H 0.53093 1.04596 -0.08219
 N93 N 0.51828 1.02974 -0.01846
 C94 C 0.45363 1.01665 0.03958
 H95 H 0.45231 0.99447 0.03846
 C96 C 0.43552 1.03171 0.05580
 H97 H 0.42053 1.02092 0.06746
 C98 C 0.47483 1.05754 0.02559
 H99 H 0.48982 1.06753 0.01338
 C100 C 0.45712 1.07342 0.04158
 H101 H 0.45866 1.09559 0.04146
 Zn102 Zn 0.49523 1.00760 0.00228
 N103 N 0.47285 1.02967 0.02498
 C104 C 0.51839 0.98531 0.05005
 N105 N 0.51898 0.98480 0.02277
 C106 C 0.53782 0.96917 0.00928
 C107 C 0.55701 0.95305 0.02326
 C108 C 0.53716 0.96944 0.06483
 C109 C 0.45141 0.99979 -0.03489
 C110 C 0.43228 0.98524 -0.05120
 C111 C 0.45299 0.94292 -0.03620
 C112 C 0.47184 0.95830 -0.02027
 N113 N 0.47087 0.98622 -0.02008
 H114 H 0.50374 0.99838 0.06045
 H115 H 0.53807 0.96944 -0.01240
 H116 H 0.57174 0.94063 0.01215
 H117 H 0.53672 0.97050 0.08654
 H118 H 0.45071 1.02200 -0.03390
 H119 H 0.41680 0.99642 -0.06267
 H120 H 0.45420 0.92071 -0.03629
 H121 H 0.48704 0.94786 -0.00791
 C122 C 0.43703 1.06051 0.05687
 C123 C 0.55496 1.06068 -0.04739
 C124 C 0.43291 0.95641 -0.05198
 C125 C 0.55692 0.95315 0.05143
 C126 C -0.00305 0.53863 1.03159
 H127 H 0.01945 0.53910 1.03222
 C128 C -0.01812 0.55841 1.04599
 H129 H -0.00703 0.57417 1.05760
 C130 C -0.04474 0.51817 1.01464
 H131 H -0.05508 0.50279 1.00203
 C132 C -0.06062 0.53754 1.02871
 H133 H -0.08309 0.53642 1.02719
 N134 N -0.01648 0.51893 1.01644
 C135 C 0.04318 0.45197 1.00680
 H136 H 0.04261 0.44962 0.98515
 C137 C 0.05942 0.43425 1.02217
 H138 H 0.07117 0.41815 1.01215
 C139 C 0.02748 0.47517 1.04605
 H140 H 0.01467 0.49086 1.05529
 C141 C 0.04340 0.45784 1.06222
 H142 H 0.04307 0.46075 1.08381
 Zn143 Zn 0.00540 0.49393 0.99615
 N144 N 0.02780 0.47205 1.01886
 C145 C 0.05608 0.51354 0.97569
 N146 N 0.02785 0.51499 0.97384
 C147 C 0.01485 0.53293 0.95729
 C148 C 0.03035 0.55036 0.94168
 C149 C 0.07238 0.53057 0.96042
 C150 C -0.03374 0.45228 0.98932
 C151 C -0.05057 0.43299 0.97569
 C152 C -0.03352 0.44918 0.93377
 C153 C -0.01705 0.46829 0.94824
 N154 N -0.01759 0.46957 0.97552
 H155 H 0.06606 0.49957 0.98934
 H156 H -0.00763 0.53401 0.95660
 H157 H 0.01959 0.56494 0.92910
 H158 H 0.09482 0.52903 0.96210
 H159 H -0.03348 0.45352 1.01102
 H160 H -0.06360 0.41976 0.98711
 H161 H -0.03246 0.44814 0.91210
 H162 H -0.00356 0.48175 0.93767
 C163 C 0.05965 0.43702 1.05028
 C164 C -0.04733 0.55809 1.04458
 C165 C -0.05053 0.43114 0.94752
 C166 C 0.05955 0.54947 0.94328
 C167 C 1.04252 -0.00581 0.54485
 H168 H 1.04381 0.01630 0.54381
 C169 C 1.05811 -0.01957 0.56426
 H170 H 1.07178 -0.00786 0.57778
 C171 C 1.02300 -0.04776 0.52837
 H172 H 1.00875 -0.05859 0.51480
 C173 C 1.03814 -0.06234 0.54757
 H174 H 1.03537 -0.08434 0.54848
 N175 N 1.02554 -0.02001 0.52730
 C176 C 1.01358 0.03793 0.46295
 H177 H 0.99111 0.03915 0.46245
 C178 C 1.02891 0.05310 0.44518
 H179 H 1.01801 0.06636 0.43136
 C180 C 1.05488 0.01915 0.48181
 H181 H 1.06488 0.00541 0.49570
 C182 C 1.07105 0.03385 0.46425
 H183 H 1.09341 0.03120 0.46488
 Zn184 Zn 1.00382 0.00081 0.50309
 N185 N 1.02669 0.02158 0.48095
 C186 C 0.98411 0.05193 0.52431
 N187 N 0.98104 0.02417 0.52419
 C188 C 0.96289 0.01206 0.54067
 C189 C 0.94660 0.02803 0.55792
 C190 C 0.96838 0.06867 0.54140
 C191 C 0.99596 -0.04059 0.46400
 C192 C 0.98149 -0.05730 0.44531
 C193 C 0.93867 -0.03570 0.45921
 C194 C 0.95396 -0.01954 0.47783
 N195 N 0.98208 -0.02233 0.47992
 H196 H 0.99919 0.06113 0.51163
 H197 H 0.96132 -0.01009 0.54060
 H198 H 0.93254 0.01801 0.57117
 H199 H 0.97109 0.09073 0.54127
 H200 H 1.01840 -0.04192 0.46566
 H201 H 0.99296 -0.07146 0.43256
 H202 H 0.91631 -0.03321 0.45773
 H203 H 0.94337 -0.00440 0.49014
 C204 C 1.05808 0.05109 0.44556
 C205 C 1.05592 -0.04822 0.56594
 C206 C 0.95248 -0.05485 0.44263
 C207 C 0.94938 0.05673 0.55855
 C208 C 0.13560 0.29672 1.18708
 C209 C 0.12246 0.31827 1.17383
 C210 C 0.13449 0.33002 1.15159
 C211 C 0.16064 0.32043 1.14342
 C212 C 0.17387 0.29887 1.15661
 C213 C 0.16149 0.28621 1.17854
 C214 C 0.11921 0.35227 1.13774
 C215 C 0.12312 0.35844 1.11203
 C216 C 0.10686 0.37959 1.09754
 C217 C 0.11783 0.39020 1.07415
 C218 C 0.10276 0.40917 1.05908
 C219 C 0.07620 0.41784 1.06697
 C220 C 0.06521 0.40734 1.09045
 C221 C 0.08029 0.38835 1.10554
 H222 H 0.12480 0.28825 1.20364
 H223 H 0.10244 0.32547 1.18074
 H224 H 0.17126 0.32968 1.12708
 H225 H 0.19400 0.29263 1.14947
 H226 H 0.10358 0.36318 1.14911
 H227 H 0.13873 0.34747 1.10068
 H228 H 0.13817 0.38372 1.06745
 H229 H 0.11193 0.41708 1.04125
 H230 H 0.04456 0.41318 1.09674
 H231 H 0.07057 0.38005 1.12287
 C232 C -0.12645 0.71270 1.16988
 C233 C -0.11163 0.69127 1.15758
 C234 C -0.11914 0.68139 1.13179
 C235 C -0.14167 0.69374 1.11829
 C236 C -0.15656 0.71517 1.13050
 C237 C -0.14929 0.72524 1.15660
 C238 C -0.10229 0.65908 1.11933
 C239 C -0.11184 0.64237 1.09934
 C240 C -0.09483 0.62066 1.08611
 C241 C -0.10302 0.61112 1.06031
 C242 C -0.08766 0.59084 1.04688
 C243 C -0.06382 0.57942 1.05905
 C244 C -0.05581 0.58863 1.08505
 C245 C -0.07118 0.60894 1.09851
 H246 H -0.11981 0.71898 1.18994
 H247 H -0.09423 0.68223 1.16840
 H248 H -0.14756 0.68751 1.09797
 H249 H -0.17333 0.72399 1.11883
 H250 H -0.08131 0.65654 1.12716
 H251 H -0.13289 0.64489 1.09167
 H252 H -0.12120 0.61967 1.05034
 H253 H -0.09422 0.58444 1.02675
 H254 H -0.03788 0.57981 1.09517
 H255 H -0.06466 0.61494 1.11871
 C256 C -0.15089 0.29572 0.81332
 C257 C -0.13639 0.31761 0.82575
 C258 C -0.14150 0.32554 0.85238
 C259 C -0.16244 0.31203 0.86601
 C260 C -0.17712 0.29027 0.85364
 C261 C -0.17130 0.28120 0.82715
 C262 C -0.12481 0.34797 0.86531
 C263 C -0.11892 0.34904 0.89175
 C264 C -0.10114 0.37039 0.90508
 C265 C -0.08765 0.36429 0.92944
 C266 C -0.07105 0.38387 0.94301
 C267 C -0.06783 0.41022 0.93270
 C268 C -0.08148 0.41641 0.90835
 C269 C -0.09801 0.39674 0.89468
 H270 H -0.14598 0.29058 0.79277
 H271 H -0.12069 0.32806 0.81463
 H272 H -0.16766 0.31826 0.88629
 H273 H -0.19246 0.28035 0.86546
 H274 H -0.11553 0.36271 0.85238
 H275 H -0.12598 0.33262 0.90410
 H276 H -0.08977 0.34419 0.93792
 H277 H -0.06051 0.37825 0.96149
 H278 H -0.07986 0.43668 0.90014
 H279 H -0.10876 0.40249 0.87637
 C280 C 0.13634 0.69570 0.81617
 C281 C 0.12246 0.67424 0.82818
 C282 C 0.13068 0.66540 0.85365
 C283 C 0.15311 0.67865 0.86704
 C284 C 0.16706 0.70010 0.85512
 C285 C 0.15890 0.70931 0.82945
 C286 C 0.11445 0.64340 0.86605
 C287 C 0.12442 0.62791 0.88597
 C288 C 0.10766 0.60720 0.89965
 C289 C 0.11582 0.59988 0.92569
 C290 C 0.10036 0.58103 0.93974
 C291 C 0.07646 0.56881 0.92794
 C292 C 0.06862 0.57562 0.90160
 C293 C 0.08407 0.59454 0.88755
 H294 H 0.12914 0.70121 0.79638
 H295 H 0.10515 0.66447 0.81744
 H296 H 0.15958 0.67322 0.88712
 H297 H 0.18375 0.70968 0.86673
 H298 H 0.09341 0.64027 0.85847
 H299 H 0.14550 0.63099 0.89346
 H300 H 0.13396 0.60920 0.93544
 H301 H 0.10681 0.57650 0.96009
 H302 H 0.05066 0.56611 0.89175
 H303 H 0.07762 0.59881 0.86717
 C304 C 1.13061 0.17612 0.29773
 C305 C 1.11619 0.16234 0.31726
 C306 C 1.12844 0.14033 0.33065
 C307 C 1.15552 0.13219 0.32402
 C308 C 1.16995 0.14577 0.30433
 C309 C 1.15774 0.16794 0.29056
 C310 C 1.11180 0.12546 0.35020
 C311 C 1.12304 0.11129 0.37045
 C312 C 1.10600 0.09606 0.38941
 C313 C 1.11616 0.09235 0.41566
 C314 C 1.10062 0.07790 0.43395
 C315 C 1.07472 0.06649 0.42622
 C316 C 1.06485 0.06976 0.39972
 C317 C 1.08029 0.08436 0.38152
 H318 H 1.11977 0.19257 0.28782
 H319 H 1.09521 0.16885 0.32183
 H320 H 1.16544 0.11488 0.33350
 H321 H 1.19079 0.13874 0.30028
 H322 H 1.08938 0.12719 0.34832
 H323 H 1.14531 0.11179 0.37413
 H324 H 1.13602 0.10097 0.42214
 H325 H 1.10874 0.07597 0.45425
 H326 H 1.04538 0.06060 0.39286
 H327 H 1.07229 0.08591 0.36115
 C328 C 1.13980 -0.18585 0.70118
 C329 C 1.12678 -0.17273 0.67967
 C330 C 1.13442 -0.14610 0.67304
 C331 C 1.15617 -0.13315 0.68772
 C332 C 1.16935 -0.14623 0.70914
 C333 C 1.16124 -0.17278 0.71663
 C334 C 1.11965 -0.13262 0.65052
 C335 C 1.11667 -0.10528 0.64939
 C336 C 1.10103 -0.09145 0.62762
 C337 C 1.08972 -0.06535 0.63299
 C338 C 1.07502 -0.05142 0.61306
 C339 C 1.07158 -0.06314 0.58711
 C340 C 1.08319 -0.08918 0.58162
 C341 C 1.09780 -0.10319 0.60163
 H342 H 1.13301 -0.20639 0.70520
 H343 H 1.11036 -0.18334 0.66837
 H344 H 1.16330 -0.11295 0.68261
 H345 H 1.18552 -0.13492 0.71991
 H346 H 1.10943 -0.14576 0.63548
 H347 H 1.12453 -0.09238 0.66589
 H348 H 1.09200 -0.05581 0.65281
 H349 H 1.06602 -0.03159 0.61810
 H350 H 1.08141 -0.09854 0.56170
 H351 H 1.10700 -0.12288 0.59648
 C352 C 0.82371 -0.13602 0.28886
 C353 C 0.83525 -0.12217 0.31135
 C354 C 0.86215 -0.12834 0.32080
 C355 C 0.87740 -0.14881 0.30711
 C356 C 0.86586 -0.16286 0.28473
 C357 C 0.83882 -0.15663 0.27493
 C358 C 0.87385 -0.11203 0.34403
 C359 C 0.89643 -0.11949 0.35847
 C360 C 0.90918 -0.10256 0.38076
 C361 C 0.92948 -0.11474 0.39734
 C362 C 0.94322 -0.09941 0.41768
 C363 C 0.93694 -0.07149 0.42196
 C364 C 0.91644 -0.05928 0.40565
 C365 C 0.90283 -0.07454 0.38516
 H366 H 0.80273 -0.13060 0.28289
 H367 H 0.82301 -0.10645 0.32142
 H368 H 0.89858 -0.15368 0.31298
 H369 H 0.87887 -0.17787 0.27474
 H370 H 0.86283 -0.09342 0.34952
 H371 H 0.90607 -0.13917 0.35427
 H372 H 0.93493 -0.13620 0.39440
 H373 H 0.95881 -0.10940 0.43007
 H374 H 0.91156 -0.03766 0.40819
 H375 H 0.88802 -0.06392 0.37252
 C376 C 0.81941 0.12984 0.70731
 C377 C 0.83230 0.11625 0.68589
 C378 C 0.85154 0.12981 0.67030
 C379 C 0.85698 0.15772 0.67610
 C380 C 0.84427 0.17133 0.69764
 C381 C 0.82539 0.15763 0.71392
 C382 C 0.86511 0.11408 0.64821
 C383 C 0.88867 0.12194 0.63671
 C384 C 0.90321 0.10532 0.61587
 C385 C 0.93126 0.11109 0.61122
 C386 C 0.94612 0.09559 0.59237
 C387 C 0.93324 0.07395 0.57767
 C388 C 0.90502 0.06852 0.58180
 C389 C 0.89007 0.08414 0.60054
 H390 H 0.80542 0.11795 0.71896
 H391 H 0.82750 0.09480 0.68178
 H392 H 0.87074 0.16939 0.66396
 H393 H 0.84903 0.19283 0.70090
 H394 H 0.85605 0.09442 0.64255
 H395 H 0.89897 0.14052 0.64389
 H396 H 0.94188 0.12738 0.62255
 H397 H 0.96791 0.10012 0.58976
 H398 H 0.89443 0.05231 0.57035
 H399 H 0.86827 0.07959 0.60264
 C400 C 0.27830 1.13341 0.17743
 C401 C 0.29821 1.11862 0.16301
 C402 C 0.31715 1.13214 0.14699
 C403 C 0.31567 1.16095 0.14560
 C404 C 0.29572 1.17575 0.16003
 C405 C 0.27672 1.16216 0.17602
 C406 C 0.33699 1.11533 0.13111
 C407 C 0.36048 1.12515 0.12102
 C408 C 0.37971 1.10806 0.10471
 C409 C 0.40770 1.11588 0.10343
 C410 C 0.42637 1.10046 0.08801
 C411 C 0.41735 1.07695 0.07335
 C412 C 0.38923 1.06935 0.07430
 C413 C 0.37059 1.08476 0.08969
 H414 H 0.26371 1.12222 0.18913
 H415 H 0.29867 1.09645 0.16423
 H416 H 0.32934 1.17216 0.13295
 H417 H 0.29514 1.19787 0.15861
 H418 H 0.33233 1.09368 0.12850
 H419 H 0.36666 1.14611 0.12568
 H420 H 0.41522 1.13387 0.11460
 H421 H 0.44793 1.10675 0.08782
 H422 H 0.38149 1.05176 0.06269
 H423 H 0.34898 1.07864 0.08924
 C424 C 0.71747 1.12711 -0.16087
 C425 C 0.69827 1.11333 -0.14554
 C426 C 0.67805 1.12799 -0.13117
 C427 C 0.67770 1.15684 -0.13201
 C428 C 0.69713 1.17064 -0.14710
 C429 C 0.71716 1.15591 -0.16173
 C430 C 0.65848 1.11267 -0.11469
 C431 C 0.63275 1.12161 -0.10935
 C432 C 0.61323 1.10589 -0.09318
 C433 C 0.58455 1.10812 -0.09852
 C434 C 0.56559 1.09339 -0.08372
 C435 C 0.57497 1.07657 -0.06291
 C436 C 0.60364 1.07482 -0.05716
 C437 C 0.62261 1.08929 -0.07215
 H438 H 0.73295 1.11526 -0.17160
 H439 H 0.69914 1.09113 -0.14497
 H440 H 0.66288 1.16884 -0.12060
 H441 H 0.69641 1.19284 -0.14747
 H442 H 0.66508 1.09266 -0.10799
 H443 H 0.62504 1.14022 -0.11835
 H444 H 0.57682 1.12102 -0.11441
 H445 H 0.54357 1.09536 -0.08834
 H446 H 0.61143 1.06195 -0.04127
 H447 H 0.64453 1.08772 -0.06700
 C448 C 0.29619 0.81543 -0.14463
 C449 C 0.31721 0.82910 -0.12980
 C450 C 0.31950 0.85782 -0.13021
 C451 C 0.29998 0.87264 -0.14559
 C452 C 0.27906 0.85895 -0.16052
 C453 C 0.27689 0.83021 -0.16018
 C454 C 0.34168 0.87146 -0.11349
 C455 C 0.35075 0.89704 -0.11749
 C456 C 0.37240 0.91111 -0.10045
 C457 C 0.38539 0.93439 -0.11038
 C458 C 0.40518 0.94894 -0.09478
 C459 C 0.41240 0.94056 -0.06880
 C460 C 0.39946 0.91727 -0.05879
 C461 C 0.37956 0.90278 -0.07434
 H462 H 0.29518 0.79326 -0.14411
 H463 H 0.33180 0.81717 -0.11799
 H464 H 0.30022 0.89483 -0.14574
 H465 H 0.26411 0.87095 -0.17179
 H466 H 0.35139 0.85941 -0.09796
 H467 H 0.34274 0.90813 -0.13451
 H468 H 0.38019 0.94138 -0.13032
 H469 H 0.41496 0.96668 -0.10312
 H470 H 0.40421 0.91067 -0.03863
 H471 H 0.36946 0.88558 -0.06545
 C472 C 0.72470 0.83780 0.12093
 C473 C 0.70371 0.85115 0.10645
 C474 C 0.68363 0.86712 0.11969
 C475 C 0.68512 0.86959 0.14789
 C476 C 0.70612 0.85621 0.16239
 C477 C 0.72624 0.84024 0.14909
 C478 C 0.66254 0.88185 0.10326
 C479 C 0.63845 0.89159 0.11279
 C480 C 0.61790 0.90693 0.09629
 C481 C 0.59014 0.90816 0.10435
 C482 C 0.57027 0.92295 0.08973
 C483 C 0.57781 0.93699 0.06676
 C484 C 0.60564 0.93596 0.05879
 C485 C 0.62550 0.92124 0.07343
 H486 H 0.74011 0.82610 0.10998
 H487 H 0.70328 0.84913 0.08475
 H488 H 0.67059 0.88229 0.15891
 H489 H 0.70661 0.85840 0.18405
 H490 H 0.66684 0.88383 0.08220
 H491 H 0.63285 0.88743 0.13317
 H492 H 0.58376 0.89753 0.12198
 H493 H 0.54896 0.92322 0.09627
 H494 H 0.61221 0.94712 0.04157
 H495 H 0.64684 0.92175 0.06709
   
