data_POSCAR
  _audit_creation_date              2014-09-24
  _audit_creation_method            'ToBaCCo'
  _symmetry_space_group_name_H-M    'P1'
  _symmetry_Int_Tables_number       1
  _symmetry_cell_setting            triclinic
  loop_
  _symmetry_equiv_pos_as_xyz
 x,y,z
_cell_length_a 30.8123
_cell_length_b 32.6253
_cell_length_c 33.7379
_cell_angle_alpha 90.915600
_cell_angle_beta 87.507700
_cell_angle_gamma 89.893100
loop_
  _atom_site_label
  _atom_site_type_symbol
  _atom_site_fract_x
  _atom_site_fract_y
  _atom_site_fract_z
N1 N 0.18552 1.30665 0.16572
 N2 N 0.17784 1.31664 0.20332
 C3 C 0.16401 1.35570 0.20615
 C4 C 0.16152 1.37068 0.16818
 C5 C 0.17558 1.33882 0.14316
 H6 H 0.15309 1.37074 0.23361
 H7 H 0.17719 1.33858 0.11105
 Cu8 Cu 0.17829 1.27607 0.24497
 Cu9 Cu 0.20560 1.25144 0.15025
 Cu10 Cu 0.15399 1.18180 0.21186
 N11 N 0.16017 1.23306 0.28121
 N12 N 0.14936 1.19654 0.26791
 C13 C 0.13567 1.17340 0.29860
 C14 C 0.13838 1.19659 0.33300
 C15 C 0.15406 1.23441 0.32097
 H16 H 0.12480 1.14199 0.29601
 H17 H 0.15995 1.26103 0.33947
 N18 N 0.18039 1.16690 0.15924
 N19 N 0.20344 1.19261 0.13708
 C20 C 0.22599 1.17122 0.10849
 C21 C 0.21595 1.13016 0.11270
 C22 C 0.18675 1.12864 0.14485
 H23 H 0.24970 1.18425 0.08775
 H24 H 0.17484 1.10130 0.15937
 H25 H 0.15425 1.23881 0.18641
 H26 H 0.20675 1.21915 0.20460
 N27 N 0.79625 0.77683 0.14088
 N28 N 0.83552 0.77135 0.15357
 C29 C 0.85243 0.73660 0.13717
 C30 C 0.82185 0.71943 0.11315
 C31 C 0.78659 0.74570 0.11622
 H32 H 0.88433 0.72454 0.14256
 H33 H 0.75655 0.74284 0.10099
 Cu34 Cu 0.85985 0.80971 0.19122
 Cu35 Cu 0.76281 0.82592 0.15455
 Cu36 Cu 0.80164 0.89091 0.22701
 N37 N 0.87312 0.83730 0.24065
 N38 N 0.85110 0.86938 0.25457
 C39 C 0.86844 0.88250 0.28856
 C40 C 0.90269 0.85674 0.29647
 C41 C 0.90459 0.82839 0.26548
 H42 H 0.85676 0.90848 0.30632
 H43 H 0.92733 0.80329 0.26100
 N44 N 0.74521 0.89950 0.20228
 N45 N 0.73012 0.87388 0.17547
 C46 C 0.69203 0.88816 0.16339
 C47 C 0.68270 0.92451 0.18323
 C48 C 0.71693 0.93093 0.20783
 H49 H 0.67317 0.87414 0.14056
 H50 H 0.72152 0.95706 0.22731
 H51 H 0.81149 0.86520 0.17133
 H52 H 0.78698 0.83229 0.21087
 N53 N 0.80131 1.22544 -0.12370
 N54 N 0.82679 1.24433 -0.14974
 C55 C 0.84886 1.27397 -0.13109
 C56 C 0.83666 1.27325 -0.09118
 C57 C 0.80646 1.24210 -0.08751
 H58 H 0.87287 1.29369 -0.14524
 H59 H 0.78970 1.23204 -0.06058
 Cu60 Cu 0.83154 1.22562 -0.20458
 Cu61 Cu 0.76452 1.17978 -0.13846
 Cu62 Cu 0.75969 1.15835 -0.23910
 N63 N 0.84440 1.19258 -0.25206
 N64 N 0.81684 1.16559 -0.26563
 C65 C 0.83609 1.14479 -0.29656
 C66 C 0.87804 1.15949 -0.30220
 C67 C 0.88194 1.19007 -0.27368
 H68 H 0.82138 1.11971 -0.31245
 H69 H 0.91058 1.20778 -0.26757
 N70 N 0.71506 1.13986 -0.19991
 N71 N 0.71821 1.14657 -0.16143
 C72 C 0.68343 1.13036 -0.14207
 C73 C 0.65708 1.11285 -0.16962
 C74 C 0.67801 1.11930 -0.20610
 H75 H 0.67700 1.13226 -0.11032
 H76 H 0.66712 1.10991 -0.23490
 H77 H 0.79577 1.16035 -0.19119
 H78 H 0.75642 1.20378 -0.19333
 N79 N 0.19403 0.69259 -0.20510
 N80 N 0.16895 0.70788 -0.23182
 C81 C 0.13150 0.68672 -0.23171
 C82 C 0.13314 0.65681 -0.20325
 C83 C 0.17325 0.66130 -0.18693
 H84 H 0.10436 0.69360 -0.24977
 H85 H 0.18598 0.64379 -0.16305
 Cu86 Cu 0.18630 0.75606 -0.26177
 Cu87 Cu 0.25138 0.71518 -0.19535
 Cu88 Cu 0.26751 0.81341 -0.23079
 N89 N 0.20759 0.80242 -0.29270
 N90 N 0.24122 0.82345 -0.28106
 C91 C 0.24904 0.85459 -0.30593
 C92 C 0.21802 0.85359 -0.33433
 C93 C 0.19217 0.82007 -0.32513
 H94 H 0.27375 0.87763 -0.30204
 H95 H 0.16376 0.81003 -0.34030
 N96 N 0.30229 0.78969 -0.18962
 N97 N 0.29811 0.75158 -0.17746
 C98 C 0.32668 0.74506 -0.14898
 C99 C 0.34922 0.78110 -0.14294
 C100 C 0.33296 0.80860 -0.16904
 H101 H 0.32899 0.71718 -0.13228
 H102 H 0.34228 0.84036 -0.17223
 H103 H 0.22549 0.77151 -0.20219
 H104 H 0.26225 0.75326 -0.24427
 C105 C 0.47288 1.02118 -0.06282
 H106 H 0.43993 1.01028 -0.06505
 C107 C 0.49455 1.03834 -0.09579
 H108 H 0.47764 1.04114 -0.12305
 C109 C 0.53519 1.02936 -0.02473
 H110 H 0.55150 1.02457 0.00249
 C111 C 0.55790 1.04701 -0.05678
 H112 H 0.59133 1.05620 -0.05353
 N113 N 0.49352 1.01667 -0.02833
 C114 C 0.38913 0.99135 0.05862
 H115 H 0.40145 0.96256 0.06904
 C116 C 0.34833 1.00531 0.07206
 H117 H 0.32965 0.98735 0.09342
 C118 C 0.39876 1.04939 0.01776
 H119 H 0.41852 1.06612 -0.00370
 C120 C 0.35827 1.06507 0.03124
 H121 H 0.34691 1.09395 0.02011
 Zn122 Zn 0.46473 0.98665 0.01240
 N123 N 0.41286 1.01274 0.03114
 C124 C 0.51228 1.01642 0.07543
 N125 N 0.50069 0.98129 0.05639
 C126 C 0.51465 0.94411 0.06839
 C127 C 0.54389 0.94154 0.09872
 C128 C 0.54115 1.01524 0.10623
 C129 C 0.48190 0.90717 -0.02146
 C130 C 0.47100 0.87036 -0.04047
 C131 C 0.39636 0.89322 -0.03956
 C132 C 0.40837 0.92881 -0.01962
 N133 N 0.45048 0.93510 -0.01061
 H134 H 0.50008 1.04557 0.06579
 H135 H 0.50369 0.91635 0.05426
 H136 H 0.55572 0.91173 0.10702
 H137 H 0.55123 1.04372 0.11983
 H138 H 0.51551 0.91367 -0.01585
 H139 H 0.49621 0.84841 -0.04907
 H140 H 0.36279 0.88910 -0.04705
 H141 H 0.38413 0.95206 -0.01270
 C142 C 0.33219 1.04228 0.05791
 C143 C 0.53791 1.05095 -0.09312
 C144 C 0.42774 0.86346 -0.04997
 C145 C 0.55807 0.97742 0.11757
 C146 C -0.03952 0.58126 1.02682
 H147 H -0.00556 0.58946 1.02361
 C148 C -0.06991 0.61004 1.04184
 H149 H -0.05914 0.64041 1.05024
 C150 C -0.09499 0.53196 1.01906
 H151 H -0.10491 0.50176 1.00964
 C152 C -0.12646 0.55991 1.03331
 H153 H -0.16008 0.55037 1.03541
 N154 N -0.05236 0.54281 1.01648
 C155 C 0.06244 0.46460 1.02467
 H156 H 0.06360 0.44974 0.99575
 C157 C 0.09005 0.45148 1.05380
 H158 H 0.11265 0.42665 1.04694
 C159 C 0.02946 0.51307 1.06953
 H160 H 0.00468 0.53580 1.07630
 C161 C 0.05664 0.50124 1.09930
 H162 H 0.05223 0.51574 1.12821
 Zn163 Zn -0.01029 0.50465 0.99573
 N164 N 0.03240 0.49444 1.03319
 C165 C 0.05705 0.53570 0.94355
 N166 N 0.01400 0.52703 0.94851
 C167 C -0.01458 0.53725 0.92073
 C168 C -0.00031 0.55683 0.88616
 C169 C 0.07273 0.55568 0.90943
 C170 C -0.05455 0.43431 1.01810
 C171 C -0.07836 0.39835 1.01383
 C172 C -0.06604 0.40235 0.94280
 C173 C -0.04233 0.43833 0.94846
 N174 N -0.03800 0.45404 0.98566
 H175 H 0.07905 0.52805 0.96643
 H176 H -0.04878 0.53084 0.92590
 H177 H -0.02406 0.56527 0.86507
 H178 H 0.10696 0.56296 0.90614
 H179 H -0.05015 0.44727 1.04737
 H180 H -0.09176 0.38394 1.04024
 H181 H -0.07004 0.39078 0.91293
 H182 H -0.02814 0.45395 0.92308
 C183 C 0.08678 0.46932 1.09196
 C184 C -0.11402 0.59950 1.04500
 C185 C -0.08510 0.38227 0.97570
 C186 C 0.04386 0.56662 0.88026
 C187 C 1.12088 -0.01966 0.52084
 H188 H 1.12744 0.00423 0.49960
 C189 C 1.15522 -0.03704 0.54043
 H190 H 1.18786 -0.02626 0.53379
 C191 C 1.07046 -0.06247 0.55524
 H192 H 1.03715 -0.07166 0.56134
 C193 C 1.10387 -0.08087 0.57531
 H194 H 1.09599 -0.10424 0.59688
 N195 N 1.07935 -0.03190 0.52912
 C196 C 1.06960 0.07306 0.49894
 H197 H 1.06803 0.07169 0.53097
 C198 C 1.08624 0.10790 0.48039
 H199 H 1.09740 0.13292 0.49866
 C200 C 1.05732 0.04138 0.43675
 H201 H 1.04633 0.01523 0.41992
 C202 C 1.07389 0.07567 0.41692
 H203 H 1.07517 0.07567 0.38480
 Zn204 Zn 1.03251 -0.00410 0.50594
 N205 N 1.05534 0.04081 0.47708
 C206 C 1.01328 0.02212 0.58371
 N207 N 0.99574 0.01900 0.54745
 C208 C 0.95854 0.03951 0.53969
 C209 C 0.93894 0.06595 0.56846
 C210 C 0.99523 0.04841 0.61280
 C211 C 1.01872 -0.08012 0.46831
 C212 C 1.00340 -0.10719 0.43989
 C213 C 0.95613 -0.05390 0.41800
 C214 C 0.97214 -0.02775 0.44735
 N215 N 1.00359 -0.04097 0.47133
 H216 H 1.04365 0.00728 0.58922
 H217 H 0.94577 0.03775 0.51042
 H218 H 0.91095 0.08406 0.56125
 H219 H 1.01136 0.05244 0.64049
 H220 H 1.04407 -0.09030 0.48684
 H221 H 1.01673 -0.13785 0.43831
 H222 H 0.93241 -0.04240 0.39816
 H223 H 0.96113 0.00370 0.44946
 C224 C 1.08837 0.10963 0.43879
 C225 C 1.14675 -0.06744 0.56874
 C226 C 0.97265 -0.09393 0.41336
 C227 C 0.95863 0.07174 0.60479
 C228 C 0.14341 0.40799 1.15767
 C229 C 0.13223 0.43918 1.18427
 C230 C 0.11179 0.46775 1.16281
 C231 C 0.11144 0.45182 1.12457
 O232 O 0.13125 0.41572 1.12138
 H233 H 0.13744 0.44064 1.21578
 H234 H 0.09765 0.49607 1.17438
 C235 C -0.17398 0.68157 1.08910
 C236 C -0.20793 0.66273 1.07082
 C237 C -0.19024 0.62902 1.05203
 C238 C -0.14665 0.62989 1.06006
 O239 O -0.13674 0.66186 1.08256
 H240 H -0.24157 0.67235 1.07118
 H241 H -0.20711 0.60696 1.03408
 C242 C -0.14665 0.29922 0.94070
 C243 C -0.15742 0.29469 0.98043
 C244 C -0.13535 0.32479 0.99934
 C245 C -0.11265 0.34563 0.96967
 O246 O -0.11956 0.32998 0.93404
 H247 H -0.17889 0.27225 0.99402
 H248 H -0.13643 0.33075 1.03097
 C249 C 0.09803 0.62886 0.80945
 C250 C 0.06107 0.62217 0.78877
 C251 C 0.03608 0.59683 0.81184
 C252 C 0.05954 0.59005 0.84517
 O253 O 0.09737 0.60932 0.84353
 H254 H 0.05303 0.63468 0.76049
 H255 H 0.00434 0.58525 0.80509
 C256 C 1.12727 0.18390 0.37133
 C257 C 1.13048 0.20762 0.40526
 C258 C 1.11641 0.18313 0.43555
 C259 C 1.10563 0.14618 0.41785
 O260 O 1.11221 0.14678 0.37886
 H261 H 1.14162 0.23895 0.40773
 H262 H 1.11412 0.19169 0.46666
 C263 C 1.21183 -0.11759 0.63635
 C264 C 1.24004 -0.08591 0.62742
 C265 C 1.22046 -0.06381 0.59931
 C266 C 1.18150 -0.08340 0.59330
 O267 O 1.17638 -0.11620 0.61567
 H268 H 1.27081 -0.07915 0.64034
 H269 H 1.23246 -0.03572 0.58631
 C270 C 0.92999 -0.14132 0.32843
 C271 C 0.96210 -0.16969 0.33472
 C272 C 0.98156 -0.15642 0.36787
 C273 C 0.96009 -0.12068 0.37968
 O274 O 0.92863 -0.11149 0.35563
 H275 H 0.97077 -0.19672 0.31712
 H276 H 1.00903 -0.17086 0.38086
 C277 C 0.91111 0.14428 0.67199
 C278 C 0.95308 0.15922 0.67078
 C279 C 0.97579 0.13421 0.64490
 C280 C 0.94614 0.10605 0.63182
 O281 O 0.90663 0.11209 0.64797
 H282 H 0.96607 0.18458 0.68753
 H283 H 1.01012 0.13585 0.63681
 C284 C 0.23810 1.09452 0.09378
 C285 C 0.22167 1.05530 0.09545
 C286 C 0.25427 1.03062 0.08069
 C287 C 0.28835 1.05657 0.07116
 O288 O 0.27851 1.09554 0.07877
 H289 H 0.19023 1.04570 0.10744
 H290 H 0.25368 0.99752 0.07821
 C291 C 0.61525 1.09275 -0.16080
 C292 C 0.58626 1.08029 -0.18849
 C293 C 0.55234 1.06352 -0.16701
 C294 C 0.56336 1.06692 -0.12778
 O295 O 0.60153 1.08467 -0.12415
 H296 H 0.58949 1.08299 -0.22040
 H297 H 0.52364 1.04973 -0.17881
 C298 C 0.37999 0.79123 -0.11236
 C299 C 0.40712 0.76413 -0.09452
 C300 C 0.43032 0.78769 -0.06902
 C301 C 0.41482 0.82709 -0.07296
 O302 O 0.38451 0.82919 -0.09927
 H303 H 0.40991 0.73140 -0.09976
 H304 H 0.45472 0.77734 -0.04932
 C305 C 0.64618 0.95174 0.17529
 C306 C 0.63870 0.99000 0.19213
 C307 C 0.60364 1.00509 0.17352
 C308 C 0.59240 0.97474 0.14679
 O309 O 0.61818 0.94244 0.14805
 H310 H 0.65713 1.00539 0.21450
 H311 H 0.58860 1.03480 0.17859
   
