data_POSCAR
  _audit_creation_date              2014-09-24
  _audit_creation_method            'ToBaCCo'
  _symmetry_space_group_name_H-M    'P1'
  _symmetry_Int_Tables_number       1
  _symmetry_cell_setting            triclinic
  loop_
  _symmetry_equiv_pos_as_xyz
 x,y,z
_cell_length_a 29.7115
_cell_length_b 29.7145
_cell_length_c 29.7004
_cell_angle_alpha 89.963600
_cell_angle_beta 90.087600
_cell_angle_gamma 90.012000
loop_
  _atom_site_label
  _atom_site_type_symbol
  _atom_site_fract_x
  _atom_site_fract_y
  _atom_site_fract_z
O1 O -0.11590 0.06398 0.00282
 O2 O 0.11518 0.06263 -0.00081
 O3 O -0.00109 0.11734 0.06014
 O4 O 0.00173 0.11727 -0.05985
 O5 O 0.00081 0.06349 -0.11545
 O6 O -0.00228 0.06341 0.11583
 O7 O 0.05983 0.11684 -0.00078
 O8 O -0.06008 0.11770 0.00259
 Zr9 Zr -0.00043 0.08022 0.00020
 O10 O 0.04009 0.04234 -0.04082
 O11 O -0.04184 0.04308 0.04121
 C12 C -0.10183 0.10541 0.00423
 C13 C 0.10151 0.10421 -0.00106
 C14 C -0.00190 0.10493 0.10191
 C15 C 0.00259 0.10507 -0.10172
 H16 H 0.05932 0.06092 0.06041
 O17 O 0.03995 0.04197 0.04107
 H18 H -0.06100 0.06245 -0.05976
 O19 O -0.04184 0.04300 -0.04066
 O20 O 0.11447 -0.05912 0.00231
 O21 O -0.11708 -0.05769 -0.00127
 O22 O 0.05881 -0.00089 0.11612
 O23 O 0.05871 0.00275 -0.11570
 O24 O -0.06313 0.00023 -0.11526
 O25 O -0.06290 0.00334 0.11579
 O26 O 0.00021 -0.11408 0.06232
 O27 O -0.00298 -0.11410 -0.06147
 O28 O 0.00032 -0.05829 0.11615
 O29 O -0.00317 -0.05831 -0.11552
 O30 O 0.11439 -0.00132 0.06198
 O31 O -0.11691 0.00329 0.06012
 O32 O -0.11695 0.00072 -0.05972
 O33 O 0.11443 0.00249 -0.06156
 O34 O 0.05996 -0.11446 0.00240
 O35 O -0.06364 -0.11383 -0.00110
 Zr36 Zr 0.07826 0.00152 0.00021
 Zr37 Zr -0.07986 0.00246 0.00024
 Zr38 Zr -0.00153 0.00203 0.07938
 Zr39 Zr -0.00163 0.00210 -0.07889
 Zr40 Zr -0.00159 -0.07802 0.00034
 O41 O -0.04215 -0.03889 -0.04045
 O42 O 0.03910 -0.03897 0.04085
 C43 C 0.10162 -0.10080 0.00366
 C44 C -0.10521 -0.09972 -0.00176
 C45 C 0.10053 -0.00275 0.10355
 C46 C 0.10055 0.00293 -0.10320
 C47 C -0.10471 -0.00082 -0.10153
 C48 C -0.10443 0.00353 0.10188
 C49 C 0.00142 -0.10020 0.10398
 C50 C -0.00356 -0.10014 -0.10307
 H51 H -0.06115 -0.05793 0.06007
 O52 O -0.04190 -0.03881 0.04083
 H53 H 0.05815 -0.05826 -0.05930
 O54 O 0.03898 -0.03895 -0.04019
 O55 O 0.38343 0.55994 -0.00217
 O56 O 0.61529 0.56032 0.00082
 O57 O 0.49578 0.61685 0.05918
 O58 O 0.50310 0.61588 -0.06070
 O59 O 0.50413 0.56132 -0.11575
 O60 O 0.49393 0.56322 0.11499
 O61 O 0.56101 0.61575 -0.00112
 O62 O 0.43744 0.61567 -0.00105
 Zr63 Zr 0.49921 0.57944 -0.00049
 O64 O 0.54095 0.54065 -0.03974
 O65 O 0.45698 0.54156 0.03934
 C66 C 0.39584 0.60177 -0.00157
 C67 C 0.60269 0.60205 -0.00111
 C68 C 0.49342 0.60477 0.10102
 C69 C 0.50560 0.60289 -0.10220
 H70 H 0.55756 0.56072 0.06110
 O71 O 0.53890 0.54131 0.04150
 H72 H 0.44063 0.55984 -0.06198
 O73 O 0.45929 0.54084 -0.04196
 O74 O 0.61489 0.43855 0.00473
 O75 O 0.38413 0.43826 -0.00494
 O76 O 0.55602 0.49992 0.11768
 O77 O 0.56199 0.50108 -0.11411
 O78 O 0.44009 0.49806 -0.11723
 O79 O 0.43434 0.50248 0.11384
 O80 O 0.50028 0.38553 0.06263
 O81 O 0.49942 0.38449 -0.06093
 O82 O 0.49827 0.44140 0.11646
 O83 O 0.50048 0.43971 -0.11550
 O84 O 0.61296 0.49849 0.06514
 O85 O 0.38172 0.50089 0.05687
 O86 O 0.38498 0.49738 -0.06300
 O87 O 0.61637 0.50100 -0.05858
 O88 O 0.55934 0.38449 0.00336
 O89 O 0.43950 0.38410 -0.00288
 Zr90 Zr 0.57854 0.49995 0.00227
 Zr91 Zr 0.42039 0.49968 -0.00208
 Zr92 Zr 0.49668 0.50147 0.07915
 Zr93 Zr 0.50066 0.50026 -0.07908
 Zr94 Zr 0.49933 0.42124 0.00058
 O95 O 0.45949 0.45901 -0.04174
 O96 O 0.53868 0.46007 0.04237
 C97 C 0.60103 0.39702 0.00481
 C98 C 0.39790 0.39672 -0.00562
 C99 C 0.59819 0.49819 0.10648
 C100 C 0.60350 0.50129 -0.10056
 C101 C 0.39818 0.49643 -0.10452
 C102 C 0.39316 0.50204 0.09892
 C103 C 0.50038 0.39959 0.10418
 C104 C 0.49989 0.39800 -0.10268
 H105 H 0.43801 0.44031 0.05876
 O106 O 0.45760 0.45966 0.04006
 H107 H 0.56020 0.44035 -0.05790
 O108 O 0.54060 0.45969 -0.03928
 O109 O -0.11457 0.56297 0.50504
 O110 O 0.11611 0.56129 0.49462
 O111 O 0.00068 0.61500 0.56223
 O112 O 0.00089 0.61602 0.43851
 O113 O -0.00073 0.56070 0.38414
 O114 O 0.00262 0.55910 0.61610
 O115 O 0.06117 0.61591 0.49652
 O116 O -0.05871 0.61656 0.50398
 Zr117 Zr 0.00102 0.57931 0.50019
 O118 O 0.04031 0.54109 0.45800
 O119 O -0.03832 0.54066 0.54198
 C120 C -0.10055 0.60449 0.50609
 C121 C 0.10265 0.60292 0.49378
 C122 C 0.00067 0.60092 0.60379
 C123 C 0.00033 0.60243 0.39677
 H124 H 0.06257 0.55968 0.55837
 O125 O 0.04271 0.54054 0.53970
 H126 H -0.06043 0.56087 0.44184
 O127 O -0.04082 0.54132 0.46033
 O128 O 0.11596 0.43964 0.49744
 O129 O -0.11589 0.44109 0.50145
 O130 O 0.06606 0.49732 0.61352
 O131 O 0.05892 0.50251 0.38250
 O132 O -0.06265 0.49972 0.38561
 O133 O -0.05583 0.50137 0.61742
 O134 O 0.00273 0.38359 0.55905
 O135 O -0.00430 0.38460 0.43914
 O136 O 0.00522 0.43723 0.61491
 O137 O -0.00497 0.43915 0.38401
 O138 O 0.11841 0.49841 0.55647
 O139 O -0.11291 0.50316 0.56469
 O140 O -0.11687 0.50040 0.44106
 O141 O 0.11453 0.50269 0.43657
 O142 O 0.06157 0.38431 0.49891
 O143 O -0.06195 0.38530 0.49934
 Zr144 Zr 0.07942 0.50018 0.49760
 Zr145 Zr -0.07875 0.50125 0.50191
 Zr146 Zr 0.00350 0.49903 0.57892
 Zr147 Zr -0.00132 0.50022 0.42070
 Zr148 Zr 0.00006 0.42106 0.49932
 O149 O -0.04173 0.46005 0.46002
 O150 O 0.04273 0.45855 0.53915
 C151 C 0.10328 0.39789 0.49828
 C152 C -0.10351 0.39926 0.50017
 C153 C 0.10721 0.49717 0.59855
 C154 C 0.10079 0.50422 0.39524
 C155 C -0.10412 0.49978 0.39907
 C156 C -0.09792 0.50351 0.60594
 C157 C 0.00476 0.39575 0.60085
 C158 C -0.00660 0.39756 0.39759
 H159 H -0.05790 0.44062 0.56091
 O160 O -0.03912 0.45972 0.54117
 H161 H 0.05855 0.44029 0.43773
 O162 O 0.04006 0.45936 0.45775
 O163 O 0.38479 0.05748 0.50276
 O164 O 0.61642 0.05838 0.49758
 O165 O 0.49900 0.11338 0.56220
 O166 O 0.50115 0.11384 0.43870
 O167 O 0.50138 0.05830 0.38447
 O168 O 0.49995 0.05756 0.61621
 O169 O 0.56215 0.11388 0.49798
 O170 O 0.43877 0.11331 0.50264
 Zr171 Zr 0.50066 0.07745 0.50035
 O172 O 0.54130 0.03883 0.45945
 O173 O 0.46071 0.03795 0.54105
 C174 C 0.39722 0.09930 0.50395
 C175 C 0.60375 0.10013 0.49645
 C176 C 0.49819 0.09936 0.60377
 C177 C 0.50145 0.10008 0.39705
 H178 H 0.56118 0.05791 0.55974
 O179 O 0.54189 0.03865 0.54062
 H180 H 0.44067 0.05738 0.44098
 O181 O 0.46018 0.03820 0.45995
 O182 O 0.61675 -0.06351 0.50090
 O183 O 0.38548 -0.06424 0.49940
 O184 O 0.56383 -0.00374 0.61543
 O185 O 0.56207 0.00096 0.38438
 O186 O 0.44043 -0.00347 0.38452
 O187 O 0.44196 -0.00074 0.61635
 O188 O 0.50288 -0.11791 0.55974
 O189 O 0.49956 -0.11759 0.43975
 O190 O 0.50363 -0.06415 0.61555
 O191 O 0.49958 -0.06352 0.38422
 O192 O 0.61744 -0.00330 0.55956
 O193 O 0.38600 -0.00070 0.56243
 O194 O 0.38507 -0.00389 0.43887
 O195 O 0.61651 0.00068 0.43965
 O196 O 0.56134 -0.11764 0.50097
 O197 O 0.44136 -0.11792 0.49896
 Zr198 Zr 0.57997 -0.00221 0.49980
 Zr199 Zr 0.42170 -0.00279 0.50048
 Zr200 Zr 0.50216 -0.00270 0.57929
 Zr201 Zr 0.50094 -0.00226 0.42100
 Zr202 Zr 0.50129 -0.08069 0.49986
 O203 O 0.45996 -0.04312 0.45913
 O204 O 0.54265 -0.04335 0.54087
 C205 C 0.60306 -0.10512 0.50142
 C206 C 0.39956 -0.10567 0.49889
 C207 C 0.60528 -0.00397 0.60138
 C208 C 0.60364 0.00263 0.39805
 C209 C 0.39871 -0.00396 0.39719
 C210 C 0.40009 0.00057 0.60398
 C211 C 0.50362 -0.10560 0.60153
 C212 C 0.49894 -0.10511 0.39799
 H213 H 0.44180 -0.06219 0.56034
 O214 O 0.46084 -0.04295 0.54101
 H215 H 0.56117 -0.06170 0.43956
 O216 O 0.54190 -0.04275 0.45895
 C217 C 0.12172 0.18519 0.00834
 C218 C 0.15294 0.22011 0.00938
 C219 C 0.19852 0.21174 0.00113
 C220 C 0.21258 0.16722 -0.00729
 C221 C 0.18124 0.13203 -0.00806
 C222 C 0.13540 0.14071 -0.00046
 C223 C 0.23010 0.25018 0.00316
 C224 C 0.26946 0.25116 -0.01865
 C225 C 0.30101 0.28960 -0.01589
 C226 C 0.34690 0.28132 -0.02251
 C227 C 0.37811 0.31616 -0.01923
 C228 C 0.36409 0.36039 -0.00975
 C229 C 0.31794 0.36906 -0.00442
 C230 C 0.28663 0.33400 -0.00747
 H231 H 0.08676 0.19319 0.01486
 H232 H 0.14133 0.25396 0.01639
 H233 H 0.24771 0.15922 -0.01240
 H234 H 0.19287 0.09812 -0.01459
 H235 H 0.21980 0.27896 0.02293
 H236 H 0.27994 0.22237 -0.03831
 H237 H 0.35875 0.24757 -0.02958
 H238 H 0.41335 0.30830 -0.02423
 H239 H 0.30603 0.40282 0.00240
 H240 H 0.25132 0.34199 -0.00378
 C241 C 0.12305 -0.31674 0.47993
 C242 C 0.15455 -0.28221 0.47646
 C243 C 0.20040 -0.29093 0.48290
 C244 C 0.21445 -0.33545 0.49129
 C245 C 0.18285 -0.37020 0.49452
 C246 C 0.13674 -0.36109 0.48943
 C247 C 0.23222 -0.25278 0.48012
 C248 C 0.27159 -0.25207 0.50203
 C249 C 0.30311 -0.21360 0.50033
 C250 C 0.34878 -0.22194 0.50833
 C251 C 0.37987 -0.18688 0.50756
 C252 C 0.36593 -0.14237 0.49928
 C253 C 0.32002 -0.13376 0.49196
 C254 C 0.28883 -0.16905 0.49249
 H255 H 0.08785 -0.30855 0.47509
 H256 H 0.14296 -0.24835 0.46942
 H257 H 0.24972 -0.34374 0.49484
 H258 H 0.19450 -0.40407 0.50132
 H259 H 0.22187 -0.22387 0.46049
 H260 H 0.28186 -0.28098 0.52171
 H261 H 0.36053 -0.25583 0.51492
 H262 H 0.41491 -0.19479 0.51384
 H263 H 0.30819 -0.09983 0.48584
 H264 H 0.25364 -0.16109 0.48765
 C265 C 0.81424 0.88261 -0.00189
 C266 C 0.77898 0.85160 -0.00096
 C267 C 0.78752 0.80526 -0.00080
 C268 C 0.83264 0.79050 -0.00124
 C269 C 0.86819 0.82163 -0.00202
 C270 C 0.85957 0.86828 -0.00217
 C271 C 0.74837 0.77409 0.00162
 C272 C 0.74973 0.73079 -0.01107
 C273 C 0.71077 0.69942 -0.00805
 C274 C 0.71958 0.65309 -0.00836
 C275 C 0.68456 0.62191 -0.00586
 C276 C 0.63940 0.63609 -0.00335
 C277 C 0.63032 0.68254 -0.00363
 C278 C 0.66558 0.71391 -0.00601
 H279 H 0.80556 0.91802 -0.00197
 H280 H 0.74470 0.86400 -0.00040
 H281 H 0.84085 0.75509 0.00011
 H282 H 0.90237 0.80897 -0.00196
 H283 H 0.71715 0.78803 0.01405
 H284 H 0.78097 0.71695 -0.02358
 H285 H 0.75388 0.64087 -0.01027
 H286 H 0.69312 0.58648 -0.00610
 H287 H 0.59599 0.69468 -0.00223
 H288 H 0.65706 0.74925 -0.00706
 C289 C 0.81500 0.37915 0.50778
 C290 C 0.78002 0.34788 0.50879
 C291 C 0.78850 0.30199 0.50218
 C292 C 0.83327 0.28785 0.49522
 C293 C 0.86850 0.31926 0.49442
 C294 C 0.85975 0.36534 0.50061
 C295 C 0.74986 0.27035 0.50447
 C296 C 0.74972 0.22940 0.48554
 C297 C 0.71116 0.19770 0.48843
 C298 C 0.71967 0.15168 0.48277
 C299 C 0.68483 0.12033 0.48543
 C300 C 0.64022 0.13418 0.49337
 C301 C 0.63137 0.18041 0.49808
 C302 C 0.66644 0.21189 0.49563
 H303 H 0.80682 0.41427 0.51302
 H304 H 0.74602 0.35970 0.51459
 H305 H 0.84150 0.25264 0.49132
 H306 H 0.90255 0.30742 0.48908
 H307 H 0.72023 0.28193 0.52214
 H308 H 0.77935 0.21774 0.46793
 H309 H 0.75361 0.13982 0.47672
 H310 H 0.69303 0.08509 0.48112
 H311 H 0.59740 0.19228 0.50379
 H312 H 0.65814 0.24717 0.49866
 C313 C 0.87908 0.18664 0.01440
 C314 C 0.84803 0.22153 0.01829
 C315 C 0.80183 0.21282 0.01553
 C316 C 0.78708 0.16806 0.01009
 C317 C 0.81823 0.13299 0.00634
 C318 C 0.86461 0.14196 0.00811
 C319 C 0.77041 0.25121 0.01915
 C320 C 0.72931 0.25100 0.00072
 C321 C 0.69785 0.28941 0.00345
 C322 C 0.65180 0.28053 -0.00069
 C323 C 0.62063 0.31545 0.00047
 C324 C 0.63480 0.36041 0.00528
 C325 C 0.68104 0.36950 0.00924
 C326 C 0.71235 0.33432 0.00830
 H327 H 0.91454 0.19486 0.01648
 H328 H 0.86021 0.25559 0.02293
 H329 H 0.75164 0.15979 0.00944
 H330 H 0.80597 0.09892 0.00210
 H331 H 0.78233 0.28093 0.03651
 H332 H 0.71751 0.22131 -0.01677
 H333 H 0.63981 0.24633 -0.00478
 H334 H 0.58533 0.30703 -0.00295
 H335 H 0.69307 0.40373 0.01264
 H336 H 0.74774 0.34261 0.01023
 C337 C 0.88180 -0.31539 0.51231
 C338 C 0.85073 -0.28042 0.51537
 C339 C 0.80451 -0.28932 0.51501
 C340 C 0.78980 -0.33434 0.51291
 C341 C 0.82095 -0.36960 0.51017
 C342 C 0.86751 -0.36064 0.50942
 C343 C 0.77310 -0.25072 0.51761
 C344 C 0.73150 -0.25165 0.50026
 C345 C 0.70006 -0.21296 0.50160
 C346 C 0.65400 -0.22177 0.49702
 C347 C 0.62283 -0.18677 0.49728
 C348 C 0.63695 -0.14174 0.50168
 C349 C 0.68318 -0.13268 0.50581
 C350 C 0.71450 -0.16793 0.50571
 H351 H 0.91718 -0.30658 0.51231
 H352 H 0.86292 -0.24611 0.51740
 H353 H 0.75437 -0.34260 0.51407
 H354 H 0.80840 -0.40379 0.50854
 H355 H 0.78559 -0.22023 0.53310
 H356 H 0.71934 -0.28222 0.48460
 H357 H 0.64197 -0.25601 0.49342
 H358 H 0.58755 -0.19520 0.49370
 H359 H 0.69519 -0.09841 0.50894
 H360 H 0.74984 -0.15954 0.50791
 C361 C 0.18466 0.37748 0.49034
 C362 C 0.21962 0.34619 0.48938
 C363 C 0.21114 0.30030 0.49613
 C364 C 0.16634 0.28621 0.50314
 C365 C 0.13110 0.31767 0.50387
 C366 C 0.13988 0.36375 0.49760
 C367 C 0.24988 0.26871 0.49401
 C368 C 0.25013 0.22771 0.51294
 C369 C 0.28900 0.19626 0.51054
 C370 C 0.28083 0.15022 0.51672
 C371 C 0.31593 0.11909 0.51461
 C372 C 0.36049 0.13318 0.50670
 C373 C 0.36899 0.17943 0.50147
 C374 C 0.33367 0.21068 0.50339
 H375 H 0.19291 0.41259 0.48505
 H376 H 0.25362 0.35800 0.48354
 H377 H 0.15810 0.25101 0.50720
 H378 H 0.09704 0.30589 0.50929
 H379 H 0.27957 0.28045 0.47655
 H380 H 0.22042 0.21588 0.53032
 H381 H 0.24695 0.13815 0.52276
 H382 H 0.30798 0.08384 0.51933
 H383 H 0.40290 0.19150 0.49574
 H384 H 0.34175 0.24599 0.49995
 C385 C 0.18241 0.87887 0.01627
 C386 C 0.21733 0.84761 0.01870
 C387 C 0.20918 0.80179 0.01120
 C388 C 0.16469 0.78765 0.00244
 C389 C 0.12951 0.81904 0.00024
 C390 C 0.13806 0.86511 0.00672
 C391 C 0.24787 0.77024 0.01388
 C392 C 0.24872 0.73003 -0.00654
 C393 C 0.28752 0.69859 -0.00432
 C394 C 0.27943 0.65284 -0.01227
 C395 C 0.31456 0.62175 -0.01113
 C396 C 0.35907 0.63562 -0.00250
 C397 C 0.36747 0.68159 0.00486
 C398 C 0.33207 0.71281 0.00396
 H399 H 0.19033 0.91398 0.02205
 H400 H 0.25107 0.85941 0.02600
 H401 H 0.15666 0.75245 -0.00206
 H402 H 0.09572 0.80726 -0.00676
 H403 H 0.27704 0.78141 0.03265
 H404 H 0.21956 0.71888 -0.02533
 H405 H 0.24563 0.64098 -0.01914
 H406 H 0.30669 0.58671 -0.01738
 H407 H 0.40133 0.69344 0.01133
 H408 H 0.34000 0.74798 0.00890
 C409 C 0.00867 0.18579 0.12190
 C410 C 0.00963 0.22083 0.15299
 C411 C 0.00017 0.21277 0.19842
 C412 C -0.00933 0.16847 0.21251
 C413 C -0.01000 0.13317 0.18132
 C414 C -0.00124 0.14154 0.13562
 C415 C 0.00212 0.25125 0.22990
 C416 C -0.02086 0.25279 0.26858
 C417 C -0.01799 0.29110 0.30023
 C418 C -0.02601 0.28291 0.34593
 C419 C -0.02246 0.31758 0.37729
 C420 C -0.01129 0.36153 0.36357
 C421 C -0.00468 0.37016 0.31756
 C422 C -0.00799 0.33528 0.28612
 H423 H 0.01609 0.19350 0.08705
 H424 H 0.01749 0.25450 0.14139
 H425 H -0.01537 0.16071 0.24756
 H426 H -0.01743 0.09943 0.19296
 H427 H 0.02287 0.27955 0.22013
 H428 H -0.04152 0.22447 0.27848
 H429 H -0.03432 0.24935 0.35754
 H430 H -0.02851 0.30980 0.41239
 H431 H 0.00346 0.40373 0.30590
 H432 H -0.00319 0.34321 0.25091
 C433 C 0.50917 0.37739 0.81618
 C434 C 0.51063 0.34602 0.78133
 C435 C 0.50340 0.30021 0.78981
 C436 C 0.49537 0.28627 0.83451
 C437 C 0.49414 0.31781 0.86964
 C438 C 0.50088 0.36381 0.86083
 C439 C 0.50611 0.26853 0.75120
 C440 C 0.48711 0.22759 0.75073
 C441 C 0.49016 0.19614 0.71194
 C442 C 0.48432 0.15007 0.72010
 C443 C 0.48700 0.11897 0.68501
 C444 C 0.49516 0.13315 0.64051
 C445 C 0.50006 0.17944 0.63202
 C446 C 0.49758 0.21065 0.66733
 H447 H 0.51495 0.41243 0.80796
 H448 H 0.51726 0.35770 0.74741
 H449 H 0.49091 0.25111 0.84277
 H450 H 0.48795 0.30617 0.90363
 H451 H 0.52412 0.28014 0.72177
 H452 H 0.46924 0.21580 0.78017
 H453 H 0.47807 0.13795 0.75393
 H454 H 0.48247 0.08368 0.69292
 H455 H 0.50593 0.19156 0.59814
 H456 H 0.50075 0.24599 0.65928
 C457 C -0.00190 0.88040 0.81493
 C458 C -0.00031 0.84933 0.77982
 C459 C -0.00078 0.80303 0.78860
 C460 C -0.00252 0.78834 0.83374
 C461 C -0.00395 0.81957 0.86909
 C462 C -0.00355 0.86603 0.86010
 C463 C 0.00235 0.77177 0.74973
 C464 C -0.01131 0.72879 0.75088
 C465 C -0.00768 0.69751 0.71204
 C466 C -0.00792 0.65118 0.72078
 C467 C -0.00484 0.62017 0.68570
 C468 C -0.00182 0.63463 0.64063
 C469 C -0.00220 0.68108 0.63166
 C470 C -0.00516 0.71224 0.66695
 H471 H -0.00136 0.91584 0.80645
 H472 H 0.00129 0.86163 0.74550
 H473 H -0.00163 0.75294 0.84211
 H474 H -0.00485 0.80731 0.90343
 H475 H 0.01609 0.78536 0.71888
 H476 H -0.02502 0.71519 0.78174
 H477 H -0.01023 0.63884 0.75504
 H478 H -0.00510 0.58470 0.69410
 H479 H -0.00048 0.69339 0.59738
 H480 H -0.00636 0.74762 0.65853
 C481 C 0.48823 -0.31504 0.11879
 C482 C 0.48541 -0.28010 0.14992
 C483 C 0.48528 -0.28908 0.19615
 C484 C 0.48671 -0.33416 0.21079
 C485 C 0.48924 -0.36940 0.17958
 C486 C 0.49040 -0.36036 0.13302
 C487 C 0.48283 -0.25047 0.22760
 C488 C 0.49932 -0.25174 0.26956
 C489 C 0.49809 -0.21302 0.30100
 C490 C 0.50165 -0.22190 0.34716
 C491 C 0.50155 -0.18688 0.37832
 C492 C 0.49833 -0.14177 0.36412
 C493 C 0.49516 -0.13266 0.31779
 C494 C 0.49511 -0.16792 0.28647
 H495 H 0.48859 -0.30617 0.08341
 H496 H 0.48390 -0.24574 0.13775
 H497 H 0.48517 -0.34250 0.24620
 H498 H 0.49032 -0.40363 0.19208
 H499 H 0.46812 -0.21969 0.21485
 H500 H 0.51417 -0.28259 0.28203
 H501 H 0.50437 -0.25621 0.35926
 H502 H 0.50433 -0.19538 0.41368
 H503 H 0.49297 -0.09834 0.30570
 H504 H 0.49372 -0.15949 0.25109
 C505 C 0.00700 0.88195 0.18432
 C506 C 0.00972 0.85091 0.21945
 C507 C 0.00883 0.80462 0.21088
 C508 C 0.00616 0.78989 0.16582
 C509 C 0.00374 0.82106 0.13034
 C510 C 0.00388 0.86769 0.13904
 C511 C 0.01193 0.77336 0.24989
 C512 C -0.00368 0.73102 0.24929
 C513 C -0.00149 0.69967 0.28835
 C514 C -0.00626 0.65355 0.27988
 C515 C -0.00536 0.62241 0.31502
 C516 C -0.00002 0.63647 0.36000
 C517 C 0.00443 0.68275 0.36877
 C518 C 0.00366 0.71408 0.33335
 H519 H 0.00762 0.91734 0.19304
 H520 H 0.01215 0.86325 0.25370
 H521 H 0.00678 0.75445 0.15763
 H522 H 0.00183 0.80846 0.09617
 H523 H 0.02667 0.78660 0.28045
 H524 H -0.01861 0.71810 0.21867
 H525 H -0.01060 0.64141 0.24575
 H526 H -0.00918 0.58713 0.30670
 H527 H 0.00833 0.69480 0.40296
 H528 H 0.00620 0.74939 0.34166
 C529 C 0.52122 -0.31711 0.87755
 C530 C 0.52536 -0.28261 0.84610
 C531 C 0.51842 -0.29109 0.80028
 C532 C 0.50890 -0.33535 0.78617
 C533 C 0.50498 -0.37007 0.81770
 C534 C 0.51053 -0.36116 0.86379
 C535 C 0.52176 -0.25301 0.76850
 C536 C 0.49914 -0.25170 0.72956
 C537 C 0.50138 -0.21335 0.69801
 C538 C 0.49276 -0.22158 0.65244
 C539 C 0.49391 -0.18659 0.62132
 C540 C 0.50317 -0.14225 0.63516
 C541 C 0.51116 -0.13374 0.68098
 C542 C 0.51028 -0.16899 0.71221
 H543 H 0.52648 -0.30915 0.91275
 H544 H 0.53327 -0.24895 0.85770
 H545 H 0.50496 -0.34346 0.75088
 H546 H 0.49729 -0.40372 0.80602
 H547 H 0.54233 -0.22465 0.77851
 H548 H 0.47848 -0.28004 0.71967
 H549 H 0.48537 -0.25535 0.64080
 H550 H 0.48707 -0.19438 0.58635
 H551 H 0.51802 -0.09992 0.69271
 H552 H 0.51563 -0.16114 0.74736
 C553 C 0.50861 0.38010 0.18586
 C554 C 0.51139 0.34895 0.22092
 C555 C 0.50829 0.30270 0.21234
 C556 C 0.50338 0.28813 0.16741
 C557 C 0.50076 0.31940 0.13214
 C558 C 0.50308 0.36581 0.14099
 C559 C 0.51153 0.27120 0.25109
 C560 C 0.49503 0.22921 0.25055
 C561 C 0.49792 0.19761 0.28921
 C562 C 0.49403 0.15146 0.28042
 C563 C 0.49565 0.12015 0.31536
 C564 C 0.50074 0.13412 0.36038
 C565 C 0.50428 0.18042 0.36942
 C566 C 0.50286 0.21190 0.33423
 H567 H 0.51105 0.41552 0.19409
 H568 H 0.51563 0.36114 0.25504
 H569 H 0.50237 0.25273 0.15909
 H570 H 0.49700 0.30720 0.09800
 H571 H 0.52743 0.28382 0.28135
 H572 H 0.47904 0.21669 0.22030
 H573 H 0.48985 0.13949 0.24621
 H574 H 0.49246 0.08484 0.30690
 H575 H 0.50790 0.19238 0.40367
 H576 H 0.50464 0.24724 0.34268
 C577 C 0.00841 0.18514 0.88012
 C578 C 0.01183 0.21994 0.84885
 C579 C 0.01203 0.21087 0.80264
 C580 C 0.00968 0.16575 0.78820
 C581 C 0.00641 0.13065 0.81956
 C582 C 0.00556 0.13982 0.86609
 C583 C 0.01571 0.24946 0.77116
 C584 C 0.00140 0.24820 0.72840
 C585 C 0.00403 0.28711 0.69722
 C586 C 0.00351 0.27847 0.65089
 C587 C 0.00449 0.31372 0.61994
 C588 C 0.00553 0.35881 0.63450
 C589 C 0.00605 0.36764 0.68098
 C590 C 0.00520 0.33216 0.71208
 H591 H 0.00819 0.19413 0.91546
 H592 H 0.01395 0.25429 0.86092
 H593 H 0.01118 0.15719 0.75286
 H594 H 0.00480 0.09640 0.80721
 H595 H 0.02974 0.28031 0.78449
 H596 H -0.01261 0.21736 0.71505
 H597 H 0.00234 0.24420 0.63851
 H598 H 0.00399 0.30541 0.58445
 H599 H 0.00648 0.40191 0.69335
 H600 H 0.00428 0.34035 0.74753
 C601 C 0.12021 -0.01510 0.18458
 C602 C 0.15137 -0.01859 0.21957
 C603 C 0.19747 -0.01337 0.21134
 C604 C 0.21197 -0.00588 0.16676
 C605 C 0.18069 -0.00258 0.13154
 C606 C 0.13438 -0.00673 0.14013
 C607 C 0.22895 -0.01691 0.25003
 C608 C 0.26983 0.00213 0.25058
 C609 C 0.30139 -0.00078 0.28924
 C610 C 0.34729 0.00565 0.28083
 C611 C 0.37854 0.00415 0.31582
 C612 C 0.36469 -0.00334 0.36053
 C613 C 0.31860 -0.00936 0.36924
 C614 C 0.28719 -0.00810 0.33395
 H615 H 0.08488 -0.01913 0.19254
 H616 H 0.13929 -0.02490 0.25340
 H617 H 0.24735 -0.00324 0.15869
 H618 H 0.19279 0.00333 0.09767
 H619 H 0.21721 -0.03500 0.27938
 H620 H 0.28144 0.02033 0.22125
 H621 H 0.35913 0.01173 0.24687
 H622 H 0.41367 0.00937 0.30767
 H623 H 0.30677 -0.01488 0.40327
 H624 H 0.25193 -0.01189 0.34208
 C625 C 0.31855 0.49020 0.87590
 C626 C 0.28424 0.48681 0.84414
 C627 C 0.29393 0.48723 0.79809
 C628 C 0.33920 0.49019 0.78427
 C629 C 0.37389 0.49327 0.81620
 C630 C 0.36405 0.49352 0.86260
 C631 C 0.25570 0.48363 0.76622
 C632 C 0.25679 0.49909 0.72389
 C633 C 0.21752 0.49722 0.69307
 C634 C 0.22543 0.49816 0.64662
 C635 C 0.18965 0.49757 0.61620
 C636 C 0.14480 0.49651 0.63148
 C637 C 0.13674 0.49582 0.67807
 C638 C 0.17269 0.49631 0.70859
 H639 H 0.30899 0.48994 0.91109
 H640 H 0.24975 0.48428 0.85570
 H641 H 0.34812 0.48932 0.74900
 H642 H 0.40831 0.49534 0.80441
 H643 H 0.22498 0.46891 0.77908
 H644 H 0.28752 0.51357 0.71080
 H645 H 0.25952 0.49925 0.63377
 H646 H 0.19732 0.49829 0.58057
 H647 H 0.10268 0.49543 0.69100
 H648 H 0.16505 0.49710 0.74416
 C649 C 0.81524 -0.00635 0.88035
 C650 C 0.78047 -0.00999 0.84910
 C651 C 0.78963 -0.01067 0.80295
 C652 C 0.83473 -0.00867 0.78849
 C653 C 0.86980 -0.00524 0.81984
 C654 C 0.86057 -0.00384 0.86632
 C655 C 0.75120 -0.01441 0.77142
 C656 C 0.75241 0.00083 0.72904
 C657 C 0.71367 -0.00181 0.69777
 C658 C 0.72240 -0.00092 0.65150
 C659 C 0.68722 -0.00224 0.62050
 C660 C 0.64215 -0.00399 0.63501
 C661 C 0.63324 -0.00469 0.68145
 C662 C 0.66864 -0.00351 0.71259
 H663 H 0.80623 -0.00576 0.91568
 H664 H 0.74609 -0.01185 0.86110
 H665 H 0.84324 -0.01059 0.75316
 H666 H 0.90407 -0.00393 0.80751
 H667 H 0.72053 -0.02913 0.78440
 H668 H 0.78310 0.01557 0.71612
 H669 H 0.75669 0.00070 0.63921
 H670 H 0.69555 -0.00150 0.58502
 H671 H 0.59896 -0.00565 0.69376
 H672 H 0.66042 -0.00281 0.74803
 C673 C -0.38522 0.49449 0.18727
 C674 C -0.35461 0.49221 0.22290
 C675 C -0.30819 0.49198 0.21488
 C676 C -0.29294 0.49302 0.16995
 C677 C -0.32361 0.49509 0.13407
 C678 C -0.37034 0.49609 0.14214
 C679 C -0.27724 0.48942 0.25421
 C680 C -0.23464 0.50430 0.25327
 C681 C -0.20295 0.50203 0.29204
 C682 C -0.15688 0.50598 0.28294
 C683 C -0.12529 0.50490 0.31765
 C684 C -0.13879 0.50022 0.36285
 C685 C -0.18502 0.49659 0.37228
 C686 C -0.21684 0.49749 0.33725
 H687 H -0.42073 0.49481 0.19547
 H688 H -0.36735 0.49100 0.25704
 H689 H -0.25744 0.49136 0.16218
 H690 H -0.31054 0.49576 0.10005
 H691 H -0.29076 0.47560 0.28505
 H692 H -0.22162 0.51853 0.22238
 H693 H -0.14513 0.50980 0.24862
 H694 H -0.09009 0.50811 0.30879
 H695 H -0.19662 0.49323 0.40667
 H696 H -0.25209 0.49551 0.34597
 C697 C 0.12035 -0.00159 0.81496
 C698 C 0.15156 -0.00305 0.77996
 C699 C 0.19780 0.00003 0.78875
 C700 C 0.21226 0.00413 0.83383
 C701 C 0.18088 0.00541 0.86908
 C702 C 0.13449 0.00255 0.86005
 C703 C 0.22928 -0.00290 0.75000
 C704 C 0.27165 0.01268 0.75071
 C705 C 0.30312 0.00928 0.71196
 C706 C 0.34941 0.01203 0.72061
 C707 C 0.38057 0.00904 0.68562
 C708 C 0.36628 0.00360 0.64072
 C709 C 0.31984 0.00164 0.63178
 C710 C 0.28855 0.00449 0.66698
 H711 H 0.08498 -0.00415 0.80648
 H712 H 0.13943 -0.00655 0.74572
 H713 H 0.24764 0.00531 0.84228
 H714 H 0.19299 0.00831 0.90336
 H715 H 0.21635 -0.01820 0.71959
 H716 H 0.28461 0.02792 0.78114
 H717 H 0.36163 0.01616 0.75475
 H718 H 0.41600 0.01118 0.69396
 H719 H 0.30761 -0.00202 0.59761
 H720 H 0.25316 0.00372 0.65854
 C721 C 0.31143 0.49405 0.11710
 C722 C 0.27591 0.49290 0.14765
 C723 C 0.28364 0.49991 0.19360
 C724 C 0.32804 0.50726 0.20868
 C725 C 0.36377 0.50818 0.17806
 C726 C 0.35583 0.50170 0.13189
 C727 C 0.24481 0.49758 0.22464
 C728 C 0.24372 0.51903 0.26422
 C729 C 0.20577 0.51549 0.29624
 C730 C 0.21463 0.52319 0.34188
 C731 C 0.18048 0.51947 0.37369
 C732 C 0.13629 0.50840 0.36060
 C733 C 0.12698 0.50182 0.31469
 C734 C 0.16141 0.50530 0.28273
 H735 H 0.30398 0.48850 0.08184
 H736 H 0.24214 0.48672 0.13526
 H737 H 0.33554 0.51131 0.24409
 H738 H 0.39757 0.51379 0.19058
 H739 H 0.21617 0.47778 0.21393
 H740 H 0.27239 0.53894 0.27468
 H741 H 0.24833 0.53155 0.35309
 H742 H 0.18885 0.52546 0.40869
 H743 H 0.09322 0.49374 0.30351
 H744 H 0.15295 0.50061 0.24763
 C745 C 0.81457 -0.00623 0.12161
 C746 C 0.77963 -0.00789 0.15271
 C747 C 0.78794 -0.00019 0.19843
 C748 C 0.83238 0.00838 0.21275
 C749 C 0.86759 0.00977 0.18153
 C750 C 0.85899 0.00265 0.13557
 C751 C 0.74957 -0.00299 0.22991
 C752 C 0.74836 0.01864 0.26937
 C753 C 0.71013 0.01499 0.30097
 C754 C 0.71853 0.02148 0.34687
 C755 C 0.68390 0.01739 0.37815
 C756 C 0.63976 0.00722 0.36416
 C757 C 0.63097 0.00197 0.31800
 C758 C 0.66583 0.00583 0.28663
 H759 H 0.80666 -0.01240 0.08654
 H760 H 0.74583 -0.01499 0.14093
 H761 H 0.84030 0.01307 0.24799
 H762 H 0.90146 0.01633 0.19336
 H763 H 0.72109 -0.02319 0.21948
 H764 H 0.77686 0.03875 0.27990
 H765 H 0.75220 0.02909 0.35869
 H766 H 0.69185 0.02234 0.41339
 H767 H 0.59727 -0.00533 0.30613
 H768 H 0.65775 0.00222 0.25129
 C769 C -0.37492 0.49272 0.81853
 C770 C -0.34319 0.49137 0.78406
 C771 C -0.29743 0.49831 0.79311
 C772 C -0.28393 0.50605 0.83802
 C773 C -0.31587 0.50715 0.87282
 C774 C -0.36182 0.50062 0.86342
 C775 C -0.26550 0.49565 0.75472
 C776 C -0.22410 0.51366 0.75473
 C777 C -0.19302 0.51091 0.71563
 C778 C -0.14666 0.51486 0.72347
 C779 C -0.11604 0.51238 0.68793
 C780 C -0.13101 0.50632 0.64332
 C781 C -0.17754 0.50330 0.63523
 C782 C -0.20824 0.50563 0.67093
 H783 H -0.40988 0.48709 0.80982
 H784 H -0.35458 0.48501 0.74998
 H785 H -0.24886 0.51038 0.84670
 H786 H -0.30460 0.51305 0.90700
 H787 H -0.27739 0.47850 0.72486
 H788 H -0.21175 0.53045 0.78460
 H789 H -0.13399 0.51946 0.75739
 H790 H -0.08051 0.51537 0.69556
 H791 H -0.19030 0.49911 0.60131
 H792 H -0.24376 0.50406 0.66313
   
