data_POSCAR
  _audit_creation_date              2014-09-24
  _audit_creation_method            'ToBaCCo'
  _symmetry_space_group_name_H-M    'P1'
  _symmetry_Int_Tables_number       1
  _symmetry_cell_setting            triclinic
  loop_
  _symmetry_equiv_pos_as_xyz
 x,y,z
_cell_length_a 52.2903
_cell_length_b 49.5429
_cell_length_c 37.0336
_cell_angle_alpha 90.146600
_cell_angle_beta 89.982400
_cell_angle_gamma 90.064100
loop_
  _atom_site_label
  _atom_site_type_symbol
  _atom_site_fract_x
  _atom_site_fract_y
  _atom_site_fract_z
O1 O 0.24251 0.27594 0.20335
 O2 O 0.28248 0.22388 0.24598
 O3 O 0.24261 0.22328 0.20368
 O4 O 0.28231 0.27615 0.24582
 O5 O 0.25707 0.27598 0.29355
 O6 O 0.21669 0.22420 0.25059
 O7 O 0.25661 0.22335 0.29304
 O8 O 0.21733 0.27639 0.25114
 Cu9 Cu 0.26499 0.24979 0.21991
 Cu10 Cu 0.23442 0.24996 0.27688
 C11 C 0.22305 0.28507 0.21991
 C12 C 0.27645 0.21477 0.27686
 C13 C 0.22260 0.21490 0.21968
 C14 C 0.27662 0.28494 0.27706
 O15 O 0.78218 0.27648 0.25360
 O16 O 0.74326 0.22350 0.29653
 O17 O 0.78280 0.22423 0.25368
 O18 O 0.74268 0.27620 0.29671
 O19 O 0.71692 0.27573 0.24955
 O20 O 0.75673 0.22335 0.20686
 O21 O 0.71717 0.22360 0.24981
 O22 O 0.75643 0.27602 0.20644
 Cu23 Cu 0.76528 0.25016 0.27989
 Cu24 Cu 0.73428 0.24964 0.22339
 C25 C 0.77610 0.28515 0.22251
 C26 C 0.72337 0.21460 0.28071
 C27 C 0.77668 0.21496 0.22286
 C28 C 0.72283 0.28473 0.28060
 O29 O 0.74117 0.77755 0.70766
 O30 O 0.78115 0.72523 0.74986
 O31 O 0.74091 0.72499 0.70836
 O32 O 0.78149 0.77758 0.74922
 O33 O 0.75666 0.77819 0.79730
 O34 O 0.71583 0.72587 0.75625
 O35 O 0.75612 0.72562 0.79780
 O36 O 0.71636 0.77815 0.75583
 Cu37 Cu 0.76366 0.75130 0.72394
 Cu38 Cu 0.73378 0.75202 0.78164
 C39 C 0.72181 0.78669 0.72444
 C40 C 0.77554 0.71654 0.78112
 C41 C 0.72130 0.71657 0.72520
 C42 C 0.77620 0.78680 0.78041
 O43 O 0.28052 0.77796 0.75002
 O44 O 0.24146 0.72542 0.79359
 O45 O 0.28105 0.72556 0.75065
 O46 O 0.24095 0.77799 0.79279
 O47 O 0.21543 0.77729 0.74546
 O48 O 0.25512 0.72445 0.70370
 O49 O 0.21557 0.72498 0.74659
 O50 O 0.25503 0.77698 0.70260
 Cu51 Cu 0.26355 0.75180 0.77651
 Cu52 Cu 0.23274 0.75085 0.71984
 C53 C 0.27457 0.78634 0.71874
 C54 C 0.22170 0.71637 0.77768
 C55 C 0.27500 0.71610 0.71990
 C56 C 0.22121 0.78660 0.77643
 C57 C 1.01300 0.07114 0.06227
 C58 C 0.98680 0.07077 0.06267
 C59 C 0.97932 0.04741 0.04487
 N60 N 1.00013 0.03340 0.03396
 C61 C 1.02077 0.04801 0.04418
 C62 C 0.95371 0.03859 0.04129
 C63 C 0.94635 0.01525 0.02181
 C64 C 0.92238 0.00327 0.02362
 C65 C 0.92248 -0.01790 -0.00044
 C66 C 0.94639 -0.01813 -0.01665
 N67 N 0.96076 0.00223 -0.00306
 C68 C 0.95381 -0.03597 -0.04463
 C69 C 0.97940 -0.03899 -0.05623
 C70 C 0.98692 -0.05325 -0.08668
 C71 C 1.01313 -0.05302 -0.08696
 C72 C 1.02077 -0.03860 -0.05669
 N73 N 1.00012 -0.03008 -0.03791
 C74 C 1.04643 -0.03510 -0.04569
 C75 C 1.05401 -0.01689 -0.01818
 C76 C 1.07821 -0.01594 -0.00295
 C77 C 1.07834 0.00538 0.02087
 C78 C 1.05408 0.01671 0.02000
 N79 N 1.03948 0.00318 -0.00420
 C80 C 1.04654 0.03991 0.03972
 H81 H 1.02489 0.08647 0.07462
 H82 H 0.97469 0.08577 0.07530
 H83 H 1.02167 0.00914 -0.01358
 H84 H 0.90637 0.00919 0.04035
 H85 H 0.90661 -0.03141 -0.00563
 H86 H 0.97480 -0.06293 -0.10655
 H87 H 1.02518 -0.06248 -0.10709
 H88 H 1.09459 0.01179 0.03678
 H89 H 0.97823 0.00874 -0.01311
 H90 H 1.09426 -0.02905 -0.00865
 C91 C 0.51413 0.43540 0.42843
 C92 C 0.48801 0.43620 0.42612
 C93 C 0.47987 0.45613 0.44983
 N94 N 0.50026 0.46759 0.46629
 C95 C 0.52125 0.45494 0.45338
 C96 C 0.45392 0.46272 0.45630
 C97 C 0.44549 0.48338 0.48007
 C98 C 0.42015 0.48735 0.48981
 C99 C 0.41967 0.50874 0.51341
 C100 C 0.44476 0.51725 0.51789
 N101 N 0.46032 0.50201 0.49687
 C102 C 0.45231 0.53855 0.54125
 C103 C 0.47793 0.54489 0.55030
 C104 C 0.48501 0.56436 0.57535
 C105 C 0.51115 0.56372 0.57743
 C106 C 0.51932 0.54400 0.55342
 N107 N 0.49894 0.53248 0.53705
 C108 C 0.54530 0.53765 0.54657
 C109 C 0.55372 0.51688 0.52293
 C110 C 0.57905 0.51290 0.51313
 C111 C 0.57954 0.49128 0.48992
 C112 C 0.55446 0.48270 0.48558
 N113 N 0.53891 0.49809 0.50643
 C114 C 0.54690 0.46118 0.46255
 H115 H 0.52645 0.42216 0.41299
 H116 H 0.47639 0.42356 0.40879
 H117 H 0.51967 0.49473 0.51114
 H118 H 0.40363 0.47584 0.48118
 H119 H 0.40269 0.51679 0.52620
 H120 H 0.47265 0.57744 0.59097
 H121 H 0.52274 0.57634 0.59483
 H122 H 0.59654 0.48315 0.47730
 H123 H 0.47958 0.50532 0.49229
 H124 H 0.59556 0.52451 0.52152
 C125 C -0.01314 0.56458 -0.07431
 C126 C 0.01302 0.56531 -0.07268
 C127 C 0.02037 0.54561 -0.04826
 N128 N -0.00050 0.53295 -0.03499
 C129 C -0.02104 0.54453 -0.05072
 C130 C 0.04609 0.53922 -0.03992
 C131 C 0.05384 0.51779 -0.01708
 C132 C 0.07895 0.50920 -0.01337
 C133 C 0.07870 0.48774 0.00997
 C134 C 0.05348 0.48381 0.02036
 N135 N 0.03851 0.50252 0.00417
 C136 C 0.04530 0.46314 0.04418
 C137 C 0.01942 0.45656 0.05129
 C138 C 0.01151 0.43665 0.07507
 C139 C -0.01465 0.43592 0.07346
 C140 C -0.02200 0.45549 0.04886
 N141 N -0.00113 0.46807 0.03545
 C142 C -0.04772 0.46183 0.04043
 C143 C -0.05549 0.48317 0.01744
 C144 C -0.08062 0.49164 0.01352
 C145 C -0.08036 0.51309 -0.00984
 C146 C -0.05512 0.51714 -0.02002
 N147 N -0.04014 0.49851 -0.00371
 C148 C -0.04693 0.53790 -0.04371
 H149 H -0.02494 0.57734 -0.09112
 H150 H 0.02521 0.57862 -0.08817
 H151 H -0.02092 0.49525 -0.00868
 H152 H 0.09579 0.51725 -0.02649
 H153 H 0.09528 0.47618 0.01803
 H154 H 0.02331 0.42397 0.09199
 H155 H -0.02684 0.42269 0.08908
 H156 H -0.09696 0.52458 -0.01802
 H157 H 0.01933 0.50591 0.00937
 H158 H -0.09748 0.48352 0.02651
 C159 C 0.51154 0.94517 0.58465
 C160 C 0.48533 0.94528 0.58416
 C161 C 0.47812 0.96027 0.55431
 N162 N 0.49902 0.96921 0.53648
 C163 C 0.51949 0.96005 0.55503
 C164 C 0.45260 0.96407 0.54290
 C165 C 0.44542 0.98229 0.51537
 C166 C 0.42140 0.98324 0.49959
 C167 C 0.42165 1.00445 0.47576
 C168 C 0.44591 1.01578 0.47731
 N169 N 0.46017 1.00230 0.50182
 C170 C 0.45370 1.03893 0.45787
 C171 C 0.47946 1.04727 0.45431
 C172 C 0.48733 1.07045 0.43658
 C173 C 0.51354 1.07035 0.43704
 C174 C 0.52091 1.04712 0.45508
 N175 N 0.50002 1.03292 0.46523
 C176 C 0.54653 1.03858 0.45957
 C177 C 0.55372 1.01531 0.47924
 C178 C 0.57786 1.00372 0.47852
 C179 C 0.57742 0.98243 0.50222
 C180 C 0.55314 0.98173 0.51721
 N181 N 0.53887 1.00194 0.50323
 C182 C 0.54526 0.96353 0.54446
 H183 H 0.52338 0.93517 0.60449
 H184 H 0.47301 0.93538 0.60352
 H185 H 0.52107 1.00809 0.51248
 H186 H 0.40524 0.97017 0.50492
 H187 H 0.40565 1.01084 0.45938
 H188 H 0.47548 1.08564 0.42398
 H189 H 0.52570 1.08545 0.42480
 H190 H 0.59332 0.96916 0.50798
 H191 H 0.47787 1.00827 0.51166
 H192 H 0.59425 1.00995 0.46277
 C193 C 1.17357 0.15896 0.16781
 C194 C 1.16653 0.17068 0.20083
 C195 C 1.18302 0.18857 0.21846
 C196 C 1.20672 0.19566 0.20296
 C197 C 1.21376 0.18359 0.16989
 C198 C 1.19744 0.16521 0.15273
 C199 C 1.15562 0.14092 0.14861
 C200 C 1.16316 0.11490 0.13795
 C201 C 1.14595 0.09787 0.12005
 C202 C 1.12119 0.10689 0.11180
 C203 C 1.11377 0.13301 0.12212
 C204 C 1.13076 0.14978 0.14072
 C205 C 1.10299 0.08916 0.09256
 C206 C 1.09094 0.09816 0.06094
 C207 C 1.07312 0.08179 0.04328
 C208 C 1.06668 0.05643 0.05741
 C209 C 1.07869 0.04739 0.08902
 C210 C 1.09698 0.06352 0.10624
 H211 H 1.14822 0.16598 0.21297
 H212 H 1.17684 0.19732 0.24383
 H213 H 1.23183 0.18837 0.15711
 H214 H 1.20315 0.15641 0.12717
 H215 H 1.18225 0.10770 0.14390
 H216 H 1.15202 0.07779 0.11222
 H217 H 1.09471 0.14027 0.11615
 H218 H 1.12463 0.16984 0.14856
 H219 H 1.09539 0.11785 0.04993
 H220 H 1.06393 0.08906 0.01896
 H221 H 1.07377 0.02794 0.10039
 H222 H 1.10595 0.05632 0.13075
 C223 C 0.67117 0.65915 0.67409
 C224 C 0.69581 0.66374 0.66027
 C225 C 0.71222 0.68220 0.67706
 C226 C 0.70442 0.69617 0.70825
 C227 C 0.67999 0.69107 0.72253
 C228 C 0.66349 0.67286 0.70550
 C229 C 0.65323 0.64073 0.65524
 C230 C 0.62786 0.64872 0.64900
 C231 C 0.61097 0.63170 0.63066
 C232 C 0.61902 0.60621 0.61851
 C233 C 0.64432 0.59807 0.62503
 C234 C 0.66134 0.61527 0.64300
 C235 C 0.60096 0.58826 0.59911
 C236 C 0.59878 0.56088 0.60848
 C237 C 0.58084 0.54433 0.59122
 C238 C 0.56505 0.55486 0.56408
 C239 C 0.56766 0.58201 0.55404
 C240 C 0.58534 0.59862 0.57157
 H241 H 0.70211 0.65355 0.63594
 H242 H 0.73095 0.68566 0.66546
 H243 H 0.67341 0.70153 0.74650
 H244 H 0.64467 0.66948 0.71688
 H245 H 0.62119 0.66834 0.65787
 H246 H 0.59149 0.63834 0.62625
 H247 H 0.65102 0.57857 0.61576
 H248 H 0.68078 0.60860 0.64766
 H249 H 0.61049 0.55247 0.62977
 H250 H 0.57904 0.52341 0.59924
 H251 H 0.55571 0.59037 0.53298
 H252 H 0.58687 0.61957 0.56357
 C253 C -0.17566 0.34322 0.16911
 C254 C -0.16783 0.33098 0.20148
 C255 C -0.18368 0.31252 0.21912
 C256 C -0.20768 0.30568 0.20467
 C257 C -0.21566 0.31809 0.17252
 C258 C -0.19988 0.33672 0.15501
 C259 C -0.15833 0.36213 0.14972
 C260 C -0.15693 0.36186 0.11181
 C261 C -0.13994 0.37887 0.09363
 C262 C -0.12380 0.39647 0.11291
 C263 C -0.12545 0.39699 0.15080
 C264 C -0.14255 0.38011 0.16897
 C265 C -0.10489 0.41368 0.09365
 C266 C -0.09936 0.43996 0.10594
 C267 C -0.08095 0.45572 0.08849
 C268 C -0.06796 0.44559 0.05826
 C269 C -0.07353 0.41957 0.04565
 C270 C -0.09178 0.40371 0.06322
 H271 H -0.14914 0.33514 0.21280
 H272 H -0.17690 0.30319 0.24373
 H273 H -0.23412 0.31337 0.16081
 H274 H -0.20670 0.34610 0.13047
 H275 H -0.16857 0.34807 0.09612
 H276 H -0.13945 0.37821 0.06442
 H277 H -0.11312 0.41006 0.16655
 H278 H -0.14338 0.38113 0.19815
 H279 H -0.10933 0.44841 0.12895
 H280 H -0.07675 0.47579 0.09856
 H281 H -0.06345 0.41142 0.02251
 H282 H -0.09519 0.38342 0.05342
 C283 C 0.32288 0.84443 0.66555
 C284 C 0.32831 0.83596 0.70091
 C285 C 0.31245 0.81738 0.71833
 C286 C 0.29076 0.80687 0.70080
 C287 C 0.28509 0.81566 0.66565
 C288 C 0.30099 0.83422 0.64821
 C289 C 0.34040 0.86324 0.64653
 C290 C 0.34674 0.85891 0.61009
 C291 C 0.36412 0.87585 0.59258
 C292 C 0.37551 0.89755 0.61107
 C293 C 0.36883 0.90218 0.64732
 C294 C 0.35150 0.88519 0.66487
 C295 C 0.39484 0.91481 0.59292
 C296 C 0.39506 0.94293 0.59834
 C297 C 0.41368 0.95900 0.58185
 C298 C 0.43241 0.94721 0.55978
 C299 C 0.43215 0.91922 0.55409
 C300 C 0.41354 0.90316 0.57049
 H301 H 0.34520 0.84319 0.71482
 H302 H 0.31739 0.81099 0.74538
 H303 H 0.26849 0.80803 0.65144
 H304 H 0.29613 0.84063 0.62114
 H305 H 0.33871 0.84202 0.59532
 H306 H 0.36867 0.87196 0.56452
 H307 H 0.37746 0.91859 0.66238
 H308 H 0.34678 0.88921 0.69285
 H309 H 0.38073 0.95250 0.61514
 H310 H 0.41363 0.98060 0.58643
 H311 H 0.44651 0.90983 0.53713
 H312 H 0.41409 0.88154 0.56619
 C313 C -0.17563 0.65826 -0.16724
 C314 C -0.16876 0.66965 -0.20060
 C315 C -0.18480 0.68823 -0.21761
 C316 C -0.20802 0.69598 -0.20157
 C317 C -0.21506 0.68438 -0.16843
 C318 C -0.19908 0.66568 -0.15150
 C319 C -0.15808 0.63927 -0.14855
 C320 C -0.15492 0.64053 -0.11089
 C321 C -0.13773 0.62339 -0.09343
 C322 C -0.12319 0.60463 -0.11321
 C323 C -0.12660 0.60311 -0.15082
 C324 C -0.14386 0.62019 -0.16826
 C325 C -0.10409 0.58721 -0.09482
 C326 C -0.10048 0.56024 -0.10570
 C327 C -0.08201 0.54417 -0.08898
 C328 C -0.06690 0.55475 -0.06106
 C329 C -0.07063 0.58149 -0.04978
 C330 C -0.08898 0.59761 -0.06657
 H331 H -0.15067 0.66471 -0.21321
 H332 H -0.17876 0.69689 -0.24305
 H333 H -0.23290 0.68980 -0.15546
 H334 H -0.20513 0.65697 -0.12611
 H335 H -0.16535 0.65518 -0.09492
 H336 H -0.13583 0.62484 -0.06438
 H337 H -0.11552 0.58909 -0.16692
 H338 H -0.14607 0.61844 -0.19724
 H339 H -0.11204 0.55150 -0.12698
 H340 H -0.07940 0.52350 -0.09783
 H341 H -0.05909 0.58992 -0.02824
 H342 H -0.09099 0.61838 -0.05790
 C343 C 0.32545 1.15698 0.32913
 C344 C 0.30043 1.16144 0.34179
 C345 C 0.28442 1.18005 0.32470
 C346 C 0.29296 1.19438 0.29432
 C347 C 0.31776 1.18960 0.28124
 C348 C 0.33386 1.17125 0.29855
 C349 C 0.34297 1.13807 0.34816
 C350 C 0.36073 1.12245 0.32872
 C351 C 0.37801 1.10571 0.34669
 C352 C 0.37782 1.10390 0.38458
 C353 C 0.35967 1.11905 0.40397
 C354 C 0.34257 1.13602 0.38602
 C355 C 0.39682 1.08678 0.40379
 C356 C 0.40732 1.09527 0.43694
 C357 C 0.42551 1.07950 0.45468
 C358 C 0.43376 1.05511 0.43946
 C359 C 0.42347 1.04649 0.40645
 C360 C 0.40503 1.06208 0.38888
 H361 H 0.29314 1.15048 0.36486
 H362 H 0.26533 1.18318 0.33526
 H363 H 0.32498 1.20049 0.25805
 H364 H 0.35314 1.16877 0.28842
 H365 H 0.36134 1.12316 0.29952
 H366 H 0.39188 1.09461 0.33084
 H367 H 0.35866 1.11785 0.43312
 H368 H 0.32940 1.14796 0.40195
 H369 H 0.40188 1.11438 0.44889
 H370 H 0.43346 1.08648 0.48004
 H371 H 0.42970 1.02767 0.39441
 H372 H 0.39710 1.05469 0.36373
 C373 C 1.17264 -0.15633 -0.17296
 C374 C 1.16671 -0.16660 -0.20731
 C375 C 1.18296 -0.18504 -0.22431
 C376 C 1.20552 -0.19385 -0.20720
 C377 C 1.21163 -0.18310 -0.17299
 C378 C 1.19541 -0.16450 -0.15616
 C379 C 1.15469 -0.13784 -0.15424
 C380 C 1.16370 -0.11492 -0.13575
 C381 C 1.14665 -0.09780 -0.11775
 C382 C 1.12031 -0.10346 -0.11757
 C383 C 1.11134 -0.12635 -0.13612
 C384 C 1.12832 -0.14330 -0.15435
 C385 C 1.10215 -0.08574 -0.09798
 C386 C 1.08263 -0.09707 -0.07676
 C387 C 1.06490 -0.08055 -0.05927
 C388 C 1.06621 -0.05240 -0.06290
 C389 C 1.08589 -0.04095 -0.08361
 C390 C 1.10380 -0.05749 -0.10091
 H391 H 1.14943 -0.16037 -0.22107
 H392 H 1.17757 -0.19264 -0.25068
 H393 H 1.22880 -0.18925 -0.15890
 H394 H 1.20035 -0.15704 -0.12954
 H395 H 1.18392 -0.11015 -0.13545
 H396 H 1.15408 -0.08037 -0.10348
 H397 H 1.09111 -0.13104 -0.13674
 H398 H 1.12087 -0.16096 -0.16807
 H399 H 1.08113 -0.11874 -0.07363
 H400 H 1.04993 -0.08970 -0.04318
 H401 H 1.08712 -0.01926 -0.08676
 H402 H 1.11855 -0.04826 -0.11730
 C403 C 0.67322 0.34126 0.33416
 C404 C 0.66483 0.32709 0.30349
 C405 C 0.68117 0.30921 0.28563
 C406 C 0.70614 0.30485 0.29838
 C407 C 0.71462 0.31926 0.32887
 C408 C 0.69836 0.33745 0.34644
 C409 C 0.65549 0.35937 0.35382
 C410 C 0.66318 0.38542 0.36428
 C411 C 0.64623 0.40248 0.38259
 C412 C 0.62146 0.39358 0.39127
 C413 C 0.61388 0.36746 0.38106
 C414 C 0.63067 0.35059 0.36232
 C415 C 0.60340 0.41147 0.41067
 C416 C 0.58923 0.40162 0.44007
 C417 C 0.57138 0.41808 0.45749
 C418 C 0.56724 0.44455 0.44556
 C419 C 0.58145 0.45454 0.41636
 C420 C 0.59959 0.43820 0.39924
 H421 H 0.64560 0.32987 0.29333
 H422 H 0.67406 0.29838 0.26225
 H423 H 0.73377 0.31635 0.33927
 H424 H 0.70521 0.34804 0.37017
 H425 H 0.68219 0.39268 0.35787
 H426 H 0.65253 0.42250 0.39033
 H427 H 0.59482 0.36022 0.38718
 H428 H 0.62436 0.33051 0.35481
 H429 H 0.59195 0.38115 0.44952
 H430 H 0.56044 0.41007 0.47988
 H431 H 0.57826 0.47487 0.40665
 H432 H 0.61011 0.44615 0.37642
 C433 C 0.82581 -0.15655 -0.16995
 C434 C 0.83117 -0.16666 -0.20458
 C435 C 0.81457 -0.18494 -0.22126
 C436 C 0.79223 -0.19377 -0.20355
 C437 C 0.78669 -0.18318 -0.16906
 C438 C 0.80325 -0.16474 -0.15255
 C439 C 0.84411 -0.13820 -0.15161
 C440 C 0.83545 -0.11543 -0.13250
 C441 C 0.85281 -0.09845 -0.11481
 C442 C 0.87914 -0.10409 -0.11559
 C443 C 0.88777 -0.12682 -0.13477
 C444 C 0.87046 -0.14364 -0.15267
 C445 C 0.89763 -0.08648 -0.09636
 C446 C 0.91756 -0.09791 -0.07606
 C447 C 0.93549 -0.08146 -0.05879
 C448 C 0.93397 -0.05328 -0.06174
 C449 C 0.91392 -0.04175 -0.08157
 C450 C 0.89582 -0.05822 -0.09864
 H451 H 0.84827 -0.16040 -0.21881
 H452 H 0.81953 -0.19243 -0.24786
 H453 H 0.76970 -0.18936 -0.15450
 H454 H 0.79875 -0.15743 -0.12571
 H455 H 0.81525 -0.11067 -0.13146
 H456 H 0.84563 -0.08115 -0.10005
 H457 H 0.90798 -0.13149 -0.13613
 H458 H 0.87766 -0.16119 -0.16687
 H459 H 0.91919 -0.11960 -0.07342
 H460 H 0.95074 -0.09068 -0.04337
 H461 H 0.91251 -0.02003 -0.08417
 H462 H 0.88077 -0.04890 -0.11433
 C463 C 0.32562 0.34293 0.32957
 C464 C 0.30203 0.33566 0.34500
 C465 C 0.28599 0.31708 0.32777
 C466 C 0.29311 0.30543 0.29462
 C467 C 0.31647 0.31304 0.27887
 C468 C 0.33257 0.33152 0.29618
 C469 C 0.34322 0.36177 0.34863
 C470 C 0.35769 0.38080 0.32927
 C471 C 0.37496 0.39777 0.34710
 C472 C 0.37812 0.39618 0.38473
 C473 C 0.36334 0.37745 0.40415
 C474 C 0.34615 0.36042 0.38632
 C475 C 0.39715 0.41352 0.40356
 C476 C 0.41201 0.40305 0.43192
 C477 C 0.43025 0.41912 0.44921
 C478 C 0.43412 0.44589 0.43833
 C479 C 0.41929 0.45655 0.41027
 C480 C 0.40093 0.44052 0.39304
 H481 H 0.29591 0.34441 0.37039
 H482 H 0.26804 0.31176 0.34052
 H483 H 0.32257 0.30435 0.25343
 H484 H 0.35076 0.33635 0.28380
 H485 H 0.35567 0.38260 0.30028
 H486 H 0.38622 0.41177 0.33128
 H487 H 0.36505 0.37595 0.43321
 H488 H 0.33553 0.34581 0.40202
 H489 H 0.40988 0.38225 0.44032
 H490 H 0.44159 0.41063 0.47086
 H491 H 0.42200 0.47724 0.40171
 H492 H 0.38956 0.44932 0.37167
 C493 C 0.17351 0.65840 -0.16861
 C494 C 0.16556 0.67074 -0.20086
 C495 C 0.18138 0.68920 -0.21857
 C496 C 0.20545 0.69594 -0.20431
 C497 C 0.21354 0.68347 -0.17226
 C498 C 0.19780 0.66483 -0.15468
 C499 C 0.15627 0.63942 -0.14921
 C500 C 0.15503 0.63953 -0.11128
 C501 C 0.13815 0.62242 -0.09308
 C502 C 0.12195 0.60488 -0.11235
 C503 C 0.12342 0.60452 -0.15026
 C504 C 0.14043 0.62150 -0.16845
 C505 C 0.10314 0.58756 -0.09307
 C506 C 0.09757 0.56133 -0.10553
 C507 C 0.07921 0.54550 -0.08809
 C508 C 0.06632 0.55549 -0.05768
 C509 C 0.07196 0.58145 -0.04488
 C510 C 0.09015 0.59739 -0.06245
 H511 H 0.14682 0.66663 -0.21204
 H512 H 0.17451 0.69858 -0.24310
 H513 H 0.23206 0.68811 -0.16071
 H514 H 0.20471 0.65538 -0.13024
 H515 H 0.16673 0.65326 -0.09559
 H516 H 0.13779 0.62295 -0.06386
 H517 H 0.11104 0.59151 -0.16600
 H518 H 0.14113 0.62060 -0.19764
 H519 H 0.10745 0.55300 -0.12869
 H520 H 0.07496 0.52549 -0.09830
 H521 H 0.06195 0.58949 -0.02161
 H522 H 0.09359 0.61763 -0.05251
 C523 C 0.67583 1.15713 0.33270
 C524 C 0.66863 1.16861 0.29953
 C525 C 0.68455 1.18706 0.28203
 C526 C 0.70796 1.19505 0.29755
 C527 C 0.71525 1.18343 0.33065
 C528 C 0.69951 1.16456 0.34779
 C529 C 0.65840 1.13806 0.35179
 C530 C 0.65700 1.13787 0.38973
 C531 C 0.63998 1.12071 0.40759
 C532 C 0.62353 1.10359 0.38804
 C533 C 0.62512 1.10358 0.35012
 C534 C 0.64246 1.12038 0.33228
 C535 C 0.60438 1.08638 0.40701
 C536 C 0.59731 1.06098 0.39300
 C537 C 0.57857 1.04542 0.41006
 C538 C 0.56694 1.05465 0.44187
 C539 C 0.57417 1.07967 0.45635
 C540 C 0.59253 1.09549 0.43896
 H541 H 0.65035 1.16387 0.28734
 H542 H 0.67811 1.19557 0.25670
 H543 H 0.73321 1.18880 0.34338
 H544 H 0.70600 1.15575 0.37287
 H545 H 0.66867 1.15138 0.40577
 H546 H 0.63971 1.12097 0.43681
 H547 H 0.61259 1.09099 0.33402
 H548 H 0.64327 1.11952 0.30310
 H549 H 0.60629 1.05302 0.36890
 H550 H 0.57314 1.02612 0.39855
 H551 H 0.56518 1.08715 0.48075
 H552 H 0.59698 1.11512 0.45020
 C553 C 0.17430 0.34328 0.16797
 C554 C 0.19770 0.33571 0.15220
 C555 C 0.21367 0.31705 0.16923
 C556 C 0.20667 0.30562 0.20249
 C557 C 0.18349 0.31351 0.21855
 C558 C 0.16747 0.33206 0.20145
 C559 C 0.15675 0.36222 0.14920
 C560 C 0.14263 0.38143 0.16882
 C561 C 0.12532 0.39843 0.15133
 C562 C 0.12176 0.39670 0.11377
 C563 C 0.13622 0.37782 0.09407
 C564 C 0.15346 0.36076 0.11157
 C565 C 0.10260 0.41402 0.09536
 C566 C 0.08736 0.40348 0.06736
 C567 C 0.06894 0.41952 0.05056
 C568 C 0.06529 0.44633 0.06159
 C569 C 0.08052 0.45705 0.08927
 C570 C 0.09905 0.44106 0.10599
 H571 H 0.20372 0.34428 0.12671
 H572 H 0.23147 0.31151 0.15624
 H573 H 0.17747 0.30499 0.24408
 H574 H 0.14942 0.33711 0.21408
 H575 H 0.14495 0.38333 0.19777
 H576 H 0.11431 0.41255 0.16738
 H577 H 0.13420 0.37620 0.06505
 H578 H 0.16381 0.34601 0.09567
 H579 H 0.08931 0.38266 0.05888
 H580 H 0.05730 0.41098 0.02919
 H581 H 0.07798 0.47778 0.09793
 H582 H 0.11072 0.44991 0.12708
 C583 C 0.67195 0.84367 0.67237
 C584 C 0.69529 0.83637 0.65631
 C585 C 0.71169 0.81816 0.67341
 C586 C 0.70515 0.80701 0.70706
 C587 C 0.68206 0.81483 0.72347
 C588 C 0.66562 0.83288 0.70626
 C589 C 0.65386 0.86180 0.65340
 C590 C 0.62763 0.85567 0.65259
 C591 C 0.61052 0.87238 0.63429
 C592 C 0.61924 0.89567 0.61655
 C593 C 0.64545 0.90195 0.61757
 C594 C 0.66262 0.88509 0.63567
 C595 C 0.60095 0.91324 0.59705
 C596 C 0.60219 0.94148 0.60057
 C597 C 0.58425 0.95788 0.58324
 C598 C 0.56493 0.94631 0.56194
 C599 C 0.56398 0.91817 0.55778
 C600 C 0.58177 0.90178 0.57528
 H601 H 0.70055 0.84421 0.63006
 H602 H 0.72934 0.81256 0.66007
 H603 H 0.67647 0.80666 0.74940
 H604 H 0.64790 0.83842 0.71947
 H605 H 0.62037 0.83771 0.66569
 H606 H 0.59040 0.86720 0.63427
 H607 H 0.65270 0.91969 0.60393
 H608 H 0.68272 0.89038 0.63607
 H609 H 0.61665 0.95082 0.61741
 H610 H 0.58520 0.97957 0.58677
 H611 H 0.54930 0.90894 0.54122
 H612 H 0.58059 0.88012 0.57168
 C613 C 0.82548 0.15687 0.17036
 C614 C 0.80035 0.16114 0.15806
 C615 C 0.78443 0.17989 0.17520
 C616 C 0.79317 0.19454 0.20528
 C617 C 0.81809 0.18997 0.21800
 C618 C 0.83410 0.17149 0.20063
 C619 C 0.84286 0.13778 0.15128
 C620 C 0.86080 0.12239 0.17061
 C621 C 0.87796 0.10549 0.15255
 C622 C 0.87747 0.10329 0.11469
 C623 C 0.85913 0.11819 0.09543
 C624 C 0.84215 0.13532 0.11346
 C625 C 0.89642 0.08611 0.09535
 C626 C 0.90666 0.09441 0.06200
 C627 C 0.92492 0.07868 0.04423
 C628 C 0.93350 0.05453 0.05959
 C629 C 0.92341 0.04607 0.09275
 C630 C 0.90490 0.06161 0.11037
 H631 H 0.79289 0.14992 0.13526
 H632 H 0.76525 0.18284 0.16494
 H633 H 0.82545 0.20111 0.24096
 H634 H 0.85345 0.16915 0.21047
 H635 H 0.86165 0.12342 0.19979
 H636 H 0.89199 0.09459 0.16829
 H637 H 0.85789 0.11668 0.06631
 H638 H 0.82883 0.14707 0.09761
 H639 H 0.90101 0.11336 0.04995
 H640 H 0.93272 0.08554 0.01875
 H641 H 0.92991 0.02744 0.10491
 H642 H 0.89717 0.05437 0.13568
 C643 C 0.32377 0.65775 0.66784
 C644 C 0.33151 0.67064 0.69991
 C645 C 0.31551 0.68921 0.71713
 C646 C 0.29144 0.69550 0.70256
 C647 C 0.28354 0.68241 0.67074
 C648 C 0.29948 0.66369 0.65365
 C649 C 0.34123 0.63876 0.64882
 C650 C 0.34264 0.63855 0.61090
 C651 C 0.35969 0.62143 0.59302
 C652 C 0.37589 0.60419 0.61259
 C653 C 0.37425 0.60415 0.65049
 C654 C 0.35709 0.62117 0.66838
 C655 C 0.39485 0.58687 0.59362
 C656 C 0.40035 0.56071 0.60615
 C657 C 0.41881 0.54485 0.58893
 C658 C 0.43191 0.55479 0.55872
 C659 C 0.42637 0.58069 0.54588
 C660 C 0.40805 0.59663 0.56319
 H661 H 0.35024 0.66688 0.71129
 H662 H 0.32221 0.69905 0.74150
 H663 H 0.26503 0.68668 0.65896
 H664 H 0.29273 0.65381 0.62935
 H665 H 0.33094 0.65205 0.59499
 H666 H 0.36020 0.62171 0.56380
 H667 H 0.38662 0.59136 0.66644
 H668 H 0.35626 0.62055 0.69757
 H669 H 0.39031 0.55244 0.62919
 H670 H 0.42299 0.52488 0.59918
 H671 H 0.43655 0.58869 0.52277
 H672 H 0.40466 0.61683 0.55322
   
