data_POSCAR
  _audit_creation_date              2014-09-24
  _audit_creation_method            'ToBaCCo'
  _symmetry_space_group_name_H-M    'P1'
  _symmetry_Int_Tables_number       1
  _symmetry_cell_setting            triclinic
  loop_
  _symmetry_equiv_pos_as_xyz
 x,y,z
_cell_length_a 25.2550
_cell_length_b 24.8871
_cell_length_c 32.3888
_cell_angle_alpha 89.796100
_cell_angle_beta 90.037400
_cell_angle_gamma 90.000100
loop_
  _atom_site_label
  _atom_site_type_symbol
  _atom_site_fract_x
  _atom_site_fract_y
  _atom_site_fract_z
Zr1 Zr 0.25208 0.25395 0.32231
 O2 O 0.29544 0.29751 0.36719
 O3 O 0.20083 0.20761 0.35925
 O4 O 0.20690 0.31162 0.35547
 O5 O 0.34835 0.15717 0.30749
 O6 O 0.15864 0.35262 0.30481
 O7 O 0.30707 0.20725 0.35683
 O8 O 0.15046 0.16145 0.31287
 O9 O 0.18053 0.25382 0.28918
 O10 O 0.24883 0.18112 0.28989
 O11 O 0.25489 0.32180 0.28343
 O12 O 0.32066 0.25123 0.28502
 Zr13 Zr 0.24674 0.24575 0.17695
 Zr14 Zr 0.18506 0.31925 0.24860
 Zr15 Zr 0.31411 0.18013 0.25064
 Zr16 Zr 0.17959 0.18256 0.25506
 O17 O 0.39763 0.18379 0.24621
 O18 O 0.09684 0.19739 0.25547
 O19 O 0.24456 0.17684 0.21520
 O20 O 0.17913 0.24785 0.21484
 O21 O 0.25041 0.31906 0.20887
 O22 O 0.31783 0.24553 0.21054
 C23 C 0.16384 0.17434 0.34964
 C24 C 0.34116 0.17176 0.34522
 C25 C 0.17217 0.34603 0.34288
 O26 O 0.10142 0.31504 0.25017
 O27 O 0.15476 0.34634 0.19147
 O28 O 0.19289 0.29365 0.14224
 C29 C 0.16070 0.33093 0.15381
 O30 O 0.35859 0.34829 0.29701
 Zr31 Zr 0.31983 0.31656 0.24415
 O32 O 0.29606 0.29389 0.13981
 O33 O 0.19433 0.40366 0.24578
 O34 O 0.30980 0.40115 0.24164
 O35 O 0.40262 0.30328 0.23978
 O36 O 0.34414 0.34264 0.18610
 C37 C 0.33120 0.32917 0.14933
 O38 O 0.20235 0.20294 0.13225
 O39 O 0.30508 0.09591 0.25635
 O40 O 0.29078 0.18729 0.14389
 O41 O 0.33639 0.14325 0.19460
 O42 O 0.18778 0.09809 0.26149
 O43 O 0.14756 0.14388 0.20222
 C44 C 0.32373 0.15113 0.15647
 H45 H 0.24957 0.14935 0.30836
 H46 H 0.14608 0.24639 0.19845
 H47 H 0.34949 0.24252 0.19270
 H48 H 0.25784 0.35551 0.29939
 H49 H 0.07890 0.16362 0.26375
 H50 H 0.08825 0.35254 0.24945
 H51 H 0.15823 0.41926 0.24559
 H52 H 0.34415 0.41717 0.23339
 H53 H 0.15263 0.08333 0.26906
 H54 H 0.34123 0.08043 0.25669
 H55 H 0.41060 0.14622 0.24670
 H56 H 0.41939 0.33781 0.23182
 H57 H 0.11764 0.12059 0.21063
 H58 H 0.21496 0.21419 0.10449
 H59 H 0.28303 0.28583 0.39490
 H60 H 0.38276 0.37761 0.28848
 Zr61 Zr 0.74544 0.74714 0.32318
 O62 O 0.70253 0.70335 0.36839
 O63 O 0.79661 0.79309 0.36041
 O64 O 0.79075 0.69015 0.35679
 O65 O 0.64852 0.84309 0.30684
 O66 O 0.83982 0.64965 0.30665
 O67 O 0.68898 0.79280 0.35670
 O68 O 0.84845 0.83809 0.31417
 O69 O 0.81715 0.74728 0.29039
 O70 O 0.74904 0.82011 0.29072
 O71 O 0.74297 0.67924 0.28468
 O72 O 0.67723 0.74967 0.28554
 Zr73 Zr 0.75156 0.75549 0.17793
 Zr74 Zr 0.81293 0.68198 0.25009
 Zr75 Zr 0.68415 0.82080 0.25097
 Zr76 Zr 0.81851 0.81865 0.25618
 O77 O 0.60066 0.81741 0.24566
 O78 O 0.90130 0.80410 0.25612
 O79 O 0.75383 0.82430 0.21588
 O80 O 0.81904 0.75344 0.21608
 O81 O 0.74781 0.68213 0.21012
 O82 O 0.68036 0.75551 0.21114
 C83 C 0.83482 0.82509 0.35096
 C84 C 0.65475 0.82790 0.34447
 C85 C 0.82607 0.65642 0.34458
 O86 O 0.89659 0.68622 0.25120
 O87 O 0.84270 0.65427 0.19321
 O88 O 0.80505 0.70730 0.14364
 C89 C 0.83675 0.66965 0.15547
 O90 O 0.63920 0.65270 0.29794
 Zr91 Zr 0.67823 0.68439 0.24506
 O92 O 0.70236 0.70734 0.14081
 O93 O 0.80390 0.59751 0.24846
 O94 O 0.68846 0.59982 0.24314
 O95 O 0.59547 0.69762 0.24018
 O96 O 0.65436 0.65809 0.18705
 C97 C 0.66747 0.67168 0.15028
 O98 O 0.79614 0.79796 0.13298
 O99 O 0.69341 0.90494 0.25683
 O100 O 0.70775 0.81438 0.14476
 O101 O 0.66231 0.85834 0.19525
 O102 O 0.81022 0.90297 0.26316
 O103 O 0.85029 0.85807 0.20339
 C104 C 0.67499 0.85060 0.15730
 H105 H 0.74812 0.85166 0.30925
 H106 H 0.85208 0.75481 0.19970
 H107 H 0.64881 0.75860 0.19314
 H108 H 0.74011 0.64556 0.30087
 H109 H 0.91922 0.83783 0.26439
 H110 H 0.90977 0.64871 0.25099
 H111 H 0.84005 0.58202 0.24838
 H112 H 0.65418 0.58371 0.23489
 H113 H 0.84530 0.91751 0.27111
 H114 H 0.65733 0.92059 0.25697
 H115 H 0.58767 0.85499 0.24598
 H116 H 0.57878 0.66308 0.23236
 H117 H 0.87962 0.88200 0.21191
 H118 H 0.78326 0.78687 0.10530
 H119 H 0.71460 0.71551 0.39603
 H120 H 0.61507 0.62338 0.28947
 Zr121 Zr 0.74522 0.25052 -0.32410
 O122 O 0.70393 0.29633 -0.36912
 O123 O 0.79207 0.19953 -0.36098
 O124 O 0.79308 0.30395 -0.35892
 O125 O 0.64239 0.16206 -0.30628
 O126 O 0.84603 0.34178 -0.30988
 O127 O 0.68624 0.20743 -0.35710
 O128 O 0.83998 0.15054 -0.31446
 O129 O 0.81753 0.24577 -0.29212
 O130 O 0.74419 0.17840 -0.29052
 O131 O 0.74849 0.31914 -0.28629
 O132 O 0.67767 0.25429 -0.28580
 Zr133 Zr 0.75427 0.24510 -0.17873
 Zr134 Zr 0.81899 0.31211 -0.25260
 Zr135 Zr 0.68005 0.18355 -0.25051
 Zr136 Zr 0.81429 0.17538 -0.25670
 O137 O 0.59728 0.19406 -0.24441
 O138 O 0.89782 0.18402 -0.25887
 O139 O 0.75012 0.17569 -0.21599
 O140 O 0.82082 0.24125 -0.21760
 O141 O 0.75498 0.31782 -0.21184
 O142 O 0.68233 0.24952 -0.21112
 C143 C 0.82687 0.16378 -0.35129
 C144 C 0.64989 0.17493 -0.34440
 C145 C 0.83049 0.33579 -0.34747
 O146 O 0.90202 0.30135 -0.25504
 O147 O 0.85226 0.33912 -0.19658
 O148 O 0.81161 0.29076 -0.14572
 C149 C 0.84569 0.32578 -0.15844
 O150 O 0.64674 0.35430 -0.29829
 Zr151 Zr 0.68452 0.31997 -0.24579
 O152 O 0.70906 0.29671 -0.14142
 O153 O 0.81629 0.39707 -0.25186
 O154 O 0.70109 0.40353 -0.24488
 O155 O 0.60116 0.31284 -0.23983
 O156 O 0.66394 0.34884 -0.18760
 C157 C 0.67643 0.33453 -0.15081
 O158 O 0.79717 0.20093 -0.13372
 O159 O 0.68218 0.09877 -0.25520
 O160 O 0.70816 0.18904 -0.14467
 O161 O 0.65756 0.14859 -0.19404
 O162 O 0.79981 0.09162 -0.26110
 O163 O 0.84464 0.13554 -0.20355
 C164 C 0.67260 0.15515 -0.15646
 H165 H 0.74055 0.14640 -0.30836
 H166 H 0.85405 0.23789 -0.20158
 H167 H 0.65111 0.24900 -0.19266
 H168 H 0.74753 0.35268 -0.30278
 H169 H 0.91304 0.14878 -0.26667
 H170 H 0.91795 0.33773 -0.25559
 H171 H 0.85346 0.40980 -0.25257
 H172 H 0.66842 0.42235 -0.23608
 H173 H 0.83360 0.07403 -0.26880
 H174 H 0.64494 0.08622 -0.25476
 H175 H 0.58140 0.15765 -0.24407
 H176 H 0.58715 0.34852 -0.23183
 H177 H 0.87303 0.11037 -0.21187
 H178 H 0.78561 0.21349 -0.10608
 H179 H 0.71460 0.28319 -0.39683
 H180 H 0.62460 0.38508 -0.28958
 Zr181 Zr 0.24356 0.74900 -0.32199
 O182 O 0.27653 0.70337 -0.37089
 O183 O 0.19887 0.80558 -0.35666
 O184 O 0.19374 0.69369 -0.35251
 O185 O 0.35302 0.83431 -0.31222
 O186 O 0.15010 0.65100 -0.30000
 O187 O 0.30220 0.78782 -0.35789
 O188 O 0.13766 0.82100 -0.30849
 O189 O 0.17409 0.75152 -0.28601
 O190 O 0.24729 0.82256 -0.29038
 O191 O 0.24561 0.68124 -0.28242
 O192 O 0.31484 0.74709 -0.28781
 Zr193 Zr 0.24987 0.75704 -0.17754
 Zr194 Zr 0.17806 0.68650 -0.24454
 Zr195 Zr 0.31565 0.81918 -0.25417
 Zr196 Zr 0.17974 0.82324 -0.25299
 O197 O 0.39902 0.81249 -0.24962
 O198 O 0.09763 0.82280 -0.23927
 O199 O 0.24831 0.82533 -0.21631
 O200 O 0.17932 0.75903 -0.21171
 O201 O 0.24682 0.68324 -0.20830
 O202 O 0.31861 0.75379 -0.21359
 C203 C 0.15820 0.83122 -0.34340
 C204 C 0.34247 0.81734 -0.34904
 C205 C 0.16151 0.65788 -0.33861
 O206 O 0.09493 0.69632 -0.24652
 O207 O 0.14478 0.66692 -0.18537
 O208 O 0.19857 0.71076 -0.14010
 C209 C 0.15788 0.68148 -0.14830
 O210 O 0.34658 0.64847 -0.30094
 Zr211 Zr 0.31382 0.68226 -0.24643
 O212 O 0.29943 0.70729 -0.14187
 O213 O 0.18267 0.60214 -0.23769
 O214 O 0.30004 0.59821 -0.24385
 O215 O 0.39732 0.69148 -0.24540
 O216 O 0.34056 0.65428 -0.18928
 C217 C 0.33108 0.66915 -0.15218
 O218 O 0.20991 0.80219 -0.13166
 O219 O 0.31081 0.90332 -0.26294
 O220 O 0.29652 0.81440 -0.14648
 O221 O 0.34006 0.85729 -0.19881
 O222 O 0.18728 0.90482 -0.27096
 O223 O 0.15369 0.87355 -0.20435
 C224 C 0.32862 0.85034 -0.16026
 H225 H 0.24978 0.85386 -0.30923
 H226 H 0.14817 0.76357 -0.19358
 H227 H 0.35129 0.75532 -0.19673
 H228 H 0.24637 0.64731 -0.29822
 H229 H 0.08155 0.85434 -0.25330
 H230 H 0.07945 0.65980 -0.24488
 H231 H 0.14569 0.58892 -0.23670
 H232 H 0.33413 0.58052 -0.23708
 H233 H 0.15094 0.91753 -0.27709
 H234 H 0.34773 0.91655 -0.26475
 H235 H 0.41343 0.84949 -0.25086
 H236 H 0.41289 0.65619 -0.23796
 H237 H 0.18520 0.89240 -0.19334
 H238 H 0.22301 0.79032 -0.10416
 H239 H 0.26343 0.71846 -0.39749
 H240 H 0.37109 0.61896 -0.29341
 Zr241 Zr 1.24501 1.24892 0.82260
 O242 O 1.20207 1.20519 0.86781
 O243 O 1.29437 1.29699 0.85945
 O244 O 1.29115 1.19348 0.85725
 O245 O 1.14749 1.34392 0.80470
 O246 O 1.34133 1.15290 0.80780
 O247 O 1.18819 1.29517 0.85534
 O248 O 1.34526 1.34262 0.81289
 O249 O 1.31710 1.24959 0.79025
 O250 O 1.24790 1.32114 0.78914
 O251 O 1.24400 1.18026 0.78489
 O252 O 1.17705 1.24959 0.78465
 Zr253 Zr 1.25261 1.25478 0.67738
 Zr254 Zr 1.31427 1.18343 0.75072
 Zr255 Zr 1.18331 1.32011 0.74931
 Zr256 Zr 1.31771 1.32017 0.75503
 O257 O 1.09995 1.31468 0.74391
 O258 O 1.40060 1.30638 0.75668
 O259 O 1.25326 1.32423 0.71454
 O260 O 1.31979 1.25420 0.71580
 O261 O 1.24960 1.18198 0.71039
 O262 O 1.18101 1.25416 0.71011
 C263 C 1.33125 1.33034 0.84970
 C264 C 1.15397 1.33001 0.84258
 C265 C 1.32717 1.16010 0.84559
 O266 O 1.39786 1.18891 0.75185
 O267 O 1.34421 1.15440 0.69429
 O268 O 1.30635 1.20599 0.64392
 C269 C 1.33807 1.16867 0.65632
 O270 O 1.14024 1.15218 0.79757
 Zr271 Zr 1.17964 1.18364 0.74478
 O272 O 1.20472 1.20582 0.64023
 O273 O 1.30656 1.09878 0.75043
 O274 O 1.19117 1.09921 0.74397
 O275 O 1.09675 1.19520 0.73888
 O276 O 1.15762 1.15599 0.68668
 C277 C 1.17066 1.16953 0.64985
 O278 O 1.29759 1.29702 0.63256
 O279 O 1.19091 1.40458 0.75394
 O280 O 1.20851 1.31278 0.64344
 O281 O 1.16140 1.35624 0.69327
 O282 O 1.30841 1.40463 0.75997
 O283 O 1.35013 1.35843 0.70198
 C284 C 1.17489 1.34848 0.65554
 H285 H 1.24626 1.35326 0.80704
 H286 H 1.35295 1.25559 0.69955
 H287 H 1.14962 1.25644 0.69187
 H288 H 1.24151 1.14688 0.80149
 H289 H 1.41794 1.34048 0.76478
 H290 H 1.41155 1.15159 0.75216
 H291 H 1.34293 1.08385 0.75067
 H292 H 1.15735 1.08245 0.73534
 H293 H 1.34323 1.41995 0.76777
 H294 H 1.15456 1.41960 0.75361
 H295 H 1.08616 1.35197 0.74359
 H296 H 1.08091 1.16026 0.73098
 H297 H 1.37981 1.38200 0.71035
 H298 H 1.28517 1.28547 0.60487
 H299 H 1.21352 1.21808 0.89541
 H300 H 1.11661 1.12242 0.78915
 Zr301 Zr 0.75329 0.75459 0.82231
 O302 O 0.79598 0.79927 0.86694
 O303 O 0.70417 0.70697 0.85975
 O304 O 0.70719 0.81128 0.85560
 O305 O 0.85168 0.66032 0.80703
 O306 O 0.65778 0.85112 0.80511
 O307 O 0.80940 0.70945 0.85643
 O308 O 0.65465 0.65949 0.81362
 O309 O 0.68145 0.75269 0.78966
 O310 O 0.75138 0.68162 0.78997
 O311 O 0.75439 0.82241 0.78354
 O312 O 0.82170 0.75301 0.78489
 Zr313 Zr 0.74718 0.74586 0.67725
 Zr314 Zr 0.68446 0.81807 0.74903
 Zr315 Zr 0.81631 0.68184 0.75047
 Zr316 Zr 0.68186 0.68141 0.75555
 O317 O 0.89964 0.68721 0.74500
 O318 O 0.59887 0.69452 0.75682
 O319 O 0.74658 0.67700 0.71545
 O320 O 0.67975 0.74657 0.71533
 O321 O 0.74957 0.81921 0.70916
 O322 O 0.81855 0.74724 0.71039
 C323 C 0.66826 0.67256 0.85029
 C324 C 0.84419 0.67488 0.84468
 C325 C 0.67181 0.84500 0.84306
 O326 O 0.60093 0.81208 0.75099
 O327 O 0.65333 0.84439 0.69220
 O328 O 0.69232 0.79249 0.64291
 C329 C 0.65949 0.82897 0.65464
 O330 O 0.85773 0.85010 0.79713
 Zr331 Zr 0.81921 0.81824 0.74421
 O332 O 0.79551 0.79505 0.64012
 O333 O 0.69194 0.90266 0.74593
 O334 O 0.80791 0.90270 0.74211
 O335 O 0.90219 0.80679 0.73909
 O336 O 0.84200 0.84534 0.68640
 C337 C 0.82960 0.83134 0.64972
 O338 O 0.70341 0.70289 0.63224
 O339 O 0.80942 0.59749 0.75696
 O340 O 0.79099 0.68745 0.64410
 O341 O 0.83789 0.64445 0.69455
 O342 O 0.69179 0.59710 0.76164
 O343 O 0.64976 0.64214 0.70299
 C344 C 0.82424 0.65160 0.65658
 H345 H 0.75308 0.64986 0.80842
 H346 H 0.64661 0.74433 0.69910
 H347 H 0.85005 0.74471 0.69233
 H348 H 0.75678 0.85620 0.79945
 H349 H 0.58181 0.66046 0.76553
 H350 H 0.58696 0.84928 0.75022
 H351 H 0.65554 0.91751 0.74598
 H352 H 0.84205 0.91935 0.73408
 H353 H 0.65708 0.58161 0.76957
 H354 H 0.84592 0.58287 0.75700
 H355 H 0.91338 0.64992 0.74563
 H356 H 0.91814 0.84178 0.73132
 H357 H 0.62024 0.61848 0.71164
 H358 H 0.71586 0.71450 0.60450
 H359 H 0.78410 0.78734 0.89474
 H360 H 0.88151 0.87979 0.78869
 Zr361 Zr 1.24560 0.75267 0.17604
 O362 O 1.20348 0.79926 0.13199
 O363 O 1.29402 0.70432 0.13839
 O364 O 1.29281 0.80754 0.14205
 O365 O 1.14403 0.66217 0.19213
 O366 O 1.34502 0.84494 0.19175
 O367 O 1.18742 0.70961 0.14217
 O368 O 1.34325 0.65572 0.18428
 O369 O 1.31778 0.74803 0.20818
 O370 O 1.24559 0.67945 0.20827
 O371 O 1.24778 0.82022 0.21497
 O372 O 1.17793 0.75407 0.21429
 Zr373 Zr 1.25428 0.74276 0.32122
 Zr374 Zr 1.31826 0.81324 0.24866
 Zr375 Zr 1.18124 0.68229 0.24833
 Zr376 Zr 1.31553 0.67654 0.24230
 O377 O 1.09826 0.69108 0.25430
 O378 O 1.39907 0.68572 0.24162
 O379 O 1.25125 0.67436 0.28288
 O380 O 1.32099 0.74134 0.28243
 O381 O 1.25407 0.81653 0.28942
 O382 O 1.18244 0.74718 0.28874
 C383 C 1.33023 0.66988 0.14766
 C384 C 1.15139 0.67637 0.15428
 C385 C 1.32984 0.83952 0.15396
 O386 O 1.40144 0.80385 0.24604
 O387 O 1.35099 0.83856 0.30536
 O388 O 1.31096 0.78788 0.35522
 C389 C 1.34461 0.82371 0.34320
 O390 O 1.14542 0.85387 0.20343
 Zr391 Zr 1.18372 0.81867 0.25537
 O392 O 1.20881 0.79267 0.35950
 O393 O 1.31433 0.89808 0.25108
 O394 O 1.19900 0.90242 0.25784
 O395 O 1.10044 0.81038 0.26112
 O396 O 1.16281 0.84518 0.31410
 C397 C 1.17567 0.83020 0.35067
 O398 O 1.29768 0.69711 0.36505
 O399 O 1.18500 0.59775 0.24218
 O400 O 1.20795 0.68604 0.35447
 O401 O 1.15855 0.64574 0.30428
 O402 O 1.30245 0.59288 0.23508
 O403 O 1.34532 0.63502 0.29488
 C404 C 1.17280 0.65203 0.34212
 H405 H 1.24271 0.64807 0.18970
 H406 H 1.35422 0.73790 0.29844
 H407 H 1.15113 0.74578 0.30708
 H408 H 1.24638 0.85420 0.19903
 H409 H 1.41472 0.65085 0.23335
 H410 H 1.41681 0.84048 0.24632
 H411 H 1.35132 0.91133 0.25060
 H412 H 1.16606 0.92039 0.26706
 H413 H 1.33663 0.57633 0.22711
 H414 H 1.14800 0.58451 0.24234
 H415 H 1.08300 0.65440 0.25388
 H416 H 1.08603 0.84563 0.26979
 H417 H 1.37331 0.60959 0.28624
 H418 H 1.28617 0.70850 0.39300
 H419 H 1.21431 0.78726 0.10401
 H420 H 1.12313 0.88430 0.21260
 Zr421 Zr 0.75412 1.24495 0.17831
 O422 O 0.79466 1.19975 0.13284
 O423 O 0.70537 1.29418 0.14139
 O424 O 0.70626 1.18992 0.14503
 O425 O 0.85656 1.33484 0.19461
 O426 O 0.65479 1.15200 0.19520
 O427 O 0.81277 1.28843 0.14450
 O428 O 0.65690 1.34231 0.18776
 O429 O 0.68247 1.24896 0.21124
 O430 O 0.75479 1.31750 0.21103
 O431 O 0.75224 1.17668 0.21695
 O432 O 0.82241 1.24279 0.21587
 Zr433 Zr 0.74813 1.25137 0.32390
 Zr434 Zr 0.68248 1.18312 0.25169
 Zr435 Zr 0.81965 1.31368 0.25068
 Zr436 Zr 0.68537 1.31984 0.24563
 O437 O 0.90270 1.30488 0.25630
 O438 O 0.60187 1.31032 0.24540
 O439 O 0.75021 1.32063 0.28587
 O440 O 0.68073 1.25441 0.28572
 O441 O 0.74763 1.17842 0.29149
 O442 O 0.81927 1.24783 0.29052
 C443 C 0.66948 1.32869 0.15096
 C444 C 0.84905 1.32141 0.15671
 C445 C 0.66948 1.15770 0.15735
 O446 O 0.59930 1.19270 0.24940
 O447 O 0.64956 1.15774 0.30861
 O448 O 0.69105 1.20687 0.35833
 C449 C 0.65636 1.17206 0.34650
 O450 O 0.85374 1.14383 0.20310
 Zr451 Zr 0.81723 1.17724 0.25628
 O452 O 0.79530 1.19963 0.36035
 O453 O 0.68651 1.09828 0.25428
 O454 O 0.80222 1.09337 0.25810
 O455 O 0.90063 1.18570 0.26086
 O456 O 0.84038 1.14864 0.31372
 C457 C 0.82853 1.16250 0.35053
 O458 O 0.70677 1.29509 0.36982
 O459 O 0.81573 1.39832 0.24490
 O460 O 0.79414 1.30822 0.35689
 O461 O 0.84268 1.34960 0.30661
 O462 O 0.69877 1.40361 0.23916
 O463 O 0.65616 1.36055 0.29852
 C464 C 0.82863 1.34287 0.34445
 H465 H 0.75755 1.34922 0.19262
 H466 H 0.64779 1.25783 0.30203
 H467 H 0.85094 1.24894 0.30854
 H468 H 0.75331 1.14293 0.20091
 H469 H 0.58600 1.34524 0.23733
 H470 H 0.58381 1.15612 0.24986
 H471 H 0.64952 1.08502 0.25415
 H472 H 0.83567 1.07509 0.26584
 H473 H 0.66464 1.42049 0.23133
 H474 H 0.85270 1.41163 0.24495
 H475 H 0.91792 1.34158 0.25614
 H476 H 0.91556 1.15006 0.26810
 H477 H 0.62779 1.38581 0.29015
 H478 H 0.71944 1.28264 0.39730
 H479 H 0.78293 1.21284 0.10530
 H480 H 0.87659 1.11333 0.21141
 O481 O 0.42666 1.09586 0.07377
 O482 O 0.36556 1.04724 0.03690
 C483 C 0.37844 1.08255 0.06507
 O484 O 0.57157 1.09629 -0.07479
 O485 O 0.63347 1.05007 -0.03683
 C486 C 0.62000 1.08403 -0.06580
 O487 O 0.42777 1.10067 -0.07179
 O488 O 0.36614 1.04972 -0.03715
 C489 C 0.37945 1.08681 -0.06403
 O490 O 0.56980 1.09284 0.07747
 O491 O 0.63242 1.04884 0.03889
 C492 C 0.61837 1.08169 0.06844
 Zr493 Zr 0.49888 1.06626 0.05193
 O494 O 0.50191 1.15128 0.05280
 O495 O 0.49684 1.05960 0.11708
 Zr496 Zr 0.49949 1.06959 -0.05051
 O497 O 0.49561 1.15474 -0.04899
 O498 O 0.49880 1.06726 -0.11582
 O499 O 0.45079 1.07807 0.00071
 O500 O 0.54642 1.07840 0.00104
 O501 O 0.57234 0.90843 0.07589
 O502 O 0.63379 0.95423 0.03717
 C503 C 0.62068 0.92078 0.06662
 O504 O 0.42975 0.90711 -0.07719
 O505 O 0.36724 0.95228 -0.03924
 C506 C 0.38124 0.91877 -0.06841
 O507 O 0.57177 0.91128 -0.07851
 O508 O 0.63341 0.95532 -0.03895
 C509 C 0.62011 0.92253 -0.06884
 O510 O 0.42937 0.90124 0.07205
 O511 O 0.36700 0.94955 0.03595
 C512 C 0.38087 0.91361 0.06362
 Zr513 Zr 0.50042 0.93229 0.04972
 O514 O 0.50719 0.84766 0.04466
 O515 O 0.49613 0.92719 0.11486
 Zr516 Zr 0.50056 0.93554 -0.05248
 O517 O 0.50614 0.85061 -0.04937
 O518 O 0.49770 0.93457 -0.11777
 Zr519 Zr 0.41813 1.00012 -0.00065
 Zr520 Zr 0.58144 1.00176 -0.00008
 O521 O 0.54800 0.92436 -0.00138
 O522 O 0.45189 0.92254 -0.00171
 O523 O 0.54743 0.99963 0.05931
 O524 O 0.45343 1.00255 -0.05945
 O525 O 0.45289 0.99864 0.05843
 O526 O 0.54789 1.00327 -0.05968
 H527 H 0.57002 1.11014 0.00182
 H528 H 0.43120 1.00359 -0.08465
 H529 H 0.57215 0.89297 -0.00165
 H530 H 0.43023 0.99789 0.08338
 H531 H 0.49790 1.10507 -0.12558
 H532 H 0.51505 0.96787 -0.12759
 H533 H 0.47190 0.83639 -0.03927
 H534 H 0.47403 0.83379 0.03238
 H535 H 0.51335 0.95978 0.12596
 H536 H 0.49595 1.09671 0.12813
 H537 H 0.47744 1.16454 0.03118
 H538 H 0.52908 1.16901 -0.03759
 O539 O 1.06615 0.59095 0.58015
 O540 O 1.12999 0.54931 0.54124
 C541 C 1.11486 0.58091 0.57149
 O542 O 0.92904 0.39890 0.57092
 O543 O 0.86635 0.44817 0.53597
 C544 C 0.88046 0.41143 0.56288
 O545 O 1.07269 0.40706 0.57472
 O546 O 1.13378 0.45462 0.53691
 C547 C 1.12093 0.42019 0.56569
 O548 O 0.92514 0.59444 0.57450
 O549 O 0.86432 0.54604 0.53727
 C550 C 0.87703 0.58121 0.56563
 Zr551 Zr 0.99703 0.56616 0.55187
 O552 O 0.99253 0.56919 0.61706
 O553 O 0.99798 0.65079 0.54591
 Zr554 Zr 0.99992 0.43221 0.55047
 O555 O 0.99862 0.43559 0.61572
 O556 O 0.99844 0.34697 0.55026
 O557 O 1.04620 0.49978 0.55972
 O558 O 0.95168 0.49800 0.55884
 O559 O 0.92659 0.59743 0.42684
 O560 O 0.86509 0.54787 0.46277
 C561 C 0.87831 0.58397 0.43509
 O562 O 1.07166 0.40976 0.42280
 O563 O 1.13295 0.45586 0.46132
 C564 C 1.11989 0.42232 0.43180
 O565 O 0.92905 0.40347 0.42601
 O566 O 0.86630 0.45054 0.46232
 C567 C 0.88041 0.41532 0.43456
 O568 O 1.07003 0.59254 0.42304
 O569 O 1.13225 0.55046 0.46347
 C570 C 1.11861 0.58232 0.43315
 Zr571 Zr 0.99848 0.56933 0.45012
 O572 O 0.99685 0.58081 0.38540
 O573 O 1.00268 0.65381 0.45773
 Zr574 Zr 1.00020 0.43490 0.44815
 O575 O 0.99580 0.43594 0.38282
 O576 O 1.00605 0.34999 0.44957
 Zr577 Zr 1.08064 0.50190 0.50044
 Zr578 Zr 0.91725 0.49913 0.49975
 O579 O 0.95286 0.50149 0.44098
 O580 O 1.04690 0.50296 0.44080
 O581 O 0.94881 0.57763 0.50085
 O582 O 1.04756 0.42438 0.49929
 O583 O 1.04553 0.57855 0.50149
 O584 O 0.95194 0.42208 0.49898
 H585 H 0.92893 0.49688 0.58374
 H586 H 1.07201 0.39331 0.49862
 H587 H 0.93028 0.50125 0.41597
 H588 H 1.06930 0.61024 0.50207
 H589 H 1.03073 0.33348 0.53651
 H590 H 0.97887 0.33637 0.46896
 H591 H 1.02256 0.46181 0.37258
 H592 H 0.98865 0.54569 0.37284
 H593 H 0.96822 0.66628 0.46868
 H594 H 0.99787 0.66535 0.57435
 H595 H 1.00701 0.53487 0.62761
 H596 H 0.99873 0.39791 0.62579
 O597 O 1.09428 0.57580 0.07112
 O598 O 1.04287 0.63753 0.03676
 C599 C 1.07964 0.62457 0.06359
 O600 O 1.08986 0.43224 -0.07807
 O601 O 1.04767 0.36766 -0.03930
 C602 C 1.07984 0.38260 -0.06870
 O603 O 1.08943 0.57975 -0.07726
 O604 O 1.04001 0.63765 -0.03771
 C605 C 1.07443 0.62772 -0.06687
 O606 O 1.09460 0.43102 0.07353
 O607 O 1.04972 0.36726 0.03626
 C608 C 1.08357 0.38167 0.06490
 Zr609 Zr 1.06530 0.50269 0.04944
 O610 O 1.14914 0.50097 0.04781
 O611 O 1.06219 0.50340 0.11474
 Zr612 Zr 1.06296 0.50499 -0.05313
 O613 O 1.14639 0.50666 -0.04815
 O614 O 1.06435 0.50936 -0.11845
 O615 O 1.07304 0.55331 -0.00153
 O616 O 1.07530 0.45617 -0.00242
 O617 O 0.91096 0.42490 0.07744
 O618 O 0.95568 0.36410 0.03726
 C619 C 0.92313 0.37624 0.06742
 O620 O 0.89995 0.57310 -0.07238
 O621 O 0.94567 0.63640 -0.03529
 C622 C 0.91122 0.62236 -0.06333
 O623 O 0.90951 0.42834 -0.07887
 O624 O 0.95428 0.36584 -0.03998
 C625 C 0.92141 0.37927 -0.06967
 O626 O 0.90175 0.56949 0.07487
 O627 O 0.94644 0.63430 0.03817
 C628 C 0.91216 0.61912 0.06622
 Zr629 Zr 0.93327 0.49822 0.05169
 O630 O 0.84978 0.48964 0.05016
 O631 O 0.93382 0.50148 0.11699
 Zr632 Zr 0.93012 0.50019 -0.05040
 O633 O 0.84723 0.49139 -0.04234
 O634 O 0.91855 0.50408 -0.11499
 Zr635 Zr 0.99526 0.58391 0.00009
 Zr636 Zr 1.00046 0.41868 -0.00133
 O637 O 0.92340 0.45063 0.00028
 O638 O 0.91945 0.54811 0.00118
 O639 O 1.00114 0.45172 0.05843
 O640 O 0.99472 0.54950 -0.05921
 O641 O 0.99807 0.54768 0.05878
 O642 O 0.99792 0.45450 -0.06060
 H643 H 1.10752 0.43345 -0.00277
 H644 H 0.99352 0.57255 -0.08418
 H645 H 0.89324 0.42515 0.00039
 H646 H 0.99807 0.57042 0.08383
 H647 H 1.03921 0.48218 -0.12901
 H648 H 0.95392 0.50793 -0.12762
 H649 H 0.83224 0.52700 -0.03549
 H650 H 0.83470 0.52205 0.03683
 H651 H 0.96513 0.48107 0.12659
 H652 H 1.09928 0.50481 0.12476
 H653 H 1.16088 0.52890 0.02801
 H654 H 1.16017 0.50584 -0.07678
 O655 O 0.59277 1.07244 0.57330
 O656 O 0.54236 1.13409 0.53793
 C657 C 0.57858 1.12123 0.56522
 O658 O 0.58952 0.92767 0.42397
 O659 O 0.54702 0.86346 0.46264
 C660 C 0.57938 0.87817 0.43327
 O661 O 0.59210 1.07209 0.42734
 O662 O 0.54262 1.13374 0.46315
 C663 C 0.57871 1.12086 0.43556
 O664 O 0.59332 0.92729 0.57486
 O665 O 0.54911 0.86337 0.53726
 C666 C 0.58264 0.87794 0.56597
 Zr667 Zr 0.56409 0.99929 0.55146
 O668 O 0.64787 1.00546 0.55189
 O669 O 0.55940 0.99882 0.61668
 Zr670 Zr 0.56212 0.99965 0.44891
 O671 O 0.64593 0.99759 0.44781
 O672 O 0.55547 1.00211 0.38378
 O673 O 0.57236 1.04868 0.50018
 O674 O 0.57447 0.95206 0.49988
 O675 O 0.41081 0.91891 0.58040
 O676 O 0.45870 0.86089 0.53986
 C677 C 0.42630 0.87091 0.57026
 O678 O 0.39918 1.06892 0.42818
 O679 O 0.44542 1.13232 0.46486
 C680 C 0.41068 1.11825 0.43688
 O681 O 0.40669 0.92449 0.42408
 O682 O 0.45314 0.86214 0.46195
 C683 C 0.41950 0.87552 0.43274
 O684 O 0.40094 1.06620 0.57590
 O685 O 0.44598 1.13078 0.53894
 C686 C 0.41162 1.11581 0.56700
 Zr687 Zr 0.43195 0.99406 0.55334
 O688 O 0.34856 0.98505 0.55076
 O689 O 0.43103 0.99796 0.61859
 Zr690 Zr 0.42987 0.99651 0.45083
 O691 O 0.34664 0.98865 0.45688
 O692 O 0.42426 1.00115 0.38574
 Zr693 Zr 0.49502 1.08032 0.50127
 Zr694 Zr 0.49970 0.91504 0.50041
 O695 O 0.42260 0.94681 0.50177
 O696 O 0.41910 1.04433 0.50251
 O697 O 0.50008 0.94823 0.56023
 O698 O 0.49481 1.04553 0.44221
 O699 O 0.49677 1.04413 0.56020
 O700 O 0.49716 0.94980 0.44110
 H701 H 0.60633 0.92892 0.49907
 H702 H 0.49422 1.06882 0.41734
 H703 H 0.39261 0.92113 0.50223
 H704 H 0.49679 1.06693 0.58521
 H705 H 0.59202 1.00231 0.37262
 H706 H 0.45739 0.98591 0.37448
 H707 H 0.33236 1.02322 0.46699
 H708 H 0.33352 1.01829 0.53871
 H709 H 0.46269 0.97848 0.62863
 H710 H 0.59624 1.00070 0.62719
 H711 H 0.66298 0.97484 0.53651
 H712 H 0.65864 1.02112 0.47029
 O713 O 1.10817 0.91353 0.55942
 O714 O 1.05471 0.96012 0.60402
 C715 C 1.09521 0.92997 0.59590
 O716 O 1.08890 1.09968 0.44317
 O717 O 1.04433 1.04615 0.39719
 C718 C 1.07665 1.08493 0.40617
 O719 O 1.09493 1.09523 0.55649
 O720 O 1.04605 1.04692 0.60337
 C721 C 1.08178 1.08213 0.59374
 O722 O 1.10153 0.90488 0.44545
 O723 O 1.05090 0.95157 0.39853
 C724 C 1.08741 0.91711 0.40816
 Zr725 Zr 1.07391 0.93412 0.50204
 O726 O 1.15756 0.93670 0.49836
 O727 O 1.07271 0.84931 0.50560
 Zr728 Zr 1.06405 1.06952 0.50009
 O729 O 1.14663 1.08394 0.49941
 O730 O 1.04937 1.15312 0.50075
 O731 O 1.07930 1.00338 0.53739
 O732 O 1.07923 1.00192 0.46521
 O733 O 0.91647 0.89334 0.44492
 O734 O 0.96132 0.94587 0.39830
 C735 C 0.92839 0.90775 0.40771
 O736 O 0.90054 1.08546 0.55602
 O737 O 0.95259 1.04102 0.60313
 C738 C 0.91455 1.07374 0.59332
 O739 O 0.90472 1.08790 0.44326
 O740 O 0.95583 1.04078 0.39730
 C741 C 0.91897 1.07527 0.40630
 O742 O 0.90950 0.90171 0.55751
 O743 O 0.95766 0.95118 0.60395
 C744 C 0.92183 0.91591 0.59455
 Zr745 Zr 0.94220 0.92462 0.50134
 O746 O 0.85993 0.90966 0.49832
 O747 O 0.95564 0.84084 0.50694
 Zr748 Zr 0.93208 1.05977 0.49993
 O749 O 0.84862 1.05296 0.49582
 O750 O 0.92651 1.14460 0.50266
 Zr751 Zr 1.00256 0.99830 0.56260
 Zr752 Zr 1.00328 0.99633 0.43910
 O753 O 0.92711 0.99108 0.46484
 O754 O 0.92604 0.99208 0.53715
 O755 O 1.00896 0.91851 0.46451
 O756 O 0.99743 1.07529 0.53617
 O757 O 1.00846 0.92025 0.53862
 O758 O 0.99757 1.07470 0.46284
 H759 H 1.11040 1.00361 0.44670
 H760 H 0.99566 1.10709 0.55445
 H761 H 0.89577 0.98902 0.44649
 H762 H 1.01068 0.88993 0.55848
 H763 H 1.08452 1.17072 0.50190
 H764 H 0.95128 1.15954 0.48193
 H765 H 0.83629 1.03188 0.51994
 H766 H 0.84224 0.94502 0.49929
 H767 H 0.97321 0.82858 0.48133
 H768 H 1.11025 0.83772 0.50578
 H769 H 1.16956 0.96622 0.51649
 H770 H 1.16401 1.05067 0.48989
 O771 O 0.59650 0.59426 -0.05686
 O772 O 0.54736 0.54614 -0.10349
 C773 C 0.58313 0.58128 -0.09398
 O774 O 0.59338 0.40214 0.05681
 O775 O 0.54511 0.45229 0.10273
 C776 C 0.57984 0.41565 0.09382
 O777 O 0.60051 0.40834 -0.05656
 O778 O 0.55011 0.45535 -0.10329
 C779 C 0.58732 0.42159 -0.09380
 O780 O 0.59195 0.59806 0.05636
 O781 O 0.54429 0.54742 0.10256
 C782 C 0.57863 0.58435 0.09343
 Zr783 Zr 0.56709 0.56740 -0.00038
 O784 O 0.65076 0.56697 0.00460
 O785 O 0.56694 0.65232 -0.00497
 Zr786 Zr 0.56822 0.43255 -0.00007
 O787 O 0.65177 0.42997 0.00478
 O788 O 0.56280 0.34781 -0.00207
 O789 O 0.57860 0.50018 -0.03712
 O790 O 0.57725 0.50007 0.03583
 O791 O 0.40794 0.59702 0.05468
 O792 O 0.45552 0.54736 0.10167
 C793 C 0.42087 0.58380 0.09192
 O794 O 0.40636 0.40478 -0.05736
 O795 O 0.45651 0.45264 -0.10370
 C796 C 0.42012 0.41789 -0.09442
 O797 O 0.40990 0.40060 0.05578
 O798 O 0.45611 0.45197 0.10224
 C799 C 0.42216 0.41482 0.09291
 O800 O 0.40452 0.59205 -0.05856
 O801 O 0.45477 0.54396 -0.10440
 C802 C 0.41819 0.57867 -0.09558
 Zr803 Zr 0.43392 0.56609 -0.00149
 O804 O 0.35023 0.56354 0.00273
 O805 O 0.43203 0.65094 -0.00643
 Zr806 Zr 0.43552 0.43136 -0.00082
 O807 O 0.35181 0.43068 0.00319
 O808 O 0.43717 0.34643 -0.00421
 Zr809 Zr 0.50177 0.49943 -0.06258
 Zr810 Zr 0.50063 0.49966 0.06105
 O811 O 0.42448 0.49875 0.03485
 O812 O 0.42443 0.49852 -0.03826
 O813 O 0.50003 0.57776 0.03585
 O814 O 0.50242 0.42191 -0.03664
 O815 O 0.50074 0.57688 -0.03682
 O816 O 0.50166 0.42148 0.03659
 H817 H 0.60842 0.50022 0.05443
 H818 H 0.50324 0.39022 -0.05507
 H819 H 0.39306 0.49853 0.05317
 H820 H 0.50034 0.60886 -0.05513
 H821 H 0.59968 0.33419 -0.00207
 H822 H 0.46376 0.33358 0.01599
 H823 H 0.33783 0.45247 -0.01997
 H824 H 0.33672 0.54380 -0.02154
 H825 H 0.45523 0.66558 0.01540
 H826 H 0.54469 0.66639 0.01766
 H827 H 0.66514 0.54809 -0.01977
 H828 H 0.66604 0.45747 -0.01428
 N829 N 0.35293 1.12045 0.12680
 N830 N 0.33859 1.10756 0.09029
 N831 N 0.85259 0.62034 0.62688
 N832 N 0.83732 0.60630 0.59085
 N833 N 0.64583 0.88155 0.12783
 N834 N 0.66053 0.89563 0.09171
 N835 N 1.14572 0.37894 0.62591
 N836 N 1.16097 0.39481 0.59039
 N837 N 0.64366 1.12505 -0.12646
 N838 N 0.65948 1.10948 -0.09098
 N839 N 1.14336 0.62165 0.37176
 N840 N 1.15816 0.60769 0.40791
 N841 N 0.35739 0.88215 -0.13113
 N842 N 0.34246 0.89380 -0.09450
 N843 N 0.85729 0.37381 0.37402
 N844 N 0.84146 0.38886 0.40957
 N845 N 1.13055 0.36005 0.12368
 N846 N 1.11043 0.34238 0.09010
 N847 N 0.62873 0.85715 0.62470
 N848 N 0.60972 0.83895 0.59097
 N849 N 1.12605 0.67321 -0.11875
 N850 N 1.09499 0.67342 -0.08906
 N851 N 0.62515 1.14361 0.37661
 N852 N 0.60505 1.16088 0.41043
 N853 N 0.86652 0.64033 0.12551
 N854 N 0.88522 0.65795 0.09139
 N855 N 0.36754 1.13843 0.62674
 N856 N 0.38504 1.15505 0.59197
 N857 N 0.87635 0.35565 -0.12908
 N858 N 0.89596 0.33913 -0.09486
 N859 N 0.37506 0.85274 0.37312
 N860 N 0.39430 0.83557 0.40727
 N861 N 1.13647 1.14818 0.38196
 N862 N 1.10217 1.11242 0.37358
 N863 N 0.64212 0.64544 -0.11742
 N864 N 0.60905 0.60874 -0.12617
 N865 N 0.85311 1.13628 0.61653
 N866 N 0.88732 1.10048 0.62534
 N867 N 0.35796 0.64455 0.11527
 N868 N 0.39387 0.61049 0.12398
 N869 N 1.14396 0.87391 0.63963
 N870 N 1.13043 0.91928 0.62891
 N871 N 0.64188 0.35459 0.11850
 N872 N 0.60618 0.38905 0.12659
 N873 N 0.86376 0.84911 0.38349
 N874 N 0.90107 0.88177 0.37526
 N875 N 0.35832 0.35670 -0.11813
 N876 N 0.39349 0.39148 -0.12679
 N877 N 1.12319 0.35946 -0.12834
 N878 N 1.10652 0.34320 -0.09332
 N879 N 0.62362 0.85622 0.37397
 N880 N 0.60618 0.83897 0.40851
 N881 N 0.87432 0.64647 -0.12511
 N882 N 0.88579 0.66195 -0.08868
 N883 N 0.37087 1.14242 0.37554
 N884 N 0.38494 1.15801 0.41147
 N885 N 1.12027 0.64821 0.12434
 N886 N 1.10485 0.66459 0.08885
 N887 N 0.61859 1.14609 0.62611
 N888 N 0.60384 1.16154 0.59020
 N889 N 0.88014 0.35060 0.12707
 N890 N 0.89788 0.33515 0.09206
 N891 N 0.37576 0.82504 0.62240
 N892 N 0.40846 0.82524 0.59386
 N893 N 0.35655 1.13045 -0.12417
 N894 N 0.34015 1.11267 -0.08938
 N895 N 0.85520 0.62604 0.37446
 N896 N 0.83899 0.60944 0.40963
 N897 N 0.64026 1.12726 0.12774
 N898 N 0.65728 1.10793 0.09374
 N899 N 1.13414 0.62468 0.63238
 N900 N 1.15227 0.60760 0.59788
 N901 N 0.64283 0.87616 -0.12758
 N902 N 0.65953 0.89616 -0.09366
 N903 N 1.14307 0.37716 0.37237
 N904 N 1.15947 0.39650 0.40665
 N905 N 0.35875 0.86988 0.12391
 N906 N 0.34202 0.88728 0.08906
 N907 N 0.85923 0.36571 0.62225
 N908 N 0.84183 0.38453 0.58807
 N909 N 1.14428 1.14277 0.61750
 N910 N 1.10867 1.10845 0.62602
 N911 N 0.64067 0.64534 0.11781
 N912 N 0.60478 0.61108 0.12602
 N913 N 1.14994 0.85652 0.38362
 N914 N 1.11409 0.89086 0.37569
 N915 N 0.65047 0.36150 -0.11819
 N916 N 0.61497 0.39620 -0.12630
 N917 N 0.85568 1.13536 0.38256
 N918 N 0.89172 1.10147 0.37385
 N919 N 0.35819 0.64168 -0.12019
 N920 N 0.39162 0.60503 -0.12843
 N921 N 0.85728 0.85733 0.61766
 N922 N 0.89343 0.89087 0.62666
 N923 N 0.35871 0.35505 0.11693
 N924 N 0.39509 0.38859 0.12534
   
