data_POSCAR
  _audit_creation_date              2014-09-24
  _audit_creation_method            'ToBaCCo'
  _symmetry_space_group_name_H-M    'P1'
  _symmetry_Int_Tables_number       1
  _symmetry_cell_setting            triclinic
  loop_
  _symmetry_equiv_pos_as_xyz
 x,y,z
_cell_length_a 30.3984
_cell_length_b 25.0991
_cell_length_c 13.6451
_cell_angle_alpha 90.006600
_cell_angle_beta 89.994600
_cell_angle_gamma 90.000500
loop_
  _atom_site_label
  _atom_site_type_symbol
  _atom_site_fract_x
  _atom_site_fract_y
  _atom_site_fract_z
C1 C 0.71665 0.27756 0.55349
 C2 C 0.71800 0.27870 0.44888
 C3 C 0.75071 0.24906 0.40075
 C4 C 0.78425 0.22105 0.44978
 C5 C 0.78280 0.21941 0.55478
 C6 C 0.75010 0.24952 0.60280
 H7 H 0.75147 0.25250 0.68139
 H8 H 0.74917 0.24662 0.32213
 C9 C 0.21943 0.78132 0.55384
 C10 C 0.21736 0.77774 0.44971
 C11 C 0.24975 0.74783 0.40116
 C12 C 0.28300 0.71938 0.45017
 C13 C 0.28529 0.72312 0.55468
 C14 C 0.25258 0.75290 0.60306
 H15 H 0.25190 0.75269 0.68180
 H16 H 0.24981 0.74794 0.32241
 C17 C 0.28260 0.27660 -0.55202
 C18 C 0.28021 0.28051 -0.44799
 C19 C 0.24733 0.25160 -0.39892
 C20 C 0.21566 0.22017 -0.44724
 C21 C 0.21512 0.22111 -0.55234
 C22 C 0.24963 0.24777 -0.60093
 H23 H 0.25095 0.24619 -0.67961
 H24 H 0.24653 0.25359 -0.32027
 C25 C -0.21736 0.77702 -0.55206
 C26 C -0.21905 0.77940 -0.44787
 C27 C -0.25199 0.75035 -0.39949
 C28 C -0.28503 0.72133 -0.44857
 C29 C -0.28305 0.71845 -0.55354
 C30 C -0.25001 0.74796 -0.60153
 H31 H -0.25034 0.74979 -0.68024
 H32 H -0.25093 0.74913 -0.32078
 N33 N 0.04557 1.09570 -0.10605
 N34 N 0.07582 1.13192 -0.12625
 N35 N -0.04700 1.05775 -0.17194
 N36 N -0.07759 1.06685 -0.23827
 N37 N -0.04690 1.09542 -0.10516
 N38 N -0.07731 1.13151 -0.12477
 N39 N 0.04556 1.05802 -0.17282
 N40 N 0.07590 1.06726 -0.23971
 C41 C 0.09473 1.11311 -0.20920
 C42 C -0.09644 1.11259 -0.20734
 N43 N -0.04657 0.90571 -0.10558
 N44 N -0.07669 0.86930 -0.12561
 N45 N 0.04573 0.94372 -0.17289
 N46 N 0.07623 0.93477 -0.23951
 N47 N 0.04587 0.90606 -0.10613
 N48 N 0.07636 0.87012 -0.12598
 N49 N -0.04682 0.94343 -0.17224
 N50 N -0.07723 0.93402 -0.23891
 Mn51 Mn -0.00064 1.00074 -0.17330
 C52 C -0.09582 0.88804 -0.20833
 C53 C 0.09525 0.88910 -0.20875
 N54 N -0.04668 1.09531 0.10652
 N55 N -0.07646 1.13195 0.12764
 N56 N 0.04590 1.05811 0.17299
 N57 N 0.07544 1.06841 0.24105
 N58 N 0.04593 1.09551 0.10564
 N59 N 0.07573 1.13222 0.12606
 N60 N -0.04630 1.05791 0.17387
 N61 N -0.07555 1.06817 0.24263
 Mn62 Mn -0.00052 1.09611 0.00024
 C63 C -0.09451 1.11395 0.21211
 C64 C 0.09417 1.11422 0.21006
 N65 N 0.04633 0.90601 0.10551
 N66 N 0.07618 0.86936 0.12601
 N67 N -0.04606 0.94311 0.17357
 N68 N -0.07558 0.93285 0.24173
 N69 N -0.04629 0.90584 0.10600
 N70 N -0.07622 0.86927 0.12628
 N71 N 0.04615 0.94334 0.17300
 N72 N 0.07564 0.93302 0.24124
 Mn73 Mn -0.00016 0.90529 -0.00003
 Mn74 Mn -0.00008 1.00062 0.17411
 Cl75 Cl -0.00035 1.00069 0.00030
 C76 C 0.09451 0.88728 0.21023
 C77 C -0.09450 0.88720 0.21049
 N78 N 0.54725 0.55574 0.17155
 N79 N 0.57768 0.56488 0.23832
 N80 N 0.45466 0.59369 0.10624
 N81 N 0.42436 0.62976 0.12669
 N82 N 0.45468 0.55577 0.17255
 N83 N 0.42430 0.56473 0.23946
 N84 N 0.54712 0.59361 0.10519
 N85 N 0.57732 0.62985 0.12554
 C86 C 0.59641 0.61085 0.20811
 C87 C 0.40545 0.61063 0.20932
 N88 N 0.45413 0.55748 -0.17340
 N89 N 0.42479 0.56829 -0.24167
 N90 N 0.54669 0.59419 -0.10643
 N91 N 0.57646 0.63089 -0.12702
 N92 N 0.54629 0.55705 -0.17427
 N93 N 0.57552 0.56755 -0.24291
 N94 N 0.45408 0.59453 -0.10543
 N95 N 0.42446 0.63152 -0.12565
 Mn96 Mn 0.50063 0.59462 -0.00009
 C97 C 0.40614 0.61406 -0.21020
 C98 C 0.59446 0.61319 -0.21171
 N99 N 0.45472 0.44119 0.17169
 N100 N 0.42551 0.43068 0.24043
 N101 N 0.54670 0.40388 0.10302
 N102 N 0.57684 0.36745 0.12267
 N103 N 0.54705 0.44149 0.16992
 N104 N 0.57751 0.43204 0.23630
 N105 N 0.45414 0.40417 0.10367
 N106 N 0.42430 0.36752 0.12429
 Mn107 Mn 0.50092 0.49856 0.17221
 C108 C 0.40640 0.38513 0.20921
 C109 C 0.59604 0.38616 0.20535
 N110 N 0.54608 0.44217 -0.17587
 N111 N 0.57555 0.43204 -0.24431
 N112 N 0.45386 0.40501 -0.10804
 N113 N 0.42332 0.36911 -0.12784
 N114 N 0.45368 0.44296 -0.17430
 N115 N 0.42296 0.43420 -0.24049
 N116 N 0.54641 0.40473 -0.10862
 N117 N 0.57633 0.36821 -0.12939
 Mn118 Mn 0.50006 0.49989 -0.17523
 Mn119 Mn 0.50027 0.40382 -0.00253
 Cl120 Cl 0.50047 0.49922 -0.00144
 C121 C 0.59454 0.38628 -0.21360
 C122 C 0.40410 0.38839 -0.21001
 C123 C 0.32374 0.35236 0.25084
 C124 C 0.32477 0.29196 0.27330
 C125 C 0.31715 0.30396 0.38381
 C126 C 0.31582 0.36407 0.36077
 C127 C 0.36731 0.30631 0.39975
 C128 C 0.37502 0.29497 0.28979
 C129 C 0.37352 0.35494 0.26865
 C130 C 0.36618 0.36688 0.37765
 H131 H 0.30601 0.37129 0.18884
 H132 H 0.30950 0.26088 0.22655
 H133 H 0.29098 0.39284 0.38821
 H134 H 0.38742 0.28593 0.45573
 H135 H 0.39950 0.26658 0.25949
 H136 H 0.38351 0.39836 0.41978
 C137 C -0.17704 0.85431 0.25218
 C138 C -0.17580 0.79380 0.27351
 C139 C -0.18323 0.80521 0.38427
 C140 C -0.18479 0.86542 0.36240
 C141 C -0.13307 0.80762 0.39983
 C142 C -0.12555 0.79688 0.28965
 C143 C -0.12726 0.85694 0.26968
 C144 C -0.13440 0.86830 0.37892
 H145 H -0.19488 0.87352 0.19064
 H146 H -0.19110 0.76284 0.22653
 H147 H -0.20965 0.89391 0.39068
 H148 H -0.11280 0.78698 0.45518
 H149 H -0.10105 0.76876 0.25860
 H150 H -0.11704 0.89961 0.42142
 C151 C 0.67655 0.61980 0.28919
 C152 C 0.69440 0.67684 0.27389
 C153 C 0.68666 0.68895 0.38454
 C154 C 0.66945 0.63171 0.39913
 C155 C 0.63998 0.70901 0.36032
 C156 C 0.64736 0.69665 0.25041
 C157 C 0.63002 0.63996 0.26711
 C158 C 0.62229 0.65165 0.37593
 H159 H 0.69151 0.58299 0.25875
 H160 H 0.72370 0.68466 0.22759
 H161 H 0.67906 0.60162 0.45411
 H162 H 0.62474 0.74637 0.38758
 H163 H 0.63831 0.72312 0.18846
 H164 H 0.59192 0.64100 0.41666
 C165 C 0.17665 1.14716 0.25271
 C166 C 0.17540 1.20752 0.27566
 C167 C 0.18262 1.19516 0.38632
 C168 C 0.18417 1.13515 0.36270
 C169 C 0.13239 1.19283 0.40117
 C170 C 0.12512 1.20435 0.29117
 C171 C 0.12683 1.14446 0.26962
 C172 C 0.13371 1.13230 0.37860
 H173 H 0.19461 1.12845 0.19080
 H174 H 0.19061 1.23891 0.22950
 H175 H 0.20889 1.10628 0.39035
 H176 H 0.11168 1.21326 0.45595
 H177 H 0.10073 1.23273 0.26053
 H178 H 0.11620 1.10075 0.42017
 C179 C 0.63483 0.36723 -0.38212
 C180 C 0.68527 0.36470 -0.36528
 C181 C 0.68402 0.30442 -0.38667
 C182 C 0.63384 0.30645 -0.40266
 C183 C 0.67636 0.29324 -0.27576
 C184 C 0.67733 0.35383 -0.25497
 C185 C 0.62754 0.35615 -0.27287
 C186 C 0.62615 0.29601 -0.29241
 H187 H 0.61732 0.39831 -0.42485
 H188 H 0.71000 0.39336 -0.39362
 H189 H 0.61351 0.28549 -0.45748
 H190 H 0.69144 0.26248 -0.22798
 H191 H 0.69501 0.37328 -0.19344
 H192 H 0.60171 0.26781 -0.26137
 C193 C 0.14681 0.80388 -0.24965
 C194 C 0.14025 0.79158 -0.35979
 C195 C 0.18697 0.81208 -0.38216
 C196 C 0.19385 0.82413 -0.27145
 C197 C 0.16946 0.86909 -0.39748
 C198 C 0.12230 0.84870 -0.37600
 C199 C 0.12925 0.86041 -0.26690
 C200 C 0.17580 0.88104 -0.28733
 H201 H 0.13744 0.77731 -0.18807
 H202 H 0.12556 0.75411 -0.38794
 H203 H 0.22297 0.81618 -0.22467
 H204 H 0.17924 0.89885 -0.45294
 H205 H 0.09215 0.85903 -0.41774
 H206 H 0.19027 0.91799 -0.25635
 C207 C 0.36619 0.63305 -0.37852
 C208 C 0.31580 0.63642 -0.36187
 C209 C 0.31769 0.69654 -0.38456
 C210 C 0.36785 0.69365 -0.40037
 C211 C 0.32538 0.70831 -0.27384
 C212 C 0.32377 0.64787 -0.25179
 C213 C 0.37353 0.64471 -0.26946
 C214 C 0.37559 0.70467 -0.29030
 H215 H 0.38340 0.60140 -0.42046
 H216 H 0.29078 0.60797 -0.38966
 H217 H 0.38841 0.71390 -0.45568
 H218 H 0.31069 0.73951 -0.22644
 H219 H 0.30586 0.62909 -0.18990
 H220 H 0.40029 0.73269 -0.25974
 C221 C -0.14757 1.19826 -0.24928
 C222 C -0.14022 1.21050 -0.35925
 C223 C -0.18683 1.19023 -0.38330
 C224 C -0.19456 1.17824 -0.27264
 C225 C -0.16953 1.13304 -0.39773
 C226 C -0.12243 1.15319 -0.37469
 C227 C -0.13013 1.14162 -0.26584
 C228 C -0.17661 1.12125 -0.28777
 H229 H -0.13855 1.22480 -0.18739
 H230 H -0.12508 1.24785 -0.38682
 H231 H -0.22396 1.18611 -0.22664
 H232 H -0.17909 1.10286 -0.45258
 H233 H -0.09205 1.14255 -0.41540
 H234 H -0.19145 1.08443 -0.25714
 C235 C 0.67667 0.64711 -0.25376
 C236 C 0.68467 0.63504 -0.36358
 C237 C 0.68253 0.69498 -0.38756
 C238 C 0.67482 0.70739 -0.27704
 C239 C 0.63238 0.69179 -0.40315
 C240 C 0.63429 0.63131 -0.38019
 C241 C 0.62695 0.64357 -0.27140
 C242 C 0.62465 0.70338 -0.29332
 H243 H 0.69464 0.62879 -0.19149
 H244 H 0.70981 0.60653 -0.39063
 H245 H 0.68936 0.73905 -0.23042
 H246 H 0.61157 0.71181 -0.45823
 H247 H 0.61726 0.59937 -0.42173
 H248 H 0.59984 0.73141 -0.26321
 C249 C 0.12077 1.15371 -0.37698
 C250 C 0.13858 1.21103 -0.36156
 C251 C 0.18522 1.19076 -0.38560
 C252 C 0.16789 1.13356 -0.39998
 C253 C 0.19289 1.17877 -0.27491
 C254 C 0.14589 1.19880 -0.25157
 C255 C 0.12841 1.14215 -0.26808
 C256 C 0.17491 1.12178 -0.28999
 H257 H 0.09043 1.14313 -0.41787
 H258 H 0.12343 1.24836 -0.38914
 H259 H 0.17748 1.10331 -0.45467
 H260 H 0.22230 1.18664 -0.22894
 H261 H 0.13688 1.22538 -0.18974
 H262 H 0.18976 1.08497 -0.25935
 C263 C 0.32366 0.38062 -0.28940
 C264 C 0.33023 0.36836 -0.39939
 C265 C 0.31246 0.31149 -0.38380
 C266 C 0.30535 0.32385 -0.27326
 C267 C 0.35905 0.29080 -0.36065
 C268 C 0.37725 0.34777 -0.37713
 C269 C 0.37007 0.35977 -0.26821
 C270 C 0.35226 0.30340 -0.25071
 H271 H 0.30924 0.41772 -0.25890
 H272 H 0.32070 0.39800 -0.45530
 H273 H 0.27612 0.31623 -0.22662
 H274 H 0.37367 0.25317 -0.38826
 H275 H 0.40756 0.35782 -0.41854
 H276 H 0.36137 0.27692 -0.18881
 C277 C -0.17628 0.87889 -0.28733
 C278 C -0.16970 0.86739 -0.39756
 C279 C -0.18673 0.81009 -0.38310
 C280 C -0.19384 0.82168 -0.27227
 C281 C -0.13984 0.79015 -0.36062
 C282 C -0.12239 0.84757 -0.37603
 C283 C -0.12955 0.85884 -0.26681
 C284 C -0.14662 0.80201 -0.25036
 H285 H -0.19117 0.91552 -0.25604
 H286 H -0.17966 0.89721 -0.45276
 H287 H -0.22298 0.81308 -0.22590
 H288 H -0.12475 0.75297 -0.38904
 H289 H -0.09230 0.85843 -0.41758
 H290 H -0.13711 0.77534 -0.18904
 C291 C 0.32530 0.61922 0.29002
 C292 C 0.33231 0.63116 0.39995
 C293 C 0.31498 0.68830 0.38519
 C294 C 0.30739 0.67623 0.27465
 C295 C 0.36165 0.70848 0.36125
 C296 C 0.37944 0.65126 0.37709
 C297 C 0.37181 0.63953 0.26823
 C298 C 0.35439 0.69615 0.25138
 H299 H 0.31046 0.58236 0.25952
 H300 H 0.32265 0.60133 0.45541
 H301 H 0.27805 0.68430 0.22861
 H302 H 0.37670 0.74595 0.38847
 H303 H 0.40975 0.64081 0.41816
 H304 H 0.36349 0.72264 0.18948
 C305 C -0.12538 1.20390 0.29414
 C306 C -0.17561 1.20734 0.27818
 C307 C -0.18313 1.19485 0.38875
 C308 C -0.13292 1.19224 0.40401
 C309 C -0.18480 1.13488 0.36470
 C310 C -0.17699 1.14704 0.25483
 C311 C -0.12720 1.14405 0.27216
 C312 C -0.13436 1.13173 0.38103
 H313 H -0.10084 1.23225 0.26395
 H314 H -0.19053 1.23886 0.23186
 H315 H -0.11220 1.21250 0.45898
 H316 H -0.20966 1.10604 0.39183
 H317 H -0.19491 1.12854 0.19266
 H318 H -0.11706 1.10002 0.42261
 C319 C 0.62166 0.34608 0.37322
 C320 C 0.63935 0.28869 0.35898
 C321 C 0.68599 0.30898 0.38284
 C322 C 0.66875 0.36626 0.39594
 C323 C 0.69383 0.32017 0.27207
 C324 C 0.64682 0.30017 0.24882
 C325 C 0.62950 0.35696 0.26412
 C326 C 0.67600 0.37732 0.28585
 H327 H 0.59131 0.35690 0.41386
 H328 H 0.62417 0.25152 0.38720
 H329 H 0.67835 0.39652 0.45065
 H330 H 0.72333 0.31163 0.22685
 H331 H 0.63779 0.27328 0.18746
 H332 H 0.69097 0.41389 0.25451
 C333 C 0.17712 0.85451 0.25274
 C334 C 0.18467 0.86584 0.36295
 C335 C 0.18326 0.80566 0.38525
 C336 C 0.17603 0.79403 0.27448
 C337 C 0.13305 0.80793 0.40036
 C338 C 0.13424 0.86857 0.37902
 C339 C 0.12728 0.85700 0.26976
 C340 C 0.12573 0.79695 0.29016
 H341 H 0.19505 0.87366 0.19125
 H342 H 0.20942 0.89451 0.39112
 H343 H 0.19150 0.76312 0.22767
 H344 H 0.11277 0.78736 0.45583
 H345 H 0.11675 0.89989 0.42122
 H346 H 0.10136 0.76865 0.25913
   
