data_POSCAR
  _audit_creation_date              2014-09-24
  _audit_creation_method            'ToBaCCo'
  _symmetry_space_group_name_H-M    'P1'
  _symmetry_Int_Tables_number       1
  _symmetry_cell_setting            triclinic
  loop_
  _symmetry_equiv_pos_as_xyz
 x,y,z
_cell_length_a 40.3381
_cell_length_b 37.8885
_cell_length_c 38.6346
_cell_angle_alpha 84.460300
_cell_angle_beta 94.136100
_cell_angle_gamma 94.379500
loop_
  _atom_site_label
  _atom_site_type_symbol
  _atom_site_fract_x
  _atom_site_fract_y
  _atom_site_fract_z
C1 C 0.29408 0.30682 0.23990
 H2 H 0.29683 0.30695 0.26795
 C3 C 0.31607 0.32810 0.21909
 H4 H 0.33577 0.34481 0.23108
 C5 C 0.26581 0.28398 0.18995
 H6 H 0.24677 0.26615 0.17869
 C7 C 0.28726 0.30482 0.16822
 H8 H 0.28441 0.30323 0.14030
 N9 N 0.26945 0.28546 0.22510
 C10 C 0.19524 0.26407 0.30285
 H11 H 0.19311 0.23532 0.30499
 C12 C 0.17568 0.28248 0.32240
 H13 H 0.15849 0.26792 0.33978
 C14 C 0.21994 0.31831 0.27729
 H15 H 0.23683 0.33219 0.25932
 C16 C 0.20083 0.33774 0.29634
 H17 H 0.20331 0.36653 0.29325
 Zn18 Zn 0.24239 0.25527 0.25524
 N19 N 0.21710 0.28213 0.28115
 C20 C 0.27186 0.22667 0.32048
 N21 N 0.27148 0.22740 0.28514
 C22 C 0.29295 0.20893 0.26957
 C23 C 0.31541 0.18793 0.28968
 C24 C 0.29397 0.20596 0.34160
 C25 C 0.18886 0.24126 0.20677
 C26 C 0.16696 0.22066 0.18589
 C27 C 0.19243 0.16815 0.21259
 C28 C 0.21385 0.18970 0.23292
 N29 N 0.21219 0.22563 0.22916
 H30 H 0.25517 0.24216 0.33237
 H31 H 0.29246 0.21044 0.24143
 H32 H 0.33223 0.17309 0.27704
 H33 H 0.29404 0.20529 0.36970
 H34 H 0.18776 0.26983 0.20467
 H35 H 0.14899 0.23336 0.16752
 H36 H 0.19437 0.13964 0.21522
 H37 H 0.23194 0.17764 0.25144
 C38 C 0.17860 0.31965 0.31917
 C39 C 0.31266 0.32698 0.18293
 C40 C 0.16904 0.18381 0.18860
 C41 C 0.31583 0.18633 0.32600
 C42 C 0.79491 0.80819 0.23922
 H43 H 0.79770 0.80843 0.26726
 C44 C 0.81681 0.82948 0.21830
 H45 H 0.83645 0.84630 0.23027
 C46 C 0.76664 0.78504 0.18942
 H47 H 0.74765 0.76709 0.17827
 C48 C 0.78798 0.80588 0.16756
 H49 H 0.78501 0.80410 0.13966
 N50 N 0.77033 0.78667 0.22455
 C51 C 0.69622 0.76512 0.30240
 H52 H 0.69418 0.73637 0.30454
 C53 C 0.67660 0.78345 0.32195
 H54 H 0.65944 0.76883 0.33934
 C55 C 0.72077 0.81944 0.27684
 H56 H 0.73764 0.83338 0.25888
 C57 C 0.70160 0.83879 0.29590
 H58 H 0.70400 0.86758 0.29282
 Zn59 Zn 0.74341 0.75645 0.25481
 N60 N 0.71804 0.78325 0.28071
 C61 C 0.77293 0.72799 0.32008
 N62 N 0.77260 0.72874 0.28474
 C63 C 0.79414 0.71031 0.26920
 C64 C 0.81656 0.68929 0.28934
 C65 C 0.79501 0.70725 0.34122
 C66 C 0.68985 0.74210 0.20646
 C67 C 0.66801 0.72136 0.18567
 C68 C 0.69371 0.66903 0.21247
 C69 C 0.71508 0.69072 0.23272
 N70 N 0.71328 0.72663 0.22885
 H71 H 0.75619 0.74344 0.33195
 H72 H 0.79368 0.71183 0.24106
 H73 H 0.83339 0.67445 0.27672
 H74 H 0.79500 0.70653 0.36932
 H75 H 0.68864 0.77066 0.20429
 H76 H 0.64997 0.73393 0.16729
 H77 H 0.69576 0.64054 0.21519
 H78 H 0.73323 0.67879 0.25124
 C79 C 0.67942 0.82062 0.31873
 C80 C 0.81335 0.82822 0.18213
 C81 C 0.67023 0.68453 0.18848
 C82 C 0.81689 0.68763 0.32566
 C83 C 0.79551 0.30615 0.74119
 H84 H 0.79836 0.30625 0.76924
 C85 C 0.81737 0.32753 0.72031
 H86 H 0.83707 0.34429 0.73224
 C87 C 0.76711 0.28332 0.69130
 H88 H 0.74807 0.26547 0.68009
 C89 C 0.78843 0.30426 0.66950
 H90 H 0.78547 0.30272 0.64158
 N91 N 0.77087 0.28476 0.72646
 C92 C 0.69681 0.26325 0.80437
 H93 H 0.69472 0.23449 0.80653
 C94 C 0.67719 0.28165 0.82386
 H95 H 0.66000 0.26707 0.84124
 C96 C 0.72142 0.31750 0.77874
 H97 H 0.73829 0.33139 0.76076
 C98 C 0.70226 0.33692 0.79774
 H99 H 0.70467 0.36570 0.79459
 Zn100 Zn 0.74390 0.25450 0.75664
 N101 N 0.71865 0.28132 0.78265
 C102 C 0.77345 0.22567 0.82176
 N103 N 0.77305 0.22658 0.78642
 C104 C 0.79449 0.20819 0.77072
 C105 C 0.81694 0.18707 0.79068
 C106 C 0.79554 0.20483 0.84279
 C107 C 0.69026 0.24056 0.70829
 C108 C 0.66836 0.22002 0.68737
 C109 C 0.69392 0.16748 0.71384
 C110 C 0.71536 0.18898 0.73421
 N111 N 0.71366 0.22491 0.73057
 H112 H 0.75676 0.24110 0.83374
 H113 H 0.79397 0.20985 0.74257
 H114 H 0.83367 0.17233 0.77777
 H115 H 0.79549 0.20411 0.87091
 H116 H 0.68913 0.26913 0.70628
 H117 H 0.65035 0.23275 0.66907
 H118 H 0.69591 0.13898 0.71637
 H119 H 0.73349 0.17689 0.75265
 C120 C 0.68003 0.31881 0.82056
 C121 C 0.81382 0.32647 0.68414
 C122 C 0.67048 0.18318 0.68994
 C123 C 0.81740 0.18523 0.82707
 C124 C 0.29454 0.80743 0.74045
 H125 H 0.29731 0.80761 0.76849
 C126 C 0.31649 0.82872 0.71959
 H127 H 0.33617 0.84549 0.73154
 C128 C 0.26631 0.78443 0.69056
 H129 H 0.24730 0.76654 0.67934
 C130 C 0.28771 0.80528 0.66878
 H131 H 0.28485 0.80363 0.64087
 N132 N 0.26995 0.78598 0.72570
 C133 C 0.19579 0.76438 0.80350
 H134 H 0.19375 0.73563 0.80566
 C135 C 0.17610 0.78273 0.82297
 H136 H 0.15890 0.76812 0.84032
 C137 C 0.22033 0.81869 0.77791
 H138 H 0.23720 0.83262 0.75995
 C139 C 0.20109 0.83805 0.79688
 H140 H 0.20345 0.86684 0.79374
 Zn141 Zn 0.24298 0.75573 0.75588
 N142 N 0.21763 0.78250 0.78181
 C143 C 0.27250 0.72702 0.82107
 N144 N 0.27214 0.72790 0.78573
 C145 C 0.29366 0.70955 0.77008
 C146 C 0.31613 0.68850 0.79012
 C147 C 0.29463 0.70626 0.84212
 C148 C 0.18944 0.74158 0.70744
 C149 C 0.16761 0.72093 0.68655
 C150 C 0.19322 0.66850 0.71323
 C151 C 0.21459 0.69010 0.73357
 N152 N 0.21283 0.72602 0.72981
 H153 H 0.25577 0.74242 0.83302
 H154 H 0.29318 0.71117 0.74194
 H155 H 0.33296 0.67374 0.77742
 H156 H 0.29466 0.70545 0.87023
 H157 H 0.18827 0.77014 0.70535
 H158 H 0.14960 0.73358 0.66819
 H159 H 0.19525 0.64000 0.71586
 H160 H 0.23271 0.67809 0.75208
 C161 C 0.17886 0.81990 0.81967
 C162 C 0.31307 0.82752 0.68344
 C163 C 0.16979 0.68410 0.68925
 C164 C 0.31652 0.68673 0.82645
 C165 C 0.03050 -0.03070 -0.03115
 C166 C 0.05180 -0.00671 -0.00721
 C167 C 0.03345 0.01245 0.01151
 C168 C -0.00443 0.00601 0.00472
 C169 C 0.00720 -0.05377 -0.00714
 C170 C -0.01103 -0.03445 0.01157
 C171 C 0.00784 -0.00578 -0.05383
 C172 C -0.01040 0.01336 -0.03497
 H173 H 0.07888 -0.00514 -0.00511
 H174 H -0.01930 0.02169 0.02003
 H175 H 0.00510 -0.08264 -0.00533
 H176 H 0.00605 -0.00381 -0.08214
 C177 C 0.03159 0.46935 0.46944
 C178 C 0.05293 0.49331 0.49338
 C179 C 0.03461 0.51244 0.51216
 C180 C -0.00328 0.50602 0.50540
 C181 C 0.00831 0.44626 0.49345
 C182 C -0.00989 0.46556 0.51222
 C183 C 0.00892 0.49430 0.44682
 C184 C -0.00928 0.51342 0.46573
 H185 H 0.08000 0.49488 0.49543
 H186 H -0.01813 0.52168 0.52075
 H187 H 0.00622 0.41739 0.49525
 H188 H 0.00712 0.49632 0.41850
 C189 C 0.53196 -0.03052 0.46937
 C190 C 0.55330 -0.00660 0.49335
 C191 C 0.53498 0.01251 0.51215
 C192 C 0.49709 0.00609 0.50539
 C193 C 0.50868 -0.05365 0.49337
 C194 C 0.49048 -0.03438 0.51216
 C195 C 0.50928 -0.00556 0.44678
 C196 C 0.49107 0.01353 0.46572
 H197 H 0.58037 -0.00506 0.49542
 H198 H 0.48224 0.02173 0.52076
 H199 H 0.50655 -0.08252 0.49509
 H200 H 0.50740 -0.00358 0.41847
 C201 C 0.53208 0.46886 -0.03045
 C202 C 0.55339 0.49285 -0.00652
 C203 C 0.53505 0.51202 0.01219
 C204 C 0.49716 0.50560 0.00538
 C205 C 0.50876 0.44581 -0.00645
 C206 C 0.49053 0.46515 0.01224
 C207 C 0.50944 0.49378 -0.05315
 C208 C 0.49121 0.51295 -0.03430
 H209 H 0.58047 0.49444 -0.00445
 H210 H 0.48230 0.52130 0.02068
 H211 H 0.50660 0.41694 -0.00467
 H212 H 0.50764 0.49572 -0.08146
 C213 C 0.12210 -0.12403 -0.12373
 C214 C 0.09987 -0.14754 -0.09886
 C215 C 0.08120 -0.12876 -0.08011
 C216 C 0.08659 -0.08833 -0.08808
 C217 C 0.07955 -0.08160 -0.12765
 C218 C 0.09822 -0.10038 -0.14639
 C219 C 0.14293 -0.09879 -0.10056
 C220 C 0.12427 -0.08002 -0.08182
 C221 C 0.14224 -0.14418 -0.14390
 C222 C 0.15889 -0.16062 -0.16050
 C223 C 0.06656 -0.06807 -0.06791
 C224 C 0.05022 -0.05128 -0.05133
 H225 H 0.09888 -0.17638 -0.09621
 H226 H 0.06421 -0.14152 -0.06141
 H227 H 0.06149 -0.06368 -0.13987
 H228 H 0.09615 -0.09853 -0.17468
 H229 H 0.16997 -0.09591 -0.09901
 H230 H 0.13532 -0.06106 -0.06422
 C231 C 0.12243 0.37588 0.37622
 C232 C 0.10038 0.35243 0.40130
 C233 C 0.08191 0.37125 0.42021
 C234 C 0.08730 0.41167 0.41217
 C235 C 0.07996 0.41836 0.37264
 C236 C 0.09843 0.39954 0.35373
 C237 C 0.14348 0.40113 0.39921
 C238 C 0.12501 0.41995 0.41811
 C239 C 0.14235 0.35568 0.35587
 C240 C 0.15882 0.33919 0.33914
 C241 C 0.06746 0.43198 0.43250
 C242 C 0.05124 0.44878 0.44918
 H243 H 0.09936 0.32358 0.40397
 H244 H 0.06506 0.35853 0.43907
 H245 H 0.06184 0.43629 0.36056
 H246 H 0.09613 0.40135 0.32546
 H247 H 0.17052 0.40398 0.40052
 H248 H 0.13623 0.43892 0.43562
 C249 C 0.62305 -0.12347 0.37590
 C250 C 0.60096 -0.14707 0.40084
 C251 C 0.58242 -0.12838 0.41980
 C252 C 0.58779 -0.08793 0.41196
 C253 C 0.58052 -0.08106 0.37243
 C254 C 0.59906 -0.09975 0.35347
 C255 C 0.64403 -0.09832 0.39905
 C256 C 0.62549 -0.07964 0.41801
 C257 C 0.64304 -0.14354 0.35549
 C258 C 0.65958 -0.15993 0.33873
 C259 C 0.56789 -0.06776 0.43235
 C260 C 0.55162 -0.05104 0.44908
 H261 H 0.59998 -0.17592 0.40337
 H262 H 0.56555 -0.14121 0.43858
 H263 H 0.56241 -0.06311 0.36039
 H264 H 0.59683 -0.09780 0.32519
 H265 H 0.67106 -0.09544 0.40043
 H266 H 0.63665 -0.06075 0.43563
 C267 C 0.62345 0.37512 -0.12287
 C268 C 0.60116 0.35172 -0.09799
 C269 C 0.58256 0.37060 -0.07928
 C270 C 0.58806 0.41102 -0.08729
 C271 C 0.58104 0.41771 -0.12687
 C272 C 0.59965 0.39883 -0.14558
 C273 C 0.64436 0.40034 -0.09974
 C274 C 0.62576 0.41921 -0.08103
 C275 C 0.64352 0.35487 -0.14302
 C276 C 0.66012 0.33836 -0.15961
 C277 C 0.56809 0.43138 -0.06716
 C278 C 0.55179 0.44823 -0.05061
 H279 H 0.60009 0.32288 -0.09530
 H280 H 0.56554 0.35793 -0.06056
 H281 H 0.56303 0.43568 -0.13912
 H282 H 0.59758 0.40064 -0.17386
 H283 H 0.67140 0.40313 -0.09819
 H284 H 0.63686 0.43817 -0.06346
 C285 C -0.11912 0.12295 -0.11779
 C286 C -0.10113 0.10152 -0.14150
 C287 C -0.07916 0.07961 -0.12390
 C288 C -0.07729 0.08124 -0.08426
 C289 C -0.11329 0.07313 -0.07385
 C290 C -0.13529 0.09507 -0.09148
 C291 C -0.09119 0.14261 -0.09649
 C292 C -0.06918 0.12066 -0.07886
 C293 C -0.14272 0.14636 -0.13717
 C294 C -0.16194 0.16519 -0.15397
 C295 C -0.05355 0.05746 -0.06570
 C296 C -0.03393 0.03755 -0.05127
 H297 H -0.10528 0.10339 -0.16968
 H298 H -0.06450 0.06273 -0.13700
 H299 H -0.12082 0.05206 -0.05432
 H300 H -0.16168 0.09279 -0.08706
 H301 H -0.08892 0.17121 -0.09533
 H302 H -0.04806 0.13047 -0.06258
 C303 C -0.11771 0.62330 0.38286
 C304 C -0.13377 0.59622 0.40995
 C305 C -0.11183 0.57422 0.42762
 C306 C -0.07600 0.58149 0.41645
 C307 C -0.06720 0.62100 0.42094
 C308 C -0.08914 0.64300 0.40327
 C309 C -0.10054 0.60096 0.35929
 C310 C -0.07864 0.57900 0.37692
 C311 C -0.14123 0.64677 0.36345
 C312 C -0.16041 0.66563 0.34665
 C313 C -0.05234 0.55765 0.43504
 C314 C -0.03277 0.53768 0.44946
 H315 H -0.16003 0.59450 0.41487
 H316 H -0.11930 0.55366 0.44767
 H317 H -0.04568 0.63083 0.43665
 H318 H -0.08642 0.67167 0.40384
 H319 H -0.10518 0.60228 0.33117
 H320 H -0.06453 0.56151 0.36391
 C321 C 0.38172 0.12249 0.38309
 C322 C 0.39989 0.10125 0.35935
 C323 C 0.42199 0.07949 0.37694
 C324 C 0.42381 0.08105 0.41658
 C325 C 0.38783 0.07265 0.42696
 C326 C 0.36569 0.09445 0.40934
 C327 C 0.40952 0.14230 0.40443
 C328 C 0.43166 0.12050 0.42205
 C329 C 0.35799 0.14574 0.36372
 C330 C 0.33866 0.16447 0.34696
 C331 C 0.44768 0.05742 0.43511
 C332 C 0.46742 0.03762 0.44950
 H333 H 0.39576 0.10315 0.33117
 H334 H 0.43679 0.06276 0.36382
 H335 H 0.38041 0.05150 0.44646
 H336 H 0.33930 0.09197 0.41375
 H337 H 0.41159 0.17089 0.40563
 H338 H 0.45271 0.13042 0.43835
 C339 C 0.38226 0.62250 -0.11674
 C340 C 0.40018 0.60113 -0.14057
 C341 C 0.42221 0.57922 -0.12308
 C342 C 0.42421 0.58079 -0.08344
 C343 C 0.38825 0.57262 -0.07290
 C344 C 0.36619 0.59456 -0.09042
 C345 C 0.41024 0.64215 -0.09551
 C346 C 0.43231 0.62020 -0.07799
 C347 C 0.35859 0.64591 -0.13600
 C348 C 0.33931 0.66475 -0.15268
 C349 C 0.44800 0.55701 -0.06498
 C350 C 0.46766 0.53711 -0.05061
 H351 H 0.39594 0.60304 -0.16874
 H352 H 0.43684 0.56237 -0.13627
 H353 H 0.38080 0.55152 -0.05337
 H354 H 0.33982 0.59225 -0.08590
 H355 H 0.41250 0.67074 -0.09431
 H356 H 0.45348 0.63000 -0.06177
 C357 C -0.12125 -0.11697 0.11936
 C358 C -0.10452 -0.14159 0.09769
 C359 C -0.08223 -0.12418 0.07605
 C360 C -0.07882 -0.08381 0.07817
 C361 C -0.07005 -0.07900 0.11684
 C362 C -0.09237 -0.09644 0.13851
 C363 C -0.13667 -0.08925 0.09258
 C364 C -0.11435 -0.07181 0.07092
 C365 C -0.14519 -0.13608 0.14253
 C366 C -0.16474 -0.15251 0.16127
 C367 C -0.05475 -0.06539 0.05473
 C368 C -0.03487 -0.05095 0.03520
 H369 H -0.10973 -0.17022 0.09920
 H370 H -0.06835 -0.13789 0.05904
 H371 H -0.04827 -0.06326 0.12636
 H372 H -0.08972 -0.09564 0.16659
 H373 H -0.16280 -0.08377 0.09082
 H374 H -0.12136 -0.05139 0.05060
 C375 C -0.11976 0.38269 0.62018
 C376 C -0.10245 0.35807 0.59901
 C377 C -0.08024 0.37558 0.57734
 C378 C -0.07747 0.41602 0.57893
 C379 C -0.06906 0.42145 0.61753
 C380 C -0.09130 0.40391 0.63923
 C381 C -0.13544 0.40982 0.59296
 C382 C -0.11319 0.42735 0.57127
 C383 C -0.14362 0.36347 0.64337
 C384 C -0.16310 0.34698 0.66213
 C385 C -0.05349 0.43453 0.55546
 C386 C -0.03367 0.44903 0.53589
 H387 H -0.10722 0.32938 0.60087
 H388 H -0.06599 0.36188 0.56065
 H389 H -0.04757 0.43766 0.62698
 H390 H -0.08887 0.40510 0.66727
 H391 H -0.16168 0.41484 0.59093
 H392 H -0.12038 0.44740 0.55065
 C393 C 0.37994 -0.11674 0.61966
 C394 C 0.39575 -0.14125 0.59710
 C395 C 0.41812 -0.12390 0.57552
 C396 C 0.42253 -0.08370 0.57858
 C397 C 0.43187 -0.08000 0.61736
 C398 C 0.40947 -0.09738 0.63897
 C399 C 0.36490 -0.08806 0.59370
 C400 C 0.38730 -0.07068 0.57209
 C401 C 0.35590 -0.13578 0.64277
 C402 C 0.33629 -0.15214 0.66147
 C403 C 0.44667 -0.06534 0.55520
 C404 C 0.46660 -0.05091 0.53572
 H405 H 0.38988 -0.16976 0.59799
 H406 H 0.43141 -0.13754 0.55794
 H407 H 0.45408 -0.06502 0.62699
 H408 H 0.41249 -0.09729 0.66711
 H409 H 0.33896 -0.08192 0.59242
 H410 H 0.38056 -0.04965 0.55231
 C411 C 0.37966 0.38279 0.11935
 C412 C 0.39650 0.35813 0.09781
 C413 C 0.41893 0.37551 0.07632
 C414 C 0.42236 0.41588 0.07844
 C415 C 0.43091 0.42068 0.11715
 C416 C 0.40845 0.40327 0.13867
 C417 C 0.36440 0.41053 0.09248
 C418 C 0.38687 0.42793 0.07096
 C419 C 0.35556 0.36372 0.14237
 C420 C 0.33591 0.34734 0.16102
 C421 C 0.44658 0.43426 0.05516
 C422 C 0.46657 0.44868 0.03574
 H423 H 0.39126 0.32951 0.09930
 H424 H 0.43290 0.36178 0.05941
 H425 H 0.45266 0.43639 0.12680
 H426 H 0.41095 0.40407 0.16676
 H427 H 0.33828 0.41604 0.09055
 H428 H 0.37999 0.44836 0.05060
 C429 C 0.11296 0.12050 0.12266
 C430 C 0.13514 0.09656 0.10603
 C431 C 0.11806 0.07497 0.08370
 C432 C 0.08044 0.07937 0.08013
 C433 C 0.07717 0.11911 0.06946
 C434 C 0.09428 0.14075 0.09183
 C435 C 0.08629 0.09493 0.13987
 C436 C 0.06917 0.07330 0.11750
 C437 C 0.13183 0.14358 0.14657
 C438 C 0.14830 0.16215 0.16592
 C439 C 0.06251 0.05592 0.05594
 C440 C 0.04876 0.03629 0.03581
 H441 H 0.16194 0.09657 0.11134
 H442 H 0.13025 0.05649 0.06989
 H443 H 0.06266 0.12935 0.04642
 H444 H 0.09442 0.16952 0.08795
 H445 H 0.08125 0.09395 0.16719
 H446 H 0.04948 0.05378 0.12564
 C447 C 0.11392 0.62064 0.62328
 C448 C 0.13611 0.59639 0.60707
 C449 C 0.11910 0.57476 0.58474
 C450 C 0.08153 0.57943 0.58076
 C451 C 0.07857 0.61917 0.56980
 C452 C 0.09561 0.64084 0.59217
 C453 C 0.08696 0.59537 0.64037
 C454 C 0.06991 0.57369 0.61799
 C455 C 0.13272 0.64377 0.64721
 C456 C 0.14912 0.66238 0.66656
 C457 C 0.06366 0.55594 0.55656
 C458 C 0.04993 0.53629 0.53644
 H459 H 0.16287 0.59623 0.61266
 H460 H 0.13130 0.55607 0.57121
 H461 H 0.06431 0.62937 0.54656
 H462 H 0.09595 0.66962 0.58810
 H463 H 0.08169 0.59462 0.66760
 H464 H 0.05004 0.55436 0.62605
 C465 C 0.61446 0.12009 0.62375
 C466 C 0.63661 0.09599 0.60730
 C467 C 0.61956 0.07449 0.58487
 C468 C 0.58198 0.07914 0.58104
 C469 C 0.57897 0.11891 0.57033
 C470 C 0.59606 0.14045 0.59280
 C471 C 0.58755 0.09470 0.64078
 C472 C 0.57046 0.07315 0.61831
 C473 C 0.63331 0.14308 0.64777
 C474 C 0.64976 0.16158 0.66718
 C475 C 0.56406 0.05579 0.55674
 C476 C 0.55031 0.03624 0.53653
 H477 H 0.66338 0.09582 0.61279
 H478 H 0.63172 0.05591 0.57116
 H479 H 0.56465 0.12924 0.54719
 H480 H 0.59638 0.16924 0.58890
 H481 H 0.58236 0.09376 0.66805
 H482 H 0.55062 0.05375 0.62632
 C483 C 0.61433 0.62075 0.12282
 C484 C 0.63660 0.59686 0.10626
 C485 C 0.61959 0.57512 0.08403
 C486 C 0.58193 0.57933 0.08050
 C487 C 0.57849 0.61902 0.06969
 C488 C 0.59553 0.64081 0.09196
 C489 C 0.58778 0.59513 0.14016
 C490 C 0.57073 0.57333 0.11789
 C491 C 0.63314 0.64401 0.14663
 C492 C 0.64955 0.66271 0.16589
 C493 C 0.56406 0.55572 0.05642
 C494 C 0.55034 0.53597 0.03638
 H495 H 0.66341 0.59701 0.11153
 H496 H 0.63183 0.55664 0.07028
 H497 H 0.56390 0.62911 0.04664
 H498 H 0.59556 0.66957 0.08798
 H499 H 0.58277 0.59422 0.16748
 H500 H 0.55112 0.55375 0.12613
   
