data_POSCAR
  _audit_creation_date              2014-09-24
  _audit_creation_method            'ToBaCCo'
  _symmetry_space_group_name_H-M    'P1'
  _symmetry_Int_Tables_number       1
  _symmetry_cell_setting            triclinic
  loop_
  _symmetry_equiv_pos_as_xyz
 x,y,z
_cell_length_a 62.4957
_cell_length_b 62.4950
_cell_length_c 22.0955
_cell_angle_alpha 90.000000
_cell_angle_beta 90.000000
_cell_angle_gamma 120.000000
loop_
  _atom_site_label
  _atom_site_type_symbol
  _atom_site_fract_x
  _atom_site_fract_y
  _atom_site_fract_z
C1 C 0.16870 0.47519 0.53070
 C2 C 0.16870 0.47520 0.46834
 C3 C 0.19177 0.48003 0.44863
 N4 N 0.20584 0.48265 0.49952
 C5 C 0.19177 0.48001 0.55041
 C6 C 0.19817 0.48057 0.38430
 C7 C 0.22164 0.48079 0.36603
 C8 C 0.22837 0.47957 0.30667
 C9 C 0.25071 0.47936 0.30672
 C10 C 0.25894 0.48112 0.36603
 N11 N 0.24073 0.48184 0.40166
 C12 C 0.28293 0.48239 0.38430
 C13 C 0.28976 0.48410 0.44868
 C14 C 0.31345 0.49114 0.46837
 C15 C 0.31346 0.49112 0.53081
 C16 C 0.28977 0.48408 0.55053
 N17 N 0.27529 0.48013 0.49962
 C18 C 0.28294 0.48234 0.61492
 C19 C 0.25894 0.48106 0.63315
 C20 C 0.25067 0.47926 0.69243
 C21 C 0.22833 0.47948 0.69243
 C22 C 0.22163 0.48074 0.63307
 N23 N 0.24074 0.48181 0.59748
 C24 C 0.19817 0.48054 0.61474
 H25 H 0.15267 0.47075 0.55798
 H26 H 0.15268 0.47078 0.44106
 H27 H 0.24152 0.48334 0.55072
 H28 H 0.21826 0.47887 0.26634
 H29 H 0.25969 0.47784 0.26649
 H30 H 0.32977 0.49704 0.44094
 H31 H 0.32978 0.49702 0.55822
 H32 H 0.21819 0.47875 0.73274
 H33 H 0.24148 0.48333 0.44843
 H34 H 0.25961 0.47770 0.73267
 C35 C 0.50666 -0.31467 0.53094
 C36 C 0.50617 -0.31506 0.46858
 C37 C 0.51492 -0.29112 0.44786
 N38 N 0.51987 -0.27616 0.49841
 C39 C 0.51521 -0.29059 0.54980
 C40 C 0.51681 -0.28446 0.38307
 C41 C 0.51840 -0.26014 0.36539
 C42 C 0.52279 -0.25032 0.30708
 C43 C 0.52227 -0.22818 0.30728
 C44 C 0.51874 -0.22273 0.36613
 N45 N 0.51631 -0.24263 0.40108
 C46 C 0.51864 -0.19940 0.38446
 C47 C 0.51904 -0.19296 0.44870
 C48 C 0.52466 -0.16958 0.46768
 C49 C 0.52504 -0.16921 0.52993
 C50 C 0.51925 -0.19249 0.55061
 N51 N 0.51610 -0.20694 0.50002
 C52 C 0.51906 -0.19857 0.61534
 C53 C 0.51901 -0.22213 0.63320
 C54 C 0.51859 -0.22994 0.69248
 C55 C 0.51901 -0.25214 0.69203
 C56 C 0.51858 -0.25956 0.63254
 N57 N 0.51875 -0.24081 0.59715
 C58 C 0.51722 -0.28359 0.61408
 H59 H 0.49986 -0.33094 0.55906
 H60 H 0.49852 -0.33179 0.44203
 H61 H 0.51861 -0.24087 0.55020
 H62 H 0.52690 -0.25768 0.26738
 H63 H 0.52473 -0.21716 0.26746
 H64 H 0.52969 -0.15353 0.43988
 H65 H 0.53080 -0.15266 0.55625
 H66 H 0.51942 -0.26171 0.73232
 H67 H 0.51269 -0.24448 0.44722
 H68 H 0.51751 -0.22103 0.73329
 C69 C 1.17144 0.69133 0.46753
 C70 C 1.17141 0.69129 0.52979
 C71 C 1.19375 0.71079 0.54956
 N72 N 1.20740 0.72304 0.49879
 C73 C 1.19380 0.71085 0.44792
 C74 C 1.19955 0.71728 0.61376
 C75 C 1.22247 0.74111 0.63168
 C76 C 1.22715 0.75098 0.68969
 C77 C 1.24929 0.77364 0.68949
 C78 C 1.25984 0.77811 0.63197
 N79 N 1.24278 0.75803 0.59692
 C80 C 1.28454 0.80029 0.61434
 C81 C 1.29164 0.80434 0.54978
 C82 C 1.31595 0.81734 0.53007
 C83 C 1.31599 0.81739 0.46768
 C84 C 1.29170 0.80442 0.44781
 N85 N 1.27672 0.79576 0.49875
 C86 C 1.28467 0.80042 0.38322
 C87 C 1.25997 0.77824 0.36556
 C88 C 1.24942 0.77376 0.30804
 C89 C 1.22728 0.75111 0.30784
 C90 C 1.22259 0.74124 0.36586
 N91 N 1.24289 0.75815 0.40062
 C92 C 1.19966 0.71740 0.38375
 H93 H 1.15575 0.67884 0.44039
 H94 H 1.15571 0.67877 0.55684
 H95 H 1.24546 0.75570 0.44601
 H96 H 1.21562 0.74305 0.72909
 H97 H 1.25616 0.78575 0.72823
 H98 H 1.33244 0.82486 0.55761
 H99 H 1.33250 0.82495 0.44023
 H100 H 1.21575 0.74318 0.26844
 H101 H 1.24537 0.75559 0.55154
 H102 H 1.25630 0.78587 0.26929
 C103 C 0.83079 0.52397 0.53221
 C104 C 0.83064 0.52389 0.46997
 C105 C 0.80740 0.51857 0.45070
 N106 N 0.79330 0.51560 0.50182
 C107 C 0.80752 0.51841 0.55258
 C108 C 0.80107 0.51823 0.38642
 C109 C 0.77772 0.51821 0.36820
 C110 C 0.77131 0.52002 0.30894
 C111 C 0.74907 0.52040 0.30902
 C112 C 0.74055 0.51805 0.36820
 N113 N 0.75852 0.51690 0.40382
 C114 C 0.71645 0.51647 0.38638
 C115 C 0.70948 0.51433 0.45068
 C116 C 0.68542 0.50563 0.46986
 C117 C 0.68524 0.50541 0.53222
 C118 C 0.70927 0.51437 0.55259
 N119 N 0.72409 0.51927 0.50185
 C120 C 0.71604 0.51633 0.61730
 C121 C 0.74038 0.51799 0.63529
 C122 C 0.74945 0.52123 0.69414
 C123 C 0.77154 0.52068 0.69436
 C124 C 0.77803 0.51869 0.63523
 N125 N 0.75844 0.51680 0.59977
 C126 C 0.80143 0.51841 0.61720
 H127 H 0.84722 0.52941 0.55877
 H128 H 0.84675 0.52887 0.44244
 H129 H 0.75715 0.51423 0.55325
 H130 H 0.78156 0.52105 0.26862
 H131 H 0.74039 0.52247 0.26889
 H132 H 0.66907 0.49859 0.44199
 H133 H 0.66859 0.49781 0.55909
 H134 H 0.78141 0.52151 0.73515
 H135 H 0.75749 0.51487 0.45049
 H136 H 0.74151 0.52429 0.73426
 C137 C 0.49471 0.17918 0.47070
 C138 C 0.49577 0.18004 0.53292
 C139 C 0.48672 0.19504 0.55290
 N140 N 0.48174 0.20480 0.50203
 C141 C 0.48656 0.19494 0.45104
 C142 C 0.48308 0.19882 0.61716
 C143 C 0.48005 0.22075 0.63374
 C144 C 0.46965 0.22298 0.68737
 C145 C 0.46955 0.24535 0.68709
 C146 C 0.48002 0.25794 0.63341
 N147 N 0.48575 0.24217 0.60060
 C148 C 0.48342 0.28304 0.61655
 C149 C 0.48739 0.29033 0.55224
 C150 C 0.49892 0.31461 0.53198
 C151 C 0.49855 0.31439 0.46949
 C152 C 0.48723 0.29002 0.45051
 N153 N 0.48084 0.27522 0.50165
 C154 C 0.48335 0.28257 0.38653
 C155 C 0.48020 0.25772 0.36915
 C156 C 0.47348 0.24696 0.31202
 C157 C 0.47369 0.22461 0.31203
 C158 C 0.47998 0.22053 0.36950
 N159 N 0.48392 0.24107 0.40385
 C160 C 0.48281 0.19871 0.38705
 H161 H 0.50015 0.16829 0.44408
 H162 H 0.50343 0.17107 0.55979
 H163 H 0.49005 0.24419 0.44850
 H164 H 0.46161 0.20924 0.72274
 H165 H 0.46133 0.25096 0.72217
 H166 H 0.50801 0.33118 0.55916
 H167 H 0.50699 0.33071 0.44127
 H168 H 0.46961 0.21269 0.27312
 H169 H 0.49433 0.24643 0.55838
 H170 H 0.46848 0.25417 0.27347
 C171 C 0.68460 0.18081 0.53272
 C172 C 0.68479 0.17996 0.47051
 C173 C 0.70869 0.19577 0.45087
 N174 N 0.72337 0.20567 0.50182
 C175 C 0.70863 0.19587 0.55267
 C176 C 0.71623 0.19956 0.38691
 C177 C 0.74082 0.22139 0.36932
 C178 C 0.75118 0.22546 0.31184
 C179 C 0.77371 0.24785 0.31180
 C180 C 0.77771 0.25861 0.36891
 N181 N 0.75737 0.24195 0.40364
 C182 C 0.79933 0.28347 0.38627
 C183 C 0.80288 0.29094 0.45018
 C184 C 0.81585 0.31532 0.46912
 C185 C 0.81569 0.31553 0.53160
 C186 C 0.80302 0.29125 0.55185
 N187 N 0.79451 0.27614 0.50130
 C188 C 0.79973 0.28397 0.61612
 C189 C 0.77810 0.25886 0.63304
 C190 C 0.77603 0.24633 0.68677
 C191 C 0.75361 0.22392 0.68710
 C192 C 0.74098 0.22164 0.63345
 N193 N 0.75663 0.24305 0.60025
 C194 C 0.71607 0.19968 0.61689
 H195 H 0.66796 0.17179 0.55960
 H196 H 0.66848 0.16904 0.44388
 H197 H 0.75228 0.24728 0.55803
 H198 H 0.74337 0.21353 0.27296
 H199 H 0.78591 0.25509 0.27323
 H200 H 0.82368 0.33163 0.44089
 H201 H 0.82314 0.33211 0.55878
 H202 H 0.74795 0.21020 0.72251
 H203 H 0.75434 0.24507 0.44826
 H204 H 0.78987 0.25200 0.72186
 N205 N 0.97212 0.46177 0.11354
 N206 N 0.95446 0.44866 0.15520
 N207 N 1.02661 0.47366 0.06933
 N208 N 1.04406 0.46758 0.08149
 N209 N 1.02729 0.48897 0.11191
 N210 N 1.04525 0.49319 0.15247
 N211 N 0.97116 0.44677 0.06979
 N212 N 0.95258 0.42366 0.08171
 C213 C 0.94186 0.42436 0.13598
 C214 C 1.05629 0.47987 0.13369
 N215 N 1.02708 0.48879 -0.11358
 N216 N 1.04504 0.49301 -0.15415
 N217 N 0.97103 0.44665 -0.07076
 N218 N 0.95249 0.42350 -0.08230
 N219 N 0.97186 0.46152 -0.11472
 N220 N 0.95415 0.44824 -0.15618
 N221 N 1.02648 0.47356 -0.07087
 N222 N 1.04397 0.46754 -0.08296
 Mn223 Mn 0.99877 0.46021 -0.00064
 C224 C 1.05614 0.47978 -0.13524
 C225 C 0.94160 0.42398 -0.13648
 N226 N 1.02784 0.53853 0.11180
 N227 N 1.04577 0.55213 0.15263
 N228 N 0.97239 0.52584 0.06955
 N229 N 0.95477 0.53164 0.08193
 N230 N 0.97237 0.51106 0.11271
 N231 N 0.95455 0.50681 0.15376
 N232 N 1.02758 0.55331 0.06904
 N233 N 1.04513 0.57675 0.08145
 Mn234 Mn 0.99995 0.50012 0.11215
 C235 C 1.05713 0.57652 0.13385
 C236 C 0.94302 0.51963 0.13477
 N237 N 0.97215 0.51094 -0.11416
 N238 N 0.95424 0.50667 -0.15501
 N239 N 1.02745 0.55321 -0.07107
 N240 N 1.04502 0.57663 -0.08361
 N241 N 1.02764 0.53838 -0.11380
 N242 N 1.04554 0.55194 -0.15474
 N243 N 0.97223 0.52573 -0.07092
 N244 N 0.95454 0.53146 -0.08296
 Mn245 Mn 0.99972 0.49994 -0.11376
 Mn246 Mn 0.99988 0.53938 -0.00086
 Cl247 Cl 0.99958 0.49990 -0.00079
 C248 C 0.94271 0.51947 -0.13576
 C249 C 1.05697 0.57635 -0.13608
 N250 N 0.47448 0.44605 0.07038
 N251 N 0.46976 0.42286 0.08221
 N252 N 0.46154 0.48854 0.11306
 N253 N 0.44841 0.49334 0.15399
 N254 N 0.44655 0.47383 0.07012
 N255 N 0.42333 0.46903 0.08208
 N256 N 0.48895 0.46100 0.11370
 N257 N 0.49352 0.44779 0.15501
 C258 C 0.48145 0.42346 0.13606
 C259 C 0.42404 0.48099 0.13555
 N260 N 0.52523 0.55266 0.06972
 N261 N 0.53002 0.57590 0.08142
 N262 N 0.53813 0.51024 0.11337
 N263 N 0.55125 0.50557 0.15458
 N264 N 0.55311 0.52480 0.07022
 N265 N 0.57631 0.52957 0.08226
 N266 N 0.51073 0.53778 0.11311
 N267 N 0.50620 0.55107 0.15426
 Mn268 Mn 0.49983 0.49939 0.11274
 C269 C 0.51834 0.57538 0.13523
 C270 C 0.57560 0.51779 0.13602
 N271 N 0.44655 0.47366 -0.07067
 N272 N 0.42335 0.46894 -0.08258
 N273 N 0.48894 0.46063 -0.11371
 N274 N 0.49336 0.44724 -0.15484
 N275 N 0.47447 0.44584 -0.07017
 N276 N 0.46963 0.42258 -0.08162
 N277 N 0.46153 0.48822 -0.11382
 N278 N 0.44841 0.49299 -0.15484
 Mn279 Mn 0.46054 0.45988 -0.00009
 C280 C 0.42405 0.48079 -0.13626
 C281 C 0.48126 0.42296 -0.13538
 N282 N 0.55314 0.52461 -0.07056
 N283 N 0.57637 0.52942 -0.08231
 N284 N 0.51065 0.53740 -0.11408
 N285 N 0.50586 0.55047 -0.15524
 N286 N 0.52529 0.55247 -0.07114
 N287 N 0.53004 0.57567 -0.08337
 N288 N 0.53822 0.51000 -0.11376
 N289 N 0.55146 0.50540 -0.15484
 Mn290 Mn 0.53917 0.53861 -0.00044
 Mn291 Mn 0.49984 0.49906 -0.11329
 Cl292 Cl 0.49985 0.49924 -0.00028
 C293 C 0.57579 0.51763 -0.13597
 C294 C 0.51814 0.57487 -0.13701
 N295 N 0.44712 -0.02861 0.06891
 N296 N 0.42398 -0.04715 0.08083
 N297 N 0.48954 0.02748 0.11105
 N298 N 0.49387 0.04542 0.15179
 N299 N 0.47416 0.02686 0.06875
 N300 N 0.46798 0.04419 0.08162
 N301 N 0.46210 -0.02777 0.11259
 N302 N 0.44894 -0.04544 0.15421
 C303 C 0.42463 -0.05797 0.13504
 C304 C 0.48048 0.05644 0.13363
 N305 N 0.55372 0.02771 0.06854
 N306 N 0.57715 0.04519 0.08150
 N307 N 0.51144 -0.02762 0.11182
 N308 N 0.50716 -0.04549 0.15278
 N309 N 0.52635 -0.02748 0.06884
 N310 N 0.53220 -0.04507 0.08126
 N311 N 0.53884 0.02791 0.11108
 N312 N 0.55230 0.04578 0.15209
 Mn313 Mn 0.50049 0.00001 0.11126
 C314 C 0.57672 0.05716 0.13380
 C315 C 0.52010 -0.05694 0.13394
 N316 N 0.47446 0.02695 -0.07179
 N317 N 0.46957 0.04535 -0.08294
 N318 N 0.46193 -0.02820 -0.11534
 N319 N 0.44870 -0.04593 -0.15674
 N320 N 0.44703 -0.02877 -0.07178
 N321 N 0.42385 -0.04725 -0.08354
 N322 N 0.48902 0.02677 -0.11532
 N323 N 0.49345 0.04468 -0.15615
 Mn324 Mn 0.46074 -0.00092 -0.00152
 C325 C 0.48123 0.05672 -0.13654
 C326 C 0.42441 -0.05826 -0.13753
 N327 N 0.52625 -0.02773 -0.07167
 N328 N 0.53202 -0.04542 -0.08362
 N329 N 0.53869 0.02720 -0.11539
 N330 N 0.55202 0.04506 -0.15649
 N331 N 0.55355 0.02779 -0.07168
 N332 N 0.57672 0.04634 -0.08293
 N333 N 0.51129 -0.02804 -0.11474
 N334 N 0.50704 -0.04598 -0.15546
 Mn335 Mn 0.53986 0.00007 -0.00153
 Mn336 Mn 0.50025 -0.00056 -0.11478
 Cl337 Cl 0.50031 -0.00036 -0.00164
 C338 C 0.51996 -0.05740 -0.13629
 C339 C 0.57628 0.05744 -0.13679
 C340 C 1.14423 0.48754 0.29246
 C341 C 1.13724 0.46937 0.24960
 C342 C 1.14926 0.45534 0.24700
 C343 C 1.16869 0.45968 0.28898
 C344 C 1.17756 0.47833 0.33495
 C345 C 1.16438 0.49251 0.33518
 O346 O 1.13002 0.49849 0.28812
 C347 C 1.11379 0.48711 0.24157
 C348 C 1.11761 0.46917 0.21646
 C349 C 1.10294 0.45515 0.16732
 C350 C 1.08402 0.45936 0.14296
 C351 C 1.07836 0.47740 0.16598
 C352 C 1.09420 0.49155 0.21749
 H353 H 1.14349 0.44080 0.21365
 H354 H 1.17642 0.44761 0.28634
 H355 H 1.16943 0.50691 0.36860
 H356 H 1.10600 0.44107 0.14751
 H357 H 1.07343 0.44803 0.10509
 H358 H 1.09151 0.50571 0.23817
 C359 C 0.52163 0.66024 0.29852
 C360 C 0.51090 0.65941 0.24384
 C361 C 0.50204 0.67586 0.23275
 C362 C 0.50407 0.69350 0.27787
 C363 C 0.51572 0.69661 0.33592
 C364 C 0.52466 0.67878 0.34444
 O365 O 0.52813 0.64235 0.30119
 C366 C 0.52148 0.63002 0.24715
 C367 C 0.51109 0.64003 0.21013
 C368 C 0.50355 0.63049 0.15117
 C369 C 0.50656 0.61041 0.12928
 C370 C 0.51648 0.59825 0.16482
 C371 C 0.52401 0.60888 0.22609
 H372 H 0.49290 0.67473 0.19028
 H373 H 0.49492 0.70385 0.26767
 H374 H 0.53431 0.67945 0.38562
 H375 H 0.49559 0.63852 0.12177
 H376 H 0.50060 0.60397 0.08354
 H377 H 0.53197 0.60115 0.25642
 C378 C 0.34076 -0.13969 0.30008
 C379 C 0.34008 -0.14896 0.24346
 C380 C 0.32256 -0.17381 0.23078
 C381 C 0.30530 -0.18962 0.27622
 C382 C 0.30358 -0.18165 0.33624
 C383 C 0.32263 -0.15536 0.34656
 O384 O 0.35957 -0.11570 0.30382
 C385 C 0.37092 -0.10965 0.24851
 C386 C 0.35940 -0.12940 0.20970
 C387 C 0.36768 -0.12689 0.14930
 C388 C 0.38803 -0.10395 0.12774
 C389 C 0.40175 -0.08258 0.16493
 C390 C 0.39241 -0.08617 0.22768
 H391 H 0.32257 -0.18136 0.18670
 H392 H 0.29410 -0.20887 0.26435
 H393 H 0.32321 -0.14686 0.38959
 H394 H 0.35843 -0.14236 0.11855
 H395 H 0.39343 -0.10304 0.08084
 H396 H 0.40133 -0.07100 0.25932
 C397 C 0.85509 0.51156 0.29424
 C398 C 0.86213 0.52987 0.25175
 C399 C 0.85018 0.54397 0.24959
 C400 C 0.83074 0.53953 0.29161
 C401 C 0.82176 0.52067 0.33707
 C402 C 0.83491 0.50647 0.33695
 O403 O 0.86929 0.50061 0.28957
 C404 C 0.88555 0.51213 0.24317
 C405 C 0.88176 0.53015 0.21848
 C406 C 0.89642 0.54429 0.16949
 C407 C 0.91532 0.54011 0.14484
 C408 C 0.92098 0.52202 0.16747
 C409 C 0.90514 0.50774 0.21885
 H410 H 0.85603 0.55864 0.21660
 H411 H 0.82311 0.55169 0.28943
 H412 H 0.82981 0.49197 0.37010
 H413 H 0.89337 0.55843 0.15000
 H414 H 0.92591 0.55154 0.10708
 H415 H 0.90783 0.49352 0.23920
 C416 C 0.47888 0.33927 0.30035
 C417 C 0.48845 0.33925 0.24450
 C418 C 0.49651 0.32221 0.23246
 C419 C 0.49481 0.30481 0.27781
 C420 C 0.48424 0.30261 0.33676
 C421 C 0.47620 0.32099 0.34662
 O422 O 0.47313 0.35769 0.30365
 C423 C 0.47900 0.36943 0.24884
 C424 C 0.48819 0.35856 0.21075
 C425 C 0.49471 0.36736 0.15091
 C426 C 0.49190 0.38756 0.12919
 C427 C 0.48325 0.40061 0.16574
 C428 C 0.47676 0.39075 0.22791
 H429 H 0.50461 0.32259 0.18891
 H430 H 0.50262 0.29331 0.26659
 H431 H 0.46799 0.32119 0.38954
 H432 H 0.50169 0.35864 0.12070
 H433 H 0.49701 0.39340 0.08273
 H434 H 0.46976 0.39916 0.25902
 C435 C 0.65646 0.14690 0.28880
 C436 C 0.66729 0.13571 0.25808
 C437 C 0.69285 0.14467 0.26502
 C438 C 0.70770 0.16516 0.30463
 C439 C 0.69827 0.17821 0.33846
 C440 C 0.67155 0.16841 0.32805
 O441 O 0.63164 0.13514 0.27706
 C442 C 0.62666 0.11621 0.23807
 C443 C 0.64804 0.11600 0.22469
 C444 C 0.64726 0.09826 0.18406
 C445 C 0.62440 0.08033 0.15637
 C446 C 0.60104 0.07859 0.16820
 C447 C 0.60283 0.09753 0.21113
 H448 H 0.70132 0.13568 0.24116
 H449 H 0.72696 0.17054 0.30994
 H450 H 0.66254 0.17730 0.34976
 H451 H 0.66413 0.09821 0.17321
 H452 H 0.62501 0.06727 0.12529
 H453 H 0.58625 0.09797 0.22274
 C454 C 0.47860 0.13868 -0.29937
 C455 C 0.48604 0.14752 -0.24192
 C456 C 0.49204 0.17198 -0.22825
 C457 C 0.49075 0.18790 -0.27381
 C458 C 0.48289 0.18046 -0.33525
 C459 C 0.47624 0.15435 -0.34582
 O460 O 0.47430 0.11502 -0.30405
 C461 C 0.47903 0.10869 -0.24849
 C462 C 0.48598 0.12792 -0.20856
 C463 C 0.49092 0.12493 -0.14775
 C464 C 0.48883 0.10208 -0.12706
 C465 C 0.48254 0.08130 -0.16547
 C466 C 0.47760 0.08537 -0.22852
 H467 H 0.49832 0.17913 -0.18315
 H468 H 0.49724 0.20681 -0.26066
 H469 H 0.46862 0.14578 -0.38895
 H470 H 0.49611 0.13994 -0.11606
 H471 H 0.49265 0.10079 -0.07982
 H472 H 0.47236 0.07065 -0.26109
 C473 C 0.66087 0.52124 -0.29832
 C474 C 0.65947 0.50976 -0.24441
 C475 C 0.67544 0.50030 -0.23384
 C476 C 0.69324 0.50254 -0.27868
 C477 C 0.69699 0.51501 -0.33575
 C478 C 0.67956 0.52444 -0.34391
 O479 O 0.64332 0.52819 -0.30064
 C480 C 0.63064 0.52109 -0.24715
 C481 C 0.64007 0.50993 -0.21083
 C482 C 0.63007 0.50176 -0.15251
 C483 C 0.61012 0.50493 -0.13054
 C484 C 0.59857 0.51566 -0.16543
 C485 C 0.60965 0.52383 -0.22604
 H486 H 0.67380 0.49054 -0.19209
 H487 H 0.70314 0.49287 -0.26923
 H488 H 0.68063 0.53452 -0.38465
 H489 H 0.63765 0.49319 -0.12367
 H490 H 0.60328 0.49847 -0.08530
 H491 H 0.60238 0.53240 -0.25580
 C492 C 0.85951 0.34051 -0.30155
 C493 C 0.85123 0.33809 -0.24317
 C494 C 0.82715 0.31903 -0.22883
 C495 C 0.81108 0.30211 -0.27451
 C496 C 0.81804 0.30244 -0.33676
 C497 C 0.84366 0.32281 -0.34845
 O498 O 0.88285 0.36043 -0.30648
 C499 C 0.88951 0.37076 -0.25016
 C500 C 0.87080 0.35748 -0.20958
 C501 C 0.87416 0.36448 -0.14807
 C502 C 0.89687 0.38534 -0.12722
 C503 C 0.91713 0.40082 -0.16606
 C504 C 0.91268 0.39276 -0.22990
 H505 H 0.82039 0.31748 -0.18302
 H506 H 0.79239 0.28929 -0.26056
 H507 H 0.85168 0.32472 -0.39281
 H508 H 0.85955 0.35387 -0.11598
 H509 H 0.89847 0.38970 -0.07943
 H510 H 0.92701 0.40303 -0.26288
 C511 C 0.51297 -0.14468 -0.29742
 C512 C 0.52868 -0.13999 -0.24962
 C513 C 0.54074 -0.15387 -0.24317
 C514 C 0.53695 -0.17282 -0.28620
 C515 C 0.52087 -0.17935 -0.33778
 C516 C 0.50868 -0.16419 -0.34162
 O517 O 0.50347 -0.12913 -0.29585
 C518 C 0.51336 -0.11429 -0.24618
 C519 C 0.52894 -0.12032 -0.21640
 C520 C 0.54121 -0.10728 -0.16367
 C521 C 0.53767 -0.08775 -0.14050
 C522 C 0.52195 -0.07991 -0.16800
 C523 C 0.50953 -0.09415 -0.22310
 H524 H 0.55345 -0.14985 -0.20596
 H525 H 0.54813 -0.18141 -0.28044
 H526 H 0.49581 -0.16760 -0.37810
 H527 H 0.55347 -0.11203 -0.14022
 H528 H 0.54762 -0.07848 -0.09979
 H529 H 0.49721 -0.08975 -0.24744
 C530 C 0.33774 0.47583 -0.29576
 C531 C 0.34197 0.49086 -0.24661
 C532 C 0.32806 0.50287 -0.23963
 C533 C 0.30955 0.49967 -0.28339
 C534 C 0.30327 0.48393 -0.33543
 C535 C 0.31838 0.47180 -0.34009
 O536 O 0.35355 0.46666 -0.29526
 C537 C 0.36796 0.47592 -0.24478
 C538 C 0.36141 0.49071 -0.21315
 C539 C 0.37375 0.50182 -0.15862
 C540 C 0.39311 0.49789 -0.13567
 C541 C 0.40160 0.48326 -0.16584
 C542 C 0.38817 0.47212 -0.22261
 H543 H 0.33172 0.51509 -0.20149
 H544 H 0.30045 0.51036 -0.27696
 H545 H 0.31535 0.45961 -0.37789
 H546 H 0.36850 0.51335 -0.13350
 H547 H 0.40189 0.50680 -0.09354
 H548 H 0.39314 0.46061 -0.24871
 C549 C 1.14588 0.65663 -0.29284
 C550 C 1.13718 0.66774 -0.25432
 C551 C 1.14788 0.69370 -0.25513
 C552 C 1.16776 0.70877 -0.29607
 C553 C 1.17854 0.69911 -0.33727
 C554 C 1.16663 0.67184 -0.33413
 O555 O 1.13261 0.63149 -0.28614
 C556 C 1.11524 0.62659 -0.24242
 C557 C 1.11746 0.64831 -0.22137
 C558 C 1.10152 0.64763 -0.17540
 C559 C 1.08296 0.62452 -0.15006
 C560 C 1.07883 0.60083 -0.16918
 C561 C 1.09595 0.60255 -0.21755
 H562 H 1.14068 0.70238 -0.22544
 H563 H 1.17429 0.72839 -0.29665
 H564 H 1.17307 0.66256 -0.36411
 H565 H 1.10334 0.66474 -0.15870
 H566 H 1.07137 0.62526 -0.11469
 H567 H 1.09451 0.58572 -0.23507
 C568 C 0.85506 0.51213 -0.29541
 C569 C 0.86073 0.52888 -0.24954
 C570 C 0.84769 0.54184 -0.24452
 C571 C 0.82852 0.53784 -0.28698
 C572 C 0.82083 0.52055 -0.33622
 C573 C 0.83524 0.50756 -0.33886
 O574 O 0.87005 0.50201 -0.29293
 C575 C 0.88551 0.51254 -0.24459
 C576 C 0.88041 0.52912 -0.21654
 C577 C 0.89415 0.54214 -0.16529
 C578 C 0.91344 0.53832 -0.14180
 C579 C 0.92037 0.52162 -0.16766
 C580 C 0.90545 0.50847 -0.22129
 H581 H 0.85258 0.55545 -0.20904
 H582 H 0.82075 0.54982 -0.28293
 H583 H 0.83108 0.49397 -0.37400
 H584 H 0.89010 0.55517 -0.14321
 H585 H 0.92327 0.54886 -0.10224
 H586 H 0.90914 0.49537 -0.24426
 C587 C 0.48004 0.33954 -0.30076
 C588 C 0.48577 0.33701 -0.24232
 C589 C 0.49077 0.31793 -0.22808
 C590 C 0.49003 0.30108 -0.27389
 C591 C 0.48352 0.30149 -0.33622
 C592 C 0.47829 0.32190 -0.34780
 O593 O 0.47665 0.35948 -0.30561
 C594 C 0.48019 0.36972 -0.24918
 C595 C 0.48551 0.35636 -0.20861
 C596 C 0.48900 0.36327 -0.14701
 C597 C 0.48712 0.38412 -0.12608
 C598 C 0.48247 0.39970 -0.16489
 C599 C 0.47901 0.39172 -0.22883
 H600 H 0.49589 0.31630 -0.18224
 H601 H 0.49590 0.28827 -0.25993
 H602 H 0.47225 0.32388 -0.39219
 H603 H 0.49291 0.35259 -0.11489
 H604 H 0.48978 0.38840 -0.07824
 H605 H 0.47508 0.40207 -0.26185
 C606 C 0.66059 0.13949 -0.29968
 C607 C 0.66190 0.14836 -0.24230
 C608 C 0.68026 0.17286 -0.22864
 C609 C 0.69745 0.18879 -0.27417
 C610 C 0.69794 0.18132 -0.33554
 C611 C 0.67860 0.15517 -0.34609
 O612 O 0.64133 0.11579 -0.30433
 C613 C 0.63023 0.10946 -0.24882
 C614 C 0.64241 0.12874 -0.20895
 C615 C 0.63445 0.12579 -0.14821
 C616 C 0.61375 0.10291 -0.12749
 C617 C 0.59939 0.08207 -0.16584
 C618 C 0.60843 0.08610 -0.22883
 H619 H 0.68106 0.18002 -0.18359
 H620 H 0.70981 0.20773 -0.26109
 H621 H 0.67772 0.14661 -0.38918
 H622 H 0.64418 0.14084 -0.11658
 H623 H 0.60861 0.10162 -0.08028
 H624 H 0.59905 0.07133 -0.26132
 C625 C 1.14419 0.48749 -0.29361
 C626 C 1.13718 0.46931 -0.25078
 C627 C 1.14919 0.45527 -0.24812
 C628 C 1.16864 0.45962 -0.29002
 C629 C 1.17754 0.47829 -0.33595
 C630 C 1.16438 0.49248 -0.33623
 O631 O 1.12998 0.49844 -0.28934
 C632 C 1.11372 0.48705 -0.24288
 C633 C 1.11752 0.46910 -0.21774
 C634 C 1.10282 0.45507 -0.16866
 C635 C 1.08388 0.45928 -0.14439
 C636 C 1.07824 0.47732 -0.16746
 C637 C 1.09411 0.49148 -0.21890
 H638 H 1.14339 0.44072 -0.21480
 H639 H 1.17636 0.44754 -0.28737
 H640 H 1.16946 0.50689 -0.36962
 H641 H 1.10587 0.44098 -0.14883
 H642 H 1.07326 0.44793 -0.10656
 H643 H 1.09143 0.50565 -0.23960
 C644 C 0.52339 0.66138 -0.29663
 C645 C 0.50795 0.65681 -0.24819
 C646 C 0.49562 0.67044 -0.24185
 C647 C 0.49900 0.68909 -0.28539
 C648 C 0.51527 0.69584 -0.33648
 C649 C 0.52755 0.68085 -0.34082
 O650 O 0.53279 0.64577 -0.29564
 C651 C 0.52326 0.63114 -0.24556
 C652 C 0.50804 0.63734 -0.21470
 C653 C 0.49655 0.62472 -0.16074
 C654 C 0.50053 0.60542 -0.13755
 C655 C 0.51563 0.59729 -0.16686
 C656 C 0.52716 0.61101 -0.22308
 H657 H 0.48302 0.66645 -0.20439
 H658 H 0.48799 0.69787 -0.27960
 H659 H 0.53994 0.68408 -0.37829
 H660 H 0.48467 0.62969 -0.13624
 H661 H 0.49131 0.59642 -0.09588
 H662 H 0.53902 0.60632 -0.24857
 C663 C 0.34054 -0.13988 -0.30238
 C664 C 0.33987 -0.14917 -0.24580
 C665 C 0.32237 -0.17404 -0.23318
 C666 C 0.30513 -0.18982 -0.27866
 C667 C 0.30342 -0.18181 -0.33863
 C668 C 0.32244 -0.15552 -0.34888
 O669 O 0.35934 -0.11589 -0.30610
 C670 C 0.37068 -0.10986 -0.25079
 C671 C 0.35917 -0.12962 -0.21201
 C672 C 0.36744 -0.12714 -0.15162
 C673 C 0.38779 -0.10420 -0.13005
 C674 C 0.40149 -0.08284 -0.16724
 C675 C 0.39216 -0.08640 -0.22997
 H676 H 0.32238 -0.18160 -0.18912
 H677 H 0.29395 -0.20909 -0.26686
 H678 H 0.32301 -0.14700 -0.39188
 H679 H 0.35820 -0.14261 -0.12090
 H680 H 0.39320 -0.10330 -0.08316
 H681 H 0.40108 -0.07123 -0.26159
 C682 C 0.51192 -0.14532 0.29229
 C683 C 0.53073 -0.13770 0.25102
 C684 C 0.54526 -0.14921 0.24974
 C685 C 0.54071 -0.16883 0.29131
 C686 C 0.52126 -0.17853 0.33530
 C687 C 0.50670 -0.16573 0.33448
 O688 O 0.50065 -0.13143 0.28709
 C689 C 0.51247 -0.11477 0.24156
 C690 C 0.53099 -0.11802 0.21794
 C691 C 0.54549 -0.10289 0.16992
 C692 C 0.54117 -0.08410 0.14515
 C693 C 0.52257 -0.07896 0.16672
 C694 C 0.50794 -0.09526 0.21715
 H695 H 0.56037 -0.14285 0.21786
 H696 H 0.55327 -0.17600 0.29004
 H697 H 0.49184 -0.17126 0.36678
 H698 H 0.56003 -0.10552 0.15124
 H699 H 0.55289 -0.07316 0.10816
 H700 H 0.49331 -0.09301 0.23667
 C701 C 0.33768 0.47590 0.29489
 C702 C 0.34199 0.49103 0.24593
 C703 C 0.32815 0.50311 0.23909
 C704 C 0.30961 0.49986 0.28282
 C705 C 0.30326 0.48402 0.33467
 C706 C 0.31831 0.47183 0.33919
 O707 O 0.35343 0.46667 0.29426
 C708 C 0.36790 0.47600 0.24390
 C709 C 0.36143 0.49090 0.21247
 C710 C 0.37385 0.50213 0.15809
 C711 C 0.39320 0.49820 0.13511
 C712 C 0.40158 0.48344 0.16508
 C713 C 0.38808 0.47219 0.22167
 H714 H 0.33187 0.51541 0.20110
 H715 H 0.30055 0.51059 0.27652
 H716 H 0.31522 0.45956 0.37686
 H717 H 0.36867 0.51375 0.13315
 H718 H 0.40204 0.50720 0.09311
 H719 H 0.39299 0.46060 0.24762
 C720 C 1.14607 0.65680 0.29029
 C721 C 1.13732 0.66791 0.25187
 C722 C 1.14800 0.69387 0.25272
 C723 C 1.16789 0.70893 0.29363
 C724 C 1.17868 0.69927 0.33473
 C725 C 1.16682 0.67201 0.33153
 O726 O 1.13281 0.63167 0.28358
 C727 C 1.11542 0.62677 0.23994
 C728 C 1.11760 0.64848 0.21895
 C729 C 1.10163 0.64779 0.17307
 C730 C 1.08308 0.62468 0.14775
 C731 C 1.07899 0.60101 0.16684
 C732 C 1.09614 0.60273 0.21511
 H733 H 1.14077 0.70254 0.22310
 H734 H 1.17439 0.72855 0.29428
 H735 H 1.17328 0.66273 0.36145
 H736 H 1.10342 0.66490 0.15642
 H737 H 1.07145 0.62541 0.11244
 H738 H 1.09472 0.58590 0.23259
 C739 C 0.49011 0.14610 0.28880
 C740 C 0.46814 0.13492 0.25790
 C741 C 0.45151 0.14385 0.26478
 C742 C 0.45708 0.16432 0.30447
 C743 C 0.47951 0.17738 0.33852
 C744 C 0.49645 0.16759 0.32817
 O745 O 0.50322 0.13438 0.27710
 C746 C 0.48934 0.11547 0.23795
 C747 C 0.46775 0.11524 0.22444
 C748 C 0.45086 0.09749 0.18364
 C749 C 0.45587 0.07960 0.15596
 C750 C 0.47750 0.07788 0.16791
 C751 C 0.49456 0.09683 0.21099
 H752 H 0.43408 0.13488 0.24078
 H753 H 0.44317 0.16967 0.30968
 H754 H 0.51432 0.17647 0.35000
 H755 H 0.43395 0.09742 0.17267
 H756 H 0.44224 0.06654 0.12478
 H757 H 0.51159 0.09729 0.22275
 C758 C 0.66122 0.52237 0.29751
 C759 C 0.65792 0.50834 0.24685
 C760 C 0.67241 0.49702 0.23897
 C761 C 0.69064 0.49995 0.28328
 C762 C 0.69612 0.51484 0.33671
 C763 C 0.68031 0.52617 0.34245
 O764 O 0.64489 0.53089 0.29768
 C765 C 0.63109 0.52226 0.24609
 C766 C 0.63857 0.50851 0.21309
 C767 C 0.62706 0.49826 0.15719
 C768 C 0.60757 0.50198 0.13425
 C769 C 0.59810 0.51548 0.16581
 C770 C 0.61069 0.52575 0.22397
 H771 H 0.66942 0.48551 0.19970
 H772 H 0.70014 0.48969 0.27606
 H773 H 0.68264 0.53760 0.38143
 H774 H 0.63306 0.48759 0.13100
 H775 H 0.59947 0.49380 0.09101
 H776 H 0.60496 0.53640 0.25114
 C777 C 0.86039 0.34020 0.30023
 C778 C 0.85076 0.34021 0.24446
 C779 C 0.82568 0.32316 0.23238
 C780 C 0.81001 0.30573 0.27768
 C781 C 0.81842 0.30351 0.33654
 C782 C 0.84483 0.32189 0.34643
 O783 O 0.88454 0.35862 0.30355
 C784 C 0.89037 0.37040 0.24880
 C785 C 0.87030 0.35955 0.21076
 C786 C 0.87252 0.36837 0.15099
 C787 C 0.89552 0.38859 0.12928
 C788 C 0.91721 0.40160 0.16580
 C789 C 0.91391 0.39172 0.22790
 H790 H 0.81794 0.32358 0.18888
 H791 H 0.79070 0.29420 0.26649
 H792 H 0.85325 0.32207 0.38932
 H793 H 0.85680 0.35966 0.12083
 H794 H 0.89622 0.39445 0.08285
 H795 H 0.92935 0.40010 0.25893
   
