data_POSCAR
  _audit_creation_date              2014-09-24
  _audit_creation_method            'ToBaCCo'
  _symmetry_space_group_name_H-M    'P1'
  _symmetry_Int_Tables_number       1
  _symmetry_cell_setting            triclinic
  loop_
  _symmetry_equiv_pos_as_xyz
 x,y,z
_cell_length_a 46.6225
_cell_length_b 43.1276
_cell_length_c 36.5102
_cell_angle_alpha 90.651000
_cell_angle_beta 89.944900
_cell_angle_gamma 90.013900
loop_
  _atom_site_label
  _atom_site_type_symbol
  _atom_site_fract_x
  _atom_site_fract_y
  _atom_site_fract_z
C1 C 0.29576 0.29182 0.23671
 H2 H 0.29741 0.29174 0.26627
 C3 C 0.31373 0.31087 0.21626
 H4 H 0.32937 0.32524 0.23031
 C5 C 0.27364 0.27264 0.18262
 H6 H 0.25814 0.25757 0.16958
 C7 C 0.29122 0.29132 0.16108
 H8 H 0.28861 0.29083 0.13162
 N9 N 0.27584 0.27366 0.21977
 C10 C 0.20807 0.26221 0.30109
 H11 H 0.20655 0.23720 0.30215
 C12 C 0.18998 0.28058 0.32282
 H13 H 0.17480 0.26952 0.34094
 C14 C 0.22989 0.30693 0.27628
 H15 H 0.24506 0.31720 0.25765
 C16 C 0.21228 0.32615 0.29752
 H17 H 0.21417 0.35105 0.29491
 Zn18 Zn 0.25178 0.24948 0.25001
 N19 N 0.22783 0.27557 0.27883
 C20 C 0.27380 0.22635 0.31728
 N21 N 0.27591 0.22533 0.28013
 C22 C 0.29582 0.20720 0.26307
 C23 C 0.31388 0.18821 0.28341
 C24 C 0.29146 0.20772 0.33872
 C25 C 0.20799 0.23674 0.19918
 C26 C 0.18990 0.21837 0.17748
 C27 C 0.21228 0.17280 0.20258
 C28 C 0.22989 0.19201 0.22379
 N29 N 0.22779 0.22337 0.22132
 H30 H 0.25830 0.24139 0.33042
 H31 H 0.29740 0.20728 0.23350
 H32 H 0.32951 0.17387 0.26928
 H33 H 0.28892 0.20823 0.36820
 H34 H 0.20645 0.26175 0.19817
 H35 H 0.17470 0.22944 0.15945
 H36 H 0.21420 0.14790 0.20511
 H37 H 0.24509 0.18175 0.24233
 C38 C 0.19213 0.31304 0.32138
 C39 C 0.31139 0.31104 0.17791
 C40 C 0.19209 0.18592 0.17882
 C41 C 0.31163 0.18806 0.32178
 C42 C 0.79496 0.79242 0.23501
 H43 H 0.79645 0.79303 0.26459
 C44 C 0.81306 0.81097 0.21412
 H45 H 0.82755 0.82628 0.22868
 C46 C 0.77271 0.77252 0.18154
 H47 H 0.75737 0.75702 0.16889
 C48 C 0.79033 0.79072 0.15950
 H49 H 0.78825 0.78800 0.13016
 N50 N 0.77494 0.77412 0.21860
 C51 C 0.70769 0.76359 0.30077
 H52 H 0.70625 0.73860 0.30215
 C53 C 0.68942 0.78209 0.32208
 H54 H 0.67384 0.77114 0.33972
 C55 C 0.72917 0.80815 0.27509
 H56 H 0.74438 0.81829 0.25640
 C57 C 0.71130 0.82750 0.29581
 H58 H 0.71347 0.85239 0.29336
 Zn59 Zn 0.75092 0.75039 0.24938
 N60 N 0.72731 0.77682 0.27820
 C61 C 0.77330 0.72743 0.31656
 N62 N 0.77503 0.72613 0.27938
 C63 C 0.79449 0.70755 0.26216
 C64 C 0.81245 0.68835 0.28238
 C65 C 0.79089 0.70862 0.33788
 C66 C 0.70676 0.73796 0.19908
 C67 C 0.68800 0.71975 0.17815
 C68 C 0.70945 0.67400 0.20410
 C69 C 0.72782 0.69305 0.22443
 N70 N 0.72642 0.72441 0.22127
 H71 H 0.75816 0.74283 0.32981
 H72 H 0.79576 0.70739 0.23257
 H73 H 0.82771 0.67364 0.26811
 H74 H 0.78865 0.70935 0.36740
 H75 H 0.70571 0.76297 0.19764
 H76 H 0.67243 0.73095 0.16075
 H77 H 0.71127 0.64908 0.20654
 H78 H 0.74307 0.68268 0.24282
 C79 C 0.69111 0.81453 0.31975
 C80 C 0.81090 0.81079 0.17550
 C81 C 0.68924 0.68730 0.18049
 C82 C 0.81057 0.68847 0.32078
 C83 C 0.79606 0.29211 0.73756
 H84 H 0.79787 0.29214 0.76710
 C85 C 0.81394 0.31104 0.71684
 H86 H 0.82970 0.32542 0.73066
 C87 C 0.77356 0.27279 0.68379
 H88 H 0.75794 0.25772 0.67098
 C89 C 0.79105 0.29135 0.66198
 H90 H 0.78826 0.29076 0.63254
 N91 N 0.77599 0.27394 0.72091
 C92 C 0.70868 0.26315 0.80293
 H93 H 0.70715 0.23815 0.80417
 C94 C 0.69066 0.28165 0.82459
 H95 H 0.67552 0.27069 0.84285
 C96 C 0.73046 0.30773 0.77769
 H97 H 0.74557 0.31788 0.75889
 C98 C 0.71291 0.32707 0.79885
 H99 H 0.71479 0.35195 0.79604
 Zn100 Zn 0.75204 0.25004 0.75159
 N101 N 0.72837 0.27638 0.78046
 C102 C 0.77455 0.22738 0.81873
 N103 N 0.77623 0.22593 0.78166
 C104 C 0.79582 0.20750 0.76468
 C105 C 0.81397 0.18857 0.78499
 C106 C 0.79228 0.20891 0.84026
 C107 C 0.70784 0.23736 0.70136
 C108 C 0.68917 0.21903 0.68046
 C109 C 0.71103 0.17342 0.70615
 C110 C 0.72931 0.19259 0.72647
 N111 N 0.72766 0.22394 0.72344
 H112 H 0.75917 0.24259 0.83184
 H113 H 0.79729 0.20746 0.73510
 H114 H 0.82972 0.17542 0.76969
 H115 H 0.78857 0.20996 0.86943
 H116 H 0.70659 0.26237 0.70003
 H117 H 0.67346 0.23013 0.66316
 H118 H 0.71306 0.14851 0.70850
 H119 H 0.74469 0.18230 0.74476
 C120 C 0.69279 0.31409 0.82287
 C121 C 0.81136 0.31109 0.67851
 C122 C 0.69066 0.18658 0.68268
 C123 C 0.81245 0.18839 0.82381
 C124 C 0.29423 0.79213 0.73615
 H125 H 0.29567 0.79204 0.76572
 C126 C 0.31234 0.81119 0.71591
 H127 H 0.32789 0.82555 0.73015
 C128 C 0.27248 0.77298 0.68180
 H129 H 0.25706 0.75790 0.66859
 C130 C 0.29021 0.79167 0.66047
 H131 H 0.28781 0.79118 0.63098
 N132 N 0.27444 0.77397 0.71897
 C133 C 0.20649 0.76245 0.79999
 H134 H 0.20517 0.73744 0.80123
 C135 C 0.18797 0.78076 0.82117
 H136 H 0.17233 0.76966 0.83859
 C137 C 0.22793 0.80724 0.77480
 H138 H 0.24322 0.81753 0.75635
 C139 C 0.20981 0.82640 0.79539
 H140 H 0.21188 0.85131 0.79310
 Zn141 Zn 0.25026 0.74979 0.74905
 N142 N 0.22621 0.77588 0.77772
 C143 C 0.27219 0.72660 0.81637
 N144 N 0.27425 0.72555 0.77921
 C145 C 0.29403 0.70728 0.76212
 C146 C 0.31201 0.68818 0.78244
 C147 C 0.28978 0.70788 0.83779
 C148 C 0.20660 0.73726 0.69800
 C149 C 0.18805 0.71899 0.67685
 C150 C 0.20963 0.67331 0.70277
 C151 C 0.22779 0.69242 0.72333
 N152 N 0.22621 0.72378 0.72033
 H153 H 0.25679 0.74176 0.82952
 H154 H 0.29557 0.70732 0.73255
 H155 H 0.32755 0.67374 0.76828
 H156 H 0.28729 0.70842 0.86727
 H157 H 0.20538 0.76227 0.69670
 H158 H 0.17248 0.73013 0.65939
 H159 H 0.21157 0.64839 0.70514
 H160 H 0.24299 0.68209 0.74183
 C161 C 0.18952 0.81322 0.81903
 C162 C 0.31027 0.81138 0.67754
 C163 C 0.18944 0.68653 0.67909
 C164 C 0.30982 0.68807 0.82081
 C165 C -0.03257 -0.02359 0.01790
 C166 C -0.01736 0.00021 0.00059
 C167 C -0.03239 0.02409 -0.01678
 C168 C -0.06243 0.02397 -0.01720
 C169 C -0.07752 0.00036 0.00047
 C170 C -0.06261 -0.02333 0.01820
 C171 C 0.01423 0.00003 0.00047
 C172 C 0.02919 -0.02389 -0.01761
 C173 C 0.05923 -0.02384 -0.01817
 C174 C 0.07438 -0.00026 0.00003
 C175 C 0.05956 0.02347 0.01846
 C176 C 0.02952 0.02382 0.01833
 H177 H -0.02103 -0.04197 0.03155
 H178 H -0.02071 0.04235 -0.03048
 H179 H 0.01746 -0.04215 -0.03172
 H180 H 0.01805 0.04222 0.03255
 H181 H -0.10078 0.00039 0.00038
 H182 H 0.09764 -0.00036 -0.00016
 C183 C -0.03276 0.47564 0.51592
 C184 C -0.01768 0.49937 0.49829
 C185 C -0.03284 0.52299 0.48061
 C186 C -0.06287 0.52269 0.48021
 C187 C -0.07783 0.49915 0.49819
 C188 C -0.06280 0.47573 0.51623
 C189 C 0.01391 0.49955 0.49848
 C190 C 0.02924 0.47568 0.48081
 C191 C 0.05928 0.47601 0.48075
 C192 C 0.07405 0.49982 0.49904
 C193 C 0.05887 0.52350 0.51706
 C194 C 0.02884 0.52356 0.51643
 H195 H -0.02112 0.45752 0.52990
 H196 H -0.02125 0.54124 0.46674
 H197 H 0.01778 0.45721 0.46669
 H198 H 0.01707 0.54189 0.53039
 H199 H -0.10110 0.49909 0.49818
 H200 H 0.09732 0.49991 0.49929
 C201 C 0.46826 -0.02359 0.51857
 C202 C 0.48344 0.00013 0.50106
 C203 C 0.46838 0.02376 0.48326
 C204 C 0.43834 0.02347 0.48263
 C205 C 0.42329 -0.00006 0.50048
 C206 C 0.43822 -0.02350 0.51863
 C207 C 0.51502 0.00021 0.50130
 C208 C 0.53028 -0.02339 0.48306
 C209 C 0.56032 -0.02309 0.48288
 C210 C 0.57516 0.00043 0.50162
 C211 C 0.56004 0.02384 0.52020
 C212 C 0.53000 0.02393 0.51970
 H213 H 0.47983 -0.04175 0.53258
 H214 H 0.48004 0.04198 0.46944
 H215 H 0.51878 -0.04160 0.46856
 H216 H 0.51828 0.04208 0.53405
 H217 H 0.40003 -0.00014 0.50026
 H218 H 0.59843 0.00052 0.50173
 C219 C 0.46736 0.47639 0.01649
 C220 C 0.48238 0.50017 -0.00113
 C221 C 0.46716 0.52371 -0.01887
 C222 C 0.43712 0.52327 -0.01933
 C223 C 0.42223 0.49969 -0.00136
 C224 C 0.43732 0.47635 0.01673
 C225 C 0.51397 0.50048 -0.00086
 C226 C 0.52940 0.47671 -0.01856
 C227 C 0.55944 0.47714 -0.01849
 C228 C 0.57410 0.50096 -0.00004
 C229 C 0.55881 0.52453 0.01800
 C230 C 0.52878 0.52449 0.01725
 H231 H 0.47905 0.45833 0.03051
 H232 H 0.47870 0.54200 -0.03273
 H233 H 0.51804 0.45824 -0.03279
 H234 H 0.51692 0.54273 0.03124
 H235 H 0.39897 0.49952 -0.00142
 H236 H 0.59737 0.50112 0.00032
 C237 C 0.14066 -0.12032 -0.15278
 C238 C 0.13489 -0.12742 -0.11621
 C239 C 0.14643 -0.15431 -0.10096
 C240 C 0.16391 -0.17388 -0.12212
 C241 C 0.17014 -0.16670 -0.15879
 C242 C 0.15814 -0.13980 -0.17394
 C243 C 0.11780 -0.10656 -0.09421
 C244 C 0.10383 -0.08849 -0.07617
 C245 C 0.08788 -0.06666 -0.05551
 C246 C 0.07462 -0.04745 -0.03826
 H247 H 0.13180 -0.09959 -0.16487
 H248 H 0.14219 -0.15996 -0.07263
 H249 H 0.17308 -0.19422 -0.10957
 H250 H 0.16218 -0.13389 -0.20223
 C251 C 0.12678 0.34564 0.37074
 C252 C 0.13817 0.37250 0.38696
 C253 C 0.16721 0.37960 0.38230
 C254 C 0.18478 0.36012 0.36126
 C255 C 0.17352 0.33321 0.34452
 C256 C 0.14435 0.32606 0.34969
 C257 C 0.12009 0.39327 0.40774
 C258 C 0.10543 0.41130 0.42489
 C259 C 0.08881 0.43313 0.44467
 C260 C 0.07509 0.45236 0.46128
 H261 H 0.10430 0.33998 0.37407
 H262 H 0.17627 0.40031 0.39478
 H263 H 0.20723 0.36602 0.35826
 H264 H 0.13499 0.30570 0.33684
 C265 C 0.64842 -0.15268 0.39993
 C266 C 0.63684 -0.12582 0.38466
 C267 C 0.64253 -0.11879 0.34805
 C268 C 0.65995 -0.13832 0.32686
 C269 C 0.67195 -0.16522 0.34202
 C270 C 0.66583 -0.17230 0.37875
 C271 C 0.61969 -0.10501 0.40664
 C272 C 0.60562 -0.08705 0.42469
 C273 C 0.58948 -0.06540 0.44539
 C274 C 0.57601 -0.04640 0.46270
 H275 H 0.64424 -0.15828 0.42829
 H276 H 0.63364 -0.09809 0.33594
 H277 H 0.66389 -0.13248 0.29853
 H278 H 0.67501 -0.19263 0.39131
 C279 C 0.62741 0.34684 -0.12799
 C280 C 0.63875 0.37382 -0.11200
 C281 C 0.66777 0.38098 -0.11677
 C282 C 0.68537 0.36143 -0.13767
 C283 C 0.67416 0.33439 -0.15416
 C284 C 0.64501 0.32719 -0.14891
 C285 C 0.62064 0.39462 -0.09132
 C286 C 0.60591 0.41264 -0.07423
 C287 C 0.58919 0.43442 -0.05452
 C288 C 0.57538 0.45359 -0.03795
 H289 H 0.60494 0.34113 -0.12458
 H290 H 0.67679 0.40178 -0.10446
 H291 H 0.70780 0.36736 -0.14075
 H292 H 0.63568 0.30674 -0.16158
 C293 C -0.14936 0.15430 -0.09673
 C294 C -0.13662 0.12833 -0.11301
 C295 C -0.14039 0.12265 -0.15036
 C296 C -0.15701 0.14264 -0.17143
 C297 C -0.17058 0.16913 -0.15566
 C298 C -0.16605 0.17443 -0.11758
 C299 C -0.12016 0.10706 -0.09138
 C300 C -0.10660 0.08876 -0.07368
 C301 C -0.09097 0.06678 -0.05347
 C302 C -0.07784 0.04753 -0.03667
 H303 H -0.14632 0.15910 -0.06779
 H304 H -0.13085 0.10236 -0.16320
 H305 H -0.16019 0.13572 -0.19963
 H306 H -0.17414 0.19472 -0.10344
 C307 C -0.14256 0.65695 0.39689
 C308 C -0.13796 0.62648 0.38464
 C309 C -0.14993 0.61639 0.35147
 C310 C -0.16652 0.63660 0.33065
 C311 C -0.17138 0.66725 0.34274
 C312 C -0.15918 0.67723 0.37610
 C313 C -0.12126 0.60534 0.40615
 C314 C -0.10751 0.58713 0.42375
 C315 C -0.09170 0.56525 0.44388
 C316 C -0.07843 0.54610 0.46067
 H317 H -0.13335 0.66502 0.42251
 H318 H -0.14661 0.59282 0.34181
 H319 H -0.17596 0.62805 0.30540
 H320 H -0.16226 0.70077 0.38593
 C321 C 0.35820 0.15701 0.39845
 C322 C 0.36340 0.12670 0.38607
 C323 C 0.35196 0.11657 0.35261
 C324 C 0.33529 0.13658 0.33163
 C325 C 0.32981 0.16707 0.34386
 C326 C 0.34150 0.17709 0.37750
 C327 C 0.38012 0.10572 0.40778
 C328 C 0.39387 0.08764 0.42556
 C329 C 0.40966 0.06589 0.44591
 C330 C 0.42288 0.04682 0.46288
 H331 H 0.36699 0.16511 0.42430
 H332 H 0.35574 0.09310 0.34284
 H333 H 0.32625 0.12800 0.30616
 H334 H 0.33794 0.20052 0.38745
 C335 C 0.34995 0.61640 -0.14850
 C336 C 0.36157 0.62651 -0.11513
 C337 C 0.35650 0.65685 -0.10273
 C338 C 0.33978 0.67698 -0.12358
 C339 C 0.32794 0.66699 -0.15715
 C340 C 0.33326 0.63647 -0.16938
 C341 C 0.37838 0.60551 -0.09358
 C342 C 0.39223 0.58741 -0.07594
 C343 C 0.40815 0.56565 -0.05576
 C344 C 0.42150 0.54659 -0.03893
 H345 H 0.35364 0.59293 -0.15828
 H346 H 0.36543 0.66492 -0.07694
 H347 H 0.33634 0.70043 -0.11362
 H348 H 0.32411 0.62792 -0.19480
 C349 C -0.12826 -0.13819 0.14576
 C350 C -0.13763 -0.12901 0.11124
 C351 C -0.16359 -0.14028 0.09749
 C352 C -0.18035 -0.16039 0.11831
 C353 C -0.17156 -0.16965 0.15367
 C354 C -0.14493 -0.15825 0.16675
 C355 C -0.12100 -0.10728 0.09040
 C356 C -0.10729 -0.08867 0.07330
 C357 C -0.09150 -0.06641 0.05368
 C358 C -0.07822 -0.04699 0.03730
 H359 H -0.10803 -0.12977 0.15657
 H360 H -0.17118 -0.13308 0.07086
 H361 H -0.20084 -0.16724 0.10701
 H362 H -0.13622 -0.16536 0.19276
 C363 C -0.14276 0.34208 0.60100
 C364 C -0.13747 0.37242 0.61324
 C365 C -0.14866 0.38259 0.64685
 C366 C -0.16514 0.36259 0.66813
 C367 C -0.17069 0.33207 0.65606
 C368 C -0.15928 0.32201 0.62225
 C369 C -0.12088 0.39337 0.59129
 C370 C -0.10722 0.41145 0.57336
 C371 C -0.09149 0.43323 0.55292
 C372 C -0.07828 0.45233 0.53593
 H373 H -0.13416 0.33396 0.57504
 H374 H -0.14480 0.40607 0.65652
 H375 H -0.17397 0.37120 0.69373
 H376 H -0.16290 0.29856 0.61241
 C377 C 0.35727 -0.15739 0.60127
 C378 C 0.36241 -0.12709 0.61378
 C379 C 0.35073 -0.11702 0.64716
 C380 C 0.33391 -0.13708 0.66794
 C381 C 0.32852 -0.16756 0.65560
 C382 C 0.34043 -0.17751 0.62202
 C383 C 0.37933 -0.10608 0.59233
 C384 C 0.39325 -0.08794 0.57479
 C385 C 0.40923 -0.06611 0.55475
 C386 C 0.42261 -0.04696 0.53806
 H387 H 0.36625 -0.16543 0.57548
 H388 H 0.35446 -0.09358 0.65702
 H389 H 0.32471 -0.12855 0.69336
 H390 H 0.33694 -0.20093 0.61199
 C391 C 0.35141 0.38271 0.14688
 C392 C 0.36279 0.37266 0.11332
 C393 C 0.35764 0.34233 0.10095
 C394 C 0.34107 0.32216 0.12199
 C395 C 0.32945 0.33211 0.15573
 C396 C 0.33487 0.36262 0.16795
 C397 C 0.37938 0.39372 0.09154
 C398 C 0.39304 0.41188 0.07371
 C399 C 0.40874 0.43373 0.05335
 C400 C 0.42190 0.45289 0.03640
 H401 H 0.35516 0.40618 0.15665
 H402 H 0.36639 0.33430 0.07502
 H403 H 0.33755 0.29873 0.11204
 H404 H 0.32588 0.37114 0.19350
 C405 C 0.16729 0.11948 0.11768
 C406 C 0.13824 0.12656 0.11306
 C407 C 0.12681 0.15334 0.12943
 C408 C 0.14433 0.17287 0.15057
 C409 C 0.17351 0.16576 0.15567
 C410 C 0.18481 0.13892 0.13880
 C411 C 0.12022 0.10586 0.09214
 C412 C 0.10559 0.08790 0.07485
 C413 C 0.08902 0.06616 0.05490
 C414 C 0.07534 0.04702 0.03813
 H415 H 0.17637 0.09884 0.10507
 H416 H 0.10432 0.15898 0.12614
 H417 H 0.13494 0.19317 0.16352
 H418 H 0.20726 0.13305 0.14174
 C419 C 0.14029 0.62024 0.65119
 C420 C 0.13460 0.62726 0.61459
 C421 C 0.14627 0.65405 0.59924
 C422 C 0.16382 0.67360 0.62031
 C423 C 0.16999 0.66649 0.65700
 C424 C 0.15784 0.63970 0.67227
 C425 C 0.11746 0.60641 0.59268
 C426 C 0.10347 0.58832 0.57472
 C427 C 0.08750 0.56645 0.55417
 C428 C 0.07424 0.54719 0.53703
 H429 H 0.13133 0.59959 0.66337
 H430 H 0.14210 0.65964 0.57088
 H431 H 0.17310 0.69386 0.60767
 H432 H 0.16182 0.63384 0.70057
 C433 C 0.64168 0.12009 0.65492
 C434 C 0.63582 0.12716 0.61838
 C435 C 0.64732 0.15404 0.60303
 C436 C 0.66485 0.17363 0.62405
 C437 C 0.67119 0.16649 0.66068
 C438 C 0.65922 0.13960 0.67595
 C439 C 0.61870 0.10627 0.59649
 C440 C 0.60471 0.08821 0.57848
 C441 C 0.58874 0.06643 0.55779
 C442 C 0.57546 0.04731 0.54047
 H443 H 0.63287 0.09936 0.66709
 H444 H 0.64301 0.15966 0.57472
 H445 H 0.67400 0.19396 0.61140
 H446 H 0.66334 0.13371 0.70421
 C447 C 0.63987 0.62118 0.15268
 C448 C 0.63422 0.62819 0.11607
 C449 C 0.64596 0.65493 0.10069
 C450 C 0.66355 0.67443 0.12175
 C451 C 0.66969 0.66733 0.15845
 C452 C 0.65746 0.64059 0.17375
 C453 C 0.61710 0.60734 0.09413
 C454 C 0.60314 0.58928 0.07610
 C455 C 0.58724 0.56743 0.05542
 C456 C 0.57406 0.54819 0.03815
 H457 H 0.63086 0.60055 0.16487
 H458 H 0.64182 0.66050 0.07233
 H459 H 0.67290 0.69465 0.10909
 H460 H 0.66143 0.63474 0.20206
   
