data_POSCAR
  _audit_creation_date              2014-09-24
  _audit_creation_method            'ToBaCCo'
  _symmetry_space_group_name_H-M    'P1'
  _symmetry_Int_Tables_number       1
  _symmetry_cell_setting            triclinic
  loop_
  _symmetry_equiv_pos_as_xyz
 x,y,z
_cell_length_a 21.7566
_cell_length_b 21.6168
_cell_length_c 29.2247
_cell_angle_alpha 89.215100
_cell_angle_beta 91.868300
_cell_angle_gamma 119.518800
loop_
  _atom_site_label
  _atom_site_type_symbol
  _atom_site_fract_x
  _atom_site_fract_y
  _atom_site_fract_z
C1 C -0.06297 0.44711 1.14800
 C2 C 0.00340 0.47212 1.12831
 C3 C 0.06461 0.49051 1.15482
 C4 C 0.06103 0.48467 1.20276
 C5 C -0.00488 0.45931 1.22381
 C6 C -0.06723 0.43935 1.19643
 C7 C -0.13233 0.41003 1.21832
 C8 C -0.13571 0.40594 1.26561
 C9 C -0.07432 0.42983 1.29349
 C10 C -0.00810 0.45578 1.27244
 C11 C 0.12230 0.50618 1.23016
 C12 C 0.11971 0.50540 1.27755
 C13 C 0.05525 0.48104 1.29975
 C14 C 0.05261 0.48563 1.34806
 C15 C -0.01348 0.46127 1.36767
 C16 C -0.07683 0.43292 1.34163
 H17 H -0.18212 0.38932 1.19956
 H18 H -0.18738 0.38564 1.27978
 H19 H 0.17348 0.52599 1.21514
 H20 H 0.16967 0.52596 1.29603
 H21 H 0.00933 0.48163 1.09182
 H22 H -0.01652 0.45887 1.40465
 C23 C 0.48523 0.55533 1.34365
 C24 C 0.51837 0.52468 1.36952
 C25 C 0.55487 0.49401 1.34931
 C26 C 0.55969 0.49596 1.30077
 C27 C 0.52277 0.52340 1.27395
 C28 C 0.48537 0.55294 1.29548
 C29 C 0.44735 0.57746 1.26831
 C30 C 0.44497 0.57217 1.22085
 C31 C 0.48185 0.54364 1.19873
 C32 C 0.52226 0.52034 1.22538
 C33 C 0.59685 0.46791 1.27792
 C34 C 0.59887 0.46802 1.23033
 C35 C 0.56165 0.49349 1.20346
 C36 C 0.56245 0.49287 1.15512
 C37 C 0.52211 0.51558 1.12952
 C38 C 0.48064 0.53922 1.15054
 H39 H 0.41776 0.59964 1.28357
 H40 H 0.41452 0.59150 1.20161
 H41 H 0.62449 0.44474 1.29610
 H42 H 0.62882 0.44654 1.21468
 H43 H 0.51914 0.52889 1.40648
 H44 H 0.52165 0.51313 1.09242
 C45 C 0.46793 0.94123 1.34800
 C46 C 0.49801 1.00615 1.37125
 C47 C 0.53404 1.07168 1.34827
 C48 C 0.53819 1.07128 1.29968
 C49 C 0.50354 1.00560 1.27537
 C50 C 0.46839 0.94047 1.29970
 C51 C 0.43478 0.87616 1.27518
 C52 C 0.43439 0.87551 1.22752
 C53 C 0.46891 0.93910 1.20256
 C54 C 0.50482 1.00488 1.22660
 C55 C 0.57336 1.13468 1.27441
 C56 C 0.57633 1.13386 1.22694
 C57 C 0.54197 1.06979 1.20202
 C58 C 0.54599 1.06832 1.15352
 C59 C 0.50955 1.00255 1.13096
 C60 C 0.46981 0.93856 1.15422
 H61 H 0.40762 0.82566 1.29273
 H62 H 0.40779 0.82439 1.21046
 H63 H 0.59900 1.18626 1.29074
 H64 H 0.60652 1.18456 1.21026
 H65 H 0.49835 1.00495 1.40837
 H66 H 0.50659 1.00156 1.09387
 C67 C 1.05512 0.55076 0.85350
 C68 C 0.98842 0.50483 0.87170
 C69 C 0.92748 0.46822 0.84404
 C70 C 0.93153 0.47851 0.79636
 C71 C 0.99791 0.52362 0.77659
 C72 C 1.06002 0.55936 0.80497
 C73 C 1.12547 0.59897 0.78362
 C74 C 1.12994 0.60406 0.73612
 C75 C 1.06913 0.57108 0.70744
 C76 C 1.00220 0.53137 0.72812
 C77 C 0.87049 0.44534 0.76806
 C78 C 0.87425 0.45522 0.72103
 C79 C 0.93946 0.49724 0.70036
 C80 C 0.94357 0.50385 0.65244
 C81 C 1.00946 0.53998 0.63261
 C82 C 1.07300 0.57196 0.65881
 H83 H 1.17489 0.62441 0.80298
 H84 H 1.18215 0.63348 0.72239
 H85 H 0.81902 0.41143 0.78209
 H86 H 0.82552 0.42772 0.70091
 H87 H 0.98221 0.49870 0.90838
 H88 H 1.01091 0.54543 0.59564
 C89 C 0.46154 0.53730 0.84788
 C90 C 0.49707 0.50971 0.87417
 C91 C 0.52976 0.47535 0.85416
 C92 C 0.52601 0.46766 0.80581
 C93 C 0.48961 0.49526 0.77864
 C94 C 0.45786 0.53081 0.79980
 C95 C 0.42271 0.55835 0.77247
 C96 C 0.41875 0.55131 0.72505
 C97 C 0.44955 0.51620 0.70316
 C98 C 0.48528 0.48777 0.73018
 C99 C 0.55639 0.43212 0.78390
 C100 C 0.55212 0.42473 0.73637
 C101 C 0.51707 0.45232 0.70887
 C102 C 0.51434 0.44699 0.66056
 C103 C 0.47985 0.47639 0.63446
 C104 C 0.44707 0.51035 0.65490
 H105 H 0.39790 0.58567 0.78759
 H106 H 0.39172 0.57430 0.70571
 H107 H 0.58350 0.40928 0.80327
 H108 H 0.57701 0.39745 0.72131
 H109 H 0.50142 0.51753 0.91098
 H110 H 0.47684 0.47101 0.59748
 C111 C 0.46959 -0.07233 0.84013
 C112 C 0.49630 -0.00720 0.86369
 C113 C 0.53235 0.05804 0.84141
 C114 C 0.53828 0.05962 0.79357
 C115 C 0.51171 -0.00501 0.76874
 C116 C 0.47933 -0.07113 0.79214
 C117 C 0.45348 -0.13406 0.76629
 C118 C 0.45973 -0.13232 0.71903
 C119 C 0.49094 -0.06761 0.69493
 C120 C 0.51623 -0.00332 0.72026
 C121 C 0.56834 0.12443 0.76989
 C122 C 0.57001 0.12589 0.72249
 C123 C 0.54348 0.06270 0.69712
 C124 C 0.54404 0.06419 0.64910
 C125 C 0.52072 0.00137 0.62456
 C126 C 0.49294 -0.06526 0.64619
 H127 H 0.42609 -0.18601 0.78179
 H128 H 0.43695 -0.18306 0.70183
 H129 H 0.58878 0.17464 0.78774
 H130 H 0.59250 0.17722 0.70586
 H131 H 0.49444 -0.00661 0.90070
 H132 H 0.52487 0.00531 0.58765
 O133 O 0.41586 0.64445 0.94794
 O134 O 0.40576 0.75767 0.93423
 C135 C 0.37779 0.79667 0.93456
 O136 O 0.33430 0.79026 0.96431
 O137 O 0.21571 0.66571 0.95884
 C138 C 0.18211 0.59790 0.95592
 O139 O 0.19756 0.55742 0.98005
 O140 O 0.30919 0.55003 0.95723
 C141 C 0.36751 0.58224 0.93726
 O142 O 0.44999 0.68022 1.03611
 O143 O 0.44249 0.79555 1.02359
 C144 C 0.40818 0.80638 1.05407
 O145 O 0.34083 0.77433 1.05468
 O146 O 0.21545 0.65887 1.04985
 C147 C 0.21034 0.60868 1.07485
 O148 O 0.24583 0.57797 1.06835
 O149 O 0.35691 0.57156 1.04518
 C150 C 0.42019 0.61948 1.05454
 Cr151 Cr 0.42472 0.71763 0.98603
 Cr152 Cr 0.27842 0.72033 1.00667
 Cr153 Cr 0.27925 0.56813 1.01225
 O154 O 0.32769 0.66812 1.00164
 O155 O 0.54360 0.33860 0.97935
 O156 O 0.54281 0.22228 0.95506
 C157 C 0.57568 0.19651 0.93485
 O158 O 0.63914 0.21317 0.94483
 O159 O 0.74887 0.33890 0.93062
 C160 C 0.78097 0.40632 0.93040
 O161 O 0.77244 0.44234 0.96066
 O162 O 0.64774 0.43271 0.96146
 C163 C 0.58082 0.39508 0.95666
 O164 O 0.57116 0.31452 1.06718
 O165 O 0.57125 0.20112 1.04257
 C166 C 0.62134 0.18855 1.05227
 O167 O 0.68067 0.21899 1.03303
 O168 O 0.79238 0.34309 1.01819
 C169 C 0.80685 0.39172 1.04739
 O170 O 0.77081 0.42324 1.05121
 O171 O 0.65090 0.42618 1.05358
 C172 C 0.60259 0.37946 1.07760
 Cr173 Cr 0.56135 0.27150 1.01049
 Cr174 Cr 0.71297 0.28029 0.98237
 Cr175 Cr 0.70839 0.42706 1.00652
 O176 O 0.66059 0.32582 0.99970
 O177 O 0.66167 0.45202 0.54196
 O178 O 0.77890 0.44463 0.55006
 C179 C 0.81434 0.41211 0.55196
 O180 O 0.80316 0.36139 0.52491
 O181 O 0.69155 0.24028 0.54315
 C182 C 0.63157 0.21055 0.56111
 O183 O 0.58227 0.22401 0.54996
 O184 O 0.58738 0.34463 0.56699
 C185 C 0.61587 0.41143 0.56968
 O186 O 0.66430 0.44236 0.45166
 O187 O 0.78984 0.45098 0.45983
 C188 C 0.79570 0.40932 0.43278
 O189 O 0.75760 0.34283 0.43535
 O190 O 0.64862 0.22161 0.45492
 C191 C 0.58524 0.20506 0.44433
 O192 O 0.55372 0.23513 0.46122
 O193 O 0.55906 0.35753 0.47678
 C194 C 0.59696 0.40901 0.45010
 Cr195 Cr 0.72177 0.44366 0.50082
 Cr196 Cr 0.72342 0.29352 0.48995
 Cr197 Cr 0.57431 0.29234 0.51326
 O198 O 0.67257 0.34222 0.50134
 O199 O 0.33483 0.56779 0.55359
 O200 O 0.20951 0.55781 0.54210
 C201 C 0.20109 0.60221 0.56518
 O202 O 0.23494 0.66853 0.55763
 O203 O 0.34276 0.78873 0.53057
 C204 C 0.40228 0.80466 0.54894
 O205 O 0.43494 0.77101 0.54121
 O206 O 0.43937 0.65284 0.52918
 C207 C 0.40201 0.60193 0.55610
 O208 O 0.33981 0.55247 0.46325
 O209 O 0.21933 0.55179 0.45125
 C210 C 0.18085 0.58064 0.44655
 O211 O 0.19118 0.63462 0.46947
 O212 O 0.30243 0.75234 0.44342
 C213 C 0.36584 0.78707 0.43063
 O214 O 0.41604 0.78063 0.44968
 O215 O 0.41613 0.66023 0.43805
 C216 C 0.38677 0.59300 0.43587
 Cr217 Cr 0.27759 0.56116 0.50244
 Cr218 Cr 0.26985 0.70923 0.50025
 Cr219 Cr 0.42303 0.71430 0.48982
 O220 O 0.32379 0.66185 0.49747
 C221 C 0.45315 0.59128 0.36869
 C222 C 0.41009 0.55820 0.40318
 H223 H 0.46771 0.64563 0.36014
 H224 H 0.39349 0.50262 0.40935
 C225 C 0.44633 0.87654 0.37611
 C226 C 0.38217 0.84050 0.39395
 H227 H 0.48719 0.86393 0.38634
 H228 H 0.34195 0.85401 0.38359
 C229 C 0.11375 0.51393 0.37722
 C230 C 0.11854 0.54941 0.41569
 H231 H 0.15995 0.51123 0.36772
 H232 H 0.07738 0.56172 0.42349
 C233 C 0.58756 0.46496 0.37817
 C234 C 0.56024 0.43348 0.41812
 H235 H 0.63513 0.46572 0.36773
 H236 H 0.50813 0.42299 0.42735
 C237 C 0.56971 0.13494 0.37458
 C238 C 0.54419 0.14418 0.41354
 H239 H 0.61891 0.17854 0.36293
 H240 H 0.49095 0.10629 0.42333
 C241 C 0.85919 0.40711 0.36478
 C242 C 0.85487 0.44044 0.40177
 H243 H 0.81214 0.36015 0.35235
 H244 H 0.89832 0.49242 0.41121
 C245 C 0.60443 0.46973 1.12892
 C246 C 0.57778 0.40140 1.11741
 H247 H 0.64921 0.51051 1.11104
 H248 H 0.53080 0.36144 1.13398
 C249 C 0.87742 0.43334 1.11965
 C250 C 0.87060 0.41224 1.07604
 H251 H 0.83328 0.43575 1.13365
 H252 H 0.90920 0.40065 1.06185
 C253 C 0.57851 0.13047 1.12638
 C254 C 0.60738 0.13252 1.08591
 H255 H 0.57842 0.17798 1.13751
 H256 H 0.61740 0.09027 1.07595
 C257 C 0.43542 0.55709 1.12091
 C258 C 0.46326 0.60400 1.08713
 H259 H 0.37932 0.53166 1.12707
 H260 H 0.52013 0.63293 1.08360
 C261 C 0.13217 0.52077 1.13084
 C262 C 0.15663 0.58353 1.11002
 H263 H 0.15731 0.48868 1.12697
 H264 H 0.12939 0.61359 1.11452
 C265 C 0.42582 0.87356 1.12616
 C266 C 0.45079 0.86201 1.08785
 H267 H 0.37197 0.83751 1.13571
 H268 H 0.50605 0.89594 1.08031
 C269 C 0.54609 0.41071 0.63566
 C270 C 0.59257 0.44542 0.60308
 H271 H 0.52848 0.35517 0.64250
 H272 H 0.61108 0.50171 0.59846
 C273 C 0.56427 0.12978 0.62283
 C274 C 0.61807 0.15452 0.59455
 H275 H 0.53243 0.15540 0.62534
 H276 H 0.65138 0.13022 0.59436
 C277 C 0.87996 0.47509 0.62184
 C278 C 0.87367 0.43590 0.58514
 H279 H 0.83831 0.48668 0.62961
 H280 H 0.91342 0.42073 0.57927
 C281 C 0.40845 0.53660 0.62482
 C282 C 0.43981 0.58003 0.58961
 H283 H 0.35380 0.51970 0.63178
 H284 H 0.49557 0.59957 0.58467
 C285 C 0.46620 0.87277 0.61867
 C286 C 0.43517 0.86858 0.57754
 H287 H 0.46536 0.82534 0.63175
 H288 H 0.42530 0.91086 0.56610
 C289 C 0.13734 0.60287 0.63511
 C290 C 0.14236 0.57202 0.59684
 H291 H 0.18387 0.64950 0.64830
 H292 H 0.09991 0.51946 0.58743
 C293 C 0.43339 0.57669 0.87237
 C294 C 0.38162 0.54343 0.90204
 H295 H 0.46090 0.63411 0.86961
 H296 H 0.35307 0.48581 0.90314
 C297 C 0.11448 0.58771 0.88381
 C298 C 0.11989 0.56199 0.92495
 H299 H 0.15923 0.63702 0.87320
 H300 H 0.08106 0.50869 0.93480
 C301 C 0.43790 0.86381 0.86547
 C302 C 0.40049 0.85641 0.90269
 H303 H 0.44309 0.81893 0.85481
 H304 H 0.38718 0.89694 0.91129
 C305 C 0.56963 0.45125 0.88493
 C306 C 0.54264 0.41780 0.92435
 H307 H 0.62131 0.46108 0.87521
 H308 H 0.48872 0.40293 0.93214
 C309 C 0.86030 0.42051 0.86690
 C310 C 0.83482 0.44785 0.89663
 H311 H 0.83586 0.36359 0.86195
 H312 H 0.86075 0.50527 0.90000
 C313 C 0.57004 0.12312 0.86976
 C314 C 0.53673 0.14125 0.89992
 H315 H 0.62688 0.15457 0.86695
 H316 H 0.47953 0.11192 0.90073
   
