data_POSCAR
  _audit_creation_date              2014-09-24
  _audit_creation_method            'ToBaCCo'
  _symmetry_space_group_name_H-M    'P1'
  _symmetry_Int_Tables_number       1
  _symmetry_cell_setting            triclinic
  loop_
  _symmetry_equiv_pos_as_xyz
 x,y,z
_cell_length_a 19.4961
_cell_length_b 20.2597
_cell_length_c 19.4633
_cell_angle_alpha 89.812400
_cell_angle_beta 88.558400
_cell_angle_gamma 92.879300
loop_
  _atom_site_label
  _atom_site_type_symbol
  _atom_site_fract_x
  _atom_site_fract_y
  _atom_site_fract_z
C1 C 0.17026 0.16069 0.24377
 C2 C 0.13295 0.21531 0.22652
 C3 C 0.16461 0.26808 0.18918
 C4 C 0.23433 0.26707 0.17078
 C5 C 0.27114 0.21217 0.18670
 C6 C 0.23970 0.15935 0.22401
 H7 H 0.07794 0.21417 0.23655
 H8 H 0.25848 0.30617 0.13906
 H9 H 0.26761 0.11523 0.23284
 C10 C -0.21071 0.81138 0.24874
 C11 C -0.26505 0.83950 0.21561
 C12 C -0.28587 0.81618 0.15098
 C13 C -0.25166 0.76418 0.12033
 C14 C -0.19862 0.73425 0.15443
 C15 C -0.17840 0.75805 0.21892
 H16 H -0.28970 0.88071 0.23941
 H17 H -0.26528 0.74791 0.06925
 H18 H -0.13647 0.73641 0.24505
 C19 C -0.18812 0.16208 -0.28552
 C20 C -0.25275 0.14643 -0.25383
 C21 C -0.26854 0.17378 -0.18921
 C22 C -0.22113 0.21653 -0.15865
 C23 C -0.15699 0.23121 -0.18982
 C24 C -0.14008 0.20368 -0.25288
 H25 H -0.28848 0.11120 -0.27740
 H26 H -0.23290 0.23532 -0.10783
 H27 H -0.08988 0.21487 -0.27656
 C28 C 0.17689 0.83281 -0.26939
 C29 C 0.14958 0.76904 -0.25030
 C30 C 0.16465 0.74367 -0.18467
 C31 C 0.20828 0.78083 -0.14155
 C32 C 0.23238 0.84431 -0.16063
 C33 C 0.21521 0.87030 -0.22323
 H34 H 0.11750 0.74039 -0.28503
 H35 H 0.22023 0.76168 -0.09143
 H36 H 0.23570 0.91928 -0.23793
 C37 C 0.18353 1.19779 0.71266
 C38 C 0.15277 1.25172 0.74584
 C39 C 0.17236 1.27068 0.81281
 C40 C 0.22234 1.23598 0.84523
 C41 C 0.25420 1.18354 0.81363
 C42 C 0.23484 1.16407 0.74694
 H43 H 0.11307 1.27748 0.72048
 H44 H 0.23582 1.24926 0.89729
 H45 H 0.25869 1.12287 0.72232
 C46 C 0.86441 0.81447 0.76722
 C47 C 0.81537 0.86011 0.78459
 C48 C 0.76497 0.84407 0.83529
 C49 C 0.76492 0.78290 0.86939
 C50 C 0.81560 0.73882 0.85284
 C51 C 0.86495 0.75442 0.80180
 H52 H 0.81537 0.90715 0.75789
 H53 H 0.72686 0.77044 0.90951
 H54 H 0.90276 0.71897 0.78774
 C55 C 0.19156 0.79690 1.30157
 C56 C 0.17176 0.74115 1.26360
 C57 C 0.19489 0.73416 1.19603
 C58 C 0.24204 0.78150 1.16739
 C59 C 0.26663 0.83565 1.20637
 C60 C 0.24038 0.84411 1.27380
 H61 H 0.13247 0.70627 1.28432
 H62 H 0.25815 0.77735 1.11395
 H63 H 0.25419 0.88848 1.30224
 C64 C 0.86130 1.15750 1.26732
 C65 C 0.82528 1.11997 1.21874
 C66 C 0.80396 1.14894 1.15810
 C67 C 0.82227 1.21590 1.14386
 C68 C 0.86210 1.25325 1.19057
 C69 C 0.88081 1.22385 1.25262
 H70 H 0.80763 1.06961 1.23115
 H71 H 0.80395 1.23902 1.09799
 H72 H 0.90696 1.25366 1.29106
 O73 O 0.55412 0.91833 0.92163
 O74 O 0.43758 1.00865 1.16063
 O75 O 0.58397 0.93188 1.04041
 O76 O 0.34564 0.96528 0.96301
 O77 O 0.56116 0.98271 1.13505
 O78 O 0.43165 0.90643 0.94360
 O79 O 0.35662 0.97681 1.08848
 O80 O 0.64943 0.97636 0.93743
 C81 C 0.61808 0.92739 0.90750
 C82 C 0.38198 0.97545 1.14711
 C83 C 0.58538 0.93422 1.10442
 C84 C 0.36885 0.91112 0.94654
 O85 O 0.41349 1.02294 0.87370
 O86 O 0.58187 1.10883 1.08079
 O87 O 0.59406 1.08645 0.94517
 O88 O 0.37047 1.10315 1.07737
 O89 O 0.47250 1.13172 1.10734
 O90 O 0.53852 1.03841 0.86427
 O91 O 0.37536 1.09266 0.94815
 O92 O 0.65264 1.04072 1.04834
 Co93 Co 0.48421 0.97615 0.91072
 Co94 Co 0.51109 1.05404 1.11203
 Co95 Co 0.58454 1.00958 0.99194
 Co96 Co 0.37372 1.03333 1.01814
 O97 O 0.48442 1.02117 1.01179
 C98 C 0.38051 1.07371 0.88742
 C99 C 0.64209 1.09260 1.07918
 C100 C 0.58044 1.08284 0.88310
 C101 C 0.41172 1.14324 1.10487
 O102 O 0.10672 0.46594 0.08827
 O103 O 0.00321 0.56110 -0.14689
 O104 O 0.07110 0.39842 -0.05789
 O105 O 0.03772 0.67415 0.02693
 O106 O 0.02084 0.44142 -0.14194
 O107 O 0.09334 0.59150 0.07437
 O108 O 0.07032 0.60301 -0.07040
 O109 O 0.04944 0.37442 0.06432
 C110 C 0.09977 0.40417 0.09129
 C111 C 0.05559 0.59758 -0.13193
 C112 C 0.06608 0.40546 -0.12096
 C113 C 0.08367 0.65387 0.06860
 O114 O -0.03163 0.57488 0.13445
 O115 O -0.09746 0.41795 -0.06924
 O116 O -0.07678 0.39291 0.06157
 O117 O -0.06321 0.63074 -0.07364
 O118 O -0.11807 0.53608 -0.07338
 O119 O -0.02249 0.45110 0.14158
 O120 O -0.07598 0.61374 0.04456
 O121 O -0.03860 0.33103 -0.04123
 Co122 Co 0.03340 0.51932 0.10005
 Co123 Co -0.04480 0.49064 -0.10012
 Co124 Co -0.00486 0.40398 -0.00182
 Co125 Co -0.00151 0.60221 -0.01065
 O126 O -0.00310 0.50433 -0.00219
 C127 C -0.07493 0.60980 0.10781
 C128 C -0.08599 0.35707 -0.07773
 C129 C -0.06893 0.40790 0.12416
 C130 C -0.11872 0.59696 -0.08103
 O131 O 1.08522 0.05706 0.39102
 O132 O 0.87454 0.00525 0.58187
 O133 O 0.94841 0.03858 0.38403
 O134 O 1.08545 0.07151 0.60981
 O135 O 0.86627 0.01973 0.45847
 O136 O 1.11514 0.09391 0.50460
 O137 O 0.95621 0.07409 0.61003
 O138 O 1.04598 -0.02546 0.33703
 C139 C 1.07934 0.02759 0.33526
 C140 C 0.89449 0.06278 0.59614
 C141 C 0.89301 0.05464 0.41058
 C142 C 1.11632 0.10848 0.56682
 O143 O 1.15119 -0.02903 0.54054
 O144 O 0.90110 -0.10989 0.44593
 O145 O 1.01987 -0.12138 0.41537
 O146 O 0.95215 -0.05448 0.64491
 O147 O 0.92104 -0.11665 0.56189
 O148 O 1.12114 -0.07011 0.42488
 O149 O 1.07982 -0.05494 0.62791
 O150 O 0.92192 -0.07936 0.34215
 Co151 Co 1.10878 0.01083 0.46758
 Co152 Co 0.89945 -0.04670 0.51080
 Co153 Co 0.98152 -0.04111 0.40397
 Co154 Co 1.01651 0.00735 0.61227
 O155 O 1.00611 -0.01260 0.50152
 C156 C 1.13523 -0.06262 0.59445
 C157 C 0.87957 -0.10938 0.38586
 C158 C 1.08445 -0.12294 0.41661
 C159 C 0.93979 -0.11103 0.62181
 N160 N 1.13713 0.10554 0.26142
 N161 N 1.10585 0.05200 0.27075
 N162 N 0.80717 -0.16753 0.30938
 N163 N 0.82096 -0.15046 0.36823
 N164 N 0.82891 0.13639 0.65560
 N165 N 0.84572 0.11267 0.60008
 N166 N 1.17372 -0.14279 0.66865
 N167 N 1.17758 -0.11536 0.61204
 N168 N 0.33244 1.20725 1.15995
 N169 N 0.39033 1.20307 1.13468
 N170 N 0.27555 0.88449 0.88137
 N171 N 0.32565 0.86307 0.91369
 N172 N 0.66475 0.85031 1.11270
 N173 N 0.62513 0.89010 1.14222
 N174 N 0.67597 1.14920 0.85395
 N175 N 0.62328 1.11700 0.83306
 N176 N 0.12236 0.31459 0.15848
 N177 N 0.14624 0.36690 0.12833
 N178 N -0.10868 0.27311 -0.15579
 N179 N -0.13112 0.31725 -0.11656
 N180 N 0.13173 0.68554 -0.15417
 N181 N 0.08776 0.64454 -0.17976
 N182 N -0.16053 0.68569 0.11899
 N183 N -0.11860 0.64936 0.14863
 N184 N 1.16683 0.18103 0.64931
 N185 N 1.15374 0.16777 0.58862
 N186 N 0.90599 -0.17520 0.71467
 N187 N 0.94378 -0.16785 0.66365
 N188 N 1.15550 -0.19151 0.35731
 N189 N 1.11685 -0.18368 0.40727
 N190 N 0.86403 0.13441 0.33015
 N191 N 0.86087 0.11307 0.38964
 N192 N 0.13812 0.31879 -0.14607
 N193 N 0.10369 0.36569 -0.16865
 N194 N -0.12470 0.31695 0.18094
 N195 N -0.11247 0.37731 0.17674
 N196 N -0.18408 0.68150 -0.11730
 N197 N -0.18240 0.62630 -0.09171
 N198 N 0.16109 0.68476 0.15498
 N199 N 0.12498 0.70152 0.10492
 N200 N 0.30155 1.14958 0.85490
 N201 N 0.34040 1.10394 0.83593
 N202 N 0.30913 0.88508 1.17072
 N203 N 0.34858 0.93047 1.19612
 N204 N 0.75517 1.11190 1.11799
 N205 N 0.69482 1.13180 1.11170
 N206 N 0.71823 0.89247 0.85602
 N207 N 0.65742 0.87716 0.87773
   
