data_POSCAR
  _audit_creation_date              2014-09-24
  _audit_creation_method            'ToBaCCo'
  _symmetry_space_group_name_H-M    'P1'
  _symmetry_Int_Tables_number       1
  _symmetry_cell_setting            triclinic
  loop_
  _symmetry_equiv_pos_as_xyz
 x,y,z
_cell_length_a 34.4891
_cell_length_b 35.0164
_cell_length_c 33.0573
_cell_angle_alpha 89.869700
_cell_angle_beta 90.104200
_cell_angle_gamma 90.052200
loop_
  _atom_site_label
  _atom_site_type_symbol
  _atom_site_fract_x
  _atom_site_fract_y
  _atom_site_fract_z
C1 C 0.27449 0.33254 0.02043
 C2 C 0.27447 0.33813 -0.02206
 C3 C 0.30013 0.31605 -0.04569
 C4 C 0.32622 0.28946 -0.02847
 C5 C 0.32445 0.28307 0.01418
 C6 C 0.29885 0.30503 0.03765
 H7 H 0.29680 0.29997 0.06994
 H8 H 0.30018 0.31940 -0.07819
 C9 C 0.70780 0.65663 0.00477
 C10 C 0.70563 0.66131 -0.03766
 C11 C 0.67646 0.68410 -0.05451
 C12 C 0.64645 0.70005 -0.03093
 C13 C 0.64817 0.69420 0.01169
 C14 C 0.67876 0.67314 0.02875
 H15 H 0.68011 0.67032 0.06137
 H16 H 0.67782 0.68880 -0.08675
 C17 C 0.71117 0.34858 1.00128
 C18 C 0.70855 0.34412 1.04416
 C19 C 0.67971 0.31965 1.05997
 C20 C 0.65432 0.29910 1.03477
 C21 C 0.65751 0.30363 0.99249
 C22 C 0.68522 0.32836 0.97651
 H23 H 0.68521 0.33314 0.94408
 H24 H 0.67773 0.31573 1.09244
 C25 C 0.30245 0.65706 0.97046
 C26 C 0.29929 0.65912 1.01332
 C27 C 0.31867 0.68944 1.03334
 C28 C 0.34341 0.71525 1.01269
 C29 C 0.34787 0.71106 0.97020
 C30 C 0.32712 0.68228 0.95006
 H31 H 0.33122 0.67810 0.91791
 H32 H 0.31326 0.69411 1.06498
 C33 C 0.03375 0.31634 0.35745
 C34 C -0.00701 0.31177 0.35897
 C35 C -0.03029 0.33674 0.33604
 C36 C -0.01413 0.36499 0.31087
 C37 C 0.02680 0.36885 0.30869
 C38 C 0.04988 0.34492 0.33312
 H39 H 0.08100 0.34886 0.33423
 H40 H -0.06155 0.33514 0.33852
 C41 C -0.00109 0.72237 0.67119
 C42 C -0.04182 0.71585 0.67012
 C43 C -0.05690 0.68545 0.69356
 C44 C -0.03275 0.65887 0.71403
 C45 C 0.00800 0.66432 0.71153
 C46 C 0.02279 0.69630 0.69165
 H47 H 0.05387 0.70102 0.69256
 H48 H -0.08786 0.68102 0.69259
 C49 C 0.99133 0.71214 0.33818
 C50 C 1.03159 0.70740 0.34349
 C51 C 1.05256 0.68539 0.31584
 C52 C 1.03455 0.66676 0.28289
 C53 C 0.99425 0.67351 0.27649
 C54 C 0.97345 0.69635 0.30400
 H55 H 0.94253 0.70035 0.29981
 H56 H 1.08346 0.68363 0.32064
 C57 C 0.98327 0.28612 0.65691
 C58 C 1.02424 0.28590 0.66320
 C59 C 1.04005 0.30980 0.69318
 C60 C 1.01647 0.33096 0.71928
 C61 C 0.97583 0.32918 0.71478
 C62 C 0.95976 0.30748 0.68328
 H63 H 0.92868 0.30809 0.67885
 H64 H 1.07123 0.31072 0.69760
 C65 C 0.35759 0.01444 0.32016
 C66 C 0.36129 -0.02551 0.31365
 C67 C 0.33408 -0.04989 0.33262
 C68 C 0.30414 -0.03609 0.35742
 C69 C 0.30179 0.00387 0.36462
 C70 C 0.32851 0.02828 0.34574
 H71 H 0.32767 0.05863 0.35218
 H72 H 0.33437 -0.08021 0.32668
 C73 C 0.65123 0.01801 0.70330
 C74 C 0.65830 -0.02187 0.70232
 C75 C 0.68463 -0.03677 0.67389
 C76 C 0.70413 -0.01303 0.64604
 C77 C 0.69713 0.02685 0.64740
 C78 C 0.67049 0.04157 0.67525
 H79 H 0.66430 0.07183 0.67407
 H80 H 0.68911 -0.06728 0.67314
 C81 C 0.34233 0.98703 0.71338
 C82 C 0.34717 1.02725 0.71616
 C83 C 0.32427 1.05060 0.69067
 C84 C 0.29646 1.03551 0.66395
 C85 C 0.29278 0.99511 0.66061
 C86 C 0.31566 0.97175 0.68567
 H87 H 0.31365 0.94101 0.68301
 H88 H 0.32688 1.08126 0.69166
 C89 C 0.67269 0.98285 0.25952
 C90 C 0.66128 1.02086 0.26699
 C91 C 0.68038 1.04154 0.29750
 C92 C 0.71221 1.02664 0.31908
 C93 C 0.72371 0.98827 0.31107
 C94 C 0.70363 0.96704 0.28160
 H95 H 0.71210 0.93771 0.27597
 H96 H 0.67016 1.06989 0.30495
 O97 O 0.82797 0.89216 0.52751
 O98 O 0.88615 0.85568 0.44230
 O99 O 0.82278 0.89440 0.44903
 O100 O 0.89297 0.85302 0.52086
 O101 O 0.85871 0.79977 0.52392
 O102 O 0.78915 0.84073 0.45064
 O103 O 0.85413 0.80108 0.44545
 O104 O 0.79503 0.83806 0.52947
 Cu105 Cu 0.86085 0.87920 0.48502
 Cu106 Cu 0.82081 0.81455 0.48725
 C107 C 0.80149 0.87139 0.54282
 C108 C 0.88025 0.82197 0.42970
 C109 C 0.79401 0.87455 0.43750
 C110 C 0.88788 0.81949 0.53461
 O111 O 0.09374 0.13939 0.45040
 O112 O 0.14001 0.08432 0.53129
 O113 O 0.08388 0.13363 0.52834
 O114 O 0.15541 0.09575 0.45538
 O115 O 0.19225 0.14650 0.46569
 O116 O 0.12441 0.18065 0.54230
 O117 O 0.18099 0.13166 0.54256
 O118 O 0.13057 0.18920 0.46477
 Cu119 Cu 0.11440 0.10843 0.48993
 Cu120 Cu 0.16105 0.16678 0.50506
 C121 C 0.10340 0.17383 0.44437
 C122 C 0.16848 0.09823 0.55046
 C123 C 0.09237 0.16370 0.54800
 C124 C 0.18586 0.11512 0.44798
 O125 O 0.10449 0.84160 0.55985
 O126 O 0.14535 0.90708 0.48339
 O127 O 0.09026 0.85642 0.48433
 O128 O 0.15942 0.89396 0.55956
 O129 O 0.20124 0.84855 0.54399
 O130 O 0.13299 0.81223 0.46768
 O131 O 0.18839 0.86302 0.46733
 O132 O 0.14723 0.79769 0.54228
 Cu133 Cu 0.12069 0.87932 0.52370
 Cu134 Cu 0.17192 0.82615 0.50342
 C135 C 0.11857 0.80819 0.56339
 C136 C 0.17394 0.89604 0.46235
 C137 C 0.09982 0.82756 0.46349
 C138 C 0.19191 0.87754 0.56471
 O139 O 0.89121 0.17299 0.53122
 O140 O 0.86081 0.10718 0.45054
 O141 O 0.89465 0.17462 0.45328
 O142 O 0.85626 0.10713 0.52929
 O143 O 0.79936 0.13587 0.52612
 O144 O 0.83737 0.20258 0.44972
 O145 O 0.80362 0.13536 0.44812
 O146 O 0.83402 0.20131 0.52911
 Cu147 Cu 0.88144 0.13756 0.49115
 Cu148 Cu 0.81296 0.17181 0.48771
 C149 C 0.86782 0.19818 0.54406
 C150 C 0.82679 0.10957 0.43609
 C151 C 0.87260 0.20043 0.43900
 C152 C 0.82123 0.11012 0.54071
 O153 O 0.46545 0.86156 0.78972
 O154 O 0.53468 0.80086 0.84576
 O155 O 0.54085 0.85541 0.79097
 O156 O 0.46008 0.80736 0.84326
 O157 O 0.45617 0.76543 0.79357
 O158 O 0.53800 0.81246 0.74225
 O159 O 0.53153 0.75835 0.79660
 O160 O 0.46337 0.81926 0.74029
 Cu161 Cu 0.50075 0.83566 0.82232
 Cu162 Cu 0.49717 0.78446 0.76339
 C163 C 0.45264 0.85072 0.75552
 C164 C 0.54439 0.76889 0.83081
 C165 C 0.55278 0.84242 0.75734
 C166 C 0.44428 0.77832 0.82718
 O167 O 0.52514 0.19536 0.12963
 O168 O 0.45778 0.12116 0.16443
 O169 O 0.45053 0.18559 0.12487
 O170 O 0.53196 0.13391 0.17309
 O171 O 0.52424 0.16860 0.22827
 O172 O 0.44090 0.21651 0.18213
 O173 O 0.45076 0.15179 0.22226
 O174 O 0.51517 0.22890 0.18513
 Cu175 Cu 0.49208 0.15568 0.14238
 Cu176 Cu 0.48135 0.19455 0.21016
 C177 C 0.53179 0.22466 0.15114
 C178 C 0.44350 0.12328 0.19960
 C179 C 0.43222 0.21033 0.14547
 C180 C 0.54246 0.14337 0.20862
 O181 O 0.54159 0.11627 0.83148
 O182 O 0.47180 0.15672 0.90412
 O183 O 0.46647 0.12026 0.83480
 O184 O 0.54664 0.15161 0.90038
 O185 O 0.54628 0.20752 0.86930
 O186 O 0.46883 0.17491 0.80141
 O187 O 0.47124 0.21103 0.86998
 O188 O 0.54456 0.17205 0.80030
 Cu189 Cu 0.50625 0.13061 0.87089
 Cu190 Cu 0.50789 0.19686 0.83187
 C191 C 0.55538 0.13754 0.80382
 C192 C 0.45973 0.19073 0.89951
 C193 C 0.45439 0.14197 0.80663
 C194 C 0.55965 0.18529 0.89636
 O195 O 0.45604 0.82173 0.13091
 O196 O 0.54067 0.87178 0.17684
 O197 O 0.52956 0.83643 0.11032
 O198 O 0.46741 0.87356 0.19021
 O199 O 0.47778 0.82225 0.22763
 O200 O 0.53971 0.78395 0.14591
 O201 O 0.55087 0.82090 0.21507
 O202 O 0.46719 0.77277 0.17149
 Cu203 Cu 0.49627 0.85518 0.14808
 Cu204 Cu 0.51041 0.79487 0.19261
 C205 C 0.44737 0.78838 0.14385
 C206 C 0.56006 0.85435 0.20417
 C207 C 0.54561 0.80423 0.11440
 C208 C 0.46248 0.85505 0.22277
 O209 O 0.86991 0.52766 0.81697
 O210 O 0.82830 0.44574 0.87282
 O211 O 0.87134 0.45323 0.80866
 O212 O 0.83110 0.51759 0.88437
 O213 O 0.77724 0.52199 0.84826
 O214 O 0.81921 0.45898 0.77028
 O215 O 0.77623 0.44881 0.83380
 O216 O 0.81562 0.53274 0.78180
 Cu217 Cu 0.85585 0.48567 0.84901
 Cu218 Cu 0.79176 0.49116 0.80481
 C219 C 0.84942 0.54443 0.79022
 C220 C 0.79494 0.43358 0.86265
 C221 C 0.85247 0.44471 0.77696
 C222 C 0.79697 0.53002 0.87970
 O223 O 0.20350 0.46794 0.13759
 O224 O 0.15229 0.54494 0.19212
 O225 O 0.20700 0.54295 0.13733
 O226 O 0.14848 0.47117 0.19193
 O227 O 0.19474 0.46673 0.23804
 O228 O 0.25012 0.54247 0.18679
 O229 O 0.19587 0.54108 0.24101
 O230 O 0.24946 0.46811 0.18419
 Cu231 Cu 0.17349 0.50697 0.15971
 Cu232 Cu 0.22698 0.50437 0.21731
 C233 C 0.23534 0.45511 0.15155
 C234 C 0.16520 0.55560 0.22633
 C235 C 0.23818 0.55541 0.15313
 C236 C 0.16197 0.45656 0.22421
 O237 O 0.83362 0.55136 0.10918
 O238 O 0.91002 0.48821 0.15039
 O239 O 0.85443 0.48057 0.09790
 O240 O 0.88920 0.55860 0.16333
 O241 O 0.84870 0.54006 0.21120
 O242 O 0.81475 0.46185 0.14642
 O243 O 0.87013 0.47017 0.19900
 O244 O 0.79378 0.53225 0.15738
 Cu245 Cu 0.87577 0.52178 0.12533
 Cu246 Cu 0.82781 0.49930 0.18330
 C247 C 0.80050 0.55213 0.12601
 C248 C 0.90305 0.46852 0.18185
 C249 C 0.82868 0.45786 0.11115
 C250 C 0.87522 0.56220 0.19868
 O251 O 0.14971 0.52894 0.90290
 O252 O 0.10869 0.45963 0.83020
 O253 O 0.16541 0.45877 0.88224
 O254 O 0.09178 0.52917 0.85275
 O255 O 0.13124 0.55090 0.80544
 O256 O 0.20473 0.47925 0.83422
 O257 O 0.14790 0.48167 0.78281
 O258 O 0.19006 0.54927 0.85572
 Cu259 Cu 0.12498 0.49191 0.87177
 Cu260 Cu 0.17238 0.51761 0.81482
 C261 C 0.17714 0.55072 0.89165
 C262 C 0.12142 0.45888 0.79410
 C263 C 0.19740 0.45675 0.86338
 C264 C 0.09898 0.55209 0.82402
 C265 C 0.24982 0.35576 0.04776
 C266 C 0.26522 0.37687 0.07735
 C267 C 0.24153 0.40470 0.09985
 C268 C 0.25698 0.42522 0.12988
 H269 H 0.29610 0.37523 0.08336
 H270 H 0.21154 0.40909 0.09113
 H271 H 0.21903 0.35782 0.04159
 H272 H 0.28668 0.41991 0.13910
 C273 C 0.74142 0.63699 0.02404
 C274 C 0.73864 0.61685 0.05840
 C275 C 0.77225 0.59602 0.07515
 C276 C 0.76881 0.57554 0.10918
 H277 H 0.71099 0.61434 0.07368
 H278 H 0.79964 0.59676 0.05912
 H279 H 0.76903 0.63779 0.00845
 H280 H 0.74122 0.57496 0.12484
 C281 C 0.73596 0.37779 0.98132
 C282 C 0.75303 0.37146 0.94564
 C283 C 0.77507 0.40152 0.92484
 C284 C 0.77715 0.40175 0.88454
 H285 H 0.74953 0.34419 0.93062
 H286 H 0.78720 0.42496 0.94215
 H287 H 0.73934 0.40541 0.99562
 H288 H 0.76173 0.38031 0.86719
 C289 C 0.28385 0.62730 0.94496
 C290 C 0.24565 0.62068 0.94436
 C291 C 0.22906 0.59317 0.91541
 C292 C 0.19381 0.57807 0.92072
 H293 H 0.22661 0.63572 0.96494
 H294 H 0.24643 0.58448 0.88971
 H295 H 0.30201 0.61308 0.92288
 H296 H 0.17732 0.58503 0.94759
 C297 C 0.06086 0.29342 0.38232
 C298 C 0.06019 0.25532 0.38270
 C299 C 0.08595 0.23363 0.40978
 C300 C 0.08173 0.19595 0.41401
 H301 H 0.03936 0.24013 0.36409
 H302 H 0.10701 0.24888 0.42804
 H303 H 0.08292 0.30846 0.39943
 H304 H 0.05994 0.18110 0.39632
 C305 C 0.01775 0.75659 0.65342
 C306 C 0.05073 0.75342 0.63257
 C307 C 0.06839 0.78571 0.61097
 C308 C 0.10143 0.78006 0.59092
 H309 H 0.06413 0.72558 0.62936
 H310 H 0.05364 0.81301 0.60968
 H311 H 0.00335 0.78401 0.65547
 H312 H 0.11544 0.75237 0.59255
 C313 C 0.96693 0.72871 0.37044
 C314 C 0.94144 0.75665 0.36338
 C315 C 0.91675 0.77116 0.39624
 C316 C 0.90412 0.80719 0.39642
 H317 H 0.93939 0.76937 0.33352
 H318 H 0.91007 0.75246 0.42149
 H319 H 0.97102 0.71828 0.40106
 H320 H 0.91357 0.82688 0.37308
 C321 C 0.96554 0.26861 0.62030
 C322 C 0.92987 0.25359 0.61924
 C323 C 0.91712 0.23161 0.58374
 C324 C 0.87978 0.22357 0.57720
 H325 H 0.91087 0.25519 0.64521
 H326 H 0.93892 0.22115 0.56290
 H327 H 0.98319 0.26670 0.59329
 H328 H 0.85764 0.23580 0.59644
 C329 C 0.38554 0.04311 0.30495
 C330 C 0.38787 0.05255 0.26590
 C331 C 0.41215 0.08499 0.25282
 C332 C 0.41846 0.09188 0.21366
 H333 H 0.37113 0.03679 0.24369
 H334 H 0.42556 0.10303 0.27551
 H335 H 0.40098 0.06007 0.32717
 H336 H 0.40647 0.07272 0.19114
 C337 C 0.62169 0.03446 0.73137
 C338 C 0.62089 0.07114 0.74291
 C339 C 0.59086 0.08514 0.77088
 C340 C 0.58462 0.12256 0.77559
 H341 H 0.64256 0.09117 0.73244
 H342 H 0.57334 0.06463 0.78735
 H343 H 0.59935 0.01573 0.74308
 H344 H 0.60096 0.14289 0.75764
 C345 C 0.36518 0.96016 0.73883
 C346 C 0.38341 0.93002 0.72306
 C347 C 0.40879 0.90577 0.74807
 C348 C 0.42547 0.87474 0.73244
 H349 H 0.38083 0.92405 0.69099
 H350 H 0.41433 0.91368 0.77925
 H351 H 0.36843 0.96613 0.77080
 H352 H 0.41908 0.86660 0.70151
 C353 C 0.65132 0.95935 0.22961
 C354 C 0.63745 0.92491 0.23914
 C355 C 0.60800 0.90612 0.21362
 C356 C 0.59288 0.87270 0.22496
 H357 H 0.64510 0.91207 0.26796
 H358 H 0.59720 0.92053 0.18682
 H359 H 0.64238 0.97257 0.20142
 H360 H 0.60439 0.85839 0.25152
 C361 C 0.35215 0.27135 0.94416
 C362 C 0.38532 0.25321 0.95339
 C363 C 0.40963 0.23625 0.92148
 C364 C 0.43316 0.20692 0.92976
 H365 H 0.39667 0.25200 0.98371
 H366 H 0.40788 0.24748 0.89094
 H367 H 0.34567 0.27395 0.91211
 H368 H 0.43278 0.19415 0.95967
 C369 C 0.61596 0.72121 0.95059
 C370 C 0.60853 0.72135 0.91057
 C371 C 0.57961 0.74694 0.89189
 C372 C 0.57123 0.74343 0.85250
 H373 H 0.62334 0.70215 0.89033
 H374 H 0.56592 0.76893 0.90991
 H375 H 0.59683 0.73799 0.96929
 H376 H 0.58426 0.72048 0.83526
 C377 C 0.36356 0.74473 0.03354
 C378 C 0.37181 0.74448 0.07325
 C379 C 0.39888 0.77281 0.09086
 C380 C 0.41476 0.76624 0.12709
 H381 H 0.36268 0.72106 0.09237
 H382 H 0.40845 0.79696 0.07288
 H383 H 0.37573 0.76809 0.01623
 H384 H 0.40610 0.74095 0.14380
 C385 C 0.62507 0.27260 0.05228
 C386 C 0.60714 0.27809 0.08767
 C387 C 0.57858 0.24980 0.10201
 C388 C 0.55938 0.25393 0.13684
 H389 H 0.61295 0.30330 0.10561
 H390 H 0.57343 0.22469 0.08360
 H391 H 0.61718 0.24762 0.03498
 H392 H 0.56446 0.27886 0.15548
 C393 C 0.27474 0.06224 0.64114
 C394 C 0.23858 0.05654 0.62775
 C395 C 0.21979 0.08394 0.60021
 C396 C 0.18684 0.07438 0.58163
 H397 H 0.22245 0.03136 0.63661
 H398 H 0.23404 0.11075 0.59318
 H399 H 0.28729 0.09030 0.63608
 H400 H 0.17358 0.04694 0.58808
 C401 C 0.72844 0.05111 0.34875
 C402 C 0.76487 0.05062 0.36293
 C403 C 0.77747 0.07946 0.39273
 C404 C 0.81422 0.08153 0.40552
 H405 H 0.78642 0.03157 0.35108
 H406 H 0.75617 0.09924 0.40460
 H407 H 0.71052 0.07475 0.35879
 H408 H 0.83545 0.06146 0.39412
 C409 C 0.72875 0.97030 0.61340
 C410 C 0.74599 0.93608 0.61531
 C411 C 0.77063 0.92271 0.58179
 C412 C 0.77785 0.88558 0.57661
 H413 H 0.74260 0.91776 0.64145
 H414 H 0.78190 0.94337 0.56031
 H415 H 0.73295 0.98696 0.58612
 H416 H 0.76432 0.86480 0.59645
 C417 C 0.27942 0.93624 0.37499
 C418 C 0.24299 0.94228 0.38736
 C419 C 0.22290 0.91345 0.41193
 C420 C 0.19096 0.92241 0.43263
 H421 H 0.22799 0.96865 0.38069
 H422 H 0.23618 0.88562 0.41583
 H423 H 0.29052 0.90734 0.37778
 H424 H 0.17834 0.95062 0.42953
 C425 C 0.03465 0.35521 0.75090
 C426 C 0.06356 0.37940 0.74254
 C427 C 0.07884 0.40554 0.77367
 C428 C 0.10580 0.43155 0.76440
 H429 H 0.07497 0.38101 0.71203
 H430 H 0.06750 0.40389 0.80419
 H431 H 0.02270 0.35483 0.78115
 H432 H 0.11693 0.43296 0.73378
 C433 C 0.05554 0.64097 0.25787
 C434 C 0.09148 0.62792 0.26569
 C435 C 0.11064 0.59974 0.23929
 C436 C 0.14489 0.58491 0.25003
 H437 H 0.10709 0.63607 0.29262
 H438 H 0.09648 0.59061 0.21165
 H439 H 0.04154 0.62917 0.23143
 H440 H 0.15841 0.59395 0.27807
 C441 C 0.95806 0.39115 0.29068
 C442 C 0.96060 0.40259 0.25215
 C443 C 0.93005 0.42715 0.23487
 C444 C 0.93365 0.44363 0.19855
 H445 H 0.98456 0.39353 0.23334
 H446 H 0.90425 0.43240 0.25271
 H447 H 0.93262 0.39920 0.30792
 H448 H 0.95989 0.43947 0.18112
 C449 C 0.95180 0.62662 0.73460
 C450 C 0.91427 0.62111 0.74358
 C451 C 0.90162 0.58692 0.76617
 C452 C 0.86403 0.57816 0.76852
 H453 H 0.89224 0.64169 0.73567
 H454 H 0.92306 0.56855 0.78026
 H455 H 0.97140 0.60442 0.74446
 H456 H 0.84301 0.59573 0.75268
 C457 C 0.73125 0.64140 0.93335
 C458 C 0.74021 0.60454 0.93727
 C459 C 0.75887 0.58375 0.90419
 C460 C 0.77991 0.55282 0.91203
 H461 H 0.73203 0.58876 0.96415
 H462 H 0.75548 0.59379 0.87332
 H463 H 0.73838 0.65588 0.90528
 H464 H 0.78589 0.54466 0.94308
 C465 C 0.24913 0.36536 0.96030
 C466 C 0.25097 0.37906 0.92240
 C467 C 0.22194 0.40723 0.90898
 C468 C 0.22645 0.42807 0.87544
 H469 H 0.27394 0.37137 0.90178
 H470 H 0.19656 0.41163 0.92774
 H471 H 0.22666 0.37754 0.97899
 H472 H 0.25221 0.42467 0.85708
 C473 C 0.27824 0.63086 0.03509
 C474 C 0.27834 0.62624 0.07547
 C475 C 0.25500 0.59574 0.09449
 C476 C 0.26097 0.58550 0.13297
 H477 H 0.29627 0.64350 0.09505
 H478 H 0.23311 0.58119 0.07667
 H479 H 0.26214 0.60965 0.01844
 H480 H 0.28389 0.59915 0.15017
 C481 C 0.73150 0.36405 0.07263
 C482 C 0.76670 0.37890 0.06574
 C483 C 0.78440 0.40511 0.09515
 C484 C 0.81432 0.42727 0.08466
 H485 H 0.78246 0.37286 0.03829
 H486 H 0.77080 0.40862 0.12446
 H487 H 0.71994 0.36702 0.10299
 H488 H 0.82706 0.42452 0.05484
 C489 C 0.93120 0.73647 0.64592
 C490 C 0.93953 0.75704 0.61266
 C491 C 0.90870 0.77484 0.58809
 C492 C 0.91700 0.80313 0.56224
 H493 H 0.96851 0.75904 0.60079
 H494 H 0.87914 0.76465 0.59096
 H495 H 0.90065 0.73303 0.65289
 H496 H 0.94612 0.81481 0.56135
 C497 C 0.97496 0.28346 0.38701
 C498 C 0.94011 0.26747 0.38106
 C499 C 0.92533 0.23826 0.40931
 C500 C 0.88784 0.22858 0.40994
 H501 H 0.92257 0.27515 0.35511
 H502 H 0.94524 0.22529 0.43073
 H503 H 0.99135 0.27472 0.41342
 H504 H 0.86749 0.24326 0.39032
 C505 C 0.05083 0.26383 0.64074
 C506 C 0.04298 0.23018 0.62317
 C507 C 0.07222 0.21155 0.59762
 C508 C 0.06437 0.17962 0.57700
 H509 H 0.01536 0.21608 0.62743
 H510 H 0.10015 0.22539 0.59407
 H511 H 0.08070 0.27363 0.63974
 H512 H 0.03638 0.16585 0.58019
 C513 C 0.05364 0.72420 0.37754
 C514 C 0.04924 0.76025 0.38982
 C515 C 0.07629 0.77637 0.41969
 C516 C 0.07192 0.81159 0.43437
 H517 H 0.02720 0.77836 0.37645
 H518 H 0.10051 0.75901 0.42974
 H519 H 0.07734 0.70745 0.38990
 H520 H 0.04701 0.82859 0.42565
 C521 C 0.63804 0.95193 0.73082
 C522 C 0.62391 0.91799 0.71945
 C523 C 0.59868 0.89559 0.74658
 C524 C 0.58297 0.86269 0.73421
 H525 H 0.62849 0.90790 0.68887
 H526 H 0.59109 0.90720 0.77589
 H527 H 0.63208 0.96195 0.76117
 H528 H 0.59069 0.85137 0.70480
 C529 C 0.39073 0.95954 0.28822
 C530 C 0.40066 0.92240 0.28636
 C531 C 0.42756 0.90800 0.25539
 C532 C 0.43852 0.87129 0.25525
 H533 H 0.38916 0.90169 0.30742
 H534 H 0.43739 0.92721 0.23176
 H535 H 0.40665 0.97894 0.26891
 H536 H 0.42942 0.85246 0.27952
 C537 C 0.62765 0.03796 0.24502
 C538 C 0.62315 0.07553 0.23963
 C539 C 0.58887 0.09100 0.21887
 C540 C 0.57670 0.12614 0.22754
 H541 H 0.64445 0.09556 0.25095
 H542 H 0.57273 0.07325 0.19792
 H543 H 0.60556 0.01915 0.23293
 H544 H 0.59144 0.14244 0.25082
 C545 C 0.37506 0.04296 0.74313
 C546 C 0.38232 0.08029 0.74863
 C547 C 0.41229 0.09266 0.77754
 C548 C 0.42353 0.12911 0.77920
 H549 H 0.36716 0.10240 0.73232
 H550 H 0.42593 0.07159 0.79698
 H551 H 0.39276 0.02371 0.76085
 H552 H 0.41077 0.14990 0.75880
 C553 C 0.61784 0.70690 0.04012
 C554 C 0.61042 0.74368 0.04685
 C555 C 0.58357 0.75511 0.07917
 C556 C 0.57170 0.79119 0.08217
 H557 H 0.62491 0.76543 0.02901
 H558 H 0.57330 0.73384 0.10051
 H559 H 0.60474 0.68544 0.05947
 H560 H 0.58092 0.81195 0.05977
 C561 C 0.34594 0.25199 0.03499
 C562 C 0.36326 0.25760 0.07071
 C563 C 0.38872 0.22873 0.08925
 C564 C 0.40177 0.23392 0.12690
 H565 H 0.36051 0.28499 0.08566
 H566 H 0.39824 0.20446 0.07157
 H567 H 0.34890 0.22464 0.02004
 H568 H 0.39113 0.25790 0.14438
 C569 C 0.62926 0.28738 0.96384
 C570 C 0.62690 0.25005 0.95644
 C571 C 0.59866 0.23588 0.92681
 C572 C 0.59005 0.19882 0.92403
 H573 H 0.64536 0.23012 0.97261
 H574 H 0.58341 0.25644 0.90806
 H575 H 0.61180 0.30723 0.94639
 H576 H 0.60412 0.17836 0.94384
 C577 C 0.37749 0.73347 0.94735
 C578 C 0.37504 0.74136 0.90780
 C579 C 0.40649 0.76215 0.88742
 C580 C 0.41189 0.75906 0.84758
 H581 H 0.35026 0.73233 0.89009
 H582 H 0.42659 0.77876 0.90553
 H583 H 0.40328 0.74274 0.96330
 H584 H 0.39333 0.74045 0.82991
 C585 C 0.75332 0.96782 0.33514
 C586 C 0.74358 0.94064 0.36170
 C587 C 0.77327 0.92235 0.38735
 C588 C 0.76543 0.89109 0.40924
 H589 H 0.71338 0.93270 0.36535
 H590 H 0.80191 0.93510 0.38877
 H591 H 0.78363 0.97400 0.32983
 H592 H 0.73736 0.87739 0.40651
 C593 C 0.26930 0.97697 0.62799
 C594 C 0.25146 0.94324 0.63203
 C595 C 0.22522 0.92913 0.60029
 C596 C 0.21903 0.89182 0.59539
 H597 H 0.25478 0.92636 0.65929
 H598 H 0.21119 0.94950 0.58030
 H599 H 0.26571 0.99237 0.59977
 H600 H 0.23548 0.87130 0.61301
 C601 C 0.27529 0.02030 0.39528
 C602 C 0.25555 0.05256 0.38894
 C603 C 0.22593 0.06526 0.41787
 C604 C 0.21435 0.10154 0.41851
 H605 H 0.26029 0.06915 0.36167
 H606 H 0.21425 0.04504 0.43959
 H607 H 0.27029 0.00435 0.42294
 H608 H 0.22831 0.12239 0.39909
 C609 C 0.71501 0.05451 0.61897
 C610 C 0.75305 0.05566 0.61127
 C611 C 0.76872 0.08368 0.58232
 C612 C 0.80592 0.08312 0.57099
 H613 H 0.77249 0.03557 0.62586
 H614 H 0.74912 0.10456 0.56928
 H615 H 0.69629 0.07608 0.60574
 H616 H 0.82539 0.06189 0.58358
 C617 C 0.97265 0.65493 0.24299
 C618 C 0.93941 0.63632 0.24963
 C619 C 0.92135 0.61272 0.21799
 C620 C 0.89046 0.59117 0.22661
 H621 H 0.92695 0.63604 0.27972
 H622 H 0.93491 0.61096 0.18849
 H623 H 0.98549 0.65415 0.21313
 H624 H 0.87752 0.59282 0.25644
 C625 C 0.95035 0.35096 0.74232
 C626 C 0.91992 0.37133 0.72958
 C627 C 0.89986 0.39638 0.75832
 C628 C 0.86956 0.41796 0.74775
 H629 H 0.91150 0.37142 0.69799
 H630 H 0.91101 0.39791 0.78899
 H631 H 0.95841 0.35243 0.77394
 H632 H 0.85729 0.41593 0.71763
 C633 C 0.03735 0.63689 0.72662
 C634 C 0.03978 0.62545 0.76507
 C635 C 0.07088 0.59914 0.77744
 C636 C 0.06919 0.58009 0.81238
 H637 H 0.01860 0.63495 0.78704
 H638 H 0.09476 0.59410 0.75683
 H639 H 0.05975 0.62828 0.70554
 H640 H 0.04444 0.58385 0.83214
 C641 C 0.04588 0.39925 0.28408
 C642 C 0.08168 0.39512 0.26899
 C643 C 0.10144 0.42583 0.24663
 C644 C 0.14018 0.42687 0.24581
 H645 H 0.09747 0.36875 0.27352
 H646 H 0.08457 0.44807 0.23207
 H647 H 0.03060 0.42579 0.27872
 H648 H 0.15664 0.40614 0.26319
   
