data_POSCAR
  _audit_creation_date              2014-09-24
  _audit_creation_method            'ToBaCCo'
  _symmetry_space_group_name_H-M    'P1'
  _symmetry_Int_Tables_number       1
  _symmetry_cell_setting            triclinic
  loop_
  _symmetry_equiv_pos_as_xyz
 x,y,z
_cell_length_a 52.2095
_cell_length_b 50.5927
_cell_length_c 50.9154
_cell_angle_alpha 90.049700
_cell_angle_beta 90.196200
_cell_angle_gamma 91.608700
loop_
  _atom_site_label
  _atom_site_type_symbol
  _atom_site_fract_x
  _atom_site_fract_y
  _atom_site_fract_z
C1 C 0.61033 0.64974 0.61225
 C2 C 0.63217 0.63887 0.60106
 C3 C 0.64331 0.61734 0.61270
 C4 C 0.63283 0.60644 0.63573
 C5 C 0.61134 0.61708 0.64670
 C6 C 0.60002 0.63895 0.63494
 C7 C 0.59547 0.67066 0.60526
 N8 N 0.57639 0.67288 0.62318
 C9 C 0.57908 0.65350 0.64140
 C10 C 0.60541 0.60250 0.66873
 N11 N 0.62282 0.58303 0.67167
 C12 C 0.63968 0.58558 0.65129
 C13 C 0.66409 0.61097 0.59765
 N14 N 0.66587 0.62811 0.57714
 C15 C 0.64637 0.64527 0.57913
 H16 H 0.59862 0.68356 0.58857
 H17 H 0.56655 0.64998 0.65800
 H18 H 0.58964 0.60646 0.68170
 H19 H 0.65564 0.57307 0.64733
 H20 H 0.67714 0.59521 0.60163
 H21 H 0.64253 0.66104 0.56546
 C22 C 0.89090 0.35174 0.11170
 C23 C 0.86914 0.36290 0.10049
 C24 C 0.85814 0.38442 0.11227
 C25 C 0.86871 0.39502 0.13548
 C26 C 0.89014 0.38398 0.14651
 C27 C 0.90124 0.36212 0.13455
 C28 C 0.90555 0.33076 0.10458
 N29 N 0.92473 0.32788 0.12259
 C30 C 0.92198 0.34726 0.14100
 C31 C 0.89619 0.39825 0.16881
 N32 N 0.87894 0.41770 0.17162
 C33 C 0.86205 0.41580 0.15127
 C34 C 0.83733 0.39098 0.09725
 N35 N 0.83536 0.37396 0.07660
 C36 C 0.85481 0.35672 0.07848
 H37 H 0.90178 0.31835 0.08764
 H38 H 0.93422 0.35098 0.15783
 H39 H 0.91182 0.39445 0.18218
 H40 H 0.84626 0.42881 0.14790
 H41 H 0.82431 0.40673 0.10138
 H42 H 0.85850 0.34097 0.06473
 C43 C 0.38507 0.14827 -0.11299
 C44 C 0.36215 0.13740 -0.10288
 C45 C 0.35128 0.11480 -0.11401
 C46 C 0.36313 0.10280 -0.13546
 C47 C 0.38572 0.11339 -0.14530
 C48 C 0.39682 0.13627 -0.13399
 C49 C 0.39994 0.17012 -0.10620
 N50 N 0.42050 0.17159 -0.12249
 C51 C 0.41874 0.15092 -0.13953
 C52 C 0.39279 0.09770 -0.16595
 N53 N 0.37497 0.07763 -0.16918
 C54 C 0.35677 0.08087 -0.15030
 C55 C 0.32940 0.10856 -0.10011
 N56 N 0.32671 0.12678 -0.08073
 C57 C 0.34669 0.14454 -0.08237
 H58 H 0.39622 0.18375 -0.09035
 H59 H 0.43220 0.14702 -0.15508
 H60 H 0.40958 0.10138 -0.17787
 H61 H 0.34008 0.06824 -0.14697
 H62 H 0.31635 0.09201 -0.10399
 H63 H 0.35011 0.16113 -0.06927
 C64 C 0.11376 0.85123 0.38546
 C65 C 0.13667 0.86209 0.39577
 C66 C 0.14738 0.88487 0.38496
 C67 C 0.13539 0.89703 0.36365
 C68 C 0.11276 0.88646 0.35367
 C69 C 0.10180 0.86342 0.36473
 C70 C 0.09908 0.82920 0.39189
 N71 N 0.07820 0.82764 0.37568
 C72 C 0.07990 0.84876 0.35904
 C73 C 0.10558 0.90228 0.33313
 N74 N 0.12337 0.92237 0.33010
 C75 C 0.14164 0.91907 0.34901
 C76 C 0.16928 0.89108 0.39902
 N77 N 0.17213 0.87267 0.41818
 C78 C 0.15224 0.85481 0.41623
 H79 H 0.10327 0.81586 0.40781
 H80 H 0.06674 0.85305 0.34328
 H81 H 0.08878 0.89862 0.32109
 H82 H 0.15834 0.93169 0.35246
 H83 H 0.18222 0.90775 0.39541
 H84 H 0.14894 0.83808 0.42913
 N85 N 0.09275 0.16682 0.11059
 N86 N 0.08257 0.15600 0.13171
 C87 C 0.06201 0.16978 0.13882
 C88 C 0.05907 0.19032 0.12117
 C89 C 0.07898 0.18776 0.10350
 H90 H 0.04998 0.16509 0.15549
 H91 H 0.08338 0.20039 0.08692
 Cu92 Cu 0.09716 0.12499 0.14791
 Cu93 Cu 0.12331 0.15326 0.09410
 Cu94 Cu 0.15076 0.09912 0.12348
 N95 N 0.11312 0.09487 0.16438
 N96 N 0.13414 0.08499 0.15482
 C97 C 0.14114 0.06454 0.16985
 C98 C 0.12353 0.06131 0.18998
 C99 C 0.10600 0.08098 0.18583
 H100 H 0.15766 0.05271 0.16615
 H101 H 0.08943 0.08503 0.19768
 N102 N 0.16474 0.11614 0.09164
 N103 N 0.15427 0.13670 0.08039
 C104 C 0.16813 0.14365 0.05910
 C105 C 0.18837 0.12666 0.05676
 C106 C 0.18552 0.10949 0.07781
 H107 H 0.16370 0.15987 0.04624
 H108 H 0.19770 0.09332 0.08280
 H109 H 0.11837 0.11464 0.10668
 H110 H 0.13820 0.13727 0.12805
 N111 N 0.40606 0.83314 0.61133
 N112 N 0.41645 0.84427 0.63226
 C113 C 0.43720 0.83072 0.63936
 C114 C 0.44006 0.80993 0.62193
 C115 C 0.41984 0.81218 0.60439
 H116 H 0.44923 0.83563 0.65606
 H117 H 0.41534 0.79954 0.58781
 Cu118 Cu 0.40180 0.87527 0.64839
 Cu119 Cu 0.37536 0.84647 0.59475
 Cu120 Cu 0.34778 0.90057 0.62392
 N121 N 0.38563 0.90524 0.66483
 N122 N 0.36445 0.91490 0.65527
 C123 C 0.35735 0.93529 0.67031
 C124 C 0.37504 0.93870 0.69046
 C125 C 0.39273 0.91922 0.68631
 H126 H 0.34069 0.94694 0.66661
 H127 H 0.40941 0.91534 0.69817
 N128 N 0.33375 0.88336 0.59206
 N129 N 0.34427 0.86281 0.58090
 C130 C 0.33040 0.85576 0.55953
 C131 C 0.31011 0.87270 0.55704
 C132 C 0.31293 0.88992 0.57811
 H133 H 0.33487 0.83955 0.54669
 H134 H 0.30075 0.90610 0.58299
 H135 H 0.38016 0.88520 0.60715
 H136 H 0.36067 0.86256 0.62866
 N137 N 0.90396 0.66461 0.38893
 N138 N 0.91740 0.64979 0.37321
 C139 C 0.93934 0.66283 0.36690
 C140 C 0.93963 0.68724 0.37924
 C141 C 0.91682 0.68769 0.39302
 H142 H 0.95383 0.65524 0.35403
 H143 H 0.91031 0.70339 0.40553
 Cu144 Cu 0.90499 0.61502 0.36207
 Cu145 Cu 0.87148 0.65229 0.40386
 Cu146 Cu 0.84514 0.59439 0.37810
 N147 N 0.88761 0.58598 0.34372
 N148 N 0.86429 0.57796 0.34999
 C149 C 0.85696 0.55787 0.33408
 C150 C 0.87675 0.55301 0.31678
 C151 C 0.89591 0.57133 0.32356
 H152 H 0.83842 0.54785 0.33487
 H153 H 0.91453 0.57392 0.31456
 N154 N 0.82894 0.61413 0.40667
 N155 N 0.83890 0.63631 0.41639
 C156 C 0.82388 0.64466 0.43598
 C157 C 0.80337 0.62687 0.43884
 C158 C 0.80730 0.60779 0.41981
 H159 H 0.82790 0.66216 0.44760
 H160 H 0.79554 0.59030 0.41600
 H161 H 0.87534 0.61196 0.39886
 H162 H 0.86236 0.63085 0.37033
 N163 N 0.59654 0.33473 -0.11199
 N164 N 0.58515 0.34679 -0.13147
 C165 C 0.56335 0.33331 -0.13767
 C166 C 0.56101 0.31155 -0.12128
 C167 C 0.58248 0.31311 -0.10525
 H168 H 0.55035 0.33864 -0.15324
 H169 H 0.58739 0.29968 -0.08963
 Cu170 Cu 0.60049 0.37849 -0.14713
 Cu171 Cu 0.62857 0.34814 -0.09653
 Cu172 Cu 0.65576 0.40498 -0.12414
 N173 N 0.61581 0.41025 -0.16266
 N174 N 0.63759 0.42036 -0.15369
 C175 C 0.64430 0.44174 -0.16806
 C176 C 0.62571 0.44532 -0.18713
 C177 C 0.60791 0.42491 -0.18305
 H178 H 0.66141 0.45382 -0.16476
 H179 H 0.59072 0.42077 -0.19437
 N180 N 0.67114 0.38647 -0.09414
 N181 N 0.66083 0.36484 -0.08368
 C182 C 0.67560 0.35716 -0.06351
 C183 C 0.69629 0.37479 -0.06105
 C184 C 0.69275 0.39309 -0.08089
 H185 H 0.67140 0.34012 -0.05136
 H186 H 0.70493 0.41008 -0.08536
 H187 H 0.62409 0.38728 -0.10659
 H188 H 0.64230 0.36664 -0.13003
 C189 C -0.01862 0.26995 0.12178
 C190 C -0.03486 0.27315 0.10010
 C191 C -0.05366 0.29229 0.10033
 C192 C -0.05676 0.30902 0.12230
 C193 C -0.04016 0.30563 0.14398
 C194 C -0.02148 0.28639 0.14369
 C195 C 0.00123 0.24951 0.12157
 C196 C 0.00559 0.23405 0.14397
 C197 C 0.02428 0.21482 0.14382
 C198 C 0.03914 0.21066 0.12128
 C199 C 0.03477 0.22615 0.09888
 C200 C 0.01599 0.24531 0.09901
 H201 H -0.06532 0.29394 0.08290
 H202 H -0.04156 0.31738 0.16158
 H203 H 0.02718 0.20342 0.16149
 H204 H 0.04569 0.22341 0.08112
 H205 H -0.00906 0.28455 0.16063
 H206 H -0.00567 0.23664 0.16156
 H207 H -0.03324 0.26061 0.08297
 H208 H 0.01324 0.25709 0.08153
 C209 C 0.51852 0.73088 0.62261
 C210 C 0.52958 0.72245 0.59902
 C211 C 0.54852 0.70348 0.59921
 C212 C 0.55681 0.69243 0.62298
 C213 C 0.54571 0.70083 0.64657
 C214 C 0.52680 0.71984 0.64639
 C215 C 0.49845 0.75111 0.62243
 C216 C 0.49841 0.77112 0.64156
 C217 C 0.47954 0.79017 0.64139
 C218 C 0.46018 0.78969 0.62208
 C219 C 0.46027 0.76961 0.60294
 C220 C 0.47917 0.75058 0.60311
 H221 H 0.55647 0.69724 0.58069
 H222 H 0.55185 0.69295 0.66523
 H223 H 0.48030 0.80526 0.65643
 H224 H 0.44575 0.76840 0.58777
 H225 H 0.51847 0.72572 0.66487
 H226 H 0.51321 0.77228 0.65650
 H227 H 0.52379 0.73077 0.58041
 H228 H 0.47847 0.73521 0.58830
 C229 C 1.01968 0.76857 0.37668
 C230 C 1.04292 0.76473 0.38981
 C231 C 1.06227 0.78437 0.38969
 C232 C 1.05910 0.80838 0.37602
 C233 C 1.03564 0.81190 0.36269
 C234 C 1.01619 0.79236 0.36322
 C235 C 0.99913 0.74779 0.37707
 C236 C 0.97375 0.75429 0.38266
 C237 C 0.95443 0.73461 0.38346
 C238 C 0.96006 0.70811 0.37830
 C239 C 0.98541 0.70168 0.37242
 C240 C 1.00479 0.72131 0.37199
 H241 H 1.07989 0.78016 0.39981
 H242 H 1.03175 0.82997 0.35234
 H243 H 0.93505 0.74021 0.38786
 H244 H 0.99039 0.68143 0.36854
 H245 H 0.99843 0.79575 0.35286
 H246 H 0.96893 0.77455 0.38680
 H247 H 1.04603 0.74655 0.40043
 H248 H 1.02419 0.71584 0.36745
 C249 C 0.48004 0.23101 -0.12119
 C250 C 0.45487 0.23723 -0.11434
 C251 C 0.43539 0.21770 -0.11456
 C252 C 0.44063 0.19164 -0.12191
 C253 C 0.46580 0.18545 -0.12881
 C254 C 0.48533 0.20490 -0.12833
 C255 C 0.50071 0.25171 -0.12102
 C256 C 0.52479 0.24656 -0.11007
 C257 C 0.54430 0.26604 -0.10998
 C258 C 0.54023 0.29101 -0.12109
 C259 C 0.51615 0.29612 -0.13210
 C260 C 0.49656 0.27672 -0.13195
 H261 H 0.41614 0.22307 -0.10937
 H262 H 0.47042 0.16547 -0.13429
 H263 H 0.56267 0.26139 -0.10151
 H264 H 0.51231 0.31519 -0.14063
 H265 H 0.50452 0.19961 -0.13388
 H266 H 0.52844 0.22752 -0.10134
 H267 H 0.45032 0.25715 -0.10856
 H268 H 0.47824 0.28114 -0.14070
 C269 C 0.12300 -0.01811 0.27201
 C270 C 0.10168 -0.03523 0.27538
 C271 C 0.10171 -0.05488 0.29466
 C272 C 0.12313 -0.05803 0.31134
 C273 C 0.14439 -0.04043 0.30789
 C274 C 0.14430 -0.02088 0.28853
 C275 C 0.12315 0.00240 0.25116
 C276 C 0.14520 0.00730 0.23599
 C277 C 0.14533 0.02641 0.21619
 C278 C 0.12342 0.04114 0.21113
 C279 C 0.10139 0.03630 0.22640
 C280 C 0.10125 0.01712 0.24615
 H281 H 0.08462 -0.06724 0.29635
 H282 H 0.16153 -0.04171 0.31965
 H283 H 0.16270 0.02967 0.20501
 H284 H 0.08411 0.04712 0.22300
 H285 H 0.16093 -0.00777 0.28660
 H286 H 0.16229 -0.00393 0.23918
 H287 H 0.08503 -0.03371 0.26279
 H288 H 0.08405 0.01398 0.25768
 C289 C 0.62407 0.52565 -0.26821
 C290 C 0.64452 0.52842 -0.28586
 C291 C 0.64415 0.54740 -0.30577
 C292 C 0.62326 0.56438 -0.30866
 C293 C 0.60283 0.56145 -0.29063
 C294 C 0.60325 0.54237 -0.27081
 C295 C 0.62442 0.50528 -0.24724
 C296 C 0.60220 0.49017 -0.24131
 C297 C 0.60260 0.47077 -0.22180
 C298 C 0.62522 0.46609 -0.20768
 C299 C 0.64740 0.48134 -0.21352
 C300 C 0.64701 0.50067 -0.23310
 H301 H 0.66062 0.54868 -0.31848
 H302 H 0.58609 0.57343 -0.29174
 H303 H 0.58510 0.45959 -0.21775
 H304 H 0.66520 0.47822 -0.20321
 H305 H 0.58728 0.54086 -0.25732
 H306 H 0.58456 0.49309 -0.25205
 H307 H 0.66077 0.51565 -0.28448
 H308 H 0.66436 0.51219 -0.23703
 C309 C 0.37532 1.01816 0.77260
 C310 C 0.39656 1.03541 0.77601
 C311 C 0.39652 1.05506 0.79531
 C312 C 0.37518 1.05808 0.81199
 C313 C 0.35399 1.04036 0.80848
 C314 C 0.35409 1.02081 0.78908
 C315 C 0.37521 0.99762 0.75174
 C316 C 0.35314 0.99255 0.73650
 C317 C 0.35308 0.97344 0.71667
 C318 C 0.37508 0.95887 0.71165
 C319 C 0.39712 0.96387 0.72701
 C320 C 0.39720 0.98305 0.74679
 H321 H 0.41355 1.06752 0.79702
 H322 H 0.33691 1.04154 0.82023
 H323 H 0.33568 0.97006 0.70542
 H324 H 0.41447 0.95318 0.72366
 H325 H 0.33752 1.00759 0.78711
 H326 H 0.33598 1.00365 0.73965
 H327 H 0.41315 1.03399 0.76344
 H328 H 0.41442 0.98631 0.75839
 C329 C 0.87811 0.47486 0.23337
 C330 C 0.85527 0.46679 0.22064
 C331 C 0.85554 0.44809 0.20043
 C332 C 0.87866 0.43698 0.19249
 C333 C 0.90149 0.44504 0.20525
 C334 C 0.90123 0.46377 0.22543
 C335 C 0.87783 0.49480 0.25479
 C336 C 0.89713 0.51464 0.25655
 C337 C 0.89682 0.53347 0.27665
 C338 C 0.87718 0.53292 0.29550
 C339 C 0.85790 0.51300 0.29374
 C340 C 0.85822 0.49419 0.27363
 H341 H 0.83759 0.44212 0.19122
 H342 H 0.91965 0.43711 0.19944
 H343 H 0.91187 0.54858 0.27713
 H344 H 0.84261 0.51169 0.30799
 H345 H 0.91911 0.46938 0.23502
 H346 H 0.91230 0.51588 0.24212
 H347 H 0.83719 0.47517 0.22611
 H348 H 0.84329 0.47891 0.27305
 C349 C 0.26747 0.12699 -0.02310
 C350 C 0.27482 0.10321 -0.03479
 C351 C 0.29411 0.10316 -0.05373
 C352 C 0.30654 0.12690 -0.06145
 C353 C 0.29909 0.15070 -0.04985
 C354 C 0.27978 0.15075 -0.03091
 C355 C 0.24720 0.12694 -0.00269
 C356 C 0.22889 0.14676 -0.00224
 C357 C 0.20984 0.14668 0.01699
 C358 C 0.20862 0.12678 0.03627
 C359 C 0.22700 0.10697 0.03576
 C360 C 0.24603 0.10706 0.01654
 H361 H 0.29954 0.08446 -0.06203
 H362 H 0.30806 0.16935 -0.05555
 H363 H 0.19614 0.16231 0.01662
 H364 H 0.22683 0.09128 0.05015
 H365 H 0.27473 0.16937 -0.02210
 H366 H 0.22910 0.16218 -0.01698
 H367 H 0.26551 0.08460 -0.02942
 H368 H 0.26007 0.09171 0.01695
 C369 C 0.72312 0.62811 0.51742
 C370 C 0.71561 0.60452 0.53015
 C371 C 0.69685 0.60452 0.54965
 C372 C 0.68511 0.62810 0.55687
 C373 C 0.69254 0.65168 0.54405
 C374 C 0.71135 0.65169 0.52458
 C375 C 0.74331 0.62812 0.49694
 C376 C 0.76210 0.64851 0.49592
 C377 C 0.78143 0.64822 0.47700
 C378 C 0.78246 0.62753 0.45859
 C379 C 0.76344 0.60728 0.45948
 C380 C 0.74414 0.60757 0.47842
 H381 H 0.69137 0.58598 0.55891
 H382 H 0.68409 0.67022 0.54932
 H383 H 0.79560 0.66421 0.47707
 H384 H 0.76336 0.59106 0.44565
 H385 H 0.71655 0.67015 0.51496
 H386 H 0.76216 0.66448 0.51011
 H387 H 0.72451 0.58608 0.52528
 H388 H 0.72971 0.59177 0.47844
 C389 C 0.77734 0.37409 0.01725
 C390 C 0.78488 0.39762 0.03017
 C391 C 0.80392 0.39759 0.04952
 C392 C 0.81590 0.37403 0.05642
 C393 C 0.80845 0.35052 0.04340
 C394 C 0.78939 0.35055 0.02406
 C395 C 0.75684 0.37408 -0.00305
 C396 C 0.73830 0.35344 -0.00420
 C397 C 0.71878 0.35360 -0.02304
 C398 C 0.71728 0.37443 -0.04123
 C399 C 0.73596 0.39499 -0.04013
 C400 C 0.75548 0.39482 -0.02128
 H401 H 0.80940 0.41609 0.05893
 H402 H 0.81707 0.33199 0.04841
 H403 H 0.70489 0.33735 -0.02316
 H404 H 0.73560 0.41139 -0.05371
 H405 H 0.78421 0.33214 0.01427
 H406 H 0.73863 0.33733 0.00977
 H407 H 0.77579 0.41604 0.02557
 H408 H 0.76967 0.41084 -0.02113
 C409 C 0.23127 0.87238 0.47635
 C410 C 0.22380 0.89620 0.46482
 C411 C 0.20455 0.89627 0.44569
 C412 C 0.19230 0.87252 0.43762
 C413 C 0.19988 0.84867 0.44904
 C414 C 0.21915 0.84860 0.46817
 C415 C 0.25146 0.87240 0.49698
 C416 C 0.26991 0.85272 0.49745
 C417 C 0.28890 0.85279 0.51689
 C418 C 0.28990 0.87255 0.53637
 C419 C 0.27136 0.89220 0.53586
 C420 C 0.25240 0.89212 0.51642
 H421 H 0.19900 0.91501 0.43754
 H422 H 0.19105 0.83002 0.44307
 H423 H 0.30272 0.83729 0.51651
 H424 H 0.27135 0.90776 0.55041
 H425 H 0.22431 0.82995 0.47684
 H426 H 0.26988 0.83743 0.48256
 H427 H 0.23296 0.91482 0.47048
 H428 H 0.23825 0.90735 0.51683
   
