data_POSCAR
  _audit_creation_date              2014-09-24
  _audit_creation_method            'ToBaCCo'
  _symmetry_space_group_name_H-M    'P1'
  _symmetry_Int_Tables_number       1
  _symmetry_cell_setting            triclinic
  loop_
  _symmetry_equiv_pos_as_xyz
 x,y,z
_cell_length_a 32.9447
_cell_length_b 33.3010
_cell_length_c 32.6147
_cell_angle_alpha 90.541200
_cell_angle_beta 90.516200
_cell_angle_gamma 90.208500
loop_
  _atom_site_label
  _atom_site_type_symbol
  _atom_site_fract_x
  _atom_site_fract_y
  _atom_site_fract_z
N1 N 0.34449 0.35802 1.38209
 N2 N 1.14102 0.63594 0.86820
 N3 N 0.64544 -0.12192 0.11440
 N4 N -0.12751 1.11864 -0.37855
 N5 N 0.61056 0.62962 0.64179
 N6 N 0.88357 0.37159 0.11833
 N7 N 0.37053 0.15416 0.85006
 N8 N 0.12413 0.85069 0.36931
 Zn9 Zn 0.07068 0.98352 0.00338
 Zn10 Zn 0.02646 1.05673 -0.02019
 Zn11 Zn -0.00638 0.97542 -0.04496
 Zn12 Zn -0.00832 1.00336 0.04320
 O13 O 0.02040 1.00464 -0.00468
 O14 O 0.11127 1.01760 -0.00695
 O15 O 0.00538 1.06529 -0.06961
 O16 O 0.02266 0.93310 -0.06357
 O17 O 0.07819 1.07294 -0.02302
 O18 O 0.07996 0.94120 -0.02845
 O19 O -0.01835 1.00563 -0.08920
 O20 O -0.05445 0.97515 0.03765
 O21 O 0.00197 1.09143 0.01313
 O22 O -0.05376 0.95493 -0.02729
 O23 O -0.02419 1.05228 0.06057
 O24 O 0.01992 0.98101 0.08472
 O25 O 0.07805 0.96633 0.05440
 C26 C 0.11108 1.05404 -0.01777
 C27 C -0.01209 1.04273 -0.09586
 C28 C 0.05855 0.92220 -0.05457
 C29 C -0.07083 0.95673 0.00746
 C30 C -0.01851 1.08679 0.04546
 C31 C 0.05549 0.96633 0.08567
 Zn32 Zn 0.47814 0.00044 0.43449
 Zn33 Zn 0.46541 -0.04114 0.51486
 Zn34 Zn 0.54917 -0.02642 0.48273
 Zn35 Zn 0.50028 0.04246 0.51251
 O36 O 0.49808 -0.00625 0.48628
 O37 O 0.43150 -0.02558 0.42665
 O38 O 0.49120 -0.08755 0.52766
 O39 O 0.56606 -0.03281 0.43130
 O40 O 0.41998 -0.05503 0.48618
 O41 O 0.51209 -0.01565 0.39486
 O42 O 0.55294 -0.07481 0.50448
 O43 O 0.55072 0.05676 0.52743
 O44 O 0.44842 -0.01945 0.56276
 O45 O 0.58672 0.00428 0.50751
 O46 O 0.47256 0.04262 0.55918
 O47 O 0.48112 0.08288 0.48197
 O48 O 0.46677 0.05156 0.42346
 C49 C 0.40929 -0.04664 0.44966
 C50 C 0.52781 -0.09797 0.52159
 C51 C 0.54835 -0.02818 0.39708
 C52 C 0.58429 0.03854 0.52457
 C53 C 0.45306 0.01560 0.57795
 C54 C 0.46850 0.08331 0.44509
 Zn55 Zn 0.93710 0.46167 0.49854
 Zn56 Zn 1.01868 0.47365 0.53854
 Zn57 Zn 0.99889 0.51288 0.45802
 Zn58 Zn 0.95893 0.54117 0.53390
 O59 O 0.97856 0.49721 0.50730
 O60 O 0.94566 0.41496 0.52338
 O61 O 1.06650 0.47101 0.51206
 O62 O 0.97343 0.48994 0.41475
 O63 O 1.00631 0.42281 0.55219
 O64 O 0.92988 0.44962 0.44551
 O65 O 1.05076 0.49944 0.45284
 O66 O 0.97007 0.58723 0.50867
 O67 O 1.02746 0.49966 0.58676
 O68 O 0.99854 0.56622 0.45123
 O69 O 0.98046 0.54701 0.58363
 O70 O 0.90526 0.53966 0.54092
 O71 O 0.88893 0.47960 0.51624
 C72 C 0.97505 0.40155 0.54455
 C73 C 1.07609 0.48240 0.47631
 C74 C 0.94602 0.46304 0.41325
 C75 C 0.98713 0.59441 0.47487
 C76 C 1.00878 0.52926 0.60260
 C77 C 0.87904 0.51264 0.53295
 Zn78 Zn 0.48309 0.55303 1.00457
 Zn79 Zn 0.45876 0.47156 1.03340
 Zn80 Zn 0.53824 0.48278 0.98968
 Zn81 Zn 0.52635 0.51624 1.07432
 O82 O 0.50164 0.50574 1.02532
 O83 O 0.42906 0.55378 0.99776
 O84 O 0.46343 0.42589 1.00418
 O85 O 0.54508 0.51207 0.94373
 O86 O 0.41131 0.49280 1.01756
 O87 O 0.50320 0.56272 0.95549
 O88 O 0.52187 0.43405 0.97204
 O89 O 0.57759 0.50029 1.07508
 O90 O 0.45256 0.45761 1.08640
 O91 O 0.58795 0.47571 1.01270
 O92 O 0.50285 0.49156 1.11614
 O93 O 0.52858 0.56847 1.08732
 O94 O 0.49733 0.59632 1.03458
 C95 C 0.40224 0.52692 1.00322
 C96 C 0.49035 0.41342 0.97950
 C97 C 0.52839 0.54470 0.93283
 C98 C 0.60050 0.48410 1.04878
 C99 C 0.47273 0.46794 1.11821
 C100 C 0.51677 0.59928 1.06821
 C101 C 1.31035 0.37191 0.40548
 C102 C 1.28802 0.40590 0.39506
 C103 C 1.25188 0.41822 0.41812
 N104 N 1.22888 0.44906 0.40440
 N105 N 1.19520 0.45962 0.42395
 C106 C 1.18329 0.43983 0.45808
 N107 N 1.20656 0.40929 0.47213
 N108 N 1.24022 0.39865 0.45248
 C109 C 1.14490 0.44987 0.47851
 C110 C 1.11713 0.47586 0.46048
 H111 H 1.29653 0.42363 0.36885
 H112 H 1.13717 0.43451 0.50652
 H113 H 1.30189 0.35541 0.43261
 H114 H 1.12450 0.48987 0.43162
 C115 C 0.17906 0.63046 0.88952
 C116 C 0.19474 0.59251 0.89781
 C117 C 0.23388 0.58730 0.91921
 N118 N 0.24557 0.55028 0.93156
 N119 N 0.28136 0.54504 0.95008
 C120 C 0.30684 0.57665 0.95682
 N121 N 0.29516 0.61365 0.94443
 N122 N 0.25930 0.61891 0.92608
 C123 C 0.34735 0.57109 0.97519
 C124 C 0.35982 0.53445 0.99124
 H125 H 0.17759 0.56590 0.88920
 H126 H 0.36839 0.59615 0.97468
 H127 H 0.19475 0.65650 0.90206
 H128 H 0.33839 0.50980 0.99305
 C129 C -0.31766 0.89677 0.10044
 C130 C -0.28956 0.87756 0.07514
 C131 C -0.24976 0.89601 0.06656
 N132 N -0.22518 0.88007 0.03746
 N133 N -0.18872 0.89609 0.03043
 C134 C -0.17543 0.92844 0.05253
 N135 N -0.19993 0.94419 0.08169
 N136 N -0.23639 0.92838 0.08850
 C137 C -0.13499 0.94622 0.04633
 C138 C -0.11069 0.93725 0.01267
 H139 H -0.29603 0.84810 0.06240
 H140 H -0.12456 0.96833 0.06865
 H141 H -0.31036 0.92663 0.11183
 H142 H -0.12180 0.91697 -0.01109
 C143 C 0.83762 0.09729 0.60583
 C144 C 0.80024 0.11634 0.60148
 C145 C 0.76365 0.09566 0.58623
 N146 N 0.72785 0.11559 0.58532
 N147 N 0.69431 0.09764 0.57118
 C148 C 0.69537 0.05909 0.55734
 N149 N 0.73120 0.03913 0.55820
 N150 N 0.76477 0.05708 0.57242
 C151 C 0.65864 0.03914 0.54124
 C152 C 0.62094 0.05801 0.54136
 H153 H 0.79731 0.14753 0.61059
 H154 H 0.66139 0.00892 0.52902
 H155 H 0.83968 0.06517 0.60069
 H156 H 0.61806 0.08798 0.55419
 C157 C 0.36890 0.32696 0.40011
 C158 C 0.38483 0.29566 0.37664
 C159 C 0.40410 0.26048 0.39537
 N160 N 0.41302 0.22804 0.37175
 N161 N 0.42871 0.19517 0.38847
 C162 C 0.43618 0.19355 0.42944
 N163 N 0.42774 0.22620 0.45302
 N164 N 0.41190 0.25904 0.43631
 C165 C 0.45204 0.15685 0.44845
 C166 C 0.45525 0.12103 0.42633
 H167 H 0.38037 0.29542 0.34370
 H168 H 0.45969 0.15764 0.48082
 H169 H 0.37095 0.32541 0.43324
 H170 H 0.44650 0.12013 0.39424
 C171 C 0.88067 0.15871 0.60701
 C172 C 0.91771 0.17865 0.61275
 C173 C 0.92376 0.21964 0.59712
 N174 N 0.95913 0.23970 0.60431
 N175 N 0.96430 0.27697 0.59053
 C176 C 0.93426 0.29542 0.56903
 N177 N 0.89906 0.27531 0.56181
 N178 N 0.89389 0.23820 0.57560
 C179 C 0.93867 0.33644 0.55348
 C180 C 0.97285 0.36040 0.56059
 H181 H 0.94254 0.16427 0.62874
 H182 H 0.91345 0.34837 0.53593
 H183 H 0.85773 0.17330 0.58854
 H184 H 0.99817 0.34898 0.57833
 C185 C 0.11828 0.67196 -0.12388
 C186 C 0.13641 0.70970 -0.12628
 C187 C 0.11428 0.74717 -0.11829
 N188 N 0.13503 0.78235 -0.11616
 N189 N 0.11593 0.81652 -0.10764
 C190 C 0.07525 0.81692 -0.10120
 N191 N 0.05431 0.78181 -0.10398
 N192 N 0.07349 0.74752 -0.11232
 C193 C 0.05460 0.85430 -0.08902
 C194 C 0.07695 0.88697 -0.07416
 H195 H 0.16824 0.71187 -0.13399
 H196 H 0.02175 0.85481 -0.08794
 H197 H 0.08622 0.66965 -0.11729
 H198 H 0.10974 0.88484 -0.07250
 C199 C 0.62930 0.84177 1.09611
 C200 C 0.60854 0.81398 1.12004
 C201 C 0.58927 0.77729 1.10366
 N202 N 0.57464 0.74970 1.13010
 N203 N 0.55660 0.71634 1.11627
 C204 C 0.55215 0.70946 1.07539
 N205 N 0.56646 0.73723 1.04886
 N206 N 0.58475 0.77057 1.06272
 C207 C 0.53345 0.67203 1.05981
 C208 C 0.52752 0.63899 1.08508
 H209 H 0.60674 0.81913 1.15282
 H210 H 0.52759 0.66919 1.02717
 H211 H 0.63395 0.83561 1.06384
 H212 H 0.53618 0.64092 1.11716
 C213 C 0.35150 0.37179 1.34097
 C214 C 0.39070 0.37874 1.32693
 C215 C 0.39922 0.39268 1.28520
 N216 N 0.43734 0.40462 1.27563
 N217 N 0.44582 0.41727 1.23806
 C218 C 0.41657 0.41824 1.20847
 N219 N 0.37847 0.40596 1.21790
 N220 N 0.36991 0.39350 1.25562
 C221 C 0.42582 0.43249 1.16690
 C222 C 0.46211 0.45241 1.15879
 H223 H 0.41612 0.37462 1.34775
 H224 H 0.40333 0.42844 1.14277
 H225 H 0.32578 0.37852 1.32132
 H226 H 0.48343 0.45818 1.18366
 C227 C 0.62260 -0.10259 0.14635
 C228 C 0.64157 -0.08616 0.18102
 C229 C 0.61844 -0.07210 0.21670
 N230 N 0.63804 -0.06418 0.25262
 N231 N 0.61739 -0.05306 0.28573
 C232 C 0.57636 -0.04929 0.28411
 N233 N 0.55680 -0.05669 0.24803
 N234 N 0.57744 -0.06801 0.21495
 C235 C 0.55315 -0.03817 0.32082
 C236 C 0.57105 -0.03764 0.35968
 H237 H 0.67437 -0.08660 0.18344
 H238 H 0.52107 -0.03186 0.31737
 H239 H 0.58979 -0.10514 0.14561
 H240 H 0.60277 -0.04551 0.36312
 C241 C -0.10388 1.09912 -0.34740
 C242 C -0.09318 1.11910 -0.31118
 C243 C -0.07771 1.09799 -0.27490
 N244 N -0.06720 1.11939 -0.24086
 N245 N -0.05485 1.10083 -0.20704
 C246 C -0.05273 1.06012 -0.20584
 N247 N -0.06322 1.03866 -0.23991
 N248 N -0.07548 1.05726 -0.27385
 C249 C -0.03979 1.03952 -0.16817
 C250 C -0.02530 1.06123 -0.13438
 H251 H -0.09890 1.15099 -0.30830
 H252 H -0.04129 1.00705 -0.16717
 H253 H -0.10049 1.06679 -0.34911
 H254 H -0.02260 1.09359 -0.13631
 C255 C 1.12849 0.60826 0.83610
 C256 C 1.09114 0.61141 0.81584
 C257 C 1.08081 0.58832 0.77854
 N258 N 1.04510 0.59558 0.75914
 N259 N 1.03585 0.57700 0.72400
 C260 C 1.06193 0.55038 0.70680
 N261 N 1.09753 0.54264 0.72646
 N262 N 1.10686 0.56135 0.76168
 C263 C 1.05242 0.53148 0.66678
 C264 C 1.01916 0.54436 0.64379
 H265 H 1.06906 0.63315 0.82605
 H266 H 1.07254 0.50876 0.65458
 H267 H 1.14978 0.58585 0.82546
 H268 H 1.00008 0.56800 0.65593
 C269 C 0.64983 0.62263 0.62420
 C270 C 0.66342 0.58416 0.61437
 C271 C 0.70464 0.57706 0.59896
 N272 N 0.71596 0.53966 0.58689
 N273 N 0.75352 0.53281 0.57374
 C274 C 0.78116 0.56314 0.57232
 N275 N 0.76983 0.60049 0.58440
 N276 N 0.73228 0.60735 0.59742
 C277 C 0.82310 0.55618 0.55911
 C278 C 0.83632 0.51931 0.54378
 H279 H 0.64329 0.55868 0.61788
 H280 H 0.84434 0.58100 0.56183
 H281 H 0.66930 0.64818 0.61837
 H282 H 0.81500 0.49471 0.53982
 C283 C 0.84737 0.38326 1.09636
 C284 C 0.82034 0.41139 1.11234
 C285 C 0.78198 0.42229 1.09202
 N286 N 0.75711 0.44888 1.11079
 N287 N 0.72167 0.45863 1.09388
 C288 C 0.70961 0.44224 1.05747
 N289 N 0.73464 0.41580 1.03841
 N290 N 0.77022 0.40598 1.05540
 C291 C 0.66950 0.45204 1.03976
 C292 C 0.64228 0.47552 1.06188
 H293 H 0.82662 0.42530 1.14184
 H294 H 0.66072 0.43941 1.01026
 H295 H 0.84010 0.36849 1.06746
 H296 H 0.65124 0.48694 1.09185
 C297 C 0.33787 1.13018 -0.13363
 C298 C 0.32226 1.13659 -0.09441
 C299 C 0.28684 1.11438 -0.07954
 N300 N 0.26311 1.13089 -0.05012
 N301 N 0.23017 1.11168 -0.03714
 C302 C 0.22012 1.07500 -0.05275
 N303 N 0.24426 1.05815 -0.08163
 N304 N 0.27691 1.07760 -0.09500
 C305 C 0.18332 1.05397 -0.03958
 C306 C 0.14958 1.07480 -0.02540
 H307 H 0.33478 1.15985 -0.07463
 H308 H 0.18123 1.02186 -0.04496
 H309 H 0.32386 1.10718 -0.15275
 H310 H 0.15011 1.10732 -0.02422
 C311 C 0.15898 -0.13843 0.39424
 C312 C 0.18547 -0.10770 0.38294
 C313 C 0.22511 -0.10055 0.40292
 N314 N 0.25179 -0.07519 0.38513
 N315 N 0.28839 -0.06895 0.40158
 C316 C 0.29983 -0.08776 0.43658
 N317 N 0.27298 -0.11288 0.45472
 N318 N 0.23631 -0.11933 0.43808
 C319 C 0.34047 -0.08048 0.45469
 C320 C 0.37000 -0.06004 0.43263
 H321 H 0.17859 -0.08988 0.35620
 H322 H 0.34693 -0.09059 0.48552
 H323 H 0.16726 -0.15715 0.41994
 H324 H 0.36331 -0.05133 0.40137
 C325 C 0.58619 -0.33664 0.62881
 C326 C 0.59637 -0.31317 0.59513
 C327 C 0.57492 -0.27600 0.58434
 N328 N 0.59032 -0.25244 0.55459
 N329 N 0.57288 -0.21768 0.54537
 C330 C 0.53925 -0.20505 0.56544
 N331 N 0.52339 -0.22889 0.59487
 N332 N 0.54100 -0.26370 0.60428
 C333 C 0.52106 -0.16572 0.55598
 C334 C 0.54280 -0.13774 0.53337
 H335 H 0.62230 -0.32102 0.57663
 H336 H 0.49136 -0.15831 0.56776
 H337 H 0.55873 -0.32936 0.64519
 H338 H 0.57331 -0.14511 0.52375
 C339 C 1.10479 0.81228 0.37392
 C340 C 1.09574 0.79671 0.41225
 C341 C 1.07429 0.75815 0.41633
 N342 N 1.05783 0.74784 0.45273
 N343 N 1.03874 0.71277 0.45680
 C344 C 1.03552 0.68668 0.42463
 N345 N 1.05213 0.69693 0.38829
 N346 N 1.07097 0.73209 0.38415
 C347 C 1.01711 0.64674 0.42946
 C348 C 0.99581 0.63640 0.46453
 H349 H 1.10289 0.81397 0.43969
 H350 H 1.02266 0.62426 0.40596
 H351 H 1.09349 0.79669 0.34682
 H352 H 0.98882 0.65934 0.48714
 C353 C -0.09406 1.33695 0.10529
 C354 C -0.11329 1.30026 0.09787
 C355 C -0.09019 1.26395 0.08744
 N356 N -0.10729 1.22710 0.09169
 N357 N -0.08663 1.19404 0.08201
 C358 C -0.04820 1.19672 0.06750
 N359 N -0.03124 1.23357 0.06301
 N360 N -0.05174 1.26657 0.07304
 C361 C -0.02585 1.16090 0.05417
 C362 C -0.03722 1.12207 0.06497
 H363 H -0.14578 1.29776 0.10200
 H364 H 0.00005 1.16529 0.03445
 H365 H -0.06120 1.33840 0.10575
 H366 H -0.06111 1.11747 0.08705
 C367 C 0.37830 0.19350 0.86721
 C368 C 0.41713 0.21033 0.86914
 C369 C 0.42517 0.24810 0.89185
 N370 N 0.46297 0.26450 0.89251
 N371 N 0.47058 0.29814 0.91380
 C372 C 0.44067 0.31649 0.93539
 N373 N 0.40296 0.30004 0.93476
 N374 N 0.39536 0.26653 0.91342
 C375 C 0.44812 0.35368 0.95910
 C376 C 0.48486 0.37456 0.95817
 H377 H 0.44236 0.19462 0.85535
 H378 H 0.42320 0.36574 0.97677
 H379 H 0.35351 0.20953 0.88145
 H380 H 0.50950 0.36327 0.93961
 C381 C 0.59945 0.60639 0.67707
 C382 C 0.58098 0.62387 0.71111
 C383 C 0.57497 0.60234 0.74974
 N384 N 0.55713 0.62160 0.78156
 N385 N 0.55214 0.60322 0.81720
 C386 C 0.56491 0.56487 0.82254
 N387 N 0.58284 0.54552 0.79071
 N388 N 0.58780 0.56393 0.75494
 C389 C 0.55907 0.54457 0.86205
 C390 C 0.53758 0.56331 0.89338
 H391 H 0.57267 0.65525 0.71063
 H392 H 0.57071 0.51448 0.86612
 H393 H 0.61005 0.57576 0.67943
 H394 H 0.52513 0.59295 0.88834
 C395 C 0.38938 0.14297 0.81183
 C396 C 0.38941 0.10346 0.79682
 C397 C 0.40359 0.09294 0.75537
 N398 N 0.39956 0.05467 0.74111
 N399 N 0.41122 0.04486 0.70328
 C400 C 0.42733 0.07303 0.67830
 N401 N 0.43149 0.11124 0.69262
 N402 N 0.41974 0.12106 0.73038
 C403 C 0.44094 0.06298 0.63659
 C404 C 0.43610 0.02497 0.61863
 H405 H 0.37773 0.07940 0.81543
 H406 H 0.45585 0.08651 0.61957
 H407 H 0.40333 0.16626 0.79369
 H408 H 0.42069 0.00139 0.63511
 C409 C 0.11055 0.87584 0.33642
 C410 C 0.11049 0.86181 0.29611
 C411 C 0.09611 0.88600 0.26154
 N412 N 0.10590 0.87493 0.22279
 N413 N 0.09251 0.89588 0.19090
 C414 C 0.06848 0.92849 0.19651
 N415 N 0.05833 0.93939 0.23528
 N416 N 0.07205 0.91861 0.26727
 C417 C 0.05303 0.95110 0.16113
 C418 C 0.07135 0.94747 0.12298
 H419 H 0.12265 0.83229 0.28955
 H420 H 0.02740 0.97098 0.16518
 H421 H 0.10266 0.90676 0.34304
 H422 H 0.09875 0.92979 0.12010
 C423 C 0.89898 0.39486 0.15243
 C424 C 0.90976 0.37604 0.18885
 C425 C 0.91965 0.39841 0.22668
 N426 N 0.91771 0.37944 0.26320
 N427 N 0.92573 0.39920 0.29802
 C428 C 0.93628 0.43864 0.29762
 N429 N 0.93874 0.45756 0.26103
 N430 N 0.93032 0.43786 0.22617
 C431 C 0.94575 0.46030 0.33609
 C432 C 0.93323 0.44543 0.37373
 H433 H 0.90735 0.34365 0.19057
 H434 H 0.96271 0.48818 0.33478
 H435 H 0.89783 0.42733 0.15133
 H436 H 0.91397 0.41900 0.37443
   
