data_POSCAR
  _audit_creation_date              2014-09-24
  _audit_creation_method            'ToBaCCo'
  _symmetry_space_group_name_H-M    'P1'
  _symmetry_Int_Tables_number       1
  _symmetry_cell_setting            triclinic
  loop_
  _symmetry_equiv_pos_as_xyz
 x,y,z
_cell_length_a 45.4082
_cell_length_b 45.4503
_cell_length_c 8.1087
_cell_angle_alpha 89.945900
_cell_angle_beta 90.225700
_cell_angle_gamma 90.038400
loop_
  _atom_site_label
  _atom_site_type_symbol
  _atom_site_fract_x
  _atom_site_fract_y
  _atom_site_fract_z
C1 C 0.18730 0.22312 0.18272
 C2 C 0.17277 0.25041 0.18740
 C3 C 0.18803 0.27689 0.20528
 C4 C 0.21900 0.27664 0.22140
 C5 C 0.23443 0.24956 0.21361
 C6 C 0.21870 0.22281 0.18997
 C7 C 0.23498 0.19707 0.15944
 C8 C 0.26554 0.19687 0.17009
 C9 C 0.28144 0.22240 0.21170
 C10 C 0.26576 0.24934 0.22475
 C11 C 0.23492 0.30285 0.24434
 C12 C 0.26546 0.30266 0.25381
 C13 C 0.28133 0.27619 0.24417
 C14 C 0.31243 0.27599 0.24857
 C15 C 0.32756 0.24934 0.23800
 C16 C 0.31275 0.22223 0.22592
 H17 H 0.22441 0.17689 0.12101
 H18 H 0.27661 0.17655 0.13949
 H19 H 0.22393 0.32388 0.25422
 H20 H 0.27649 0.32363 0.26699
 H21 H 0.14891 0.25124 0.18213
 H22 H 0.35135 0.24984 0.25036
 C23 C 0.68632 0.22249 0.25061
 C24 C 0.67161 0.24964 0.26047
 C25 C 0.68681 0.27634 0.26647
 C26 C 0.71787 0.27652 0.26008
 C27 C 0.73332 0.24960 0.24287
 C28 C 0.71763 0.22251 0.23655
 C29 C 0.73361 0.19651 0.20643
 C30 C 0.76419 0.19666 0.19794
 C31 C 0.78015 0.22302 0.21088
 C32 C 0.76458 0.24980 0.23121
 C33 C 0.73389 0.30290 0.27308
 C34 C 0.76445 0.30303 0.26380
 C35 C 0.78023 0.27681 0.23994
 C36 C 0.81132 0.27682 0.22788
 C37 C 0.82636 0.25011 0.21381
 C38 C 0.81128 0.22335 0.20415
 H39 H 0.72272 0.17569 0.18607
 H40 H 0.77515 0.17580 0.17977
 H41 H 0.72296 0.32377 0.29177
 H42 H 0.77558 0.32395 0.27695
 H43 H 0.64783 0.25016 0.27247
 H44 H 0.85020 0.25020 0.20508
 C45 C 0.81329 0.77764 0.73368
 C46 C 0.82803 0.75046 0.74134
 C47 C 0.81284 0.72379 0.75133
 C48 C 0.78174 0.72364 0.74795
 C49 C 0.76623 0.75058 0.73265
 C50 C 0.78192 0.77764 0.72363
 C51 C 0.76586 0.80358 0.69223
 C52 C 0.73525 0.80344 0.68520
 C53 C 0.71930 0.77719 0.70372
 C54 C 0.73492 0.75038 0.72274
 C55 C 0.76579 0.69714 0.75521
 C56 C 0.73520 0.69702 0.74768
 C57 C 0.71933 0.72332 0.72877
 C58 C 0.68823 0.72330 0.71591
 C59 C 0.67315 0.75001 0.70277
 C60 C 0.68815 0.77686 0.69687
 H61 H 0.77673 0.82429 0.66816
 H62 H 0.72426 0.82412 0.66113
 H63 H 0.77679 0.67611 0.76515
 H64 H 0.72415 0.67599 0.75638
 H65 H 0.85186 0.74992 0.75135
 H66 H 0.64930 0.74987 0.69415
 C67 C 0.18961 0.72270 0.88044
 C68 C 0.17538 0.74982 0.90260
 C69 C 0.18975 0.77688 0.88012
 C70 C 0.22046 0.77686 0.84574
 C71 C 0.23563 0.74970 0.82759
 C72 C 0.22032 0.72259 0.84629
 C73 C 0.23670 0.69627 0.84478
 C74 C 0.26671 0.69623 0.81244
 C75 C 0.28200 0.72260 0.78525
 C76 C 0.26653 0.74963 0.79714
 C77 C 0.23696 0.80313 0.84336
 C78 C 0.26696 0.80304 0.81059
 C79 C 0.28211 0.77660 0.78409
 C80 C 0.31277 0.77636 0.75315
 C81 C 0.32753 0.74951 0.73929
 C82 C 0.31267 0.72272 0.75471
 H83 H 0.22678 0.67531 0.87409
 H84 H 0.27796 0.67526 0.81369
 H85 H 0.22715 0.82414 0.87213
 H86 H 0.27830 0.82398 0.81123
 H87 H 0.15174 0.74988 0.92157
 H88 H 0.35100 0.74946 0.71462
 O89 O 0.97288 -0.02100 -0.19148
 O90 O 1.02961 0.03361 -0.08203
 O91 O 1.03014 -0.02137 -0.17308
 O92 O 0.97246 0.03412 -0.10143
 O93 O 0.96992 0.02118 0.16104
 O94 O 1.02753 -0.03427 0.08943
 O95 O 1.02716 0.02072 0.18055
 O96 O 0.97038 -0.03392 0.07104
 Cu97 Cu 1.00154 0.00777 -0.16293
 Cu98 Cu 0.99845 -0.00801 0.15141
 C99 C 0.96214 -0.03684 -0.07762
 C100 C 1.03791 0.03652 0.06652
 C101 C 1.03849 -0.03730 -0.05310
 C102 C 0.96157 0.03715 0.04129
 O103 O 0.52794 0.53428 0.41538
 O104 O 0.47091 0.47895 0.32267
 O105 O 0.47069 0.53385 0.41634
 O106 O 0.52819 0.47949 0.31966
 O107 O 0.52866 0.46577 0.58135
 O108 O 0.47123 0.52020 0.67817
 O109 O 0.47145 0.46531 0.58452
 O110 O 0.52854 0.52055 0.67703
 Cu111 Cu 0.49937 0.50814 0.34257
 Cu112 Cu 0.50003 0.49147 0.65628
 C113 C 0.53778 0.53687 0.56121
 C114 C 0.46166 0.46265 0.43864
 C115 C 0.46136 0.53635 0.56281
 C116 C 0.53802 0.46330 0.43490
 O117 O -0.02914 0.53470 0.10253
 O118 O 0.02791 0.47973 0.20180
 O119 O 0.02807 0.53462 0.10868
 O120 O -0.02941 0.47980 0.19756
 O121 O -0.02889 0.46638 -0.06447
 O122 O 0.02875 0.52124 -0.15336
 O123 O 0.02834 0.46635 -0.06025
 O124 O -0.02856 0.52129 -0.15950
 Cu125 Cu -0.00073 0.50869 0.17861
 Cu126 Cu -0.00006 0.49234 -0.13531
 C127 C -0.03834 0.53744 -0.04458
 C128 C 0.03769 0.46365 0.08647
 C129 C 0.03806 0.53730 -0.03631
 C130 C -0.03874 0.46367 0.08089
 O131 O 0.47046 1.03415 0.57144
 O132 O 0.52787 0.97946 0.66909
 O133 O 0.52771 1.03431 0.57428
 O134 O 0.47054 0.97932 0.66716
 O135 O 0.47070 0.96563 0.40554
 O136 O 0.52793 1.02062 0.31269
 O137 O 0.52792 0.96580 0.40745
 O138 O 0.47062 1.02044 0.30987
 Cu139 Cu 0.49912 1.00830 0.64645
 Cu140 Cu 0.49930 0.99163 0.33290
 C141 C 0.46096 1.03666 0.42481
 C142 C 0.53750 0.96328 0.55384
 C143 C 0.53740 1.03687 0.42855
 C144 C 0.46107 0.96306 0.55142
 C145 C 1.15742 0.14791 0.27200
 C146 C 1.13302 0.14716 0.16623
 C147 C 1.12682 0.17136 0.06552
 C148 C 1.14485 0.19623 0.07015
 C149 C 1.16980 0.19728 0.17433
 C150 C 1.17559 0.17279 0.27677
 C151 C 1.11402 0.12182 0.16003
 C152 C 1.09741 0.10121 0.14902
 C153 C 1.07724 0.07784 0.12875
 C154 C 1.05950 0.05857 0.10449
 H155 H 1.16222 0.12941 0.35199
 H156 H 1.10800 0.17102 -0.01705
 H157 H 1.13964 0.21438 -0.01158
 H158 H 1.19363 0.17321 0.36447
 C159 C 0.65552 0.65179 0.56144
 C160 C 0.63423 0.64612 0.68184
 C161 C 0.63128 0.66520 0.81630
 C162 C 0.64933 0.69003 0.82942
 C163 C 0.67061 0.69589 0.70859
 C164 C 0.67359 0.67660 0.57445
 C165 C 0.61449 0.62154 0.66322
 C166 C 0.59754 0.60137 0.64491
 C167 C 0.57720 0.57830 0.61993
 C168 C 0.55942 0.55908 0.59517
 H169 H 0.65782 0.63732 0.45617
 H170 H 0.61473 0.66114 0.90949
 H171 H 0.64654 0.70486 0.93266
 H172 H 0.68955 0.68108 0.47872
 C173 C -0.15672 0.34895 0.07832
 C174 C -0.13494 0.35422 0.19742
 C175 C -0.13136 0.33463 0.32943
 C176 C -0.14929 0.30970 0.34139
 C177 C -0.17107 0.30425 0.22187
 C178 C -0.17466 0.32404 0.09018
 C179 C -0.11533 0.37889 0.17955
 C180 C -0.09846 0.39912 0.16173
 C181 C -0.07820 0.42226 0.13744
 C182 C -0.06044 0.44149 0.11350
 H183 H -0.15949 0.36381 -0.02517
 H184 H -0.11443 0.33838 0.42154
 H185 H -0.14603 0.29449 0.44274
 H186 H -0.19101 0.31989 -0.00465
 C187 C 0.34269 0.84780 0.58037
 C188 C 0.36592 0.85352 0.68996
 C189 C 0.37125 0.83439 0.82212
 C190 C 0.35361 0.80951 0.84404
 C191 C 0.33035 0.80361 0.73437
 C192 C 0.32500 0.82290 0.60221
 C193 C 0.38508 0.87829 0.66340
 C194 C 0.40170 0.89855 0.64040
 C195 C 0.42179 0.92168 0.61198
 C196 C 0.43946 0.94089 0.58577
 H197 H 0.33851 0.86235 0.47699
 H198 H 0.38928 0.83850 0.90695
 H199 H 0.35817 0.79471 0.94577
 H200 H 0.30741 0.81843 0.51517
 C201 C -0.15241 0.65596 -0.05915
 C202 C -0.13350 0.64699 -0.18558
 C203 C -0.13268 0.66277 -0.33391
 C204 C -0.15054 0.68754 -0.35540
 C205 C -0.16949 0.69663 -0.22901
 C206 C -0.17027 0.68073 -0.08052
 C207 C -0.11410 0.62234 -0.16060
 C208 C -0.09742 0.60211 -0.13794
 C209 C -0.07737 0.57895 -0.10879
 C210 C -0.05980 0.55968 -0.08116
 H211 H -0.15304 0.64406 0.05660
 H212 H -0.11798 0.65616 -0.43204
 H213 H -0.14946 0.69977 -0.46992
 H214 H -0.18445 0.68774 0.01910
 C215 C 0.37496 1.16907 0.17862
 C216 C 0.36573 1.14596 0.27982
 C217 C 0.33857 1.14769 0.35986
 C218 C 0.32074 1.17253 0.33955
 C219 C 0.32970 1.19607 0.23752
 C220 C 0.35725 1.19394 0.15823
 C221 C 0.38484 1.12115 0.30683
 C222 C 0.40146 1.10091 0.33076
 C223 C 0.42159 1.07785 0.36079
 C224 C 0.43930 1.05872 0.38861
 H225 H 0.39603 1.16803 0.11668
 H226 H 0.33143 1.13012 0.44085
 H227 H 0.30052 1.17382 0.40960
 H228 H 0.36498 1.21134 0.07792
 C229 C 1.15612 -0.15079 -0.23667
 C230 C 1.13519 -0.14747 -0.11196
 C231 C 1.13267 -0.16892 0.01084
 C232 C 1.15090 -0.19364 0.00915
 C233 C 1.17241 -0.19719 -0.11441
 C234 C 1.17448 -0.17550 -0.23856
 C235 C 1.11572 -0.12251 -0.11066
 C236 C 1.09881 -0.10211 -0.10520
 C237 C 1.07837 -0.07884 -0.09332
 C238 C 1.06041 -0.05954 -0.07802
 H239 H 1.15796 -0.13451 -0.33376
 H240 H 1.11648 -0.16662 0.10778
 H241 H 1.14856 -0.20973 0.10689
 H242 H 1.18962 -0.17810 -0.34039
 C243 C 0.64956 0.34906 0.17264
 C244 C 0.63352 0.35356 0.31769
 C245 C 0.63548 0.33315 0.44673
 C246 C 0.65319 0.30822 0.43054
 C247 C 0.66923 0.30353 0.28537
 C248 C 0.66734 0.32409 0.15639
 C249 C 0.61430 0.37854 0.33350
 C250 C 0.59761 0.39892 0.35041
 C251 C 0.57745 0.42211 0.37475
 C252 C 0.55971 0.44129 0.39974
 H253 H 0.64808 0.36463 0.07175
 H254 H 0.62308 0.33636 0.55918
 H255 H 0.65429 0.29246 0.53069
 H256 H 0.67937 0.32060 0.04301
 C257 C 0.87516 -0.16911 -0.32454
 C258 C 0.86692 -0.14638 -0.21828
 C259 C 0.84059 -0.14851 -0.13005
 C260 C 0.82258 -0.17329 -0.14775
 C261 C 0.83047 -0.19633 -0.25550
 C262 C 0.85726 -0.19392 -0.34227
 C263 C 0.88620 -0.12158 -0.19458
 C264 C 0.90288 -0.10129 -0.17295
 C265 C 0.92300 -0.07814 -0.14454
 C266 C 0.94064 -0.05893 -0.11656
 H267 H 0.89560 -0.16778 -0.39268
 H268 H 0.83427 -0.13128 -0.04499
 H269 H 0.80306 -0.17492 -0.07192
 H270 H 0.86418 -0.21104 -0.42647
 C271 C 0.36650 0.33727 0.16009
 C272 C 0.36618 0.35284 0.30904
 C273 C 0.34776 0.34360 0.43731
 C274 C 0.32987 0.31880 0.41705
 C275 C 0.33016 0.30314 0.26789
 C276 C 0.34863 0.31248 0.13974
 C277 C 0.38560 0.37754 0.33240
 C278 C 0.40233 0.39781 0.35317
 C279 C 0.42246 0.42103 0.37961
 C280 C 0.44011 0.44035 0.40475
 H281 H 0.38082 0.34409 0.06056
 H282 H 0.34752 0.35533 0.55355
 H283 H 0.31604 0.31160 0.51789
 H284 H 0.34932 0.30043 0.02464
 C285 C 0.15575 0.65040 -0.23537
 C286 C 0.13475 0.64720 -0.11091
 C287 C 0.13221 0.66872 0.01116
 C288 C 0.15051 0.69340 0.00911
 C289 C 0.17212 0.69685 -0.11403
 C290 C 0.17419 0.67508 -0.23763
 C291 C 0.11528 0.62220 -0.10851
 C292 C 0.09837 0.60180 -0.10122
 C293 C 0.07792 0.57858 -0.08612
 C294 C 0.05996 0.55936 -0.06708
 H295 H 0.15762 0.63404 -0.33179
 H296 H 0.11597 0.66649 0.10797
 H297 H 0.14816 0.70955 0.10637
 H298 H 0.18940 0.67760 -0.33924
 C299 C 0.65936 1.14864 0.38830
 C300 C 0.63284 1.14655 0.30071
 C301 C 0.62433 1.16931 0.19483
 C302 C 0.64218 1.19413 0.17661
 C303 C 0.66918 1.19649 0.26248
 C304 C 0.67731 1.17344 0.37017
 C305 C 0.61367 1.12168 0.32397
 C306 C 0.59700 1.10136 0.34429
 C307 C 0.57683 1.07821 0.37006
 C308 C 0.55908 1.05899 0.39479
 H309 H 0.66589 1.13137 0.47300
 H310 H 0.60374 1.16800 0.12722
 H311 H 0.63507 1.21128 0.09261
 H312 H 0.69702 1.17506 0.44532
 C313 C 0.15513 0.34931 0.06623
 C314 C 0.13455 0.35453 0.19108
 C315 C 0.13218 0.33484 0.32330
 C316 C 0.15007 0.30984 0.32974
 C317 C 0.17058 0.30441 0.20434
 C318 C 0.17304 0.32432 0.07260
 C319 C 0.11483 0.37921 0.17886
 C320 C 0.09780 0.39940 0.16519
 C321 C 0.07733 0.42246 0.14424
 C322 C 0.05943 0.44161 0.12119
 H323 H 0.15697 0.36426 -0.03736
 H324 H 0.11617 0.33854 0.41979
 H325 H 0.14772 0.29453 0.43128
 H326 H 0.18847 0.32021 -0.02628
 C327 C 0.63427 0.83299 0.53021
 C328 C 0.63397 0.85379 0.65745
 C329 C 0.65200 0.84982 0.79631
 C330 C 0.67008 0.82498 0.80831
 C331 C 0.67032 0.80400 0.68119
 C332 C 0.65229 0.80817 0.54216
 C333 C 0.61449 0.87869 0.64621
 C334 C 0.59759 0.89900 0.63274
 C335 C 0.57720 0.92213 0.61167
 C336 C 0.55930 0.94128 0.58847
 H337 H 0.62035 0.83580 0.42249
 H338 H 0.65183 0.86571 0.89579
 H339 H 0.68361 0.82189 0.91728
 H340 H 0.65208 0.79211 0.44352
 C341 C 0.86506 0.16211 0.29794
 C342 C 0.86522 0.14671 0.14843
 C343 C 0.84715 0.15602 0.01797
 C344 C 0.82916 0.18076 0.03665
 C345 C 0.82903 0.19627 0.18627
 C346 C 0.84711 0.18683 0.31667
 C347 C 0.88475 0.12209 0.12722
 C348 C 0.90162 0.10189 0.10937
 C349 C 0.92194 0.07876 0.08760
 C350 C 0.93978 0.05947 0.06759
 H351 H 0.87908 0.15521 0.39925
 H352 H 0.84725 0.14440 -0.09861
 H353 H 0.81560 0.18803 -0.06571
 H354 H 0.84742 0.19875 0.43229
 C355 C 0.37083 0.66466 0.82957
 C356 C 0.36574 0.64544 0.69765
 C357 C 0.34274 0.65110 0.58638
 C358 C 0.32505 0.67602 0.60631
 C359 C 0.33018 0.69541 0.73813
 C360 C 0.35318 0.68956 0.84954
 C361 C 0.38496 0.62069 0.67296
 C362 C 0.40166 0.60047 0.65139
 C363 C 0.42186 0.57742 0.62411
 C364 C 0.43963 0.55832 0.59805
 H365 H 0.38868 0.66060 0.91565
 H366 H 0.33877 0.63650 0.48309
 H367 H 0.30765 0.68045 0.51800
 H368 H 0.35757 0.70443 0.95107
   
