data_POSCAR
  _audit_creation_date              2014-09-24
  _audit_creation_method            'ToBaCCo'
  _symmetry_space_group_name_H-M    'P1'
  _symmetry_Int_Tables_number       1
  _symmetry_cell_setting            triclinic
  loop_
  _symmetry_equiv_pos_as_xyz
 x,y,z
_cell_length_a 17.6960
_cell_length_b 18.5578
_cell_length_c 34.5676
_cell_angle_alpha 99.070300
_cell_angle_beta 86.237700
_cell_angle_gamma 119.853300
loop_
  _atom_site_label
  _atom_site_type_symbol
  _atom_site_fract_x
  _atom_site_fract_y
  _atom_site_fract_z
C1 C 0.11975 0.09531 0.56847
 H2 H 0.17483 0.08479 0.56711
 C3 C 0.11921 0.15784 0.59628
 H4 H 0.17451 0.19479 0.61608
 C5 C -0.01562 0.06249 0.54178
 H6 H -0.06646 0.02652 0.51968
 C7 C -0.01863 0.12525 0.56921
 H8 H -0.07326 0.13596 0.56850
 N9 N 0.05369 0.04980 0.54178
 C10 C 0.12440 -0.14252 0.50446
 H11 H 0.14746 -0.13032 0.47515
 C12 C 0.12233 -0.20940 0.51917
 H13 H 0.14546 -0.24755 0.50120
 C14 C 0.06021 -0.11138 0.56236
 H15 H 0.03301 -0.07505 0.57852
 C16 C 0.05581 -0.17822 0.57794
 H17 H 0.02809 -0.19068 0.60662
 Zn18 Zn 0.07851 -0.01798 0.50276
 N19 N 0.09392 -0.09494 0.52620
 C20 C 0.25824 0.06522 0.47763
 N21 N 0.17861 0.05967 0.47866
 C22 C 0.16519 0.11592 0.46373
 C23 C 0.23271 0.18050 0.44639
 C24 C 0.32822 0.12937 0.46040
 C25 C -0.09015 -0.14093 0.47508
 C26 C -0.14926 -0.20363 0.44698
 C27 C -0.04241 -0.14554 0.39718
 C28 C 0.01410 -0.08395 0.42612
 N29 N -0.00976 -0.08359 0.46429
 H30 H 0.26780 0.02079 0.49043
 H31 H 0.10140 0.11066 0.46560
 H32 H 0.21986 0.22470 0.43526
 H33 H 0.39093 0.13239 0.45944
 H34 H -0.10659 -0.14073 0.50578
 H35 H -0.21140 -0.24978 0.45696
 H36 H -0.01977 -0.14371 0.36739
 H37 H 0.07912 -0.03952 0.41812
 C38 C 0.08641 -0.22859 0.55611
 C39 C 0.05031 0.17473 0.59654
 C40 C -0.12479 -0.20861 0.40734
 C41 C 0.31570 0.18811 0.44450
 C42 C 1.07801 0.07745 0.12587
 H43 H 1.08733 0.13578 0.14260
 C44 C 1.13788 0.07869 0.09716
 H45 H 1.19255 0.13820 0.09155
 C46 C 0.99776 -0.07117 0.11409
 H47 H 0.94516 -0.12967 0.12158
 C48 C 1.05487 -0.07267 0.08448
 H49 H 1.04493 -0.13254 0.06941
 N50 N 1.00999 0.00324 0.13407
 C51 C 0.78481 0.01083 0.18386
 H52 H 0.77574 -0.02162 0.20861
 C53 C 0.71409 0.01218 0.16909
 H54 H 0.65089 -0.01948 0.18247
 C55 C 0.87544 0.08357 0.13370
 H56 H 0.93703 0.10744 0.11881
 C57 C 0.80693 0.08860 0.11866
 H58 H 0.81651 0.11635 0.09219
 Zn59 Zn 0.94108 0.00836 0.17795
 N60 N 0.86242 0.04286 0.16507
 C61 C 1.01462 0.15140 0.23731
 N62 N 1.02008 0.08424 0.21833
 C63 C 1.08743 0.07213 0.22525
 C64 C 1.15431 0.13009 0.25147
 C65 C 1.07966 0.21045 0.26428
 C66 C 0.80846 -0.16038 0.16916
 C67 C 0.74930 -0.23730 0.18118
 C68 C 0.81910 -0.18515 0.24509
 C69 C 0.87791 -0.10964 0.23165
 N70 N 0.87155 -0.09862 0.19425
 H71 H 0.96091 0.16008 0.23091
 H72 H 1.09029 0.01838 0.20944
 H73 H 1.20802 0.11995 0.25613
 H74 H 1.07538 0.26457 0.27847
 H75 H 0.80267 -0.14897 0.14005
 H76 H 0.69915 -0.28540 0.16089
 H77 H 0.82504 -0.19283 0.27495
 H78 H 0.92702 -0.05912 0.25146
 C79 C 0.72424 0.04922 0.13547
 C80 C 1.12669 0.00287 0.07618
 C81 C 0.75367 -0.24995 0.21970
 C82 C 1.15133 0.20072 0.27111
 C83 C 0.09193 0.95983 0.83959
 H84 H 0.04295 0.90143 0.82377
 C85 C 0.16295 0.96215 0.85580
 H86 H 0.16830 0.90579 0.85161
 C87 C 0.14135 1.10192 0.86638
 H88 H 0.13205 1.15590 0.87067
 C89 C 0.21290 1.10631 0.88414
 H90 H 0.25905 1.16405 0.90170
 N91 N 0.08288 1.02931 0.84435
 C92 C -0.18287 0.98369 0.85283
 H93 H -0.19979 0.97923 0.82270
 C94 C -0.23760 0.98848 0.88294
 H95 H -0.29681 0.98643 0.87502
 C96 C -0.08104 0.99869 0.89896
 H97 H -0.01914 1.00437 0.90520
 C98 C -0.13273 1.00544 0.92993
 H99 H -0.11010 1.01352 0.95943
 Zn100 Zn -0.02080 1.01311 0.82194
 N101 N -0.10516 0.99133 0.86140
 C102 C -0.13210 0.84926 0.78077
 N103 N -0.05539 0.92225 0.78050
 C104 C 0.00640 0.92933 0.75337
 C105 C -0.00528 0.85985 0.72663
 C106 C -0.14724 0.77849 0.75391
 C107 C 0.00378 1.17554 0.82998
 C108 C 0.00134 1.24321 0.81851
 C109 C -0.01951 1.17487 0.75149
 C110 C -0.01722 1.10826 0.76429
 N111 N -0.00572 1.10969 0.80298
 H112 H -0.17957 0.84456 0.80301
 H113 H 0.06735 0.98781 0.75424
 H114 H 0.04615 0.86553 0.70639
 H115 H -0.20690 0.71977 0.75556
 H116 H 0.00931 1.17378 0.86075
 H117 H 0.00662 1.29352 0.84077
 H118 H -0.02836 1.17213 0.72052
 H119 H -0.02724 1.05447 0.74334
 C120 C -0.21072 1.00398 0.92234
 C121 C 0.22440 1.03582 0.87836
 C122 C -0.01131 1.24317 0.77882
 C123 C -0.08201 0.78290 0.72735
 C124 C 0.44019 0.05193 -0.02762
 C125 C 0.40604 0.04871 0.01058
 C126 C 0.45690 0.05546 0.04195
 C127 C 0.53727 0.05753 0.03586
 C128 C 0.57038 0.05732 -0.00288
 C129 C 0.52231 0.05842 -0.03342
 H130 H 0.54840 0.06299 -0.06271
 H131 H 0.42920 0.04942 0.07100
 C132 C 0.01371 0.41949 0.65803
 C133 C -0.01744 0.43791 0.69485
 C134 C -0.04233 0.49956 0.69971
 C135 C -0.03107 0.54712 0.66983
 C136 C 0.00997 0.53561 0.63461
 C137 C 0.02624 0.46788 0.62848
 H138 H 0.05272 0.45442 0.60091
 H139 H -0.07037 0.51113 0.72724
 C140 C 0.57825 0.52213 0.30293
 C141 C 0.62132 0.54313 0.33973
 C142 C 0.57803 0.49258 0.36913
 C143 C 0.49443 0.42202 0.36310
 C144 C 0.44847 0.40815 0.32823
 C145 C 0.49200 0.45594 0.29818
 H146 H 0.45664 0.44401 0.27130
 H147 H 0.61190 0.50575 0.39657
 N148 N 0.09782 0.35055 0.67150
 N149 N 0.10596 0.28517 0.65584
 C150 C 0.05379 0.24665 0.62369
 C151 C 0.01042 0.28968 0.61890
 C152 C 0.03966 0.35446 0.64998
 H153 H -0.03472 0.27706 0.59577
 H154 H 0.13208 0.39189 0.69634
 H155 H 0.14676 0.26795 0.66736
 N156 N 0.61181 0.53461 0.23219
 N157 N 0.65698 0.59413 0.21015
 C158 C 0.69115 0.66932 0.23311
 C159 C 0.66460 0.65703 0.27128
 C160 C 0.61647 0.57049 0.26966
 H161 H 0.68086 0.70425 0.29687
 H162 H 0.58115 0.47035 0.22185
 H163 H 0.66718 0.58275 0.18024
 N164 N 0.39203 -0.00403 -0.09722
 N165 N 0.33656 -0.00740 -0.12204
 C166 C 0.29882 0.03651 -0.10442
 C167 C 0.33239 0.07011 -0.06661
 C168 C 0.39053 0.04154 -0.06301
 H169 H 0.31344 0.10581 -0.04433
 H170 H 0.42734 -0.03575 -0.10330
 H171 H 0.32342 -0.04121 -0.15026
 N172 N 0.11633 0.60888 0.58368
 N173 N 0.13691 0.67036 0.56322
 C174 C 0.08060 0.69914 0.57168
 C175 C 0.02071 0.65305 0.59843
 C176 C 0.04576 0.59621 0.60562
 H177 H -0.03326 0.66055 0.61040
 H178 H 0.15317 0.57907 0.58367
 H179 H 0.19091 0.69402 0.54506
 N180 N 0.29513 0.37100 0.34257
 N181 N 0.21692 0.31796 0.32710
 C182 C 0.22403 0.26511 0.29745
 C183 C 0.31093 0.28558 0.29407
 C184 C 0.35354 0.35250 0.32351
 H185 H 0.33994 0.25912 0.27194
 H186 H 0.30857 0.42079 0.36501
 H187 H 0.16029 0.31932 0.33647
 N188 N 0.71585 0.07901 0.01030
 N189 N 0.77614 0.06125 -0.01056
 C190 C 0.74294 0.02312 -0.04682
 C191 C 0.66068 0.01466 -0.04927
 C192 C 0.64529 0.04953 -0.01290
 H193 H 0.61660 -0.01438 -0.07427
 H194 H 0.73266 0.12287 0.03542
 H195 H 0.83914 0.08332 -0.00028
 N196 N 0.24612 -0.04381 -0.00222
 N197 N 0.17265 -0.05686 0.01530
 C198 C 0.19132 0.00200 0.04701
 C199 C 0.28087 0.05501 0.04972
 C200 C 0.31330 0.02379 0.01787
 H201 H 0.31760 0.10571 0.07289
 H202 H 0.25010 -0.08331 -0.02638
 H203 H 0.11118 -0.10663 0.00606
 N204 N 0.77205 0.63777 0.32271
 N205 N 0.84331 0.70891 0.34172
 C206 C 0.82023 0.72421 0.37889
 C207 C 0.73462 0.66255 0.38412
 C208 C 0.70600 0.61139 0.34818
 H209 H 0.69555 0.65748 0.41002
 H210 H 0.77357 0.60846 0.29452
 H211 H 0.90356 0.74096 0.32860
 N212 N 0.01400 0.44198 0.76459
 N213 N 0.01733 0.39160 0.78667
 C214 C -0.01509 0.31401 0.76596
 C215 C -0.04224 0.31518 0.72941
 C216 C -0.02011 0.39804 0.72926
 H217 H -0.06913 0.26431 0.70529
 H218 H 0.04026 0.50664 0.77279
 H219 H 0.04622 0.41203 0.81453
 N220 N 0.53400 -0.04472 0.07522
 N221 N 0.58092 -0.04636 0.10286
 C222 C 0.64656 0.03214 0.11388
 C223 C 0.63912 0.08674 0.09327
 C224 C 0.56872 0.03477 0.06801
 H225 H 0.68304 0.15347 0.09419
 H226 H 0.48175 -0.09786 0.06018
 H227 H 0.57201 -0.10133 0.11171
 N228 N 0.51893 0.34661 0.41066
 N229 N 0.47325 0.28487 0.43148
 C230 C 0.38796 0.25717 0.42611
 C231 C 0.37950 0.30378 0.40072
 C232 C 0.46415 0.36015 0.39137
 H233 H 0.31942 0.29628 0.39068
 H234 H 0.58679 0.37710 0.40901
 H235 H 0.50091 0.26292 0.44904
 N236 N -0.15244 0.57817 0.67313
 N237 N -0.16688 0.63971 0.68899
 C238 C -0.09071 0.70633 0.70290
 C239 C -0.02482 0.68620 0.69548
 C240 C -0.06691 0.60440 0.67653
 H241 H 0.04246 0.72305 0.70539
 H242 H -0.20109 0.51789 0.66191
 H243 H -0.22836 0.63482 0.69133
   
