data_POSCAR
  _audit_creation_date              2014-09-24
  _audit_creation_method            'ToBaCCo'
  _symmetry_space_group_name_H-M    'P1'
  _symmetry_Int_Tables_number       1
  _symmetry_cell_setting            triclinic
  loop_
  _symmetry_equiv_pos_as_xyz
 x,y,z
_cell_length_a 48.9303
_cell_length_b 49.3417
_cell_length_c 49.9209
_cell_angle_alpha 88.883400
_cell_angle_beta 91.016100
_cell_angle_gamma 88.985400
loop_
  _atom_site_label
  _atom_site_type_symbol
  _atom_site_fract_x
  _atom_site_fract_y
  _atom_site_fract_z
C1 C 0.25179 0.27230 0.22699
 C2 C 0.27208 0.27253 0.20751
 C3 C 0.29253 0.25214 0.20737
 C4 C 0.29249 0.23139 0.22710
 C5 C 0.27233 0.23090 0.24674
 C6 C 0.25189 0.25142 0.24670
 C7 C 0.23135 0.29258 0.22702
 C8 C 0.21092 0.29233 0.24649
 C9 C 0.21121 0.27149 0.26613
 C10 C 0.23151 0.25104 0.26634
 C11 C 0.23171 0.23019 0.28585
 C12 C 0.25201 0.20963 0.28603
 C13 C 0.27226 0.21017 0.26638
 H14 H 0.27171 0.28838 0.19215
 H15 H 0.30836 0.21578 0.22737
 H16 H 0.23152 0.30877 0.21203
 H17 H 0.19534 0.27093 0.28100
 H18 H 0.21624 0.23015 0.30112
 H19 H 0.28777 0.19422 0.26613
 C20 C 0.75176 -0.25515 0.23878
 C21 C 0.73251 -0.25418 0.21758
 C22 C 0.71349 -0.23237 0.21441
 C23 C 0.71476 -0.21117 0.23307
 C24 C 0.73380 -0.21200 0.25443
 C25 C 0.75217 -0.23424 0.25747
 C26 C 0.77063 -0.27684 0.24144
 C27 C 0.79004 -0.27830 0.26280
 C28 C 0.78955 -0.25741 0.28182
 C29 C 0.77093 -0.23553 0.27924
 C30 C 0.77102 -0.21470 0.29798
 C31 C 0.75299 -0.19239 0.29487
 C32 C 0.73454 -0.19104 0.27303
 H33 H 0.73327 -0.27014 0.20303
 H34 H 0.70012 -0.19448 0.23205
 H35 H 0.76930 -0.29306 0.22721
 H36 H 0.80451 -0.25715 0.29803
 H37 H 0.78533 -0.21557 0.31483
 H38 H 0.72052 -0.17384 0.27083
 C39 C 0.75324 0.27038 0.77813
 C40 C 0.73211 0.27029 0.79674
 C41 C 0.71144 0.25062 0.79601
 C42 C 0.71277 0.23080 0.77595
 C43 C 0.73372 0.23082 0.75708
 C44 C 0.75399 0.25073 0.75815
 C45 C 0.77362 0.28997 0.77934
 C46 C 0.79496 0.29061 0.76062
 C47 C 0.79516 0.27084 0.74047
 C48 C 0.77500 0.25100 0.73922
 C49 C 0.77564 0.23132 0.71932
 C50 C 0.75553 0.21134 0.71804
 C51 C 0.73462 0.21127 0.73703
 H52 H 0.73268 0.28505 0.81249
 H53 H 0.69693 0.21590 0.77402
 H54 H 0.77193 0.30542 0.79435
 H55 H 0.81161 0.26991 0.72629
 H56 H 0.79161 0.23179 0.70455
 H57 H 0.71922 0.19576 0.73642
 C58 C 0.25639 -0.27577 0.76534
 C59 C 0.27679 -0.27641 0.78546
 C60 C 0.29734 -0.25683 0.78584
 C61 C 0.29721 -0.23638 0.76580
 C62 C 0.27698 -0.23552 0.74551
 C63 C 0.25654 -0.25535 0.74525
 C64 C 0.23598 -0.29539 0.76500
 C65 C 0.21547 -0.29523 0.74464
 C66 C 0.21605 -0.27455 0.72465
 C67 C 0.23626 -0.25475 0.72487
 C68 C 0.23641 -0.23428 0.70498
 C69 C 0.25660 -0.21436 0.70510
 C70 C 0.27688 -0.21518 0.72546
 H71 H 0.27649 -0.29198 0.80106
 H72 H 0.31312 -0.22138 0.76575
 H73 H 0.23703 -0.31142 0.78011
 H74 H 0.20015 -0.27289 0.70933
 H75 H 0.22098 -0.23410 0.68912
 H76 H 0.29237 -0.19975 0.72591
 C77 C 0.75078 -0.27207 0.76796
 C78 C 0.73198 -0.27298 0.78886
 C79 C 0.71087 -0.25337 0.79033
 C80 C 0.70877 -0.23268 0.77060
 C81 C 0.72738 -0.23155 0.74958
 C82 C 0.74843 -0.25136 0.74821
 C83 C 0.77178 -0.29168 0.76653
 C84 C 0.79078 -0.29119 0.74548
 C85 C 0.78797 -0.27024 0.72580
 C86 C 0.76712 -0.25044 0.72709
 C87 C 0.76476 -0.22962 0.70757
 C88 C 0.74387 -0.20975 0.70883
 C89 C 0.72523 -0.21092 0.72992
 H90 H 0.73398 -0.28877 0.80420
 H91 H 0.69236 -0.21768 0.77135
 H92 H 0.77235 -0.30794 0.78139
 H93 H 0.80264 -0.26837 0.70993
 H94 H 0.77898 -0.22908 0.69118
 H95 H 0.70929 -0.19550 0.73125
 C96 C 0.25204 0.25748 0.76089
 C97 C 0.27117 0.25498 0.78208
 C98 C 0.29061 0.23361 0.78296
 C99 C 0.29070 0.21465 0.76229
 C100 C 0.27169 0.21690 0.74097
 C101 C 0.25227 0.23838 0.74024
 C102 C 0.23267 0.27878 0.76003
 C103 C 0.21342 0.28128 0.73882
 C104 C 0.21380 0.26215 0.71830
 C105 C 0.23307 0.24075 0.71887
 C106 C 0.23340 0.22164 0.69844
 C107 C 0.25270 0.20016 0.69903
 C108 C 0.27180 0.19798 0.72038
 H109 H 0.27071 0.26948 0.79810
 H110 H 0.30585 0.19835 0.76258
 H111 H 0.23279 0.29364 0.77575
 H112 H 0.19881 0.26368 0.70206
 H113 H 0.21882 0.22366 0.68189
 H114 H 0.28650 0.18127 0.72119
 C115 C 0.25086 -0.26712 0.22076
 C116 C 0.27065 -0.26548 0.20076
 C117 C 0.29048 -0.24493 0.20088
 C118 C 0.28990 -0.22610 0.22186
 C119 C 0.27041 -0.22768 0.24203
 C120 C 0.25083 -0.24824 0.24151
 C121 C 0.23111 -0.28744 0.22025
 C122 C 0.21120 -0.28949 0.24038
 C123 C 0.21170 -0.27032 0.26110
 C124 C 0.23123 -0.24990 0.26177
 C125 C 0.23135 -0.23100 0.28243
 C126 C 0.25093 -0.21050 0.28318
 C127 C 0.27038 -0.20900 0.26285
 H128 H 0.26968 -0.27970 0.18456
 H129 H 0.30534 -0.21076 0.22346
 H130 H 0.23222 -0.30227 0.20460
 H131 H 0.19622 -0.27031 0.27631
 H132 H 0.21647 -0.23251 0.29819
 H133 H 0.28528 -0.19300 0.26303
 C134 C 0.75159 0.27389 0.22731
 C135 C 0.73140 0.27277 0.20707
 C136 C 0.71132 0.25274 0.20779
 C137 C 0.71175 0.23357 0.22902
 C138 C 0.73177 0.23447 0.24942
 C139 C 0.75171 0.25478 0.24862
 C140 C 0.77149 0.29400 0.22658
 C141 C 0.79177 0.29564 0.24701
 C142 C 0.79146 0.27626 0.26828
 C143 C 0.77175 0.25597 0.26915
 C144 C 0.77187 0.23673 0.29023
 C145 C 0.75217 0.21631 0.29112
 C146 C 0.73214 0.21540 0.27062
 H147 H 0.73148 0.28737 0.19056
 H148 H 0.69618 0.21824 0.22992
 H149 H 0.77018 0.30903 0.21050
 H150 H 0.80720 0.27601 0.28379
 H151 H 0.78713 0.23783 0.30615
 H152 H 0.71708 0.19956 0.27094
 O153 O 0.25553 0.02046 0.46543
 O154 O 0.25632 -0.03242 0.51846
 O155 O 0.25545 -0.03236 0.46625
 O156 O 0.25578 0.02032 0.51753
 O157 O 0.21069 0.02093 0.51710
 O158 O 0.21036 -0.03171 0.46596
 O159 O 0.21123 -0.03178 0.51820
 O160 O 0.21045 0.02107 0.46498
 Cu161 Cu 0.26029 -0.00609 0.49193
 Cu162 Cu 0.20616 -0.00534 0.49151
 C163 C 0.23289 0.02988 0.45615
 C164 C 0.23393 -0.04109 0.52751
 C165 C 0.23282 -0.04104 0.45730
 C166 C 0.23326 0.02964 0.52610
 O167 O 0.71937 0.03502 0.53196
 O168 O 0.72005 -0.01766 0.48090
 O169 O 0.72243 -0.01773 0.53273
 O170 O 0.71791 0.03533 0.47967
 O171 O 0.76291 0.03710 0.47943
 O172 O 0.76743 -0.01670 0.53132
 O173 O 0.76502 -0.01551 0.47909
 O174 O 0.76440 0.03605 0.53168
 Cu175 Cu 0.71542 0.00868 0.50637
 Cu176 Cu 0.76945 0.01041 0.50531
 C177 C 0.74172 0.04439 0.54078
 C178 C 0.74260 -0.02559 0.47126
 C179 C 0.74576 -0.02644 0.54094
 C180 C 0.73970 0.04532 0.47049
 O181 O 0.47300 0.25655 0.02422
 O182 O 0.52561 0.25601 -0.02776
 O183 O 0.47249 0.25832 -0.02797
 O184 O 0.52613 0.25540 0.02436
 O185 O 0.52573 0.21071 0.02432
 O186 O 0.47162 0.21365 -0.02822
 O187 O 0.52480 0.21133 -0.02793
 O188 O 0.47244 0.21187 0.02401
 Cu189 Cu 0.49936 0.26103 -0.00177
 Cu190 Cu 0.49857 0.20741 -0.00195
 C191 C 0.46374 0.23425 0.03305
 C192 C 0.53418 0.23354 -0.03677
 C193 C 0.46288 0.23657 -0.03714
 C194 C 0.53516 0.23265 0.03333
 O195 O 0.53264 0.72975 0.02702
 O196 O 0.48023 0.73174 -0.02703
 O197 O 0.53332 0.73242 -0.02515
 O198 O 0.47934 0.72818 0.02499
 O199 O 0.47756 0.77280 0.02681
 O200 O 0.53159 0.77705 -0.02355
 O201 O 0.47845 0.77636 -0.02523
 O202 O 0.53081 0.77438 0.02860
 Cu203 Cu 0.50659 0.72605 -0.00016
 Cu204 Cu 0.50444 0.77961 0.00187
 C205 C 0.54075 0.75177 0.03702
 C206 C 0.47037 0.75443 -0.03539
 C207 C 0.54163 0.75541 -0.03305
 C208 C 0.46910 0.74974 0.03441
 O209 O 0.02591 0.47948 0.28264
 O210 O -0.02780 0.53288 0.27985
 O211 O -0.02727 0.48004 0.28207
 O212 O 0.02548 0.53222 0.28075
 O213 O 0.02549 0.53135 0.23660
 O214 O -0.02756 0.47920 0.23791
 O215 O -0.02784 0.53198 0.23570
 O216 O 0.02561 0.47860 0.23848
 Cu217 Cu -0.00093 0.50627 0.28575
 Cu218 Cu -0.00111 0.50523 0.23275
 C219 C 0.03492 0.46987 0.26100
 C220 C -0.03703 0.54156 0.25726
 C221 C -0.03642 0.47062 0.26024
 C222 C 0.03462 0.54066 0.25850
 O223 O 0.03178 0.52515 0.73546
 O224 O -0.02102 0.47319 0.73204
 O225 O -0.02148 0.52592 0.73449
 O226 O 0.03213 0.47242 0.73375
 O227 O 0.03156 0.46976 0.77790
 O228 O -0.02158 0.52327 0.77864
 O229 O -0.02155 0.47065 0.77619
 O230 O 0.03169 0.52246 0.77961
 Cu231 Cu 0.00538 0.49946 0.72951
 Cu232 Cu 0.00500 0.49630 0.78250
 C233 C 0.04086 0.53267 0.75806
 C234 C -0.03032 0.46297 0.75350
 C235 C -0.03071 0.53374 0.75675
 C236 C 0.04094 0.46186 0.75575
 C237 C 0.32578 0.27695 0.17844
 C238 C 0.34560 0.27726 0.15862
 C239 C 0.35387 0.25320 0.14654
 C240 C 0.34207 0.22864 0.15456
 C241 C 0.32223 0.22830 0.17436
 C242 C 0.31382 0.25246 0.18651
 N243 N 0.37413 0.25426 0.12619
 N244 N 0.38279 0.23304 0.11471
 C245 C 0.40298 0.23396 0.09429
 C246 C 0.41191 0.20966 0.08313
 C247 C 0.43163 0.20973 0.06322
 C248 C 0.44274 0.23425 0.05405
 C249 C 0.43366 0.25867 0.06526
 C250 C 0.41396 0.25855 0.08523
 H251 H 0.32001 0.29585 0.18766
 H252 H 0.35460 0.29630 0.15267
 H253 H 0.34806 0.20976 0.14546
 H254 H 0.31315 0.20917 0.17988
 H255 H 0.40358 0.19059 0.08994
 H256 H 0.43814 0.19057 0.05502
 H257 H 0.44181 0.27789 0.05866
 H258 H 0.40735 0.27762 0.09354
 C259 C 0.68204 0.79281 0.18305
 C260 C 0.66220 0.79313 0.16255
 C261 C 0.65318 0.76897 0.15163
 C262 C 0.66438 0.74427 0.16135
 C263 C 0.68427 0.74381 0.18181
 C264 C 0.69354 0.76810 0.19325
 N265 N 0.63259 0.77011 0.13084
 N266 N 0.62329 0.74886 0.12015
 C267 C 0.60263 0.75007 0.09942
 C268 C 0.59343 0.72590 0.08851
 C269 C 0.57329 0.72637 0.06826
 C270 C 0.56198 0.75115 0.05857
 C271 C 0.57127 0.77541 0.06961
 C272 C 0.59141 0.77489 0.08984
 H273 H 0.68892 0.81219 0.19002
 H274 H 0.65389 0.81235 0.15503
 H275 H 0.65756 0.72525 0.15336
 H276 H 0.69130 0.72415 0.18929
 H277 H 0.60191 0.70664 0.09573
 H278 H 0.56660 0.70733 0.06019
 H279 H 0.56301 0.79484 0.06261
 H280 H 0.59817 0.79387 0.09796
 C281 C 0.68169 0.27517 -0.17274
 C282 C 0.66108 0.27533 -0.15375
 C283 C 0.64826 0.25138 -0.14631
 C284 C 0.65602 0.22706 -0.15840
 C285 C 0.67655 0.22679 -0.17755
 C286 C 0.69006 0.25084 -0.18500
 N287 N 0.62763 0.25235 -0.12633
 N288 N 0.61582 0.23120 -0.11777
 C289 C 0.59532 0.23234 -0.09765
 C290 C 0.58380 0.20819 -0.08855
 C291 C 0.56395 0.20855 -0.06876
 C292 C 0.55520 0.23319 -0.05775
 C293 C 0.56675 0.25745 -0.06702
 C294 C 0.58666 0.25704 -0.08677
 H295 H 0.69020 0.29449 -0.17836
 H296 H 0.65505 0.29428 -0.14478
 H297 H 0.64645 0.20820 -0.15286
 H298 H 0.68250 0.20735 -0.18543
 H299 H 0.59030 0.18903 -0.09677
 H300 H 0.55545 0.18950 -0.06210
 H301 H 0.56047 0.27676 -0.05897
 H302 H 0.59526 0.27601 -0.09349
 C303 C 0.33089 0.71728 -0.18435
 C304 C 0.35101 0.71631 -0.16411
 C305 C 0.35955 0.74012 -0.15199
 C306 C 0.34775 0.76510 -0.16043
 C307 C 0.32762 0.76610 -0.18068
 C308 C 0.31891 0.74219 -0.19283
 N309 N 0.38007 0.73833 -0.13117
 N310 N 0.38883 0.75919 -0.11939
 C311 C 0.40927 0.75743 -0.09849
 C312 C 0.41808 0.78130 -0.08669
 C313 C 0.43794 0.78036 -0.06620
 C314 C 0.44934 0.75539 -0.05712
 C315 C 0.44044 0.73142 -0.06902
 C316 C 0.42059 0.73241 -0.08954
 H317 H 0.32490 0.69855 -0.19356
 H318 H 0.36001 0.69695 -0.15784
 H319 H 0.35396 0.78379 -0.15131
 H320 H 0.31855 0.78555 -0.18654
 H321 H 0.40951 0.80070 -0.09340
 H322 H 0.44432 0.79919 -0.05747
 H323 H 0.44881 0.71187 -0.06250
 H324 H 0.41409 0.71366 -0.09835
 C325 C 0.17709 0.32293 0.22182
 C326 C 0.15674 0.34316 0.22149
 C327 C 0.14810 0.35458 0.24539
 C328 C 0.16005 0.34550 0.26983
 C329 C 0.18043 0.32526 0.27020
 C330 C 0.18921 0.31376 0.24618
 N331 N 0.12726 0.37534 0.24422
 N332 N 0.11813 0.38648 0.26511
 C333 C 0.09732 0.40729 0.26365
 C334 C 0.08784 0.41843 0.28739
 C335 C 0.06755 0.43877 0.28662
 C336 C 0.05642 0.44834 0.26196
 C337 C 0.06603 0.43711 0.23814
 C338 C 0.08627 0.41676 0.23896
 H339 H 0.18312 0.31422 0.20304
 H340 H 0.14762 0.34994 0.20255
 H341 H 0.15376 0.35410 0.28857
 H342 H 0.18960 0.31887 0.28924
 H343 H 0.09620 0.41131 0.30654
 H344 H 0.06061 0.44700 0.30531
 H345 H 0.05789 0.44400 0.21883
 H346 H 0.09327 0.40849 0.22031
 C347 C 0.18193 0.67736 0.71996
 C348 C 0.16173 0.65773 0.71959
 C349 C 0.15375 0.64493 0.74329
 C350 C 0.16634 0.65188 0.76759
 C351 C 0.18667 0.67143 0.76808
 C352 C 0.19491 0.68472 0.74425
 N353 N 0.13289 0.62498 0.74204
 N354 N 0.12404 0.61294 0.76284
 C355 C 0.10320 0.59297 0.76124
 C356 C 0.09383 0.58092 0.78487
 C357 C 0.07352 0.56135 0.78394
 C358 C 0.06227 0.55347 0.75922
 C359 C 0.07176 0.56563 0.73551
 C360 C 0.09201 0.58520 0.73649
 H361 H 0.18798 0.68581 0.70086
 H362 H 0.15233 0.65233 0.70067
 H363 H 0.16036 0.64235 0.78625
 H364 H 0.19495 0.67676 0.78746
 H365 H 0.10231 0.58672 0.80407
 H366 H 0.06668 0.55236 0.80256
 H367 H 0.06353 0.56003 0.71615
 H368 H 0.09891 0.59421 0.71791
 C369 C -0.17852 0.69187 0.28989
 C370 C -0.15884 0.67098 0.29172
 C371 C -0.15025 0.65778 0.26878
 C372 C -0.16182 0.66550 0.24382
 C373 C -0.18158 0.68626 0.24188
 C374 C -0.19031 0.70008 0.26488
 N375 N -0.12964 0.63684 0.27130
 N376 N -0.12036 0.62475 0.25099
 C377 C -0.09966 0.60390 0.25320
 C378 C -0.09009 0.59218 0.22979
 C379 C -0.06975 0.57194 0.23109
 C380 C -0.05863 0.56299 0.25596
 C381 C -0.06836 0.57475 0.27949
 C382 C -0.08869 0.59505 0.27814
 H383 H -0.18501 0.70074 0.30842
 H384 H -0.15025 0.66504 0.31114
 H385 H -0.15538 0.65570 0.22571
 H386 H -0.18888 0.69213 0.22200
 H387 H -0.09839 0.59882 0.21046
 H388 H -0.06275 0.56330 0.21259
 H389 H -0.06023 0.56832 0.29895
 H390 H -0.09578 0.60382 0.29653
 C391 C -0.17731 0.32257 0.78666
 C392 C -0.15728 0.34234 0.78801
 C393 C -0.14390 0.35087 0.76497
 C394 C -0.15058 0.33919 0.74037
 C395 C -0.17049 0.31927 0.73892
 C396 C -0.18446 0.31059 0.76204
 N397 N -0.12370 0.37141 0.76713
 N398 N -0.11161 0.38100 0.74677
 C399 C -0.09139 0.40152 0.74899
 C400 C -0.07974 0.41188 0.72565
 C401 C -0.05998 0.43192 0.72707
 C402 C -0.05143 0.44190 0.75200
 C403 C -0.06316 0.43141 0.77545
 C404 C -0.08300 0.41142 0.77398
 H405 H -0.18627 0.31609 0.80531
 H406 H -0.15209 0.35101 0.80716
 H407 H -0.14058 0.34558 0.72219
 H408 H -0.17559 0.31171 0.71930
 H409 H -0.08604 0.40440 0.70628
 H410 H -0.05133 0.43952 0.70863
 H411 H -0.05703 0.43866 0.79496
 H412 H -0.09170 0.40371 0.79233
 C413 C 0.27672 0.17822 0.31887
 C414 C 0.27673 0.15753 0.33839
 C415 C 0.25221 0.14585 0.34621
 C416 C 0.22749 0.15508 0.33418
 C417 C 0.22744 0.17575 0.31462
 C418 C 0.25206 0.18759 0.30676
 N419 N 0.25299 0.12476 0.36636
 N420 N 0.23143 0.11366 0.37484
 C421 C 0.23230 0.09260 0.39502
 C422 C 0.20774 0.08183 0.40394
 C423 C 0.20786 0.06141 0.42377
 C424 C 0.23268 0.05135 0.43498
 C425 C 0.25735 0.06213 0.42587
 C426 C 0.25717 0.08259 0.40610
 H427 H 0.29597 0.18716 0.31351
 H428 H 0.29590 0.15064 0.34757
 H429 H 0.20825 0.14629 0.33981
 H430 H 0.20815 0.18225 0.30541
 H431 H 0.18844 0.08937 0.39555
 H432 H 0.18852 0.05354 0.43031
 H433 H 0.27681 0.05485 0.43409
 H434 H 0.27645 0.09056 0.39951
 C435 C 0.78138 0.17877 0.68932
 C436 C 0.78220 0.15954 0.66914
 C437 C 0.75813 0.15175 0.65612
 C438 C 0.73304 0.16344 0.66355
 C439 C 0.73220 0.18272 0.68370
 C440 C 0.75637 0.19064 0.69680
 N441 N 0.75972 0.13205 0.63545
 N442 N 0.73852 0.12362 0.62329
 C443 C 0.73996 0.10398 0.60258
 C444 C 0.71563 0.09493 0.59099
 C445 C 0.71620 0.07564 0.57088
 C446 C 0.74124 0.06509 0.56189
 C447 C 0.76569 0.07435 0.57346
 C448 C 0.76507 0.09360 0.59367
 H449 H 0.80031 0.18415 0.69927
 H450 H 0.80164 0.15062 0.66367
 H451 H 0.71414 0.15782 0.65371
 H452 H 0.71266 0.19173 0.68873
 H453 H 0.69616 0.10280 0.59766
 H454 H 0.69699 0.06899 0.56238
 H455 H 0.78530 0.06661 0.56702
 H456 H 0.78418 0.10032 0.60230
 C457 C 0.28105 -0.18450 0.67229
 C458 C 0.28080 -0.16461 0.65195
 C459 C 0.25611 -0.15270 0.64279
 C460 C 0.23153 -0.16076 0.65442
 C461 C 0.23174 -0.18060 0.67478
 C462 C 0.25649 -0.19281 0.68388
 N463 N 0.25654 -0.13265 0.62166
 N464 N 0.23473 -0.12171 0.61185
 C465 C 0.23507 -0.10168 0.59070
 C466 C 0.21022 -0.09091 0.58066
 C467 C 0.20978 -0.07131 0.56005
 C468 C 0.23432 -0.06209 0.54913
 C469 C 0.25927 -0.07299 0.55926
 C470 C 0.25966 -0.09262 0.57984
 H471 H 0.30040 -0.19373 0.67861
 H472 H 0.29987 -0.15859 0.64312
 H473 H 0.21218 -0.15175 0.64779
 H474 H 0.21254 -0.18625 0.68358
 H475 H 0.19113 -0.09774 0.58886
 H476 H 0.19023 -0.06332 0.55274
 H477 H 0.27853 -0.06634 0.55130
 H478 H 0.27915 -0.10065 0.58727
 C479 C 0.75900 -0.14383 0.30652
 C480 C 0.75958 -0.12318 0.32531
 C481 C 0.75375 -0.12877 0.35220
 C482 C 0.74791 -0.15547 0.36027
 C483 C 0.74801 -0.17625 0.34163
 C484 C 0.75333 -0.17052 0.31460
 N485 N 0.75402 -0.10716 0.37093
 N486 N 0.74167 -0.10892 0.39310
 C487 C 0.74229 -0.08776 0.41230
 C488 C 0.72209 -0.08682 0.43175
 C489 C 0.72199 -0.06635 0.45070
 C490 C 0.74263 -0.04691 0.45094
 C491 C 0.76321 -0.04815 0.43170
 C492 C 0.76287 -0.06824 0.41229
 H493 H 0.76329 -0.13910 0.28576
 H494 H 0.76419 -0.10271 0.31887
 H495 H 0.74358 -0.16029 0.38100
 H496 H 0.74358 -0.19674 0.34818
 H497 H 0.70621 -0.10182 0.43202
 H498 H 0.70602 -0.06595 0.46544
 H499 H 0.77931 -0.03336 0.43146
 H500 H 0.77883 -0.06876 0.39755
 C501 C 0.68034 0.72040 -0.17910
 C502 C 0.66130 0.71928 -0.15860
 C503 C 0.65241 0.74300 -0.14629
 C504 C 0.66295 0.76803 -0.15462
 C505 C 0.68203 0.76920 -0.17510
 C506 C 0.69089 0.74539 -0.18764
 N507 N 0.63258 0.74109 -0.12562
 N508 N 0.62309 0.76186 -0.11398
 C509 C 0.60309 0.75977 -0.09346
 C510 C 0.59289 0.78346 -0.08202
 C511 C 0.57301 0.78213 -0.06227
 C512 C 0.56303 0.75694 -0.05360
 C513 C 0.57349 0.73315 -0.06501
 C514 C 0.59331 0.73454 -0.08477
 H515 H 0.68647 0.70176 -0.18859
 H516 H 0.65326 0.69987 -0.15241
 H517 H 0.65646 0.78666 -0.14533
 H518 H 0.69005 0.78870 -0.18097
 H519 H 0.60027 0.80303 -0.08855
 H520 H 0.56540 0.80081 -0.05389
 H521 H 0.56625 0.71343 -0.05879
 H522 H 0.60089 0.71591 -0.09328
 C523 C 0.31796 0.20571 -0.18312
 C524 C 0.33726 0.20349 -0.16216
 C525 C 0.34982 0.22661 -0.15231
 C526 C 0.34284 0.25214 -0.16368
 C527 C 0.32359 0.25439 -0.18465
 C528 C 0.31094 0.23120 -0.19463
 N529 N 0.36967 0.22366 -0.13096
 N530 N 0.38125 0.24405 -0.12084
 C531 C 0.40131 0.24150 -0.09967
 C532 C 0.41261 0.26505 -0.08943
 C533 C 0.43248 0.26344 -0.06901
 C534 C 0.44147 0.23811 -0.05848
 C535 C 0.43000 0.21444 -0.06875
 C536 C 0.41005 0.21610 -0.08918
 H537 H 0.30832 0.18752 -0.19013
 H538 H 0.34242 0.18371 -0.15354
 H539 H 0.35235 0.27033 -0.15650
 H540 H 0.31892 0.27425 -0.19334
 H541 H 0.40604 0.28473 -0.09737
 H542 H 0.44089 0.28207 -0.06159
 H543 H 0.43648 0.19463 -0.06106
 H544 H 0.40160 0.19759 -0.09681
 C545 C 0.31955 0.73342 0.16702
 C546 C 0.33997 0.73505 0.14782
 C547 C 0.35182 0.76002 0.14155
 C548 C 0.34283 0.78326 0.15447
 C549 C 0.32258 0.78174 0.17377
 C550 C 0.31058 0.75672 0.18068
 N551 N 0.37313 0.76235 0.12238
 N552 N 0.38330 0.74186 0.11080
 C553 C 0.40472 0.74436 0.09175
 C554 C 0.41554 0.72091 0.08039
 C555 C 0.43653 0.72261 0.06184
 C556 C 0.44705 0.74793 0.05427
 C557 C 0.43611 0.77148 0.06572
 C558 C 0.41515 0.76973 0.08432
 H559 H 0.31192 0.71353 0.17188
 H560 H 0.34668 0.71673 0.13813
 H561 H 0.35159 0.80270 0.14956
 H562 H 0.31583 0.80055 0.18248
 H563 H 0.40768 0.70125 0.08597
 H564 H 0.44446 0.70408 0.05338
 H565 H 0.44374 0.79128 0.06032
 H566 H 0.40712 0.78817 0.09283
 C567 C 0.67732 0.27629 0.17672
 C568 C 0.65702 0.27574 0.15674
 C569 C 0.64869 0.25111 0.14621
 C570 C 0.66095 0.22680 0.15592
 C571 C 0.68131 0.22730 0.17592
 C572 C 0.68974 0.25207 0.18653
 N573 N 0.62783 0.25146 0.12574
 N574 N 0.61877 0.22997 0.11536
 C575 C 0.59790 0.23095 0.09484
 C576 C 0.58823 0.20671 0.08445
 C577 C 0.56782 0.20712 0.06444
 C578 C 0.55678 0.23191 0.05447
 C579 C 0.56661 0.25621 0.06495
 C580 C 0.58693 0.25575 0.08494
 H581 H 0.68306 0.29565 0.18476
 H582 H 0.64765 0.29459 0.14947
 H583 H 0.65489 0.20749 0.14801
 H584 H 0.69071 0.20834 0.18284
 H585 H 0.59652 0.18746 0.09191
 H586 H 0.56070 0.18806 0.05678
 H587 H 0.55856 0.27565 0.05775
 H588 H 0.59405 0.27480 0.09261
 C589 C -0.17629 0.68178 0.71946
 C590 C -0.15554 0.66200 0.71828
 C591 C -0.14573 0.64879 0.74159
 C592 C -0.15691 0.65559 0.76630
 C593 C -0.17770 0.67527 0.76759
 C594 C -0.18794 0.68883 0.74418
 N595 N -0.12455 0.62853 0.73967
 N596 N -0.11462 0.61611 0.76030
 C597 C -0.09355 0.59571 0.75876
 C598 C -0.08355 0.58340 0.78250
 C599 C -0.06310 0.56332 0.78185
 C600 C -0.05228 0.55514 0.75731
 C601 C -0.06236 0.56758 0.73344
 C602 C -0.08282 0.58771 0.73414
 H603 H -0.18380 0.69053 0.70066
 H604 H -0.14723 0.65677 0.69906
 H605 H -0.14949 0.64582 0.78469
 H606 H -0.18478 0.68042 0.78728
 H607 H -0.09167 0.58939 0.80158
 H608 H -0.05582 0.55417 0.80060
 H609 H -0.05446 0.56175 0.71422
 H610 H -0.09026 0.59695 0.71550
 C611 C -0.18014 0.32809 0.22160
 C612 C -0.16052 0.34832 0.22088
 C613 C -0.14842 0.35738 0.24451
 C614 C -0.15607 0.34586 0.26910
 C615 C -0.17559 0.32553 0.26995
 C616 C -0.18817 0.31620 0.24620
 N617 N -0.12846 0.37823 0.24297
 N618 N -0.11723 0.38791 0.26380
 C619 C -0.09720 0.40869 0.26234
 C620 C -0.08625 0.41874 0.28615
 C621 C -0.06659 0.43893 0.28550
 C622 C -0.05747 0.44941 0.26089
 C623 C -0.06853 0.43929 0.23697
 C624 C -0.08825 0.41912 0.23767
 H625 H -0.18803 0.32120 0.20260
 H626 H -0.15459 0.35688 0.20175
 H627 H -0.14711 0.35267 0.28772
 H628 H -0.18148 0.31814 0.28951
 H629 H -0.09298 0.41086 0.30528
 H630 H -0.05848 0.44625 0.30429
 H631 H -0.06196 0.44693 0.21769
 H632 H -0.09641 0.41166 0.21897
 C633 C 0.18584 0.31751 0.71400
 C634 C 0.16640 0.33864 0.71349
 C635 C 0.15366 0.34647 0.73705
 C636 C 0.16055 0.33285 0.76129
 C637 C 0.17992 0.31169 0.76183
 C638 C 0.19282 0.30379 0.73820
 N639 N 0.13378 0.36816 0.73586
 N640 N 0.12215 0.37666 0.75676
 C641 C 0.10211 0.39818 0.75589
 C642 C 0.09084 0.40671 0.77991
 C643 C 0.07108 0.42748 0.77989
 C644 C 0.06216 0.44010 0.75569
 C645 C 0.07357 0.43152 0.73155
 C646 C 0.09342 0.41075 0.73163
 H647 H 0.19565 0.31214 0.69552
 H648 H 0.16131 0.34902 0.69470
 H649 H 0.15089 0.33843 0.77977
 H650 H 0.18454 0.30127 0.78070
 H651 H 0.09738 0.39716 0.79872
 H652 H 0.06270 0.43356 0.79883
 H653 H 0.06716 0.44083 0.71259
 H654 H 0.10184 0.40448 0.71278
 C655 C 0.17892 0.68053 0.26369
 C656 C 0.15895 0.66067 0.26314
 C657 C 0.15056 0.64951 0.23879
 C658 C 0.16259 0.65832 0.21508
 C659 C 0.18266 0.67816 0.21551
 C660 C 0.19118 0.68990 0.23985
 N661 N 0.12980 0.62939 0.23764
 N662 N 0.11822 0.62065 0.25866
 C663 C 0.09735 0.60068 0.25796
 C664 C 0.08613 0.59187 0.28211
 C665 C 0.06573 0.57242 0.28229
 C666 C 0.05612 0.56143 0.25818
 C667 C 0.06738 0.57037 0.23389
 C668 C 0.08785 0.58982 0.23376
 H669 H 0.18530 0.68764 0.28313
 H670 H 0.15017 0.65398 0.28184
 H671 H 0.15616 0.64998 0.19612
 H672 H 0.19040 0.68498 0.19643
 H673 H 0.09327 0.60011 0.30087
 H674 H 0.05751 0.56601 0.30134
 H675 H 0.06044 0.56229 0.21499
 H676 H 0.09620 0.59635 0.21482
 C677 C 0.71586 -0.17920 0.67783
 C678 C 0.71371 -0.15825 0.65860
 C679 C 0.73713 -0.14545 0.64941
 C680 C 0.76291 -0.15387 0.65966
 C681 C 0.76510 -0.17481 0.67888
 C682 C 0.74158 -0.18769 0.68821
 N683 N 0.73419 -0.12400 0.62976
 N684 N 0.75470 -0.11172 0.62042
 C685 C 0.75187 -0.09027 0.60077
 C686 C 0.77543 -0.07822 0.59097
 C687 C 0.77348 -0.05741 0.57161
 C688 C 0.74778 -0.04823 0.56174
 C689 C 0.72410 -0.06028 0.57174
 C690 C 0.72611 -0.08114 0.59107
 H691 H 0.69741 -0.18895 0.68435
 H692 H 0.69374 -0.15200 0.65080
 H693 H 0.78134 -0.14423 0.65292
 H694 H 0.78515 -0.18064 0.68675
 H695 H 0.79539 -0.08508 0.59831
 H696 H 0.79211 -0.04856 0.56436
 H697 H 0.70401 -0.05369 0.56454
 H698 H 0.70757 -0.09014 0.59837
 C699 C 0.27590 -0.18257 0.31690
 C700 C 0.27608 -0.16357 0.33729
 C701 C 0.25157 -0.15231 0.34631
 C702 C 0.22667 -0.16037 0.33475
 C703 C 0.22646 -0.17937 0.31434
 C704 C 0.25108 -0.19062 0.30513
 N705 N 0.25255 -0.13260 0.36697
 N706 N 0.23102 -0.12172 0.37624
 C707 C 0.23202 -0.10182 0.39672
 C708 C 0.20749 -0.09098 0.40616
 C709 C 0.20771 -0.07131 0.42592
 C710 C 0.23260 -0.06209 0.43658
 C711 C 0.25723 -0.07309 0.42710
 C712 C 0.25696 -0.09279 0.40736
 H713 H 0.29517 -0.19115 0.31050
 H714 H 0.29538 -0.15757 0.34609
 H715 H 0.20744 -0.15188 0.34134
 H716 H 0.20705 -0.18491 0.30545
 H717 H 0.18814 -0.09777 0.39810
 H718 H 0.18838 -0.06326 0.43276
 H719 H 0.27674 -0.06644 0.43490
 H720 H 0.27622 -0.10087 0.40037
 C721 C 0.77764 0.18447 0.32291
 C722 C 0.77813 0.16501 0.34363
 C723 C 0.75380 0.15647 0.35511
 C724 C 0.72877 0.16773 0.34570
 C725 C 0.72824 0.18724 0.32499
 C726 C 0.75268 0.19580 0.31332
 N727 N 0.75516 0.13633 0.37615
 N728 N 0.73393 0.12701 0.38716
 C729 C 0.73574 0.10678 0.40815
 C730 C 0.71169 0.09669 0.41900
 C731 C 0.71285 0.07674 0.43932
 C732 C 0.73821 0.06661 0.44917
 C733 C 0.76233 0.07691 0.43829
 C734 C 0.76112 0.09677 0.41797
 H735 H 0.79677 0.19033 0.31410
 H736 H 0.79753 0.15641 0.35067
 H737 H 0.70969 0.16151 0.35434
 H738 H 0.70873 0.19585 0.31829
 H739 H 0.69200 0.10424 0.41160
 H740 H 0.69391 0.06925 0.44728
 H741 H 0.78219 0.06956 0.44539
 H742 H 0.78003 0.10425 0.40995
 C743 C 0.27764 0.17043 0.66694
 C744 C 0.27774 0.15112 0.64684
 C745 C 0.25316 0.14093 0.63688
 C746 C 0.22829 0.15037 0.64722
 C747 C 0.22815 0.16969 0.66732
 C748 C 0.25283 0.17990 0.67744
 N749 N 0.25402 0.12093 0.61650
 N750 N 0.23240 0.11089 0.60659
 C751 C 0.23318 0.09075 0.58633
 C752 C 0.20853 0.08078 0.57632
 C753 C 0.20852 0.06097 0.55670
 C754 C 0.23329 0.05076 0.54675
 C755 C 0.25804 0.06087 0.55682
 C756 C 0.25801 0.08071 0.57644
 H757 H 0.29696 0.17817 0.67409
 H758 H 0.29702 0.14404 0.63898
 H759 H 0.20901 0.14274 0.63990
 H760 H 0.20875 0.17633 0.67524
 H761 H 0.18928 0.08836 0.58381
 H762 H 0.18910 0.05362 0.54939
 H763 H 0.27746 0.05345 0.54957
 H764 H 0.27734 0.08811 0.58388
   
