data_POSCAR
  _audit_creation_date              2014-09-24
  _audit_creation_method            'ToBaCCo'
  _symmetry_space_group_name_H-M    'P1'
  _symmetry_Int_Tables_number       1
  _symmetry_cell_setting            triclinic
  loop_
  _symmetry_equiv_pos_as_xyz
 x,y,z
_cell_length_a 41.3556
_cell_length_b 41.3539
_cell_length_c 41.2427
_cell_angle_alpha 89.910400
_cell_angle_beta 89.911100
_cell_angle_gamma 89.897900
loop_
  _atom_site_label
  _atom_site_type_symbol
  _atom_site_fract_x
  _atom_site_fract_y
  _atom_site_fract_z
C1 C 0.16769 0.16645 0.20910
 C2 C 0.15383 0.19412 0.19516
 C3 C 0.16772 0.20801 0.16746
 C4 C 0.19546 0.19423 0.15364
 C5 C 0.20937 0.16655 0.16753
 C6 C 0.19546 0.15266 0.19526
 H7 H 0.13243 0.20495 0.20588
 H8 H 0.20624 0.20514 0.13226
 H9 H 0.20629 0.13131 0.20612
 C10 C -0.16725 0.83285 0.21047
 C11 C -0.15336 0.80517 0.19658
 C12 C -0.16717 0.79133 0.16889
 C13 C -0.19485 0.80517 0.15505
 C14 C -0.20875 0.83282 0.16889
 C15 C -0.19495 0.84666 0.19658
 H16 H -0.13200 0.79432 0.20733
 H17 H -0.20561 0.79438 0.13370
 H18 H -0.20586 0.86800 0.20732
 C19 C -0.16709 0.16768 -0.20975
 C20 C -0.19475 0.15383 -0.19582
 C21 C -0.20867 0.16767 -0.16812
 C22 C -0.19492 0.19534 -0.15431
 C23 C -0.16729 0.20921 -0.16819
 C24 C -0.15337 0.19538 -0.19590
 H25 H -0.20553 0.13247 -0.20653
 H26 H -0.20578 0.20613 -0.13294
 H27 H -0.13204 0.20627 -0.20668
 C28 C 0.16766 0.83307 -0.20960
 C29 C 0.15387 0.80539 -0.19566
 C30 C 0.16770 0.79152 -0.16793
 C31 C 0.19532 0.80535 -0.15410
 C32 C 0.20914 0.83301 -0.16799
 C33 C 0.19530 0.84688 -0.19572
 H34 H 0.13255 0.79454 -0.20640
 H35 H 0.20611 0.79453 -0.13272
 H36 H 0.20614 0.86822 -0.20651
 C37 C 0.16745 1.16730 0.78935
 C38 C 0.19515 1.15352 0.80328
 C39 C 0.20891 1.16740 0.83097
 C40 C 0.19497 1.19506 0.84476
 C41 C 0.16729 1.20886 0.83087
 C42 C 0.15353 1.19498 0.80318
 H43 H 0.20607 1.13217 0.79258
 H44 H 0.20570 1.20588 0.86612
 H45 H 0.13216 1.20580 0.79241
 C46 C 0.83354 0.83246 0.79105
 C47 C 0.84737 0.80473 0.80493
 C48 C 0.83349 0.79083 0.83267
 C49 C 0.80578 0.80469 0.84652
 C50 C 0.79194 0.83239 0.83267
 C51 C 0.80582 0.84627 0.80496
 H52 H 0.86875 0.79393 0.79410
 H53 H 0.79488 0.79392 0.86791
 H54 H 0.79496 0.86764 0.79420
 C55 C 0.16676 0.83225 1.20952
 C56 C 0.15302 0.80459 1.19561
 C57 C 0.16694 0.79079 1.16788
 C58 C 0.19459 0.80467 1.15404
 C59 C 0.20836 0.83230 1.16791
 C60 C 0.19444 0.84610 1.19563
 H61 H 0.13168 0.79370 1.20636
 H62 H 0.20546 0.79391 1.13266
 H63 H 0.20524 0.86742 1.20639
 C64 C 0.83241 1.16711 1.20983
 C65 C 0.80473 1.15331 1.19600
 C66 C 0.79086 1.16718 1.16828
 C67 C 0.80466 1.19483 1.15437
 C68 C 0.83231 1.20865 1.16815
 C69 C 0.84619 1.19479 1.19586
 H70 H 0.79390 1.13197 1.20680
 H71 H 0.79384 1.20565 1.13300
 H72 H 0.86753 1.20563 1.20656
 N73 N 0.53374 1.03491 1.05769
 N74 N 0.55846 1.03872 1.07753
 N75 N 0.46570 1.05741 1.03505
 N76 N 0.44089 1.07719 1.03886
 N77 N 0.46567 1.03494 1.05759
 N78 N 0.44085 1.03879 1.07738
 N79 N 0.53378 1.05738 1.03515
 N80 N 0.55854 1.07712 1.03900
 C81 C 0.57355 1.06514 1.06553
 C82 C 0.42577 1.06524 1.06536
 N83 N 0.46604 1.03498 0.94271
 N84 N 0.44135 1.03885 0.92282
 N85 N 0.53400 1.05741 0.96532
 N86 N 0.55874 1.07718 0.96145
 N87 N 0.53410 1.03495 0.94283
 N88 N 0.55891 1.03880 0.92302
 N89 N 0.46593 1.05743 0.96521
 N90 N 0.44116 1.07722 0.96126
 Mn91 Mn 0.49985 1.05780 1.00018
 C92 C 0.42621 1.06529 0.93473
 C93 C 0.57390 1.06523 0.93498
 N94 N 0.46576 0.96531 1.05767
 N95 N 0.44093 0.96147 1.07745
 N96 N 0.53393 0.94282 1.03528
 N97 N 0.55874 0.92305 1.03920
 N98 N 0.53383 0.96527 1.05778
 N99 N 0.55856 0.96143 1.07763
 N100 N 0.46587 0.94285 1.03517
 N101 N 0.44111 0.92310 1.03901
 Mn102 Mn 0.49975 1.00011 1.05808
 C103 C 0.42593 0.93505 1.06547
 C104 C 0.57371 0.93500 1.06570
 N105 N 0.53420 0.96530 0.94291
 N106 N 0.55903 0.96144 0.92313
 N107 N 0.46608 0.94287 0.96535
 N108 N 0.44134 0.92313 0.96148
 N109 N 0.46613 0.96534 0.94280
 N110 N 0.44141 0.96153 0.92295
 N111 N 0.53416 0.94284 0.96546
 N112 N 0.55896 0.92305 0.96166
 Mn113 Mn 0.50012 1.00014 0.94242
 Mn114 Mn 0.50001 0.94245 1.00032
 Cl115 Cl 0.49993 1.00013 1.00025
 C116 C 0.57410 0.93500 0.93516
 C117 C 0.42633 0.93511 0.93495
 N118 N 0.05700 0.46591 -0.03535
 N119 N 0.07671 0.44108 -0.03933
 N120 N 0.03468 0.53416 -0.05764
 N121 N 0.03856 0.55901 -0.07740
 N122 N 0.05716 0.53398 -0.03518
 N123 N 0.07698 0.55869 -0.03901
 N124 N 0.03452 0.46609 -0.05782
 N125 N 0.03830 0.44139 -0.07772
 C126 C 0.06471 0.42617 -0.06584
 C127 C 0.06503 0.57392 -0.06544
 N128 N -0.05740 0.53445 -0.03490
 N129 N -0.07712 0.55932 -0.03866
 N130 N -0.03511 0.46638 -0.05764
 N131 N -0.03898 0.44166 -0.07747
 N132 N -0.05756 0.46637 -0.03507
 N133 N -0.07733 0.44165 -0.03890
 N134 N -0.03496 0.53445 -0.05747
 N135 N -0.03877 0.55930 -0.07724
 Mn136 Mn -0.00022 0.50027 -0.05804
 C137 C -0.06516 0.57444 -0.06516
 C138 C -0.06541 0.42662 -0.06544
 N139 N 0.05722 0.53369 0.03465
 N140 N 0.07700 0.55842 0.03848
 N141 N 0.03464 0.46561 0.05705
 N142 N 0.03849 0.44078 0.07684
 N143 N 0.05707 0.46562 0.03448
 N144 N 0.07684 0.44079 0.03826
 N145 N 0.03478 0.53369 0.05722
 N146 N 0.03865 0.55840 0.07706
 Mn147 Mn 0.05751 0.49980 -0.00035
 C148 C 0.06508 0.57344 0.06503
 C149 C 0.06490 0.42568 0.06477
 N150 N -0.05749 0.46608 0.03476
 N151 N -0.07731 0.44137 0.03861
 N152 N -0.03485 0.53397 0.05740
 N153 N -0.03861 0.55867 0.07730
 N154 N -0.05733 0.53416 0.03494
 N155 N -0.07703 0.55900 0.03892
 N156 N -0.03500 0.46590 0.05722
 N157 N -0.03888 0.44106 0.07699
 Mn158 Mn -0.05784 0.50027 -0.00006
 Mn159 Mn -0.00011 0.49979 0.05762
 Cl160 Cl -0.00017 0.50003 -0.00021
 C161 C -0.06536 0.42615 0.06504
 C162 C -0.06501 0.57391 0.06543
 N163 N 1.03501 0.05713 0.53383
 N164 N 1.03895 0.07694 0.55858
 N165 N 1.05728 0.03452 0.46555
 N166 N 1.07704 0.03832 0.44067
 N167 N 1.03483 0.05703 0.46557
 N168 N 1.03869 0.07680 0.44069
 N169 N 1.05745 0.03461 0.53380
 N170 N 1.07729 0.03846 0.55854
 C171 C 1.06541 0.06495 0.57361
 C172 C 1.06510 0.06478 0.42554
 N173 N 1.03475 -0.05752 0.46591
 N174 N 1.03853 -0.07734 0.44112
 N175 N 1.05740 -0.03503 0.53400
 N176 N 1.07723 -0.03889 0.55877
 N177 N 1.03493 -0.05744 0.53416
 N178 N 1.03884 -0.07718 0.55904
 N179 N 1.05723 -0.03512 0.46575
 N180 N 1.07694 -0.03906 0.44086
 Mn181 Mn 1.05773 -0.00025 0.49978
 C182 C 1.06494 -0.06549 0.42588
 C183 C 1.06531 -0.06527 0.57400
 N184 N 0.96519 0.05720 0.46587
 N185 N 0.96127 0.07696 0.44100
 N186 N 0.94290 0.03489 0.53429
 N187 N 0.92317 0.03885 0.55917
 N188 N 0.96537 0.05730 0.53412
 N189 N 0.96156 0.07715 0.55889
 N190 N 0.94271 0.03480 0.46604
 N191 N 0.92285 0.03868 0.44129
 Mn192 Mn 1.00010 0.05756 0.49984
 C193 C 0.93478 0.06507 0.42605
 C194 C 0.93515 0.06529 0.57413
 N195 N 0.96530 -0.05727 0.53445
 N196 N 0.96146 -0.07705 0.55932
 N197 N 0.94266 -0.03484 0.46624
 N198 N 0.92282 -0.03867 0.44150
 N199 N 0.96511 -0.05735 0.46620
 N200 N 0.96118 -0.07714 0.44143
 N201 N 0.94285 -0.03476 0.53449
 N202 N 0.92311 -0.03857 0.55939
 Mn203 Mn 1.00002 -0.05779 0.50018
 Mn204 Mn 0.94239 0.00003 0.50027
 Cl205 Cl 1.00006 -0.00011 0.50002
 C206 C 0.93507 -0.06504 0.57450
 C207 C 0.93471 -0.06515 0.42641
 C208 C 1.12874 0.12781 0.29007
 C209 C 1.09183 0.13129 0.29208
 C210 C 1.07883 0.11845 0.31962
 C211 C 1.10401 0.10339 0.34243
 C212 C 1.12852 0.13046 0.34884
 C213 C 1.14152 0.14330 0.32132
 C214 C 1.13528 0.09147 0.29405
 C215 C 1.12228 0.07863 0.32158
 C216 C 1.14279 0.14169 0.26050
 C217 C 1.15444 0.15324 0.23631
 C218 C 1.09006 0.08960 0.37209
 C219 C 1.07865 0.07829 0.39650
 H220 H 1.07719 0.14280 0.27352
 H221 H 1.05305 0.11897 0.32463
 H222 H 1.13509 0.13882 0.37289
 H223 H 1.15922 0.16264 0.32179
 H224 H 1.14891 0.07709 0.27676
 H225 H 1.12477 0.05324 0.32787
 C226 C 0.87137 -0.12843 0.29132
 C227 C 0.90828 -0.13184 0.29335
 C228 C 0.92117 -0.11893 0.32082
 C229 C 0.89588 -0.10388 0.34356
 C230 C 0.87140 -0.13098 0.35010
 C231 C 0.85851 -0.14389 0.32264
 C232 C 0.86475 -0.09209 0.29512
 C233 C 0.87764 -0.07918 0.32259
 C234 C 0.85745 -0.14238 0.26180
 C235 C 0.84591 -0.15396 0.23765
 C236 C 0.90974 -0.09002 0.37315
 C237 C 0.92112 -0.07867 0.39747
 H238 H 0.92299 -0.14336 0.27484
 H239 H 0.94693 -0.11940 0.32584
 H240 H 0.86477 -0.13931 0.37418
 H241 H 0.84084 -0.16326 0.32320
 H242 H 0.85116 -0.07776 0.27775
 H243 H 0.87509 -0.05379 0.32876
 C244 C 0.87181 0.12891 0.70937
 C245 C 0.85616 0.14155 0.67808
 C246 C 0.86910 0.12860 0.65060
 C247 C 0.89642 0.10427 0.65710
 C248 C 0.88164 0.07902 0.68004
 C249 C 0.86869 0.09198 0.70752
 C250 C 0.90808 0.13568 0.70533
 C251 C 0.92102 0.12273 0.67784
 C252 C 0.85782 0.14290 0.73890
 C253 C 0.84618 0.15449 0.76306
 C254 C 0.91030 0.09036 0.62748
 C255 C 0.92166 0.07893 0.60312
 H256 H 0.83663 0.15913 0.67755
 H257 H 0.86065 0.13508 0.62654
 H258 H 0.88136 0.05324 0.67513
 H259 H 0.85734 0.07729 0.72616
 H260 H 0.92234 0.14943 0.72254
 H261 H 0.94637 0.12537 0.67151
 C262 C 1.12888 -0.12829 0.70941
 C263 C 1.09214 -0.13288 0.70680
 C264 C 1.07918 -0.12003 0.67928
 C265 C 1.10422 -0.10385 0.65706
 C266 C 1.12976 -0.13004 0.65060
 C267 C 1.14272 -0.14289 0.67812
 C268 C 1.13422 -0.09171 0.70607
 C269 C 1.12125 -0.07886 0.67855
 C270 C 1.14288 -0.14218 0.73897
 C271 C 1.15447 -0.15374 0.76317
 C272 C 1.09029 -0.09006 0.62741
 C273 C 1.07889 -0.07876 0.60302
 H274 H 1.07760 -0.14513 0.72498
 H275 H 1.05352 -0.12125 0.67388
 H276 H 1.13703 -0.13781 0.62654
 H277 H 1.16110 -0.16167 0.67762
 H278 H 1.14704 -0.07718 0.72377
 H279 H 1.12296 -0.05331 0.67267
 C280 C 0.29037 1.12811 1.12877
 C281 C 0.32106 1.13659 1.14782
 C282 C 0.34857 1.12379 1.13488
 C283 C 0.34271 1.10377 1.10414
 C284 C 0.32466 1.12658 1.08099
 C285 C 0.29714 1.13938 1.09394
 C286 C 0.29015 1.09103 1.12703
 C287 C 0.31767 1.07823 1.11408
 C288 C 0.26081 1.14194 1.14276
 C289 C 0.23660 1.15344 1.15435
 C290 C 0.37236 1.09002 1.09024
 C291 C 0.39675 1.07873 1.07887
 H292 H 0.32117 1.15133 1.16958
 H293 H 0.37225 1.12758 1.14554
 H294 H 0.33276 1.13219 1.05657
 H295 H 0.28167 1.15595 1.08062
 H296 H 0.27013 1.07614 1.13524
 H297 H 0.32123 1.05237 1.11119
 C298 C 0.29138 0.87225 0.87151
 C299 C 0.32260 0.85798 0.85727
 C300 C 0.35003 0.87078 0.87020
 C301 C 0.34356 0.89661 0.89611
 C302 C 0.32171 0.87999 0.92121
 C303 C 0.29428 0.86718 0.90828
 C304 C 0.29437 0.90891 0.86650
 C305 C 0.32181 0.92172 0.87944
 C306 C 0.26190 0.85840 0.85754
 C307 C 0.23779 0.84690 0.84596
 C308 C 0.37311 0.91036 0.91000
 C309 C 0.39742 0.92165 0.92139
 H310 H 0.32311 0.83944 0.83866
 H311 H 0.37404 0.86321 0.86266
 H312 H 0.32730 0.87844 0.94688
 H313 H 0.27635 0.85466 0.92287
 H314 H 0.27651 0.92353 0.85392
 H315 H 0.32746 0.94731 0.87793
 C316 C 0.70887 0.87208 1.12930
 C317 C 0.70615 0.86731 1.09250
 C318 C 0.67867 0.88013 1.07952
 C319 C 0.65661 0.89645 1.10462
 C320 C 0.67811 0.92151 1.12151
 C321 C 0.70559 0.90869 1.13449
 C322 C 0.67770 0.85758 1.14335
 C323 C 0.65023 0.87039 1.13038
 C324 C 0.73839 0.85823 1.14331
 C325 C 0.76254 0.84672 1.15492
 C326 C 0.62701 0.91022 1.09070
 C327 C 0.60266 0.92151 1.07928
 H328 H 0.72421 0.85497 1.07792
 H329 H 0.67320 0.87876 1.05382
 H330 H 0.67228 0.94706 1.12312
 H331 H 0.72329 0.92327 1.14722
 H332 H 0.67724 0.83890 1.16187
 H333 H 0.62624 0.86268 1.13778
 C334 C 0.70902 1.12830 0.87149
 C335 C 0.70546 1.13429 0.90805
 C336 C 0.67799 1.12144 0.92101
 C337 C 0.65679 1.10387 0.89613
 C338 C 0.67915 1.07863 0.88049
 C339 C 0.70661 1.09148 0.86753
 C340 C 0.67785 1.14175 0.85642
 C341 C 0.65039 1.12891 0.86937
 C342 C 0.73853 1.14219 0.85749
 C343 C 0.76266 1.15374 0.84588
 C344 C 0.62720 1.09007 0.91004
 C345 C 0.60286 1.07875 0.92143
 H346 H 0.72297 1.14744 0.92249
 H347 H 0.67197 1.12359 0.94655
 H348 H 0.67388 1.05293 0.87967
 H349 H 0.72488 1.07679 0.85562
 H350 H 0.67738 1.15978 0.83726
 H351 H 0.62640 1.13593 0.86131
 C352 C 0.12822 0.29040 0.12798
 C353 C 0.14247 0.32156 0.14217
 C354 C 0.12956 0.34905 0.12928
 C355 C 0.10366 0.34269 0.10346
 C356 C 0.07865 0.32093 0.12024
 C357 C 0.09157 0.29343 0.13313
 C358 C 0.13314 0.29340 0.09119
 C359 C 0.12022 0.32089 0.07830
 C360 C 0.14218 0.26087 0.14191
 C361 C 0.15376 0.23671 0.15348
 C362 C 0.08979 0.37231 0.08962
 C363 C 0.07843 0.39668 0.07828
 H364 H 0.16107 0.32200 0.16071
 H365 H 0.13710 0.37303 0.13678
 H366 H 0.05306 0.32660 0.12184
 H367 H 0.07704 0.27556 0.14578
 H368 H 0.14565 0.27550 0.07656
 H369 H 0.12167 0.32655 0.05263
 C370 C -0.12821 0.29156 -0.12874
 C371 C -0.14557 0.32258 -0.13958
 C372 C -0.13280 0.35003 -0.12667
 C373 C -0.10391 0.34379 -0.10417
 C374 C -0.07977 0.32433 -0.12470
 C375 C -0.09255 0.29688 -0.13761
 C376 C -0.12922 0.29238 -0.09154
 C377 C -0.11645 0.31984 -0.07862
 C378 C -0.14202 0.26206 -0.14269
 C379 C -0.15347 0.23791 -0.15426
 C380 C -0.09018 0.37337 -0.09031
 C381 C -0.07890 0.39769 -0.07895
 H382 H -0.16610 0.32294 -0.15596
 H383 H -0.14239 0.37391 -0.13198
 H384 H -0.05484 0.33149 -0.12872
 H385 H -0.07856 0.28051 -0.15270
 H386 H -0.13909 0.27308 -0.07665
 H387 H -0.11537 0.32407 -0.05267
 C388 C 0.12834 0.70914 -0.12847
 C389 C 0.14323 0.67798 -0.14215
 C390 C 0.13033 0.65050 -0.12929
 C391 C 0.10381 0.65686 -0.10402
 C392 C 0.07894 0.67832 -0.12142
 C393 C 0.09185 0.70581 -0.13428
 C394 C 0.13249 0.70645 -0.09158
 C395 C 0.11959 0.67896 -0.07872
 C396 C 0.14227 0.73867 -0.14237
 C397 C 0.15382 0.76282 -0.15394
 C398 C 0.08995 0.62725 -0.09022
 C399 C 0.07858 0.60289 -0.07891
 H400 H 0.16224 0.67753 -0.16033
 H401 H 0.13829 0.62652 -0.13647
 H402 H 0.05345 0.67245 -0.12346
 H403 H 0.07741 0.72348 -0.14733
 H404 H 0.14449 0.72454 -0.07685
 H405 H 0.12054 0.67351 -0.05298
 C406 C -0.12779 0.70902 0.12927
 C407 C -0.13470 0.70514 0.09292
 C408 C -0.12188 0.67768 0.07991
 C409 C -0.10341 0.65680 0.10452
 C410 C -0.12766 0.65040 0.13200
 C411 C -0.14047 0.67786 0.14500
 C412 C -0.09085 0.70693 0.13227
 C413 C -0.07803 0.67947 0.11925
 C414 C -0.14166 0.73852 0.14331
 C415 C -0.15321 0.76266 0.15493
 C416 C -0.08967 0.62721 0.09054
 C417 C -0.07841 0.60287 0.07908
 H418 H -0.14843 0.72244 0.07866
 H419 H -0.12463 0.67146 0.05450
 H420 H -0.13418 0.62642 0.14050
 H421 H -0.15798 0.67739 0.16464
 H422 H -0.07607 0.72539 0.14359
 H423 H -0.05226 0.67441 0.11943
 C424 C 1.12885 0.12842 0.70857
 C425 C 1.14338 0.14217 0.67719
 C426 C 1.13048 0.12922 0.64976
 C427 C 1.10430 0.10377 0.65638
 C428 C 1.07935 0.12091 0.67798
 C429 C 1.09226 0.13387 0.70542
 C430 C 1.13344 0.09166 0.70599
 C431 C 1.12054 0.07870 0.67855
 C432 C 1.14277 0.14242 0.73805
 C433 C 1.15431 0.15405 0.76219
 C434 C 1.09043 0.08987 0.62683
 C435 C 1.07902 0.07849 0.60252
 H436 H 1.16216 0.16048 0.67657
 H437 H 1.13821 0.13642 0.62564
 H438 H 1.05380 0.12270 0.67224
 H439 H 1.07776 0.14675 0.72318
 H440 H 1.14573 0.07710 0.72411
 H441 H 1.12177 0.05304 0.67317
 C442 C 0.87212 -0.12863 0.71003
 C443 C 0.85753 -0.14239 0.67877
 C444 C 0.87035 -0.12940 0.65123
 C445 C 0.89650 -0.10392 0.65765
 C446 C 0.92153 -0.12104 0.67915
 C447 C 0.90871 -0.13403 0.70669
 C448 C 0.86747 -0.09188 0.70738
 C449 C 0.88028 -0.07889 0.67983
 C450 C 0.85826 -0.14266 0.73962
 C451 C 0.84673 -0.15430 0.76382
 C452 C 0.91027 -0.08998 0.62797
 C453 C 0.92157 -0.07858 0.60355
 H454 H 0.83879 -0.16073 0.67830
 H455 H 0.86257 -0.13662 0.62718
 H456 H 0.94707 -0.12278 0.67326
 H457 H 0.92327 -0.14691 0.72440
 H458 H 0.85520 -0.07735 0.72554
 H459 H 0.87900 -0.05322 0.67440
 C460 C 1.12799 -0.12906 0.29049
 C461 C 1.14390 -0.14150 0.32173
 C462 C 1.13103 -0.12855 0.34924
 C463 C 1.10351 -0.10443 0.34283
 C464 C 1.07892 -0.12311 0.32227
 C465 C 1.09179 -0.13606 0.29475
 C466 C 1.13087 -0.09210 0.29221
 C467 C 1.11800 -0.07915 0.31973
 C468 C 1.14192 -0.14303 0.26093
 C469 C 1.15351 -0.15460 0.23674
 C470 C 1.08970 -0.09052 0.37247
 C471 C 1.07839 -0.07910 0.39686
 H472 H 1.16355 -0.15894 0.32220
 H473 H 1.13965 -0.13491 0.37328
 H474 H 1.05362 -0.12590 0.32876
 H475 H 1.07753 -0.14995 0.27766
 H476 H 1.14202 -0.07739 0.27347
 H477 H 1.11812 -0.05334 0.32456
 C478 C 0.87122 0.12836 0.29076
 C479 C 0.85650 0.14204 0.32207
 C480 C 0.86945 0.12913 0.34957
 C481 C 0.89585 0.10381 0.34306
 C482 C 0.92071 0.12108 0.32148
 C483 C 0.90775 0.13399 0.29398
 C484 C 0.86693 0.09159 0.29343
 C485 C 0.87988 0.07868 0.32093
 C486 C 0.85723 0.14231 0.26121
 C487 C 0.84563 0.15390 0.23703
 C488 C 0.90976 0.08995 0.37269
 C489 C 0.92117 0.07860 0.39706
 H490 H 0.83757 0.16025 0.32260
 H491 H 0.86161 0.13629 0.37365
 H492 H 0.94623 0.12299 0.32728
 H493 H 0.92218 0.14696 0.27621
 H494 H 0.85480 0.07698 0.27531
 H495 H 0.87885 0.05301 0.32638
 C496 C 0.12775 0.29114 -0.12960
 C497 C 0.14208 0.32235 -0.14373
 C498 C 0.12920 0.34978 -0.13075
 C499 C 0.10325 0.34333 -0.10491
 C500 C 0.11974 0.32136 -0.07983
 C501 C 0.13262 0.29392 -0.09282
 C502 C 0.09111 0.29426 -0.13468
 C503 C 0.07823 0.32171 -0.12170
 C504 C 0.14169 0.26165 -0.14361
 C505 C 0.15328 0.23753 -0.15520
 C506 C 0.08944 0.37290 -0.09096
 C507 C 0.07814 0.39722 -0.07950
 H508 H 0.16071 0.32286 -0.16231
 H509 H 0.13679 0.37379 -0.13821
 H510 H 0.12115 0.32686 -0.05414
 H511 H 0.14508 0.27591 -0.07825
 H512 H 0.07657 0.27649 -0.14735
 H513 H 0.05265 0.32744 -0.12325
 C514 C -0.12845 0.29099 0.12846
 C515 C -0.14238 0.32218 0.14307
 C516 C -0.12954 0.34964 0.13012
 C517 C -0.10403 0.34324 0.10382
 C518 C -0.12104 0.32171 0.07883
 C519 C -0.13388 0.29424 0.09179
 C520 C -0.09172 0.29373 0.13299
 C521 C -0.07888 0.32120 0.12003
 C522 C -0.14232 0.26148 0.14247
 C523 C -0.15382 0.23734 0.15411
 C524 C -0.09024 0.37284 0.08992
 C525 C -0.07890 0.39718 0.07855
 H526 H -0.16071 0.32264 0.16194
 H527 H -0.13688 0.37363 0.13789
 H528 H -0.12283 0.32752 0.05321
 H529 H -0.14667 0.27652 0.07727
 H530 H -0.07708 0.27567 0.14527
 H531 H -0.05324 0.32667 0.12121
 C532 C -0.12800 0.70988 -0.12852
 C533 C -0.13248 0.70722 -0.09165
 C534 C -0.11968 0.67970 -0.07870
 C535 C -0.10365 0.65754 -0.10389
 C536 C -0.07864 0.67892 -0.12115
 C537 C -0.09144 0.70644 -0.13410
 C538 C -0.14274 0.67876 -0.14227
 C539 C -0.12994 0.65124 -0.12933
 C540 C -0.14184 0.73944 -0.14251
 C541 C -0.15335 0.76362 -0.15411
 C542 C -0.08990 0.62788 -0.09000
 C543 C -0.07862 0.60348 -0.07865
 H544 H -0.14463 0.72536 -0.07701
 H545 H -0.12086 0.67426 -0.05296
 H546 H -0.05312 0.67297 -0.12303
 H547 H -0.07690 0.72407 -0.14707
 H548 H -0.16158 0.67836 -0.16057
 H549 H -0.13782 0.62728 -0.13654
 C550 C 0.12786 0.70849 0.12835
 C551 C 0.13235 0.70590 0.09149
 C552 C 0.11958 0.67845 0.07856
 C553 C 0.10357 0.65627 0.10377
 C554 C 0.07853 0.67768 0.12100
 C555 C 0.09131 0.70514 0.13393
 C556 C 0.14263 0.67730 0.14214
 C557 C 0.12986 0.64985 0.12922
 C558 C 0.14166 0.73799 0.14232
 C559 C 0.15312 0.76212 0.15391
 C560 C 0.08984 0.62669 0.08990
 C561 C 0.07856 0.60237 0.07854
 H562 H 0.14449 0.72404 0.07683
 H563 H 0.12077 0.67306 0.05283
 H564 H 0.05302 0.67180 0.12288
 H565 H 0.07674 0.72278 0.14688
 H566 H 0.16146 0.67681 0.16044
 H567 H 0.13776 0.62585 0.13645
 C568 C 0.29122 1.12821 0.87077
 C569 C 0.32042 1.12917 0.84777
 C570 C 0.34786 1.11638 0.86082
 C571 C 0.34342 1.10387 0.89560
 C572 C 0.31531 1.07975 0.89367
 C573 C 0.28786 1.09255 0.88061
 C574 C 0.30250 1.14557 0.90161
 C575 C 0.32995 1.13278 0.91466
 C576 C 0.26173 1.14203 0.85668
 C577 C 0.23759 1.15353 0.84500
 C578 C 0.37298 1.09011 0.90962
 C579 C 0.39729 1.07881 0.92109
 H580 H 0.31961 1.13903 0.82337
 H581 H 0.37056 1.11528 0.84760
 H582 H 0.31682 1.05483 0.90184
 H583 H 0.26586 1.07859 0.87760
 H584 H 0.29003 1.16610 0.91226
 H585 H 0.34099 1.14234 0.93650
 C586 C 0.29072 0.87179 1.12854
 C587 C 0.32188 0.85793 1.14326
 C588 C 0.34935 0.87084 1.13041
 C589 C 0.34299 0.89635 1.10410
 C590 C 0.32082 0.92144 1.12024
 C591 C 0.29334 0.90852 1.13309
 C592 C 0.29411 0.86638 1.09187
 C593 C 0.32159 0.87930 1.07902
 C594 C 0.26119 0.85783 1.14242
 C595 C 0.23704 0.84625 1.15397
 C596 C 0.37259 0.91020 1.09029
 C597 C 0.39695 0.92155 1.07897
 H598 H 0.32232 0.83959 1.16212
 H599 H 0.37333 0.86356 1.13827
 H600 H 0.32623 0.94709 1.12146
 H601 H 0.27520 0.92311 1.14532
 H602 H 0.27646 0.85357 1.07728
 H603 H 0.32749 0.87754 1.05342
 C604 C 0.70857 1.12795 1.12888
 C605 C 0.70549 1.13330 1.09217
 C606 C 0.67804 1.12050 1.07926
 C607 C 0.65637 1.10360 1.10432
 C608 C 0.64992 1.12918 1.13048
 C609 C 0.67736 1.14198 1.14339
 C610 C 0.70573 1.09123 1.13360
 C611 C 0.67828 1.07843 1.12069
 C612 C 0.73806 1.14179 1.14283
 C613 C 0.76219 1.15329 1.15438
 C614 C 0.62680 1.08985 1.09045
 C615 C 0.60248 1.07858 1.07908
 H616 H 0.72330 1.14601 1.07761
 H617 H 0.67234 1.12224 1.05362
 H618 H 0.62592 1.13659 1.13819
 H619 H 0.67686 1.16035 1.16216
 H620 H 0.72370 1.07658 1.14599
 H621 H 0.67274 1.05281 1.12201
 C622 C 0.70947 0.87177 0.87208
 C623 C 0.70668 0.90851 0.86744
 C624 C 0.67917 0.92140 0.88031
 C625 C 0.65714 0.89628 0.89656
 C626 C 0.67865 0.87923 0.92164
 C627 C 0.70617 0.86634 0.90877
 C628 C 0.67834 0.85790 0.85745
 C629 C 0.65083 0.87079 0.87032
 C630 C 0.73903 0.85785 0.85817
 C631 C 0.76321 0.84630 0.84661
 C632 C 0.62749 0.91013 0.91037
 C633 C 0.60311 0.92147 0.92168
 H634 H 0.72473 0.92311 0.85514
 H635 H 0.67365 0.94705 0.87904
 H636 H 0.67280 0.87745 0.94725
 H637 H 0.72388 0.85352 0.92335
 H638 H 0.67793 0.83958 0.83864
 H639 H 0.62687 0.86350 0.86253
   
