data_POSCAR
  _audit_creation_date              2014-09-24
  _audit_creation_method            'ToBaCCo'
  _symmetry_space_group_name_H-M    'P1'
  _symmetry_Int_Tables_number       1
  _symmetry_cell_setting            triclinic
  loop_
  _symmetry_equiv_pos_as_xyz
 x,y,z
_cell_length_a 30.8961
_cell_length_b 30.9960
_cell_length_c 30.9656
_cell_angle_alpha 105.329400
_cell_angle_beta 74.405300
_cell_angle_gamma 74.858600
loop_
  _atom_site_label
  _atom_site_type_symbol
  _atom_site_fract_x
  _atom_site_fract_y
  _atom_site_fract_z
C1 C 0.51171 0.47934 0.00301
 C2 C 0.47814 0.51265 -0.00376
 C3 C 0.43177 0.50771 -0.00472
 C4 C 0.48558 0.55651 -0.00979
 C5 C 0.55586 0.48677 0.00851
 C6 C 0.50679 0.43324 0.00445
 C7 C 0.41728 0.51239 -0.04305
 C8 C 0.37259 0.51066 -0.04324
 C9 C 0.34162 0.50452 -0.00492
 C10 C 0.35592 0.49966 0.03342
 C11 C 0.40068 0.50142 0.03360
 C12 C 0.52614 0.55357 -0.04624
 C13 C 0.53210 0.59528 -0.05176
 C14 C 0.49739 0.64020 -0.02119
 C15 C 0.45675 0.64325 0.01484
 C16 C 0.45079 0.60167 0.02042
 C17 C 0.55305 0.52722 0.04460
 C18 C 0.59503 0.53307 0.04975
 C19 C 0.64010 0.49839 0.01914
 C20 C 0.64302 0.45791 -0.01657
 C21 C 0.60118 0.45205 -0.02177
 C22 C 0.51166 0.41896 0.04287
 C23 C 0.51000 0.37449 0.04343
 C24 C 0.50376 0.34363 0.00547
 C25 C 0.49872 0.35765 -0.03292
 C26 C 0.50039 0.40216 -0.03354
 H27 H 0.44056 0.51762 -0.07274
 H28 H 0.36212 0.51463 -0.07312
 H29 H 0.33233 0.49517 0.06352
 H30 H 0.41070 0.49876 0.06399
 H31 H 0.55293 0.51903 -0.07049
 H32 H 0.56356 0.59251 -0.07992
 H33 H 0.41916 0.60469 0.04852
 H34 H 0.51840 0.55396 0.06891
 H35 H 0.59234 0.56441 0.07767
 H36 H 0.67768 0.43080 -0.04035
 H37 H 0.60410 0.42050 -0.04960
 H38 H 0.51699 0.44222 0.07231
 H39 H 0.51411 0.36397 0.07322
 H40 H 0.49417 0.33391 -0.06264
 H41 H 0.49760 0.41200 -0.06401
 H42 H 0.42962 0.67781 0.03860
 C43 C 0.00076 0.52361 0.52630
 C44 C -0.00578 0.49001 0.49279
 C45 C -0.00777 0.44429 0.49817
 C46 C -0.01093 0.49671 0.44847
 C47 C 0.00566 0.56798 0.51943
 C48 C 0.00264 0.51827 0.57210
 C49 C 0.03038 0.41282 0.50389
 C50 C 0.02891 0.36879 0.50639
 C51 C -0.01049 0.35575 0.50287
 C52 C -0.04858 0.38700 0.49725
 C53 C -0.04717 0.43096 0.49476
 C54 C 0.01980 0.46160 0.40355
 C55 C 0.01453 0.46622 0.36147
 C56 C -0.02170 0.50582 0.36378
 C57 C -0.05263 0.54099 0.40844
 C58 C -0.04741 0.53638 0.45069
 C59 C -0.02516 0.61270 0.55466
 C60 C -0.02079 0.65485 0.54928
 C61 C 0.01463 0.65282 0.50880
 C62 C 0.04584 0.60836 0.47365
 C63 C 0.04152 0.56606 0.47902
 C64 C -0.03539 0.51186 0.60351
 C65 C -0.03369 0.50843 0.64719
 C66 C 0.00581 0.51173 0.66002
 C67 C 0.04367 0.51831 0.62896
 C68 C 0.04203 0.52171 0.58530
 H69 H 0.06152 0.42201 0.50561
 H70 H 0.05872 0.34470 0.51043
 H71 H -0.07913 0.37717 0.49428
 H72 H -0.07675 0.45459 0.48999
 H73 H 0.04791 0.43062 0.40114
 H74 H 0.03858 0.43878 0.32710
 H75 H -0.07204 0.56336 0.48506
 H76 H -0.05283 0.61493 0.58618
 H77 H -0.04504 0.68906 0.57674
 H78 H 0.07354 0.60639 0.44230
 H79 H 0.06624 0.53188 0.45190
 H80 H -0.06654 0.51011 0.59444
 H81 H -0.06336 0.50372 0.67116
 H82 H 0.07427 0.52116 0.63865
 H83 H 0.07151 0.52700 0.56172
 H84 H -0.08092 0.57167 0.41060
 C85 C 0.52444 0.00019 0.47402
 C86 C 0.49061 -0.00568 0.50825
 C87 C 0.49717 -0.00986 0.55298
 C88 C 0.44466 -0.00778 0.50328
 C89 C 0.51917 0.00119 0.42791
 C90 C 0.56893 0.00546 0.48051
 C91 C 0.53698 -0.04575 0.55141
 C92 C 0.54131 -0.05025 0.59401
 C93 C 0.50571 -0.01915 0.63850
 C94 C 0.46599 0.01658 0.64016
 C95 C 0.46168 0.02109 0.59769
 C96 C 0.43111 -0.04675 0.50764
 C97 C 0.38702 -0.04831 0.50529
 C98 C 0.35588 -0.01081 0.49887
 C99 C 0.36912 0.02819 0.49448
 C100 C 0.41326 0.02982 0.49685
 C101 C 0.52300 0.03983 0.41356
 C102 C 0.51965 0.04069 0.36966
 C103 C 0.51273 0.00279 0.33944
 C104 C 0.50905 -0.03597 0.35340
 C105 C 0.51243 -0.03689 0.39733
 C106 C 0.56683 0.04179 0.52032
 C107 C 0.60922 0.04641 0.52544
 C108 C 0.65401 0.01501 0.49059
 C109 C 0.65618 -0.02088 0.45063
 C110 C 0.61391 -0.02552 0.44555
 H111 H 0.56426 -0.07056 0.51725
 H112 H 0.57214 -0.07820 0.59216
 H113 H 0.43812 0.04084 0.67427
 H114 H 0.43058 0.04877 0.59965
 H115 H 0.45469 -0.07588 0.51297
 H116 H 0.37702 -0.07853 0.50893
 H117 H 0.42264 0.06062 0.49439
 H118 H 0.52854 0.06936 0.43645
 H119 H 0.52279 0.07074 0.35914
 H120 H 0.50406 -0.06567 0.33012
 H121 H 0.51038 -0.06749 0.40724
 H122 H 0.53244 0.06662 0.54720
 H123 H 0.60699 0.07450 0.55642
 H124 H 0.69056 -0.04535 0.42333
 H125 H 0.61625 -0.05354 0.41448
 H126 H 0.34511 0.05755 0.48982
 O127 O 0.47015 -0.00610 -0.06068
 O128 O 0.46925 0.00917 0.06178
 O129 O 0.46835 0.06304 0.00942
 O130 O 0.46939 -0.05926 -0.00795
 O131 O 0.54874 -0.08724 -0.03597
 O132 O 0.54770 0.03549 -0.01916
 O133 O 0.54860 -0.01830 0.03339
 O134 O 0.54951 -0.03407 -0.08897
 Cu135 Cu 0.46136 0.00450 0.00350
 Cu136 Cu 0.55659 -0.02878 -0.03046
 C137 C 0.50999 -0.02230 -0.09574
 C138 C 0.50886 -0.00249 0.06846
 C139 C 0.50777 0.07020 -0.00253
 C140 C 0.50909 -0.09414 -0.02444
 O141 O -0.08628 0.54884 1.03457
 O142 O 0.03671 0.54774 1.01938
 O143 O -0.01596 0.54837 0.96579
 O144 O -0.03423 0.54973 1.08857
 O145 O -0.00627 0.47072 1.06076
 O146 O 0.01159 0.46937 0.93790
 O147 O 0.06433 0.46874 0.99134
 O148 O -0.05827 0.46984 1.00699
 Cu149 Cu -0.02768 0.55659 1.02982
 Cu150 Cu 0.00566 0.46177 0.99643
 C151 C -0.09321 0.50938 1.02300
 C152 C 0.07150 0.50800 1.00326
 C153 C 0.00030 0.50873 0.93090
 C154 C -0.02294 0.51045 1.09565
 O155 O 0.02397 -0.07247 0.46019
 O156 O 0.00847 0.04987 0.46135
 O157 O 0.07741 -0.01963 0.46002
 O158 O -0.04502 -0.00287 0.46066
 O159 O -0.07366 0.02471 0.53990
 O160 O 0.04898 0.00853 0.53929
 O161 O -0.02032 0.07768 0.54061
 O162 O -0.00424 -0.04445 0.53944
 Cu163 Cu 0.01898 -0.01412 0.45260
 Cu164 Cu -0.01523 0.01934 0.54776
 C165 C 0.01230 -0.07934 0.49973
 C166 C -0.00797 0.08462 0.50120
 C167 C 0.08411 -0.00774 0.49952
 C168 C -0.08027 0.01343 0.50028
 C169 C -0.23332 0.50786 1.02897
 C170 C -0.22618 0.55154 1.04205
 C171 C -0.18083 0.55226 1.04115
 C172 C -0.31641 0.50366 1.02424
 C173 C -0.14989 0.46559 1.01475
 C174 C -0.19519 0.46498 1.01572
 C175 C -0.27903 0.50645 1.02717
 C176 C -0.14203 0.50921 1.02700
 H177 H -0.25543 0.58496 1.05225
 H178 H -0.17595 0.58641 1.05072
 H179 H -0.12086 0.43181 1.00371
 H180 H -0.20028 0.43096 1.00544
 C181 C 0.21295 0.50569 0.99635
 C182 C 0.17500 0.54945 1.01252
 C183 C 0.12911 0.55030 1.01403
 C184 C 0.29917 0.50448 0.99551
 C185 C 0.15913 0.46348 0.98263
 C186 C 0.20497 0.46274 0.98116
 C187 C 0.25992 0.50488 0.99583
 C188 C 0.12057 0.50729 0.99938
 H189 H 0.18079 0.58293 1.02432
 H190 H 0.10023 0.58461 1.02718
 H191 H 0.15381 0.42973 0.97116
 H192 H 0.23408 0.42866 0.96853
 C193 C 0.02117 -0.21971 0.50049
 C194 C 0.00655 -0.18146 0.54371
 C195 C 0.00448 -0.13600 0.54339
 C196 C 0.01867 -0.30336 0.50395
 C197 C 0.03247 -0.16699 0.45636
 C198 C 0.03446 -0.21250 0.45679
 C199 C 0.02061 -0.26569 0.50152
 C200 C 0.01701 -0.12812 0.49973
 H201 H -0.00392 -0.18663 0.57775
 H202 H -0.00754 -0.10691 0.57740
 H203 H 0.04231 -0.16210 0.42216
 H204 H 0.04571 -0.24186 0.42312
 C205 C -0.01285 0.22478 0.50302
 C206 C -0.02872 0.21725 0.54622
 C207 C -0.02809 0.17185 0.54566
 C208 C -0.01137 0.30979 0.50358
 C209 C 0.00369 0.14147 0.45854
 C210 C 0.00301 0.18692 0.45920
 C211 C -0.01217 0.27112 0.50356
 C212 C -0.01150 0.13334 0.50179
 H213 H -0.04113 0.24635 0.58033
 H214 H -0.03995 0.16678 0.57958
 H215 H 0.01674 0.11261 0.42418
 H216 H 0.01532 0.19240 0.42555
 C217 C 0.51070 -0.02815 -0.23610
 C218 C 0.55419 -0.04270 -0.22885
 C219 C 0.55405 -0.04183 -0.18341
 C220 C 0.50898 -0.02362 -0.31977
 C221 C 0.46684 -0.01256 -0.15250
 C222 C 0.46708 -0.01348 -0.19794
 C223 C 0.51047 -0.02641 -0.28204
 C224 C 0.51033 -0.02627 -0.14458
 H225 H 0.58815 -0.05402 -0.25812
 H226 H 0.58814 -0.05256 -0.17852
 H227 H 0.43258 -0.00037 -0.12342
 H228 H 0.43320 -0.00206 -0.20313
 C229 C 0.50919 0.00360 0.20866
 C230 C 0.46554 0.01778 0.20162
 C231 C 0.46531 0.01664 0.15620
 C232 C 0.51069 0.00323 0.29363
 C233 C 0.55250 -0.01237 0.12483
 C234 C 0.55262 -0.01118 0.17024
 C235 C 0.50965 0.00357 0.25505
 C236 C 0.50884 0.00123 0.11718
 H237 H 0.43169 0.02932 0.23111
 H238 H 0.43109 0.02726 0.15152
 H239 H 0.58663 -0.02446 0.09560
 H240 H 0.58663 -0.02220 0.17528
 C241 C 0.50732 -0.23388 -0.03144
 C242 C 0.46431 -0.19584 -0.01816
 C243 C 0.46501 -0.15067 -0.01693
 C244 C 0.50283 -0.31658 -0.02655
 C245 C 0.55206 -0.18157 -0.04327
 C246 C 0.55124 -0.22680 -0.04440
 C247 C 0.50577 -0.27939 -0.02961
 C248 C 0.50886 -0.14285 -0.02897
 H249 H 0.43011 -0.20090 -0.00796
 H250 H 0.43113 -0.12170 -0.00580
 H251 H 0.58638 -0.17671 -0.05267
 H252 H 0.58475 -0.25599 -0.05462
 C253 C 0.50530 0.21131 0.00503
 C254 C 0.46219 0.20335 0.02065
 C255 C 0.46300 0.15764 0.01908
 C256 C 0.50384 0.29715 0.00541
 C257 C 0.55021 0.12770 -0.01319
 C258 C 0.54930 0.17348 -0.01158
 C259 C 0.50439 0.25808 0.00535
 C260 C 0.50704 0.11918 0.00179
 H261 H 0.42793 0.23237 0.03361
 H262 H 0.42912 0.15231 0.03082
 H263 H 0.58469 0.09890 -0.02677
 H264 H 0.58290 0.17925 -0.02373
 C265 C -0.22085 0.02223 0.49887
 C266 C -0.21394 0.03517 0.54267
 C267 C -0.16838 0.03328 0.54332
 C268 C -0.30445 0.01908 0.49505
 C269 C -0.13675 0.00616 0.45631
 C270 C -0.18227 0.00812 0.45577
 C271 C -0.26681 0.02134 0.49761
 C272 C -0.12916 0.01827 0.50007
 H273 H -0.24356 0.04601 0.57623
 H274 H -0.16372 0.04279 0.57758
 H275 H -0.10737 -0.00552 0.42239
 H276 H -0.18721 -0.00209 0.42166
 C277 C 0.22469 -0.01339 0.49835
 C278 C 0.21744 -0.02885 0.45504
 C279 C 0.17189 -0.02799 0.45538
 C280 C 0.30986 -0.01187 0.49810
 C281 C 0.14084 0.00315 0.54252
 C282 C 0.18643 0.00226 0.54206
 C283 C 0.27113 -0.01273 0.49801
 C284 C 0.13297 -0.01158 0.49916
 H285 H 0.24685 -0.04106 0.42101
 H286 H 0.16703 -0.03952 0.42139
 H287 H 0.11164 0.01605 0.57680
 H288 H 0.19170 0.01426 0.57580
 C289 C -0.03134 0.51144 1.23650
 C290 C -0.04524 0.55470 1.22894
 C291 C -0.04366 0.55450 1.18332
 C292 C -0.02692 0.50963 1.32005
 C293 C -0.01505 0.46768 1.15297
 C294 C -0.01670 0.46800 1.19858
 C295 C -0.02979 0.51121 1.28243
 C296 C -0.02798 0.51092 1.14469
 H297 H -0.05650 0.58852 1.25805
 H298 H -0.05382 0.58839 1.17812
 H299 H -0.00282 0.43355 1.12403
 H300 H -0.00574 0.43430 1.20406
 C301 C 0.00788 0.50851 0.79037
 C302 C 0.02186 0.46513 0.79773
 C303 C 0.02039 0.46507 0.84325
 C304 C 0.00695 0.50976 0.70560
 C305 C -0.00840 0.55189 0.87401
 C306 C -0.00688 0.55183 0.82849
 C307 C 0.00766 0.50881 0.74406
 C308 C 0.00483 0.50850 0.88201
 H309 H 0.03335 0.43138 0.76844
 H310 H 0.03073 0.43108 0.84823
 H311 H -0.02058 0.58593 0.90305
 H312 H -0.01775 0.58562 0.82316
   
