data_POSCAR
  _audit_creation_date              2014-09-24
  _audit_creation_method            'ToBaCCo'
  _symmetry_space_group_name_H-M    'P1'
  _symmetry_Int_Tables_number       1
  _symmetry_cell_setting            triclinic
  loop_
  _symmetry_equiv_pos_as_xyz
 x,y,z
_cell_length_a 41.7238
_cell_length_b 41.1053
_cell_length_c 41.7739
_cell_angle_alpha 90.422900
_cell_angle_beta 92.587500
_cell_angle_gamma 91.035100
loop_
  _atom_site_label
  _atom_site_type_symbol
  _atom_site_fract_x
  _atom_site_fract_y
  _atom_site_fract_z
C1 C 0.70680 0.66289 0.95841
 H2 H 0.72890 0.66032 0.94618
 C3 C 0.68093 0.67819 0.94308
 H4 H 0.68324 0.68783 0.91923
 C5 C 0.67591 0.65161 1.00343
 H6 H 0.67374 0.64044 1.02654
 C7 C 0.64943 0.66708 0.98901
 H8 H 0.62713 0.66792 1.00123
 N9 N 0.70395 0.64996 0.98804
 C10 C 0.79081 0.64837 1.04560
 H11 H 0.78382 0.62769 1.05961
 C12 C 0.81824 0.66625 1.05527
 H13 H 0.83152 0.65940 1.07697
 C14 C 0.78348 0.68096 0.99939
 H15 H 0.77027 0.68618 0.97728
 C16 C 0.81114 0.69935 1.00807
 H17 H 0.81897 0.71881 0.99277
 Zn18 Zn 0.73985 0.62682 1.00436
 N19 N 0.77400 0.65579 1.01804
 C20 C 0.78516 0.60373 0.96245
 N21 N 0.75411 0.60058 0.97065
 C22 C 0.73302 0.58046 0.95397
 C23 C 0.74285 0.56305 0.92732
 C24 C 0.79581 0.58718 0.93588
 C25 C 0.72051 0.61530 1.06697
 C26 C 0.71862 0.59760 1.09523
 C27 C 0.73347 0.54941 1.06631
 C28 C 0.73509 0.56800 1.03857
 N29 N 0.72934 0.60048 1.03956
 H30 H 0.80166 0.61953 0.97614
 H31 H 0.70842 0.57850 0.96098
 H32 H 0.72587 0.54755 0.91374
 H33 H 0.82049 0.59048 0.92943
 H34 H 0.71697 0.64130 1.06736
 H35 H 0.71307 0.60987 1.11730
 H36 H 0.73952 0.52389 1.06569
 H37 H 0.74269 0.55679 1.01678
 C38 C 0.82894 0.69182 1.03613
 C39 C 0.65194 0.68029 0.95832
 C40 C 0.72592 0.56454 1.09501
 C41 C 0.77437 0.56694 0.91770
 C42 C 0.71861 0.33891 0.53445
 H43 H 0.74160 0.33733 0.54735
 C44 C 0.69167 0.32310 0.54616
 H45 H 0.69413 0.30907 0.56793
 C46 C 0.68701 0.36054 0.49137
 H47 H 0.68493 0.37586 0.47054
 C48 C 0.65964 0.34463 0.50189
 H49 H 0.63676 0.34762 0.48906
 N50 N 0.71569 0.35790 0.50796
 C51 C 0.80961 0.37355 0.46752
 H52 H 0.80840 0.39934 0.46307
 C53 C 0.83555 0.35625 0.45680
 H54 H 0.85448 0.36907 0.44493
 C55 C 0.78524 0.32509 0.48591
 H56 H 0.76543 0.31298 0.49694
 C57 C 0.81046 0.30670 0.47481
 H58 H 0.81008 0.28051 0.47742
 Zn59 Zn 0.75120 0.38410 0.49598
 N60 N 0.78544 0.35802 0.48245
 C61 C 0.79383 0.42772 0.52998
 N62 N 0.76549 0.41100 0.53139
 C63 C 0.74814 0.41215 0.55825
 C64 C 0.76023 0.42876 0.58565
 C65 C 0.80684 0.44441 0.55683
 C66 C 0.73397 0.39454 0.43223
 C67 C 0.72121 0.41096 0.40572
 C68 C 0.71723 0.45912 0.43879
 C69 C 0.73017 0.44172 0.46481
 N70 N 0.73778 0.40991 0.46108
 H71 H 0.80697 0.42747 0.50840
 H72 H 0.72517 0.39970 0.55876
 H73 H 0.74674 0.42844 0.60719
 H74 H 0.83006 0.45648 0.55586
 H75 H 0.74003 0.36916 0.43010
 H76 H 0.71777 0.39807 0.38310
 H77 H 0.71049 0.48422 0.44193
 H78 H 0.73324 0.45325 0.48812
 C79 C 0.83612 0.32240 0.46050
 C80 C 0.66166 0.32648 0.53000
 C81 C 0.71224 0.44354 0.40903
 C82 C 0.79034 0.44441 0.58516
 C83 C 0.21627 -0.16337 0.02103
 H84 H 0.24061 -0.16823 0.02943
 C85 C 0.19088 -0.18218 0.03188
 H86 H 0.19561 -0.20166 0.04866
 C87 C 0.18017 -0.13114 -0.01000
 H88 H 0.17613 -0.11081 -0.02585
 C89 C 0.15400 -0.14922 0.00053
 H90 H 0.12990 -0.14277 -0.00740
 N91 N 0.21055 -0.13839 0.00052
 C92 C 0.30312 -0.12028 -0.04070
 H93 H 0.30527 -0.09432 -0.03643
 C94 C 0.32833 -0.13688 -0.05375
 H95 H 0.34980 -0.12356 -0.05983
 C96 C 0.27261 -0.16929 -0.03743
 H97 H 0.25089 -0.18180 -0.03094
 C98 C 0.29705 -0.18676 -0.05110
 H99 H 0.29419 -0.21274 -0.05503
 Zn100 Zn 0.24616 -0.11219 -0.01003
 N101 N 0.27649 -0.13678 -0.03171
 C102 C 0.29640 -0.10458 0.03728
 N103 N 0.26577 -0.09590 0.02917
 C104 C 0.24868 -0.07765 0.04950
 C105 C 0.26275 -0.06666 0.07883
 C106 C 0.31137 -0.09389 0.06602
 C107 C 0.22353 -0.08735 -0.06846
 C108 C 0.21614 -0.06383 -0.09150
 C109 C 0.22814 -0.02218 -0.05139
 C110 C 0.23572 -0.04647 -0.02921
 N111 N 0.23324 -0.07837 -0.03807
 H112 H 0.30932 -0.12027 0.02183
 H113 H 0.22409 -0.07174 0.04298
 H114 H 0.24905 -0.05198 0.09470
 H115 H 0.33584 -0.10075 0.07203
 H116 H 0.22231 -0.11288 -0.07498
 H117 H 0.20942 -0.07141 -0.11576
 H118 H 0.23050 0.00318 -0.04422
 H119 H 0.24413 -0.03978 -0.00520
 C120 C 0.32555 -0.17064 -0.05850
 C121 C 0.15941 -0.17489 0.02199
 C122 C 0.21843 -0.03088 -0.08288
 C123 C 0.29461 -0.07480 0.08707
 C124 C 0.22204 0.17848 0.46378
 H125 H 0.24400 0.17835 0.45118
 C126 C 0.19539 0.19404 0.45004
 H127 H 0.19707 0.20575 0.42702
 C128 C 0.19202 0.16196 0.50782
 H129 H 0.19052 0.14888 0.53004
 C130 C 0.16480 0.17743 0.49496
 H131 H 0.14259 0.17601 0.50735
 N132 N 0.21962 0.16168 0.49155
 C133 C 0.31425 0.13146 0.52800
 H134 H 0.31020 0.10568 0.52375
 C135 C 0.34397 0.14272 0.54018
 H136 H 0.36286 0.12563 0.54564
 C137 C 0.29447 0.18520 0.52602
 H138 H 0.27502 0.20149 0.52022
 C139 C 0.32429 0.19764 0.53790
 H140 H 0.32768 0.22358 0.54164
 Zn141 Zn 0.25236 0.13182 0.50397
 N142 N 0.29011 0.15254 0.52156
 C143 C 0.28594 0.12871 0.44939
 N144 N 0.26575 0.11009 0.46657
 C145 C 0.25791 0.07897 0.45732
 C146 C 0.27023 0.06589 0.42929
 C147 C 0.29856 0.11676 0.42156
 C148 C 0.24917 0.10484 0.56565
 C149 C 0.23504 0.08835 0.59058
 C150 C 0.19387 0.06792 0.55285
 C151 C 0.20907 0.08452 0.52839
 N152 N 0.23593 0.10305 0.53526
 H153 H 0.29269 0.15298 0.45758
 H154 H 0.24232 0.06428 0.47156
 H155 H 0.26398 0.04118 0.42200
 H156 H 0.31463 0.13193 0.40822
 H157 H 0.26981 0.12040 0.57112
 H158 H 0.24544 0.09103 0.61469
 H159 H 0.17179 0.05434 0.54745
 H160 H 0.19842 0.08410 0.50430
 C161 C 0.34927 0.17599 0.54515
 C162 C 0.16619 0.19268 0.46512
 C163 C 0.20662 0.07023 0.58439
 C164 C 0.29079 0.08521 0.41122
 C165 C 0.17046 0.45231 0.21183
 H166 H 0.16916 0.44138 0.23511
 C167 C 0.18810 0.43713 0.18855
 H168 H 0.20005 0.41454 0.19399
 C169 C 0.15579 0.49413 0.17562
 H170 H 0.14286 0.51613 0.17045
 C171 C 0.17336 0.47981 0.15167
 H172 H 0.17360 0.49084 0.12823
 N173 N 0.15378 0.47969 0.20474
 C174 C 0.12361 0.51660 0.29642
 H175 H 0.09804 0.51424 0.29116
 C176 C 0.13495 0.52753 0.32645
 H177 H 0.11814 0.53388 0.34439
 C178 C 0.17675 0.51163 0.27922
 H179 H 0.19277 0.50542 0.26057
 C180 C 0.18920 0.52239 0.30931
 H181 H 0.21490 0.52475 0.31374
 Zn182 Zn 0.12392 0.49509 0.23438
 N183 N 0.14441 0.50932 0.27341
 C184 C 0.11095 0.43921 0.26705
 N185 N 0.09664 0.45981 0.24575
 C186 C 0.06526 0.45541 0.23586
 C187 C 0.04733 0.42902 0.24728
 C188 C 0.09411 0.41286 0.27895
 C189 C 0.10514 0.56053 0.23031
 C190 C 0.09035 0.58779 0.21707
 C191 C 0.06661 0.55346 0.17493
 C192 C 0.08169 0.52669 0.18914
 N193 N 0.10063 0.53064 0.21635
 H194 H 0.13542 0.44377 0.27567
 H195 H 0.05398 0.47238 0.21950
 H196 H 0.02237 0.42566 0.23953
 H197 H 0.10624 0.39713 0.29607
 H198 H 0.12093 0.56363 0.25132
 H199 H 0.09464 0.61135 0.22835
 H200 H 0.05204 0.55025 0.15299
 H201 H 0.07904 0.50293 0.17794
 C202 C 0.16791 0.53064 0.33309
 C203 C 0.18897 0.45042 0.15792
 C204 C 0.07102 0.58439 0.18888
 C205 C 0.06181 0.40751 0.26919
 C206 C -0.16529 0.02312 0.19787
 H207 H -0.15354 0.04510 0.20715
 C208 C -0.18339 0.02387 0.16883
 H209 H -0.18543 0.04647 0.15583
 C210 C -0.17553 -0.03357 0.20243
 H211 H -0.17174 -0.05598 0.21536
 C212 C -0.19399 -0.03385 0.17373
 H213 H -0.20455 -0.05654 0.16459
 N214 N -0.16170 -0.00538 0.21394
 C215 C -0.14241 -0.02173 0.31589
 H216 H -0.11734 -0.01445 0.31776
 C217 C -0.15776 -0.03230 0.34302
 H218 H -0.14437 -0.03321 0.36578
 C219 C -0.19019 -0.02985 0.28368
 H220 H -0.20281 -0.02868 0.26059
 C221 C -0.20642 -0.04078 0.31021
 H222 H -0.23140 -0.04833 0.30742
 Zn223 Zn -0.13471 -0.00833 0.25142
 N224 N -0.15855 -0.02128 0.28686
 C225 C -0.13533 0.05394 0.27630
 N226 N -0.11559 0.03261 0.26235
 C227 C -0.08382 0.03969 0.25958
 C228 C -0.07078 0.06924 0.27151
 C229 C -0.12313 0.08318 0.28930
 C230 C -0.10432 -0.06854 0.26055
 C231 C -0.08587 -0.09485 0.25182
 C232 C -0.06600 -0.06299 0.20836
 C233 C -0.08508 -0.03726 0.21777
 N234 N -0.10398 -0.04056 0.24331
 H235 H -0.16040 0.04756 0.27848
 H236 H -0.06841 0.02217 0.24895
 H237 H -0.04537 0.07439 0.26994
 H238 H -0.13878 0.09944 0.30148
 H239 H -0.12014 -0.07126 0.28013
 H240 H -0.08733 -0.11744 0.26490
 H241 H -0.05198 -0.06044 0.18732
 H242 H -0.08593 -0.01519 0.20384
 C243 C -0.19009 -0.04238 0.34011
 C244 C -0.19784 -0.00495 0.15665
 C245 C -0.06692 -0.09243 0.22522
 C246 C -0.09060 0.09096 0.28711
 C247 C 0.32349 0.53210 0.71032
 H248 H 0.32279 0.54702 0.73171
 C249 C 0.30918 0.54283 0.68151
 H250 H 0.29718 0.56596 0.68094
 C251 C 0.34151 0.48461 0.68461
 H252 H 0.35488 0.46238 0.68565
 C253 C 0.32711 0.49419 0.65546
 H254 H 0.32929 0.47925 0.63424
 N255 N 0.33983 0.50378 0.71119
 C256 C 0.35609 0.46407 0.80668
 H257 H 0.38199 0.46639 0.80810
 C258 C 0.34012 0.45035 0.83194
 H259 H 0.35391 0.44197 0.85275
 C260 C 0.30681 0.47213 0.77750
 H261 H 0.29411 0.48075 0.75616
 C262 C 0.28982 0.45796 0.80216
 H263 H 0.26392 0.45562 0.79989
 Zn264 Zn 0.36458 0.49406 0.74879
 N265 N 0.33934 0.47520 0.78045
 C266 C 0.37804 0.54232 0.79571
 N267 N 0.38401 0.53325 0.76520
 C268 C 0.40227 0.55242 0.74642
 C269 C 0.41619 0.58146 0.75870
 C270 C 0.39163 0.57077 0.80889
 C271 C 0.38441 0.43184 0.73635
 C272 C 0.40469 0.40704 0.72788
 C273 C 0.44794 0.44671 0.72524
 C274 C 0.42681 0.47086 0.73416
 N275 N 0.39555 0.46307 0.73892
 H276 H 0.36253 0.52773 0.81000
 H277 H 0.40592 0.54521 0.72192
 H278 H 0.43091 0.59643 0.74376
 H279 H 0.38702 0.57753 0.83335
 H280 H 0.35946 0.42633 0.74029
 H281 H 0.39512 0.38246 0.72528
 H282 H 0.47259 0.45306 0.72060
 H283 H 0.43529 0.49575 0.73663
 C284 C 0.30654 0.44737 0.82989
 C285 C 0.31155 0.52395 0.65355
 C286 C 0.43679 0.41451 0.72180
 C287 C 0.41093 0.59052 0.79047
 C288 C 0.66272 0.95069 0.72234
 H289 H 0.65282 0.93630 0.74117
 C290 C 0.67258 0.93526 0.69477
 H291 H 0.67030 0.90905 0.69242
 C292 C 0.67736 1.00226 0.70184
 H293 H 0.67858 1.02844 0.70466
 C294 C 0.68748 0.98773 0.67372
 H295 H 0.69679 1.00277 0.65499
 N296 N 0.66489 0.98364 0.72523
 C297 C 0.67158 1.03041 0.81963
 H298 H 0.64667 1.03016 0.82578
 C299 C 0.69541 1.04025 0.84244
 H300 H 0.68874 1.04748 0.86616
 C301 C 0.71077 1.01934 0.78182
 H302 H 0.71672 1.01063 0.75841
 C303 C 0.73529 1.02932 0.80376
 H304 H 0.76006 1.02829 0.79711
 Zn305 Zn 0.64683 1.00363 0.76099
 N306 N 0.67962 1.01993 0.79009
 C307 C 0.63489 0.95649 0.80753
 N308 N 0.62184 0.97175 0.78140
 C309 C 0.59307 0.96182 0.76764
 C310 C 0.57649 0.93519 0.77993
 C311 C 0.61908 0.92991 0.82059
 C312 C 0.62052 1.06712 0.76044
 C313 C 0.60338 1.09272 0.74659
 C314 C 0.58709 1.05718 0.70225
 C315 C 0.60409 1.03218 0.71710
 N316 N 0.62067 1.03760 0.74549
 H317 H 0.65824 0.96400 0.81746
 H318 H 0.58345 0.97385 0.74652
 H319 H 0.55398 0.92708 0.76838
 H320 H 0.62996 0.91742 0.84095
 H321 H 0.63422 1.07114 0.78270
 H322 H 0.60396 1.11629 0.75835
 H323 H 0.57474 1.05294 0.67919
 H324 H 0.60504 1.00869 0.70539
 C325 C 0.72759 1.03964 0.83441
 C326 C 0.68465 0.95381 0.67002
 C327 C 0.58686 1.08780 0.71688
 C328 C 0.58990 0.91878 0.80649
 C329 C 0.00414 0.20637 -0.16232
 H330 H 0.01086 0.23072 -0.16941
 C331 C 0.01568 0.17953 -0.17867
 H332 H 0.03105 0.18340 -0.19853
 C333 C -0.02218 0.17171 -0.12634
 H334 H -0.03586 0.16866 -0.10522
 C335 C -0.01097 0.14423 -0.14188
 H336 H -0.01644 0.12021 -0.13292
 N337 N -0.01431 0.20207 -0.13659
 C338 C -0.05409 0.29835 -0.12030
 H339 H -0.04913 0.29995 -0.09468
 C340 C -0.06574 0.32531 -0.13686
 H341 H -0.07022 0.34748 -0.12379
 C342 C -0.05299 0.26780 -0.16859
 H343 H -0.04754 0.24550 -0.18088
 C344 C -0.06528 0.29408 -0.18605
 H345 H -0.06933 0.29196 -0.21178
 Zn346 Zn -0.02396 0.23934 -0.11199
 N347 N -0.04665 0.27084 -0.13644
 C348 C 0.02440 0.28863 -0.10556
 N349 N 0.01603 0.25781 -0.09711
 C350 C 0.03635 0.23939 -0.07873
 C351 C 0.06585 0.25237 -0.06703
 C352 C 0.05342 0.30256 -0.09420
 C353 C -0.07759 0.21205 -0.08241
 C354 C -0.09559 0.20154 -0.05686
 C355 C -0.05515 0.22536 -0.02017
 C356 C -0.03780 0.23513 -0.04634
 N357 N -0.04884 0.22772 -0.07673
 H358 H 0.00877 0.30254 -0.12124
 H359 H 0.02942 0.21472 -0.07289
 H360 H 0.08162 0.23767 -0.05206
 H361 H 0.05968 0.32725 -0.10069
 H362 H -0.08605 0.20687 -0.10681
 H363 H -0.11780 0.18798 -0.06162
 H364 H -0.04576 0.23070 0.00395
 H365 H -0.01542 0.24842 -0.04226
 C366 C -0.07064 0.32351 -0.17028
 C367 C 0.00850 0.14801 -0.16801
 C368 C -0.08407 0.20804 -0.02542
 C369 C 0.07431 0.28450 -0.07464
 C370 C 0.46346 0.21948 0.15102
 H371 H 0.45324 0.24305 0.14622
 C372 C 0.44660 0.19656 0.16860
 H373 H 0.42352 0.20257 0.17768
 C374 C 0.50506 0.18202 0.14348
 H375 H 0.52745 0.17615 0.13298
 C376 C 0.48913 0.15851 0.16115
 H377 H 0.49960 0.13478 0.16427
 N378 N 0.49193 0.21172 0.13851
 C379 C 0.55176 0.29486 0.11419
 H380 H 0.55853 0.28604 0.09104
 C381 C 0.56401 0.32462 0.12577
 H382 H 0.58074 0.33841 0.11187
 C383 C 0.52031 0.28869 0.15974
 H384 H 0.50271 0.27489 0.17246
 C385 C 0.53192 0.31862 0.17215
 H386 H 0.52352 0.32755 0.19467
 Zn387 Zn 0.51067 0.24098 0.10957
 N388 N 0.53012 0.27765 0.13103
 C389 C 0.47376 0.28937 0.08003
 N390 N 0.47714 0.25656 0.08182
 C391 C 0.45432 0.23580 0.06858
 C392 C 0.42606 0.24803 0.05415
 C393 C 0.44603 0.30246 0.06611
 C394 C 0.57226 0.21822 0.10238
 C395 C 0.59768 0.20352 0.08771
 C396 C 0.56178 0.18963 0.04250
 C397 C 0.53708 0.20540 0.05774
 N398 N 0.54278 0.21933 0.08717
 H399 H 0.49169 0.30566 0.09090
 H400 H 0.45717 0.20981 0.07093
 H401 H 0.40735 0.23138 0.04506
 H402 H 0.44299 0.32857 0.06622
 H403 H 0.57606 0.22897 0.12598
 H404 H 0.62098 0.20302 0.10018
 H405 H 0.55713 0.17838 0.01919
 H406 H 0.51340 0.20634 0.04620
 C407 C 0.55372 0.33701 0.15467
 C408 C 0.45923 0.16559 0.17344
 C409 C 0.59254 0.18903 0.05737
 C410 C 0.42159 0.28181 0.05379
 C411 C 0.96428 0.71987 0.67631
 H412 H 0.95244 0.74290 0.67433
 C413 C 0.95054 0.69506 0.69403
 H414 H 0.92812 0.69908 0.70541
 C415 C 1.00688 0.68569 0.66299
 H416 H 1.02871 0.68197 0.65063
 C417 C 0.99396 0.66019 0.68063
 H418 H 1.00575 0.63695 0.68139
 N419 N 0.99128 0.71445 0.66015
 C420 C 1.02720 0.80937 0.63018
 H421 H 1.02287 0.80634 0.60459
 C422 C 1.04023 0.83852 0.64247
 H423 H 1.04613 0.85804 0.62636
 C424 C 1.02522 0.78744 0.68244
 H425 H 1.01947 0.76728 0.69777
 C426 C 1.03780 0.81660 0.69584
 H427 H 1.04188 0.81879 0.72155
 Zn428 Zn 1.00410 0.74591 0.62972
 N429 N 1.02056 0.78436 0.65007
 C430 C 0.94746 0.77883 0.61827
 N431 N 0.96753 0.75802 0.60409
 C432 C 0.96157 0.74764 0.57329
 C433 C 0.93392 0.75750 0.55599
 C434 C 0.91966 0.78909 0.60202
 C435 C 1.06510 0.74295 0.60262
 C436 C 1.08898 0.72943 0.58468
 C437 C 1.05268 0.68477 0.57018
 C438 C 1.02923 0.69945 0.58791
 N439 N 1.03582 0.72796 0.60386
 H440 H 0.95324 0.78784 0.64224
 H441 H 0.97810 0.73178 0.56202
 H442 H 0.92920 0.74907 0.53159
 H443 H 0.90407 0.80559 0.61395
 H444 H 1.07036 0.76508 0.61602
 H445 H 1.11228 0.74143 0.58432
 H446 H 1.04753 0.66170 0.55817
 H447 H 1.00600 0.68765 0.58970
 C448 C 1.04570 0.84231 0.67550
 C449 C 0.96486 0.66463 0.69549
 C450 C 1.08284 0.69984 0.56846
 C451 C 0.91252 0.77821 0.57051
 C452 C 0.52759 0.71860 0.31882
 H453 H 0.53966 0.74170 0.31572
 C454 C 0.53849 0.69104 0.30307
 H455 H 0.55860 0.69338 0.28771
 C456 C 0.48827 0.68678 0.34403
 H457 H 0.46946 0.68475 0.36082
 C458 C 0.49834 0.65872 0.32870
 H459 H 0.48696 0.63548 0.33347
 N460 N 0.50310 0.71603 0.33919
 C461 C 0.45332 0.80515 0.34312
 H462 H 0.43412 0.79348 0.35538
 C463 C 0.44943 0.83712 0.33262
 H464 H 0.42720 0.84946 0.33656
 C465 C 0.50698 0.80551 0.32677
 H466 H 0.53007 0.79415 0.32660
 C467 C 0.50406 0.83742 0.31595
 H468 H 0.52477 0.85003 0.30689
 Zn469 Zn 0.49163 0.75219 0.36502
 N470 N 0.48205 0.79022 0.34076
 C471 C 0.52368 0.79270 0.40950
 N472 N 0.52669 0.76431 0.39309
 C473 C 0.55447 0.74739 0.39494
 C474 C 0.58105 0.75966 0.41313
 C475 C 0.54959 0.80579 0.42780
 C476 C 0.42760 0.73234 0.37362
 C477 C 0.40129 0.72199 0.39059
 C478 C 0.43402 0.72691 0.43965
 C479 C 0.45965 0.73755 0.42179
 N480 N 0.45605 0.73999 0.38936
 H481 H 0.50139 0.80571 0.40742
 H482 H 0.55631 0.72487 0.38170
 H483 H 0.60332 0.74653 0.41373
 H484 H 0.54730 0.82893 0.43997
 H485 H 0.42555 0.73387 0.34777
 H486 H 0.37896 0.71564 0.37767
 H487 H 0.43720 0.72444 0.46538
 H488 H 0.48257 0.74315 0.43382
 C489 C 0.47536 0.85372 0.31981
 C490 C 0.52399 0.66059 0.30845
 C491 C 0.40455 0.71901 0.42403
 C492 C 0.57872 0.78954 0.42931
 C493 C 0.42521 -0.01482 0.29640
 H494 H 0.42426 0.01067 0.30289
 C495 C 0.44896 -0.03421 0.31030
 H496 H 0.46639 -0.02371 0.32757
 C497 C 0.40402 -0.05951 0.26551
 H498 H 0.38644 -0.06916 0.24799
 C499 C 0.42703 -0.08008 0.27956
 H500 H 0.42728 -0.10550 0.27260
 N501 N 0.40392 -0.02739 0.27380
 C502 C 0.38316 0.06492 0.22708
 H503 H 0.35747 0.06631 0.22912
 C504 C 0.40010 0.09076 0.21366
 H505 H 0.38733 0.11204 0.20542
 C506 C 0.43099 0.03512 0.23438
 H507 H 0.44293 0.01310 0.24160
 C508 C 0.44871 0.06015 0.22076
 H509 H 0.47422 0.05750 0.21802
 Zn510 Zn 0.37503 0.00303 0.25545
 N511 N 0.39886 0.03806 0.23777
 C512 C 0.35324 0.04866 0.30043
 N513 N 0.34962 0.01766 0.28908
 C514 C 0.33012 -0.00426 0.30338
 C515 C 0.31313 0.00482 0.33008
 C516 C 0.33677 0.05870 0.32698
 C517 C 0.36551 -0.02845 0.19674
 C518 C 0.34878 -0.04041 0.16936
 C519 C 0.29916 -0.02540 0.19268
 C520 C 0.31687 -0.01393 0.21986
 N521 N 0.34947 -0.01567 0.22133
 H522 H 0.36969 0.06541 0.28963
 H523 H 0.32823 -0.02899 0.29434
 H524 H 0.29795 -0.01284 0.34152
 H525 H 0.34035 0.08338 0.33580
 H526 H 0.39146 -0.02888 0.19826
 H527 H 0.36207 -0.05028 0.14997
 H528 H 0.27327 -0.02358 0.19143
 H529 H 0.30464 -0.00286 0.23931
 C530 C 0.43335 0.08839 0.21051
 C531 C 0.45010 -0.06707 0.30186
 C532 C 0.31515 -0.03870 0.16706
 C533 C 0.31659 0.03653 0.34229
 C534 C 0.07791 1.03983 0.78962
 H535 H 0.08100 1.01846 0.80419
 C536 C 0.05820 1.06461 0.79986
 H537 H 0.04573 1.06163 0.82184
 C538 C 0.09284 1.07125 0.74520
 H539 H 0.10729 1.07453 0.72467
 C540 C 0.07355 1.09669 0.75471
 H541 H 0.07295 1.11907 0.74120
 N542 N 0.09487 1.04349 0.76274
 C543 C 0.11410 0.95531 0.71611
 H544 H 0.13157 0.96625 0.70108
 C545 C 0.09963 0.92582 0.70656
 H546 H 0.10580 0.91485 0.68407
 C547 C 0.08579 0.95532 0.76396
 H548 H 0.08062 0.96666 0.78646
 C549 C 0.07112 0.92534 0.75552
 H550 H 0.05447 0.91397 0.77135
 Zn551 Zn 0.12602 1.01166 0.75381
 N552 N 0.10647 0.97004 0.74399
 C553 C 0.15731 0.98156 0.80819
 N554 N 0.15333 1.00949 0.79125
 C555 C 0.16707 1.03808 0.80180
 C556 C 0.18589 1.03933 0.83024
 C557 C 0.17565 0.98188 0.83714
 C558 C 0.13371 1.02915 0.68922
 C559 C 0.15005 1.03863 0.66224
 C560 C 0.19932 1.04043 0.69486
 C561 C 0.18215 1.03046 0.72114
 N562 N 0.14983 1.02532 0.71803
 H563 H 0.14590 0.95916 0.79958
 H564 H 0.16310 1.06002 0.78814
 H565 H 0.19673 1.06224 0.83838
 H566 H 0.17810 0.95967 0.85056
 H567 H 0.10806 1.02471 0.68724
 H568 H 0.13681 1.04182 0.63963
 H569 H 0.22495 1.04493 0.69765
 H570 H 0.19471 1.02682 0.74397
 C571 C 0.07754 0.91070 0.72623
 C572 C 0.05637 1.09368 0.78251
 C573 C 0.18328 1.04453 0.66507
 C574 C 0.19019 1.01116 0.84834
 C575 C 0.57654 0.54228 0.26593
 H576 H 0.56773 0.51886 0.27346
 C577 C 0.56121 0.57047 0.27553
 H578 H 0.54058 0.56839 0.29023
 C579 C 0.61494 0.57378 0.23905
 H580 H 0.63647 0.57517 0.22570
 C581 C 0.60036 0.60251 0.24813
 H582 H 0.61047 0.62579 0.24141
 N583 N 0.60298 0.54435 0.24807
 C584 C 0.60409 0.46074 0.19032
 H585 H 0.62092 0.47297 0.17548
 C586 C 0.58948 0.43175 0.17928
 H587 H 0.59479 0.42257 0.15578
 C588 C 0.57850 0.45625 0.23962
 H589 H 0.57573 0.46482 0.26381
 C590 C 0.56324 0.42716 0.22940
 H591 H 0.54803 0.41402 0.24540
 Zn592 Zn 0.62585 0.50614 0.23816
 N593 N 0.59882 0.47224 0.22023
 C594 C 0.65620 0.45839 0.27400
 N595 N 0.64519 0.48923 0.27595
 C596 C 0.64852 0.50691 0.30362
 C597 C 0.66384 0.49352 0.33081
 C598 C 0.67149 0.44414 0.30052
 C599 C 0.65103 0.53014 0.18070
 C600 C 0.67489 0.53683 0.15912
 C601 C 0.71410 0.51550 0.19737
 C602 C 0.68964 0.50951 0.21830
 N603 N 0.65870 0.51644 0.20956
 H604 H 0.65331 0.44498 0.25165
 H605 H 0.63962 0.53143 0.30448
 H606 H 0.66652 0.50773 0.35272
 H607 H 0.68025 0.41958 0.29877
 H608 H 0.62629 0.53561 0.17436
 H609 H 0.66843 0.54749 0.13617
 H610 H 0.73859 0.50957 0.20439
 H611 H 0.69549 0.49911 0.24142
 C612 C 0.56936 0.41424 0.19929
 C613 C 0.57344 0.60104 0.26679
 C614 C 0.70684 0.52915 0.16749
 C615 C 0.67552 0.46175 0.32915
 C616 C 0.90915 0.46700 0.80405
 H617 H 0.91367 0.49072 0.81488
 C618 C 0.92048 0.43915 0.81948
 H619 H 0.93411 0.44140 0.84209
 C620 C 0.88433 0.43475 0.76230
 H621 H 0.86934 0.43300 0.74058
 C622 C 0.89546 0.40632 0.77678
 H623 H 0.88931 0.38296 0.76582
 N624 N 0.89109 0.46430 0.77621
 C625 C 0.88681 0.56058 0.73349
 H626 H 0.86094 0.56228 0.73223
 C627 C 0.90560 0.58633 0.72302
 H628 H 0.89398 0.60771 0.71340
 C629 C 0.93315 0.53030 0.74747
 H630 H 0.94361 0.50835 0.75708
 C631 C 0.95298 0.55544 0.73660
 H632 H 0.97878 0.55286 0.73775
 Zn633 Zn 0.87100 0.50209 0.76017
 N634 N 0.90071 0.53355 0.74595
 C635 C 0.86041 0.54911 0.80693
 N636 N 0.84859 0.52052 0.79421
 C637 C 0.82383 0.50433 0.80763
 C638 C 0.80948 0.51743 0.83444
 C639 C 0.84708 0.56274 0.83369
 C640 C 0.86020 0.48335 0.69752
 C641 C 0.84362 0.47417 0.66915
 C642 C 0.79376 0.48090 0.69551
 C643 C 0.81139 0.49053 0.72343
 N644 N 0.84405 0.49097 0.72401
 H645 H 0.88100 0.56098 0.79714
 H646 H 0.81569 0.48098 0.79797
 H647 H 0.78997 0.50434 0.84512
 H648 H 0.85700 0.58526 0.84385
 H649 H 0.88616 0.48409 0.69863
 H650 H 0.85702 0.46770 0.64852
 H651 H 0.76781 0.47986 0.69528
 H652 H 0.79896 0.49723 0.74455
 C653 C 0.93914 0.58398 0.72466
 C654 C 0.91330 0.40847 0.80604
 C655 C 0.80997 0.47257 0.66807
 C656 C 0.82147 0.54695 0.84767
 C657 C 0.28964 0.39991 -0.03493
 H658 H 0.30159 0.40067 -0.01140
 C659 C 0.30296 0.41654 -0.06025
 H660 H 0.32521 0.43024 -0.05629
 C661 C 0.24684 0.37995 -0.06932
 H662 H 0.22559 0.36479 -0.07307
 C663 C 0.25916 0.39658 -0.09525
 H664 H 0.24709 0.39437 -0.11867
 N665 N 0.26215 0.38196 -0.03985
 C666 C 0.23048 0.37080 0.05751
 H667 H 0.23138 0.34460 0.05949
 C668 C 0.22097 0.38950 0.08331
 H669 H 0.21450 0.37751 0.10514
 C670 C 0.23680 0.41811 0.02610
 H671 H 0.24244 0.42904 0.00354
 C672 C 0.22688 0.43771 0.05120
 H673 H 0.22505 0.46373 0.04801
 Zn674 Zn 0.24862 0.35747 -0.00459
 N675 N 0.23833 0.38527 0.02969
 C676 C 0.30143 0.33888 0.03470
 N677 N 0.28335 0.33062 0.00788
 C678 C 0.29206 0.30606 -0.01181
 C679 C 0.31971 0.28831 -0.00443
 C680 C 0.32955 0.32238 0.04249
 C681 C 0.18542 0.35086 -0.02623
 C682 C 0.15677 0.33546 -0.03655
 C683 C 0.18043 0.28363 -0.02386
 C684 C 0.20890 0.30007 -0.01406
 N685 N 0.21103 0.33307 -0.01613
 H686 H 0.29482 0.35918 0.04942
 H687 H 0.27791 0.30070 -0.03360
 H688 H 0.32667 0.26899 -0.02028
 H689 H 0.34396 0.32966 0.06362
 H690 H 0.18757 0.37711 -0.02687
 H691 H 0.13687 0.35006 -0.04512
 H692 H 0.17892 0.25735 -0.02263
 H693 H 0.22915 0.28643 -0.00486
 C694 C 0.21885 0.42340 0.08013
 C695 C 0.28776 0.41484 -0.09073
 C696 C 0.15426 0.30137 -0.03577
 C697 C 0.33908 0.29697 0.02259
 C698 C 0.76413 0.03931 1.02784
 H699 H 0.76190 0.03456 1.00237
 C700 C 0.76626 0.01325 1.04902
 H701 H 0.76593 -0.01145 1.03980
 C702 C 0.76645 0.07686 1.07124
 H703 H 0.76605 0.10179 1.07968
 C704 C 0.76935 0.05149 1.09324
 H705 H 0.77085 0.05693 1.11864
 N706 N 0.76503 0.07045 1.03917
 C707 C 0.73877 0.09340 0.94556
 H708 H 0.71757 0.10605 0.95218
 C709 C 0.74066 0.08107 0.91436
 H710 H 0.72090 0.08446 0.89717
 C711 C 0.79108 0.07490 0.95923
 H712 H 0.81070 0.07273 0.97688
 C713 C 0.79405 0.06257 0.92837
 H714 H 0.81595 0.05077 0.92219
 Zn715 Zn 0.76397 0.10574 1.01004
 N716 N 0.76367 0.08968 0.96737
 C717 C 0.80705 0.15518 0.99337
 N718 N 0.80176 0.13205 1.01579
 C719 C 0.82384 0.12654 1.04004
 C720 C 0.85234 0.14483 1.04255
 C721 C 0.83566 0.17349 0.99456
 C722 C 0.69748 0.11593 1.01413
 C723 C 0.67019 0.13250 1.02296
 C724 C 0.70438 0.17796 1.04015
 C725 C 0.73091 0.16086 1.03041
 N726 N 0.72709 0.13030 1.01795
 H727 H 0.78925 0.15891 0.97417
 H728 H 0.81983 0.10762 1.05720
 H729 H 0.86982 0.14021 1.06186
 H730 H 0.83963 0.19171 0.97654
 H731 H 0.69517 0.09127 1.00498
 H732 H 0.64686 0.12057 1.02043
 H733 H 0.70773 0.20185 1.05100
 H734 H 0.75467 0.17155 1.03398
 C735 C 0.76859 0.06521 0.90573
 C736 C 0.76979 0.01928 1.08196
 C737 C 0.67373 0.16373 1.03660
 C738 C 0.85872 0.16807 1.01934
 C739 C 0.26628 0.57142 0.53198
 H740 H 0.26187 0.55628 0.51091
 C741 C 0.27653 0.55741 0.56106
 H742 H 0.28029 0.53145 0.56222
 C743 C 0.26634 0.62365 0.55654
 H744 H 0.26206 0.64945 0.55456
 C745 C 0.27622 0.61067 0.58596
 H746 H 0.27987 0.62647 0.60671
 N747 N 0.26163 0.60406 0.53032
 C748 C 0.20185 0.59564 0.44831
 H749 H 0.18424 0.61002 0.45978
 C750 C 0.19267 0.57812 0.42069
 H751 H 0.16792 0.57886 0.41179
 C752 C 0.25568 0.57912 0.44450
 H753 H 0.28038 0.58047 0.45354
 C754 C 0.24754 0.56150 0.41638
 H755 H 0.26590 0.54892 0.40390
 Zn756 Zn 0.24567 0.62535 0.49325
 N757 N 0.23293 0.59605 0.45962
 C758 C 0.27073 0.66793 0.44877
 N759 N 0.27755 0.65313 0.47722
 C760 C 0.30732 0.65539 0.49183
 C761 C 0.33187 0.67263 0.47742
 C762 C 0.29466 0.68515 0.43340
 C763 C 0.18639 0.63158 0.51966
 C764 C 0.16006 0.64715 0.53167
 C765 C 0.18360 0.69878 0.51699
 C766 C 0.20931 0.68213 0.50463
 N767 N 0.21014 0.64911 0.50618
 H768 H 0.24698 0.66527 0.43747
 H769 H 0.31243 0.64290 0.51409
 H770 H 0.35566 0.67347 0.48888
 H771 H 0.28936 0.69598 0.41026
 H772 H 0.18813 0.60541 0.52129
 H773 H 0.14149 0.63282 0.54254
 H774 H 0.18324 0.72509 0.51629
 H775 H 0.22888 0.69560 0.49457
 C776 C 0.21579 0.56128 0.40402
 C777 C 0.28144 0.57734 0.58842
 C778 C 0.15868 0.68119 0.53057
 C779 C 0.32565 0.68720 0.44753
 C780 C 0.79176 0.91344 0.47665
 H781 H 0.80343 0.91373 0.50031
 C782 C 0.80588 0.92983 0.45154
 H783 H 0.82846 0.94290 0.45581
 C784 C 0.74881 0.89495 0.44166
 H785 H 0.72692 0.88080 0.43770
 C786 C 0.76198 0.91115 0.41599
 H787 H 0.74998 0.90939 0.39251
 N788 N 0.76382 0.89630 0.47126
 C789 C 0.71418 0.88356 0.55955
 H790 H 0.70926 0.85768 0.55745
 C791 C 0.70430 0.90070 0.58610
 H792 H 0.69142 0.88788 0.60421
 C793 C 0.73787 0.93137 0.53876
 H794 H 0.75131 0.94306 0.52041
 C795 C 0.72821 0.94957 0.56497
 H796 H 0.73414 0.97529 0.56676
 Zn797 Zn 0.74743 0.87156 0.50501
 N798 N 0.73136 0.89882 0.53700
 C799 C 0.78882 0.85151 0.55554
 N800 N 0.78149 0.84704 0.52371
 C801 C 0.79995 0.82809 0.50531
 C802 C 0.82720 0.81309 0.51892
 C803 C 0.81549 0.83693 0.56998
 C804 C 0.68483 0.86046 0.48288
 C805 C 0.65791 0.84349 0.47029
 C806 C 0.68896 0.79442 0.47041
 C807 C 0.71536 0.81235 0.48342
 N808 N 0.71288 0.84486 0.48896
 H809 H 0.77468 0.86724 0.56979
 H810 H 0.79410 0.82546 0.47992
 H811 H 0.84215 0.79864 0.50403
 H812 H 0.82137 0.84118 0.59521
 H813 H 0.68355 0.88632 0.48751
 H814 H 0.63597 0.85652 0.46524
 H815 H 0.69115 0.76869 0.46545
 H816 H 0.73785 0.80042 0.48859
 C817 C 0.71191 0.93402 0.58928
 C818 C 0.79106 0.92855 0.42084
 C819 C 0.65992 0.81007 0.46367
 C820 C 0.83515 0.81792 0.55167
 C821 C -0.03021 0.29592 0.41619
 H822 H -0.00600 0.30590 0.41758
 C823 C -0.05459 0.31187 0.43155
 H824 H -0.04921 0.33416 0.44485
 C825 C -0.06728 0.25568 0.39588
 H826 H -0.07257 0.23455 0.38100
 C827 C -0.09221 0.27045 0.41146
 H828 H -0.11630 0.26031 0.40866
 N829 N -0.03689 0.26840 0.39867
 C830 C 0.05515 0.22106 0.38970
 H831 H 0.05462 0.21889 0.36385
 C832 C 0.08220 0.21150 0.40776
 H833 H 0.10227 0.20150 0.39570
 C834 C 0.02967 0.23728 0.43669
 H835 H 0.00924 0.24766 0.44775
 C836 C 0.05611 0.22727 0.45581
 H837 H 0.05598 0.22980 0.48162
 Zn838 Zn -0.00279 0.25057 0.37590
 N839 N 0.03001 0.23457 0.40420
 C840 C 0.04525 0.29527 0.35956
 N841 N 0.01492 0.28466 0.35126
 C842 C -0.00284 0.29947 0.32753
 C843 C 0.01023 0.32566 0.31076
 C844 C 0.05915 0.32096 0.34340
 C845 C -0.03158 0.18961 0.36477
 C846 C -0.04369 0.16277 0.34725
 C847 C -0.02401 0.18701 0.29926
 C848 C -0.01315 0.21402 0.31759
 N849 N -0.01757 0.21501 0.34969
 H850 H 0.05865 0.28443 0.37927
 H851 H -0.02717 0.29110 0.32183
 H852 H -0.00398 0.33735 0.29199
 H853 H 0.08330 0.32919 0.35031
 H854 H -0.03379 0.19050 0.39046
 H855 H -0.05536 0.14302 0.35950
 H856 H -0.02054 0.18633 0.27373
 H857 H -0.00100 0.23397 0.30623
 C858 C 0.08302 0.21502 0.44123
 C859 C -0.08590 0.29908 0.42929
 C860 C -0.04007 0.16144 0.31406
 C861 C 0.04169 0.33644 0.31889
 C862 C 1.02491 0.79632 0.06433
 H863 H 1.00147 0.80709 0.06459
 C864 C 1.04812 0.80956 0.04481
 H865 H 1.04232 0.83009 0.02966
 C866 C 1.06229 0.75867 0.08585
 H867 H 1.06820 0.73958 0.10260
 C868 C 1.08615 0.77126 0.06691
 H869 H 1.11001 0.76136 0.06905
 N870 N 1.03255 0.77180 0.08492
 C871 C 0.94605 0.72664 0.12066
 H872 H 0.95582 0.72186 0.14451
 C873 C 0.91607 0.71372 0.11115
 H874 H 0.90265 0.69937 0.12778
 C875 C 0.95219 0.74941 0.06929
 H876 H 0.96657 0.76277 0.05285
 C877 C 0.92194 0.73706 0.05882
 H878 H 0.91320 0.74107 0.03440
 Zn879 Zn 1.00414 0.75894 0.11716
 N880 N 0.96348 0.74425 0.09993
 C881 C 0.97664 0.79206 0.16871
 N882 N 0.99781 0.79509 0.14500
 C883 C 1.01208 0.82436 0.13900
 C884 C 1.00322 0.85239 0.15526
 C885 C 0.96737 0.81944 0.18578
 C886 C 1.02171 0.69448 0.12344
 C887 C 1.03349 0.66651 0.13817
 C888 C 1.04592 0.69828 0.18619
 C889 C 1.03360 0.72569 0.17061
 N890 N 1.02191 0.72327 0.13974
 H891 H 0.96595 0.76865 0.17365
 H892 H 1.02950 0.82641 0.12079
 H893 H 1.01350 0.87579 0.14916
 H894 H 0.94943 0.81676 0.20354
 H895 H 1.01221 0.69329 0.09893
 H896 H 1.03318 0.64384 0.12480
 H897 H 1.05542 0.70030 0.21069
 H898 H 1.03348 0.74885 0.18306
 C899 C 0.90373 0.71893 0.08009
 C900 C 1.07933 0.79765 0.04676
 C901 C 1.04580 0.66832 0.16996
 C902 C 0.98004 0.85019 0.17827
 C903 C 0.54721 0.27503 0.58128
 H904 H 0.52521 0.27037 0.56720
 C905 C 0.57469 0.28614 0.56637
 H906 H 0.57366 0.29024 0.54078
 C907 C 0.57563 0.27530 0.63176
 H908 H 0.57574 0.27095 0.65728
 C909 C 0.60361 0.28594 0.61782
 H910 H 0.62533 0.29004 0.63258
 N911 N 0.54819 0.27016 0.61349
 C912 C 0.46683 0.20965 0.60872
 H913 H 0.47947 0.19181 0.62297
 C914 C 0.43825 0.20053 0.59227
 H915 H 0.42977 0.17556 0.59364
 C916 C 0.46119 0.26411 0.59143
 H917 H 0.46992 0.28907 0.59203
 C918 C 0.43215 0.25606 0.57489
 H919 H 0.41870 0.27471 0.56233
 Zn920 Zn 0.51293 0.25433 0.63582
 N921 N 0.47772 0.24102 0.60816
 C922 C 0.47078 0.27954 0.67835
 N923 N 0.49755 0.28711 0.66238
 C924 C 0.51037 0.31780 0.66294
 C925 C 0.49553 0.34259 0.67951
 C926 C 0.45524 0.30354 0.69513
 C927 C 0.54022 0.19361 0.64465
 C928 C 0.55254 0.16711 0.66140
 C929 C 0.54104 0.19422 0.71102
 C930 C 0.52833 0.22002 0.69326
 N931 N 0.52793 0.21909 0.66066
 H932 H 0.46088 0.25503 0.67701
 H933 H 0.53131 0.32336 0.64955
 H934 H 0.50526 0.36716 0.67893
 H935 H 0.43330 0.29760 0.70689
 H936 H 0.54037 0.19395 0.61876
 H937 H 0.56217 0.14698 0.64828
 H938 H 0.54158 0.19513 0.73695
 H939 H 0.51935 0.24095 0.70555
 C940 C 0.42028 0.22403 0.57553
 C941 C 0.60327 0.29164 0.58491
 C942 C 0.55301 0.16736 0.69503
 C943 C 0.46727 0.33546 0.69529
 C944 C 0.46276 0.80115 0.90978
 H945 H 0.48703 0.81056 0.91357
 C946 C 0.43737 0.81699 0.92353
 H947 H 0.44202 0.83854 0.93820
 C948 C 0.42664 0.76258 0.88476
 H949 H 0.42232 0.74210 0.86874
 C950 C 0.40065 0.77740 0.89838
 H951 H 0.37663 0.76787 0.89307
 N952 N 0.45698 0.77459 0.89065
 C953 C 0.54793 0.72601 0.88276
 H954 H 0.54827 0.72584 0.85688
 C955 C 0.57325 0.71286 0.90082
 H956 H 0.59303 0.70241 0.88864
 C957 C 0.52144 0.73995 0.92988
 H958 H 0.50110 0.75055 0.94093
 C959 C 0.54625 0.72656 0.94899
 H960 H 0.54513 0.72692 0.97483
 Zn961 Zn 0.49172 0.75747 0.86892
 N962 N 0.52303 0.73975 0.89740
 C963 C 0.54010 0.80320 0.85716
 N964 N 0.51051 0.79224 0.84655
 C965 C 0.49345 0.80809 0.82311
 C966 C 0.50632 0.83605 0.80923
 C967 C 0.55369 0.83097 0.84415
 C968 C 0.46623 0.69669 0.85811
 C969 C 0.45420 0.66930 0.84170
 C970 C 0.46608 0.69533 0.79179
 C971 C 0.47779 0.72260 0.80932
 N972 N 0.47711 0.72286 0.84188
 H973 H 0.55286 0.79119 0.87661
 H974 H 0.46959 0.79945 0.81574
 H975 H 0.49259 0.84877 0.79079
 H976 H 0.57711 0.83939 0.85326
 H977 H 0.46654 0.69741 0.88402
 H978 H 0.44529 0.64896 0.85523
 H979 H 0.46624 0.69524 0.76588
 H980 H 0.48726 0.74341 0.79695
 C981 C 0.57269 0.71330 0.93439
 C982 C 0.40599 0.80520 0.91770
 C983 C 0.45374 0.66853 0.80807
 C984 C 0.53659 0.84789 0.82008
 N985 N 0.47479 -0.11594 0.31692
 N986 N 0.47548 -0.08600 0.31582
 N987 N 0.91985 0.35143 0.81152
 N988 N 0.92313 0.38005 0.82323
 N989 N 0.02289 1.11985 0.81870
 N990 N 0.03985 1.12134 0.79416
 N991 N 0.53613 0.63108 0.29560
 N992 N 0.56031 0.63076 0.27809
 N993 N 0.56541 0.36848 0.16499
 N994 N 0.55656 0.38273 0.19017
 N995 N 0.06037 0.87206 0.68720
 N996 N 0.06151 0.88083 0.71652
 N997 N 0.94764 0.63822 0.70931
 N998 N 0.95897 0.60990 0.71327
 N999 N 0.44068 0.14136 0.18930
 N1000 N 0.45185 0.11346 0.19589
 N1001 N 0.28943 0.43330 -0.14449
 N1002 N 0.30300 0.43014 -0.11681
 N1003 N 0.79370 0.94430 0.36665
 N1004 N 0.80673 0.94350 0.39477
 N1005 N 0.78743 -0.00559 1.12976
 N1006 N 0.77343 -0.00774 1.10317
 N1007 N 0.30018 0.53535 0.62285
 N1008 N 0.29204 0.56476 0.61886
 N1009 N 0.17844 0.54394 0.36355
 N1010 N 0.20760 0.54575 0.37380
 N1011 N 0.74968 0.04640 0.85491
 N1012 N 0.77228 0.05200 0.87431
 N1013 N 0.69308 0.93742 0.64139
 N1014 N 0.70407 0.95196 0.61732
 N1015 N 0.20337 0.43219 0.13317
 N1016 N 0.20674 0.44321 0.10509
 N1017 N -0.13832 0.30368 0.44847
 N1018 N -0.11112 0.31668 0.44333
 N1019 N 0.35139 0.81114 0.92949
 N1020 N 0.37997 0.82258 0.93043
 N1021 N 1.13363 0.80752 0.03586
 N1022 N 1.10426 0.81451 0.03068
 N1023 N 0.63277 0.31356 0.54262
 N1024 N 0.63203 0.30363 0.57135
 N1025 N 0.37990 0.18639 0.55860
 N1026 N 0.38954 0.21592 0.56047
 N1027 N 0.85843 0.70907 0.04417
 N1028 N 0.87353 0.70396 0.07075
 N1029 N 0.62526 0.69433 0.94118
 N1030 N 0.59869 0.70035 0.95362
 N1031 N 0.13804 0.20401 0.44809
 N1032 N 0.11074 0.20585 0.46040
 N1033 N 0.57158 0.11384 0.70006
 N1034 N 0.56661 0.14121 0.71315
 N1035 N 1.05691 0.61203 0.17341
 N1036 N 1.05888 0.64043 0.18586
 N1037 N 0.94819 0.87892 0.21396
 N1038 N 0.96765 0.87948 0.19137
 N1039 N 0.45755 0.39014 0.71024
 N1040 N 0.44866 0.36038 0.70900
 N1041 N 0.42487 0.61918 0.80521
 N1042 N 0.44044 0.64094 0.79057
 N1043 N -0.07797 0.11950 0.30331
 N1044 N -0.05245 0.13424 0.29546
 N1045 N 0.04369 0.38106 0.28221
 N1046 N 0.05689 0.36320 0.30360
 N1047 N 0.57541 0.88999 0.81883
 N1048 N 0.54945 0.87722 0.80700
 N1049 N 0.72866 0.54935 0.12085
 N1050 N 0.73234 0.53468 0.14630
 N1051 N 0.18921 1.05636 0.60999
 N1052 N 0.20093 1.05617 0.63869
 N1053 N 0.21333 0.99095 0.89671
 N1054 N 0.20924 1.01353 0.87777
 N1055 N 0.69703 0.46056 0.38285
 N1056 N 0.69121 0.44641 0.35598
 N1057 N 0.80595 0.45813 0.61343
 N1058 N 0.79228 0.46111 0.63990
 N1059 N 0.31090 -0.06399 0.11622
 N1060 N 0.29717 -0.04952 0.13875
 N1061 N 0.30497 0.07389 0.38275
 N1062 N 0.30063 0.04556 0.37069
 N1063 N 0.78409 0.55133 0.88902
 N1064 N 0.80945 0.56107 0.87595
 N1065 N 0.10742 0.68369 0.55204
 N1066 N 0.13327 0.69823 0.54482
 N1067 N 0.61806 0.17305 1.04202
 N1068 N 0.64726 0.18035 1.04946
 N1069 N 0.90161 0.19686 0.99799
 N1070 N 0.88877 0.18549 1.02155
 N1071 N 0.37901 0.70627 0.44226
 N1072 N 0.35074 0.70195 0.43007
 N1073 N 0.60581 0.80519 0.44548
 N1074 N 0.63322 0.79225 0.44897
 N1075 N 0.10361 0.29970 -0.06282
 N1076 N 0.12556 0.28461 -0.04726
 N1077 N 0.39166 0.29600 0.04429
 N1078 N 0.36879 0.28085 0.02913
 N1079 N 0.88413 0.78854 0.55307
 N1080 N 0.86363 0.80551 0.56703
   
