data_POSCAR
  _audit_creation_date              2014-09-24
  _audit_creation_method            'ToBaCCo'
  _symmetry_space_group_name_H-M    'P1'
  _symmetry_Int_Tables_number       1
  _symmetry_cell_setting            triclinic
  loop_
  _symmetry_equiv_pos_as_xyz
 x,y,z
_cell_length_a 49.4787
_cell_length_b 49.9157
_cell_length_c 49.9564
_cell_angle_alpha 90.092900
_cell_angle_beta 89.956300
_cell_angle_gamma 91.141100
loop_
  _atom_site_label
  _atom_site_type_symbol
  _atom_site_fract_x
  _atom_site_fract_y
  _atom_site_fract_z
N1 N 0.29224 0.25171 0.22081
 N2 N 0.28009 0.27363 0.21333
 C3 C 0.29214 0.28317 0.19103
 C4 C 0.31306 0.26640 0.18410
 C5 C 0.31245 0.24663 0.20360
 H6 H 0.28582 0.30081 0.18043
 H7 H 0.32560 0.22969 0.20519
 Cu8 Cu 0.24933 0.28747 0.23298
 Cu9 Cu 0.28060 0.23112 0.25194
 Cu10 Cu 0.22472 0.25364 0.28629
 N11 N 0.21716 0.29896 0.25200
 N12 N 0.20777 0.28573 0.27283
 C13 C 0.18540 0.29766 0.28189
 C14 C 0.18033 0.31963 0.26587
 C15 C 0.20098 0.31978 0.24705
 H16 H 0.17345 0.29050 0.29861
 H17 H 0.20400 0.33394 0.23094
 N18 N 0.24452 0.22154 0.29698
 N19 N 0.26585 0.21295 0.28393
 C20 C 0.27458 0.19052 0.29584
 C21 C 0.25791 0.18462 0.31744
 C22 C 0.23908 0.20480 0.31748
 H23 H 0.29154 0.17906 0.28897
 H24 H 0.22262 0.20717 0.33144
 H25 H 0.24058 0.24231 0.24972
 H26 H 0.26323 0.26239 0.27239
 N27 N 0.70462 -0.25082 0.22126
 N28 N 0.71729 -0.27213 0.21287
 C29 C 0.70480 -0.28180 0.19087
 C30 C 0.68310 -0.26558 0.18486
 C31 C 0.68375 -0.24608 0.20478
 H32 H 0.71141 -0.29912 0.17989
 H33 H 0.67009 -0.22965 0.20735
 Cu34 Cu 0.74935 -0.28480 0.23109
 Cu35 Cu 0.71596 -0.23096 0.25310
 Cu36 Cu 0.77187 -0.25436 0.28694
 N37 N 0.78085 -0.29764 0.25020
 N38 N 0.78923 -0.28577 0.27223
 C39 C 0.81106 -0.29836 0.28155
 C40 C 0.81700 -0.31938 0.26438
 C41 C 0.79721 -0.31819 0.24465
 H42 H 0.82193 -0.29220 0.29932
 H43 H 0.79475 -0.33127 0.22755
 N44 N 0.75172 -0.22283 0.29868
 N45 N 0.73054 -0.21375 0.28577
 C46 C 0.72178 -0.19167 0.29840
 C47 C 0.73828 -0.18655 0.32031
 C48 C 0.75699 -0.20680 0.31981
 H49 H 0.70494 -0.17991 0.29182
 H50 H 0.77332 -0.20967 0.33378
 H51 H 0.75630 -0.24065 0.25117
 H52 H 0.73378 -0.26295 0.27172
 N53 N 0.70062 0.24609 0.78264
 N54 N 0.71253 0.26875 0.78982
 C55 C 0.70003 0.27840 0.81165
 C56 C 0.67929 0.26074 0.81870
 C57 C 0.68035 0.24040 0.79983
 H58 H 0.70588 0.29665 0.82194
 H59 H 0.66707 0.22298 0.79843
 Cu60 Cu 0.74339 0.28284 0.76985
 Cu61 Cu 0.71207 0.22592 0.75119
 Cu62 Cu 0.76741 0.25164 0.71579
 N63 N 0.77507 0.29678 0.75104
 N64 N 0.78420 0.28462 0.72963
 C65 C 0.80638 0.29786 0.72069
 C66 C 0.81160 0.31966 0.73745
 C67 C 0.79112 0.31817 0.75648
 H68 H 0.81804 0.29160 0.70356
 H69 H 0.78815 0.33141 0.77328
 N70 N 0.74756 0.21848 0.70524
 N71 N 0.72672 0.20865 0.71881
 C72 C 0.71761 0.18616 0.70662
 C73 C 0.73344 0.18145 0.68428
 C74 C 0.75221 0.20244 0.68407
 H75 H 0.70068 0.17407 0.71357
 H76 H 0.76790 0.20599 0.66938
 H77 H 0.75219 0.23836 0.75197
 H78 H 0.72902 0.25767 0.73031
 N79 N 0.30230 -0.24690 0.77705
 N80 N 0.28932 -0.26855 0.78535
 C81 C 0.30172 -0.27799 0.80725
 C82 C 0.32374 -0.26143 0.81305
 C83 C 0.32340 -0.24182 0.79343
 H84 H 0.29501 -0.29544 0.81839
 H85 H 0.33756 -0.22522 0.79107
 Cu86 Cu 0.25738 -0.28225 0.76688
 Cu87 Cu 0.29081 -0.22718 0.74547
 Cu88 Cu 0.23418 -0.25190 0.71184
 N89 N 0.22546 -0.29573 0.74819
 N90 N 0.21662 -0.28402 0.72646
 C91 C 0.19441 -0.29730 0.71764
 C92 C 0.18880 -0.31858 0.73487
 C93 C 0.20911 -0.31678 0.75402
 H94 H 0.18311 -0.29150 0.70017
 H95 H 0.21191 -0.32973 0.77105
 N96 N 0.25465 -0.21961 0.70022
 N97 N 0.27607 -0.21014 0.71311
 C98 C 0.28525 -0.18788 0.70059
 C99 C 0.26887 -0.18299 0.67870
 C100 C 0.24968 -0.20361 0.67916
 H101 H 0.30245 -0.17595 0.70716
 H102 H 0.23330 -0.20680 0.66517
 H103 H 0.25035 -0.23815 0.74756
 H104 H 0.27240 -0.25935 0.72634
 N105 N 0.71296 -0.24391 0.78450
 N106 N 0.72566 -0.26499 0.79331
 C107 C 0.71155 -0.27593 0.81370
 C108 C 0.68879 -0.26076 0.81810
 C109 C 0.69042 -0.24056 0.79910
 H110 H 0.71793 -0.29310 0.82504
 H111 H 0.67651 -0.22438 0.79622
 Cu112 Cu 0.76042 -0.27502 0.77872
 Cu113 Cu 0.72760 -0.22151 0.75597
 Cu114 Cu 0.77969 -0.24927 0.71935
 N115 N 0.78925 -0.29060 0.75787
 N116 N 0.79663 -0.28062 0.73464
 C117 C 0.81719 -0.29488 0.72483
 C118 C 0.82314 -0.31512 0.74290
 C119 C 0.80474 -0.31167 0.76363
 H120 H 0.82712 -0.29046 0.70605
 H121 H 0.80272 -0.32335 0.78172
 N122 N 0.76005 -0.21739 0.70754
 N123 N 0.74037 -0.20678 0.72160
 C124 C 0.73138 -0.18506 0.70867
 C125 C 0.74627 -0.18164 0.68540
 C126 C 0.76426 -0.20256 0.68538
 H127 H 0.71545 -0.17246 0.71594
 H128 H 0.77934 -0.20666 0.67036
 H129 H 0.74246 -0.25520 0.73821
 H130 H 0.76789 -0.23260 0.75468
 N131 N 0.29415 0.24810 0.77396
 N132 N 0.28163 0.26905 0.78344
 C133 C 0.29432 0.27759 0.80582
 C134 C 0.31597 0.26106 0.81065
 C135 C 0.31519 0.24259 0.78993
 H136 H 0.28795 0.29422 0.81800
 H137 H 0.32884 0.22627 0.78667
 Cu138 Cu 0.24950 0.28246 0.76594
 Cu139 Cu 0.28190 0.22905 0.74204
 Cu140 Cu 0.22487 0.25290 0.71036
 N141 N 0.21780 0.29599 0.74784
 N142 N 0.20825 0.28430 0.72615
 C143 C 0.18613 0.29723 0.71797
 C144 C 0.18141 0.31819 0.73551
 C145 C 0.20204 0.31674 0.75421
 H146 H 0.17419 0.29145 0.70072
 H147 H 0.20536 0.32978 0.77122
 N148 N 0.24461 0.22143 0.69752
 N149 N 0.26637 0.21248 0.70954
 C150 C 0.27501 0.19074 0.69633
 C151 C 0.25790 0.18565 0.67491
 C152 C 0.23883 0.20558 0.67635
 H153 H 0.29222 0.17917 0.70223
 H154 H 0.22198 0.20835 0.66297
 H155 H 0.26334 0.26123 0.72436
 H156 H 0.24157 0.23868 0.74535
 N157 N 0.30280 -0.25372 0.22148
 N158 N 0.29011 -0.27581 0.21392
 C159 C 0.30174 -0.28504 0.19144
 C160 C 0.32292 -0.26781 0.18449
 C161 C 0.32292 -0.24814 0.20411
 H162 H 0.29499 -0.30274 0.18070
 H163 H 0.33652 -0.23101 0.20574
 Cu164 Cu 0.25921 -0.29016 0.23372
 Cu165 Cu 0.29213 -0.23362 0.25301
 Cu166 Cu 0.23640 -0.25760 0.28811
 N167 N 0.22722 -0.30258 0.25311
 N168 N 0.21852 -0.28984 0.27436
 C169 C 0.19598 -0.30224 0.28352
 C170 C 0.19008 -0.32400 0.26711
 C171 C 0.21043 -0.32355 0.24800
 H172 H 0.18442 -0.29548 0.30050
 H173 H 0.21280 -0.33735 0.23153
 N174 N 0.25713 -0.22528 0.29888
 N175 N 0.27829 -0.21608 0.28543
 C176 C 0.28767 -0.19354 0.29734
 C177 C 0.27168 -0.18822 0.31942
 C178 C 0.25252 -0.20885 0.31972
 H179 H 0.30460 -0.18160 0.29014
 H180 H 0.23634 -0.21170 0.33403
 H181 H 0.27446 -0.26550 0.27331
 H182 H 0.25184 -0.24541 0.25150
 N183 N 0.69253 0.24787 0.22488
 N184 N 0.70508 0.26975 0.21655
 C185 C 0.69261 0.27869 0.19442
 C186 C 0.67104 0.26147 0.18853
 C187 C 0.67171 0.24216 0.20842
 H188 H 0.69904 0.29621 0.18327
 H189 H 0.65827 0.22502 0.21076
 Cu190 Cu 0.73689 0.28387 0.23514
 Cu191 Cu 0.70436 0.22790 0.25600
 Cu192 Cu 0.76077 0.25271 0.28956
 N193 N 0.76865 0.29753 0.25414
 N194 N 0.77769 0.28527 0.27549
 C195 C 0.79986 0.29838 0.28455
 C196 C 0.80517 0.32009 0.26800
 C197 C 0.78488 0.31888 0.24886
 H198 H 0.81159 0.29212 0.30159
 H199 H 0.78217 0.33249 0.23231
 N200 N 0.74089 0.22001 0.30073
 N201 N 0.71943 0.21059 0.28789
 C202 C 0.71057 0.18804 0.30003
 C203 C 0.72720 0.18290 0.32163
 C204 C 0.74624 0.20365 0.32140
 H205 H 0.69347 0.17602 0.29334
 H206 H 0.76276 0.20667 0.33526
 H207 H 0.72236 0.26007 0.27537
 H208 H 0.74456 0.23949 0.25357
 C209 C 0.27422 -0.02395 0.55319
 C210 C 0.27253 0.00057 0.56659
 C211 C 0.27085 0.02473 0.55264
 C212 C 0.27128 0.02462 0.52433
 C213 C 0.27305 -0.00008 0.51041
 C214 C 0.27465 -0.02446 0.52486
 C215 C 0.27741 -0.04857 0.51064
 C216 C 0.27800 -0.04884 0.48278
 C217 C 0.27579 -0.02501 0.46803
 C218 C 0.27363 -0.00036 0.48196
 C219 C 0.27078 0.04859 0.50962
 C220 C 0.27132 0.04831 0.48179
 C221 C 0.27236 0.02405 0.46752
 C222 C 0.27286 0.02359 0.43920
 C223 C 0.27512 -0.00086 0.42578
 C224 C 0.27638 -0.02508 0.43971
 H225 H 0.27950 -0.06748 0.52092
 H226 H 0.28054 -0.06794 0.47294
 H227 H 0.27031 0.06789 0.51947
 H228 H 0.27127 0.06741 0.47159
 H229 H 0.27208 0.00082 0.58830
 H230 H 0.27520 -0.00111 0.40406
 C231 C 0.72581 0.02294 0.55778
 C232 C 0.72743 -0.00133 0.57152
 C233 C 0.72887 -0.02578 0.55798
 C234 C 0.72824 -0.02624 0.52967
 C235 C 0.72671 -0.00178 0.51535
 C236 C 0.72542 0.02292 0.52944
 C237 C 0.72301 0.04678 0.51484
 C238 C 0.72237 0.04652 0.48698
 C239 C 0.72417 0.02237 0.47259
 C240 C 0.72603 -0.00205 0.48690
 C241 C 0.72831 -0.05050 0.51533
 C242 C 0.72758 -0.05076 0.48749
 C243 C 0.72682 -0.02677 0.47285
 C244 C 0.72607 -0.02685 0.44451
 C245 C 0.72417 -0.00262 0.43074
 C246 C 0.72341 0.02189 0.44427
 H247 H 0.72127 0.06592 0.52484
 H248 H 0.72007 0.06546 0.47683
 H249 H 0.72851 -0.06961 0.52550
 H250 H 0.72723 -0.07006 0.47759
 H251 H 0.72806 -0.00115 0.59324
 H252 H 0.72387 -0.00278 0.40902
 C253 C 0.43602 0.27358 0.02189
 C254 C 0.42300 0.27327 -0.00295
 C255 C 0.43753 0.27191 -0.02692
 C256 C 0.46611 0.27133 -0.02625
 C257 C 0.47966 0.27177 -0.00122
 C258 C 0.46460 0.27301 0.02293
 C259 C 0.47855 0.27437 0.04742
 C260 C 0.50664 0.27368 0.04827
 C261 C 0.52194 0.27173 0.02466
 C262 C 0.50835 0.27125 -0.00036
 C263 C 0.48150 0.27090 -0.04993
 C264 C 0.50960 0.27043 -0.04908
 C265 C 0.52341 0.27053 -0.02451
 C266 C 0.55194 0.27044 -0.02344
 C267 C 0.56506 0.27072 0.00130
 C268 C 0.55053 0.27101 0.02532
 H269 H 0.46794 0.27632 0.06623
 H270 H 0.51624 0.27510 0.06768
 H271 H 0.47198 0.27123 -0.06942
 H272 H 0.52043 0.27016 -0.06791
 H273 H 0.40108 0.27341 -0.00363
 H274 H 0.58697 0.27031 0.00186
 C275 C 0.44667 0.72854 -0.02605
 C276 C 0.43242 0.72751 -0.00191
 C277 C 0.44579 0.72721 0.02271
 C278 C 0.47437 0.72758 0.02341
 C279 C 0.48915 0.72856 -0.00094
 C280 C 0.47526 0.72902 -0.02578
 C281 C 0.49027 0.72908 -0.04966
 C282 C 0.51838 0.72879 -0.04921
 C283 C 0.53261 0.72868 -0.02484
 C284 C 0.51787 0.72847 -0.00045
 C285 C 0.48852 0.72612 0.04773
 C286 C 0.51664 0.72602 0.04821
 C287 C 0.53175 0.72747 0.02439
 C288 C 0.56036 0.72699 0.02465
 C289 C 0.57453 0.72705 0.00041
 C290 C 0.56116 0.72794 -0.02420
 H291 H 0.48043 0.72895 -0.06900
 H292 H 0.52882 0.72828 -0.06823
 H293 H 0.47798 0.72461 0.06666
 H294 H 0.52637 0.72432 0.06749
 H295 H 0.41048 0.72717 -0.00228
 H296 H 0.59644 0.72664 0.00070
 C297 C 0.01957 0.44184 0.27118
 C298 C -0.00557 0.42856 0.27177
 C299 C -0.02973 0.44259 0.27116
 C300 C -0.02895 0.47092 0.27023
 C301 C -0.00361 0.48476 0.26977
 C302 C 0.02075 0.47019 0.27034
 C303 C 0.04558 0.48437 0.27109
 C304 C 0.04654 0.51224 0.27090
 C305 C 0.02271 0.52709 0.26996
 C306 C -0.00263 0.51324 0.26956
 C307 C -0.05278 0.48577 0.27079
 C308 C -0.05182 0.51364 0.27066
 C309 C -0.02699 0.52781 0.26981
 C310 C -0.02580 0.55618 0.27021
 C311 C -0.00066 0.56946 0.27053
 C312 C 0.02349 0.55543 0.27040
 H313 H 0.06457 0.47408 0.27234
 H314 H 0.06622 0.52202 0.27195
 H315 H -0.07246 0.47599 0.27183
 H316 H -0.07082 0.52394 0.27172
 H317 H -0.00634 0.40683 0.27258
 H318 H 0.00013 0.59120 0.27084
 C319 C 0.02318 0.44336 0.72703
 C320 C -0.00187 0.42992 0.72711
 C321 C -0.02613 0.44381 0.72714
 C322 C -0.02547 0.47219 0.72687
 C323 C -0.00020 0.48617 0.72682
 C324 C 0.02422 0.47172 0.72661
 C325 C 0.04897 0.48597 0.72531
 C326 C 0.04981 0.51385 0.72505
 C327 C 0.02594 0.52862 0.72634
 C328 C 0.00066 0.51465 0.72679
 C329 C -0.04936 0.48696 0.72595
 C330 C -0.04851 0.51483 0.72605
 C331 C -0.02376 0.52910 0.72701
 C332 C -0.02273 0.55745 0.72747
 C333 C 0.00233 0.57089 0.72691
 C334 C 0.02660 0.55700 0.72652
 H335 H 0.06799 0.47570 0.72414
 H336 H 0.06942 0.52369 0.72356
 H337 H -0.06901 0.47713 0.72488
 H338 H -0.06755 0.52507 0.72499
 H339 H -0.00248 0.40819 0.72791
 H340 H 0.00299 0.59262 0.72758
 C341 C 0.36592 0.27305 0.11526
 C342 C 0.36684 0.25035 0.13215
 C343 C 0.34976 0.24839 0.15458
 C344 C 0.33153 0.26877 0.16065
 C345 C 0.33090 0.29135 0.14396
 C346 C 0.34776 0.29349 0.12160
 C347 C 0.38421 0.27415 0.09127
 C348 C 0.38472 0.29576 0.07309
 C349 C 0.40181 0.29559 0.05083
 C350 C 0.41887 0.27404 0.04623
 C351 C 0.41857 0.25241 0.06407
 C352 C 0.40151 0.25236 0.08656
 C353 C 0.38465 0.22961 0.12650
 C354 C 0.40158 0.23059 0.10419
 H355 H 0.38545 0.21227 0.13948
 H356 H 0.41490 0.21396 0.10065
 H357 H 0.35060 0.23074 0.16708
 H358 H 0.31735 0.30759 0.14804
 H359 H 0.40170 0.31234 0.03707
 H360 H 0.43150 0.23553 0.06024
 H361 H 0.34614 0.31129 0.10957
 H362 H 0.37205 0.31291 0.07556
 C363 C 0.62945 0.72707 0.11852
 C364 C 0.62784 0.74920 0.13611
 C365 C 0.64524 0.75129 0.15829
 C366 C 0.66493 0.73185 0.16314
 C367 C 0.66631 0.70994 0.14546
 C368 C 0.64890 0.70753 0.12361
 C369 C 0.61082 0.72577 0.09485
 C370 C 0.61054 0.70432 0.07644
 C371 C 0.59363 0.70460 0.05412
 C372 C 0.57645 0.72607 0.04965
 C373 C 0.57611 0.74731 0.06803
 C374 C 0.59299 0.74722 0.09065
 C375 C 0.60924 0.76943 0.13120
 C376 C 0.59232 0.76855 0.10888
 H377 H 0.60801 0.78644 0.14462
 H378 H 0.57856 0.78488 0.10580
 H379 H 0.64361 0.76852 0.17132
 H380 H 0.68083 0.69430 0.14827
 H381 H 0.59412 0.68806 0.04006
 H382 H 0.56298 0.76407 0.06444
 H383 H 0.65129 0.69033 0.11082
 H384 H 0.62330 0.68723 0.07874
 C385 C 0.62382 0.26808 -0.11501
 C386 C 0.62804 0.24284 -0.12711
 C387 C 0.64598 0.24062 -0.14878
 C388 C 0.66014 0.26320 -0.15860
 C389 C 0.65595 0.28817 -0.14651
 C390 C 0.63804 0.29065 -0.12509
 C391 C 0.60456 0.26958 -0.09186
 C392 C 0.59893 0.29375 -0.07846
 C393 C 0.58143 0.29395 -0.05655
 C394 C 0.56895 0.27021 -0.04771
 C395 C 0.57387 0.24612 -0.06104
 C396 C 0.59165 0.24560 -0.08295
 C397 C 0.61448 0.21993 -0.11744
 C398 C 0.59676 0.22126 -0.09579
 H399 H 0.61772 0.20059 -0.12668
 H400 H 0.58695 0.20291 -0.08894
 H401 H 0.64919 0.22116 -0.15772
 H402 H 0.66629 0.30602 -0.15381
 H403 H 0.57772 0.31266 -0.04629
 H404 H 0.56413 0.22777 -0.05403
 H405 H 0.63570 0.31039 -0.11674
 H406 H 0.60794 0.31267 -0.08436
 C407 C 0.37845 0.73060 -0.12028
 C408 C 0.37736 0.75504 -0.13454
 C409 C 0.35980 0.75745 -0.15648
 C410 C 0.34305 0.73583 -0.16446
 C411 C 0.34459 0.71152 -0.15054
 C412 C 0.36201 0.70888 -0.12883
 C413 C 0.39681 0.72905 -0.09649
 C414 C 0.39860 0.70591 -0.08047
 C415 C 0.41526 0.70575 -0.05798
 C416 C 0.43071 0.72847 -0.05106
 C417 C 0.42944 0.75154 -0.06690
 C418 C 0.41252 0.75204 -0.08947
 C419 C 0.39360 0.77698 -0.12669
 C420 C 0.41085 0.77549 -0.10468
 H421 H 0.39285 0.79569 -0.13763
 H422 H 0.42284 0.79310 -0.09932
 H423 H 0.35884 0.77638 -0.16696
 H424 H 0.33239 0.69429 -0.15644
 H425 H 0.41592 0.68789 -0.04572
 H426 H 0.44120 0.76922 -0.06124
 H427 H 0.36217 0.68966 -0.11904
 H428 H 0.38708 0.68784 -0.08465
 C429 C 0.11267 0.37281 0.27188
 C430 C 0.12921 0.37298 0.24875
 C431 C 0.15135 0.35585 0.24703
 C432 C 0.15740 0.33829 0.26804
 C433 C 0.14112 0.33844 0.29107
 C434 C 0.11912 0.35541 0.29302
 C435 C 0.08888 0.39099 0.27269
 C436 C 0.07089 0.39196 0.29457
 C437 C 0.04873 0.40881 0.29409
 C438 C 0.04402 0.42520 0.27195
 C439 C 0.06172 0.42451 0.25006
 C440 C 0.08408 0.40761 0.25028
 C441 C 0.12346 0.39006 0.22737
 C442 C 0.10141 0.40701 0.22812
 H443 H 0.13615 0.39024 0.20967
 H444 H 0.09778 0.41974 0.21100
 H445 H 0.16355 0.35596 0.22903
 H446 H 0.14534 0.32547 0.30781
 H447 H 0.03506 0.40899 0.31104
 H448 H 0.05779 0.43693 0.23275
 H449 H 0.10744 0.35449 0.31123
 H450 H 0.07336 0.37974 0.31213
 C451 C 0.12278 0.62538 0.73222
 C452 C 0.12643 0.64448 0.71158
 C453 C 0.14832 0.66285 0.71245
 C454 C 0.16712 0.66256 0.73363
 C455 C 0.16361 0.64302 0.75371
 C456 C 0.14186 0.62480 0.75306
 C457 C 0.09867 0.60668 0.73098
 C458 C 0.09258 0.58772 0.75114
 C459 C 0.06949 0.57128 0.74936
 C460 C 0.05210 0.57309 0.72737
 C461 C 0.05791 0.59180 0.70719
 C462 C 0.08093 0.60862 0.70886
 C463 C 0.10817 0.64523 0.69018
 C464 C 0.08599 0.62762 0.68880
 H465 H 0.11102 0.65973 0.67424
 H466 H 0.07241 0.62911 0.67187
 H467 H 0.15049 0.67731 0.69645
 H468 H 0.17744 0.64167 0.77035
 H469 H 0.06493 0.55730 0.76539
 H470 H 0.04421 0.59345 0.69036
 H471 H 0.14041 0.61048 0.76915
 H472 H 0.10506 0.58553 0.76864
 C473 C -0.11752 0.62688 0.27054
 C474 C -0.13494 0.62580 0.24812
 C475 C -0.15675 0.64335 0.24632
 C476 C -0.16149 0.66252 0.26645
 C477 C -0.14397 0.66337 0.28865
 C478 C -0.12244 0.64589 0.29070
 C479 C -0.09431 0.60803 0.27158
 C480 C -0.07600 0.60737 0.29318
 C481 C -0.05420 0.59009 0.29279
 C482 C -0.05019 0.57291 0.27105
 C483 C -0.06839 0.57306 0.24957
 C484 C -0.09046 0.59035 0.24975
 C485 C -0.13032 0.60746 0.22742
 C486 C -0.10850 0.59022 0.22816
 H487 H -0.14363 0.60661 0.21021
 H488 H -0.10566 0.57661 0.21151
 H489 H -0.16963 0.64215 0.22886
 H490 H -0.14669 0.67748 0.30481
 H491 H -0.04022 0.59026 0.30947
 H492 H -0.06510 0.55993 0.23261
 H493 H -0.10981 0.64781 0.30820
 H494 H -0.07796 0.62011 0.31048
 C495 C -0.12246 0.37578 0.73401
 C496 C -0.12620 0.35643 0.71356
 C497 C -0.14809 0.33811 0.71469
 C498 C -0.16681 0.33861 0.73596
 C499 C -0.16328 0.35845 0.75582
 C500 C -0.14150 0.37665 0.75492
 C501 C -0.09829 0.39438 0.73250
 C502 C -0.09204 0.41356 0.75246
 C503 C -0.06887 0.42987 0.75044
 C504 C -0.05161 0.42774 0.72836
 C505 C -0.05757 0.40883 0.70836
 C506 C -0.08062 0.39210 0.71031
 C507 C -0.10804 0.35538 0.69207
 C508 C -0.08581 0.37289 0.69044
 H509 H -0.11101 0.34073 0.67626
 H510 H -0.07229 0.37114 0.67346
 H511 H -0.15036 0.32352 0.69878
 H512 H -0.17709 0.36000 0.77249
 H513 H -0.06418 0.44401 0.76632
 H514 H -0.04399 0.40697 0.69143
 H515 H -0.13997 0.39119 0.77086
 H516 H -0.10448 0.41605 0.76997
 C517 C 0.26204 0.11722 0.37148
 C518 C 0.28406 0.12371 0.35441
 C519 C 0.28263 0.14570 0.33696
 C520 C 0.25948 0.16153 0.33610
 C521 C 0.23776 0.15506 0.35315
 C522 C 0.23897 0.13329 0.37059
 C523 C 0.26428 0.09343 0.38963
 C524 C 0.24337 0.08505 0.40713
 C525 C 0.24637 0.06258 0.42338
 C526 C 0.27027 0.04807 0.42276
 C527 C 0.29117 0.05606 0.40543
 C528 C 0.28839 0.07859 0.38894
 C529 C 0.30735 0.10822 0.35477
 C530 C 0.30948 0.08617 0.37167
 H531 H 0.32422 0.11317 0.34172
 H532 H 0.32790 0.07479 0.37112
 H533 H 0.29973 0.15049 0.32418
 H534 H 0.21951 0.16662 0.35291
 H535 H 0.22990 0.05633 0.43640
 H536 H 0.30956 0.04461 0.40479
 H537 H 0.22157 0.12939 0.38309
 H538 H 0.22449 0.09537 0.40846
 C539 C 0.72582 0.11530 0.62856
 C540 C 0.74904 0.13231 0.62817
 C541 C 0.75132 0.15390 0.64619
 C542 C 0.73078 0.15891 0.66488
 C543 C 0.70770 0.14210 0.66502
 C544 C 0.70514 0.12073 0.64708
 C545 C 0.72451 0.09202 0.60948
 C546 C 0.70261 0.07351 0.60878
 C547 C 0.70281 0.05163 0.59136
 C548 C 0.72468 0.04772 0.57410
 C549 C 0.74648 0.06607 0.57435
 C550 C 0.74656 0.08814 0.59187
 C551 C 0.76998 0.12757 0.60997
 C552 C 0.76877 0.10598 0.59224
 H553 H 0.78771 0.14066 0.60957
 H554 H 0.78563 0.10306 0.57875
 H555 H 0.76939 0.16648 0.64585
 H556 H 0.69135 0.14542 0.67895
 H557 H 0.68599 0.03740 0.59161
 H558 H 0.76366 0.06270 0.56136
 H559 H 0.68682 0.10872 0.64816
 H560 H 0.68533 0.07526 0.62178
 C561 C 0.27530 -0.11636 0.62356
 C562 C 0.25218 -0.13352 0.62331
 C563 C 0.25028 -0.15527 0.64111
 C564 C 0.27114 -0.16036 0.65940
 C565 C 0.29417 -0.14348 0.65928
 C566 C 0.29629 -0.12186 0.64165
 C567 C 0.27622 -0.09292 0.60475
 C568 C 0.29793 -0.07417 0.60409
 C569 C 0.29738 -0.05218 0.58690
 C570 C 0.27543 -0.04848 0.56976
 C571 C 0.25383 -0.06706 0.56995
 C572 C 0.25402 -0.08916 0.58735
 C573 C 0.23099 -0.12876 0.60544
 C574 C 0.23193 -0.10713 0.58781
 H575 H 0.21329 -0.14191 0.60517
 H576 H 0.21493 -0.10425 0.57451
 H577 H 0.23228 -0.16795 0.64088
 H578 H 0.31081 -0.14689 0.67279
 H579 H 0.31406 -0.03778 0.58712
 H580 H 0.23665 -0.06392 0.55694
 H581 H 0.31453 -0.10972 0.64262
 H582 H 0.31532 -0.07583 0.61690
 C583 C 0.73481 -0.12046 0.37614
 C584 C 0.71267 -0.12641 0.35906
 C585 C 0.71383 -0.14803 0.34106
 C586 C 0.73687 -0.16396 0.33963
 C587 C 0.75872 -0.15803 0.35669
 C588 C 0.75775 -0.13666 0.37469
 C589 C 0.73293 -0.09696 0.39479
 C590 C 0.75397 -0.08918 0.41240
 C591 C 0.75146 -0.06672 0.42885
 C592 C 0.72791 -0.05167 0.42836
 C593 C 0.70679 -0.05924 0.41111
 C594 C 0.70908 -0.08173 0.39440
 C595 C 0.68955 -0.11068 0.35989
 C596 C 0.68781 -0.08881 0.37715
 H597 H 0.67257 -0.11524 0.34685
 H598 H 0.66956 -0.07716 0.37687
 H599 H 0.69666 -0.15241 0.32824
 H600 H 0.77691 -0.16966 0.35600
 H601 H 0.76811 -0.06083 0.44180
 H602 H 0.68865 -0.04740 0.41059
 H603 H 0.77527 -0.13313 0.38711
 H604 H 0.77261 -0.09991 0.41361
 C605 C 0.63163 0.72986 -0.11707
 C606 C 0.63282 0.75388 -0.13208
 C607 C 0.65106 0.75661 -0.15351
 C608 C 0.66841 0.73573 -0.16031
 C609 C 0.66668 0.71171 -0.14582
 C610 C 0.64856 0.70874 -0.12455
 C611 C 0.61276 0.72823 -0.09359
 C612 C 0.61078 0.70559 -0.07677
 C613 C 0.59366 0.70549 -0.05456
 C614 C 0.57795 0.72776 -0.04872
 C615 C 0.57950 0.75030 -0.06532
 C616 C 0.59676 0.75072 -0.08765
 C617 C 0.61612 0.77522 -0.12540
 C618 C 0.59844 0.77365 -0.10371
 H619 H 0.61690 0.79355 -0.13699
 H620 H 0.58613 0.79081 -0.09923
 H621 H 0.65214 0.77534 -0.16438
 H622 H 0.67940 0.69504 -0.15082
 H623 H 0.59278 0.68803 -0.04171
 H624 H 0.56757 0.76766 -0.06052
 H625 H 0.64832 0.68982 -0.11417
 H626 H 0.62247 0.68792 -0.08015
 C627 C 0.37109 0.26404 -0.12236
 C628 C 0.35493 0.28631 -0.12845
 C629 C 0.33722 0.28529 -0.15040
 C630 C 0.33517 0.26229 -0.16655
 C631 C 0.35137 0.24034 -0.16057
 C632 C 0.36907 0.24115 -0.13882
 C633 C 0.38932 0.26574 -0.09841
 C634 C 0.40599 0.24457 -0.09046
 C635 C 0.42199 0.24686 -0.06754
 C636 C 0.42192 0.27030 -0.05214
 C637 C 0.40566 0.29158 -0.05989
 C638 C 0.38944 0.28952 -0.08288
 C639 C 0.35632 0.30939 -0.11249
 C640 C 0.37317 0.31094 -0.09017
 H641 H 0.34401 0.32647 -0.11719
 H642 H 0.37333 0.32917 -0.07834
 H643 H 0.32507 0.30253 -0.15486
 H644 H 0.35016 0.22220 -0.17241
 H645 H 0.43424 0.23015 -0.06156
 H646 H 0.40554 0.30966 -0.04781
 H647 H 0.38076 0.22353 -0.13519
 H648 H 0.40680 0.22599 -0.10143
 C649 C 0.37583 0.72650 0.11594
 C650 C 0.37562 0.75010 0.13165
 C651 C 0.35841 0.75179 0.15392
 C652 C 0.34124 0.73021 0.16104
 C653 C 0.34168 0.70675 0.14553
 C654 C 0.35870 0.70486 0.12333
 C655 C 0.39423 0.72569 0.09208
 C656 C 0.39546 0.70341 0.07474
 C657 C 0.41258 0.70387 0.05253
 C658 C 0.42897 0.72638 0.04718
 C659 C 0.42808 0.74864 0.06422
 C660 C 0.41082 0.74849 0.08654
 C661 C 0.39254 0.77195 0.12508
 C662 C 0.40981 0.77113 0.10307
 H663 H 0.39241 0.79001 0.13715
 H664 H 0.42247 0.78859 0.09882
 H665 H 0.35831 0.77013 0.16550
 H666 H 0.32899 0.68960 0.15056
 H667 H 0.41298 0.68663 0.03934
 H668 H 0.44055 0.76619 0.05978
 H669 H 0.35812 0.68626 0.11233
 H670 H 0.38322 0.68556 0.07776
 C671 C 0.61629 0.26440 0.12117
 C672 C 0.63568 0.28521 0.12538
 C673 C 0.65326 0.28428 0.14742
 C674 C 0.65197 0.26281 0.16557
 C675 C 0.63244 0.24242 0.16147
 C676 C 0.61485 0.24317 0.13968
 C677 C 0.59828 0.26584 0.09709
 C678 C 0.57884 0.24578 0.09070
 C679 C 0.56307 0.24776 0.06766
 C680 C 0.56608 0.26984 0.05061
 C681 C 0.58519 0.28999 0.05676
 C682 C 0.60130 0.28815 0.07977
 C683 C 0.63751 0.30679 0.10753
 C684 C 0.62061 0.30829 0.08530
 H685 H 0.65231 0.32276 0.11075
 H686 H 0.62285 0.32539 0.07208
 H687 H 0.66796 0.30037 0.15027
 H688 H 0.63067 0.22558 0.17497
 H689 H 0.54864 0.23184 0.06292
 H690 H 0.58763 0.30697 0.04340
 H691 H 0.60037 0.22687 0.13772
 H692 H 0.57569 0.22825 0.10297
 C693 C -0.11447 0.62753 0.73764
 C694 C -0.11798 0.64658 0.71707
 C695 C -0.13876 0.66525 0.71879
 C696 C -0.15641 0.66560 0.74093
 C697 C -0.15290 0.64639 0.76118
 C698 C -0.13235 0.62768 0.75958
 C699 C -0.09163 0.60831 0.73526
 C700 C -0.08604 0.58889 0.75488
 C701 C -0.06400 0.57206 0.75204
 C702 C -0.04723 0.57395 0.72951
 C703 C -0.05266 0.59300 0.70979
 C704 C -0.07463 0.61014 0.71248
 C705 C -0.10056 0.64713 0.69495
 C706 C -0.07937 0.62931 0.69270
 H707 H -0.10323 0.66171 0.67917
 H708 H -0.06633 0.63072 0.67529
 H709 H -0.14077 0.67962 0.70278
 H710 H -0.16589 0.64561 0.77857
 H711 H -0.05977 0.55772 0.76768
 H712 H -0.03949 0.59462 0.69247
 H713 H -0.13078 0.61362 0.77584
 H714 H -0.09816 0.58657 0.77270
 C715 C -0.12643 0.37494 0.27339
 C716 C -0.14212 0.37358 0.24973
 C717 C -0.16462 0.35599 0.24820
 C718 C -0.17184 0.33956 0.26996
 C719 C -0.15657 0.34145 0.29356
 C720 C -0.13425 0.35887 0.29533
 C721 C -0.10196 0.39317 0.27388
 C722 C -0.08447 0.39517 0.29611
 C723 C -0.06140 0.41166 0.29522
 C724 C -0.05529 0.42671 0.27234
 C725 C -0.07260 0.42522 0.25018
 C726 C -0.09581 0.40852 0.25075
 C727 C -0.13511 0.38953 0.22765
 C728 C -0.11252 0.40669 0.22818
 H729 H -0.14719 0.38861 0.20957
 H730 H -0.10788 0.41847 0.21049
 H731 H -0.17611 0.35477 0.22978
 H732 H -0.16184 0.32947 0.31090
 H733 H -0.04806 0.41253 0.31241
 H734 H -0.06762 0.43666 0.23234
 H735 H -0.12340 0.35930 0.31403
 H736 H -0.08794 0.38393 0.31423
 C737 C 0.11576 0.37409 0.73383
 C738 C 0.11992 0.35637 0.71214
 C739 C 0.14139 0.33839 0.71274
 C740 C 0.15894 0.33752 0.73480
 C741 C 0.15471 0.35513 0.75628
 C742 C 0.13350 0.37316 0.75583
 C743 C 0.09250 0.39288 0.73245
 C744 C 0.08655 0.41126 0.75301
 C745 C 0.06434 0.42795 0.75095
 C746 C 0.04770 0.42689 0.72832
 C747 C 0.05338 0.40882 0.70770
 C748 C 0.07563 0.39190 0.70954
 C749 C 0.10258 0.35657 0.68998
 C750 C 0.08091 0.37392 0.68873
 H751 H 0.10574 0.34299 0.67338
 H752 H 0.06802 0.37320 0.67119
 H753 H 0.14433 0.32514 0.69587
 H754 H 0.16762 0.35496 0.77372
 H755 H 0.05989 0.44155 0.76722
 H756 H 0.04030 0.40787 0.69030
 H757 H 0.13135 0.38607 0.77299
 H758 H 0.09857 0.41294 0.77094
 C759 C 0.12052 0.62256 0.27251
 C760 C 0.13699 0.62265 0.24934
 C761 C 0.15981 0.63981 0.24782
 C762 C 0.16658 0.65712 0.26910
 C763 C 0.15043 0.65660 0.29220
 C764 C 0.12779 0.63960 0.29395
 C765 C 0.09586 0.60462 0.27302
 C766 C 0.07778 0.60365 0.29485
 C767 C 0.05463 0.58729 0.29400
 C768 C 0.04902 0.57134 0.27155
 C769 C 0.06685 0.57190 0.24976
 C770 C 0.09019 0.58839 0.25032
 C771 C 0.13046 0.60585 0.22770
 C772 C 0.10759 0.58906 0.22820
 H773 H 0.14313 0.60580 0.20999
 H774 H 0.10332 0.57660 0.21086
 H775 H 0.17193 0.63996 0.22977
 H776 H 0.15521 0.66934 0.30915
 H777 H 0.04086 0.58719 0.31088
 H778 H 0.06223 0.55981 0.23223
 H779 H 0.11626 0.64025 0.31224
 H780 H 0.08089 0.61556 0.31263
 C781 C 0.74043 -0.11758 0.62781
 C782 C 0.71916 -0.12277 0.64617
 C783 C 0.72111 -0.14375 0.66471
 C784 C 0.74404 -0.15987 0.66537
 C785 C 0.76496 -0.15483 0.64697
 C786 C 0.76324 -0.13402 0.62846
 C787 C 0.73777 -0.09463 0.60870
 C788 C 0.75803 -0.08740 0.59000
 C789 C 0.75484 -0.06540 0.57316
 C790 C 0.73136 -0.05027 0.57438
 C791 C 0.71103 -0.05728 0.59272
 C792 C 0.71404 -0.07926 0.60985
 C793 C 0.69612 -0.10692 0.64608
 C794 C 0.69362 -0.08563 0.62831
 H795 H 0.67980 -0.11093 0.66008
 H796 H 0.67548 -0.07384 0.62919
 H797 H 0.70462 -0.14752 0.67855
 H798 H 0.78302 -0.16669 0.64706
 H799 H 0.77092 -0.05987 0.55938
 H800 H 0.69299 -0.04532 0.59382
 H801 H 0.78007 -0.13111 0.61498
 H802 H 0.77661 -0.09818 0.58828
 C803 C 0.27800 -0.11979 0.37233
 C804 C 0.25482 -0.13685 0.37294
 C805 C 0.25303 -0.15922 0.35591
 C806 C 0.27404 -0.16504 0.33803
 C807 C 0.29719 -0.14832 0.33782
 C808 C 0.29921 -0.12606 0.35469
 C809 C 0.27875 -0.09564 0.39026
 C810 C 0.30056 -0.07700 0.39063
 C811 C 0.29990 -0.05444 0.40712
 C812 C 0.27766 -0.05000 0.42374
 C813 C 0.25591 -0.06839 0.42375
 C814 C 0.25628 -0.09112 0.40718
 C815 C 0.23342 -0.13138 0.39037
 C816 C 0.23415 -0.10904 0.40714
 H817 H 0.21572 -0.14452 0.39094
 H818 H 0.21699 -0.10562 0.42011
 H819 H 0.23494 -0.17177 0.35636
 H820 H 0.31396 -0.15238 0.32462
 H821 H 0.31673 -0.04022 0.40681
 H822 H 0.23853 -0.06467 0.43637
 H823 H 0.31751 -0.11403 0.35351
 H824 H 0.31815 -0.07924 0.37815
 C825 C 0.72169 0.11522 0.37530
 C826 C 0.74484 0.13233 0.37552
 C827 C 0.74644 0.15446 0.35820
 C828 C 0.72524 0.15994 0.34046
 C829 C 0.70217 0.14312 0.34063
 C830 C 0.70036 0.12112 0.35776
 C831 C 0.72105 0.09142 0.39361
 C832 C 0.69923 0.07282 0.39438
 C833 C 0.69991 0.05061 0.41126
 C834 C 0.72218 0.04650 0.42787
 C835 C 0.74397 0.06485 0.42745
 C836 C 0.74358 0.08723 0.41047
 C837 C 0.76635 0.12718 0.39287
 C838 C 0.76571 0.10515 0.41000
 H839 H 0.78405 0.14034 0.39314
 H840 H 0.78293 0.10197 0.42293
 H841 H 0.76445 0.16712 0.35837
 H842 H 0.68526 0.14690 0.32756
 H843 H 0.68306 0.03641 0.41124
 H844 H 0.76139 0.06137 0.44005
 H845 H 0.68209 0.10904 0.35684
 H846 H 0.68158 0.07481 0.38196
 C847 C 0.26152 0.11945 0.61923
 C848 C 0.28376 0.12585 0.63601
 C849 C 0.28253 0.14760 0.65376
 C850 C 0.25933 0.16329 0.65533
 C851 C 0.23745 0.15714 0.63838
 C852 C 0.23847 0.13555 0.62059
 C853 C 0.26345 0.09559 0.60104
 C854 C 0.24234 0.08725 0.58377
 C855 C 0.24492 0.06444 0.56781
 C856 C 0.26862 0.04961 0.56854
 C857 C 0.28979 0.05772 0.58543
 C858 C 0.28744 0.08056 0.60159
 C859 C 0.30706 0.11039 0.63522
 C860 C 0.30885 0.08823 0.61840
 H861 H 0.32414 0.11538 0.64798
 H862 H 0.32725 0.07681 0.61869
 H863 H 0.29979 0.15220 0.66636
 H864 H 0.21923 0.16873 0.63904
 H865 H 0.22830 0.05816 0.55500
 H866 H 0.30804 0.04606 0.58606
 H867 H 0.22092 0.13172 0.60829
 H868 H 0.22362 0.09785 0.58242
   
