data_POSCAR
  _audit_creation_date              2014-09-24
  _audit_creation_method            'ToBaCCo'
  _symmetry_space_group_name_H-M    'P1'
  _symmetry_Int_Tables_number       1
  _symmetry_cell_setting            triclinic
  loop_
  _symmetry_equiv_pos_as_xyz
 x,y,z
_cell_length_a 55.6212
_cell_length_b 58.8562
_cell_length_c 52.8669
_cell_angle_alpha 91.552900
_cell_angle_beta 89.581500
_cell_angle_gamma 90.364300
loop_
  _atom_site_label
  _atom_site_type_symbol
  _atom_site_fract_x
  _atom_site_fract_y
  _atom_site_fract_z
N1 N 0.15750 0.19992 0.24002
 N2 N 0.17186 0.18236 0.23764
 C3 C 0.16546 0.16677 0.25462
 C4 C 0.14584 0.17486 0.26856
 C5 C 0.14139 0.19608 0.25860
 H6 H 0.17452 0.15074 0.25651
 H7 H 0.12749 0.20793 0.26428
 Cu8 Cu 0.19751 0.18110 0.21242
 Cu9 Cu 0.16076 0.22635 0.21868
 Cu10 Cu 0.21051 0.22744 0.17898
 N11 N 0.22724 0.18357 0.19301
 N12 N 0.23222 0.20170 0.17999
 C13 C 0.25330 0.19869 0.16776
 C14 C 0.26221 0.17738 0.17332
 C15 C 0.24504 0.16837 0.18958
 H16 H 0.26125 0.21108 0.15549
 H17 H 0.24515 0.15189 0.19807
 N18 N 0.18649 0.25186 0.18054
 N19 N 0.16744 0.25148 0.19553
 C20 C 0.15416 0.27012 0.19157
 C21 C 0.16537 0.28288 0.17312
 C22 C 0.18585 0.27069 0.16668
 H23 H 0.13734 0.27386 0.20108
 H24 H 0.19921 0.27500 0.15266
 H25 H 0.17870 0.21107 0.18855
 H26 H 0.19747 0.22238 0.21533
 N27 N -0.18437 0.80097 0.22061
 N28 N -0.20029 0.81736 0.22071
 C29 C -0.19567 0.83191 0.24024
 C30 C -0.17573 0.82423 0.25307
 C31 C -0.16912 0.80450 0.23998
 H32 H -0.20584 0.84712 0.24453
 H33 H -0.15424 0.79351 0.24409
 Cu34 Cu -0.22523 0.81811 0.19498
 Cu35 Cu -0.18405 0.77659 0.19501
 Cu36 Cu -0.22847 0.77717 0.14938
 N37 N -0.25055 0.81788 0.16963
 N38 N -0.25168 0.80186 0.15188
 C39 C -0.27068 0.80567 0.13698
 C40 C -0.28231 0.82520 0.14579
 C41 C -0.26886 0.83242 0.16664
 H42 H -0.27553 0.79490 0.12094
 H43 H -0.27206 0.84715 0.17880
 N44 N -0.20336 0.75363 0.15009
 N45 N -0.18657 0.75341 0.16758
 C46 C -0.17193 0.73567 0.16283
 C47 C -0.17976 0.72405 0.14125
 C48 C -0.19981 0.73598 0.13375
 H49 H -0.15639 0.73181 0.17401
 H50 H -0.21091 0.73220 0.11748
 H51 H -0.20034 0.79447 0.16671
 H52 H -0.22045 0.77738 0.18740
 N53 N -0.17296 0.19543 -0.22976
 N54 N -0.18902 0.17898 -0.22934
 C55 C -0.18407 0.16382 -0.24821
 C56 C -0.16377 0.17112 -0.26119
 C57 C -0.15729 0.19131 -0.24883
 H58 H -0.19437 0.14851 -0.25205
 H59 H -0.14230 0.20228 -0.25331
 Cu60 Cu -0.21473 0.17905 -0.20399
 Cu61 Cu -0.17335 0.22096 -0.20549
 Cu62 Cu -0.21930 0.22184 -0.16084
 N63 N -0.24080 0.18002 -0.17903
 N64 N -0.24242 0.19683 -0.16227
 C65 C -0.26169 0.19341 -0.14728
 C66 C -0.27297 0.17325 -0.15492
 C67 C -0.25905 0.16529 -0.17526
 H68 H -0.26689 0.20482 -0.13189
 H69 H -0.26182 0.14988 -0.18643
 N70 N -0.19426 0.24565 -0.16235
 N71 N -0.17679 0.24534 -0.17937
 C72 C -0.16252 0.26365 -0.17532
 C73 C -0.17135 0.27612 -0.15471
 C74 C -0.19153 0.26414 -0.14703
 H75 H -0.14661 0.26741 -0.18633
 H76 H -0.20340 0.26857 -0.13143
 H77 H -0.19064 0.20418 -0.17667
 H78 H -0.20994 0.22011 -0.19874
 N79 N 0.17105 0.80352 -0.24375
 N80 N 0.18538 0.82130 -0.24181
 C81 C 0.17970 0.83604 -0.25986
 C82 C 0.16073 0.82706 -0.27392
 C83 C 0.15579 0.80634 -0.26305
 H84 H 0.18856 0.85221 -0.26238
 H85 H 0.14210 0.79415 -0.26867
 Cu86 Cu 0.20998 0.82358 -0.21571
 Cu87 Cu 0.17288 0.77815 -0.22091
 Cu88 Cu 0.21723 0.78104 -0.17532
 N89 N 0.23534 0.82447 -0.19034
 N90 N 0.23799 0.80771 -0.17473
 C91 C 0.25641 0.81246 -0.15912
 C92 C 0.26607 0.83348 -0.16510
 C93 C 0.25211 0.84053 -0.18515
 H94 H 0.26213 0.80135 -0.14443
 H95 H 0.25383 0.85622 -0.19518
 N96 N 0.19459 0.75538 -0.17874
 N97 N 0.17764 0.75421 -0.19603
 C98 C 0.16483 0.73494 -0.19302
 C99 C 0.17417 0.72338 -0.17281
 C100 C 0.19305 0.73694 -0.16431
 H101 H 0.14961 0.72991 -0.20448
 H102 H 0.20471 0.73380 -0.14856
 H103 H 0.18746 0.79626 -0.19079
 H104 H 0.20903 0.78227 -0.21346
 N105 N 0.20334 1.17302 0.76766
 N106 N 0.18407 1.18452 0.77437
 C107 C 0.16566 1.17796 0.75945
 C108 C 0.17386 1.16139 0.74240
 C109 C 0.19790 1.15873 0.74826
 H110 H 0.14772 1.18485 0.76090
 H111 H 0.21045 1.14699 0.73941
 Cu112 Cu 0.18480 1.20684 0.80198
 Cu113 Cu 0.23372 1.17689 0.78520
 Cu114 Cu 0.23767 1.22149 0.82904
 N115 N 0.18859 1.23465 0.82199
 N116 N 0.20905 1.24038 0.83274
 C117 C 0.20630 1.26043 0.84531
 C118 C 0.18286 1.26770 0.84207
 C119 C 0.17220 1.25082 0.82716
 H120 H 0.22040 1.26921 0.85568
 H121 H 0.15384 1.25020 0.82064
 N122 N 0.26437 1.20016 0.82203
 N123 N 0.26283 1.18345 0.80496
 C124 C 0.28329 1.17143 0.80494
 C125 C 0.29856 1.18089 0.82291
 C126 C 0.28593 1.19912 0.83342
 H127 H 0.28636 1.15620 0.79354
 H128 H 0.29178 1.21046 0.84861
 H129 H 0.22129 1.19101 0.81942
 H130 H 0.22740 1.21117 0.79329
 N131 N 0.81597 0.82072 0.77177
 N132 N 0.83197 0.80442 0.77082
 C133 C 0.84503 0.80608 0.74939
 C134 C 0.83665 0.82445 0.73621
 C135 C 0.81822 0.83334 0.75109
 H136 H 0.85974 0.79499 0.74405
 H137 H 0.80773 0.84834 0.74771
 Cu138 Cu 0.83510 0.78379 0.79868
 Cu139 Cu 0.79476 0.82547 0.80068
 Cu140 Cu 0.78683 0.77749 0.83659
 N141 N 0.83443 0.76154 0.82510
 N142 N 0.81557 0.75903 0.83988
 C143 C 0.81971 0.74208 0.85585
 C144 C 0.84253 0.73354 0.85090
 C145 C 0.85125 0.74639 0.83119
 H146 H 0.80694 0.73643 0.86988
 H147 H 0.86847 0.74482 0.82176
 N148 N 0.76407 0.80310 0.83722
 N149 N 0.76751 0.82143 0.82379
 C150 C 0.74937 0.83596 0.82823
 C151 C 0.73371 0.82648 0.84546
 C152 C 0.74367 0.80565 0.85089
 H153 H 0.74787 0.85238 0.81971
 H154 H 0.73662 0.79328 0.86380
 H155 H 0.80837 0.80401 0.82840
 H156 H 0.79205 0.79116 0.80073
 N157 N 0.19289 0.82335 1.24086
 N158 N 0.18122 0.80463 1.24636
 C159 C 0.17154 0.80708 1.26970
 C160 C 0.17749 0.82853 1.27937
 C161 C 0.19107 0.83831 1.26043
 H162 H 0.16077 0.79431 1.27885
 H163 H 0.19849 0.85532 1.26048
 Cu164 Cu 0.17919 0.77949 1.22177
 Cu165 Cu 0.20915 0.82726 1.20859
 Cu166 Cu 0.20664 0.78221 1.16497
 N167 N 0.17751 0.75434 1.19721
 N168 N 0.18834 0.75547 1.17509
 C169 C 0.18359 0.73632 1.16148
 C170 C 0.16892 0.72241 1.17579
 C171 C 0.16551 0.73447 1.19839
 H172 H 0.18966 0.73318 1.14225
 H173 H 0.15484 0.72926 1.21442
 N174 N 0.22410 0.81087 1.15853
 N175 N 0.22461 0.82804 1.17509
 C176 C 0.23805 0.84493 1.16567
 C177 C 0.24657 0.83819 1.14202
 C178 C 0.23735 0.81644 1.13810
 H179 H 0.24204 0.86071 1.17571
 H180 H 0.24028 0.80541 1.12171
 H181 H 0.18760 0.80506 1.18733
 H182 H 0.21551 0.79305 1.20108
 N183 N 0.81707 1.17374 1.22722
 N184 N 0.83572 1.18682 1.22264
 C185 C 0.85413 1.18068 1.23731
 C186 C 0.84659 1.16272 1.25191
 C187 C 0.82293 1.15882 1.24491
 H188 H 0.87162 1.18881 1.23739
 H189 H 0.81091 1.14585 1.25180
 Cu190 Cu 0.83421 1.21041 1.19782
 Cu191 Cu 0.78695 1.17639 1.20927
 Cu192 Cu 0.78139 1.22218 1.17010
 N193 N 0.82917 1.23853 1.18043
 N194 N 0.80875 1.24306 1.16935
 C195 C 0.81066 1.26335 1.15829
 C196 C 0.83350 1.27206 1.16286
 C197 C 0.84469 1.25578 1.17699
 H198 H 0.79647 1.27118 1.14781
 H199 H 0.86295 1.25619 1.18387
 N200 N 0.75597 1.19895 1.17391
 N201 N 0.75801 1.18185 1.18936
 C202 C 0.73839 1.16851 1.18733
 C203 C 0.72322 1.17749 1.16965
 C204 C 0.73496 1.19682 1.16148
 H205 H 0.73593 1.15270 1.19698
 H206 H 0.72895 1.20818 1.14713
 H207 H 0.79953 1.19262 1.17718
 H208 H 0.79115 1.21125 1.20510
 O209 O 0.52359 0.97761 0.96745
 O210 O 0.46513 0.98147 1.04454
 O211 O 0.52643 0.97311 1.01170
 O212 O 0.44902 0.99663 0.97434
 O213 O 0.51118 0.98022 1.04863
 O214 O 0.47916 0.97434 0.96550
 O215 O 0.44131 1.00045 1.01939
 O216 O 0.55511 0.99398 0.98544
 C217 C 0.54646 0.98018 0.96767
 C218 C 0.44491 0.98429 1.03444
 C219 C 0.52341 0.96761 1.03406
 C220 C 0.45694 0.97744 0.96700
 O221 O 0.47656 1.01568 0.94791
 O222 O 0.51120 1.02538 1.05291
 O223 O 0.53375 1.03187 0.99251
 O224 O 0.45991 1.04338 1.01932
 O225 O 0.46627 1.02456 1.05262
 O226 O 0.51977 1.02208 0.95636
 O227 O 0.47047 1.03996 0.97666
 O228 O 0.54132 1.01115 1.03184
 Co229 Co 0.49923 0.99844 0.96353
 Co230 Co 0.48911 1.00313 1.04534
 Co231 Co 0.52798 1.00277 1.00155
 Co232 Co 0.45808 1.01908 0.99751
 O233 O 0.49225 1.00674 1.00403
 C234 C 0.47142 1.03555 0.95391
 C235 C 0.53330 1.02483 1.04839
 C236 C 0.53157 1.03596 0.96979
 C237 C 0.45831 1.04186 1.04254
 O238 O 0.02519 0.48099 0.04844
 O239 O 0.03245 0.52189 -0.05044
 O240 O 0.01706 0.45294 -0.02608
 O241 O 0.04318 0.52611 0.02712
 O242 O 0.03379 0.47970 -0.04722
 O243 O 0.01589 0.52212 0.05374
 O244 O 0.04957 0.53254 -0.01589
 O245 O 0.03696 0.46447 0.01406
 C246 C 0.04038 0.46887 0.03682
 C247 C 0.04944 0.53174 -0.03929
 C248 C 0.03251 0.45919 -0.04182
 C249 C 0.03682 0.52808 0.04927
 O250 O -0.02622 0.51564 0.03270
 O251 O -0.01428 0.47881 -0.04730
 O252 O -0.00257 0.44349 0.01948
 O253 O 0.00415 0.54786 -0.02169
 O254 O -0.01352 0.52243 -0.04703
 O255 O -0.02110 0.47392 0.03436
 O256 O -0.00326 0.54437 0.02325
 O257 O -0.02412 0.46785 -0.01000
 Co258 Co -0.00021 0.49831 0.03811
 Co259 Co 0.00957 0.50047 -0.04365
 Co260 Co 0.00671 0.46809 0.00243
 Co261 Co 0.02242 0.53492 0.00326
 O262 O 0.01063 0.50163 -0.00204
 C263 C -0.02366 0.53654 0.02945
 C264 C -0.02859 0.46856 -0.03301
 C265 C -0.01748 0.45261 0.03620
 C266 C -0.01148 0.54253 -0.03834
 O267 O 1.02715 0.02773 0.48451
 O268 O 0.94906 0.01709 0.51964
 O269 O 0.97684 0.00118 0.44371
 O270 O 1.01048 0.00391 0.56292
 O271 O 0.95191 0.01776 0.47116
 O272 O 1.02604 0.02188 0.53075
 O273 O 0.98388 0.02535 0.53514
 O274 O 1.01946 0.00679 0.45091
 C275 C 1.02534 0.02578 0.46093
 C276 C 0.96218 0.02995 0.53299
 C277 C 0.96118 0.01622 0.44934
 C278 C 1.02708 0.01778 0.55433
 O279 O 1.03926 -0.02180 0.52198
 O280 O 0.94749 -0.02557 0.46899
 O281 O 1.02080 -0.03766 0.46917
 O282 O 0.96729 -0.01389 0.54820
 O283 O 0.94828 -0.02820 0.51596
 O284 O 1.04641 -0.01255 0.47710
 O285 O 1.00567 -0.03289 0.53730
 O286 O 0.98034 -0.04238 0.45891
 Co287 Co 1.03081 0.00269 0.50306
 Co288 Co 0.95332 -0.00479 0.49449
 Co289 Co 0.99928 -0.01712 0.45886
 Co290 Co 0.99528 -0.00398 0.53401
 O291 O 0.99279 -0.00670 0.49614
 C292 C 1.02741 -0.03636 0.53381
 C293 C 0.95812 -0.04185 0.45837
 C294 C 1.04210 -0.03236 0.47007
 C295 C 0.95249 -0.02798 0.53915
 C296 C 1.10078 0.16318 0.31965
 C297 C 1.10778 0.14154 0.32693
 C298 C 1.12749 0.13110 0.31504
 C299 C 1.14010 0.14209 0.29590
 C300 C 1.13324 0.16388 0.28816
 C301 C 1.11336 0.17427 0.30049
 C302 C 1.09458 0.12971 0.34618
 C303 C 1.08387 0.11909 0.36195
 C304 C 1.07173 0.10578 0.37997
 C305 C 1.06179 0.09362 0.39486
 C306 C 1.05048 0.07802 0.41192
 C307 C 1.03790 0.05918 0.40204
 C308 C 1.02902 0.04262 0.41814
 C309 C 1.03256 0.04466 0.44444
 C310 C 1.04440 0.06410 0.45435
 C311 C 1.05340 0.08064 0.43815
 H312 H 1.08550 0.17144 0.32870
 H313 H 1.13306 0.11432 0.32048
 H314 H 1.15515 0.13324 0.28726
 H315 H 1.10727 0.19094 0.29543
 H316 H 1.03555 0.05693 0.38180
 H317 H 1.01991 0.02792 0.40990
 H318 H 1.04741 0.06614 0.47450
 H319 H 1.06316 0.09513 0.44601
 C320 C 0.87032 -0.16262 0.30429
 C321 C 0.85970 -0.14421 0.31726
 C322 C 0.83737 -0.13623 0.30947
 C323 C 0.82576 -0.14652 0.28870
 C324 C 0.83635 -0.16499 0.27540
 C325 C 0.85877 -0.17294 0.28353
 C326 C 0.87204 -0.13313 0.33810
 C327 C 0.88257 -0.12358 0.35523
 C328 C 0.89509 -0.11194 0.37485
 C329 C 0.90586 -0.10149 0.39116
 C330 C 0.91874 -0.08826 0.41004
 C331 C 0.94370 -0.09037 0.41221
 C332 C 0.95648 -0.07593 0.42881
 C333 C 0.94443 -0.05912 0.44340
 C334 C 0.91924 -0.05771 0.44175
 C335 C 0.90652 -0.07216 0.42516
 H336 H 0.88764 -0.16890 0.31009
 H337 H 0.82897 -0.12198 0.31937
 H338 H 0.80852 -0.13996 0.28317
 H339 H 0.86766 -0.18693 0.27376
 H340 H 0.95336 -0.10274 0.40058
 H341 H 0.97586 -0.07740 0.42956
 H342 H 0.90943 -0.04494 0.45267
 H343 H 0.88721 -0.07034 0.42361
 C344 C 0.85024 0.12946 0.68441
 C345 C 0.87217 0.13797 0.67546
 C346 C 0.88227 0.15738 0.68708
 C347 C 0.87058 0.16820 0.70756
 C348 C 0.84854 0.15975 0.71682
 C349 C 0.83850 0.14024 0.70489
 C350 C 0.88453 0.12651 0.65474
 C351 C 0.89492 0.11664 0.63763
 C352 C 0.90706 0.10462 0.61788
 C353 C 0.91728 0.09381 0.60136
 C354 C 0.92920 0.08005 0.58213
 C355 C 0.95400 0.07630 0.58339
 C356 C 0.96508 0.06091 0.56643
 C357 C 0.95144 0.04896 0.54804
 C358 C 0.92672 0.05358 0.54624
 C359 C 0.91570 0.06899 0.56319
 H360 H 0.84224 0.11442 0.67560
 H361 H 0.89928 0.16410 0.68040
 H362 H 0.87902 0.18305 0.71617
 H363 H 0.82157 0.13323 0.71127
 H364 H 0.96462 0.08469 0.59803
 H365 H 0.98411 0.05765 0.56842
 H366 H 0.91571 0.04464 0.53235
 H367 H 0.89649 0.07169 0.56205
 C368 C 1.14486 -0.13229 0.67407
 C369 C 1.12397 -0.14236 0.66417
 C370 C 1.11525 -0.16256 0.67426
 C371 C 1.12725 -0.17259 0.69423
 C372 C 1.14820 -0.16253 0.70449
 C373 C 1.15690 -0.14228 0.69404
 C374 C 1.11120 -0.13163 0.64411
 C375 C 1.10045 -0.12228 0.62762
 C376 C 1.08781 -0.11077 0.60877
 C377 C 1.07699 -0.10030 0.59321
 C378 C 1.06405 -0.08685 0.57548
 C379 C 1.03905 -0.08477 0.57760
 C380 C 1.02682 -0.06933 0.56278
 C381 C 1.03949 -0.05565 0.54572
 C382 C 1.06443 -0.05872 0.54274
 C383 C 1.07662 -0.07419 0.55758
 H384 H 1.15178 -0.11663 0.66645
 H385 H 1.09904 -0.17048 0.66682
 H386 H 1.11986 -0.18808 0.70171
 H387 H 1.17299 -0.13405 0.70120
 H388 H 1.02913 -0.09442 0.59143
 H389 H 1.00763 -0.06730 0.56559
 H390 H 1.07468 -0.04844 0.52978
 H391 H 1.09597 -0.07561 0.55579
 C392 C 0.31904 1.16762 1.13650
 C393 C 0.32496 1.14565 1.14356
 C394 C 0.31044 1.13442 1.16101
 C395 C 0.28990 1.14496 1.17111
 C396 C 0.28342 1.16700 1.16387
 C397 C 0.29854 1.17823 1.14656
 C398 C 0.34534 1.13430 1.13211
 C399 C 0.36201 1.12453 1.12208
 C400 C 0.38101 1.11269 1.10983
 C401 C 0.39665 1.10211 1.09897
 C402 C 0.41450 1.08878 1.08553
 C403 C 0.42640 1.07132 1.09770
 C404 C 0.44162 1.05665 1.08394
 C405 C 0.44505 1.05923 1.05777
 C406 C 0.43381 1.07744 1.04593
 C407 C 0.41860 1.09207 1.05973
 H408 H 0.33012 1.17646 1.12294
 H409 H 0.31484 1.11737 1.16659
 H410 H 0.27914 1.13555 1.18438
 H411 H 0.29459 1.19513 1.14033
 H412 H 0.42332 1.06858 1.11765
 H413 H 0.45002 1.04282 1.09361
 H414 H 0.43606 1.07988 1.02582
 H415 H 0.40943 1.10548 1.05009
 C416 C 0.31612 0.84713 0.87972
 C417 C 0.32342 0.86850 0.87163
 C418 C 0.31200 0.87814 0.85106
 C419 C 0.29319 0.86657 0.83876
 C420 C 0.28541 0.84505 0.84687
 C421 C 0.29737 0.83549 0.86750
 C422 C 0.34217 0.88074 0.88490
 C423 C 0.35760 0.89114 0.89628
 C424 C 0.37527 0.90370 0.90976
 C425 C 0.38996 0.91497 0.92124
 C426 C 0.40691 0.92930 0.93469
 C427 C 0.43164 0.92507 0.93299
 C428 C 0.44805 0.94024 0.94437
 C429 C 0.43987 0.95989 0.95743
 C430 C 0.41496 0.96352 0.95976
 C431 C 0.39863 0.94833 0.94847
 H432 H 0.32482 0.83950 0.89565
 H433 H 0.31752 0.89472 0.84464
 H434 H 0.28481 0.87471 0.82304
 H435 H 0.29232 0.81908 0.87459
 H436 H 0.43824 0.91037 0.92237
 H437 H 0.46711 0.93699 0.94225
 H438 H 0.40806 0.97843 0.96975
 H439 H 0.37955 0.95177 0.94993
 C440 C 0.66531 0.83638 1.10397
 C441 C 0.65610 0.85627 1.11523
 C442 C 0.66712 0.86571 1.13679
 C443 C 0.68734 0.85544 1.14697
 C444 C 0.69702 0.83542 1.13576
 C445 C 0.68553 0.82602 1.11409
 C446 C 0.63576 0.86741 1.10435
 C447 C 0.61906 0.87721 1.09521
 C448 C 0.60000 0.88936 1.08446
 C449 C 0.58432 0.90047 1.07523
 C450 C 0.56645 0.91479 1.06426
 C451 C 0.54999 0.92648 1.07987
 C452 C 0.53486 0.94276 1.06976
 C453 C 0.53611 0.94767 1.04388
 C454 C 0.55187 0.93502 1.02810
 C455 C 0.56696 0.91873 1.03825
 H456 H 0.65697 0.82892 1.08722
 H457 H 0.66018 0.88115 1.14567
 H458 H 0.69531 0.86346 1.16354
 H459 H 0.69209 0.81077 1.10462
 H460 H 0.54949 0.92365 1.10003
 H461 H 0.52295 0.95221 1.08241
 H462 H 0.55329 0.93840 1.00810
 H463 H 0.57967 0.90985 1.02596
 C464 C 0.67439 1.16295 0.88785
 C465 C 0.66557 1.14230 0.87795
 C466 C 0.67694 1.13205 0.85694
 C467 C 0.69710 1.14228 0.84596
 C468 C 0.70638 1.16305 0.85583
 C469 C 0.69453 1.17326 0.87694
 C470 C 0.64531 1.13132 0.88977
 C471 C 0.62866 1.12182 0.89988
 C472 C 0.60961 1.11018 0.91192
 C473 C 0.59385 1.09967 0.92232
 C474 C 0.57579 1.08620 0.93478
 C475 C 0.55858 1.07415 0.92051
 C476 C 0.54310 1.05874 0.93220
 C477 C 0.54471 1.05511 0.95833
 C478 C 0.56121 1.06815 0.97273
 C479 C 0.57667 1.08355 0.96100
 H480 H 0.66579 1.17105 0.90416
 H481 H 0.67030 1.11601 0.84912
 H482 H 0.70533 1.13367 0.82982
 H483 H 0.70072 1.18915 0.88536
 H484 H 0.55775 1.07601 0.90020
 H485 H 0.53057 1.04897 0.92061
 H486 H 0.56294 1.06569 0.99287
 H487 H 0.58994 1.09273 0.97225
 C488 C 0.16090 0.33351 0.13020
 C489 C 0.14009 0.34412 0.13946
 C490 C 0.12776 0.33502 0.16005
 C491 C 0.13608 0.31528 0.17120
 C492 C 0.15688 0.30429 0.16186
 C493 C 0.16926 0.31379 0.14129
 C494 C 0.13086 0.36377 0.12715
 C495 C 0.12277 0.37982 0.11641
 C496 C 0.11265 0.39804 0.10337
 C497 C 0.10323 0.41297 0.09187
 C498 C 0.09079 0.42982 0.07775
 C499 C 0.07736 0.44671 0.09041
 C500 C 0.06215 0.46070 0.07684
 C501 C 0.06010 0.45783 0.05043
 C502 C 0.07479 0.44176 0.03772
 C503 C 0.08997 0.42782 0.05133
 H504 H 0.17053 0.34032 0.11417
 H505 H 0.11155 0.34304 0.16733
 H506 H 0.12607 0.30866 0.18701
 H507 H 0.18525 0.30594 0.13341
 H508 H 0.07779 0.44837 0.11086
 H509 H 0.05106 0.47290 0.08715
 H510 H 0.07356 0.43908 0.01742
 H511 H 0.10020 0.41475 0.04133
 C512 C -0.15898 0.32488 -0.10787
 C513 C -0.14101 0.33694 -0.12052
 C514 C -0.13320 0.32934 -0.14448
 C515 C -0.14317 0.30968 -0.15570
 C516 C -0.16114 0.29730 -0.14307
 C517 C -0.16900 0.30523 -0.11905
 C518 C -0.13000 0.35667 -0.10861
 C519 C -0.12028 0.37292 -0.09863
 C520 C -0.10815 0.39156 -0.08699
 C521 C -0.09700 0.40703 -0.07716
 C522 C -0.08255 0.42482 -0.06563
 C523 C -0.06972 0.43981 -0.08087
 C524 C -0.05314 0.45507 -0.07005
 C525 C -0.04908 0.45547 -0.04379
 C526 C -0.06294 0.44114 -0.02846
 C527 C -0.07952 0.42587 -0.03935
 H528 H -0.16507 0.33052 -0.08924
 H529 H -0.11926 0.33851 -0.15445
 H530 H -0.13676 0.30428 -0.17425
 H531 H -0.18260 0.29611 -0.10861
 H532 H -0.07184 0.43909 -0.10124
 H533 H -0.04275 0.46586 -0.08236
 H534 H -0.06020 0.44098 -0.00820
 H535 H -0.08927 0.41429 -0.02737
 C536 C 0.13747 0.66965 -0.16224
 C537 C 0.14797 0.66155 -0.14029
 C538 C 0.16730 0.67334 -0.12929
 C539 C 0.17598 0.69325 -0.14000
 C540 C 0.16540 0.70177 -0.16192
 C541 C 0.14611 0.68959 -0.17301
 C542 C 0.13832 0.64170 -0.12844
 C543 C 0.12990 0.62544 -0.11809
 C544 C 0.11946 0.60690 -0.10555
 C545 C 0.10985 0.59161 -0.09453
 C546 C 0.09733 0.57413 -0.08107
 C547 C 0.09951 0.57300 -0.05477
 C548 C 0.08488 0.55815 -0.04122
 C549 C 0.06776 0.54435 -0.05383
 C550 C 0.06655 0.54481 -0.08039
 C551 C 0.08121 0.55965 -0.09389
 H552 H 0.12243 0.66069 -0.17088
 H553 H 0.17552 0.66727 -0.11224
 H554 H 0.19079 0.70200 -0.13080
 H555 H 0.13751 0.69545 -0.18988
 H556 H 0.11184 0.58421 -0.04463
 H557 H 0.08620 0.55826 -0.02078
 H558 H 0.05354 0.53443 -0.09065
 H559 H 0.07931 0.56045 -0.11423
 C560 C -0.16501 0.67743 0.09236
 C561 C -0.14592 0.66651 0.10398
 C562 C -0.13822 0.67408 0.12789
 C563 C -0.14939 0.69257 0.14010
 C564 C -0.16847 0.70389 0.12854
 C565 C -0.17624 0.69598 0.10455
 C566 C -0.13359 0.64799 0.09124
 C567 C -0.12243 0.63274 0.08109
 C568 C -0.10836 0.61527 0.06983
 C569 C -0.09543 0.60078 0.06076
 C570 C -0.07883 0.58414 0.05064
 C571 C -0.08221 0.56098 0.05512
 C572 C -0.06468 0.54522 0.04741
 C573 C -0.04349 0.55252 0.03533
 C574 C -0.04066 0.57574 0.03023
 C575 C -0.05821 0.59139 0.03781
 H576 H -0.17103 0.67178 0.07378
 H577 H -0.12340 0.66580 0.13703
 H578 H -0.14292 0.69794 0.15855
 H579 H -0.19074 0.70423 0.09495
 H580 H -0.09806 0.55520 0.06514
 H581 H -0.06735 0.52747 0.05162
 H582 H -0.02459 0.58191 0.02093
 H583 H -0.05536 0.60927 0.03428
 C584 C 1.15866 0.12293 0.68598
 C585 C 1.13354 0.12365 0.68627
 C586 C 1.12156 0.13710 0.70451
 C587 C 1.13465 0.14960 0.72261
 C588 C 1.15993 0.14876 0.72272
 C589 C 1.17178 0.13540 0.70405
 C590 C 1.12005 0.11011 0.66829
 C591 C 1.10871 0.09853 0.65347
 C592 C 1.09535 0.08480 0.63638
 C593 C 1.08383 0.07298 0.62196
 C594 C 1.06993 0.05885 0.60490
 C595 C 1.05549 0.04141 0.61433
 C596 C 1.04164 0.02789 0.59783
 C597 C 1.04209 0.03170 0.57171
 C598 C 1.05682 0.04912 0.56236
 C599 C 1.07065 0.06263 0.57890
 H600 H 1.16810 0.11260 0.67189
 H601 H 1.10210 0.13773 0.70490
 H602 H 1.12488 0.15956 0.73672
 H603 H 1.19119 0.13451 0.70331
 H604 H 1.05486 0.03833 0.63444
 H605 H 1.03055 0.01452 0.60553
 H606 H 1.05753 0.05241 0.54231
 H607 H 1.08180 0.07607 0.57142
 C608 C 0.84282 -0.13997 0.67793
 C609 C 0.86642 -0.14475 0.67033
 C610 C 0.87980 -0.16074 0.68326
 C611 C 0.86985 -0.17142 0.70423
 C612 C 0.84645 -0.16605 0.71260
 C613 C 0.83287 -0.15056 0.69890
 C614 C 0.87746 -0.13177 0.65072
 C615 C 0.88670 -0.12001 0.63506
 C616 C 0.89753 -0.10539 0.61761
 C617 C 0.90687 -0.09231 0.60338
 C618 C 0.91816 -0.07618 0.58713
 C619 C 0.91295 -0.07628 0.56128
 C620 C 0.92392 -0.06043 0.54564
 C621 C 0.94023 -0.04426 0.55574
 C622 C 0.94526 -0.04426 0.58177
 C623 C 0.93427 -0.06012 0.59734
 H624 H 0.83234 -0.12758 0.66806
 H625 H 0.89815 -0.16445 0.67761
 H626 H 0.88083 -0.18316 0.71439
 H627 H 0.81468 -0.14630 0.70457
 H628 H 0.90044 -0.08862 0.55322
 H629 H 0.91976 -0.06090 0.52565
 H630 H 0.95778 -0.03210 0.59010
 H631 H 0.93836 -0.05986 0.61736
 C632 C 1.17169 -0.12878 0.33409
 C633 C 1.15304 -0.13835 0.34820
 C634 C 1.14309 -0.15928 0.34050
 C635 C 1.15141 -0.17039 0.31845
 C636 C 1.16975 -0.16062 0.30373
 C637 C 1.18004 -0.13984 0.31206
 C638 C 1.14283 -0.12581 0.36934
 C639 C 1.13343 -0.11489 0.38623
 C640 C 1.12124 -0.10176 0.40491
 C641 C 1.10964 -0.09040 0.41977
 C642 C 1.09424 -0.07683 0.43597
 C643 C 1.07118 -0.08490 0.44166
 C644 C 1.05458 -0.07066 0.45388
 C645 C 1.06082 -0.04811 0.46055
 C646 C 1.08441 -0.04046 0.45601
 C647 C 1.10102 -0.05475 0.44364
 H648 H 1.17943 -0.11251 0.33981
 H649 H 1.12851 -0.16675 0.35121
 H650 H 1.14297 -0.18627 0.31264
 H651 H 1.19435 -0.13188 0.30148
 H652 H 1.06570 -0.10190 0.43571
 H653 H 1.03656 -0.07704 0.45725
 H654 H 1.08966 -0.02316 0.46097
 H655 H 1.11880 -0.04831 0.43919
 C656 C 0.86222 0.12290 0.30440
 C657 C 0.88714 0.12571 0.30585
 C658 C 0.89892 0.14076 0.28982
 C659 C 0.88576 0.15293 0.27231
 C660 C 0.86065 0.15014 0.27063
 C661 C 0.84905 0.13501 0.28696
 C662 C 0.90037 0.11299 0.32384
 C663 C 0.91054 0.10188 0.33921
 C664 C 0.92137 0.08843 0.35753
 C665 C 0.92972 0.07661 0.37343
 C666 C 0.93863 0.06216 0.39267
 C667 C 0.92942 0.06421 0.41731
 C668 C 0.93686 0.04934 0.43580
 C669 C 0.95359 0.03216 0.42983
 C670 C 0.96299 0.03041 0.40506
 C671 C 0.95553 0.04534 0.38660
 H672 H 0.85293 0.11132 0.31677
 H673 H 0.91824 0.14302 0.29079
 H674 H 0.89534 0.16430 0.26000
 H675 H 0.82978 0.13254 0.28648
 H676 H 0.91627 0.07715 0.42217
 H677 H 0.92935 0.05120 0.45469
 H678 H 0.97589 0.01737 0.39987
 H679 H 0.96270 0.04358 0.36755
 C680 C 0.17010 0.32044 -0.11718
 C681 C 0.14830 0.32754 -0.12731
 C682 C 0.13824 0.31552 -0.14784
 C683 C 0.14968 0.29627 -0.15799
 C684 C 0.17140 0.28872 -0.14773
 C685 C 0.18164 0.30117 -0.12738
 C686 C 0.13555 0.34653 -0.11615
 C687 C 0.12401 0.36196 -0.10695
 C688 C 0.10963 0.37942 -0.09624
 C689 C 0.09674 0.39382 -0.08702
 C690 C 0.08072 0.41040 -0.07580
 C691 C 0.06310 0.40348 -0.05860
 C692 C 0.04731 0.41934 -0.04769
 C693 C 0.04893 0.44240 -0.05387
 C694 C 0.06668 0.44922 -0.07125
 C695 C 0.08248 0.43329 -0.08215
 H696 H 0.17799 0.32957 -0.10119
 H697 H 0.12138 0.32087 -0.15583
 H698 H 0.14142 0.28736 -0.17387
 H699 H 0.19825 0.29577 -0.11895
 H700 H 0.06155 0.38579 -0.05360
 H701 H 0.03388 0.41354 -0.03437
 H702 H 0.06841 0.46686 -0.07633
 H703 H 0.09605 0.43880 -0.09549
 C704 C -0.12354 0.32164 0.15521
 C705 C -0.13342 0.33246 0.13453
 C706 C -0.15481 0.32421 0.12382
 C707 C -0.16599 0.30488 0.13344
 C708 C -0.15578 0.29348 0.15377
 C709 C -0.13462 0.30231 0.16479
 C710 C -0.12056 0.35093 0.12328
 C711 C -0.10889 0.36569 0.11359
 C712 C -0.09430 0.38208 0.10189
 C713 C -0.08118 0.39528 0.09147
 C714 C -0.06486 0.41004 0.07845
 C715 C -0.04540 0.40061 0.06504
 C716 C -0.02976 0.41456 0.05163
 C717 C -0.03342 0.43815 0.05143
 C718 C -0.05278 0.44758 0.06529
 C719 C -0.06845 0.43356 0.07871
 H720 H -0.10696 0.32786 0.16361
 H721 H -0.16252 0.33238 0.10768
 H722 H -0.18218 0.29851 0.12443
 H723 H -0.12644 0.29422 0.18069
 H724 H -0.04244 0.38243 0.06476
 H725 H -0.01494 0.40683 0.04124
 H726 H -0.05599 0.46572 0.06546
 H727 H -0.08345 0.44102 0.08907
 C728 C -0.11056 0.68974 -0.13306
 C729 C -0.12185 0.67840 -0.11331
 C730 C -0.14471 0.68513 -0.10500
 C731 C -0.15632 0.70311 -0.11653
 C732 C -0.14517 0.71459 -0.13655
 C733 C -0.12209 0.70767 -0.14461
 C734 C -0.10975 0.65988 -0.10177
 C735 C -0.09890 0.64451 -0.09268
 C736 C -0.08545 0.62673 -0.08262
 C737 C -0.07337 0.61175 -0.07442
 C738 C -0.05833 0.59420 -0.06494
 C739 C -0.04062 0.59972 -0.04713
 C740 C -0.02532 0.58292 -0.03853
 C741 C -0.02759 0.56032 -0.04762
 C742 C -0.04556 0.55491 -0.06543
 C743 C -0.06081 0.57177 -0.07405
 H744 H -0.09282 0.68468 -0.13957
 H745 H -0.15356 0.67649 -0.08964
 H746 H -0.17401 0.70787 -0.10974
 H747 H -0.11282 0.71593 -0.15989
 H748 H -0.03851 0.61706 -0.04003
 H749 H -0.01165 0.58767 -0.02487
 H750 H -0.04781 0.53767 -0.07276
 H751 H -0.07444 0.56735 -0.08791
 C752 C 0.15545 0.66788 0.13840
 C753 C 0.13625 0.65892 0.15225
 C754 C 0.12806 0.67042 0.17412
 C755 C 0.13889 0.69090 0.18200
 C756 C 0.15804 0.70022 0.16802
 C757 C 0.16629 0.68836 0.14620
 C758 C 0.12429 0.63851 0.14332
 C759 C 0.11409 0.62179 0.13508
 C760 C 0.10196 0.60277 0.12432
 C761 C 0.09151 0.58715 0.11396
 C762 C 0.07903 0.56946 0.09995
 C763 C 0.05593 0.56249 0.10728
 C764 C 0.04252 0.54783 0.09146
 C765 C 0.05207 0.54019 0.06806
 C766 C 0.07573 0.54637 0.06151
 C767 C 0.08908 0.56091 0.07734
 H768 H 0.16189 0.65915 0.12139
 H769 H 0.11309 0.66374 0.18489
 H770 H 0.13187 0.69957 0.19874
 H771 H 0.18107 0.69486 0.13508
 H772 H 0.04792 0.56910 0.12470
 H773 H 0.02433 0.54337 0.09693
 H774 H 0.08356 0.54073 0.04362
 H775 H 0.10688 0.56625 0.07142
 C776 C 0.35497 1.14516 0.82340
 C777 C 0.36384 1.15021 0.84758
 C778 C 0.35238 1.16658 0.86305
 C779 C 0.33163 1.17731 0.85469
 C780 C 0.32200 1.17164 0.83079
 C781 C 0.33425 1.15583 0.81501
 C782 C 0.38325 1.13711 0.85736
 C783 C 0.39861 1.12542 0.86619
 C784 C 0.41543 1.11115 0.87756
 C785 C 0.42871 1.09868 0.88845
 C786 C 0.44307 1.08373 0.90310
 C787 C 0.44962 1.09056 0.92764
 C788 C 0.46001 1.07508 0.94372
 C789 C 0.46397 1.05248 0.93549
 C790 C 0.45859 1.04602 0.91036
 C791 C 0.44805 1.06158 0.89426
 H792 H 0.36366 1.13248 0.81129
 H793 H 0.35903 1.17051 0.88189
 H794 H 0.32267 1.18932 0.86736
 H795 H 0.32762 1.15133 0.79634
 H796 H 0.44572 1.10760 0.93472
 H797 H 0.46409 1.08056 0.96295
 H798 H 0.46143 1.02872 0.90356
 H799 H 0.44288 1.05608 0.87534
 C800 C 0.29330 0.85217 1.09186
 C801 C 0.29774 0.87518 1.09754
 C802 C 0.28463 0.88627 1.11679
 C803 C 0.26755 0.87437 1.13073
 C804 C 0.26336 0.85107 1.12573
 C805 C 0.27615 0.84017 1.10583
 C806 C 0.31656 0.88737 1.08482
 C807 C 0.33254 0.89828 1.07545
 C808 C 0.35141 0.91173 1.06587
 C809 C 0.36767 0.92366 1.05881
 C810 C 0.38723 0.93828 1.05159
 C811 C 0.41015 0.93489 1.06147
 C812 C 0.42892 0.94984 1.05586
 C813 C 0.42499 0.96846 1.04030
 C814 C 0.40194 0.97159 1.03020
 C815 C 0.38317 0.95659 1.03586
 H816 H 0.30341 0.84340 1.07702
 H817 H 0.28793 0.90407 1.12137
 H818 H 0.25787 0.88347 1.14560
 H819 H 0.27348 0.82228 1.10148
 H820 H 0.41347 0.92081 1.07374
 H821 H 0.44648 0.94685 1.06380
 H822 H 0.39834 0.98572 1.01811
 H823 H 0.36546 0.95943 1.02821
 C824 C 0.67243 1.16026 1.12556
 C825 C 0.66108 1.14325 1.13940
 C826 C 0.66898 1.13865 1.16376
 C827 C 0.68867 1.15041 1.17394
 C828 C 0.70080 1.16693 1.15984
 C829 C 0.69214 1.17211 1.13575
 C830 C 0.64252 1.12934 1.12808
 C831 C 0.62760 1.11690 1.11866
 C832 C 0.61083 1.10165 1.10760
 C833 C 0.59700 1.08822 1.09799
 C834 C 0.58101 1.07191 1.08620
 C835 C 0.55641 1.07218 1.09191
 C836 C 0.54089 1.05654 1.07998
 C837 C 0.54984 1.04045 1.06218
 C838 C 0.57464 1.04017 1.05681
 C839 C 0.59010 1.05580 1.06875
 H840 H 0.66648 1.16390 1.10663
 H841 H 0.66030 1.12555 1.17465
 H842 H 0.69460 1.14627 1.19270
 H843 H 0.70111 1.18466 1.12437
 H844 H 0.54920 1.08458 1.10540
 H845 H 0.52187 1.05725 1.08445
 H846 H 0.58209 1.02806 1.04315
 H847 H 0.60913 1.05544 1.06422
 C848 C 0.68268 0.84204 0.89051
 C849 C 0.67195 0.85982 0.87772
 C850 C 0.68056 0.86576 0.85389
 C851 C 0.70026 0.85447 0.84314
 C852 C 0.71166 0.83703 0.85612
 C853 C 0.70238 0.83059 0.87970
 C854 C 0.65330 0.87321 0.88956
 C855 C 0.63836 0.88547 0.89913
 C856 C 0.62166 0.90078 0.91009
 C857 C 0.60803 0.91447 0.91943
 C858 C 0.59246 0.93133 0.93077
 C859 C 0.56758 0.93007 0.92720
 C860 C 0.55258 0.94634 0.93872
 C861 C 0.56235 0.96400 0.95397
 C862 C 0.58739 0.96533 0.95707
 C863 C 0.60233 0.94907 0.94556
 H864 H 0.67623 0.83742 0.90907
 H865 H 0.67239 0.87951 0.84385
 H866 H 0.70666 0.85957 0.82476
 H867 H 0.71081 0.81728 0.89016
 H868 H 0.55978 0.91643 0.91573
 H869 H 0.53334 0.94487 0.93605
 H870 H 0.59542 0.97873 0.96868
 H871 H 0.62158 0.95021 0.94837
   
