data_POSCAR
  _audit_creation_date              2014-09-24
  _audit_creation_method            'ToBaCCo'
  _symmetry_space_group_name_H-M    'P1'
  _symmetry_Int_Tables_number       1
  _symmetry_cell_setting            triclinic
  loop_
  _symmetry_equiv_pos_as_xyz
 x,y,z
_cell_length_a 38.4863
_cell_length_b 38.6728
_cell_length_c 38.5202
_cell_angle_alpha 90.510600
_cell_angle_beta 89.844600
_cell_angle_gamma 90.085600
loop_
  _atom_site_label
  _atom_site_type_symbol
  _atom_site_fract_x
  _atom_site_fract_y
  _atom_site_fract_z
N1 N 0.20563 0.20869 0.20748
 N2 N 0.70191 0.69095 0.69003
 N3 N 0.27949 0.78077 0.71857
 N4 N 0.78684 0.28502 0.21034
 N5 N 0.79293 0.71739 0.28143
 N6 N 0.28439 0.20988 -0.21486
 N7 N 0.71606 0.28979 -0.21100
 N8 N 0.20994 0.81386 0.30674
 N9 N 0.47964 0.47693 0.47827
 N10 N -0.04282 -0.03003 0.96897
 N11 N 1.04101 0.54568 0.96544
 N12 N 0.56075 0.05967 0.44657
 N13 N -0.04586 0.04598 0.54742
 N14 N 0.46768 0.52772 0.03918
 N15 N 0.53669 -0.05715 0.03364
 N16 N 1.04210 0.46489 0.53340
 C17 C 0.43382 0.02095 0.19440
 H18 H 0.43940 0.04448 0.20874
 C19 C 0.45280 0.01284 0.16444
 H20 H 0.47316 0.03024 0.15610
 C21 C 0.40140 -0.03094 0.18895
 H22 H 0.38162 -0.04813 0.19874
 C23 C 0.41967 -0.04002 0.15892
 H24 H 0.41326 -0.06398 0.14565
 N25 N 0.40852 -0.00075 0.20585
 C26 C 0.33214 0.05688 0.26574
 H27 H 0.33114 0.04081 0.28857
 C28 C 0.30880 0.08411 0.26218
 H29 H 0.29001 0.08906 0.28260
 C30 C 0.35760 0.06945 0.21118
 H31 H 0.37622 0.06322 0.19107
 C32 C 0.33495 0.09732 0.20676
 H33 H 0.33633 0.11232 0.18319
 Zn34 Zn 0.38436 0.01081 0.24713
 N35 N 0.35587 0.05002 0.24043
 C36 C 0.41653 0.05014 0.30065
 N37 N 0.41751 0.01996 0.28227
 C38 C 0.44279 -0.00386 0.28781
 C39 C 0.46818 0.00203 0.31301
 C40 C 0.44140 0.05709 0.32610
 C41 C 0.32564 -0.03133 0.24096
 C42 C 0.30167 -0.05677 0.25023
 C43 C 0.33838 -0.07158 0.29864
 C44 C 0.36145 -0.04554 0.28870
 N45 N 0.35478 -0.02610 0.26022
 H46 H 0.39650 0.06894 0.29562
 H47 H 0.44325 -0.02744 0.27248
 H48 H 0.48826 -0.01715 0.31678
 H49 H 0.43973 0.08102 0.34078
 H50 H 0.32086 -0.01535 0.21857
 H51 H 0.27862 -0.06050 0.23458
 H52 H 0.34388 -0.08658 0.32158
 H53 H 0.38441 -0.04069 0.30402
 C54 C 0.30997 0.10471 0.23237
 C55 C 0.44576 -0.01801 0.14621
 C56 C 0.30783 -0.07715 0.27954
 C57 C 0.46780 0.03292 0.33250
 C58 C 0.06580 -0.01931 0.70830
 H59 H 0.06202 -0.04165 0.72459
 C60 C 0.04387 -0.01389 0.67996
 H61 H 0.02319 -0.03217 0.67472
 C62 C 0.09644 0.03242 0.69639
 H63 H 0.11645 0.05082 0.70308
 C64 C 0.07523 0.03883 0.66796
 H65 H 0.07987 0.06179 0.65275
 N66 N 0.09178 0.00348 0.71565
 C67 C 0.17429 -0.04882 0.77148
 H68 H 0.17881 -0.02979 0.79172
 C69 C 0.19570 -0.07778 0.76878
 H70 H 0.21661 -0.08104 0.78722
 C71 C 0.14150 -0.06759 0.72281
 H72 H 0.12071 -0.06330 0.70463
 C73 C 0.16199 -0.09724 0.71948
 H74 H 0.15677 -0.11550 0.69867
 Zn75 Zn 0.12050 -0.00407 0.75474
 N76 N 0.14768 -0.04437 0.74883
 C77 C 0.09540 -0.03458 0.81694
 N78 N 0.09135 -0.00828 0.79409
 C79 C 0.06626 0.01605 0.79873
 C80 C 0.04447 0.01498 0.82771
 C81 C 0.07435 -0.03646 0.84647
 C82 C 0.17591 0.04007 0.73652
 C83 C 0.19797 0.06867 0.73970
 C84 C 0.17032 0.08263 0.79442
 C85 C 0.14864 0.05401 0.79005
 N86 N 0.15129 0.03380 0.76111
 H87 H 0.11513 -0.05396 0.81252
 H88 H 0.06350 0.03656 0.78002
 H89 H 0.02502 0.03491 0.83125
 H90 H 0.07798 -0.05753 0.86441
 H91 H 0.17793 0.02316 0.71408
 H92 H 0.21713 0.07348 0.71969
 H93 H 0.16718 0.09884 0.81727
 H94 H 0.12947 0.04824 0.80968
 C95 C 0.18945 -0.10258 0.74271
 C96 C 0.04855 0.01551 0.65928
 C97 C 0.19503 0.09062 0.76879
 C98 C 0.04866 -0.01129 0.85228
 C99 C 0.57868 0.47987 0.20667
 H100 H 0.57828 0.45646 0.22167
 C101 C 0.55713 0.48262 0.17768
 H102 H 0.54038 0.46114 0.17082
 C103 C 0.59965 0.53676 0.19837
 H104 H 0.61563 0.55817 0.20676
 C105 C 0.57864 0.54059 0.16924
 H106 H 0.57960 0.56468 0.15517
 N107 N 0.60003 0.50644 0.21600
 C108 C 0.69377 0.46540 0.24255
 H109 H 0.70547 0.49069 0.24314
 C110 C 0.71488 0.43674 0.23644
 H111 H 0.74246 0.44051 0.23219
 C112 C 0.64438 0.42936 0.24858
 H113 H 0.61698 0.42652 0.25396
 C114 C 0.66475 0.39985 0.24329
 H115 H 0.65272 0.37453 0.24394
 Zn116 Zn 0.63040 0.50134 0.25452
 N117 N 0.65900 0.46146 0.24784
 C118 C 0.61226 0.47342 0.32000
 N119 N 0.60326 0.49634 0.29502
 C120 C 0.57522 0.51734 0.29886
 C121 C 0.55496 0.51590 0.32889
 C122 C 0.59269 0.47112 0.35049
 C123 C 0.67926 0.55132 0.23237
 C124 C 0.70158 0.57959 0.23570
 C125 C 0.68047 0.58841 0.29418
 C126 C 0.65876 0.55968 0.28983
 N127 N 0.65876 0.54156 0.25939
 H128 H 0.63494 0.45729 0.31655
 H129 H 0.56889 0.53556 0.27870
 H130 H 0.53309 0.53330 0.33168
 H131 H 0.60016 0.45254 0.36994
 H132 H 0.67874 0.53664 0.20833
 H133 H 0.71835 0.58604 0.21411
 H134 H 0.67970 0.60250 0.31855
 H135 H 0.64219 0.55170 0.31099
 C136 C 0.70042 0.40347 0.23675
 C137 C 0.55732 0.51314 0.15818
 C138 C 0.70271 0.59848 0.26705
 C139 C 0.56374 0.49275 0.35537
 C140 C 0.94640 0.49876 0.71394
 H141 H 0.95735 0.50660 0.73851
 C142 C 0.96834 0.49501 0.68530
 H143 H 0.99593 0.49956 0.68847
 C144 C 0.89734 0.48558 0.67931
 H145 H 0.86962 0.48266 0.67678
 C146 C 0.91834 0.48182 0.64989
 H147 H 0.90649 0.47517 0.62526
 N148 N 0.91156 0.49363 0.71069
 C149 C 0.82137 0.53980 0.75843
 H150 H 0.81529 0.52121 0.77837
 C151 C 0.79702 0.56495 0.74955
 H152 H 0.77242 0.56585 0.76321
 C153 C 0.86072 0.56079 0.71611
 H154 H 0.88545 0.55873 0.70288
 C155 C 0.83725 0.58648 0.70656
 H156 H 0.84409 0.60391 0.68578
 Zn157 Zn 0.88203 0.50012 0.75006
 N158 N 0.85220 0.53778 0.74124
 C159 C 0.90544 0.53925 0.80820
 N160 N 0.90968 0.50923 0.79003
 C161 C 0.93434 0.48584 0.79923
 C162 C 0.95659 0.49265 0.82704
 C163 C 0.92685 0.54689 0.83650
 C164 C 0.82923 0.45206 0.73327
 C165 C 0.80798 0.42309 0.73760
 C166 C 0.83669 0.41218 0.79204
 C167 C 0.85753 0.44120 0.78654
 N168 N 0.85395 0.46020 0.75721
 H169 H 0.88575 0.55751 0.80049
 H170 H 0.93718 0.46212 0.78439
 H171 H 0.97618 0.47381 0.83376
 H172 H 0.92344 0.57114 0.85036
 H173 H 0.82532 0.46849 0.71113
 H174 H 0.78835 0.41725 0.71834
 H175 H 0.84030 0.39718 0.81535
 H176 H 0.87636 0.44851 0.80595
 C177 C 0.80456 0.58829 0.72278
 C178 C 0.95437 0.48654 0.65271
 C179 C 0.81173 0.40260 0.76722
 C180 C 0.95317 0.52365 0.84592
 C181 C 0.20521 0.43054 0.01674
 H182 H 0.22282 0.43259 0.03851
 C183 C 0.17729 0.45337 0.01409
 H184 H 0.17349 0.47284 0.03411
 C185 C 0.18868 0.40227 -0.03548
 H186 H 0.19336 0.38254 -0.05493
 C187 C 0.16023 0.42441 -0.03900
 H188 H 0.14342 0.42151 -0.06133
 N189 N 0.21012 0.40531 -0.00758
 C190 C 0.26080 0.31811 0.04248
 H191 H 0.28339 0.31484 0.02600
 C192 C 0.25449 0.29486 0.06936
 H193 H 0.27269 0.27403 0.07367
 C194 C 0.20980 0.34942 0.05676
 H195 H 0.19211 0.37035 0.05150
 C196 C 0.20260 0.32691 0.08399
 H197 H 0.17932 0.33087 0.09937
 Zn198 Zn 0.24798 0.37465 -0.00103
 N199 N 0.23865 0.34484 0.03679
 C200 C 0.30807 0.39548 0.03636
 N201 N 0.28826 0.40143 0.00786
 C202 C 0.29676 0.42664 -0.01504
 C203 C 0.32699 0.44616 -0.01046
 C204 C 0.33853 0.41433 0.04192
 C205 C 0.23049 0.32229 -0.04849
 C206 C 0.23509 0.29952 -0.07642
 C207 C 0.29030 0.32671 -0.08841
 C208 C 0.28468 0.34892 -0.06014
 N209 N 0.25506 0.34645 -0.04093
 H210 H 0.30059 0.37581 0.05464
 H211 H 0.28020 0.43124 -0.03717
 H212 H 0.33319 0.46609 -0.02903
 H213 H 0.35438 0.40851 0.06429
 H214 H 0.20748 0.32043 -0.03241
 H215 H 0.21540 0.28012 -0.08151
 H216 H 0.31386 0.32948 -0.10353
 H217 H 0.30424 0.36785 -0.05345
 C218 C 0.22499 0.29907 0.09054
 C219 C 0.15407 0.45020 -0.01384
 C220 C 0.26542 0.30138 -0.09677
 C221 C 0.34865 0.43977 0.01809
 C222 C 0.69238 0.06765 -0.02144
 H223 H 0.70943 0.06697 -0.04382
 C224 C 0.66690 0.04229 -0.01747
 H225 H 0.66456 0.02214 -0.03702
 C226 C 0.67637 0.09372 0.03214
 H227 H 0.68060 0.11342 0.05173
 C228 C 0.65040 0.06898 0.03706
 H229 H 0.63437 0.07058 0.06013
 N230 N 0.69687 0.09245 0.00336
 C231 C 0.75309 0.17864 -0.04189
 H232 H 0.77423 0.18053 -0.02351
 C233 C 0.75049 0.20252 -0.06860
 H234 H 0.76976 0.22284 -0.07050
 C235 C 0.70185 0.15024 -0.06090
 H236 H 0.68289 0.12991 -0.05761
 C237 C 0.69818 0.17372 -0.08804
 H238 H 0.67660 0.17083 -0.10580
 Zn239 Zn 0.73533 0.12241 -0.00136
 N240 N 0.72924 0.15293 -0.03877
 C241 C 0.79897 0.10171 -0.03376
 N242 N 0.77517 0.09452 -0.00863
 C243 C 0.77926 0.06711 0.01282
 C244 C 0.80871 0.04628 0.01021
 C245 C 0.82907 0.08177 -0.03699
 C246 C 0.71809 0.17498 0.04689
 C247 C 0.72352 0.19725 0.07519
 C248 C 0.77670 0.16670 0.08739
 C249 C 0.77035 0.14519 0.05891
 N250 N 0.74147 0.14966 0.03926
 H251 H 0.79499 0.12315 -0.05103
 H252 H 0.75983 0.06185 0.03243
 H253 H 0.81185 0.02502 0.02803
 H254 H 0.84794 0.08805 -0.05686
 H255 H 0.69560 0.17833 0.03048
 H256 H 0.70506 0.21768 0.08006
 H257 H 0.79978 0.16243 0.10276
 H258 H 0.78890 0.12528 0.05230
 C259 C 0.72282 0.20022 -0.09222
 C260 C 0.64584 0.04235 0.01240
 C261 C 0.75343 0.19352 0.09564
 C262 C 0.83436 0.05387 -0.01457
 C263 C 0.20905 0.57565 0.47526
 H264 H 0.22315 0.57602 0.45093
 C265 C 0.18111 0.55289 0.47953
 H266 H 0.17354 0.53669 0.45782
 C267 C 0.20196 0.59689 0.53264
 H268 H 0.21052 0.61351 0.55361
 C269 C 0.17465 0.57401 0.53835
 H270 H 0.16285 0.57351 0.56385
 N271 N 0.21833 0.59766 0.50137
 C272 C 0.27255 0.68490 0.45386
 H273 H 0.29478 0.68704 0.47087
 C274 C 0.26665 0.71020 0.42886
 H275 H 0.28478 0.73148 0.42639
 C276 C 0.22112 0.65536 0.43740
 H277 H 0.20262 0.63486 0.44154
 C278 C 0.21451 0.67975 0.41179
 H279 H 0.19115 0.67736 0.39634
 Zn280 Zn 0.25652 0.62815 0.49585
 N281 N 0.24977 0.65828 0.45784
 C282 C 0.32143 0.60707 0.46609
 N283 N 0.29677 0.60075 0.49058
 C284 C 0.30022 0.57440 0.51343
 C285 C 0.32985 0.55375 0.51296
 C286 C 0.35174 0.58717 0.46488
 C287 C 0.23523 0.67978 0.54233
 C288 C 0.23579 0.70007 0.57246
 C289 C 0.28908 0.67181 0.58914
 C290 C 0.28765 0.65225 0.55853
 N291 N 0.26064 0.65609 0.53620
 H292 H 0.31794 0.62786 0.44787
 H293 H 0.28014 0.56991 0.53257
 H294 H 0.33244 0.53345 0.53196
 H295 H 0.37129 0.59270 0.44545
 H296 H 0.21416 0.68242 0.52401
 H297 H 0.21494 0.71828 0.57725
 H298 H 0.31068 0.66829 0.60670
 H299 H 0.30793 0.63374 0.55292
 C300 C 0.23707 0.70796 0.40770
 C301 C 0.16337 0.55179 0.51152
 C302 C 0.26269 0.69582 0.59660
 C303 C 0.35638 0.56036 0.48884
 C304 C 0.70489 0.92922 0.51679
 H305 H 0.71956 0.92918 0.54070
 C306 C 0.68037 0.95510 0.51097
 H307 H 0.67626 0.97483 0.53068
 C308 C 0.69423 0.90477 0.46121
 H309 H 0.70028 0.88564 0.44153
 C310 C 0.66954 0.93020 0.45429
 H311 H 0.65625 0.92974 0.42956
 N312 N 0.71158 0.90494 0.49192
 C313 C 0.76382 0.81818 0.54129
 H314 H 0.78684 0.81642 0.52521
 C315 C 0.75736 0.79312 0.56639
 H316 H 0.77581 0.77234 0.56981
 C317 C 0.71145 0.84714 0.55578
 H318 H 0.69321 0.86773 0.55102
 C319 C 0.70418 0.82288 0.58144
 H320 H 0.68033 0.82513 0.59627
 Zn321 Zn 0.74961 0.87481 0.49912
 N322 N 0.74084 0.84434 0.53628
 C323 C 0.80824 0.89966 0.53745
 N324 N 0.78834 0.90343 0.50862
 C325 C 0.79392 0.92974 0.48614
 C326 C 0.82032 0.95371 0.49223
 C327 C 0.83511 0.92306 0.54452
 C328 C 0.73407 0.82308 0.44999
 C329 C 0.73895 0.80240 0.42045
 C330 C 0.79309 0.83220 0.40986
 C331 C 0.78729 0.85210 0.43970
 N332 N 0.75789 0.84762 0.45879
 H333 H 0.80307 0.87880 0.55522
 H334 H 0.77733 0.93242 0.46369
 H335 H 0.82368 0.97485 0.47429
 H336 H 0.85083 0.91942 0.56744
 H337 H 0.71120 0.81963 0.46599
 H338 H 0.71978 0.78282 0.41425
 H339 H 0.81629 0.83687 0.39466
 H340 H 0.80626 0.87125 0.44740
 C341 C 0.72701 0.79511 0.58661
 C342 C 0.66287 0.95629 0.47905
 C343 C 0.76866 0.80704 0.39965
 C344 C 0.84124 0.95079 0.52190
 C345 C 0.01292 0.20568 0.43118
 H346 H 0.03619 0.22137 0.43239
 C347 C 0.00777 0.17941 0.45521
 H348 H 0.02729 0.17502 0.47487
 C349 C -0.04135 0.19344 0.40485
 H350 H -0.06067 0.19934 0.38552
 C351 C -0.04768 0.16702 0.42857
 H352 H -0.07160 0.15236 0.42673
 N353 N -0.01131 0.21199 0.40645
 C354 C 0.04152 0.26306 0.32086
 H355 H 0.02425 0.28479 0.31739
 C356 C 0.06865 0.25731 0.29736
 H357 H 0.07241 0.27485 0.27591
 C358 C 0.05724 0.21332 0.35271
 H359 H 0.05230 0.19575 0.37376
 C360 C 0.08513 0.20707 0.33031
 H361 H 0.10156 0.18478 0.33446
 Zn362 Zn -0.00288 0.24954 0.37644
 N363 N 0.03622 0.24107 0.34775
 C364 C 0.03623 0.30523 0.40470
 N365 N 0.00497 0.28875 0.40488
 C366 C -0.02079 0.29842 0.42714
 C367 C -0.01602 0.32636 0.44975
 C368 C 0.04240 0.33286 0.42749
 C369 C -0.04826 0.23117 0.32306
 C370 C -0.07518 0.23520 0.29926
 C371 C -0.08726 0.29128 0.32460
 C372 C -0.05995 0.28627 0.34776
 N373 N -0.04125 0.25647 0.34676
 H374 H 0.05659 0.29663 0.38730
 H375 H -0.04507 0.28428 0.42732
 H376 H -0.03682 0.33387 0.46723
 H377 H 0.06739 0.34577 0.42719
 H378 H -0.03256 0.20799 0.32244
 H379 H -0.07988 0.21496 0.28025
 H380 H -0.10209 0.31498 0.32632
 H381 H -0.05356 0.30645 0.36619
 C382 C 0.09081 0.22901 0.30203
 C383 C -0.02295 0.15978 0.45423
 C384 C -0.09502 0.26567 0.29967
 C385 C 0.01599 0.34373 0.45025
 C386 C 0.00143 0.71989 0.07036
 H387 H -0.01714 0.74004 0.06479
 C388 C 0.00424 0.69143 0.04813
 H389 H -0.01229 0.68993 0.02546
 C390 C 0.04448 0.69692 0.10749
 H391 H 0.05994 0.69918 0.13077
 C392 C 0.04784 0.66768 0.08609
 H393 H 0.06623 0.64773 0.09293
 N394 N 0.02127 0.72210 0.09943
 C395 C -0.03462 0.77363 0.18325
 H396 H -0.01867 0.79628 0.18778
 C397 C -0.06461 0.76842 0.20306
 H398 H -0.07140 0.78702 0.22311
 C399 C -0.04501 0.72186 0.15156
 H400 H -0.03747 0.70389 0.13129
 C401 C -0.07499 0.71549 0.17092
 H402 H -0.09035 0.69268 0.16512
 Zn403 Zn 0.01298 0.76056 0.12892
 N404 N -0.02592 0.75092 0.15751
 C405 C -0.02684 0.81723 0.10558
 N406 N 0.00307 0.79919 0.10050
 C407 C 0.02510 0.80702 0.07399
 C408 C 0.01739 0.83406 0.05140
 C409 C -0.03535 0.84458 0.08392
 C410 C 0.05684 0.74883 0.18556
 C411 C 0.08262 0.75662 0.20987
 C412 C 0.09774 0.80707 0.17648
 C413 C 0.07142 0.79853 0.15303
 N414 N 0.05151 0.76990 0.15800
 H415 H -0.04454 0.81024 0.12610
 H416 H 0.04847 0.79194 0.07016
 H417 H 0.03524 0.84002 0.03053
 H418 H -0.05947 0.85835 0.08829
 H419 H 0.04036 0.72646 0.18915
 H420 H 0.08622 0.73975 0.23184
 H421 H 0.11284 0.83035 0.17249
 H422 H 0.06648 0.81528 0.13134
 C423 C -0.08552 0.73927 0.19661
 C424 C 0.02734 0.66461 0.05608
 C425 C 0.10317 0.78634 0.20571
 C426 C -0.01324 0.85320 0.05629
 C427 C 0.48774 0.21064 0.56984
 H428 H 0.46465 0.22640 0.56777
 C429 C 0.49490 0.18552 0.54454
 H430 H 0.47710 0.18217 0.52306
 C431 C 0.53984 0.19735 0.59944
 H432 H 0.55765 0.20242 0.62047
 C433 C 0.54798 0.17193 0.57476
 H434 H 0.57168 0.15724 0.57772
 N435 N 0.51021 0.21622 0.59650
 C436 C 0.45314 0.26796 0.68069
 H437 H 0.46977 0.29008 0.68541
 C438 C 0.42358 0.26292 0.70123
 H439 H 0.41794 0.28122 0.72189
 C440 C 0.44124 0.21677 0.64868
 H441 H 0.44827 0.19868 0.62836
 C442 C 0.41145 0.21076 0.66853
 H443 H 0.39564 0.18827 0.66273
 Zn444 Zn 0.50121 0.25385 0.62719
 N445 N 0.46109 0.24531 0.65465
 C446 C 0.46920 0.31679 0.60529
 N447 N 0.49518 0.29364 0.59939
 C448 C 0.51878 0.29849 0.57353
 C449 C 0.51762 0.32815 0.55322
 C450 C 0.46725 0.34702 0.58575
 C451 C 0.54706 0.23714 0.68175
 C452 C 0.57623 0.24116 0.70301
 C453 C 0.58910 0.29472 0.67391
 C454 C 0.55967 0.28980 0.65342
 N455 N 0.53971 0.26101 0.65712
 H456 H 0.45033 0.31225 0.62553
 H457 H 0.53908 0.27960 0.56927
 H458 H 0.53725 0.33193 0.53342
 H459 H 0.44664 0.36535 0.59106
 H460 H 0.53045 0.21474 0.68455
 H461 H 0.58148 0.22184 0.72245
 H462 H 0.60509 0.31734 0.66961
 H463 H 0.55320 0.30884 0.63420
 C464 C 0.40200 0.23416 0.69505
 C465 C 0.52568 0.16612 0.54646
 C466 C 0.59808 0.27004 0.69887
 C467 C 0.49201 0.35323 0.55964
 C468 C 0.51733 0.68825 0.92058
 H469 H 0.53979 0.70505 0.92207
 C470 C 0.51316 0.66184 0.94457
 H471 H 0.53261 0.65867 0.96453
 C472 C 0.46407 0.67341 0.89352
 H473 H 0.44481 0.67837 0.87384
 C474 C 0.45887 0.64651 0.91703
 H475 H 0.43586 0.63056 0.91466
 N476 N 0.49303 0.69352 0.89568
 C477 C 0.54405 0.74682 0.81047
 H478 H 0.52775 0.76946 0.80828
 C479 C 0.57029 0.74066 0.78605
 H480 H 0.57436 0.75890 0.76526
 C481 C 0.55813 0.69517 0.83993
 H482 H 0.55288 0.67706 0.86045
 C483 C 0.58495 0.68830 0.81644
 H484 H 0.60014 0.66495 0.81924
 Zn485 Zn 0.50038 0.73212 0.86686
 N486 N 0.53836 0.72407 0.83660
 C487 C 0.53806 0.79025 0.89377
 N488 N 0.50926 0.77006 0.89680
 C489 C 0.48576 0.77538 0.92268
 C490 C 0.49022 0.80241 0.94637
 C491 C 0.54371 0.81755 0.91717
 C492 C 0.45166 0.71867 0.81375
 C493 C 0.42304 0.72546 0.79257
 C494 C 0.41338 0.77831 0.82508
 C495 C 0.44235 0.77080 0.84520
 N496 N 0.46061 0.74119 0.83958
 H497 H 0.55666 0.78522 0.87328
 H498 H 0.46340 0.75853 0.92480
 H499 H 0.47118 0.80612 0.96681
 H500 H 0.56651 0.83368 0.91418
 H501 H 0.46692 0.69554 0.80951
 H502 H 0.41608 0.70724 0.77224
 H503 H 0.39925 0.80206 0.82997
 H504 H 0.45027 0.78892 0.86510
 C505 C 0.59099 0.71095 0.78882
 C506 C 0.48354 0.64058 0.94318
 C507 C 0.40344 0.75557 0.79832
 C508 C 0.51949 0.82394 0.94384
 C509 C 0.17968 0.20749 0.26640
 C510 C 0.17597 0.21163 0.23054
 C511 C 0.14207 0.21736 0.21787
 C512 C 0.11407 0.22267 0.24101
 C513 C 0.11928 0.22168 0.27724
 C514 C 0.15209 0.21195 0.28910
 C515 C 0.17471 0.22862 0.31589
 C516 C 0.20498 0.22364 0.29087
 H517 H 0.13743 0.21883 0.19023
 H518 H 0.08859 0.22823 0.23062
 H519 H 0.17689 0.21265 0.33963
 H520 H 0.16802 0.25623 0.32061
 H521 H 0.22453 0.20475 0.30016
 H522 H 0.21584 0.24833 0.28095
 C523 C 0.67632 0.68318 0.74845
 C524 C 0.67268 0.69243 0.71363
 C525 C 0.63941 0.70295 0.70259
 C526 C 0.61243 0.70832 0.72684
 C527 C 0.61802 0.70281 0.76257
 C528 C 0.64967 0.68800 0.77225
 C529 C 0.67440 0.69846 0.80025
 C530 C 0.70359 0.69316 0.77404
 H531 H 0.63468 0.70841 0.67550
 H532 H 0.58760 0.71770 0.71776
 H533 H 0.67492 0.67949 0.82175
 H534 H 0.67109 0.72589 0.80852
 H535 H 0.72089 0.67112 0.78039
 H536 H 0.71716 0.71752 0.76700
 C537 C 0.31381 0.78514 0.77260
 C538 C 0.31170 0.77655 0.73733
 C539 C 0.34245 0.76497 0.72084
 C540 C 0.37267 0.75838 0.74040
 C541 C 0.37288 0.76384 0.77669
 C542 C 0.34355 0.77926 0.79166
 C543 C 0.32317 0.76918 0.82303
 C544 C 0.29049 0.77571 0.80198
 H545 H 0.34281 0.75994 0.69316
 H546 H 0.39551 0.74842 0.72727
 H547 H 0.32664 0.78788 0.84483
 H548 H 0.32681 0.74156 0.82994
 H549 H 0.27519 0.79820 0.81162
 H550 H 0.27512 0.75189 0.79657
 C551 C -0.16949 0.24752 0.23785
 C552 C -0.18136 0.28055 0.22949
 C553 C -0.16081 0.30898 0.24006
 C554 C -0.13183 0.30419 0.26172
 C555 C -0.12296 0.27091 0.27368
 C556 C -0.14113 0.24281 0.25937
 C557 C -0.15771 0.21253 0.27668
 C558 C -0.18874 0.21774 0.25294
 H559 H -0.16765 0.33497 0.23258
 H560 H -0.11717 0.32672 0.26986
 H561 H -0.16363 0.21760 0.30454
 H562 H -0.14351 0.18806 0.27126
 H563 H -0.21272 0.22585 0.26696
 H564 H -0.19228 0.19638 0.23377
 C565 C -0.15966 0.69543 0.24379
 C566 C -0.17911 0.72311 0.25701
 C567 C -0.17033 0.75656 0.24550
 C568 C -0.14035 0.76195 0.22514
 C569 C -0.11864 0.73398 0.21565
 C570 C -0.13034 0.70067 0.22357
 C571 C -0.11156 0.67135 0.24006
 C572 C -0.14381 0.66564 0.26219
 H573 H -0.18580 0.77864 0.25339
 H574 H -0.13371 0.78807 0.21769
 H575 H -0.08858 0.68003 0.25529
 H576 H -0.10652 0.64985 0.22138
 H577 H -0.13964 0.67103 0.29028
 H578 H -0.15739 0.64092 0.25618
 C579 C 0.32828 0.18946 0.74268
 C580 C 0.31130 0.21660 0.75987
 C581 C 0.32129 0.25058 0.75127
 C582 C 0.35007 0.25654 0.72933
 C583 C 0.36963 0.22863 0.71559
 C584 C 0.35659 0.19527 0.72118
 C585 C 0.37461 0.16345 0.73342
 C586 C 0.34345 0.15714 0.75692
 H587 H 0.30764 0.27248 0.76245
 H588 H 0.35745 0.28298 0.72401
 H589 H 0.39891 0.16936 0.74787
 H590 H 0.37728 0.14369 0.71246
 H591 H 0.34960 0.15941 0.78504
 H592 H 0.32813 0.13389 0.74940
 C593 C 0.67301 0.31201 0.74746
 C594 C 0.68923 0.28415 0.76353
 C595 C 0.67835 0.25058 0.75396
 C596 C 0.64935 0.24571 0.73213
 C597 C 0.63044 0.27435 0.71962
 C598 C 0.64440 0.30727 0.72619
 C599 C 0.62731 0.33932 0.73983
 C600 C 0.65883 0.34444 0.76305
 H601 H 0.69145 0.22822 0.76439
 H602 H 0.64133 0.21956 0.72595
 H603 H 0.60301 0.33377 0.75445
 H604 H 0.62495 0.35952 0.71963
 H605 H 0.65289 0.34185 0.79118
 H606 H 0.67469 0.36742 0.75611
 C607 C 0.18603 0.81931 0.24745
 C608 C 0.18153 0.81102 0.28244
 C609 C 0.14834 0.79952 0.29292
 C610 C 0.12241 0.79230 0.26813
 C611 C 0.12902 0.79669 0.23236
 C612 C 0.16043 0.81249 0.22306
 C613 C 0.18656 0.80217 0.19619
 C614 C 0.21457 0.80972 0.22301
 H615 H 0.14300 0.79463 0.32004
 H616 H 0.09765 0.78230 0.27692
 H617 H 0.18706 0.82035 0.17401
 H618 H 0.18468 0.77434 0.18887
 H619 H 0.23113 0.83230 0.21636
 H620 H 0.22894 0.78630 0.23133
 C621 C 0.22518 0.15351 0.23283
 C622 C 0.23284 0.18419 0.21541
 C623 C 0.26813 0.19071 0.20758
 C624 C 0.29368 0.16525 0.21356
 C625 C 0.28452 0.13305 0.22805
 C626 C 0.25023 0.12886 0.23927
 C627 C 0.22535 0.09983 0.23290
 C628 C 0.19782 0.12705 0.22587
 H629 H 0.27578 0.21492 0.19590
 H630 H 0.32033 0.17046 0.20618
 H631 H 0.22017 0.08478 0.25682
 H632 H 0.23229 0.08408 0.20961
 H633 H 0.17686 0.12770 0.24577
 H634 H 0.18879 0.12720 0.19847
 C635 C 0.76281 0.67045 0.68976
 C636 C 0.72729 0.66374 0.69341
 C637 C 0.71728 0.62961 0.70135
 C638 C 0.74238 0.60466 0.70991
 C639 C 0.77806 0.61327 0.71064
 C640 C 0.78756 0.64585 0.69807
 C641 C 0.81130 0.67252 0.71328
 C642 C 0.78412 0.69943 0.70404
 H643 H 0.69003 0.62273 0.70258
 H644 H 0.73371 0.57904 0.71705
 H645 H 0.83572 0.67515 0.69806
 H646 H 0.81488 0.66945 0.74172
 H647 H 0.79282 0.71743 0.68342
 H648 H 0.77192 0.71200 0.72709
 C649 C 0.75582 0.33525 0.81103
 C650 C 0.74233 0.31593 0.78330
 C651 C 0.75609 0.32234 0.74997
 C652 C 0.77947 0.34992 0.74462
 C653 C 0.78974 0.37155 0.77253
 C654 C 0.77897 0.36214 0.80586
 C655 C 0.76277 0.38353 0.83401
 C656 C 0.73740 0.35390 0.83964
 H657 H 0.74790 0.30681 0.72794
 H658 H 0.78870 0.35484 0.71855
 H659 H 0.75024 0.40733 0.82402
 H660 H 0.78069 0.38768 0.85625
 H661 H 0.71013 0.36043 0.83287
 H662 H 0.74079 0.34093 0.86504
 C663 C 0.26920 -0.16141 0.31092
 C664 C 0.23368 -0.15726 0.30462
 C665 C 0.22209 -0.12394 0.29557
 C666 C 0.24609 -0.09735 0.28858
 C667 C 0.28217 -0.10343 0.29075
 C668 C 0.29283 -0.13516 0.30433
 C669 C 0.31945 -0.16012 0.29115
 C670 C 0.29346 -0.18884 0.29845
 H671 H 0.19464 -0.11896 0.29225
 H672 H 0.23642 -0.07250 0.28023
 H673 H 0.34268 -0.16100 0.30820
 H674 H 0.32514 -0.15683 0.26305
 H675 H 0.30165 -0.20620 0.31977
 H676 H 0.28399 -0.20223 0.27462
 C677 C 0.26905 -0.15949 0.73974
 C678 C 0.25618 -0.19139 0.72811
 C679 C 0.21973 -0.19526 0.72646
 C680 C 0.19768 -0.16665 0.73209
 C681 C 0.21163 -0.13372 0.73995
 C682 C 0.24741 -0.13152 0.74578
 C683 C 0.27350 -0.10663 0.73174
 C684 C 0.29723 -0.13744 0.72517
 H685 H 0.20839 -0.21997 0.71943
 H686 H 0.16991 -0.17007 0.72926
 H687 H 0.28343 -0.08871 0.75214
 H688 H 0.26460 -0.09398 0.70753
 H689 H 0.32076 -0.13729 0.74184
 H690 H 0.30208 -0.14275 0.69716
 C691 C 0.76990 0.34505 0.19932
 C692 C 0.76536 0.31442 0.21763
 C693 C 0.74188 0.31442 0.24567
 C694 C 0.72051 0.34338 0.25214
 C695 C 0.72298 0.37300 0.23109
 C696 C 0.74934 0.37369 0.20599
 C697 C 0.74765 0.38271 0.16842
 C698 C 0.77039 0.35129 0.16121
 H699 H 0.73927 0.29164 0.26161
 H700 H 0.70184 0.34243 0.27319
 H701 H 0.76092 0.40761 0.16288
 H702 H 0.72097 0.38020 0.15765
 H703 H 0.79680 0.35813 0.15172
 H704 H 0.75703 0.33060 0.14609
 C705 C 0.76159 0.67425 0.24582
 C706 C 0.77212 0.68647 0.27835
 C707 C 0.76324 0.66658 0.30754
 C708 C 0.74136 0.63744 0.30406
 C709 C 0.72761 0.62776 0.27132
 C710 C 0.73991 0.64584 0.24239
 C711 C 0.72043 0.66197 0.21321
 C712 C 0.74438 0.69307 0.21701
 H713 H 0.77256 0.67403 0.33303
 H714 H 0.73484 0.62306 0.32714
 H715 H 0.69293 0.66769 0.22008
 H716 H 0.72419 0.64773 0.18830
 H717 H 0.73085 0.71689 0.22608
 H718 H 0.76203 0.69656 0.19443
 C719 C 0.24846 0.16266 0.80899
 C720 C 0.26073 0.18114 0.78042
 C721 C 0.24759 0.17183 0.74746
 C722 C 0.22593 0.14259 0.74344
 C723 C 0.21675 0.12220 0.77234
 C724 C 0.22701 0.13417 0.80513
 C725 C 0.24454 0.11544 0.83393
 C726 C 0.26803 0.14685 0.83813
 H727 H 0.25469 0.18662 0.72479
 H728 H 0.21684 0.13574 0.71771
 H729 H 0.25850 0.09190 0.82476
 H730 H 0.22694 0.11148 0.85648
 H731 H 0.29565 0.14162 0.83138
 H732 H 0.26387 0.16104 0.86302
 C733 C 0.19574 0.26402 0.17743
 C734 C 0.20750 0.22983 0.17679
 C735 C 0.22039 0.21681 0.14494
 C736 C 0.22524 0.23892 0.11637
 C737 C 0.21712 0.27450 0.11900
 C738 C 0.20032 0.28571 0.14936
 C739 C 0.20769 0.31612 0.17239
 C740 C 0.20257 0.29221 0.20314
 H741 H 0.22791 0.18993 0.14257
 H742 H 0.23622 0.22832 0.09268
 H743 H 0.18725 0.33629 0.17052
 H744 H 0.23480 0.32572 0.16968
 H745 H 0.17912 0.29851 0.21888
 H746 H 0.22669 0.28786 0.21831
 C747 C 0.69526 0.75049 0.66792
 C748 C 0.70541 0.71611 0.66273
 C749 C 0.71863 0.70696 0.62971
 C750 C 0.72507 0.73245 0.60458
 C751 C 0.71824 0.76766 0.61184
 C752 C 0.70130 0.77555 0.64312
 C753 C 0.70981 0.80219 0.67010
 C754 C 0.70310 0.77461 0.69724
 H755 H 0.72510 0.68032 0.62376
 H756 H 0.73615 0.72468 0.57986
 H757 H 0.69040 0.82345 0.67085
 H758 H 0.73739 0.81073 0.66892
 H759 H 0.67979 0.77991 0.71352
 H760 H 0.72677 0.76705 0.71181
 C761 C 0.81358 0.75859 0.32615
 C762 C 0.78623 0.74218 0.30881
 C763 C 0.75212 0.75128 0.31861
 C764 C 0.74614 0.77323 0.34744
 C765 C 0.77418 0.78631 0.36733
 C766 C 0.80776 0.77998 0.35460
 C767 C 0.83929 0.76687 0.37280
 C768 C 0.84560 0.74351 0.34145
 H769 H 0.73015 0.74058 0.30465
 H770 H 0.71957 0.77913 0.35453
 H771 H 0.83279 0.75246 0.39682
 H772 H 0.85949 0.78722 0.37596
 H773 H 0.84277 0.71551 0.34720
 H774 H 0.86927 0.75054 0.32647
 C775 C 0.24741 0.24025 -0.17200
 C776 C 0.28046 0.23169 -0.18447
 C777 C 0.30927 0.24293 -0.16485
 C778 C 0.30466 0.26505 -0.13584
 C779 C 0.27110 0.27644 -0.12588
 C780 C 0.24284 0.26192 -0.14360
 C781 C 0.21200 0.27889 -0.15956
 C782 C 0.21707 0.25495 -0.19069
 H783 H 0.33527 0.23519 -0.17235
 H784 H 0.32740 0.27357 -0.12169
 H785 H 0.21670 0.30660 -0.16552
 H786 H 0.18767 0.27354 -0.14494
 H787 H 0.22474 0.26870 -0.21477
 H788 H 0.19578 0.23574 -0.19387
 C789 C 0.74852 0.26074 -0.16438
 C790 C 0.71689 0.26962 -0.17962
 C791 C 0.68620 0.25921 -0.16246
 C792 C 0.68779 0.23727 -0.13341
 C793 C 0.72012 0.22549 -0.12084
 C794 C 0.75012 0.23946 -0.13581
 C795 C 0.78216 0.22191 -0.14898
 C796 C 0.78034 0.24542 -0.18036
 H797 H 0.66107 0.26710 -0.17212
 H798 H 0.66377 0.22895 -0.12142
 H799 H 0.77774 0.19416 -0.15542
 H800 H 0.80504 0.22722 -0.13220
 H801 H 0.77481 0.23139 -0.20506
 H802 H 0.80207 0.26433 -0.18155
 C803 C 0.20587 0.75342 0.32694
 C804 C 0.21421 0.78810 0.33335
 C805 C 0.22625 0.79689 0.36687
 C806 C 0.23344 0.77096 0.39130
 C807 C 0.22841 0.73570 0.38287
 C808 C 0.21255 0.72794 0.35107
 C809 C 0.22292 0.70258 0.32349
 C810 C 0.21553 0.73062 0.29707
 H811 H 0.23118 0.82363 0.37380
 H812 H 0.24352 0.77848 0.41647
 H813 H 0.20456 0.68042 0.32175
 H814 H 0.25084 0.69539 0.32494
 H815 H 0.19287 0.72468 0.28019
 H816 H 0.23915 0.73980 0.28322
 C817 C 0.25494 0.77061 0.66011
 C818 C 0.27077 0.75794 0.69004
 C819 C 0.27823 0.72227 0.69099
 C820 C 0.27442 0.70151 0.66097
 C821 C 0.26281 0.71599 0.62952
 C822 C 0.25093 0.75018 0.63067
 C823 C 0.25872 0.77973 0.60717
 C824 C 0.26307 0.80209 0.63957
 H825 H 0.28868 0.71090 0.71431
 H826 H 0.28183 0.67456 0.66207
 H827 H 0.23583 0.78706 0.59134
 H828 H 0.28326 0.77604 0.59230
 H829 H 0.24265 0.82221 0.64246
 H830 H 0.29015 0.81136 0.64358
 C831 C 0.74486 0.24806 0.17811
 C832 C 0.77834 0.26168 0.18227
 C833 C 0.80426 0.25020 0.15901
 C834 C 0.79595 0.22836 0.13089
 C835 C 0.76143 0.21735 0.12504
 C836 C 0.73655 0.22667 0.15016
 C837 C 0.70112 0.24222 0.14719
 C838 C 0.71018 0.26512 0.17814
 H839 H 0.83076 0.25920 0.16182
 H840 H 0.81647 0.22113 0.11297
 H841 H 0.68018 0.22326 0.15286
 H842 H 0.69756 0.25744 0.12313
 H843 H 0.69487 0.25895 0.20180
 H844 H 0.71140 0.29303 0.17161
 C845 C 0.49984 0.41669 0.48558
 C846 C 0.48679 0.44742 0.49985
 C847 C 0.48049 0.44824 0.53596
 C848 C 0.48300 0.41787 0.55575
 C849 C 0.49205 0.38604 0.53991
 C850 C 0.50256 0.38686 0.50508
 C851 C 0.49179 0.36448 0.47519
 C852 C 0.48884 0.39726 0.45387
 H853 H 0.47218 0.47195 0.54857
 H854 H 0.47685 0.41917 0.58317
 H855 H 0.46642 0.35145 0.47968
 H856 H 0.51312 0.34718 0.46627
 H857 H 0.46175 0.40331 0.44605
 H858 H 0.50849 0.39889 0.43274
 C859 C -0.04729 0.93884 0.02456
 C860 C -0.03767 0.93931 -0.01046
 C861 C -0.02396 0.90848 -0.02484
 C862 C -0.01638 0.88003 -0.00344
 C863 C -0.02279 0.88170 0.03267
 C864 C -0.04028 0.91084 0.04546
 C865 C -0.03224 0.93355 0.07596
 C866 C -0.04002 0.96429 0.05290
 H867 H -0.01803 0.90682 -0.05229
 H868 H -0.00487 0.85715 -0.01502
 H869 H -0.00454 0.93199 0.08395
 H870 H -0.05142 0.93035 0.09732
 H871 H -0.01686 0.98061 0.04742
 H872 H -0.06373 0.97871 0.06092
 C873 C 0.02743 0.60742 -0.02409
 C874 C 0.03493 0.57458 -0.01123
 C875 C 0.03553 0.57075 0.02518
 C876 C 0.03270 0.59986 0.04733
 C877 C 0.02889 0.63336 0.03354
 C878 C 0.02429 0.63593 -0.00237
 C879 C 0.04184 0.65900 -0.02791
 C880 C 0.04519 0.62760 -0.05174
 H881 H 0.03932 0.54548 0.03641
 H882 H 0.03418 0.59619 0.07512
 H883 H 0.06724 0.66895 -0.01837
 H884 H 0.02395 0.67899 -0.03814
 H885 H 0.07252 0.61926 -0.05603
 H886 H 0.02914 0.62945 -0.07559
 C887 C 0.51787 0.09822 0.47507
 C888 C 0.55238 0.08886 0.46863
 C889 C 0.57857 0.10913 0.48429
 C890 C 0.57002 0.13505 0.50878
 C891 C 0.53504 0.14115 0.51835
 C892 C 0.50942 0.12366 0.49925
 C893 C 0.47830 0.10404 0.51144
 C894 C 0.48763 0.07623 0.48484
 H895 H 0.60566 0.10410 0.47855
 H896 H 0.59090 0.14951 0.52085
 H897 H 0.45364 0.11761 0.50537
 H898 H 0.48081 0.09532 0.53875
 H899 H 0.46846 0.07389 0.46342
 H900 H 0.49559 0.05137 0.49669
 C901 C -0.00702 0.08587 0.51581
 C902 C -0.04042 0.07635 0.52648
 C903 C -0.06816 0.09806 0.51689
 C904 C -0.06261 0.12581 0.49401
 C905 C -0.02916 0.13253 0.48040
 C906 C -0.00151 0.11323 0.49355
 C907 C 0.02699 0.09456 0.47487
 C908 C 0.02088 0.06457 0.49943
 H909 H -0.09422 0.09288 0.52614
 H910 H -0.08461 0.14138 0.48638
 H911 H 0.05262 0.10731 0.47866
 H912 H 0.02029 0.08840 0.44743
 H913 H 0.04292 0.06014 0.51744
 H914 H 0.01059 0.04097 0.48631
 C915 C 0.50345 0.57054 1.00817
 C916 C 0.47077 0.55749 1.01701
 C917 C 0.44139 0.57533 1.00473
 C918 C 0.44522 0.60287 0.98119
 C919 C 0.47853 0.61309 0.96948
 C920 C 0.50724 0.59750 0.98514
 C921 C 0.53893 0.58169 0.96914
 C922 C 0.53471 0.55214 0.99460
 H923 H 0.41557 0.56738 1.01254
 H924 H 0.42210 0.61556 0.97177
 H925 H 0.56260 0.59749 0.97400
 H926 H 0.53487 0.57377 0.94163
 H927 H 0.55583 0.55105 1.01419
 H928 H 0.52818 0.52702 0.98192
 C929 C 0.49994 0.89899 1.00437
 C930 C 0.53282 0.91112 1.01390
 C931 C 0.56177 0.89090 1.00392
 C932 C 0.55765 0.86198 0.98174
 C933 C 0.52446 0.85254 0.96926
 C934 C 0.49585 0.87046 0.98282
 C935 C 0.46577 0.88643 0.96455
 C936 C 0.47033 0.91772 0.98829
 H937 H 0.58764 0.89811 1.01225
 H938 H 0.58048 0.84764 0.97372
 H939 H 0.44115 0.87216 0.96932
 H940 H 0.47147 0.89191 0.93682
 H941 H 0.44840 0.92142 1.00678
 H942 H 0.47876 0.94141 0.97441
 C943 C 0.00290 0.42808 0.49857
 C944 C 0.03499 0.43330 0.51474
 C945 C 0.05849 0.40537 0.51506
 C946 C 0.05215 0.37559 0.49469
 C947 C 0.02163 0.37284 0.47467
 C948 C -0.00359 0.39853 0.47898
 C949 C -0.02314 0.41812 0.45219
 C950 C -0.01601 0.45053 0.47363
 H951 H 0.08240 0.40733 0.52970
 H952 H 0.07149 0.35530 0.49375
 H953 H -0.05108 0.41084 0.45158
 H954 H -0.00986 0.41801 0.42651
 H955 H -0.03998 0.46184 0.48515
 H956 H 0.00141 0.46930 0.46046
 C957 C 0.41849 0.48495 0.49659
 C958 C 0.45018 0.49888 0.48567
 C959 C 0.45190 0.53501 0.48109
 C960 C 0.42161 0.55535 0.48299
 C961 C 0.38899 0.54000 0.48968
 C962 C 0.38872 0.50498 0.49868
 C963 C 0.36643 0.47607 0.48554
 C964 C 0.39917 0.45416 0.48334
 H965 H 0.47631 0.54721 0.47439
 H966 H 0.42362 0.58280 0.47811
 H967 H 0.35483 0.48162 0.45978
 H968 H 0.34777 0.46696 0.50556
 H969 H 0.40662 0.44700 0.45631
 H970 H 0.39944 0.43253 0.50215
 C971 C 0.89553 -0.02252 -0.01418
 C972 C 0.92743 -0.00822 -0.02405
 C973 C 0.92950 0.02815 -0.02603
 C974 C 0.89941 0.04864 -0.02233
 C975 C 0.86670 0.03319 -0.01621
 C976 C 0.86606 -0.00241 -0.01013
 C977 C 0.84327 -0.02987 -0.02537
 C978 C 0.87572 -0.05191 -0.02973
 H979 H 0.95406 0.04061 -0.03163
 H980 H 0.90163 0.07638 -0.02510
 H981 H 0.83149 -0.02206 -0.05043
 H982 H 0.82469 -0.04037 -0.00599
 H983 H 0.88285 -0.05689 -0.05732
 H984 H 0.87586 -0.07503 -0.01280
 C985 C 0.57892 -0.02793 -0.00450
 C986 C 0.56694 -0.03577 0.02876
 C987 C 0.58516 -0.02174 0.05725
 C988 C 0.61175 0.00276 0.05208
 C989 C 0.62040 0.01400 0.01829
 C990 C 0.60492 -0.00365 -0.00963
 C991 C 0.58755 0.01010 -0.04127
 C992 C 0.55913 -0.01665 -0.03558
 H993 H 0.57783 -0.02862 0.08345
 H994 H 0.62461 0.01360 0.07463
 H995 H 0.60305 0.00519 -0.06520
 H996 H 0.57846 0.03720 -0.03776
 H997 H 0.55839 -0.03703 -0.05610
 H998 H 0.53352 -0.00515 -0.02874
 C999 C 0.08113 0.51338 0.54978
 C1000 C 0.07382 0.48467 0.52852
 C1001 C 0.09873 0.47636 0.50267
 C1002 C 0.12847 0.49718 0.49771
 C1003 C 0.13372 0.52764 0.51764
 C1004 C 0.11002 0.53406 0.54456
 C1005 C 0.09049 0.56633 0.55339
 C1006 C 0.05882 0.54368 0.55908
 H1007 H 0.09498 0.45459 0.48531
 H1008 H 0.14668 0.48962 0.47764
 H1009 H 0.08793 0.58395 0.53089
 H1010 H 0.09996 0.57875 0.57773
 H1011 H 0.03782 0.54815 0.53985
 H1012 H 0.05018 0.54312 0.58663
 C1013 C 0.09816 0.53069 -0.00964
 C1014 C 0.06751 0.52060 -0.02636
 C1015 C 0.06341 0.48508 -0.03409
 C1016 C 0.09114 0.46179 -0.02923
 C1017 C 0.12346 0.47345 -0.01622
 C1018 C 0.12528 0.50779 -0.00456
 C1019 C 0.15194 0.53499 -0.01153
 C1020 C 0.12208 0.56006 -0.01705
 H1021 H 0.03933 0.47561 -0.04511
 H1022 H 0.08755 0.43494 -0.03657
 H1023 H 0.16725 0.52963 -0.03550
 H1024 H 0.16764 0.54121 0.01190
 H1025 H 0.11997 0.56925 -0.04423
 H1026 H 0.12051 0.58064 0.00323
 C1027 C 0.59559 1.02736 0.48933
 C1028 C 0.58949 1.03741 0.45511
 C1029 C 0.61207 1.02447 0.42922
 C1030 C 0.63676 0.99890 0.43709
 C1031 C 0.63935 0.98559 0.47104
 C1032 C 0.61990 1.00215 0.49711
 C1033 C 0.59727 0.98717 0.52474
 C1034 C 0.57071 1.01488 0.51616
 H1035 H 0.60956 1.03300 0.40265
 H1036 H 0.65294 0.98884 0.41633
 H1037 H 0.60874 0.99043 0.55102
 H1038 H 0.58835 0.96052 0.51829
 H1039 H 0.56695 1.03415 0.53742
 H1040 H 0.54636 1.00433 0.50472
 C1041 C 0.91133 1.01840 0.50843
 C1042 C 0.92384 1.02466 0.54190
 C1043 C 0.90541 1.00995 0.56982
 C1044 C 0.87793 0.98653 0.56361
 C1045 C 0.86840 0.97724 0.52933
 C1046 C 0.88443 0.99536 0.50230
 C1047 C 0.90099 0.98226 0.46962
 C1048 C 0.93044 1.00767 0.47643
 H1049 H 0.91299 1.01566 0.59630
 H1050 H 0.86485 0.97520 0.58566
 H1051 H 0.88550 0.98872 0.44625
 H1052 H 0.90905 0.95474 0.47141
 H1053 H 0.93181 1.02882 0.45712
 H1054 H 0.95564 0.99495 0.48221
 C1055 C 0.42404 0.48638 0.06114
 C1056 C 0.44096 0.50217 0.03331
 C1057 C 0.43076 0.49232 -0.00049
 C1058 C 0.40153 0.47090 -0.00567
 C1059 C 0.38181 0.45898 0.02287
 C1060 C 0.39527 0.46537 0.05609
 C1061 C 0.37779 0.47905 0.08804
 C1062 C 0.40943 0.50205 0.09350
 H1063 H 0.44442 0.50238 -0.02284
 H1064 H 0.39379 0.46476 -0.03199
 H1065 H 0.37493 0.45895 0.10829
 H1066 H 0.35370 0.49371 0.08217
 H1067 H 0.42484 0.49514 0.11679
 H1068 H 0.40375 0.53008 0.09075
 C1069 C 0.48742 0.49592 0.41766
 C1070 C 0.50161 0.48440 0.44884
 C1071 C 0.53802 0.48079 0.45048
 C1072 C 0.55859 0.48453 0.42041
 C1073 C 0.54316 0.49193 0.38805
 C1074 C 0.50760 0.49963 0.38811
 C1075 C 0.47920 0.48645 0.36517
 C1076 C 0.45710 0.48247 0.39769
 H1077 H 0.55036 0.47380 0.47464
 H1078 H 0.58635 0.48062 0.42240
 H1079 H 0.48583 0.46139 0.35242
 H1080 H 0.46937 0.50671 0.34744
 H1081 H 0.45090 0.45511 0.40384
 H1082 H 0.43466 0.50051 0.39877
 C1083 C -0.03034 -0.00638 0.91081
 C1084 C -0.01870 -0.02109 0.94170
 C1085 C 0.01733 -0.02691 0.94497
 C1086 C 0.03970 -0.02259 0.91628
 C1087 C 0.02653 -0.01206 0.88385
 C1088 C -0.00833 -0.00185 0.88269
 C1089 C -0.03621 -0.01127 0.85740
 C1090 C -0.06030 -0.01619 0.88835
 H1091 H 0.02787 -0.03637 0.96911
 H1092 H 0.06697 -0.02869 0.91919
 H1093 H -0.03054 -0.03569 0.84303
 H1094 H -0.04366 0.01094 0.84089
 H1095 H -0.06860 -0.04347 0.89202
 H1096 H -0.08154 0.00323 0.88973
 C1097 C -0.00357 0.06366 0.59220
 C1098 C -0.02073 0.03750 0.57377
 C1099 C -0.01126 0.00303 0.58079
 C1100 C 0.01182 -0.00448 0.60815
 C1101 C 0.02595 0.02238 0.62893
 C1102 C 0.01910 0.05637 0.61888
 C1103 C 0.00692 0.08666 0.63992
 C1104 C -0.01794 0.09464 0.61045
 H1105 H -0.02236 -0.01805 0.56581
 H1106 H 0.01796 -0.03122 0.61338
 H1107 H 0.02756 0.10654 0.64323
 H1108 H -0.00644 0.07887 0.66427
 H1109 H -0.01151 0.11899 0.59672
 H1110 H -0.04577 0.09147 0.61762
 C1111 C 0.50292 0.55238 0.08682
 C1112 C 0.49194 0.52373 0.06739
 C1113 C 0.50655 0.49137 0.07543
 C1114 C 0.52842 0.48777 0.10450
 C1115 C 0.53606 0.51647 0.12621
 C1116 C 0.52434 0.54889 0.11536
 C1117 C 0.50545 0.57649 0.13512
 C1118 C 0.48206 0.58032 0.10364
 H1119 H 0.50034 0.46880 0.05982
 H1120 H 0.53869 0.46244 0.11023
 H1121 H 0.52203 0.59958 0.13999
 H1122 H 0.49170 0.56636 0.15834
 H1123 H 0.48531 0.60549 0.09031
 H1124 H 0.45470 0.57245 0.10855
 C1125 C 0.49364 -0.07183 0.07895
 C1126 C 0.51048 -0.04711 0.05865
 C1127 C 0.50100 -0.01220 0.06376
 C1128 C 0.47876 -0.00255 0.09135
 C1129 C 0.46558 -0.02764 0.11441
 C1130 C 0.47178 -0.06240 0.10600
 C1131 C 0.48437 -0.09126 0.12820
 C1132 C 0.50830 -0.10156 0.09839
 H1133 H 0.51197 0.00769 0.04742
 H1134 H 0.47300 0.02458 0.09526
 H1135 H 0.46369 -0.11067 0.13329
 H1136 H 0.49850 -0.08188 0.15162
 H1137 H 0.50129 -0.12679 0.08625
 H1138 H 0.53634 -0.09815 0.10442
 C1139 C 1.03217 0.46514 0.59638
 C1140 C 1.02044 0.47225 0.56296
 C1141 C 0.98832 0.48914 0.55948
 C1142 C 0.96686 0.49463 0.58872
 C1143 C 0.97740 0.48354 0.62194
 C1144 C 1.01123 0.47070 0.62515
 C1145 C 1.02391 0.43866 0.64234
 C1146 C 1.04690 0.43266 0.61068
 H1147 H 0.97958 0.49731 0.53420
 H1148 H 0.94185 0.50684 0.58518
 H1149 H 1.00317 0.41884 0.64531
 H1150 H 1.03889 0.44453 0.66631
 H1151 H 1.03950 0.40937 0.59522
 H1152 H 1.07509 0.43516 0.61640
 C1153 C 0.98605 0.55432 0.93336
 C1154 C 1.02046 0.54261 0.93411
 C1155 C 1.03435 0.52918 0.90283
 C1156 C 1.01282 0.52372 0.87365
 C1157 C 0.97708 0.53206 0.87496
 C1158 C 0.96506 0.54945 0.90461
 C1159 C 0.93376 0.54278 0.92656
 C1160 C 0.95690 0.54820 0.95811
 H1161 H 1.06142 0.52178 0.90131
 H1162 H 1.02394 0.51215 0.85047
 H1163 H 0.92394 0.51584 0.92380
 H1164 H 0.91377 0.56327 0.92371
 H1165 H 0.96059 0.52442 0.97368
 H1166 H 0.95029 0.57185 0.97334
 C1167 C 0.53261 0.01943 0.40506
 C1168 C 0.54098 0.05315 0.41541
 C1169 C 0.52961 0.08037 0.39415
 C1170 C 0.50693 0.07384 0.36619
 C1171 C 0.49503 0.03994 0.35895
 C1172 C 0.51026 0.01297 0.37758
 C1173 C 0.49378 -0.01683 0.39577
 C1174 C 0.51838 -0.00968 0.42584
 H1175 H 0.53712 0.10676 0.40002
 H1176 H 0.49785 0.09549 0.35112
 H1177 H 0.49906 -0.04184 0.38233
 H1178 H 0.46603 -0.01206 0.40233
 H1179 H 0.53788 -0.03046 0.42965
 H1180 H 0.50492 -0.00070 0.44985
   
