data_POSCAR
  _audit_creation_date              2014-09-24
  _audit_creation_method            'ToBaCCo'
  _symmetry_space_group_name_H-M    'P1'
  _symmetry_Int_Tables_number       1
  _symmetry_cell_setting            triclinic
  loop_
  _symmetry_equiv_pos_as_xyz
 x,y,z
_cell_length_a 40.8274
_cell_length_b 30.0589
_cell_length_c 31.1857
_cell_angle_alpha 90.061000
_cell_angle_beta 90.035400
_cell_angle_gamma 85.690800
loop_
  _atom_site_label
  _atom_site_type_symbol
  _atom_site_fract_x
  _atom_site_fract_y
  _atom_site_fract_z
C1 C 1.22746 0.22104 0.20268
 C2 C 1.25007 0.24904 0.17655
 C3 C 1.26850 0.27517 0.20126
 C4 C 1.26260 0.27100 0.24996
 C5 C 1.25011 0.19450 0.23417
 C6 C 1.26846 0.22063 0.25892
 C7 C 1.20699 0.25452 0.23045
 C8 C 1.22522 0.28054 0.25527
 H9 H 1.25196 0.24750 0.14182
 H10 H 1.27753 0.29238 0.27005
 H11 H 1.25150 0.15835 0.23671
 H12 H 1.18033 0.25576 0.23222
 C13 C 0.72940 -0.28070 0.20198
 C14 C 0.75178 -0.25271 0.17558
 C15 C 0.76992 -0.22606 0.20007
 C16 C 0.76408 -0.22979 0.24876
 C17 C 0.75212 -0.30665 0.23375
 C18 C 0.77019 -0.27998 0.25827
 C19 C 0.70865 -0.24715 0.22940
 C20 C 0.72672 -0.22065 0.25394
 H21 H 0.75340 -0.25415 0.14082
 H22 H 0.77888 -0.20801 0.26862
 H23 H 0.75335 -0.34271 0.23716
 H24 H 0.68202 -0.24631 0.23127
 C25 C 0.72807 0.22141 -0.29805
 C26 C 0.74991 0.24742 -0.32310
 C27 C 0.76906 0.27510 -0.29696
 C28 C 0.76270 0.27141 -0.25081
 C29 C 0.74906 0.19602 -0.26756
 C30 C 0.76817 0.22366 -0.24146
 C31 C 0.70814 0.25365 -0.27251
 C32 C 0.72716 0.28120 -0.24639
 H33 H 0.75208 0.24566 -0.35783
 H34 H 0.77749 0.29297 -0.23058
 H35 H 0.75060 0.15983 -0.26499
 H36 H 0.68146 0.25472 -0.27067
 C37 C 1.22955 -0.28010 -0.29777
 C38 C 1.25223 -0.25235 -0.32397
 C39 C 1.27033 -0.22584 -0.29926
 C40 C 1.26416 -0.22945 -0.25065
 C41 C 1.25197 -0.30618 -0.26576
 C42 C 1.27000 -0.27963 -0.24109
 C43 C 1.20877 -0.24637 -0.27063
 C44 C 1.22681 -0.22000 -0.24593
 H45 H 1.25413 -0.25392 -0.35870
 H46 H 1.27891 -0.20776 -0.23063
 H47 H 1.25327 -0.34227 -0.26262
 H48 H 1.18211 -0.24525 -0.26910
 C49 C 0.22985 0.22151 0.79899
 C50 C 0.25105 0.24810 0.82408
 C51 C 0.27020 0.27578 0.79835
 C52 C 0.26470 0.27187 0.75223
 C53 C 0.20911 0.25475 0.77115
 C54 C 0.22728 0.28105 0.74653
 C55 C 0.25248 0.19509 0.76727
 C56 C 0.27070 0.22153 0.74268
 H57 H 0.25294 0.24641 0.85882
 H58 H 0.27954 0.29346 0.73224
 H59 H 0.18247 0.25563 0.76918
 H60 H 0.25372 0.15898 0.76419
 C61 C 0.72740 0.72154 0.79762
 C62 C 0.74920 0.74765 0.82274
 C63 C 0.76847 0.77518 0.79666
 C64 C 0.76223 0.77126 0.75048
 C65 C 0.70758 0.75369 0.77186
 C66 C 0.72671 0.78108 0.74579
 C67 C 0.74849 0.69598 0.76732
 C68 C 0.76771 0.72345 0.74127
 H69 H 0.75133 0.74597 0.85748
 H70 H 0.77711 0.79270 0.73029
 H71 H 0.68091 0.75481 0.76987
 H72 H 0.75001 0.65977 0.76484
 C73 C 0.72926 0.21977 0.29748
 C74 C 0.75164 0.24782 0.32391
 C75 C 0.76980 0.27436 0.29944
 C76 C 0.76401 0.27048 0.25075
 C77 C 0.70855 0.25325 0.26998
 C78 C 0.72666 0.27964 0.24546
 C79 C 0.75199 0.19370 0.26579
 C80 C 0.77009 0.22027 0.24130
 H81 H 0.75324 0.24649 0.35868
 H82 H 0.77883 0.29218 0.23091
 H83 H 0.68192 0.25407 0.26799
 H84 H 0.75318 0.15763 0.26239
 C85 C 0.22763 0.72033 0.29761
 C86 C 0.25016 0.74867 0.32361
 C87 C 0.26849 0.77476 0.29877
 C88 C 0.26256 0.77020 0.25009
 C89 C 0.20703 0.75351 0.26969
 C90 C 0.22514 0.77948 0.24474
 C91 C 0.25034 0.69370 0.26623
 C92 C 0.26859 0.71977 0.24134
 H93 H 0.25206 0.74741 0.35834
 H94 H 0.27739 0.79154 0.22988
 H95 H 0.18038 0.75465 0.26802
 H96 H 0.25183 0.65753 0.26384
 O97 O 1.04131 0.07577 0.07523
 O98 O 1.07906 0.03347 0.03498
 C99 C 1.07116 0.06298 0.06413
 O100 O 0.95430 -0.07938 0.07157
 O101 O 0.91681 -0.03510 0.03262
 C102 C 0.92454 -0.06618 0.06047
 O103 O 1.04584 -0.07922 0.07714
 O104 O 1.08123 -0.04148 0.03602
 C105 C 1.07503 -0.06901 0.06633
 O106 O 0.94962 0.08347 0.07060
 O107 O 0.91455 0.04271 0.03167
 C108 C 0.92057 0.07331 0.05934
 Zr109 Zr 0.99620 0.05557 0.05097
 O110 O 0.99214 0.05430 0.11867
 O111 O 0.99755 0.12584 0.05198
 Zr112 Zr 0.99958 -0.05684 0.05092
 O113 O 0.99546 -0.05819 0.11854
 O114 O 1.00559 -0.12742 0.04890
 O115 O 1.02716 -0.00190 0.05985
 O116 O 0.96921 0.00077 0.05836
 O117 O 0.95070 0.08339 -0.07815
 O118 O 0.91507 0.04261 -0.04035
 C119 C 0.92147 0.07329 -0.06771
 O120 O 1.04703 -0.07941 -0.08188
 O121 O 1.08176 -0.04153 -0.03971
 C122 C 1.07600 -0.06908 -0.07021
 O123 O 0.95545 -0.08025 -0.07872
 O124 O 0.91742 -0.03624 -0.04040
 C125 C 0.92552 -0.06740 -0.06809
 O126 O 1.04250 0.07545 -0.08013
 O127 O 1.07959 0.03331 -0.03878
 C128 C 1.07215 0.06270 -0.06814
 Zr129 Zr 0.99698 0.05539 -0.05724
 O130 O 0.99399 0.05362 -0.12503
 O131 O 0.99835 0.12564 -0.05837
 Zr132 Zr 1.00036 -0.05706 -0.05707
 O133 O 0.99718 -0.05823 -0.12480
 O134 O 1.00646 -0.12762 -0.05528
 Zr135 Zr 1.04744 -0.00287 -0.00236
 Zr136 Zr 0.94901 0.00166 -0.00384
 O137 O 0.97007 0.00051 -0.06544
 O138 O 1.02810 -0.00213 -0.06516
 O139 O 0.96700 0.06566 -0.00354
 O140 O 1.02899 -0.06640 -0.00267
 O141 O 1.02478 0.06242 -0.00273
 O142 O 0.97074 -0.06430 -0.00346
 H143 H 0.95435 0.00169 0.08350
 H144 H 1.04483 -0.09304 -0.00243
 H145 H 0.95546 0.00120 -0.09083
 H146 H 1.03845 0.08829 -0.00252
 H147 H 0.98630 -0.13812 0.03395
 H148 H 0.98745 -0.13832 -0.03975
 H149 H 1.01303 -0.03780 -0.13594
 H150 H 1.01447 0.03788 -0.13589
 H151 H 0.98056 0.13832 -0.03949
 H152 H 0.97982 0.13844 0.03296
 H153 H 1.01235 0.03839 0.13013
 H154 H 1.01076 -0.03721 0.13015
 O155 O 1.04270 0.57472 0.58064
 O156 O 1.07962 0.53235 0.53919
 C157 C 1.07229 0.56169 0.56865
 O158 O 0.95543 0.41960 0.57834
 O159 O 0.91749 0.46381 0.54008
 C160 C 0.92553 0.43259 0.56769
 O161 O 1.04737 0.42060 0.58138
 O162 O 1.08203 0.45872 0.53937
 C163 C 1.07635 0.43104 0.56975
 O164 O 0.95077 0.58321 0.57848
 O165 O 0.91519 0.54255 0.54035
 C166 C 0.92155 0.57314 0.56790
 Zr167 Zr 0.99706 0.55531 0.55751
 O168 O 0.99400 0.55386 0.62529
 O169 O 0.99860 0.62554 0.55855
 Zr170 Zr 1.00038 0.44265 0.55691
 O171 O 0.99723 0.44119 0.62462
 O172 O 1.00644 0.37208 0.55497
 O173 O 1.02801 0.49761 0.56533
 O174 O 0.97017 0.50035 0.56538
 O175 O 0.94981 0.58357 0.42945
 O176 O 0.91472 0.54279 0.46818
 C177 C 0.92075 0.57339 0.44059
 O178 O 1.04625 0.42114 0.42309
 O179 O 1.08152 0.45892 0.46460
 C180 C 1.07542 0.43142 0.43415
 O181 O 0.95435 0.42073 0.42803
 O182 O 0.91690 0.46507 0.46704
 C183 C 0.92461 0.43401 0.43913
 O184 O 1.04164 0.57555 0.42516
 O185 O 1.07914 0.53281 0.46534
 C186 C 1.07143 0.56248 0.43630
 Zr187 Zr 0.99638 0.55571 0.44919
 O188 O 0.99238 0.55488 0.38148
 O189 O 0.99785 0.62596 0.44879
 Zr190 Zr 0.99966 0.44308 0.44884
 O191 O 0.99565 0.44170 0.38120
 O192 O 1.00564 0.37250 0.45044
 Zr193 Zr 1.04717 0.49693 0.50252
 Zr194 Zr 0.94913 0.50167 0.50370
 O195 O 0.96939 0.50086 0.44155
 O196 O 1.02718 0.49808 0.44017
 O197 O 0.96713 0.56568 0.50371
 O198 O 1.02894 0.43332 0.50252
 O199 O 1.02489 0.56237 0.50308
 O200 O 0.97078 0.43563 0.50315
 H201 H 0.95554 0.50101 0.59076
 H202 H 1.04487 0.40677 0.50223
 H203 H 0.95455 0.50182 0.41636
 H204 H 1.03876 0.58803 0.50301
 H205 H 0.98748 0.36146 0.53923
 H206 H 0.98641 0.36180 0.46549
 H207 H 1.01104 0.46259 0.36971
 H208 H 1.01234 0.53831 0.37004
 H209 H 0.97990 0.63852 0.46747
 H210 H 0.98055 0.63825 0.54010
 H211 H 1.01413 0.53723 0.63615
 H212 H 1.01320 0.46143 0.63590
 O213 O 0.54405 0.07522 0.57755
 O214 O 0.58131 0.03225 0.53717
 C215 C 0.57377 0.06211 0.56614
 O216 O 0.45676 -0.08002 0.57570
 O217 O 0.41914 -0.03616 0.53655
 C218 C 0.42698 -0.06703 0.56453
 O219 O 0.54866 -0.07949 0.57997
 O220 O 0.58369 -0.04179 0.53815
 C221 C 0.57777 -0.06928 0.56863
 O222 O 0.45218 0.08327 0.57417
 O223 O 0.41687 0.04226 0.53594
 C224 C 0.42306 0.07305 0.56334
 Zr225 Zr 0.49863 0.05518 0.55414
 O226 O 0.49505 0.05430 0.62189
 O227 O 0.50010 0.12543 0.55466
 Zr228 Zr 0.50191 -0.05738 0.55476
 O229 O 0.49819 -0.05777 0.62244
 O230 O 0.50788 -0.12797 0.55384
 O231 O 0.52953 -0.00239 0.56299
 O232 O 0.47162 0.00040 0.56216
 O233 O 0.45231 0.08204 0.42506
 O234 O 0.41693 0.04168 0.46372
 C235 C 0.42315 0.07203 0.43594
 O236 O 0.54875 -0.08044 0.42176
 O237 O 0.58373 -0.04226 0.46339
 C238 C 0.57781 -0.07001 0.43310
 O239 O 0.45681 -0.08121 0.42554
 O240 O 0.41913 -0.03678 0.46405
 C241 C 0.42697 -0.06806 0.43638
 O242 O 0.54418 0.07361 0.42214
 O243 O 0.58137 0.03144 0.46335
 C244 C 0.57385 0.06065 0.43387
 Zr245 Zr 0.49871 0.05427 0.44574
 O246 O 0.49525 0.05249 0.37799
 O247 O 0.50024 0.12449 0.44446
 Zr248 Zr 0.50195 -0.05833 0.44665
 O249 O 0.49845 -0.06041 0.37899
 O250 O 0.50795 -0.12888 0.44899
 Zr251 Zr 0.54912 -0.00384 0.50045
 Zr252 Zr 0.45106 0.00101 0.50017
 O253 O 0.47174 -0.00066 0.43830
 O254 O 0.52958 -0.00347 0.43782
 O255 O 0.46910 0.06497 0.49982
 O256 O 0.53084 -0.06742 0.50080
 O257 O 0.52682 0.06159 0.49993
 O258 O 0.47271 -0.06503 0.50070
 H259 H 0.45683 0.00138 0.58737
 H260 H 0.54674 -0.09401 0.50099
 H261 H 0.45701 -0.00007 0.41301
 H262 H 0.54068 0.08727 0.49977
 H263 H 0.48910 -0.13878 0.53786
 H264 H 0.48875 -0.13941 0.46421
 H265 H 0.51405 -0.03982 0.36748
 H266 H 0.51535 0.03588 0.36699
 H267 H 0.48227 0.13731 0.46298
 H268 H 0.48235 0.13791 0.53561
 H269 H 0.51525 0.03815 0.63314
 H270 H 0.51435 -0.03779 0.63367
 O271 O 0.54413 0.57260 0.07741
 O272 O 0.58127 0.53076 0.03583
 C273 C 0.57379 0.55984 0.06550
 O274 O 0.45714 0.41742 0.07361
 O275 O 0.41924 0.46180 0.03545
 C276 C 0.42725 0.43051 0.06298
 O277 O 0.54907 0.41858 0.07699
 O278 O 0.58381 0.45705 0.03541
 C279 C 0.57805 0.42919 0.06560
 O280 O 0.45225 0.58059 0.07492
 O281 O 0.41684 0.54021 0.03619
 C282 C 0.42308 0.57051 0.06410
 Zr283 Zr 0.49863 0.55310 0.05390
 O284 O 0.49543 0.55103 0.12165
 O285 O 0.49998 0.62335 0.05554
 Zr286 Zr 0.50216 0.44048 0.05235
 O287 O 0.49894 0.43792 0.12001
 O288 O 0.50832 0.36995 0.04947
 O289 O 0.52966 0.49547 0.06139
 O290 O 0.47184 0.49800 0.06115
 O291 O 0.45162 0.58249 -0.07398
 O292 O 0.41656 0.54103 -0.03595
 C293 C 0.42258 0.57206 -0.06306
 O294 O 0.54844 0.42001 -0.08118
 O295 O 0.58349 0.45777 -0.03932
 C296 C 0.57754 0.43033 -0.06989
 O297 O 0.45655 0.41902 -0.07666
 O298 O 0.41897 0.46252 -0.03710
 C299 C 0.42676 0.43179 -0.06531
 O300 O 0.54345 0.57483 -0.07796
 O301 O 0.58096 0.53186 -0.03799
 C302 C 0.57324 0.56183 -0.06675
 Zr303 Zr 0.49818 0.55439 -0.05451
 O304 O 0.49434 0.55352 -0.12224
 O305 O 0.49947 0.62466 -0.05496
 Zr306 Zr 0.50171 0.44184 -0.05574
 O307 O 0.49777 0.44180 -0.12341
 O308 O 0.50784 0.37126 -0.05526
 Zr309 Zr 0.54898 0.49544 -0.00132
 Zr310 Zr 0.45094 0.49978 -0.00062
 O311 O 0.47126 0.49952 -0.06270
 O312 O 0.52918 0.49700 -0.06378
 O313 O 0.46883 0.56385 -0.00001
 O314 O 0.53087 0.43175 -0.00195
 O315 O 0.52652 0.56077 -0.00038
 O316 O 0.47274 0.43383 -0.00160
 H317 H 0.45722 0.49844 0.08652
 H318 H 0.54682 0.40523 -0.00232
 H319 H 0.45635 0.50055 -0.08782
 H320 H 0.54030 0.58652 -0.00013
 H321 H 0.48896 0.35940 0.03457
 H322 H 0.48922 0.36031 -0.03912
 H323 H 0.51393 0.46178 -0.13458
 H324 H 0.51465 0.53782 -0.13366
 H325 H 0.48209 0.63702 -0.03530
 H326 H 0.48187 0.63616 0.03725
 H327 H 0.51563 0.53454 0.13248
 H328 H 0.51427 0.45887 0.13159
 C329 C 1.20678 0.19324 0.17719
 C330 C 1.18819 0.17111 0.15803
 C331 C 1.16499 0.14615 0.13721
 C332 C 1.14424 0.12571 0.12033
 C333 C 1.11915 0.10283 0.10108
 C334 C 1.09731 0.08417 0.08453
 C335 C 1.20922 0.69171 0.67696
 C336 C 1.19076 0.66922 0.65820
 C337 C 1.16752 0.64400 0.63815
 C338 C 1.14654 0.62350 0.62210
 C339 C 1.12106 0.60081 0.60394
 C340 C 1.09883 0.58243 0.58825
 C341 C 0.70876 0.19477 0.67755
 C342 C 0.69052 0.17220 0.65823
 C343 C 0.66763 0.14668 0.63748
 C344 C 0.64705 0.12575 0.62081
 C345 C 0.62203 0.10238 0.60199
 C346 C 0.60014 0.08342 0.58591
 C347 C 0.70908 0.69095 0.17677
 C348 C 0.69080 0.66830 0.15780
 C349 C 0.66788 0.64285 0.13726
 C350 C 0.64724 0.62212 0.12065
 C351 C 0.62214 0.59915 0.10177
 C352 C 0.60018 0.58061 0.08553
 C353 C 0.79301 -0.19789 0.18105
 C354 C 0.81218 -0.17528 0.16352
 C355 C 0.83470 -0.14991 0.14171
 C356 C 0.85422 -0.12921 0.12257
 C357 C 0.87770 -0.10608 0.10009
 C358 C 0.89854 -0.08730 0.08143
 C359 C 0.79180 0.30100 0.68561
 C360 C 0.81168 0.32311 0.66873
 C361 C 0.83493 0.34810 0.64762
 C362 C 0.85492 0.36866 0.62905
 C363 C 0.87875 0.39189 0.60708
 C364 C 0.89966 0.41093 0.58868
 C365 C 0.29380 -0.19806 0.68213
 C366 C 0.31334 -0.17570 0.66512
 C367 C 0.33631 -0.15058 0.64402
 C368 C 0.35620 -0.13003 0.62547
 C369 C 0.38002 -0.10703 0.60362
 C370 C 0.40102 -0.08827 0.58533
 C371 C 0.29260 0.30216 0.18252
 C372 C 0.31262 0.32374 0.16526
 C373 C 0.33607 0.34801 0.14377
 C374 C 0.35625 0.36794 0.12490
 C375 C 0.38029 0.39050 0.10266
 C376 C 0.40133 0.40910 0.08408
 C377 C 0.78976 0.20575 -0.21156
 C378 C 0.80862 0.18777 -0.18604
 C379 C 0.83074 0.16467 -0.15748
 C380 C 0.85004 0.14387 -0.13440
 C381 C 0.87350 0.11889 -0.10906
 C382 C 0.89464 0.09768 -0.08911
 C383 C 0.79185 0.70177 0.29131
 C384 C 0.80976 0.68443 0.31816
 C385 C 0.83092 0.66223 0.34830
 C386 C 0.84962 0.64217 0.37258
 C387 C 0.87268 0.61797 0.39895
 C388 C 0.89375 0.59729 0.41934
 C389 C 0.29109 0.20160 0.29063
 C390 C 0.30986 0.18374 0.31630
 C391 C 0.33197 0.16111 0.34516
 C392 C 0.35133 0.14086 0.36855
 C393 C 0.37492 0.11658 0.39423
 C394 C 0.39618 0.09592 0.41441
 C395 C 0.29198 0.70195 -0.20855
 C396 C 0.31023 0.68444 -0.18221
 C397 C 0.33181 0.66199 -0.15279
 C398 C 0.35087 0.64169 -0.12918
 C399 C 0.37427 0.61720 -0.10362
 C400 C 0.39553 0.59626 -0.08383
 C401 C 1.21094 -0.19101 -0.21431
 C402 C 1.19466 -0.16883 -0.18890
 C403 C 1.17275 -0.14516 -0.16074
 C404 C 1.15216 -0.12653 -0.13810
 C405 C 1.12646 -0.10612 -0.11320
 C406 C 1.10365 -0.08923 -0.09308
 C407 C 1.20942 0.30932 0.28731
 C408 C 1.19313 0.33133 0.31296
 C409 C 1.17125 0.35493 0.34144
 C410 C 1.15081 0.37359 0.36442
 C411 C 1.12537 0.39418 0.38989
 C412 C 1.10283 0.41121 0.41057
 C413 C 0.71097 -0.19193 0.28592
 C414 C 0.69491 -0.16992 0.31173
 C415 C 0.67337 -0.14634 0.34048
 C416 C 0.65314 -0.12771 0.36368
 C417 C 0.62785 -0.10720 0.38925
 C418 C 0.60531 -0.09022 0.40987
 C419 C 0.71212 0.30797 -0.21573
 C420 C 0.69587 0.32988 -0.18995
 C421 C 0.67391 0.35349 -0.16155
 C422 C 0.65337 0.37225 -0.13877
 C423 C 0.62777 0.39297 -0.11363
 C424 C 0.60510 0.41009 -0.09322
 C425 C 1.20927 0.19346 -0.17581
 C426 C 1.19063 0.17110 -0.15717
 C427 C 1.16724 0.14595 -0.13724
 C428 C 1.14622 0.12541 -0.12127
 C429 C 1.12077 0.10250 -0.10319
 C430 C 1.09861 0.08385 -0.08758
 C431 C 1.20704 0.69255 0.32323
 C432 C 1.18852 0.67041 0.34247
 C433 C 1.16538 0.64543 0.36336
 C434 C 1.14467 0.62498 0.38029
 C435 C 1.11959 0.60211 0.39954
 C436 C 1.09771 0.58350 0.41604
 C437 C 0.70895 0.19152 0.32267
 C438 C 0.69070 0.16891 0.34163
 C439 C 0.66783 0.14349 0.36216
 C440 C 0.64723 0.12278 0.37876
 C441 C 0.62216 0.09985 0.39762
 C442 C 0.60022 0.08136 0.41384
 C443 C 0.70799 0.69503 -0.17805
 C444 C 0.68968 0.67254 -0.15878
 C445 C 0.66677 0.64702 -0.13807
 C446 C 0.64623 0.62604 -0.12143
 C447 C 0.62129 0.60252 -0.10260
 C448 C 0.59950 0.58339 -0.08652
 C449 C 0.79134 -0.19906 -0.18586
 C450 C 0.81134 -0.17705 -0.16898
 C451 C 0.83474 -0.15212 -0.14794
 C452 C 0.85482 -0.13157 -0.12943
 C453 C 0.87874 -0.10830 -0.10753
 C454 C 0.89968 -0.08919 -0.08915
 C455 C 0.79289 0.30255 0.31846
 C456 C 0.81208 0.32518 0.33597
 C457 C 0.83462 0.35055 0.35776
 C458 C 0.85417 0.37122 0.37690
 C459 C 0.87770 0.39430 0.39939
 C460 C 0.89858 0.41300 0.41808
 C461 C 0.29247 -0.19788 0.31741
 C462 C 0.31239 -0.17598 0.33460
 C463 C 0.33575 -0.15134 0.35600
 C464 C 0.35587 -0.13110 0.37478
 C465 C 0.37988 -0.10825 0.39692
 C466 C 0.40094 -0.08949 0.41540
 C467 C 0.29277 0.30159 -0.18382
 C468 C 0.31258 0.32361 -0.16668
 C469 C 0.33578 0.34842 -0.14537
 C470 C 0.35580 0.36878 -0.12667
 C471 C 0.37971 0.39171 -0.10463
 C472 C 0.40075 0.41047 -0.08622
 C473 C 1.20919 -0.19177 0.21280
 C474 C 1.19278 -0.16975 0.18727
 C475 C 1.17079 -0.14609 0.15893
 C476 C 1.15032 -0.12733 0.13605
 C477 C 1.12489 -0.10657 0.11064
 C478 C 1.10238 -0.08939 0.08996
 C479 C 1.21153 0.30976 0.71454
 C480 C 1.19522 0.33170 0.68893
 C481 C 1.17324 0.35515 0.66060
 C482 C 1.15262 0.37366 0.63786
 C483 C 1.12689 0.39402 0.61284
 C484 C 1.10407 0.41090 0.59264
 C485 C 0.71178 -0.19221 0.71501
 C486 C 0.69564 -0.17031 0.68911
 C487 C 0.67383 -0.14663 0.66055
 C488 C 0.65341 -0.12779 0.63764
 C489 C 0.62794 -0.10691 0.61236
 C490 C 0.60533 -0.08966 0.59189
 C491 C 0.71101 0.30817 0.21332
 C492 C 0.69507 0.33003 0.18734
 C493 C 0.67364 0.35345 0.15837
 C494 C 0.65348 0.37194 0.13502
 C495 C 0.62821 0.39230 0.10934
 C496 C 0.60564 0.40914 0.08872
 C497 C 0.79170 0.20194 0.20828
 C498 C 0.80957 0.18455 0.18143
 C499 C 0.83071 0.16230 0.15132
 C500 C 0.84940 0.14220 0.12708
 C501 C 0.87247 0.11795 0.10079
 C502 C 0.89356 0.09724 0.08048
 C503 C 0.78941 0.70538 0.71154
 C504 C 0.80835 0.68732 0.68616
 C505 C 0.83059 0.66421 0.65770
 C506 C 0.84996 0.64345 0.63467
 C507 C 0.87350 0.61855 0.60934
 C508 C 0.89468 0.59743 0.58936
 C509 C 0.29281 0.20294 0.71025
 C510 C 0.31112 0.18530 0.68397
 C511 C 0.33272 0.16277 0.65449
 C512 C 0.35171 0.14247 0.63071
 C513 C 0.37499 0.11803 0.60478
 C514 C 0.39612 0.09717 0.58460
 C515 C 0.29123 0.70060 0.20968
 C516 C 0.30999 0.68259 0.18405
 C517 C 0.33207 0.65977 0.15522
 C518 C 0.35138 0.63939 0.13183
 C519 C 0.37491 0.61501 0.10608
 C520 C 0.39613 0.59433 0.08580
   
