data_POSCAR
  _audit_creation_date              2014-09-24
  _audit_creation_method            'ToBaCCo'
  _symmetry_space_group_name_H-M    'P1'
  _symmetry_Int_Tables_number       1
  _symmetry_cell_setting            triclinic
  loop_
  _symmetry_equiv_pos_as_xyz
 x,y,z
_cell_length_a 36.5319
_cell_length_b 41.2455
_cell_length_c 21.5240
_cell_angle_alpha 89.975600
_cell_angle_beta 89.990700
_cell_angle_gamma 90.209200
loop_
  _atom_site_label
  _atom_site_type_symbol
  _atom_site_fract_x
  _atom_site_fract_y
  _atom_site_fract_z
C1 C 0.77825 0.18490 0.44438
 C2 C 0.78165 0.16924 0.50206
 C3 C 0.77795 0.18559 0.55900
 C4 C 0.76438 0.21796 0.55827
 C5 C 0.75695 0.23346 0.50048
 C6 C 0.76420 0.21706 0.44348
 C7 C 0.75500 0.23263 0.38746
 C8 C 0.74173 0.26404 0.38664
 C9 C 0.73441 0.28078 0.44189
 C10 C 0.74177 0.26540 0.49962
 C11 C 0.75603 0.23472 0.61334
 C12 C 0.74260 0.26614 0.61239
 C13 C 0.73377 0.28177 0.55637
 C14 C 0.71860 0.31367 0.55493
 C15 C 0.71433 0.32883 0.49685
 C16 C 0.72024 0.31262 0.44085
 H17 H 0.75666 0.22063 0.34309
 H18 H 0.73723 0.27492 0.34163
 H19 H 0.75866 0.22379 0.65857
 H20 H 0.74000 0.27786 0.65686
 H21 H 0.79219 0.14474 0.50266
 H22 H 0.70248 0.35285 0.49442
 C23 C 0.21511 0.81125 0.55727
 C24 C 0.20802 0.82651 0.50055
 C25 C 0.21564 0.81172 0.44363
 C26 C 0.23270 0.78094 0.44305
 C27 C 0.24105 0.76523 0.50017
 C28 C 0.23201 0.78036 0.55744
 C29 C 0.24030 0.76426 0.61307
 C30 C 0.25621 0.73369 0.61290
 C31 C 0.26659 0.71839 0.55713
 C32 C 0.25820 0.73423 0.49994
 C33 C 0.24207 0.76565 0.38706
 C34 C 0.25787 0.73509 0.38671
 C35 C 0.26650 0.71904 0.44236
 C36 C 0.28230 0.68783 0.44199
 C37 C 0.28881 0.67209 0.49832
 C38 C 0.28309 0.68704 0.55623
 H39 H 0.23453 0.77497 0.65778
 H40 H 0.25900 0.72214 0.65752
 H41 H 0.23744 0.77707 0.34260
 H42 H 0.26270 0.72411 0.34192
 H43 H 0.19417 0.84974 0.50065
 H44 H 0.30186 0.64854 0.49641
 C45 C 0.28133 0.31420 -0.55396
 C46 C 0.28547 0.32916 -0.49567
 C47 C 0.27944 0.31271 -0.43991
 C48 C 0.26529 0.28077 -0.44141
 C49 C 0.25801 0.26558 -0.49937
 C50 C 0.26608 0.28223 -0.55587
 C51 C 0.25725 0.26679 -0.61212
 C52 C 0.24384 0.23529 -0.61353
 C53 C 0.23548 0.21822 -0.55871
 C54 C 0.24284 0.23354 -0.50070
 C55 C 0.25795 0.26376 -0.38641
 C56 C 0.24469 0.23225 -0.38769
 C57 C 0.23552 0.21686 -0.44394
 C58 C 0.22140 0.18463 -0.44531
 C59 C 0.21816 0.16916 -0.50319
 C60 C 0.22198 0.18575 -0.55992
 H61 H 0.25983 0.27873 -0.65642
 H62 H 0.24121 0.22454 -0.65892
 H63 H 0.26241 0.27446 -0.34125
 H64 H 0.24304 0.22005 -0.34349
 H65 H 0.29734 0.35325 -0.49286
 H66 H 0.20764 0.14459 -0.50417
 C67 C -0.27706 0.68394 -0.44559
 C68 C -0.28024 0.66855 -0.50355
 C69 C -0.27693 0.68530 -0.56018
 C70 C -0.26397 0.71796 -0.55882
 C71 C -0.25663 0.73323 -0.50075
 C72 C -0.26342 0.71632 -0.44408
 C73 C -0.25424 0.73167 -0.38780
 C74 C -0.24157 0.76336 -0.38634
 C75 C -0.23478 0.78063 -0.44125
 C76 C -0.24204 0.76548 -0.49927
 C77 C -0.25615 0.73529 -0.61357
 C78 C -0.24332 0.76697 -0.61198
 C79 C -0.23451 0.78238 -0.55568
 C80 C -0.21977 0.81452 -0.55365
 C81 C -0.21570 0.82943 -0.49529
 C82 C -0.22121 0.81276 -0.43960
 H83 H -0.25544 0.71931 -0.34372
 H84 H -0.23711 0.77400 -0.34112
 H85 H -0.25875 0.72464 -0.65904
 H86 H -0.24119 0.77908 -0.65618
 H87 H -0.29035 0.64384 -0.50460
 H88 H -0.20425 0.85367 -0.49243
 N89 N 0.03936 1.03627 0.10767
 N90 N 0.06490 1.04195 0.14949
 N91 N -0.03798 1.05966 0.06850
 N92 N -0.06275 1.08182 0.08250
 N93 N -0.03767 1.03661 0.11063
 N94 N -0.06238 1.04218 0.15385
 N95 N 0.03885 1.05938 0.06569
 N96 N 0.06384 1.08170 0.07844
 C97 C 0.08017 1.07013 0.13043
 C98 C -0.07800 1.07024 0.13553
 N99 N -0.04045 1.03593 -0.10776
 N100 N -0.06584 1.04156 -0.14980
 N101 N 0.03719 1.05888 -0.06891
 N102 N 0.06209 1.08094 -0.08362
 N103 N 0.03658 1.03556 -0.11046
 N104 N 0.06120 1.04090 -0.15405
 N105 N -0.03963 1.05925 -0.06622
 N106 N -0.06424 1.08165 -0.07953
 Mn107 Mn -0.00040 1.05969 -0.00024
 C108 C -0.08067 1.06994 -0.13137
 C109 C 0.07712 1.06907 -0.13647
 N110 N -0.03840 0.96703 0.11167
 N111 N -0.06276 0.96148 0.15561
 N112 N 0.03756 0.94333 0.06714
 N113 N 0.06177 0.92064 0.08053
 N114 N 0.03867 0.96664 0.10865
 N115 N 0.06391 0.96068 0.15086
 N116 N -0.03919 0.94385 0.06987
 N117 N -0.06392 0.92168 0.08470
 Mn118 Mn 0.00051 1.00165 0.11012
 C119 C -0.07870 0.93334 0.13790
 C120 C 0.07834 0.93213 0.13237
 N121 N 0.03590 0.96583 -0.10947
 N122 N 0.06051 0.95976 -0.15273
 N123 N -0.04081 0.94336 -0.06451
 N124 N -0.06565 0.92093 -0.07712
 N125 N -0.04128 0.96631 -0.10680
 N126 N -0.06676 0.96041 -0.14872
 N127 N 0.03587 0.94290 -0.06713
 N128 N 0.06017 0.92036 -0.08091
 Mn129 Mn -0.00230 1.00091 -0.10913
 Mn130 Mn -0.00166 0.94302 0.00134
 Cl131 Cl -0.00096 1.00133 0.00051
 C132 C 0.07563 0.93152 -0.13399
 C133 C -0.08196 0.93224 -0.12927
 N134 N 0.46105 0.44233 -0.06550
 N135 N 0.43612 0.41996 -0.07798
 N136 N 0.53752 0.46492 -0.11066
 N137 N 0.56191 0.45905 -0.15427
 N138 N 0.53782 0.44193 -0.06843
 N139 N 0.56224 0.41953 -0.08273
 N140 N 0.46043 0.46538 -0.10760
 N141 N 0.43479 0.45959 -0.14929
 C142 C 0.41964 0.43140 -0.12989
 C143 C 0.57733 0.43089 -0.13604
 N144 N 0.53924 0.55773 -0.06985
 N145 N 0.56431 0.57966 -0.08441
 N146 N 0.46140 0.53501 -0.10859
 N147 N 0.43627 0.54088 -0.15094
 N148 N 0.46242 0.55838 -0.06719
 N149 N 0.43816 0.58103 -0.08083
 N150 N 0.53841 0.53450 -0.11155
 N151 N 0.56309 0.53975 -0.15510
 Mn152 Mn 0.49942 0.49995 -0.11006
 C153 C 0.57923 0.56778 -0.13732
 C154 C 0.42173 0.56942 -0.13277
 N155 N 0.53947 0.44238 0.06611
 N156 N 0.56398 0.41988 0.07911
 N157 N 0.46335 0.46603 0.11057
 N158 N 0.43904 0.46043 0.15456
 N159 N 0.46271 0.44278 0.06890
 N160 N 0.43809 0.42052 0.08389
 N161 N 0.54044 0.46562 0.10778
 N162 N 0.56594 0.45984 0.14965
 Mn163 Mn 0.50027 0.44199 0.00028
 C164 C 0.58060 0.43144 0.13085
 C165 C 0.42325 0.43219 0.13703
 N166 N 0.46413 0.55875 0.06722
 N167 N 0.43951 0.58108 0.08066
 N168 N 0.54117 0.53524 0.10688
 N169 N 0.56657 0.54098 0.14895
 N170 N 0.54087 0.55827 0.06472
 N171 N 0.56583 0.58059 0.07762
 N172 N 0.46406 0.53576 0.10947
 N173 N 0.43911 0.54157 0.15228
 Mn174 Mn 0.50169 0.55866 -0.00127
 Mn175 Mn 0.50225 0.50067 0.10918
 Cl176 Cl 0.50091 0.50032 -0.00046
 C177 C 0.42385 0.56973 0.13343
 C178 C 0.58195 0.56911 0.12985
 C179 C 0.33011 0.36441 0.30106
 N180 N 0.31702 0.38017 0.35154
 N181 N 0.30023 0.36397 0.39680
 C182 C 0.29551 0.33126 0.39382
 N183 N 0.30856 0.31563 0.34277
 N184 N 0.32540 0.33181 0.29725
 C185 C 0.35168 0.38231 0.25465
 N186 N 0.36574 0.36733 0.20377
 N187 N 0.38771 0.38342 0.16483
 C188 C 0.39646 0.41495 0.17567
 N189 N 0.38208 0.42993 0.22609
 N190 N 0.36005 0.41395 0.26473
 C191 C -0.17177 0.86529 0.30143
 N192 N -0.18493 0.88089 0.35202
 N193 N -0.20151 0.86452 0.39727
 C194 C -0.20591 0.83178 0.39415
 N195 N -0.19278 0.81631 0.34299
 N196 N -0.17617 0.83267 0.29748
 C197 C -0.15032 0.88333 0.25510
 N198 N -0.13629 0.86846 0.20409
 N199 N -0.11433 0.88461 0.16528
 C200 C -0.10554 0.91611 0.17638
 N201 N -0.11989 0.93099 0.22692
 N202 N -0.14193 0.91494 0.26544
 C203 C 0.67674 0.63678 0.29074
 N204 N 0.69220 0.62035 0.33841
 N205 N 0.70840 0.63611 0.38478
 C206 C 0.71010 0.66907 0.38578
 N207 N 0.69484 0.68542 0.33737
 N208 N 0.67858 0.66966 0.29073
 C209 C 0.65518 0.61904 0.24413
 N210 N 0.63885 0.63455 0.19582
 N211 N 0.61649 0.61847 0.15755
 C212 C 0.60955 0.58643 0.16660
 N213 N 0.62623 0.57095 0.21435
 N214 N 0.64870 0.58692 0.25222
 C215 C 0.17550 1.13742 0.29094
 N216 N 0.17769 1.17028 0.29078
 N217 N 0.19402 1.18597 0.33744
 C218 C 0.20899 1.16955 0.38603
 N219 N 0.20695 1.13661 0.38519
 N220 N 0.19069 1.12092 0.33878
 C221 C 0.15383 1.11979 0.24433
 N222 N 0.14728 1.08767 0.25234
 N223 N 0.12468 1.07180 0.21455
 C224 C 0.10793 1.08736 0.16699
 N225 N 0.11493 1.11940 0.15801
 N226 N 0.13744 1.13538 0.19619
 C227 C 0.67042 0.36327 -0.29929
 N228 N 0.67471 0.33064 -0.29600
 N229 N 0.69140 0.31463 -0.34177
 C230 C 0.70465 0.33049 -0.39255
 N231 N 0.70035 0.36322 -0.39498
 N232 N 0.68374 0.37923 -0.34947
 C233 C 0.64895 0.38105 -0.25279
 N234 N 0.64115 0.41277 -0.26252
 N235 N 0.61913 0.42870 -0.22407
 C236 C 0.60419 0.41360 -0.17414
 N237 N 0.61238 0.38196 -0.16357
 N238 N 0.63434 0.36592 -0.20236
 C239 C 0.16866 0.86127 -0.29296
 N240 N 0.16560 0.82850 -0.29657
 N241 N 0.18173 0.81226 -0.34254
 C242 C 0.20195 0.82811 -0.38610
 N243 N 0.20525 0.86085 -0.38185
 N244 N 0.18896 0.87709 -0.33624
 C245 C 0.14730 0.87978 -0.24745
 N246 N 0.14240 0.91210 -0.25561
 N247 N 0.12025 0.92869 -0.21831
 C248 C 0.10243 0.91363 -0.17110
 N249 N 0.10778 0.88140 -0.16210
 N250 N 0.12970 0.86472 -0.19985
 C251 C 0.32938 0.63762 -0.29610
 N252 N 0.31680 0.62165 -0.34677
 N253 N 0.30083 0.63764 -0.39295
 C254 C 0.29639 0.67034 -0.39069
 N255 N 0.30879 0.68624 -0.33937
 N256 N 0.32492 0.67025 -0.29296
 C257 C 0.35036 0.61979 -0.24905
 N258 N 0.36568 0.63500 -0.19936
 N259 N 0.38750 0.61880 -0.16053
 C260 C 0.39479 0.58692 -0.17032
 N261 N 0.37906 0.57174 -0.21941
 N262 N 0.35723 0.58783 -0.25791
 C263 C -0.17529 1.13714 -0.29250
 N264 N -0.19041 1.12067 -0.34056
 N265 N -0.20672 1.13638 -0.38678
 C266 C -0.20891 1.16931 -0.38721
 N267 N -0.19398 1.18568 -0.33844
 N268 N -0.17759 1.16998 -0.29197
 C269 C -0.15370 1.11953 -0.24592
 N270 N -0.13737 1.13512 -0.19762
 N271 N -0.11503 1.11917 -0.15931
 C272 C -0.10814 1.08716 -0.16830
 N273 N -0.12483 1.07160 -0.21603
 N274 N -0.14725 1.08744 -0.25397
 C275 C 0.67429 0.63422 -0.29994
 N276 N 0.68828 0.61816 -0.34937
 N277 N 0.70515 0.63417 -0.39480
 C278 C 0.70901 0.66699 -0.39301
 N279 N 0.69505 0.68291 -0.34298
 N280 N 0.67817 0.66691 -0.29730
 C281 C 0.65238 0.61657 -0.25367
 N282 N 0.63787 0.63190 -0.20356
 N283 N 0.61542 0.61615 -0.16495
 C284 C 0.60660 0.58460 -0.17540
 N285 N 0.62144 0.56925 -0.22503
 N286 N 0.64397 0.58491 -0.26332
 C287 C 0.17209 1.13540 -0.29960
 N288 N 0.18606 1.11920 -0.34889
 N289 N 0.20311 1.13507 -0.39432
 C290 C 0.20719 1.16787 -0.39270
 N291 N 0.19326 1.18394 -0.34282
 N292 N 0.17618 1.16809 -0.29713
 C293 C 0.15010 1.11787 -0.25324
 N294 N 0.13549 1.13328 -0.20329
 N295 N 0.11308 1.11755 -0.16455
 C296 C 0.10440 1.08594 -0.17470
 N297 N 0.11932 1.07053 -0.22418
 N298 N 0.14181 1.08616 -0.26259
 C299 C 0.32507 0.36175 -0.28779
 N300 N 0.32956 0.32926 -0.29401
 N301 N 0.31365 0.31331 -0.34066
 C302 C 0.29218 0.32912 -0.38231
 N303 N 0.28744 0.36157 -0.37547
 N304 N 0.30355 0.37757 -0.32918
 C305 C 0.34643 0.38010 -0.24188
 N306 N 0.35069 0.41262 -0.24852
 N307 N 0.37323 0.42906 -0.21144
 C308 C 0.39207 0.41367 -0.16593
 N309 N 0.38731 0.38124 -0.15834
 N310 N 0.36501 0.36471 -0.19591
 C311 C -0.17584 0.86206 -0.28754
 N312 N -0.17094 0.82963 -0.29396
 N313 N -0.18675 0.81358 -0.34059
 C314 C -0.20852 0.82923 -0.38201
 N315 N -0.21366 0.86163 -0.37497
 N316 N -0.19764 0.87772 -0.32872
 C317 C -0.15463 0.88055 -0.24162
 N318 N -0.15055 0.91308 -0.24833
 N319 N -0.12817 0.92965 -0.21116
 C320 C -0.10933 0.91437 -0.16549
 N321 N -0.11393 0.88194 -0.15785
 N322 N -0.13605 0.86528 -0.19550
 C323 C 0.32910 0.63871 0.29139
 N324 N 0.30837 0.62265 0.33377
 N325 N 0.29190 0.63861 0.37958
 C326 C 0.29547 0.67128 0.38496
 N327 N 0.31610 0.68736 0.34226
 N328 N 0.33239 0.67141 0.29608
 C329 C 0.35079 0.62050 0.24591
 N330 N 0.36872 0.63589 0.19905
 N331 N 0.39108 0.61952 0.16155
 C332 C 0.39655 0.58728 0.17007
 N333 N 0.37839 0.57188 0.21652
 N334 N 0.35579 0.58816 0.25355
 C335 C -0.17302 1.13631 0.29785
 N336 N -0.18719 1.11991 0.34685
 N337 N -0.20406 1.13558 0.39254
 C338 C -0.20776 1.16839 0.39147
 N339 N -0.19365 1.18468 0.34185
 N340 N -0.17674 1.16902 0.29590
 C341 C -0.15111 1.11892 0.25140
 N342 N -0.13600 1.13449 0.20191
 N343 N -0.11357 1.11882 0.16332
 C344 C -0.10538 1.08713 0.17321
 N345 N -0.12083 1.07159 0.22219
 N346 N -0.14333 1.08714 0.26042
 C347 C 0.67444 0.36184 0.28934
 N348 N 0.66996 0.32930 0.29527
 N349 N 0.68588 0.31332 0.34175
 C350 C 0.70737 0.32915 0.38352
 N351 N 0.71210 0.36166 0.37700
 N352 N 0.69596 0.37768 0.33087
 C353 C 0.65317 0.38018 0.24344
 N354 N 0.64915 0.41269 0.24999
 N355 N 0.62679 0.42912 0.21277
 C356 C 0.60789 0.41370 0.16722
 N357 N 0.61241 0.38128 0.15975
 N358 N 0.63453 0.36477 0.19744
 C359 C 0.17038 0.86191 0.29290
 N360 N 0.16747 0.82913 0.29628
 N361 N 0.18315 0.81289 0.34270
 C362 C 0.20273 0.82876 0.38702
 N363 N 0.20585 0.86152 0.38312
 N364 N 0.19001 0.87776 0.33700
 C365 C 0.14952 0.88037 0.24665
 N366 N 0.14519 0.91281 0.25382
 N367 N 0.12331 0.92939 0.21605
 C368 C 0.10519 0.91421 0.16933
 N369 N 0.11000 0.88185 0.16127
 N370 N 0.13168 0.86519 0.19946
   
