data_POSCAR
  _audit_creation_date              2014-09-24
  _audit_creation_method            'ToBaCCo'
  _symmetry_space_group_name_H-M    'P1'
  _symmetry_Int_Tables_number       1
  _symmetry_cell_setting            triclinic
  loop_
  _symmetry_equiv_pos_as_xyz
 x,y,z
_cell_length_a 54.3255
_cell_length_b 55.2697
_cell_length_c 54.6278
_cell_angle_alpha 90.259900
_cell_angle_beta 91.297200
_cell_angle_gamma 90.906200
loop_
  _atom_site_label
  _atom_site_type_symbol
  _atom_site_fract_x
  _atom_site_fract_y
  _atom_site_fract_z
N1 N 0.28583 0.24491 0.22013
 N2 N 0.27595 0.26452 0.21093
 C3 C 0.28978 0.27247 0.19236
 C4 C 0.30934 0.25695 0.18968
 C5 C 0.30617 0.23965 0.20766
 H6 H 0.28575 0.28821 0.18140
 H7 H 0.31791 0.22448 0.21159
 Cu8 Cu 0.24589 0.27776 0.22395
 Cu9 Cu 0.27174 0.22773 0.24770
 Cu10 Cu 0.21911 0.25160 0.27227
 N11 N 0.21667 0.29123 0.23850
 N12 N 0.20649 0.28098 0.25750
 C13 C 0.18709 0.29405 0.26428
 C14 C 0.18487 0.31360 0.24867
 C15 C 0.20396 0.31118 0.23247
 H16 H 0.17540 0.28955 0.27939
 H17 H 0.20853 0.32330 0.21772
 N18 N 0.23454 0.22200 0.28476
 N19 N 0.25472 0.21298 0.27561
 C20 C 0.26086 0.19305 0.28836
 C21 C 0.24365 0.18929 0.30634
 C22 C 0.22725 0.20802 0.30345
 H23 H 0.27660 0.18199 0.28472
 H24 H 0.21139 0.21146 0.31445
 H25 H 0.23593 0.23833 0.24144
 H26 H 0.25535 0.25767 0.26261
 N27 N 0.71522 -0.23839 0.21839
 N28 N 0.71824 -0.26146 0.21373
 C29 C 0.70212 -0.26865 0.19604
 C30 C 0.68809 -0.24894 0.18894
 C31 C 0.69714 -0.22998 0.20363
 H32 H 0.70107 -0.28685 0.18877
 H33 H 0.69114 -0.21143 0.20379
 Cu34 Cu 0.74365 -0.27976 0.23042
 Cu35 Cu 0.73555 -0.22121 0.24302
 Cu36 Cu 0.76793 -0.25841 0.28306
 N37 N 0.77315 -0.29358 0.24495
 N38 N 0.78237 -0.28574 0.26600
 C39 C 0.80214 -0.29901 0.27215
 C40 C 0.80575 -0.31600 0.25371
 C41 C 0.78680 -0.31185 0.23678
 H42 H 0.81318 -0.29605 0.28863
 H43 H 0.78293 -0.32138 0.21978
 N44 N 0.76017 -0.22459 0.29084
 N45 N 0.74934 -0.21001 0.27498
 C46 C 0.74792 -0.18782 0.28509
 C47 C 0.75809 -0.18858 0.30853
 C48 C 0.76560 -0.21219 0.31159
 H49 H 0.73938 -0.17245 0.27639
 H50 H 0.77476 -0.21968 0.32756
 H51 H 0.76471 -0.24475 0.24909
 H52 H 0.73469 -0.25167 0.26363
 N53 N 0.69904 0.24330 0.77371
 N54 N 0.70733 0.26520 0.77903
 C55 C 0.69378 0.27459 0.79697
 C56 C 0.67600 0.25763 0.80336
 C57 C 0.67992 0.23800 0.78810
 H58 H 0.69725 0.29213 0.80531
 H59 H 0.66990 0.22095 0.78767
 Cu60 Cu 0.73607 0.27896 0.76342
 Cu61 Cu 0.71436 0.22297 0.74929
 Cu62 Cu 0.77189 0.24198 0.73105
 N63 N 0.76997 0.28746 0.75636
 N64 N 0.78439 0.27229 0.74523
 C65 C 0.80709 0.28223 0.74390
 C66 C 0.80686 0.30516 0.75445
 C67 C 0.78283 0.30778 0.76211
 H68 H 0.82228 0.27373 0.73498
 H69 H 0.77527 0.32301 0.77169
 N70 N 0.75567 0.21215 0.71846
 N71 N 0.73345 0.20516 0.72500
 C72 C 0.72666 0.18530 0.71202
 C73 C 0.74552 0.17945 0.69647
 C74 C 0.76362 0.19691 0.70116
 H75 H 0.70912 0.17600 0.71355
 H76 H 0.78091 0.19897 0.69194
 H77 H 0.74831 0.23720 0.75995
 H78 H 0.73448 0.24905 0.73063
 N79 N 0.28111 -0.23981 0.77305
 N80 N 0.27043 -0.25928 0.78188
 C81 C 0.28508 -0.26877 0.79941
 C82 C 0.30608 -0.25434 0.80193
 C83 C 0.30286 -0.23606 0.78488
 H84 H 0.28043 -0.28463 0.80997
 H85 H 0.31533 -0.22111 0.78132
 Cu86 Cu 0.23787 -0.26986 0.77062
 Cu87 Cu 0.26529 -0.22051 0.74755
 Cu88 Cu 0.21622 -0.24908 0.71677
 N89 N 0.21097 -0.28611 0.75302
 N90 N 0.20292 -0.27832 0.73168
 C91 C 0.18453 -0.29302 0.72346
 C92 C 0.18070 -0.31112 0.74065
 C93 C 0.19800 -0.30600 0.75919
 H94 H 0.17455 -0.29037 0.70639
 H95 H 0.20119 -0.31594 0.77590
 N96 N 0.23215 -0.21914 0.70497
 N97 N 0.25074 -0.20821 0.71669
 C98 C 0.25714 -0.18814 0.70429
 C99 C 0.24167 -0.18619 0.68391
 C100 C 0.22609 -0.20620 0.68498
 H101 H 0.27171 -0.17563 0.70993
 H102 H 0.21141 -0.21099 0.67209
 H103 H 0.22872 -0.23242 0.74830
 H104 H 0.25123 -0.25189 0.73257
 N105 N 0.71820 -0.23708 0.77931
 N106 N 0.72232 -0.25982 0.78464
 C107 C 0.70717 -0.26683 0.80252
 C108 C 0.69274 -0.24737 0.80879
 C109 C 0.70029 -0.22880 0.79359
 H110 H 0.70706 -0.28464 0.81062
 H111 H 0.69328 -0.21063 0.79284
 Cu112 Cu 0.74749 -0.27813 0.76837
 Cu113 Cu 0.73628 -0.22000 0.75425
 Cu114 Cu 0.78838 -0.24782 0.73383
 N115 N 0.77897 -0.29172 0.76005
 N116 N 0.79556 -0.27923 0.74811
 C117 C 0.81592 -0.29256 0.74603
 C118 C 0.81177 -0.31489 0.75692
 C119 C 0.78798 -0.31361 0.76558
 H120 H 0.83209 -0.28673 0.73637
 H121 H 0.77807 -0.32725 0.77569
 N122 N 0.77737 -0.21627 0.72140
 N123 N 0.75719 -0.20590 0.72898
 C124 C 0.75313 -0.18590 0.71567
 C125 C 0.77159 -0.18353 0.69875
 C126 C 0.78672 -0.20308 0.70303
 H127 H 0.73748 -0.17429 0.71772
 H128 H 0.80259 -0.20806 0.69266
 H129 H 0.75041 -0.24931 0.73509
 H130 H 0.76765 -0.23918 0.76367
 N131 N 0.28283 0.23572 0.78024
 N132 N 0.27280 0.25407 0.79142
 C133 C 0.28565 0.25887 0.81231
 C134 C 0.30466 0.24253 0.81437
 C135 C 0.30225 0.22811 0.79366
 H136 H 0.28139 0.27305 0.82516
 H137 H 0.31400 0.21343 0.78848
 Cu138 Cu 0.24386 0.26971 0.77757
 Cu139 Cu 0.27037 0.22325 0.74896
 Cu140 Cu 0.21961 0.25151 0.72316
 N141 N 0.21565 0.28567 0.76262
 N142 N 0.20636 0.27857 0.74132
 C143 C 0.18711 0.29253 0.73527
 C144 C 0.18405 0.30931 0.75383
 C145 C 0.20255 0.30439 0.77088
 H146 H 0.17595 0.29036 0.71876
 H147 H 0.20630 0.31383 0.78796
 N148 N 0.23570 0.22384 0.70768
 N149 N 0.25515 0.21324 0.71745
 C150 C 0.26181 0.19502 0.70272
 C151 C 0.24574 0.19397 0.68272
 C152 C 0.22940 0.21252 0.68651
 H153 H 0.27692 0.18303 0.70652
 H154 H 0.21410 0.21744 0.67467
 H155 H 0.25509 0.25537 0.73715
 H156 H 0.23426 0.23364 0.75307
 N157 N 0.29414 -0.23715 0.21590
 N158 N 0.28531 -0.25826 0.20845
 C159 C 0.29748 -0.26525 0.18846
 C160 C 0.31481 -0.24745 0.18307
 C161 C 0.31211 -0.22995 0.20097
 H162 H 0.29366 -0.28181 0.17837
 H163 H 0.32252 -0.21322 0.20310
 Cu164 Cu 0.25830 -0.27429 0.22508
 Cu165 Cu 0.28169 -0.22037 0.24419
 Cu166 Cu 0.22734 -0.24249 0.26718
 N167 N 0.22576 -0.28426 0.23570
 N168 N 0.21319 -0.27103 0.25094
 C169 C 0.19107 -0.28163 0.25432
 C170 C 0.18985 -0.30279 0.24076
 C171 C 0.21221 -0.30398 0.22922
 H172 H 0.17722 -0.27492 0.26642
 H173 H 0.21804 -0.31800 0.21685
 N174 N 0.24496 -0.21408 0.28121
 N175 N 0.26603 -0.20599 0.27267
 C176 C 0.27423 -0.18730 0.28661
 C177 C 0.25752 -0.18337 0.30489
 C178 C 0.23913 -0.20068 0.30085
 H179 H 0.29114 -0.17729 0.28365
 H180 H 0.22306 -0.20374 0.31178
 H181 H 0.26405 -0.24918 0.26153
 H182 H 0.24645 -0.23372 0.23620
 N183 N 0.70789 0.24674 0.23441
 N184 N 0.72096 0.26272 0.22229
 C185 C 0.70853 0.26861 0.20159
 C186 C 0.68640 0.25588 0.20100
 C187 C 0.68656 0.24225 0.22211
 H188 H 0.71478 0.28152 0.18817
 H189 H 0.67246 0.22956 0.22775
 Cu190 Cu 0.75204 0.27537 0.23582
 Cu191 Cu 0.72025 0.23138 0.26408
 Cu192 Cu 0.77671 0.25191 0.28736
 N193 N 0.78308 0.28763 0.24983
 N194 N 0.79245 0.27856 0.27012
 C195 C 0.81297 0.29118 0.27663
 C196 C 0.81671 0.30925 0.25954
 C197 C 0.79735 0.30636 0.24275
 H198 H 0.82410 0.28766 0.29283
 H199 H 0.79344 0.31762 0.22706
 N200 N 0.75782 0.22520 0.30216
 N201 N 0.73602 0.21788 0.29366
 C202 C 0.72802 0.19924 0.30729
 C203 C 0.74566 0.19446 0.32520
 C204 C 0.76430 0.21132 0.32140
 H205 H 0.71104 0.18924 0.30383
 H206 H 0.78142 0.21320 0.33174
 H207 H 0.74143 0.26063 0.27631
 H208 H 0.75723 0.23738 0.25764
 O209 O 0.23692 0.02596 0.47214
 O210 O 0.23671 -0.01933 0.52158
 O211 O 0.23787 0.02784 0.51971
 O212 O 0.23449 -0.02106 0.47403
 O213 O 0.27505 -0.02204 0.47359
 O214 O 0.27845 0.02704 0.51951
 O215 O 0.27729 -0.01999 0.52128
 O216 O 0.27748 0.02494 0.47184
 Cu217 Cu 0.23244 0.00345 0.49692
 Cu218 Cu 0.28114 0.00239 0.49653
 C219 C 0.25729 0.03317 0.46350
 C220 C 0.25702 -0.02741 0.52988
 C221 C 0.25866 0.03587 0.52742
 C222 C 0.25414 -0.02991 0.46593
 O223 O 0.78167 0.01915 0.52662
 O224 O 0.77962 -0.02730 0.47775
 O225 O 0.78115 0.01993 0.47904
 O226 O 0.78080 -0.02790 0.52568
 O227 O 0.74024 -0.02698 0.52607
 O228 O 0.74055 0.01980 0.47836
 O229 O 0.73901 -0.02771 0.47859
 O230 O 0.74107 0.01978 0.52601
 Cu231 Cu 0.78488 -0.00411 0.50221
 Cu232 Cu 0.73614 -0.00374 0.50209
 C233 C 0.76167 0.02741 0.53468
 C234 C 0.75891 -0.03567 0.47011
 C235 C 0.76092 0.02817 0.47082
 C236 C 0.76047 -0.03538 0.53413
 O237 O 0.47777 0.22878 0.02839
 O238 O 0.52160 0.22943 -0.02179
 O239 O 0.52574 0.22912 0.02563
 O240 O 0.47402 0.23029 -0.01922
 O241 O 0.47533 0.27020 -0.01851
 O242 O 0.52561 0.26904 0.02752
 O243 O 0.52322 0.26931 -0.02051
 O244 O 0.47781 0.26869 0.02891
 Cu245 Cu 0.49969 0.22541 0.00321
 Cu246 Cu 0.50067 0.27332 0.00445
 C247 C 0.47005 0.24854 0.03710
 C248 C 0.52995 0.24938 -0.02978
 C249 C 0.53432 0.24894 0.03437
 C250 C 0.46592 0.25050 -0.02662
 O251 O 0.52274 0.71951 0.01709
 O252 O 0.47615 0.72280 -0.03314
 O253 O 0.52398 0.72027 -0.03052
 O254 O 0.47479 0.71995 0.01437
 O255 O 0.47652 0.75981 0.01626
 O256 O 0.52612 0.76013 -0.02881
 O257 O 0.47840 0.76265 -0.03129
 O258 O 0.52439 0.75938 0.01881
 Cu259 Cu 0.49923 0.71665 -0.00823
 Cu260 Cu 0.50154 0.76447 -0.00607
 C261 C 0.53151 0.73897 0.02655
 C262 C 0.46938 0.74340 -0.04083
 C263 C 0.53350 0.74015 -0.03740
 C264 C 0.46719 0.73974 0.02303
 O265 O 0.02362 0.48390 0.22505
 O266 O -0.02415 0.53003 0.23159
 O267 O 0.02357 0.53102 0.22847
 O268 O -0.02424 0.48310 0.22740
 O269 O -0.02153 0.48059 0.26766
 O270 O 0.02788 0.52706 0.26854
 O271 O -0.02011 0.52779 0.27178
 O272 O 0.02604 0.48034 0.26523
 Cu273 Cu -0.00063 0.50733 0.22410
 Cu274 Cu 0.00332 0.50373 0.27234
 C275 C 0.03288 0.47409 0.24407
 C276 C -0.03020 0.53691 0.25283
 C277 C 0.03413 0.53697 0.24863
 C278 C -0.03110 0.47364 0.24732
 O279 O 0.01797 0.51975 0.73451
 O280 O -0.03231 0.47437 0.73533
 O281 O -0.02972 0.52091 0.73790
 O282 O 0.01562 0.47252 0.73195
 O283 O 0.01944 0.47058 0.77217
 O284 O -0.02535 0.51935 0.77817
 O285 O -0.02820 0.47189 0.77556
 O286 O 0.02203 0.51738 0.77470
 Cu287 Cu -0.00741 0.49703 0.73086
 Cu288 Cu -0.00272 0.49454 0.77920
 C289 C 0.02853 0.52643 0.75446
 C290 C -0.03888 0.46548 0.75559
 C291 C -0.03512 0.52846 0.75906
 C292 C 0.02534 0.46331 0.75105
 C293 C 0.33374 0.28007 0.15875
 C294 C 0.35227 0.28136 0.14142
 C295 C 0.36643 0.26111 0.13632
 C296 C 0.36199 0.23946 0.14898
 C297 C 0.34357 0.23816 0.16642
 C298 C 0.32914 0.25843 0.17144
 N299 N 0.38497 0.26294 0.11813
 N300 N 0.39742 0.24478 0.11163
 C301 C 0.41589 0.24636 0.09337
 C302 C 0.42739 0.22519 0.08594
 C303 C 0.44508 0.22591 0.06777
 C304 C 0.45172 0.24796 0.05678
 C305 C 0.44037 0.26929 0.06451
 C306 C 0.42254 0.26851 0.08260
 H307 H 0.32319 0.29610 0.16229
 H308 H 0.35554 0.29818 0.13183
 H309 H 0.37269 0.22352 0.14538
 H310 H 0.34045 0.22116 0.17567
 H311 H 0.42245 0.20803 0.09412
 H312 H 0.45351 0.20916 0.06229
 H313 H 0.44505 0.28655 0.05639
 H314 H 0.41393 0.28515 0.08809
 C315 C 0.65713 0.77335 0.16490
 C316 C 0.63859 0.77383 0.14671
 C317 C 0.63153 0.75272 0.13404
 C318 C 0.64322 0.73096 0.13978
 C319 C 0.66181 0.73041 0.15787
 C320 C 0.66917 0.75162 0.17076
 N321 N 0.61268 0.75393 0.11531
 N322 N 0.60483 0.73524 0.10366
 C323 C 0.58623 0.73653 0.08469
 C324 C 0.57783 0.71515 0.07323
 C325 C 0.55993 0.71582 0.05443
 C326 C 0.55020 0.73802 0.04669
 C327 C 0.55865 0.75946 0.05831
 C328 C 0.57646 0.75873 0.07714
 H329 H 0.66196 0.79017 0.17412
 H330 H 0.62972 0.79075 0.14243
 H331 H 0.63809 0.71437 0.13022
 H332 H 0.67023 0.71319 0.16157
 H333 H 0.58523 0.69791 0.07886
 H334 H 0.55384 0.69900 0.04585
 H335 H 0.55153 0.77685 0.05284
 H336 H 0.58266 0.77553 0.08569
 C337 C 0.65286 0.28205 -0.16603
 C338 C 0.63618 0.28369 -0.14696
 C339 C 0.62425 0.26294 -0.13827
 C340 C 0.62898 0.24043 -0.14913
 C341 C 0.64556 0.23877 -0.16823
 C342 C 0.65783 0.25954 -0.17684
 N343 N 0.60763 0.26508 -0.11837
 N344 N 0.59716 0.24658 -0.10919
 C345 C 0.58052 0.24803 -0.08928
 C346 C 0.57045 0.22656 -0.08018
 C347 C 0.55415 0.22705 -0.06081
 C348 C 0.54753 0.24916 -0.05014
 C349 C 0.55769 0.27078 -0.05930
 C350 C 0.57410 0.27024 -0.07872
 H351 H 0.66175 0.29847 -0.17230
 H352 H 0.63266 0.30116 -0.13882
 H353 H 0.61998 0.22408 -0.14278
 H354 H 0.64899 0.22111 -0.17592
 H355 H 0.57527 0.20935 -0.08816
 H356 H 0.54667 0.21006 -0.05426
 H357 H 0.55295 0.28810 -0.05150
 H358 H 0.58168 0.28709 -0.08548
 C359 C 0.33048 0.72031 -0.16859
 C360 C 0.34939 0.71769 -0.15106
 C361 C 0.36479 0.73733 -0.14465
 C362 C 0.36137 0.75966 -0.15638
 C363 C 0.34257 0.76226 -0.17405
 C364 C 0.32674 0.74268 -0.18018
 N365 N 0.38336 0.73425 -0.12592
 N366 N 0.39668 0.75186 -0.11795
 C367 C 0.41507 0.74907 -0.09901
 C368 C 0.42770 0.76965 -0.09016
 C369 C 0.44535 0.76778 -0.07130
 C370 C 0.45083 0.74515 -0.06102
 C371 C 0.43830 0.72442 -0.07012
 C372 C 0.42050 0.72635 -0.08892
 H373 H 0.31886 0.70477 -0.17305
 H374 H 0.35188 0.70038 -0.14223
 H375 H 0.37308 0.77512 -0.15177
 H376 H 0.34015 0.77977 -0.18248
 H377 H 0.42368 0.78724 -0.09778
 H378 H 0.45470 0.78410 -0.06479
 H379 H 0.44209 0.70674 -0.06259
 H380 H 0.41098 0.71016 -0.09550
 C381 C 0.15316 0.33698 0.27101
 C382 C 0.13563 0.35514 0.27194
 C383 C 0.13076 0.36953 0.25148
 C384 C 0.14382 0.36569 0.22993
 C385 C 0.16153 0.34759 0.22901
 C386 C 0.16633 0.33297 0.24953
 N387 N 0.11257 0.38788 0.25326
 N388 N 0.10581 0.40081 0.23517
 C389 C 0.08761 0.41911 0.23767
 C390 C 0.07945 0.43168 0.21691
 C391 C 0.06159 0.44953 0.21886
 C392 C 0.05173 0.45520 0.24174
 C393 C 0.06007 0.44260 0.26255
 C394 C 0.07778 0.42470 0.26055
 H395 H 0.15655 0.32630 0.28725
 H396 H 0.12575 0.35801 0.28868
 H397 H 0.14037 0.37664 0.21387
 H398 H 0.17121 0.34489 0.21214
 H399 H 0.08689 0.42757 0.19917
 H400 H 0.05558 0.45895 0.20250
 H401 H 0.05285 0.44648 0.28044
 H402 H 0.08380 0.41530 0.27691
 C403 C 0.14721 0.66654 0.71906
 C404 C 0.12956 0.64784 0.71833
 C405 C 0.12715 0.63212 0.73811
 C406 C 0.14287 0.63509 0.75868
 C407 C 0.16064 0.65365 0.75944
 C408 C 0.16305 0.66984 0.73969
 N409 N 0.10851 0.61350 0.73699
 N410 N 0.10428 0.59980 0.75513
 C411 C 0.08561 0.58122 0.75430
 C412 C 0.08071 0.56832 0.77565
 C413 C 0.06225 0.55044 0.77570
 C414 C 0.04844 0.54502 0.75423
 C415 C 0.05362 0.55780 0.73269
 C416 C 0.07199 0.57581 0.73273
 H417 H 0.14827 0.67825 0.70332
 H418 H 0.11756 0.64571 0.70233
 H419 H 0.14142 0.62311 0.77422
 H420 H 0.17221 0.65524 0.77574
 H421 H 0.09111 0.57231 0.79237
 H422 H 0.05877 0.54089 0.79257
 H423 H 0.04329 0.55407 0.71587
 H424 H 0.07550 0.58552 0.71596
 C425 C -0.17367 0.65181 0.23123
 C426 C -0.15511 0.63474 0.22959
 C427 C -0.13810 0.63175 0.24883
 C428 C -0.13972 0.64622 0.26990
 C429 C -0.15818 0.66353 0.27154
 C430 C -0.17554 0.66660 0.25222
 N431 N -0.11939 0.61400 0.24630
 N432 N -0.10446 0.60860 0.26365
 C433 C -0.08581 0.59085 0.26054
 C434 C -0.07172 0.58360 0.28089
 C435 C -0.05365 0.56605 0.27846
 C436 C -0.04920 0.55561 0.25548
 C437 C -0.06322 0.56312 0.23501
 C438 C -0.08141 0.58050 0.23752
 H439 H -0.18629 0.65335 0.21577
 H440 H -0.15400 0.62370 0.21323
 H441 H -0.12669 0.64426 0.28502
 H442 H -0.15875 0.67428 0.28809
 H443 H -0.07489 0.59146 0.29872
 H444 H -0.04312 0.56071 0.29456
 H445 H -0.06028 0.55542 0.21707
 H446 H -0.09199 0.58585 0.22147
 C447 C -0.14913 0.31526 0.75192
 C448 C -0.12976 0.33219 0.75362
 C449 C -0.13438 0.35643 0.75889
 C450 C -0.15854 0.36351 0.76340
 C451 C -0.17786 0.34649 0.76255
 C452 C -0.17354 0.32213 0.75638
 N453 N -0.11437 0.37357 0.75943
 N454 N -0.11767 0.39575 0.75437
 C455 C -0.09787 0.41312 0.75525
 C456 C -0.09919 0.43350 0.74021
 C457 C -0.07981 0.45042 0.74013
 C458 C -0.05924 0.44762 0.75581
 C459 C -0.05823 0.42754 0.77144
 C460 C -0.07726 0.41018 0.77090
 H461 H -0.14474 0.29675 0.74754
 H462 H -0.11115 0.32650 0.75025
 H463 H -0.16244 0.38218 0.76774
 H464 H -0.19622 0.35277 0.76599
 H465 H -0.11504 0.43599 0.72816
 H466 H -0.08102 0.46588 0.72806
 H467 H -0.04249 0.42505 0.78364
 H468 H -0.07605 0.39464 0.78283
 C469 C 0.22122 0.16462 0.33747
 C470 C 0.22068 0.14661 0.35533
 C471 C 0.24184 0.13355 0.36113
 C472 C 0.26364 0.13850 0.34858
 C473 C 0.26418 0.15643 0.33059
 C474 C 0.24301 0.16981 0.32494
 N475 N 0.24071 0.11559 0.37993
 N476 N 0.25957 0.10400 0.38713
 C477 C 0.25843 0.08616 0.40603
 C478 C 0.28018 0.07513 0.41392
 C479 C 0.27983 0.05791 0.43258
 C480 C 0.25758 0.05131 0.44362
 C481 C 0.23570 0.06229 0.43553
 C482 C 0.23611 0.07961 0.41693
 H483 H 0.20449 0.17432 0.33342
 H484 H 0.20375 0.14291 0.36481
 H485 H 0.28026 0.12862 0.35273
 H486 H 0.28130 0.16004 0.32145
 H487 H 0.29749 0.08001 0.40567
 H488 H 0.29700 0.04977 0.43833
 H489 H 0.21827 0.05762 0.44365
 H490 H 0.21902 0.08786 0.41113
 C491 C 0.72375 0.14774 0.67050
 C492 C 0.72383 0.12987 0.65231
 C493 C 0.74576 0.12367 0.64109
 C494 C 0.76781 0.13547 0.64843
 C495 C 0.76777 0.15341 0.66658
 C496 C 0.74570 0.15987 0.67776
 N497 N 0.74500 0.10564 0.62214
 N498 N 0.76425 0.09875 0.61140
 C499 C 0.76322 0.08090 0.59225
 C500 C 0.78516 0.07327 0.58197
 C501 C 0.78475 0.05589 0.56324
 C502 C 0.76226 0.04594 0.55439
 C503 C 0.74024 0.05374 0.56471
 C504 C 0.74070 0.07101 0.58348
 H505 H 0.70638 0.15229 0.67850
 H506 H 0.70670 0.12093 0.64678
 H507 H 0.78503 0.13096 0.64007
 H508 H 0.78506 0.16213 0.67184
 H509 H 0.80264 0.08077 0.58853
 H510 H 0.80203 0.05030 0.55568
 H511 H 0.72261 0.04642 0.55836
 H512 H 0.72346 0.07664 0.59108
 C513 C 0.22023 -0.16305 0.65053
 C514 C 0.21994 -0.14485 0.63286
 C515 C 0.24077 -0.13020 0.62938
 C516 C 0.26199 -0.13379 0.64403
 C517 C 0.26225 -0.15187 0.66188
 C518 C 0.24140 -0.16680 0.66524
 N519 N 0.23987 -0.11197 0.61083
 N520 N 0.25869 -0.09934 0.60524
 C521 C 0.25771 -0.08115 0.58664
 C522 C 0.27959 -0.06969 0.57974
 C523 C 0.27938 -0.05220 0.56133
 C524 C 0.25714 -0.04570 0.54962
 C525 C 0.23511 -0.05704 0.55680
 C526 C 0.23539 -0.07468 0.57509
 H527 H 0.20375 -0.17398 0.65279
 H528 H 0.20345 -0.14221 0.62174
 H529 H 0.27834 -0.12265 0.64170
 H530 H 0.27889 -0.15436 0.67277
 H531 H 0.29690 -0.07448 0.58852
 H532 H 0.29665 -0.04376 0.55629
 H533 H 0.21769 -0.05246 0.54813
 H534 H 0.21820 -0.08325 0.58016
 C535 C 0.76393 -0.14467 0.31883
 C536 C 0.76572 -0.12576 0.33594
 C537 C 0.76279 -0.13035 0.36089
 C538 C 0.75871 -0.15425 0.36869
 C539 C 0.75763 -0.17325 0.35168
 C540 C 0.75997 -0.16859 0.32657
 N541 N 0.76406 -0.11058 0.37795
 N542 N 0.75390 -0.11185 0.39869
 C543 C 0.75548 -0.09246 0.41617
 C544 C 0.73765 -0.09107 0.43417
 C545 C 0.73855 -0.07233 0.45145
 C546 C 0.75782 -0.05508 0.45144
 C547 C 0.77600 -0.05672 0.43364
 C548 C 0.77467 -0.07511 0.41590
 H549 H 0.76598 -0.14064 0.29960
 H550 H 0.76896 -0.10744 0.32971
 H551 H 0.75661 -0.15823 0.38792
 H552 H 0.75448 -0.19153 0.35809
 H553 H 0.72284 -0.10440 0.43463
 H554 H 0.72443 -0.07156 0.46510
 H555 H 0.79102 -0.04362 0.43326
 H556 H 0.78878 -0.07600 0.40226
 C557 C 0.66441 0.77581 -0.16435
 C558 C 0.64636 0.77660 -0.14656
 C559 C 0.63712 0.75524 -0.13641
 C560 C 0.64622 0.73290 -0.14421
 C561 C 0.66431 0.73206 -0.16197
 C562 C 0.67361 0.75351 -0.17229
 N563 N 0.61850 0.75668 -0.11834
 N564 N 0.60907 0.73784 -0.10881
 C565 C 0.59039 0.73902 -0.09080
 C566 C 0.58056 0.71741 -0.08175
 C567 C 0.56213 0.71779 -0.06436
 C568 C 0.55323 0.73991 -0.05564
 C569 C 0.56325 0.76163 -0.06466
 C570 C 0.58167 0.76121 -0.08213
 H571 H 0.67124 0.79271 -0.17168
 H572 H 0.63952 0.79393 -0.14066
 H573 H 0.63935 0.71610 -0.13666
 H574 H 0.67077 0.71457 -0.16772
 H575 H 0.58715 0.70021 -0.08829
 H576 H 0.55485 0.70073 -0.05777
 H577 H 0.55678 0.77895 -0.05833
 H578 H 0.58903 0.77817 -0.08887
 C579 C 0.33705 0.21961 -0.16249
 C580 C 0.35535 0.21828 -0.14417
 C581 C 0.36078 0.23826 -0.12910
 C582 C 0.34740 0.25962 -0.13228
 C583 C 0.32896 0.26092 -0.15047
 C584 C 0.32371 0.24098 -0.16589
 N585 N 0.38009 0.23648 -0.11096
 N586 N 0.38729 0.25458 -0.09807
 C587 C 0.40670 0.25296 -0.08002
 C588 C 0.41499 0.27408 -0.06809
 C589 C 0.43423 0.27329 -0.05073
 C590 C 0.44539 0.25121 -0.04486
 C591 C 0.43684 0.22994 -0.05668
 C592 C 0.41769 0.23080 -0.07419
 H593 H 0.33330 0.20383 -0.17384
 H594 H 0.36548 0.20170 -0.14184
 H595 H 0.35125 0.27531 -0.12081
 H596 H 0.31917 0.27769 -0.15270
 H597 H 0.40664 0.29125 -0.07243
 H598 H 0.44032 0.28998 -0.04189
 H599 H 0.44507 0.21267 -0.05257
 H600 H 0.41154 0.21421 -0.08315
 C601 C 0.34399 0.77493 0.15607
 C602 C 0.36102 0.77546 0.13733
 C603 C 0.36687 0.75424 0.12491
 C604 C 0.35517 0.73234 0.13121
 C605 C 0.33801 0.73179 0.14992
 C606 C 0.33238 0.75307 0.16271
 N607 N 0.38500 0.75543 0.10632
 N608 N 0.39200 0.73674 0.09490
 C609 C 0.41041 0.73806 0.07659
 C610 C 0.41791 0.71668 0.06543
 C611 C 0.43627 0.71723 0.04794
 C612 C 0.44743 0.73931 0.04124
 C613 C 0.43968 0.76081 0.05231
 C614 C 0.42135 0.76021 0.06987
 H615 H 0.33989 0.79174 0.16523
 H616 H 0.36986 0.79244 0.13257
 H617 H 0.35940 0.71567 0.12183
 H618 H 0.32952 0.71464 0.15463
 H619 H 0.40963 0.69951 0.07046
 H620 H 0.44177 0.70035 0.03973
 H621 H 0.44790 0.77809 0.04756
 H622 H 0.41585 0.77700 0.07824
 C623 C 0.64197 0.25560 0.18861
 C624 C 0.62328 0.25595 0.17063
 C625 C 0.62910 0.25627 0.14582
 C626 C 0.65391 0.25702 0.13909
 C627 C 0.67263 0.25747 0.15710
 C628 C 0.66678 0.25646 0.18197
 N629 N 0.60955 0.25613 0.12785
 N630 N 0.61225 0.24761 0.10642
 C631 C 0.59274 0.24824 0.08841
 C632 C 0.59191 0.23101 0.06954
 C633 C 0.57267 0.23095 0.05208
 C634 C 0.55448 0.24869 0.05285
 C635 C 0.55566 0.26630 0.07146
 C636 C 0.57446 0.26590 0.08931
 H637 H 0.63706 0.25498 0.20770
 H638 H 0.60421 0.25551 0.17601
 H639 H 0.65874 0.25753 0.11998
 H640 H 0.69166 0.25808 0.15161
 H641 H 0.60596 0.21737 0.06863
 H642 H 0.57219 0.21730 0.03778
 H643 H 0.54179 0.28012 0.07242
 H644 H 0.57491 0.27951 0.10364
 C645 C -0.18086 0.64215 0.76476
 C646 C -0.16507 0.62243 0.76524
 C647 C -0.14011 0.62563 0.76033
 C648 C -0.13107 0.64873 0.75443
 C649 C -0.14697 0.66833 0.75307
 C650 C -0.17214 0.66539 0.75833
 N651 N -0.12442 0.60510 0.76051
 N652 N -0.10158 0.60708 0.76594
 C653 C -0.08563 0.58680 0.76468
 C654 C -0.06463 0.58615 0.77997
 C655 C -0.04852 0.56673 0.77868
 C656 C -0.05277 0.54819 0.76138
 C657 C -0.07366 0.54901 0.74583
 C658 C -0.09020 0.56800 0.74771
 H659 H -0.20005 0.63883 0.76866
 H660 H -0.17225 0.60463 0.76963
 H661 H -0.11182 0.65148 0.75034
 H662 H -0.13928 0.68582 0.74833
 H663 H -0.06087 0.60063 0.79301
 H664 H -0.03239 0.56651 0.79070
 H665 H -0.07724 0.53487 0.73236
 H666 H -0.10619 0.56836 0.73554
 C667 C -0.14973 0.33319 0.28139
 C668 C -0.13186 0.35167 0.28194
 C669 C -0.12763 0.36564 0.26113
 C670 C -0.14146 0.36083 0.23956
 C671 C -0.15941 0.34241 0.23900
 C672 C -0.16382 0.32840 0.25994
 N673 N -0.10938 0.38463 0.26246
 N674 N -0.10415 0.39758 0.24403
 C675 C -0.08601 0.41667 0.24539
 C676 C -0.08020 0.42919 0.22404
 C677 C -0.06244 0.44777 0.22465
 C678 C -0.05024 0.45425 0.24677
 C679 C -0.05627 0.44176 0.26825
 C680 C -0.07396 0.42309 0.26758
 H681 H -0.15270 0.32297 0.29793
 H682 H -0.12134 0.35521 0.29868
 H683 H -0.13850 0.37136 0.22320
 H684 H -0.16971 0.33913 0.22210
 H685 H -0.08939 0.42444 0.20685
 H686 H -0.05825 0.45704 0.20779
 H687 H -0.04719 0.44628 0.28556
 H688 H -0.07818 0.41371 0.28436
 C689 C 0.16020 0.33951 0.77773
 C690 C 0.14216 0.35716 0.77915
 C691 C 0.12867 0.36389 0.75825
 C692 C 0.13336 0.35269 0.73574
 C693 C 0.15135 0.33495 0.73429
 C694 C 0.16500 0.32816 0.75528
 N695 N 0.11035 0.38207 0.76046
 N696 N 0.09792 0.38978 0.74215
 C697 C 0.07964 0.40796 0.74474
 C698 C 0.06747 0.41668 0.72381
 C699 C 0.04974 0.43463 0.72576
 C700 C 0.04382 0.44407 0.74881
 C701 C 0.05597 0.43512 0.76982
 C702 C 0.07373 0.41727 0.76782
 H703 H 0.17014 0.33462 0.79432
 H704 H 0.13865 0.36564 0.79661
 H705 H 0.12316 0.35762 0.71930
 H706 H 0.15466 0.32676 0.71667
 H707 H 0.07184 0.40963 0.70592
 H708 H 0.04070 0.44112 0.70924
 H709 H 0.05187 0.44200 0.78784
 H710 H 0.08284 0.41080 0.78430
 C711 C 0.14492 0.68704 0.24021
 C712 C 0.12552 0.67012 0.23980
 C713 C 0.13032 0.64533 0.23985
 C714 C 0.15481 0.63754 0.23945
 C715 C 0.17421 0.65447 0.23908
 C716 C 0.16941 0.67934 0.23980
 N717 N 0.11013 0.62841 0.24025
 N718 N 0.11255 0.60726 0.24899
 C719 C 0.09257 0.59007 0.24882
 C720 C 0.09293 0.57110 0.26570
 C721 C 0.07362 0.55409 0.26601
 C722 C 0.05403 0.55542 0.24887
 C723 C 0.05387 0.57425 0.23169
 C724 C 0.07284 0.59164 0.23185
 H725 H 0.14080 0.70615 0.24061
 H726 H 0.10671 0.67631 0.23999
 H727 H 0.15888 0.61843 0.23924
 H728 H 0.19297 0.64813 0.23885
 H729 H 0.10810 0.56966 0.27879
 H730 H 0.07424 0.53962 0.27931
 H731 H 0.03894 0.57563 0.21831
 H732 H 0.07233 0.60606 0.21851
 C733 C 0.79549 -0.16163 0.66657
 C734 C 0.79677 -0.14497 0.64740
 C735 C 0.77594 -0.13202 0.64013
 C736 C 0.75380 -0.13566 0.65249
 C737 C 0.75254 -0.15215 0.67170
 C738 C 0.77332 -0.16544 0.67890
 N739 N 0.77759 -0.11540 0.62016
 N740 N 0.75869 -0.10462 0.61179
 C741 C 0.75971 -0.08777 0.59201
 C742 C 0.73778 -0.07759 0.58344
 C743 C 0.73799 -0.06079 0.56444
 C744 C 0.76027 -0.05378 0.55372
 C745 C 0.78231 -0.06416 0.56228
 C746 C 0.78204 -0.08107 0.58127
 H747 H 0.81188 -0.17141 0.67177
 H748 H 0.81397 -0.14227 0.63808
 H749 H 0.73743 -0.12585 0.64726
 H750 H 0.73509 -0.15474 0.68055
 H751 H 0.72047 -0.08263 0.59160
 H752 H 0.72071 -0.05312 0.55831
 H753 H 0.79977 -0.05915 0.55441
 H754 H 0.79924 -0.08871 0.58763
 C755 C 0.28198 -0.15349 0.33057
 C756 C 0.28368 -0.13610 0.34918
 C757 C 0.26286 -0.12982 0.36220
 C758 C 0.24016 -0.14129 0.35653
 C759 C 0.23843 -0.15878 0.33798
 C760 C 0.25931 -0.16501 0.32472
 N761 N 0.26524 -0.11165 0.38089
 N762 N 0.24684 -0.10429 0.39266
 C763 C 0.24923 -0.08601 0.41125
 C764 C 0.22800 -0.07778 0.42239
 C765 C 0.22959 -0.05961 0.44024
 C766 C 0.25257 -0.04944 0.44733
 C767 C 0.27392 -0.05794 0.43628
 C768 C 0.27228 -0.07604 0.41834
 H769 H 0.29850 -0.15801 0.32098
 H770 H 0.30128 -0.12742 0.35344
 H771 H 0.22377 -0.13672 0.36635
 H772 H 0.22067 -0.16715 0.33386
 H773 H 0.21015 -0.08535 0.41709
 H774 H 0.21280 -0.05352 0.44844
 H775 H 0.29188 -0.05046 0.44133
 H776 H 0.28897 -0.08215 0.41000
 C777 C 0.72289 0.16293 0.34905
 C778 C 0.72254 0.14373 0.36560
 C779 C 0.74439 0.13578 0.37667
 C780 C 0.76674 0.14753 0.37127
 C781 C 0.76712 0.16683 0.35482
 C782 C 0.74521 0.17463 0.34338
 N783 N 0.74339 0.11574 0.39316
 N784 N 0.76273 0.10672 0.40272
 C785 C 0.76177 0.08673 0.41928
 C786 C 0.78384 0.07748 0.42865
 C787 C 0.78360 0.05824 0.44515
 C788 C 0.76116 0.04793 0.45262
 C789 C 0.73900 0.05715 0.44300
 C790 C 0.73928 0.07637 0.42645
 H791 H 0.70565 0.16862 0.34082
 H792 H 0.70519 0.13490 0.36971
 H793 H 0.78389 0.14174 0.37965
 H794 H 0.78464 0.17529 0.35076
 H795 H 0.80128 0.08530 0.42324
 H796 H 0.80099 0.05160 0.45223
 H797 H 0.72142 0.04962 0.44838
 H798 H 0.72196 0.08321 0.41943
 C799 C 0.22438 0.17229 0.64762
 C800 C 0.22417 0.15500 0.62886
 C801 C 0.24521 0.14161 0.62426
 C802 C 0.26668 0.14579 0.63856
 C803 C 0.26689 0.16296 0.65741
 C804 C 0.24570 0.17631 0.66225
 N805 N 0.24412 0.12352 0.60542
 N806 N 0.26285 0.11141 0.59960
 C807 C 0.26150 0.09292 0.58116
 C808 C 0.28308 0.08132 0.57453
 C809 C 0.28227 0.06287 0.55691
 C810 C 0.25974 0.05562 0.54578
 C811 C 0.23810 0.06737 0.55248
 C812 C 0.23897 0.08589 0.56996
 H813 H 0.20770 0.18209 0.65094
 H814 H 0.20749 0.15188 0.61799
 H815 H 0.28320 0.13566 0.63534
 H816 H 0.28370 0.16578 0.66811
 H817 H 0.30054 0.08655 0.58309
 H818 H 0.29924 0.05415 0.55218
 H819 H 0.22046 0.06226 0.54421
 H820 H 0.22202 0.09454 0.57483
   
