data_POSCAR
  _audit_creation_date              2014-09-24
  _audit_creation_method            'ToBaCCo'
  _symmetry_space_group_name_H-M    'P1'
  _symmetry_Int_Tables_number       1
  _symmetry_cell_setting            triclinic
  loop_
  _symmetry_equiv_pos_as_xyz
 x,y,z
_cell_length_a 46.2811
_cell_length_b 45.1428
_cell_length_c 45.0439
_cell_angle_alpha 90.617700
_cell_angle_beta 86.700000
_cell_angle_gamma 91.394500
loop_
  _atom_site_label
  _atom_site_type_symbol
  _atom_site_fract_x
  _atom_site_fract_y
  _atom_site_fract_z
C1 C 0.26695 0.24401 0.25548
 C2 C 0.25493 0.23140 0.28180
 C3 C 0.22996 0.24266 0.29531
 C4 C 0.21662 0.26663 0.28266
 C5 C 0.22837 0.27909 0.25660
 C6 C 0.25386 0.26771 0.24292
 C7 C 0.29086 0.23725 0.23748
 N8 N 0.29279 0.25624 0.21431
 C9 C 0.27020 0.27500 0.21735
 C10 C 0.21069 0.30186 0.24958
 N11 N 0.18863 0.30334 0.27082
 C12 C 0.19218 0.28195 0.29109
 C13 C 0.22293 0.22583 0.32007
 N14 N 0.24304 0.20466 0.32190
 C15 C 0.26274 0.20786 0.29850
 H16 H 0.30576 0.21962 0.24084
 H17 H 0.26559 0.29233 0.20205
 H18 H 0.21399 0.31639 0.23069
 H19 H 0.17797 0.27791 0.31065
 H20 H 0.20431 0.22849 0.33547
 H21 H 0.28106 0.19390 0.29346
 C22 C 0.71879 -0.24746 0.23929
 C23 C 0.72940 -0.23614 0.26571
 C24 C 0.75147 -0.25018 0.27906
 C25 C 0.76325 -0.27597 0.26596
 C26 C 0.75266 -0.28703 0.23982
 C27 C 0.73033 -0.27273 0.22645
 C28 C 0.69777 -0.23809 0.22142
 N29 N 0.69630 -0.25720 0.19791
 C30 C 0.71616 -0.27846 0.20092
 C31 C 0.76824 -0.31155 0.23165
 N32 N 0.78810 -0.31590 0.25207
 C33 C 0.78524 -0.29421 0.27327
 C34 C 0.75751 -0.23376 0.30407
 N35 N 0.73961 -0.21023 0.30598
 C36 C 0.72241 -0.21162 0.28263
 H37 H 0.68465 -0.21884 0.22563
 H38 H 0.72009 -0.29675 0.18556
 H39 H 0.76552 -0.32515 0.21199
 H40 H 0.79829 -0.29138 0.29229
 H41 H 0.77382 -0.23864 0.31944
 H42 H 0.70610 -0.19570 0.27819
 C43 C 0.71549 0.25237 0.75694
 C44 C 0.72633 0.23628 0.73208
 C45 C 0.75363 0.24304 0.71952
 C46 C 0.77049 0.26584 0.73165
 C47 C 0.75982 0.28166 0.75614
 C48 C 0.73214 0.27488 0.76886
 C49 C 0.68966 0.25088 0.77368
 N50 N 0.69032 0.27198 0.79552
 C51 C 0.71625 0.28669 0.79263
 C52 C 0.78052 0.30269 0.76281
 N53 N 0.80359 0.30000 0.74285
 C54 C 0.79757 0.27745 0.72380
 C55 C 0.75857 0.22402 0.69584
 N56 N 0.73490 0.20583 0.69369
 C57 C 0.71514 0.21312 0.71585
 H58 H 0.67196 0.23550 0.76989
 H59 H 0.72307 0.30475 0.80685
 H60 H 0.77841 0.31885 0.78063
 H61 H 0.81176 0.27025 0.70529
 H62 H 0.77826 0.22333 0.68175
 H63 H 0.69418 0.20227 0.71987
 C64 C 0.29149 -0.24694 0.76637
 C65 C 0.28257 -0.23705 0.73907
 C66 C 0.25869 -0.25000 0.72657
 C67 C 0.24336 -0.27321 0.74136
 C68 C 0.25223 -0.28291 0.76833
 C69 C 0.27646 -0.26976 0.78091
 C70 C 0.31402 -0.23790 0.78311
 N71 N 0.31438 -0.25544 0.81015
 C72 C 0.28951 -0.27531 0.80687
 C73 C 0.23342 -0.30528 0.77781
 N74 N 0.21334 -0.30960 0.75732
 C75 C 0.21921 -0.29000 0.73484
 C76 C 0.25518 -0.23567 0.70019
 N77 N 0.27640 -0.21439 0.69658
 C78 C 0.29319 -0.21519 0.72021
 H79 H 0.32956 -0.22036 0.77718
 H80 H 0.28251 -0.29208 0.82289
 H81 H 0.23424 -0.31754 0.79828
 H82 H 0.20690 -0.28766 0.71535
 H83 H 0.23840 -0.24049 0.68499
 H84 H 0.31178 -0.20073 0.72347
 C85 C 0.74156 -0.24302 0.76118
 C86 C 0.75847 -0.23023 0.73755
 C87 C 0.78240 -0.24480 0.72547
 C88 C 0.78976 -0.27227 0.73671
 C89 C 0.77286 -0.28510 0.75959
 C90 C 0.74871 -0.27029 0.77202
 C91 C 0.71759 -0.23364 0.77798
 N92 N 0.71022 -0.25455 0.79886
 C93 C 0.72910 -0.27703 0.79518
 C94 C 0.78496 -0.31176 0.76574
 N95 N 0.80908 -0.31515 0.74749
 C96 C 0.81212 -0.29104 0.72955
 C97 C 0.79459 -0.22759 0.70288
 N98 N 0.77872 -0.20291 0.70079
 C99 C 0.75657 -0.20424 0.72204
 H100 H 0.70683 -0.21296 0.77517
 H101 H 0.72888 -0.29672 0.80874
 H102 H 0.77708 -0.32734 0.78262
 H103 H 0.82894 -0.28740 0.71222
 H104 H 0.81351 -0.23278 0.68869
 H105 H 0.74005 -0.18790 0.72590
 C106 C 0.26594 0.22602 0.76366
 C107 C 0.25323 0.21341 0.73877
 C108 C 0.23004 0.22692 0.72700
 C109 C 0.21914 0.25301 0.73989
 C110 C 0.23150 0.26544 0.76447
 C111 C 0.25517 0.25183 0.77644
 C112 C 0.28897 0.21803 0.77959
 N113 N 0.29255 0.23825 0.80172
 C114 C 0.27185 0.25905 0.79996
 C115 C 0.21655 0.29082 0.77186
 N116 N 0.19550 0.29385 0.75229
 C117 C 0.19704 0.27087 0.73269
 C118 C 0.22228 0.21031 0.70287
 N119 N 0.24008 0.18694 0.69964
 C120 C 0.25918 0.18862 0.72152
 H121 H 0.30230 0.19888 0.77528
 H122 H 0.26889 0.27813 0.81442
 H123 H 0.22105 0.30599 0.78984
 H124 H 0.18309 0.26749 0.71440
 H125 H 0.20493 0.21490 0.68858
 H126 H 0.27630 0.17330 0.72469
 C127 C 0.25996 -0.24599 0.22701
 C128 C 0.24389 -0.23242 0.25055
 C129 C 0.21884 -0.24595 0.26247
 C130 C 0.20945 -0.27328 0.25108
 C131 C 0.22552 -0.28697 0.22825
 C132 C 0.25091 -0.27312 0.21596
 C133 C 0.28498 -0.23717 0.21133
 N134 N 0.29320 -0.25907 0.18846
 C135 C 0.27025 -0.28145 0.19320
 C136 C 0.21176 -0.31366 0.22251
 N137 N 0.18755 -0.31622 0.24093
 C138 C 0.18603 -0.29155 0.25855
 C139 C 0.20843 -0.22837 0.28563
 N140 N 0.22658 -0.20452 0.28814
 C141 C 0.24832 -0.20676 0.26661
 H142 H 0.29695 -0.21671 0.21506
 H143 H 0.26874 -0.30167 0.18019
 H144 H 0.21879 -0.33000 0.20602
 H145 H 0.16967 -0.28731 0.27610
 H146 H 0.18941 -0.23295 0.30014
 H147 H 0.26652 -0.19149 0.26317
 C148 C 0.71007 0.21976 0.22615
 C149 C 0.72423 0.20668 0.24923
 C150 C 0.74872 0.22018 0.25995
 C151 C 0.75942 0.24703 0.24771
 C152 C 0.74545 0.25992 0.22495
 C153 C 0.72059 0.24619 0.21407
 C154 C 0.68579 0.21162 0.21148
 N155 N 0.68123 0.23240 0.19081
 C156 C 0.70249 0.25368 0.19220
 C157 C 0.76048 0.28575 0.21760
 N158 N 0.78324 0.28890 0.23524
 C159 C 0.78273 0.26520 0.25378
 C160 C 0.75752 0.20280 0.28258
 N161 N 0.73893 0.17908 0.28576
 C162 C 0.71855 0.18135 0.26546
 H163 H 0.67234 0.19196 0.21555
 H164 H 0.70491 0.27313 0.17841
 H165 H 0.75523 0.30117 0.20057
 H166 H 0.79797 0.26111 0.27049
 H167 H 0.77582 0.20752 0.29590
 H168 H 0.70066 0.16579 0.26292
 O169 O 0.25183 0.01867 0.47185
 O170 O 0.23994 -0.04404 0.52256
 O171 O 0.24855 0.01281 0.52937
 O172 O 0.24550 -0.03828 0.46494
 O173 O 0.29280 -0.04365 0.46533
 O174 O 0.29580 0.00709 0.52940
 O175 O 0.28717 -0.04991 0.52273
 O176 O 0.29913 0.01334 0.47189
 Cu177 Cu 0.24171 -0.01216 0.49719
 Cu178 Cu 0.29846 -0.01887 0.49743
 C179 C 0.27736 0.02668 0.46314
 C180 C 0.26146 -0.05772 0.53124
 C181 C 0.27281 0.01868 0.54026
 C182 C 0.26878 -0.04955 0.45413
 O183 O 0.74985 0.02945 0.52438
 O184 O 0.75251 -0.03457 0.47257
 O185 O 0.74517 -0.02779 0.52988
 O186 O 0.75457 0.02308 0.46680
 O187 O 0.80204 0.02214 0.46924
 O188 O 0.79260 -0.02933 0.53265
 O189 O 0.79999 -0.03539 0.47506
 O190 O 0.79733 0.02793 0.52684
 Cu191 Cu 0.74578 -0.00234 0.49807
 Cu192 Cu 0.80274 -0.00381 0.50118
 C193 C 0.77330 0.03951 0.53444
 C194 C 0.77678 -0.04591 0.46512
 C195 C 0.76715 -0.03723 0.54205
 C196 C 0.77978 0.03150 0.45736
 O197 O 0.45228 0.25979 0.02879
 O198 O 0.50684 0.24629 -0.03181
 O199 O 0.50816 0.25211 0.02564
 O200 O 0.45125 0.25453 -0.02872
 O201 O 0.45854 0.30284 -0.03326
 O202 O 0.51562 0.30177 0.02039
 O203 O 0.51411 0.29452 -0.03700
 O204 O 0.45959 0.30806 0.02434
 Cu205 Cu 0.47889 0.24851 -0.00102
 Cu206 Cu 0.48766 0.30645 -0.00685
 C207 C 0.44649 0.28611 0.03685
 C208 C 0.51971 0.26804 -0.04481
 C209 C 0.52304 0.27676 0.03331
 C210 C 0.44523 0.27908 -0.04020
 O211 O 0.53574 0.77221 0.02750
 O212 O 0.48179 0.77318 -0.02921
 O213 O 0.53806 0.77395 -0.03048
 O214 O 0.47956 0.77205 0.02855
 O215 O 0.47987 0.82095 0.02964
 O216 O 0.53889 0.82284 -0.02885
 O217 O 0.48261 0.82212 -0.02828
 O218 O 0.53614 0.82262 0.02919
 Cu219 Cu 0.50877 0.76809 -0.00108
 Cu220 Cu 0.50941 0.82686 0.00052
 C221 C 0.54616 0.79733 0.03954
 C222 C 0.47305 0.79770 -0.03845
 C223 C 0.54838 0.79870 -0.03979
 C224 C 0.46969 0.79622 0.03908
 O225 O 0.00886 0.46367 0.22647
 O226 O -0.04918 0.51682 0.24376
 O227 O 0.00569 0.52122 0.22997
 O228 O -0.04697 0.45911 0.23923
 O229 O -0.03920 0.45747 0.28708
 O230 O 0.01506 0.51836 0.27740
 O231 O -0.04032 0.51530 0.29137
 O232 O 0.01651 0.46126 0.27430
 Cu233 Cu -0.02131 0.49026 0.23007
 Cu234 Cu -0.01126 0.48780 0.28734
 C235 C 0.02275 0.45362 0.24753
 C236 C -0.05425 0.52552 0.27045
 C237 C 0.01942 0.53025 0.25204
 C238 C -0.05221 0.44781 0.26473
 O239 O 0.03344 0.52183 0.71816
 O240 O -0.02287 0.46472 0.73503
 O241 O -0.02246 0.52179 0.72904
 O242 O 0.03319 0.46460 0.72552
 O243 O 0.03862 0.47051 0.77363
 O244 O -0.01581 0.52870 0.77683
 O245 O -0.01770 0.47115 0.78311
 O246 O 0.03960 0.52757 0.76615
 Cu247 Cu 0.00477 0.49256 0.72212
 Cu248 Cu 0.01173 0.49998 0.77979
 C249 C 0.04606 0.53451 0.73927
 C250 C -0.03009 0.45837 0.76186
 C251 C -0.02834 0.53518 0.75352
 C252 C 0.04540 0.45786 0.74898
 C253 C 0.31496 0.25492 0.19074
 C254 C 0.31837 0.27606 0.16833
 C255 C 0.34107 0.27393 0.14392
 C256 C 0.35166 0.29982 0.12968
 C257 C 0.37341 0.29845 0.10682
 C258 C 0.38486 0.27098 0.09767
 C259 C 0.37366 0.24510 0.11144
 C260 C 0.35199 0.24648 0.13421
 C261 C 0.40786 0.26790 0.07363
 C262 C 0.42419 0.29137 0.06082
 H263 H 0.30508 0.29546 0.16939
 H264 H 0.34324 0.32119 0.13645
 H265 H 0.38082 0.31890 0.09638
 H266 H 0.38172 0.22361 0.10454
 H267 H 0.34360 0.22592 0.14377
 H268 H 0.41253 0.24562 0.06588
 H269 H 0.33011 0.23706 0.19111
 H270 H 0.42084 0.31395 0.06815
 C271 C 0.67846 0.74365 0.17495
 C272 C 0.65899 0.76643 0.17153
 C273 C 0.63931 0.76711 0.14684
 C274 C 0.62915 0.79452 0.13805
 C275 C 0.61026 0.79605 0.11506
 C276 C 0.60089 0.77010 0.10060
 C277 C 0.61078 0.74267 0.10959
 C278 C 0.62975 0.74111 0.13254
 C279 C 0.58054 0.77088 0.07656
 C280 C 0.57027 0.79726 0.06628
 H281 H 0.65888 0.78532 0.18646
 H282 H 0.63599 0.81484 0.14890
 H283 H 0.60293 0.81755 0.10877
 H284 H 0.60366 0.72234 0.09899
 H285 H 0.63633 0.71949 0.13936
 H286 H 0.57318 0.75016 0.06684
 H287 H 0.67996 0.72621 0.15828
 H288 H 0.55845 0.79709 0.05316
 C289 C 0.66946 0.27826 -0.18294
 C290 C 0.64288 0.26281 -0.17997
 C291 C 0.62048 0.26908 -0.15606
 C292 C 0.59970 0.24691 -0.14844
 C293 C 0.57846 0.25163 -0.12570
 C294 C 0.57759 0.27875 -0.11001
 C295 C 0.59774 0.30129 -0.11831
 C296 C 0.61898 0.29659 -0.14110
 C297 C 0.55578 0.28450 -0.08539
 C298 C 0.54120 0.26197 -0.06923
 H299 H 0.63862 0.24430 -0.19462
 H300 H 0.60001 0.22574 -0.16000
 H301 H 0.56264 0.23408 -0.12087
 H302 H 0.59719 0.32258 -0.10698
 H303 H 0.63381 0.31470 -0.14706
 H304 H 0.55196 0.30733 -0.07893
 H305 H 0.67407 0.29565 -0.16706
 H306 H 0.54581 0.23900 -0.07409
 C307 C 0.33497 0.74596 -0.16462
 C308 C 0.35723 0.76713 -0.16398
 C309 C 0.37762 0.76834 -0.13995
 C310 C 0.39793 0.79187 -0.13915
 C311 C 0.41771 0.79354 -0.11688
 C312 C 0.41752 0.77158 -0.09495
 C313 C 0.39745 0.74787 -0.09595
 C314 C 0.37755 0.74631 -0.11810
 C315 C 0.43853 0.77211 -0.07147
 C316 C 0.45179 0.79810 -0.06138
 H317 H 0.35971 0.78349 -0.18145
 H318 H 0.39856 0.80896 -0.15588
 H319 H 0.43345 0.81167 -0.11734
 H320 H 0.39708 0.73057 -0.07944
 H321 H 0.36232 0.72775 -0.11818
 H322 H 0.44285 0.75134 -0.06090
 H323 H 0.32508 0.74570 -0.17735
 H324 H 0.44615 0.81939 -0.06992
 C325 C 0.16558 0.32408 0.27328
 C326 C 0.15918 0.34286 0.25023
 C327 C 0.13519 0.36401 0.25335
 C328 C 0.12129 0.37260 0.22804
 C329 C 0.09806 0.39196 0.23056
 C330 C 0.08849 0.40334 0.25857
 C331 C 0.10300 0.39534 0.28368
 C332 C 0.12610 0.37602 0.28116
 C333 C 0.06381 0.42359 0.26303
 C334 C 0.04651 0.43309 0.24072
 H335 H 0.17081 0.34083 0.22880
 H336 H 0.12815 0.36395 0.20631
 H337 H 0.08787 0.39773 0.21052
 H338 H 0.09644 0.40407 0.30547
 H339 H 0.13696 0.37087 0.30103
 H340 H 0.05892 0.43152 0.28551
 H341 H 0.15192 0.32407 0.29361
 H342 H 0.05042 0.42606 0.21788
 C343 C 0.19145 0.66981 0.76028
 C344 C 0.17152 0.66426 0.73859
 C345 C 0.14804 0.64159 0.74266
 C346 C 0.13776 0.62682 0.71770
 C347 C 0.11624 0.60460 0.72098
 C348 C 0.10427 0.59703 0.74945
 C349 C 0.11415 0.61240 0.77429
 C350 C 0.13566 0.63450 0.77100
 C351 C 0.08190 0.57326 0.75461
 C352 C 0.06829 0.55759 0.73223
 H353 H 0.17412 0.67516 0.71732
 H354 H 0.14686 0.63206 0.69562
 H355 H 0.10954 0.59338 0.70114
 H356 H 0.10519 0.60725 0.79644
 H357 H 0.14231 0.64614 0.79069
 H358 H 0.07555 0.56800 0.77752
 H359 H 0.18992 0.65650 0.78020
 H360 H 0.07329 0.56240 0.70905
 C361 C -0.19256 0.66184 0.24982
 C362 C -0.17251 0.65647 0.27108
 C363 C -0.15126 0.63252 0.26708
 C364 C -0.14145 0.61847 0.29209
 C365 C -0.12185 0.59535 0.28882
 C366 C -0.11130 0.58616 0.26030
 C367 C -0.12078 0.60069 0.23537
 C368 C -0.14039 0.62365 0.23866
 C369 C -0.09059 0.56177 0.25520
 C370 C -0.07613 0.54805 0.27748
 H371 H -0.17324 0.66879 0.29182
 H372 H -0.14937 0.62505 0.31423
 H373 H -0.11546 0.58474 0.30870
 H374 H -0.11284 0.59435 0.21317
 H375 H -0.14665 0.63465 0.21888
 H376 H -0.08570 0.55491 0.23237
 H377 H -0.19312 0.64716 0.23066
 H378 H -0.07965 0.55460 0.30051
 C379 C -0.17161 0.31688 0.74066
 C380 C -0.16571 0.34014 0.76040
 C381 C -0.13988 0.36008 0.75662
 C382 C -0.13090 0.37648 0.78123
 C383 C -0.10728 0.39637 0.77835
 C384 C -0.09215 0.40030 0.75061
 C385 C -0.10132 0.38407 0.72598
 C386 C -0.12491 0.36424 0.72886
 C387 C -0.06769 0.42185 0.74586
 C388 C -0.05325 0.43613 0.76857
 H389 H -0.18008 0.34381 0.77978
 H390 H -0.14233 0.37403 0.80277
 H391 H -0.10152 0.40891 0.79778
 H392 H -0.09036 0.38697 0.70426
 H393 H -0.13169 0.35292 0.70907
 H394 H -0.06056 0.42664 0.72304
 H395 H -0.15577 0.31189 0.72281
 H396 H -0.05878 0.43121 0.79165
 C397 C 0.24192 0.18233 0.34442
 C398 C 0.26408 0.16224 0.34715
 C399 C 0.26246 0.13816 0.36926
 C400 C 0.28819 0.12560 0.37758
 C401 C 0.28750 0.10244 0.39801
 C402 C 0.26087 0.09119 0.41038
 C403 C 0.23517 0.10362 0.40177
 C404 C 0.23588 0.12674 0.38141
 C405 C 0.25853 0.06647 0.43187
 C406 C 0.28192 0.05161 0.44250
 H407 H 0.28384 0.16470 0.33329
 H408 H 0.30893 0.13383 0.36832
 H409 H 0.30788 0.09360 0.40373
 H410 H 0.21434 0.09525 0.41067
 H411 H 0.21551 0.13507 0.37485
 H412 H 0.23689 0.05935 0.43963
 H413 H 0.22330 0.18167 0.36007
 H414 H 0.30396 0.05777 0.43563
 C415 C 0.73101 0.18203 0.67272
 C416 C 0.74989 0.17820 0.64769
 C417 C 0.74830 0.15295 0.62649
 C418 C 0.77241 0.14788 0.60694
 C419 C 0.77247 0.12408 0.58691
 C420 C 0.74832 0.10466 0.58600
 C421 C 0.72377 0.11026 0.60478
 C422 C 0.72372 0.13410 0.62492
 C423 C 0.74801 0.07881 0.56547
 C424 C 0.77328 0.06497 0.55501
 H425 H 0.76763 0.19396 0.64383
 H426 H 0.79146 0.16229 0.60729
 H427 H 0.79137 0.12128 0.57198
 H428 H 0.70470 0.09592 0.60412
 H429 H 0.70431 0.13765 0.63887
 H430 H 0.72726 0.06958 0.55955
 H431 H 0.71303 0.16666 0.67701
 H432 H 0.79401 0.07254 0.56253
 C433 C 0.28133 -0.19381 0.67265
 C434 C 0.26285 -0.19174 0.64939
 C435 C 0.26732 -0.16925 0.62578
 C436 C 0.24338 -0.15989 0.61097
 C437 C 0.24656 -0.13774 0.58951
 C438 C 0.27393 -0.12450 0.58240
 C439 C 0.29804 -0.13483 0.59630
 C440 C 0.29485 -0.15698 0.61772
 C441 C 0.27836 -0.10011 0.56072
 C442 C 0.25607 -0.08273 0.55157
 H443 H 0.24339 -0.20548 0.64948
 H444 H 0.22203 -0.16941 0.61637
 H445 H 0.22753 -0.13132 0.57860
 H446 H 0.31944 -0.12547 0.59082
 H447 H 0.31405 -0.16447 0.62770
 H448 H 0.30037 -0.09465 0.55275
 H449 H 0.29958 -0.17847 0.67369
 H450 H 0.23398 -0.08682 0.55986
 C451 C 0.73814 -0.18692 0.32793
 C452 C 0.75637 -0.18492 0.35154
 C453 C 0.75519 -0.16014 0.37342
 C454 C 0.77989 -0.15289 0.38886
 C455 C 0.77986 -0.12911 0.40901
 C456 C 0.75497 -0.11203 0.41417
 C457 C 0.72995 -0.12000 0.39953
 C458 C 0.72998 -0.14378 0.37942
 C459 C 0.75395 -0.08621 0.43484
 C460 C 0.77854 -0.07160 0.44480
 H461 H 0.77317 -0.20095 0.35320
 H462 H 0.79942 -0.16548 0.38507
 H463 H 0.79931 -0.12455 0.42059
 H464 H 0.71030 -0.10765 0.40351
 H465 H 0.71009 -0.14938 0.36897
 H466 H 0.73289 -0.07769 0.44170
 H467 H 0.72270 -0.16970 0.32516
 H468 H 0.79992 -0.07880 0.43755
 C469 C 0.68851 0.74591 -0.17940
 C470 C 0.66977 0.76963 -0.17480
 C471 C 0.64688 0.77040 -0.15034
 C472 C 0.63622 0.79790 -0.14064
 C473 C 0.61489 0.79966 -0.11742
 C474 C 0.60367 0.77378 -0.10336
 C475 C 0.61387 0.74625 -0.11359
 C476 C 0.63513 0.74450 -0.13684
 C477 C 0.58102 0.77420 -0.07860
 C478 C 0.57148 0.79978 -0.06368
 H479 H 0.67275 0.78917 -0.18839
 H480 H 0.64459 0.81818 -0.15093
 H481 H 0.60728 0.82134 -0.11098
 H482 H 0.60531 0.72591 -0.10360
 H483 H 0.64184 0.72278 -0.14433
 H484 H 0.57153 0.75307 -0.07152
 H485 H 0.68635 0.72729 -0.16444
 H486 H 0.58071 0.82129 -0.06948
 C487 C 0.31369 0.23682 -0.17850
 C488 C 0.31754 0.25805 -0.15604
 C489 C 0.34063 0.25683 -0.13453
 C490 C 0.34821 0.28285 -0.11920
 C491 C 0.36972 0.28284 -0.09864
 C492 C 0.38425 0.25665 -0.09291
 C493 C 0.37619 0.23046 -0.10768
 C494 C 0.35465 0.23047 -0.12826
 C495 C 0.40719 0.25558 -0.07123
 C496 C 0.42260 0.28060 -0.06177
 H497 H 0.30395 0.27719 -0.15463
 H498 H 0.33745 0.30336 -0.12318
 H499 H 0.37442 0.30330 -0.08701
 H500 H 0.38665 0.20987 -0.10333
 H501 H 0.34884 0.20966 -0.13870
 H502 H 0.41289 0.23407 -0.06321
 H503 H 0.32849 0.21865 -0.18077
 H504 H 0.41859 0.30213 -0.07075
 C505 C 0.31858 0.74092 0.16528
 C506 C 0.33864 0.76436 0.16303
 C507 C 0.36287 0.76517 0.14012
 C508 C 0.38163 0.79006 0.13867
 C509 C 0.40448 0.79183 0.11702
 C510 C 0.40896 0.76868 0.09623
 C511 C 0.39052 0.74354 0.09804
 C512 C 0.36761 0.74180 0.11965
 C513 C 0.43290 0.76967 0.07291
 C514 C 0.44619 0.79597 0.06250
 H515 H 0.33627 0.78307 0.17820
 H516 H 0.37863 0.80823 0.15436
 H517 H 0.41875 0.81115 0.11703
 H518 H 0.39366 0.72528 0.08247
 H519 H 0.35366 0.72219 0.12025
 H520 H 0.43947 0.74890 0.06263
 H521 H 0.30620 0.74142 0.17694
 H522 H 0.43876 0.81713 0.07097
 C523 C 0.65770 0.23085 0.17124
 C524 C 0.65235 0.25339 0.15134
 C525 C 0.62813 0.25233 0.13102
 C526 C 0.61953 0.27887 0.11856
 C527 C 0.59703 0.27896 0.09911
 C528 C 0.58269 0.25235 0.09148
 C529 C 0.59143 0.22577 0.10369
 C530 C 0.61395 0.22567 0.12315
 C531 C 0.55891 0.25164 0.07076
 C532 C 0.54968 0.27714 0.05753
 H533 H 0.66572 0.27335 0.15130
 H534 H 0.63019 0.29970 0.12401
 H535 H 0.59097 0.29988 0.09006
 H536 H 0.58092 0.20494 0.09799
 H537 H 0.62038 0.20459 0.13144
 H538 H 0.54860 0.23054 0.06553
 H539 H 0.64325 0.21168 0.17285
 H540 H 0.53648 0.27596 0.04576
 C541 C -0.17346 0.66104 0.74781
 C542 C -0.14617 0.66061 0.73286
 C543 C -0.12729 0.63488 0.73406
 C544 C -0.09762 0.63959 0.73756
 C545 C -0.07922 0.61558 0.73845
 C546 C -0.09011 0.58652 0.73495
 C547 C -0.11965 0.58183 0.73067
 C548 C -0.13824 0.60581 0.73070
 C549 C -0.07065 0.56115 0.73462
 C550 C -0.04932 0.55907 0.75501
 H551 H -0.13707 0.68046 0.72243
 H552 H -0.08876 0.66187 0.73990
 H553 H -0.05638 0.61975 0.74118
 H554 H -0.12834 0.55958 0.72761
 H555 H -0.16099 0.60173 0.72741
 H556 H -0.07399 0.54319 0.71895
 H557 H -0.18028 0.64222 0.76149
 H558 H -0.04835 0.57515 0.77298
 C559 C -0.19740 0.31216 0.23351
 C560 C -0.17403 0.31526 0.25187
 C561 C -0.15250 0.34023 0.24980
 C562 C -0.13510 0.34585 0.27386
 C563 C -0.11428 0.36887 0.27281
 C564 C -0.11038 0.38690 0.24751
 C565 C -0.12744 0.38093 0.22327
 C566 C -0.14820 0.35788 0.22429
 C567 C -0.08848 0.41150 0.24500
 C568 C -0.07357 0.42323 0.26875
 H569 H -0.17161 0.29936 0.26925
 H570 H -0.13761 0.33233 0.29361
 H571 H -0.10118 0.37201 0.29172
 H572 H -0.12464 0.39413 0.20332
 H573 H -0.16031 0.35378 0.20480
 H574 H -0.08437 0.42139 0.22330
 H575 H -0.20062 0.32916 0.21737
 H576 H -0.07768 0.41477 0.29097
 C577 C 0.17500 0.31711 0.75090
 C578 C 0.17080 0.33842 0.77334
 C579 C 0.14893 0.36175 0.77201
 C580 C 0.13716 0.37413 0.79858
 C581 C 0.11596 0.39564 0.79808
 C582 C 0.10617 0.40540 0.77099
 C583 C 0.11874 0.39374 0.74430
 C584 C 0.13986 0.37217 0.74482
 C585 C 0.08342 0.42806 0.77164
 C586 C 0.06769 0.43512 0.74720
 H587 H 0.18244 0.33688 0.79339
 H588 H 0.14408 0.36682 0.81981
 H589 H 0.10698 0.40453 0.81897
 H590 H 0.11280 0.40138 0.72290
 H591 H 0.14935 0.36412 0.72384
 H592 H 0.07833 0.43924 0.79264
 H593 H 0.16140 0.31707 0.73215
 H594 H 0.07140 0.42382 0.72612
 C595 C 0.16893 0.65995 0.24146
 C596 C 0.14188 0.66014 0.25695
 C597 C 0.12221 0.63396 0.25807
 C598 C 0.09239 0.63778 0.25626
 C599 C 0.07322 0.61338 0.25811
 C600 C 0.08355 0.58488 0.26266
 C601 C 0.11330 0.58113 0.26512
 C602 C 0.13259 0.60543 0.26240
 C603 C 0.06343 0.55915 0.26604
 C604 C 0.04016 0.55518 0.24803
 H605 H 0.13374 0.68054 0.26663
 H606 H 0.08396 0.65966 0.25326
 H607 H 0.05028 0.61689 0.25674
 H608 H 0.12161 0.55935 0.26894
 H609 H 0.15547 0.60205 0.26448
 H610 H 0.06795 0.54216 0.28183
 H611 H 0.17473 0.64046 0.22837
 H612 H 0.03774 0.57013 0.22973
 C613 C 0.78490 -0.18050 0.67873
 C614 C 0.76823 -0.15529 0.67658
 C615 C 0.77338 -0.13290 0.65284
 C616 C 0.75085 -0.11404 0.64674
 C617 C 0.75440 -0.09319 0.62401
 C618 C 0.78069 -0.09075 0.60678
 C619 C 0.80358 -0.10883 0.61360
 C620 C 0.80005 -0.12967 0.63636
 C621 C 0.78518 -0.06948 0.58195
 C622 C 0.76246 -0.05758 0.56724
 H623 H 0.74962 -0.15248 0.69188
 H624 H 0.73028 -0.11562 0.65945
 H625 H 0.73656 -0.07892 0.62035
 H626 H 0.82423 -0.10703 0.60107
 H627 H 0.81839 -0.14288 0.64102
 H628 H 0.80721 -0.06415 0.57397
 H629 H 0.80270 -0.18418 0.66261
 H630 H 0.74030 -0.06386 0.57363
 C631 C 0.22336 -0.18240 0.31122
 C632 C 0.24297 -0.15859 0.31380
 C633 C 0.24207 -0.13728 0.33910
 C634 C 0.26726 -0.12068 0.34454
 C635 C 0.26789 -0.10104 0.36866
 C636 C 0.24320 -0.09755 0.38799
 C637 C 0.21765 -0.11326 0.38192
 C638 C 0.21703 -0.13298 0.35776
 C639 C 0.24332 -0.07745 0.41422
 C640 C 0.26855 -0.06961 0.42824
 H641 H 0.26103 -0.15638 0.29762
 H642 H 0.28670 -0.12314 0.33023
 H643 H 0.28768 -0.08847 0.37181
 H644 H 0.19819 -0.11054 0.39613
 H645 H 0.19685 -0.14448 0.35378
 H646 H 0.22275 -0.06965 0.42357
 H647 H 0.20578 -0.18540 0.32786
 H648 H 0.28902 -0.07876 0.42044
 C649 C 0.73901 0.15571 0.30721
 C650 C 0.76096 0.15285 0.32701
 C651 C 0.76047 0.12964 0.35017
 C652 C 0.78645 0.12234 0.36266
 C653 C 0.78674 0.10098 0.38498
 C654 C 0.76086 0.08654 0.39542
 C655 C 0.73489 0.09414 0.38310
 C656 C 0.73461 0.11544 0.36086
 C657 C 0.75947 0.06424 0.41952
 C658 C 0.78339 0.05260 0.43257
 H659 H 0.77973 0.16758 0.32507
 H660 H 0.80664 0.13322 0.35513
 H661 H 0.80722 0.09632 0.39405
 H662 H 0.71456 0.08371 0.39092
 H663 H 0.71395 0.12109 0.35271
 H664 H 0.73811 0.05654 0.42757
 H665 H 0.72140 0.13950 0.30745
 H666 H 0.80519 0.05903 0.42500
 C667 C 0.23813 0.16514 0.67631
 C668 C 0.25521 0.14002 0.67432
 C669 C 0.25344 0.11755 0.65015
 C670 C 0.27677 0.09866 0.64441
 C671 C 0.27620 0.07743 0.62159
 C672 C 0.25214 0.07467 0.60391
 C673 C 0.22844 0.09294 0.61025
 C674 C 0.22899 0.11410 0.63311
 C675 C 0.25065 0.05290 0.57909
 C676 C 0.27484 0.03925 0.56563
 H677 H 0.27134 0.13708 0.69039
 H678 H 0.29565 0.10045 0.65752
 H679 H 0.29453 0.06316 0.61827
 H680 H 0.20943 0.09095 0.59735
 H681 H 0.21002 0.12731 0.63746
 H682 H 0.22973 0.04843 0.57014
 H683 H 0.22289 0.16889 0.65951
 H684 H 0.29622 0.04423 0.57307
   
