data_POSCAR
  _audit_creation_date              2014-09-24
  _audit_creation_method            'ToBaCCo'
  _symmetry_space_group_name_H-M    'P1'
  _symmetry_Int_Tables_number       1
  _symmetry_cell_setting            triclinic
  loop_
  _symmetry_equiv_pos_as_xyz
 x,y,z
_cell_length_a 49.6205
_cell_length_b 49.9631
_cell_length_c 36.0349
_cell_angle_alpha 90.314300
_cell_angle_beta 90.173400
_cell_angle_gamma 90.598900
loop_
  _atom_site_label
  _atom_site_type_symbol
  _atom_site_fract_x
  _atom_site_fract_y
  _atom_site_fract_z
O1 O -0.03434 0.29054 0.02120
 O2 O 0.02312 0.27516 -0.03997
 O3 O -0.02778 0.28857 -0.04987
 O4 O 0.01588 0.27616 0.03150
 O5 O 0.00393 0.23349 0.02995
 O6 O -0.03960 0.24582 -0.05039
 O7 O 0.01026 0.23283 -0.04184
 O8 O -0.04559 0.24761 0.02131
 Cu9 Cu -0.00447 0.28691 -0.00928
 Cu10 Cu -0.01892 0.23570 -0.01036
 C11 C -0.04967 0.27155 0.03166
 C12 C 0.02653 0.25132 -0.05145
 C13 C -0.04141 0.26922 -0.06361
 C14 C 0.01733 0.25261 0.04456
 O15 O 0.47704 0.79832 0.52918
 O16 O 0.52828 0.77951 0.45937
 O17 O 0.47545 0.77902 0.46231
 O18 O 0.53052 0.79959 0.52608
 O19 O 0.53075 0.75888 0.54954
 O20 O 0.47626 0.73853 0.48665
 O21 O 0.52954 0.73905 0.48374
 O22 O 0.47895 0.75764 0.55258
 Cu23 Cu 0.50276 0.79327 0.49192
 Cu24 Cu 0.50400 0.74436 0.52010
 C25 C 0.46890 0.78087 0.55233
 C26 C 0.53817 0.75619 0.46067
 C27 C 0.46589 0.75543 0.46480
 C28 C 0.54030 0.78250 0.54827
 O29 O 1.02560 0.71740 0.04002
 O30 O 0.98018 0.70931 -0.04052
 O31 O 1.03131 0.72266 -0.03110
 O32 O 0.97386 0.70540 0.03016
 O33 O 0.96400 0.74832 0.03418
 O34 O 1.02028 0.76518 -0.02714
 O35 O 0.97025 0.75225 -0.03675
 O36 O 1.01437 0.75984 0.04465
 Cu37 Cu 1.00391 0.70939 -0.00063
 Cu38 Cu 0.99132 0.76066 0.00419
 C39 C 1.02788 0.74003 0.05608
 C40 C 0.96722 0.72944 -0.05201
 C41 C 1.03552 0.74702 -0.03973
 C42 C 0.95885 0.72408 0.04197
 O43 O 0.52440 0.21058 0.52583
 O44 O 0.46724 0.22333 0.46200
 O45 O 0.52051 0.22910 0.45859
 O46 O 0.47163 0.20476 0.52853
 O47 O 0.46997 0.24554 0.55240
 O48 O 0.51703 0.26982 0.48207
 O49 O 0.46361 0.26366 0.48682
 O50 O 0.52090 0.25156 0.54833
 Cu51 Cu 0.49636 0.21289 0.49114
 Cu52 Cu 0.49256 0.26195 0.51901
 C53 C 0.53242 0.22902 0.54789
 C54 C 0.45476 0.24526 0.46549
 C55 C 0.52790 0.25352 0.45966
 C56 C 0.46241 0.22120 0.55226
 O57 O 0.72247 -0.02080 0.03249
 O58 O 0.73261 0.03413 -0.03587
 O59 O 0.73420 -0.01858 -0.03793
 O60 O 0.71599 0.03161 0.03267
 O61 O 0.75815 0.03381 0.05236
 O62 O 0.77697 -0.01279 -0.02292
 O63 O 0.77309 0.04070 -0.01192
 O64 O 0.76486 -0.01553 0.05009
 Cu65 Cu 0.72204 0.00608 -0.00397
 Cu66 Cu 0.77272 0.01091 0.01708
 C67 C 0.74226 -0.02728 0.05308
 C68 C 0.75442 0.04781 -0.03372
 C69 C 0.75882 -0.02403 -0.04275
 C70 C 0.73381 0.04139 0.05440
 O71 O 0.24695 0.46809 0.55100
 O72 O 0.23306 0.52345 0.48675
 O73 O 0.23948 0.47168 0.47938
 O74 O 0.24297 0.52020 0.55729
 O75 O 0.28676 0.52468 0.54778
 O76 O 0.28313 0.47752 0.47029
 O77 O 0.27674 0.52838 0.47684
 O78 O 0.29061 0.47355 0.54174
 Cu79 Cu 0.23619 0.49524 0.51954
 Cu80 Cu 0.28865 0.50155 0.50820
 C81 C 0.27115 0.46157 0.55767
 C82 C 0.25255 0.53529 0.47080
 C83 C 0.26086 0.46658 0.46138
 C84 C 0.26570 0.53054 0.56577
 O85 O 0.25927 1.02099 0.06357
 O86 O 0.29189 0.97312 -0.00044
 O87 O 0.28658 1.02618 0.00227
 O88 O 0.26430 0.96882 0.05982
 O89 O 0.22671 0.96666 0.02692
 O90 O 0.25019 1.02119 -0.03239
 O91 O 0.25409 0.97045 -0.03282
 O92 O 0.22317 1.02002 0.02776
 Cu93 Cu 0.27933 0.99769 0.03462
 Cu94 Cu 0.23452 0.99427 -0.00539
 C95 C 0.23609 1.02978 0.05522
 C96 C 0.27808 0.96306 -0.02694
 C97 C 0.27196 1.03364 -0.02484
 C98 C 0.24200 0.95739 0.05196
 O99 O 0.78910 0.48152 0.45351
 O100 O 0.77872 0.53161 0.52769
 O101 O 0.77812 0.47834 0.52313
 O102 O 0.78949 0.53407 0.45699
 O103 O 0.74589 0.53390 0.44457
 O104 O 0.73506 0.47791 0.50733
 O105 O 0.73505 0.53053 0.51593
 O106 O 0.74582 0.48282 0.43916
 Cu107 Cu 0.78821 0.50658 0.49194
 Cu108 Cu 0.73600 0.50677 0.47603
 C109 C 0.76918 0.47330 0.43409
 C110 C 0.75504 0.53969 0.53431
 C111 C 0.75477 0.46761 0.52433
 C112 C 0.76943 0.54315 0.43921
 C113 C 0.21405 0.19747 0.21454
 C114 C 0.18920 0.20837 0.20401
 C115 C 0.18200 0.23450 0.21335
 C116 C 0.19865 0.24940 0.23788
 C117 C 0.22401 0.23909 0.24879
 C118 C 0.23227 0.21354 0.23590
 C119 C 0.25863 0.20522 0.24418
 C120 C 0.27552 0.22034 0.26723
 C121 C 0.26742 0.24520 0.28140
 C122 C 0.24135 0.25469 0.27204
 C123 C 0.19043 0.27426 0.25197
 C124 C 0.20698 0.28908 0.27564
 C125 C 0.23240 0.27961 0.28621
 C126 C 0.24925 0.29459 0.31032
 C127 C 0.27502 0.28535 0.31852
 C128 C 0.28443 0.26087 0.30489
 H129 H 0.26684 0.18710 0.23262
 H130 H 0.29502 0.21215 0.27376
 H131 H 0.17085 0.28231 0.24531
 H132 H 0.19971 0.30825 0.28523
 H133 H 0.17548 0.19664 0.18688
 H134 H 0.28782 0.29720 0.33688
 C135 C 0.71564 0.68678 0.25741
 C136 C 0.69026 0.69509 0.26919
 C137 C 0.67997 0.72011 0.25975
 C138 C 0.69488 0.73682 0.23543
 C139 C 0.72072 0.72856 0.22303
 C140 C 0.73143 0.70378 0.23485
 C141 C 0.75760 0.69674 0.22395
 C142 C 0.77333 0.71401 0.20268
 C143 C 0.76300 0.73837 0.18988
 C144 C 0.73627 0.74552 0.19969
 C145 C 0.68522 0.76186 0.22414
 C146 C 0.69985 0.77781 0.19974
 C147 C 0.72535 0.77000 0.18715
 C148 C 0.74070 0.78655 0.16348
 C149 C 0.76718 0.77967 0.15495
 C150 C 0.77880 0.75624 0.16843
 H151 H 0.76636 0.67796 0.23226
 H152 H 0.79363 0.70792 0.19623
 H153 H 0.66625 0.76953 0.23390
 H154 H 0.69129 0.79675 0.19164
 H155 H 0.67869 0.68217 0.28745
 H156 H 0.77914 0.79302 0.13780
 C157 C 0.79501 0.24046 0.20921
 C158 C 0.78780 0.21346 0.20583
 C159 C 0.76277 0.20371 0.21753
 C160 C 0.74424 0.22150 0.23393
 C161 C 0.75087 0.24917 0.23682
 C162 C 0.77634 0.25873 0.22427
 C163 C 0.78259 0.28611 0.22779
 C164 C 0.76416 0.30386 0.24295
 C165 C 0.73906 0.29484 0.25619
 C166 C 0.73218 0.26725 0.25281
 C167 C 0.71976 0.21223 0.24866
 C168 C 0.70173 0.22982 0.26509
 C169 C 0.70701 0.25755 0.26636
 C170 C 0.68839 0.27581 0.28195
 C171 C 0.69542 0.30301 0.28406
 C172 C 0.72059 0.31269 0.27267
 H173 H 0.80184 0.29410 0.21891
 H174 H 0.76983 0.32482 0.24414
 H175 H 0.71458 0.19113 0.24835
 H176 H 0.68377 0.22119 0.27715
 H177 H 0.80188 0.19975 0.19303
 H178 H 0.68136 0.31689 0.29649
 C179 C 0.30769 0.72379 0.28571
 C180 C 0.30156 0.69701 0.29338
 C181 C 0.27663 0.68553 0.28443
 C182 C 0.25717 0.70096 0.26578
 C183 C 0.26341 0.72783 0.25597
 C184 C 0.28875 0.73934 0.26603
 C185 C 0.29418 0.76607 0.25656
 C186 C 0.27570 0.78092 0.23644
 C187 C 0.25024 0.77029 0.22690
 C188 C 0.24408 0.74335 0.23658
 C189 C 0.23175 0.69023 0.25662
 C190 C 0.21282 0.70543 0.23784
 C191 C 0.21883 0.73171 0.22648
 C192 C 0.20017 0.74680 0.20564
 C193 C 0.20636 0.77348 0.19726
 C194 C 0.23092 0.78555 0.20733
 H195 H 0.31291 0.77586 0.26417
 H196 H 0.28185 0.80084 0.22838
 H197 H 0.22626 0.66989 0.26380
 H198 H 0.19332 0.69633 0.23249
 H199 H 0.31615 0.68513 0.30838
 H200 H 0.19199 0.78499 0.18140
 C201 C 0.80411 0.22684 0.76386
 C202 C 0.79224 0.20398 0.77920
 C203 C 0.76433 0.19944 0.77844
 C204 C 0.74763 0.21808 0.76008
 C205 C 0.75952 0.24084 0.74272
 C206 C 0.78782 0.24517 0.74455
 C207 C 0.79915 0.26747 0.72658
 C208 C 0.78295 0.28587 0.70846
 C209 C 0.75476 0.28282 0.70782
 C210 C 0.74300 0.25968 0.72426
 C211 C 0.71941 0.21517 0.75947
 C212 C 0.70336 0.23307 0.74020
 C213 C 0.71477 0.25521 0.72201
 C214 C 0.69857 0.27337 0.70233
 C215 C 0.71021 0.29664 0.68789
 C216 C 0.73797 0.30182 0.69037
 H217 H 0.82074 0.27072 0.72600
 H218 H 0.79289 0.30235 0.69459
 H219 H 0.70928 0.19916 0.77400
 H220 H 0.68177 0.22973 0.74038
 H221 H 0.80496 0.18999 0.79385
 H222 H 0.69742 0.31075 0.67358
 C223 C 0.30724 0.73835 0.71344
 C224 C 0.29583 0.71487 0.69888
 C225 C 0.27035 0.70574 0.70987
 C226 C 0.25602 0.72007 0.73727
 C227 C 0.26718 0.74416 0.75194
 C228 C 0.29264 0.75366 0.73941
 C229 C 0.30298 0.77792 0.75361
 C230 C 0.28842 0.79279 0.77925
 C231 C 0.26352 0.78340 0.79271
 C232 C 0.25300 0.75864 0.77956
 C233 C 0.23112 0.71076 0.75081
 C234 C 0.21738 0.72482 0.77815
 C235 C 0.22819 0.74851 0.79360
 C236 C 0.21466 0.76273 0.82209
 C237 C 0.22500 0.78763 0.83368
 C238 C 0.24872 0.79829 0.81878
 H239 H 0.32231 0.78576 0.74476
 H240 H 0.29711 0.81154 0.78895
 H241 H 0.22207 0.69233 0.74069
 H242 H 0.19798 0.71699 0.78662
 H243 H 0.30704 0.70349 0.67847
 H244 H 0.21437 0.79907 0.85459
 C245 C 0.24301 0.20175 0.82612
 C246 C 0.21943 0.21358 0.83904
 C247 C 0.21099 0.23859 0.82639
 C248 C 0.22656 0.25213 0.79926
 C249 C 0.25110 0.24076 0.78685
 C250 C 0.25958 0.21569 0.80083
 C251 C 0.28408 0.20496 0.78858
 C252 C 0.30017 0.21872 0.76337
 C253 C 0.29182 0.24318 0.74839
 C254 C 0.26686 0.25413 0.75968
 C255 C 0.21803 0.27631 0.78350
 C256 C 0.23342 0.28934 0.75673
 C257 C 0.25767 0.27842 0.74389
 C258 C 0.27325 0.29121 0.71605
 C259 C 0.29824 0.28049 0.70637
 C260 C 0.30783 0.25710 0.72249
 H261 H 0.29118 0.18593 0.79870
 H262 H 0.31906 0.20979 0.75524
 H263 H 0.19915 0.28533 0.79126
 H264 H 0.22611 0.30822 0.74647
 H265 H 0.20717 0.20279 0.85899
 H266 H 0.31046 0.29037 0.68550
 C267 C 0.75053 0.71646 0.68024
 C268 C 0.72390 0.72394 0.67319
 C269 C 0.71269 0.74674 0.68925
 C270 C 0.72847 0.76313 0.71300
 C271 C 0.75536 0.75577 0.72124
 C272 C 0.76650 0.73237 0.70484
 C273 C 0.79301 0.72533 0.71420
 C274 C 0.80853 0.74123 0.73804
 C275 C 0.79781 0.76421 0.75488
 C276 C 0.77094 0.77159 0.74649
 C277 C 0.71796 0.78648 0.72903
 C278 C 0.73336 0.80219 0.75319
 C279 C 0.75957 0.79470 0.76335
 C280 C 0.77493 0.80984 0.78950
 C281 C 0.80149 0.80236 0.79681
 C282 C 0.81322 0.78014 0.77980
 H283 H 0.80206 0.70732 0.70344
 H284 H 0.82903 0.73514 0.74336
 H285 H 0.69766 0.79290 0.72299
 H286 H 0.72443 0.82035 0.76369
 H287 H 0.71156 0.71188 0.65449
 H288 H 0.81316 0.81359 0.81722
 C289 C 0.23611 0.06002 0.10903
 C290 C 0.22839 0.08452 0.12488
 C291 C 0.21143 0.10175 0.10464
 C292 C 0.19984 0.09295 0.07127
 C293 C 0.20622 0.06790 0.05682
 C294 C 0.22560 0.05182 0.07434
 C295 C 0.20655 0.12762 0.11783
 C296 C 0.21680 0.13584 0.15232
 C297 C 0.23093 0.11759 0.17472
 C298 C 0.23750 0.09229 0.16035
 C299 C 0.23797 0.12500 0.21110
 C300 C 0.23154 0.15044 0.22470
 C301 C 0.22014 0.16975 0.20120
 C302 C 0.21271 0.16199 0.16495
 H303 H 0.25041 0.04752 0.12350
 H304 H 0.18620 0.10564 0.05596
 H305 H 0.19753 0.06217 0.03028
 H306 H 0.19459 0.14126 0.10142
 H307 H 0.24949 0.07868 0.17675
 H308 H 0.24788 0.11094 0.22927
 H309 H 0.23584 0.15514 0.25349
 H310 H 0.20351 0.17629 0.14642
 C311 C 0.76912 0.58194 0.56691
 C312 C 0.76378 0.60313 0.59161
 C313 C 0.74026 0.60223 0.61369
 C314 C 0.72237 0.58042 0.61033
 C315 C 0.72734 0.55997 0.58469
 C316 C 0.75070 0.56052 0.56286
 C317 C 0.73457 0.62350 0.63794
 C318 C 0.75144 0.64622 0.63926
 C319 C 0.77467 0.64740 0.61670
 C320 C 0.78101 0.62560 0.59360
 C321 C 0.79064 0.67077 0.61668
 C322 C 0.78323 0.69302 0.63795
 C323 C 0.76037 0.69197 0.66084
 C324 C 0.74479 0.66826 0.66166
 H325 H 0.78697 0.58269 0.54964
 H326 H 0.70419 0.57949 0.62688
 H327 H 0.71291 0.54366 0.58191
 H328 H 0.71653 0.62277 0.65485
 H329 H 0.79884 0.62651 0.57629
 H330 H 0.80833 0.67217 0.59921
 H331 H 0.79502 0.71131 0.63587
 H332 H 0.72687 0.66739 0.67876
 C333 C 0.72387 0.92825 0.07383
 C334 C 0.72600 0.90580 0.09708
 C335 C 0.74362 0.90684 0.12807
 C336 C 0.75792 0.93043 0.13619
 C337 C 0.75622 0.95228 0.11253
 C338 C 0.73981 0.95117 0.08070
 C339 C 0.74776 0.88394 0.14945
 C340 C 0.73516 0.85972 0.13973
 C341 C 0.71676 0.85873 0.10965
 C342 C 0.71204 0.88190 0.08876
 C343 C 0.70435 0.83426 0.10005
 C344 C 0.71116 0.81084 0.11884
 C345 C 0.73029 0.81164 0.14758
 C346 C 0.74172 0.83619 0.15852
 H347 H 0.71131 0.92723 0.04918
 H348 H 0.77132 0.93161 0.15996
 H349 H 0.76845 0.96987 0.11851
 H350 H 0.76176 0.88467 0.17263
 H351 H 0.69846 0.88101 0.06513
 H352 H 0.69012 0.83309 0.07722
 H353 H 0.70231 0.79192 0.11009
 H354 H 0.75657 0.83669 0.18067
 C355 C 0.25742 0.42026 0.59242
 C356 C 0.26313 0.39975 0.61771
 C357 C 0.28834 0.39956 0.63614
 C358 C 0.30752 0.41956 0.62858
 C359 C 0.30192 0.43949 0.60277
 C360 C 0.27686 0.44012 0.58457
 C361 C 0.29420 0.37915 0.66137
 C362 C 0.27556 0.35837 0.66749
 C363 C 0.25054 0.35822 0.64861
 C364 C 0.24429 0.37916 0.62431
 C365 C 0.23255 0.33669 0.65357
 C366 C 0.23959 0.31519 0.67620
 C367 C 0.26429 0.31530 0.69540
 C368 C 0.28201 0.33721 0.69123
 H369 H 0.23810 0.42047 0.57828
 H370 H 0.32696 0.41966 0.64236
 H371 H 0.31713 0.45467 0.59736
 H372 H 0.31353 0.37908 0.67551
 H373 H 0.22507 0.37907 0.60988
 H374 H 0.21341 0.33606 0.63901
 H375 H 0.22600 0.29815 0.67806
 H376 H 0.30127 0.33728 0.70554
 C377 C 0.92440 0.26340 0.08927
 C378 C 0.90076 0.26585 0.11019
 C379 C 0.87939 0.28167 0.09677
 C380 C 0.88281 0.29619 0.06384
 C381 C 0.90669 0.29405 0.04354
 C382 C 0.92720 0.27706 0.05564
 C383 C 0.85471 0.28193 0.11577
 C384 C 0.85124 0.26662 0.14800
 C385 C 0.87327 0.25224 0.16260
 C386 C 0.89786 0.25197 0.14362
 C387 C 0.87000 0.23732 0.19509
 C388 C 0.84475 0.23524 0.21171
 C389 C 0.82235 0.24806 0.19624
 C390 C 0.82582 0.26436 0.16492
 H391 H 0.94039 0.25040 0.09863
 H392 H 0.86678 0.30863 0.05330
 H393 H 0.90865 0.30463 0.01751
 H394 H 0.83800 0.29331 0.10482
 H395 H 0.91443 0.24020 0.15420
 H396 H 0.88672 0.22639 0.20680
 H397 H 0.84233 0.22251 0.23574
 H398 H 0.80848 0.27396 0.15261
 C399 C 0.44201 0.76985 0.60853
 C400 C 0.41776 0.77077 0.62828
 C401 C 0.39758 0.78899 0.61768
 C402 C 0.40275 0.80703 0.58875
 C403 C 0.42695 0.80578 0.56890
 C404 C 0.44633 0.78652 0.57780
 C405 C 0.37222 0.78796 0.63497
 C406 C 0.36675 0.76857 0.66212
 C407 C 0.38747 0.75118 0.67370
 C408 C 0.41289 0.75263 0.65704
 C409 C 0.38210 0.73170 0.70059
 C410 C 0.35612 0.72851 0.71458
 C411 C 0.33520 0.74493 0.70232
 C412 C 0.34065 0.76537 0.67670
 H413 H 0.45694 0.75507 0.61584
 H414 H 0.38763 0.82130 0.58040
 H415 H 0.42980 0.81881 0.54530
 H416 H 0.35646 0.80143 0.62619
 H417 H 0.42848 0.73879 0.66528
 H418 H 0.39776 0.71831 0.70981
 H419 H 0.35207 0.71263 0.73421
 H420 H 0.32437 0.77786 0.66702
 C421 C 0.06602 0.72438 0.09293
 C422 C 0.08631 0.72957 0.11934
 C423 C 0.08550 0.75328 0.14090
 C424 C 0.06465 0.77152 0.13540
 C425 C 0.04545 0.76698 0.10763
 C426 C 0.04598 0.74350 0.08581
 C427 C 0.10624 0.75906 0.16628
 C428 C 0.12876 0.74242 0.16849
 C429 C 0.12989 0.71899 0.14641
 C430 C 0.10822 0.71222 0.12293
 C431 C 0.15333 0.70356 0.14659
 C432 C 0.17592 0.71205 0.16688
 C433 C 0.17501 0.73528 0.18905
 C434 C 0.15094 0.74986 0.19056
 H435 H 0.06700 0.70630 0.07621
 H436 H 0.06379 0.78983 0.15160
 H437 H 0.03019 0.78200 0.10324
 H438 H 0.10562 0.77731 0.18269
 H439 H 0.10915 0.69428 0.10589
 H440 H 0.15471 0.68575 0.12944
 H441 H 0.19447 0.70098 0.16416
 H442 H 0.15012 0.76800 0.20718
 C443 C 0.56153 0.24364 0.60098
 C444 C 0.58580 0.24276 0.62088
 C445 C 0.60484 0.22279 0.61251
 C446 C 0.59866 0.20332 0.58547
 C447 C 0.57445 0.20448 0.56551
 C448 C 0.55603 0.22508 0.57238
 C449 C 0.63010 0.22329 0.63021
 C450 C 0.63669 0.24388 0.65547
 C451 C 0.61721 0.26327 0.66474
 C452 C 0.59178 0.26236 0.64775
 C453 C 0.62392 0.28405 0.68952
 C454 C 0.65012 0.28650 0.70342
 C455 C 0.66986 0.26796 0.69331
 C456 C 0.66286 0.24625 0.67013
 H457 H 0.54735 0.25947 0.60683
 H458 H 0.61293 0.18776 0.57886
 H459 H 0.57066 0.18993 0.54369
 H460 H 0.64498 0.20836 0.62319
 H461 H 0.57709 0.27760 0.65423
 H462 H 0.60921 0.29901 0.69697
 H463 H 0.65531 0.30341 0.72107
 H464 H 0.67823 0.23216 0.66186
 C465 C 0.74248 0.07733 0.91422
 C466 C 0.74717 0.10121 0.89442
 C467 C 0.76598 0.12025 0.90840
 C468 C 0.78093 0.11464 0.94023
 C469 C 0.77756 0.09030 0.95815
 C470 C 0.75801 0.07150 0.94600
 C471 C 0.77028 0.14439 0.88984
 C472 C 0.75767 0.14905 0.85582
 C473 C 0.74013 0.12953 0.84027
 C474 C 0.73420 0.10608 0.86033
 C475 C 0.72973 0.13351 0.80442
 C476 C 0.73727 0.15623 0.78403
 C477 C 0.75398 0.17611 0.80002
 C478 C 0.76356 0.17247 0.83631
 H479 H 0.72771 0.06291 0.90403
 H480 H 0.79566 0.12889 0.95093
 H481 H 0.78974 0.08670 0.98260
 H482 H 0.78439 0.15908 0.90111
 H483 H 0.72039 0.09124 0.84879
 H484 H 0.71665 0.11859 0.79163
 H485 H 0.73038 0.15809 0.75563
 H486 H 0.77671 0.18751 0.84880
 C487 C 0.26299 0.56077 0.41326
 C488 C 0.25903 0.58273 0.38983
 C489 C 0.23941 0.60200 0.39893
 C490 C 0.22309 0.59816 0.43022
 C491 C 0.22678 0.57591 0.45297
 C492 C 0.24717 0.55747 0.44515
 C493 C 0.23694 0.62510 0.37723
 C494 C 0.25388 0.62914 0.34658
 C495 C 0.27245 0.60912 0.33635
 C496 C 0.27486 0.58602 0.35799
 C497 C 0.28924 0.61308 0.30562
 C498 C 0.28895 0.63737 0.28671
 C499 C 0.27170 0.65796 0.29795
 C500 C 0.25358 0.65345 0.32718
 H501 H 0.27849 0.54632 0.40686
 H502 H 0.20778 0.61258 0.43744
 H503 H 0.21435 0.57359 0.47742
 H504 H 0.22247 0.64028 0.38485
 H505 H 0.28965 0.57105 0.35073
 H506 H 0.30344 0.59788 0.29726
 H507 H 0.30322 0.64069 0.26448
 H508 H 0.24060 0.66951 0.33631
 C509 C 0.27701 0.93612 0.91523
 C510 C 0.27937 0.91108 0.89809
 C511 C 0.29430 0.89074 0.91557
 C512 C 0.30821 0.89657 0.94869
 C513 C 0.30521 0.92149 0.96608
 C514 C 0.28848 0.94089 0.95030
 C515 C 0.29354 0.86461 0.90100
 C516 C 0.27732 0.85856 0.86997
 C517 C 0.26354 0.87935 0.85156
 C518 C 0.26510 0.90554 0.86534
 C519 C 0.24716 0.87341 0.82081
 C520 C 0.24324 0.84695 0.80956
 C521 C 0.25586 0.82614 0.82858
 C522 C 0.27345 0.83195 0.85816
 H523 H 0.26424 0.95113 0.90278
 H524 H 0.31998 0.88133 0.96234
 H525 H 0.31418 0.92477 0.99319
 H526 H 0.30426 0.84876 0.91501
 H527 H 0.25380 0.92126 0.85190
 H528 H 0.23659 0.88913 0.80635
 H529 H 0.22970 0.84255 0.78663
 H530 H 0.28312 0.81572 0.87275
 C531 C 0.75347 0.44653 0.37903
 C532 C 0.75400 0.42289 0.35777
 C533 C 0.77392 0.40353 0.36492
 C534 C 0.79399 0.40894 0.39147
 C535 C 0.79342 0.43259 0.41234
 C536 C 0.77266 0.45114 0.40721
 C537 C 0.77280 0.37869 0.34657
 C538 C 0.75192 0.37291 0.32132
 C539 C 0.73298 0.39288 0.31252
 C540 C 0.73420 0.41778 0.33069
 C541 C 0.71234 0.38717 0.28693
 C542 C 0.70950 0.36146 0.27190
 C543 C 0.72727 0.34104 0.28207
 C544 C 0.74887 0.34709 0.30615
 H545 H 0.73751 0.46084 0.37465
 H546 H 0.80957 0.39446 0.39705
 H547 H 0.80840 0.43566 0.43390
 H548 H 0.78756 0.36351 0.35299
 H549 H 0.71912 0.43275 0.32483
 H550 H 0.69778 0.40228 0.27963
 H551 H 0.69268 0.35714 0.25353
 H552 H 0.76234 0.33131 0.31469
 C553 C 0.06968 0.26370 0.92001
 C554 C 0.09253 0.25654 0.89935
 C555 C 0.09365 0.23095 0.88250
 C556 C 0.07224 0.21284 0.88701
 C557 C 0.05013 0.21965 0.90877
 C558 C 0.04850 0.24511 0.92562
 C559 C 0.11647 0.22353 0.86227
 C560 C 0.13876 0.24088 0.86002
 C561 C 0.13801 0.26627 0.87747
 C562 C 0.11465 0.27419 0.89636
 C563 C 0.16096 0.28292 0.87670
 C564 C 0.18461 0.27420 0.85961
 C565 C 0.18538 0.24914 0.84178
 C566 C 0.16221 0.23275 0.84175
 H567 H 0.06902 0.28331 0.93298
 H568 H 0.07285 0.19311 0.87439
 H569 H 0.03421 0.20488 0.91219
 H570 H 0.11724 0.20390 0.84932
 H571 H 0.11404 0.29368 0.90971
 H572 H 0.16088 0.30232 0.89027
 H573 H 0.20247 0.28682 0.86082
 H574 H 0.16277 0.21324 0.82845
 C575 C 0.56180 0.75330 0.39916
 C576 C 0.58489 0.74686 0.37842
 C577 C 0.60819 0.73766 0.39702
 C578 C 0.60777 0.73403 0.43550
 C579 C 0.58454 0.73952 0.45557
 C580 C 0.56159 0.74943 0.43776
 C581 C 0.63154 0.73197 0.37696
 C582 C 0.63174 0.73429 0.33830
 C583 C 0.60828 0.74233 0.31924
 C584 C 0.58509 0.74909 0.33950
 C585 C 0.60840 0.74301 0.28025
 C586 C 0.63153 0.73572 0.26050
 C587 C 0.65520 0.72873 0.27948
 C588 C 0.65504 0.72808 0.31841
 H589 H 0.54396 0.76079 0.38540
 H590 H 0.62538 0.72682 0.45006
 H591 H 0.58468 0.73663 0.48536
 H592 H 0.64945 0.72530 0.39142
 H593 H 0.56715 0.75562 0.32502
 H594 H 0.59050 0.74869 0.26505
 H595 H 0.63097 0.73549 0.23046
 H596 H 0.67310 0.72226 0.33321
 C597 C 0.94302 0.74742 0.89316
 C598 C 0.92086 0.74681 0.86896
 C599 C 0.90254 0.72494 0.86987
 C600 C 0.90789 0.70312 0.89302
 C601 C 0.93022 0.70377 0.91677
 C602 C 0.94729 0.72634 0.91795
 C603 C 0.87863 0.72583 0.84903
 C604 C 0.87282 0.74839 0.82752
 C605 C 0.89208 0.76938 0.82467
 C606 C 0.91602 0.76838 0.84527
 C607 C 0.88646 0.79173 0.80279
 C608 C 0.86130 0.79416 0.78591
 C609 C 0.84141 0.77427 0.79048
 C610 C 0.84750 0.75104 0.81047
 H611 H 0.95634 0.76477 0.89382
 H612 H 0.89426 0.68605 0.89380
 H613 H 0.93322 0.68736 0.93582
 H614 H 0.86408 0.70953 0.85080
 H615 H 0.93030 0.78495 0.84415
 H616 H 0.90108 0.80786 0.80006
 H617 H 0.85681 0.81224 0.77071
 H618 H 0.83203 0.73586 0.81455
 C619 C 0.42264 0.24227 0.41107
 C620 C 0.39625 0.24472 0.39685
 C621 C 0.37509 0.25210 0.42103
 C622 C 0.38063 0.25794 0.45829
 C623 C 0.40687 0.25649 0.47173
 C624 C 0.42798 0.24843 0.44854
 C625 C 0.34871 0.25397 0.40762
 C626 C 0.34320 0.24999 0.36991
 C627 C 0.36426 0.24371 0.34516
 C628 C 0.39062 0.24044 0.35894
 C629 C 0.35863 0.24170 0.30699
 C630 C 0.33259 0.24665 0.29355
 C631 C 0.31149 0.25236 0.31822
 C632 C 0.31699 0.25342 0.35645
 H633 H 0.43894 0.23609 0.39312
 H634 H 0.36467 0.26378 0.47704
 H635 H 0.41061 0.26094 0.50078
 H636 H 0.33256 0.25935 0.42640
 H637 H 0.40680 0.23533 0.34010
 H638 H 0.37454 0.23731 0.28743
 H639 H 0.32906 0.24662 0.26388
 H640 H 0.30092 0.25819 0.37566
 C641 C 0.74877 0.93467 0.92000
 C642 C 0.75602 0.91533 0.89349
 C643 C 0.78070 0.91807 0.87428
 C644 C 0.79795 0.93974 0.88256
 C645 C 0.79096 0.95842 0.90983
 C646 C 0.76628 0.95617 0.92855
 C647 C 0.78798 0.89884 0.84768
 C648 C 0.77144 0.87631 0.84115
 C649 C 0.74714 0.87319 0.86110
 C650 C 0.73931 0.89299 0.88657
 C651 C 0.73150 0.84989 0.85609
 C652 C 0.74019 0.82956 0.83229
 C653 C 0.76402 0.83263 0.81166
 C654 C 0.77936 0.85633 0.81600
 H655 H 0.72985 0.93261 0.93472
 H656 H 0.81702 0.94205 0.86828
 H657 H 0.80469 0.97486 0.91597
 H658 H 0.80686 0.90102 0.83284
 H659 H 0.72059 0.89064 0.90174
 H660 H 0.71303 0.84697 0.87158
 H661 H 0.72858 0.81111 0.83062
 H662 H 0.79802 0.85875 0.80074
 C663 C 0.24120 0.42670 0.42822
 C664 C 0.24321 0.40670 0.40085
 C665 C 0.26413 0.40816 0.37428
 C666 C 0.28225 0.42980 0.37496
 C667 C 0.28056 0.44916 0.40279
 C668 C 0.26038 0.44754 0.42999
 C669 C 0.26737 0.38744 0.34845
 C670 C 0.25064 0.36474 0.34967
 C671 C 0.22938 0.36338 0.37570
 C672 C 0.22550 0.38461 0.40072
 C673 C 0.21319 0.34024 0.37739
 C674 C 0.21889 0.31819 0.35483
 C675 C 0.24041 0.31921 0.32964
 C676 C 0.25579 0.34278 0.32655
 H677 H 0.22567 0.42528 0.44924
 H678 H 0.29831 0.43128 0.35473
 H679 H 0.29537 0.46524 0.40340
 H680 H 0.28370 0.38842 0.32853
 H681 H 0.20950 0.38338 0.42111
 H682 H 0.19685 0.33879 0.39718
 H683 H 0.20713 0.29996 0.35793
 H684 H 0.27258 0.34345 0.30737
 C685 C 0.26296 0.06315 0.92319
 C686 C 0.26588 0.08802 0.90594
 C687 C 0.28497 0.10681 0.91959
 C688 C 0.30203 0.09955 0.94896
 C689 C 0.29901 0.07456 0.96612
 C690 C 0.27863 0.05654 0.95443
 C691 C 0.28591 0.13273 0.90452
 C692 C 0.26775 0.13999 0.87633
 C693 C 0.24960 0.12056 0.86168
 C694 C 0.24897 0.09472 0.87634
 C695 C 0.23150 0.12754 0.83356
 C696 C 0.23041 0.15385 0.82117
 C697 C 0.24752 0.17354 0.83640
 C698 C 0.26660 0.16652 0.86348
 H699 H 0.24755 0.04938 0.91303
 H700 H 0.31706 0.11353 0.95952
 H701 H 0.31165 0.07006 0.98979
 H702 H 0.30005 0.14745 0.91560
 H703 H 0.23451 0.08012 0.86570
 H704 H 0.21758 0.11285 0.82198
 H705 H 0.21560 0.15910 0.80036
 H706 H 0.27968 0.18184 0.87536
 C707 C 0.75592 0.56533 0.38085
 C708 C 0.75543 0.58771 0.35772
 C709 C 0.77204 0.61014 0.36595
 C710 C 0.79009 0.60899 0.39601
 C711 C 0.79052 0.58643 0.41893
 C712 C 0.77277 0.56489 0.41215
 C713 C 0.76947 0.63361 0.34499
 C714 C 0.75025 0.63491 0.31633
 C715 C 0.73470 0.61191 0.30704
 C716 C 0.73758 0.58842 0.32757
 C717 C 0.71549 0.61314 0.27854
 C718 C 0.71053 0.63734 0.26084
 C719 C 0.72492 0.66055 0.27099
 C720 C 0.74527 0.65915 0.29809
 H721 H 0.74242 0.54855 0.37529
 H722 H 0.80318 0.62587 0.40256
 H723 H 0.80367 0.58638 0.44297
 H724 H 0.78160 0.65113 0.35194
 H725 H 0.72506 0.57106 0.32112
 H726 H 0.70352 0.59567 0.27101
 H727 H 0.69465 0.63826 0.24020
 H728 H 0.75609 0.67721 0.30629
 C729 C 0.07760 0.73583 0.92827
 C730 C 0.09992 0.74380 0.90682
 C731 C 0.10117 0.77005 0.89240
 C732 C 0.08056 0.78807 0.90036
 C733 C 0.05906 0.78040 0.92290
 C734 C 0.05715 0.75420 0.93708
 C735 C 0.12327 0.77814 0.87093
 C736 C 0.14480 0.76073 0.86496
 C737 C 0.14405 0.73474 0.88027
 C738 C 0.12137 0.72623 0.90045
 C739 C 0.16633 0.71796 0.87588
 C740 C 0.18921 0.72698 0.85692
 C741 C 0.18984 0.75250 0.84068
 C742 C 0.16743 0.76922 0.84478
 H743 H 0.07676 0.71566 0.93921
 H744 H 0.08129 0.80830 0.88970
 H745 H 0.04373 0.79508 0.92885
 H746 H 0.12406 0.79824 0.85970
 H747 H 0.12073 0.70623 0.91200
 H748 H 0.16632 0.69812 0.88788
 H749 H 0.20658 0.71409 0.85516
 H750 H 0.16787 0.78909 0.83281
 C751 C 0.55739 0.25121 0.40290
 C752 C 0.58146 0.25839 0.38465
 C753 C 0.59974 0.27645 0.40208
 C754 C 0.59305 0.28828 0.43605
 C755 C 0.56885 0.28172 0.45334
 C756 C 0.55113 0.26273 0.43751
 C757 C 0.62456 0.28231 0.38555
 C758 C 0.63106 0.27124 0.35102
 C759 C 0.61227 0.25457 0.33223
 C760 C 0.58774 0.24778 0.34950
 C761 C 0.61834 0.24526 0.29640
 C762 C 0.64283 0.25232 0.27959
 C763 C 0.66224 0.26761 0.29907
 C764 C 0.65602 0.27700 0.33482
 H765 H 0.54373 0.23664 0.39047
 H766 H 0.60672 0.30236 0.44952
 H767 H 0.56457 0.29064 0.48013
 H768 H 0.63877 0.29565 0.39948
 H769 H 0.57355 0.23445 0.33557
 H770 H 0.60398 0.23293 0.28114
 H771 H 0.64667 0.24577 0.25142
 H772 H 0.67063 0.28918 0.34993
 C773 C 0.93461 0.25364 0.87932
 C774 C 0.91296 0.25556 0.85439
 C775 C 0.89570 0.27787 0.85633
 C776 C 0.90165 0.29881 0.88125
 C777 C 0.92344 0.29684 0.90576
 C778 C 0.93939 0.27381 0.90588
 C779 C 0.87212 0.27822 0.83473
 C780 C 0.86551 0.25641 0.81159
 C781 C 0.88378 0.23503 0.80773
 C782 C 0.90749 0.23484 0.82897
 C783 C 0.87727 0.21339 0.78434
 C784 C 0.85200 0.21188 0.76726
 C785 C 0.83292 0.23202 0.77311
 C786 C 0.84018 0.25476 0.79417
 H787 H 0.94707 0.23593 0.87913
 H788 H 0.88882 0.31620 0.88284
 H789 H 0.92683 0.31256 0.92610
 H790 H 0.85830 0.29481 0.83730
 H791 H 0.92097 0.21793 0.82710
 H792 H 0.89115 0.19699 0.78076
 H793 H 0.84672 0.19420 0.75117
 H794 H 0.82540 0.27016 0.79929
 C795 C 0.43640 0.75600 0.40803
 C796 C 0.41166 0.74982 0.39062
 C797 C 0.39113 0.73671 0.41108
 C798 C 0.39595 0.72891 0.44771
 C799 C 0.42081 0.73423 0.46425
 C800 C 0.44102 0.74809 0.44486
 C801 C 0.36613 0.73130 0.39462
 C802 C 0.36165 0.73757 0.35736
 C803 C 0.38237 0.74950 0.33611
 C804 C 0.40712 0.75617 0.35313
 C805 C 0.37810 0.75384 0.29804
 C806 C 0.35375 0.74589 0.28123
 C807 C 0.33287 0.73475 0.30262
 C808 C 0.33695 0.73108 0.34078
 H809 H 0.45206 0.76660 0.39300
 H810 H 0.38050 0.71868 0.46358
 H811 H 0.42398 0.72829 0.49279
 H812 H 0.35034 0.72159 0.41058
 H813 H 0.42296 0.76568 0.33709
 H814 H 0.39387 0.76256 0.28109
 H815 H 0.35136 0.74805 0.25152
 H816 H 0.32107 0.72209 0.35734
 C817 C 0.24263 0.92544 0.10572
 C818 C 0.23852 0.89943 0.11964
 C819 C 0.22759 0.87928 0.09609
 C820 C 0.21938 0.88572 0.06008
 C821 C 0.22272 0.91168 0.04693
 C822 C 0.23493 0.93157 0.06916
 C823 C 0.22521 0.85293 0.10869
 C824 C 0.23256 0.84652 0.14507
 C825 C 0.24181 0.86682 0.16956
 C826 C 0.24529 0.89310 0.15648
 C827 C 0.24710 0.86042 0.20676
 C828 C 0.24334 0.83416 0.21939
 C829 C 0.23569 0.81359 0.19461
 C830 C 0.23030 0.82008 0.15744
 H831 H 0.25198 0.94075 0.12303
 H832 H 0.21071 0.87056 0.04187
 H833 H 0.21692 0.91591 0.01856
 H834 H 0.21745 0.83742 0.09023
 H835 H 0.25304 0.90859 0.17494
 H836 H 0.25363 0.87578 0.22622
 H837 H 0.24645 0.82990 0.24851
 H838 H 0.22391 0.80450 0.13818
 C839 C 0.76240 0.43459 0.57613
 C840 C 0.75756 0.40909 0.59154
 C841 C 0.74163 0.39015 0.57166
 C842 C 0.73026 0.39702 0.53753
 C843 C 0.73436 0.42248 0.52316
 C844 C 0.75046 0.44143 0.54207
 C845 C 0.73680 0.36471 0.58635
 C846 C 0.74664 0.35814 0.62149
 C847 C 0.76195 0.37707 0.64209
 C848 C 0.76781 0.40230 0.62666
 C849 C 0.77042 0.37062 0.67816
 C850 C 0.76316 0.34597 0.69383
 C851 C 0.74821 0.32698 0.67320
 C852 C 0.74044 0.33315 0.63680
 H853 H 0.77479 0.44919 0.59082
 H854 H 0.71795 0.38276 0.52208
 H855 H 0.72533 0.42725 0.49662
 H856 H 0.72470 0.35026 0.57086
 H857 H 0.77968 0.41682 0.64232
 H858 H 0.78193 0.38493 0.69462
 H859 H 0.76877 0.34191 0.72230
 H860 H 0.72869 0.31870 0.62082
 C861 C 0.74317 0.06842 0.11173
 C862 C 0.73943 0.09171 0.13300
 C863 C 0.71902 0.10989 0.12304
 C864 C 0.70153 0.10352 0.09356
 C865 C 0.70531 0.08022 0.07264
 C866 C 0.72674 0.06300 0.08071
 C867 C 0.71726 0.13464 0.14148
 C868 C 0.73593 0.14157 0.16936
 C869 C 0.75524 0.12265 0.18085
 C870 C 0.75670 0.09776 0.16282
 C871 C 0.77384 0.12953 0.20873
 C872 C 0.77474 0.15554 0.22301
 C873 C 0.75688 0.17500 0.20999
 C874 C 0.73678 0.16764 0.18423
 H875 H 0.75958 0.05509 0.11838
 H876 H 0.68559 0.11706 0.08577
 H877 H 0.69238 0.07644 0.04888
 H878 H 0.70224 0.14899 0.13292
 H879 H 0.77214 0.08367 0.17078
 H880 H 0.78861 0.11522 0.21809
 H881 H 0.79040 0.16095 0.24276
 H882 H 0.72321 0.18272 0.17376
 C883 C 0.24945 0.57053 0.60057
 C884 C 0.25444 0.59141 0.62602
 C885 C 0.27779 0.59080 0.64868
 C886 C 0.29551 0.56926 0.64591
 C887 C 0.29093 0.54918 0.61959
 C888 C 0.26815 0.54986 0.59647
 C889 C 0.28380 0.61229 0.67248
 C890 C 0.26745 0.63495 0.67278
 C891 C 0.24397 0.63560 0.65045
 C892 C 0.23730 0.61357 0.62775
 C893 C 0.22822 0.65876 0.65003
 C894 C 0.23630 0.68141 0.67032
 C895 C 0.25982 0.68096 0.69204
 C896 C 0.27500 0.65749 0.69372
 H897 H 0.23204 0.57124 0.58234
 H898 H 0.31347 0.56849 0.66305
 H899 H 0.30549 0.53328 0.61677
 H900 H 0.30188 0.61190 0.68946
 H901 H 0.21951 0.61419 0.61023
 H902 H 0.21022 0.65969 0.63300
 H903 H 0.22461 0.69954 0.66833
 H904 H 0.29330 0.65724 0.71025
 C905 C 0.92494 0.73666 0.08947
 C906 C 0.89912 0.73399 0.10477
 C907 C 0.88222 0.71240 0.09373
 C908 C 0.89224 0.69288 0.06936
 C909 C 0.91814 0.69562 0.05440
 C910 C 0.93427 0.71801 0.06338
 C911 C 0.85538 0.71131 0.10610
 C912 C 0.84533 0.73157 0.12931
 C913 C 0.86285 0.75227 0.14191
 C914 C 0.88959 0.75330 0.12964
 C915 C 0.85311 0.77225 0.16554
 C916 C 0.82599 0.77250 0.17536
 C917 C 0.80807 0.75282 0.16178
 C918 C 0.81789 0.73210 0.13914
 H919 H 0.93740 0.75390 0.09668
 H920 H 0.87971 0.67604 0.06083
 H921 H 0.92494 0.68109 0.03416
 H922 H 0.84214 0.69521 0.09677
 H923 H 0.90271 0.76965 0.13846
 H924 H 0.86632 0.78812 0.17562
 H925 H 0.81870 0.78862 0.19275
 H926 H 0.80404 0.71707 0.12825
 C927 C 0.43885 0.22704 0.61233
 C928 C 0.41532 0.22477 0.63344
 C929 C 0.39406 0.20785 0.62110
 C930 C 0.39763 0.19201 0.58922
 C931 C 0.42114 0.19460 0.56810
 C932 C 0.44135 0.21300 0.57871
 C933 C 0.36915 0.20832 0.63950
 C934 C 0.36515 0.22603 0.66936
 C935 C 0.38701 0.24176 0.68286
 C936 C 0.41205 0.24069 0.66518
 C937 C 0.38307 0.25961 0.71243
 C938 C 0.35732 0.26327 0.72681
 C939 C 0.33530 0.24885 0.71229
 C940 C 0.33934 0.22959 0.68442
 H941 H 0.45452 0.24112 0.62078
 H942 H 0.38168 0.17872 0.57952
 H943 H 0.42269 0.18365 0.54219
 H944 H 0.35251 0.19607 0.62930
 H945 H 0.42848 0.25347 0.67475
 H946 H 0.39962 0.27169 0.72318
 H947 H 0.35431 0.27827 0.74818
 H948 H 0.32218 0.21868 0.67306
 C949 C 0.05713 0.26397 0.08488
 C950 C 0.07555 0.25710 0.11287
 C951 C 0.07141 0.23343 0.13355
 C952 C 0.04881 0.21721 0.12618
 C953 C 0.03098 0.22381 0.09771
 C954 C 0.03511 0.24704 0.07653
 C955 C 0.09039 0.22584 0.16034
 C956 C 0.11397 0.24109 0.16579
 C957 C 0.11805 0.26485 0.14528
 C958 C 0.09859 0.27296 0.11945
 C959 C 0.14207 0.27950 0.14978
 C960 C 0.16237 0.27011 0.17309
 C961 C 0.15871 0.24637 0.19333
 C962 C 0.13414 0.23226 0.19011
 H963 H 0.06060 0.28182 0.06854
 H964 H 0.04529 0.19902 0.14178
 H965 H 0.01404 0.21056 0.09198
 H966 H 0.08731 0.20753 0.17588
 H967 H 0.10189 0.29102 0.10346
 H968 H 0.14563 0.29764 0.13411
 H969 H 0.18138 0.28092 0.17432
 H970 H 0.13125 0.21380 0.20533
 C971 C 0.57085 0.77232 0.60108
 C972 C 0.59617 0.77430 0.61813
 C973 C 0.61501 0.79373 0.60592
 C974 C 0.60748 0.81185 0.57820
 C975 C 0.58223 0.80950 0.56096
 C976 C 0.56414 0.78908 0.57136
 C977 C 0.64136 0.79383 0.62031
 C978 C 0.64915 0.77432 0.64604
 C979 C 0.62985 0.75563 0.65928
 C980 C 0.60342 0.75601 0.64562
 C981 C 0.63757 0.73600 0.68467
 C982 C 0.66445 0.73398 0.69550
 C983 C 0.68391 0.75176 0.68155
 C984 C 0.67616 0.77230 0.65744
 H985 H 0.55691 0.75666 0.60956
 H986 H 0.62155 0.82704 0.56868
 H987 H 0.57750 0.82265 0.53811
 H988 H 0.65606 0.80826 0.61028
 H989 H 0.58887 0.74121 0.65508
 H990 H 0.62301 0.72161 0.69513
 H991 H 0.67030 0.71801 0.71399
 H992 H 0.69132 0.78584 0.64644
   
