data_POSCAR
  _audit_creation_date              2014-09-24
  _audit_creation_method            'ToBaCCo'
  _symmetry_space_group_name_H-M    'P1'
  _symmetry_Int_Tables_number       1
  _symmetry_cell_setting            triclinic
  loop_
  _symmetry_equiv_pos_as_xyz
 x,y,z
_cell_length_a 58.7383
_cell_length_b 58.7407
_cell_length_c 22.4990
_cell_angle_alpha 89.991100
_cell_angle_beta 89.935900
_cell_angle_gamma 120.100000
loop_
  _atom_site_label
  _atom_site_type_symbol
  _atom_site_fract_x
  _atom_site_fract_y
  _atom_site_fract_z
C1 C 0.18615 0.49372 0.49554
 C2 C 0.19994 0.49669 0.44292
 C3 C 0.22382 0.49675 0.44420
 C4 C 0.23351 0.49226 0.49798
 C5 C 0.21870 0.48856 0.55050
 C6 C 0.19562 0.49000 0.54933
 C7 C 0.25858 0.49115 0.49919
 C8 C 0.27251 0.49457 0.55292
 C9 C 0.29525 0.49251 0.55412
 C10 C 0.30532 0.48852 0.50152
 C11 C 0.29241 0.48581 0.44780
 C12 C 0.26888 0.48639 0.44668
 H13 H 0.16785 0.49411 0.49458
 H14 H 0.23452 0.50030 0.40294
 H15 H 0.22463 0.48426 0.59252
 H16 H 0.26606 0.49885 0.59425
 H17 H 0.32321 0.48740 0.50244
 H18 H 0.25884 0.48287 0.40459
 C19 C 0.48951 -0.31631 0.49565
 C20 C 0.49352 -0.30207 0.44325
 C21 C 0.49208 -0.27898 0.44375
 C22 C 0.48533 -0.27048 0.49635
 C23 C 0.48075 -0.28560 0.54860
 C24 C 0.48351 -0.30795 0.54843
 C25 C 0.48341 -0.24592 0.49682
 C26 C 0.48683 -0.23172 0.55010
 C27 C 0.48487 -0.20893 0.55032
 C28 C 0.48067 -0.19931 0.49730
 C29 C 0.47791 -0.21257 0.44403
 C30 C 0.47856 -0.23606 0.44382
 H31 H 0.49128 -0.33386 0.49547
 H32 H 0.49658 -0.26769 0.40310
 H33 H 0.47503 -0.28025 0.58966
 H34 H 0.49141 -0.23787 0.59150
 H35 H 0.47990 -0.18123 0.49737
 H36 H 0.47533 -0.24634 0.40207
 C37 C 1.30630 0.81737 0.50735
 C38 C 1.29735 0.80361 0.45396
 C39 C 1.27519 0.77829 0.45361
 C40 C 1.26069 0.76695 0.50640
 C41 C 1.26982 0.78168 0.55961
 C42 C 1.29279 0.80633 0.56015
 C43 C 1.23612 0.74030 0.50589
 C44 C 1.22613 0.72551 0.55891
 C45 C 1.20253 0.70134 0.55875
 C46 C 1.18939 0.69080 0.50537
 C47 C 1.19919 0.70460 0.45234
 C48 C 1.22197 0.72942 0.45258
 H49 H 1.32369 0.83683 0.50784
 H50 H 1.26950 0.76778 0.41189
 H51 H 1.25920 0.77452 0.60095
 H52 H 1.23635 0.73250 0.60072
 H53 H 1.17127 0.67191 0.50508
 H54 H 1.22809 0.74005 0.41103
 C55 C 0.80973 0.49989 0.49375
 C56 C 0.79622 0.49723 0.44096
 C57 C 0.77241 0.49726 0.44190
 C58 C 0.76249 0.50158 0.49556
 C59 C 0.77699 0.50493 0.54833
 C60 C 0.80003 0.50342 0.54743
 C61 C 0.73766 0.50314 0.49623
 C62 C 0.72353 0.49981 0.54966
 C63 C 0.70119 0.50259 0.55051
 C64 C 0.69167 0.50716 0.49769
 C65 C 0.70481 0.50979 0.44426
 C66 C 0.72796 0.50850 0.44360
 H67 H 0.82805 0.49958 0.49294
 H68 H 0.76205 0.49406 0.40034
 H69 H 0.77097 0.50913 0.59036
 H70 H 0.72964 0.49517 0.59102
 H71 H 0.67418 0.50900 0.49817
 H72 H 0.73828 0.51210 0.40180
 C73 C 0.51639 0.31968 0.50582
 C74 C 0.51289 0.30638 0.45230
 C75 C 0.51247 0.28235 0.45136
 C76 C 0.51690 0.27186 0.50389
 C77 C 0.52105 0.28607 0.55750
 C78 C 0.52006 0.30941 0.55852
 C79 C 0.51695 0.24628 0.50285
 C80 C 0.51207 0.23109 0.55517
 C81 C 0.51258 0.20750 0.55416
 C82 C 0.51660 0.19804 0.50064
 C83 C 0.52072 0.21226 0.44824
 C84 C 0.52162 0.23653 0.44940
 H85 H 0.51606 0.33799 0.50642
 H86 H 0.50839 0.27202 0.40951
 H87 H 0.52510 0.27931 0.59869
 H88 H 0.50756 0.23715 0.59682
 H89 H 0.51633 0.17942 0.49958
 H90 H 0.52600 0.24749 0.40834
 C91 C 0.69265 0.18354 0.50025
 C92 C 0.70611 0.19462 0.44739
 C93 C 0.72925 0.21916 0.44804
 C94 C 0.73861 0.23361 0.50150
 C95 C 0.72420 0.22225 0.55430
 C96 C 0.70182 0.19712 0.55374
 C97 C 0.76339 0.26003 0.50230
 C98 C 0.77815 0.27004 0.55519
 C99 C 0.80117 0.29471 0.55583
 C100 C 0.81048 0.30916 0.50335
 C101 C 0.79663 0.29940 0.45039
 C102 C 0.77291 0.27539 0.44999
 H103 H 0.67513 0.16420 0.49983
 H104 H 0.73986 0.22647 0.40670
 H105 H 0.73010 0.23260 0.59620
 H106 H 0.77224 0.25875 0.59594
 H107 H 0.82872 0.32794 0.50346
 H108 H 0.76221 0.26899 0.40860
 N109 N 1.02652 0.48716 -0.10246
 N110 N 1.04552 0.49308 -0.14121
 N111 N 0.97125 0.44429 -0.05932
 N112 N 0.95194 0.41990 -0.06795
 N113 N 0.97130 0.45993 -0.10114
 N114 N 0.95208 0.44669 -0.13931
 N115 N 1.02667 0.47157 -0.06080
 N116 N 1.04589 0.46643 -0.07016
 C117 C 1.05743 0.48016 -0.12034
 C118 C 0.94014 0.42189 -0.11773
 N119 N 0.97236 0.46248 0.10871
 N120 N 0.95224 0.45083 0.14541
 N121 N 1.02732 0.47319 0.06740
 N122 N 1.04751 0.46944 0.07518
 N123 N 1.02762 0.48971 0.10717
 N124 N 1.04793 0.49764 0.14310
 N125 N 0.97168 0.44580 0.06891
 N126 N 0.95090 0.42220 0.07750
 Mn127 Mn 0.99922 0.45837 0.00414
 C128 C 0.93912 0.42583 0.12549
 C129 C 1.06009 0.48488 0.12251
 N130 N 0.97197 0.50918 -0.10433
 N131 N 0.95261 0.50242 -0.14249
 N132 N 1.02772 0.55297 -0.06551
 N133 N 1.04828 0.57668 -0.07403
 N134 N 1.02725 0.53640 -0.10538
 N135 N 1.04739 0.54831 -0.14210
 N136 N 0.97222 0.52571 -0.06467
 N137 N 0.95295 0.53067 -0.07483
 Mn138 Mn 0.99925 0.49817 -0.10390
 C139 C 0.94093 0.51585 -0.12333
 C140 C 1.06024 0.57333 -0.12193
 N141 N 1.02800 0.53873 0.10425
 N142 N 1.04737 0.55173 0.14212
 N143 N 0.97255 0.52691 0.06355
 N144 N 0.95200 0.53022 0.06990
 N145 N 0.97278 0.51146 0.10547
 N146 N 0.95251 0.50385 0.14147
 N147 N 1.02811 0.55447 0.06268
 N148 N 1.04769 0.57877 0.07120
 Mn149 Mn 1.00021 0.50060 0.10696
 Mn150 Mn 1.00015 0.54035 -0.00101
 Cl151 Cl 0.99971 0.49937 0.00150
 C152 C 1.05949 0.57653 0.12078
 C153 C 0.93984 0.51571 0.11877
 N154 N 0.47830 0.44770 0.06144
 N155 N 0.47561 0.42435 0.07226
 N156 N 0.46251 0.48878 0.09963
 N157 N 0.44879 0.49414 0.13773
 N158 N 0.44699 0.47156 0.06000
 N159 N 0.42218 0.46474 0.07010
 N160 N 0.49362 0.46490 0.10130
 N161 N 0.50181 0.45383 0.14023
 C162 C 0.49053 0.42867 0.12138
 C163 C 0.42379 0.47914 0.11853
 N164 N 0.52452 0.55605 0.05501
 N165 N 0.52853 0.58001 0.06434
 N166 N 0.54034 0.51582 0.09832
 N167 N 0.55421 0.51069 0.13640
 N168 N 0.55554 0.53188 0.05650
 N169 N 0.58029 0.53816 0.06508
 N170 N 0.50935 0.53986 0.09669
 N171 N 0.50264 0.55229 0.13549
 Mn172 Mn 0.50144 0.50236 0.09955
 C173 C 0.51452 0.57716 0.11434
 C174 C 0.57897 0.52468 0.11501
 N175 N 0.44637 0.47033 -0.06814
 N176 N 0.42188 0.46528 -0.07449
 N177 N 0.49262 0.46266 -0.10873
 N178 N 0.50195 0.45144 -0.14418
 N179 N 0.47781 0.44630 -0.06693
 N180 N 0.47671 0.42335 -0.07284
 N181 N 0.46152 0.48652 -0.10982
 N182 N 0.44787 0.49288 -0.14570
 Mn183 Mn 0.46205 0.45860 -0.00345
 C184 C 0.42329 0.47949 -0.12317
 C185 C 0.49187 0.42704 -0.12139
 N186 N 0.55482 0.53030 -0.07175
 N187 N 0.57923 0.53521 -0.07903
 N188 N 0.50817 0.53730 -0.11286
 N189 N 0.49851 0.54786 -0.14936
 N190 N 0.52359 0.55452 -0.07316
 N191 N 0.52478 0.57739 -0.08157
 N192 N 0.53920 0.51336 -0.11164
 N193 N 0.55243 0.50628 -0.14713
 Mn194 Mn 0.53995 0.54354 -0.00844
 Mn195 Mn 0.50036 0.49996 -0.11131
 Cl196 Cl 0.50094 0.50112 -0.00582
 C197 C 0.57725 0.52004 -0.12628
 C198 C 0.50903 0.57275 -0.12937
 N199 N 0.44598 -0.02281 0.07382
 N200 N 0.42148 -0.04195 0.08262
 N201 N 0.49389 0.03095 0.11067
 N202 N 0.50418 0.05160 0.14603
 N203 N 0.47830 0.03261 0.07127
 N204 N 0.47760 0.05459 0.07878
 N205 N 0.46177 -0.02404 0.11330
 N206 N 0.44858 -0.04390 0.15004
 C207 C 0.42359 -0.05480 0.13040
 C208 C 0.49386 0.06608 0.12565
 N209 N 0.55423 0.02360 0.06482
 N210 N 0.57924 0.04179 0.07162
 N211 N 0.50764 -0.02937 0.10927
 N212 N 0.49804 -0.04970 0.14554
 N213 N 0.52181 -0.03176 0.06715
 N214 N 0.52216 -0.05398 0.07366
 N215 N 0.53975 0.02556 0.10677
 N216 N 0.55438 0.04503 0.14325
 Mn217 Mn 0.50077 0.00080 0.11056
 C218 C 0.57884 0.05495 0.12065
 C219 C 0.50729 -0.06475 0.12295
 N220 N 0.47606 0.03153 -0.05699
 N221 N 0.47365 0.05246 -0.06636
 N222 N 0.45837 -0.02566 -0.09629
 N223 N 0.44373 -0.04503 -0.13297
 N224 N 0.44387 -0.02369 -0.05435
 N225 N 0.41884 -0.04178 -0.06142
 N226 N 0.49037 0.02928 -0.09895
 N227 N 0.49810 0.04850 -0.13794
 Mn228 Mn 0.46073 0.00445 0.00853
 C229 C 0.48765 0.06278 -0.11690
 C230 C 0.41925 -0.05488 -0.11055
 N231 N 0.52006 -0.03248 -0.06109
 N232 N 0.52245 -0.05335 -0.07125
 N233 N 0.53636 0.02406 -0.10282
 N234 N 0.54955 0.04390 -0.13961
 N235 N 0.55218 0.02283 -0.06335
 N236 N 0.57668 0.04194 -0.07227
 N237 N 0.50437 -0.03096 -0.10041
 N238 N 0.49565 -0.05066 -0.13834
 Mn239 Mn 0.53740 -0.00449 0.00187
 Mn240 Mn 0.49736 -0.00084 -0.10016
 Cl241 Cl 0.49906 -0.00002 0.00516
 C242 C 0.50695 -0.06446 -0.11935
 C243 C 0.57456 0.05477 -0.12008
 C244 C 1.12412 0.49168 0.21003
 C245 C 1.14416 0.51685 0.22879
 C246 C 1.16295 0.51903 0.27159
 C247 C 1.16168 0.49604 0.29484
 C248 C 1.14300 0.47101 0.27231
 C249 C 1.12413 0.46883 0.22984
 C250 C 1.10527 0.44357 0.20891
 C251 C 1.10513 0.42109 0.22924
 C252 C 1.12361 0.42321 0.27076
 C253 C 1.14235 0.44783 0.29227
 C254 C 1.18237 0.54433 0.29093
 C255 C 1.18344 0.56690 0.26798
 C256 C 1.16525 0.56478 0.22565
 C257 C 1.14566 0.54008 0.20645
 C258 C 1.17756 0.49771 0.34588
 C259 C 1.18900 0.49789 0.39050
 C260 C 1.10212 0.48915 0.17540
 C261 C 1.08316 0.48703 0.14967
 H262 H 1.09060 0.44097 0.17637
 H263 H 1.09062 0.40192 0.21263
 H264 H 1.12343 0.40569 0.28638
 H265 H 1.15640 0.44851 0.32433
 H266 H 1.19703 0.54691 0.32348
 H267 H 1.19848 0.58613 0.28308
 H268 H 1.16619 0.58237 0.20791
 H269 H 1.13187 0.53938 0.17361
 C270 C 0.51200 0.63482 0.21070
 C271 C 0.53356 0.65119 0.24774
 C272 C 0.53089 0.66722 0.29131
 C273 C 0.50668 0.66674 0.29757
 C274 C 0.48574 0.65176 0.25782
 C275 C 0.48843 0.63577 0.21415
 C276 C 0.46712 0.62068 0.17541
 C277 C 0.44384 0.62144 0.17955
 C278 C 0.44115 0.63696 0.22246
 C279 C 0.46180 0.65198 0.26132
 C280 C 0.55255 0.68308 0.32856
 C281 C 0.57621 0.68315 0.32282
 C282 C 0.57882 0.66747 0.28021
 C283 C 0.55779 0.65160 0.24303
 C284 C 0.50250 0.67957 0.34816
 C285 C 0.49856 0.68889 0.39202
 C286 C 0.51324 0.61535 0.17322
 C287 C 0.51398 0.59833 0.14482
 H288 H 0.46832 0.60831 0.14135
 H289 H 0.42775 0.60982 0.14947
 H290 H 0.42298 0.63740 0.22563
 H291 H 0.45887 0.66387 0.29377
 H292 H 0.55147 0.69568 0.36218
 H293 H 0.59261 0.69545 0.35157
 H294 H 0.59725 0.66760 0.27591
 H295 H 0.56078 0.63982 0.21038
 C296 C 0.36585 -0.11749 0.22100
 C297 C 0.36864 -0.13974 0.23162
 C298 C 0.35277 -0.15852 0.27540
 C299 C 0.33406 -0.15505 0.30775
 C300 C 0.32992 -0.13388 0.29385
 C301 C 0.34589 -0.11503 0.25039
 C302 C 0.34175 -0.09376 0.23802
 C303 C 0.32229 -0.09122 0.26764
 C304 C 0.30664 -0.10966 0.31015
 C305 C 0.31035 -0.13076 0.32335
 C306 C 0.35634 -0.18023 0.28636
 C307 C 0.37483 -0.18352 0.25435
 C308 C 0.39016 -0.16530 0.21111
 C309 C 0.38731 -0.14352 0.19997
 C310 C 0.32047 -0.17182 0.35827
 C311 C 0.30950 -0.18419 0.40233
 C312 C 0.38513 -0.09590 0.18489
 C313 C 0.40209 -0.07731 0.15818
 H314 H 0.35335 -0.07901 0.20506
 H315 H 0.31932 -0.07488 0.25749
 H316 H 0.29154 -0.10762 0.33302
 H317 H 0.29761 -0.14464 0.35659
 H318 H 0.34477 -0.19495 0.31940
 H319 H 0.37731 -0.20026 0.26321
 H320 H 0.40454 -0.16791 0.18651
 H321 H 0.39975 -0.12979 0.16613
 C322 C 0.87460 0.50690 0.20447
 C323 C 0.87421 0.52921 0.22678
 C324 C 0.85503 0.52600 0.26961
 C325 C 0.83641 0.50048 0.28992
 C326 C 0.83551 0.47808 0.26411
 C327 C 0.85462 0.48130 0.22098
 C328 C 0.85349 0.45865 0.19603
 C329 C 0.83393 0.43351 0.21296
 C330 C 0.81541 0.43037 0.25559
 C331 C 0.81614 0.45234 0.28114
 C332 C 0.85531 0.54864 0.29213
 C333 C 0.87399 0.57373 0.27277
 C334 C 0.89277 0.57686 0.23089
 C335 C 0.89299 0.55492 0.20806
 C336 C 0.82009 0.49766 0.34104
 C337 C 0.80822 0.49663 0.38564
 C338 C 0.89702 0.51035 0.17000
 C339 C 0.91635 0.51310 0.14476
 H340 H 0.86756 0.46016 0.16290
 H341 H 0.83329 0.41638 0.19332
 H342 H 0.80041 0.41080 0.26897
 H343 H 0.80126 0.44898 0.31390
 H344 H 0.84103 0.54719 0.32458
 H345 H 0.87388 0.59083 0.29036
 H346 H 0.90722 0.59638 0.21596
 H347 H 0.90788 0.55830 0.17533
 C348 C 0.50132 0.37668 0.22052
 C349 C 0.52306 0.38800 0.25986
 C350 C 0.52606 0.37202 0.30295
 C351 C 0.50724 0.34485 0.30666
 C352 C 0.48625 0.33331 0.26549
 C353 C 0.48329 0.34928 0.22221
 C354 C 0.46197 0.33740 0.18199
 C355 C 0.44408 0.31046 0.18435
 C356 C 0.44697 0.29484 0.22668
 C357 C 0.46777 0.30604 0.26696
 C358 C 0.54779 0.38384 0.34224
 C359 C 0.56592 0.41069 0.33932
 C360 C 0.56286 0.42635 0.29751
 C361 C 0.54180 0.41524 0.25794
 C362 C 0.50857 0.32945 0.35560
 C363 C 0.51016 0.31805 0.39854
 C364 C 0.49671 0.39365 0.18159
 C365 C 0.49344 0.40895 0.15227
 H366 H 0.45898 0.34878 0.14824
 H367 H 0.42790 0.30166 0.15317
 H368 H 0.43303 0.27393 0.22831
 H369 H 0.46929 0.29312 0.29901
 H370 H 0.55104 0.37248 0.37553
 H371 H 0.58241 0.41940 0.36971
 H372 H 0.57692 0.44723 0.29560
 H373 H 0.54043 0.42823 0.22588
 C374 C 0.63950 0.11531 0.20986
 C375 C 0.63813 0.13835 0.22050
 C376 C 0.65452 0.15662 0.26437
 C377 C 0.67228 0.15180 0.29699
 C378 C 0.67506 0.12982 0.28308
 C379 C 0.65859 0.11149 0.23938
 C380 C 0.66130 0.08935 0.22707
 C381 C 0.67986 0.08548 0.25696
 C382 C 0.69599 0.10342 0.29970
 C383 C 0.69367 0.12536 0.31286
 C384 C 0.65232 0.17916 0.27540
 C385 C 0.63460 0.18365 0.24354
 C386 C 0.61871 0.16587 0.20032
 C387 C 0.62027 0.14337 0.18895
 C388 C 0.68578 0.16798 0.34823
 C389 C 0.69575 0.18056 0.39260
 C390 C 0.61941 0.09431 0.17402
 C391 C 0.60153 0.07645 0.14767
 H392 H 0.64926 0.07496 0.19397
 H393 H 0.68174 0.06848 0.24687
 H394 H 0.71038 0.10033 0.32278
 H395 H 0.70669 0.13883 0.34629
 H396 H 0.66437 0.19360 0.30840
 H397 H 0.63318 0.20100 0.25251
 H398 H 0.60493 0.16941 0.17581
 H399 H 0.60748 0.13007 0.15501
 C400 C 0.49922 0.12559 -0.21679
 C401 C 0.48349 0.13758 -0.21471
 C402 C 0.48686 0.15655 -0.25836
 C403 C 0.50595 0.16339 -0.30367
 C404 C 0.52252 0.15232 -0.30405
 C405 C 0.51909 0.13330 -0.26062
 C406 C 0.53552 0.12206 -0.26277
 C407 C 0.55473 0.12938 -0.30659
 C408 C 0.55825 0.14816 -0.34872
 C409 C 0.54238 0.15954 -0.34773
 C410 C 0.47072 0.16804 -0.25592
 C411 C 0.45179 0.16103 -0.21148
 C412 C 0.44850 0.14248 -0.16880
 C413 C 0.46410 0.13080 -0.17024
 C414 C 0.50761 0.18042 -0.35227
 C415 C 0.50956 0.19361 -0.39512
 C416 C 0.49408 0.10414 -0.17680
 C417 C 0.49057 0.08556 -0.14716
 H418 H 0.53379 0.10758 -0.23062
 H419 H 0.56712 0.12060 -0.30751
 H420 H 0.57335 0.15394 -0.38238
 H421 H 0.54591 0.17408 -0.38149
 H422 H 0.47264 0.18260 -0.28811
 H423 H 0.43962 0.17004 -0.21015
 H424 H 0.43377 0.13710 -0.13440
 H425 H 0.46089 0.11650 -0.13610
 C426 C 0.63480 0.51398 -0.21414
 C427 C 0.63122 0.48868 -0.22547
 C428 C 0.64678 0.48546 -0.26946
 C429 C 0.66596 0.50761 -0.30128
 C430 C 0.67100 0.53315 -0.28634
 C431 C 0.65533 0.53633 -0.24268
 C432 C 0.66033 0.56198 -0.22933
 C433 C 0.68033 0.58391 -0.25821
 C434 C 0.69568 0.58082 -0.30092
 C435 C 0.69114 0.55578 -0.31507
 C436 C 0.64242 0.45992 -0.28122
 C437 C 0.62346 0.43819 -0.24973
 C438 C 0.60842 0.44137 -0.20629
 C439 C 0.61205 0.46627 -0.19440
 C440 C 0.67900 0.50421 -0.35252
 C441 C 0.68952 0.50270 -0.39721
 C442 C 0.61564 0.51669 -0.17865
 C443 C 0.59873 0.51864 -0.15275
 H444 H 0.64898 0.56535 -0.19618
 H445 H 0.68395 0.60340 -0.24733
 H446 H 0.71121 0.59791 -0.32322
 H447 H 0.70367 0.55439 -0.34843
 H448 H 0.65375 0.45656 -0.31443
 H449 H 0.62039 0.41878 -0.25915
 H450 H 0.59367 0.42441 -0.18209
 H451 H 0.59983 0.46779 -0.16042
 C452 C 0.88029 0.36257 -0.21155
 C453 C 0.85681 0.36319 -0.22137
 C454 C 0.83856 0.34649 -0.26493
 C455 C 0.84388 0.32920 -0.29815
 C456 C 0.86644 0.32728 -0.28533
 C457 C 0.88472 0.34403 -0.24188
 C458 C 0.90739 0.34211 -0.23056
 C459 C 0.91185 0.32410 -0.26122
 C460 C 0.89397 0.30771 -0.30374
 C461 C 0.87151 0.30922 -0.31590
 C462 C 0.81550 0.34786 -0.27498
 C463 C 0.81052 0.36513 -0.24260
 C464 C 0.82829 0.38135 -0.19973
 C465 C 0.85126 0.38055 -0.18921
 C466 C 0.82753 0.31528 -0.34885
 C467 C 0.81477 0.30497 -0.39282
 C468 C 0.90093 0.38260 -0.17485
 C469 C 0.91861 0.40010 -0.14720
 H470 H 0.92178 0.35438 -0.19770
 H471 H 0.92926 0.32284 -0.25192
 H472 H 0.89753 0.29375 -0.32743
 H473 H 0.85811 0.29602 -0.34919
 H474 H 0.80104 0.33552 -0.30765
 H475 H 0.79277 0.36591 -0.25078
 H476 H 0.82434 0.39474 -0.17473
 H477 H 0.86452 0.39355 -0.15546
 C478 C 0.49563 -0.12789 -0.21693
 C479 C 0.51380 -0.13701 -0.21889
 C480 C 0.51085 -0.15597 -0.26211
 C481 C 0.48973 -0.16568 -0.30297
 C482 C 0.47072 -0.15764 -0.29880
 C483 C 0.47371 -0.13865 -0.25575
 C484 C 0.45478 -0.13046 -0.25339
 C485 C 0.43354 -0.14072 -0.29248
 C486 C 0.43050 -0.15945 -0.33427
 C487 C 0.44882 -0.16787 -0.33764
 C488 C 0.52948 -0.16450 -0.26390
 C489 C 0.55042 -0.15464 -0.22396
 C490 C 0.55330 -0.13611 -0.18170
 C491 C 0.53527 -0.12729 -0.17904
 C492 C 0.48853 -0.18222 -0.35221
 C493 C 0.48717 -0.19495 -0.39546
 C494 C 0.50034 -0.10610 -0.17848
 C495 C 0.50376 -0.08736 -0.14963
 H496 H 0.45614 -0.11610 -0.22134
 H497 H 0.41934 -0.13413 -0.29027
 H498 H 0.41389 -0.16746 -0.36433
 H499 H 0.44559 -0.18250 -0.37088
 H500 H 0.52797 -0.17895 -0.29591
 H501 H 0.56447 -0.16142 -0.22583
 H502 H 0.56959 -0.12852 -0.15079
 H503 H 0.53825 -0.11291 -0.14534
 C504 C 0.36479 0.48445 -0.20926
 C505 C 0.36878 0.50967 -0.22365
 C506 C 0.35259 0.51222 -0.26695
 C507 C 0.33238 0.48951 -0.29507
 C508 C 0.32703 0.46419 -0.27701
 C509 C 0.34333 0.46167 -0.23403
 C510 C 0.33800 0.43620 -0.21761
 C511 C 0.31707 0.41382 -0.24281
 C512 C 0.30109 0.41627 -0.28481
 C513 C 0.30594 0.44112 -0.30194
 C514 C 0.35736 0.53764 -0.28184
 C515 C 0.37733 0.55993 -0.25404
 C516 C 0.39300 0.55742 -0.21124
 C517 C 0.38900 0.53264 -0.19637
 C518 C 0.31867 0.49202 -0.34608
 C519 C 0.30776 0.49297 -0.39059
 C520 C 0.38433 0.48212 -0.17447
 C521 C 0.40152 0.48050 -0.14908
 H522 H 0.34982 0.43333 -0.18487
 H523 H 0.31322 0.39448 -0.22963
 H524 H 0.28484 0.39883 -0.30423
 H525 H 0.29290 0.44202 -0.33459
 H526 H 0.34556 0.54050 -0.31467
 H527 H 0.38071 0.57925 -0.26583
 H528 H 0.40854 0.57480 -0.18990
 H529 H 0.40174 0.53165 -0.16303
 C530 C 1.12482 0.62959 -0.21063
 C531 C 1.12572 0.65302 -0.22931
 C532 C 1.14489 0.66967 -0.27151
 C533 C 1.16296 0.66271 -0.29490
 C534 C 1.16329 0.64031 -0.27292
 C535 C 1.14421 0.62374 -0.23040
 C536 C 1.14479 0.60135 -0.20929
 C537 C 1.16376 0.59555 -0.22944
 C538 C 1.18223 0.61159 -0.27152
 C539 C 1.18207 0.63374 -0.29324
 C540 C 1.14514 0.69280 -0.29028
 C541 C 1.12700 0.69931 -0.26790
 C542 C 1.10824 0.68300 -0.22665
 C543 C 1.10749 0.66007 -0.20747
 C544 C 1.17925 0.67714 -0.34539
 C545 C 1.19109 0.68871 -0.38949
 C546 C 1.10261 0.61040 -0.17582
 C547 C 1.08350 0.59385 -0.14973
 H548 H 1.13075 0.58825 -0.17671
 H549 H 1.16400 0.57840 -0.21264
 H550 H 1.19678 0.60687 -0.28737
 H551 H 1.19691 0.64576 -0.32565
 H552 H 1.15944 0.70617 -0.32210
 H553 H 1.12751 0.71710 -0.28264
 H554 H 1.09419 0.68814 -0.20938
 H555 H 1.09262 0.64805 -0.17512
 C556 C 0.87973 0.51046 -0.22028
 C557 C 0.87475 0.53152 -0.22733
 C558 C 0.85624 0.52975 -0.27041
 C559 C 0.84282 0.50693 -0.30606
 C560 C 0.84675 0.48530 -0.29674
 C561 C 0.86533 0.48710 -0.25387
 C562 C 0.86943 0.46548 -0.24648
 C563 C 0.85559 0.44275 -0.28047
 C564 C 0.83726 0.44090 -0.32202
 C565 C 0.83282 0.46187 -0.33028
 C566 C 0.85188 0.55120 -0.27738
 C567 C 0.86542 0.57377 -0.24268
 C568 C 0.88353 0.57550 -0.20059
 C569 C 0.88824 0.55467 -0.19284
 C570 C 0.82667 0.50636 -0.35549
 C571 C 0.81408 0.50538 -0.39869
 C572 C 0.90095 0.51337 -0.18215
 C573 C 0.91904 0.51503 -0.15347
 H574 H 0.88335 0.46587 -0.21445
 H575 H 0.85915 0.42652 -0.27460
 H576 H 0.82647 0.42314 -0.34812
 H577 H 0.81834 0.45948 -0.36312
 H578 H 0.83791 0.55070 -0.30945
 H579 H 0.86183 0.59000 -0.24851
 H580 H 0.89400 0.59307 -0.17377
 H581 H 0.90246 0.55686 -0.15947
 C582 C 0.51068 0.37841 -0.21070
 C583 C 0.52996 0.39140 -0.25544
 C584 C 0.53489 0.37645 -0.29778
 C585 C 0.52039 0.34862 -0.29540
 C586 C 0.50249 0.33572 -0.24824
 C587 C 0.49761 0.35068 -0.20570
 C588 C 0.47926 0.33737 -0.15964
 C589 C 0.46614 0.31001 -0.15555
 C590 C 0.47090 0.29537 -0.19715
 C591 C 0.48882 0.30798 -0.24316
 C592 C 0.55393 0.38981 -0.34269
 C593 C 0.56761 0.41719 -0.34592
 C594 C 0.56264 0.43183 -0.30483
 C595 C 0.54414 0.41920 -0.25989
 C596 C 0.52151 0.33355 -0.34530
 C597 C 0.52139 0.32182 -0.38938
 C598 C 0.50295 0.39364 -0.17366
 C599 C 0.49719 0.40786 -0.14711
 H600 H 0.47500 0.34799 -0.12625
 H601 H 0.45220 0.30011 -0.11991
 H602 H 0.46067 0.27412 -0.19375
 H603 H 0.49200 0.29583 -0.27438
 H604 H 0.55853 0.37925 -0.37553
 H605 H 0.58217 0.42711 -0.38041
 H606 H 0.57338 0.45311 -0.30738
 H607 H 0.54123 0.43149 -0.22856
 C608 C 0.63204 0.11763 -0.21076
 C609 C 0.62787 0.13876 -0.22487
 C610 C 0.64383 0.15755 -0.26851
 C611 C 0.66399 0.15521 -0.29731
 C612 C 0.66939 0.13522 -0.27995
 C613 C 0.65333 0.11635 -0.23658
 C614 C 0.65877 0.09624 -0.22074
 C615 C 0.67956 0.09486 -0.24688
 C616 C 0.69529 0.11331 -0.28928
 C617 C 0.69033 0.13328 -0.30586
 C618 C 0.63891 0.17813 -0.28297
 C619 C 0.61896 0.18028 -0.25455
 C620 C 0.60352 0.16204 -0.21147
 C621 C 0.60771 0.14137 -0.19690
 C622 C 0.67779 0.17185 -0.34787
 C623 C 0.68889 0.18422 -0.39181
 C624 C 0.61292 0.09590 -0.17470
 C625 C 0.59603 0.07727 -0.14794
 H626 H 0.64714 0.08152 -0.18775
 H627 H 0.68350 0.07940 -0.23411
 H628 H 0.71142 0.11216 -0.30945
 H629 H 0.70317 0.14723 -0.33888
 H630 H 0.65052 0.19284 -0.31599
 H631 H 0.61547 0.19616 -0.26605
 H632 H 0.58803 0.16378 -0.18959
 H633 H 0.59514 0.12760 -0.16328
 C634 C 1.11744 0.48494 -0.22074
 C635 C 1.12710 0.46721 -0.21864
 C636 C 1.14523 0.46863 -0.26251
 C637 C 1.15358 0.48781 -0.30804
 C638 C 1.14483 0.50632 -0.30850
 C639 C 1.12665 0.50483 -0.26487
 C640 C 1.11773 0.52320 -0.26712
 C641 C 1.12650 0.54243 -0.31124
 C642 C 1.14448 0.54404 -0.35357
 C643 C 1.15359 0.52625 -0.35247
 C644 C 1.15436 0.45049 -0.26007
 C645 C 1.14588 0.43150 -0.21540
 C646 C 1.12816 0.43012 -0.17250
 C647 C 1.11878 0.44771 -0.17394
 C648 C 1.16973 0.48768 -0.35676
 C649 C 1.18230 0.48832 -0.39976
 C650 C 1.09681 0.48197 -0.18043
 C651 C 1.07905 0.48047 -0.15062
 H652 H 1.10396 0.52298 -0.23485
 H653 H 1.11945 0.55628 -0.31228
 H654 H 1.15140 0.55915 -0.38746
 H655 H 1.16759 0.52834 -0.38639
 H656 H 1.16820 0.45088 -0.29243
 H657 H 1.15309 0.41779 -0.21407
 H658 H 1.12164 0.41534 -0.13791
 H659 H 1.10506 0.44595 -0.13962
 C660 C 0.49104 0.62134 -0.22182
 C661 C 0.47146 0.60859 -0.26596
 C662 C 0.46691 0.62377 -0.30841
 C663 C 0.48211 0.65157 -0.30677
 C664 C 0.50039 0.66429 -0.26025
 C665 C 0.50485 0.64910 -0.21758
 C666 C 0.52356 0.66221 -0.17213
 C667 C 0.53743 0.68960 -0.16881
 C668 C 0.53308 0.70446 -0.21056
 C669 C 0.51481 0.69205 -0.25594
 C670 C 0.44752 0.61064 -0.35262
 C671 C 0.43312 0.58325 -0.35506
 C672 C 0.43772 0.56838 -0.31390
 C673 C 0.45657 0.58079 -0.26964
 C674 C 0.48123 0.66678 -0.35666
 C675 C 0.48168 0.67889 -0.40032
 C676 C 0.49824 0.60580 -0.18444
 C677 C 0.50375 0.59160 -0.15703
 H678 H 0.52753 0.65144 -0.13864
 H679 H 0.55164 0.69934 -0.13366
 H680 H 0.54390 0.72573 -0.20778
 H681 H 0.51198 0.70439 -0.28728
 H682 H 0.44320 0.62139 -0.38550
 H683 H 0.41828 0.57351 -0.38902
 H684 H 0.42642 0.54710 -0.31585
 H685 H 0.45919 0.56835 -0.23821
 C686 C 0.35883 -0.11485 -0.20110
 C687 C 0.33947 -0.11121 -0.22984
 C688 C 0.32315 -0.12936 -0.27400
 C689 C 0.32634 -0.15099 -0.28911
 C690 C 0.34443 -0.15563 -0.25737
 C691 C 0.36068 -0.13752 -0.21310
 C692 C 0.37892 -0.14232 -0.18255
 C693 C 0.38098 -0.16444 -0.19530
 C694 C 0.36519 -0.18207 -0.23886
 C695 C 0.34710 -0.17780 -0.26971
 C696 C 0.30427 -0.12507 -0.30302
 C697 C 0.30155 -0.10347 -0.28869
 C698 C 0.31752 -0.08571 -0.24549
 C699 C 0.33634 -0.08942 -0.21631
 C700 C 0.31290 -0.16698 -0.34063
 C701 C 0.30302 -0.17952 -0.38510
 C702 C 0.37875 -0.09396 -0.16473
 C703 C 0.39656 -0.07622 -0.13795
 H704 H 0.39162 -0.12915 -0.14832
 H705 H 0.39504 -0.16781 -0.17153
 H706 H 0.36698 -0.19913 -0.24883
 H707 H 0.33515 -0.19213 -0.30302
 H708 H 0.29136 -0.13841 -0.33677
 H709 H 0.28697 -0.10050 -0.31121
 H710 H 0.31533 -0.06897 -0.23450
 H711 H 0.34825 -0.07518 -0.18283
 C712 C 0.48721 -0.13254 0.21259
 C713 C 0.46834 -0.13851 0.25813
 C714 C 0.46325 -0.15858 0.30011
 C715 C 0.47718 -0.17241 0.29658
 C716 C 0.49464 -0.16772 0.24866
 C717 C 0.49967 -0.14770 0.20647
 C718 C 0.51757 -0.14297 0.15961
 C719 C 0.53012 -0.15769 0.15443
 C720 C 0.52521 -0.17727 0.19570
 C721 C 0.50772 -0.18228 0.24246
 C722 C 0.44463 -0.16393 0.34581
 C723 C 0.43152 -0.14974 0.35013
 C724 C 0.43665 -0.12995 0.30937
 C725 C 0.45475 -0.12438 0.26368
 C726 C 0.47601 -0.18885 0.34600
 C727 C 0.47619 -0.20072 0.38953
 C728 C 0.49518 -0.10945 0.17578
 C729 C 0.50131 -0.08938 0.14916
 H730 H 0.52193 -0.12798 0.12644
 H731 H 0.54372 -0.15388 0.11821
 H732 H 0.53500 -0.18865 0.19147
 H733 H 0.50440 -0.19777 0.27338
 H734 H 0.43993 -0.17921 0.37844
 H735 H 0.41727 -0.15415 0.38521
 H736 H 0.42635 -0.11903 0.31276
 H737 H 0.45781 -0.10902 0.23265
 C738 C 0.36474 0.47939 0.21383
 C739 C 0.37001 0.50390 0.23748
 C740 C 0.35282 0.50483 0.28065
 C741 C 0.33051 0.48123 0.30003
 C742 C 0.32443 0.45691 0.27388
 C743 C 0.34160 0.45599 0.23057
 C744 C 0.33536 0.43143 0.20569
 C745 C 0.31274 0.40840 0.22301
 C746 C 0.29595 0.40929 0.26537
 C747 C 0.30165 0.43323 0.29074
 C748 C 0.35873 0.52953 0.30437
 C749 C 0.38103 0.55263 0.28610
 C750 C 0.39789 0.55170 0.24405
 C751 C 0.39252 0.52769 0.21978
 C752 C 0.31530 0.48188 0.35024
 C753 C 0.30405 0.48319 0.39382
 C754 C 0.38430 0.47820 0.17654
 C755 C 0.40171 0.47809 0.14839
 H756 H 0.34781 0.42981 0.17247
 H757 H 0.30822 0.38976 0.20343
 H758 H 0.27842 0.39134 0.27866
 H759 H 0.28799 0.43299 0.32339
 H760 H 0.34617 0.53125 0.33710
 H761 H 0.38527 0.57135 0.30472
 H762 H 0.41524 0.56966 0.23019
 H763 H 0.40616 0.52802 0.18697
 C764 C 1.12051 0.63163 0.21904
 C765 C 1.13023 0.65907 0.21733
 C766 C 1.14853 0.67570 0.26096
 C767 C 1.15700 0.66476 0.30587
 C768 C 1.14826 0.63748 0.30581
 C769 C 1.12989 0.62085 0.26242
 C770 C 1.12093 0.59352 0.26424
 C771 C 1.12982 0.58296 0.30771
 C772 C 1.14799 0.59926 0.34977
 C773 C 1.15716 0.62621 0.34907
 C774 C 1.15770 0.70302 0.25896
 C775 C 1.14907 0.71363 0.21496
 C776 C 1.13118 0.69737 0.17229
 C777 C 1.12177 0.67036 0.17330
 C778 C 1.17312 0.68090 0.35475
 C779 C 1.18554 0.69269 0.39797
 C780 C 1.09956 0.61402 0.17938
 C781 C 1.08150 0.59781 0.15020
 H782 H 1.10701 0.58002 0.23214
 H783 H 1.12271 0.56202 0.30849
 H784 H 1.15502 0.59099 0.38314
 H785 H 1.17131 0.63806 0.38275
 H786 H 1.17168 0.71642 0.29116
 H787 H 1.15631 0.73459 0.21397
 H788 H 1.12455 0.70571 0.13822
 H789 H 1.10792 0.65846 0.13917
 C790 C 0.51266 0.13375 0.21471
 C791 C 0.49768 0.14652 0.21239
 C792 C 0.50224 0.16634 0.25467
 C793 C 0.52174 0.17324 0.29891
 C794 C 0.53808 0.16193 0.29829
 C795 C 0.53349 0.14207 0.25615
 C796 C 0.54960 0.13048 0.25751
 C797 C 0.56964 0.13829 0.29934
 C798 C 0.57425 0.15787 0.34025
 C799 C 0.55868 0.16959 0.34001
 C800 C 0.48666 0.17847 0.25237
 C801 C 0.46719 0.17128 0.20930
 C802 C 0.46275 0.15189 0.16794
 C803 C 0.47774 0.13954 0.16933
 C804 C 0.52280 0.18927 0.34911
 C805 C 0.52253 0.20080 0.39319
 C806 C 0.50532 0.11059 0.17865
 C807 C 0.49960 0.09056 0.15230
 H808 H 0.54698 0.11538 0.22618
 H809 H 0.58178 0.12924 0.29973
 H810 H 0.58998 0.16401 0.37233
 H811 H 0.56303 0.18479 0.37259
 H812 H 0.48952 0.19373 0.28348
 H813 H 0.45551 0.18082 0.20800
 H814 H 0.44762 0.14639 0.13457
 H815 H 0.47367 0.12462 0.13619
 C816 C 0.63796 0.52350 0.20821
 C817 C 0.65751 0.54635 0.23722
 C818 C 0.67375 0.54421 0.28104
 C819 C 0.67029 0.51921 0.29559
 C820 C 0.65188 0.49660 0.26383
 C821 C 0.63572 0.49877 0.21986
 C822 C 0.61722 0.47585 0.18918
 C823 C 0.61481 0.45148 0.20153
 C824 C 0.63049 0.44933 0.24481
 C825 C 0.64885 0.47156 0.27577
 C826 C 0.69286 0.56726 0.31023
 C827 C 0.69588 0.59175 0.29641
 C828 C 0.67998 0.59385 0.25357
 C829 C 0.66096 0.57146 0.22422
 C830 C 0.68394 0.51642 0.34636
 C831 C 0.69413 0.51369 0.39019
 C832 C 0.61843 0.52491 0.17132
 C833 C 0.60106 0.52533 0.14377
 H834 H 0.60457 0.47655 0.15520
 H835 H 0.60054 0.43414 0.17770
 H836 H 0.62842 0.43033 0.25450
 H837 H 0.66070 0.46894 0.30884
 H838 H 0.70573 0.56660 0.34373
 H839 H 0.71063 0.60921 0.31908
 H840 H 0.68241 0.61292 0.24300
 H841 H 0.64911 0.57404 0.19104
 C842 C 0.87370 0.37423 0.21841
 C843 C 0.86088 0.34652 0.21340
 C844 C 0.84152 0.33043 0.25593
 C845 C 0.83513 0.34220 0.30312
 C846 C 0.84659 0.36988 0.30559
 C847 C 0.86601 0.38597 0.26325
 C848 C 0.87776 0.41366 0.26770
 C849 C 0.87048 0.42509 0.31261
 C850 C 0.85131 0.40933 0.35370
 C851 C 0.83947 0.38203 0.35051
 C852 C 0.82929 0.30276 0.25077
 C853 C 0.83595 0.29129 0.20472
 C854 C 0.85490 0.30704 0.16314
 C855 C 0.86732 0.33436 0.16728
 C856 C 0.81938 0.32625 0.35273
 C857 C 0.80800 0.31365 0.39620
 C858 C 0.89613 0.39082 0.18088
 C859 C 0.91551 0.40593 0.15333
 H860 H 0.89254 0.42676 0.23639
 H861 H 0.87956 0.44629 0.31515
 H862 H 0.84557 0.41830 0.38820
 H863 H 0.82460 0.37056 0.38336
 H864 H 0.81436 0.28975 0.28195
 H865 H 0.82635 0.27008 0.20127
 H866 H 0.86000 0.29804 0.12747
 H867 H 0.88190 0.34585 0.13389
   
