data_POSCAR
  _audit_creation_date              2014-09-24
  _audit_creation_method            'ToBaCCo'
  _symmetry_space_group_name_H-M    'P1'
  _symmetry_Int_Tables_number       1
  _symmetry_cell_setting            triclinic
  loop_
  _symmetry_equiv_pos_as_xyz
 x,y,z
_cell_length_a 40.8265
_cell_length_b 40.8184
_cell_length_c 40.8297
_cell_angle_alpha 98.922300
_cell_angle_beta 81.242400
_cell_angle_gamma 98.440300
loop_
  _atom_site_label
  _atom_site_type_symbol
  _atom_site_fract_x
  _atom_site_fract_y
  _atom_site_fract_z
O1 O 0.54052 0.50854 0.02848
 O2 O 0.44991 0.50214 0.02643
 O3 O 0.49140 0.46016 0.02935
 O4 O 0.49903 0.55054 0.02557
 O5 O 0.50743 0.54083 -0.02969
 O6 O 0.49981 0.45046 -0.02591
 O7 O 0.45831 0.49244 -0.02882
 O8 O 0.54893 0.49884 -0.02678
 Cu9 Cu 0.49437 0.50632 0.03304
 Cu10 Cu 0.50446 0.49467 -0.03338
 C11 C 0.56000 0.50465 0.00122
 C12 C 0.43882 0.49633 -0.00156
 C13 C 0.49445 0.44007 0.00237
 C14 C 0.50439 0.56092 -0.00272
 O15 O -0.02898 0.54077 0.50945
 O16 O -0.02607 0.45002 0.50121
 O17 O -0.02454 0.49886 0.55031
 O18 O -0.03056 0.49193 0.46035
 O19 O 0.02454 0.50041 0.44957
 O20 O 0.03056 0.50733 0.53953
 O21 O 0.02903 0.45849 0.49043
 O22 O 0.02611 0.54924 0.49867
 Cu23 Cu -0.03309 0.49454 0.50641
 Cu24 Cu 0.03312 0.50472 0.49347
 C25 C -0.00195 0.56032 0.50528
 C26 C 0.00200 0.43896 0.49460
 C27 C 0.00405 0.50410 0.56009
 C28 C -0.00405 0.49518 0.43980
 O29 O 0.50262 0.02649 0.55041
 O30 O 0.50764 0.03003 0.46015
 O31 O 0.45991 0.03063 0.51018
 O32 O 0.55035 0.02589 0.50038
 O33 O 0.54066 -0.02928 0.49103
 O34 O 0.45021 -0.02454 0.50083
 O35 O 0.49795 -0.02514 0.45080
 O36 O 0.49292 -0.02868 0.54105
 Cu37 Cu 0.50611 0.03382 0.50622
 Cu38 Cu 0.49446 -0.03247 0.49499
 C39 C 0.49709 -0.00172 0.56095
 C40 C 0.50346 0.00307 0.44027
 C41 C 0.43981 0.00387 0.50699
 C42 C 0.56076 -0.00251 0.49424
 C43 C 0.50039 -0.03286 -0.07343
 C44 C 0.50237 -0.06515 -0.06718
 C45 C 0.50334 -0.07178 -0.03482
 C46 C 0.50235 -0.04561 -0.00776
 C47 C 0.50033 -0.01271 -0.01379
 C48 C 0.49933 -0.00628 -0.04677
 C49 C 0.49732 0.02652 -0.05218
 C50 C 0.49631 0.05252 -0.02571
 C51 C 0.49726 0.04668 0.00718
 C52 C 0.49929 0.01379 0.01320
 C53 C 0.50330 -0.05144 0.02513
 C54 C 0.50230 -0.02544 0.05160
 C55 C 0.50029 0.00735 0.04619
 C56 C 0.49925 0.03395 0.07284
 C57 C 0.49724 0.06623 0.06660
 C58 C 0.49624 0.07285 0.03424
 H59 H 0.49651 0.03238 -0.07699
 H60 H 0.49476 0.07729 -0.03127
 H61 H 0.50485 -0.07621 0.03069
 H62 H 0.50312 -0.03130 0.07641
 H63 H 0.50316 -0.08543 -0.08781
 H64 H 0.49645 0.08651 0.08722
 C65 C 0.03535 0.50149 0.92771
 C66 C 0.06741 0.49972 0.93475
 C67 C 0.07326 0.49806 0.96725
 C68 C 0.04648 0.49818 0.99364
 C69 C 0.01380 0.49997 0.98680
 C70 C 0.00817 0.50164 0.95369
 C71 C -0.02443 0.50339 0.94746
 C72 C -0.05101 0.50353 0.97326
 C73 C -0.04599 0.50191 1.00627
 C74 C -0.01330 0.50010 1.01311
 C75 C 0.05151 0.49655 1.02665
 C76 C 0.02492 0.49666 1.05245
 C77 C -0.00768 0.49842 1.04622
 C78 C -0.03486 0.49857 1.07219
 C79 C -0.06692 0.50037 1.06516
 C80 C -0.07275 0.50205 1.03267
 H81 H -0.02968 0.50468 0.92251
 H82 H -0.07559 0.50492 0.96709
 H83 H 0.07609 0.49516 1.03282
 H84 H 0.03017 0.49536 1.07739
 H85 H 0.08813 0.49961 0.91463
 H86 H -0.08764 0.50049 1.08528
 C87 C -0.03331 -0.07399 0.50186
 C88 C -0.06553 -0.06783 0.49928
 C89 C -0.07218 -0.03570 0.49706
 C90 C -0.04610 -0.00878 0.49739
 C91 C -0.01328 -0.01472 0.50000
 C92 C -0.00682 -0.04747 0.50225
 C93 C 0.02590 -0.05279 0.50482
 C94 C 0.05180 -0.02645 0.50519
 C95 C 0.04595 0.00620 0.50301
 C96 C 0.01313 0.01214 0.50038
 C97 C -0.05195 0.02388 0.49521
 C98 C -0.02605 0.05021 0.49557
 C99 C 0.00667 0.04489 0.49813
 C100 C 0.03316 0.07141 0.49851
 C101 C 0.06537 0.06526 0.50113
 C102 C 0.07202 0.03314 0.50339
 H103 H 0.03178 -0.07742 0.50657
 H104 H 0.07651 -0.03193 0.50721
 H105 H -0.07666 0.02936 0.49320
 H106 H -0.03193 0.07485 0.49382
 H107 H -0.08573 -0.08835 0.49902
 H108 H 0.08556 0.08578 0.50140
 C109 C -0.40480 0.50641 1.00212
 C110 C -0.37530 0.50747 1.00306
 C111 C -0.34018 0.50827 1.00447
 C112 C -0.32234 0.53644 1.02074
 C113 C -0.28847 0.53677 1.02302
 C114 C -0.27199 0.50888 1.00904
 C115 C -0.29007 0.48082 0.99243
 C116 C -0.32395 0.48053 0.99021
 C117 C -0.23630 0.50873 1.01240
 C118 C -0.21439 0.49475 0.98560
 C119 C -0.18100 0.49388 0.98917
 C120 C -0.16912 0.50694 1.01952
 C121 C -0.19064 0.52111 1.04623
 C122 C -0.22400 0.52203 1.04272
 C123 C -0.13502 0.50532 1.02356
 C124 C -0.10661 0.50387 1.02742
 H125 H -0.33466 0.55806 1.03183
 H126 H -0.27512 0.55889 1.03559
 H127 H -0.27822 0.45880 0.98181
 H128 H -0.33756 0.45854 0.97769
 H129 H -0.22301 0.48467 0.96184
 H130 H -0.16452 0.48291 0.96832
 H131 H -0.18172 0.53116 1.06988
 H132 H -0.24033 0.53253 1.06395
 C133 C 0.40552 0.49463 0.99759
 C134 C 0.37600 0.49351 0.99667
 C135 C 0.34086 0.49262 0.99528
 C136 C 0.32459 0.52035 1.00947
 C137 C 0.29069 0.51997 1.00728
 C138 C 0.27263 0.49182 0.99078
 C139 C 0.28915 0.46394 0.97688
 C140 C 0.32305 0.46437 0.97912
 C141 C 0.23691 0.49185 0.98746
 C142 C 0.22457 0.47839 0.95720
 C143 C 0.19119 0.47920 0.95372
 C144 C 0.16967 0.49341 0.98040
 C145 C 0.18159 0.50663 1.01070
 C146 C 0.21500 0.50588 1.01424
 C147 C 0.13555 0.49493 0.97637
 C148 C 0.10712 0.49632 0.97251
 H149 H 0.33818 0.54241 1.02190
 H150 H 0.27881 0.54197 1.01784
 H151 H 0.27583 0.44175 0.96440
 H152 H 0.33540 0.44275 0.96809
 H153 H 0.24090 0.46786 0.93598
 H154 H 0.18224 0.46903 0.93010
 H155 H 0.16511 0.51764 1.03154
 H156 H 0.22366 0.51608 1.03796
 C157 C -0.00313 -0.40634 0.50739
 C158 C -0.00432 -0.37681 0.50876
 C159 C -0.00598 -0.34166 0.50979
 C160 C 0.01352 -0.32403 0.48537
 C161 C 0.01113 -0.29017 0.48562
 C162 C -0.01091 -0.27347 0.51030
 C163 C -0.03016 -0.29134 0.53496
 C164 C -0.02770 -0.32520 0.53467
 C165 C -0.01432 -0.23779 0.50988
 C166 C -0.04599 -0.22664 0.51677
 C167 C -0.04935 -0.19327 0.51560
 C168 C -0.02116 -0.17056 0.50757
 C169 C 0.01049 -0.18132 0.50090
 C170 C 0.01392 -0.21471 0.50203
 C171 C -0.02487 -0.13640 0.50572
 C172 C -0.02843 -0.10792 0.50402
 H173 H 0.03031 -0.33656 0.46590
 H174 H 0.02595 -0.27726 0.46605
 H175 H -0.04702 -0.27910 0.55454
 H176 H -0.04289 -0.33859 0.55373
 H177 H -0.06825 -0.24387 0.52242
 H178 H -0.07399 -0.18524 0.52068
 H179 H 0.03250 -0.16392 0.49471
 H180 H 0.03867 -0.22243 0.49699
 C181 C 0.00325 0.40372 0.49238
 C182 C 0.00445 0.37419 0.49108
 C183 C 0.00611 0.33906 0.49013
 C184 C -0.01349 0.32146 0.51451
 C185 C -0.01111 0.28760 0.51434
 C186 C 0.01100 0.27088 0.48975
 C187 C 0.03037 0.28873 0.46515
 C188 C 0.02793 0.32259 0.46536
 C189 C 0.01436 0.23521 0.49024
 C190 C 0.04603 0.22403 0.48349
 C191 C 0.04934 0.19066 0.48472
 C192 C 0.02110 0.16797 0.49266
 C193 C -0.01054 0.17874 0.49919
 C194 C -0.01392 0.21214 0.49800
 C195 C 0.02477 0.13381 0.49457
 C196 C 0.02830 0.10533 0.49631
 H197 H -0.03035 0.33399 0.53390
 H198 H -0.02602 0.27470 0.53387
 H199 H 0.04730 0.27648 0.44565
 H200 H 0.04320 0.33596 0.44634
 H201 H 0.06832 0.24124 0.47792
 H202 H 0.07397 0.18261 0.47975
 H203 H -0.03258 0.16136 0.50529
 H204 H -0.03866 0.21987 0.50292
 C205 C 0.49622 -0.00313 -0.40594
 C206 C 0.49601 -0.00456 -0.37663
 C207 C 0.49643 -0.00656 -0.34181
 C208 C 0.46797 -0.00191 -0.31858
 C209 C 0.46842 -0.00432 -0.28484
 C210 C 0.49736 -0.01149 -0.27395
 C211 C 0.52588 -0.01591 -0.29751
 C212 C 0.52539 -0.01346 -0.33118
 C213 C 0.49777 -0.01471 -0.23828
 C214 C 0.51354 -0.04000 -0.22969
 C215 C 0.51397 -0.04312 -0.19616
 C216 C 0.49867 -0.02104 -0.17075
 C217 C 0.48289 0.00422 -0.17899
 C218 C 0.48240 0.00737 -0.21254
 C219 C 0.49908 -0.02455 -0.13630
 C220 C 0.49960 -0.02802 -0.10760
 H221 H 0.44539 0.00337 -0.32656
 H222 H 0.44596 -0.00117 -0.26739
 H223 H 0.54868 -0.02098 -0.28984
 H224 H 0.54759 -0.01700 -0.34894
 H225 H 0.52516 -0.05768 -0.24890
 H226 H 0.52613 -0.06285 -0.19006
 H227 H 0.47102 0.02149 -0.15950
 H228 H 0.47040 0.02732 -0.21836
 C229 C 0.50436 0.00456 0.40527
 C230 C 0.50448 0.00600 0.37599
 C231 C 0.50394 0.00800 0.34119
 C232 C 0.47499 0.01504 0.33067
 C233 C 0.47438 0.01747 0.29701
 C234 C 0.50279 0.01286 0.27335
 C235 C 0.53174 0.00556 0.28413
 C236 C 0.53229 0.00318 0.31785
 C237 C 0.50227 0.01602 0.23768
 C238 C 0.51744 -0.00619 0.21194
 C239 C 0.51685 -0.00310 0.17839
 C240 C 0.50116 0.02223 0.17016
 C241 C 0.48605 0.04444 0.19558
 C242 C 0.48657 0.04138 0.22910
 C243 C 0.50067 0.02568 0.13571
 C244 C 0.50009 0.02912 0.10701
 H245 H 0.45286 0.01871 0.34851
 H246 H 0.45158 0.02264 0.28943
 H247 H 0.55412 0.00228 0.26660
 H248 H 0.55487 -0.00221 0.32574
 H249 H 0.52938 -0.02619 0.21774
 H250 H 0.52859 -0.02046 0.15889
 H251 H 0.47395 0.06421 0.18948
 H252 H 0.47510 0.05915 0.24832
 C253 C 0.50662 -0.40397 -0.00426
 C254 C 0.50804 -0.37452 -0.00571
 C255 C 0.50922 -0.33947 -0.00765
 C256 C 0.53376 -0.32383 -0.02997
 C257 C 0.53425 -0.29001 -0.03260
 C258 C 0.51015 -0.27141 -0.01290
 C259 C 0.48577 -0.28731 0.00970
 C260 C 0.48532 -0.32113 0.01227
 C261 C 0.50999 -0.23577 -0.01638
 C262 C 0.50309 -0.21217 0.01196
 C263 C 0.50223 -0.17876 0.00851
 C264 C 0.50823 -0.16854 -0.02326
 C265 C 0.51531 -0.19177 -0.05157
 C266 C 0.51621 -0.22516 -0.04818
 C267 C 0.50669 -0.13436 -0.02694
 C268 C 0.50523 -0.10583 -0.03033
 H269 H 0.55241 -0.33780 -0.04548
 H270 H 0.55357 -0.27837 -0.04992
 H271 H 0.46662 -0.27380 0.02487
 H272 H 0.46611 -0.33305 0.02952
 H273 H 0.49859 -0.21949 0.03679
 H274 H 0.49679 -0.16095 0.03059
 H275 H 0.51987 -0.18413 -0.07629
 H276 H 0.52113 -0.24280 -0.07050
 C277 C 0.49224 0.40496 0.00391
 C278 C 0.49086 0.37551 0.00532
 C279 C 0.48974 0.34046 0.00721
 C280 C 0.46520 0.32474 0.02948
 C281 C 0.46478 0.29092 0.03208
 C282 C 0.48896 0.27240 0.01239
 C283 C 0.51332 0.28837 -0.01017
 C284 C 0.51370 0.32219 -0.01270
 C285 C 0.48920 0.23677 0.01585
 C286 C 0.49621 0.21320 -0.01249
 C287 C 0.49715 0.17981 -0.00905
 C288 C 0.49113 0.16957 0.02271
 C289 C 0.48395 0.19276 0.05102
 C290 C 0.48297 0.22614 0.04765
 C291 C 0.49276 0.13540 0.02638
 C292 C 0.49429 0.10688 0.02976
 H293 H 0.44651 0.33865 0.04498
 H294 H 0.44547 0.27922 0.04936
 H295 H 0.53252 0.27492 -0.02533
 H296 H 0.53289 0.33416 -0.02992
 H297 H 0.50072 0.22054 -0.03732
 H298 H 0.50267 0.16202 -0.03113
 H299 H 0.47937 0.18510 0.07573
 H300 H 0.47797 0.24375 0.06997
 C301 C -0.40410 -0.00442 0.49148
 C302 C -0.37465 -0.00611 0.48980
 C303 C -0.33959 -0.00825 0.48850
 C304 C -0.32058 0.01419 0.50996
 C305 C -0.28679 0.01146 0.50963
 C306 C -0.27156 -0.01384 0.48782
 C307 C -0.29081 -0.03608 0.46610
 C308 C -0.32460 -0.03328 0.46647
 C309 C -0.23595 -0.01744 0.48829
 C310 C -0.22582 -0.04932 0.48593
 C311 C -0.19248 -0.05271 0.48721
 C312 C -0.16881 -0.02435 0.49081
 C313 C -0.17856 0.00746 0.49294
 C314 C -0.21191 0.01093 0.49170
 C315 C -0.13466 -0.02797 0.49279
 C316 C -0.10617 -0.03129 0.49465
 H317 H -0.33197 0.03356 0.52724
 H318 H -0.27279 0.02867 0.52696
 H319 H -0.27971 -0.05554 0.44874
 H320 H -0.33908 -0.05077 0.44973
 H321 H -0.24379 -0.07160 0.48378
 H322 H -0.18522 -0.07746 0.48567
 H323 H -0.16041 0.02958 0.49567
 H324 H -0.21885 0.03577 0.49317
 C325 C 0.40468 0.00581 0.50979
 C326 C 0.37523 0.00760 0.51155
 C327 C 0.34020 0.00996 0.51300
 C328 C 0.32951 0.04090 0.51253
 C329 C 0.29563 0.04316 0.51284
 C330 C 0.27194 0.01442 0.51356
 C331 C 0.28291 -0.01655 0.51428
 C332 C 0.31683 -0.01873 0.51399
 C333 C 0.23607 0.01673 0.51296
 C334 C 0.21678 -0.00787 0.49333
 C335 C 0.18329 -0.00513 0.49196
 C336 C 0.16862 0.02217 0.51021
 C337 C 0.18747 0.04659 0.53007
 C338 C 0.22096 0.04391 0.53147
 C339 C 0.13447 0.02556 0.50799
 C340 C 0.10599 0.02877 0.50596
 H341 H 0.34741 0.06324 0.51157
 H342 H 0.28807 0.06727 0.51178
 H343 H 0.26525 -0.03903 0.51525
 H344 H 0.32483 -0.04282 0.51436
 H345 H 0.22778 -0.02885 0.47845
 H346 H 0.16894 -0.02411 0.47641
 H347 H 0.17635 0.06780 0.54434
 H348 H 0.23501 0.06301 0.54715
 C349 C -0.00648 0.49354 1.40490
 C350 C -0.00868 0.49279 1.37568
 C351 C -0.01153 0.49256 1.34094
 C352 C -0.03131 0.51401 1.33183
 C353 C -0.03400 0.51415 1.29815
 C354 C -0.01690 0.49280 1.27306
 C355 C 0.00296 0.47132 1.28247
 C356 C 0.00559 0.47121 1.31621
 C357 C -0.01977 0.49305 1.23728
 C358 C 0.00841 0.49103 1.21280
 C359 C 0.00570 0.49183 1.17920
 C360 C -0.02517 0.49460 1.16965
 C361 C -0.05336 0.49642 1.19377
 C362 C -0.05071 0.49565 1.22735
 C363 C -0.02801 0.49583 1.13518
 C364 C -0.03084 0.49701 1.10645
 H365 H -0.04455 0.53075 1.35077
 H366 H -0.04908 0.53131 1.29170
 H367 H 0.01612 0.45433 1.26377
 H368 H 0.02095 0.45447 1.32300
 H369 H 0.03264 0.48942 1.21970
 H370 H 0.02770 0.49050 1.16071
 H371 H -0.07740 0.49846 1.18662
 H372 H -0.07294 0.49677 1.24551
 C373 C 0.00649 0.50578 0.59499
 C374 C 0.00870 0.50659 0.62421
 C375 C 0.01158 0.50690 0.65895
 C376 C -0.00536 0.52843 0.68364
 C377 C -0.00267 0.52842 0.71739
 C378 C 0.01707 0.50685 0.72684
 C379 C 0.03398 0.48531 0.70180
 C380 C 0.03124 0.48535 0.66811
 C381 C 0.02001 0.50671 0.76263
 C382 C 0.05094 0.50397 0.77249
 C383 C 0.05366 0.50330 0.80608
 C384 C 0.02554 0.50535 0.83027
 C385 C -0.00532 0.50826 0.82078
 C386 C -0.00809 0.50897 0.78718
 C387 C 0.02845 0.50417 0.86473
 C388 C 0.03131 0.50302 0.89346
 H389 H -0.02061 0.54525 0.67682
 H390 H -0.01568 0.54556 0.73605
 H391 H 0.04897 0.46808 0.70828
 H392 H 0.04434 0.46847 0.64921
 H393 H 0.07312 0.50266 0.75428
 H394 H 0.07769 0.50113 0.81318
 H395 H -0.02726 0.50977 0.83931
 H396 H -0.03232 0.51069 0.78032
   
