data_POSCAR
  _audit_creation_date              2014-09-24
  _audit_creation_method            'ToBaCCo'
  _symmetry_space_group_name_H-M    'P1'
  _symmetry_Int_Tables_number       1
  _symmetry_cell_setting            triclinic
  loop_
  _symmetry_equiv_pos_as_xyz
 x,y,z
_cell_length_a 40.8060
_cell_length_b 40.1407
_cell_length_c 43.6682
_cell_angle_alpha 90.044700
_cell_angle_beta 89.898000
_cell_angle_gamma 92.360600
loop_
  _atom_site_label
  _atom_site_type_symbol
  _atom_site_fract_x
  _atom_site_fract_y
  _atom_site_fract_z
C1 C -0.08941 0.31317 0.01034
 C2 C -0.07324 0.31572 0.03880
 C3 C -0.03865 0.31579 0.03895
 C4 C -0.02050 0.31048 0.01195
 C5 C -0.03798 0.30539 -0.01561
 C6 C -0.07221 0.30813 -0.01713
 C7 C 0.01645 0.31001 0.01230
 C8 C 0.03481 0.31523 -0.01492
 C9 C 0.06888 0.31206 -0.01554
 C10 C 0.08547 0.30686 0.01193
 C11 C 0.06829 0.30333 0.03962
 C12 C 0.03386 0.30369 0.03952
 H13 H -0.11590 0.31145 0.00977
 H14 H -0.02598 0.32114 0.06017
 H15 H -0.02481 0.30042 -0.03636
 H16 H 0.02311 0.32180 -0.03609
 H17 H 0.11180 0.30424 0.01167
 H18 H 0.02107 0.29902 0.06085
 C19 C 0.41269 0.80768 0.49059
 C20 C 0.43093 0.81303 0.51740
 C21 C 0.46520 0.81608 0.51559
 C22 C 0.48179 0.81149 0.48766
 C23 C 0.46283 0.80528 0.46104
 C24 C 0.42833 0.80419 0.46222
 C25 C 0.51862 0.81273 0.48666
 C26 C 0.53581 0.82046 0.45937
 C27 C 0.57019 0.82072 0.45836
 C28 C 0.58772 0.81586 0.48545
 C29 C 0.57145 0.80796 0.51302
 C30 C 0.53698 0.80543 0.51306
 H31 H 0.38620 0.80482 0.49200
 H32 H 0.47865 0.82210 0.53631
 H33 H 0.47458 0.80113 0.43927
 H34 H 0.52283 0.82620 0.43861
 H35 H 0.61423 0.81723 0.48470
 H36 H 0.52461 0.79676 0.53362
 C37 C 1.08359 0.68274 -0.01047
 C38 C 1.06587 0.67910 0.01709
 C39 C 1.03146 0.67972 0.01575
 C40 C 1.01491 0.68748 -0.01148
 C41 C 1.03370 0.69276 -0.03831
 C42 C 1.06800 0.68931 -0.03849
 C43 C 0.97824 0.69061 -0.01152
 C44 C 0.95963 0.68718 -0.03873
 C45 C 0.92553 0.69103 -0.03858
 C46 C 0.90950 0.69622 -0.01069
 C47 C 0.92720 0.69915 0.01665
 C48 C 0.96142 0.69754 0.01591
 H49 H 1.11008 0.68413 -0.00966
 H50 H 1.01762 0.67317 0.03610
 H51 H 1.02153 0.69869 -0.05935
 H52 H 0.97113 0.68126 -0.06024
 H53 H 0.88325 0.69934 -0.01035
 H54 H 0.97460 0.70163 0.03709
 C55 C 0.58303 0.18657 0.50801
 C56 C 0.56747 0.19058 0.53632
 C57 C 0.53304 0.19011 0.53762
 C58 C 0.51384 0.18373 0.51121
 C59 C 0.53041 0.17819 0.48330
 C60 C 0.56472 0.18107 0.48129
 C61 C 0.47694 0.18418 0.51236
 C62 C 0.45876 0.18960 0.48546
 C63 C 0.42442 0.18972 0.48590
 C64 C 0.40784 0.18641 0.51387
 C65 C 0.42513 0.18244 0.54124
 C66 C 0.45943 0.18026 0.54022
 H67 H 0.60952 0.18927 0.50661
 H68 H 0.52165 0.19501 0.55940
 H69 H 0.51707 0.17177 0.46265
 H70 H 0.47090 0.19393 0.46378
 H71 H 0.38145 0.18845 0.51442
 H72 H 0.47201 0.17545 0.56139
 C73 C 0.68547 -0.08424 -0.00990
 C74 C 0.69269 -0.06882 0.01858
 C75 C 0.69341 -0.03355 0.01944
 C76 C 0.68498 -0.01437 -0.00621
 C77 C 0.67799 -0.03083 -0.03398
 C78 C 0.67942 -0.06551 -0.03625
 C79 C 0.68400 0.02282 -0.00394
 C80 C 0.69113 0.04336 -0.02950
 C81 C 0.68952 0.07853 -0.02794
 C82 C 0.68232 0.09254 0.00094
 C83 C 0.67729 0.07265 0.02704
 C84 C 0.67669 0.03797 0.02411
 H85 H 0.68447 -0.11099 -0.01225
 H86 H 0.70218 -0.02054 0.03961
 H87 H 0.67146 -0.01687 -0.05410
 H88 H 0.69971 0.03169 -0.05009
 H89 H 0.68063 0.11907 0.00385
 H90 H 0.67080 0.02295 0.04410
 C91 C 0.18243 0.40384 0.51063
 C92 C 0.17784 0.42320 0.53691
 C93 C 0.17695 0.45795 0.53414
 C94 C 0.18304 0.47379 0.50581
 C95 C 0.19011 0.45381 0.48020
 C96 C 0.18886 0.41879 0.48204
 C97 C 0.18226 0.51096 0.50291
 C98 C 0.17477 0.52560 0.47463
 C99 C 0.17525 0.56027 0.47113
 C100 C 0.18036 0.58068 0.49688
 C101 C 0.18777 0.56702 0.52558
 C102 C 0.18948 0.53212 0.52807
 H103 H 0.18189 0.37699 0.51280
 H104 H 0.17148 0.47239 0.55430
 H105 H 0.19747 0.46548 0.45885
 H106 H 0.16871 0.51025 0.45491
 H107 H 0.17948 0.60739 0.49415
 H108 H 0.19743 0.52159 0.54943
 C109 C 0.32170 1.08546 0.00803
 C110 C 0.32733 1.06725 0.03472
 C111 C 0.33033 1.03266 0.03272
 C112 C 0.32490 1.01550 0.00485
 C113 C 0.31776 1.03441 -0.02141
 C114 C 0.31719 1.06955 -0.02050
 C115 C 0.32534 0.97801 0.00337
 C116 C 0.33031 0.96130 -0.02465
 C117 C 0.32808 0.92620 -0.02683
 C118 C 0.32368 0.90773 0.00040
 C119 C 0.31953 0.92357 0.02866
 C120 C 0.31957 0.95848 0.02981
 H121 H 0.31817 1.11194 0.01013
 H122 H 0.33662 1.01948 0.05331
 H123 H 0.31331 1.02182 -0.04287
 H124 H 0.33689 0.97544 -0.04491
 H125 H 0.32068 0.88084 -0.00035
 H126 H 0.31471 0.97010 0.05156
 C127 C 0.82331 0.59767 0.49404
 C128 C 0.81986 0.58056 0.52185
 C129 C 0.82169 0.54577 0.52217
 C130 C 0.82854 0.52778 0.49528
 C131 C 0.83265 0.54582 0.46764
 C132 C 0.82898 0.58050 0.46671
 C133 C 0.82951 0.49036 0.49604
 C134 C 0.82264 0.47113 0.46958
 C135 C 0.82161 0.43612 0.47060
 C136 C 0.82595 0.42006 0.49870
 C137 C 0.83214 0.43844 0.52550
 C138 C 0.83535 0.47335 0.52370
 H139 H 0.81986 0.62429 0.49351
 H140 H 0.81727 0.53301 0.54362
 H141 H 0.83854 0.53328 0.44656
 H142 H 0.81749 0.48302 0.44806
 H143 H 0.82274 0.39317 0.49993
 H144 H 0.84196 0.48692 0.54430
 O145 O 0.23819 0.27302 0.22215
 O146 O 0.29853 0.24707 0.27894
 O147 O 0.28626 0.23238 0.22147
 O148 O 0.25192 0.28853 0.27893
 O149 O 0.21899 0.24718 0.29532
 O150 O 0.25155 0.19198 0.23625
 O151 O 0.26464 0.20575 0.29333
 O152 O 0.20354 0.23302 0.23789
 Cu153 Cu 0.27212 0.26427 0.24867
 Cu154 Cu 0.23103 0.21543 0.26696
 C155 C 0.21057 0.25738 0.22018
 C156 C 0.29155 0.22244 0.29639
 C157 C 0.27461 0.20268 0.21881
 C158 C 0.23063 0.27690 0.29771
 O159 O 0.76044 0.80666 0.22312
 O160 O 0.79176 0.75039 0.28213
 O161 O 0.80591 0.76383 0.22458
 O162 O 0.74560 0.79352 0.28015
 O163 O 0.70988 0.75458 0.26428
 O164 O 0.77087 0.72334 0.21062
 O165 O 0.75579 0.71107 0.26757
 O166 O 0.72655 0.76599 0.20705
 Cu167 Cu 0.77948 0.78251 0.25421
 Cu168 Cu 0.73706 0.73475 0.23619
 C169 C 0.73905 0.79533 0.20430
 C170 C 0.77897 0.72115 0.28508
 C171 C 0.79834 0.73901 0.20752
 C172 C 0.71730 0.77919 0.28160
 O173 O 0.78696 0.24593 0.23417
 O174 O 0.72753 0.21258 0.29090
 O175 O 0.74049 0.19956 0.23349
 O176 O 0.77253 0.25994 0.29069
 O177 O 0.73679 0.29604 0.27520
 O178 O 0.70464 0.23569 0.21832
 O179 O 0.69165 0.24868 0.27569
 O180 O 0.75112 0.28181 0.21842
 Cu181 Cu 0.76042 0.22582 0.26379
 Cu182 Cu 0.71745 0.26914 0.24535
 C183 C 0.77922 0.26938 0.21643
 C184 C 0.69967 0.22529 0.29345
 C185 C 0.71732 0.20747 0.21584
 C186 C 0.75988 0.28824 0.29293
 O187 O 0.19366 0.73538 0.22267
 O188 O 0.25351 0.76564 0.28083
 O189 O 0.23945 0.78203 0.22448
 O190 O 0.20559 0.72118 0.27982
 O191 O 0.24040 0.68431 0.26384
 O192 O 0.27475 0.74572 0.20834
 O193 O 0.28830 0.72885 0.26465
 O194 O 0.22905 0.69913 0.20655
 Cu195 Cu 0.21958 0.75472 0.25356
 Cu196 Cu 0.26162 0.71082 0.23427
 C197 C 0.20146 0.71240 0.20429
 C198 C 0.28103 0.75202 0.28294
 C199 C 0.26248 0.77428 0.20660
 C200 C 0.21739 0.69251 0.28167
 O201 O 0.79405 0.27188 0.71416
 O202 O 0.75785 0.21326 0.77101
 O203 O 0.74452 0.22893 0.71457
 O204 O 0.80601 0.25703 0.77168
 O205 O 0.77344 0.29643 0.78669
 O206 O 0.71143 0.26722 0.73092
 O207 O 0.72627 0.25280 0.78786
 O208 O 0.76081 0.31045 0.72962
 Cu209 Cu 0.77895 0.23899 0.74110
 Cu210 Cu 0.73959 0.28564 0.76012
 C211 C 0.78327 0.30101 0.71180
 C212 C 0.73679 0.22353 0.78985
 C213 C 0.71744 0.24335 0.71294
 C214 C 0.79973 0.28092 0.78961
 O215 O 0.30335 0.75273 0.72402
 O216 O 0.24172 0.72229 0.78032
 O217 O 0.25589 0.70767 0.72371
 O218 O 0.29098 0.76497 0.78179
 O219 O 0.25753 0.80377 0.76738
 O220 O 0.22415 0.74723 0.70732
 O221 O 0.20824 0.76043 0.76454
 O222 O 0.27047 0.79220 0.70994
 Cu223 Cu 0.27632 0.73306 0.75399
 Cu224 Cu 0.23662 0.77975 0.73596
 C225 C 0.29715 0.77737 0.70696
 C226 C 0.21448 0.73643 0.78223
 C227 C 0.23485 0.71803 0.70503
 C228 C 0.27995 0.79388 0.78497
 O229 O 0.24678 0.29738 0.73917
 O230 O 0.27813 0.23967 0.79657
 O231 O 0.29208 0.25348 0.73940
 O232 O 0.23426 0.28416 0.79663
 O233 O 0.19731 0.24572 0.78213
 O234 O 0.25521 0.21513 0.72462
 O235 O 0.24147 0.20108 0.78180
 O236 O 0.20996 0.25885 0.72467
 Cu237 Cu 0.26655 0.27253 0.76929
 Cu238 Cu 0.22231 0.22634 0.75180
 C239 C 0.22309 0.28793 0.72197
 C240 C 0.26479 0.21066 0.79935
 C241 C 0.28354 0.22925 0.72204
 C242 C 0.20607 0.26988 0.79954
 O243 O 0.74025 0.70656 0.72330
 O244 O 0.70695 0.76589 0.77845
 O245 O 0.69482 0.74940 0.72137
 O246 O 0.75230 0.72207 0.78054
 O247 O 0.78868 0.76087 0.76559
 O248 O 0.73251 0.78639 0.70504
 O249 O 0.74294 0.80451 0.76242
 O250 O 0.77768 0.74464 0.70894
 Cu251 Cu 0.71989 0.73222 0.75262
 Cu252 Cu 0.76403 0.77822 0.73425
 C253 C 0.76429 0.71567 0.70628
 C254 C 0.71941 0.79536 0.77998
 C255 C 0.70459 0.77156 0.70234
 C256 C 0.78031 0.73683 0.78322
 C257 C 0.31478 0.12059 0.11848
 C258 C 0.30082 0.08821 0.11540
 C259 C 0.30688 0.06999 0.08871
 C260 C 0.32627 0.08417 0.06497
 C261 C 0.34116 0.11619 0.06900
 C262 C 0.33532 0.13460 0.09564
 C263 C 0.30643 0.14082 0.14541
 C264 C 0.31933 0.17367 0.14789
 C265 C 0.30982 0.19344 0.17262
 C266 C 0.28718 0.18071 0.19454
 C267 C 0.27518 0.14737 0.19207
 C268 C 0.28463 0.12737 0.16750
 C269 C 0.34851 0.16724 0.09937
 C270 C 0.34068 0.18643 0.12507
 C271 C 0.27990 0.07525 0.13846
 C272 C 0.27193 0.09450 0.16407
 H273 H 0.36449 0.17829 0.08198
 H274 H 0.35090 0.21171 0.12676
 H275 H 0.26903 0.05027 0.13639
 H276 H 0.25519 0.08379 0.18102
 H277 H 0.29491 0.04561 0.08565
 H278 H 0.35631 0.12718 0.05093
 H279 H 0.31921 0.21904 0.17423
 H280 H 0.25784 0.13723 0.20880
 C281 C 0.80008 0.63499 0.60377
 C282 C 0.82466 0.64704 0.58362
 C283 C 0.83118 0.62894 0.55700
 C284 C 0.81327 0.59906 0.55045
 C285 C 0.78889 0.58717 0.57107
 C286 C 0.78215 0.60510 0.59776
 C287 C 0.79246 0.65445 0.63133
 C288 C 0.76729 0.64288 0.65108
 C289 C 0.75911 0.66228 0.67648
 C290 C 0.77573 0.69318 0.68199
 C291 C 0.80155 0.70387 0.66239
 C292 C 0.80989 0.68470 0.63695
 C293 C 0.75753 0.59402 0.61832
 C294 C 0.75021 0.61261 0.64453
 C295 C 0.84197 0.67712 0.59030
 C296 C 0.83470 0.69565 0.61653
 H297 H 0.74357 0.57097 0.61396
 H298 H 0.73076 0.60339 0.65960
 H299 H 0.86105 0.68661 0.57497
 H300 H 0.84834 0.71895 0.62065
 H301 H 0.85020 0.63803 0.54139
 H302 H 0.77470 0.56443 0.56599
 H303 H 0.73914 0.65385 0.69133
 H304 H 0.81449 0.72761 0.66633
 C305 C 0.71135 0.87355 0.09818
 C306 C 0.70318 0.90690 0.10145
 C307 C 0.69667 0.92572 0.07522
 C308 C 0.69938 0.91197 0.04533
 C309 C 0.70861 0.87831 0.04304
 C310 C 0.71388 0.85902 0.06916
 C311 C 0.71756 0.85345 0.12569
 C312 C 0.72487 0.81977 0.12232
 C313 C 0.73058 0.80072 0.14846
 C314 C 0.73024 0.81543 0.17768
 C315 C 0.72336 0.84932 0.18080
 C316 C 0.71637 0.86835 0.15479
 C317 C 0.72175 0.82534 0.06671
 C318 C 0.72684 0.80597 0.09286
 C319 C 0.70154 0.92080 0.13098
 C320 C 0.70836 0.90196 0.15716
 H321 H 0.72375 0.81378 0.04440
 H322 H 0.73267 0.78006 0.08997
 H323 H 0.69527 0.94658 0.13388
 H324 H 0.70719 0.91377 0.17944
 H325 H 0.68841 0.95068 0.07869
 H326 H 0.71291 0.86676 0.02114
 H327 H 0.73645 0.77474 0.14607
 H328 H 0.72319 0.86061 0.20336
 C329 C 0.18671 0.37125 0.62160
 C330 C 0.16513 0.35816 0.59919
 C331 C 0.16042 0.37634 0.57225
 C332 C 0.17749 0.40713 0.56751
 C333 C 0.19782 0.42057 0.59087
 C334 C 0.20276 0.40259 0.61785
 C335 C 0.19399 0.35098 0.64871
 C336 C 0.21689 0.36333 0.67030
 C337 C 0.22543 0.34306 0.69492
 C338 C 0.21144 0.31053 0.69789
 C339 C 0.18768 0.29899 0.67656
 C340 C 0.17906 0.31902 0.65179
 C341 C 0.22467 0.41459 0.64047
 C342 C 0.23162 0.39528 0.66626
 C343 C 0.14984 0.32652 0.60358
 C344 C 0.15667 0.30728 0.62945
 H345 H 0.23714 0.43878 0.63787
 H346 H 0.24922 0.40516 0.68283
 H347 H 0.13305 0.31621 0.58652
 H348 H 0.14488 0.28271 0.63164
 H349 H 0.14450 0.36599 0.55449
 H350 H 0.21141 0.44402 0.58724
 H351 H 0.24365 0.35226 0.71123
 H352 H 0.17672 0.27402 0.67858
 C353 C 0.86809 0.30665 0.11864
 C354 C 0.90018 0.29541 0.11908
 C355 C 0.92037 0.30053 0.09330
 C356 C 0.90837 0.31578 0.06653
 C357 C 0.87641 0.32832 0.06742
 C358 C 0.85623 0.32364 0.09320
 C359 C 0.84602 0.29926 0.14481
 C360 C 0.81363 0.30979 0.14400
 C361 C 0.79220 0.30112 0.16816
 C362 C 0.80280 0.28149 0.19269
 C363 C 0.83563 0.27185 0.19345
 C364 C 0.85734 0.28069 0.16957
 C365 C 0.82396 0.33463 0.09360
 C366 C 0.80304 0.32787 0.11859
 C367 C 0.91097 0.27785 0.14476
 C368 C 0.88989 0.27054 0.16953
 H369 H 0.81456 0.34798 0.07416
 H370 H 0.77816 0.33624 0.11771
 H371 H 0.93569 0.26903 0.14543
 H372 H 0.89899 0.25633 0.18858
 H373 H 0.94438 0.28999 0.09344
 H374 H 0.86698 0.34176 0.04805
 H375 H 0.76699 0.30859 0.16727
 H376 H 0.84413 0.25692 0.21228
 C377 C 0.37925 0.80644 0.60262
 C378 C 0.40857 0.78973 0.59906
 C379 C 0.42613 0.79327 0.57157
 C380 C 0.41426 0.81286 0.54758
 C381 C 0.38522 0.83008 0.55181
 C382 C 0.36759 0.82693 0.57931
 C383 C 0.35968 0.80125 0.63075
 C384 C 0.32986 0.81713 0.63389
 C385 C 0.31038 0.81058 0.65981
 C386 C 0.32018 0.78776 0.68221
 C387 C 0.35064 0.77279 0.67913
 C388 C 0.37048 0.77942 0.65339
 C389 C 0.33803 0.84306 0.58364
 C390 C 0.31951 0.83829 0.61050
 C391 C 0.41912 0.76891 0.62261
 C392 C 0.40035 0.76378 0.64930
 H393 H 0.32886 0.85904 0.56589
 H394 H 0.29656 0.85073 0.61271
 H395 H 0.44174 0.75594 0.62014
 H396 H 0.40903 0.74699 0.66663
 H397 H 0.44823 0.77959 0.56830
 H398 H 0.37611 0.84536 0.53349
 H399 H 0.28694 0.82215 0.66182
 H400 H 0.35843 0.75522 0.69622
 C401 C 0.11891 0.68283 0.10034
 C402 C 0.08723 0.69504 0.09939
 C403 C 0.06893 0.69182 0.07230
 C404 C 0.08244 0.67750 0.04565
 C405 C 0.11398 0.66421 0.04775
 C406 C 0.13223 0.66689 0.07488
 C407 C 0.13905 0.68809 0.12810
 C408 C 0.17103 0.67652 0.12874
 C409 C 0.19075 0.68320 0.15445
 C410 C 0.17898 0.70200 0.17913
 C411 C 0.14653 0.71273 0.17841
 C412 C 0.12644 0.70578 0.15294
 C413 C 0.16402 0.65485 0.07672
 C414 C 0.18306 0.65951 0.10322
 C415 C 0.07501 0.71161 0.12512
 C416 C 0.09432 0.71699 0.15139
 H417 H 0.17452 0.64228 0.05728
 H418 H 0.20768 0.65037 0.10348
 H419 H 0.05057 0.72117 0.12469
 H420 H 0.08420 0.73052 0.17044
 H421 H 0.04525 0.70303 0.07153
 H422 H 0.12450 0.65162 0.02835
 H423 H 0.21570 0.67494 0.15465
 H424 H 0.13720 0.72711 0.19731
 C425 C 0.62794 0.20915 0.61512
 C426 C 0.60007 0.22801 0.61081
 C427 C 0.57988 0.22144 0.58536
 C428 C 0.58756 0.19634 0.56426
 C429 C 0.61530 0.17731 0.56930
 C430 C 0.63563 0.18368 0.59461
 C431 C 0.64992 0.21674 0.64119
 C432 C 0.67819 0.19840 0.64504
 C433 C 0.69969 0.20656 0.66914
 C434 C 0.69322 0.23301 0.68921
 C435 C 0.66434 0.25067 0.68538
 C436 C 0.64268 0.24273 0.66131
 C437 C 0.66381 0.16547 0.59953
 C438 C 0.68475 0.17271 0.62432
 C439 C 0.59336 0.25348 0.63171
 C440 C 0.61430 0.26071 0.65654
 H441 H 0.66994 0.14570 0.58389
 H442 H 0.70644 0.15834 0.62709
 H443 H 0.57192 0.26818 0.62868
 H444 H 0.60841 0.28079 0.67194
 H445 H 0.55882 0.23647 0.58147
 H446 H 0.62113 0.15768 0.55336
 H447 H 0.72179 0.19278 0.67184
 H448 H 0.65910 0.27110 0.70063
 C449 C 0.70676 0.14026 0.89375
 C450 C 0.70897 0.15423 0.92310
 C451 C 0.70412 0.13368 0.94874
 C452 C 0.69559 0.09915 0.94570
 C453 C 0.69313 0.08596 0.91551
 C454 C 0.69926 0.10619 0.88971
 C455 C 0.71285 0.16172 0.86674
 C456 C 0.71226 0.14749 0.83733
 C457 C 0.71961 0.16783 0.81184
 C458 C 0.72631 0.20224 0.81576
 C459 C 0.72580 0.21623 0.84527
 C460 C 0.71973 0.19598 0.87091
 C461 C 0.69803 0.09296 0.85986
 C462 C 0.70476 0.11318 0.83415
 C463 C 0.71626 0.18859 0.92634
 C464 C 0.72124 0.20917 0.90068
 H465 H 0.69227 0.06665 0.85635
 H466 H 0.70406 0.10186 0.81162
 H467 H 0.71799 0.19971 0.94893
 H468 H 0.72674 0.23553 0.90419
 H469 H 0.70832 0.14507 0.97086
 H470 H 0.68548 0.06024 0.91149
 H471 H 0.72016 0.15705 0.78908
 H472 H 0.73162 0.24264 0.84833
 C473 C 0.18198 0.60952 0.38451
 C474 C 0.19812 0.57969 0.38891
 C475 C 0.19396 0.56254 0.41665
 C476 C 0.17430 0.57531 0.44013
 C477 C 0.15718 0.60451 0.43483
 C478 C 0.16111 0.62184 0.40710
 C479 C 0.18854 0.62917 0.35650
 C480 C 0.17364 0.65979 0.35278
 C481 C 0.18186 0.67959 0.32727
 C482 C 0.20528 0.66925 0.30585
 C483 C 0.21905 0.63787 0.30934
 C484 C 0.21089 0.61780 0.33474
 C485 C 0.14573 0.65202 0.40203
 C486 C 0.15187 0.67066 0.37530
 C487 C 0.21935 0.56847 0.36609
 C488 C 0.22565 0.58722 0.33946
 H489 H 0.12945 0.66171 0.41920
 H490 H 0.14012 0.69420 0.37261
 H491 H 0.23185 0.54542 0.36920
 H492 H 0.24281 0.57809 0.32278
 H493 H 0.20762 0.54036 0.42067
 H494 H 0.14179 0.61432 0.45267
 H495 H 0.17106 0.70367 0.32484
 H496 H 0.23705 0.62963 0.29301
 C497 C 0.31808 0.87401 0.88925
 C498 C 0.33337 0.85886 0.91404
 C499 C 0.33818 0.87678 0.94133
 C500 C 0.32767 0.90983 0.94428
 C501 C 0.31404 0.92513 0.91825
 C502 C 0.30866 0.90716 0.89100
 C503 C 0.31053 0.85432 0.86140
 C504 C 0.29348 0.86886 0.83726
 C505 C 0.28439 0.84933 0.81173
 C506 C 0.29238 0.81553 0.81024
 C507 C 0.31056 0.80177 0.83420
 C508 C 0.31934 0.82092 0.85997
 C509 C 0.29265 0.92123 0.86594
 C510 C 0.28508 0.90237 0.83958
 C511 C 0.34262 0.82564 0.91142
 C512 C 0.33581 0.80702 0.88481
 H513 H 0.28523 0.94681 0.86697
 H514 H 0.27208 0.91397 0.82107
 H515 H 0.35466 0.81371 0.93033
 H516 H 0.34283 0.78129 0.88395
 H517 H 0.35020 0.86481 0.96021
 H518 H 0.30499 0.95007 0.91971
 H519 H 0.27053 0.86020 0.79337
 H520 H 0.31672 0.77577 0.83340
 C521 C 0.79897 0.37609 0.39164
 C522 C 0.82411 0.36695 0.41147
 C523 C 0.83182 0.38710 0.43687
 C524 C 0.81442 0.41605 0.44268
 C525 C 0.78955 0.42506 0.42231
 C526 C 0.78170 0.40513 0.39676
 C527 C 0.79006 0.35442 0.36542
 C528 C 0.76448 0.36319 0.34595
 C529 C 0.75536 0.34193 0.32167
 C530 C 0.77141 0.31190 0.31700
 C531 C 0.79743 0.30382 0.33646
 C532 C 0.80681 0.32497 0.36075
 C533 C 0.75654 0.41332 0.37653
 C534 C 0.74810 0.39271 0.35153
 C535 C 0.84069 0.33760 0.40574
 C536 C 0.83216 0.31694 0.38082
 H537 H 0.74307 0.43568 0.38020
 H538 H 0.72833 0.39977 0.33665
 H539 H 0.86018 0.33034 0.42085
 H540 H 0.84531 0.29432 0.37741
 H541 H 0.85124 0.38020 0.45224
 H542 H 0.77569 0.44701 0.42681
 H543 H 0.73527 0.34839 0.30690
 H544 H 0.80998 0.28082 0.33309
 C545 C 0.12366 0.30247 0.90141
 C546 C 0.13664 0.32276 0.92503
 C547 C 0.11807 0.32713 0.95171
 C548 C 0.08681 0.31122 0.95486
 C549 C 0.07379 0.29185 0.93049
 C550 C 0.09221 0.28717 0.90382
 C551 C 0.14390 0.29602 0.87418
 C552 C 0.13148 0.27451 0.85121
 C553 C 0.15152 0.26693 0.82623
 C554 C 0.18382 0.28062 0.82417
 C555 C 0.19548 0.30297 0.84699
 C556 C 0.17573 0.31052 0.87217
 C557 C 0.08027 0.26654 0.87997
 C558 C 0.09959 0.26029 0.85413
 C559 C 0.16832 0.33745 0.92187
 C560 C 0.18751 0.33148 0.89586
 H561 H 0.05600 0.25464 0.88155
 H562 H 0.08967 0.24375 0.83652
 H563 H 0.17858 0.35325 0.93986
 H564 H 0.21201 0.34287 0.89455
 H565 H 0.12815 0.34226 0.97027
 H566 H 0.04998 0.27910 0.93288
 H567 H 0.14225 0.24977 0.80881
 H568 H 0.22031 0.31358 0.84575
 C569 C 0.62729 0.81403 0.37673
 C570 C 0.63804 0.83603 0.40000
 C571 C 0.61813 0.84019 0.42582
 C572 C 0.58793 0.82211 0.42865
 C573 C 0.57684 0.80145 0.40437
 C574 C 0.59656 0.79706 0.37849
 C575 C 0.64938 0.80720 0.35091
 C576 C 0.63932 0.78382 0.32854
 C577 C 0.66125 0.77566 0.30522
 C578 C 0.69315 0.79049 0.30431
 C579 C 0.70242 0.81474 0.32637
 C580 C 0.68071 0.82298 0.34987
 C581 C 0.58690 0.77474 0.35509
 C582 C 0.60793 0.76822 0.33053
 C583 C 0.66914 0.85221 0.39763
 C584 C 0.69010 0.84582 0.37296
 H585 H 0.56321 0.76156 0.35616
 H586 H 0.59982 0.75026 0.31333
 H587 H 0.67766 0.86934 0.41536
 H588 H 0.71416 0.85827 0.37236
 H589 H 0.62669 0.85635 0.44429
 H590 H 0.55387 0.78707 0.40653
 H591 H 0.65377 0.75708 0.28832
 H592 H 0.72688 0.82633 0.32593
 C593 C 0.86716 0.70251 0.88110
 C594 C 0.85540 0.68146 0.90469
 C595 C 0.87532 0.67626 0.93025
 C596 C 0.90669 0.69215 0.93241
 C597 C 0.91857 0.71215 0.90798
 C598 C 0.89877 0.71766 0.88238
 C599 C 0.84548 0.70988 0.85517
 C600 C 0.85676 0.73203 0.83225
 C601 C 0.83554 0.74022 0.80842
 C602 C 0.80320 0.72645 0.80742
 C603 C 0.79257 0.70366 0.83027
 C604 C 0.81355 0.69547 0.85432
 C605 C 0.90947 0.73903 0.85859
 C606 C 0.88881 0.74612 0.83397
 C607 C 0.82354 0.66695 0.90271
 C608 C 0.80299 0.67379 0.87793
 H609 H 0.93381 0.75085 0.85929
 H610 H 0.89785 0.76315 0.81635
 H611 H 0.81421 0.65058 0.92072
 H612 H 0.77844 0.66244 0.87751
 H613 H 0.86612 0.66064 0.94887
 H614 H 0.94248 0.72482 0.90964
 H615 H 0.84407 0.75766 0.79092
 H616 H 0.76775 0.69295 0.82979
 C617 C 0.37066 0.20045 0.40257
 C618 C 0.36013 0.17625 0.42403
 C619 C 0.37781 0.17295 0.45126
 C620 C 0.40582 0.19363 0.45709
 C621 C 0.41611 0.21770 0.43525
 C622 C 0.39857 0.22125 0.40795
 C623 C 0.35175 0.20448 0.37418
 C624 C 0.36180 0.22922 0.35306
 C625 C 0.34286 0.23397 0.32676
 C626 C 0.31393 0.21434 0.32170
 C627 C 0.30482 0.18898 0.34272
 C628 C 0.32352 0.18408 0.36909
 C629 C 0.40817 0.24537 0.38605
 C630 C 0.39007 0.24931 0.35907
 C631 C 0.33204 0.15596 0.41790
 C632 C 0.31403 0.15981 0.39089
 H633 H 0.42969 0.26153 0.38991
 H634 H 0.39810 0.26847 0.34294
 H635 H 0.32374 0.13713 0.43425
 H636 H 0.29229 0.14391 0.38719
 H637 H 0.37000 0.15412 0.46781
 H638 H 0.43742 0.23398 0.43974
 H639 H 0.35007 0.25363 0.31082
 H640 H 0.28256 0.17379 0.33917
 C641 C 0.68487 0.88105 0.87937
 C642 C 0.70088 0.91254 0.88209
 C643 C 0.69703 0.93097 0.90904
 C644 C 0.67784 0.91783 0.93339
 C645 C 0.66071 0.88688 0.92968
 C646 C 0.66436 0.86825 0.90279
 C647 C 0.69119 0.86029 0.85227
 C648 C 0.67647 0.82813 0.85026
 C649 C 0.68449 0.80754 0.82562
 C650 C 0.70750 0.81873 0.80339
 C651 C 0.72109 0.85153 0.80520
 C652 C 0.71316 0.87234 0.82969
 C653 C 0.64913 0.83643 0.89942
 C654 C 0.65507 0.81671 0.87359
 C655 C 0.72172 0.92426 0.85846
 C656 C 0.72777 0.90449 0.83270
 H657 H 0.63313 0.82634 0.91726
 H658 H 0.64344 0.79200 0.87223
 H659 H 0.73412 0.94857 0.86025
 H660 H 0.74463 0.91413 0.81535
 H661 H 0.71062 0.95455 0.91183
 H662 H 0.64561 0.87678 0.94818
 H663 H 0.67387 0.78238 0.82450
 H664 H 0.73874 0.86046 0.78821
 C665 C 0.20493 0.35775 0.40262
 C666 C 0.21388 0.34635 0.43167
 C667 C 0.20947 0.36673 0.45728
 C668 C 0.19489 0.39788 0.45436
 C669 C 0.18576 0.40869 0.42489
 C670 C 0.19126 0.38899 0.39893
 C671 C 0.21021 0.33665 0.37553
 C672 C 0.20272 0.34866 0.34624
 C673 C 0.20905 0.32892 0.32045
 C674 C 0.22155 0.29707 0.32419
 C675 C 0.22810 0.28507 0.35367
 C676 C 0.22308 0.30502 0.37943
 C677 C 0.18341 0.39989 0.36934
 C678 C 0.18935 0.38022 0.34342
 C679 C 0.22708 0.31472 0.43457
 C680 C 0.23132 0.29427 0.40892
 H681 H 0.17291 0.42400 0.36614
 H682 H 0.18333 0.38976 0.32101
 H683 H 0.23401 0.30560 0.45690
 H684 H 0.24146 0.27000 0.41217
 H685 H 0.21768 0.35824 0.47939
 H686 H 0.17405 0.43221 0.42205
 H687 H 0.20424 0.33814 0.29764
 H688 H 0.23836 0.26074 0.35637
 C689 C 0.29901 0.12739 0.90056
 C690 C 0.31873 0.14093 0.92407
 C691 C 0.32481 0.12157 0.94996
 C692 C 0.31141 0.08858 0.95274
 C693 C 0.29203 0.07538 0.92833
 C694 C 0.28562 0.09472 0.90243
 C695 C 0.29170 0.14808 0.87372
 C696 C 0.27107 0.13491 0.85063
 C697 C 0.26309 0.15517 0.82579
 C698 C 0.27563 0.18837 0.82399
 C699 C 0.29699 0.20084 0.84699
 C700 C 0.30490 0.18088 0.87202
 C701 C 0.26551 0.08221 0.87860
 C702 C 0.25831 0.10198 0.85317
 C703 C 0.33190 0.17370 0.92135
 C704 C 0.32512 0.19334 0.89574
 H705 H 0.25498 0.05701 0.87975
 H706 H 0.24240 0.09149 0.83548
 H707 H 0.34732 0.18439 0.93931
 H708 H 0.33548 0.21860 0.89469
 H709 H 0.34091 0.13212 0.96746
 H710 H 0.28028 0.05078 0.92991
 H711 H 0.24668 0.14529 0.80821
 H712 H 0.30667 0.22637 0.84595
 C713 C 0.81650 0.63676 0.38463
 C714 C 0.83675 0.65008 0.40794
 C715 C 0.84242 0.63081 0.43406
 C716 C 0.82772 0.59857 0.43707
 C717 C 0.80853 0.58515 0.41288
 C718 C 0.80261 0.60424 0.38673
 C719 C 0.80853 0.65776 0.35815
 C720 C 0.78712 0.64491 0.33552
 C721 C 0.77824 0.66552 0.31124
 C722 C 0.79049 0.69884 0.30952
 C723 C 0.81262 0.71103 0.33205
 C724 C 0.82153 0.69066 0.35653
 C725 C 0.78200 0.59197 0.36319
 C726 C 0.77438 0.61197 0.33803
 C727 C 0.84994 0.68284 0.40516
 C728 C 0.84250 0.70276 0.37988
 H729 H 0.77117 0.56691 0.36451
 H730 H 0.75793 0.60172 0.32065
 H731 H 0.86569 0.69338 0.42295
 H732 H 0.85278 0.72806 0.37888
 H733 H 0.85741 0.64123 0.45247
 H734 H 0.79671 0.56059 0.41517
 H735 H 0.76131 0.65578 0.29401
 H736 H 0.82217 0.73661 0.33103
 C737 C 0.12646 0.70397 0.88185
 C738 C 0.09695 0.72047 0.88448
 C739 C 0.07715 0.71499 0.91046
 C740 C 0.08686 0.69351 0.93424
 C741 C 0.11647 0.67668 0.93050
 C742 C 0.13625 0.68187 0.90457
 C743 C 0.14796 0.71061 0.85516
 C744 C 0.17778 0.69452 0.85287
 C745 C 0.19884 0.70204 0.82822
 C746 C 0.19048 0.72582 0.80614
 C747 C 0.16006 0.74111 0.80840
 C748 C 0.13875 0.73364 0.83292
 C749 C 0.16593 0.66568 0.90116
 C750 C 0.18635 0.67190 0.87574
 C751 C 0.08822 0.74284 0.86141
 C752 C 0.10878 0.74934 0.83610
 H753 H 0.17368 0.64840 0.91849
 H754 H 0.20925 0.65926 0.87421
 H755 H 0.06550 0.75577 0.86312
 H756 H 0.10134 0.76712 0.81907
 H757 H 0.05530 0.72920 0.91271
 H758 H 0.12401 0.65883 0.94742
 H759 H 0.22217 0.69016 0.82680
 H760 H 0.15333 0.75942 0.79157
 C761 C 0.61716 0.19056 0.39652
 C762 C 0.58695 0.20570 0.39983
 C763 C 0.56905 0.20092 0.42702
 C764 C 0.58140 0.18161 0.45101
 C765 C 0.61127 0.16574 0.44688
 C766 C 0.62931 0.17024 0.41971
 C767 C 0.63712 0.19733 0.36883
 C768 C 0.66786 0.18314 0.36601
 C769 C 0.68758 0.19120 0.34052
 C770 C 0.67702 0.21372 0.31819
 C771 C 0.64569 0.22698 0.32099
 C772 C 0.62569 0.21894 0.34632
 C773 C 0.65979 0.15577 0.41567
 C774 C 0.67872 0.16208 0.38926
 C775 C 0.57587 0.22638 0.37639
 C776 C 0.59493 0.23291 0.35010
 H777 H 0.66939 0.13994 0.43333
 H778 H 0.70235 0.15091 0.38731
 H779 H 0.55257 0.23815 0.37866
 H780 H 0.58576 0.24952 0.33286
 H781 H 0.54635 0.21365 0.43015
 H782 H 0.62082 0.15065 0.46514
 H783 H 0.71164 0.18087 0.33870
 H784 H 0.63726 0.24429 0.30397
 C785 C 0.87698 0.30106 0.89833
 C786 C 0.90556 0.28333 0.90226
 C787 C 0.92247 0.28579 0.93016
 C788 C 0.91087 0.30558 0.95447
 C789 C 0.88192 0.32317 0.94974
 C790 C 0.86508 0.32109 0.92184
 C791 C 0.85874 0.29802 0.86927
 C792 C 0.82992 0.31548 0.86555
 C793 C 0.81181 0.31129 0.83852
 C794 C 0.82193 0.28929 0.81551
 C795 C 0.85143 0.27269 0.81925
 C796 C 0.86992 0.27695 0.84614
 C797 C 0.83644 0.33863 0.91706
 C798 C 0.81917 0.33590 0.88936
 C799 C 0.91638 0.26301 0.87835
 C800 C 0.89882 0.25981 0.85080
 H801 H 0.82710 0.35435 0.93498
 H802 H 0.79696 0.34951 0.88675
 H803 H 0.93842 0.24916 0.88108
 H804 H 0.90776 0.24350 0.83315
 H805 H 0.94369 0.27083 0.93316
 H806 H 0.87295 0.33959 0.96728
 H807 H 0.78906 0.32405 0.83604
 H808 H 0.85942 0.25564 0.80175
 C809 C 0.36840 0.78584 0.38278
 C810 C 0.39702 0.76802 0.38661
 C811 C 0.41695 0.77450 0.41229
 C812 C 0.40833 0.79853 0.43410
 C813 C 0.37978 0.81654 0.42954
 C814 C 0.35967 0.81020 0.40402
 C815 C 0.34678 0.77836 0.35638
 C816 C 0.31779 0.79565 0.35294
 C817 C 0.29673 0.78762 0.32839
 C818 C 0.30445 0.76236 0.30744
 C819 C 0.33402 0.74575 0.31098
 C820 C 0.35518 0.75354 0.33547
 C821 C 0.33074 0.82738 0.39954
 C822 C 0.31014 0.82021 0.37446
 C823 C 0.40481 0.74366 0.36495
 C824 C 0.38426 0.73656 0.33981
 H825 H 0.32378 0.84629 0.41575
 H826 H 0.28789 0.83379 0.37205
 H827 H 0.42682 0.72976 0.36759
 H828 H 0.39102 0.71737 0.32381
 H829 H 0.43859 0.76020 0.41573
 H830 H 0.37316 0.83540 0.44596
 H831 H 0.27409 0.80056 0.32596
 H832 H 0.34026 0.72624 0.29509
 C833 C 0.29961 0.86308 0.10800
 C834 C 0.28198 0.89198 0.10347
 C835 C 0.28892 0.91199 0.07777
 C836 C 0.31334 0.90329 0.05670
 C837 C 0.33116 0.87448 0.06195
 C838 C 0.32426 0.85418 0.08746
 C839 C 0.29152 0.84127 0.13434
 C840 C 0.30845 0.81183 0.13838
 C841 C 0.29965 0.79043 0.16270
 C842 C 0.27403 0.79829 0.18281
 C843 C 0.25792 0.82839 0.17881
 C844 C 0.26641 0.84984 0.15451
 C845 C 0.34114 0.82489 0.09259
 C846 C 0.33333 0.80404 0.11759
 C847 C 0.25734 0.89997 0.12441
 C848 C 0.24972 0.87927 0.14954
 H849 H 0.36027 0.81780 0.07694
 H850 H 0.34664 0.78145 0.12048
 H851 H 0.24362 0.92224 0.12121
 H852 H 0.23031 0.88616 0.16497
 H853 H 0.27468 0.93375 0.07374
 H854 H 0.35025 0.86779 0.04606
 H855 H 0.31221 0.76736 0.16552
 H856 H 0.23812 0.83471 0.19405
 C857 C 0.82147 0.38462 0.60979
 C858 C 0.80815 0.41618 0.60708
 C859 C 0.81343 0.43450 0.58008
 C860 C 0.83149 0.42129 0.55567
 C861 C 0.84568 0.39010 0.55926
 C862 C 0.84057 0.37156 0.58622
 C863 C 0.81394 0.36421 0.63721
 C864 C 0.82614 0.33210 0.63939
 C865 C 0.81724 0.31201 0.66460
 C866 C 0.79589 0.32366 0.68729
 C867 C 0.78471 0.35635 0.68514
 C868 C 0.79354 0.37666 0.66009
 C869 C 0.85314 0.33971 0.58964
 C870 C 0.84606 0.32032 0.61577
 C871 C 0.78867 0.42819 0.63090
 C872 C 0.78148 0.40876 0.65696
 H873 H 0.86802 0.32938 0.57168
 H874 H 0.85572 0.29563 0.61721
 H875 H 0.77832 0.45254 0.62910
 H876 H 0.76582 0.41870 0.67451
 H877 H 0.80194 0.45819 0.57741
 H878 H 0.85983 0.37986 0.54072
 H879 H 0.82596 0.28691 0.66594
 H880 H 0.76834 0.36565 0.70244
 C881 C 0.68373 0.12353 0.11299
 C882 C 0.66283 0.13536 0.09029
 C883 C 0.65899 0.11750 0.06280
 C884 C 0.67629 0.08831 0.05783
 C885 C 0.69601 0.07608 0.08143
 C886 C 0.70003 0.09372 0.10895
 C887 C 0.69005 0.14362 0.14081
 C888 C 0.71228 0.13263 0.16275
 C889 C 0.72003 0.15296 0.18806
 C890 C 0.70596 0.18425 0.19133
 C891 C 0.68277 0.19429 0.16965
 C892 C 0.67493 0.17419 0.14422
 C893 C 0.72122 0.08295 0.13191
 C894 C 0.72725 0.10209 0.15836
 C895 C 0.64729 0.16553 0.09501
 C896 C 0.65323 0.18461 0.12153
 H897 H 0.73385 0.05992 0.12907
 H898 H 0.74434 0.09326 0.17519
 H899 H 0.63099 0.17486 0.07774
 H900 H 0.64131 0.20810 0.12396
 H901 H 0.64349 0.12688 0.04490
 H902 H 0.70979 0.05391 0.07768
 H903 H 0.73783 0.14492 0.20460
 H904 H 0.67177 0.21829 0.17190
 C905 C 0.20569 0.63207 0.60288
 C906 C 0.21357 0.64337 0.57329
 C907 C 0.20863 0.62173 0.54838
 C908 C 0.19453 0.58930 0.55255
 C909 C 0.18653 0.57857 0.58258
 C910 C 0.19259 0.59965 0.60782
 C911 C 0.21159 0.65455 0.62923
 C912 C 0.20529 0.64275 0.65903
 C913 C 0.21240 0.66381 0.68408
 C914 C 0.22453 0.69669 0.67919
 C915 C 0.22977 0.70845 0.64921
 C916 C 0.22397 0.68726 0.62412
 C917 C 0.18586 0.58897 0.63793
 C918 C 0.19242 0.61003 0.66311
 C919 C 0.22624 0.67615 0.56913
 C920 C 0.23106 0.69783 0.59409
 H921 H 0.17580 0.56398 0.64210
 H922 H 0.18731 0.60063 0.68595
 H923 H 0.23233 0.68519 0.54637
 H924 H 0.24081 0.72293 0.58989
 H925 H 0.21608 0.63029 0.52582
 H926 H 0.17526 0.55403 0.58639
 H927 H 0.20860 0.65478 0.70726
 H928 H 0.23976 0.73361 0.64558
 C929 C 0.87605 0.71214 0.10127
 C930 C 0.86459 0.68777 0.08036
 C931 C 0.88153 0.68368 0.05279
 C932 C 0.90975 0.70371 0.04605
 C933 C 0.92116 0.72779 0.06743
 C934 C 0.90428 0.73221 0.09506
 C935 C 0.85770 0.71723 0.12989
 C936 C 0.86852 0.74230 0.15039
 C937 C 0.84993 0.74825 0.17676
 C938 C 0.82060 0.72948 0.18249
 C939 C 0.81082 0.70365 0.16217
 C940 C 0.82912 0.69760 0.13574
 C941 C 0.91475 0.75658 0.11642
 C942 C 0.89714 0.76158 0.14359
 C943 C 0.83623 0.66820 0.08730
 C944 C 0.81879 0.67302 0.11454
 H945 H 0.93653 0.77218 0.11193
 H946 H 0.90579 0.78097 0.15923
 H947 H 0.82723 0.64924 0.07139
 H948 H 0.79678 0.65771 0.11884
 H949 H 0.87290 0.66480 0.03661
 H950 H 0.94271 0.74349 0.06226
 H951 H 0.85765 0.76825 0.19215
 H952 H 0.78828 0.68908 0.16625
 C953 C 0.36915 0.19365 0.62332
 C954 C 0.35725 0.17178 0.60043
 C955 C 0.37651 0.16662 0.57433
 C956 C 0.40731 0.18343 0.57091
 C957 C 0.41940 0.20426 0.59468
 C958 C 0.40029 0.20968 0.62082
 C959 C 0.34803 0.20106 0.64973
 C960 C 0.35935 0.22408 0.67191
 C961 C 0.33850 0.23245 0.69606
 C962 C 0.30643 0.21809 0.69805
 C963 C 0.29583 0.19434 0.67601
 C964 C 0.31645 0.18591 0.65169
 C965 C 0.41112 0.23187 0.64394
 C966 C 0.39099 0.23895 0.66904
 C967 C 0.32584 0.15645 0.60358
 C968 C 0.30580 0.16337 0.62879
 H969 H 0.43511 0.24435 0.64232
 H970 H 0.40007 0.25667 0.68606
 H971 H 0.31641 0.13944 0.58612
 H972 H 0.28154 0.15144 0.63006
 H973 H 0.36715 0.15036 0.55625
 H974 H 0.44285 0.21765 0.59207
 H975 H 0.34700 0.25067 0.71289
 H976 H 0.27123 0.18315 0.67723
 C977 C 0.12471 0.28808 0.12065
 C978 C 0.13419 0.31373 0.10025
 C979 C 0.11507 0.31901 0.07426
 C980 C 0.08675 0.29876 0.06843
 C981 C 0.07712 0.27362 0.08948
 C982 C 0.09618 0.26805 0.11560
 C983 C 0.14559 0.28148 0.14732
 C984 C 0.13671 0.25519 0.16726
 C985 C 0.15747 0.24808 0.19180
 C986 C 0.18704 0.26690 0.19626
 C987 C 0.19505 0.29371 0.17643
 C988 C 0.17452 0.30100 0.15187
 C989 C 0.08775 0.24239 0.13640
 C990 C 0.10768 0.23606 0.16178
 C991 C 0.16295 0.33316 0.10591
 C992 C 0.18278 0.32690 0.13130
 H993 H 0.06579 0.22678 0.13282
 H994 H 0.10051 0.21575 0.17701
 H995 H 0.17043 0.35309 0.09037
 H996 H 0.20501 0.34218 0.13461
 H997 H 0.12236 0.33867 0.05834
 H998 H 0.05552 0.25776 0.08500
 H999 H 0.15105 0.22737 0.20686
 H1000 H 0.21768 0.30840 0.17960
 C1001 C 0.62756 0.79192 0.59475
 C1002 C 0.59637 0.80513 0.59726
 C1003 C 0.57813 0.81039 0.57056
 C1004 C 0.59049 0.80165 0.54151
 C1005 C 0.62151 0.78741 0.53977
 C1006 C 0.64036 0.78314 0.56615
 C1007 C 0.64725 0.78722 0.62259
 C1008 C 0.67889 0.77503 0.61984
 C1009 C 0.69771 0.77105 0.64625
 C1010 C 0.68470 0.77809 0.67523
 C1011 C 0.65278 0.78971 0.67786
 C1012 C 0.63408 0.79492 0.65139
 C1013 C 0.67189 0.77045 0.56442
 C1014 C 0.69095 0.76674 0.59080
 C1015 C 0.58415 0.81297 0.62641
 C1016 C 0.60256 0.80767 0.65303
 H1017 H 0.68205 0.76364 0.54246
 H1018 H 0.71525 0.75711 0.58846
 H1019 H 0.56007 0.82310 0.62870
 H1020 H 0.59211 0.81382 0.67505
 H1021 H 0.55460 0.82177 0.57246
 H1022 H 0.63113 0.77949 0.51794
 H1023 H 0.72217 0.76160 0.64442
 H1024 H 0.64284 0.79501 0.70030
   
