data_POSCAR
  _audit_creation_date              2014-09-24
  _audit_creation_method            'ToBaCCo'
  _symmetry_space_group_name_H-M    'P1'
  _symmetry_Int_Tables_number       1
  _symmetry_cell_setting            triclinic
  loop_
  _symmetry_equiv_pos_as_xyz
 x,y,z
_cell_length_a 36.0730
_cell_length_b 36.0473
_cell_length_c 19.8130
_cell_angle_alpha 89.909800
_cell_angle_beta 89.970000
_cell_angle_gamma 90.434700
loop_
  _atom_site_label
  _atom_site_type_symbol
  _atom_site_fract_x
  _atom_site_fract_y
  _atom_site_fract_z
C1 C -0.10130 0.26212 -0.00288
 C2 C -0.08268 0.26433 0.05920
 C3 C -0.04370 0.26577 0.05915
 C4 C -0.02305 0.26025 -0.00048
 C5 C -0.04290 0.25545 -0.06139
 C6 C -0.08181 0.25820 -0.06379
 C7 C 0.01882 0.25883 0.00102
 C8 C 0.03986 0.26231 -0.05889
 C9 C 0.07853 0.25847 -0.05851
 C10 C 0.09702 0.25523 0.00323
 C11 C 0.07731 0.25326 0.06400
 C12 C 0.03835 0.25342 0.06219
 H13 H -0.13134 0.26252 -0.00364
 H14 H -0.02969 0.27148 0.10590
 H15 H -0.02830 0.24904 -0.10711
 H16 H 0.02668 0.26830 -0.10635
 H17 H 0.12699 0.25341 0.00388
 H18 H 0.02366 0.24904 0.10875
 C19 C 0.39926 0.75555 0.49901
 C20 C 0.41804 0.76238 0.55966
 C21 C 0.45698 0.76485 0.55894
 C22 C 0.47738 0.75773 0.49955
 C23 C 0.45761 0.74939 0.43993
 C24 C 0.41865 0.74933 0.43882
 C25 C 0.51906 0.75831 0.49999
 C26 C 0.53935 0.76599 0.44052
 C27 C 0.57830 0.76451 0.43973
 C28 C 0.59719 0.75816 0.50036
 C29 C 0.57792 0.75144 0.56065
 C30 C 0.53896 0.75050 0.55963
 H31 H 0.36924 0.75432 0.49889
 H32 H 0.47128 0.77250 0.60470
 H33 H 0.47244 0.74275 0.39430
 H34 H 0.52495 0.77327 0.39474
 H35 H 0.62722 0.75768 0.50040
 H36 H 0.52423 0.74346 0.60531
 C37 C 1.09787 0.74091 -0.00130
 C38 C 1.07912 0.74813 0.05942
 C39 C 1.04017 0.75043 0.05830
 C40 C 1.01979 0.74293 -0.00092
 C41 C 1.03953 0.73494 -0.06064
 C42 C 1.07860 0.73561 -0.06219
 C43 C 0.97810 0.74404 -0.00042
 C44 C 0.95808 0.75238 -0.05971
 C45 C 0.91912 0.75270 -0.05985
 C46 C 0.90003 0.74682 0.00086
 C47 C 0.91907 0.74007 0.06115
 C48 C 0.95792 0.73725 0.05958
 H49 H 1.12791 0.74033 -0.00147
 H50 H 1.02560 0.75825 0.10351
 H51 H 1.02443 0.72803 -0.10589
 H52 H 0.97269 0.75877 -0.10583
 H53 H 0.87005 0.74827 0.00142
 H54 H 0.97228 0.72952 0.10518
 C55 C 0.59748 0.24302 0.49812
 C56 C 0.57884 0.23675 0.55918
 C57 C 0.53999 0.23379 0.55887
 C58 C 0.51941 0.24044 0.49957
 C59 C 0.53896 0.24839 0.43952
 C60 C 0.57788 0.24847 0.43790
 C61 C 0.47778 0.24001 0.50066
 C62 C 0.45723 0.23295 0.44139
 C63 C 0.41837 0.23506 0.44112
 C64 C 0.39971 0.24092 0.50216
 C65 C 0.41928 0.24679 0.56234
 C66 C 0.45820 0.24754 0.56070
 H67 H 0.62749 0.24447 0.49770
 H68 H 0.52594 0.22623 0.60500
 H69 H 0.52402 0.25482 0.39395
 H70 H 0.47131 0.22572 0.39527
 H71 H 0.36970 0.24173 0.50260
 H72 H 0.47310 0.25429 0.60622
 C73 C 0.73893 -0.09667 0.00259
 C74 C 0.74617 -0.07727 0.06271
 C75 C 0.74752 -0.03820 0.06065
 C76 C 0.73897 -0.01854 0.00108
 C77 C 0.73050 -0.03901 -0.05762
 C78 C 0.73225 -0.07791 -0.05811
 C79 C 0.73953 0.02315 -0.00027
 C80 C 0.74676 0.04251 -0.06085
 C81 C 0.74582 0.08152 -0.06360
 C82 C 0.74051 0.10128 -0.00331
 C83 C 0.73545 0.08287 0.05836
 C84 C 0.73331 0.04392 0.05892
 H85 H 0.73929 -0.12673 0.00251
 H86 H 0.75542 -0.02304 0.10527
 H87 H 0.72253 -0.02478 -0.10321
 H88 H 0.75330 0.02715 -0.10586
 H89 H 0.74114 0.13134 -0.00393
 H90 H 0.72662 0.02991 0.10556
 C91 C 0.23968 0.39915 0.50118
 C92 C 0.23491 0.41862 0.56163
 C93 C 0.23233 0.45745 0.55961
 C94 C 0.23797 0.47731 0.49895
 C95 C 0.24432 0.45691 0.43929
 C96 C 0.24401 0.41788 0.43965
 C97 C 0.23813 0.51906 0.49839
 C98 C 0.23052 0.53911 0.43875
 C99 C 0.23273 0.57807 0.43729
 C100 C 0.23941 0.59727 0.49757
 C101 C 0.24601 0.57824 0.55802
 C102 C 0.24662 0.53929 0.55745
 H103 H 0.24088 0.36912 0.50220
 H104 H 0.22583 0.47200 0.60557
 H105 H 0.24986 0.47123 0.39254
 H106 H 0.22277 0.52459 0.39331
 H107 H 0.24027 0.62732 0.49718
 H108 H 0.25393 0.52488 0.60317
 C109 C 0.25623 1.09675 0.00034
 C110 C 0.25091 1.07674 0.06035
 C111 C 0.25035 1.03784 0.05810
 C112 C 0.25751 1.01863 -0.00239
 C113 C 0.26360 1.03954 -0.06175
 C114 C 0.26141 1.07859 -0.06159
 C115 C 0.25818 0.97695 -0.00347
 C116 C 0.24956 0.95713 -0.06287
 C117 C 0.25094 0.91808 -0.06468
 C118 C 0.25831 0.89881 -0.00448
 C119 C 0.26504 0.91770 0.05606
 C120 C 0.26674 0.95662 0.05533
 H121 H 0.25548 1.12679 0.00186
 H122 H 0.24417 1.02259 0.10363
 H123 H 0.27042 1.02539 -0.10796
 H124 H 0.24153 0.97214 -0.10755
 H125 H 0.25799 0.86875 -0.00421
 H126 H 0.27471 0.97098 0.10083
 C127 C 0.75696 0.60207 0.50219
 C128 C 0.76380 0.58294 0.56246
 C129 C 0.76600 0.54402 0.56115
 C130 C 0.75824 0.52389 0.50163
 C131 C 0.74957 0.54403 0.44258
 C132 C 0.75018 0.58298 0.44189
 C133 C 0.75845 0.48216 0.50116
 C134 C 0.76401 0.46248 0.44050
 C135 C 0.76143 0.42362 0.43850
 C136 C 0.75678 0.40397 0.49901
 C137 C 0.75255 0.42256 0.56056
 C138 C 0.75222 0.46158 0.56087
 H139 H 0.75611 0.63210 0.50248
 H140 H 0.77385 0.52959 0.60659
 H141 H 0.74212 0.52955 0.39698
 H142 H 0.77046 0.47721 0.39452
 H143 H 0.75559 0.37393 0.49802
 H144 H 0.74678 0.47577 0.60762
 O145 O 0.20783 0.25781 0.17700
 O146 O 0.30514 0.24876 0.23032
 O147 O 0.25601 0.20570 0.17500
 O148 O 0.25729 0.30296 0.22984
 O149 O 0.23866 0.28577 0.33149
 O150 O 0.23764 0.18801 0.27662
 O151 O 0.28641 0.23217 0.33227
 O152 O 0.18920 0.24074 0.27877
 Cu153 Cu 0.25847 0.25581 0.19297
 Cu154 Cu 0.23611 0.23506 0.31511
 C155 C 0.18201 0.24994 0.21833
 C156 C 0.31227 0.23881 0.29043
 C157 C 0.24631 0.18040 0.21604
 C158 C 0.24842 0.31093 0.29007
 O159 O 0.78738 0.73830 0.17293
 O160 O 0.69079 0.75230 0.22748
 O161 O 0.74189 0.79349 0.17183
 O162 O 0.73628 0.69643 0.22888
 O163 O 0.75615 0.71342 0.32978
 O164 O 0.76122 0.81061 0.27299
 O165 O 0.71048 0.76837 0.32897
 O166 O 0.80716 0.75482 0.27412
 Cu167 Cu 0.73711 0.74338 0.19016
 Cu168 Cu 0.76079 0.76359 0.31156
 C169 C 0.81369 0.74441 0.21408
 C170 C 0.68421 0.76241 0.28768
 C171 C 0.75250 0.81852 0.21258
 C172 C 0.74508 0.68848 0.28923
 O173 O 0.80459 0.24698 0.26670
 O174 O 0.70751 0.24550 0.32338
 O175 O 0.75117 0.19685 0.26798
 O176 O 0.76069 0.29358 0.32421
 O177 O 0.74381 0.31309 0.22303
 O178 O 0.73355 0.21593 0.16705
 O179 O 0.68964 0.26483 0.22270
 O180 O 0.78663 0.26525 0.16541
 Cu181 Cu 0.75782 0.24348 0.30552
 Cu182 Cu 0.73651 0.26656 0.18434
 C183 C 0.81212 0.25689 0.20665
 C184 C 0.68216 0.25553 0.28305
 C185 C 0.74071 0.18987 0.20813
 C186 C 0.75395 0.31975 0.28327
 O187 O 0.24864 0.68944 0.22346
 O188 O 0.26530 0.78573 0.16792
 O189 O 0.30572 0.73449 0.22500
 O190 O 0.20884 0.74094 0.16739
 O191 O 0.19221 0.76076 0.26836
 O192 O 0.28897 0.75475 0.32562
 O193 O 0.24923 0.80592 0.26897
 O194 O 0.23289 0.70962 0.32466
 Cu195 Cu 0.25886 0.73559 0.18585
 Cu196 Cu 0.23907 0.75983 0.30696
 C197 C 0.23818 0.68316 0.28365
 C198 C 0.25989 0.81218 0.20888
 C199 C 0.31374 0.74345 0.28528
 C200 C 0.18409 0.75199 0.20806
 O201 O 0.75855 0.29057 0.66945
 O202 O 0.75925 0.19273 0.72405
 O203 O 0.71070 0.23640 0.66869
 O204 O 0.80770 0.24630 0.72353
 O205 O 0.78878 0.26290 0.82512
 O206 O 0.69171 0.25236 0.77058
 O207 O 0.74087 0.20988 0.82571
 O208 O 0.73959 0.30728 0.77090
 Cu209 Cu 0.76099 0.23995 0.68614
 Cu210 Cu 0.73830 0.26007 0.80814
 C211 C 0.74860 0.31549 0.71073
 C212 C 0.75049 0.18482 0.78453
 C213 C 0.68474 0.24247 0.71037
 C214 C 0.81471 0.25547 0.78407
 O215 O 0.23982 0.70843 0.67004
 O216 O 0.23509 0.80553 0.72627
 O217 O 0.28571 0.76388 0.67067
 O218 O 0.18914 0.74901 0.72671
 O219 O 0.20919 0.73304 0.82794
 O220 O 0.30561 0.74803 0.77207
 O221 O 0.25479 0.78877 0.82733
 O222 O 0.25980 0.69170 0.77093
 Cu223 Cu 0.23536 0.75846 0.68836
 Cu224 Cu 0.25935 0.73863 0.80967
 C225 C 0.25089 0.68363 0.71065
 C226 C 0.24407 0.81362 0.78648
 C227 C 0.31208 0.75826 0.71179
 C228 C 0.18278 0.73873 0.78703
 O229 O 0.25292 0.30793 0.77669
 O230 O 0.26323 0.21092 0.83289
 O231 O 0.30716 0.26059 0.77705
 O232 O 0.20995 0.25920 0.83299
 O233 O 0.19242 0.24008 0.73191
 O234 O 0.28963 0.24130 0.67609
 O235 O 0.24652 0.19156 0.73157
 O236 O 0.23608 0.28824 0.67556
 Cu237 Cu 0.26018 0.26146 0.81515
 Cu238 Cu 0.23938 0.23806 0.69379
 C239 C 0.24270 0.31449 0.71650
 C240 C 0.25662 0.18476 0.79168
 C241 C 0.31483 0.25166 0.71670
 C242 C 0.18465 0.25003 0.79170
 O243 O 0.70792 0.75892 0.67273
 O244 O 0.80489 0.76652 0.72899
 O245 O 0.76397 0.71453 0.67408
 O246 O 0.74773 0.81062 0.72924
 O247 O 0.73205 0.79017 0.83058
 O248 O 0.74826 0.69412 0.77543
 O249 O 0.78848 0.74614 0.83000
 O250 O 0.69139 0.73854 0.77367
 Cu251 Cu 0.75784 0.76473 0.69116
 Cu252 Cu 0.73833 0.74018 0.81255
 C253 C 0.68323 0.74733 0.71338
 C254 C 0.81314 0.75769 0.78917
 C255 C 0.75868 0.68799 0.71528
 C256 C 0.73731 0.81671 0.78945
 C257 C 0.24609 0.09728 0.12457
 C258 C 0.23660 0.08220 0.18662
 C259 C 0.23558 0.11147 0.23024
 C260 C 0.24463 0.14207 0.19175
 O261 O 0.25093 0.13360 0.12805
 H262 H 0.23077 0.05354 0.19912
 H263 H 0.22888 0.11065 0.28347
 C264 C 0.76654 0.60426 0.62637
 C265 C 0.76651 0.58934 0.69079
 C266 C 0.76454 0.61897 0.73342
 C267 C 0.76370 0.64971 0.69208
 O268 O 0.76493 0.64093 0.62746
 H269 H 0.76628 0.56044 0.70548
 H270 H 0.76289 0.61823 0.78794
 C271 C 0.75185 0.90260 0.12285
 C272 C 0.76066 0.91716 0.18569
 C273 C 0.76255 0.88739 0.22823
 C274 C 0.75460 0.85700 0.18869
 O275 O 0.74823 0.86604 0.12521
 H276 H 0.76516 0.94578 0.19982
 H277 H 0.76862 0.88783 0.28171
 C278 C 0.23466 0.39785 0.62635
 C279 C 0.23773 0.41322 0.69012
 C280 C 0.24057 0.38384 0.73332
 C281 C 0.23893 0.35284 0.69289
 O282 O 0.23534 0.36118 0.62835
 H283 H 0.23922 0.44221 0.70381
 H284 H 0.24418 0.38490 0.78751
 C285 C 0.89672 0.26360 0.11970
 C286 C 0.91108 0.26094 0.18452
 C287 C 0.88111 0.25784 0.22618
 C288 C 0.85077 0.25908 0.18421
 O289 O 0.86002 0.26261 0.12005
 H290 H 0.93973 0.26010 0.20034
 H291 H 0.88134 0.25489 0.28054
 C292 C 0.39637 0.76500 0.62329
 C293 C 0.41097 0.76490 0.68789
 C294 C 0.38114 0.76328 0.73020
 C295 C 0.35056 0.76270 0.68859
 O296 O 0.35965 0.76375 0.62400
 H297 H 0.43977 0.76449 0.70291
 H298 H 0.38162 0.76175 0.78474
 C299 C 0.09975 0.75295 0.11931
 C300 C 0.08575 0.76173 0.18252
 C301 C 0.11568 0.76292 0.22456
 C302 C 0.14565 0.75461 0.18446
 O303 O 0.13618 0.74865 0.12102
 H304 H 0.05738 0.76674 0.19725
 H305 H 0.11564 0.76883 0.27810
 C306 C 0.60043 0.23530 0.62287
 C307 C 0.58583 0.23689 0.68742
 C308 C 0.61567 0.23913 0.72954
 C309 C 0.64619 0.23861 0.68779
 O310 O 0.63711 0.23629 0.62338
 H311 H 0.55703 0.23785 0.70243
 H312 H 0.61523 0.24165 0.78396
 C313 C 0.75003 0.10122 0.87533
 C314 C 0.75693 0.08628 0.81206
 C315 C 0.75823 0.11579 0.76881
 C316 C 0.75180 0.14639 0.80845
 O317 O 0.74693 0.13774 0.87256
 H318 H 0.76068 0.05757 0.79812
 H319 H 0.76310 0.11508 0.71493
 C320 C 0.23017 0.59935 0.37321
 C321 C 0.23029 0.58441 0.30889
 C322 C 0.23233 0.61404 0.26604
 C323 C 0.23314 0.64481 0.30715
 O324 O 0.23180 0.63605 0.37185
 H325 H 0.23050 0.55551 0.29440
 H326 H 0.23406 0.61329 0.21153
 C327 C 0.24512 0.89781 0.87539
 C328 C 0.23618 0.91219 0.81250
 C329 C 0.23413 0.88235 0.77025
 C330 C 0.24214 0.85211 0.81001
 O331 O 0.24870 0.86130 0.87334
 H332 H 0.23167 0.94074 0.79815
 H333 H 0.22791 0.88264 0.71683
 C334 C 0.76163 0.40301 0.37372
 C335 C 0.75838 0.41849 0.31001
 C336 C 0.75563 0.38919 0.26670
 C337 C 0.75749 0.35811 0.30700
 O338 O 0.76112 0.36634 0.37157
 H339 H 0.75673 0.44750 0.29643
 H340 H 0.75196 0.39033 0.21253
 C341 C 0.10011 0.25631 0.87799
 C342 C 0.08562 0.24968 0.81442
 C343 C 0.11557 0.24642 0.77281
 C344 C 0.14597 0.25129 0.81397
 O345 O 0.13675 0.25726 0.87746
 H346 H 0.05687 0.24637 0.80007
 H347 H 0.11531 0.24081 0.71917
 C348 C 0.59990 0.76765 0.37603
 C349 C 0.58529 0.76731 0.31144
 C350 C 0.61513 0.76627 0.26912
 C351 C 0.64571 0.76623 0.31073
 O352 O 0.63662 0.76708 0.37530
 H353 H 0.55649 0.76636 0.29645
 H354 H 0.61465 0.76474 0.21458
 C355 C 0.89744 0.75884 0.87755
 C356 C 0.91132 0.77040 0.81580
 C357 C 0.88139 0.77171 0.77368
 C358 C 0.85160 0.76080 0.81268
 O359 O 0.86120 0.75307 0.87536
 H360 H 0.93963 0.77730 0.80261
 H361 H 0.88129 0.77961 0.72096
 C362 C 0.39673 0.23316 0.37751
 C363 C 0.41124 0.23509 0.31288
 C364 C 0.38133 0.23676 0.27089
 C365 C 0.35087 0.23561 0.31277
 O366 O 0.36005 0.23342 0.37714
 H367 H 0.44002 0.23664 0.29777
 H368 H 0.38168 0.23935 0.21646
 C369 C 0.72935 0.90053 0.87821
 C370 C 0.72910 0.91531 0.81365
 C371 C 0.73107 0.88563 0.77119
 C372 C 0.73221 0.85498 0.81268
 O373 O 0.73114 0.86385 0.87731
 H374 H 0.72912 0.94416 0.79870
 H375 H 0.73253 0.88629 0.71665
 C376 C 0.24844 0.39588 0.37688
 C377 C 0.25749 0.40974 0.31375
 C378 C 0.25852 0.37961 0.27218
 C379 C 0.24993 0.34968 0.31274
 O380 O 0.24386 0.35940 0.37598
 H381 H 0.26305 0.43816 0.29922
 H382 H 0.26494 0.37945 0.21881
 C383 C 0.26300 0.09973 0.87840
 C384 C 0.26391 0.08578 0.81320
 C385 C 0.26194 0.11595 0.77176
 C386 C 0.26035 0.14610 0.81418
 O387 O 0.26105 0.13647 0.87853
 H388 H 0.26462 0.05720 0.79685
 H389 H 0.26129 0.11596 0.71715
 C390 C 0.74402 0.60451 0.37903
 C391 C 0.73256 0.59039 0.31746
 C392 C 0.73138 0.62015 0.27482
 C393 C 0.74226 0.65008 0.31332
 O394 O 0.74985 0.64075 0.37622
 H395 H 0.72567 0.56204 0.30461
 H396 H 0.72352 0.62005 0.22211
 C397 C 0.09881 0.73270 0.87696
 C398 C 0.08402 0.73114 0.81238
 C399 C 0.11369 0.73248 0.76961
 C400 C 0.14438 0.73434 0.81074
 O401 O 0.13554 0.73438 0.87546
 H402 H 0.05524 0.73056 0.79724
 H403 H 0.11301 0.73281 0.71501
 C404 C 0.59881 0.25423 0.37421
 C405 C 0.58407 0.26432 0.31240
 C406 C 0.61348 0.26602 0.26912
 C407 C 0.64385 0.25676 0.30753
 O408 O 0.63511 0.24967 0.37095
 H409 H 0.55553 0.27008 0.29981
 H410 H 0.61291 0.27329 0.21612
 C411 C 0.89836 0.25655 0.87485
 C412 C 0.91336 0.25229 0.81081
 C413 C 0.88390 0.25193 0.76769
 C414 C 0.85318 0.25629 0.80802
 O415 O 0.86176 0.25910 0.87260
 H416 H 0.94207 0.24950 0.79620
 H417 H 0.88468 0.24854 0.71345
 C418 C 0.39738 0.74302 0.37570
 C419 C 0.41162 0.73150 0.31438
 C420 C 0.38201 0.72997 0.27149
 C421 C 0.35203 0.74072 0.30964
 O422 O 0.36121 0.74855 0.37253
 H423 H 0.43995 0.72476 0.30192
 H424 H 0.38223 0.72201 0.21885
 C425 C 0.26798 0.89617 0.11984
 C426 C 0.26818 0.91092 0.18433
 C427 C 0.26617 0.88119 0.22690
 C428 C 0.26507 0.85054 0.18554
 O429 O 0.26620 0.85947 0.12089
 H430 H 0.26811 0.93977 0.19915
 H431 H 0.26465 0.88180 0.28145
 C432 C 0.74826 0.40045 0.62346
 C433 C 0.73915 0.41412 0.68653
 C434 C 0.73826 0.38398 0.72827
 C435 C 0.74699 0.35423 0.68788
 O436 O 0.75301 0.36406 0.62456
 H437 H 0.73342 0.44242 0.70089
 H438 H 0.73182 0.38368 0.78163
 C439 C 0.73423 0.10492 0.12165
 C440 C 0.73653 0.09068 0.18641
 C441 C 0.73861 0.12077 0.22791
 C442 C 0.73731 0.15114 0.18573
 O443 O 0.73465 0.14169 0.12149
 H444 H 0.73800 0.06196 0.20193
 H445 H 0.74150 0.12062 0.28228
 C446 C 0.25201 0.59979 0.62092
 C447 C 0.26337 0.58576 0.68257
 C448 C 0.26448 0.61546 0.72520
 C449 C 0.25366 0.64529 0.68663
 O450 O 0.24617 0.63594 0.62368
 H451 H 0.27028 0.55750 0.69547
 H452 H 0.27229 0.61541 0.77793
 C453 C 0.89771 0.73780 0.12521
 C454 C 0.91255 0.73877 0.18958
 C455 C 0.88286 0.74050 0.23220
 C456 C 0.85214 0.74029 0.19092
 O457 O 0.86101 0.73864 0.12631
 H458 H 0.94143 0.73970 0.20414
 H459 H 0.88353 0.74261 0.28667
 C460 C 0.39830 0.25207 0.62598
 C461 C 0.41295 0.26230 0.68786
 C462 C 0.38347 0.26339 0.73103
 C463 C 0.35318 0.25368 0.69247
 O464 O 0.36202 0.24687 0.62910
 H465 H 0.44146 0.26852 0.70056
 H466 H 0.38397 0.27055 0.78405
 C467 C 0.09823 0.25082 0.12839
 C468 C 0.08328 0.24492 0.19193
 C469 C 0.11281 0.24445 0.23496
 C470 C 0.14347 0.25031 0.19477
 O471 O 0.13477 0.25414 0.13045
 H472 H 0.05455 0.24091 0.20583
 H473 H 0.11213 0.23991 0.28895
 C474 C 0.59934 0.74559 0.62369
 C475 C 0.58525 0.73398 0.68527
 C476 C 0.61497 0.73295 0.72792
 C477 C 0.64486 0.74405 0.68939
 O478 O 0.63552 0.75165 0.62650
 H479 H 0.55694 0.72687 0.69806
 H480 H 0.61487 0.72508 0.78065
   
