data_POSCAR
  _audit_creation_date              2014-09-24
  _audit_creation_method            'ToBaCCo'
  _symmetry_space_group_name_H-M    'P1'
  _symmetry_Int_Tables_number       1
  _symmetry_cell_setting            triclinic
  loop_
  _symmetry_equiv_pos_as_xyz
 x,y,z
_cell_length_a 33.0401
_cell_length_b 20.7528
_cell_length_c 26.1818
_cell_angle_alpha 90.372500
_cell_angle_beta 89.961400
_cell_angle_gamma 92.263300
loop_
  _atom_site_label
  _atom_site_type_symbol
  _atom_site_fract_x
  _atom_site_fract_y
  _atom_site_fract_z
C1 C 0.25668 0.28278 0.23593
 C2 C 0.26445 0.21898 0.23005
 C3 C 0.23602 0.17355 0.20211
 C4 C 0.30016 0.18977 0.25416
 C5 C 0.28694 0.32857 0.25900
 C6 C 0.21837 0.30986 0.21749
 C7 C 0.22326 0.11534 0.22506
 C8 C 0.19457 0.07419 0.20130
 C9 C 0.17682 0.09113 0.15454
 C10 C 0.19107 0.14838 0.13055
 C11 C 0.22108 0.18811 0.15350
 C12 C 0.30744 0.19651 0.30685
 C13 C 0.33722 0.16115 0.33052
 C14 C 0.35936 0.11687 0.30222
 C15 C 0.35258 0.11087 0.24948
 C16 C 0.32348 0.14731 0.22562
 C17 C 0.32286 0.34524 0.23288
 C18 C 0.35171 0.38770 0.25519
 C19 C 0.34547 0.41242 0.30448
 C20 C 0.30936 0.39600 0.33041
 C21 C 0.27989 0.35537 0.30734
 C22 C 0.21964 0.36026 0.18191
 C23 C 0.18428 0.37776 0.15708
 C24 C 0.14727 0.34469 0.16725
 C25 C 0.14558 0.29766 0.20555
 C26 C 0.18070 0.28132 0.23124
 H27 H 0.23476 0.10241 0.26219
 H28 H 0.18511 0.03037 0.22100
 H29 H 0.17951 0.16282 0.09390
 H30 H 0.23171 0.23139 0.13397
 H31 H 0.28875 0.22656 0.33023
 H32 H 0.34132 0.16595 0.37140
 H33 H 0.31805 0.14063 0.18510
 H34 H 0.32849 0.32526 0.19534
 H35 H 0.37944 0.39965 0.23465
 H36 H 0.30391 0.41489 0.36835
 H37 H 0.25214 0.34317 0.32775
 H38 H 0.24831 0.38333 0.17106
 H39 H 0.18636 0.41431 0.12777
 H40 H 0.11726 0.27217 0.21457
 H41 H 0.17892 0.24343 0.25950
 H42 H 0.36929 0.07707 0.22683
 C43 C 0.76334 0.21751 0.26511
 C44 C 0.75588 0.28149 0.26089
 C45 C 0.78680 0.32751 0.23998
 C46 C 0.71738 0.30824 0.27948
 C47 C 0.73436 0.17186 0.29106
 C48 C 0.79981 0.18872 0.24239
 C49 C 0.82248 0.34229 0.26732
 C50 C 0.85246 0.38359 0.24645
 C51 C 0.84758 0.40910 0.19742
 C52 C 0.81159 0.39489 0.17040
 C53 C 0.78105 0.35530 0.19201
 C54 C 0.71829 0.35787 0.31623
 C55 C 0.68263 0.37522 0.34073
 C56 C 0.64566 0.34271 0.32909
 C57 C 0.64439 0.29631 0.28984
 C58 C 0.67981 0.28017 0.26450
 C59 C 0.71957 0.11651 0.26499
 C60 C 0.69052 0.07518 0.28760
 C61 C 0.67550 0.08888 0.33645
 C62 C 0.69136 0.14300 0.36330
 C63 C 0.72103 0.18361 0.34108
 C64 C 0.80915 0.19661 0.19040
 C65 C 0.84032 0.16260 0.16801
 C66 C 0.86193 0.11867 0.19690
 C67 C 0.85299 0.11146 0.24899
 C68 C 0.82239 0.14642 0.27157
 H69 H 0.82715 0.32140 0.30456
 H70 H 0.88002 0.39388 0.26786
 H71 H 0.80712 0.41449 0.13268
 H72 H 0.75354 0.34443 0.17063
 H73 H 0.74686 0.38056 0.32811
 H74 H 0.68442 0.41124 0.37082
 H75 H 0.67827 0.24295 0.23530
 H76 H 0.72977 0.10621 0.22658
 H77 H 0.67892 0.03356 0.26626
 H78 H 0.68093 0.15396 0.40146
 H79 H 0.73291 0.22505 0.36240
 H80 H 0.79115 0.22672 0.16651
 H81 H 0.84604 0.16831 0.12756
 H82 H 0.86920 0.07788 0.27208
 H83 H 0.81544 0.13899 0.31160
 H84 H 0.61613 0.27123 0.27970
 C85 C 0.74137 0.78018 0.75847
 C86 C 0.74033 0.71510 0.76731
 C87 C 0.71293 0.66907 0.73871
 C88 C 0.76726 0.68741 0.80637
 C89 C 0.77150 0.82492 0.78462
 C90 C 0.71151 0.81156 0.72491
 C91 C 0.68934 0.62267 0.76541
 C92 C 0.66175 0.58151 0.73947
 C93 C 0.65705 0.58615 0.68634
 C94 C 0.68183 0.63082 0.65934
 C95 C 0.70984 0.67134 0.68522
 C96 C 0.76780 0.71154 0.85663
 C97 C 0.79937 0.69738 0.88957
 C98 C 0.82996 0.65676 0.87358
 C99 C 0.82704 0.62716 0.82524
 C100 C 0.79591 0.64260 0.79174
 C101 C 0.81302 0.81247 0.78551
 C102 C 0.83998 0.85143 0.81434
 C103 C 0.82650 0.90637 0.84012
 C104 C 0.78554 0.92157 0.83569
 C105 C 0.75826 0.88067 0.80915
 C106 C 0.72527 0.86069 0.69176
 C107 C 0.69784 0.89787 0.66577
 C108 C 0.65609 0.88546 0.67111
 C109 C 0.64201 0.83453 0.70217
 C110 C 0.66951 0.79867 0.72978
 H111 H 0.69148 0.61949 0.80659
 H112 H 0.64322 0.54734 0.76123
 H113 H 0.67954 0.63466 0.61826
 H114 H 0.72862 0.70529 0.66358
 H115 H 0.74543 0.74510 0.86899
 H116 H 0.80062 0.71992 0.92700
 H117 H 0.79578 0.62301 0.75329
 H118 H 0.82442 0.77154 0.76497
 H119 H 0.87147 0.83901 0.81540
 H120 H 0.77404 0.96368 0.85461
 H121 H 0.72655 0.89201 0.80852
 H122 H 0.75739 0.87187 0.68744
 H123 H 0.70924 0.93697 0.64187
 H124 H 0.60980 0.82486 0.70719
 H125 H 0.65793 0.76253 0.75622
 H126 H 0.85017 0.59542 0.81214
 C127 C 0.24080 0.71615 0.73647
 C128 C 0.23574 0.78142 0.73406
 C129 C 0.26574 0.82518 0.70750
 C130 C 0.20194 0.81460 0.75927
 C131 C 0.21076 0.66976 0.76106
 C132 C 0.27868 0.68917 0.71561
 C133 C 0.28361 0.87789 0.73415
 C134 C 0.31296 0.91792 0.71081
 C135 C 0.32543 0.90551 0.66059
 C136 C 0.30690 0.85376 0.63338
 C137 C 0.27678 0.81459 0.65636
 C138 C 0.19284 0.80563 0.81120
 C139 C 0.16211 0.83996 0.83439
 C140 C 0.14117 0.88622 0.80664
 C141 C 0.15106 0.89577 0.75492
 C142 C 0.18072 0.85995 0.73149
 C143 C 0.16862 0.67757 0.75854
 C144 C 0.14189 0.63887 0.78775
 C145 C 0.15620 0.58738 0.81639
 C146 C 0.19771 0.57502 0.81420
 C147 C 0.22469 0.61660 0.78807
 C148 C 0.27682 0.64425 0.67528
 C149 C 0.31222 0.62787 0.64957
 C150 C 0.34977 0.65691 0.66355
 C151 C 0.35185 0.69839 0.70605
 C152 C 0.31674 0.71320 0.73260
 H153 H 0.27534 0.88730 0.77347
 H154 H 0.32668 0.95765 0.73252
 H155 H 0.31544 0.84385 0.59427
 H156 H 0.26260 0.77532 0.63462
 H157 H 0.20965 0.77233 0.83381
 H158 H 0.15596 0.83162 0.87443
 H159 H 0.18753 0.86823 0.69152
 H160 H 0.15622 0.71467 0.73508
 H161 H 0.10991 0.64835 0.78672
 H162 H 0.20986 0.53537 0.83522
 H163 H 0.25674 0.60786 0.79015
 H164 H 0.24782 0.62470 0.66194
 H165 H 0.30991 0.59560 0.61695
 H166 H 0.38055 0.72063 0.71795
 H167 H 0.31892 0.74676 0.76443
 H168 H 0.13570 0.93076 0.73221
 O169 O 1.03245 -0.06873 -0.04515
 O170 O 0.96559 -0.03632 0.06368
 O171 O 0.95417 -0.06170 -0.03379
 O172 O 1.04255 -0.04466 0.05125
 O173 O 1.04905 0.05863 0.03169
 O174 O 0.95657 0.04348 -0.04670
 O175 O 0.97152 0.06814 0.04808
 O176 O 1.03369 0.03467 -0.06486
 Cu177 Cu 0.99806 -0.06345 0.01044
 Cu178 Cu 1.00342 0.06174 -0.00973
 C179 C 1.04411 -0.02252 -0.07381
 C180 C 0.95763 0.02149 0.07483
 C181 C 0.93981 -0.01191 -0.05383
 C182 C 1.06099 0.00985 0.05573
 O183 O 0.51584 0.40713 0.47502
 O184 O 0.45102 0.51007 0.55230
 O185 O 0.44614 0.45644 0.46243
 O186 O 0.52247 0.46295 0.56524
 O187 O 0.55182 0.54935 0.53027
 O188 O 0.47642 0.54167 0.42685
 O189 O 0.48101 0.59641 0.51803
 O190 O 0.54661 0.49325 0.44137
 Cu191 Cu 0.48103 0.45051 0.51745
 Cu192 Cu 0.51674 0.55402 0.47566
 C193 C 0.54181 0.43238 0.44463
 C194 C 0.45516 0.57090 0.54852
 C195 C 0.44890 0.49718 0.42648
 C196 C 0.54995 0.50759 0.56547
 O197 O 0.02342 0.46823 -0.06456
 O198 O -0.05238 0.45810 0.03889
 O199 O -0.04957 0.51595 -0.04853
 O200 O 0.01667 0.41081 0.02360
 O201 O 0.04940 0.49631 0.05631
 O202 O -0.02293 0.60024 -0.00700
 O203 O -0.02024 0.53929 0.07860
 O204 O 0.04942 0.55839 -0.03077
 Cu205 Cu -0.01826 0.45511 -0.01744
 Cu206 Cu 0.01706 0.55761 0.02720
 C207 C 0.04948 0.51484 -0.06502
 C208 C -0.04816 0.49543 0.07737
 C209 C -0.04913 0.57567 -0.03760
 C210 C 0.04388 0.43549 0.05274
 O211 O 0.46645 1.06508 0.45247
 O212 O 0.53876 1.03575 0.55536
 O213 O 0.54468 1.05651 0.45899
 O214 O 0.46012 1.04157 0.55007
 O215 O 0.45353 0.93747 0.53255
 O216 O 0.53993 0.95156 0.44404
 O217 O 0.53267 0.93080 0.54109
 O218 O 0.46267 0.96082 0.43476
 Cu219 Cu 0.50277 1.06023 0.50595
 Cu220 Cu 0.49631 0.93450 0.48687
 C221 C 0.45298 1.01815 0.42526
 C222 C 0.54873 0.97871 0.56512
 C223 C 0.55702 1.00652 0.43648
 C224 C 0.44224 0.98699 0.55657
 N225 N 1.10269 -0.02547 0.12566
 N226 N 1.13379 -0.00409 0.15367
 C227 C 1.14647 0.05353 0.13438
 C228 C 1.12173 0.06663 0.09320
 N229 N 1.09492 0.01638 0.08944
 H230 H 1.12180 0.10917 0.06952
 N231 N 0.57777 0.47410 0.64699
 N232 N 0.60598 0.49378 0.68020
 C233 C 0.62545 0.54600 0.65983
 C234 C 0.60813 0.55768 0.61298
 N235 N 0.57859 0.51193 0.60648
 H236 H 0.61495 0.59718 0.58717
 N237 N -0.06638 0.51084 0.16658
 N238 N -0.09340 0.48823 0.20006
 C239 C -0.11942 0.44852 0.17403
 C240 C -0.10742 0.44723 0.12359
 N241 N -0.07425 0.48663 0.12058
 H242 H -0.12031 0.41814 0.09272
 N243 N 0.39923 1.02715 0.62422
 N244 N 0.36816 1.00707 0.65277
 C245 C 0.35790 0.94643 0.63733
 C246 C 0.38389 0.92978 0.59854
 N247 N 0.40913 0.98137 0.59164
 H248 H 0.38497 0.88436 0.57810
 N249 N -0.08699 0.67345 -0.03956
 N250 N -0.11979 0.69578 -0.06116
 C251 C -0.13390 0.64995 -0.09410
 C252 C -0.10846 0.59873 -0.09220
 N253 N -0.07966 0.61541 -0.05770
 H254 H -0.11124 0.55324 -0.11263
 N255 N 0.42049 0.98930 0.34443
 N256 N 0.39635 1.01471 0.31024
 C257 C 0.38737 1.07375 0.32783
 C258 C 0.40692 1.08380 0.37397
 N259 N 0.42713 1.03004 0.38287
 H260 H 0.40653 1.12582 0.39866
 N261 N 1.07020 -0.00003 -0.15893
 N262 N 1.09573 -0.02425 -0.19228
 C263 C 1.11172 -0.07625 -0.17030
 C264 C 1.09467 -0.08338 -0.12228
 N265 N 1.06912 -0.03502 -0.11691
 H266 H 1.10001 -0.11976 -0.09390
 N267 N 0.55375 0.33134 0.40082
 N268 N 0.58015 0.30647 0.36891
 C269 C 0.60916 0.35273 0.36024
 C270 C 0.59964 0.40701 0.38794
 N271 N 0.56493 0.39151 0.41265
 H272 H 0.61621 0.45300 0.39007
 N273 N 0.87579 0.02597 -0.08491
 N274 N 0.84437 0.00479 -0.11251
 C275 C 0.85292 -0.05458 -0.12993
 C276 C 0.89074 -0.06927 -0.11158
 N277 N 0.90374 -0.01790 -0.08377
 H278 H 0.90677 -0.11340 -0.11633
 N279 N 0.42873 0.51848 0.33902
 N280 N 0.40196 0.49619 0.30490
 C281 C 0.37724 0.45325 0.32933
 C282 C 0.38973 0.44970 0.37942
 N283 N 0.42191 0.49103 0.38388
 H284 H 0.37812 0.41748 0.40881
 N285 N 0.10897 0.47176 -0.10417
 N286 N 0.13917 0.49085 -0.13447
 C287 C 0.13015 0.54930 -0.15268
 C288 C 0.09320 0.56552 -0.13208
 N289 N 0.08114 0.51580 -0.10225
 H290 H 0.07798 0.61056 -0.13542
 N291 N 0.60221 0.96569 0.37131
 N292 N 0.63391 0.98596 0.34392
 C293 C 0.64284 1.04737 0.35858
 C294 C 0.61540 1.06428 0.39556
 N295 N 0.59067 1.01213 0.40230
 H296 H 0.61311 1.11015 0.41507
 N297 N 0.05629 0.33360 0.09379
 N298 N 0.08249 0.30842 0.12547
 C299 C 0.11124 0.35476 0.13544
 C300 C 0.10183 0.40938 0.10869
 N301 N 0.06739 0.39401 0.08325
 H302 H 0.11813 0.45566 0.10798
 N303 N 0.60395 1.01692 0.61950
 N304 N 0.63351 0.99389 0.64721
 C305 C 0.62788 0.92921 0.64717
 C306 C 0.59387 0.91307 0.61848
 N307 N 0.57994 0.96933 0.60183
 H308 H 0.58177 0.86539 0.60857
 N309 N 0.92601 -0.00651 0.15617
 N310 N 0.90112 0.01847 0.18998
 C311 C 0.89160 0.07699 0.17240
 C312 C 0.91169 0.08724 0.12674
 N313 N 0.93269 0.03411 0.11807
 H314 H 0.91065 0.12851 0.10177
 N315 N 0.44204 0.67136 0.59269
 N316 N 0.41514 0.69525 0.62444
 C317 C 0.38624 0.64850 0.63200
 C318 C 0.39630 0.59496 0.60382
 N319 N 0.43128 0.61131 0.57997
 H320 H 0.38005 0.54873 0.60114
   
