data_POSCAR
  _audit_creation_date              2014-09-24
  _audit_creation_method            'ToBaCCo'
  _symmetry_space_group_name_H-M    'P1'
  _symmetry_Int_Tables_number       1
  _symmetry_cell_setting            triclinic
  loop_
  _symmetry_equiv_pos_as_xyz
 x,y,z
_cell_length_a 57.6234
_cell_length_b 58.2169
_cell_length_c 57.1247
_cell_angle_alpha 90.587600
_cell_angle_beta 90.171400
_cell_angle_gamma 88.541900
loop_
  _atom_site_label
  _atom_site_type_symbol
  _atom_site_fract_x
  _atom_site_fract_y
  _atom_site_fract_z
N1 N 0.60092 0.66205 0.62078
 N2 N 0.59202 0.65172 0.63887
 C3 C 0.57290 0.66359 0.64597
 C4 C 0.56960 0.68243 0.63154
 C5 C 0.58780 0.68081 0.61574
 H6 H 0.56233 0.65897 0.66069
 H7 H 0.59132 0.69236 0.60158
 Cu8 Cu 0.60638 0.62385 0.65151
 Cu9 Cu 0.62908 0.65073 0.60531
 Cu10 Cu 0.65586 0.60196 0.62830
 N11 N 0.62188 0.59667 0.66441
 N12 N 0.64115 0.58820 0.65519
 C13 C 0.64814 0.56953 0.66724
 C14 C 0.63243 0.56596 0.68517
 C15 C 0.61597 0.58368 0.68273
 H16 H 0.66361 0.55945 0.66313
 H17 H 0.60077 0.58695 0.69337
 N18 N 0.66808 0.61829 0.60113
 N19 N 0.65773 0.63668 0.59217
 C20 C 0.67012 0.64369 0.57372
 C21 C 0.68927 0.62907 0.57098
 C22 C 0.68738 0.61319 0.58869
 H23 H 0.66574 0.65855 0.56327
 H24 H 0.69909 0.59881 0.59211
 H25 H 0.62599 0.61666 0.61425
 H26 H 0.64315 0.63502 0.63457
 N27 N 0.90323 0.33632 0.11708
 N28 N 0.91294 0.34623 0.13526
 C29 C 0.93268 0.33460 0.14071
 C30 C 0.93552 0.31619 0.12519
 C31 C 0.91632 0.31794 0.11046
 H32 H 0.94391 0.33911 0.15511
 H33 H 0.91216 0.30692 0.09580
 Cu34 Cu 0.89854 0.37312 0.15030
 Cu35 Cu 0.87456 0.34819 0.10305
 Cu36 Cu 0.84927 0.39688 0.12873
 N37 N 0.88423 0.40051 0.16445
 N38 N 0.86515 0.40988 0.15573
 C39 C 0.85907 0.42857 0.16858
 C40 C 0.87514 0.43101 0.18644
 C41 C 0.89086 0.41286 0.18327
 H42 H 0.84385 0.43933 0.16539
 H43 H 0.90609 0.40909 0.19377
 N44 N 0.83586 0.38120 0.10131
 N45 N 0.84558 0.36279 0.09142
 C46 C 0.83250 0.35633 0.07303
 C47 C 0.81355 0.37132 0.07132
 C48 C 0.81626 0.38684 0.08958
 H49 H 0.83632 0.34164 0.06185
 H50 H 0.80493 0.40136 0.09380
 H51 H 0.87861 0.38191 0.11365
 H52 H 0.86120 0.36342 0.13311
 N53 N 0.40207 0.16806 -0.11667
 N54 N 0.41232 0.15786 -0.13462
 C55 C 0.43043 0.17041 -0.14126
 C56 C 0.43156 0.18957 -0.12674
 C57 C 0.41323 0.18746 -0.11134
 H58 H 0.44180 0.16608 -0.15575
 H59 H 0.40850 0.19901 -0.09711
 Cu60 Cu 0.40072 0.12933 -0.14766
 Cu61 Cu 0.37521 0.15533 -0.10130
 Cu62 Cu 0.35481 0.10405 -0.12375
 N63 N 0.38925 0.10046 -0.15999
 N64 N 0.37126 0.09071 -0.15057
 C65 C 0.36675 0.07127 -0.16248
 C66 C 0.38277 0.06858 -0.18044
 C67 C 0.39679 0.08751 -0.17824
 H68 H 0.35266 0.06009 -0.15844
 H69 H 0.41138 0.09163 -0.18912
 N70 N 0.34054 0.12022 -0.09671
 N71 N 0.34829 0.13974 -0.08818
 C72 C 0.33502 0.14639 -0.06985
 C73 C 0.31803 0.13032 -0.06662
 C74 C 0.32211 0.11398 -0.08402
 H75 H 0.33747 0.16191 -0.05971
 H76 H 0.31251 0.09854 -0.08712
 H77 H 0.38271 0.12143 -0.11014
 H78 H 0.36285 0.13777 -0.13018
 N79 N 0.09305 0.83855 0.38419
 N80 N 0.08337 0.84939 0.36649
 C81 C 0.06382 0.83867 0.36027
 C82 C 0.06108 0.81991 0.37478
 C83 C 0.08015 0.82046 0.38972
 H84 H 0.05259 0.84413 0.34611
 H85 H 0.08424 0.80890 0.40390
 Cu86 Cu 0.09733 0.87637 0.35319
 Cu87 Cu 0.12116 0.84923 0.39939
 Cu88 Cu 0.14529 0.89846 0.37729
 N89 N 0.11117 0.90386 0.34087
 N90 N 0.12971 0.91260 0.35058
 C91 C 0.13557 0.93149 0.33879
 C92 C 0.11993 0.93474 0.32060
 C93 C 0.10467 0.91685 0.32248
 H94 H 0.15040 0.94182 0.34289
 H95 H 0.08985 0.91364 0.31139
 N96 N 0.15854 0.88161 0.40416
 N97 N 0.14948 0.86277 0.41243
 C98 C 0.16243 0.85534 0.43063
 C99 C 0.18058 0.87020 0.43406
 C100 C 0.17749 0.88665 0.41688
 H101 H 0.15888 0.84019 0.44062
 H102 H 0.18814 0.90133 0.41391
 H103 H 0.11614 0.88340 0.39077
 H104 H 0.13465 0.86542 0.37061
 C105 C 0.11027 0.13589 0.11068
 C106 C 0.13045 0.12587 0.10091
 C107 C 0.13998 0.10595 0.11027
 C108 C 0.12953 0.09581 0.12961
 C109 C 0.10967 0.10573 0.13929
 C110 C 0.09989 0.12582 0.12967
 C111 C 0.09707 0.15510 0.10508
 N112 N 0.07885 0.15682 0.12010
 C113 C 0.08046 0.13896 0.13520
 C114 C 0.10345 0.09237 0.15786
 N115 N 0.11902 0.07454 0.15968
 C116 C 0.13500 0.07650 0.14240
 C117 C 0.15925 0.10001 0.09716
 N118 N 0.16167 0.11585 0.08005
 C119 C 0.14408 0.13174 0.08228
 H120 H 0.10025 0.16673 0.09084
 H121 H 0.06845 0.13584 0.14928
 H122 H 0.08854 0.09531 0.16908
 H123 H 0.14976 0.06494 0.13955
 H124 H 0.17077 0.08534 0.10006
 H125 H 0.14111 0.14629 0.07093
 C126 C 0.38585 0.85687 0.61545
 C127 C 0.36580 0.86709 0.60571
 C128 C 0.35542 0.88607 0.61647
 C129 C 0.36488 0.89503 0.63717
 C130 C 0.38465 0.88496 0.64678
 C131 C 0.39519 0.86570 0.63586
 C132 C 0.39971 0.83841 0.60868
 N133 N 0.41724 0.83577 0.62448
 C134 C 0.41456 0.85244 0.64119
 C135 C 0.38999 0.89735 0.66664
 N136 N 0.37392 0.91469 0.66935
 C137 C 0.35850 0.91334 0.65135
 C138 C 0.33647 0.89245 0.60311
 N139 N 0.33505 0.87780 0.58450
 C140 C 0.35298 0.86222 0.58600
 H141 H 0.39703 0.82755 0.59346
 H142 H 0.42605 0.85501 0.65595
 H143 H 0.40439 0.89380 0.67837
 H144 H 0.34389 0.92504 0.64851
 H145 H 0.32445 0.90659 0.60688
 H146 H 0.35668 0.84853 0.57350
 C147 C 0.88377 0.65074 0.38123
 C148 C 0.86315 0.64211 0.39024
 C149 C 0.85307 0.62336 0.37964
 C150 C 0.86352 0.61289 0.35998
 C151 C 0.88384 0.62141 0.35110
 C152 C 0.89409 0.64039 0.36187
 C153 C 0.89744 0.66871 0.38794
 N154 N 0.91587 0.66942 0.37320
 C155 C 0.91396 0.65212 0.35721
 C156 C 0.88991 0.60805 0.33196
 N157 N 0.87382 0.59157 0.32909
 C158 C 0.85764 0.59440 0.34620
 C159 C 0.83336 0.61872 0.39207
 N160 N 0.83126 0.63413 0.41002
 C161 C 0.84946 0.64850 0.40901
 H162 H 0.89438 0.68021 0.40269
 H163 H 0.92601 0.64848 0.34307
 H164 H 0.90507 0.61002 0.32110
 H165 H 0.84249 0.58400 0.34828
 H166 H 0.82163 0.60486 0.38854
 H167 H 0.85243 0.66271 0.42092
 C168 C 0.61730 0.35239 -0.11845
 C169 C 0.63712 0.36203 -0.10845
 C170 C 0.64589 0.38193 -0.11754
 C171 C 0.63489 0.39256 -0.13664
 C172 C 0.61529 0.38314 -0.14643
 C173 C 0.60643 0.36290 -0.13727
 C174 C 0.60516 0.33302 -0.11346
 N175 N 0.58712 0.33150 -0.12874
 C176 C 0.58777 0.34977 -0.14335
 C177 C 0.60843 0.39700 -0.16469
 N178 N 0.62338 0.41463 -0.16624
 C179 C 0.63962 0.41198 -0.14908
 C180 C 0.66529 0.38717 -0.10465
 N181 N 0.66844 0.37099 -0.08787
 C182 C 0.65124 0.35555 -0.09008
 H183 H 0.60906 0.32103 -0.09954
 H184 H 0.57580 0.35309 -0.15763
 H185 H 0.59381 0.39418 -0.17622
 H186 H 0.65373 0.42347 -0.14563
 H187 H 0.67615 0.40184 -0.10713
 H188 H 0.64933 0.34050 -0.07935
 C189 C -0.02694 0.30113 0.13964
 C190 C -0.00898 0.28454 0.13903
 C191 C -0.01006 0.26560 0.12380
 C192 C -0.02916 0.26385 0.10861
 C193 C -0.04699 0.28057 0.10895
 C194 C -0.04631 0.29945 0.12461
 C195 C 0.00925 0.24833 0.12370
 C196 C 0.00612 0.22605 0.11885
 C197 C 0.02526 0.20862 0.11934
 C198 C 0.02028 0.18594 0.12524
 C199 C 0.03789 0.16901 0.12573
 C200 C 0.06078 0.17433 0.11985
 C201 C 0.06570 0.19695 0.11354
 C202 C 0.04814 0.21397 0.11335
 H203 H -0.02529 0.31533 0.15181
 H204 H 0.00571 0.28638 0.15073
 H205 H -0.03020 0.24977 0.09617
 H206 H -0.06134 0.27838 0.09697
 H207 H 0.02621 0.25397 0.12918
 H208 H -0.01128 0.22003 0.11579
 H209 H 0.00273 0.18137 0.12967
 H210 H 0.03357 0.15164 0.13031
 H211 H 0.08320 0.20150 0.10898
 H212 H 0.05245 0.23115 0.10812
 C213 C 0.53212 0.69833 0.64830
 C214 C 0.51456 0.71531 0.64951
 C215 C 0.51516 0.73470 0.63518
 C216 C 0.53403 0.73701 0.61990
 C217 C 0.55161 0.72006 0.61870
 C218 C 0.55087 0.70044 0.63283
 C219 C 0.49627 0.75239 0.63720
 C220 C 0.49046 0.76686 0.61989
 C221 C 0.47142 0.78440 0.62173
 C222 C 0.46105 0.79262 0.60110
 C223 C 0.44324 0.80935 0.60199
 C224 C 0.43556 0.81845 0.62358
 C225 C 0.44616 0.81045 0.64425
 C226 C 0.46392 0.79365 0.64336
 H227 H 0.53082 0.68354 0.65947
 H228 H 0.50032 0.71319 0.66159
 H229 H 0.53559 0.75208 0.60915
 H230 H 0.56589 0.72257 0.60683
 H231 H 0.48612 0.75258 0.65311
 H232 H 0.49914 0.76515 0.60316
 H233 H 0.46668 0.78601 0.58420
 H234 H 0.43574 0.81542 0.58574
 H235 H 0.44059 0.81704 0.66115
 H236 H 0.47194 0.78831 0.65963
 C237 C 1.02360 0.80707 0.35955
 C238 C 1.00558 0.79146 0.35946
 C239 C 1.00655 0.77216 0.37388
 C240 C 1.02567 0.76900 0.38892
 C241 C 1.04359 0.78475 0.38928
 C242 C 1.04294 0.80403 0.37451
 C243 C 0.98706 0.75608 0.37338
 C244 C 0.98986 0.73356 0.37749
 C245 C 0.97045 0.71741 0.37637
 C246 C 0.97502 0.69453 0.36955
 C247 C 0.95709 0.67884 0.36832
 C248 C 0.93430 0.68561 0.37437
 C249 C 0.92979 0.70841 0.38165
 C250 C 0.94766 0.72419 0.38258
 H251 H 1.02200 0.82163 0.34802
 H252 H 0.99089 0.79437 0.34789
 H253 H 1.02665 0.75460 0.40074
 H254 H 1.05793 0.78152 0.40113
 H255 H 0.97018 0.76285 0.36807
 H256 H 1.00714 0.72637 0.38037
 H257 H 0.99248 0.68886 0.36494
 H258 H 0.96110 0.66129 0.36299
 H259 H 0.91238 0.71408 0.38636
 H260 H 0.94366 0.74155 0.38852
 C261 C 0.44398 0.22934 -0.11607
 C262 C 0.46006 0.24688 -0.11670
 C263 C 0.48126 0.24363 -0.12843
 C264 C 0.48582 0.22260 -0.14008
 C265 C 0.46968 0.20509 -0.13958
 C266 C 0.44862 0.20820 -0.12746
 C267 C 0.49781 0.26270 -0.12866
 C268 C 0.52082 0.25937 -0.13090
 C269 C 0.53746 0.27837 -0.13043
 C270 C 0.56037 0.27372 -0.12319
 C271 C 0.57661 0.29113 -0.12253
 C272 C 0.57036 0.31356 -0.12943
 C273 C 0.54752 0.31814 -0.13708
 C274 C 0.53123 0.30075 -0.13760
 H275 H 0.42782 0.23248 -0.10685
 H276 H 0.45601 0.26302 -0.10782
 H277 H 0.50166 0.21969 -0.14991
 H278 H 0.47384 0.18906 -0.14855
 H279 H 0.49082 0.27988 -0.12546
 H280 H 0.52801 0.24202 -0.13173
 H281 H 0.56568 0.25656 -0.11786
 H282 H 0.59416 0.28697 -0.11695
 H283 H 0.54218 0.33525 -0.14244
 H284 H 0.51392 0.30485 -0.14394
 C285 C 0.13147 -0.02637 0.30699
 C286 C 0.13127 -0.00904 0.29022
 C287 C 0.11970 -0.01200 0.26880
 C288 C 0.10780 -0.03245 0.26468
 C289 C 0.10782 -0.04969 0.28153
 C290 C 0.11975 -0.04689 0.30283
 C291 C 0.11975 0.00682 0.25155
 C292 C 0.11802 0.00319 0.22839
 C293 C 0.11835 0.02198 0.21112
 C294 C 0.12651 0.01716 0.18843
 C295 C 0.12690 0.03441 0.17161
 C296 C 0.11874 0.05678 0.17703
 C297 C 0.11021 0.06152 0.19963
 C298 C 0.11002 0.04433 0.21652
 H299 H 0.14057 -0.02352 0.32331
 H300 H 0.14034 0.00667 0.29392
 H301 H 0.09812 -0.03505 0.24865
 H302 H 0.09863 -0.06528 0.27773
 H303 H 0.12258 0.02403 0.25816
 H304 H 0.11761 -0.01424 0.22164
 H305 H 0.13277 0.00002 0.18376
 H306 H 0.13324 0.03018 0.15424
 H307 H 0.10390 0.07861 0.20433
 H308 H 0.10298 0.04852 0.23362
 C309 C 0.65092 0.53131 -0.29818
 C310 C 0.65159 0.51391 -0.28151
 C311 C 0.63445 0.51286 -0.26423
 C312 C 0.61673 0.52992 -0.26372
 C313 C 0.61600 0.54733 -0.28041
 C314 C 0.63308 0.54834 -0.29798
 C315 C 0.63624 0.49422 -0.24673
 C316 C 0.61834 0.48734 -0.23379
 C317 C 0.62028 0.46854 -0.21647
 C318 C 0.60007 0.45740 -0.20976
 C319 C 0.60106 0.43973 -0.19338
 C320 C 0.62232 0.43286 -0.18317
 C321 C 0.64253 0.44422 -0.18967
 C322 C 0.64153 0.46191 -0.20601
 H323 H 0.66454 0.53116 -0.31115
 H324 H 0.66556 0.50112 -0.28221
 H325 H 0.60359 0.53025 -0.25024
 H326 H 0.60204 0.56003 -0.27919
 H327 H 0.65283 0.48520 -0.24538
 H328 H 0.60123 0.49488 -0.23664
 H329 H 0.58342 0.46235 -0.21729
 H330 H 0.58510 0.43167 -0.18849
 H331 H 0.65921 0.43932 -0.18227
 H332 H 0.65742 0.47050 -0.21005
 C333 C 0.40022 1.05073 0.78315
 C334 C 0.40140 1.03325 0.76621
 C335 C 0.38656 1.01456 0.76723
 C336 C 0.37089 1.01338 0.78598
 C337 C 0.36973 1.03084 0.80295
 C338 C 0.38427 1.04984 0.80170
 C339 C 0.38835 0.99648 0.74880
 C340 C 0.37076 0.98285 0.74297
 C341 C 0.37222 0.96525 0.72404
 C342 C 0.35162 0.95819 0.71330
 C343 C 0.35217 0.94167 0.69539
 C344 C 0.37336 0.93162 0.68795
 C345 C 0.39397 0.93838 0.69898
 C346 C 0.39343 0.95497 0.71686
 H347 H 0.41176 1.06497 0.78150
 H348 H 0.41379 1.03447 0.75208
 H349 H 0.35973 0.99886 0.78788
 H350 H 0.35747 1.02925 0.81710
 H351 H 0.40429 0.99540 0.73884
 H352 H 0.35408 0.98547 0.75139
 H353 H 0.33503 0.96562 0.71869
 H354 H 0.33596 0.93655 0.68756
 H355 H 0.41057 0.93103 0.69361
 H356 H 0.40963 0.95940 0.72516
 C357 C 0.88741 0.44514 0.22608
 C358 C 0.88729 0.46193 0.24374
 C359 C 0.87543 0.48301 0.24059
 C360 C 0.86321 0.48682 0.21958
 C361 C 0.86313 0.46993 0.20201
 C362 C 0.87529 0.44893 0.20504
 C363 C 0.87544 0.50026 0.25983
 C364 C 0.87361 0.52294 0.25614
 C365 C 0.87382 0.54018 0.27537
 C366 C 0.88222 0.56211 0.27091
 C367 C 0.88244 0.57889 0.28858
 C368 C 0.87385 0.57420 0.31096
 C369 C 0.86510 0.55235 0.31534
 C370 C 0.86510 0.53549 0.29775
 H371 H 0.89670 0.42905 0.22911
 H372 H 0.89662 0.45850 0.25988
 H373 H 0.85334 0.50262 0.21681
 H374 H 0.85363 0.47341 0.18601
 H375 H 0.87829 0.49403 0.27743
 H376 H 0.87319 0.52927 0.23838
 H377 H 0.88878 0.56621 0.25374
 H378 H 0.88896 0.59568 0.28462
 H379 H 0.85843 0.54826 0.33245
 H380 H 0.85790 0.51897 0.30162
 C381 C 0.30017 0.14609 -0.02952
 C382 C 0.28279 0.14631 -0.01251
 C383 C 0.26448 0.13093 -0.01392
 C384 C 0.26367 0.11554 -0.03305
 C385 C 0.28106 0.11532 -0.05007
 C386 C 0.29957 0.13055 -0.04851
 C387 C 0.24627 0.13202 0.00439
 C388 C 0.23273 0.11433 0.00946
 C389 C 0.21463 0.11537 0.02789
 C390 C 0.20731 0.09476 0.03764
 C391 C 0.19008 0.09491 0.05481
 C392 C 0.17960 0.11570 0.06248
 C393 C 0.18674 0.13633 0.05253
 C394 C 0.20400 0.13620 0.03538
 H395 H 0.31413 0.15804 -0.02759
 H396 H 0.28374 0.15847 0.00193
 H397 H 0.24944 0.10395 -0.03526
 H398 H 0.27972 0.10337 -0.06461
 H399 H 0.24489 0.14765 0.01475
 H400 H 0.23564 0.09798 0.00064
 H401 H 0.21499 0.07846 0.03199
 H402 H 0.18470 0.07868 0.06180
 H403 H 0.17911 0.15265 0.05810
 H404 H 0.20860 0.15240 0.02781
 C405 C 0.72934 0.61888 0.55662
 C406 C 0.74684 0.61997 0.53982
 C407 C 0.74312 0.63212 0.51901
 C408 C 0.72167 0.64369 0.51557
 C409 C 0.70422 0.64274 0.53246
 C410 C 0.70781 0.63022 0.55312
 C411 C 0.76217 0.63286 0.50170
 C412 C 0.75853 0.63560 0.47868
 C413 C 0.77760 0.63551 0.46134
 C414 C 0.77302 0.62838 0.43829
 C415 C 0.79060 0.62789 0.42148
 C416 C 0.81308 0.63487 0.42729
 C417 C 0.81754 0.64249 0.45025
 C418 C 0.80001 0.64282 0.46711
 H419 H 0.73285 0.60936 0.57246
 H420 H 0.76330 0.61113 0.54301
 H421 H 0.71841 0.65379 0.50005
 H422 H 0.68786 0.65168 0.52919
 H423 H 0.77966 0.62961 0.50806
 H424 H 0.74093 0.63650 0.47200
 H425 H 0.75584 0.62294 0.43333
 H426 H 0.78655 0.62229 0.40384
 H427 H 0.83470 0.64791 0.45526
 H428 H 0.80401 0.64908 0.48452
 C429 C 0.77318 0.38218 0.05831
 C430 C 0.75527 0.38175 0.04177
 C431 C 0.75846 0.37039 0.02021
 C432 C 0.77978 0.35890 0.01571
 C433 C 0.79763 0.35915 0.03234
 C434 C 0.79457 0.37089 0.05377
 C435 C 0.73904 0.37029 0.00317
 C436 C 0.74226 0.36882 -0.02004
 C437 C 0.72286 0.36931 -0.03711
 C438 C 0.72674 0.37782 -0.05961
 C439 C 0.70888 0.37851 -0.07620
 C440 C 0.68684 0.37031 -0.07075
 C441 C 0.68306 0.36139 -0.04836
 C442 C 0.70086 0.36090 -0.03169
 H443 H 0.77012 0.39111 0.07476
 H444 H 0.73892 0.39050 0.04575
 H445 H 0.78263 0.34941 -0.00045
 H446 H 0.81387 0.35029 0.02826
 H447 H 0.72165 0.37288 0.01000
 H448 H 0.75973 0.36862 -0.02698
 H449 H 0.74361 0.38415 -0.06429
 H450 H 0.71239 0.38514 -0.09343
 H451 H 0.66624 0.35501 -0.04366
 H452 H 0.69743 0.35361 -0.01473
 C453 C 0.19835 0.85254 0.47014
 C454 C 0.21572 0.85139 0.48724
 C455 C 0.23415 0.86666 0.48702
 C456 C 0.23516 0.88283 0.46894
 C457 C 0.21781 0.88396 0.45180
 C458 C 0.19911 0.86890 0.45221
 C459 C 0.25225 0.86473 0.50546
 C460 C 0.26558 0.88224 0.51205
 C461 C 0.28339 0.88045 0.53079
 C462 C 0.29011 0.90057 0.54241
 C463 C 0.30695 0.89971 0.56006
 C464 C 0.31765 0.87868 0.56632
 C465 C 0.31117 0.85856 0.55445
 C466 C 0.29427 0.85941 0.53684
 H467 H 0.18431 0.84063 0.47115
 H468 H 0.21464 0.83864 0.50084
 H469 H 0.24950 0.89437 0.46765
 H470 H 0.21929 0.89655 0.43815
 H471 H 0.25365 0.84861 0.51470
 H472 H 0.26260 0.89898 0.50439
 H473 H 0.28222 0.91703 0.53790
 H474 H 0.31184 0.91556 0.56856
 H475 H 0.31901 0.84209 0.55891
 H476 H 0.29012 0.84361 0.52783
   
