data_POSCAR
  _audit_creation_date              2014-09-24
  _audit_creation_method            'ToBaCCo'
  _symmetry_space_group_name_H-M    'P1'
  _symmetry_Int_Tables_number       1
  _symmetry_cell_setting            triclinic
  loop_
  _symmetry_equiv_pos_as_xyz
 x,y,z
_cell_length_a 23.9325
_cell_length_b 23.9446
_cell_length_c 23.9256
_cell_angle_alpha 87.409700
_cell_angle_beta 84.497500
_cell_angle_gamma 88.715300
loop_
  _atom_site_label
  _atom_site_type_symbol
  _atom_site_fract_x
  _atom_site_fract_y
  _atom_site_fract_z
O1 O 0.57550 0.51615 0.02812
 O2 O 0.42248 0.50890 0.06589
 O3 O 0.50664 0.43611 0.05973
 O4 O 0.49401 0.58873 0.04110
 O5 O 0.47812 0.58051 -0.04758
 O6 O 0.49406 0.42691 -0.02964
 O7 O 0.41054 0.49809 -0.02327
 O8 O 0.56203 0.50992 -0.06142
 Cu9 Cu 0.50083 0.51309 0.05773
 Cu10 Cu 0.48505 0.50280 -0.04943
 C11 C 0.59462 0.51511 -0.02330
 C12 C 0.39032 0.50249 0.02739
 C13 C 0.50289 0.40551 0.01846
 C14 C 0.48391 0.61070 -0.00622
 O15 O 0.03178 0.58186 0.49705
 O16 O 0.07014 0.43207 0.49330
 O17 O 0.06773 0.51391 0.41932
 O18 O 0.03625 0.50034 0.57319
 O19 O -0.05170 0.48049 0.56262
 O20 O -0.01975 0.49186 0.40913
 O21 O -0.01836 0.41261 0.48481
 O22 O -0.05572 0.56229 0.48468
 Cu23 Cu 0.06019 0.50919 0.49727
 Cu24 Cu -0.04545 0.48529 0.48463
 C25 C -0.01821 0.59778 0.49000
 C26 C 0.03233 0.39688 0.48777
 C27 C 0.02948 0.50408 0.38805
 C28 C -0.01287 0.48755 0.59404
 O29 O 0.51720 0.06208 0.57851
 O30 O 0.51093 0.03334 0.42954
 O31 O 0.43793 0.06481 0.51184
 O32 O 0.58891 0.02589 0.49988
 O33 O 0.56706 -0.06065 0.52813
 O34 O 0.41716 -0.02411 0.52947
 O35 O 0.49300 -0.05521 0.45257
 O36 O 0.49054 -0.02413 0.60234
 Cu37 Cu 0.51596 0.05523 0.50205
 Cu38 Cu 0.49014 -0.04998 0.53018
 C39 C 0.50414 0.02417 0.61595
 C40 C 0.50082 -0.01569 0.41560
 C41 C 0.40192 0.02658 0.52225
 C42 C 0.60352 -0.02368 0.51430
 C43 C 0.44461 0.13664 -0.09861
 C44 C 0.44373 0.09218 -0.13244
 C45 C 0.46379 0.04616 -0.10278
 N46 N 0.47527 0.06088 -0.05124
 C47 C 0.46360 0.11624 -0.04845
 C48 C 0.47405 -0.00746 -0.12459
 C49 C 0.49302 -0.05432 -0.09305
 C50 C 0.51491 -0.10280 -0.11693
 C51 C 0.52770 -0.13871 -0.07373
 C52 C 0.51292 -0.11170 -0.02424
 N53 N 0.49199 -0.05993 -0.03632
 C54 C 0.51963 -0.13586 0.02996
 C55 C 0.52461 -0.10380 0.07747
 C56 C 0.54196 -0.12489 0.12802
 C57 C 0.54447 -0.08041 0.16155
 C58 C 0.52653 -0.03356 0.13151
 N59 N 0.51524 -0.04795 0.07978
 C60 C 0.51877 0.02068 0.15297
 C61 C 0.50164 0.06852 0.12121
 C62 C 0.48408 0.11862 0.14474
 C63 C 0.47037 0.15441 0.10167
 C64 C 0.48009 0.12578 0.05245
 N65 N 0.49936 0.07328 0.06472
 C66 C 0.46922 0.14880 -0.00140
 H67 H 0.43196 0.17894 -0.11000
 H68 H 0.43016 0.09403 -0.17433
 H69 H 0.51416 0.04397 0.03598
 H70 H 0.52195 -0.11126 -0.16114
 H71 H 0.54695 -0.17975 -0.07852
 H72 H 0.55311 -0.16753 0.13969
 H73 H 0.55817 -0.08290 0.20337
 H74 H 0.45343 0.19636 0.10660
 H75 H 0.47317 -0.03237 -0.00754
 H76 H 0.48012 0.12821 0.18873
 C77 C -0.10063 0.49129 0.85537
 C78 C -0.14226 0.48288 0.89836
 C79 C -0.11885 0.49241 0.94774
 N80 N -0.06397 0.50482 0.93629
 C81 C -0.05235 0.50341 0.87993
 C82 C -0.14808 0.49290 1.00206
 C83 C -0.12048 0.49836 1.05103
 C84 C -0.14673 0.51437 1.10221
 C85 C -0.10731 0.50941 1.14026
 C86 C -0.05811 0.49023 1.11138
 N87 N -0.06633 0.48403 1.05685
 C88 C -0.00900 0.47413 1.13668
 C89 C 0.04295 0.46510 1.10510
 C90 C 0.08887 0.43682 1.12445
 C91 C 0.13091 0.43945 1.08115
 C92 C 0.10932 0.46990 1.03716
 N93 N 0.05550 0.48529 1.05188
 C94 C 0.13937 0.48591 0.98541
 C95 C 0.11222 0.50725 0.93872
 C96 C 0.13895 0.53516 0.89197
 C97 C 0.09969 0.54418 0.85410
 C98 C 0.04974 0.52169 0.87866
 N99 N 0.05784 0.49933 0.93037
 C100 C 0.00041 0.51691 0.85092
 H101 H -0.10619 0.48890 0.81128
 H102 H -0.18489 0.47155 0.89326
 H103 H 0.03021 0.47370 0.95535
 H104 H -0.19006 0.52761 1.11137
 H105 H -0.11447 0.51793 1.18444
 H106 H 0.09158 0.41584 1.16515
 H107 H 0.17236 0.42068 1.08203
 H108 H 0.10780 0.56384 0.81261
 H109 H -0.03906 0.46404 1.02735
 H110 H 0.18253 0.54703 0.88533
 C111 C 0.15471 -0.09880 0.46484
 C112 C 0.11642 -0.14078 0.46918
 C113 C 0.06448 -0.11632 0.48449
 N114 N 0.06987 -0.06082 0.49019
 C115 C 0.12505 -0.04991 0.47790
 C116 C 0.01404 -0.14606 0.49620
 C117 C -0.03980 -0.11963 0.49912
 C118 C -0.09006 -0.14520 0.51766
 C119 C -0.13246 -0.10724 0.50812
 C120 C -0.10704 -0.05842 0.48639
 N121 N -0.05067 -0.06665 0.48042
 C122 C -0.13527 -0.00861 0.46984
 C123 C -0.10883 0.04380 0.46422
 C124 C -0.13417 0.09348 0.44693
 C125 C -0.09744 0.13517 0.45354
 C126 C -0.05067 0.10974 0.47441
 N127 N -0.05783 0.05392 0.48121
 C128 C -0.00424 0.13868 0.49019
 C129 C 0.04768 0.11187 0.49970
 C130 C 0.09189 0.13646 0.52226
 C131 C 0.13636 0.09910 0.51811
 C132 C 0.11743 0.05130 0.49585
 N133 N 0.06358 0.05980 0.48416
 C134 C 0.14980 0.00236 0.48368
 H135 H 0.19947 -0.10422 0.45467
 H136 H 0.12588 -0.18442 0.46194
 H137 H 0.04140 0.03389 0.46083
 H138 H -0.09611 -0.18712 0.53564
 H139 H -0.17672 -0.11536 0.51668
 H140 H -0.17545 0.09949 0.43250
 H141 H -0.10453 0.17928 0.44425
 H142 H 0.17749 0.10720 0.53044
 H143 H -0.02187 -0.03961 0.45891
 H144 H 0.09285 0.17744 0.53931
 C145 C -0.34485 0.52057 0.96062
 C146 C -0.30720 0.50832 0.99714
 C147 C -0.24667 0.51424 0.98124
 C148 C -0.20993 0.48597 1.01081
 H149 H -0.32109 0.49228 1.03920
 H150 H -0.23245 0.54248 0.94639
 H151 H -0.33092 0.53327 0.91756
 H152 H -0.22589 0.45948 1.04653
 C153 C 0.33224 0.50125 1.04097
 C154 C 0.29673 0.49276 1.00226
 C155 C 0.23544 0.49528 1.01552
 C156 C 0.20161 0.47995 0.97774
 H157 H 0.31290 0.48435 0.95947
 H158 H 0.21809 0.51137 1.05523
 H159 H 0.31567 0.50799 1.08398
 H160 H 0.22027 0.46610 0.93749
 C161 C -0.03229 -0.34533 0.48661
 C162 C 0.00409 -0.30564 0.49504
 C163 C -0.00982 -0.24589 0.48637
 C164 C 0.02016 -0.20735 0.50823
 H165 H 0.04512 -0.31705 0.50820
 H166 H -0.04306 -0.23359 0.46038
 H167 H -0.07409 -0.33316 0.47616
 H168 H 0.05420 -0.22133 0.53262
 C169 C 0.04775 0.33733 0.48340
 C170 C 0.00870 0.29798 0.48852
 C171 C 0.02325 0.23875 0.48059
 C172 C -0.01328 0.19934 0.49968
 H173 H -0.03501 0.30953 0.49900
 H174 H 0.06316 0.22763 0.45819
 H175 H 0.09174 0.32567 0.47552
 H176 H -0.05356 0.21220 0.52032
 C177 C 0.50550 0.03633 -0.32776
 C178 C 0.48867 0.00035 -0.28544
 C179 C 0.49281 0.01423 -0.22676
 C180 C 0.46648 -0.01625 -0.18451
 H181 H 0.47140 -0.03959 -0.29384
 H182 H 0.51840 0.04899 -0.21795
 H183 H 0.52051 0.07694 -0.31826
 H184 H 0.44282 -0.05222 -0.19389
 C185 C 0.49634 -0.02714 0.35623
 C186 C 0.51099 0.01009 0.31433
 C187 C 0.50264 -0.00138 0.25577
 C188 C 0.52794 0.02914 0.21279
 H189 H 0.52940 0.04932 0.32316
 H190 H 0.47536 -0.03505 0.24772
 H191 H 0.47990 -0.06712 0.34681
 H192 H 0.55342 0.06400 0.22157
 C193 C 0.47833 -0.32818 -0.01343
 C194 C 0.49999 -0.29380 0.02103
 C195 C 0.49317 -0.23281 0.01356
 C196 C 0.52663 -0.19789 0.03637
 H197 H 0.52392 -0.31068 0.05438
 H198 H 0.46056 -0.21625 -0.01135
 H199 H 0.45728 -0.31104 -0.04870
 H200 H 0.55875 -0.21533 0.06129
 C201 C 0.51008 0.34469 0.02717
 C202 C 0.48591 0.30803 -0.00291
 C203 C 0.49461 0.24750 0.00758
 C204 C 0.45908 0.21036 -0.00846
 H205 H 0.45863 0.32264 -0.03438
 H206 H 0.53066 0.23309 0.02880
 H207 H 0.53411 0.32960 0.06115
 H208 H 0.42333 0.22545 -0.02968
 C209 C -0.33689 -0.03826 0.51809
 C210 C -0.29564 -0.01065 0.48803
 C211 C -0.23660 -0.02115 0.49842
 C212 C -0.19518 -0.00952 0.45845
 H213 H -0.30544 0.02077 0.45618
 H214 H -0.22709 -0.03551 0.54011
 H215 H -0.32671 -0.07211 0.54724
 H216 H -0.20572 0.00665 0.41764
 C217 C 0.34170 0.04086 0.52671
 C218 C 0.30539 0.00734 0.50647
 C219 C 0.24443 0.01726 0.51488
 C220 C 0.21205 0.00438 0.47504
 H221 H 0.32088 -0.02839 0.48288
 H222 H 0.22624 0.03130 0.55510
 H223 H 0.32715 0.07923 0.54612
 H224 H 0.23200 -0.01146 0.43615
 C225 C 0.04266 0.50670 1.32666
 C226 C 0.00833 0.48528 1.29269
 C227 C 0.02041 0.48886 1.23121
 C228 C -0.01411 0.46546 1.19872
 H229 H -0.02980 0.46499 1.31048
 H230 H 0.05598 0.51261 1.21241
 H231 H 0.08166 0.52549 1.30920
 H232 H -0.05079 0.44390 1.21832
 C233 C -0.02502 0.47897 0.65522
 C234 C 0.00395 0.50421 0.69154
 C235 C -0.00673 0.49207 0.75243
 C236 C 0.00505 0.52945 0.78920
 H237 H 0.03548 0.53450 0.67633
 H238 H -0.02336 0.45175 0.76719
 H239 H -0.05918 0.45175 0.67079
 H240 H 0.02264 0.56909 0.77351
   
