data_POSCAR
  _audit_creation_date              2014-09-24
  _audit_creation_method            'ToBaCCo'
  _symmetry_space_group_name_H-M    'P1'
  _symmetry_Int_Tables_number       1
  _symmetry_cell_setting            triclinic
  loop_
  _symmetry_equiv_pos_as_xyz
 x,y,z
_cell_length_a 37.0898
_cell_length_b 39.0175
_cell_length_c 22.5061
_cell_angle_alpha 89.953100
_cell_angle_beta 89.745700
_cell_angle_gamma 120.027200
loop_
  _atom_site_label
  _atom_site_type_symbol
  _atom_site_fract_x
  _atom_site_fract_y
  _atom_site_fract_z
C1 C 0.45223 0.89538 0.49839
 C2 C 0.46272 0.91465 0.55363
 C3 C 0.47886 0.95588 0.55454
 C4 C 0.48159 0.97752 0.50267
 C5 C 0.46858 0.95660 0.44856
 C6 C 0.45535 0.91603 0.44585
 C7 C 0.49915 1.02173 0.50532
 C8 C 0.51519 1.04584 0.45406
 C9 C 0.53375 1.08748 0.45688
 C10 C 0.53778 1.10494 0.51306
 C11 C 0.52253 1.08183 0.56452
 C12 C 0.50181 1.04055 0.55996
 H13 H 0.43904 0.86362 0.49602
 H14 H 0.49131 0.97114 0.59587
 H15 H 0.46915 0.97154 0.40789
 H16 H 0.51583 1.03270 0.41224
 H17 H 0.55214 1.13669 0.51738
 H18 H 0.48801 1.02360 0.59995
 C19 C 0.11169 0.55304 0.49363
 C20 C 0.09099 0.54646 0.54879
 C21 C 0.04689 0.52585 0.54895
 C22 C 0.02380 0.50918 0.49653
 C23 C 0.04608 0.51542 0.44290
 C24 C 0.08948 0.53858 0.44083
 C25 C -0.02312 0.48472 0.49749
 C26 C -0.04636 0.47895 0.44507
 C27 C -0.08968 0.45235 0.44307
 C28 C -0.11036 0.43462 0.49664
 C29 C -0.08863 0.44213 0.55019
 C30 C -0.04513 0.46592 0.55001
 H31 H 0.14519 0.57160 0.49073
 H32 H 0.03052 0.52146 0.59038
 H33 H 0.03035 0.50215 0.40186
 H34 H -0.03043 0.49381 0.40482
 H35 H -0.14399 0.41667 0.49772
 H36 H -0.02901 0.46870 0.59112
 C37 C 0.45493 0.56235 0.49631
 C38 C 0.46731 0.55482 0.55159
 C39 C 0.48513 0.53021 0.55265
 C40 C 0.48845 0.51150 0.50086
 C41 C 0.47421 0.51876 0.44691
 C42 C 0.45864 0.54484 0.44411
 C43 C 0.50727 0.48513 0.50304
 C44 C 0.52427 0.47784 0.45155
 C45 C 0.54109 0.45261 0.45300
 C46 C 0.54330 0.43624 0.50741
 C47 C 0.52825 0.44423 0.55971
 C48 C 0.50897 0.46732 0.55679
 H49 H 0.44111 0.58099 0.49332
 H50 H 0.49844 0.52745 0.59365
 H51 H 0.47443 0.50394 0.40651
 H52 H 0.52450 0.49148 0.40971
 H53 H 0.55829 0.41852 0.50939
 H54 H 0.49531 0.47097 0.59707
 O55 O 0.40754 0.68161 -0.06673
 O56 O 0.40564 0.74601 -0.04731
 C57 C 0.38009 0.74998 -0.08008
 O58 O 0.34108 0.73142 -0.07100
 O59 O 0.27108 0.66492 -0.05664
 C60 C 0.26796 0.63649 -0.08799
 O61 O 0.28804 0.61890 -0.07671
 O62 O 0.35695 0.61896 -0.05504
 C63 C 0.38912 0.64557 -0.08193
 O64 O 0.40494 0.66727 0.05122
 O65 O 0.39937 0.73041 0.07084
 C66 C 0.37856 0.74758 0.08022
 O67 O 0.34833 0.74226 0.04753
 O68 O 0.28086 0.67370 0.06185
 C69 C 0.26339 0.63683 0.07215
 O70 O 0.27035 0.61334 0.04138
 O71 O 0.34049 0.61645 0.06278
 C72 C 0.37836 0.63586 0.07787
 Cr73 Cr 0.40214 0.70520 0.00192
 Cr74 Cr 0.31153 0.70208 -0.00451
 Cr75 Cr 0.31499 0.61904 -0.00680
 O76 O 0.34290 0.67539 -0.00304
 O77 O 0.59434 0.33271 -0.04448
 O78 O 0.59477 0.26683 -0.05748
 C79 C 0.61379 0.24826 -0.06926
 O80 O 0.64603 0.25387 -0.04113
 O81 O 0.71446 0.31898 -0.06695
 C82 C 0.73316 0.35487 -0.08330
 O83 O 0.72886 0.38141 -0.05664
 O84 O 0.65839 0.38011 -0.06953
 C85 C 0.61940 0.36147 -0.07735
 O86 O 0.60132 0.32696 0.07443
 O87 O 0.59720 0.25867 0.06165
 C88 C 0.62441 0.25496 0.09073
 O89 O 0.66233 0.27204 0.07557
 O90 O 0.73195 0.33494 0.04991
 C91 C 0.73904 0.36663 0.07598
 O92 O 0.72100 0.38571 0.06220
 O93 O 0.65237 0.38730 0.04910
 C94 C 0.62236 0.36399 0.08291
 Cr95 Cr 0.59918 0.29737 0.00834
 Cr96 Cr 0.68756 0.29605 0.00422
 Cr97 Cr 0.68897 0.38144 -0.00355
 O98 O 0.65862 0.32499 0.00285
 C99 C 0.43760 0.84851 -0.28772
 C100 C 0.44933 0.83590 -0.33874
 C101 C 0.45806 0.85783 -0.39114
 C102 C 0.45613 0.89301 -0.39284
 C103 C 0.44544 0.90503 -0.33961
 N104 N 0.43581 0.88243 -0.28971
 C105 C 0.42480 0.82451 -0.23298
 N106 N 0.39089 0.81982 -0.20232
 C107 C 0.37635 0.79666 -0.15293
 C108 C 0.39672 0.77711 -0.13138
 C109 C 0.43242 0.78244 -0.16141
 C110 C 0.44632 0.80582 -0.21255
 H111 H 0.46731 0.84751 -0.42975
 H112 H 0.44218 0.93106 -0.33818
 H113 H 0.34889 0.79345 -0.13067
 H114 H 0.44885 0.76766 -0.14626
 H115 H 0.45057 0.80876 -0.33860
 H116 H 0.47363 0.80937 -0.23576
 C117 C 0.16102 0.58585 -0.29251
 C118 C 0.12156 0.58240 -0.29475
 C119 C 0.09829 0.56944 -0.34691
 C120 C 0.11415 0.56007 -0.39766
 C121 C 0.15403 0.56400 -0.39281
 N122 N 0.17570 0.57619 -0.34130
 C123 C 0.18697 0.59876 -0.23840
 N124 N 0.21508 0.58648 -0.22994
 C125 C 0.24070 0.59764 -0.18212
 C126 C 0.23941 0.62325 -0.13946
 C127 C 0.21089 0.63656 -0.14753
 C128 C 0.18459 0.62434 -0.19674
 H129 H 0.06857 0.56832 -0.34749
 H130 H 0.16753 0.55576 -0.42879
 H131 H 0.26242 0.58690 -0.17800
 H132 H 0.20895 0.65650 -0.11593
 H133 H 0.10839 0.58907 -0.25653
 H134 H 0.16348 0.63562 -0.20261
 C135 C 0.44453 0.59989 -0.29059
 C136 C 0.45259 0.62136 -0.34366
 C137 C 0.46078 0.60693 -0.39554
 C138 C 0.46140 0.57107 -0.39525
 C139 C 0.45416 0.55111 -0.34025
 N140 N 0.44538 0.56546 -0.29058
 C141 C 0.43281 0.61268 -0.23560
 N142 N 0.40523 0.58479 -0.19718
 C143 C 0.39147 0.59446 -0.14733
 C144 C 0.40569 0.63432 -0.13369
 C145 C 0.43508 0.66354 -0.17188
 C146 C 0.44863 0.65287 -0.22276
 H147 H 0.46761 0.62470 -0.43538
 H148 H 0.45296 0.52291 -0.33696
 H149 H 0.36911 0.57099 -0.11884
 H150 H 0.44705 0.69467 -0.16311
 H151 H 0.45149 0.64854 -0.34567
 H152 H 0.47129 0.67588 -0.25156
 C153 C 0.55458 0.14267 -0.26920
 C154 C 0.55775 0.10851 -0.27618
 C155 C 0.54588 0.08788 -0.32977
 C156 C 0.53080 0.10108 -0.37637
 C157 C 0.52661 0.13444 -0.36675
 N158 N 0.53848 0.15411 -0.31425
 C159 C 0.56889 0.16724 -0.21495
 N160 N 0.55261 0.19080 -0.20194
 C161 C 0.56565 0.21591 -0.15496
 C162 C 0.59766 0.21902 -0.11814
 C163 C 0.61490 0.19494 -0.13059
 C164 C 0.60060 0.16901 -0.17880
 H165 H 0.54972 0.06232 -0.33544
 H166 H 0.51445 0.14519 -0.40118
 H167 H 0.55156 0.23403 -0.14735
 H168 H 0.63983 0.19655 -0.10368
 H169 H 0.56934 0.09779 -0.24098
 H170 H 0.61531 0.15171 -0.18856
 C171 C 0.83945 0.39900 -0.29010
 C172 C 0.83057 0.37333 -0.33855
 C173 C 0.85486 0.38697 -0.38998
 C174 C 0.88804 0.42605 -0.39340
 C175 C 0.89648 0.45053 -0.34363
 N176 N 0.87204 0.43674 -0.29421
 C177 C 0.81292 0.38678 -0.23608
 N178 N 0.81001 0.41475 -0.20358
 C179 C 0.78516 0.40551 -0.15459
 C180 C 0.76129 0.36599 -0.13563
 C181 C 0.76456 0.33683 -0.16789
 C182 C 0.79028 0.34706 -0.21783
 H183 H 0.84734 0.36718 -0.42746
 H184 H 0.92147 0.48102 -0.34484
 H185 H 0.78393 0.42901 -0.13083
 H186 H 0.74709 0.30599 -0.15475
 H187 H 0.80431 0.34349 -0.33787
 H188 H 0.79258 0.32405 -0.24133
 C189 C 0.55806 0.40931 -0.27617
 C190 C 0.56292 0.44722 -0.28182
 C191 C 0.55166 0.45798 -0.33462
 C192 C 0.53570 0.43118 -0.38197
 C193 C 0.52988 0.39304 -0.37377
 N194 N 0.54106 0.38317 -0.32176
 C195 C 0.57305 0.39805 -0.22301
 N196 N 0.55205 0.36003 -0.20268
 C197 C 0.56549 0.34784 -0.15524
 C198 C 0.60271 0.37439 -0.12659
 C199 C 0.62488 0.41359 -0.14718
 C200 C 0.61005 0.42557 -0.19496
 H201 H 0.55685 0.48776 -0.33921
 H202 H 0.51712 0.37136 -0.40899
 H203 H 0.54776 0.31725 -0.14100
 H204 H 0.65377 0.43497 -0.12642
 H205 H 0.57571 0.46850 -0.24606
 H206 H 0.62809 0.45576 -0.21090
 C207 C 0.84461 0.42168 0.28061
 C208 C 0.87943 0.45952 0.28712
 C209 C 0.90117 0.46991 0.34065
 C210 C 0.88819 0.44287 0.38857
 C211 C 0.85281 0.40519 0.37961
 N212 N 0.83266 0.39570 0.32671
 C213 C 0.82035 0.40916 0.22510
 N214 N 0.80131 0.37036 0.20899
 C215 C 0.77677 0.35642 0.16009
 C216 C 0.76924 0.38198 0.12519
 C217 C 0.78870 0.42211 0.14088
 C218 C 0.81447 0.43586 0.19047
 H219 H 0.92716 0.49973 0.34463
 H220 H 0.84202 0.38242 0.41342
 H221 H 0.76194 0.32518 0.14988
 H222 H 0.78352 0.44276 0.11528
 H223 H 0.89010 0.48082 0.25109
 H224 H 0.82828 0.46670 0.20272
 C225 C 0.57551 0.15867 0.30197
 C226 C 0.59554 0.17405 0.35612
 C227 C 0.58205 0.15058 0.40704
 C228 C 0.54855 0.11129 0.40481
 C229 C 0.52972 0.09702 0.34896
 N230 N 0.54311 0.12085 0.30007
 C231 C 0.58871 0.18306 0.24737
 N232 N 0.55968 0.17919 0.20693
 C233 C 0.57008 0.20171 0.15667
 C234 C 0.61190 0.22973 0.14460
 C235 C 0.64225 0.23353 0.18532
 C236 C 0.63082 0.21042 0.23660
 H237 H 0.59915 0.16319 0.44756
 H238 H 0.50309 0.06762 0.34431
 H239 H 0.54576 0.19760 0.12616
 H240 H 0.67490 0.25468 0.17787
 H241 H 0.62109 0.20419 0.35941
 H242 H 0.65479 0.21368 0.26715
 C243 C 0.58094 0.42281 0.29185
 C244 C 0.59118 0.46224 0.30167
 C245 C 0.57872 0.47219 0.35449
 C246 C 0.55604 0.44305 0.39752
 C247 C 0.54657 0.40409 0.38601
 N248 N 0.55886 0.39511 0.33423
 C249 C 0.59211 0.40973 0.23638
 N250 N 0.57072 0.37052 0.22277
 C251 C 0.57926 0.35556 0.17372
 C252 C 0.61147 0.38056 0.13471
 C253 C 0.63403 0.42117 0.14772
 C254 C 0.62452 0.43587 0.19841
 H255 H 0.58689 0.50266 0.36169
 H256 H 0.52861 0.38059 0.41754
 H257 H 0.56112 0.32402 0.16582
 H258 H 0.65942 0.44151 0.11927
 H259 H 0.60780 0.48512 0.26881
 H260 H 0.64316 0.46708 0.20812
 C261 C 0.15612 0.57595 0.27636
 C262 C 0.11980 0.57815 0.28430
 C263 C 0.09750 0.56491 0.33742
 C264 C 0.11145 0.54980 0.38280
 C265 C 0.14746 0.54737 0.37269
 N266 N 0.16853 0.56018 0.32030
 C267 C 0.18164 0.59111 0.22186
 N268 N 0.20189 0.57262 0.20063
 C269 C 0.22701 0.58596 0.15184
 C270 C 0.23377 0.62045 0.12241
 C271 C 0.21339 0.64008 0.14380
 C272 C 0.18708 0.62536 0.19316
 H273 H 0.06992 0.56740 0.34369
 H274 H 0.15889 0.53550 0.40648
 H275 H 0.24261 0.57026 0.13717
 H276 H 0.21798 0.66691 0.12255
 H277 H 0.10869 0.58989 0.24985
 H278 H 0.17223 0.64131 0.20974
 C279 C 0.42257 0.85109 0.28263
 C280 C 0.41025 0.87939 0.29241
 C281 C 0.42123 0.90098 0.34527
 C282 C 0.44458 0.89465 0.38828
 C283 C 0.45718 0.86692 0.37603
 N284 N 0.44601 0.84620 0.32447
 C285 C 0.41104 0.82610 0.22863
 N286 N 0.43262 0.80725 0.21556
 C287 C 0.42325 0.78258 0.16833
 C288 C 0.38999 0.77528 0.13091
 C289 C 0.36725 0.79436 0.14352
 C290 C 0.37754 0.81963 0.19222
 H291 H 0.41083 0.92206 0.35294
 H292 H 0.47596 0.86171 0.40741
 H293 H 0.44161 0.76849 0.16051
 H294 H 0.34111 0.78940 0.11621
 H295 H 0.39260 0.88518 0.25988
 H296 H 0.35863 0.83290 0.20165
 C297 C 0.42764 0.57933 0.28052
 C298 C 0.46469 0.57797 0.28447
 C299 C 0.47423 0.56560 0.33736
 C300 C 0.44709 0.55475 0.38628
 C301 C 0.40986 0.55546 0.37996
 N302 N 0.40117 0.56748 0.32798
 C303 C 0.41646 0.59345 0.22650
 N304 N 0.37551 0.57975 0.21494
 C305 C 0.36275 0.59236 0.16744
 C306 C 0.39207 0.62109 0.12860
 C307 C 0.43450 0.63588 0.13989
 C308 C 0.44682 0.62206 0.18858
 H309 H 0.50329 0.56546 0.34058
 H310 H 0.38783 0.54672 0.41641
 H311 H 0.32970 0.58037 0.16076
 H312 H 0.45816 0.65819 0.11126
 H313 H 0.48603 0.58622 0.24725
 H314 H 0.47971 0.63452 0.19720
   
