data_POSCAR
  _audit_creation_date              2014-09-24
  _audit_creation_method            'ToBaCCo'
  _symmetry_space_group_name_H-M    'P1'
  _symmetry_Int_Tables_number       1
  _symmetry_cell_setting            triclinic
  loop_
  _symmetry_equiv_pos_as_xyz
 x,y,z
_cell_length_a 28.7531
_cell_length_b 28.9992
_cell_length_c 28.7135
_cell_angle_alpha 91.623900
_cell_angle_beta 89.311700
_cell_angle_gamma 89.059000
loop_
  _atom_site_label
  _atom_site_type_symbol
  _atom_site_fract_x
  _atom_site_fract_y
  _atom_site_fract_z
N1 N 0.25523 0.22966 0.25692
 N2 N 0.76864 -0.25208 0.24524
 N3 N 0.77500 0.24547 0.76491
 N4 N 0.22746 -0.22455 0.78702
 N5 N 0.72519 -0.26253 0.72546
 N6 N 0.25817 0.26140 0.75159
 N7 N 0.25640 -0.26136 0.26558
 N8 N 0.74389 0.26583 0.26502
 O9 O 0.17973 0.03453 0.46847
 O10 O 0.19220 -0.04434 0.56742
 O11 O 0.18058 0.04418 0.55852
 O12 O 0.18089 -0.05513 0.47720
 O13 O 0.25731 -0.05240 0.47022
 O14 O 0.25705 0.04791 0.55248
 O15 O 0.26851 -0.04076 0.55973
 O16 O 0.25632 0.03673 0.46282
 Cu17 Cu 0.17573 -0.00577 0.51846
 Cu18 Cu 0.26735 -0.00197 0.51069
 C19 C 0.21650 0.04946 0.44928
 C20 C 0.23292 -0.05561 0.58052
 C21 C 0.21845 0.06325 0.56925
 C22 C 0.21878 -0.07061 0.45948
 O23 O 0.78414 0.04488 0.54835
 O24 O 0.78263 -0.04043 0.44884
 O25 O 0.79357 0.04870 0.45790
 O26 O 0.78949 -0.04467 0.53899
 O27 O 0.71277 -0.04268 0.54030
 O28 O 0.71698 0.05383 0.45692
 O29 O 0.70598 -0.03568 0.44991
 O30 O 0.70744 0.04741 0.54730
 Cu31 Cu 0.79480 0.00185 0.49844
 Cu32 Cu 0.70338 0.00610 0.49857
 C33 C 0.74538 0.06047 0.56480
 C34 C 0.74341 -0.05273 0.43275
 C35 C 0.75675 0.06751 0.44333
 C36 C 0.75128 -0.05998 0.55373
 O37 O 0.45500 0.21676 0.04627
 O38 O 0.54625 0.20225 -0.04326
 O39 O 0.54473 0.20550 0.04766
 O40 O 0.45722 0.22245 -0.04396
 O41 O 0.46962 0.29738 -0.04027
 O42 O 0.55590 0.28068 0.05013
 O43 O 0.55827 0.27725 -0.04072
 O44 O 0.46611 0.29193 0.04994
 Cu45 Cu 0.49966 0.20425 0.00119
 Cu46 Cu 0.51373 0.29425 0.00501
 C47 C 0.44497 0.25642 0.06359
 C48 C 0.56802 0.23700 -0.05725
 C49 C 0.56494 0.24074 0.06472
 C50 C 0.44840 0.26309 -0.05742
 O51 O 0.54384 0.79738 0.05294
 O52 O 0.45019 0.78602 -0.03208
 O53 O 0.45486 0.77869 0.05735
 O54 O 0.53959 0.79611 -0.03844
 O55 O 0.55209 0.72081 -0.04306
 O56 O 0.46909 0.70367 0.05211
 O57 O 0.46235 0.71065 -0.03723
 O58 O 0.55733 0.72227 0.04829
 Cu59 Cu 0.49612 0.79706 0.01067
 Cu60 Cu 0.51184 0.70695 0.00448
 C61 C 0.56646 0.76203 0.06544
 C62 C 0.43987 0.74665 -0.04888
 C63 C 0.44713 0.73791 0.07047
 C64 C 0.55962 0.76088 -0.05761
 O65 O 0.05797 0.43970 0.17648
 O66 O -0.02972 0.53246 0.17434
 O67 O 0.06047 0.52954 0.17779
 O68 O -0.03271 0.44314 0.17858
 O69 O -0.03416 0.44659 0.25548
 O70 O 0.05877 0.53237 0.25471
 O71 O -0.03169 0.53625 0.25124
 O72 O 0.05659 0.44237 0.25339
 Cu73 Cu 0.01421 0.48577 0.16915
 Cu74 Cu 0.01227 0.48968 0.26141
 C75 C 0.07232 0.42510 0.21504
 C76 C -0.04566 0.55034 0.21217
 C77 C 0.07530 0.54588 0.21634
 C78 C -0.04947 0.43032 0.21726
 O79 O 0.04537 0.55543 0.77358
 O80 O -0.03742 0.46004 0.76872
 O81 O 0.05228 0.46593 0.76622
 O82 O -0.04506 0.54954 0.77760
 O83 O -0.04805 0.55394 0.70108
 O84 O 0.04976 0.46989 0.68961
 O85 O -0.04002 0.46455 0.69214
 O86 O 0.04258 0.55963 0.69702
 Cu87 Cu 0.00401 0.50746 0.77923
 Cu88 Cu 0.00086 0.51265 0.68727
 C89 C 0.05822 0.57367 0.73597
 C90 C -0.05252 0.44580 0.72958
 C91 C 0.06732 0.45323 0.72606
 C92 C -0.06339 0.56586 0.74142
 C93 C 0.34149 0.26534 0.16958
 C94 C 0.35561 0.22266 0.14951
 N95 N 0.33630 0.18332 0.16460
 C96 C 0.30358 0.18464 0.19917
 C97 C 0.28950 0.22728 0.21979
 N98 N 0.30875 0.26674 0.20412
 N99 N 0.36107 0.30463 0.15447
 C100 C 0.39431 0.30313 0.12023
 C101 C 0.40863 0.26033 0.10015
 N102 N 0.38867 0.22117 0.11541
 H103 H 0.28852 0.15279 0.21037
 H104 H 0.40942 0.33494 0.10897
 C105 C 0.67294 0.77644 0.16538
 C106 C 0.65915 0.73302 0.14943
 N107 N 0.68144 0.69367 0.16726
 C108 C 0.71727 0.69699 0.19944
 C109 C 0.73019 0.74206 0.21368
 N110 N 0.70775 0.77988 0.19677
 N111 N 0.65169 0.81468 0.14882
 C112 C 0.61728 0.81110 0.11682
 C113 C 0.60356 0.76720 0.10033
 N114 N 0.62499 0.72908 0.11733
 H115 H 0.69455 0.67637 0.17854
 H116 H 0.60104 0.84221 0.10424
 C117 C 0.67694 0.21862 -0.15691
 C118 C 0.66128 0.26299 -0.14263
 N119 N 0.68185 0.30047 -0.16039
 C120 C 0.71788 0.29570 -0.19125
 C121 C 0.73474 0.25130 -0.20477
 N122 N 0.71329 0.21374 -0.18747
 N123 N 0.65610 0.18116 -0.13925
 C124 C 0.62055 0.18604 -0.10770
 C125 C 0.60528 0.23048 -0.09270
 N126 N 0.62609 0.26791 -0.11084
 H127 H 0.73343 0.32632 -0.20489
 H128 H 0.60484 0.15549 -0.09406
 C129 C 0.32637 0.73913 -0.14116
 C130 C 0.34174 0.78170 -0.12340
 N131 N 0.31954 0.82120 -0.13540
 C132 C 0.28256 0.82012 -0.16445
 C133 C 0.26682 0.77756 -0.18232
 N134 N 0.28931 0.73799 -0.17005
 N135 N 0.34869 0.69966 -0.12909
 C136 C 0.38565 0.70082 -0.09988
 C137 C 0.40095 0.74344 -0.08174
 N138 N 0.37843 0.78285 -0.09415
 H139 H 0.26527 0.85211 -0.17313
 H140 H 0.40263 0.66881 -0.09070
 C141 C 0.17331 0.31767 0.21539
 C142 C 0.15469 0.33627 0.25738
 N143 N 0.16939 0.31955 0.29845
 C144 C 0.20181 0.28491 0.29943
 C145 C 0.22045 0.26600 0.25736
 N146 N 0.20567 0.28321 0.21635
 N147 N 0.15878 0.33434 0.17430
 C148 C 0.12635 0.36886 0.17321
 C149 C 0.10754 0.38771 0.21520
 N150 N 0.12231 0.37083 0.25638
 H151 H 0.21333 0.27269 0.33269
 H152 H 0.11545 0.38143 0.13986
 C153 C 0.15254 0.68368 0.74124
 C154 C 0.13870 0.66208 0.78211
 N155 N 0.15518 0.67735 0.82381
 C156 C 0.18476 0.71348 0.82648
 C157 C 0.19836 0.73547 0.78557
 N158 N 0.18180 0.71973 0.74392
 N159 N 0.13594 0.66879 0.69954
 C160 C 0.10584 0.63325 0.69679
 C161 C 0.09148 0.61166 0.73768
 N162 N 0.10847 0.62665 0.77946
 H163 H 0.19674 0.72554 0.86019
 H164 H 0.09308 0.62222 0.66303
 C165 C -0.14614 0.65801 0.20756
 C166 C -0.13030 0.64215 0.25041
 N167 N -0.14767 0.66150 0.29069
 C168 C -0.18021 0.69605 0.29005
 C169 C -0.19612 0.71206 0.24716
 N170 N -0.17859 0.69241 0.20691
 N171 N -0.12901 0.63861 0.16727
 C172 C -0.09668 0.60397 0.16778
 C173 C -0.08067 0.58785 0.21061
 N174 N -0.09799 0.60750 0.25100
 H175 H -0.19394 0.71059 0.32261
 H176 H -0.08368 0.58919 0.13503
 C177 C -0.14540 0.33456 0.72539
 C178 C -0.12708 0.35073 0.76780
 N179 N -0.13989 0.33086 0.80810
 C180 C -0.17069 0.29581 0.80797
 C181 C -0.18971 0.28007 0.76566
 N182 N -0.17627 0.29971 0.72526
 N183 N -0.13283 0.35463 0.68515
 C184 C -0.10284 0.39038 0.68535
 C185 C -0.08471 0.40697 0.72781
 N186 N -0.09726 0.38648 0.76804
 H187 H -0.18079 0.28068 0.84052
 H188 H -0.09348 0.40577 0.65271
 C189 C 0.21346 0.14710 0.34275
 C190 C 0.25557 0.13058 0.36051
 N191 N 0.29644 0.14676 0.34419
 C192 C 0.29722 0.17882 0.31065
 C193 C 0.25519 0.19551 0.29247
 N194 N 0.21416 0.17919 0.30917
 N195 N 0.17263 0.13095 0.35960
 C196 C 0.17206 0.09906 0.39358
 C197 C 0.21431 0.08262 0.41149
 N198 N 0.25497 0.09894 0.39426
 H199 H 0.33028 0.19150 0.29854
 H200 H 0.13909 0.08696 0.40658
 C201 C 0.73915 0.15860 0.67689
 C202 C 0.78228 0.14205 0.65933
 N203 N 0.82205 0.15853 0.67798
 C204 C 0.82068 0.19119 0.71295
 C205 C 0.77749 0.20858 0.73008
 N206 N 0.73773 0.19134 0.71166
 N207 N 0.69935 0.14242 0.65823
 C208 C 0.70058 0.11062 0.62258
 C209 C 0.74368 0.09417 0.60438
 N210 N 0.78364 0.11029 0.62350
 H211 H 0.85299 0.20370 0.72706
 H212 H 0.66810 0.09857 0.60842
 C213 C 0.25262 -0.14410 0.69350
 C214 C 0.20766 -0.12987 0.68092
 N215 N 0.17033 -0.14536 0.70485
 C216 C 0.17590 -0.17493 0.74036
 C217 C 0.22086 -0.19009 0.75237
 N218 N 0.25819 -0.17384 0.72872
 N219 N 0.28996 -0.12886 0.66955
 C220 C 0.28448 -0.10019 0.63337
 C221 C 0.23949 -0.08619 0.62018
 N222 N 0.20206 -0.10135 0.64457
 H223 H 0.14558 -0.18707 0.75871
 H224 H 0.31504 -0.08875 0.61491
 C225 C 0.73436 -0.15658 0.32663
 C226 C 0.77785 -0.13999 0.34053
 N227 N 0.81716 -0.15869 0.32081
 C228 C 0.81503 -0.19380 0.28851
 C229 C 0.77157 -0.21171 0.27566
 N230 N 0.73219 -0.19203 0.29481
 N231 N 0.69502 -0.13795 0.34628
 C232 C 0.69711 -0.10384 0.37958
 C233 C 0.74063 -0.08775 0.39451
 N234 N 0.78006 -0.10620 0.37424
 H235 H 0.84699 -0.20818 0.27357
 H236 H 0.66501 -0.09003 0.39480
 C237 C 0.64892 0.77176 -0.17482
 C238 C 0.63645 0.72865 -0.15810
 N239 N 0.65256 0.68952 -0.18018
 C240 C 0.68095 0.69147 -0.21821
 C241 C 0.69410 0.73456 -0.23495
 N242 N 0.67744 0.77378 -0.21275
 N243 N 0.63234 0.81084 -0.15276
 C244 C 0.60377 0.80873 -0.11471
 C245 C 0.59132 0.76551 -0.09784
 N246 N 0.60812 0.72656 -0.12017
 H247 H 0.69306 0.65972 -0.23535
 H248 H 0.59093 0.84040 -0.09793
 C249 C 0.34675 0.28497 -0.15986
 C250 C 0.35633 0.24045 -0.14400
 N251 N 0.33281 0.20404 -0.16192
 C252 C 0.30036 0.21005 -0.19529
 C253 C 0.29102 0.25452 -0.21168
 N254 N 0.31441 0.29101 -0.19326
 N255 N 0.37035 0.32136 -0.14199
 C256 C 0.40319 0.31529 -0.10900
 C257 C 0.41305 0.27071 -0.09313
 N258 N 0.38917 0.23433 -0.11110
 H259 H 0.28202 0.18046 -0.20904
 H260 H 0.42144 0.34502 -0.09541
 C261 C 0.34498 0.71518 0.17412
 C262 C 0.35245 0.75967 0.15767
 N263 N 0.32674 0.79579 0.17541
 C264 C 0.29433 0.78958 0.20937
 C265 C 0.28739 0.74524 0.22668
 N266 N 0.31273 0.70896 0.20820
 N267 N 0.37088 0.67912 0.15652
 C268 C 0.40402 0.68547 0.12327
 C269 C 0.41186 0.73005 0.10690
 N270 N 0.38562 0.76608 0.12454
 H271 H 0.27453 0.81901 0.22328
 H272 H 0.42407 0.65599 0.10988
 C273 C 0.66167 0.23082 0.17370
 C274 C 0.64853 0.27367 0.15610
 N275 N 0.66659 0.31292 0.17460
 C276 C 0.69748 0.31132 0.20995
 C277 C 0.71109 0.26848 0.22761
 N278 N 0.69258 0.22916 0.20899
 N279 N 0.64321 0.19164 0.15523
 C280 C 0.61211 0.19340 0.11990
 C281 C 0.59892 0.23635 0.10224
 N282 N 0.61764 0.27540 0.12095
 H283 H 0.71106 0.34315 0.22442
 H284 H 0.59784 0.16168 0.10590
 C285 C -0.17749 0.65970 0.75541
 C286 C -0.16112 0.64474 0.71120
 N287 N -0.18244 0.66029 0.67259
 C288 C -0.21933 0.69026 0.67617
 C289 C -0.23576 0.70559 0.72045
 N290 N -0.21425 0.68964 0.75902
 N291 N -0.15640 0.64402 0.79404
 C292 C -0.11963 0.61398 0.79055
 C293 C -0.10299 0.59882 0.74631
 N294 N -0.12432 0.61474 0.70762
 H295 H -0.23593 0.70175 0.64484
 H296 H -0.10361 0.60209 0.82204
 C297 C -0.16029 0.33600 0.22056
 C298 C -0.14095 0.35331 0.26196
 N299 N -0.15886 0.34058 0.30357
 C300 C -0.19547 0.31148 0.30568
 C301 C -0.21539 0.29441 0.26424
 N302 N -0.19696 0.30721 0.22264
 N303 N -0.14268 0.34894 0.17894
 C304 C -0.10668 0.37870 0.17676
 C305 C -0.08744 0.39664 0.21816
 N306 N -0.10514 0.38323 0.25985
 H307 H -0.20959 0.30265 0.33930
 H308 H -0.09358 0.38855 0.14304
 C309 C 0.17285 0.34982 0.71666
 C310 C 0.15702 0.36762 0.76004
 N311 N 0.17491 0.35067 0.79968
 C312 C 0.20801 0.31663 0.79801
 C313 C 0.22402 0.29842 0.75460
 N314 N 0.20574 0.31563 0.71491
 N315 N 0.15476 0.36675 0.67702
 C316 C 0.12131 0.40055 0.67880
 C317 C 0.10498 0.41814 0.72226
 N318 N 0.12348 0.40112 0.76185
 H319 H 0.22102 0.30340 0.83029
 H320 H 0.10732 0.41314 0.64663
 C321 C 0.17740 0.64954 0.21989
 C322 C 0.15936 0.63173 0.26113
 N323 N 0.17419 0.64847 0.30287
 C324 C 0.20596 0.68265 0.30534
 C325 C 0.22366 0.70138 0.26412
 N326 N 0.20903 0.68383 0.22228
 N327 N 0.16251 0.63267 0.17815
 C328 C 0.13016 0.59894 0.17577
 C329 C 0.11162 0.58129 0.21708
 N330 N 0.12697 0.59822 0.25880
 H331 H 0.21736 0.69492 0.33918
 H332 H 0.11880 0.58637 0.14201
 C333 C 0.75842 -0.16995 0.64731
 C334 C 0.71500 -0.15203 0.63415
 N335 N 0.67559 -0.17063 0.65156
 C336 C 0.67772 -0.20626 0.68146
 C337 C 0.72130 -0.22428 0.69458
 N338 N 0.76052 -0.20541 0.67694
 N339 N 0.79792 -0.15182 0.63013
 C340 C 0.79618 -0.11651 0.60024
 C341 C 0.75285 -0.09825 0.58661
 N342 N 0.71307 -0.11657 0.60404
 H343 H 0.64581 -0.22079 0.69438
 H344 H 0.82852 -0.10295 0.58721
 C345 C 0.21641 -0.17926 0.35832
 C346 C 0.25877 -0.16155 0.37410
 N347 N 0.29937 -0.17842 0.35547
 C348 C 0.29953 -0.21179 0.32128
 C349 C 0.25714 -0.22884 0.30450
 N350 N 0.21651 -0.21226 0.32384
 N351 N 0.17583 -0.16229 0.37689
 C352 C 0.17561 -0.12806 0.41022
 C353 C 0.21795 -0.10954 0.42547
 N354 N 0.25859 -0.12707 0.40706
 H355 H 0.33237 -0.22451 0.30679
 H356 H 0.14264 -0.11497 0.42407
 C357 C 0.77178 0.17516 0.34798
 C358 C 0.72733 0.16252 0.36342
 N359 N 0.68930 0.18493 0.34716
 C360 C 0.69369 0.21904 0.31588
 C361 C 0.73820 0.23131 0.29979
 N362 N 0.77618 0.20901 0.31665
 N363 N 0.80988 0.15299 0.36407
 C364 C 0.80571 0.11859 0.39482
 C365 C 0.76128 0.10538 0.41029
 N366 N 0.72299 0.12791 0.39416
 H367 H 0.66279 0.23641 0.30360
 H368 H 0.83695 0.10160 0.40684
 C369 C 0.21656 0.17633 0.66526
 C370 C 0.25867 0.15926 0.64572
 N371 N 0.29938 0.17810 0.65925
 C372 C 0.29997 0.21270 0.69212
 C373 C 0.25798 0.22899 0.71276
 N374 N 0.21715 0.21066 0.69832
 N375 N 0.17592 0.15707 0.65219
 C376 C 0.17544 0.12115 0.62079
 C377 C 0.21762 0.10337 0.60177
 N378 N 0.25826 0.12323 0.61456
 H379 H 0.33291 0.22673 0.70291
 H380 H 0.14247 0.10631 0.61127
   
