data_POSCAR
  _audit_creation_date              2014-09-24
  _audit_creation_method            'ToBaCCo'
  _symmetry_space_group_name_H-M    'P1'
  _symmetry_Int_Tables_number       1
  _symmetry_cell_setting            triclinic
  loop_
  _symmetry_equiv_pos_as_xyz
 x,y,z
_cell_length_a 42.3551
_cell_length_b 41.9076
_cell_length_c 18.9950
_cell_angle_alpha 89.478500
_cell_angle_beta 90.146500
_cell_angle_gamma 120.371500
loop_
  _atom_site_label
  _atom_site_type_symbol
  _atom_site_fract_x
  _atom_site_fract_y
  _atom_site_fract_z
C1 C 0.13498 0.43095 0.47545
 C2 C 0.15022 0.42585 0.41353
 C3 C 0.18405 0.42727 0.41859
 C4 C 0.20462 0.43772 0.48111
 C5 C 0.18940 0.44488 0.54088
 C6 C 0.15398 0.44026 0.54003
 C7 C 0.24224 0.44213 0.48333
 C8 C 0.25852 0.44198 0.54825
 C9 C 0.29471 0.44963 0.55166
 C10 C 0.31420 0.45457 0.48936
 C11 C 0.29862 0.45362 0.42383
 C12 C 0.26304 0.44812 0.42104
 H13 H 0.10999 0.43184 0.47183
 H14 H 0.19394 0.41945 0.37344
 H15 H 0.20479 0.45327 0.58897
 H16 H 0.24359 0.43605 0.59717
 H17 H 0.34211 0.46016 0.49194
 H18 H 0.25267 0.45007 0.37016
 C19 C 0.56142 -0.29850 0.49088
 C20 C 0.55388 -0.28449 0.42936
 C21 C 0.55186 -0.25211 0.43465
 C22 C 0.55901 -0.23283 0.49834
 C23 C 0.56695 -0.24740 0.55866
 C24 C 0.56704 -0.28101 0.55656
 C25 C 0.55681 -0.19828 0.50197
 C26 C 0.54605 -0.18881 0.56482
 C27 C 0.54290 -0.15715 0.56839
 C28 C 0.54884 -0.13558 0.50768
 C29 C 0.55867 -0.14474 0.44385
 C30 C 0.56377 -0.17537 0.44201
 H31 H 0.55882 -0.32548 0.48878
 H32 H 0.54544 -0.24133 0.38852
 H33 H 0.57407 -0.23199 0.60711
 H34 H 0.53977 -0.20608 0.61132
 H35 H 0.54414 -0.11247 0.50961
 H36 H 0.57305 -0.18114 0.39336
 C37 C 1.29901 0.85894 0.51164
 C38 C 1.28074 0.84362 0.44794
 C39 C 1.24522 0.81243 0.45135
 C40 C 1.22915 0.79485 0.51597
 C41 C 1.24916 0.81032 0.57853
 C42 C 1.28365 0.84253 0.57664
 C43 C 1.19239 0.75982 0.51771
 C44 C 1.17148 0.74822 0.58015
 C45 C 1.13878 0.71382 0.58535
 C46 C 1.12495 0.69272 0.52361
 C47 C 1.14460 0.70390 0.46008
 C48 C 1.17855 0.73687 0.45807
 H49 H 1.32647 0.88260 0.51148
 H50 H 1.22974 0.80259 0.40326
 H51 H 1.23906 0.79689 0.62899
 H52 H 1.18022 0.76626 0.62508
 H53 H 1.09987 0.66625 0.52508
 H54 H 1.19446 0.74351 0.41020
 C55 C 0.86223 0.55142 0.49711
 C56 C 0.84801 0.55342 0.43184
 C57 C 0.81795 0.55872 0.42957
 C58 C 0.80312 0.56441 0.49154
 C59 C 0.81876 0.56329 0.55692
 C60 C 0.84722 0.55527 0.55983
 C61 C 0.77021 0.56913 0.48717
 C62 C 0.74538 0.55890 0.54398
 C63 C 0.71257 0.55987 0.53806
 C64 C 0.70466 0.57043 0.47270
 C65 C 0.72843 0.57995 0.41521
 C66 C 0.76170 0.58092 0.42375
 H67 H 0.88443 0.54561 0.49933
 H68 H 0.80610 0.55780 0.37872
 H69 H 0.80839 0.56740 0.60586
 H70 H 0.75016 0.54747 0.59119
 H71 H 0.67982 0.57134 0.46551
 H72 H 0.78033 0.59024 0.37951
 C73 C 0.44195 0.31221 0.52667
 C74 C 0.45022 0.30333 0.46108
 C75 C 0.44945 0.26977 0.45314
 C76 C 0.44014 0.24470 0.50989
 C77 C 0.43293 0.25477 0.57618
 C78 C 0.43432 0.28882 0.58572
 C79 C 0.43900 0.20868 0.50002
 C80 C 0.44729 0.19193 0.55624
 C81 C 0.44732 0.15848 0.54756
 C82 C 0.43935 0.14245 0.48021
 C83 C 0.43193 0.15903 0.42320
 C84 C 0.43107 0.19159 0.43360
 H85 H 0.44389 0.33883 0.53204
 H86 H 0.45753 0.26406 0.40299
 H87 H 0.42495 0.23557 0.62003
 H88 H 0.45612 0.20635 0.60566
 H89 H 0.43859 0.11664 0.47116
 H90 H 0.42413 0.20334 0.38941
 C91 C 0.69238 0.12800 0.52081
 C92 C 0.70646 0.14372 0.45483
 C93 C 0.74240 0.17390 0.44983
 C94 C 0.76526 0.18701 0.50986
 C95 C 0.75073 0.16855 0.57497
 C96 C 0.71398 0.14086 0.58101
 C97 C 0.80259 0.22145 0.50605
 C98 C 0.81875 0.24245 0.56712
 C99 C 0.85305 0.27537 0.56569
 C100 C 0.87060 0.28809 0.50002
 C101 C 0.85464 0.26878 0.43776
 C102 C 0.82141 0.23499 0.44151
 H103 H 0.66385 0.10666 0.52601
 H104 H 0.75173 0.18726 0.39914
 H105 H 0.76687 0.17634 0.62247
 H106 H 0.80482 0.23300 0.61670
 H107 H 0.89532 0.31484 0.49592
 H108 H 0.81048 0.21980 0.39337
 O109 O 0.97932 0.52448 -0.11292
 O110 O 1.01917 0.53670 0.12574
 O111 O 0.93641 0.49502 0.04347
 O112 O 1.06220 0.56662 -0.03108
 O113 O 0.95829 0.48538 0.13639
 O114 O 1.04165 0.54104 -0.12949
 O115 O 1.07068 0.54881 0.08406
 O116 O 0.92950 0.47822 -0.07741
 C117 C 0.94573 0.50868 -0.10881
 C118 C 1.05255 0.55770 0.12261
 C119 C 0.94122 0.49877 0.10754
 C120 C 1.05628 0.56956 -0.09369
 O121 O 1.02171 0.46868 -0.12722
 O122 O 0.98362 0.43847 0.11276
 O123 O 0.93984 0.42028 -0.04369
 O124 O 1.06588 0.48598 0.02894
 O125 O 1.04435 0.48883 0.12775
 O126 O 0.95945 0.45295 -0.13669
 O127 O 1.07205 0.51175 -0.08666
 O128 O 0.93194 0.42909 0.07791
 Co129 Co 1.00057 0.49635 -0.11432
 Co130 Co 1.00130 0.48778 0.11342
 Co131 Co 0.94109 0.45927 0.00004
 Co132 Co 1.06106 0.52467 -0.00114
 O133 O 1.00100 0.49201 -0.00049
 C134 C 1.05530 0.48392 -0.12470
 C135 C 0.95029 0.41762 0.10917
 C136 C 0.94445 0.42197 -0.10799
 C137 C 1.06066 0.47707 0.09177
 O138 O 0.46576 0.44411 -0.08808
 O139 O 0.47729 0.51133 0.12628
 O140 O 0.51371 0.44589 0.06907
 O141 O 0.44720 0.53822 -0.06651
 O142 O 0.52099 0.48958 0.14216
 O143 O 0.44599 0.48761 -0.09240
 O144 O 0.44234 0.49521 0.03336
 O145 O 0.51322 0.44046 -0.06357
 C146 C 0.48128 0.42590 -0.08643
 C147 C 0.44573 0.49449 0.09885
 C148 C 0.51213 0.45640 0.12981
 C149 C 0.43506 0.50985 -0.10711
 O150 O 0.51178 0.53955 -0.14785
 O151 O 0.57398 0.55395 0.08149
 O152 O 0.57345 0.50485 -0.07015
 O153 O 0.48088 0.56396 0.05257
 O154 O 0.53417 0.57571 0.06744
 O155 O 0.53107 0.49355 -0.14843
 O156 O 0.51674 0.57324 -0.05958
 O157 O 0.57690 0.50541 0.06226
 Co158 Co 0.49061 0.49278 -0.10982
 Co159 Co 0.52528 0.53086 0.09616
 Co160 Co 0.54119 0.47749 -0.00129
 Co161 Co 0.48041 0.53280 -0.01527
 O162 O 0.51171 0.50849 -0.00473
 C163 C 0.52320 0.57091 -0.12234
 C164 C 0.59121 0.53757 0.08453
 C165 C 0.56394 0.50431 -0.13260
 C166 C 0.51086 0.58429 0.07984
 O167 O 0.55545 0.01936 -0.07883
 O168 O 0.49355 -0.02876 0.14701
 O169 O 0.55870 0.07093 0.07354
 O170 O 0.46149 -0.09312 -0.03589
 O171 O 0.51685 0.03776 0.15299
 O172 O 0.51096 -0.04454 -0.07135
 O173 O 0.50690 -0.05134 0.05630
 O174 O 0.56047 0.07198 -0.05932
 C175 C 0.57379 0.05342 -0.08178
 C176 C 0.50980 -0.04429 0.12075
 C177 C 0.54972 0.06052 0.13594
 C178 C 0.48792 -0.07827 -0.08126
 O179 O 0.45959 -0.03100 -0.12612
 O180 O 0.45236 0.02613 0.09531
 O181 O 0.49779 0.06953 -0.06172
 O182 O 0.43935 -0.07964 0.08312
 O183 O 0.42903 -0.03644 0.09102
 O184 O 0.50566 0.03476 -0.13722
 O185 O 0.42809 -0.05715 -0.03323
 O186 O 0.50096 0.07670 0.07036
 Co187 Co 0.50664 -0.00461 -0.09402
 Co188 Co 0.47445 -0.00021 0.11339
 Co189 Co 0.52599 0.06574 0.00606
 Co190 Co 0.46890 -0.05197 0.00944
 O191 O 0.49403 0.00464 0.01107
 C192 C 0.42918 -0.05064 -0.09729
 C193 C 0.46940 0.06012 0.09472
 C194 C 0.49664 0.05858 -0.12322
 C195 C 0.41976 -0.06850 0.10762
 C196 C 1.10287 0.43107 0.22054
 C197 C 1.13995 0.44205 0.22309
 C198 C 1.15513 0.43761 0.28530
 C199 C 1.13354 0.42293 0.34694
 C200 C 1.09552 0.40904 0.34113
 C201 C 1.08047 0.41321 0.27869
 C202 C 1.08920 0.44460 0.16552
 C203 C 1.07682 0.45844 0.12679
 H204 H 1.15768 0.45640 0.17870
 H205 H 1.18448 0.44926 0.28624
 H206 H 1.07724 0.39560 0.38519
 H207 H 1.05163 0.40451 0.27729
 C208 C 0.53292 0.65649 0.23819
 C209 C 0.55672 0.65554 0.28797
 C210 C 0.56395 0.67531 0.35027
 C211 C 0.54743 0.69663 0.36444
 C212 C 0.52410 0.69801 0.31243
 C213 C 0.51681 0.67793 0.25012
 C214 C 0.52382 0.63340 0.17743
 C215 C 0.51720 0.61201 0.13022
 H216 H 0.56948 0.63910 0.27896
 H217 H 0.58333 0.67444 0.38631
 H218 H 0.50963 0.71276 0.32084
 H219 H 0.49795 0.67845 0.21211
 C220 C 0.34232 -0.11619 0.25966
 C221 C 0.31348 -0.15275 0.26351
 C222 C 0.29166 -0.16561 0.32412
 C223 C 0.29887 -0.14215 0.38256
 C224 C 0.32686 -0.10476 0.37558
 C225 C 0.34830 -0.09207 0.31495
 C226 C 0.36742 -0.10306 0.20138
 C227 C 0.39051 -0.08908 0.15631
 H228 H 0.30862 -0.17164 0.22078
 H229 H 0.27106 -0.19466 0.32658
 H230 H 0.33235 -0.08493 0.41669
 H231 H 0.37022 -0.06348 0.31191
 C232 C 0.89416 0.53511 0.24654
 C233 C 0.91701 0.55961 0.29807
 C234 C 0.90195 0.56626 0.35751
 C235 C 0.86379 0.54840 0.36620
 C236 C 0.84098 0.52473 0.31307
 C237 C 0.85613 0.51803 0.25367
 C238 C 0.90981 0.52407 0.19166
 C239 C 0.92375 0.51335 0.15017
 H240 H 0.94648 0.57264 0.29344
 H241 H 0.92010 0.58492 0.39728
 H242 H 0.81150 0.51029 0.31879
 H243 H 0.83821 0.49856 0.21463
 C244 C 0.48145 0.38163 0.29071
 C245 C 0.45727 0.34400 0.27858
 C246 C 0.44730 0.31836 0.33381
 C247 C 0.46135 0.33017 0.40180
 C248 C 0.48591 0.36801 0.41319
 C249 C 0.49584 0.39354 0.35799
 C250 C 0.49186 0.40807 0.23413
 C251 C 0.50095 0.43029 0.18675
 H252 H 0.44606 0.33451 0.22656
 H253 H 0.42819 0.28943 0.32373
 H254 H 0.49767 0.37782 0.46471
 H255 H 0.51478 0.42257 0.36778
 C256 C 0.62948 0.10209 0.28520
 C257 C 0.63343 0.07766 0.32991
 C258 C 0.65955 0.09136 0.38333
 C259 C 0.68208 0.12971 0.39278
 C260 C 0.67879 0.15412 0.34620
 C261 C 0.65253 0.14033 0.29271
 C262 C 0.60120 0.08773 0.23280
 C263 C 0.57743 0.07531 0.18903
 H264 H 0.61588 0.04803 0.32427
 H265 H 0.66176 0.07198 0.41820
 H266 H 0.69549 0.18375 0.35285
 H267 H 0.64968 0.15945 0.25821
 C268 C 0.47139 0.10711 -0.28321
 C269 C 0.47857 0.10187 -0.35243
 C270 C 0.47095 0.11892 -0.40799
 C271 C 0.45580 0.14173 -0.39563
 C272 C 0.44915 0.14702 -0.32491
 C273 C 0.45680 0.12978 -0.26947
 C274 C 0.47960 0.08958 -0.22643
 C275 C 0.48703 0.07510 -0.17931
 H276 H 0.49042 0.08479 -0.36354
 H277 H 0.47852 0.11514 -0.46023
 H278 H 0.43657 0.16314 -0.31183
 H279 H 0.45107 0.13396 -0.21585
 C280 C 0.63787 0.53081 -0.29129
 C281 C 0.67500 0.54449 -0.27806
 C282 C 0.69961 0.55356 -0.33404
 C283 C 0.68754 0.54937 -0.40469
 C284 C 0.64967 0.53480 -0.41650
 C285 C 0.62529 0.52576 -0.36049
 C286 C 0.61240 0.52186 -0.23428
 C287 C 0.59044 0.51405 -0.18756
 H288 H 0.68503 0.54857 -0.22446
 H289 H 0.72828 0.56543 -0.32132
 H290 H 0.63813 0.52889 -0.46885
 H291 H 0.59646 0.51463 -0.37128
 C292 C 0.90010 0.33918 -0.25019
 C293 C 0.92252 0.34032 -0.30513
 C294 C 0.90716 0.31896 -0.36521
 C295 C 0.86881 0.29591 -0.37184
 C296 C 0.84672 0.29456 -0.31465
 C297 C 0.86226 0.31603 -0.25481
 C298 C 0.91547 0.36540 -0.19398
 C299 C 0.92852 0.38979 -0.15129
 H300 H 0.95193 0.35844 -0.30231
 H301 H 0.92569 0.32022 -0.40571
 H302 H 0.81719 0.27895 -0.31706
 H303 H 0.84456 0.31566 -0.21331
 C304 C 0.51255 -0.12499 -0.24155
 C305 C 0.54160 -0.09875 -0.28271
 C306 C 0.55171 -0.10943 -0.34389
 C307 C 0.53285 -0.14658 -0.36483
 C308 C 0.50407 -0.17302 -0.32253
 C309 C 0.49388 -0.16221 -0.26117
 C310 C 0.50146 -0.11255 -0.18142
 C311 C 0.49407 -0.09877 -0.13372
 H312 H 0.55617 -0.06986 -0.26796
 H313 H 0.57424 -0.08862 -0.37505
 H314 H 0.48891 -0.20177 -0.33789
 H315 H 0.47120 -0.18266 -0.22981
 C316 C 0.35783 0.47670 -0.25940
 C317 C 0.33365 0.48979 -0.27004
 C318 C 0.31149 0.47927 -0.32993
 C319 C 0.31357 0.45579 -0.37986
 C320 C 0.33684 0.44160 -0.36713
 C321 C 0.35883 0.45202 -0.30723
 C322 C 0.38348 0.49002 -0.20235
 C323 C 0.40646 0.50014 -0.15725
 H324 H 0.33278 0.50899 -0.23337
 H325 H 0.29409 0.49094 -0.33900
 H326 H 0.33874 0.42328 -0.40453
 H327 H 0.37744 0.44170 -0.29930
 C328 C 1.09288 0.65863 -0.22191
 C329 C 1.07029 0.65205 -0.28025
 C330 C 1.08465 0.67209 -0.34262
 C331 C 1.12216 0.69911 -0.34815
 C332 C 1.14365 0.70794 -0.28627
 C333 C 1.12919 0.68751 -0.22413
 C334 C 1.08077 0.63099 -0.16719
 C335 C 1.07006 0.60452 -0.12869
 H336 H 1.04204 0.62975 -0.27907
 H337 H 1.06629 0.66559 -0.38681
 H338 H 1.17265 0.72789 -0.28696
 H339 H 1.14708 0.69251 -0.17957
 C340 C 0.89032 0.53433 -0.25197
 C341 C 0.88871 0.56690 -0.25766
 C342 C 0.87320 0.57340 -0.31766
 C343 C 0.85974 0.54757 -0.37257
 C344 C 0.86040 0.51454 -0.36504
 C345 C 0.87551 0.50800 -0.30530
 C346 C 0.90943 0.52822 -0.19528
 C347 C 0.92587 0.52056 -0.15279
 H348 H 0.90027 0.58759 -0.21686
 H349 H 0.87305 0.59909 -0.32253
 H350 H 0.84989 0.49408 -0.40636
 H351 H 0.87662 0.48275 -0.30168
 C352 C 0.44029 0.33924 -0.21959
 C353 C 0.42258 0.34467 -0.27654
 C354 C 0.41804 0.32589 -0.33930
 C355 C 0.43127 0.30119 -0.34671
 C356 C 0.44546 0.29291 -0.28622
 C357 C 0.45054 0.31237 -0.22352
 C358 C 0.45320 0.36593 -0.16384
 C359 C 0.46547 0.39177 -0.12421
 H360 H 0.41424 0.36520 -0.27400
 H361 H 0.40494 0.33161 -0.38266
 H362 H 0.45619 0.27437 -0.28888
 H363 H 0.46454 0.30811 -0.17983
 C364 C 0.65571 0.10308 -0.22426
 C365 C 0.64866 0.12458 -0.27125
 C366 C 0.66859 0.13759 -0.33347
 C367 C 0.69605 0.12946 -0.34954
 C368 C 0.70434 0.10925 -0.30107
 C369 C 0.68392 0.09577 -0.23863
 C370 C 0.63066 0.08560 -0.16662
 C371 C 0.60626 0.07090 -0.12412
 H372 H 0.62674 0.13015 -0.26103
 H373 H 0.66200 0.15333 -0.37012
 H374 H 0.72544 0.10274 -0.31286
 H375 H 0.68932 0.07879 -0.20293
 C376 C 1.10596 0.45827 -0.27830
 C377 C 1.08391 0.43409 -0.33084
 C378 C 1.09966 0.42794 -0.38999
 C379 C 1.13814 0.44596 -0.39844
 C380 C 1.15998 0.46984 -0.34384
 C381 C 1.14401 0.47595 -0.28481
 C382 C 1.08932 0.46658 -0.22038
 C383 C 1.07439 0.47409 -0.17467
 H384 H 1.05436 0.42011 -0.32643
 H385 H 1.08129 0.40812 -0.42796
 H386 H 1.18948 0.48565 -0.34762
 H387 H 1.16144 0.49520 -0.24499
 C388 C 0.56299 0.65663 -0.26268
 C389 C 0.57874 0.65370 -0.32496
 C390 C 0.58231 0.67590 -0.38322
 C391 C 0.56971 0.70139 -0.38094
 C392 C 0.55665 0.70609 -0.31557
 C393 C 0.55298 0.68362 -0.25745
 C394 C 0.55227 0.62855 -0.20873
 C395 C 0.54057 0.60311 -0.16715
 H396 H 0.58687 0.63309 -0.32961
 H397 H 0.59465 0.67256 -0.43028
 H398 H 0.54610 0.72467 -0.31027
 H399 H 0.54042 0.68596 -0.20964
 C400 C 0.34918 -0.10533 -0.24077
 C401 C 0.31210 -0.11566 -0.24085
 C402 C 0.29013 -0.13392 -0.29931
 C403 C 0.30522 -0.14165 -0.35816
 C404 C 0.34214 -0.13210 -0.35638
 C405 C 0.36386 -0.11410 -0.29828
 C406 C 0.37335 -0.08528 -0.18348
 C407 C 0.39713 -0.06878 -0.14064
 H408 H 0.30039 -0.10916 -0.19651
 H409 H 0.26176 -0.14094 -0.29959
 H410 H 0.35433 -0.13820 -0.40047
 H411 H 0.39241 -0.10654 -0.29866
 C412 C 0.55077 -0.08765 0.26197
 C413 C 0.53840 -0.12555 0.25892
 C414 C 0.54311 -0.14373 0.31658
 C415 C 0.56007 -0.12426 0.37838
 C416 C 0.57431 -0.08576 0.37937
 C417 C 0.56957 -0.06762 0.32164
 C418 C 0.53958 -0.07069 0.20867
 C419 C 0.52750 -0.05779 0.16679
 H420 H 0.52343 -0.14144 0.21339
 H421 H 0.53143 -0.17342 0.31438
 H422 H 0.58787 -0.06992 0.42586
 H423 H 0.57907 -0.03833 0.32487
 C424 C 0.36602 0.46821 0.24393
 C425 C 0.32920 0.43998 0.24406
 C426 C 0.30656 0.43594 0.30142
 C427 C 0.32071 0.45997 0.35915
 C428 C 0.35735 0.48884 0.35721
 C429 C 0.37974 0.49287 0.30017
 C430 C 0.39071 0.47274 0.18753
 C431 C 0.41441 0.48029 0.14442
 H432 H 0.31821 0.42084 0.20063
 H433 H 0.27846 0.41338 0.30187
 H434 H 0.36883 0.50805 0.40046
 H435 H 0.40806 0.51504 0.30041
 C436 C 1.10080 0.63381 0.27850
 C437 C 1.09992 0.61855 0.34484
 C438 C 1.11457 0.64134 0.40344
 C439 C 1.13034 0.67991 0.39683
 C440 C 1.13172 0.69517 0.32973
 C441 C 1.11694 0.67223 0.27096
 C442 C 1.08463 0.60944 0.21926
 C443 C 1.07033 0.58700 0.17295
 H444 H 1.08771 0.58891 0.35139
 H445 H 1.11370 0.62875 0.45397
 H446 H 1.14353 0.72474 0.32305
 H447 H 1.11784 0.68441 0.21993
 C448 C 0.43513 0.11198 0.22697
 C449 C 0.45460 0.15045 0.23489
 C450 C 0.45109 0.16622 0.29689
 C451 C 0.42845 0.14356 0.35185
 C452 C 0.40699 0.10523 0.34125
 C453 C 0.41036 0.08955 0.27920
 C454 C 0.44537 0.09501 0.17300
 C455 C 0.45560 0.07965 0.13365
 H456 H 0.47423 0.16804 0.19530
 H457 H 0.46819 0.19578 0.30408
 H458 H 0.38921 0.08722 0.38269
 H459 H 0.39544 0.05973 0.27403
 C460 C 0.67694 0.57613 0.21938
 C461 C 0.67730 0.59896 0.27313
 C462 C 0.69670 0.60288 0.33518
 C463 C 0.71585 0.58382 0.34430
 C464 C 0.71771 0.56332 0.28782
 C465 C 0.69818 0.55934 0.22586
 C466 C 0.64979 0.56469 0.16484
 C467 C 0.62435 0.55312 0.12467
 H468 H 0.66069 0.61182 0.26900
 H469 H 0.69504 0.61908 0.37759
 H470 H 0.73187 0.54798 0.29364
 H471 H 0.69773 0.54121 0.18506
 C472 C 0.90252 0.33113 0.24798
 C473 C 0.92481 0.32829 0.29927
 C474 C 0.90918 0.30603 0.35907
 C475 C 0.87097 0.28640 0.36862
 C476 C 0.84871 0.28772 0.31484
 C477 C 0.86441 0.31007 0.25510
 C478 C 0.91879 0.35925 0.19379
 C479 C 0.93288 0.38482 0.15252
 H480 H 0.95434 0.34461 0.29469
 H481 H 0.92702 0.30533 0.39925
 H482 H 0.81925 0.27334 0.32099
 H483 H 0.84686 0.31232 0.21623
   
