data_POSCAR
  _audit_creation_date              2014-09-24
  _audit_creation_method            'ToBaCCo'
  _symmetry_space_group_name_H-M    'P1'
  _symmetry_Int_Tables_number       1
  _symmetry_cell_setting            triclinic
  loop_
  _symmetry_equiv_pos_as_xyz
 x,y,z
_cell_length_a 19.5080
_cell_length_b 19.4257
_cell_length_c 19.1723
_cell_angle_alpha 90.193600
_cell_angle_beta 89.970100
_cell_angle_gamma 118.897200
loop_
  _atom_site_label
  _atom_site_type_symbol
  _atom_site_fract_x
  _atom_site_fract_y
  _atom_site_fract_z
C1 C 0.04693 0.54594 -0.12114
 C2 C 0.04624 0.47591 -0.11918
 C3 C -0.02875 0.41960 -0.13754
 N4 N -0.07496 0.45226 -0.15181
 C5 C -0.02801 0.53002 -0.13986
 C6 C -0.05409 0.33874 -0.13109
 C7 C -0.03341 0.31615 -0.06847
 C8 C 0.00478 0.27242 -0.05985
 C9 C 0.03669 0.28973 0.00724
 C10 C 0.01557 0.34247 0.03639
 N11 N -0.02962 0.35470 -0.00886
 C12 C 0.04003 0.38325 0.10015
 C13 C 0.02423 0.44555 0.11736
 C14 C 0.01549 0.46388 0.18513
 C15 C 0.02324 0.53786 0.18449
 C16 C 0.03537 0.56248 0.11623
 N17 N 0.03618 0.50604 0.07437
 C18 C 0.05445 0.63997 0.09583
 C19 C 0.02703 0.65472 0.03281
 C20 C 0.04653 0.72713 0.00313
 C21 C 0.01078 0.71172 -0.06224
 C22 C -0.02811 0.63067 -0.06947
 N23 N -0.02107 0.59737 -0.01039
 C24 C -0.05329 0.58626 -0.13135
 H25 H 0.09550 0.60225 -0.10620
 H26 H 0.09423 0.46638 -0.10319
 H27 H -0.04605 0.53690 -0.00219
 H28 H 0.01583 0.23918 -0.09945
 H29 H 0.07471 0.26978 0.03006
 H30 H 0.00542 0.42689 0.22986
 H31 H 0.01957 0.57053 0.22840
 H32 H 0.01969 0.75471 -0.10193
 H33 H -0.05393 0.39174 -0.00152
 H34 H 0.08573 0.78462 0.02437
 C35 C 0.58088 0.35148 -0.09543
 C36 C 0.64965 0.42120 -0.09515
 C37 C 0.62973 0.47951 -0.08199
 N38 N 0.55179 0.44826 -0.07329
 C39 C 0.52174 0.37017 -0.08270
 C40 C 0.67884 0.56082 -0.09073
 C41 C 0.67425 0.61144 -0.03988
 C42 C 0.70551 0.69249 -0.04179
 C43 C 0.68406 0.71404 0.02050
 C44 C 0.64073 0.64538 0.05810
 N45 N 0.63693 0.58436 0.02162
 C46 C 0.60445 0.63731 0.12370
 C47 C 0.54612 0.56297 0.14814
 C48 C 0.52109 0.54765 0.21681
 C49 C 0.45266 0.47751 0.21680
 C50 C 0.43761 0.45190 0.14809
 N51 N 0.49519 0.50406 0.10615
 C52 C 0.36389 0.39237 0.12358
 C53 C 0.35602 0.35614 0.05768
 C54 C 0.28761 0.31218 0.02000
 C55 C 0.30908 0.29129 -0.04261
 C56 C 0.38999 0.32344 -0.04096
 N57 N 0.41691 0.36085 0.02088
 C58 C 0.44074 0.31994 -0.09237
 H59 H 0.57455 0.29398 -0.10646
 H60 H 0.70735 0.42868 -0.10590
 H61 H 0.47454 0.38594 0.03877
 H62 H 0.73869 0.73185 -0.08351
 H63 H 0.69757 0.77298 0.03569
 H64 H 0.54741 0.58528 0.26165
 H65 H 0.41568 0.45050 0.26161
 H66 H 0.26959 0.25799 -0.08435
 H67 H 0.61274 0.52664 0.03950
 H68 H 0.22884 0.29797 0.03531
 C69 C 0.46171 0.98269 0.18835
 C70 C 0.53538 0.99038 0.18946
 C71 C 0.55340 0.98074 0.12189
 N72 N 0.49293 0.96767 0.07870
 C73 C 0.43690 0.96919 0.12005
 C74 C 0.61580 0.96559 0.10497
 C75 C 0.65757 0.99188 0.04221
 C76 C 0.71338 0.97417 0.01519
 C77 C 0.73121 1.00620 -0.05159
 C78 C 0.68442 1.04066 -0.06236
 N79 N 0.64356 1.03508 -0.00412
 C80 C 0.66133 1.05669 -0.12674
 C81 C 0.58092 1.02848 -0.13608
 C82 C 0.52595 0.95344 -0.11631
 C83 C 0.45566 0.95174 -0.11786
 C84 C 0.47015 1.02614 -0.13783
 N85 N 0.54725 1.07371 -0.15078
 C86 C 0.41333 1.05069 -0.13038
 C87 C 0.36874 1.02588 -0.06887
 C88 C 0.28802 0.98663 -0.06217
 C89 C 0.27266 0.95291 0.00401
 C90 C 0.34478 0.97404 0.03472
 N91 N 0.40188 1.02096 -0.00892
 C92 C 0.35960 0.94910 0.09911
 H93 H 0.42941 0.98733 0.23194
 H94 H 0.57248 1.00137 0.23431
 H95 H 0.46211 1.04709 -0.00022
 H96 H 0.73526 0.93823 0.03916
 H97 H 0.76669 0.99696 -0.08995
 H98 H 0.53668 0.90654 -0.09883
 H99 H 0.40023 0.90296 -0.10183
 H100 H 0.21541 0.91413 0.02529
 H101 H 0.60370 1.05619 0.00125
 H102 H 0.24527 0.97641 -0.10243
 C103 C 0.95603 0.45601 0.37702
 C104 C 0.95752 0.52638 0.37905
 C105 C 1.03332 0.58229 0.36281
 N106 N 1.07936 0.54912 0.34974
 C107 C 1.03127 0.47132 0.36040
 C108 C 1.05906 0.66306 0.37077
 C109 C 1.03688 0.68480 0.43319
 C110 C 1.00088 0.73061 0.44230
 C111 C 0.96818 0.71326 0.50903
 C112 C 0.98709 0.65881 0.53754
 N113 N 1.03143 0.64528 0.49224
 C114 C 0.96183 0.61792 0.60085
 C115 C 0.97661 0.55500 0.61736
 C116 C 0.98654 0.53707 0.68479
 C117 C 0.97719 0.46244 0.68371
 C118 C 0.96268 0.43706 0.61553
 N119 N 0.96209 0.49363 0.57419
 C120 C 0.94218 0.35923 0.59464
 C121 C 0.97029 0.34446 0.53174
 C122 C 0.95161 0.27222 0.50164
 C123 C 0.98886 0.28795 0.43693
 C124 C 1.02771 0.36903 0.43037
 N125 N 1.01916 0.40195 0.48931
 C126 C 1.05519 0.41412 0.36919
 H127 H 0.90658 0.39981 0.39051
 H128 H 0.90946 0.53639 0.39382
 H129 H 1.04420 0.46239 0.49808
 H130 H 0.99187 0.76555 0.40327
 H131 H 0.93144 0.73473 0.53213
 H132 H 0.99860 0.57478 0.72959
 H133 H 0.98160 0.42996 0.72721
 H134 H 0.98117 0.24510 0.39721
 H135 H 1.05449 0.60715 0.49930
 H136 H 0.91232 0.21462 0.52222
 C137 C 0.47964 0.45258 0.71792
 C138 C 0.54834 0.52244 0.71794
 C139 C 0.56319 0.54760 0.64927
 N140 N 0.50528 0.49542 0.60731
 C141 C 0.45431 0.43693 0.64925
 C142 C 0.63688 0.60678 0.62472
 C143 C 0.64459 0.64269 0.55900
 C144 C 0.71288 0.68644 0.52128
 C145 C 0.69115 0.70711 0.45884
 C146 C 0.61035 0.67493 0.46076
 N147 N 0.58358 0.63787 0.52244
 C148 C 0.55973 0.67848 0.40971
 C149 C 0.47885 0.62849 0.41847
 C150 C 0.42008 0.64722 0.40458
 C151 C 0.35118 0.57761 0.40486
 C152 C 0.37078 0.51928 0.41885
 N153 N 0.44861 0.55052 0.42830
 C154 C 0.32172 0.43789 0.40982
 C155 C 0.32608 0.38752 0.46081
 C156 C 0.29471 0.30645 0.45883
 C157 C 0.31604 0.28524 0.52123
 C158 C 0.35945 0.35410 0.55898
 N159 N 0.36335 0.41492 0.52247
 C160 C 0.39577 0.36253 0.62472
 H161 H 0.45340 0.41523 0.76272
 H162 H 0.58559 0.54957 0.76272
 H163 H 0.38765 0.47276 0.54043
 H164 H 0.77172 0.70073 0.53646
 H165 H 0.73025 0.74033 0.41701
 H166 H 0.42667 0.70464 0.39307
 H167 H 0.29363 0.57018 0.39344
 H168 H 0.30243 0.22636 0.53637
 H169 H 0.52602 0.61307 0.54038
 H170 H 0.26153 0.26689 0.41699
 C171 C 0.46008 0.00833 0.68700
 C172 C 0.53461 0.01821 0.68654
 C173 C 0.56054 0.03375 0.61876
 N174 N 0.50433 0.03428 0.57696
 C175 C 0.44265 0.01882 0.61950
 C176 C 0.63833 0.05488 0.59858
 C177 C 0.65369 0.02816 0.53519
 C178 C 0.72592 0.04991 0.50445
 C179 C 0.71073 0.01399 0.43902
 C180 C 0.63000 -0.02737 0.43287
 N181 N 0.59684 -0.02154 0.49254
 C182 C 0.58520 -0.05326 0.37150
 C183 C 0.52770 -0.02986 0.36416
 C184 C 0.54157 0.04454 0.38380
 C185 C 0.47103 0.04200 0.38510
 C186 C 0.41653 -0.03358 0.36559
 N187 N 0.45079 -0.07829 0.35090
 C188 C 0.33579 -0.06103 0.37225
 C189 C 0.31244 -0.04114 0.43506
 C190 C 0.26916 -0.00243 0.44372
 C191 C 0.28670 0.03016 0.51065
 C192 C 0.33915 0.00899 0.53966
 N193 N 0.35088 -0.03704 0.49459
 C194 C 0.38053 0.03453 0.60288
 H195 H 0.42221 -0.00422 0.73152
 H196 H 0.56672 0.01342 0.73011
 H197 H 0.38826 -0.06089 0.50176
 H198 H 0.78303 0.09089 0.52483
 H199 H 0.75336 0.02442 0.39861
 H200 H 0.59684 0.09400 0.39947
 H201 H 0.45990 0.08906 0.40160
 H202 H 0.26734 0.06893 0.53330
 H203 H 0.53660 -0.04843 0.50148
 H204 H 0.23641 0.00889 0.40412
 O205 O 0.22495 0.34229 0.32823
 O206 O 0.09039 0.31935 0.17857
 O207 O 0.24242 0.32430 0.18903
 O208 O 0.10408 0.33964 0.31478
 O209 O 0.15052 0.46369 0.28408
 O210 O 0.29499 0.45153 0.17103
 O211 O 0.16135 0.44520 0.15396
 O212 O 0.28247 0.46809 0.30318
 Cu213 Cu 0.16033 0.31697 0.24760
 Cu214 Cu 0.22821 0.46763 0.22561
 C215 C 0.27370 0.41324 0.34409
 C216 C 0.10067 0.38009 0.14450
 C217 C 0.29525 0.38740 0.16156
 C218 C 0.10467 0.40528 0.32122
 O219 O 0.67238 0.75911 0.18950
 O220 O 0.65853 0.89732 0.31677
 O221 O 0.65469 0.77574 0.32890
 O222 O 0.67882 0.91295 0.18172
 O223 O 0.55362 0.84236 0.15583
 O224 O 0.52934 0.71875 0.30361
 O225 O 0.53509 0.85176 0.28564
 O226 O 0.54560 0.70657 0.17136
 Cu227 Cu 0.68051 0.84121 0.24904
 Cu228 Cu 0.53037 0.77399 0.22644
 C229 C 0.60938 0.70613 0.16191
 C230 C 0.59344 0.89721 0.32311
 C231 C 0.58399 0.72703 0.34444
 C232 C 0.61849 0.90362 0.14784
 O233 O 0.23987 0.90467 0.16605
 O234 O 0.10229 0.77625 0.30389
 O235 O 0.22266 0.89382 0.30525
 O236 O 0.09516 0.75727 0.16622
 O237 O 0.17250 0.70417 0.15845
 O238 O 0.29855 0.83999 0.29189
 O239 O 0.16026 0.70373 0.29373
 O240 O 0.29908 0.83248 0.16402
 Cu241 Cu 0.15851 0.84001 0.22896
 Cu242 Cu 0.23578 0.76310 0.22957
 C243 C 0.29508 0.89254 0.14430
 C244 C 0.10895 0.71680 0.32183
 C245 C 0.28335 0.88912 0.32210
 C246 C 0.11030 0.70502 0.14131
 O247 O 0.77533 0.65643 0.82841
 O248 O 0.91108 0.68139 0.67958
 O249 O 0.75872 0.67512 0.68961
 O250 O 0.89666 0.65961 0.81504
 O251 O 0.85168 0.53593 0.78287
 O252 O 0.70584 0.54772 0.67157
 O253 O 0.84010 0.55585 0.65317
 O254 O 0.71935 0.53048 0.80312
 Cu255 Cu 0.84052 0.68262 0.74839
 Cu256 Cu 0.77344 0.53196 0.72500
 C257 C 0.72725 0.58535 0.84400
 C258 C 0.90090 0.62098 0.64471
 C259 C 0.70559 0.61183 0.66237
 C260 C 0.89695 0.59436 0.82063
 O261 O 0.32758 0.24105 0.69020
 O262 O 0.34131 0.10223 0.81618
 O263 O 0.34645 0.22551 0.82993
 O264 O 0.31904 0.08745 0.68136
 O265 O 0.44403 0.15734 0.65480
 O266 O 0.47148 0.28003 0.80472
 O267 O 0.46421 0.14618 0.78438
 O268 O 0.45445 0.29348 0.67288
 Cu269 Cu 0.31925 0.15940 0.74989
 Cu270 Cu 0.46916 0.22500 0.72660
 C271 C 0.39072 0.29392 0.66304
 C272 C 0.40587 0.10111 0.82183
 C273 C 0.41746 0.27326 0.84576
 C274 C 0.37873 0.09664 0.64651
 O275 O 0.89614 0.22337 0.80286
 O276 O 0.76065 0.09956 0.66095
 O277 O 0.89998 0.23955 0.66119
 O278 O 0.76873 0.09681 0.79477
 O279 O 0.71079 0.16978 0.80410
 O280 O 0.82827 0.29921 0.66349
 O281 O 0.69699 0.16699 0.67114
 O282 O 0.84361 0.30076 0.79366
 Cu283 Cu 0.83993 0.15953 0.72655
 Cu284 Cu 0.76444 0.23937 0.73413
 C285 C 0.89340 0.28513 0.82086
 C286 C 0.70270 0.10986 0.64524
 C287 C 0.88708 0.29477 0.64090
 C288 C 0.71747 0.11084 0.82245
   
