data_POSCAR
  _audit_creation_date              2014-09-24
  _audit_creation_method            'ToBaCCo'
  _symmetry_space_group_name_H-M    'P1'
  _symmetry_Int_Tables_number       1
  _symmetry_cell_setting            triclinic
  loop_
  _symmetry_equiv_pos_as_xyz
 x,y,z
_cell_length_a 45.6455
_cell_length_b 45.4636
_cell_length_c 45.6093
_cell_angle_alpha 90.000200
_cell_angle_beta 89.908800
_cell_angle_gamma 90.102100
loop_
  _atom_site_label
  _atom_site_type_symbol
  _atom_site_fract_x
  _atom_site_fract_y
  _atom_site_fract_z
C1 C 0.60299 0.64502 0.62600
 N2 N 0.60282 0.62230 0.64534
 C3 C 0.62450 0.60181 0.64505
 N4 N 0.64610 0.60401 0.62456
 C5 C 0.64635 0.62640 0.60482
 N6 N 0.62487 0.64702 0.60589
 C7 C 0.89622 0.35261 0.12500
 N8 N 0.89617 0.37359 0.14636
 C9 C 0.87542 0.39504 0.14660
 N10 N 0.85466 0.39536 0.12534
 C11 C 0.85432 0.37466 0.10395
 N12 N 0.87515 0.35340 0.10390
 C13 C 0.39523 0.14708 -0.12474
 N14 N 0.39703 0.12540 -0.14513
 C15 C 0.37662 0.10366 -0.14613
 N16 N 0.35458 0.10346 -0.12608
 C17 C 0.35261 0.12489 -0.10540
 N18 N 0.37288 0.14683 -0.10503
 C19 C 0.10367 0.85351 0.37502
 N20 N 0.12623 0.85292 0.39450
 C21 C 0.14711 0.87424 0.39428
 N22 N 0.14573 0.89586 0.37383
 C23 C 0.12359 0.89679 0.35399
 N24 N 0.10239 0.87573 0.35504
 N25 N 0.09030 0.17209 0.11320
 N26 N 0.07900 0.16098 0.13733
 C27 C 0.05556 0.17713 0.14527
 C28 C 0.05186 0.19936 0.12486
 C29 C 0.07431 0.19544 0.10484
 H30 H 0.04174 0.17271 0.16405
 H31 H 0.07879 0.20871 0.08568
 Cu32 Cu 0.09530 0.12551 0.15473
 Cu33 Cu 0.12502 0.15580 0.09438
 Cu34 Cu 0.15544 0.09378 0.12636
 N35 N 0.11211 0.09033 0.17222
 N36 N 0.13612 0.07857 0.16141
 C37 C 0.14341 0.05492 0.17756
 C38 C 0.12269 0.05142 0.19944
 C39 C 0.10307 0.07422 0.19534
 H40 H 0.16205 0.04090 0.17331
 H41 H 0.08388 0.07883 0.20850
 N42 N 0.17164 0.11244 0.09083
 N43 N 0.16019 0.13615 0.07875
 C44 C 0.17625 0.14362 0.05507
 C45 C 0.19878 0.12353 0.05194
 C46 C 0.19514 0.10408 0.07502
 H47 H 0.17166 0.16208 0.04088
 H48 H 0.20878 0.08537 0.08007
 H49 H 0.11849 0.11291 0.10821
 H50 H 0.14213 0.13686 0.13164
 N51 N 0.40866 0.82643 0.61298
 N52 N 0.42216 0.83988 0.63464
 C53 C 0.44629 0.82449 0.64188
 C54 C 0.44778 0.80000 0.62397
 C55 C 0.42354 0.80191 0.60594
 H56 H 0.46120 0.83010 0.65942
 H57 H 0.41733 0.78668 0.58882
 Cu58 Cu 0.40532 0.87488 0.65230
 Cu59 Cu 0.37306 0.84188 0.59504
 Cu60 Cu 0.34355 0.90488 0.62615
 N61 N 0.38846 0.90975 0.67018
 N62 N 0.36383 0.92092 0.66028
 C63 C 0.35628 0.94410 0.67702
 C64 C 0.37739 0.94776 0.69848
 C65 C 0.39749 0.92556 0.69344
 H66 H 0.33708 0.95754 0.67358
 H67 H 0.41694 0.92101 0.70611
 N68 N 0.32648 0.88530 0.59156
 N69 N 0.33741 0.86107 0.57999
 C70 C 0.32113 0.85338 0.55657
 C71 C 0.29898 0.87384 0.55312
 C72 C 0.30311 0.89376 0.57571
 H73 H 0.32556 0.83476 0.54253
 H74 H 0.29006 0.91304 0.58024
 H75 H 0.37961 0.88538 0.60691
 H76 H 0.35746 0.86222 0.63256
 N77 N 0.91028 0.67320 0.38491
 N78 N 0.92354 0.65882 0.36369
 C79 C 0.94792 0.67364 0.35588
 C80 C 0.94980 0.69870 0.37298
 C81 C 0.92550 0.69780 0.39104
 H82 H 0.96301 0.66704 0.33882
 H83 H 0.91976 0.71352 0.40789
 Cu84 Cu 0.90638 0.62314 0.34754
 Cu85 Cu 0.87533 0.65806 0.40441
 Cu86 Cu 0.84559 0.59351 0.37681
 N87 N 0.88921 0.58744 0.33139
 N88 N 0.86506 0.57641 0.34271
 C89 C 0.85677 0.55288 0.32689
 C90 C 0.87677 0.54879 0.30441
 C91 C 0.89709 0.57119 0.30794
 H92 H 0.83747 0.53981 0.33135
 H93 H 0.91568 0.57578 0.29393
 N94 N 0.82925 0.61422 0.41115
 N95 N 0.84031 0.63907 0.42125
 C96 C 0.82427 0.64802 0.44436
 C97 C 0.80205 0.62785 0.44921
 C98 C 0.80591 0.60669 0.42770
 H99 H 0.82870 0.66763 0.45701
 H100 H 0.79245 0.58745 0.42411
 H101 H 0.88200 0.61426 0.39415
 H102 H 0.85896 0.63609 0.36823
 N103 N 0.59164 0.32660 -0.11517
 N104 N 0.57849 0.34055 -0.13671
 C105 C 0.55385 0.32593 -0.14392
 C106 C 0.55158 0.30142 -0.12611
 C107 C 0.57598 0.30246 -0.10820
 H108 H 0.53880 0.33239 -0.16102
 H109 H 0.58148 0.28722 -0.09087
 Cu110 Cu 0.59544 0.37594 -0.15358
 Cu111 Cu 0.62708 0.34172 -0.09644
 Cu112 Cu 0.65666 0.40554 -0.12590
 N113 N 0.61241 0.41136 -0.17046
 N114 N 0.63683 0.42233 -0.15980
 C115 C 0.64502 0.44562 -0.17603
 C116 C 0.62460 0.44964 -0.19803
 C117 C 0.60411 0.42752 -0.19380
 H118 H 0.66445 0.45865 -0.17216
 H119 H 0.58518 0.42300 -0.20730
 N120 N 0.67346 0.38535 -0.09169
 N121 N 0.66262 0.36081 -0.08064
 C122 C 0.67892 0.35280 -0.05733
 C123 C 0.70095 0.37345 -0.05344
 C124 C 0.69678 0.39367 -0.07570
 H125 H 0.67461 0.33382 -0.04370
 H126 H 0.70981 0.41306 -0.07996
 H127 H 0.62028 0.38524 -0.10740
 H128 H 0.64287 0.36282 -0.13321
 C129 C -0.03874 0.28702 0.12311
 C130 C -0.05918 0.28876 0.10029
 C131 C -0.08087 0.31026 0.10111
 C132 C -0.08224 0.33045 0.12448
 C133 C -0.06140 0.32767 0.14709
 N134 N -0.04065 0.30623 0.14592
 C135 C -0.01541 0.26456 0.12291
 N136 N -0.00676 0.25213 0.14863
 C137 C 0.01443 0.23116 0.14977
 C138 C 0.02861 0.22196 0.12403
 C139 C 0.02030 0.23482 0.09736
 C140 C -0.00175 0.25598 0.09669
 H141 H -0.09638 0.31109 0.08319
 H142 H -0.06157 0.34235 0.16577
 H143 H 0.02042 0.22199 0.17081
 H144 H 0.03056 0.22830 0.07697
 H145 H -0.05869 0.27340 0.08217
 H146 H -0.00770 0.26583 0.07594
 C147 C 0.53515 0.70947 0.62670
 C148 C 0.52917 0.68098 0.63692
 C149 C 0.55143 0.66000 0.63710
 C150 C 0.57945 0.66724 0.62667
 C151 C 0.58456 0.69605 0.61678
 N152 N 0.56264 0.71625 0.61728
 C153 C 0.51222 0.73221 0.62602
 N154 N 0.51913 0.76039 0.63339
 C155 C 0.49888 0.78230 0.63316
 C156 C 0.46996 0.77643 0.62451
 C157 C 0.46256 0.74765 0.61631
 C158 C 0.48355 0.72543 0.61729
 H159 H 0.54661 0.63803 0.64493
 H160 H 0.60598 0.70257 0.60889
 H161 H 0.50549 0.80432 0.63931
 H162 H 0.44048 0.74223 0.60952
 H163 H 0.50762 0.67512 0.64501
 H164 H 0.47757 0.70332 0.61080
 C165 C 1.03971 0.78681 0.37456
 C166 C 1.06463 0.78356 0.39209
 C167 C 1.08555 0.80595 0.39279
 C168 C 1.08216 0.83127 0.37533
 C169 C 1.05669 0.83346 0.35803
 N170 N 1.03627 0.81165 0.35835
 C171 C 1.01703 0.76383 0.37373
 N172 N 0.98851 0.77127 0.37819
 C173 C 0.96671 0.75083 0.37818
 C174 C 0.97314 0.72114 0.37274
 C175 C 1.00232 0.71314 0.36753
 C176 C 1.02440 0.73439 0.36838
 H177 H 1.10459 0.80306 0.40662
 H178 H 1.05274 0.85258 0.34447
 H179 H 0.94439 0.75779 0.38213
 H180 H 1.00811 0.69043 0.36344
 H181 H 1.06764 0.76408 0.40542
 H182 H 1.04695 0.72802 0.36458
 C183 C 0.46001 0.21480 -0.12427
 C184 C 0.43165 0.22106 -0.11413
 C185 C 0.41056 0.19881 -0.11374
 C186 C 0.41752 0.17062 -0.12405
 C187 C 0.44616 0.16528 -0.13394
 N188 N 0.46651 0.18713 -0.13354
 C189 C 0.48302 0.23755 -0.12479
 N190 N 0.51090 0.23024 -0.11718
 C191 C 0.53305 0.25029 -0.11716
 C192 C 0.52776 0.27943 -0.12577
 C193 C 0.49927 0.28727 -0.13411
 C194 C 0.47681 0.26645 -0.13347
 H195 H 0.38873 0.20376 -0.10583
 H196 H 0.45246 0.14369 -0.14170
 H197 H 0.55479 0.24334 -0.11081
 H198 H 0.49426 0.30957 -0.14074
 H199 H 0.42601 0.24279 -0.10624
 H200 H 0.45495 0.27276 -0.14015
 C201 C 0.12222 -0.03758 0.28891
 C202 C 0.14659 -0.04010 0.30734
 C203 C 0.14680 -0.06148 0.32922
 C204 C 0.12304 -0.08102 0.33248
 C205 C 0.09910 -0.07780 0.31328
 N206 N 0.09921 -0.05634 0.29248
 C207 C 0.12156 -0.01498 0.26566
 N208 N 0.14714 -0.00539 0.25358
 C209 C 0.14794 0.01544 0.23224
 C210 C 0.12192 0.02834 0.22224
 C211 C 0.09528 0.01889 0.23444
 C212 C 0.09499 -0.00300 0.25594
 H213 H 0.16588 -0.06289 0.34323
 H214 H 0.08018 -0.09211 0.31483
 H215 H 0.16895 0.02224 0.22353
 H216 H 0.07471 0.02815 0.22714
 H217 H 0.16520 -0.02545 0.30508
 H218 H 0.07431 -0.01012 0.26523
 C219 C 0.62650 0.53569 -0.29038
 C220 C 0.64959 0.53792 -0.31057
 C221 C 0.64868 0.55943 -0.33234
 C222 C 0.62494 0.57909 -0.33397
 C223 C 0.60199 0.57562 -0.31353
 N224 N 0.60330 0.55427 -0.29270
 C225 C 0.62675 0.51353 -0.26672
 N226 N 0.60102 0.50127 -0.25775
 C227 C 0.59978 0.48078 -0.23604
 C228 C 0.62546 0.47192 -0.22165
 C229 C 0.65212 0.48474 -0.23019
 C230 C 0.65288 0.50540 -0.25277
 H231 H 0.66685 0.56083 -0.34757
 H232 H 0.58299 0.58983 -0.31394
 H233 H 0.57871 0.47178 -0.22981
 H234 H 0.67245 0.47862 -0.21967
 H235 H 0.66803 0.52301 -0.30978
 H236 H 0.67363 0.51524 -0.25884
 C237 C 0.38032 1.03719 0.78760
 C238 C 0.40418 1.05635 0.79130
 C239 C 0.40301 1.07805 0.81289
 C240 C 0.37823 1.08061 0.83098
 C241 C 0.35479 1.06106 0.82646
 N242 N 0.35633 1.04029 0.80508
 C243 C 0.38036 1.01412 0.76479
 N244 N 0.35456 1.00604 0.75218
 C245 C 0.35305 0.98507 0.73096
 C246 C 0.37854 0.97058 0.72158
 C247 C 0.40527 0.97825 0.73466
 C248 C 0.40629 1.00001 0.75616
 H249 H 0.42151 1.09278 0.81536
 H250 H 0.33515 1.06240 0.83971
 H251 H 0.33192 0.97956 0.72174
 H252 H 0.42546 0.96770 0.72808
 H253 H 0.42331 1.05504 0.77733
 H254 H 0.42710 1.00534 0.76619
 C255 C 0.87397 0.46090 0.21356
 C256 C 0.84922 0.45646 0.19591
 C257 C 0.84983 0.43506 0.17410
 C258 C 0.87498 0.41785 0.16977
 C259 C 0.89942 0.42316 0.18770
 N260 N 0.89838 0.44438 0.20874
 C261 C 0.87410 0.48332 0.23705
 N262 N 0.89954 0.49741 0.24390
 C263 C 0.90093 0.51843 0.26512
 C264 C 0.87577 0.52605 0.28115
 C265 C 0.84946 0.51141 0.27471
 C266 C 0.84853 0.49015 0.25273
 H267 H 0.83050 0.43190 0.16072
 H268 H 0.91938 0.41066 0.18485
 H269 H 0.92177 0.52884 0.26963
 H270 H 0.82948 0.51649 0.28644
 H271 H 0.82969 0.46967 0.19856
 H272 H 0.82806 0.47890 0.24845
 C273 C 0.28621 0.12150 -0.03916
 C274 C 0.29178 0.09654 -0.05639
 C275 C 0.31311 0.09779 -0.07828
 C276 C 0.32913 0.12376 -0.08297
 C277 C 0.32266 0.14834 -0.06547
 N278 N 0.30156 0.14666 -0.04443
 C279 C 0.26384 0.12122 -0.01567
 N280 N 0.24925 0.14649 -0.00916
 C281 C 0.22840 0.14775 0.01214
 C282 C 0.22147 0.12261 0.02869
 C283 C 0.23660 0.09647 0.02262
 C284 C 0.25769 0.09566 0.00047
 H285 H 0.31727 0.07831 -0.09128
 H286 H 0.33429 0.16889 -0.06848
 H287 H 0.21755 0.16847 0.01628
 H288 H 0.23198 0.07653 0.03473
 H289 H 0.27955 0.07635 -0.05333
 H290 H 0.26934 0.07535 -0.00355
 C291 C 0.71290 0.63033 0.53871
 C292 C 0.69548 0.65516 0.54419
 C293 C 0.67382 0.65392 0.56578
 C294 C 0.66950 0.62807 0.58207
 C295 C 0.68728 0.60366 0.57576
 N296 N 0.70808 0.60533 0.55443
 C297 C 0.73594 0.63048 0.51585
 N298 N 0.74261 0.60498 0.50170
 C299 C 0.76341 0.60360 0.48035
 C300 C 0.77920 0.62891 0.47233
 C301 C 0.77296 0.65531 0.48699
 C302 C 0.75142 0.65620 0.50869
 H303 H 0.66049 0.67321 0.56969
 H304 H 0.68445 0.58315 0.58747
 H305 H 0.76776 0.58267 0.46998
 H306 H 0.78451 0.67540 0.48163
 H307 H 0.69808 0.67517 0.53159
 H308 H 0.74735 0.67670 0.52002
 C309 C 0.78841 0.37673 0.03740
 C310 C 0.79315 0.40162 0.05499
 C311 C 0.81456 0.40087 0.07672
 C312 C 0.83146 0.37547 0.08097
 C313 C 0.82589 0.35094 0.06306
 N314 N 0.80468 0.35212 0.04215
 C315 C 0.76594 0.37658 0.01406
 N316 N 0.75212 0.35093 0.00712
 C317 C 0.73123 0.34937 -0.01410
 C318 C 0.72348 0.37459 -0.03009
 C319 C 0.73778 0.40113 -0.02349
 C320 C 0.75890 0.40223 -0.00149
 H321 H 0.81796 0.42026 0.09009
 H322 H 0.83817 0.33079 0.06581
 H323 H 0.72102 0.32838 -0.01864
 H324 H 0.73254 0.42118 -0.03510
 H325 H 0.78018 0.42135 0.05237
 H326 H 0.76990 0.42287 0.00287
 C327 C 0.21279 0.87645 0.46106
 C328 C 0.20805 0.90137 0.44355
 C329 C 0.18702 0.90041 0.42144
 C330 C 0.17048 0.87478 0.41678
 C331 C 0.17619 0.85017 0.43448
 N332 N 0.19701 0.85156 0.45576
 C333 C 0.23472 0.87653 0.48491
 N334 N 0.24863 0.85104 0.49198
 C335 C 0.26915 0.84965 0.51354
 C336 C 0.27646 0.87489 0.52975
 C337 C 0.26192 0.90124 0.52318
 C338 C 0.24117 0.90218 0.50080
 H339 H 0.18346 0.91991 0.40830
 H340 H 0.16414 0.82987 0.43147
 H341 H 0.27947 0.82875 0.51812
 H342 H 0.26676 0.92126 0.53507
 H343 H 0.22064 0.92133 0.44659
 H344 H 0.23003 0.92269 0.49635
   
