data_POSCAR
  _audit_creation_date              2014-09-24
  _audit_creation_method            'ToBaCCo'
  _symmetry_space_group_name_H-M    'P1'
  _symmetry_Int_Tables_number       1
  _symmetry_cell_setting            triclinic
  loop_
  _symmetry_equiv_pos_as_xyz
 x,y,z
_cell_length_a 32.8091
_cell_length_b 32.7975
_cell_length_c 32.7998
_cell_angle_alpha 89.961700
_cell_angle_beta 90.018900
_cell_angle_gamma 90.021400
loop_
  _atom_site_label
  _atom_site_type_symbol
  _atom_site_fract_x
  _atom_site_fract_y
  _atom_site_fract_z
O1 O 0.39679 0.34262 -0.04031
 O2 O 0.34184 0.39727 0.04071
 O3 O 0.39777 0.34170 0.03916
 O4 O 0.34072 0.39858 -0.03869
 O5 O 0.29364 0.35046 -0.03987
 O6 O 0.34998 0.29422 0.03980
 O7 O 0.29321 0.35064 0.03914
 O8 O 0.35022 0.29394 -0.03923
 Cu9 Cu 0.37405 0.37482 0.00016
 Cu10 Cu 0.31697 0.31749 -0.00005
 C11 C 0.38320 0.30870 -0.05309
 C12 C 0.30793 0.38353 0.05330
 C13 C 0.38364 0.30834 0.05277
 C14 C 0.30742 0.38443 -0.05249
 O15 O 0.65813 0.60306 0.04024
 O16 O 0.60323 0.65712 -0.04130
 O17 O 0.65928 0.60114 -0.03915
 O18 O 0.60235 0.65878 0.03814
 O19 O 0.65026 0.70616 0.03838
 O20 O 0.70639 0.64922 -0.04079
 O21 O 0.64985 0.70576 -0.04062
 O22 O 0.70686 0.64956 0.03824
 Cu23 Cu 0.62598 0.62526 -0.00052
 Cu24 Cu 0.68314 0.68249 -0.00125
 C25 C 0.69208 0.61682 0.05271
 C26 C 0.61684 0.69094 -0.05436
 C27 C 0.69257 0.61518 -0.05310
 C28 C 0.61656 0.69223 0.05144
 O29 O 0.60302 0.34307 1.04119
 O30 O 0.65800 0.39716 0.95971
 O31 O 0.60207 0.34158 0.96173
 O32 O 0.65906 0.39906 1.03909
 O33 O 0.70613 0.35097 1.04069
 O34 O 0.64987 0.29413 0.96152
 O35 O 0.70662 0.35058 0.96168
 O36 O 0.64959 0.29442 1.04052
 Cu37 Cu 0.62577 0.37499 1.00044
 Cu38 Cu 0.68285 0.31770 1.00115
 C39 C 0.61661 0.30926 1.05427
 C40 C 0.69191 0.38336 0.94724
 C41 C 0.61621 0.30813 0.94843
 C42 C 0.69234 0.38500 1.05302
 O43 O 0.39693 0.65748 1.04054
 O44 O 0.34184 0.60271 0.95957
 O45 O 0.39782 0.65831 0.96108
 O46 O 0.34090 0.60139 1.03899
 O47 O 0.29382 0.64947 1.04020
 O48 O 0.34999 0.70571 0.96041
 O49 O 0.29320 0.64927 0.96117
 O50 O 0.35035 0.70611 1.03943
 Cu51 Cu 0.37413 0.62520 1.00010
 Cu52 Cu 0.31704 0.68245 1.00032
 C53 C 0.38337 0.69142 1.05328
 C54 C 0.30790 0.61639 0.94701
 C55 C 0.38366 0.69165 0.94746
 C56 C 0.30762 0.61552 1.05281
 O57 O -0.04103 0.39676 0.34217
 O58 O 0.04039 0.34210 0.39664
 O59 O 0.03839 0.39808 0.34096
 O60 O -0.03898 0.34065 0.39811
 O61 O -0.04017 0.29359 0.35000
 O62 O 0.03914 0.35020 0.29360
 O63 O 0.03881 0.29343 0.35009
 O64 O -0.03985 0.35024 0.29348
 Cu65 Cu -0.00035 0.37416 0.37424
 Cu66 Cu -0.00053 0.31707 0.31697
 C67 C -0.05383 0.38316 0.30827
 C68 C 0.05301 0.30819 0.38294
 C69 C 0.05196 0.38398 0.30759
 C70 C -0.05272 0.30731 0.38399
 O71 O 0.04052 0.65764 0.60323
 O72 O -0.04094 0.60301 0.65769
 O73 O -0.03885 0.65900 0.60163
 O74 O 0.03849 0.60172 0.65896
 O75 O 0.03920 0.64965 0.70627
 O76 O -0.04007 0.70613 0.64966
 O77 O -0.03977 0.64961 0.70631
 O78 O 0.03892 0.70637 0.64971
 Cu79 Cu -0.00023 0.62557 0.62562
 Cu80 Cu -0.00044 0.68274 0.68280
 C81 C 0.05314 0.69157 0.61690
 C82 C -0.05374 0.61666 0.69156
 C83 C -0.05260 0.69235 0.61568
 C84 C 0.05202 0.61587 0.69234
 O85 O 1.04085 0.60319 0.34239
 O86 O 0.95948 0.65766 0.39704
 O87 O 0.96142 0.60188 0.34125
 O88 O 1.03883 0.65888 0.39866
 O89 O 1.04010 0.70616 0.35071
 O90 O 0.96071 0.64998 0.29405
 O91 O 0.96114 0.70654 0.35066
 O92 O 1.03969 0.64994 0.29386
 Cu93 Cu 1.00018 0.62561 0.37459
 Cu94 Cu 1.00042 0.68297 0.31752
 C95 C 1.05365 0.61695 0.30854
 C96 C 0.94692 0.69166 0.38344
 C97 C 0.94786 0.61617 0.30794
 C98 C 1.05262 0.69226 0.38466
 O99 O 0.95924 0.34204 0.60279
 O100 O 1.04060 0.39658 0.65760
 O101 O 1.03861 0.34088 0.60127
 O102 O 0.96115 0.39784 0.65863
 O103 O 0.96041 0.34974 0.70582
 O104 O 1.03984 0.29359 0.64921
 O105 O 1.03941 0.34980 0.70610
 O106 O 0.96087 0.29316 0.64916
 Cu107 Cu 0.99994 0.37413 0.62533
 Cu108 Cu 1.00013 0.31676 0.68237
 C109 C 0.94668 0.30802 0.61634
 C110 C 1.05338 0.38281 0.69147
 C111 C 1.05238 0.30749 0.61527
 C112 C 0.94758 0.38356 0.69194
 O113 O 0.39740 0.03966 0.34253
 O114 O 0.34158 -0.04067 0.39731
 O115 O 0.39755 -0.03981 0.34168
 O116 O 0.34121 0.03881 0.39829
 O117 O 0.29370 0.03948 0.35054
 O118 O 0.35026 -0.03934 0.29369
 O119 O 0.29349 -0.03955 0.35013
 O120 O 0.35043 0.03965 0.29424
 Cu121 Cu 0.37419 -0.00051 0.37474
 Cu122 Cu 0.31717 0.00009 0.31733
 C123 C 0.38367 0.05302 0.30889
 C124 C 0.30789 -0.05350 0.38326
 C125 C 0.38364 -0.05280 0.30798
 C126 C 0.30779 0.05236 0.38423
 O127 O 0.65897 -0.03858 0.60196
 O128 O 0.60256 0.03997 0.65851
 O129 O 0.65833 0.04098 0.60271
 O130 O 0.60268 -0.03950 0.65758
 O131 O 0.64959 -0.03930 0.70594
 O132 O 0.70663 0.03966 0.64967
 O133 O 0.64999 0.03973 0.70635
 O134 O 0.70641 -0.03929 0.64980
 Cu135 Cu 0.62588 0.00072 0.62539
 Cu136 Cu 0.68294 0.00020 0.68277
 C137 C 0.69234 -0.05218 0.61611
 C138 C 0.61655 0.05307 0.69212
 C139 C 0.69214 0.05368 0.61660
 C140 C 0.61639 -0.05278 0.69126
 O141 O 0.39716 0.96038 0.65770
 O142 O 0.34138 1.04065 0.60282
 O143 O 0.39737 1.03985 0.65843
 O144 O 0.34113 0.96118 0.60182
 O145 O 0.29359 0.96045 0.64952
 O146 O 0.35002 1.03945 0.70633
 O147 O 0.29323 1.03946 0.64991
 O148 O 0.35020 0.96045 0.70598
 Cu149 Cu 0.37402 1.00053 0.62541
 Cu150 Cu 0.31696 0.99992 0.68275
 C151 C 0.38342 0.94706 0.69135
 C152 C 0.30766 1.05343 0.61680
 C153 C 0.38341 1.05291 0.69206
 C154 C 0.30772 0.94758 0.61585
 O155 O 0.65976 1.03881 0.39848
 O156 O 0.60303 0.96077 0.34146
 O157 O 0.65874 0.95947 0.39739
 O158 O 0.60334 1.04026 0.34282
 O159 O 0.65015 1.04005 0.29440
 O160 O 0.70706 0.96082 0.35048
 O161 O 0.65052 0.96102 0.29370
 O162 O 0.70704 1.03991 0.35058
 Cu163 Cu 0.62646 0.99983 0.37480
 Cu164 Cu 0.68348 1.00048 0.31748
 C165 C 0.69316 1.05253 0.38446
 C166 C 0.61702 0.94770 0.30784
 C167 C 0.69251 0.94673 0.38351
 C168 C 0.61700 1.05356 0.30913
 C169 C 0.83482 0.78111 0.47881
 C170 C 0.83552 0.78151 0.52216
 C171 C 0.80891 0.80802 0.54280
 C172 C 0.78227 0.83434 0.52196
 C173 C 0.78199 0.83392 0.47865
 C174 C 0.80827 0.80734 0.45798
 H175 H 0.80853 0.80753 0.42489
 H176 H 0.80922 0.80859 0.57585
 C177 C 0.16506 0.21871 0.47852
 C178 C 0.16443 0.21862 0.52187
 C179 C 0.19118 0.19239 0.54269
 C180 C 0.21784 0.16609 0.52202
 C181 C 0.21788 0.16575 0.47872
 C182 C 0.19155 0.19226 0.45787
 H183 H 0.19119 0.19195 0.42479
 H184 H 0.19097 0.19195 0.57575
 C185 C 0.16532 0.78102 0.52142
 C186 C 0.16472 0.78111 0.47807
 C187 C 0.19147 0.80735 0.45728
 C188 C 0.21809 0.83370 0.47796
 C189 C 0.21811 0.83403 0.52126
 C190 C 0.19179 0.80749 0.54209
 H191 H 0.19142 0.80781 0.57517
 H192 H 0.19128 0.80778 0.42421
 C193 C 0.83480 0.21830 0.52070
 C194 C 0.83551 0.21783 0.47736
 C195 C 0.80898 0.19118 0.45671
 C196 C 0.78242 0.16466 0.47750
 C197 C 0.78202 0.16544 0.52084
 C198 C 0.80822 0.19210 0.54151
 H199 H 0.80840 0.19199 0.57460
 H200 H 0.80934 0.19075 0.42367
 C201 C 0.47827 0.83348 0.78027
 C202 C 0.52157 0.83332 0.78005
 C203 C 0.54231 0.80665 0.80630
 C204 C 0.52156 0.78028 0.83287
 C205 C 0.47826 0.78063 0.83336
 C206 C 0.45752 0.80714 0.80689
 H207 H 0.42446 0.80773 0.80742
 H208 H 0.57538 0.80688 0.80657
 C209 C 0.47850 0.16674 0.22004
 C210 C 0.52180 0.16706 0.22030
 C211 C 0.54248 0.19376 0.19401
 C212 C 0.52166 0.22002 0.16740
 C213 C 0.47836 0.21957 0.16692
 C214 C 0.45769 0.19303 0.19341
 H215 H 0.42463 0.19237 0.19287
 H216 H 0.57555 0.19361 0.19374
 C217 C 0.52161 0.16563 0.78207
 C218 C 0.47830 0.16579 0.78185
 C219 C 0.45755 0.19239 0.80813
 C220 C 0.47831 0.21879 0.83462
 C221 C 0.52161 0.21847 0.83506
 C222 C 0.54236 0.19194 0.80868
 H223 H 0.57541 0.19140 0.80920
 H224 H 0.42448 0.19215 0.80839
 C225 C 0.52207 0.83513 0.21760
 C226 C 0.47876 0.83481 0.21791
 C227 C 0.45801 0.80816 0.19166
 C228 C 0.47875 0.78178 0.16516
 C229 C 0.52205 0.78221 0.16463
 C230 C 0.54281 0.80886 0.19094
 H231 H 0.57586 0.80947 0.19038
 H232 H 0.42493 0.80831 0.19147
 C233 C 0.78139 0.47822 0.83457
 C234 C 0.78139 0.52158 0.83497
 C235 C 0.80754 0.54231 0.80807
 C236 C 0.83388 0.52156 0.78150
 C237 C 0.83432 0.47825 0.78173
 C238 C 0.80787 0.45749 0.80820
 H239 H 0.80824 0.42441 0.80874
 H240 H 0.80790 0.57537 0.80810
 C241 C 0.21849 0.47889 0.16542
 C242 C 0.21856 0.52224 0.16501
 C243 C 0.19241 0.54297 0.19186
 C244 C 0.16601 0.52221 0.21841
 C245 C 0.16548 0.47890 0.21817
 C246 C 0.19194 0.45815 0.19176
 H247 H 0.19152 0.42507 0.19123
 H248 H 0.19210 0.57604 0.19181
 C249 C 0.78137 0.52180 0.16541
 C250 C 0.78128 0.47845 0.16501
 C251 C 0.80739 0.45767 0.19190
 C252 C 0.83380 0.47837 0.21845
 C253 C 0.83432 0.52168 0.21823
 C254 C 0.80790 0.54249 0.19179
 H255 H 0.80834 0.57557 0.19127
 H256 H 0.80769 0.42460 0.19186
 C257 C 0.21824 0.52098 0.83491
 C258 C 0.21825 0.47763 0.83534
 C259 C 0.19206 0.45688 0.80849
 C260 C 0.16570 0.47762 0.78187
 C261 C 0.16525 0.52094 0.78208
 C262 C 0.19171 0.54170 0.80853
 H263 H 0.19131 0.57478 0.80903
 H264 H 0.19172 0.42381 0.80856
 N265 N 0.24386 0.40383 0.08578
 C266 C 0.28507 0.40662 0.08389
 N267 N 0.30461 0.43243 0.10965
 N268 N 0.28359 0.45506 0.13600
 C269 C 0.24225 0.45369 0.13664
 N270 N 0.22284 0.42694 0.11170
 N271 N 0.69533 0.56824 0.10940
 C272 C 0.71490 0.59391 0.08351
 N273 N 0.75612 0.59666 0.08542
 N274 N 0.77711 0.57363 0.11149
 C275 C 0.75765 0.54702 0.13656
 N276 N 0.71631 0.54570 0.13590
 N277 N 0.75599 0.40345 0.91459
 C278 C 0.71478 0.40624 0.91646
 N279 N 0.69526 0.43191 0.89052
 N280 N 0.71628 0.45441 0.86403
 C281 C 0.75762 0.45305 0.86341
 N282 N 0.77703 0.42644 0.88852
 N283 N 0.30446 0.56746 0.89065
 C284 C 0.28498 0.59326 0.91643
 N285 N 0.24376 0.59605 0.91456
 N286 N 0.22269 0.57294 0.88865
 C287 C 0.24206 0.54620 0.86369
 N288 N 0.28340 0.54484 0.86431
 N289 N 0.10923 0.30487 0.43204
 C290 C 0.08364 0.28535 0.40604
 N291 N 0.08568 0.24414 0.40314
 N292 N 0.11157 0.22310 0.42630
 C293 C 0.13634 0.24250 0.45322
 N294 N 0.13556 0.28384 0.45472
 N295 N 0.10941 0.69487 0.56788
 C296 C 0.08380 0.71440 0.59381
 N297 N 0.08585 0.75562 0.59669
 N298 N 0.11178 0.77664 0.57355
 C299 C 0.13657 0.75724 0.54669
 N300 N 0.13577 0.71589 0.54522
 N301 N 0.91439 0.75570 0.40373
 C302 C 0.91633 0.71447 0.40658
 N303 N 0.89064 0.69493 0.43247
 N304 N 0.86430 0.71595 0.45510
 C305 C 0.86360 0.75731 0.45366
 N306 N 0.88848 0.77672 0.42685
 N307 N 0.91425 0.24391 0.59596
 C308 C 0.91615 0.28514 0.59311
 N309 N 0.89049 0.30462 0.56714
 N310 N 0.86421 0.28354 0.54444
 C311 C 0.86356 0.24218 0.54590
 N312 N 0.88841 0.22282 0.57278
 N313 N 0.43750 0.10466 0.30497
 C314 C 0.40708 0.08372 0.28636
 N315 N 0.39967 0.09069 0.24625
 N316 N 0.42248 0.11703 0.22535
 C317 C 0.45360 0.13732 0.24370
 N318 N 0.45997 0.13128 0.28411
 N319 N 0.60050 0.08993 0.75522
 C320 C 0.59318 0.08349 0.71502
 N321 N 0.56282 0.10467 0.69659
 N322 N 0.54032 0.13101 0.71770
 C323 C 0.54657 0.13650 0.75819
 N324 N 0.57765 0.11599 0.77638
 N325 N 0.43689 0.89509 0.69521
 C326 C 0.40679 0.91636 0.71391
 N327 N 0.39968 0.90974 0.75413
 N328 N 0.42249 0.88342 0.77505
 C329 C 0.45332 0.86282 0.75660
 N330 N 0.45936 0.86849 0.71609
 N331 N 0.56288 0.89651 0.30308
 C332 C 0.59360 0.91734 0.28485
 N333 N 0.60129 0.91054 0.24477
 N334 N 0.57845 0.88447 0.22355
 C335 C 0.54703 0.86430 0.24154
 N336 N 0.54039 0.87017 0.28191
 N337 N 0.40075 0.24518 0.91166
 C338 C 0.40651 0.28588 0.91640
 N339 N 0.43531 0.30480 0.89352
 N340 N 0.45786 0.28367 0.86720
 C341 C 0.45328 0.24273 0.86355
 N342 N 0.42368 0.22402 0.88569
 N343 N 0.56481 0.69452 0.89210
 C344 C 0.59351 0.71359 0.91497
 N345 N 0.59912 0.75430 0.91013
 N346 N 0.57613 0.77533 0.88405
 C347 C 0.54663 0.75647 0.86192
 N348 N 0.54222 0.71551 0.86567
 N349 N 0.40114 0.75510 0.08817
 C350 C 0.40675 0.71436 0.08370
 N351 N 0.43547 0.69550 0.10674
 N352 N 0.45808 0.71673 0.13295
 C353 C 0.45367 0.75772 0.13632
 N354 N 0.42415 0.77636 0.11403
 N355 N 0.59904 0.24596 0.08998
 C356 C 0.59333 0.28663 0.08499
 N357 N 0.56464 0.30571 0.10784
 N358 N 0.54214 0.28475 0.13437
 C359 C 0.54665 0.24381 0.13826
 N360 N 0.57614 0.22496 0.11615
 N361 N 0.30386 0.10776 0.56570
 C362 C 0.28479 0.08412 0.59378
 N363 N 0.24397 0.08824 0.59897
 N364 N 0.22284 0.11433 0.57608
 C365 C 0.24172 0.13719 0.54713
 N366 N 0.28277 0.13420 0.54323
 N367 N 0.75176 0.09499 0.39397
 C368 C 0.71491 0.08125 0.40690
 N369 N 0.69996 0.09537 0.44276
 N370 N 0.72116 0.12191 0.46496
 C371 C 0.75831 0.13517 0.45267
 N372 N 0.77298 0.12143 0.41640
 N373 N 0.69759 0.89829 0.56052
 C374 C 0.71516 0.91731 0.59274
 N375 N 0.75446 0.90850 0.60214
 N376 N 0.77561 0.88215 0.57960
 C377 C 0.75833 0.86368 0.54677
 N378 N 0.71869 0.87172 0.53827
 N379 N 0.24424 0.91145 0.40089
 C380 C 0.28503 0.91576 0.40625
 N381 N 0.30407 0.89230 0.43450
 N382 N 0.28299 0.86583 0.45696
 C383 C 0.24197 0.86264 0.45287
 N384 N 0.22312 0.88533 0.42377
 N385 N 0.08827 0.40044 0.75520
 C386 C 0.08398 0.40596 0.71442
 N387 N 0.10736 0.43438 0.69552
 N388 N 0.13371 0.45683 0.71676
 C389 C 0.13687 0.45256 0.75779
 N390 N 0.11426 0.42330 0.77647
 N391 N 0.08844 0.59920 0.24485
 C392 C 0.08427 0.59384 0.28567
 N393 N 0.10778 0.56560 0.30466
 N394 N 0.13415 0.54316 0.28348
 C395 C 0.13718 0.54726 0.24243
 N396 N 0.11445 0.57635 0.22364
 N397 N 0.89215 0.43463 0.30455
 C398 C 0.91556 0.40639 0.28548
 N399 N 0.91132 0.40120 0.24466
 N400 N 0.88533 0.42418 0.22352
 C401 C 0.86268 0.45325 0.24239
 N402 N 0.86579 0.45720 0.28344
 N403 N 0.91146 0.59867 0.75520
 C404 C 0.91565 0.59344 0.71438
 N405 N 0.89218 0.56520 0.69535
 N406 N 0.86583 0.54265 0.71648
 C407 C 0.86276 0.54664 0.75753
 N408 N 0.88547 0.57572 0.77637
 N409 N 0.75090 0.60556 0.90413
 C410 C 0.71423 0.59257 0.91827
 N411 N 0.69935 0.55648 0.90460
 N412 N 0.72044 0.53414 0.87812
 C413 C 0.75741 0.54653 0.86445
 N414 N 0.77201 0.58301 0.87774
 N415 N 0.24894 0.39384 0.90481
 C416 C 0.28569 0.40685 0.91874
 N417 N 0.30057 0.44284 0.90477
 N418 N 0.27940 0.46508 0.87824
 C419 C 0.24234 0.45271 0.86480
 N420 N 0.22775 0.41630 0.87835
 N421 N 0.24920 0.60606 0.09556
 C422 C 0.28593 0.59308 0.08160
 N423 N 0.30082 0.55709 0.09555
 N424 N 0.27968 0.53483 0.12209
 C425 C 0.24264 0.54718 0.13555
 N426 N 0.22804 0.58358 0.12201
 N427 N 0.69917 0.44363 0.09539
 C428 C 0.71403 0.40757 0.08167
 N429 N 0.75071 0.39457 0.09576
 N430 N 0.77185 0.41710 0.12217
 C431 C 0.75727 0.45355 0.13552
 N432 N 0.72029 0.46594 0.12189
 N433 N 0.90487 0.75090 0.60606
 C434 C 0.91875 0.71411 0.59314
 N435 N 0.90484 0.69920 0.55717
 N436 N 0.87837 0.72037 0.53485
 C437 C 0.86496 0.75746 0.54713
 N438 N 0.87849 0.77209 0.58351
 N439 N 0.90468 0.30033 0.44244
 C440 C 0.91864 0.28548 0.40647
 N441 N 0.90481 0.24866 0.39352
 N442 N 0.87846 0.22739 0.41603
 C443 C 0.86489 0.24198 0.45240
 N444 N 0.87824 0.27909 0.46472
 N445 N 0.09495 0.24901 0.60563
 C446 C 0.08104 0.28581 0.59272
 N447 N 0.09494 0.30079 0.55675
 N448 N 0.12143 0.27969 0.53444
 C449 C 0.13488 0.24259 0.54674
 N450 N 0.12135 0.22789 0.58310
 N451 N 0.09521 0.69893 0.44316
 C452 C 0.08129 0.71393 0.40721
 N453 N 0.09521 0.75074 0.39431
 N454 N 0.12163 0.77186 0.41684
 C455 C 0.13517 0.75714 0.45320
 N456 N 0.12173 0.72004 0.46547
 N457 N 0.60043 0.90941 0.75389
 C458 C 0.59302 0.91643 0.71379
 N459 N 0.56264 0.89545 0.69515
 N460 N 0.54019 0.86877 0.71597
 C461 C 0.54655 0.86269 0.75638
 N462 N 0.57765 0.88300 0.77476
 N463 N 0.43708 0.89524 0.30357
 C464 C 0.40703 0.91679 0.28504
 N465 N 0.40004 0.91072 0.24472
 N466 N 0.42294 0.88470 0.22354
 C467 C 0.45374 0.86385 0.24184
 N468 N 0.45962 0.86893 0.28245
 N469 N 0.60073 0.09109 0.24643
 C470 C 0.59359 0.08432 0.28662
 N471 N 0.56337 0.10543 0.30532
 N472 N 0.54081 0.13200 0.28448
 C473 C 0.54688 0.13780 0.24399
 N474 N 0.57783 0.11737 0.22554
 N475 N 0.43704 0.10467 0.69645
 C476 C 0.40675 0.08342 0.71492
 N477 N 0.39945 0.08992 0.75512
 N478 N 0.42229 0.11607 0.77623
 C479 C 0.45331 0.13663 0.75799
 N480 N 0.45952 0.13111 0.71751
 N481 N 0.56109 0.69750 0.10103
 C482 C 0.59316 0.71517 0.08185
 N483 N 0.60231 0.75461 0.09041
 N484 N 0.57965 0.77575 0.11668
 C485 C 0.54694 0.75834 0.13529
 N486 N 0.53873 0.71859 0.12750
 N487 N 0.43904 0.30368 0.10256
 C488 C 0.40708 0.28572 0.08344
 N489 N 0.39810 0.24631 0.09232
 N490 N 0.42081 0.22546 0.11882
 C491 C 0.45340 0.24315 0.13737
 N492 N 0.46145 0.28288 0.12927
 N493 N 0.56096 0.30311 0.89856
 C494 C 0.59280 0.28527 0.91797
 N495 N 0.60169 0.24575 0.90959
 N496 N 0.57899 0.22468 0.88328
 C497 C 0.54651 0.24226 0.86444
 N498 N 0.53857 0.28209 0.87203
 N499 N 0.43916 0.69647 0.89782
 C500 C 0.40708 0.71430 0.91680
 N501 N 0.39795 0.75365 0.90781
 N502 N 0.42063 0.77456 0.88133
 C503 C 0.45334 0.75699 0.86292
 N504 N 0.46155 0.71732 0.87114
 N505 N 0.69620 0.89270 0.43498
 C506 C 0.71531 0.91599 0.40662
 N507 N 0.75608 0.91154 0.40131
 N508 N 0.77712 0.88545 0.42431
 C509 C 0.75820 0.86294 0.45351
 N510 N 0.71720 0.86627 0.45757
 N511 N 0.24572 0.90801 0.60174
 C512 C 0.28497 0.91708 0.59235
 N513 N 0.30255 0.89833 0.55999
 N514 N 0.28153 0.87178 0.53761
 C515 C 0.24196 0.86345 0.54612
 N516 N 0.22466 0.88166 0.57908
 N517 N 0.30241 0.10143 0.44026
 C518 C 0.28497 0.08282 0.40773
 N519 N 0.24578 0.09198 0.39814
 N520 N 0.22466 0.11829 0.42076
 C521 C 0.24182 0.13637 0.45388
 N522 N 0.28133 0.12794 0.46260
 N523 N 0.75633 0.08618 0.59640
 C524 C 0.71512 0.08423 0.59345
 N525 N 0.69570 0.10982 0.56735
 N526 N 0.71680 0.13606 0.54463
 C527 C 0.75814 0.13676 0.54616
 N528 N 0.77744 0.11200 0.57318
 N529 N 0.90820 0.60229 0.24589
 C530 C 0.91739 0.59273 0.28509
 N531 N 0.89877 0.56022 0.30260
 N532 N 0.87223 0.53785 0.28157
 C533 C 0.86377 0.54653 0.24206
 N534 N 0.88185 0.57964 0.22482
 N535 N 0.90794 0.39746 0.75398
 C536 C 0.91715 0.40703 0.71479
 N537 N 0.89862 0.43961 0.69733
 N538 N 0.87216 0.46202 0.71837
 C539 C 0.86368 0.45333 0.75788
 N540 N 0.88167 0.42015 0.77508
 N541 N 0.10112 0.55992 0.69762
 C542 C 0.08241 0.59231 0.71520
 N543 N 0.09143 0.60163 0.75448
 N544 N 0.11769 0.57887 0.77557
 C545 C 0.13585 0.54587 0.75826
 N546 N 0.12758 0.53745 0.71865
 N547 N 0.09167 0.39811 0.24563
 C548 C 0.08239 0.40756 0.28482
 N549 N 0.10091 0.44010 0.30237
 N550 N 0.12744 0.46256 0.28142
 C551 C 0.13600 0.45397 0.24192
 N552 N 0.11801 0.42085 0.22463
   
