data_POSCAR
  _audit_creation_date              2014-09-24
  _audit_creation_method            'ToBaCCo'
  _symmetry_space_group_name_H-M    'P1'
  _symmetry_Int_Tables_number       1
  _symmetry_cell_setting            triclinic
  loop_
  _symmetry_equiv_pos_as_xyz
 x,y,z
_cell_length_a 39.0251
_cell_length_b 39.1949
_cell_length_c 45.8713
_cell_angle_alpha 89.111700
_cell_angle_beta 90.020200
_cell_angle_gamma 114.986200
loop_
  _atom_site_label
  _atom_site_type_symbol
  _atom_site_fract_x
  _atom_site_fract_y
  _atom_site_fract_z
C1 C 0.00224 0.51764 1.32516
 C2 C 0.03532 0.54180 1.31008
 C3 C 0.03465 0.54259 1.27941
 C4 C 0.00339 0.51686 1.26389
 C5 C -0.02797 0.49108 1.27982
 C6 C -0.02979 0.49245 1.31027
 C7 C 0.00342 0.51613 1.23123
 C8 C -0.03088 0.50340 1.21569
 C9 C -0.03153 0.49958 1.18538
 C10 C 0.00268 0.51145 1.16999
 C11 C 0.03730 0.52530 1.18476
 C12 C 0.03743 0.52711 1.21528
 H13 H 0.00150 0.51827 1.34853
 H14 H 0.05904 0.56280 1.26771
 H15 H -0.05162 0.47001 1.26852
 H16 H -0.05745 0.49590 1.22704
 H17 H 0.00224 0.51103 1.14641
 H18 H 0.06421 0.53643 1.22643
 C19 C 0.52040 0.52575 1.32619
 C20 C 0.49593 0.53658 1.30990
 C21 C 0.49428 0.53153 1.27957
 C22 C 0.51941 0.51990 1.26508
 C23 C 0.54474 0.51089 1.28212
 C24 C 0.54395 0.51149 1.31274
 C25 C 0.51905 0.51697 1.23239
 C26 C 0.53166 0.49237 1.21854
 C27 C 0.53225 0.49013 1.18803
 C28 C 0.51815 0.51142 1.17102
 C29 C 0.50446 0.53532 1.18424
 C30 C 0.50629 0.53894 1.21464
 H31 H 0.52051 0.52788 1.34947
 H32 H 0.47362 0.53738 1.26733
 H33 H 0.56485 0.50260 1.27172
 H34 H 0.54099 0.47447 1.23127
 H35 H 0.51930 0.51082 1.14749
 H36 H 0.49765 0.55912 1.22424
 C37 C 0.50115 1.00205 1.33396
 C38 C 0.49361 0.96818 1.31991
 C39 C 0.49827 0.96842 1.28970
 C40 C 0.50615 1.00128 1.27275
 C41 C 0.51200 1.03475 1.28737
 C42 C 0.51169 1.03600 1.31799
 C43 C 0.50765 1.00040 1.24006
 C44 C 0.52766 1.03345 1.22327
 C45 C 0.52803 1.03271 1.19269
 C46 C 0.50913 0.99823 1.17864
 C47 C 0.48976 0.96493 1.19484
 C48 C 0.48860 0.96632 1.22523
 H49 H 0.49846 1.00126 1.35735
 H50 H 0.49492 0.94244 1.27967
 H51 H 0.51730 1.06029 1.27511
 H52 H 0.54357 1.06004 1.23367
 H53 H 0.50930 0.99716 1.15512
 H54 H 0.47178 0.94049 1.23698
 C55 C 0.99959 0.48397 0.66874
 C56 C 0.96635 0.47562 0.68491
 C57 C 0.96825 0.47757 0.71539
 C58 C 1.00242 0.48549 0.73012
 C59 C 1.03516 0.49272 0.71338
 C60 C 1.03431 0.49256 0.68275
 C61 C 1.00397 0.48614 0.76278
 C62 C 1.03770 0.50869 0.77726
 C63 C 1.03978 0.50878 0.80777
 C64 C 1.00723 0.48714 0.82418
 C65 C 0.97297 0.46541 0.81036
 C66 C 0.97187 0.46407 0.77982
 H67 H 0.99849 0.48563 0.64528
 H68 H 0.94280 0.47288 0.72748
 H69 H 1.06156 0.49784 0.72409
 H70 H 1.06266 0.52668 0.76499
 H71 H 1.00880 0.48592 0.84769
 H72 H 0.94578 0.44563 0.76954
 C73 C 0.51582 0.51211 0.67781
 C74 C 0.52326 0.48429 0.69225
 C75 C 0.51430 0.47685 0.72185
 C76 C 0.49936 0.49798 0.73784
 C77 C 0.49240 0.52616 0.72279
 C78 C 0.49904 0.53225 0.69267
 C79 C 0.49108 0.49039 0.76988
 C80 C 0.46509 0.50099 0.78416
 C81 C 0.45886 0.49538 0.81428
 C82 C 0.47585 0.47580 0.83002
 C83 C 0.50127 0.46434 0.81637
 C84 C 0.50945 0.47263 0.78668
 H85 H 0.52403 0.51860 0.65517
 H86 H 0.51864 0.45390 0.73194
 H87 H 0.48158 0.54354 0.73414
 H88 H 0.44986 0.51417 0.77229
 H89 H 0.46857 0.46909 0.85279
 H90 H 0.53078 0.46546 0.77710
 C91 C 0.47485 -0.00419 0.66995
 C92 C 0.48876 0.03123 0.68290
 C93 C 0.48882 0.03359 0.71331
 C94 C 0.47904 0.00121 0.73123
 C95 C 0.46722 -0.03407 0.71758
 C96 C 0.46293 -0.03736 0.68711
 C97 C 0.48125 0.00431 0.76390
 C98 C 0.45846 -0.02630 0.78205
 C99 C 0.46101 -0.02439 0.81266
 C100 C 0.48531 0.00998 0.82522
 C101 C 0.50758 0.04116 0.80769
 C102 C 0.50592 0.03794 0.77728
 H103 H 0.47432 -0.00542 0.64643
 H104 H 0.49728 0.06106 0.72272
 H105 H 0.46057 -0.05937 0.73056
 H106 H 0.43829 -0.05197 0.77245
 H107 H 0.48609 0.01360 0.84850
 H108 H 0.52446 0.06190 0.76430
 O109 O 0.38584 0.67940 0.96691
 O110 O 0.38523 0.74410 0.97925
 C111 C 0.36374 0.75330 0.96331
 O112 O 0.32794 0.73700 0.96499
 O113 O 0.26315 0.67763 0.97021
 C114 C 0.25855 0.64915 0.95528
 O115 O 0.27630 0.62912 0.96016
 O116 O 0.33853 0.62182 0.97089
 C117 C 0.36904 0.64544 0.95912
 O118 O 0.38145 0.66101 1.02393
 O119 O 0.37728 0.72402 1.03626
 C120 C 0.35981 0.74668 1.04086
 O121 O 0.33170 0.74369 1.02311
 O122 O 0.26929 0.68180 1.02842
 C123 C 0.25251 0.64643 1.03254
 O124 O 0.25960 0.62287 1.01778
 O125 O 0.32248 0.61693 1.02851
 C126 C 0.35695 0.63112 1.03569
 Cr127 Cr 0.38030 0.70124 1.00141
 Cr128 Cr 0.29909 0.70875 0.99671
 Cr129 Cr 0.30026 0.62480 0.99445
 O130 O 0.32653 0.67822 0.99774
 O131 O 0.62186 0.32353 0.96716
 O132 O 0.62931 0.26005 0.96869
 C133 C 0.65581 0.25756 0.95414
 O134 O 0.69033 0.27529 0.96058
 O135 O 0.74815 0.33738 0.97421
 C136 C 0.75084 0.36901 0.96456
 O137 O 0.73011 0.38443 0.97340
 O138 O 0.66239 0.37998 0.98271
 C139 C 0.63584 0.35924 0.96625
 O140 O 0.61473 0.32112 1.02553
 O141 O 0.62615 0.25988 1.02738
 C142 C 0.64830 0.24401 1.03099
 O143 O 0.67935 0.25379 1.01721
 O144 O 0.73614 0.31651 1.03104
 C145 C 0.74813 0.34957 1.04074
 O146 O 0.73783 0.37408 1.03067
 O147 O 0.66895 0.36710 1.03975
 C148 C 0.63361 0.34772 1.04247
 Cr149 Cr 0.62521 0.29227 0.99729
 Cr150 Cr 0.71212 0.29677 0.99592
 Cr151 Cr 0.69901 0.37419 1.00637
 O152 O 0.67885 0.32109 0.99984
 O153 O 0.65234 0.37502 0.53075
 O154 O 0.71773 0.37260 0.53908
 C155 C 0.73849 0.35505 0.54116
 O156 O 0.73667 0.32966 0.52361
 O157 O 0.67593 0.26649 0.52862
 C158 C 0.64062 0.24830 0.53272
 O159 O 0.61607 0.25509 0.51857
 O160 O 0.60889 0.31559 0.53317
 C161 C 0.62295 0.34910 0.54198
 O162 O 0.66729 0.38511 0.47306
 O163 O 0.73384 0.38576 0.48192
 C164 C 0.74465 0.36624 0.46342
 O165 O 0.72751 0.32831 0.46537
 O166 O 0.66907 0.26325 0.47036
 C167 C 0.64016 0.25962 0.45583
 O168 O 0.61994 0.27670 0.46191
 O169 O 0.61068 0.33618 0.47680
 C170 C 0.63286 0.36783 0.46586
 Cr171 Cr 0.69186 0.37747 0.50597
 Cr172 Cr 0.70109 0.29800 0.49712
 Cr173 Cr 0.61605 0.29698 0.49767
 O174 O 0.66973 0.32429 0.50004
 O175 O 0.33924 0.61349 0.52503
 O176 O 0.27018 0.60743 0.52985
 C177 C 0.24837 0.62281 0.53623
 O178 O 0.25088 0.65348 0.52466
 O179 O 0.30587 0.71786 0.53744
 C180 C 0.33943 0.73569 0.54624
 O181 O 0.36757 0.73273 0.53472
 O182 O 0.37749 0.67102 0.53975
 C183 C 0.36436 0.63548 0.54185
 O184 O 0.33666 0.62339 0.46698
 O185 O 0.26666 0.61399 0.47183
 C186 C 0.25582 0.63660 0.45924
 O187 O 0.26586 0.67025 0.46717
 O188 O 0.32030 0.73495 0.48028
 C189 C 0.35325 0.74584 0.46943
 O190 O 0.37606 0.73183 0.47656
 O191 O 0.38881 0.67192 0.48167
 C192 C 0.37163 0.64480 0.46466
 Cr193 Cr 0.30396 0.61682 0.49862
 Cr194 Cr 0.28718 0.69314 0.50241
 Cr195 Cr 0.37524 0.70060 0.50799
 O196 O 0.32207 0.67025 0.50307
 C197 C 0.47250 0.55128 0.32329
 C198 C 0.47875 0.56594 0.35152
 C199 C 0.45330 0.57826 0.36781
 C200 C 0.46761 0.59969 0.39282
 C201 C 0.44449 0.60976 0.41051
 C202 C 0.40625 0.59886 0.40356
 C203 C 0.39171 0.57730 0.37855
 C204 C 0.41502 0.56714 0.36072
 C205 C 0.38086 0.60788 0.42297
 C206 C 0.39464 0.63818 0.44197
 H207 H 0.50499 0.57076 0.36230
 H208 H 0.49679 0.60811 0.39911
 H209 H 0.45660 0.62501 0.43014
 H210 H 0.36221 0.56804 0.37296
 H211 H 0.40272 0.54979 0.34204
 H212 H 0.35078 0.59007 0.42250
 H213 H 0.44997 0.55326 0.31063
 H214 H 0.42413 0.65782 0.44086
 C215 C 0.48066 0.93221 0.33657
 C216 C 0.45757 0.92550 0.36124
 C217 C 0.44302 0.89034 0.37897
 C218 C 0.41360 0.88424 0.39881
 C219 C 0.39951 0.85225 0.41683
 C220 C 0.41452 0.82541 0.41532
 C221 C 0.44432 0.83169 0.39576
 C222 C 0.45846 0.86380 0.37766
 C223 C 0.40096 0.79178 0.43480
 C224 C 0.36525 0.77691 0.44793
 H225 H 0.44800 0.94666 0.36728
 H226 H 0.40161 0.90453 0.40061
 H227 H 0.37758 0.84932 0.43236
 H228 H 0.45678 0.81173 0.39455
 H229 H 0.48186 0.86797 0.36326
 H230 H 0.41960 0.77812 0.43872
 H231 H 0.48672 0.90988 0.32781
 H232 H 0.34520 0.78840 0.44257
 C233 C 0.06895 0.56468 0.32473
 C234 C 0.07564 0.55906 0.35409
 C235 C 0.11127 0.58073 0.36973
 C236 C 0.11941 0.56357 0.39414
 C237 C 0.15167 0.58278 0.41057
 C238 C 0.17674 0.61989 0.40307
 C239 C 0.16840 0.63757 0.37898
 C240 C 0.13602 0.61804 0.36221
 C241 C 0.21046 0.64046 0.42119
 C242 C 0.22908 0.62133 0.43517
 H243 H 0.05553 0.53496 0.36600
 H244 H 0.10055 0.53508 0.40070
 H245 H 0.15638 0.56872 0.42962
 H246 H 0.18698 0.66639 0.37310
 H247 H 0.13002 0.63241 0.34395
 H248 H 0.21982 0.67039 0.42428
 H249 H 0.09196 0.58550 0.31213
 H250 H 0.22146 0.59221 0.42978
 C251 C 0.56618 0.49729 0.32888
 C252 C 0.56171 0.48914 0.35894
 C253 C 0.58214 0.47112 0.37579
 C254 C 0.56553 0.45224 0.40188
 C255 C 0.58338 0.43504 0.41902
 C256 C 0.61850 0.43636 0.41054
 C257 C 0.63583 0.45614 0.38488
 C258 C 0.61770 0.47322 0.36746
 C259 C 0.63742 0.41800 0.42877
 C260 C 0.61645 0.38505 0.44465
 H261 H 0.53938 0.49220 0.37083
 H262 H 0.53846 0.45069 0.40908
 H263 H 0.56984 0.42124 0.43919
 H264 H 0.66321 0.45805 0.37820
 H265 H 0.63181 0.48846 0.34791
 H266 H 0.66802 0.43009 0.42928
 H267 H 0.58567 0.48943 0.31703
 H268 H 0.58613 0.37108 0.44163
 C269 C 0.52247 0.07110 0.33150
 C270 C 0.53038 0.07686 0.36127
 C271 C 0.54670 0.11431 0.37464
 C272 C 0.56940 0.11914 0.39928
 C273 C 0.58532 0.15366 0.41307
 C274 C 0.57867 0.18420 0.40265
 C275 C 0.55515 0.17928 0.37844
 C276 C 0.53949 0.14462 0.36429
 C277 C 0.59442 0.22030 0.41811
 C278 C 0.62909 0.23239 0.43222
 H279 H 0.52924 0.05403 0.37526
 H280 H 0.57492 0.09607 0.40790
 H281 H 0.60210 0.15604 0.43238
 H282 H 0.54906 0.20226 0.37044
 H283 H 0.52122 0.14139 0.34580
 H284 H 0.57756 0.23616 0.41990
 H285 H 0.52809 0.09562 0.31774
 H286 H 0.64703 0.21807 0.42823
 C287 C 0.93659 0.46829 0.32478
 C288 C 0.92817 0.47247 0.35381
 C289 C 0.89270 0.44740 0.36873
 C290 C 0.87972 0.46206 0.39169
 C291 C 0.84745 0.43925 0.40746
 C292 C 0.82757 0.40088 0.40089
 C293 C 0.84049 0.38611 0.37786
 C294 C 0.87277 0.40919 0.36180
 C295 C 0.79437 0.37599 0.41851
 C296 C 0.77972 0.39110 0.43964
 H297 H 0.94627 0.49701 0.36574
 H298 H 0.89472 0.49134 0.39755
 H299 H 0.83858 0.45170 0.42515
 H300 H 0.82585 0.35663 0.37250
 H301 H 0.88260 0.39684 0.34462
 H302 H 0.78213 0.34580 0.41542
 H303 H 0.91485 0.44672 0.31224
 H304 H 0.76243 0.37652 0.45028
 C305 C 0.55022 0.46738 1.17468
 C306 C 0.54287 0.45371 1.14632
 C307 C 0.56427 0.43518 1.13169
 C308 C 0.54768 0.41164 1.10810
 C309 C 0.56780 0.39563 1.09247
 C310 C 0.60525 0.40306 1.09997
 C311 C 0.62194 0.42676 1.12349
 C312 C 0.60166 0.44253 1.13932
 C313 C 0.62831 0.38901 1.08227
 C314 C 0.61232 0.35697 1.06517
 H315 H 0.51987 0.45579 1.13440
 H316 H 0.51917 0.40602 1.10146
 H317 H 0.55432 0.37863 1.07387
 H318 H 0.65093 0.43348 1.12940
 H319 H 0.61584 0.46146 1.15679
 H320 H 0.65873 0.40506 1.08206
 H321 H 0.56972 0.46088 1.18794
 H322 H 0.58229 0.33932 1.06680
 C323 C 0.93178 0.48321 1.17009
 C324 C 0.92650 0.46083 1.14559
 C325 C 0.89042 0.44318 1.12962
 C326 C 0.88444 0.41231 1.11194
 C327 C 0.85176 0.39599 1.09519
 C328 C 0.82435 0.41044 1.09565
 C329 C 0.83032 0.44136 1.11332
 C330 C 0.86294 0.45754 1.13025
 C331 C 0.79105 0.39604 1.07627
 C332 C 0.77656 0.36030 1.06402
 H333 H 0.94952 0.45432 1.13851
 H334 H 0.90541 0.40103 1.11078
 H335 H 0.84887 0.37302 1.08118
 H336 H 0.80992 0.45339 1.11370
 H337 H 0.86702 0.48193 1.14300
 H338 H 0.77787 0.41476 1.07096
 H339 H 0.90788 0.48606 1.17981
 H340 H 0.78718 0.34002 1.07079
 C341 C 0.54660 0.06860 1.17597
 C342 C 0.55923 0.07045 1.14725
 C343 C 0.57259 0.10492 1.12869
 C344 C 0.59399 0.10676 1.10367
 C345 C 0.60542 0.13777 1.08462
 C346 C 0.59559 0.16772 1.09019
 C347 C 0.57375 0.16568 1.11500
 C348 C 0.56241 0.13467 1.13415
 C349 C 0.60642 0.20053 1.07002
 C350 C 0.63796 0.21214 1.05167
 H351 H 0.56005 0.04563 1.13786
 H352 H 0.60157 0.08390 1.09866
 H353 H 0.62104 0.13760 1.06520
 H354 H 0.56532 0.18811 1.11952
 H355 H 0.54486 0.13374 1.15265
 H356 H 0.58986 0.21682 1.07038
 H357 H 0.55061 0.09432 1.18684
 H358 H 0.65655 0.19807 1.05285
 C359 C 0.48922 0.55778 1.16668
 C360 C 0.46916 0.54446 1.14094
 C361 C 0.45237 0.56571 1.12356
 C362 C 0.42126 0.54584 1.10573
 C363 C 0.40535 0.56494 1.08833
 C364 C 0.42055 0.60449 1.08818
 C365 C 0.45197 0.62440 1.10574
 C366 C 0.46763 0.60527 1.12340
 C367 C 0.40605 0.62576 1.06858
 C368 C 0.36914 0.61103 1.05789
 H369 H 0.46336 0.51620 1.13417
 H370 H 0.40931 0.51538 1.10516
 H371 H 0.38192 0.54865 1.07441
 H372 H 0.46459 0.65489 1.10566
 H373 H 0.49226 0.62157 1.13622
 H374 H 0.42522 0.65434 1.06250
 H375 H 0.49094 0.58384 1.17564
 H376 H 0.34864 0.58379 1.06559
 C377 C 0.07366 0.53959 1.16861
 C378 C 0.07699 0.52669 1.14101
 C379 C 0.11111 0.54418 1.12234
 C380 C 0.13763 0.58172 1.12568
 C381 C 0.16796 0.59809 1.10613
 C382 C 0.17218 0.57729 1.08278
 C383 C 0.14613 0.53963 1.07991
 C384 C 0.11575 0.52337 1.09931
 C385 C 0.20323 0.59350 1.06113
 C386 C 0.22298 0.63205 1.05527
 H387 H 0.05354 0.50227 1.13263
 H388 H 0.13461 0.59891 1.14282
 H389 H 0.18795 0.62690 1.10951
 H390 H 0.14886 0.52292 1.06223
 H391 H 0.09561 0.49448 1.09616
 H392 H 0.20942 0.57395 1.04809
 H393 H 0.09842 0.56038 1.17900
 H394 H 0.21624 0.65222 1.06693
 C395 C 0.47164 0.92805 1.18062
 C396 C 0.45625 0.92395 1.15280
 C397 C 0.44085 0.88776 1.13752
 C398 C 0.41271 0.88132 1.11665
 C399 C 0.39898 0.84841 1.10053
 C400 C 0.41369 0.82147 1.10460
 C401 C 0.44175 0.82784 1.12561
 C402 C 0.45517 0.86064 1.14205
 C403 C 0.40168 0.78796 1.08602
 C404 C 0.37191 0.77968 1.06688
 H405 H 0.45393 0.94778 1.14222
 H406 H 0.40149 0.90196 1.11267
 H407 H 0.37752 0.84466 1.08436
 H408 H 0.45374 0.80770 1.12897
 H409 H 0.47759 0.86526 1.15751
 H410 H 0.41762 0.77101 1.08622
 H411 H 0.46914 0.90327 1.19289
 H412 H 0.36789 0.76281 1.05497
 C413 C 0.54178 0.46365 0.67704
 C414 C 0.53496 0.45406 0.64782
 C415 C 0.55593 0.43658 0.63176
 C416 C 0.53805 0.41213 0.60898
 C417 C 0.55790 0.39680 0.59237
 C418 C 0.59626 0.40631 0.59796
 C419 C 0.61425 0.43106 0.62057
 C420 C 0.59419 0.44581 0.63756
 C421 C 0.61864 0.39326 0.57901
 C422 C 0.60294 0.35858 0.56532
 H423 H 0.51263 0.45835 0.63658
 H424 H 0.50875 0.40511 0.60390
 H425 H 0.54358 0.37866 0.57450
 H426 H 0.64395 0.43921 0.62491
 H427 H 0.60897 0.46543 0.65451
 H428 H 0.64825 0.41171 0.57548
 H429 H 0.56015 0.45458 0.68946
 H430 H 0.57459 0.33838 0.57103
 C431 C 0.50382 0.06615 0.66487
 C432 C 0.52525 0.06929 0.63975
 C433 C 0.54243 0.10397 0.62159
 C434 C 0.57428 0.10980 0.60447
 C435 C 0.59056 0.14152 0.58619
 C436 C 0.57495 0.16789 0.58446
 C437 C 0.54283 0.16186 0.60134
 C438 C 0.52680 0.13034 0.61988
 C439 C 0.58999 0.20056 0.56406
 C440 C 0.62750 0.21719 0.55432
 H441 H 0.53178 0.04594 0.63409
 H442 H 0.58651 0.08960 0.60513
 H443 H 0.61460 0.14465 0.57286
 H444 H 0.52997 0.18151 0.60004
 H445 H 0.50165 0.12620 0.63217
 H446 H 0.57092 0.21263 0.55701
 H447 H 0.50132 0.09074 0.67310
 H448 H 0.64794 0.20796 0.56318
 C449 C 0.92941 0.46541 0.67038
 C450 C 0.92137 0.44764 0.64344
 C451 C 0.88483 0.43537 0.62799
 C452 C 0.87871 0.41136 0.60431
 C453 C 0.84527 0.39916 0.58852
 C454 C 0.81675 0.41047 0.59612
 C455 C 0.82307 0.43521 0.61940
 C456 C 0.85675 0.44751 0.63532
 C457 C 0.78135 0.39814 0.57908
 C458 C 0.76736 0.36447 0.56390
 H459 H 0.94247 0.44026 0.63357
 H460 H 0.90006 0.40209 0.59782
 H461 H 0.84238 0.38155 0.56991
 H462 H 0.80186 0.44494 0.62530
 H463 H 0.86074 0.46683 0.65291
 H464 H 0.76683 0.41634 0.57775
 H465 H 0.90745 0.46932 0.68226
 H466 H 0.78048 0.34523 0.56681
 C467 C 0.48763 0.55923 0.67709
 C468 C 0.47766 0.55493 0.64765
 C469 C 0.46170 0.57762 0.63125
 C470 C 0.44472 0.56394 0.60439
 C471 C 0.42841 0.58334 0.58805
 C472 C 0.42852 0.61702 0.59822
 C473 C 0.44672 0.63165 0.62456
 C474 C 0.46307 0.61204 0.64109
 C475 C 0.41056 0.63728 0.58107
 C476 C 0.37912 0.61768 0.56382
 H477 H 0.47856 0.53135 0.63627
 H478 H 0.44383 0.53788 0.59600
 H479 H 0.41611 0.57203 0.56723
 H480 H 0.44782 0.65796 0.63252
 H481 H 0.47683 0.62408 0.66128
 H482 H 0.42230 0.66771 0.58186
 H483 H 0.48325 0.58011 0.68975
 H484 H 0.36580 0.58720 0.56507
 C485 C 0.44747 0.92656 0.67467
 C486 C 0.43239 0.91955 0.64648
 C487 C 0.41700 0.88202 0.63296
 C488 C 0.38829 0.87353 0.61218
 C489 C 0.37530 0.83986 0.59692
 C490 C 0.39125 0.81415 0.60180
 C491 C 0.41984 0.82250 0.62273
 C492 C 0.43238 0.85597 0.63843
 C493 C 0.38125 0.78065 0.58332
 C494 C 0.34603 0.76256 0.57003
 H495 H 0.42874 0.94163 0.63432
 H496 H 0.37632 0.89338 0.60735
 H497 H 0.35402 0.83491 0.58038
 H498 H 0.43295 0.80339 0.62656
 H499 H 0.45515 0.86213 0.65385
 H500 H 0.40282 0.77070 0.57930
 H501 H 0.44444 0.90255 0.68823
 H502 H 0.32309 0.76969 0.57615
 C503 C 0.06844 0.50269 0.66720
 C504 C 0.07080 0.49726 0.63730
 C505 C 0.10688 0.51403 0.62090
 C506 C 0.13486 0.54984 0.62763
 C507 C 0.16707 0.56689 0.61000
 C508 C 0.17201 0.54829 0.58551
 C509 C 0.14477 0.51198 0.57944
 C510 C 0.11216 0.49526 0.59671
 C511 C 0.20474 0.56660 0.56565
 C512 C 0.21829 0.60467 0.55807
 H513 H 0.04597 0.47908 0.62546
 H514 H 0.13126 0.56527 0.64586
 H515 H 0.18797 0.59470 0.61542
 H516 H 0.14810 0.49712 0.56071
 H517 H 0.09085 0.46774 0.59104
 H518 H 0.21566 0.54913 0.55442
 H519 H 0.09472 0.51498 0.67917
 H520 H 0.20449 0.62118 0.56686
 C521 C 0.43551 0.51117 0.82934
 C522 C 0.44603 0.52738 0.85666
 C523 C 0.42601 0.54620 0.87233
 C524 C 0.44620 0.57367 0.89267
 C525 C 0.42816 0.59105 0.90903
 C526 C 0.38933 0.58097 0.90555
 C527 C 0.36897 0.55324 0.88537
 C528 C 0.38719 0.53615 0.86868
 C529 C 0.36915 0.59692 0.92426
 C530 C 0.38696 0.63261 0.93626
 H531 H 0.47196 0.52872 0.86623
 H532 H 0.47604 0.58150 0.89611
 H533 H 0.44447 0.61138 0.92507
 H534 H 0.33889 0.54461 0.88270
 H535 H 0.37064 0.51437 0.85369
 H536 H 0.33952 0.57982 0.92901
 H537 H 0.41275 0.51395 0.81756
 H538 H 0.41534 0.65138 0.92939
 C539 C 0.07680 0.52995 0.82182
 C540 C 0.08021 0.54303 0.85028
 C541 C 0.11672 0.56057 0.86569
 C542 C 0.11971 0.58410 0.88917
 C543 C 0.15289 0.59950 0.90540
 C544 C 0.18385 0.59147 0.89857
 C545 C 0.18076 0.56759 0.87528
 C546 C 0.14760 0.55241 0.85884
 C547 C 0.21836 0.60557 0.91667
 C548 C 0.22982 0.63875 0.93231
 H549 H 0.05522 0.54144 0.86159
 H550 H 0.09610 0.59026 0.89520
 H551 H 0.15364 0.61663 0.92387
 H552 H 0.20394 0.56045 0.86995
 H553 H 0.14586 0.53342 0.84146
 H554 H 0.23458 0.58899 0.91820
 H555 H 0.10210 0.53607 0.80904
 H556 H 0.21543 0.65682 0.92907
 C557 C 0.43899 0.94304 0.82934
 C558 C 0.44196 0.93921 0.85956
 C559 C 0.42069 0.90361 0.87605
 C560 C 0.43587 0.89762 0.90232
 C561 C 0.41728 0.86441 0.91854
 C562 C 0.38285 0.83633 0.90889
 C563 C 0.36688 0.84279 0.88316
 C564 C 0.38566 0.87605 0.86676
 C565 C 0.36281 0.80088 0.92585
 C566 C 0.38230 0.78545 0.94315
 H567 H 0.46308 0.96164 0.87169
 H568 H 0.46243 0.91864 0.91027
 H569 H 0.42972 0.86116 0.93888
 H570 H 0.34000 0.82192 0.87560
 H571 H 0.37240 0.88023 0.84716
 H572 H 0.33231 0.78645 0.92439
 H573 H 0.42003 0.91849 0.81771
 H574 H 0.41291 0.79824 0.94274
 C575 C 0.51906 0.44288 0.83227
 C576 C 0.52339 0.44387 0.86249
 C577 C 0.54020 0.42181 0.87862
 C578 C 0.55572 0.43423 0.90610
 C579 C 0.57177 0.41432 0.92223
 C580 C 0.57254 0.38135 0.91120
 C581 C 0.55582 0.36809 0.88418
 C582 C 0.53992 0.38822 0.86789
 C583 C 0.58986 0.36024 0.92797
 C584 C 0.62050 0.37869 0.94620
 H585 H 0.51639 0.46336 0.87486
 H586 H 0.55559 0.45957 0.91511
 H587 H 0.58304 0.42454 0.94352
 H588 H 0.55544 0.34237 0.87553
 H589 H 0.52696 0.37706 0.84724
 H590 H 0.57885 0.33003 0.92553
 H591 H 0.53054 0.42710 0.81951
 H592 H 0.63336 0.40917 0.94660
 C593 C 0.93830 0.44309 0.82751
 C594 C 0.93100 0.45526 0.85431
 C595 C 0.89681 0.43400 0.87225
 C596 C 0.87653 0.39471 0.87060
 C597 C 0.84552 0.37551 0.88906
 C598 C 0.83393 0.39515 0.90925
 C599 C 0.85431 0.43443 0.91091
 C600 C 0.88547 0.45355 0.89267
 C601 C 0.80210 0.37380 0.92937
 C602 C 0.78010 0.38962 0.94259
 H603 H 0.95036 0.48269 0.86191
 H604 H 0.88510 0.37857 0.85572
 H605 H 0.83065 0.34518 0.88769
 H606 H 0.84704 0.45041 0.92683
 H607 H 0.90097 0.48375 0.89466
 H608 H 0.79538 0.34436 0.93355
 H609 H 0.91693 0.41822 0.81777
 H610 H 0.78424 0.41796 0.93672
 C611 C 0.53081 0.07815 0.82076
 C612 C 0.54848 0.08156 0.84774
 C613 C 0.56666 0.11768 0.86323
 C614 C 0.59628 0.12308 0.88260
 C615 C 0.61168 0.15541 0.89957
 C616 C 0.59714 0.18267 0.89790
 C617 C 0.56761 0.17734 0.87845
 C618 C 0.55274 0.14538 0.86103
 C619 C 0.60965 0.21469 0.91817
 C620 C 0.64613 0.23139 0.92955
 H621 H 0.54931 0.05678 0.85790
 H622 H 0.60711 0.10189 0.88497
 H623 H 0.63374 0.15815 0.91490
 H624 H 0.55557 0.19767 0.87710
 H625 H 0.52927 0.14161 0.84686
 H626 H 0.58915 0.22507 0.92469
 H627 H 0.53440 0.10337 0.80862
 H628 H 0.66789 0.22395 0.92101
   
