data_POSCAR
  _audit_creation_date              2014-09-24
  _audit_creation_method            'ToBaCCo'
  _symmetry_space_group_name_H-M    'P1'
  _symmetry_Int_Tables_number       1
  _symmetry_cell_setting            triclinic
  loop_
  _symmetry_equiv_pos_as_xyz
 x,y,z
_cell_length_a 49.5697
_cell_length_b 49.5841
_cell_length_c 14.7384
_cell_angle_alpha 89.776000
_cell_angle_beta 90.208800
_cell_angle_gamma 120.012700
loop_
  _atom_site_label
  _atom_site_type_symbol
  _atom_site_fract_x
  _atom_site_fract_y
  _atom_site_fract_z
C1 C 0.24781 0.49789 0.53996
 C2 C 0.24809 0.49733 0.44745
 C3 C 0.22313 0.49770 0.39226
 C4 C 0.27271 0.49488 0.39752
 C5 C 0.27369 0.49911 0.59437
 C6 C 0.22094 0.49556 0.59081
 C7 C 0.20613 0.47367 0.33017
 C8 C 0.18113 0.47241 0.28243
 C9 C 0.17278 0.49540 0.29538
 C10 C 0.19073 0.52018 0.35495
 C11 C 0.21566 0.52133 0.40291
 C12 C 0.27809 0.47009 0.41469
 C13 C 0.30243 0.46884 0.37143
 C14 C 0.32145 0.49211 0.30934
 C15 C 0.31538 0.51628 0.28972
 C16 C 0.29111 0.51763 0.33339
 C17 C 0.30457 0.52320 0.58196
 C18 C 0.32898 0.52249 0.62766
 C19 C 0.32288 0.49773 0.68628
 C20 C 0.29193 0.47428 0.70120
 C21 C 0.26752 0.47507 0.65595
 C22 C 0.22566 0.51829 0.65516
 C23 C 0.20032 0.51684 0.70094
 C24 C 0.16997 0.49255 0.68337
 C25 C 0.16533 0.46932 0.62094
 C26 C 0.19065 0.47070 0.57548
 H27 H 0.21168 0.45533 0.32059
 H28 H 0.16834 0.45320 0.23644
 H29 H 0.18508 0.53841 0.36554
 H30 H 0.22885 0.54037 0.44941
 H31 H 0.26368 0.45194 0.46253
 H32 H 0.30637 0.44975 0.38702
 H33 H 0.28711 0.53677 0.31877
 H34 H 0.30975 0.54216 0.53550
 H35 H 0.35270 0.54093 0.61596
 H36 H 0.28651 0.45511 0.74683
 H37 H 0.24386 0.45634 0.66662
 H38 H 0.24888 0.53748 0.66852
 H39 H 0.20430 0.53486 0.74930
 H40 H 0.14222 0.45019 0.60675
 H41 H 0.18662 0.45252 0.52767
 H42 H 0.32973 0.53430 0.24145
 C43 C 0.50572 -0.24852 0.54688
 C44 C 0.50550 -0.24897 0.45427
 C45 C 0.50261 -0.27617 0.40370
 C46 C 0.50824 -0.22254 0.39940
 C47 C 0.50498 -0.22330 0.59935
 C48 C 0.50758 -0.27313 0.59945
 C49 C 0.52603 -0.27220 0.34293
 C50 C 0.52448 -0.29796 0.29962
 C51 C 0.49930 -0.32796 0.31546
 C52 C 0.47542 -0.33186 0.37430
 C53 C 0.47703 -0.30612 0.41797
 C54 C 0.53223 -0.19188 0.41571
 C55 C 0.53314 -0.16705 0.36802
 C56 C 0.51060 -0.17256 0.30179
 C57 C 0.48742 -0.20326 0.28271
 C58 C 0.48629 -0.22807 0.33109
 C59 C 0.48286 -0.21419 0.58026
 C60 C 0.48385 -0.18907 0.62598
 C61 C 0.50634 -0.17325 0.69332
 C62 C 0.52772 -0.18302 0.71477
 C63 C 0.52704 -0.20784 0.66818
 C64 C 0.48421 -0.29149 0.66196
 C65 C 0.48465 -0.31629 0.70600
 C66 C 0.50853 -0.32298 0.68837
 C67 C 0.53255 -0.30377 0.62834
 C68 C 0.53216 -0.27895 0.58476
 H69 H 0.54590 -0.24927 0.33099
 H70 H 0.54308 -0.29456 0.25428
 H71 H 0.45572 -0.35473 0.38754
 H72 H 0.45855 -0.30956 0.46389
 H73 H 0.54984 -0.18715 0.46666
 H74 H 0.55123 -0.14348 0.38337
 H75 H 0.46773 -0.25154 0.31704
 H76 H 0.46517 -0.22621 0.52892
 H77 H 0.46709 -0.18192 0.60877
 H78 H 0.54537 -0.17116 0.76619
 H79 H 0.54423 -0.21452 0.68435
 H80 H 0.46519 -0.28716 0.67456
 H81 H 0.46604 -0.33062 0.75267
 H82 H 0.55156 -0.30790 0.61404
 H83 H 0.55072 -0.26461 0.53802
 H84 H 0.46972 -0.20814 0.23212
 C85 C 1.25040 0.75141 0.54981
 C86 C 1.25078 0.75094 0.45731
 C87 C 1.27746 0.77524 0.40475
 C88 C 1.22412 0.72680 0.40456
 C89 C 1.22492 0.72605 0.60322
 C90 C 1.27488 0.77805 0.60166
 C91 C 1.27252 0.79344 0.34109
 C92 C 1.29770 0.81775 0.29572
 C93 C 1.32822 0.82400 0.31230
 C94 C 1.33304 0.80516 0.37418
 C95 C 1.30785 0.78094 0.41983
 C96 C 1.19390 0.72175 0.41784
 C97 C 1.16871 0.69805 0.37108
 C98 C 1.17341 0.67932 0.30938
 C99 C 1.20372 0.68508 0.29361
 C100 C 1.22894 0.70872 0.34072
 C101 C 1.21723 0.69489 0.59216
 C102 C 1.19215 0.67115 0.63954
 C103 C 1.17440 0.67817 0.69888
 C104 C 1.18274 0.70946 0.71188
 C105 C 1.20786 0.73317 0.66475
 C106 C 1.29241 0.77307 0.66756
 C107 C 1.31639 0.79828 0.71374
 C108 C 1.32302 0.82880 0.69514
 C109 C 1.30476 0.83361 0.63108
 C110 C 1.28079 0.80842 0.58515
 H111 H 1.24923 0.78937 0.32848
 H112 H 1.29339 0.83194 0.24835
 H113 H 1.35620 0.80927 0.38865
 H114 H 1.31207 0.76689 0.46798
 H115 H 1.18981 0.73597 0.46522
 H116 H 1.14563 0.69435 0.38387
 H117 H 1.25213 0.71248 0.32894
 H118 H 1.23043 0.68896 0.54608
 H119 H 1.18633 0.64722 0.62894
 H120 H 1.16981 0.71577 0.75761
 H121 H 1.21355 0.75708 0.67457
 H122 H 1.28796 0.74975 0.68169
 H123 H 1.33006 0.79401 0.76318
 H124 H 1.30897 0.85672 0.61549
 H125 H 1.26703 0.81261 0.53587
 H126 H 1.20776 0.67093 0.24583
 C127 C 0.75157 0.50399 0.55019
 C128 C 0.75190 0.50374 0.45768
 C129 C 0.77888 0.50626 0.40680
 C130 C 0.72548 0.50140 0.40371
 C131 C 0.72687 0.50602 0.60110
 C132 C 0.77655 0.50344 0.60443
 C133 C 0.80913 0.53111 0.42281
 C134 C 0.83466 0.53220 0.37950
 C135 C 0.83028 0.50872 0.31842
 C136 C 0.79998 0.48454 0.29969
 C137 C 0.77443 0.48334 0.34347
 C138 C 0.73054 0.52487 0.34116
 C139 C 0.70543 0.52409 0.29536
 C140 C 0.67499 0.49963 0.31052
 C141 C 0.67004 0.47562 0.37089
 C142 C 0.69512 0.47647 0.41702
 C143 C 0.70932 0.48352 0.66682
 C144 C 0.68526 0.48467 0.71248
 C145 C 0.67852 0.50848 0.69354
 C146 C 0.69676 0.53152 0.62960
 C147 C 0.72083 0.53038 0.58421
 C148 C 0.78352 0.47947 0.59349
 C149 C 0.80869 0.48054 0.63965
 C150 C 0.82726 0.50556 0.69749
 C151 C 0.81950 0.52891 0.71090
 C152 C 0.79425 0.52775 0.66503
 H153 H 0.81297 0.54941 0.46996
 H154 H 0.85773 0.55131 0.39432
 H155 H 0.79620 0.46636 0.25218
 H156 H 0.75126 0.46411 0.32973
 H157 H 0.75382 0.54426 0.32996
 H158 H 0.70965 0.54277 0.24890
 H159 H 0.69082 0.45798 0.46433
 H160 H 0.71384 0.46471 0.68130
 H161 H 0.67161 0.46673 0.76182
 H162 H 0.69246 0.55035 0.61379
 H163 H 0.73460 0.54836 0.53518
 H164 H 0.76980 0.46028 0.54793
 H165 H 0.81404 0.46210 0.62898
 H166 H 0.83302 0.54831 0.75578
 H167 H 0.78908 0.54634 0.67462
 H168 H 0.64682 0.45647 0.38376
 C169 C 0.49468 0.24615 0.54963
 C170 C 0.49504 0.24619 0.45712
 C171 C 0.49421 0.27111 0.40322
 C172 C 0.49569 0.22093 0.40541
 C173 C 0.49196 0.21936 0.60258
 C174 C 0.49691 0.27281 0.60136
 C175 C 0.47044 0.27828 0.41612
 C176 C 0.47049 0.30245 0.36707
 C177 C 0.49405 0.31953 0.30367
 C178 C 0.51733 0.31184 0.28889
 C179 C 0.51733 0.28771 0.33813
 C180 C 0.47161 0.20309 0.34409
 C181 C 0.47091 0.17803 0.29902
 C182 C 0.49449 0.17070 0.31391
 C183 C 0.51913 0.18918 0.37292
 C184 C 0.51976 0.21415 0.41843
 C185 C 0.51500 0.22394 0.66610
 C186 C 0.51400 0.19847 0.71038
 C187 C 0.48990 0.16805 0.69202
 C188 C 0.46617 0.16364 0.63107
 C189 C 0.46711 0.18911 0.58724
 C190 C 0.52203 0.30306 0.58791
 C191 C 0.52280 0.32838 0.63162
 C192 C 0.49851 0.32383 0.69004
 C193 C 0.47384 0.29343 0.70538
 C194 C 0.47316 0.26810 0.66184
 H195 H 0.45201 0.26531 0.46463
 H196 H 0.45227 0.30801 0.37892
 H197 H 0.53570 0.32461 0.24020
 H198 H 0.53572 0.28234 0.32678
 H199 H 0.45295 0.20811 0.33293
 H200 H 0.45182 0.16437 0.25316
 H201 H 0.53876 0.22797 0.46460
 H202 H 0.53425 0.24713 0.67925
 H203 H 0.53241 0.20247 0.75772
 H204 H 0.44702 0.14062 0.61620
 H205 H 0.44877 0.18519 0.53979
 H206 H 0.54076 0.30707 0.54226
 H207 H 0.54221 0.35141 0.61835
 H208 H 0.45490 0.28934 0.75030
 H209 H 0.45362 0.24492 0.67317
 H210 H 0.53765 0.18398 0.38457
 C211 C 0.75003 0.25216 0.54930
 C212 C 0.74981 0.25173 0.45677
 C213 C 0.72333 0.22681 0.40535
 C214 C 0.77596 0.27623 0.40319
 C215 C 0.77469 0.27892 0.60047
 C216 C 0.72556 0.22600 0.60296
 C217 C 0.72849 0.20799 0.34525
 C218 C 0.70339 0.18301 0.30171
 C219 C 0.67287 0.17677 0.31673
 C220 C 0.66779 0.19618 0.37469
 C221 C 0.69286 0.22108 0.41849
 C222 C 0.80672 0.28305 0.41846
 C223 C 0.83137 0.30762 0.37239
 C224 C 0.82562 0.32542 0.30942
 C225 C 0.79481 0.31796 0.29175
 C226 C 0.77014 0.29346 0.33819
 C227 C 0.77996 0.30918 0.58599
 C228 C 0.80469 0.33457 0.62927
 C229 C 0.82447 0.33006 0.68815
 C230 C 0.81863 0.29966 0.70432
 C231 C 0.79379 0.27427 0.66133
 C232 C 0.70799 0.23168 0.66653
 C233 C 0.68334 0.20691 0.71232
 C234 C 0.67607 0.17617 0.69540
 C235 C 0.69425 0.17057 0.63404
 C236 C 0.71898 0.19530 0.58872
 H237 H 0.75184 0.21212 0.33416
 H238 H 0.70770 0.16831 0.25696
 H239 H 0.64451 0.19195 0.38723
 H240 H 0.68851 0.23561 0.46384
 H241 H 0.81165 0.26965 0.46712
 H242 H 0.85500 0.31297 0.38637
 H243 H 0.74655 0.28844 0.32520
 H244 H 0.76521 0.31314 0.53990
 H245 H 0.80845 0.35762 0.61530
 H246 H 0.83353 0.29561 0.74956
 H247 H 0.79002 0.25107 0.67336
 H248 H 0.71280 0.25521 0.67872
 H249 H 0.66974 0.21184 0.75959
 H250 H 0.68907 0.14698 0.62066
 H251 H 0.73265 0.19048 0.54122
 H252 H 0.78975 0.33126 0.24325
 O253 O 0.95717 0.52827 -0.16430
 O254 O 0.92285 0.48678 -0.07718
 C255 C 0.92925 0.50753 -0.13956
 O256 O 1.04258 0.47332 -0.16105
 O257 O 1.07756 0.51631 -0.08023
 C258 C 1.07069 0.49436 -0.13861
 O259 O 0.95479 0.43325 -0.16644
 O260 O 0.92146 0.44140 -0.07795
 C261 C 0.92712 0.42701 -0.14153
 O262 O 1.04464 0.57287 -0.15789
 O263 O 1.07857 0.56309 -0.07722
 C264 C 1.07247 0.57904 -0.13504
 Zr265 Zr 1.00069 0.53618 -0.11437
 O266 O 1.00360 0.53797 -0.25777
 O267 O 0.99811 0.57753 -0.11254
 Zr268 Zr 0.99928 0.46731 -0.11641
 O269 O 1.00217 0.46932 -0.25980
 O270 O 0.99500 0.42264 -0.11747
 O271 O 0.97213 0.48829 -0.13248
 O272 O 1.02695 0.51490 -0.13270
 O273 O 1.04560 0.57226 0.15639
 O274 O 1.07913 0.56281 0.07327
 C275 C 1.07328 0.57851 0.13219
 O276 O 0.95657 0.43241 0.16482
 O277 O 0.92254 0.44058 0.07910
 C278 C 0.92874 0.42596 0.14117
 O279 O 1.04394 0.47300 0.15480
 O280 O 1.07825 0.51622 0.07339
 C281 C 1.07188 0.49415 0.13127
 O282 O 0.95831 0.52776 0.16741
 O283 O 0.92341 0.48657 0.08075
 C284 C 0.93023 0.50711 0.14370
 Zr285 Zr 1.00138 0.53574 0.11458
 O286 O 1.00533 0.53701 0.25780
 O287 O 0.99877 0.57708 0.11519
 Zr288 Zr 1.00023 0.46696 0.11293
 O289 O 1.00409 0.46848 0.25617
 O290 O 0.99616 0.42237 0.11124
 Zr291 Zr 0.95390 0.47890 0.00038
 Zr292 Zr 1.04672 0.52401 -0.00190
 O293 O 1.02786 0.51447 0.12982
 O294 O 0.97303 0.48776 0.13229
 O295 O 1.02895 0.55478 -0.00038
 O296 O 0.97259 0.44898 -0.00121
 O297 O 0.97401 0.52769 0.00086
 O298 O 1.02748 0.47528 -0.00261
 H299 H 1.04079 0.52187 -0.18643
 H300 H 0.95824 0.42615 -0.00155
 H301 H 1.04208 0.52125 0.18286
 H302 H 0.96032 0.53693 0.00160
 H303 H 1.01237 0.42389 -0.08095
 H304 H 1.01352 0.42395 0.07436
 H305 H 0.98687 0.47094 0.28044
 H306 H 0.98770 0.51747 0.28162
 H307 H 1.01631 0.59276 0.07839
 H308 H 1.01598 0.59312 -0.07656
 H309 H 0.98590 0.51844 -0.28125
 H310 H 0.98469 0.47171 -0.28272
 O311 O 0.52536 0.56804 -0.16631
 O312 O 0.48331 0.56015 -0.08128
 C313 C 0.50428 0.57482 -0.14269
 O314 O 0.47293 0.42803 -0.16487
 O315 O 0.51575 0.43693 -0.08105
 C316 C 0.49434 0.42159 -0.14084
 O317 O 0.43096 0.47401 -0.17236
 O318 O 0.43814 0.51531 -0.08460
 C319 C 0.42403 0.49497 -0.14791
 O320 O 0.57112 0.52666 -0.15715
 O321 O 0.56191 0.48316 -0.07648
 C322 C 0.57771 0.50535 -0.13388
 Zr323 Zr 0.53381 0.53299 -0.11546
 O324 O 0.53644 0.53233 -0.25870
 O325 O 0.57468 0.57730 -0.11123
 Zr326 Zr 0.46560 0.46469 -0.12095
 O327 O 0.46833 0.46423 -0.26422
 O328 O 0.42139 0.42368 -0.12398
 O329 O 0.48588 0.51282 -0.13628
 O330 O 0.51336 0.48553 -0.13467
 O331 O 0.56920 0.52443 0.15827
 O332 O 0.56082 0.48208 0.07385
 C333 C 0.57593 0.50331 0.13414
 O334 O 0.42924 0.47151 0.15911
 O335 O 0.43681 0.51338 0.07299
 C336 C 0.42240 0.49256 0.13508
 O337 O 0.47107 0.42612 0.15162
 O338 O 0.51475 0.43580 0.07193
 C339 C 0.49263 0.41986 0.12919
 O340 O 0.52253 0.56570 0.16506
 O341 O 0.48126 0.55848 0.07617
 C342 C 0.50137 0.57240 0.14032
 Zr343 Zr 0.53241 0.53158 0.11348
 O344 O 0.53344 0.52918 0.25680
 O345 O 0.57323 0.57596 0.11512
 Zr346 Zr 0.46427 0.46312 0.10836
 O347 O 0.46479 0.46020 0.25164
 O348 O 0.42004 0.42214 0.10327
 Zr349 Zr 0.47570 0.52118 -0.00404
 Zr350 Zr 0.52219 0.47501 -0.00326
 O351 O 0.51178 0.48384 0.12784
 O352 O 0.48426 0.51100 0.12849
 O353 O 0.55230 0.52366 -0.00036
 O354 O 0.44643 0.47248 -0.00678
 O355 O 0.52437 0.55068 -0.00087
 O356 O 0.47358 0.44471 -0.00646
 H357 H 0.52080 0.47898 -0.18794
 H358 H 0.42355 0.46362 -0.00793
 H359 H 0.51850 0.47656 0.18145
 H360 H 0.53310 0.57354 0.00035
 H361 H 0.42293 0.40775 -0.08730
 H362 H 0.42237 0.40642 0.06846
 H363 H 0.46784 0.48009 0.27609
 H364 H 0.51348 0.52644 0.27964
 H365 H 0.58947 0.57427 0.08104
 H366 H 0.59028 0.57527 -0.07437
 H367 H 0.51667 0.52967 -0.28331
 H368 H 0.47012 0.48385 -0.28706
 O369 O 0.47390 0.04098 0.16913
 O370 O 0.51469 0.07610 0.08139
 C371 C 0.49420 0.06912 0.14465
 O372 O 0.53090 -0.04234 0.15930
 O373 O 0.48843 -0.07738 0.07659
 C374 C 0.51043 -0.07043 0.13529
 O375 O 0.56966 0.04502 0.16612
 O376 O 0.56037 0.07821 0.07985
 C377 C 0.57530 0.07263 0.14239
 O378 O 0.43064 -0.04656 0.16147
 O379 O 0.44077 -0.07964 0.07871
 C380 C 0.42498 -0.07415 0.13808
 Zr381 Zr 0.46637 -0.00203 0.11712
 O382 O 0.46498 -0.00545 0.26043
 O383 O 0.42454 -0.00029 0.11632
 Zr384 Zr 0.53591 0.00065 0.11515
 O385 O 0.53501 -0.00272 0.25847
 O386 O 0.58089 0.00563 0.11231
 O387 O 0.51430 0.02703 0.13401
 O388 O 0.48845 -0.02770 0.13278
 O389 O 0.42923 -0.04542 -0.15422
 O390 O 0.43953 -0.07901 -0.07369
 C391 C 0.42335 -0.07310 -0.13120
 O392 O 0.56893 0.04462 -0.16518
 O393 O 0.56055 0.07789 -0.07741
 C394 C 0.57518 0.07223 -0.14031
 O395 O 0.52919 -0.04268 -0.15935
 O396 O 0.48676 -0.07759 -0.07669
 C397 C 0.50842 -0.07079 -0.13592
 O398 O 0.47328 0.04189 -0.16187
 O399 O 0.51499 0.07679 -0.07645
 C400 C 0.49395 0.06998 -0.13821
 Zr401 Zr 0.46580 -0.00151 -0.11182
 O402 O 0.46416 -0.00477 -0.25518
 O403 O 0.42415 0.00053 -0.11126
 Zr404 Zr 0.53500 0.00054 -0.11396
 O405 O 0.53306 -0.00246 -0.25731
 O406 O 0.57981 0.00509 -0.11332
 Zr407 Zr 0.52275 0.04578 0.00165
 Zr408 Zr 0.47870 -0.04706 0.00165
 O409 O 0.48743 -0.02750 -0.12949
 O410 O 0.51357 0.02732 -0.13078
 O411 O 0.44749 -0.02980 0.00272
 O412 O 0.55330 0.02785 0.00045
 O413 O 0.47392 0.02515 0.00293
 O414 O 0.52757 -0.02712 0.00052
 H415 H 0.48209 -0.04166 0.18636
 H416 H 0.57608 0.04248 0.00041
 H417 H 0.48048 -0.04140 -0.18306
 H418 H 0.46446 0.03864 0.00332
 H419 H 0.57947 -0.01183 0.07631
 H420 H 0.57833 -0.01285 -0.07933
 H421 H 0.52978 0.01444 -0.28035
 H422 H 0.48313 0.01355 -0.27904
 H423 H 0.40920 -0.01639 -0.07127
 H424 H 0.40860 -0.01894 0.08381
 H425 H 0.48478 0.01192 0.28383
 H426 H 0.53180 0.01405 0.28251
 C427 C 1.12519 0.49253 0.12329
 C428 C 1.14930 0.51806 0.18678
 C429 C 1.14627 0.49385 0.25080
 C430 C 1.12381 0.46831 0.19236
 C431 C 1.12146 0.49488 0.30269
 C432 C 1.12281 0.51978 0.23651
 C433 C 1.09874 0.49359 0.17500
 C434 C 1.09666 0.46875 0.24236
 H435 H 1.12744 0.49157 0.04861
 H436 H 1.17200 0.53819 0.16583
 H437 H 1.12422 0.44684 0.17422
 H438 H 1.12103 0.49578 0.37795
 H439 H 1.12307 0.54150 0.25622
 H440 H 1.07520 0.44793 0.26721
 C441 C 0.52640 0.63251 0.18382
 C442 C 0.50165 0.64232 0.16704
 C443 C 0.49859 0.64458 0.27023
 C444 C 0.52332 0.63502 0.28748
 C445 C 0.47240 0.61026 0.27427
 C446 C 0.47551 0.60778 0.17056
 C447 C 0.50028 0.59830 0.18795
 C448 C 0.49716 0.60043 0.29096
 H449 H 0.54861 0.64138 0.14615
 H450 H 0.50343 0.65971 0.11620
 H451 H 0.54299 0.64647 0.33618
 H452 H 0.44993 0.60063 0.31093
 H453 H 0.45579 0.59634 0.12199
 H454 H 0.49537 0.58293 0.34142
 C455 C 0.39682 -0.10652 0.28767
 C456 C 0.36186 -0.11632 0.28311
 C457 C 0.35369 -0.15029 0.26800
 C458 C 0.38841 -0.14077 0.27311
 C459 C 0.35592 -0.14535 0.16447
 C460 C 0.36440 -0.11106 0.17910
 C461 C 0.39898 -0.10161 0.18439
 C462 C 0.39087 -0.13553 0.16912
 H463 H 0.41388 -0.09022 0.33788
 H464 H 0.34976 -0.10859 0.33063
 H465 H 0.39905 -0.15253 0.31082
 H466 H 0.33899 -0.16155 0.11382
 H467 H 0.35483 -0.09856 0.13993
 H468 H 0.40299 -0.14327 0.12167
 C469 C 0.89883 0.50488 0.29391
 C470 C 0.89235 0.53235 0.28974
 C471 C 0.85755 0.50898 0.27340
 C472 C 0.86379 0.48154 0.27816
 C473 C 0.86265 0.51146 0.17009
 C474 C 0.89768 0.53482 0.18589
 C475 C 0.90385 0.50743 0.19078
 C476 C 0.86915 0.48404 0.17433
 H477 H 0.91396 0.50209 0.34430
 H478 H 0.90243 0.55241 0.33705
 H479 H 0.84962 0.45959 0.31660
 H480 H 0.84757 0.51422 0.11940
 H481 H 0.91190 0.55672 0.14725
 H482 H 0.85982 0.46411 0.12655
 C483 C 0.51991 0.39620 0.23218
 C484 C 0.49630 0.37436 0.30399
 C485 C 0.49430 0.34618 0.25425
 C486 C 0.51796 0.36778 0.18281
 C487 C 0.46703 0.34298 0.19595
 C488 C 0.46902 0.37143 0.24534
 C489 C 0.49264 0.39294 0.17410
 C490 C 0.49066 0.36489 0.12406
 H491 H 0.54164 0.41844 0.24660
 H492 H 0.49872 0.37807 0.37849
 H493 H 0.53827 0.36664 0.15618
 H494 H 0.44528 0.32080 0.18131
 H495 H 0.44887 0.37313 0.27070
 H496 H 0.48828 0.36133 0.04948
 C497 C 0.63550 0.10965 0.18511
 C498 C 0.64382 0.14380 0.16838
 C499 C 0.64613 0.14921 0.27155
 C500 C 0.63808 0.11534 0.28880
 C501 C 0.61141 0.13957 0.27595
 C502 C 0.60889 0.13392 0.17230
 C503 C 0.60089 0.10009 0.18965
 C504 C 0.60308 0.10541 0.29264
 H505 H 0.64512 0.09705 0.14726
 H506 H 0.66073 0.15984 0.11742
 H507 H 0.65034 0.10796 0.33735
 H508 H 0.60102 0.15164 0.31279
 H509 H 0.59666 0.14141 0.12394
 H510 H 0.58607 0.08929 0.34326
 C511 C 0.46535 0.10201 -0.17761
 C512 C 0.48847 0.13713 -0.16239
 C513 C 0.49015 0.14225 -0.26574
 C514 C 0.46699 0.10737 -0.28149
 C515 C 0.51787 0.13649 -0.27226
 C516 C 0.51617 0.13107 -0.16838
 C517 C 0.49301 0.09630 -0.18422
 C518 C 0.49475 0.10137 -0.28736
 H519 H 0.44378 0.08755 -0.13797
 H520 H 0.48581 0.15198 -0.11111
 H521 H 0.44653 0.09681 -0.32759
 H522 H 0.53952 0.15084 -0.31167
 H523 H 0.53646 0.14059 -0.12157
 H524 H 0.49744 0.08644 -0.33822
 C525 C 0.60778 0.50460 -0.28166
 C526 C 0.64168 0.53206 -0.27619
 C527 C 0.65305 0.50853 -0.26211
 C528 C 0.61939 0.48111 -0.26809
 C529 C 0.65023 0.51002 -0.15848
 C530 C 0.63856 0.53352 -0.17207
 C531 C 0.60501 0.50615 -0.17830
 C532 C 0.61625 0.48261 -0.16399
 H533 H 0.58998 0.50227 -0.33181
 H534 H 0.65150 0.55266 -0.32175
 H535 H 0.61161 0.45952 -0.30812
 H536 H 0.66793 0.51232 -0.10798
 H537 H 0.64611 0.55501 -0.13179
 H538 H 0.60551 0.46227 -0.11738
 C539 C 0.89055 0.36680 -0.18393
 C540 C 0.85631 0.35801 -0.16645
 C541 C 0.85053 0.35573 -0.26954
 C542 C 0.88447 0.36423 -0.28754
 C543 C 0.85969 0.39034 -0.27401
 C544 C 0.86575 0.39283 -0.17044
 C545 C 0.89965 0.40129 -0.18849
 C546 C 0.89394 0.39912 -0.29137
 H547 H 0.90354 0.35742 -0.14641
 H548 H 0.84063 0.34100 -0.11507
 H549 H 0.89196 0.35226 -0.33630
 H550 H 0.84738 0.40072 -0.31019
 H551 H 0.85822 0.40482 -0.12184
 H552 H 0.90974 0.41629 -0.34224
 C553 C 0.49813 -0.12899 -0.13467
 C554 C 0.47888 -0.14583 -0.21998
 C555 C 0.50759 -0.14581 -0.25957
 C556 C 0.52686 -0.12920 -0.17451
 C557 C 0.51807 -0.11428 -0.30633
 C558 C 0.48938 -0.11401 -0.26611
 C559 C 0.50870 -0.09747 -0.18137
 C560 C 0.53739 -0.09736 -0.22084
 H561 H 0.48935 -0.13511 -0.06416
 H562 H 0.45477 -0.16597 -0.21968
 H563 H 0.54228 -0.13522 -0.13528
 H564 H 0.52624 -0.10850 -0.37754
 H565 H 0.47395 -0.10748 -0.30322
 H566 H 0.56146 -0.07715 -0.22093
 C567 C 0.37537 0.47156 -0.26371
 C568 C 0.34718 0.46920 -0.21168
 C569 C 0.34948 0.49631 -0.26912
 C570 C 0.37741 0.49866 -0.32158
 C571 C 0.37157 0.52012 -0.19904
 C572 C 0.36951 0.49302 -0.14117
 C573 C 0.39735 0.49534 -0.19366
 C574 C 0.39979 0.52246 -0.25086
 H575 H 0.37716 0.45159 -0.29021
 H576 H 0.32581 0.44700 -0.19456
 H577 H 0.38042 0.50098 -0.39634
 H578 H 0.36978 0.54009 -0.17257
 H579 H 0.36658 0.49072 -0.06635
 H580 H 0.42174 0.54433 -0.26652
 C581 C 1.09750 0.62883 -0.24621
 C582 C 1.12448 0.65637 -0.19489
 C583 C 1.14802 0.65354 -0.25655
 C584 C 1.12128 0.62630 -0.30824
 C585 C 1.14998 0.63073 -0.18940
 C586 C 1.12615 0.63323 -0.12732
 C587 C 1.09952 0.60609 -0.17917
 C588 C 1.12295 0.60321 -0.24055
 H589 H 1.07568 0.62782 -0.26938
 H590 H 1.12443 0.67788 -0.17477
 H591 H 1.11943 0.62361 -0.38314
 H592 H 1.17178 0.63170 -0.16617
 H593 H 1.12781 0.63571 -0.05236
 H594 H 1.12199 0.58103 -0.25879
 C595 C 0.87798 0.48099 -0.24285
 C596 C 0.85187 0.48281 -0.19078
 C597 C 0.85381 0.50711 -0.25967
 C598 C 0.87962 0.50527 -0.31237
 C599 C 0.87836 0.53387 -0.20094
 C600 C 0.87669 0.50955 -0.13162
 C601 C 0.90240 0.50770 -0.18436
 C602 C 0.90442 0.53198 -0.25318
 H603 H 0.87829 0.45935 -0.25959
 H604 H 0.83005 0.46258 -0.16524
 H605 H 0.88063 0.50352 -0.38723
 H606 H 0.87922 0.55596 -0.18241
 H607 H 0.87582 0.51127 -0.05669
 H608 H 0.92628 0.55217 -0.27864
 C609 C 0.52065 0.38674 -0.16897
 C610 C 0.49523 0.35193 -0.16427
 C611 C 0.49823 0.34948 -0.26743
 C612 C 0.52371 0.38408 -0.27256
 C613 C 0.47271 0.35797 -0.28484
 C614 C 0.46972 0.36076 -0.18113
 C615 C 0.49515 0.39522 -0.18646
 C616 C 0.49817 0.39283 -0.28940
 H617 H 0.54040 0.39873 -0.12075
 H618 H 0.49414 0.33500 -0.11285
 H619 H 0.54625 0.39453 -0.30915
 H620 H 0.45301 0.34595 -0.33316
 H621 H 0.44754 0.35148 -0.14304
 H622 H 0.49928 0.40989 -0.34042
 C623 C 0.59867 0.12444 -0.23984
 C624 C 0.62692 0.15021 -0.18750
 C625 C 0.64888 0.14911 -0.25926
 C626 C 0.62091 0.12366 -0.31209
 C627 C 0.65171 0.12422 -0.20415
 C628 C 0.62951 0.12502 -0.13201
 C629 C 0.60163 0.09964 -0.18497
 C630 C 0.62349 0.09848 -0.25656
 H631 H 0.57651 0.12414 -0.25414
 H632 H 0.62802 0.17130 -0.15807
 H633 H 0.61760 0.12341 -0.38669
 H634 H 0.67379 0.12441 -0.18953
 H635 H 0.63274 0.12522 -0.05736
 H636 H 0.62185 0.07698 -0.28473
 C637 C 1.10356 0.46653 -0.17902
 C638 C 1.10810 0.46827 -0.28321
 C639 C 1.14292 0.49207 -0.26954
 C640 C 1.13866 0.49032 -0.16590
 C641 C 1.13625 0.51921 -0.27506
 C642 C 1.10121 0.49544 -0.28824
 C643 C 1.09698 0.49364 -0.18480
 C644 C 1.13171 0.51745 -0.17095
 H645 H 1.08984 0.44492 -0.13876
 H646 H 1.09782 0.44785 -0.32918
 H647 H 1.15429 0.48818 -0.11589
 H648 H 1.14989 0.54090 -0.31507
 H649 H 1.08556 0.49763 -0.33804
 H650 H 1.14120 0.53771 -0.12433
 C651 C 0.48173 0.61361 -0.17241
 C652 C 0.50951 0.64734 -0.16602
 C653 C 0.50790 0.65082 -0.26937
 C654 C 0.48008 0.61740 -0.27635
 C655 C 0.53096 0.63898 -0.28485
 C656 C 0.53255 0.63524 -0.18100
 C657 C 0.50482 0.60193 -0.18807
 C658 C 0.50312 0.60530 -0.29119
 H659 H 0.46144 0.60284 -0.12585
 H660 H 0.51222 0.66486 -0.11470
 H661 H 0.45847 0.61020 -0.31609
 H662 H 0.55145 0.64874 -0.33057
 H663 H 0.55408 0.64227 -0.14108
 H664 H 0.50037 0.58765 -0.34210
 C665 C 0.36267 -0.10633 -0.16963
 C666 C 0.35953 -0.11081 -0.27377
 C667 C 0.34842 -0.14566 -0.26012
 C668 C 0.35127 -0.14145 -0.15644
 C669 C 0.38217 -0.13916 -0.26603
 C670 C 0.39350 -0.10411 -0.27917
 C671 C 0.39631 -0.09987 -0.17577
 C672 C 0.38535 -0.13459 -0.16184
 H673 H 0.35498 -0.09255 -0.12917
 H674 H 0.34957 -0.10009 -0.31913
 H675 H 0.33365 -0.15698 -0.10616
 H676 H 0.39006 -0.15281 -0.30626
 H677 H 0.41123 -0.08851 -0.32912
 H678 H 0.39626 -0.14407 -0.11533
 C679 C 0.51873 -0.11966 0.12932
 C680 C 0.53948 -0.11829 0.21003
 C681 C 0.51076 -0.14554 0.25506
 C682 C 0.49000 -0.14720 0.17476
 C683 C 0.50365 -0.12263 0.30516
 C684 C 0.53234 -0.09507 0.25956
 C685 C 0.51155 -0.09689 0.17946
 C686 C 0.48288 -0.12407 0.22457
 H687 H 0.52559 -0.11780 0.05705
 H688 H 0.56276 -0.11621 0.20422
 H689 H 0.47251 -0.16836 0.13839
 H690 H 0.49736 -0.12417 0.37797
 H691 H 0.54974 -0.07338 0.29403
 H692 H 0.45960 -0.12611 0.23028
 C693 C 0.39339 0.49518 0.28448
 C694 C 0.38207 0.51880 0.26842
 C695 C 0.34826 0.49159 0.26412
 C696 C 0.35933 0.46795 0.28074
 C697 C 0.35079 0.48905 0.16084
 C698 C 0.38486 0.51624 0.16462
 C699 C 0.39579 0.49257 0.18140
 C700 C 0.36210 0.46541 0.17693
 H701 H 0.41126 0.49778 0.33477
 H702 H 0.39011 0.54080 0.30655
 H703 H 0.34921 0.44789 0.32832
 H704 H 0.33301 0.48649 0.11025
 H705 H 0.39565 0.53614 0.11648
 H706 H 0.35420 0.44348 0.13859
 C707 C 1.10451 0.60797 0.28051
 C708 C 1.13947 0.61892 0.26756
 C709 C 1.14640 0.65282 0.26168
 C710 C 1.11165 0.64208 0.27506
 C711 C 1.14207 0.65016 0.15800
 C712 C 1.13481 0.61596 0.16339
 C713 C 1.10018 0.60538 0.17707
 C714 C 1.10705 0.63915 0.17091
 H715 H 1.08882 0.59027 0.33042
 H716 H 1.15299 0.61077 0.30790
 H717 H 1.10147 0.65237 0.32068
 H718 H 1.15775 0.66780 0.10795
 H719 H 1.14406 0.60494 0.11699
 H720 H 1.09345 0.64716 0.13034
 C721 C 0.49126 0.12119 0.13923
 C722 C 0.46689 0.11872 0.20909
 C723 C 0.49353 0.14323 0.26822
 C724 C 0.51788 0.14594 0.19881
 C725 C 0.49599 0.11746 0.31969
 C726 C 0.46938 0.09270 0.26013
 C727 C 0.49371 0.09550 0.19078
 C728 C 0.52033 0.11988 0.24967
 H729 H 0.48935 0.12241 0.06440
 H730 H 0.44464 0.11774 0.19148
 H731 H 0.53783 0.16808 0.17383
 H732 H 0.49793 0.11617 0.39446
 H733 H 0.44945 0.07055 0.28514
 H734 H 0.54222 0.11989 0.26584
 C735 C 0.61115 0.47735 0.16405
 C736 C 0.64589 0.50298 0.16036
 C737 C 0.64814 0.49989 0.26370
 C738 C 0.61361 0.47424 0.26782
 C739 C 0.63931 0.52516 0.27998
 C740 C 0.63674 0.52825 0.17612
 C741 C 0.60235 0.50262 0.18050
 C742 C 0.60452 0.49951 0.28362
 H743 H 0.59938 0.45763 0.11583
 H744 H 0.66306 0.50430 0.10980
 H745 H 0.60350 0.45173 0.30478
 H746 H 0.65112 0.54481 0.32836
 H747 H 0.64595 0.55046 0.13791
 H748 H 0.58726 0.49816 0.33388
 C749 C 0.87608 0.37142 0.13496
 C750 C 0.87721 0.34943 0.20782
 C751 C 0.85256 0.35243 0.26306
 C752 C 0.85113 0.37417 0.19060
 C753 C 0.87825 0.38054 0.31476
 C754 C 0.90319 0.37781 0.25906
 C755 C 0.90169 0.39944 0.18679
 C756 C 0.87713 0.40254 0.24183
 H757 H 0.87554 0.36799 0.06042
 H758 H 0.87695 0.32732 0.19394
 H759 H 0.82994 0.37304 0.16137
 H760 H 0.87883 0.38406 0.38924
 H761 H 0.92484 0.37955 0.28692
 H762 H 0.87749 0.42473 0.25543
   
