data_POSCAR
  _audit_creation_date              2014-09-24
  _audit_creation_method            'ToBaCCo'
  _symmetry_space_group_name_H-M    'P1'
  _symmetry_Int_Tables_number       1
  _symmetry_cell_setting            triclinic
  loop_
  _symmetry_equiv_pos_as_xyz
 x,y,z
_cell_length_a 28.5344
_cell_length_b 29.3586
_cell_length_c 26.2973
_cell_angle_alpha 87.989100
_cell_angle_beta 107.068700
_cell_angle_gamma 104.277600
loop_
  _atom_site_label
  _atom_site_type_symbol
  _atom_site_fract_x
  _atom_site_fract_y
  _atom_site_fract_z
C1 C 0.25026 0.25351 0.19742
 C2 C 0.21650 0.22715 0.22330
 C3 C 0.17530 0.24298 0.22617
 C4 C 0.16791 0.28581 0.20400
 C5 C 0.20122 0.31151 0.17840
 C6 C 0.24278 0.29567 0.17576
 C7 C 0.29320 0.24691 0.18777
 N8 N 0.31203 0.28471 0.16213
 C9 C 0.28160 0.31469 0.15471
 C10 C 0.18558 0.35136 0.16084
 N11 N 0.14409 0.35103 0.17602
 C12 C 0.13300 0.31138 0.20280
 C13 C 0.14892 0.21018 0.25296
 N14 N 0.17363 0.17557 0.26705
 C15 C 0.21509 0.18567 0.24952
 H16 H 0.30973 0.21721 0.19886
 H17 H 0.28691 0.34752 0.13453
 H18 H 0.20404 0.37944 0.14023
 H19 H 0.10220 0.30218 0.22039
 H20 H 0.11477 0.21165 0.26225
 H21 H 0.24190 0.16414 0.25506
 C22 C 0.85540 -0.20659 0.30533
 C23 C 0.87476 -0.18914 0.35834
 C24 C 0.91681 -0.20137 0.39207
 C25 C 0.93964 -0.23178 0.37347
 C26 C 0.92157 -0.24762 0.32076
 C27 C 0.87973 -0.23441 0.28635
 C28 C 0.81376 -0.20252 0.26411
 N29 N 0.81339 -0.22603 0.22033
 C30 C 0.85382 -0.24539 0.23359
 C31 C 0.94883 -0.27839 0.31430
 N32 N 0.98227 -0.28254 0.36205
 C33 C 0.97746 -0.25359 0.39848
 C34 C 0.92820 -0.17810 0.44034
 N35 N 0.89440 -0.15175 0.43642
 C36 C 0.86126 -0.15872 0.38673
 H37 H 0.78622 -0.18338 0.26565
 H38 H 0.86280 -0.26740 0.20745
 H39 H 0.94275 -0.29836 0.27807
 H40 H 0.99825 -0.25003 0.44039
 H41 H 0.95943 -0.17943 0.47520
 H42 H 0.83053 -0.14170 0.37185
 C43 C 0.60351 0.17927 0.74137
 C44 C 0.62434 0.16797 0.70287
 C45 C 0.66798 0.19757 0.69665
 C46 C 0.69078 0.23905 0.72796
 C47 C 0.67098 0.25006 0.76670
 C48 C 0.62659 0.21999 0.77316
 C49 C 0.56216 0.15632 0.75695
 N50 N 0.55915 0.18228 0.79714
 C51 C 0.59837 0.22129 0.80728
 C52 C 0.70271 0.29147 0.79231
 N53 N 0.74019 0.30595 0.76875
 C54 C 0.73295 0.27410 0.72937
 C55 C 0.68208 0.17649 0.65970
 N56 N 0.64761 0.13512 0.64288
 C57 C 0.61185 0.12955 0.66861
 H58 H 0.53632 0.12320 0.74004
 H59 H 0.60608 0.24842 0.83758
 H60 H 0.69822 0.30995 0.82480
 H61 H 0.75714 0.27594 0.70400
 H62 H 0.71555 0.18961 0.64688
 H63 H 0.58066 0.09884 0.66459
 C64 C 0.29520 -0.25756 0.75820
 C65 C 0.28295 -0.22696 0.71677
 C66 C 0.23770 -0.24004 0.67635
 C67 C 0.20399 -0.28378 0.67679
 C68 C 0.21568 -0.31337 0.71811
 C69 C 0.26147 -0.30026 0.75886
 C70 C 0.33621 -0.25452 0.80299
 N71 N 0.32785 -0.29430 0.83059
 C72 C 0.28200 -0.32226 0.80386
 C73 C 0.17518 -0.35192 0.71024
 N74 N 0.13919 -0.34674 0.66493
 C75 C 0.15659 -0.30518 0.64395
 C76 C 0.23465 -0.20273 0.64332
 N77 N 0.27666 -0.16732 0.66276
 C78 C 0.30655 -0.18189 0.70751
 H79 H 0.36956 -0.22549 0.81462
 H80 H 0.26473 -0.35644 0.81564
 H81 H 0.17181 -0.38127 0.73618
 H82 H 0.13582 -0.29066 0.60858
 H83 H 0.20347 -0.20093 0.60856
 H84 H 0.34219 -0.16092 0.73240
 C85 C 0.70254 -0.29115 0.79064
 C86 C 0.71683 -0.25617 0.75682
 C87 C 0.75879 -0.25462 0.74027
 C88 C 0.78586 -0.28905 0.75577
 C89 C 0.77005 -0.32553 0.78654
 C90 C 0.72847 -0.32598 0.80531
 C91 C 0.66785 -0.29665 0.81839
 N92 N 0.67219 -0.33352 0.85044
 C93 C 0.70833 -0.35261 0.84182
 C94 C 0.80191 -0.35524 0.79187
 N95 N 0.83708 -0.33664 0.76640
 C96 C 0.82769 -0.29597 0.74472
 C97 C 0.76304 -0.21786 0.70668
 N98 N 0.72387 -0.19798 0.70164
 C99 C 0.69559 -0.22079 0.73250
 H100 H 0.64350 -0.27346 0.81788
 H101 H 0.72201 -0.38101 0.86356
 H102 H 0.79986 -0.38769 0.81294
 H103 H 0.84824 -0.27399 0.72043
 H104 H 0.79066 -0.20810 0.68491
 H105 H 0.66111 -0.21332 0.73535
 C106 C 0.16667 0.21597 0.72219
 C107 C 0.13705 0.18313 0.68081
 C108 C 0.09043 0.18844 0.64954
 C109 C 0.07325 0.22741 0.65919
 C110 C 0.10314 0.26016 0.69969
 C111 C 0.15027 0.25467 0.73091
 C112 C 0.21340 0.21955 0.75852
 N113 N 0.22620 0.26011 0.78819
 C114 C 0.18790 0.28204 0.77135
 C115 C 0.07806 0.29451 0.69971
 N116 N 0.03376 0.28382 0.66011
 C117 C 0.03042 0.24294 0.63484
 C118 C 0.07174 0.15256 0.61081
 N119 N 0.10646 0.12665 0.61761
 C120 C 0.14636 0.14507 0.66022
 H121 H 0.23685 0.19496 0.76230
 H122 H 0.18696 0.31502 0.78767
 H123 H 0.09128 0.32535 0.72632
 H124 H -0.00069 0.22577 0.60129
 H125 H 0.03691 0.14728 0.57846
 H126 H 0.18047 0.13259 0.67405
 C127 C 0.40532 -0.16085 0.25474
 C128 C 0.37664 -0.14221 0.27997
 C129 C 0.33769 -0.17194 0.29516
 C130 C 0.32736 -0.22063 0.28613
 C131 C 0.35693 -0.23917 0.26335
 C132 C 0.39568 -0.20904 0.24680
 C133 C 0.44267 -0.14034 0.23176
 N134 N 0.45537 -0.17495 0.20947
 C135 C 0.42726 -0.21706 0.21921
 C136 C 0.33903 -0.28734 0.26069
 N137 N 0.29858 -0.29823 0.28014
 C138 C 0.29100 -0.25762 0.29547
 C139 C 0.31724 -0.14464 0.31982
 N140 N 0.34322 -0.09914 0.32063
 C141 C 0.37929 -0.09718 0.29583
 H142 H 0.45781 -0.10294 0.22971
 H143 H 0.42800 -0.25102 0.20509
 H144 H 0.35347 -0.31234 0.24423
 H145 H 0.26152 -0.25519 0.31268
 H146 H 0.28703 -0.15714 0.33780
 H147 H 0.40647 -0.06561 0.29104
 C148 C 0.73788 0.21268 0.25581
 C149 C 0.77811 0.20954 0.30035
 C150 C 0.82054 0.24681 0.31627
 C151 C 0.82316 0.28798 0.28707
 C152 C 0.78298 0.29103 0.24326
 C153 C 0.74027 0.25321 0.22751
 C154 C 0.69154 0.18242 0.23277
 N155 N 0.66590 0.20381 0.19103
 C156 C 0.69539 0.24707 0.18746
 C157 C 0.79488 0.33455 0.22289
 N158 N 0.84177 0.35812 0.25261
 C159 C 0.85934 0.32998 0.29214
 C160 C 0.85179 0.23432 0.36266
 N161 N 0.82891 0.19064 0.37468
 C162 C 0.78415 0.17527 0.33662
 H163 H 0.67731 0.14786 0.24603
 H164 H 0.68457 0.27249 0.15837
 H165 H 0.77130 0.34741 0.18813
 H166 H 0.89587 0.33919 0.32205
 H167 H 0.88748 0.25598 0.38666
 H168 H 0.75698 0.14216 0.33647
 O169 O 0.22424 0.07323 0.43053
 O170 O 0.27548 0.00503 0.54426
 O171 O 0.29050 0.02434 0.45188
 O172 O 0.20864 0.05584 0.52274
 O173 O 0.14784 -0.00688 0.48671
 O174 O 0.23082 -0.03940 0.41677
 O175 O 0.21482 -0.05811 0.50945
 O176 O 0.16321 0.01027 0.39550
 Cu177 Cu 0.25577 0.04578 0.49132
 Cu178 Cu 0.18330 -0.03013 0.44880
 C179 C 0.18489 0.05340 0.39386
 C180 C 0.25419 -0.03818 0.54606
 C181 C 0.27446 -0.01252 0.42180
 C182 C 0.16393 0.03075 0.51568
 O183 O 0.70822 0.01656 0.51463
 O184 O 0.79626 -0.04567 0.48995
 O185 O 0.72515 -0.06397 0.53704
 O186 O 0.78342 0.03994 0.47447
 O187 O 0.83947 0.06590 0.55191
 O188 O 0.78195 -0.03835 0.61429
 O189 O 0.85205 -0.01950 0.56748
 O190 O 0.76342 0.04373 0.59224
 Cu191 Cu 0.74825 -0.01590 0.49584
 Cu192 Cu 0.81492 0.01585 0.58916
 C193 C 0.72031 0.03984 0.55816
 C194 C 0.83839 -0.04411 0.52445
 C195 C 0.74353 -0.06837 0.58664
 C196 C 0.82086 0.07084 0.50259
 O197 O 0.45353 0.28564 0.04262
 O198 O 0.48939 0.23790 -0.06363
 O199 O 0.42211 0.28373 -0.05949
 O200 O 0.51942 0.23980 0.04009
 O201 O 0.46374 0.17259 0.04071
 O202 O 0.36737 0.21519 -0.06213
 O203 O 0.43461 0.17007 -0.06315
 O204 O 0.39669 0.21879 0.04140
 Cu205 Cu 0.47692 0.26842 -0.01034
 Cu206 Cu 0.41009 0.18726 -0.01082
 C207 C 0.41847 0.26065 0.05946
 C208 C 0.46832 0.19587 -0.08129
 C209 C 0.37802 0.25699 -0.07728
 C210 C 0.50799 0.19914 0.05792
 O211 O 0.62475 0.72667 0.10125
 O212 O 0.49342 0.69037 0.01441
 O213 O 0.57944 0.67329 0.01659
 O214 O 0.53822 0.74316 0.10149
 O215 O 0.55686 0.80573 0.05527
 O216 O 0.58949 0.73384 -0.03496
 O217 O 0.50632 0.75348 -0.03275
 O218 O 0.64020 0.78524 0.04857
 Cu219 Cu 0.55720 0.70246 0.06359
 Cu220 Cu 0.57427 0.77624 0.00451
 C221 C 0.65541 0.76049 0.08759
 C222 C 0.47755 0.71549 -0.02404
 C223 C 0.59188 0.69193 -0.02342
 C224 C 0.54110 0.78645 0.09317
 O225 O 0.08865 0.47227 0.26861
 O226 O 0.07038 0.56322 0.34936
 O227 O 0.01347 0.48291 0.29827
 O228 O 0.14564 0.54940 0.31699
 O229 O 0.11995 0.59149 0.24771
 O230 O -0.01039 0.52107 0.22505
 O231 O 0.04229 0.59969 0.27602
 O232 O 0.06685 0.51292 0.19687
 Cu233 Cu 0.08189 0.51352 0.31630
 Cu234 Cu 0.05216 0.56037 0.22936
 C235 C 0.08169 0.47777 0.21907
 C236 C 0.05252 0.59658 0.32606
 C237 C -0.02062 0.48968 0.25727
 C238 C 0.15513 0.58120 0.28489
 O239 O -0.05081 0.51723 0.64003
 O240 O -0.13855 0.43665 0.70063
 O241 O -0.11024 0.52731 0.69397
 O242 O -0.08159 0.42540 0.64350
 O243 O -0.02120 0.42601 0.71882
 O244 O -0.04500 0.53291 0.76620
 O245 O -0.07765 0.44346 0.77678
 O246 O 0.01193 0.51749 0.71325
 Cu247 Cu -0.10150 0.47607 0.66207
 Cu248 Cu -0.02670 0.47940 0.75124
 C249 C -0.00464 0.53189 0.66692
 C250 C -0.12334 0.42757 0.74938
 C251 C -0.08165 0.54831 0.73752
 C252 C -0.04695 0.40794 0.67277
 C253 C 0.35535 0.29158 0.14339
 C254 C 0.38929 0.33450 0.14579
 C255 C 0.41973 0.32771 0.11696
 C256 C 0.40148 0.28133 0.09865
 O257 O 0.36235 0.25918 0.11476
 H258 H 0.39035 0.36708 0.16462
 H259 H 0.44993 0.35398 0.10801
 C260 C 0.77811 0.76975 0.17185
 C261 C 0.78519 0.75664 0.12521
 C262 C 0.74083 0.75560 0.08697
 C263 C 0.70976 0.76717 0.11313
 O264 O 0.73212 0.77585 0.16479
 H265 H 0.81849 0.74877 0.11962
 H266 H 0.73114 0.74500 0.04540
 C267 C 0.52354 0.17145 -0.17657
 C268 C 0.48528 0.13052 -0.18511
 C269 C 0.45931 0.13413 -0.15002
 C270 C 0.48343 0.17694 -0.12316
 O271 O 0.52241 0.19966 -0.13908
 H272 H 0.47731 0.10138 -0.21294
 H273 H 0.42665 0.10872 -0.14469
 C274 C 0.36021 0.69538 -0.12350
 C275 C 0.34981 0.65527 -0.09544
 C276 C 0.39226 0.65823 -0.05373
 C277 C 0.42546 0.69969 -0.05933
 O278 O 0.40615 0.72250 -0.10159
 H279 H 0.31578 0.62701 -0.10414
 H280 H 0.39862 0.63280 -0.02328
 C281 C 0.11949 0.38868 0.16879
 C282 C 0.11196 0.41439 0.12353
 C283 C 0.09393 0.45022 0.13550
 C284 C 0.09271 0.44390 0.18740
 O285 O 0.10811 0.40644 0.20775
 H286 H 0.12016 0.40847 0.08702
 H287 H 0.08506 0.47879 0.11039
 C288 C 0.09287 0.62281 0.64656
 C289 C 0.05647 0.62673 0.59960
 C290 C 0.01534 0.59095 0.59931
 C291 C 0.02972 0.56819 0.64602
 O292 O 0.07676 0.58728 0.67455
 H293 H 0.05893 0.65286 0.56983
 H294 H -0.02142 0.58362 0.56980
 C295 C 0.01177 0.68629 0.37109
 C296 C 0.04083 0.67646 0.42043
 C297 C 0.06044 0.64073 0.41058
 C298 C 0.04229 0.63214 0.35618
 O299 O 0.01288 0.65963 0.33229
 H300 H 0.04614 0.69229 0.45890
 H301 H 0.08487 0.62306 0.43945
 C302 C -0.22124 0.34536 0.78076
 C303 C -0.20682 0.37398 0.82613
 C304 C -0.16591 0.40809 0.82175
 C305 C -0.15959 0.39806 0.77369
 O306 O -0.19287 0.36009 0.74889
 H307 H -0.22339 0.37021 0.85861
 H308 H -0.14434 0.43755 0.84930
 C309 C 0.15898 0.13513 0.29605
 C310 C 0.10985 0.10914 0.28759
 C311 C 0.11317 0.07349 0.32219
 C312 C 0.16392 0.08124 0.34957
 O313 O 0.19192 0.11856 0.33365
 H314 H 0.07603 0.11523 0.25931
 H315 H 0.08228 0.04591 0.32786
 C316 C 0.65150 0.10138 0.60755
 C317 C 0.61076 0.07218 0.57174
 C318 C 0.63153 0.04615 0.54664
 C319 C 0.68316 0.06115 0.56988
 O320 O 0.69545 0.09481 0.60681
 H321 H 0.57102 0.07030 0.56481
 H322 H 0.61149 0.01859 0.51619
 C323 C 0.28592 -0.12155 0.64087
 C324 C 0.32674 -0.08455 0.66350
 C325 C 0.32005 -0.04806 0.63090
 C326 C 0.27578 -0.06554 0.59089
 O327 O 0.25491 -0.11019 0.59680
 H328 H 0.35747 -0.08398 0.69943
 H329 H 0.34455 -0.01291 0.63561
 C330 C 0.89423 -0.11993 0.47642
 C331 C 0.93165 -0.10751 0.52425
 C332 C 0.91624 -0.07625 0.54896
 C333 C 0.87077 -0.07222 0.51423
 O334 O 0.85741 -0.09859 0.47024
 H335 H 0.96592 -0.11952 0.53924
 H336 H 0.93548 -0.05887 0.58774
 C337 C 0.64893 0.65611 -0.11075
 C338 C 0.65228 0.61901 -0.07717
 C339 C 0.62794 0.62560 -0.04128
 C340 C 0.61214 0.66631 -0.05552
 O341 O 0.62450 0.68457 -0.09776
 H342 H 0.67136 0.59149 -0.07754
 H343 H 0.62459 0.60477 -0.00717
 C344 C 0.27005 0.27538 -0.17215
 C345 C 0.28778 0.32030 -0.14903
 C346 C 0.33264 0.32004 -0.11192
 C347 C 0.33809 0.27489 -0.11454
 O348 O 0.30037 0.24773 -0.15113
 H349 H 0.27060 0.34973 -0.15824
 H350 H 0.35744 0.34871 -0.08475
 C351 C 0.48734 0.83072 0.17884
 C352 C 0.51187 0.87358 0.16412
 C353 C 0.53599 0.86266 0.13016
 C354 C 0.52490 0.81419 0.12724
 O355 O 0.49545 0.79469 0.15674
 H356 H 0.51126 0.90848 0.17532
 H357 H 0.55848 0.88704 0.10948
 C358 C 0.61538 0.18564 0.15735
 C359 C 0.58508 0.14163 0.16045
 C360 C 0.54014 0.14023 0.12256
 C361 C 0.54677 0.18341 0.09955
 O362 O 0.59232 0.21095 0.12053
 H363 H 0.59425 0.11419 0.18723
 H364 H 0.50647 0.11150 0.11324
 C365 C -0.12605 0.64381 0.76087
 C366 C -0.08411 0.66836 0.74660
 C367 C -0.05952 0.63544 0.74123
 C368 C -0.08852 0.59335 0.75176
 O369 O -0.12907 0.59809 0.76376
 H370 H -0.07314 0.70555 0.73999
 H371 H -0.02630 0.64087 0.72763
 C372 C -0.13230 0.40145 0.24295
 C373 C -0.15151 0.42946 0.20275
 C374 C -0.11235 0.46736 0.20448
 C375 C -0.07231 0.45983 0.24547
 O376 O -0.08427 0.41996 0.26919
 H377 H -0.18895 0.42287 0.17466
 H378 H -0.11244 0.49638 0.17792
 C379 C -0.00230 0.31212 0.64771
 C380 C -0.04406 0.30511 0.60335
 C381 C -0.06647 0.34047 0.60677
 C382 C -0.03685 0.36613 0.65302
 O383 O 0.00218 0.34901 0.67795
 H384 H -0.05638 0.27801 0.57210
 H385 H -0.10039 0.34683 0.57892
 C386 C 0.26935 0.65811 0.28289
 C387 C 0.28252 0.61655 0.27810
 C388 C 0.24225 0.58190 0.28253
 C389 C 0.20749 0.60497 0.28857
 O390 O 0.22371 0.65117 0.28886
 H391 H 0.31702 0.61192 0.27214
 H392 H 0.23755 0.54432 0.27884
 C393 C 0.71146 -0.16294 0.66455
 C394 C 0.66281 -0.16262 0.63508
 C395 C 0.66840 -0.12720 0.60070
 C396 C 0.71987 -0.10845 0.61268
 O397 O 0.74620 -0.13017 0.65122
 H398 H 0.62784 -0.18634 0.63718
 H399 H 0.63867 -0.11607 0.57082
 C400 C 0.33609 -0.06079 0.34751
 C401 C 0.36904 -0.01676 0.35761
 C402 C 0.35010 0.00726 0.38698
 C403 C 0.30698 -0.02380 0.39234
 O404 O 0.29834 -0.06524 0.36845
 H405 H 0.40324 -0.00398 0.34611
 H406 H 0.36590 0.04312 0.40282
 C407 C 0.84509 0.16528 0.42147
 C408 C 0.88668 0.18218 0.46473
 C409 C 0.88421 0.14813 0.50143
 C410 C 0.84148 0.11332 0.47742
 O411 O 0.81783 0.12368 0.42906
 H412 H 0.91435 0.21561 0.46967
 H413 H 0.90972 0.14905 0.54124
 C414 C 0.10510 0.08963 0.58268
 C415 C 0.06163 0.05912 0.55228
 C416 C 0.07806 0.03087 0.52461
 C417 C 0.13014 0.04688 0.53986
 O418 O 0.14660 0.08244 0.57524
 H419 H 0.02292 0.05785 0.55031
 H420 H 0.05484 0.00314 0.49539
   
