data_POSCAR
  _audit_creation_date              2014-09-24
  _audit_creation_method            'ToBaCCo'
  _symmetry_space_group_name_H-M    'P1'
  _symmetry_Int_Tables_number       1
  _symmetry_cell_setting            triclinic
  loop_
  _symmetry_equiv_pos_as_xyz
 x,y,z
_cell_length_a 57.5179
_cell_length_b 57.4777
_cell_length_c 20.2205
_cell_angle_alpha 89.952900
_cell_angle_beta 90.035800
_cell_angle_gamma 119.966500
loop_
  _atom_site_label
  _atom_site_type_symbol
  _atom_site_fract_x
  _atom_site_fract_y
  _atom_site_fract_z
O1 O 0.21731 0.48036 0.43757
 O2 O 0.26299 0.48031 0.56520
 O3 O 0.21757 0.48038 0.56566
 O4 O 0.26270 0.48027 0.43696
 O5 O 0.28490 0.52469 0.43682
 O6 O 0.23975 0.52480 0.56557
 O7 O 0.28519 0.52472 0.56511
 O8 O 0.23949 0.52477 0.43743
 Cu9 Cu 0.23791 0.47585 0.50138
 Cu10 Cu 0.26459 0.52924 0.50124
 C11 C 0.22050 0.50256 0.41651
 C12 C 0.28199 0.50250 0.58617
 C13 C 0.22083 0.50259 0.58672
 C14 C 0.28159 0.50246 0.41567
 O15 O 0.51992 -0.26351 0.43622
 O16 O 0.52053 -0.21761 0.56402
 O17 O 0.51991 -0.26337 0.56415
 O18 O 0.52048 -0.21775 0.43566
 O19 O 0.47609 -0.23953 0.43562
 O20 O 0.47553 -0.28519 0.56421
 O21 O 0.47615 -0.23937 0.56408
 O22 O 0.47554 -0.28533 0.43616
 Cu23 Cu 0.52469 -0.23833 0.50000
 Cu24 Cu 0.47135 -0.26452 0.50001
 C25 C 0.49765 -0.28239 0.41528
 C26 C 0.49845 -0.22060 0.58524
 C27 C 0.49764 -0.28220 0.58522
 C28 C 0.49839 -0.22079 0.41438
 O29 O 1.21679 0.73783 0.56231
 O30 O 1.26223 0.78388 0.43470
 O31 O 1.21703 0.73813 0.43425
 O32 O 1.26191 0.78357 0.56317
 O33 O 1.28448 0.76172 0.56314
 O34 O 1.23963 0.71631 0.43432
 O35 O 1.28479 0.76203 0.43478
 O36 O 1.23940 0.71602 0.56229
 Cu37 Cu 1.23723 0.76309 0.49858
 Cu38 Cu 1.26439 0.73685 0.49861
 C39 C 1.22023 0.71895 0.58322
 C40 C 1.28133 0.78087 0.41363
 C41 C 1.22053 0.71932 0.41323
 C42 C 1.28090 0.78043 0.58452
 O43 O 0.73734 0.52213 0.56475
 O44 O 0.78302 0.52192 0.43762
 O45 O 0.73750 0.52167 0.43645
 O46 O 0.78250 0.52164 0.56585
 O47 O 0.76020 0.47722 0.56603
 O48 O 0.71524 0.47725 0.43659
 O49 O 0.76081 0.47750 0.43772
 O50 O 0.71501 0.47772 0.56498
 Cu51 Cu 0.76233 0.52632 0.50116
 Cu52 Cu 0.73556 0.47293 0.50138
 C53 C 0.71832 0.49999 0.58591
 C54 C 0.77980 0.49971 0.41663
 C55 C 0.71864 0.49946 0.41508
 C56 C 0.77910 0.49941 0.58727
 O57 O 0.47841 0.26159 0.43698
 O58 O 0.47910 0.21630 0.56489
 O59 O 0.47834 0.26139 0.56557
 O60 O 0.47950 0.21670 0.43694
 O61 O 0.52389 0.23952 0.43754
 O62 O 0.52272 0.28414 0.56612
 O63 O 0.52348 0.23905 0.56547
 O64 O 0.52279 0.28440 0.43756
 Cu65 Cu 0.47435 0.23673 0.50105
 Cu66 Cu 0.52770 0.26413 0.50174
 C67 C 0.50049 0.28074 0.41596
 C68 C 0.50138 0.21978 0.58609
 C69 C 0.50036 0.28042 0.58722
 C70 C 0.50189 0.22036 0.41620
 O71 O 0.78383 0.26215 0.56544
 O72 O 0.73784 0.21686 0.43807
 O73 O 0.78332 0.26218 0.43703
 O74 O 0.73769 0.21738 0.56589
 O75 O 0.71609 0.24021 0.56573
 O76 O 0.76159 0.28487 0.43685
 O77 O 0.71607 0.23952 0.43783
 O78 O 0.76227 0.28500 0.56530
 Cu79 Cu 0.76290 0.23739 0.50168
 Cu80 Cu 0.73687 0.26475 0.50143
 C81 C 0.78099 0.28136 0.58647
 C82 C 0.71898 0.22028 0.41713
 C83 C 0.78024 0.28121 0.41556
 C84 C 0.71893 0.22099 0.58675
 O85 O 1.03668 0.55810 0.12395
 O86 O 1.06646 0.55302 0.05846
 C87 C 1.06077 0.56435 0.10613
 O88 O 0.96211 0.43905 0.11600
 O89 O 0.93236 0.44614 0.05556
 C90 C 0.93803 0.43324 0.09921
 O91 O 1.03718 0.47868 0.12137
 O92 O 1.06669 0.51449 0.05792
 C93 C 1.06119 0.49700 0.10441
 O94 O 0.96167 0.52276 0.11747
 O95 O 0.93216 0.48607 0.05641
 C96 C 0.93763 0.50442 0.10053
 Zr97 Zr 0.99931 0.52941 0.08292
 O98 O 0.99857 0.53250 0.18701
 O99 O 1.00015 0.56636 0.07163
 Zr100 Zr 0.99963 0.47058 0.08256
 O101 O 0.99717 0.46837 0.18705
 O102 O 1.00266 0.43537 0.07864
 O103 O 1.02324 0.51193 0.09583
 O104 O 0.97629 0.48827 0.09515
 O105 O 0.96159 0.52314 -0.11652
 O106 O 0.93214 0.48621 -0.05601
 C107 C 0.93760 0.50470 -0.09973
 O108 O 1.03706 0.47894 -0.12258
 O109 O 1.06662 0.51456 -0.05877
 C110 C 1.06108 0.49716 -0.10539
 O111 O 0.96192 0.43926 -0.11709
 O112 O 0.93224 0.44629 -0.05629
 C113 C 0.93784 0.43341 -0.10014
 O114 O 1.03656 0.55829 -0.12427
 O115 O 1.06641 0.55310 -0.05924
 C116 C 1.06068 0.56448 -0.10681
 Zr117 Zr 0.99927 0.52972 -0.08262
 O118 O 0.99684 0.53184 -0.18651
 O119 O 1.00196 0.56774 -0.07445
 Zr120 Zr 0.99952 0.47082 -0.08382
 O121 O 0.99659 0.46874 -0.18830
 O122 O 1.00264 0.43565 -0.08121
 Zr123 Zr 1.03966 0.52034 -0.00038
 Zr124 Zr 0.95935 0.47983 -0.00017
 O125 O 0.97627 0.48864 -0.09561
 O126 O 1.02315 0.51222 -0.09655
 O127 O 0.97499 0.52175 0.00032
 O128 O 1.02314 0.47837 -0.00072
 O129 O 1.02308 0.54572 0.00019
 O130 O 0.97548 0.45398 -0.00061
 H131 H 0.96442 0.48218 0.13443
 H132 H 1.03546 0.47099 -0.00081
 H133 H 0.96446 0.48272 -0.13502
 H134 H 1.03552 0.56539 0.00023
 H135 H 0.98639 0.42127 0.05629
 H136 H 0.98657 0.42154 -0.05827
 H137 H 1.01126 0.48583 -0.20612
 H138 H 1.00294 0.51995 -0.20522
 H139 H 0.98535 0.56498 -0.05270
 H140 H 1.00061 0.57306 0.11701
 H141 H 0.99505 0.51511 0.20534
 H142 H 1.01096 0.48604 0.20443
 O143 O 0.52048 0.55823 -0.12461
 O144 O 0.48549 0.55296 -0.05935
 C145 C 0.50257 0.56441 -0.10687
 O146 O 0.47643 0.43908 -0.11651
 O147 O 0.51334 0.44640 -0.05620
 C148 C 0.49478 0.43338 -0.09967
 O149 O 0.44084 0.47859 -0.12223
 O150 O 0.44687 0.51431 -0.05878
 C151 C 0.43501 0.49683 -0.10532
 O152 O 0.56031 0.52303 -0.11834
 O153 O 0.55331 0.48636 -0.05723
 C154 C 0.56613 0.50476 -0.10134
 Zr155 Zr 0.52924 0.52955 -0.08371
 O156 O 0.53303 0.53280 -0.18781
 O157 O 0.56525 0.56651 -0.07217
 Zr158 Zr 0.47031 0.47057 -0.08320
 O159 O 0.47048 0.46828 -0.18766
 O160 O 0.43218 0.43529 -0.07888
 O161 O 0.48785 0.51192 -0.09657
 O162 O 0.51133 0.48843 -0.09590
 O163 O 0.56072 0.52317 0.11573
 O164 O 0.55345 0.48634 0.05509
 C165 C 0.56641 0.50481 0.09878
 O166 O 0.44116 0.47880 0.12195
 O167 O 0.44701 0.51439 0.05814
 C168 C 0.43527 0.49698 0.10485
 O169 O 0.47702 0.43951 0.11695
 O170 O 0.51362 0.44658 0.05579
 C171 C 0.49530 0.43375 0.09995
 O172 O 0.52074 0.55834 0.12331
 O173 O 0.48565 0.55306 0.05836
 C174 C 0.50280 0.56453 0.10578
 Zr175 Zr 0.52959 0.52983 0.08181
 O176 O 0.53418 0.53218 0.18567
 O177 O 0.56480 0.56789 0.07340
 Zr178 Zr 0.47062 0.47078 0.08302
 O179 O 0.47107 0.46841 0.18749
 O180 O 0.43249 0.43548 0.07928
 Zr181 Zr 0.47976 0.52028 -0.00041
 Zr182 Zr 0.51992 0.48006 -0.00057
 O183 O 0.51168 0.48876 0.09486
 O184 O 0.48823 0.51218 0.09576
 O185 O 0.54601 0.52200 -0.00110
 O186 O 0.45449 0.47830 -0.00003
 O187 O 0.52166 0.54577 -0.00100
 O188 O 0.47801 0.45404 -0.00005
 H189 H 0.51713 0.48234 -0.13515
 H190 H 0.43480 0.47089 0.00007
 H191 H 0.51762 0.48292 0.13438
 H192 H 0.52881 0.56544 -0.00108
 H193 H 0.43445 0.42126 -0.05641
 H194 H 0.43484 0.42120 0.05859
 H195 H 0.47390 0.48565 0.20539
 H196 H 0.51653 0.51920 0.20438
 H197 H 0.57890 0.56510 0.05321
 H198 H 0.57152 0.57329 -0.11749
 H199 H 0.51970 0.51519 -0.20618
 H200 H 0.47473 0.48606 -0.20513
 O201 O 0.55828 0.03697 -0.12260
 O202 O 0.55290 0.06684 -0.05812
 C203 C 0.56442 0.06109 -0.10524
 O204 O 0.43926 -0.03755 -0.11715
 O205 O 0.44623 -0.06728 -0.05621
 C206 C 0.43344 -0.06163 -0.10023
 O207 O 0.47891 0.03757 -0.12260
 O208 O 0.51438 0.06712 -0.05837
 C209 C 0.49707 0.06161 -0.10530
 O210 O 0.52298 -0.03804 -0.11582
 O211 O 0.48614 -0.06754 -0.05518
 C212 C 0.50459 -0.06208 -0.09897
 Zr213 Zr 0.52950 -0.00037 -0.08166
 O214 O 0.53315 -0.00131 -0.18552
 O215 O 0.56635 0.00044 -0.06858
 Zr216 Zr 0.47073 -0.00001 -0.08356
 O217 O 0.46917 -0.00252 -0.18808
 O218 O 0.43554 0.00304 -0.08161
 O219 O 0.51210 0.02359 -0.09576
 O220 O 0.48848 -0.02338 -0.09503
 O221 O 0.52271 -0.03804 0.11737
 O222 O 0.48572 -0.06753 0.05710
 C223 C 0.50426 -0.06206 0.10066
 O224 O 0.47915 0.03723 0.12396
 O225 O 0.51426 0.06698 0.05901
 C226 C 0.49715 0.06131 0.10644
 O227 O 0.43908 -0.03787 0.11706
 O228 O 0.44591 -0.06752 0.05562
 C229 C 0.43319 -0.06196 0.09993
 O230 O 0.55863 0.03713 0.12300
 O231 O 0.55286 0.06690 0.05909
 C232 C 0.56461 0.06123 0.10587
 Zr233 Zr 0.52897 -0.00033 0.08422
 O234 O 0.52792 -0.00307 0.18874
 O235 O 0.56692 0.00208 0.08227
 Zr236 Zr 0.47008 -0.00014 0.08240
 O237 O 0.46507 -0.00233 0.18612
 O238 O 0.43507 0.00302 0.07263
 Zr239 Zr 0.52007 0.04006 0.00039
 Zr240 Zr 0.47965 -0.04031 0.00034
 O241 O 0.48789 -0.02337 0.09576
 O242 O 0.51145 0.02353 0.09657
 O243 O 0.52153 -0.02459 0.00132
 O244 O 0.47815 0.02363 -0.00052
 O245 O 0.54534 0.02335 0.00119
 O246 O 0.45371 -0.02428 -0.00068
 H247 H 0.48257 -0.03525 -0.13432
 H248 H 0.47098 0.03613 -0.00057
 H249 H 0.48196 -0.03513 0.13528
 H250 H 0.56502 0.03565 0.00121
 H251 H 0.42163 -0.01275 -0.05735
 H252 H 0.42019 -0.01475 0.05893
 H253 H 0.48271 0.00254 0.20533
 H254 H 0.52549 0.01166 0.20612
 H255 H 0.56514 -0.01298 0.05482
 H256 H 0.57348 0.00123 -0.11360
 H257 H 0.51626 -0.00378 -0.20460
 H258 H 0.48679 0.01154 -0.20507
 C259 C 1.12357 0.50007 0.20900
 C260 C 1.14499 0.52506 0.23071
 C261 C 1.16565 0.52581 0.27092
 C262 C 1.16492 0.50160 0.28856
 C263 C 1.14384 0.47667 0.26551
 C264 C 1.12307 0.47590 0.22576
 C265 C 1.10208 0.45071 0.20384
 C266 C 1.10164 0.42697 0.22059
 C267 C 1.12197 0.42773 0.25935
 C268 C 1.14288 0.45223 0.28170
 C269 C 1.18663 0.55099 0.29291
 C270 C 1.18734 0.57476 0.27511
 C271 C 1.16734 0.57405 0.23511
 C272 C 1.14626 0.54953 0.21334
 C273 C 1.18529 0.50222 0.33222
 C274 C 1.20170 0.50250 0.36983
 C275 C 1.10169 0.49911 0.17090
 C276 C 1.08326 0.49812 0.14009
 H277 H 1.08583 0.44907 0.17350
 H278 H 1.08544 0.40789 0.20338
 H279 H 1.12156 0.40924 0.27219
 H280 H 1.15824 0.45179 0.31166
 H281 H 1.20271 0.55257 0.32386
 H282 H 1.20354 0.59385 0.29234
 H283 H 1.16806 0.59259 0.22123
 H284 H 1.13106 0.55000 0.18272
 C285 C 0.49992 0.62381 0.21110
 C286 C 0.47491 0.62068 0.23112
 C287 C 0.47415 0.64058 0.27135
 C288 C 0.49838 0.66362 0.29075
 C289 C 0.52336 0.66699 0.26966
 C290 C 0.52413 0.64703 0.22975
 C291 C 0.54935 0.65080 0.20959
 C292 C 0.57313 0.67359 0.22841
 C293 C 0.57238 0.69307 0.26754
 C294 C 0.54784 0.68992 0.28805
 C295 C 0.44894 0.63679 0.29165
 C296 C 0.42515 0.61413 0.27226
 C297 C 0.42589 0.59486 0.23227
 C298 C 0.45043 0.59792 0.21203
 C299 C 0.49772 0.68344 0.33408
 C300 C 0.49753 0.69969 0.37143
 C301 C 0.50081 0.60288 0.17288
 C302 C 0.50172 0.58543 0.14189
 H303 H 0.55098 0.63622 0.17906
 H304 H 0.59224 0.67615 0.21256
 H305 H 0.59090 0.71073 0.28209
 H306 H 0.54831 0.70565 0.31840
 H307 H 0.44735 0.65129 0.32258
 H308 H 0.40605 0.61154 0.28826
 H309 H 0.40734 0.57733 0.21721
 H310 H 0.44997 0.58230 0.18127
 C311 C 0.37479 -0.12414 0.20678
 C312 C 0.34747 -0.13733 0.18762
 C313 C 0.32769 -0.15773 0.22859
 C314 C 0.33540 -0.16507 0.28804
 C315 C 0.36283 -0.15241 0.30626
 C316 C 0.38256 -0.13177 0.26575
 C317 C 0.40980 -0.11914 0.28558
 C318 C 0.41734 -0.12682 0.34345
 C319 C 0.39808 -0.14714 0.38277
 C320 C 0.37111 -0.15982 0.36471
 C321 C 0.30045 -0.17031 0.20894
 C322 C 0.29299 -0.16309 0.15021
 C323 C 0.31235 -0.14331 0.10990
 C324 C 0.33931 -0.13048 0.12817
 C325 C 0.31519 -0.18512 0.33148
 C326 C 0.29895 -0.20135 0.36925
 C327 C 0.39487 -0.10234 0.16683
 C328 C 0.41199 -0.08399 0.13519
 H329 H 0.42556 -0.10336 0.25641
 H330 H 0.43828 -0.11707 0.35761
 H331 H 0.40404 -0.15311 0.42754
 H332 H 0.35688 -0.17550 0.39698
 H333 H 0.28468 -0.18584 0.23863
 H334 H 0.27207 -0.17292 0.13588
 H335 H 0.30646 -0.13782 0.06427
 H336 H 0.35365 -0.11523 0.09518
 C337 C 0.87544 0.50224 0.20417
 C338 C 0.87711 0.52651 0.22533
 C339 C 0.85667 0.52579 0.26626
 C340 C 0.83474 0.50080 0.28618
 C341 C 0.83278 0.47652 0.26393
 C342 C 0.85311 0.47724 0.22250
 C343 C 0.85060 0.45271 0.20052
 C344 C 0.82864 0.42818 0.21897
 C345 C 0.80896 0.42747 0.26012
 C346 C 0.81089 0.45131 0.28246
 C347 C 0.85881 0.55033 0.28676
 C348 C 0.88054 0.57487 0.26746
 C349 C 0.90055 0.57557 0.22761
 C350 C 0.89897 0.55173 0.20666
 C351 C 0.81467 0.50011 0.33106
 C352 C 0.79845 0.49978 0.36943
 C353 C 0.89716 0.50303 0.16563
 C354 C 0.91553 0.50378 0.13507
 H355 H 0.86550 0.45222 0.16885
 H356 H 0.82703 0.40960 0.20177
 H357 H 0.79208 0.40836 0.27479
 H358 H 0.79502 0.44974 0.31417
 H359 H 0.84374 0.55084 0.31772
 H360 H 0.88184 0.59345 0.28353
 H361 H 0.91739 0.59468 0.21279
 H362 H 0.91501 0.55332 0.17559
 C363 C 0.49883 0.37504 0.20605
 C364 C 0.51493 0.38283 0.26379
 C365 C 0.51576 0.36302 0.30422
 C366 C 0.50031 0.33551 0.28700
 C367 C 0.48454 0.32778 0.22871
 C368 C 0.48388 0.34762 0.18797
 C369 C 0.46804 0.33944 0.12987
 C370 C 0.45321 0.31241 0.11253
 C371 C 0.45374 0.29299 0.15250
 C372 C 0.46918 0.30047 0.21001
 C373 C 0.53205 0.37130 0.36163
 C374 C 0.54705 0.39835 0.37867
 C375 C 0.54613 0.41771 0.33933
 C376 C 0.53030 0.41016 0.28251
 C377 C 0.50018 0.31531 0.33046
 C378 C 0.50024 0.29917 0.36848
 C379 C 0.49721 0.39524 0.16634
 C380 C 0.49608 0.41247 0.13494
 H381 H 0.46699 0.35382 0.09722
 H382 H 0.44121 0.30651 0.06789
 H383 H 0.44213 0.27201 0.13887
 H384 H 0.46899 0.28465 0.23950
 H385 H 0.53343 0.35700 0.39389
 H386 H 0.55943 0.40431 0.42267
 H387 H 0.55787 0.43871 0.35269
 H388 H 0.53039 0.42599 0.25334
 C389 C 0.62426 0.12329 0.21045
 C390 C 0.62185 0.14586 0.22787
 C391 C 0.64169 0.16639 0.26842
 C392 C 0.66399 0.16441 0.29056
 C393 C 0.66670 0.14212 0.27197
 C394 C 0.64677 0.12151 0.23179
 C395 C 0.64988 0.09939 0.21403
 C396 C 0.67201 0.09767 0.23540
 C397 C 0.69145 0.11779 0.27481
 C398 C 0.68893 0.13980 0.29306
 C399 C 0.63860 0.18850 0.28623
 C400 C 0.61672 0.19047 0.26392
 C401 C 0.59754 0.17062 0.22347
 C402 C 0.59989 0.14845 0.20576
 C403 C 0.68381 0.18490 0.33378
 C404 C 0.70005 0.20143 0.37094
 C405 C 0.60324 0.10154 0.17228
 C406 C 0.58569 0.08321 0.14151
 H407 H 0.63531 0.08326 0.18336
 H408 H 0.67408 0.08063 0.22128
 H409 H 0.70859 0.11634 0.29135
 H410 H 0.70459 0.15494 0.32375
 H411 H 0.65306 0.20451 0.31741
 H412 H 0.61466 0.20752 0.27805
 H413 H 0.58060 0.17227 0.20622
 H414 H 0.58435 0.13342 0.17460
 C415 C 0.49956 0.12391 -0.20945
 C416 C 0.52449 0.14649 -0.22694
 C417 C 0.52512 0.16708 -0.26731
 C418 C 0.50082 0.16516 -0.28910
 C419 C 0.47588 0.14290 -0.27026
 C420 C 0.47525 0.12219 -0.23046
 C421 C 0.45008 0.10003 -0.21278
 C422 C 0.42622 0.09839 -0.23374
 C423 C 0.42683 0.11864 -0.27259
 C424 C 0.45132 0.14069 -0.29080
 C425 C 0.55028 0.18917 -0.28531
 C426 C 0.57413 0.19106 -0.26337
 C427 C 0.57351 0.17116 -0.22306
 C428 C 0.54903 0.14901 -0.20517
 C429 C 0.50139 0.18559 -0.33254
 C430 C 0.50154 0.20200 -0.36999
 C431 C 0.49887 0.10209 -0.17150
 C432 C 0.49808 0.08370 -0.14085
 H433 H 0.44855 0.08379 -0.18253
 H434 H 0.40714 0.08130 -0.21974
 H435 H 0.40824 0.11728 -0.28874
 H436 H 0.45075 0.15594 -0.32102
 H437 H 0.55178 0.20521 -0.31636
 H438 H 0.59321 0.20807 -0.27769
 H439 H 0.59211 0.17274 -0.20611
 H440 H 0.54958 0.13394 -0.17417
 C441 C 0.62612 0.50260 -0.20488
 C442 C 0.64961 0.52679 -0.22220
 C443 C 0.66936 0.52607 -0.26300
 C444 C 0.66545 0.50115 -0.28650
 C445 C 0.64217 0.47692 -0.26824
 C446 C 0.62251 0.47763 -0.22703
 C447 C 0.59948 0.45313 -0.20920
 C448 C 0.59597 0.42863 -0.23150
 C449 C 0.61502 0.42797 -0.27243
 C450 C 0.63792 0.45177 -0.29069
 C451 C 0.69263 0.55053 -0.27984
 C452 C 0.69627 0.57501 -0.25712
 C453 C 0.67694 0.57572 -0.21731
 C454 C 0.65385 0.55196 -0.19989
 C455 C 0.68491 0.50054 -0.33119
 C456 C 0.70079 0.50017 -0.36951
 C457 C 0.60524 0.50349 -0.16644
 C458 C 0.58762 0.50421 -0.13587
 H459 H 0.58401 0.45262 -0.17778
 H460 H 0.57827 0.41007 -0.21729
 H461 H 0.61208 0.40891 -0.29006
 H462 H 0.65223 0.45021 -0.32240
 H463 H 0.70825 0.55101 -0.31063
 H464 H 0.71418 0.59354 -0.27049
 H465 H 0.67986 0.59479 -0.19980
 H466 H 0.63941 0.55355 -0.16873
 C467 C 0.87584 0.37308 -0.20341
 C468 C 0.85349 0.37572 -0.22169
 C469 C 0.83318 0.35613 -0.26317
 C470 C 0.83518 0.33386 -0.28558
 C471 C 0.85716 0.33084 -0.26583
 C472 C 0.87756 0.35052 -0.22471
 C473 C 0.89944 0.34717 -0.20609
 C474 C 0.90110 0.32499 -0.22735
 C475 C 0.88115 0.30574 -0.26748
 C476 C 0.85939 0.30853 -0.28670
 C477 C 0.81125 0.35943 -0.28166
 C478 C 0.80928 0.38130 -0.25924
 C479 C 0.82897 0.40028 -0.21809
 C480 C 0.85094 0.39772 -0.19966
 C481 C 0.81509 0.31452 -0.33046
 C482 C 0.79879 0.29876 -0.36888
 C483 C 0.89752 0.39403 -0.16486
 C484 C 0.91582 0.41175 -0.13437
 H485 H 0.91543 0.36158 -0.17484
 H486 H 0.91795 0.32273 -0.21255
 H487 H 0.88253 0.28854 -0.28383
 H488 H 0.84437 0.29301 -0.31791
 H489 H 0.79538 0.34513 -0.31339
 H490 H 0.79238 0.38350 -0.27387
 H491 H 0.82732 0.41722 -0.20080
 H492 H 0.86583 0.41311 -0.16794
 C493 C 0.50167 -0.12451 -0.20288
 C494 C 0.52562 -0.12469 -0.21789
 C495 C 0.52471 -0.14531 -0.25849
 C496 C 0.49986 -0.16555 -0.28422
 C497 C 0.47583 -0.16568 -0.26816
 C498 C 0.47672 -0.14515 -0.22717
 C499 C 0.45242 -0.14576 -0.21166
 C500 C 0.42795 -0.16611 -0.23576
 C501 C 0.42711 -0.18602 -0.27635
 C502 C 0.45071 -0.18590 -0.29252
 C503 C 0.54893 -0.14504 -0.27280
 C504 C 0.57336 -0.12495 -0.24781
 C505 C 0.57426 -0.10473 -0.20832
 C506 C 0.55074 -0.10449 -0.19340
 C507 C 0.49916 -0.18566 -0.32897
 C508 C 0.49874 -0.20191 -0.36737
 C509 C 0.50284 -0.10265 -0.16428
 C510 C 0.50384 -0.08420 -0.13356
 H511 H 0.45206 -0.13062 -0.18062
 H512 H 0.40953 -0.16638 -0.22314
 H513 H 0.40806 -0.20167 -0.29530
 H514 H 0.44903 -0.20188 -0.32404
 H515 H 0.54926 -0.16035 -0.30324
 H516 H 0.59169 -0.12507 -0.25916
 H517 H 0.59329 -0.08915 -0.18909
 H518 H 0.55247 -0.08836 -0.16241
 C519 C 0.37660 0.50069 -0.21189
 C520 C 0.38406 0.51671 -0.26978
 C521 C 0.36407 0.51772 -0.30902
 C522 C 0.33670 0.50249 -0.29053
 C523 C 0.32928 0.48673 -0.23222
 C524 C 0.34931 0.48591 -0.19265
 C525 C 0.34143 0.47006 -0.13450
 C526 C 0.31453 0.45541 -0.11600
 C527 C 0.29494 0.45612 -0.15484
 C528 C 0.30212 0.47156 -0.21236
 C529 C 0.37205 0.53398 -0.36650
 C530 C 0.39897 0.54875 -0.38479
 C531 C 0.41848 0.54761 -0.34665
 C532 C 0.41124 0.53181 -0.28979
 C533 C 0.31626 0.50246 -0.33284
 C534 C 0.29983 0.50247 -0.36991
 C535 C 0.39698 0.49915 -0.17286
 C536 C 0.41416 0.49796 -0.14141
 H537 H 0.35594 0.46885 -0.10273
 H538 H 0.30886 0.44342 -0.07132
 H539 H 0.27407 0.44466 -0.14030
 H540 H 0.28617 0.47151 -0.24092
 H541 H 0.35762 0.53552 -0.39784
 H542 H 0.40470 0.56112 -0.42880
 H543 H 0.43938 0.55917 -0.36096
 H544 H 0.42718 0.53171 -0.26157
 C545 C 1.12326 0.62256 -0.21327
 C546 C 1.13622 0.64974 -0.19280
 C547 C 1.15700 0.66987 -0.23224
 C548 C 1.16494 0.66265 -0.29143
 C549 C 1.15259 0.63534 -0.31073
 C550 C 1.13155 0.61526 -0.27181
 C551 C 1.11921 0.58816 -0.29273
 C552 C 1.12761 0.58107 -0.35006
 C553 C 1.14834 0.60067 -0.38780
 C554 C 1.16071 0.62752 -0.36871
 C555 C 1.16934 0.69696 -0.21135
 C556 C 1.16154 0.70394 -0.15284
 C557 C 1.14140 0.68423 -0.11397
 C558 C 1.12878 0.65741 -0.13352
 C559 C 1.18518 0.68326 -0.33367
 C560 C 1.20149 0.69991 -0.37052
 C561 C 1.10112 0.60217 -0.17480
 C562 C 1.08264 0.58511 -0.14344
 H563 H 1.10313 0.57216 -0.26476
 H564 H 1.11811 0.56022 -0.36502
 H565 H 1.15489 0.59505 -0.43213
 H566 H 1.17675 0.64203 -0.39973
 H567 H 1.18516 0.71299 -0.23985
 H568 H 1.17122 0.72475 -0.13753
 H569 H 1.13548 0.68974 -0.06846
 H570 H 1.11321 0.64280 -0.10164
 C571 C 0.87527 0.50111 -0.20476
 C572 C 0.86457 0.51795 -0.18996
 C573 C 0.84379 0.51700 -0.22993
 C574 C 0.83379 0.49913 -0.28429
 C575 C 0.84412 0.48187 -0.29826
 C576 C 0.86504 0.48297 -0.25861
 C577 C 0.87542 0.46590 -0.27431
 C578 C 0.86530 0.44814 -0.32746
 C579 C 0.84462 0.44685 -0.36578
 C580 C 0.83411 0.46350 -0.35166
 C581 C 0.83357 0.53422 -0.21458
 C582 C 0.84357 0.55183 -0.16113
 C583 C 0.86389 0.55274 -0.12201
 C584 C 0.87436 0.53605 -0.13605
 C585 C 0.81373 0.49923 -0.32761
 C586 C 0.79759 0.49934 -0.36541
 C587 C 0.89717 0.50277 -0.16563
 C588 C 0.91556 0.50392 -0.13450
 H589 H 0.89136 0.46599 -0.24566
 H590 H 0.87337 0.43514 -0.33857
 H591 H 0.83668 0.43288 -0.40670
 H592 H 0.81807 0.46179 -0.38300
 H593 H 0.81775 0.53422 -0.24356
 H594 H 0.83552 0.56485 -0.15002
 H595 H 0.87161 0.56646 -0.08057
 H596 H 0.89016 0.53749 -0.10424
 C597 C 0.49835 0.37452 -0.20407
 C598 C 0.51456 0.38232 -0.26156
 C599 C 0.51561 0.36253 -0.30141
 C600 C 0.50017 0.33504 -0.28395
 C601 C 0.48434 0.32731 -0.22580
 C602 C 0.48352 0.34715 -0.18556
 C603 C 0.46762 0.33901 -0.12757
 C604 C 0.45286 0.31200 -0.10992
 C605 C 0.45356 0.29257 -0.14944
 C606 C 0.46909 0.30002 -0.20678
 C607 C 0.53209 0.37081 -0.35847
 C608 C 0.54696 0.39784 -0.37587
 C609 C 0.54574 0.41718 -0.33722
 C610 C 0.52979 0.40964 -0.28063
 C611 C 0.49999 0.31483 -0.32725
 C612 C 0.50003 0.29871 -0.36523
 C613 C 0.49656 0.39469 -0.16496
 C614 C 0.49540 0.41197 -0.13407
 H615 H 0.46645 0.35340 -0.09527
 H616 H 0.44080 0.30612 -0.06540
 H617 H 0.44202 0.27161 -0.13556
 H618 H 0.46904 0.28421 -0.23588
 H619 H 0.53372 0.35653 -0.39015
 H620 H 0.55949 0.40381 -0.41959
 H621 H 0.55737 0.43816 -0.35086
 H622 H 0.52968 0.42546 -0.25192
 C623 C 0.62280 0.12343 -0.21117
 C624 C 0.61524 0.13367 -0.26569
 C625 C 0.63528 0.15488 -0.30425
 C626 C 0.66275 0.16545 -0.28858
 C627 C 0.67028 0.15535 -0.23375
 C628 C 0.65023 0.13434 -0.19474
 C629 C 0.65823 0.12455 -0.14014
 C630 C 0.68528 0.13516 -0.12468
 C631 C 0.70489 0.15564 -0.16302
 C632 C 0.69760 0.16570 -0.21698
 C633 C 0.62724 0.16492 -0.35829
 C634 C 0.60019 0.15415 -0.37408
 C635 C 0.58062 0.13320 -0.33681
 C636 C 0.58793 0.12304 -0.28309
 C637 C 0.68321 0.18587 -0.33059
 C638 C 0.69985 0.20228 -0.36718
 C639 C 0.60236 0.10139 -0.17273
 C640 C 0.58518 0.08299 -0.14150
 H641 H 0.64370 0.10862 -0.10889
 H642 H 0.69105 0.12743 -0.08278
 H643 H 0.72588 0.16378 -0.15090
 H644 H 0.71358 0.18167 -0.24526
 H645 H 0.64173 0.18118 -0.38883
 H646 H 0.59440 0.16211 -0.41547
 H647 H 0.55963 0.12495 -0.34914
 H648 H 0.57195 0.10688 -0.25526
 C649 C 1.12367 0.50010 -0.20785
 C650 C 1.14511 0.52510 -0.22943
 C651 C 1.16593 0.52587 -0.26886
 C652 C 1.16531 0.50167 -0.28582
 C653 C 1.14423 0.47673 -0.26277
 C654 C 1.12332 0.47595 -0.22374
 C655 C 1.10233 0.45077 -0.20170
 C656 C 1.10202 0.42705 -0.21772
 C657 C 1.12248 0.42781 -0.25588
 C658 C 1.14339 0.45231 -0.27829
 C659 C 1.18693 0.55105 -0.29081
 C660 C 1.18750 0.57481 -0.27369
 C661 C 1.16733 0.57408 -0.23443
 C662 C 1.14623 0.54956 -0.21270
 C663 C 1.18572 0.50228 -0.32906
 C664 C 1.20213 0.50255 -0.36653
 C665 C 1.10163 0.49913 -0.17076
 C666 C 1.08313 0.49818 -0.14062
 H667 H 1.08598 0.44914 -0.17181
 H668 H 1.08582 0.40797 -0.20042
 H669 H 1.12216 0.40933 -0.26819
 H670 H 1.15887 0.45187 -0.30774
 H671 H 1.20315 0.55264 -0.32119
 H672 H 1.20372 0.59390 -0.29087
 H673 H 1.16793 0.59261 -0.22105
 H674 H 1.13091 0.55001 -0.18262
 C675 C 0.49980 0.62391 -0.21114
 C676 C 0.47481 0.62081 -0.23114
 C677 C 0.47407 0.64083 -0.27091
 C678 C 0.49832 0.66391 -0.28995
 C679 C 0.52329 0.66726 -0.26884
 C680 C 0.52403 0.64719 -0.22932
 C681 C 0.54924 0.65089 -0.20915
 C682 C 0.57303 0.67376 -0.22756
 C683 C 0.57231 0.69338 -0.26627
 C684 C 0.54778 0.69028 -0.28681
 C685 C 0.44888 0.63712 -0.29116
 C686 C 0.42507 0.61437 -0.27218
 C687 C 0.42579 0.59493 -0.23271
 C688 C 0.45031 0.59794 -0.21250
 C689 C 0.49770 0.68374 -0.33324
 C690 C 0.49752 0.69996 -0.37071
 C691 C 0.50066 0.60289 -0.17336
 C692 C 0.50153 0.58536 -0.14268
 H693 H 0.55084 0.63621 -0.17895
 H694 H 0.59213 0.67627 -0.21170
 H695 H 0.59084 0.71110 -0.28049
 H696 H 0.54827 0.70611 -0.31681
 H697 H 0.44731 0.65175 -0.32167
 H698 H 0.40598 0.61185 -0.28810
 H699 H 0.40723 0.57733 -0.21800
 H700 H 0.44984 0.58220 -0.18213
 C701 C 0.37494 -0.12373 -0.20622
 C702 C 0.34765 -0.13693 -0.18690
 C703 C 0.32790 -0.15751 -0.22745
 C704 C 0.33564 -0.16492 -0.28668
 C705 C 0.36305 -0.15222 -0.30504
 C706 C 0.38274 -0.13141 -0.26495
 C707 C 0.40996 -0.11863 -0.28500
 C708 C 0.41752 -0.12639 -0.34268
 C709 C 0.39829 -0.14694 -0.38151
 C710 C 0.37134 -0.15974 -0.36323
 C711 C 0.30069 -0.17017 -0.20765
 C712 C 0.29322 -0.16279 -0.14924
 C713 C 0.31255 -0.14276 -0.10941
 C714 C 0.33949 -0.12989 -0.12779
 C715 C 0.31547 -0.18491 -0.33008
 C716 C 0.29930 -0.20103 -0.36802
 C717 C 0.39500 -0.10192 -0.16654
 C718 C 0.41217 -0.08358 -0.13516
 H719 H 0.42570 -0.10268 -0.25621
 H720 H 0.43843 -0.11652 -0.35703
 H721 H 0.40427 -0.15299 -0.42608
 H722 H 0.35714 -0.17562 -0.39510
 H723 H 0.28494 -0.18590 -0.23696
 H724 H 0.27231 -0.17268 -0.13478
 H725 H 0.30665 -0.13711 -0.06408
 H726 H 0.35381 -0.11443 -0.09520
 C727 C 0.50169 -0.12463 0.20287
 C728 C 0.52563 -0.12483 0.21783
 C729 C 0.52468 -0.14552 0.25827
 C730 C 0.49980 -0.16579 0.28378
 C731 C 0.47579 -0.16589 0.26770
 C732 C 0.47672 -0.14531 0.22683
 C733 C 0.45243 -0.14590 0.21113
 C734 C 0.42794 -0.16625 0.23514
 C735 C 0.42707 -0.18618 0.27576
 C736 C 0.45065 -0.18612 0.29198
 C737 C 0.54889 -0.14527 0.27272
 C738 C 0.57335 -0.12512 0.24798
 C739 C 0.57428 -0.10486 0.20854
 C740 C 0.55076 -0.10461 0.19349
 C741 C 0.49907 -0.18592 0.32845
 C742 C 0.49866 -0.20216 0.36688
 C743 C 0.50286 -0.10265 0.16492
 C744 C 0.50371 -0.08416 0.13475
 H745 H 0.45209 -0.13074 0.18001
 H746 H 0.40954 -0.16648 0.22240
 H747 H 0.40800 -0.20181 0.29469
 H748 H 0.44894 -0.20213 0.32350
 H749 H 0.54919 -0.16062 0.30310
 H750 H 0.59167 -0.12524 0.25949
 H751 H 0.59332 -0.08925 0.18946
 H752 H 0.55250 -0.08845 0.16251
 C753 C 0.37688 0.50082 0.21084
 C754 C 0.38435 0.51680 0.26871
 C755 C 0.36436 0.51778 0.30787
 C756 C 0.33701 0.50254 0.28930
 C757 C 0.32958 0.48681 0.23099
 C758 C 0.34961 0.48605 0.19145
 C759 C 0.34176 0.47028 0.13323
 C760 C 0.31487 0.45560 0.11469
 C761 C 0.29526 0.45622 0.15356
 C762 C 0.30241 0.47161 0.21112
 C763 C 0.37232 0.53401 0.36537
 C764 C 0.39924 0.54877 0.38374
 C765 C 0.41876 0.54766 0.34566
 C766 C 0.41152 0.53189 0.28878
 C767 C 0.31658 0.50244 0.33159
 C768 C 0.30022 0.50242 0.36880
 C769 C 0.39724 0.49926 0.17204
 C770 C 0.41443 0.49808 0.14079
 H771 H 0.35629 0.46914 0.10144
 H772 H 0.30922 0.44366 0.06996
 H773 H 0.27438 0.44473 0.13902
 H774 H 0.28646 0.47150 0.23971
 H775 H 0.35788 0.53553 0.39667
 H776 H 0.40496 0.56112 0.42776
 H777 H 0.43965 0.55921 0.36001
 H778 H 0.42747 0.53182 0.26059
 C779 C 1.12340 0.62277 0.21116
 C780 C 1.13626 0.64989 0.19019
 C781 C 1.15706 0.67013 0.22930
 C782 C 1.16516 0.66304 0.28849
 C783 C 1.15285 0.63579 0.30838
 C784 C 1.13176 0.61562 0.26985
 C785 C 1.11943 0.58858 0.29133
 C786 C 1.12789 0.58164 0.34887
 C787 C 1.14869 0.60134 0.38624
 C788 C 1.16105 0.62814 0.36657
 C789 C 1.16925 0.69719 0.20811
 C790 C 1.16130 0.70401 0.14954
 C791 C 1.14116 0.68418 0.11091
 C792 C 1.12868 0.65740 0.13081
 C793 C 1.18548 0.68373 0.33024
 C794 C 1.20184 0.70037 0.36691
 C795 C 1.10126 0.60228 0.17314
 C796 C 1.08274 0.58509 0.14223
 H797 H 1.10332 0.57250 0.26366
 H798 H 1.11839 0.56084 0.36425
 H799 H 1.15528 0.59584 0.43074
 H800 H 1.17712 0.64273 0.39735
 H801 H 1.18504 0.71330 0.23644
 H802 H 1.17085 0.72480 0.13401
 H803 H 1.13513 0.68957 0.06534
 H804 H 1.11311 0.64269 0.09913
 C805 C 0.50132 0.12364 0.21275
 C806 C 0.48493 0.13467 0.19592
 C807 C 0.48577 0.15562 0.23495
 C808 C 0.50308 0.16545 0.29037
 C809 C 0.51989 0.15479 0.30636
 C810 C 0.51888 0.13369 0.26767
 C811 C 0.53548 0.12297 0.28535
 C812 C 0.55273 0.13297 0.33947
 C813 C 0.55393 0.15380 0.37692
 C814 C 0.53772 0.16463 0.36086
 C815 C 0.46901 0.16618 0.21761
 C816 C 0.45192 0.15632 0.16316
 C817 C 0.45112 0.13585 0.12492
 C818 C 0.46739 0.12507 0.14088
 C819 C 0.50276 0.18563 0.33274
 C820 C 0.50237 0.20184 0.36974
 C821 C 0.49979 0.10165 0.17429
 C822 C 0.49850 0.08325 0.14292
 H823 H 0.53543 0.10689 0.25744
 H824 H 0.56541 0.12465 0.35205
 H825 H 0.56748 0.16161 0.41866
 H826 H 0.53935 0.18081 0.39152
 H827 H 0.46897 0.18215 0.24580
 H828 H 0.43924 0.16461 0.15058
 H829 H 0.43782 0.12825 0.08268
 H830 H 0.46605 0.10916 0.10966
 C831 C 0.62620 0.50217 0.20143
 C832 C 0.64976 0.52629 0.21867
 C833 C 0.66941 0.52543 0.25954
 C834 C 0.66534 0.50045 0.28304
 C835 C 0.64201 0.47627 0.26474
 C836 C 0.62241 0.47713 0.22359
 C837 C 0.59923 0.45271 0.20599
 C838 C 0.59551 0.42816 0.22848
 C839 C 0.61457 0.42734 0.26919
 C840 C 0.63761 0.45105 0.28719
 C841 C 0.69271 0.54983 0.27658
 C842 C 0.69644 0.57438 0.25400
 C843 C 0.67720 0.57521 0.21405
 C844 C 0.65410 0.55151 0.19639
 C845 C 0.68460 0.49977 0.32822
 C846 C 0.70035 0.49951 0.36710
 C847 C 0.60541 0.50325 0.16327
 C848 C 0.58786 0.50417 0.13298
 H849 H 0.58378 0.45232 0.17466
 H850 H 0.57769 0.40966 0.21451
 H851 H 0.61150 0.40822 0.28686
 H852 H 0.65192 0.44939 0.31874
 H853 H 0.70827 0.55022 0.30745
 H854 H 0.71435 0.59285 0.26760
 H855 H 0.68017 0.59433 0.19664
 H856 H 0.63973 0.55319 0.16512
 C857 C 0.87607 0.37466 0.20527
 C858 C 0.86533 0.34705 0.19123
 C859 C 0.84464 0.32741 0.23174
 C860 C 0.83477 0.33555 0.28585
 C861 C 0.84508 0.36320 0.29893
 C862 C 0.86594 0.38282 0.25881
 C863 C 0.87635 0.41034 0.27373
 C864 C 0.86631 0.41824 0.32652
 C865 C 0.84566 0.39905 0.36521
 C866 C 0.83513 0.37182 0.35190
 C867 C 0.83437 0.29991 0.21715
 C868 C 0.84424 0.29204 0.16394
 C869 C 0.86447 0.31125 0.12430
 C870 C 0.87498 0.33847 0.13758
 C871 C 0.81484 0.31561 0.32978
 C872 C 0.79877 0.29955 0.36798
 C873 C 0.89785 0.39473 0.16558
 C874 C 0.91614 0.41192 0.13413
 H875 H 0.89226 0.42605 0.24472
 H876 H 0.87441 0.43937 0.33701
 H877 H 0.83775 0.40528 0.40578
 H878 H 0.81909 0.35765 0.38347
 H879 H 0.81860 0.28423 0.24655
 H880 H 0.83614 0.27092 0.15342
 H881 H 0.87208 0.30504 0.08304
 H882 H 0.89072 0.35268 0.10539
   
