data_POSCAR
  _audit_creation_date              2014-09-24
  _audit_creation_method            'ToBaCCo'
  _symmetry_space_group_name_H-M    'P1'
  _symmetry_Int_Tables_number       1
  _symmetry_cell_setting            triclinic
  loop_
  _symmetry_equiv_pos_as_xyz
 x,y,z
_cell_length_a 50.2392
_cell_length_b 50.2393
_cell_length_c 32.9769
_cell_angle_alpha 89.978700
_cell_angle_beta 89.965400
_cell_angle_gamma 90.016100
loop_
  _atom_site_label
  _atom_site_type_symbol
  _atom_site_fract_x
  _atom_site_fract_y
  _atom_site_fract_z
O1 O -0.02626 0.28031 0.03852
 O2 O 0.02675 0.27955 -0.03966
 O3 O -0.02588 0.28010 -0.04031
 O4 O 0.02622 0.28005 0.03901
 O5 O 0.02552 0.23607 0.03915
 O6 O -0.02588 0.23612 -0.03956
 O7 O 0.02548 0.23561 -0.03959
 O8 O -0.02589 0.23633 0.03913
 Cu9 Cu 0.00023 0.28448 -0.00069
 Cu10 Cu -0.00023 0.23168 -0.00017
 C11 C -0.03507 0.25829 0.05196
 C12 C 0.03522 0.25728 -0.05270
 C13 C -0.03483 0.25799 -0.05311
 C14 C 0.03481 0.25791 0.05228
 O15 O 0.47433 0.77923 0.53949
 O16 O 0.52672 0.77914 0.46048
 O17 O 0.47420 0.77917 0.46074
 O18 O 0.52687 0.77921 0.53925
 O19 O 0.52629 0.73523 0.53935
 O20 O 0.47468 0.73519 0.46087
 O21 O 0.52615 0.73517 0.46061
 O22 O 0.47481 0.73525 0.53957
 Cu23 Cu 0.50054 0.78366 0.49999
 Cu24 Cu 0.50049 0.73085 0.50011
 C25 C 0.46558 0.75712 0.55267
 C26 C 0.53540 0.75700 0.44736
 C27 C 0.46541 0.75704 0.44773
 C28 C 0.53560 0.75709 0.55240
 O29 O 1.02807 0.72267 0.03927
 O30 O 0.97542 0.72161 -0.03934
 O31 O 1.02802 0.72271 -0.03929
 O32 O 0.97546 0.72156 0.03952
 O33 O 0.97507 0.76553 0.03948
 O34 O 1.02644 0.76664 -0.03935
 O35 O 0.97504 0.76559 -0.03923
 O36 O 1.02649 0.76659 0.03942
 Cu37 Cu 1.00180 0.71767 0.00004
 Cu38 Cu 1.00066 0.77044 0.00009
 C39 C 1.03639 0.74496 0.05241
 C40 C 0.96623 0.74357 -0.05242
 C41 C 1.03632 0.74503 -0.05243
 C42 C 0.96627 0.74350 0.05265
 O43 O 0.52584 0.21885 0.53979
 O44 O 0.47343 0.21900 0.46096
 O45 O 0.52594 0.21897 0.46101
 O46 O 0.47331 0.21902 0.53969
 O47 O 0.47395 0.26300 0.53970
 O48 O 0.52547 0.26295 0.46108
 O49 O 0.47404 0.26298 0.46102
 O50 O 0.52540 0.26283 0.53981
 Cu51 Cu 0.49963 0.21448 0.50036
 Cu52 Cu 0.49973 0.26731 0.50041
 C53 C 0.53459 0.24095 0.55295
 C54 C 0.46475 0.24115 0.44786
 C55 C 0.53470 0.24110 0.44791
 C56 C 0.46461 0.24117 0.55279
 O57 O 0.72108 -0.02627 0.03832
 O58 O 0.72187 0.02676 -0.03977
 O59 O 0.72134 -0.02585 -0.04047
 O60 O 0.72136 0.02622 0.03888
 O61 O 0.76533 0.02557 0.03900
 O62 O 0.76531 -0.02584 -0.03976
 O63 O 0.76581 0.02554 -0.03974
 O64 O 0.76506 -0.02588 0.03893
 Cu65 Cu 0.71694 0.00023 -0.00083
 Cu66 Cu 0.76974 -0.00019 -0.00035
 C67 C 0.74310 -0.03510 0.05172
 C68 C 0.74413 0.03527 -0.05282
 C69 C 0.74345 -0.03480 -0.05330
 C70 C 0.74348 0.03486 0.05212
 O71 O 0.21945 0.47412 0.53952
 O72 O 0.21940 0.52655 0.46059
 O73 O 0.21957 0.47401 0.46079
 O74 O 0.21936 0.52667 0.53936
 O75 O 0.26334 0.52622 0.53941
 O76 O 0.26355 0.47464 0.46088
 O77 O 0.26338 0.52612 0.46066
 O78 O 0.26343 0.47474 0.53955
 Cu79 Cu 0.21497 0.50033 0.50006
 Cu80 Cu 0.26779 0.50045 0.50013
 C81 C 0.24158 0.46542 0.55265
 C82 C 0.24152 0.53532 0.44746
 C83 C 0.24174 0.46529 0.44777
 C84 C 0.24147 0.53547 0.55248
 O85 O 0.27858 1.02800 0.03949
 O86 O 0.27980 0.97539 -0.03922
 O87 O 0.27859 1.02800 -0.03909
 O88 O 0.27981 0.97540 0.03966
 O89 O 0.23584 0.97492 0.03963
 O90 O 0.23466 1.02628 -0.03915
 O91 O 0.23583 0.97491 -0.03909
 O92 O 0.23465 1.02630 0.03961
 Cu93 Cu 0.28367 1.00177 0.00020
 Cu94 Cu 0.23090 1.00049 0.00025
 C95 C 0.25625 1.03623 0.05265
 C96 C 0.25787 0.96617 -0.05231
 C97 C 0.25626 1.03623 -0.05222
 C98 C 0.25788 0.96619 0.05282
 O99 O 0.77943 0.47339 0.46086
 O100 O 0.77974 0.52575 0.53979
 O101 O 0.77943 0.47324 0.53960
 O102 O 0.77968 0.52588 0.46100
 O103 O 0.73570 0.52554 0.46110
 O104 O 0.73546 0.47398 0.53966
 O105 O 0.73576 0.52543 0.53985
 O106 O 0.73545 0.47411 0.46098
 Cu107 Cu 0.78405 0.49955 0.50031
 Cu108 Cu 0.73122 0.49980 0.50041
 C109 C 0.75725 0.46478 0.44776
 C110 C 0.75766 0.53454 0.55300
 C111 C 0.75726 0.46458 0.55271
 C112 C 0.75759 0.53470 0.44791
 C113 C 0.23177 0.19794 0.20781
 C114 C 0.20621 0.20696 0.19817
 C115 C 0.19756 0.23262 0.20781
 C116 C 0.21479 0.24992 0.22920
 C117 C 0.24068 0.24103 0.24013
 C118 C 0.24927 0.21499 0.22929
 C119 C 0.27483 0.20663 0.24094
 C120 C 0.29195 0.22360 0.26165
 C121 C 0.28391 0.24933 0.27302
 C122 C 0.25800 0.25819 0.26211
 C123 C 0.20672 0.27562 0.24064
 C124 C 0.22382 0.29255 0.26143
 C125 C 0.24940 0.28421 0.27298
 C126 C 0.26689 0.30129 0.29437
 C127 C 0.29249 0.29237 0.30389
 C128 C 0.30116 0.26669 0.29430
 H129 H 0.28195 0.18680 0.23451
 H130 H 0.31166 0.21624 0.26835
 H131 H 0.18700 0.28297 0.23394
 H132 H 0.21668 0.31237 0.26800
 H133 H 0.19308 0.19406 0.18097
 H134 H 0.30561 0.30535 0.32095
 C135 C 0.73296 0.69758 0.29199
 C136 C 0.70730 0.70635 0.30149
 C137 C 0.69848 0.73197 0.29188
 C138 C 0.71564 0.74940 0.27049
 C139 C 0.74164 0.74071 0.25969
 C140 C 0.75040 0.71477 0.27064
 C141 C 0.77608 0.70661 0.25926
 C142 C 0.79313 0.72367 0.23855
 C143 C 0.78492 0.74931 0.22704
 C144 C 0.75890 0.75798 0.23778
 C145 C 0.70740 0.77502 0.25892
 C146 C 0.72444 0.79208 0.23818
 C147 C 0.75014 0.78393 0.22683
 C148 C 0.76758 0.80113 0.20557
 C149 C 0.79328 0.79241 0.19617
 C150 C 0.80211 0.76679 0.20582
 H151 H 0.78334 0.68685 0.26594
 H152 H 0.81293 0.71647 0.23198
 H153 H 0.68760 0.78222 0.26546
 H154 H 0.71717 0.81183 0.23147
 H155 H 0.69426 0.69329 0.31861
 H156 H 0.80636 0.80551 0.17920
 C157 C 0.80171 0.23297 0.20672
 C158 C 0.79314 0.20723 0.19729
 C159 C 0.76757 0.19822 0.20690
 C160 C 0.75000 0.21526 0.22819
 C161 C 0.75850 0.24133 0.23893
 C162 C 0.78439 0.25028 0.22796
 C163 C 0.79236 0.27603 0.23925
 C164 C 0.77518 0.29295 0.25996
 C165 C 0.74962 0.28452 0.27158
 C166 C 0.74110 0.25846 0.26081
 C167 C 0.72442 0.20685 0.23975
 C168 C 0.70723 0.22378 0.26042
 C169 C 0.71521 0.24952 0.27176
 C170 C 0.69790 0.26684 0.29305
 C171 C 0.70651 0.29255 0.30255
 C172 C 0.73209 0.30154 0.29296
 H173 H 0.81205 0.28346 0.23250
 H174 H 0.78224 0.31281 0.26641
 H175 H 0.71735 0.18700 0.23326
 H176 H 0.68753 0.21637 0.26712
 H177 H 0.80632 0.19427 0.18027
 H178 H 0.69336 0.30551 0.31964
 C179 C 0.30176 0.73281 0.29320
 C180 C 0.29269 0.70725 0.30271
 C181 C 0.26697 0.69870 0.29310
 C182 C 0.24971 0.71607 0.27182
 C183 C 0.25875 0.74194 0.26088
 C184 C 0.28481 0.75039 0.27176
 C185 C 0.29333 0.77592 0.26017
 C186 C 0.27651 0.79313 0.23936
 C187 C 0.25075 0.78522 0.22797
 C188 C 0.24170 0.75937 0.23890
 C189 C 0.22394 0.70819 0.26049
 C190 C 0.20708 0.72542 0.23976
 C191 C 0.21560 0.75094 0.22807
 C192 C 0.19866 0.76855 0.20661
 C193 C 0.20784 0.79408 0.19700
 C194 C 0.23354 0.80259 0.20667
 H195 H 0.31320 0.78293 0.26672
 H196 H 0.28400 0.81279 0.23259
 H197 H 0.21644 0.68853 0.26727
 H198 H 0.18719 0.71843 0.23337
 H199 H 0.30559 0.69405 0.31980
 H200 H 0.19501 0.80732 0.17988
 C201 C 0.69798 0.26615 0.70698
 C202 C 0.70657 0.29187 0.69741
 C203 C 0.73217 0.30084 0.70683
 C204 C 0.74973 0.28380 0.72813
 C205 C 0.74123 0.25774 0.73896
 C206 C 0.71533 0.24880 0.72812
 C207 C 0.70740 0.22302 0.73939
 C208 C 0.72461 0.20608 0.75997
 C209 C 0.75016 0.21451 0.77157
 C210 C 0.75864 0.24061 0.76081
 C211 C 0.77530 0.29223 0.73962
 C212 C 0.79249 0.27532 0.76027
 C213 C 0.78453 0.24958 0.77167
 C214 C 0.80186 0.23230 0.79292
 C215 C 0.79330 0.20659 0.80250
 C216 C 0.76776 0.19749 0.79291
 H217 H 0.68770 0.21559 0.73271
 H218 H 0.71758 0.18619 0.76632
 H219 H 0.78236 0.31209 0.73310
 H220 H 0.81219 0.28275 0.76690
 H221 H 0.69339 0.30484 0.68042
 H222 H 0.80651 0.19370 0.81957
 C223 C 0.30175 0.73298 0.70684
 C224 C 0.29264 0.70747 0.69716
 C225 C 0.26687 0.69896 0.70663
 C226 C 0.24961 0.71633 0.72792
 C227 C 0.25868 0.74214 0.73902
 C228 C 0.28479 0.75055 0.72830
 C229 C 0.29336 0.77603 0.74004
 C230 C 0.27653 0.79323 0.76086
 C231 C 0.25073 0.78537 0.77212
 C232 C 0.24163 0.75956 0.76103
 C233 C 0.22378 0.70849 0.73910
 C234 C 0.20692 0.72572 0.75986
 C235 C 0.21549 0.75118 0.77172
 C236 C 0.19855 0.76877 0.79322
 C237 C 0.20777 0.79425 0.80298
 C238 C 0.23351 0.80274 0.79344
 H239 H 0.31326 0.78300 0.73361
 H240 H 0.28407 0.81286 0.76777
 H241 H 0.21624 0.68888 0.73218
 H242 H 0.18700 0.71876 0.76613
 H243 H 0.30555 0.69428 0.68008
 H244 H 0.19493 0.80748 0.82013
 C245 C 0.23159 0.19815 0.79319
 C246 C 0.20603 0.20712 0.80292
 C247 C 0.19721 0.23270 0.79307
 C248 C 0.21438 0.25002 0.77149
 C249 C 0.24033 0.24119 0.76060
 C250 C 0.24901 0.21521 0.77157
 C251 C 0.27458 0.20689 0.75988
 C252 C 0.29164 0.22386 0.73901
 C253 C 0.28353 0.24953 0.72753
 C254 C 0.25760 0.25835 0.73848
 C255 C 0.20622 0.27564 0.75979
 C256 C 0.22330 0.29260 0.73894
 C257 C 0.24894 0.28433 0.72750
 C258 C 0.26641 0.30143 0.70608
 C259 C 0.29203 0.29255 0.69650
 C260 C 0.30074 0.26689 0.70611
 H261 H 0.28176 0.18709 0.76641
 H262 H 0.31137 0.21653 0.73229
 H263 H 0.18646 0.28294 0.76630
 H264 H 0.21609 0.31237 0.73221
 H265 H 0.19300 0.19418 0.82026
 H266 H 0.30513 0.30555 0.67939
 C267 C 0.73330 0.69779 0.70771
 C268 C 0.70769 0.70661 0.69803
 C269 C 0.69895 0.73231 0.70730
 C270 C 0.71617 0.74979 0.72846
 C271 C 0.74210 0.74103 0.73946
 C272 C 0.75076 0.71499 0.72888
 C273 C 0.77638 0.70677 0.74047
 C274 C 0.79347 0.72385 0.76102
 C275 C 0.78535 0.74958 0.77218
 C276 C 0.75941 0.75833 0.76121
 C277 C 0.70804 0.77552 0.73963
 C278 C 0.72513 0.79260 0.76019
 C279 C 0.75075 0.78437 0.77179
 C280 C 0.76821 0.80158 0.79295
 C281 C 0.79384 0.79277 0.80257
 C282 C 0.80258 0.76707 0.79327
 H283 H 0.78356 0.68694 0.73408
 H284 H 0.81321 0.71658 0.76776
 H285 H 0.68830 0.78279 0.73291
 H286 H 0.71795 0.81243 0.76656
 H287 H 0.69462 0.69351 0.68107
 H288 H 0.80693 0.80588 0.81948
 C289 C 0.25113 0.09935 0.13129
 N290 N 0.27512 0.09196 0.11591
 N291 N 0.27706 0.07094 0.09133
 C292 C 0.25501 0.05684 0.08080
 N293 N 0.23114 0.06417 0.09653
 N294 N 0.22927 0.08491 0.12142
 C295 C 0.24806 0.12366 0.15556
 N296 N 0.22491 0.12813 0.17557
 N297 N 0.22049 0.15128 0.19393
 C298 C 0.23899 0.17097 0.19301
 N299 N 0.26228 0.16643 0.17314
 N300 N 0.26682 0.14313 0.15498
 C301 C 0.75343 0.59885 0.63290
 N302 N 0.77657 0.59330 0.61330
 N303 N 0.77836 0.57219 0.58889
 C304 C 0.75698 0.55609 0.58298
 N305 N 0.73399 0.56153 0.60289
 N306 N 0.73228 0.58243 0.62751
 C307 C 0.75018 0.62338 0.65657
 N308 N 0.72744 0.62745 0.67787
 N309 N 0.72282 0.65072 0.69577
 C310 C 0.74074 0.67087 0.69317
 N311 N 0.76361 0.66675 0.67204
 N312 N 0.76832 0.64337 0.65425
 C313 C 0.74726 0.90017 0.13093
 N314 N 0.72420 0.90565 0.11107
 N315 N 0.72241 0.92689 0.08690
 C316 C 0.74369 0.94320 0.08149
 N317 N 0.76659 0.93782 0.10166
 N318 N 0.76830 0.91680 0.12604
 C319 C 0.75056 0.87555 0.15441
 N320 N 0.77322 0.87155 0.17589
 N321 N 0.77790 0.84826 0.19373
 C322 C 0.76010 0.82802 0.19089
 N323 N 0.73731 0.83206 0.16956
 N324 N 0.73255 0.85545 0.15182
 C325 C 0.24622 0.40059 0.63162
 N326 N 0.22301 0.40621 0.61227
 N327 N 0.22109 0.42748 0.58820
 C328 C 0.24239 0.44371 0.58239
 N329 N 0.26545 0.43820 0.60205
 N330 N 0.26729 0.41713 0.62633
 C331 C 0.24957 0.37593 0.65500
 N332 N 0.27235 0.37179 0.67612
 N333 N 0.27699 0.34848 0.69392
 C334 C 0.25904 0.32835 0.69139
 N335 N 0.23614 0.33253 0.67038
 N336 N 0.23142 0.35594 0.65269
 C337 C 0.90048 0.25394 0.13167
 N338 N 0.91719 0.23299 0.12678
 N339 N 0.93813 0.23477 0.10224
 C340 C 0.94333 0.25765 0.08188
 N341 N 0.92692 0.27885 0.08728
 N342 N 0.90577 0.27699 0.11163
 C343 C 0.87594 0.25052 0.15532
 N344 N 0.85570 0.26837 0.15269
 N345 N 0.83237 0.26345 0.17053
 C346 C 0.82852 0.24067 0.19200
 N347 N 0.84890 0.22303 0.19488
 N348 N 0.87213 0.22787 0.17694
 C349 C 0.40090 0.75269 0.63200
 N350 N 0.41728 0.73152 0.62651
 N351 N 0.43830 0.73329 0.60210
 C352 C 0.44391 0.75636 0.58250
 N353 N 0.42784 0.77775 0.58851
 N354 N 0.40662 0.77591 0.61271
 C355 C 0.37628 0.74943 0.65551
 N356 N 0.35645 0.76776 0.65349
 N357 N 0.33304 0.76315 0.67128
 C358 C 0.32871 0.74020 0.69211
 N359 N 0.34869 0.72207 0.69437
 N360 N 0.37199 0.72660 0.67647
 C361 C 0.09977 0.74980 0.13059
 N362 N 0.08539 0.77172 0.12083
 N363 N 0.06457 0.76995 0.09610
 C364 C 0.05707 0.74612 0.08044
 N365 N 0.07111 0.72401 0.09087
 N366 N 0.09222 0.72585 0.11528
 C367 C 0.12417 0.75275 0.15468
 N368 N 0.14351 0.73387 0.15405
 N369 N 0.16688 0.73826 0.17208
 C370 C 0.17162 0.76152 0.19188
 N371 N 0.15206 0.78016 0.19284
 N372 N 0.12885 0.77588 0.17460
 C373 C 0.59905 0.24544 0.63251
 N374 N 0.58247 0.26648 0.62731
 N375 N 0.56152 0.26468 0.60282
 C376 C 0.55618 0.24170 0.58284
 N377 N 0.57245 0.22043 0.58856
 N378 N 0.59360 0.22231 0.61284
 C379 C 0.62361 0.24881 0.65605
 N380 N 0.64376 0.23086 0.65345
 N381 N 0.66713 0.23571 0.67116
 C382 C 0.67111 0.25852 0.69248
 N383 N 0.65080 0.27624 0.69535
 N384 N 0.62754 0.27148 0.67753
 C385 C 0.74884 0.09858 0.86882
 N386 N 0.77080 0.08429 0.87867
 N387 N 0.76905 0.06349 0.90347
 C388 C 0.74523 0.05594 0.91912
 N389 N 0.72308 0.06989 0.90861
 N390 N 0.72489 0.09098 0.88412
 C391 C 0.75179 0.12297 0.84469
 N392 N 0.73297 0.14237 0.84547
 N393 N 0.73741 0.16575 0.82748
 C394 C 0.76066 0.17045 0.80757
 N395 N 0.77923 0.15083 0.80645
 N396 N 0.77490 0.12761 0.82465
 C397 C 0.24611 0.59981 0.36784
 N398 N 0.26714 0.58323 0.37309
 N399 N 0.26532 0.56228 0.39761
 C400 C 0.24231 0.55693 0.41756
 N401 N 0.22105 0.57320 0.41179
 N402 N 0.22296 0.59436 0.38748
 C403 C 0.24951 0.62437 0.34422
 N404 N 0.23157 0.64453 0.34672
 N405 N 0.23644 0.66789 0.32894
 C406 C 0.25928 0.67184 0.30763
 N407 N 0.27700 0.65152 0.30485
 N408 N 0.27221 0.62827 0.32274
 C409 C 0.25411 0.90169 0.86802
 N410 N 0.27711 0.90717 0.88805
 N411 N 0.27879 0.92835 0.91236
 C412 C 0.25745 0.94458 0.91774
 N413 N 0.23462 0.93919 0.89740
 N414 N 0.23303 0.91824 0.87288
 C415 C 0.25088 0.87711 0.84441
 N416 N 0.22833 0.87324 0.82260
 N417 N 0.22360 0.84997 0.80477
 C418 C 0.24122 0.82960 0.80792
 N419 N 0.26393 0.83352 0.82953
 N420 N 0.26874 0.85690 0.84727
 C421 C 0.75239 0.40037 0.36817
 N422 N 0.73132 0.41685 0.37380
 N423 N 0.73322 0.43778 0.39831
 C424 C 0.75634 0.44320 0.41788
 N425 N 0.77763 0.42702 0.41173
 N426 N 0.77565 0.40589 0.38742
 C427 C 0.74898 0.37583 0.34457
 N428 N 0.76716 0.35588 0.34654
 N429 N 0.76241 0.33254 0.32868
 C430 C 0.73945 0.32841 0.30781
 N431 N 0.72146 0.34851 0.30561
 N432 N 0.72613 0.37175 0.32359
 C433 C 0.09844 0.25241 0.86877
 N434 N 0.09098 0.27638 0.88414
 N435 N 0.06992 0.27825 0.90867
 C436 C 0.05586 0.25615 0.91918
 N437 N 0.06327 0.23232 0.90347
 N438 N 0.08404 0.23051 0.87861
 C439 C 0.12279 0.24935 0.84460
 N440 N 0.12720 0.22626 0.82443
 N441 N 0.15040 0.22174 0.80628
 C442 C 0.17022 0.24009 0.80760
 N443 N 0.16575 0.26334 0.82760
 N444 N 0.14239 0.26796 0.84555
 C445 C 0.59974 0.75235 0.36744
 N446 N 0.59425 0.77557 0.38686
 N447 N 0.57315 0.77748 0.41128
 C448 C 0.55698 0.75617 0.41739
 N449 N 0.56237 0.73310 0.39767
 N450 N 0.58327 0.73127 0.37304
 C451 C 0.62424 0.74900 0.34366
 N452 N 0.62823 0.72621 0.32249
 N453 N 0.65144 0.72153 0.30440
 C454 C 0.67161 0.73945 0.30668
 N455 N 0.66757 0.76237 0.32770
 N456 N 0.64425 0.76713 0.34567
 C457 C 0.90163 0.74727 0.86813
 N458 N 0.90730 0.72422 0.88791
 N459 N 0.92850 0.72258 0.91216
 C460 C 0.94459 0.74401 0.91772
 N461 N 0.93902 0.76690 0.89763
 N462 N 0.91804 0.76846 0.87317
 C463 C 0.87703 0.75038 0.84453
 N464 N 0.87296 0.77298 0.82291
 N465 N 0.84968 0.77753 0.80500
 C466 C 0.82950 0.75966 0.80791
 N467 N 0.83362 0.73692 0.82937
 N468 N 0.85701 0.73229 0.84717
 C469 C 0.40016 0.24593 0.36860
 N470 N 0.40562 0.22272 0.38809
 N471 N 0.42682 0.22076 0.41226
 C472 C 0.44311 0.24200 0.41805
 N473 N 0.43776 0.26505 0.39825
 N474 N 0.41676 0.26694 0.37386
 C475 C 0.37555 0.24937 0.34518
 N476 N 0.37158 0.27212 0.32389
 N477 N 0.34830 0.27690 0.30613
 C478 C 0.32803 0.25911 0.30886
 N479 N 0.33205 0.23624 0.33002
 N480 N 0.35543 0.23138 0.34767
 C481 C 0.74794 0.90072 0.86718
 N482 N 0.76909 0.91711 0.87271
 N483 N 0.76729 0.93808 0.89717
 C484 C 0.74421 0.94362 0.91678
 N485 N 0.72284 0.92754 0.91072
 N486 N 0.72471 0.90636 0.88647
 C487 C 0.75126 0.87611 0.84371
 N488 N 0.73312 0.85612 0.84604
 N489 N 0.73786 0.83271 0.82841
 C490 C 0.76078 0.82852 0.80743
 N491 N 0.77872 0.84866 0.80483
 N492 N 0.77406 0.87198 0.82258
 C493 C 0.24660 0.40038 0.36902
 N494 N 0.22333 0.40600 0.38824
 N495 N 0.22135 0.42728 0.41226
 C496 C 0.24263 0.44352 0.41814
 N497 N 0.26575 0.43800 0.39861
 N498 N 0.26766 0.41691 0.37438
 C499 C 0.25001 0.37573 0.34563
 N500 N 0.27285 0.37159 0.32462
 N501 N 0.27751 0.34830 0.30677
 C502 C 0.25951 0.32819 0.30913
 N503 N 0.23656 0.33237 0.33004
 N504 N 0.23182 0.35576 0.34777
 C505 C 0.25111 0.09945 0.86930
 N506 N 0.27510 0.09207 0.88465
 N507 N 0.27705 0.07101 0.90916
 C508 C 0.25501 0.05686 0.91966
 N509 N 0.23115 0.06418 0.90395
 N510 N 0.22926 0.08496 0.87912
 C511 C 0.24801 0.12380 0.84514
 N512 N 0.22488 0.12826 0.82511
 N513 N 0.22041 0.15144 0.80687
 C514 C 0.23886 0.17118 0.80793
 N515 N 0.26213 0.16667 0.82782
 N516 N 0.26671 0.14333 0.84586
 C517 C 0.75324 0.59897 0.36786
 N518 N 0.77639 0.59350 0.38746
 N519 N 0.77821 0.57242 0.41195
 C520 C 0.75687 0.55628 0.41795
 N521 N 0.73387 0.56166 0.39805
 N522 N 0.73213 0.58252 0.37336
 C523 C 0.74996 0.62343 0.34397
 N524 N 0.72726 0.62735 0.32257
 N525 N 0.72260 0.65053 0.30441
 C526 C 0.74047 0.67075 0.30683
 N527 N 0.76331 0.66677 0.32808
 N528 N 0.76805 0.64348 0.34613
 C529 C 0.09960 0.74994 0.86914
 N530 N 0.08525 0.77186 0.87900
 N531 N 0.06444 0.77006 0.90380
 C532 C 0.05696 0.74621 0.91945
 N533 N 0.07097 0.72411 0.90891
 N534 N 0.09206 0.72597 0.88442
 C535 C 0.12400 0.75292 0.84503
 N536 N 0.14333 0.73402 0.84559
 N537 N 0.16672 0.73843 0.82758
 C538 C 0.17149 0.76174 0.80789
 N539 N 0.15196 0.78040 0.80700
 N540 N 0.12872 0.77610 0.82520
 C541 C 0.59916 0.24586 0.36824
 N542 N 0.58254 0.26685 0.37354
 N543 N 0.56160 0.26496 0.39809
 C544 C 0.55632 0.24194 0.41802
 N545 N 0.57263 0.22071 0.41220
 N546 N 0.59378 0.22268 0.38786
 C547 C 0.62369 0.24932 0.34456
 N548 N 0.64386 0.23139 0.34691
 N549 N 0.66718 0.23630 0.32903
 C550 C 0.67108 0.25916 0.30778
 N551 N 0.65075 0.27689 0.30518
 N552 N 0.62754 0.27206 0.32317
 C553 C 0.90077 0.25332 0.86727
 N554 N 0.91734 0.23230 0.87262
 N555 N 0.93828 0.23416 0.89712
 C556 C 0.94362 0.25720 0.91693
 N557 N 0.92737 0.27846 0.91105
 N558 N 0.90622 0.27652 0.88677
 C559 C 0.87620 0.24987 0.84377
 N560 N 0.85601 0.26777 0.84633
 N561 N 0.83264 0.26285 0.82868
 C562 C 0.82871 0.23999 0.80745
 N563 N 0.84905 0.22231 0.80461
 N564 N 0.87231 0.22715 0.82238
 C565 C 0.40071 0.75252 0.36855
 N566 N 0.41708 0.73136 0.37410
 N567 N 0.43809 0.73315 0.39850
 C568 C 0.44370 0.75623 0.41802
 N569 N 0.42763 0.77762 0.41196
 N570 N 0.40642 0.77576 0.38777
 C571 C 0.37613 0.74927 0.34495
 N572 N 0.35628 0.76758 0.34690
 N573 N 0.33293 0.76297 0.32898
 C574 C 0.32868 0.74005 0.30807
 N575 N 0.34868 0.72194 0.30589
 N576 N 0.37193 0.72646 0.32392
 C577 C 0.25414 0.90170 0.13251
 N578 N 0.23305 0.91824 0.12768
 N579 N 0.23464 0.93921 0.10316
 C580 C 0.25747 0.94461 0.08279
 N581 N 0.27882 0.92839 0.08815
 N582 N 0.27714 0.90721 0.11246
 C583 C 0.25091 0.87708 0.15605
 N584 N 0.26880 0.85690 0.15313
 N585 N 0.26397 0.83348 0.17077
 C586 C 0.24124 0.82950 0.19232
 N587 N 0.22359 0.84984 0.19553
 N588 N 0.22833 0.87315 0.17780
 C589 C 0.75240 0.39983 0.63179
 N590 N 0.73134 0.41635 0.62637
 N591 N 0.73325 0.43738 0.60202
 C592 C 0.75636 0.44286 0.58242
 N593 N 0.77763 0.42664 0.58837
 N594 N 0.77565 0.40541 0.61251
 C595 C 0.74899 0.37522 0.65528
 N596 N 0.76717 0.35527 0.65318
 N597 N 0.76244 0.33190 0.67099
 C598 C 0.73950 0.32773 0.69195
 N599 N 0.72151 0.34783 0.69427
 N600 N 0.72616 0.37110 0.67633
 C601 C 0.74785 0.09925 0.13183
 N602 N 0.76903 0.08290 0.12627
 N603 N 0.76729 0.06197 0.10171
 C604 C 0.74425 0.05644 0.08203
 N605 N 0.72285 0.07248 0.08811
 N606 N 0.72466 0.09361 0.11246
 C607 C 0.75107 0.12380 0.15548
 N608 N 0.73280 0.14368 0.15337
 N609 N 0.73741 0.16705 0.17122
 C610 C 0.76030 0.17129 0.19221
 N611 N 0.77836 0.15126 0.19457
 N612 N 0.77384 0.12799 0.17660
 C613 C 0.24601 0.60012 0.63177
 N614 N 0.26701 0.58348 0.62667
 N615 N 0.26520 0.56249 0.60226
 C616 C 0.24223 0.55715 0.58225
 N617 N 0.22099 0.57349 0.58786
 N618 N 0.22289 0.59469 0.61207
 C619 C 0.24940 0.62469 0.65536
 N620 N 0.23151 0.64488 0.65279
 N621 N 0.23638 0.66822 0.67060
 C622 C 0.25917 0.67212 0.69201
 N623 N 0.27684 0.65177 0.69484
 N624 N 0.27206 0.62854 0.67692
 C625 C 0.90153 0.74711 0.13192
 N626 N 0.90728 0.72406 0.11221
 N627 N 0.92854 0.72244 0.08805
 C628 C 0.94461 0.74390 0.08251
 N629 N 0.93897 0.76678 0.10254
 N630 N 0.91791 0.76832 0.12691
 C631 C 0.87683 0.75021 0.15531
 N632 N 0.87259 0.77287 0.17671
 N633 N 0.84922 0.77739 0.19438
 C634 C 0.82911 0.75944 0.19145
 N635 N 0.83340 0.73664 0.17023
 N636 N 0.85688 0.73204 0.15266
 C637 C 0.39980 0.24605 0.63176
 N638 N 0.40527 0.22284 0.61232
 N639 N 0.42653 0.22083 0.58823
 C640 C 0.44289 0.24204 0.58251
 N641 N 0.43753 0.26510 0.60228
 N642 N 0.41647 0.26703 0.62656
 C643 C 0.37515 0.24954 0.65513
 N644 N 0.37116 0.27233 0.67631
 N645 N 0.34788 0.27713 0.69407
 C646 C 0.32761 0.25933 0.69146
 N647 N 0.33164 0.23642 0.67040
 N648 N 0.35504 0.23154 0.65274
 C649 C 0.09895 0.25332 0.13241
 N650 N 0.09360 0.27648 0.11273
 N651 N 0.07255 0.27837 0.08823
 C652 C 0.05632 0.25710 0.08230
 N653 N 0.06156 0.23409 0.10228
 N654 N 0.08240 0.23228 0.12699
 C655 C 0.12340 0.24995 0.15621
 N656 N 0.12725 0.22724 0.17766
 N657 N 0.15044 0.22248 0.19570
 C658 C 0.17074 0.24025 0.19310
 N659 N 0.16684 0.26309 0.17182
 N660 N 0.14354 0.26793 0.15389
 C661 C 0.60019 0.75257 0.63179
 N662 N 0.59467 0.77573 0.61224
 N663 N 0.57350 0.77761 0.58797
 C664 C 0.55729 0.75630 0.58216
 N665 N 0.56271 0.73328 0.60200
 N666 N 0.58368 0.73148 0.62647
 C667 C 0.62472 0.74926 0.65548
 N668 N 0.62868 0.72656 0.67692
 N669 N 0.65189 0.72192 0.69500
 C670 C 0.67210 0.73979 0.69245
 N671 N 0.66809 0.76261 0.67114
 N672 N 0.64478 0.76734 0.65318
   
