data_POSCAR
  _audit_creation_date              2014-09-24
  _audit_creation_method            'ToBaCCo'
  _symmetry_space_group_name_H-M    'P1'
  _symmetry_Int_Tables_number       1
  _symmetry_cell_setting            triclinic
  loop_
  _symmetry_equiv_pos_as_xyz
 x,y,z
_cell_length_a 21.6082
_cell_length_b 21.6907
_cell_length_c 21.6632
_cell_angle_alpha 86.373400
_cell_angle_beta 94.829100
_cell_angle_gamma 94.187200
loop_
  _atom_site_label
  _atom_site_type_symbol
  _atom_site_fract_x
  _atom_site_fract_y
  _atom_site_fract_z
C1 C 0.63290 0.55815 -0.01122
 C2 C 0.61805 0.61901 -0.00280
 C3 C 0.55760 0.63408 0.00728
 C4 C 0.51087 0.58472 0.01388
 C5 C 0.52294 0.52388 -0.00027
 C6 C 0.58329 0.51107 -0.01537
 C7 C 0.59093 0.45252 -0.03722
 C8 C 0.54396 0.40532 -0.03540
 C9 C 0.48656 0.41470 -0.01290
 C10 C 0.47449 0.47542 0.00120
 C11 C 0.45398 0.59305 0.03836
 C12 C 0.40705 0.54581 0.04011
 C13 C 0.41437 0.48773 0.01729
 C14 C 0.36500 0.44023 0.01424
 C15 C 0.38027 0.37936 0.00630
 C16 C 0.44021 0.36558 -0.00602
 H17 H 0.63235 0.44268 -0.05829
 H18 H 0.55279 0.36185 -0.05365
 H19 H 0.44574 0.63512 0.05950
 H20 H 0.36620 0.55493 0.06257
 H21 H 0.65472 0.65575 -0.00384
 H22 H 0.34460 0.34166 0.00824
 C23 C -0.00505 0.63421 0.44184
 C24 C 0.00657 0.61987 0.38195
 C25 C 0.01368 0.55886 0.36648
 C26 C 0.01633 0.51167 0.41547
 C27 C 0.00134 0.52483 0.47574
 C28 C -0.01165 0.58573 0.48825
 C29 C -0.03221 0.59603 0.54638
 C30 C -0.03386 0.54928 0.59325
 C31 C -0.01499 0.49014 0.58411
 C32 C -0.00011 0.47699 0.52393
 C33 C 0.03730 0.45292 0.40752
 C34 C 0.03544 0.40619 0.45435
 C35 C 0.01378 0.41625 0.51192
 C36 C 0.00828 0.36797 0.55877
 C37 C -0.00280 0.38262 0.61870
 C38 C -0.01226 0.44321 0.63279
 H39 H -0.04873 0.63996 0.55608
 H40 H -0.05164 0.55988 0.63622
 H41 H 0.05818 0.44267 0.36616
 H42 H 0.05345 0.36270 0.44543
 H43 H 0.00854 0.65731 0.34645
 H44 H -0.00379 0.34609 0.65521
 C45 C 0.55976 0.00862 0.63429
 C46 C 0.62055 -0.00092 0.61989
 C47 C 0.63539 -0.01002 0.55922
 C48 C 0.58571 -0.01514 0.51172
 C49 C 0.52514 -0.00018 0.52375
 C50 C 0.51274 0.01440 0.58436
 C51 C 0.45486 0.03769 0.59201
 C52 C 0.40762 0.03788 0.54439
 C53 C 0.41631 0.01592 0.48641
 C54 C 0.47661 0.00024 0.47481
 C55 C 0.59356 -0.03796 0.45358
 C56 C 0.54634 -0.03728 0.40590
 C57 C 0.48847 -0.01512 0.41443
 C58 C 0.44120 -0.01038 0.36504
 C59 C 0.38085 0.00069 0.37867
 C60 C 0.36708 0.01151 0.43894
 H61 H 0.44573 0.05856 0.63393
 H62 H 0.36483 0.05746 0.55314
 H63 H 0.63528 -0.05913 0.44452
 H64 H 0.55525 -0.05646 0.36292
 H65 H 0.65742 -0.00119 0.65698
 H66 H 0.34384 0.00076 0.34166
 O67 O 0.46251 -0.00739 -0.09661
 O68 O 0.43650 -0.01729 0.06991
 O69 O 0.43647 0.07137 -0.01782
 O70 O 0.46158 -0.09541 -0.00947
 O71 O 0.56208 -0.07396 0.01361
 O72 O 0.53685 0.09265 0.00604
 O73 O 0.53693 0.00472 0.09282
 O74 O 0.56294 0.01430 -0.07339
 Cu75 Cu 0.43915 -0.01419 -0.01580
 Cu76 Cu 0.55977 0.01156 0.01203
 C77 C 0.51727 0.00468 -0.11326
 C78 C 0.48234 -0.00781 0.10967
 C79 C 0.48229 0.11034 -0.00695
 C80 C 0.51621 -0.11300 0.00320
 O81 O -0.07370 0.56230 0.98583
 O82 O 0.09363 0.53625 0.99649
 O83 O 0.00538 0.53781 0.90752
 O84 O 0.01544 0.56283 1.07442
 O85 O -0.00601 0.46281 1.09471
 O86 O -0.01849 0.43811 0.92725
 O87 O 0.07146 0.43618 1.01566
 O88 O -0.09560 0.46247 1.00689
 Cu89 Cu 0.01235 0.55984 0.98905
 Cu90 Cu -0.01425 0.43982 1.01313
 C91 C -0.11307 0.51686 0.99490
 C92 C 0.11096 0.48168 1.00761
 C93 C -0.00833 0.48381 0.88896
 C94 C 0.00639 0.51718 1.11296
 O95 O -0.01626 -0.07219 0.43753
 O96 O -0.00791 0.09445 0.46295
 O97 O 0.07143 0.01734 0.43607
 O98 O -0.09499 0.00599 0.46322
 O99 O -0.07111 -0.01359 0.56339
 O100 O 0.09519 -0.00440 0.53591
 O101 O 0.01776 0.07438 0.56273
 O102 O 0.00780 -0.09225 0.53760
 Cu103 Cu -0.01427 0.01334 0.43982
 Cu104 Cu 0.01468 -0.01099 0.56002
 C105 C -0.00537 -0.11052 0.48325
 C106 C 0.00629 0.11271 0.51718
 C107 C 0.11158 0.00803 0.48135
 C108 C -0.11133 -0.00515 0.51796
 N109 N -0.28257 0.48938 1.00121
 C110 C -0.30318 0.54682 0.98770
 N111 N -0.25988 0.59445 0.97758
 N112 N -0.19953 0.58495 0.97939
 C113 C -0.17964 0.52733 0.99198
 N114 N -0.22225 0.47971 1.00301
 N115 N 0.28060 0.50901 1.00256
 C116 C 0.30109 0.45142 1.01540
 N117 N 0.25768 0.40370 1.02465
 N118 N 0.19731 0.41327 1.02265
 C119 C 0.17754 0.47106 1.01073
 N120 N 0.22029 0.51875 1.00058
 N121 N 0.01707 -0.27683 0.50830
 C122 C -0.00792 -0.29940 0.45394
 N123 N -0.03152 -0.25909 0.40896
 N124 N -0.03112 -0.19895 0.41835
 C125 C -0.00709 -0.17681 0.47313
 N126 N 0.01701 -0.21681 0.51793
 N127 N -0.01390 0.27935 0.49210
 C128 C 0.01086 0.30160 0.54668
 N129 N 0.03358 0.26098 0.59183
 N130 N 0.03253 0.20081 0.58236
 C131 C 0.00866 0.17897 0.52738
 N132 N -0.01453 0.21931 0.48242
 N133 N 0.59621 0.01951 -0.25803
 C134 C 0.54831 0.00974 -0.30211
 N135 N 0.49024 -0.00289 -0.28272
 N136 N 0.48020 -0.00403 -0.22280
 C137 C 0.52807 0.00688 -0.17941
 N138 N 0.58633 0.01840 -0.19809
 N139 N 0.50838 0.00965 0.27782
 C140 C 0.45326 -0.01332 0.29864
 N141 N 0.40743 -0.03402 0.25652
 N142 N 0.41672 -0.03271 0.19638
 C143 C 0.47220 -0.01055 0.17598
 N144 N 0.51788 0.01053 0.21781
 N145 N 0.59451 -0.25884 0.01764
 C146 C 0.54632 -0.30222 0.00842
 N147 N 0.48814 -0.28205 -0.00363
 N148 N 0.47840 -0.22201 -0.00491
 C149 C 0.52664 -0.17930 0.00534
 N150 N 0.58492 -0.19881 0.01645
 N151 N 0.40682 0.25781 -0.03111
 C152 C 0.45250 0.29918 -0.00928
 N153 N 0.50782 0.27770 0.01377
 N154 N 0.51758 0.21776 0.01367
 C155 C 0.47202 0.17668 -0.00858
 N156 N 0.41637 0.19777 -0.03080
 N157 N -0.25688 -0.02072 0.59612
 C158 C -0.30077 -0.01098 0.54824
 N159 N -0.28093 0.00192 0.49063
 N160 N -0.22081 0.00328 0.48093
 C161 C -0.17761 -0.00759 0.52871
 N162 N -0.19667 -0.01934 0.58659
 N163 N 0.25839 0.03490 0.40591
 C164 C 0.30058 0.01392 0.45105
 N165 N 0.27978 -0.00964 0.50571
 N166 N 0.21973 -0.01068 0.51555
 C167 C 0.17784 0.01081 0.47066
 N168 N 0.19816 0.03342 0.41553
 N169 N 0.00002 0.48997 1.28168
 C170 C 0.01460 0.54741 1.30273
 N171 N 0.02547 0.59491 1.26001
 N172 N 0.02337 0.58524 1.19975
 C173 C 0.00976 0.52760 1.17942
 N174 N -0.00205 0.48012 1.22146
 N175 N -0.03825 0.41088 0.73958
 C176 C -0.01520 0.45559 0.69921
 N177 N 0.01046 0.50938 0.72203
 N178 N 0.01169 0.51871 0.78230
 C179 C -0.01166 0.47411 0.82236
 N180 N -0.03654 0.41995 0.79997
   
