data_POSCAR
  _audit_creation_date              2014-09-24
  _audit_creation_method            'ToBaCCo'
  _symmetry_space_group_name_H-M    'P1'
  _symmetry_Int_Tables_number       1
  _symmetry_cell_setting            triclinic
  loop_
  _symmetry_equiv_pos_as_xyz
 x,y,z
_cell_length_a 25.2037
_cell_length_b 25.1996
_cell_length_c 23.8943
_cell_angle_alpha 90.106900
_cell_angle_beta 90.109100
_cell_angle_gamma 120.211400
loop_
  _atom_site_label
  _atom_site_type_symbol
  _atom_site_fract_x
  _atom_site_fract_y
  _atom_site_fract_z
C1 C 0.53702 0.09445 0.07368
 H2 H 0.57994 0.09487 0.06919
 C3 C 0.53497 0.13996 0.10504
 H4 H 0.57662 0.17487 0.12508
 C5 C 0.43139 0.04920 0.05100
 H6 H 0.39163 0.01458 0.02861
 C7 C 0.42714 0.09386 0.08248
 H8 H 0.38375 0.09289 0.08439
 N9 N 0.48594 0.05059 0.04709
 C10 C 0.52641 -0.09563 0.01466
 H11 H 0.52425 -0.09768 -0.03057
 C12 C 0.53512 -0.13823 0.04461
 H13 H 0.54007 -0.17270 0.02190
 C14 C 0.51995 -0.04958 0.09896
 H15 H 0.51242 -0.01603 0.12009
 C16 C 0.52874 -0.09110 0.13054
 H17 H 0.52843 -0.08839 0.17575
 Zn18 Zn 0.49897 -0.00171 -0.00049
 N19 N 0.51867 -0.05271 0.04211
 C20 C 0.61779 0.05006 -0.05179
 N21 N 0.56440 0.05098 -0.04782
 C22 C 0.55702 0.09459 -0.07413
 C23 C 0.60464 0.14028 -0.10530
 C24 C 0.66675 0.09490 -0.08308
 C25 C 0.37759 -0.09672 -0.01608
 C26 C 0.32622 -0.13988 -0.04614
 C27 C 0.37940 -0.09201 -0.13190
 C28 C 0.42972 -0.05005 -0.10009
 N29 N 0.42810 -0.05331 -0.04330
 H30 H 0.62309 0.01567 -0.02961
 H31 H 0.51435 0.09465 -0.06958
 H32 H 0.59776 0.17496 -0.12513
 H33 H 0.70935 0.09428 -0.08506
 H34 H 0.37787 -0.09872 0.02914
 H35 H 0.28722 -0.17442 -0.02295
 H36 H 0.38288 -0.08843 -0.17707
 H37 H 0.47068 -0.01594 -0.12105
 C38 C 0.53559 -0.13680 0.10344
 C39 C 0.47975 0.14062 0.10922
 C40 C 0.32669 -0.13888 -0.10524
 C41 C 0.66074 0.14138 -0.10956
 C42 C -0.09477 0.46285 0.59300
 H43 H -0.09516 0.41995 0.59756
 C44 C -0.14035 0.46480 0.56166
 H45 H -0.17528 0.42308 0.54171
 C46 C -0.04953 0.56854 0.61546
 H47 H -0.01490 0.60837 0.63776
 C48 C -0.09425 0.57270 0.58400
 H49 H -0.09331 0.61608 0.58202
 N50 N -0.05089 0.51401 0.61946
 C51 C 0.09551 0.47382 0.65191
 H52 H 0.09763 0.47611 0.69714
 C53 C 0.13806 0.46503 0.62198
 H54 H 0.17257 0.46018 0.64470
 C55 C 0.04929 0.47998 0.56760
 H56 H 0.01568 0.48741 0.54647
 C57 C 0.09077 0.47112 0.53604
 H58 H 0.08798 0.47128 0.49083
 Zn59 Zn 0.00156 0.50119 0.66704
 N60 N 0.05252 0.48144 0.62446
 C61 C -0.05000 0.38249 0.71853
 N62 N -0.05096 0.43587 0.71455
 C63 C -0.09448 0.44328 0.74095
 C64 C -0.14008 0.39569 0.77223
 C65 C -0.09475 0.33356 0.74992
 C66 C 0.09648 0.62272 0.68221
 C67 C 0.13959 0.67424 0.71216
 C68 C 0.09210 0.62134 0.79806
 C69 C 0.05011 0.57079 0.76649
 N70 N 0.05318 0.57223 0.70965
 H71 H -0.01569 0.37716 0.69627
 H72 H -0.09458 0.48594 0.73640
 H73 H -0.17471 0.40259 0.79214
 H74 H -0.09412 0.29096 0.75189
 H75 H 0.09843 0.62228 0.63699
 H76 H 0.17437 0.71349 0.68946
 H77 H 0.08946 0.61865 0.84327
 H78 H 0.01622 0.52984 0.78762
 C79 C 0.13653 0.46438 0.56316
 C80 C -0.14104 0.52001 0.55738
 C81 C 0.13825 0.67369 0.77097
 C82 C -0.14116 0.33959 0.77650
 C83 C 0.55703 0.46248 0.40738
 H84 H 0.51421 0.41957 0.40277
 C85 C 0.60463 0.46458 0.43874
 H86 H 0.59760 0.42297 0.45865
 C87 C 0.61815 0.56802 0.38500
 H88 H 0.62358 0.60773 0.36272
 C89 C 0.66712 0.57233 0.41647
 H90 H 0.70986 0.61570 0.41849
 N91 N 0.56459 0.51349 0.38095
 C92 C 0.37754 0.47274 0.34837
 H93 H 0.37755 0.47465 0.30314
 C94 C 0.32622 0.46409 0.37829
 H95 H 0.28670 0.45897 0.35555
 C96 C 0.43032 0.47973 0.43270
 H97 H 0.47152 0.48744 0.45385
 C98 C 0.38001 0.47102 0.46424
 H99 H 0.38313 0.47158 0.50946
 Zn100 Zn 0.49910 0.50035 0.33332
 N101 N 0.42834 0.48071 0.37584
 C102 C 0.43146 0.38128 0.28162
 N103 N 0.48597 0.43486 0.28571
 C104 C 0.53700 0.44245 0.25930
 C105 C 0.53493 0.39486 0.22793
 C106 C 0.42719 0.33232 0.25014
 C107 C 0.52674 0.62194 0.31826
 C108 C 0.53544 0.67329 0.28834
 C109 C 0.52855 0.61950 0.20239
 C110 C 0.51978 0.56916 0.23394
 N111 N 0.51876 0.57113 0.29079
 H112 H 0.39174 0.37583 0.30389
 H113 H 0.57989 0.48527 0.26393
 H114 H 0.57655 0.40191 0.20803
 H115 H 0.38383 0.28957 0.24809
 H116 H 0.52479 0.62191 0.36349
 H117 H 0.54058 0.71282 0.31107
 H118 H 0.52803 0.61638 0.15717
 H119 H 0.51206 0.52795 0.21279
 C120 C 0.32732 0.46395 0.43711
 C121 C 0.66092 0.51978 0.44306
 C122 C 0.53564 0.67220 0.22951
 C123 C 0.47975 0.33855 0.22357
 N124 N 0.23197 0.45984 0.55634
 C125 C 0.18415 0.46011 0.53033
 N126 N 0.18260 0.45953 0.47348
 N127 N 0.22729 0.45939 0.44392
 C128 C 0.27551 0.45990 0.46993
 N129 N 0.27669 0.45976 0.52678
 N130 N 0.54024 0.81703 0.19312
 C131 C 0.53976 0.81552 0.13627
 N132 N 0.54005 0.76769 0.11027
 N133 N 0.54003 0.72292 0.13984
 C134 C 0.53979 0.72406 0.19669
 N135 N 0.54029 0.77229 0.22269
 N136 N 0.22959 0.77048 0.89028
 C137 C 0.27914 0.81731 0.86458
 N138 N 0.28053 0.81759 0.80763
 N139 N 0.23529 0.77285 0.77796
 C140 C 0.18646 0.72568 0.80383
 N141 N 0.18440 0.72568 0.86062
 N142 N 0.75683 0.46756 0.51337
 C143 C 0.80810 0.52108 0.52723
 N144 N 0.81086 0.57479 0.51359
 N145 N 0.76427 0.57473 0.48689
 C146 C 0.71292 0.52098 0.47321
 N147 N 0.71031 0.46751 0.48703
 N148 N 0.42488 0.18865 0.15295
 C149 C 0.47860 0.19145 0.13938
 N150 N 0.53208 0.24271 0.15331
 N151 N 0.53208 0.28921 0.17966
 C152 C 0.47860 0.28657 0.19341
 N153 N 0.42488 0.23522 0.17966
 N154 N -0.28956 0.24334 0.84669
 C155 C -0.28724 0.19232 0.86042
 N156 N -0.23618 0.18985 0.84675
 N157 N -0.18958 0.23647 0.82014
 C158 C -0.19204 0.28758 0.80658
 N159 N -0.24301 0.28992 0.82043
   
