data_POSCAR
  _audit_creation_date              2014-09-24
  _audit_creation_method            'ToBaCCo'
  _symmetry_space_group_name_H-M    'P1'
  _symmetry_Int_Tables_number       1
  _symmetry_cell_setting            triclinic
  loop_
  _symmetry_equiv_pos_as_xyz
 x,y,z
_cell_length_a 45.0556
_cell_length_b 43.7327
_cell_length_c 46.1990
_cell_angle_alpha 90.029200
_cell_angle_beta 90.213900
_cell_angle_gamma 91.914300
loop_
  _atom_site_label
  _atom_site_type_symbol
  _atom_site_fract_x
  _atom_site_fract_y
  _atom_site_fract_z
C1 C 0.21689 0.17443 0.20159
 C2 C 0.19724 0.17177 0.22495
 C3 C 0.17149 0.18899 0.22591
 C4 C 0.16579 0.20946 0.20323
 C5 C 0.18536 0.21244 0.17972
 C6 C 0.21100 0.19480 0.17887
 C7 C 0.24230 0.15688 0.20069
 C8 C 0.26200 0.15898 0.17716
 C9 C 0.25604 0.17954 0.15456
 C10 C 0.23077 0.19754 0.15534
 C11 C 0.22487 0.21816 0.13292
 C12 C 0.19937 0.23586 0.13360
 C13 C 0.17968 0.23276 0.15705
 H14 H 0.20233 0.15639 0.24250
 H15 H 0.14594 0.22276 0.20360
 H16 H 0.24659 0.14163 0.21854
 H17 H 0.27073 0.18144 0.13613
 H18 H 0.23999 0.22016 0.11478
 H19 H 0.16020 0.24657 0.15800
 C20 C 0.72885 0.68348 0.71658
 C21 C 0.71082 0.68516 0.74123
 C22 C 0.68762 0.70590 0.74248
 C23 C 0.68263 0.72497 0.71859
 C24 C 0.70040 0.72345 0.69382
 C25 C 0.72367 0.70275 0.69278
 C26 C 0.75182 0.66267 0.71531
 C27 C 0.76973 0.66069 0.69051
 C28 C 0.76446 0.68018 0.66691
 C29 C 0.74161 0.70119 0.66787
 C30 C 0.73606 0.72032 0.64415
 C31 C 0.71256 0.74064 0.64495
 C32 C 0.69506 0.74223 0.66997
 H33 H 0.71471 0.66990 0.75918
 H34 H 0.66506 0.74125 0.71925
 H35 H 0.75576 0.64814 0.73380
 H36 H 0.77764 0.67873 0.64746
 H37 H 0.74953 0.71886 0.62484
 H38 H 0.67727 0.75826 0.67104
 C39 C 0.30965 0.82202 0.73362
 C40 C 0.33524 0.80987 0.74606
 C41 C 0.34937 0.78533 0.73282
 C42 C 0.33819 0.77352 0.70648
 C43 C 0.31298 0.78569 0.69352
 C44 C 0.29856 0.80989 0.70726
 C45 C 0.29461 0.84561 0.74745
 C46 C 0.26836 0.85731 0.73547
 C47 C 0.25803 0.84514 0.70881
 C48 C 0.27287 0.82176 0.69476
 C49 C 0.26209 0.80994 0.66840
 C50 C 0.27643 0.78610 0.65434
 C51 C 0.30176 0.77386 0.66720
 H52 H 0.34353 0.81877 0.76655
 H53 H 0.34913 0.75481 0.69602
 H54 H 0.30334 0.85410 0.76784
 H55 H 0.23843 0.85371 0.69849
 H56 H 0.24212 0.81902 0.65911
 H57 H 0.31298 0.75544 0.65656
 C58 C 0.78709 0.30326 0.26627
 C59 C 0.80814 0.29176 0.28531
 C60 C 0.83178 0.27444 0.27522
 C61 C 0.83306 0.26754 0.24536
 C62 C 0.81111 0.27778 0.22614
 C63 C 0.78851 0.29644 0.23661
 C64 C 0.76507 0.32218 0.27663
 C65 C 0.74472 0.33556 0.25771
 C66 C 0.74574 0.32808 0.22807
 C67 C 0.76736 0.30843 0.21748
 C68 C 0.76826 0.30067 0.18808
 C69 C 0.78979 0.28094 0.17757
 C70 C 0.81132 0.26978 0.19666
 H71 H 0.80685 0.29826 0.30784
 H72 H 0.85065 0.25371 0.23711
 H73 H 0.76431 0.32657 0.29961
 H74 H 0.73011 0.33781 0.21310
 H75 H 0.75160 0.30931 0.17353
 H76 H 0.82824 0.25501 0.18851
 C77 C 0.78326 0.67783 0.27270
 C78 C 0.80065 0.67507 0.24786
 C79 C 0.82168 0.69818 0.23997
 C80 C 0.82461 0.72456 0.25758
 C81 C 0.80689 0.72785 0.28230
 C82 C 0.78633 0.70426 0.28996
 C83 C 0.76282 0.65442 0.28053
 C84 C 0.74519 0.65711 0.30539
 C85 C 0.74839 0.68354 0.32250
 C86 C 0.76876 0.70708 0.31490
 C87 C 0.77154 0.73352 0.33181
 C88 C 0.79147 0.75760 0.32418
 C89 C 0.80924 0.75445 0.29938
 H90 H 0.79819 0.65418 0.23544
 H91 H 0.84017 0.74295 0.25192
 H92 H 0.76081 0.63403 0.26725
 H93 H 0.73461 0.68627 0.34141
 H94 H 0.75803 0.73504 0.35102
 H95 H 0.82467 0.77267 0.29301
 C96 C 0.27277 0.20448 -0.25109
 C97 C 0.29168 0.20378 -0.27511
 C98 C 0.31796 0.22231 -0.27625
 C99 C 0.32488 0.24152 -0.25236
 C100 C 0.30612 0.24250 -0.22823
 C101 C 0.27989 0.22408 -0.22767
 C102 C 0.24684 0.18575 -0.25007
 C103 C 0.22773 0.18682 -0.22616
 C104 C 0.23480 0.20668 -0.20309
 C105 C 0.26080 0.22516 -0.20361
 C106 C 0.26809 0.24448 -0.18028
 C107 C 0.29433 0.26277 -0.18051
 C108 C 0.31322 0.26168 -0.20462
 H109 H 0.28569 0.18831 -0.29257
 H110 H 0.34468 0.25617 -0.25232
 H111 H 0.24135 0.17061 -0.26803
 H112 H 0.22045 0.20729 -0.18435
 H113 H 0.25350 0.24480 -0.16170
 H114 H 0.33328 0.27602 -0.20525
 C115 C 0.69321 0.28628 -0.21757
 C116 C 0.66806 0.27851 -0.23447
 C117 C 0.65411 0.24912 -0.23258
 C118 C 0.66718 0.22718 -0.21457
 C119 C 0.69221 0.23465 -0.19762
 C120 C 0.70491 0.26444 -0.19856
 C121 C 0.70647 0.31580 -0.21880
 C122 C 0.73039 0.32382 -0.20051
 C123 C 0.74145 0.30228 -0.18113
 C124 C 0.72915 0.27245 -0.18027
 C125 C 0.74052 0.25054 -0.16134
 C126 C 0.72846 0.22053 -0.16110
 C127 C 0.70438 0.21275 -0.17932
 H128 H 0.65906 0.29588 -0.24831
 H129 H 0.65815 0.20405 -0.21328
 H130 H 0.69774 0.33279 -0.23333
 H131 H 0.75982 0.30877 -0.16691
 H132 H 0.75907 0.25663 -0.14722
 H133 H 0.69458 0.18978 -0.17866
 C134 C 0.17971 0.83146 0.28721
 C135 C 0.15167 0.82845 0.27411
 C136 C 0.13638 0.80000 0.27309
 C137 C 0.14920 0.77442 0.28576
 C138 C 0.17699 0.77730 0.29955
 C139 C 0.19251 0.80589 0.30004
 C140 C 0.19531 0.85961 0.28692
 C141 C 0.22433 0.86273 0.29830
 C142 C 0.23687 0.83705 0.31163
 C143 C 0.22083 0.80886 0.31317
 C144 C 0.23251 0.78351 0.32748
 C145 C 0.21673 0.75521 0.32753
 C146 C 0.18943 0.75209 0.31299
 H147 H 0.14224 0.84817 0.26381
 H148 H 0.13740 0.75241 0.28517
 H149 H 0.18515 0.87847 0.27598
 H150 H 0.25885 0.83900 0.32117
 H151 H 0.25381 0.78564 0.33842
 H152 H 0.17738 0.73020 0.31306
 C153 C 0.43218 0.46621 0.49341
 C154 C 0.44922 0.44684 0.51043
 C155 C 0.47562 0.43507 0.49965
 C156 C 0.48491 0.44282 0.47153
 C157 C 0.46786 0.46184 0.45409
 C158 C 0.44143 0.47364 0.46507
 C159 C 0.40608 0.47834 0.50435
 C160 C 0.38905 0.49787 0.48737
 C161 C 0.39825 0.50491 0.45901
 C162 C 0.42427 0.49286 0.44772
 C163 C 0.43338 0.49978 0.41938
 C164 C 0.45973 0.48810 0.40815
 C165 C 0.47682 0.46915 0.42583
 H166 H 0.44207 0.44119 0.53222
 H167 H 0.50503 0.43349 0.46291
 H168 H 0.39944 0.47299 0.52633
 H169 H 0.38505 0.51959 0.44557
 H170 H 0.41969 0.51414 0.40620
 H171 H 0.49733 0.46017 0.41787
 C172 C -0.04900 -0.06174 0.99851
 C173 C -0.03784 -0.08867 1.01032
 C174 C -0.01833 -0.10662 0.99436
 C175 C -0.01009 -0.09726 0.96634
 C176 C -0.02094 -0.07044 0.95434
 C177 C -0.04066 -0.05271 0.97035
 C178 C -0.06831 -0.04372 1.01449
 C179 C -0.07986 -0.01675 1.00268
 C180 C -0.07148 -0.00833 0.97425
 C181 C -0.05196 -0.02594 0.95818
 C182 C -0.04333 -0.01701 0.93017
 C183 C -0.02333 -0.03437 0.91429
 C184 C -0.01231 -0.06109 0.92652
 H185 H -0.04410 -0.09538 1.03208
 H186 H 0.00451 -0.11096 0.95353
 H187 H -0.07457 -0.05141 1.03591
 H188 H -0.07948 0.01232 0.96450
 H189 H -0.05170 0.00383 0.92102
 H190 H 0.00282 -0.07482 0.91427
 C191 C 1.05902 0.53360 0.97827
 C192 C 1.05301 0.54638 1.00549
 C193 C 1.02352 0.55106 1.01408
 C194 C 1.00015 0.54284 0.99498
 C195 C 1.00602 0.53242 0.96702
 C196 C 1.03556 0.52812 0.95846
 C197 C 1.08791 0.52559 0.97069
 C198 C 1.09389 0.51366 0.94298
 C199 C 1.07072 0.51161 0.92241
 C200 C 1.04155 0.51794 0.93019
 C201 C 1.01808 0.51292 0.91050
 C202 C 0.98861 0.51670 0.91915
 C203 C 0.98272 0.52632 0.94745
 H204 H 1.07117 0.55169 1.02033
 H205 H 0.97733 0.54660 1.00091
 H206 H 1.10567 0.52861 0.98642
 H207 H 1.07455 0.50254 0.90100
 H208 H 1.02264 0.50482 0.88883
 H209 H 0.95998 0.52944 0.95413
 C210 C 0.55210 0.04611 0.48385
 C211 C 0.55408 0.07113 0.50262
 C212 C 0.54439 0.09978 0.49390
 C213 C 0.53079 0.10298 0.46672
 C214 C 0.52896 0.07800 0.44746
 C215 C 0.54051 0.04968 0.45578
 C216 C 0.56269 0.01790 0.49245
 C217 C 0.56479 -0.00617 0.47251
 C218 C 0.55443 -0.00224 0.44401
 C219 C 0.54093 0.02509 0.43597
 C220 C 0.52798 0.02838 0.40852
 C221 C 0.51520 0.05607 0.40054
 C222 C 0.51631 0.08094 0.41990
 H223 H 0.56394 0.06855 0.52390
 H224 H 0.52294 0.12510 0.46015
 H225 H 0.57161 0.01563 0.51415
 H226 H 0.55580 -0.02080 0.42855
 H227 H 0.52781 0.00944 0.39338
 H228 H 0.50671 0.10241 0.41381
 C229 C -0.06022 0.06227 0.52403
 C230 C -0.04683 0.08756 0.50996
 C231 C -0.01758 0.09731 0.51679
 C232 C -0.00184 0.08146 0.53807
 C233 C -0.01492 0.05612 0.55226
 C234 C -0.04417 0.04634 0.54513
 C235 C -0.08938 0.05260 0.51722
 C236 C -0.10281 0.02711 0.53112
 C237 C -0.08654 0.01115 0.55194
 C238 C -0.05733 0.02060 0.55904
 C239 C -0.04109 0.00478 0.57988
 C240 C -0.01200 0.01460 0.58724
 C241 C 0.00089 0.04031 0.57336
 H242 H -0.05933 0.09977 0.49386
 H243 H 0.02085 0.08836 0.54329
 H244 H -0.10133 0.06469 0.50065
 H245 H -0.09667 -0.00845 0.56286
 H246 H -0.05133 -0.01479 0.59076
 H247 H 0.02342 0.04781 0.57871
 C248 C 0.44442 0.54955 0.01884
 C249 C 0.44646 0.56755 -0.00614
 C250 C 0.47102 0.58774 -0.01081
 C251 C 0.49368 0.58959 0.01039
 C252 C 0.49230 0.57096 0.03520
 C253 C 0.46743 0.55108 0.03951
 C254 C 0.41963 0.52994 0.02335
 C255 C 0.41750 0.51168 0.04831
 C256 C 0.44061 0.51314 0.06878
 C257 C 0.46559 0.53258 0.06444
 C258 C 0.48887 0.53351 0.08457
 C259 C 0.51424 0.55259 0.08026
 C260 C 0.51559 0.57150 0.05555
 H261 H 0.42820 0.56627 -0.02141
 H262 H 0.51301 0.60459 0.00722
 H263 H 0.40185 0.52917 0.00749
 H264 H 0.43952 0.49872 0.08783
 H265 H 0.48696 0.51921 0.10360
 H266 H 0.53484 0.58634 0.05168
 C267 C 0.57551 -0.03535 0.02120
 C268 C 0.57467 -0.05135 -0.00514
 C269 C 0.55329 -0.07506 -0.01018
 C270 C 0.53281 -0.08281 0.01179
 C271 C 0.53342 -0.06711 0.03832
 C272 C 0.55482 -0.04328 0.04299
 C273 C 0.59650 -0.01130 0.02599
 C274 C 0.59692 0.00504 0.05227
 C275 C 0.57648 -0.00344 0.07395
 C276 C 0.55541 -0.02723 0.06942
 C277 C 0.53467 -0.03489 0.09091
 C278 C 0.51300 -0.05826 0.08639
 C279 C 0.51267 -0.07450 0.06010
 H280 H 0.59094 -0.04538 -0.02152
 H281 H 0.51608 -0.10077 0.00819
 H282 H 0.61203 -0.00494 0.00901
 H283 H 0.57687 0.00837 0.09455
 H284 H 0.53547 -0.02251 0.11123
 H285 H 0.49589 -0.09237 0.05625
 C286 C 1.06348 0.44204 0.52317
 C287 C 1.06850 0.41770 0.50404
 C288 C 1.05974 0.38748 0.51150
 C289 C 1.04487 0.38214 0.53786
 C290 C 1.03767 0.40643 0.55598
 C291 C 1.04730 0.43644 0.54887
 C292 C 1.07457 0.47181 0.51726
 C293 C 1.06909 0.49603 0.53638
 C294 C 1.05159 0.49045 0.56107
 C295 C 1.04070 0.46084 0.56748
 C296 C 1.02344 0.45522 0.59230
 C297 C 1.01278 0.42542 0.59897
 C298 C 1.02051 0.40111 0.58086
 H299 H 1.08041 0.42210 0.48404
 H300 H 1.03715 0.35921 0.54359
 H301 H 1.08759 0.47614 0.49792
 H302 H 1.04724 0.50898 0.57587
 H303 H 1.01836 0.47414 0.60637
 H304 H 1.01249 0.37804 0.58544
 C305 C 0.43450 -0.00792 0.20523
 H306 H 0.44096 0.01388 0.21483
 C307 C 0.45178 -0.02025 0.18345
 H308 H 0.47173 -0.00776 0.17686
 C309 C 0.40048 -0.05032 0.20259
 H310 H 0.38032 -0.06181 0.21002
 C311 C 0.41706 -0.06344 0.18057
 H312 H 0.40917 -0.08490 0.17124
 N313 N 0.40916 -0.02276 0.21401
 C314 C 0.34573 0.04464 0.23907
 H315 H 0.34089 0.03718 0.26092
 C316 C 0.33054 0.06890 0.22710
 H317 H 0.31421 0.08012 0.24011
 C318 C 0.37317 0.03896 0.19586
 H319 H 0.38953 0.02700 0.18361
 C320 C 0.35860 0.06328 0.18308
 H321 H 0.36392 0.06963 0.16102
 Zn322 Zn 0.38587 -0.00268 0.24159
 N323 N 0.36674 0.03035 0.22350
 C324 C 0.41303 0.04365 0.27571
 N325 N 0.41122 0.01287 0.27148
 C326 C 0.42859 -0.00618 0.28686
 C327 C 0.44853 0.00566 0.30768
 C328 C 0.43260 0.05640 0.29614
 C329 C 0.33212 -0.03422 0.23759
 C330 C 0.30660 -0.05009 0.24680
 C331 C 0.32996 -0.05781 0.29327
 C332 C 0.35498 -0.04102 0.28336
 N333 N 0.35544 -0.02943 0.25597
 H334 H 0.39962 0.05859 0.26295
 H335 H 0.42727 -0.03053 0.28266
 H336 H 0.46234 -0.00982 0.31952
 H337 H 0.43316 0.08092 0.29917
 H338 H 0.33296 -0.02459 0.21604
 H339 H 0.28780 -0.05273 0.23221
 H340 H 0.32935 -0.06629 0.31529
 H341 H 0.37355 -0.03659 0.29778
 C342 C 0.33696 0.07860 0.19876
 C343 C 0.44289 -0.04815 0.17038
 C344 C 0.30524 -0.06174 0.27499
 C345 C 0.45084 0.03742 0.31237
 C346 C 0.07608 -0.03123 0.71470
 H347 H 0.07694 -0.04942 0.73052
 C348 C 0.05785 -0.03470 0.69037
 H349 H 0.04494 -0.05581 0.68789
 C350 C 0.09087 0.01891 0.70023
 H351 H 0.10314 0.04007 0.70454
 C352 C 0.07301 0.01637 0.67550
 H353 H 0.07239 0.03562 0.66086
 N354 N 0.09193 -0.00469 0.71930
 C355 C 0.15965 -0.02948 0.78245
 H356 H 0.15427 -0.01493 0.80050
 C357 C 0.18418 -0.04820 0.78417
 H358 H 0.19704 -0.04818 0.80396
 C359 C 0.14937 -0.04649 0.73469
 H360 H 0.13623 -0.04522 0.71516
 C361 C 0.17372 -0.06539 0.73542
 H362 H 0.17865 -0.07846 0.71627
 Zn363 Zn 0.11181 -0.00083 0.75531
 N364 N 0.14279 -0.02900 0.75799
 C365 C 0.08394 -0.02897 0.80511
 N366 N 0.08222 -0.00773 0.78375
 C367 C 0.05819 0.01004 0.78112
 C368 C 0.03503 0.00764 0.80096
 C369 C 0.06112 -0.03222 0.82548
 C370 C 0.15074 0.04900 0.74178
 C371 C 0.16408 0.07812 0.74528
 C372 C 0.13267 0.08591 0.78669
 C373 C 0.12006 0.05672 0.78248
 N374 N 0.12891 0.03904 0.76010
 H375 H 0.10296 -0.04332 0.80646
 H376 H 0.05730 0.02654 0.76373
 H377 H 0.01671 0.02277 0.79859
 H378 H 0.06297 -0.04920 0.84234
 H379 H 0.15775 0.03429 0.72445
 H380 H 0.18121 0.08574 0.73032
 H381 H 0.12545 0.09923 0.80494
 H382 H 0.10348 0.04812 0.79747
 C383 C 0.19171 -0.06636 0.76034
 C384 C 0.05573 -0.01053 0.67050
 C385 C 0.15493 0.09704 0.76792
 C386 C 0.03629 -0.01357 0.82369
 C387 C 0.60498 0.53767 0.21198
 H388 H 0.61755 0.55268 0.22634
 C389 C 0.59674 0.54847 0.18483
 H390 H 0.60339 0.57159 0.17882
 C391 C 0.57900 0.49051 0.20353
 H392 H 0.57176 0.46815 0.21128
 C393 C 0.57014 0.50047 0.17617
 H394 H 0.55636 0.48536 0.16284
 N395 N 0.59601 0.50918 0.22085
 C396 C 0.63198 0.45147 0.28852
 H397 H 0.62360 0.46386 0.30687
 C398 C 0.65126 0.42776 0.29302
 H399 H 0.65652 0.42158 0.31505
 C400 C 0.63567 0.44574 0.23768
 H401 H 0.63028 0.45364 0.21619
 C402 C 0.65557 0.42202 0.24123
 H403 H 0.66511 0.41171 0.22227
 Zn404 Zn 0.60423 0.49711 0.25931
 N405 N 0.62476 0.46020 0.26127
 C406 C 0.55918 0.46922 0.29495
 N407 N 0.56798 0.49467 0.27995
 C408 C 0.55187 0.52040 0.28054
 C409 C 0.52708 0.52206 0.29842
 C410 C 0.53460 0.46992 0.31325
 C411 C 0.65705 0.53107 0.26436
 C412 C 0.67716 0.55306 0.27530
 C413 C 0.64190 0.56439 0.31280
 C414 C 0.62232 0.54230 0.30097
 N415 N 0.62995 0.52669 0.27678
 H416 H 0.57167 0.44863 0.29350
 H417 H 0.55921 0.54022 0.26815
 H418 H 0.51562 0.54336 0.29965
 H419 H 0.52849 0.44975 0.32573
 H420 H 0.66275 0.51779 0.24554
 H421 H 0.69844 0.55651 0.26481
 H422 H 0.63514 0.57719 0.33157
 H423 H 0.60106 0.53782 0.31109
 C424 C 0.66424 0.41337 0.26926
 C425 C 0.57875 0.52999 0.16667
 C426 C 0.66951 0.57029 0.29962
 C427 C 0.51870 0.49689 0.31575
 C428 C 0.92185 0.47943 0.70885
 H429 H 0.92447 0.50279 0.71640
 C430 C 0.94216 0.46796 0.68926
 H431 H 0.96036 0.48269 0.68184
 C432 C 0.89536 0.43176 0.71022
 H433 H 0.87752 0.41751 0.71893
 C434 C 0.91545 0.41920 0.69088
 H435 H 0.91227 0.39555 0.68433
 N436 N 0.89862 0.46157 0.71842
 C437 C 0.84054 0.53365 0.74718
 H438 H 0.83642 0.52639 0.76923
 C439 C 0.82832 0.56050 0.73686
 H440 H 0.81502 0.57392 0.75124
 C441 C 0.86292 0.52483 0.70175
 H442 H 0.87574 0.51051 0.68785
 C443 C 0.85135 0.55164 0.69062
 H444 H 0.85561 0.55759 0.66826
 Zn445 Zn 0.87326 0.48036 0.74535
 N446 N 0.85776 0.51661 0.72973
 C447 C 0.90326 0.51787 0.78816
 N448 N 0.89688 0.48900 0.77842
 C449 C 0.90579 0.46402 0.79320
 C450 C 0.91951 0.46736 0.82012
 C451 C 0.91781 0.52227 0.81474
 C452 C 0.82393 0.43722 0.73843
 C453 C 0.80082 0.41790 0.74868
 C454 C 0.81113 0.43640 0.79702
 C455 C 0.83397 0.45505 0.78595
 N456 N 0.84064 0.45454 0.75726
 H457 H 0.89638 0.53739 0.77581
 H458 H 0.90063 0.44137 0.78476
 H459 H 0.92506 0.44727 0.83247
 H460 H 0.92197 0.54522 0.82295
 H461 H 0.82874 0.43808 0.71552
 H462 H 0.78813 0.40381 0.73350
 H463 H 0.80727 0.43673 0.82009
 H464 H 0.84640 0.47002 0.80048
 C465 C 0.83387 0.56991 0.70827
 C466 C 0.93907 0.43749 0.67998
 C467 C 0.79441 0.41712 0.77845
 C468 C 0.92519 0.49672 0.83122
 C469 C 0.21240 0.43171 -0.00860
 H470 H 0.21824 0.43125 0.01413
 C471 C 0.19253 0.45314 -0.01883
 H472 H 0.18312 0.46897 -0.00368
 C473 C 0.21833 0.41201 -0.05588
 H474 H 0.22869 0.39629 -0.07041
 C475 C 0.19860 0.43294 -0.06700
 H476 H 0.19365 0.43215 -0.08989
 N477 N 0.22452 0.41142 -0.02708
 C478 C 0.25113 0.33209 0.02303
 H479 H 0.27365 0.33032 0.01533
 C480 C 0.23965 0.31081 0.04289
 H481 H 0.25358 0.29263 0.05014
 C482 C 0.20574 0.35788 0.02233
 H483 H 0.19256 0.37619 0.01418
 C484 C 0.19336 0.33710 0.04223
 H485 H 0.17085 0.34016 0.04940
 Zn486 Zn 0.25227 0.38352 -0.01265
 N487 N 0.23431 0.35531 0.01354
 C488 C 0.29052 0.40086 0.03403
 N489 N 0.28267 0.40671 0.00617
 C490 C 0.29582 0.43010 -0.00891
 C491 C 0.31846 0.44814 0.00369
 C492 C 0.31311 0.41831 0.04748
 C493 C 0.24950 0.34041 -0.05728
 C494 C 0.25943 0.32361 -0.08082
 C495 C 0.30778 0.34848 -0.07532
 C496 C 0.29693 0.36472 -0.05178
 N497 N 0.26810 0.36084 -0.04359
 H498 H 0.27938 0.38260 0.04589
 H499 H 0.28872 0.43461 -0.03085
 H500 H 0.32851 0.46662 -0.00881
 H501 H 0.31937 0.41273 0.06941
 H502 H 0.22678 0.33745 -0.05006
 H503 H 0.24404 0.30761 -0.09128
 H504 H 0.33060 0.35264 -0.08171
 H505 H 0.31157 0.38062 -0.04032
 C506 C 0.21046 0.31328 0.05299
 C507 C 0.18522 0.45384 -0.04843
 C508 C 0.28888 0.32774 -0.09040
 C509 C 0.32755 0.44221 0.03221
 C510 C 0.73291 0.08299 0.02561
 H511 H 0.75024 0.07175 0.01397
 C512 C 0.70655 0.06674 0.03220
 H513 H 0.70396 0.04310 0.02545
 C514 C 0.71585 0.12699 0.04934
 H515 H 0.71937 0.15042 0.05611
 C516 C 0.68919 0.11165 0.05633
 H517 H 0.67263 0.12396 0.06804
 N518 N 0.73702 0.11268 0.03399
 C519 C 0.77700 0.17570 -0.02405
 H520 H 0.78552 0.19232 -0.00857
 C521 C 0.77269 0.18450 -0.05285
 H522 H 0.77774 0.20795 -0.05907
 C523 C 0.76079 0.12496 -0.03500
 H524 H 0.75612 0.10177 -0.02801
 C525 C 0.75628 0.13271 -0.06391
 H526 H 0.74767 0.11523 -0.07852
 Zn527 Zn 0.77311 0.13394 0.02383
 N528 N 0.77037 0.14647 -0.01555
 C529 C 0.82432 0.10381 0.00583
 N530 N 0.80443 0.10642 0.02766
 C531 C 0.80531 0.08807 0.05136
 C532 C 0.82636 0.06542 0.05342
 C533 C 0.84585 0.08160 0.00706
 C534 C 0.76137 0.19259 0.04533
 C535 C 0.76395 0.21779 0.06380
 C536 C 0.80354 0.19311 0.08910
 C537 C 0.80048 0.16847 0.06982
 N538 N 0.77937 0.16847 0.04864
 H539 H 0.82327 0.11870 -0.01278
 H540 H 0.78904 0.09047 0.06831
 H541 H 0.82587 0.05058 0.07212
 H542 H 0.86132 0.08005 -0.01067
 H543 H 0.74458 0.19204 0.02852
 H544 H 0.74885 0.23629 0.06102
 H545 H 0.82017 0.19257 0.10605
 H546 H 0.81460 0.14913 0.07215
 C547 C 0.76182 0.16293 -0.07314
 C548 C 0.68419 0.08109 0.04775
 C549 C 0.78505 0.21816 0.08622
 C550 C 0.84683 0.06164 0.03088
 C551 C 0.18971 0.59064 0.49452
 H552 H 0.20688 0.58183 0.48087
 C553 C 0.16363 0.57311 0.49904
 H554 H 0.16079 0.55126 0.48820
 C555 C 0.17325 0.62911 0.52611
 H556 H 0.17722 0.65054 0.53724
 C557 C 0.14680 0.61239 0.53115
 H558 H 0.13097 0.62144 0.54617
 N559 N 0.19401 0.61824 0.50780
 C560 C 0.24263 0.68691 0.46058
 H561 H 0.25050 0.70002 0.47905
 C562 C 0.24381 0.70014 0.43306
 H563 H 0.25227 0.72347 0.43078
 C564 C 0.22310 0.64041 0.44097
 H565 H 0.21519 0.61709 0.44404
 C566 C 0.22403 0.65267 0.41309
 H567 H 0.21612 0.63859 0.39523
 Zn568 Zn 0.23100 0.63979 0.50173
 N569 N 0.23205 0.65762 0.46412
 C570 C 0.28099 0.60830 0.48259
 N571 N 0.26115 0.61098 0.50446
 C572 C 0.26149 0.59212 0.52782
 C573 C 0.28224 0.56919 0.52969
 C574 C 0.30205 0.58564 0.48353
 C575 C 0.21865 0.69506 0.52961
 C576 C 0.22280 0.71930 0.54900
 C577 C 0.26508 0.69408 0.56902
 C578 C 0.26015 0.67029 0.54912
 N579 N 0.23718 0.67115 0.52995
 H580 H 0.28031 0.62351 0.46419
 H581 H 0.24534 0.59471 0.54484
 H582 H 0.28206 0.55464 0.54860
 H583 H 0.31718 0.58370 0.46556
 H584 H 0.20077 0.69546 0.51393
 H585 H 0.20749 0.73781 0.54833
 H586 H 0.28368 0.69310 0.58384
 H587 H 0.27494 0.65135 0.54883
 C588 C 0.23434 0.68299 0.40884
 C589 C 0.14169 0.58394 0.51756
 C590 C 0.24637 0.71915 0.56899
 C591 C 0.30275 0.56550 0.50720
 C592 C 0.69266 0.91255 0.50612
 H593 H 0.70674 0.91228 0.52514
 C594 C 0.66437 0.92395 0.50798
 H595 H 0.65726 0.93324 0.52843
 C596 C 0.68545 0.90076 0.45644
 H597 H 0.69379 0.89137 0.43653
 C598 C 0.65679 0.91236 0.45727
 H599 H 0.64317 0.91200 0.43791
 N600 N 0.70239 0.90057 0.48092
 C601 C 0.75480 0.83788 0.52977
 H602 H 0.77777 0.84493 0.52666
 C603 C 0.74719 0.81691 0.55174
 H604 H 0.76441 0.80876 0.56587
 C605 C 0.70456 0.83939 0.51498
 H606 H 0.68791 0.84763 0.50032
 C607 C 0.69610 0.81834 0.53615
 H608 H 0.67302 0.81089 0.53719
 Zn609 Zn 0.73935 0.88196 0.48540
 N610 N 0.73322 0.84992 0.51296
 C611 C 0.78299 0.91387 0.52213
 N612 N 0.76637 0.91374 0.49745
 C613 C 0.76762 0.93784 0.47886
 C614 C 0.78670 0.96293 0.48419
 C615 C 0.80289 0.93837 0.52804
 C616 C 0.73516 0.84364 0.43674
 C617 C 0.74506 0.82947 0.41166
 C618 C 0.79107 0.85921 0.41543
 C619 C 0.78022 0.87290 0.44035
 N620 N 0.75271 0.86495 0.45047
 H621 H 0.78095 0.89524 0.53731
 H622 H 0.75391 0.93732 0.45958
 H623 H 0.78773 0.98151 0.46872
 H624 H 0.81630 0.93807 0.54753
 H625 H 0.71354 0.83743 0.44547
 H626 H 0.73055 0.81268 0.40113
 H627 H 0.81330 0.86542 0.40835
 H628 H 0.79418 0.88930 0.45200
 C629 C 0.71724 0.80774 0.55572
 C630 C 0.64578 0.92339 0.48356
 C631 C 0.77353 0.83697 0.40082
 C632 C 0.80489 0.96322 0.50885
 C633 C 0.04038 0.21094 0.41118
 H634 H 0.06130 0.22217 0.40547
 C635 C 0.03869 0.19225 0.43555
 H636 H 0.05860 0.18890 0.44815
 C637 C -0.01084 0.20197 0.40140
 H638 H -0.03024 0.20647 0.38848
 C639 C -0.01349 0.18280 0.42558
 H640 H -0.03497 0.17251 0.43088
 N641 N 0.01589 0.21549 0.39467
 C642 C 0.06416 0.24743 0.31877
 H643 H 0.05850 0.27124 0.31752
 C644 C 0.08576 0.23597 0.30037
 H645 H 0.09673 0.25134 0.28519
 C646 C 0.05674 0.19871 0.34039
 H647 H 0.04499 0.18407 0.35565
 C648 C 0.07790 0.18629 0.32237
 H649 H 0.08193 0.16216 0.32426
 Zn650 Zn 0.02181 0.24392 0.36417
 N651 N 0.05061 0.22886 0.33866
 C652 C 0.06497 0.28760 0.38521
 N653 N 0.03542 0.28009 0.38345
 C654 C 0.01557 0.29297 0.40149
 C655 C 0.02521 0.31351 0.42288
 C656 C 0.07565 0.30754 0.40689
 C657 C -0.02790 0.22406 0.33157
 C658 C -0.05644 0.22584 0.31980
 C659 C -0.05489 0.27998 0.33033
 C660 C -0.02635 0.27723 0.34167
 N661 N -0.01405 0.24930 0.34336
 H662 H 0.08056 0.27594 0.37174
 H663 H -0.00749 0.28532 0.40090
 H664 H 0.00936 0.32193 0.43831
 H665 H 0.09935 0.31134 0.40977
 H666 H -0.01743 0.20219 0.33281
 H667 H -0.06812 0.20528 0.31227
 H668 H -0.06530 0.30194 0.33085
 H669 H -0.01461 0.29724 0.35016
 C670 C 0.09312 0.20500 0.30224
 C671 C 0.01147 0.17804 0.44314
 C672 C -0.07041 0.25392 0.31996
 C673 C 0.05562 0.32006 0.42636
 C674 C -0.00499 0.68161 0.08658
 H675 H -0.02138 0.69705 0.07857
 C676 C -0.00242 0.65310 0.07373
 H677 H -0.01674 0.64671 0.05567
 C678 C 0.03214 0.67033 0.12113
 H679 H 0.04518 0.67698 0.13989
 C680 C 0.03552 0.64134 0.10873
 H681 H 0.05094 0.62564 0.11813
 N682 N 0.01126 0.68925 0.11051
 C683 C -0.05309 0.74060 0.15910
 H684 H -0.04247 0.76310 0.16070
 C685 C -0.08073 0.73478 0.17209
 H686 H -0.09144 0.75302 0.18346
 C687 C -0.05182 0.68930 0.14278
 H688 H -0.04027 0.67126 0.13215
 C689 C -0.07940 0.68261 0.15511
 H690 H -0.08855 0.65946 0.15365
 Zn691 Zn -0.00137 0.72572 0.12818
 N692 N -0.03936 0.71799 0.14460
 C693 C -0.02791 0.77058 0.09188
 N694 N -0.00292 0.75542 0.09855
 C695 C 0.02295 0.76113 0.08423
 C696 C 0.02469 0.78342 0.06272
 C697 C -0.02715 0.79317 0.07045
 C698 C 0.03240 0.72338 0.18076
 C699 C 0.04914 0.73639 0.20354
 C700 C 0.04709 0.78539 0.17965
 C701 C 0.03116 0.77143 0.15716
 N702 N 0.02414 0.74094 0.15796
 H703 H -0.04835 0.76536 0.10326
 H704 H 0.04245 0.74865 0.08999
 H705 H 0.04582 0.78799 0.05230
 H706 H -0.04722 0.80505 0.06548
 H707 H 0.02546 0.69950 0.18163
 H708 H 0.05559 0.72232 0.22163
 H709 H 0.05226 0.80972 0.17859
 H710 H 0.02354 0.78536 0.13954
 C711 C -0.09425 0.70546 0.16996
 C712 C 0.01736 0.63237 0.08533
 C713 C 0.05619 0.76788 0.20319
 C714 C -0.00051 0.79994 0.05566
 C715 C 0.50143 0.22928 0.57196
 H716 H 0.48385 0.24398 0.56520
 C717 C 0.51171 0.20700 0.55305
 H718 H 0.50197 0.20461 0.53168
 C719 C 0.53584 0.21475 0.60794
 H720 H 0.54519 0.21764 0.62936
 C721 C 0.54692 0.19254 0.58975
 H722 H 0.56440 0.17838 0.59772
 N723 N 0.51351 0.23260 0.59888
 C724 C 0.44875 0.27141 0.65704
 H725 H 0.46126 0.29098 0.66556
 C726 C 0.42059 0.26390 0.66801
 H727 H 0.41143 0.27821 0.68463
 C728 C 0.44596 0.22873 0.62544
 H729 H 0.45615 0.21461 0.60937
 C730 C 0.41773 0.22046 0.63571
 H731 H 0.40667 0.19999 0.62727
 Zn732 Zn 0.50035 0.26327 0.62419
 N733 N 0.46085 0.25385 0.63616
 C734 C 0.47926 0.31951 0.60279
 N735 N 0.50275 0.30083 0.60395
 C736 C 0.52772 0.30697 0.58829
 C737 C 0.52969 0.33262 0.57035
 C738 C 0.48033 0.34550 0.58524
 C739 C 0.51702 0.24483 0.67933
 C740 C 0.53655 0.23922 0.70201
 C741 C 0.57265 0.27375 0.67979
 C742 C 0.55233 0.27877 0.65744
 N743 N 0.52531 0.26387 0.65735
 H744 H 0.45937 0.31399 0.61490
 H745 H 0.54575 0.29126 0.58889
 H746 H 0.54948 0.33629 0.55751
 H747 H 0.46127 0.35987 0.58463
 H748 H 0.49572 0.23271 0.67856
 H749 H 0.52950 0.22353 0.71892
 H750 H 0.59449 0.28477 0.67883
 H751 H 0.55872 0.29344 0.63958
 C752 C 0.40477 0.23799 0.65745
 C753 C 0.53494 0.18850 0.56189
 C754 C 0.56512 0.25301 0.70199
 C755 C 0.50562 0.35213 0.56835
 C756 C 0.50925 0.72203 0.91388
 H757 H 0.51245 0.74367 0.92490
 C758 C 0.50197 0.69562 0.92986
 H759 H 0.49903 0.69724 0.95305
 C760 C 0.50887 0.69327 0.87038
 H761 H 0.51154 0.69257 0.84713
 C762 C 0.50114 0.66660 0.88534
 H763 H 0.49796 0.64537 0.87347
 N764 N 0.51148 0.72051 0.88452
 C765 C 0.55366 0.74271 0.80951
 H766 H 0.53408 0.74685 0.79671
 C767 C 0.57976 0.73384 0.79593
 H768 H 0.57993 0.73133 0.77264
 C769 C 0.57685 0.73972 0.85549
 H770 H 0.57540 0.74187 0.87877
 C771 C 0.60325 0.73086 0.84288
 H772 H 0.62207 0.72683 0.85678
 Zn773 Zn 0.51817 0.75466 0.85977
 N774 N 0.55276 0.74546 0.83882
 C775 C 0.55001 0.80888 0.87406
 N776 N 0.52524 0.79169 0.88070
 C777 C 0.50602 0.80097 0.90135
 C778 C 0.51224 0.82777 0.91719
 C779 C 0.55676 0.83598 0.88894
 C780 C 0.48416 0.78129 0.81452
 C781 C 0.46010 0.78316 0.79527
 C782 C 0.43739 0.73874 0.81825
 C783 C 0.46128 0.73825 0.83746
 N784 N 0.48460 0.75865 0.83477
 H785 H 0.56463 0.80169 0.85707
 H786 H 0.48605 0.78737 0.90576
 H787 H 0.49695 0.83467 0.93381
 H788 H 0.57687 0.84891 0.88353
 H789 H 0.50271 0.79756 0.81301
 H790 H 0.46024 0.80080 0.77884
 H791 H 0.41948 0.72174 0.82026
 H792 H 0.46112 0.72121 0.85430
 C793 C 0.60495 0.72753 0.81273
 C794 C 0.49691 0.66772 0.91532
 C795 C 0.43677 0.76115 0.79668
 C796 C 0.53795 0.84558 0.91101
 N797 N 0.12864 0.16469 0.28783
 N798 N 0.14904 0.16054 0.26793
 C799 C 0.15065 0.18527 0.25054
 C800 C 0.13011 0.20607 0.25985
 C801 C 0.11656 0.19219 0.28366
 H802 H 0.12591 0.22829 0.25074
 H803 H 0.12368 0.14883 0.30411
 H804 H 0.16128 0.14077 0.26638
 N805 N 0.65457 0.70302 0.81339
 N806 N 0.67613 0.69731 0.79507
 C807 C 0.66867 0.70772 0.76864
 C808 C 0.64093 0.72059 0.77040
 C809 C 0.63276 0.71724 0.79918
 H810 H 0.62848 0.73108 0.75323
 H811 H 0.65500 0.69686 0.83521
 H812 H 0.69574 0.68688 0.80100
 N813 N 0.40187 0.73398 0.76284
 N814 N 0.37926 0.74031 0.74587
 C815 C 0.37462 0.77057 0.74722
 C816 C 0.39564 0.78419 0.76573
 C817 C 0.41244 0.76006 0.77515
 H818 H 0.39780 0.80796 0.77217
 H819 H 0.40968 0.71202 0.76609
 H820 H 0.36662 0.72385 0.73445
 N821 N -0.12185 0.25925 0.33627
 N822 N -0.14917 0.26549 0.32392
 C823 C -0.14599 0.26549 0.29481
 C824 C -0.11673 0.25851 0.28817
 C825 C -0.10248 0.25535 0.31470
 H826 H -0.10635 0.25861 0.26708
 H827 H -0.11718 0.25964 0.35843
 H828 H -0.16826 0.26914 0.33598
 N829 N -0.14169 0.67497 0.17517
 N830 N -0.16492 0.67270 0.19491
 C831 C -0.16032 0.69455 0.21530
 C832 C -0.13438 0.71136 0.20854
 C833 C -0.12322 0.69808 0.18370
 H834 H -0.12366 0.72951 0.22106
 H835 H -0.13948 0.66074 0.15722
 H836 H -0.18264 0.65687 0.19294
 N837 N 0.35521 0.21026 0.65614
 N838 N 0.33115 0.20576 0.67472
 C839 C 0.33698 0.22154 0.69940
 C840 C 0.36476 0.23639 0.69670
 C841 C 0.37541 0.22871 0.66959
 H842 H 0.37654 0.25024 0.71265
 H843 H 0.35649 0.20098 0.63538
 H844 H 0.31220 0.19268 0.66921
 N845 N 0.58604 0.21700 0.73795
 N846 N 0.61103 0.21561 0.75563
 C847 C 0.62740 0.24186 0.75222
 C848 C 0.61296 0.26025 0.73221
 C849 C 0.58730 0.24393 0.72388
 H850 H 0.61998 0.28263 0.72443
 H851 H 0.57012 0.19926 0.73564
 H852 H 0.61480 0.19726 0.76939
 N853 N 0.06780 0.81183 0.23598
 N854 N 0.08888 0.82033 0.25447
 C855 C 0.10759 0.79716 0.25777
 C856 C 0.09757 0.77253 0.24100
 C857 C 0.07254 0.78304 0.22719
 H858 H 0.10850 0.75123 0.23721
 H859 H 0.05098 0.82595 0.22896
 H860 H 0.09070 0.84200 0.26395
 N861 N 0.33114 0.12194 0.16365
 N862 N 0.31161 0.14308 0.15805
 C863 C 0.28848 0.13949 0.17639
 C864 C 0.29381 0.11484 0.19440
 C865 C 0.32104 0.10438 0.18572
 H866 H 0.27971 0.10535 0.21124
 H867 H 0.35131 0.12018 0.15281
 H868 H 0.31464 0.15987 0.14220
 N869 N 0.83264 0.61471 0.67445
 N870 N 0.81597 0.63854 0.66985
 C871 C 0.79355 0.63799 0.68916
 C872 C 0.79636 0.61261 0.70690
 C873 C 0.82135 0.59841 0.69683
 H874 H 0.78182 0.60495 0.72420
 H875 H 0.85169 0.61017 0.66260
 H876 H 0.82042 0.65495 0.65392
 N877 N 0.75950 0.39838 0.81725
 N878 N 0.74281 0.37370 0.82274
 C879 C 0.74318 0.35514 0.79958
 C880 C 0.76091 0.36843 0.77830
 C881 C 0.77124 0.39585 0.79051
 H882 H 0.76723 0.35839 0.75791
 H883 H 0.76307 0.41619 0.83203
 H884 H 0.73203 0.36935 0.84235
 N885 N 0.25096 -0.06139 0.28155
 N886 N 0.22818 -0.08260 0.28764
 C887 C 0.24055 -0.10929 0.29494
 C888 C 0.27147 -0.10513 0.29460
 C889 C 0.27687 -0.07517 0.28544
 H890 H 0.28788 -0.12245 0.29722
 H891 H 0.24796 -0.03945 0.27334
 H892 H 0.20572 -0.07770 0.28628
 N893 N 0.24019 -0.08353 0.78109
 N894 N 0.26153 -0.10471 0.77404
 C895 C 0.25255 -0.11953 0.74969
 C896 C 0.22533 -0.10805 0.74113
 C897 C 0.21836 -0.08566 0.76109
 H898 H 0.21178 -0.11522 0.72289
 H899 H 0.24201 -0.06835 0.79848
 H900 H 0.28108 -0.10722 0.78582
 N901 N 0.70398 0.39009 0.29900
 N902 N 0.72498 0.37009 0.29601
 C903 C 0.72338 0.35792 0.26916
 C904 C 0.70004 0.37119 0.25441
 C905 C 0.68825 0.39146 0.27419
 H906 H 0.69288 0.36710 0.23235
 H907 H 0.70162 0.40339 0.31755
 H908 H 0.74063 0.36610 0.31213
 N909 N 0.69019 0.60616 0.33758
 N910 N 0.71015 0.62895 0.33912
 C911 C 0.72286 0.63279 0.31290
 C912 C 0.71051 0.61129 0.29401
 C913 C 0.68985 0.59494 0.31041
 H914 H 0.71486 0.60878 0.27114
 H915 H 0.67724 0.59852 0.35499
 H916 H 0.71485 0.64138 0.35797
 N917 N 0.15679 0.15022 0.78828
 N918 N 0.17590 0.17371 0.78986
 C919 C 0.20059 0.16691 0.77515
 C920 C 0.19690 0.13781 0.76348
 C921 C 0.16890 0.12782 0.77258
 H922 H 0.21299 0.12512 0.75148
 H923 H 0.13586 0.14982 0.79791
 H924 H 0.17190 0.19399 0.80090
 N925 N 0.16918 0.28776 0.08158
 N926 N 0.16632 0.26756 0.10273
 C927 C 0.19343 0.25788 0.11007
 C928 C 0.21444 0.27258 0.09267
 C929 C 0.19822 0.29153 0.07494
 H930 H 0.23828 0.27058 0.09364
 H931 H 0.15131 0.29845 0.07192
 H932 H 0.14598 0.26044 0.11164
 N933 N 0.67916 0.78663 0.59027
 N934 N 0.67799 0.76933 0.61362
 C935 C 0.70542 0.75972 0.61959
 C936 C 0.72500 0.77138 0.59887
 C937 C 0.70741 0.78850 0.58062
 H938 H 0.74871 0.76842 0.59774
 H939 H 0.66079 0.79756 0.58187
 H940 H 0.65852 0.76430 0.62510
 N941 N 0.80981 0.82905 0.36032
 N942 N 0.81463 0.80814 0.34033
 C943 C 0.79333 0.78580 0.34220
 C944 C 0.77409 0.79317 0.36431
 C945 C 0.78530 0.82059 0.37539
 H946 H 0.75490 0.78012 0.37187
 H947 H 0.82336 0.84862 0.36339
 H948 H 0.83264 0.80922 0.32620
 N949 N 0.32819 0.30950 -0.12442
 N950 N 0.32956 0.29270 -0.14815
 C951 C 0.30189 0.28283 -0.15549
 C952 C 0.28210 0.29396 -0.13550
 C953 C 0.29957 0.31081 -0.11606
 H954 H 0.25822 0.29063 -0.13551
 H955 H 0.34682 0.31937 -0.11416
 H956 H 0.34931 0.28768 -0.15861
 N957 N 0.75058 0.15208 -0.12547
 N958 N 0.74164 0.16723 -0.14844
 C959 C 0.74046 0.19711 -0.14168
 C960 C 0.74926 0.20123 -0.11313
 C961 C 0.75512 0.17195 -0.10340
 H962 H 0.74924 0.22222 -0.10072
 H963 H 0.75305 0.12844 -0.12513
 H964 H 0.73610 0.15705 -0.16828
 N965 N 0.23175 0.68093 0.35460
 N966 N 0.22754 0.70017 0.33307
 C967 C 0.22763 0.72884 0.34369
 C968 C 0.23210 0.72785 0.37333
 C969 C 0.23417 0.69690 0.37955
 H970 H 0.23069 0.74664 0.38846
 H971 H 0.23186 0.65721 0.35208
 H972 H 0.22328 0.69357 0.31168
 N973 N 0.24052 0.77323 0.58550
 N974 N 0.24844 0.79068 0.60773
 C975 C 0.26466 0.77427 0.62631
 C976 C 0.26733 0.74498 0.61517
 C977 C 0.25144 0.74516 0.58930
 H978 H 0.27836 0.72599 0.62501
 H979 H 0.22813 0.78085 0.56795
 H980 H 0.24299 0.81360 0.60973
 N981 N 0.77726 0.27236 0.10115
 N982 N 0.77854 0.28883 0.12511
 C983 C 0.78899 0.27153 0.14677
 C984 C 0.79497 0.24277 0.13593
 C985 C 0.78679 0.24409 0.10694
 H986 H 0.80194 0.22301 0.14796
 H987 H 0.76949 0.28043 0.08135
 H988 H 0.77184 0.31141 0.12653
 N989 N 0.53052 0.38908 0.53360
 N990 N 0.52257 0.41064 0.51539
 C991 C 0.49307 0.41410 0.51754
 C992 C 0.48180 0.39390 0.53811
 C993 C 0.50620 0.37819 0.54772
 H994 H 0.45876 0.39019 0.54405
 H995 H 0.55232 0.38214 0.53601
 H996 H 0.53728 0.42272 0.50184
 N997 N 0.02275 0.82692 0.01314
 N998 N 0.01820 0.85140 -0.00276
 C999 C -0.00635 0.86501 0.00682
 C1000 C -0.01788 0.84822 0.02993
 C1001 C 0.00126 0.82424 0.03330
 H1002 H -0.03730 0.85291 0.04266
 H1003 H 0.04032 0.81236 0.00985
 H1004 H 0.03221 0.85867 -0.01950
 N1005 N -0.00993 0.58392 0.07587
 N1006 N -0.00908 0.56165 0.05441
 C1007 C 0.01715 0.56506 0.04062
 C1008 C 0.03376 0.58893 0.05345
 C1009 C 0.01563 0.60068 0.07475
 H1010 H 0.05396 0.59969 0.04512
 H1011 H -0.02897 0.58933 0.08738
 H1012 H -0.02673 0.54645 0.04945
 N1013 N 0.57415 0.15372 0.54525
 N1014 N 0.57649 0.13041 0.52741
 C1015 C 0.55072 0.12625 0.51288
 C1016 C 0.53106 0.14812 0.52162
 C1017 C 0.54671 0.16482 0.54264
 H1018 H 0.50803 0.14996 0.51532
 H1019 H 0.59107 0.16137 0.55925
 H1020 H 0.59531 0.11722 0.52572
 N1021 N 0.02795 0.16131 0.49229
 N1022 N 0.02033 0.14027 0.51161
 C1023 C -0.00334 0.12376 0.50155
 C1024 C -0.01121 0.13511 0.47462
 C1025 C 0.00932 0.15878 0.46944
 H1026 H -0.02869 0.12667 0.46031
 H1027 H 0.04546 0.17729 0.49511
 H1028 H 0.03115 0.13775 0.53144
 N1029 N 0.46451 0.62089 0.91866
 N1030 N 0.45667 0.59909 0.93943
 C1031 C 0.47277 0.60532 0.96360
 C1032 C 0.49090 0.63132 0.95867
 C1033 C 0.48488 0.64035 0.93047
 H1034 H 0.50601 0.64279 0.97369
 H1035 H 0.45502 0.62214 0.89805
 H1036 H 0.44198 0.58061 0.93548
 N1037 N 0.56167 0.89779 0.91667
 N1038 N 0.56576 0.91851 0.93723
 C1039 C 0.55243 0.90836 0.96168
 C1040 C 0.53890 0.87989 0.95609
 C1041 C 0.54549 0.87395 0.92737
 H1042 H 0.52705 0.86493 0.97105
 H1043 H 0.56978 0.90024 0.89563
 H1044 H 0.57739 0.93929 0.93415
 N1045 N 0.06870 0.31505 0.47764
 N1046 N 0.06780 0.33371 0.50201
 C1047 C 0.06504 0.36279 0.49294
 C1048 C 0.06429 0.36326 0.46275
 C1049 C 0.06602 0.33288 0.45414
 H1050 H 0.05914 0.38247 0.44907
 H1051 H 0.06744 0.29116 0.47810
 H1052 H 0.06855 0.32572 0.52329
 N1053 N 0.32301 0.51652 0.52635
 N1054 N 0.34555 0.49879 0.52109
 C1055 C 0.36187 0.51112 0.49937
 C1056 C 0.34907 0.53794 0.49051
 C1057 C 0.32445 0.54067 0.50817
 H1058 H 0.35701 0.55352 0.47388
 H1059 H 0.30677 0.51155 0.54185
 H1060 H 0.34913 0.47830 0.53194
 N1061 N 0.87437 0.01965 0.05528
 N1062 N 0.89448 -0.00236 0.04727
 C1063 C 0.90064 0.00139 0.01885
 C1064 C 0.88453 0.02583 0.00848
 C1065 C 0.86835 0.03655 0.03173
 H1066 H 0.88366 0.03419 -0.01348
 H1067 H 0.86615 0.02216 0.07620
 H1068 H 0.90332 -0.01794 0.06176
 N1069 N 0.63686 0.07347 0.07564
 N1070 N 0.61414 0.05366 0.07679
 C1071 C 0.61811 0.03134 0.05715
 C1072 C 0.64469 0.03744 0.04280
 C1073 C 0.65597 0.06441 0.05520
 H1074 H 0.65442 0.02411 0.02579
 H1075 H 0.63905 0.09263 0.08905
 H1076 H 0.59611 0.05599 0.09064
 N1077 N 0.08936 0.57620 0.53537
 N1078 N 0.07030 0.55316 0.54017
 C1079 C 0.08241 0.52699 0.53139
 C1080 C 0.11044 0.53377 0.52030
 C1081 C 0.11422 0.56528 0.52355
 H1082 H 0.12651 0.51774 0.51286
 H1083 H 0.08523 0.59892 0.54047
 H1084 H 0.04947 0.55549 0.54962
 N1085 N 0.15754 0.47989 -0.08810
 N1086 N 0.13170 0.49634 -0.09046
 C1087 C 0.12178 0.50176 -0.06347
 C1088 C 0.14130 0.48938 -0.04354
 C1089 C 0.16284 0.47508 -0.05974
 H1090 H 0.13826 0.48785 -0.02037
 H1091 H 0.16942 0.47201 -0.10578
 H1092 H 0.12223 0.50268 -0.11012
 N1093 N 0.60088 0.93607 0.51148
 N1094 N 0.57821 0.95662 0.50849
 C1095 C 0.57888 0.96729 0.48114
 C1096 C 0.60144 0.95340 0.46595
 C1097 C 0.61551 0.93513 0.48613
 H1098 H 0.60971 0.95980 0.44476
 H1099 H 0.60674 0.92582 0.53100
 H1100 H 0.56477 0.96371 0.52543
 N1101 N 0.82223 1.01790 0.50458
 N1102 N 0.84644 1.03467 0.51035
 C1103 C 0.86644 1.01693 0.52340
 C1104 C 0.85407 0.98759 0.52641
 C1105 C 0.82615 0.98914 0.51393
 H1106 H 0.86451 0.96750 0.53480
 H1107 H 0.80347 1.02618 0.49425
 H1108 H 0.84895 1.05786 0.50526
 N1109 N 0.35813 0.46199 0.07430
 N1110 N 0.38180 0.48015 0.07850
 C1111 C 0.39139 0.49078 0.05267
 C1112 C 0.37296 0.47881 0.03115
 C1113 C 0.35214 0.46061 0.04568
 H1114 H 0.37499 0.48221 0.00805
 H1115 H 0.34627 0.45120 0.09099
 H1116 H 0.39074 0.48541 0.09885
 N1117 N 0.47389 0.52057 0.33746
 N1118 N 0.45861 0.51845 0.36178
 C1119 C 0.46967 0.49597 0.37826
 C1120 C 0.49289 0.48312 0.36333
 C1121 C 0.49501 0.49946 0.33770
 H1122 H 0.50724 0.46530 0.37050
 H1123 H 0.46999 0.53662 0.32128
 H1124 H 0.44158 0.53302 0.36705
 N1125 N -0.01440 -0.00248 0.84302
 N1126 N -0.02987 -0.00770 0.86685
 C1127 C -0.01367 -0.02446 0.88510
 C1128 C 0.01334 -0.03019 0.87222
 C1129 C 0.01216 -0.01570 0.84555
 H1130 H 0.03163 -0.04229 0.88152
 H1131 H -0.02234 0.00982 0.82544
 H1132 H -0.05131 -0.00009 0.87022
 N1133 N 0.01903 -0.03832 0.63767
 N1134 N 0.00103 -0.03160 0.61611
 C1135 C 0.00483 -0.00170 0.60968
 C1136 C 0.02625 0.01114 0.62797
 C1137 C 0.03467 -0.01276 0.64564
 H1138 H 0.03362 0.03490 0.62893
 H1139 H 0.02022 -0.06016 0.64657
 H1140 H -0.01341 -0.04745 0.60596
 N1141 N 0.57933 0.56670 0.12480
 N1142 N 0.56229 0.57284 0.10233
 C1143 C 0.53909 0.55249 0.10160
 C1144 C 0.54192 0.53237 0.12464
 C1145 C 0.56753 0.54224 0.13893
 H1146 H 0.52701 0.51371 0.13093
 H1147 H 0.59859 0.57937 0.13024
 H1148 H 0.56646 0.59119 0.08834
 N1149 N 0.45673 -0.08889 0.13460
 N1150 N 0.47498 -0.09146 0.11242
 C1151 C 0.49037 -0.06476 0.10898
 C1152 C 0.48139 -0.04437 0.12987
 C1153 C 0.46003 -0.06043 0.14578
 H1154 H 0.48877 -0.02076 0.13246
 H1155 H 0.44255 -0.10659 0.14186
 H1156 H 0.47697 -0.11139 0.10022
 N1157 N 0.96674 0.39519 0.65676
 N1158 N 0.98632 0.39205 0.63582
 C1159 C 0.99291 0.41979 0.62422
 C1160 C 0.97683 0.44150 0.63879
 C1161 C 0.96044 0.42498 0.65915
 H1162 H 0.97618 0.46578 0.63450
 H1163 H 0.95823 0.37712 0.66932
 H1164 H 0.99495 0.37110 0.62997
 N1165 N 0.92150 0.48978 0.88434
 N1166 N 0.93797 0.49538 0.90754
 C1167 C 0.96378 0.50911 0.89924
 C1168 C 0.96358 0.51278 0.86940
 C1169 C 0.93632 0.50025 0.86094
 H1170 H 0.98097 0.52243 0.85576
 H1171 H 0.90059 0.47872 0.88456
 H1172 H 0.93194 0.48891 0.92853
 N1173 N 0.48119 0.08060 0.33448
 N1174 N 0.49808 0.08547 0.35755
 C1175 C 0.50016 0.05902 0.37222
 C1176 C 0.48398 0.03621 0.35768
 C1177 C 0.47194 0.05092 0.33397
 H1178 H 0.48015 0.01271 0.36437
 H1179 H 0.47624 0.09757 0.31951
 H1180 H 0.50788 0.10668 0.36302
   
