data_POSCAR
  _audit_creation_date              2014-09-24
  _audit_creation_method            'ToBaCCo'
  _symmetry_space_group_name_H-M    'P1'
  _symmetry_Int_Tables_number       1
  _symmetry_cell_setting            triclinic
  loop_
  _symmetry_equiv_pos_as_xyz
 x,y,z
_cell_length_a 41.5279
_cell_length_b 41.8069
_cell_length_c 41.6170
_cell_angle_alpha 90.451400
_cell_angle_beta 89.993400
_cell_angle_gamma 90.322300
loop_
  _atom_site_label
  _atom_site_type_symbol
  _atom_site_fract_x
  _atom_site_fract_y
  _atom_site_fract_z
N1 N 0.32164 0.34172 0.35346
 N2 N 0.33572 0.83244 -0.14713
 N3 N 0.82706 0.33953 -0.16700
 N4 N 0.81793 0.84927 0.33428
 N5 N 0.66862 0.64913 0.32342
 N6 N 0.65569 0.15843 -0.17198
 N7 N 0.14919 0.66641 -0.16389
 N8 N 0.16146 0.15783 0.33096
 N9 N 0.65901 0.32753 0.64696
 N10 N 0.67102 0.83425 1.15450
 N11 N 0.17061 0.34235 1.16287
 N12 N 0.16553 0.83049 0.66628
 N13 N 0.34937 0.66678 0.67207
 N14 N 0.34050 0.16996 1.16565
 N15 N 0.85548 0.66467 1.17402
 N16 N 0.84626 0.16406 0.66250
 N17 N 0.32415 0.33644 0.66269
 N18 N 0.33911 0.83006 0.16141
 N19 N 0.84414 0.32974 0.14631
 N20 N 0.82611 0.83455 0.65272
 N21 N 0.65239 0.66262 0.66037
 N22 N 0.64644 0.17699 0.16504
 N23 N 0.15665 0.67534 0.18285
 N24 N 0.15615 0.15353 0.67480
 N25 N 0.35035 0.66250 0.34024
 N26 N 0.33663 0.16267 0.84054
 N27 N 0.83063 0.65441 0.82590
 N28 N 0.84575 0.16085 0.32103
 N29 N 0.67512 0.33296 0.33125
 N30 N 0.68474 0.83381 0.84203
 N31 N 0.16821 0.34550 0.84606
 N32 N 0.17010 0.84599 0.35098
 O33 O 0.24852 1.02937 0.20623
 O34 O 0.22453 0.96719 0.26437
 O35 O 0.22237 1.02959 0.26277
 O36 O 0.25067 0.96720 0.20716
 O37 O 0.29880 0.96900 0.22970
 O38 O 0.27021 1.03155 0.28593
 O39 O 0.27270 0.96998 0.28673
 O40 O 0.29635 1.03244 0.22927
 Cu41 Cu 0.23173 0.99796 0.23288
 Cu42 Cu 0.28953 1.00091 0.25987
 C43 C 0.27631 1.04200 0.20838
 C44 C 0.24449 0.95823 0.28562
 C45 C 0.24139 1.04125 0.28375
 C46 C 0.27939 0.95728 0.20906
 O47 O 0.24677 0.53302 0.78505
 O48 O 0.27540 0.47095 0.72931
 O49 O 0.28273 0.53345 0.73329
 O50 O 0.23532 0.47200 0.77718
 O51 O 0.19341 0.48264 0.74646
 O52 O 0.24128 0.54018 0.70083
 O53 O 0.23308 0.47863 0.69824
 O54 O 0.20594 0.54338 0.75284
 Cu55 Cu 0.26427 0.50160 0.75934
 Cu56 Cu 0.21435 0.51219 0.72145
 C57 C 0.22163 0.54876 0.77862
 C58 C 0.25885 0.46367 0.70468
 C59 C 0.26985 0.54690 0.70916
 C60 C 0.20610 0.46708 0.76910
 O61 O 0.72511 -0.02739 0.21088
 O62 O 0.76847 0.03640 0.25574
 O63 O 0.76175 -0.02529 0.26086
 O64 O 0.73424 0.03424 0.20277
 O65 O 0.69229 0.04451 0.23372
 O66 O 0.71792 -0.01790 0.29004
 O67 O 0.72564 0.04308 0.28653
 O68 O 0.68144 -0.01705 0.23934
 Cu69 Cu 0.75169 0.00380 0.22943
 Cu70 Cu 0.69984 0.01409 0.26516
 C71 C 0.69587 -0.03325 0.21794
 C72 C 0.75447 0.05000 0.27935
 C73 C 0.74444 -0.03207 0.28505
 C74 C 0.70892 0.05000 0.20868
 O75 O 0.70126 0.52570 0.71740
 O76 O 0.72733 0.46448 0.77427
 O77 O 0.72555 0.52586 0.77472
 O78 O 0.70267 0.46273 0.71679
 O79 O 0.75116 0.46455 0.69502
 O80 O 0.77387 0.52776 0.75254
 O81 O 0.77591 0.46533 0.75261
 O82 O 0.74953 0.52652 0.69508
 Cu83 Cu 0.70913 0.49445 0.74766
 Cu84 Cu 0.76755 0.49612 0.72170
 C85 C 0.72095 0.53691 0.69694
 C86 C 0.75613 0.45468 0.77333
 C87 C 0.75374 0.53759 0.77336
 C88 C 0.72304 0.45271 0.69630
 O89 O 0.27610 0.53341 0.27884
 O90 O 0.22950 0.47107 0.23490
 O91 O 0.23963 0.53241 0.22747
 O92 O 0.26836 0.47144 0.28354
 O93 O 0.22573 0.47942 0.31427
 O94 O 0.19885 0.54336 0.25972
 O95 O 0.18710 0.48189 0.26503
 O96 O 0.23451 0.54060 0.31115
 Cu97 Cu 0.25758 0.50131 0.25298
 Cu98 Cu 0.20730 0.51228 0.29055
 C99 C 0.26316 0.54718 0.30295
 C100 C 0.20031 0.46585 0.24272
 C101 C 0.21473 0.54856 0.23412
 C102 C 0.25173 0.46465 0.30819
 O103 O 0.80667 0.96757 0.75466
 O104 O 0.76007 1.02546 0.80131
 O105 O 0.75538 0.96430 0.78990
 O106 O 0.80880 1.02895 0.76188
 O107 O 0.77736 1.03522 0.71962
 O108 O 0.72214 0.97358 0.74962
 O109 O 0.72886 1.03476 0.75947
 O110 O 0.77330 0.97269 0.71367
 Cu111 Cu 0.78587 0.99591 0.78115
 Cu112 Cu 0.74729 1.00490 0.73133
 C113 C 0.79770 0.95970 0.72662
 C114 C 0.73687 1.04022 0.78853
 C115 C 0.72958 0.95806 0.77453
 C116 C 0.80222 1.04290 0.73571
 O117 O 0.73527 0.46647 0.24037
 O118 O 0.79289 0.52874 0.21832
 O119 O 0.79006 0.46635 0.20987
 O120 O 0.74312 0.52630 0.25606
 O121 O 0.77101 0.51399 0.29941
 O122 O 0.82017 0.45848 0.25282
 O123 O 0.82104 0.52021 0.26239
 O124 O 0.76473 0.45432 0.28270
 Cu125 Cu 0.76261 0.49797 0.22678
 Cu126 Cu 0.79715 0.48561 0.27849
 C127 C 0.73995 0.44977 0.26511
 C128 C 0.81612 0.53591 0.23679
 C129 C 0.81336 0.45237 0.22380
 C130 C 0.74916 0.53000 0.28590
 O131 O 0.23882 -0.03661 0.80359
 O132 O 0.20972 0.02378 0.74682
 O133 O 0.21146 -0.03894 0.74704
 O134 O 0.23681 0.02552 0.80305
 O135 O 0.28430 0.02711 0.77921
 O136 O 0.25922 -0.03709 0.72372
 O137 O 0.25730 0.02446 0.72306
 O138 O 0.28653 -0.03589 0.78012
 Cu139 Cu 0.21939 -0.00679 0.77744
 Cu140 Cu 0.27675 -0.00530 0.74941
 C141 C 0.26752 -0.04665 0.80146
 C142 C 0.22860 0.03448 0.72534
 C143 C 0.23107 -0.04880 0.72572
 C144 C 0.26476 0.03762 0.80024
 O145 O 0.28223 0.31971 0.97164
 O146 O 0.32532 0.27387 1.03268
 O147 O 0.32407 0.27347 0.97059
 O148 O 0.28409 0.32040 1.03378
 O149 O 0.24451 0.28490 1.03504
 O150 O 0.28442 0.23802 0.97104
 O151 O 0.28573 0.23836 1.03393
 O152 O 0.24253 0.28433 0.97210
 Cu153 Cu 0.30790 0.30038 1.00202
 Cu154 Cu 0.26024 0.25784 1.00307
 C155 C 0.25511 0.30993 0.96145
 C156 C 0.31292 0.24849 1.04384
 C157 C 0.31123 0.24786 0.96006
 C158 C 0.25761 0.31057 1.04534
 O159 O 0.22666 0.73833 0.53501
 O160 O 0.28490 0.71500 0.47312
 O161 O 0.28429 0.71469 0.53639
 O162 O 0.22795 0.74044 0.47348
 O163 O 0.25011 0.78861 0.47466
 O164 O 0.30669 0.76274 0.53715
 O165 O 0.30716 0.76309 0.47468
 O166 O 0.24880 0.78649 0.53746
 Cu167 Cu 0.25407 0.72210 0.50431
 Cu168 Cu 0.28038 0.78011 0.50616
 C169 C 0.22767 0.76638 0.54668
 C170 C 0.30557 0.73501 0.46296
 C171 C 0.30483 0.73444 0.54771
 C172 C 0.22934 0.76903 0.46354
 O173 O 0.19346 0.75565 -0.02375
 O174 O 0.25270 0.77882 0.03807
 O175 O 0.25182 0.77857 -0.02445
 O176 O 0.19451 0.75565 0.03875
 O177 O 0.21493 0.70697 0.03884
 O178 O 0.27217 0.72983 -0.02449
 O179 O 0.27297 0.73006 0.03696
 O180 O 0.21389 0.70698 -0.02486
 Cu181 Cu 0.22104 0.77206 0.00720
 Cu182 Cu 0.24508 0.71330 0.00654
 C183 C 0.19406 0.72749 -0.03526
 C184 C 0.27305 0.75848 0.04783
 C185 C 0.27195 0.75823 -0.03498
 C186 C 0.19546 0.72759 0.05003
 O187 O 0.27031 0.23288 0.47513
 O188 O 0.21477 0.20108 0.53589
 O189 O 0.21518 0.20377 0.47230
 O190 O 0.26976 0.23104 0.53651
 O191 O 0.24395 0.27709 0.53875
 O192 O 0.18906 0.24961 0.47458
 O193 O 0.18882 0.24705 0.53717
 O194 O 0.24437 0.27890 0.47631
 Cu195 Cu 0.24469 0.21226 0.50481
 Cu196 Cu 0.21388 0.26775 0.50693
 C197 C 0.26693 0.26138 0.46557
 C198 C 0.19276 0.21882 0.54731
 C199 C 0.19335 0.22225 0.46199
 C200 C 0.26641 0.25891 0.54825
 O201 O 0.78979 0.78905 0.97292
 O202 O 0.81544 0.73433 1.03748
 O203 O 0.82564 0.73801 0.97529
 O204 O 0.78583 0.78891 1.03480
 O205 O 0.74128 0.76007 1.03046
 O206 O 0.78036 0.71143 0.96646
 O207 O 0.77183 0.70504 1.02890
 O208 O 0.74442 0.76162 0.96794
 Cu209 Cu 0.80872 0.76514 1.00574
 Cu210 Cu 0.75511 0.73155 0.99804
 C211 C 0.76247 0.78469 0.95966
 C212 C 0.79780 0.71024 1.04408
 C213 C 0.80981 0.71698 0.95985
 C214 C 0.75697 0.78340 1.04286
 O215 O 0.77645 0.20861 0.45264
 O216 O 0.71599 0.23446 0.51146
 O217 O 0.73115 0.25086 0.45338
 O218 O 0.76367 0.19416 0.51276
 O219 O 0.79704 0.23163 0.53042
 O220 O 0.76501 0.28781 0.47136
 O221 O 0.74946 0.27168 0.52957
 O222 O 0.81059 0.24537 0.47033
 Cu223 Cu 0.74360 0.21814 0.48083
 Cu224 Cu 0.78398 0.26273 0.50223
 C225 C 0.80344 0.22287 0.45082
 C226 C 0.72224 0.25755 0.53040
 C227 C 0.74273 0.27907 0.45235
 C228 C 0.78552 0.20353 0.53212
 O229 O 0.76741 0.24841 -0.03295
 O230 O 0.71038 0.22523 0.02999
 O231 O 0.71297 0.21699 -0.03296
 O232 O 0.76124 0.26193 0.02759
 O233 O 0.73310 0.30518 0.01660
 O234 O 0.68314 0.25994 -0.04006
 O235 O 0.68217 0.26903 0.02196
 O236 O 0.73809 0.29086 -0.04400
 Cu237 Cu 0.74067 0.23370 -0.00114
 Cu238 Cu 0.70621 0.28543 -0.01239
 C239 C 0.76273 0.27350 -0.04911
 C240 C 0.68709 0.24336 0.03739
 C241 C 0.68967 0.23113 -0.04670
 C242 C 0.75540 0.29154 0.03193
 O243 O 0.76768 0.75035 0.46654
 O244 O 0.71181 0.71940 0.52703
 O245 O 0.71713 0.71298 0.46398
 O246 O 0.75794 0.76180 0.52726
 O247 O 0.72552 0.80188 0.51594
 O248 O 0.68275 0.75242 0.45694
 O249 O 0.67912 0.76003 0.51917
 O250 O 0.73392 0.78933 0.45530
 Cu251 Cu 0.74180 0.73203 0.49711
 Cu252 Cu 0.70198 0.77973 0.48578
 C253 C 0.76054 0.77499 0.45062
 C254 C 0.68653 0.73475 0.53424
 C255 C 0.69274 0.72473 0.44981
 C256 C 0.74860 0.79045 0.53198
 O257 O 1.03892 0.26545 0.20915
 O258 O 0.97486 0.21948 0.24970
 O259 O 1.03767 0.21983 0.25180
 O260 O 0.97557 0.26259 0.20500
 O261 O 0.97892 0.22566 0.16691
 O262 O 1.03949 0.18291 0.21357
 O263 O 0.97738 0.18256 0.21153
 O264 O 1.04128 0.22842 0.17110
 Cu265 Cu 1.00658 0.24569 0.23266
 Cu266 Cu 1.00959 0.20128 0.18694
 C267 C 1.05112 0.25465 0.18330
 C268 C 0.96526 0.19317 0.23750
 C269 C 1.04880 0.19374 0.24055
 C270 C 0.96651 0.25104 0.17806
 O271 O 0.52353 0.20701 0.72594
 O272 O 0.45913 0.26348 0.70373
 O273 O 0.52231 0.26208 0.69736
 O274 O 0.46127 0.20692 0.72972
 O275 O 0.46457 0.23137 0.77687
 O276 O 0.52598 0.28627 0.74462
 O277 O 0.46412 0.28776 0.75082
 O278 O 0.52761 0.23116 0.77316
 Cu279 Cu 0.49110 0.23263 0.70934
 Cu280 Cu 0.49599 0.26140 0.76617
 C281 C 0.53660 0.20964 0.75343
 C282 C 0.45069 0.28522 0.72357
 C283 C 0.53474 0.28334 0.71553
 C284 C 0.45247 0.20980 0.75876
 O285 O 0.03993 0.24235 0.73363
 O286 O -0.01966 0.30226 0.76043
 O287 O 0.04030 0.28907 0.77516
 O288 O -0.01733 0.25882 0.71543
 O289 O -0.03679 0.22473 0.75088
 O290 O 0.02186 0.25500 0.81107
 O291 O -0.03824 0.26787 0.79599
 O292 O 0.02063 0.20828 0.76917
 Cu293 Cu 0.01274 0.27665 0.74278
 Cu294 Cu -0.01002 0.23568 0.78545
 C295 C 0.04019 0.21497 0.74682
 C296 C -0.03959 0.29488 0.78240
 C297 C 0.04150 0.27698 0.80299
 C298 C -0.03686 0.23668 0.72281
 O299 O 0.46595 0.30288 0.26838
 O300 O 0.52555 0.24762 0.23597
 O301 O 0.46325 0.24795 0.23618
 O302 O 0.52878 0.29466 0.27612
 O303 O 0.52009 0.26672 0.32012
 O304 O 0.46019 0.21745 0.27921
 O305 O 0.52216 0.21822 0.27973
 O306 O 0.45785 0.27162 0.31015
 Cu307 Cu 0.49604 0.27657 0.25014
 Cu308 Cu 0.48965 0.24083 0.30169
 C309 C 0.45113 0.29657 0.29413
 C310 C 0.53437 0.22373 0.25220
 C311 C 0.45157 0.22382 0.25088
 C312 C 0.53570 0.28793 0.30514
 O313 O 0.95474 0.72670 0.76328
 O314 O 1.01597 0.78367 0.73720
 O315 O 0.95530 0.77323 0.72237
 O316 O 1.01695 0.73044 0.77031
 O317 O 1.02524 0.69861 0.72851
 O318 O 0.96890 0.74389 0.68020
 O319 O 1.02942 0.75187 0.69681
 O320 O 0.96370 0.69632 0.72061
 Cu321 Cu 0.98480 0.75670 0.75231
 Cu322 Cu 0.99781 0.71983 0.70230
 C323 C 0.94840 0.70202 0.74655
 C324 C 1.03363 0.77745 0.71323
 C325 C 0.95174 0.76544 0.69288
 C326 C 1.03091 0.70649 0.75732
 O327 O 0.46982 0.74667 0.19676
 O328 O 0.53467 0.69006 0.21873
 O329 O 0.47291 0.69246 0.22741
 O330 O 0.52996 0.73876 0.18007
 O331 O 0.54360 0.76746 0.22277
 O332 O 0.48195 0.72328 0.26988
 O333 O 0.54427 0.71944 0.26201
 O334 O 0.48348 0.77717 0.23819
 Cu335 Cu 0.50069 0.71414 0.20153
 Cu336 Cu 0.51438 0.74979 0.25240
 C337 C 0.46606 0.77187 0.21381
 C338 C 0.55042 0.69530 0.24452
 C339 C 0.46740 0.69980 0.25640
 C340 C 0.54704 0.76035 0.19313
 O341 O 0.02271 0.79202 0.30843
 O342 O -0.03335 0.74433 0.25735
 O343 O 0.02554 0.73855 0.27669
 O344 O -0.04011 0.79265 0.29711
 O345 O -0.02942 0.82237 0.25479
 O346 O 0.03922 0.76895 0.23563
 O347 O -0.01951 0.77433 0.21604
 O348 O 0.03223 0.82339 0.26696
 Cu349 Cu -0.00767 0.76416 0.28915
 Cu350 Cu 0.00692 0.80037 0.23947
 C351 C 0.03708 0.81589 0.29588
 C352 C -0.03528 0.75117 0.22760
 C353 C 0.04337 0.74409 0.25272
 C354 C -0.04672 0.81610 0.27924
 O355 O 0.48211 0.79221 0.77497
 O356 O 0.53972 0.73639 0.74046
 O357 O 0.47725 0.73854 0.74126
 O358 O 0.54416 0.78175 0.78316
 O359 O 0.53491 0.75188 0.82572
 O360 O 0.47336 0.70646 0.78305
 O361 O 0.53525 0.70513 0.78276
 O362 O 0.47288 0.75963 0.81549
 Cu363 Cu 0.51123 0.76552 0.75606
 Cu364 Cu 0.50371 0.72798 0.80602
 C365 C 0.46701 0.78538 0.80039
 C366 C 0.54749 0.71135 0.75539
 C367 C 0.46472 0.71430 0.75513
 C368 C 0.55079 0.77366 0.81190
 C369 C 0.34783 0.32087 0.34450
 C370 C 0.37518 0.33170 0.33150
 C371 C 0.40149 0.30947 0.32357
 C372 C 0.42580 0.31867 0.30478
 H373 H 0.37821 0.35696 0.32666
 H374 H 0.40027 0.28502 0.33200
 H375 H 0.34562 0.29549 0.34930
 H376 H 0.42592 0.34262 0.29496
 C377 C 0.36178 0.81086 0.84561
 C378 C 0.39041 0.82118 0.83525
 C379 C 0.41649 0.79844 0.82816
 C380 C 0.44227 0.80782 0.81155
 H381 H 0.39453 0.84652 0.83161
 H382 H 0.41378 0.77357 0.83489
 H383 H 0.35829 0.78545 0.84941
 H384 H 0.44381 0.83230 0.80323
 C385 C -0.14504 0.31952 0.82829
 C386 C -0.11766 0.33038 0.81510
 C387 C -0.09052 0.30861 0.80900
 C388 C -0.06509 0.31763 0.79141
 H389 H -0.11541 0.35521 0.80816
 H390 H -0.09215 0.28429 0.81775
 H391 H -0.14635 0.29468 0.83549
 H392 H -0.06401 0.34160 0.78170
 C393 C -0.15256 0.83195 0.32835
 C394 C -0.12725 0.84482 0.31298
 C395 C -0.09806 0.82587 0.30677
 C396 C -0.07508 0.83592 0.28656
 H397 H -0.12793 0.86930 0.30473
 H398 H -0.09588 0.80275 0.31818
 H399 H -0.15079 0.80745 0.33649
 H400 H -0.07788 0.85838 0.27405
 C401 C 0.64274 0.66891 0.31183
 C402 C 0.62180 0.65917 0.28921
 C403 C 0.59579 0.68056 0.27888
 C404 C 0.57623 0.67330 0.25426
 H405 H 0.62350 0.63552 0.27858
 H406 H 0.59284 0.70305 0.29167
 H407 H 0.63989 0.69263 0.32213
 H408 H 0.57951 0.65125 0.24084
 C409 C 0.62982 0.17913 0.81803
 C410 C 0.60784 0.17068 0.79594
 C411 C 0.58169 0.19283 0.78752
 C412 C 0.56249 0.18738 0.76224
 H413 H 0.60877 0.14748 0.78426
 H414 H 0.57850 0.21429 0.80195
 H415 H 0.62780 0.20255 0.82923
 H416 H 0.56645 0.16658 0.74707
 C417 C 1.12262 0.68699 0.82807
 C418 C 1.09733 0.67592 0.81151
 C419 C 1.07216 0.69717 0.79906
 C420 C 1.05371 0.68659 0.77498
 H421 H 1.09620 0.65072 0.80522
 H422 H 1.07043 0.72169 0.80750
 H423 H 1.12356 0.71204 0.83496
 H424 H 1.05748 0.66260 0.76560
 C425 C 1.13533 0.17731 0.31933
 C426 C 1.11305 0.16559 0.29914
 C427 C 1.08862 0.18601 0.28406
 C428 C 1.07251 0.17498 0.25846
 H429 H 1.11351 0.14049 0.29248
 H430 H 1.08488 0.21019 0.29283
 H431 H 1.13416 0.20225 0.32655
 H432 H 1.07769 0.15118 0.24933
 C433 C 0.63128 0.30751 0.65349
 C434 C 0.60544 0.31844 0.66933
 C435 C 0.57895 0.29699 0.67876
 C436 C 0.55974 0.30499 0.70326
 H437 H 0.60420 0.34328 0.67675
 H438 H 0.57640 0.27385 0.66705
 H439 H 0.63171 0.28258 0.64617
 H440 H 0.56397 0.32722 0.71623
 C441 C 0.64470 0.82443 0.17485
 C442 C 0.61994 0.80725 0.16352
 C443 C 0.59427 0.79549 0.18486
 C444 C 0.57132 0.77628 0.17307
 H445 H 0.61899 0.80114 0.13817
 H446 H 0.59502 0.80117 0.21031
 H447 H 0.64486 0.83162 0.19995
 H448 H 0.57140 0.77033 0.14765
 C449 C 1.14203 0.33026 0.17866
 C450 C 1.12081 0.31112 0.16355
 C451 C 1.09355 0.29622 0.18062
 C452 C 1.07707 0.27218 0.16685
 H453 H 1.12406 0.30537 0.13834
 H454 H 1.08794 0.30385 0.20493
 H455 H 1.13796 0.33633 0.20370
 H456 H 1.08383 0.26397 0.14302
 C457 C 1.13969 0.80783 0.67143
 C458 C 1.11122 0.81649 0.68354
 C459 C 1.08524 0.79281 0.68825
 C460 C 1.05914 0.80057 0.70521
 H461 H 1.10703 0.84124 0.69017
 H462 H 1.08805 0.76864 0.67905
 H463 H 1.14318 0.78306 0.66439
 H464 H 1.05737 0.82436 0.71561
 C465 C 0.37399 0.68886 0.68311
 C466 C 0.39801 0.67963 0.70216
 C467 C 0.42237 0.70238 0.71459
 C468 C 0.44052 0.69375 0.73943
 H469 H 0.39945 0.65484 0.70942
 H470 H 0.42458 0.72611 0.70451
 H471 H 0.37304 0.71365 0.67573
 H472 H 0.43655 0.67043 0.75005
 C473 C 0.36351 0.19304 0.17812
 C474 C 0.38784 0.18483 0.19727
 C475 C 0.41066 0.20889 0.21005
 C476 C 0.42848 0.20175 0.23559
 H477 H 0.39092 0.16007 0.20405
 H478 H 0.41210 0.23245 0.19944
 H479 H 0.36131 0.21790 0.17122
 H480 H 0.42528 0.17861 0.24681
 C481 C -0.12279 0.67706 0.19820
 C482 C -0.09754 0.69522 0.19030
 C483 C -0.07689 0.71059 0.21468
 C484 C -0.05565 0.73268 0.20542
 H485 H -0.09262 0.69977 0.16515
 H486 H -0.07994 0.70499 0.23989
 H487 H -0.12720 0.67170 0.22327
 H488 H -0.05377 0.73849 0.18012
 C489 C -0.13199 0.17658 0.68665
 C490 C -0.10613 0.19426 0.67937
 C491 C -0.08392 0.20527 0.70480
 C492 C -0.05956 0.22508 0.69813
 H493 H -0.10099 0.20013 0.65457
 H494 H -0.08769 0.19728 0.72925
 H495 H -0.13616 0.17052 0.71160
 H496 H -0.05641 0.23361 0.67379
 C497 C 0.31431 0.36913 0.33385
 C498 C 0.29481 0.39266 0.34380
 C499 C 0.28609 0.41907 0.32233
 C500 C 0.26229 0.43920 0.33000
 H501 H 0.28461 0.39230 0.36774
 H502 H 0.29842 0.42131 0.29948
 H503 H 0.32468 0.37055 0.30998
 H504 H 0.24930 0.43615 0.35238
 C505 C 0.33043 -0.14018 0.83252
 C506 C 0.31129 -0.11589 0.84114
 C507 C 0.30364 -0.08990 0.81873
 C508 C 0.27821 -0.07117 0.82419
 H509 H 0.30008 -0.11553 0.86463
 H510 H 0.31762 -0.08726 0.79689
 H511 H 0.34191 -0.13957 0.80912
 H512 H 0.26340 -0.07524 0.84525
 C513 C 0.82087 0.36513 0.81075
 C514 C 0.80048 0.38889 0.81750
 C515 C 0.79270 0.41333 0.79356
 C516 C 0.76616 0.43087 0.79698
 H517 H 0.78858 0.39000 0.84064
 H518 H 0.80781 0.41600 0.77250
 H519 H 0.83276 0.36488 0.78755
 H520 H 0.75039 0.42676 0.81732
 C521 C 0.80905 -0.12475 0.31352
 C522 C 0.78859 -0.10188 0.32282
 C523 C 0.77930 -0.07638 0.30066
 C524 C 0.75491 -0.05681 0.30756
 H525 H 0.77837 -0.10205 0.34676
 H526 H 0.79194 -0.07427 0.27796
 H527 H 0.81925 -0.12370 0.28957
 H528 H 0.74158 -0.05972 0.32977
 C529 C 0.33953 0.64037 0.69222
 C530 C 0.32417 0.61466 0.68029
 C531 C 0.31076 0.58948 0.70113
 C532 C 0.28751 0.57036 0.68967
 H533 H 0.31994 0.61279 0.65465
 H534 H 0.31813 0.58800 0.72606
 H535 H 0.34412 0.64171 0.71784
 H536 H 0.27901 0.57381 0.66530
 C537 C 0.33147 1.14267 0.18493
 C538 C 0.31454 1.11766 0.17351
 C539 C 0.30729 1.09018 0.19445
 C540 C 0.28490 1.06837 0.18660
 H541 H 0.30616 1.11720 0.14888
 H542 H 0.31973 1.08841 0.21728
 H543 H 0.33911 1.14211 0.20982
 H544 H 0.27110 1.07111 0.16470
 C545 C 0.83765 0.63558 0.17997
 C546 C 0.84851 0.61278 0.19963
 C547 C 0.82901 0.58405 0.20600
 C548 C 0.83710 0.56326 0.22890
 H549 H 0.87164 0.61542 0.21140
 H550 H 0.80694 0.58052 0.19247
 H551 H 0.81457 0.63205 0.16826
 H552 H 0.85859 0.56731 0.24318
 C553 C 0.82685 1.13636 0.67005
 C554 C 0.83703 1.11380 0.69025
 C555 C 0.81586 1.08723 0.69973
 C556 C 0.82372 1.06843 0.72431
 H557 H 0.86090 1.11535 0.70065
 H558 H 0.79309 1.08386 0.68737
 H559 H 0.80306 1.13401 0.65954
 H560 H 0.84605 1.07261 0.73721
 C561 C 0.68212 0.62481 0.30275
 C562 C 0.69770 0.59966 0.31457
 C563 C 0.71255 0.57566 0.29328
 C564 C 0.73136 0.55314 0.30566
 H565 H 0.70001 0.59702 0.34035
 H566 H 0.70919 0.57717 0.26750
 H567 H 0.67935 0.62685 0.27694
 H568 H 0.73526 0.55260 0.33142
 C569 C 0.66755 1.13362 0.80683
 C570 C 0.68418 1.10877 0.81803
 C571 C 0.69867 1.08474 0.79649
 C572 C 0.71962 1.06378 0.80834
 H573 H 0.68800 1.10655 0.84368
 H574 H 0.69329 1.08498 0.77100
 H575 H 0.66330 1.13534 0.78121
 H576 H 0.72548 1.06468 0.83374
 C577 C 0.15951 0.64279 0.81272
 C578 C 0.17810 0.61790 0.82024
 C579 C 0.18794 0.59437 0.79561
 C580 C 0.21086 0.57306 0.80199
 H581 H 0.18609 0.61456 0.84474
 H582 H 0.17677 0.59478 0.77207
 H583 H 0.15141 0.64502 0.78806
 H584 H 0.22263 0.57364 0.82525
 C585 C 0.17416 1.13284 0.31039
 C586 C 0.19342 1.10960 0.32099
 C587 C 0.20466 1.08444 0.29885
 C588 C 0.23005 1.06633 0.30592
 H589 H 0.20075 1.10871 0.34592
 H590 H 0.19242 1.08122 0.27602
 H591 H 0.16762 1.13262 0.28516
 H592 H 0.24347 1.07075 0.32786
 C593 C 0.66573 0.35478 0.66747
 C594 C 0.68385 0.37943 0.65787
 C595 C 0.69044 0.40647 0.67971
 C596 C 0.71447 0.42687 0.67376
 H597 H 0.69422 0.37958 0.63398
 H598 H 0.67645 0.40885 0.70161
 H599 H 0.65567 0.35540 0.69150
 H600 H 0.72955 0.42332 0.65277
 C601 C 0.68899 -0.13731 0.16312
 C602 C 0.67444 -0.11147 0.17532
 C603 C 0.69294 -0.08329 0.18634
 C604 C 0.67820 -0.05964 0.20223
 H605 H 0.64849 -0.11151 0.17813
 H606 H 0.71886 -0.08280 0.18323
 H607 H 0.71487 -0.13690 0.15973
 H608 H 0.65243 -0.06104 0.20622
 C609 C 0.18879 0.36839 0.17713
 C610 C 0.17491 0.39224 0.19356
 C611 C 0.19454 0.41838 0.20759
 C612 C 0.18123 0.44069 0.22645
 H613 H 0.14901 0.39257 0.19666
 H614 H 0.22028 0.41879 0.20323
 H615 H 0.21468 0.36904 0.17373
 H616 H 0.15563 0.43956 0.23148
 C617 C 0.17056 -0.14353 0.68895
 C618 C 0.18958 -0.11844 0.68241
 C619 C 0.19646 -0.09331 0.70652
 C620 C 0.22167 -0.07377 0.70243
 H621 H 0.20107 -0.11656 0.65915
 H622 H 0.18182 -0.09160 0.72803
 H623 H 0.15886 -0.14455 0.71221
 H624 H 0.23699 -0.07695 0.68155
 C625 C 0.29912 0.33130 0.37775
 C626 C 0.30759 0.31136 0.40121
 C627 C 0.28395 0.30005 0.42482
 C628 C 0.28990 0.27395 0.44201
 H629 H 0.33208 0.30277 0.40286
 H630 H 0.26123 0.31247 0.42740
 H631 H 0.27444 0.33953 0.37683
 H632 H 0.31197 0.26075 0.43801
 C633 C 0.31160 0.82309 -0.12391
 C634 C 0.31771 0.80243 -0.10034
 C635 C 0.29269 0.79361 -0.07703
 C636 C 0.29587 0.76744 -0.05920
 H637 H 0.34133 0.79187 -0.09795
 H638 H 0.27138 0.80832 -0.07479
 H639 H 0.28761 0.83303 -0.12553
 H640 H 0.31645 0.75197 -0.06277
 C641 C 0.80213 0.32999 -0.14465
 C642 C 0.80814 0.31267 -0.11847
 C643 C 0.78222 0.30444 -0.09568
 C644 C 0.78702 0.28228 -0.07330
 H645 H 0.83240 0.30478 -0.11341
 H646 H 0.75915 0.31633 -0.09736
 H647 H 0.77758 0.33758 -0.14888
 H648 H 0.80977 0.26969 -0.07275
 C649 C 0.79429 0.83707 0.35665
 C650 C 0.80209 0.81963 0.38226
 C651 C 0.77715 0.80859 0.40492
 C652 C 0.78412 0.78677 0.42704
 H653 H 0.82700 0.81371 0.38692
 H654 H 0.75296 0.81805 0.40324
 H655 H 0.76914 0.84290 0.35299
 H656 H 0.80808 0.77662 0.42767
 C657 C 0.68351 0.31692 0.62472
 C658 C 0.67702 0.29833 0.59922
 C659 C 0.70283 0.28885 0.57684
 C660 C 0.69720 0.26771 0.55328
 H661 H 0.65259 0.29039 0.59450
 H662 H 0.72673 0.29901 0.57989
 H663 H 0.70811 0.32500 0.62838
 H664 H 0.67345 0.25704 0.55089
 C665 C 0.68284 0.81231 1.13022
 C666 C 0.70374 0.82113 1.10745
 C667 C 0.71598 0.79801 1.08350
 C668 C 0.74225 0.80517 1.06650
 H669 H 0.71243 0.84557 1.10657
 H670 H 0.70431 0.77491 1.08057
 H671 H 0.67442 0.78771 1.13034
 H672 H 0.75451 0.82774 1.07099
 C673 C 0.18485 0.32410 1.13693
 C674 C 0.20465 0.33726 1.11535
 C675 C 0.21862 0.31787 1.08923
 C676 C 0.24233 0.32951 1.07100
 H677 H 0.21064 0.36248 1.11688
 H678 H 0.21000 0.29360 1.08542
 H679 H 0.17902 0.29887 1.13459
 H680 H 0.25168 0.35335 1.07577
 C681 C 0.18958 0.82355 0.64213
 C682 C 0.18286 0.80632 0.61575
 C683 C 0.20779 0.79924 0.59168
 C684 C 0.20350 0.77521 0.57083
 H685 H 0.15878 0.79698 0.61186
 H686 H 0.23005 0.81292 0.59168
 H687 H 0.21390 0.83255 0.64535
 H688 H 0.18195 0.76052 0.57234
 C689 C 0.32999 0.67468 0.64443
 C690 C 0.34073 0.69318 0.62059
 C691 C 0.31974 0.70068 0.59320
 C692 C 0.32668 0.72494 0.57368
 H693 H 0.36486 0.70312 0.62127
 H694 H 0.29760 0.68718 0.58989
 H695 H 0.30572 0.66508 0.64277
 H696 H 0.34788 0.73955 0.57817
 C697 C 0.32273 0.17809 1.13706
 C698 C 0.33635 0.19534 1.11372
 C699 C 0.31766 0.20846 1.08690
 C700 C 0.33075 0.23132 1.06873
 H701 H 0.36166 0.20159 1.11545
 H702 H 0.29284 0.20109 1.08335
 H703 H 0.29761 0.17117 1.13504
 H704 H 0.35521 0.23925 1.07356
 C705 C 0.84737 0.68501 1.14726
 C706 C 0.83369 0.67418 1.12013
 C707 C 0.82671 0.69636 1.09362
 C708 C 0.80693 0.68792 1.06969
 H709 H 0.82762 0.64911 1.11727
 H710 H 0.83685 0.72032 1.09439
 H711 H 0.85328 0.71028 1.14895
 H712 H 0.79543 0.66458 1.06995
 C713 C 0.83886 0.18313 0.63468
 C714 C 0.82423 0.17111 0.60848
 C715 C 0.81547 0.19211 0.58161
 C716 C 0.79691 0.18173 0.55733
 H717 H 0.81811 0.14593 0.60700
 H718 H 0.82317 0.21693 0.58251
 H719 H 0.84523 0.20833 0.63509
 H720 H 0.78841 0.15717 0.55692
 C721 C 0.68556 0.65829 0.35250
 C722 C 0.67088 0.67310 0.37703
 C723 C 0.68901 0.68558 0.40502
 C724 C 0.67522 0.70698 0.42458
 H725 H 0.64522 0.67749 0.37583
 H726 H 0.71411 0.67936 0.40814
 H727 H 0.71110 0.65334 0.35432
 H728 H 0.65071 0.71439 0.41977
 C729 C 0.67426 0.16696 -0.14375
 C730 C 0.66112 0.18135 -0.11815
 C731 C 0.68107 0.19259 -0.09099
 C732 C 0.66963 0.21483 -0.07092
 H733 H 0.63553 0.18628 -0.11781
 H734 H 0.70585 0.18481 -0.08897
 H735 H 0.69981 0.16173 -0.14341
 H736 H 0.64557 0.22404 -0.07470
 C737 C 0.16880 0.67332 -0.13600
 C738 C 0.15783 0.68980 -0.11061
 C739 C 0.17886 0.69617 -0.08283
 C740 C 0.17181 0.71905 -0.06145
 H741 H 0.13347 0.69891 -0.11028
 H742 H 0.20122 0.68306 -0.08072
 H743 H 0.19339 0.66480 -0.13545
 H744 H 0.15050 0.73354 -0.06471
 C745 C 0.17867 0.16708 0.35973
 C746 C 0.16484 0.18299 0.38404
 C747 C 0.18358 0.19093 0.41306
 C748 C 0.17322 0.21243 0.43453
 H749 H 0.13984 0.19011 0.38266
 H750 H 0.20699 0.18000 0.41619
 H751 H 0.20376 0.16047 0.36204
 H752 H 0.15072 0.22479 0.43053
 C753 C 0.31780 0.36469 0.68191
 C754 C 0.29994 0.38899 0.67111
 C755 C 0.29180 0.41640 0.69200
 C756 C 0.26915 0.43733 0.68337
 H757 H 0.29056 0.38850 0.64683
 H758 H 0.30345 0.41869 0.71523
 H759 H 0.32737 0.36610 0.70612
 H760 H 0.25669 0.43418 0.66066
 C761 C 0.33572 0.85832 0.18140
 C762 C 0.31947 0.88411 0.17172
 C763 C 0.31322 0.91134 0.19351
 C764 C 0.28951 0.93173 0.18684
 H765 H 0.30935 0.88475 0.14775
 H766 H 0.32643 0.91350 0.21590
 H767 H 0.34614 0.85842 0.20529
 H768 H 0.27516 0.92800 0.16535
 C769 C 0.82626 0.35741 0.15693
 C770 C 0.84020 0.38209 0.17217
 C771 C 0.82091 0.40904 0.18435
 C772 C 0.83295 0.42840 0.20699
 H773 H 0.86587 0.38193 0.17678
 H774 H 0.79608 0.41154 0.17673
 H775 H 0.80057 0.35826 0.15233
 H776 H 0.85703 0.42422 0.21605
 C777 C 0.80812 0.86287 0.66113
 C778 C 0.82202 0.88764 0.67629
 C779 C 0.80325 0.91513 0.68798
 C780 C 0.81618 0.93487 0.70985
 H781 H 0.84755 0.88693 0.68162
 H782 H 0.77832 0.91778 0.68078
 H783 H 0.78269 0.86392 0.65540
 H784 H 0.84048 0.93059 0.71827
 C785 C 0.66374 0.63547 0.67832
 C786 C 0.67864 0.61051 0.66472
 C787 C 0.68791 0.58320 0.68466
 C788 C 0.71082 0.56279 0.67557
 H789 H 0.68373 0.60994 0.63921
 H790 H 0.67668 0.58058 0.70804
 H791 H 0.65979 0.63498 0.70406
 H792 H 0.72377 0.56650 0.65329
 C793 C 0.65787 0.15160 0.18531
 C794 C 0.67122 0.12492 0.17365
 C795 C 0.68020 0.09910 0.19566
 C796 C 0.69916 0.07514 0.18625
 H797 H 0.67493 0.12182 0.14806
 H798 H 0.67179 0.10018 0.22033
 H799 H 0.65447 0.15373 0.21108
 H800 H 0.70904 0.07487 0.16215
 C801 C 0.16428 0.65033 0.20541
 C802 C 0.17718 0.62241 0.19623
 C803 C 0.18534 0.59757 0.21978
 C804 C 0.20461 0.57339 0.21144
 H805 H 0.18212 0.61774 0.17108
 H806 H 0.17650 0.59963 0.24422
 H807 H 0.15936 0.65419 0.23072
 H808 H 0.21465 0.57253 0.18739
 C809 C 0.16502 0.12767 0.69589
 C810 C 0.18299 0.10285 0.68628
 C811 C 0.19250 0.07781 0.70901
 C812 C 0.21747 0.05878 0.70260
 H813 H 0.19134 0.10100 0.66171
 H814 H 0.17987 0.07582 0.73172
 H815 H 0.15723 0.12852 0.72074
 H816 H 0.23121 0.06219 0.68073
 C817 C 0.33910 0.63599 0.32054
 C818 C 0.32086 0.61237 0.33247
 C819 C 0.30633 0.58742 0.31174
 C820 C 0.28092 0.57088 0.32242
 H821 H 0.31526 0.61206 0.35788
 H822 H 0.31508 0.58385 0.28744
 H823 H 0.34496 0.63558 0.29516
 H824 H 0.27138 0.57625 0.34611
 C825 C 0.32559 0.13553 0.82174
 C826 C 0.30694 0.11221 0.83363
 C827 C 0.29795 0.08461 0.81322
 C828 C 0.27431 0.06444 0.82141
 H829 H 0.29862 0.11312 0.85827
 H830 H 0.31037 0.08127 0.79052
 H831 H 0.33308 0.13360 0.79685
 H832 H 0.26063 0.06865 0.84320
 C833 C 0.81750 0.63080 0.80400
 C834 C 0.79773 0.60733 0.81339
 C835 C 0.78765 0.58252 0.79025
 C836 C 0.76309 0.56280 0.79633
 H837 H 0.78972 0.60577 0.83809
 H838 H 0.80045 0.58056 0.76760
 H839 H 0.82448 0.63150 0.77892
 H840 H 0.74911 0.56573 0.81814
 C841 C 0.83278 0.13577 0.30054
 C842 C 0.81254 0.11342 0.31161
 C843 C 0.79787 0.08926 0.29014
 C844 C 0.77132 0.07378 0.29945
 H845 H 0.80590 0.11334 0.33678
 H846 H 0.80794 0.08505 0.26646
 H847 H 0.83918 0.13524 0.27529
 H848 H 0.76062 0.07961 0.32253
 C849 C 0.70025 0.35469 0.32118
 C850 C 0.69448 0.38008 0.30284
 C851 C 0.72041 0.40291 0.29505
 C852 C 0.71561 0.42550 0.27319
 H853 H 0.67038 0.38459 0.29408
 H854 H 0.74342 0.40124 0.30722
 H855 H 0.72461 0.35096 0.32969
 H856 H 0.69288 0.42620 0.26040
 C857 C 0.70604 0.85880 0.83107
 C858 C 0.69523 0.88422 0.81520
 C859 C 0.71740 0.90987 0.80545
 C860 C 0.70781 0.93255 0.78530
 H861 H 0.66985 0.88633 0.80964
 H862 H 0.74196 0.90982 0.81431
 H863 H 0.73153 0.85738 0.83647
 H864 H 0.68367 0.93169 0.77539
 C865 C 0.18868 0.37074 0.83389
 C866 C 0.17682 0.39577 0.81807
 C867 C 0.19813 0.42067 0.80471
 C868 C 0.18610 0.44302 0.78545
 H869 H 0.15105 0.39767 0.81448
 H870 H 0.22377 0.41997 0.80955
 H871 H 0.21444 0.36951 0.83792
 H872 H 0.16056 0.44273 0.77999
 C873 C 0.17750 0.87102 0.32822
 C874 C 0.20079 0.89290 0.33281
 C875 C 0.20827 0.91691 0.30805
 C876 C 0.23537 0.93423 0.30977
 H877 H 0.21478 0.89323 0.35473
 H878 H 0.19200 0.91981 0.28792
 H879 H 0.16357 0.87206 0.30620
 H880 H 0.25200 0.93028 0.32942
 C881 C 0.34979 0.31488 0.67145
 C882 C 0.37652 0.32441 0.68681
 C883 C 0.40238 0.30139 0.69369
 C884 C 0.42518 0.30808 0.71537
 H885 H 0.37963 0.34916 0.69409
 H886 H 0.40220 0.27831 0.68160
 H887 H 0.34768 0.28984 0.66474
 H888 H 0.42418 0.33039 0.72879
 C889 C 0.36295 0.80634 0.16923
 C890 C 0.39164 0.81401 0.18166
 C891 C 0.41585 0.78916 0.18781
 C892 C 0.44164 0.79582 0.20575
 H893 H 0.39748 0.83877 0.18706
 H894 H 0.41213 0.76515 0.17843
 H895 H 0.35787 0.78140 0.16383
 H896 H 0.44425 0.81947 0.21636
 C897 C 0.87161 0.31917 0.16459
 C898 C 0.89425 0.30035 0.15182
 C899 C 0.92128 0.28846 0.17125
 C900 C 0.94107 0.26638 0.15914
 H901 H 0.89253 0.29307 0.12683
 H902 H 0.92408 0.29663 0.19588
 H903 H 0.87406 0.32688 0.18942
 H904 H 0.93725 0.25764 0.13482
 C905 C 0.85160 0.82426 0.67371
 C906 C 0.87715 0.80845 0.66257
 C907 C 0.90288 0.79764 0.68426
 C908 C 0.92722 0.78043 0.67258
 H909 H 0.87896 0.80320 0.63709
 H910 H 0.90117 0.80249 0.70983
 H911 H 0.85049 0.83054 0.69902
 H912 H 0.92803 0.77509 0.64704
 C913 C 0.64625 0.32885 0.31235
 C914 C 0.61806 0.32190 0.32618
 C915 C 0.58899 0.31425 0.30719
 C916 C 0.56269 0.30340 0.32211
 H917 H 0.61685 0.32033 0.35215
 H918 H 0.59005 0.31459 0.28117
 H919 H 0.64750 0.33151 0.28648
 H920 H 0.56277 0.30173 0.34811
 C921 C 0.65684 0.82544 0.82296
 C922 C 0.63006 0.81349 0.83615
 C923 C 0.60215 0.80368 0.81637
 C924 C 0.57736 0.78858 0.83007
 H925 H 0.62897 0.81029 0.86195
 H926 H 0.60271 0.80700 0.79057
 H927 H 0.65740 0.82968 0.79729
 H928 H 0.57792 0.78436 0.85575
 C929 C 0.14125 0.33493 0.82671
 C930 C 0.11672 0.31745 0.83820
 C931 C 0.09027 0.30760 0.81656
 C932 C 0.06645 0.28803 0.82587
 H933 H 0.11607 0.31049 0.86320
 H934 H 0.09087 0.31599 0.79197
 H935 H 0.14059 0.34196 0.80168
 H936 H 0.06603 0.27895 0.85018
 C937 C 0.14122 0.82732 0.34587
 C938 C 0.11320 0.84103 0.33864
 C939 C 0.08488 0.82161 0.32960
 C940 C 0.06053 0.83512 0.31398
 H941 H 0.11184 0.86688 0.33732
 H942 H 0.08563 0.79581 0.33210
 H943 H 0.14243 0.80149 0.34758
 H944 H 0.06139 0.86056 0.30917
 C945 C 0.62880 0.68362 0.67483
 C946 C 0.60856 0.67400 0.69804
 C947 C 0.58625 0.69655 0.71345
 C948 C 0.57060 0.68911 0.74057
 H949 H 0.60833 0.64943 0.70603
 H950 H 0.58290 0.71978 0.70257
 H951 H 0.62782 0.70832 0.66717
 H952 H 0.57472 0.66628 0.75197
 C953 C 0.62117 0.19755 0.17702
 C954 C 0.59990 0.18777 0.19921
 C955 C 0.57564 0.20961 0.21248
 C956 C 0.55890 0.20212 0.23891
 H957 H 0.60044 0.16351 0.20808
 H958 H 0.57188 0.23238 0.20079
 H959 H 0.61969 0.22190 0.16842
 H960 H 0.56354 0.17985 0.25122
 C961 C 0.13563 0.70123 0.19227
 C962 C 0.11180 0.69746 0.21349
 C963 C 0.08954 0.72377 0.22119
 C964 C 0.06823 0.72037 0.24490
 H965 H 0.10795 0.67447 0.22471
 H966 H 0.09020 0.74555 0.20722
 H967 H 0.13852 0.72432 0.18090
 H968 H 0.06839 0.69865 0.25897
 C969 C 0.13382 0.17756 0.68588
 C970 C 0.10897 0.17087 0.70515
 C971 C 0.08652 0.19621 0.71514
 C972 C 0.06314 0.19032 0.73634
 H973 H 0.10485 0.14663 0.71322
 H974 H 0.08929 0.21997 0.70521
 H975 H 0.13678 0.20190 0.67745
 H976 H 0.06089 0.16667 0.74664
 C977 C 0.37682 0.68213 0.32926
 C978 C 0.40076 0.67015 0.31153
 C979 C 0.42632 0.69077 0.29829
 C980 C 0.44394 0.68005 0.27375
 H981 H 0.40090 0.64487 0.30558
 H982 H 0.42927 0.71512 0.30700
 H983 H 0.37718 0.70741 0.33527
 H984 H 0.43913 0.65633 0.26406
 C985 C 0.36178 0.18316 0.82802
 C986 C 0.38499 0.17269 0.80836
 C987 C 0.41015 0.19478 0.79696
 C988 C 0.42794 0.18765 0.77121
 H989 H 0.38570 0.14792 0.80064
 H990 H 0.41338 0.21762 0.80910
 H991 H 0.36220 0.20814 0.83527
 H992 H 0.42338 0.16564 0.75799
 C993 C 0.85753 0.67409 0.81592
 C994 C 0.87883 0.66476 0.79353
 C995 C 0.90463 0.68653 0.78296
 C996 C 0.92301 0.67981 0.75735
 H997 H 0.87730 0.64120 0.78266
 H998 H 0.90809 0.70884 0.79599
 H999 H 0.86047 0.69756 0.82687
 H1000 H 0.91907 0.65787 0.74384
 C1001 C 0.87391 0.17860 0.31098
 C1002 C 0.89581 0.16609 0.29093
 C1003 C 0.92238 0.18546 0.27782
 C1004 C 0.93975 0.17435 0.25312
 H1005 H 0.89358 0.14143 0.28305
 H1006 H 0.92678 0.20928 0.28737
 H1007 H 0.87699 0.20309 0.31924
 H1008 H 0.93434 0.15088 0.24315
 C1009 C 0.30107 0.32640 0.63857
 C1010 C 0.30858 0.30612 0.61474
 C1011 C 0.28437 0.29585 0.59098
 C1012 C 0.28948 0.27000 0.57269
 H1013 H 0.33275 0.29675 0.61263
 H1014 H 0.26208 0.30905 0.58890
 H1015 H 0.27670 0.33553 0.63977
 H1016 H 0.31119 0.25613 0.57605
 C1017 C 0.31487 0.82239 0.13759
 C1018 C 0.32027 0.80174 0.11350
 C1019 C 0.29501 0.79377 0.09002
 C1020 C 0.29752 0.76758 0.07168
 H1021 H 0.34347 0.79027 0.11105
 H1022 H 0.27395 0.80889 0.08829
 H1023 H 0.29144 0.83357 0.13926
 H1024 H 0.31789 0.75177 0.07478
 C1025 C 0.83034 0.30896 0.12201
 C1026 C 0.81179 0.32028 0.09851
 C1027 C 0.79570 0.29896 0.07512
 C1028 C 0.77411 0.31102 0.05485
 H1029 H 0.80774 0.34580 0.09688
 H1030 H 0.80057 0.27351 0.07524
 H1031 H 0.83505 0.28349 0.12291
 H1032 H 0.76906 0.33644 0.05567
 C1033 C 0.81476 0.81314 0.62770
 C1034 C 0.79704 0.82329 0.60301
 C1035 C 0.78458 0.80093 0.57833
 C1036 C 0.76394 0.81132 0.55620
 H1037 H 0.79124 0.84843 0.60108
 H1038 H 0.79135 0.77594 0.57892
 H1039 H 0.82114 0.78805 0.62879
 H1040 H 0.75677 0.83623 0.55659
 C1041 C 0.33083 0.67316 0.36695
 C1042 C 0.34190 0.69247 0.39031
 C1043 C 0.32074 0.70131 0.41725
 C1044 C 0.32769 0.72577 0.43693
 H1045 H 0.36637 0.70151 0.38988
 H1046 H 0.29842 0.68810 0.42040
 H1047 H 0.30609 0.66487 0.36845
 H1048 H 0.34906 0.74018 0.43287
 C1049 C 0.31897 0.17337 0.86853
 C1050 C 0.33310 0.19117 0.89147
 C1051 C 0.31474 0.20620 0.91773
 C1052 C 0.32828 0.22986 0.93490
 H1053 H 0.35870 0.19616 0.89001
 H1054 H 0.28993 0.19920 0.92191
 H1055 H 0.29352 0.16786 0.87048
 H1056 H 0.35269 0.23738 0.92939
 C1057 C 0.81331 0.66292 0.85480
 C1058 C 0.82848 0.67391 0.88104
 C1059 C 0.81059 0.68532 0.90949
 C1060 C 0.82627 0.70005 0.93348
 H1061 H 0.85454 0.67561 0.88106
 H1062 H 0.78452 0.68374 0.90980
 H1063 H 0.78732 0.66040 0.85520
 H1064 H 0.85224 0.70257 0.93214
 C1065 C 0.82622 0.17262 0.34725
 C1066 C 0.83839 0.18736 0.37328
 C1067 C 0.81666 0.19636 0.39987
 C1068 C 0.82638 0.21367 0.42530
 H1069 H 0.86401 0.19196 0.37532
 H1070 H 0.79165 0.18890 0.39826
 H1071 H 0.80048 0.16813 0.34641
 H1072 H 0.85099 0.22233 0.42667
 C1073 C 0.68143 0.31085 0.35693
 C1074 C 0.70076 0.31843 0.38157
 C1075 C 0.70932 0.29481 0.40613
 C1076 C 0.73100 0.30224 0.42875
 H1077 H 0.71113 0.34223 0.38327
 H1078 H 0.69892 0.27099 0.40494
 H1079 H 0.67006 0.28743 0.35620
 H1080 H 0.74152 0.32605 0.42934
 C1081 C 0.69421 0.81347 0.86831
 C1082 C 0.71633 0.82227 0.89021
 C1083 C 0.72614 0.80034 0.91590
 C1084 C 0.75186 0.80668 0.93433
 H1085 H 0.72756 0.84567 0.88930
 H1086 H 0.71261 0.77836 0.91922
 H1087 H 0.68302 0.79008 0.87039
 H1088 H 0.76599 0.82814 0.93020
 C1089 C 0.17909 0.32661 0.87285
 C1090 C 0.19947 0.33846 0.89489
 C1091 C 0.21326 0.31840 0.92027
 C1092 C 0.23862 0.32906 0.93705
 H1093 H 0.20714 0.36323 0.89360
 H1094 H 0.20371 0.29457 0.92423
 H1095 H 0.17119 0.30194 0.87477
 H1096 H 0.24863 0.35247 0.93185
 C1097 C 0.19374 0.83546 0.37410
 C1098 C 0.18642 0.81526 0.39787
 C1099 C 0.21086 0.80525 0.42123
 C1100 C 0.20604 0.77937 0.43924
 H1101 H 0.16219 0.80591 0.40039
 H1102 H 0.23306 0.81887 0.42342
 H1103 H 0.21838 0.84383 0.37225
 H1104 H 0.18457 0.76490 0.43567
 C1105 C 0.66949 0.67236 0.63176
 C1106 C 0.65676 0.69158 0.60950
 C1107 C 0.67599 0.70120 0.58134
 C1108 C 0.66595 0.72364 0.56089
 H1109 H 0.63241 0.70037 0.61203
 H1110 H 0.69947 0.69045 0.57797
 H1111 H 0.69378 0.66367 0.62807
 H1112 H 0.64297 0.73520 0.56476
 C1113 C 0.66458 0.18519 0.13655
 C1114 C 0.65348 0.20449 0.11349
 C1115 C 0.67374 0.21205 0.08539
 C1116 C 0.66580 0.23488 0.06448
 H1117 H 0.62966 0.21475 0.11513
 H1118 H 0.69620 0.19925 0.08234
 H1119 H 0.68843 0.17514 0.13361
 H1120 H 0.64397 0.24853 0.06808
 C1121 C 0.17427 0.67775 0.15303
 C1122 C 0.16241 0.69292 0.12747
 C1123 C 0.18184 0.69717 0.09827
 C1124 C 0.17417 0.71960 0.07697
 H1125 H 0.13860 0.70335 0.12841
 H1126 H 0.20381 0.68354 0.09534
 H1127 H 0.19802 0.66723 0.15137
 H1128 H 0.15333 0.73458 0.08116
 C1129 C 0.17411 0.15953 0.64571
 C1130 C 0.16151 0.17576 0.62119
 C1131 C 0.18107 0.18395 0.59296
 C1132 C 0.17185 0.20721 0.57322
 H1133 H 0.13691 0.18419 0.62244
 H1134 H 0.20418 0.17246 0.58955
 H1135 H 0.19875 0.15133 0.64388
 H1136 H 0.14966 0.21995 0.57792
   
