data_POSCAR
  _audit_creation_date              2014-09-24
  _audit_creation_method            'ToBaCCo'
  _symmetry_space_group_name_H-M    'P1'
  _symmetry_Int_Tables_number       1
  _symmetry_cell_setting            triclinic
  loop_
  _symmetry_equiv_pos_as_xyz
 x,y,z
_cell_length_a 23.7563
_cell_length_b 23.7239
_cell_length_c 23.9145
_cell_angle_alpha 87.667800
_cell_angle_beta 89.427400
_cell_angle_gamma 88.641200
loop_
  _atom_site_label
  _atom_site_type_symbol
  _atom_site_fract_x
  _atom_site_fract_y
  _atom_site_fract_z
C1 C 0.00491 0.44694 0.21275
 C2 C 0.06421 0.45229 0.23630
 C3 C 0.06978 0.49548 0.27137
 C4 C 0.01425 0.52941 0.28111
 C5 C -0.03218 0.44179 0.26537
 C6 C -0.02958 0.48542 0.30031
 C7 C -0.00952 0.50544 0.18632
 C8 C -0.00441 0.54839 0.22188
 H9 H 0.09869 0.42303 0.22823
 H10 H 0.01845 0.56464 0.30987
 H11 H -0.06290 0.40914 0.27137
 H12 H -0.01865 0.51258 0.14227
 C13 C 0.02382 0.46141 0.77318
 C14 C -0.01862 0.45742 0.73053
 C15 C -0.02653 0.50720 0.69603
 C16 C 0.01193 0.55218 0.70911
 C17 C 0.07486 0.47727 0.74332
 C18 C 0.06853 0.52620 0.70713
 C19 C 0.00835 0.51182 0.80381
 C20 C 0.00237 0.56305 0.76872
 H21 H -0.04732 0.42250 0.72967
 H22 H 0.00674 0.58856 0.67904
 H23 H 0.11546 0.45609 0.74909
 H24 H 0.01211 0.51209 0.84880
 C25 C 0.22188 -0.00326 0.43702
 C26 C 0.25721 0.04906 0.44017
 C27 C 0.28465 0.05435 0.48925
 C28 C 0.27662 0.00326 0.53105
 C29 C 0.26340 -0.05231 0.44918
 C30 C 0.29103 -0.05042 0.49861
 C31 C 0.18387 -0.00269 0.48973
 C32 C 0.21222 0.00053 0.53912
 H33 H 0.25690 0.08175 0.40715
 H34 H 0.30057 0.00639 0.57036
 H35 H 0.26292 -0.09124 0.42735
 H36 H 0.13870 -0.00729 0.48791
 C37 C 0.77797 0.00546 0.45036
 C38 C 0.73995 -0.04088 0.44616
 C39 C 0.70768 -0.05263 0.49549
 C40 C 0.71762 -0.01440 0.54006
 C41 C 0.74050 0.05567 0.46670
 C42 C 0.70827 0.04493 0.51303
 C43 C 0.81305 -0.00756 0.50314
 C44 C 0.78120 -0.01790 0.54981
 H45 H 0.74105 -0.06869 0.41122
 H46 H 0.69163 -0.02233 0.57838
 H47 H 0.74014 0.09667 0.44508
 H48 H 0.85781 -0.00024 0.50526
 C49 C 0.43022 0.20906 1.01854
 C50 C 0.42756 0.24879 1.06322
 C51 C 0.47263 0.28806 1.06307
 C52 C 0.51129 0.28116 1.01452
 C53 C 0.43041 0.24550 0.96835
 C54 C 0.47490 0.28534 0.96436
 C55 C 0.48574 0.18288 1.02163
 C56 C 0.53118 0.22172 1.01933
 H57 H 0.39564 0.24725 1.09546
 H58 H 0.54524 0.31223 1.01338
 H59 H 0.40023 0.24081 0.93563
 H60 H 0.49206 0.13753 1.02059
 C61 C 0.44090 0.77712 0.97568
 C62 C 0.45320 0.72883 0.93685
 C63 C 0.50034 0.69795 0.94981
 C64 C 0.53167 0.71852 1.00127
 C65 C 0.43962 0.74907 1.03412
 C66 C 0.48724 0.71964 1.04918
 C67 C 0.49199 0.80995 0.97319
 C68 C 0.54272 0.77819 0.98750
 H69 H 0.43348 0.72545 0.89657
 H70 H 0.56885 0.69105 1.01056
 H71 H 0.40310 0.75294 1.06126
 H72 H 0.49074 0.85478 0.96316
 B73 B 0.98635 1.06367 0.02564
 B74 B 1.02357 1.00426 0.05062
 B75 B 0.95158 1.00450 0.05245
 B76 B 0.92745 1.04064 -0.00779
 B77 B 0.98735 1.06352 -0.04517
 B78 B 1.04606 1.03918 -0.00927
 B79 B 0.98819 0.94527 -0.04121
 B80 B 0.95102 1.00482 -0.06459
 B81 B 1.02359 1.00369 -0.06650
 B82 B 1.04675 0.96698 -0.00679
 B83 B 0.98854 0.94516 0.03160
 B84 B 0.92907 0.96758 -0.00536
 B85 B 0.57206 0.49740 0.46882
 B86 B 0.57435 0.49503 0.54071
 B87 B 0.55093 0.55582 0.50435
 B88 B 0.51275 0.53631 0.44775
 B89 B 0.51176 0.46402 0.44819
 B90 B 0.54890 0.43804 0.50631
 B91 B 0.45630 0.49970 0.54510
 B92 B 0.45384 0.50232 0.47236
 B93 B 0.47656 0.44074 0.50846
 B94 B 0.51534 0.46031 0.56578
 B95 B 0.51637 0.53276 0.56508
 B96 B 0.47837 0.55894 0.50798
 C97 C 0.98531 1.29694 0.11759
 C98 C 1.03696 1.32544 0.11496
 C99 C 1.04259 1.37599 0.14271
 C100 C 0.99715 1.39888 0.17314
 C101 C 0.94390 1.37499 0.16755
 C102 C 0.93821 1.32400 0.14147
 C103 C 0.98317 1.23950 0.09425
 C104 C 0.93562 1.20565 0.09813
 C105 C 0.93672 1.15212 0.07582
 C106 C 0.98542 1.12784 0.05190
 C107 C 1.02901 1.16651 0.04094
 C108 C 1.03047 1.21919 0.06499
 C109 C 1.08268 1.30294 0.08515
 C110 C 1.07889 1.25163 0.05921
 H111 H 1.12190 1.32530 0.08181
 H112 H 1.11523 1.23598 0.03629
 H113 H 1.08274 1.39665 0.14130
 H114 H 0.90659 1.39446 0.18543
 H115 H 0.89681 1.13556 0.06857
 H116 H 1.05962 1.15946 0.00880
 H117 H 0.89682 1.30629 0.14097
 H118 H 0.89641 1.22050 0.11601
 C119 C 0.98858 0.72055 0.15888
 C120 C 1.03971 0.68848 0.15828
 C121 C 1.04165 0.63289 0.18058
 C122 C 0.99302 0.60791 0.20228
 C123 C 0.94229 0.63906 0.20296
 C124 C 0.93999 0.69497 0.18174
 C125 C 0.98825 0.77927 0.13273
 C126 C 0.94085 0.81585 0.13229
 C127 C 0.94209 0.86836 0.10336
 C128 C 0.98999 0.88675 0.07266
 C129 C 1.03808 0.85089 0.07723
 C130 C 1.03788 0.79850 0.10639
 C131 C 1.08825 0.71134 0.13386
 C132 C 1.08720 0.76489 0.10792
 H133 H 1.12735 0.68686 0.13347
 H134 H 1.12559 0.78002 0.08821
 H135 H 1.08073 0.60830 0.17977
 H136 H 0.90428 0.61982 0.21923
 H137 H 0.90387 0.89396 0.10354
 H138 H 1.07614 0.86104 0.05647
 H139 H 0.89975 0.71699 0.18247
 H140 H 0.90215 0.80444 0.15336
 C141 C 1.02098 1.29680 -0.14692
 C142 C 0.98669 1.34101 -0.12636
 C143 C 0.99102 1.39613 -0.14961
 C144 C 1.02837 1.40828 -0.19459
 C145 C 1.06070 1.36284 -0.21567
 C146 C 1.05792 1.30863 -0.19170
 C147 C 1.01365 1.23831 -0.12282
 C148 C 1.04943 1.19285 -0.13590
 C149 C 1.04033 1.13903 -0.11253
 C150 C 0.99409 1.12665 -0.07714
 C151 C 0.96079 1.17398 -0.06216
 C152 C 0.97010 1.22876 -0.08374
 C153 C 0.94609 1.32927 -0.08488
 C154 C 0.93737 1.27417 -0.06463
 H155 H 0.91955 1.36290 -0.06899
 H156 H 0.90464 1.26704 -0.03340
 H157 H 0.96247 1.42872 -0.13489
 H158 H 1.08643 1.36800 -0.25303
 H159 H 1.07147 1.10804 -0.12212
 H160 H 0.92995 1.17027 -0.02962
 H161 H 1.08285 1.27600 -0.21094
 H162 H 1.08597 1.19821 -0.16257
 C163 C 0.99097 0.72669 -0.16234
 C164 C 0.97990 0.67746 -0.12907
 C165 C 0.98108 0.62436 -0.15280
 C166 C 0.99620 0.61786 -0.20935
 C167 C 1.00700 0.66745 -0.24220
 C168 C 1.00408 0.72077 -0.21924
 C169 C 0.98990 0.78256 -0.13478
 C170 C 0.99782 0.83469 -0.16361
 C171 C 0.99692 0.88519 -0.13498
 C172 C 0.98822 0.88630 -0.07633
 C173 C 0.98177 0.83327 -0.04878
 C174 C 0.98075 0.78274 -0.07664
 C175 C 0.96919 0.68107 -0.07169
 C176 C 0.97060 0.73240 -0.04588
 H177 H 0.96092 0.64340 -0.04602
 H178 H 0.96316 0.73273 -0.00107
 H179 H 0.97005 0.58827 -0.12624
 H180 H 1.02021 0.66629 -0.28538
 H181 H 1.00002 0.92323 -0.16040
 H182 H 0.97936 0.82899 -0.00493
 H183 H 1.01385 0.75673 -0.24639
 H184 H 1.00366 0.83755 -0.20843
 C185 C 1.13340 1.00332 0.27688
 C186 C 1.17482 0.96077 0.28821
 C187 C 1.20331 0.95835 0.33943
 C188 C 1.18983 0.99637 0.38167
 C189 C 1.14765 1.03777 0.37046
 C190 C 1.11991 1.04139 0.31901
 C191 C 1.10593 1.00563 0.22044
 C192 C 1.06694 1.04801 0.20325
 C193 C 1.04264 1.04793 0.15030
 C194 C 1.05615 1.00590 0.11147
 C195 C 1.09396 0.96289 0.13030
 C196 C 1.11996 0.96321 0.18271
 C197 C 1.18774 0.92061 0.24836
 C198 C 1.16022 0.92122 0.19719
 H199 H 1.21923 0.88770 0.25711
 H200 H 1.17131 0.88877 0.16812
 H201 H 1.23671 0.92712 0.34480
 H202 H 1.13671 1.06822 0.40156
 H203 H 1.01124 1.08017 0.14149
 H204 H 1.10396 0.92837 0.10476
 H205 H 1.08811 1.07424 0.31312
 H206 H 1.05423 1.08150 0.23017
 C207 C 1.12871 0.99879 -0.29881
 C208 C 1.18206 0.97194 -0.30494
 C209 C 1.20923 0.97261 -0.35775
 C210 C 1.18362 0.99926 -0.40502
 C211 C 1.13010 1.02458 -0.39873
 C212 C 1.10294 1.02427 -0.34665
 C213 C 1.10214 0.99925 -0.24150
 C214 C 1.05268 1.02985 -0.23024
 C215 C 1.03102 1.03153 -0.17608
 C216 C 1.05543 1.00227 -0.12957
 C217 C 1.10630 0.97235 -0.14158
 C218 C 1.12982 0.97110 -0.19618
 C219 C 1.20771 0.94462 -0.25830
 C220 C 1.18202 0.94384 -0.20530
 H221 H 1.24840 0.92359 -0.26279
 H222 H 1.20385 0.92232 -0.17072
 H223 H 1.24996 0.95163 -0.36211
 H224 H 1.10929 1.04561 -0.43413
 H225 H 0.99779 1.06105 -0.17087
 H226 H 1.13176 0.95501 -0.10872
 H227 H 1.06175 1.04422 -0.34491
 H228 H 1.03111 1.05515 -0.26219
 C229 C 0.86322 1.01130 0.29046
 C230 C 0.81583 1.04698 0.29974
 C231 C 0.79013 1.04719 0.35236
 C232 C 0.81181 1.01355 0.39707
 C233 C 0.85989 0.97940 0.38805
 C234 C 0.88564 0.97861 0.33565
 C235 C 0.88600 1.00847 0.23239
 C236 C 0.93016 0.97206 0.21761
 C237 C 0.94882 0.97061 0.16241
 C238 C 0.92463 1.00440 0.11797
 C239 C 0.88195 1.04200 0.13551
 C240 C 0.86149 1.04349 0.19028
 C241 C 0.79321 1.08104 0.25609
 C242 C 0.81610 1.07992 0.20255
 H243 H 0.75716 1.10875 0.26335
 H244 H 0.79711 1.10702 0.16998
 H245 H 0.75144 1.07155 0.35728
 H246 H 0.87633 0.95116 0.42096
 H247 H 0.98494 0.94365 0.15679
 H248 H 0.86261 1.07153 0.10847
 H249 H 0.92199 0.95103 0.33127
 H250 H 0.95155 0.94453 0.24791
 C251 C 0.83987 0.99860 -0.28470
 C252 C 0.82324 0.94528 -0.30237
 C253 C 0.80474 0.93977 -0.35709
 C254 C 0.80391 0.98644 -0.39445
 C255 C 0.82165 1.03876 -0.37775
 C256 C 0.83953 1.04499 -0.32337
 C257 C 0.86014 1.00269 -0.22650
 C258 C 0.87454 1.05397 -0.20408
 C259 C 0.90049 1.05463 -0.15243
 C260 C 0.91342 1.00467 -0.12121
 C261 C 0.89173 0.95443 -0.14090
 C262 C 0.86634 0.95277 -0.19308
 C263 C 0.82655 0.89774 -0.26582
 C264 C 0.84844 0.90127 -0.21237
 H265 H 0.81370 0.85697 -0.27934
 H266 H 0.85232 0.86303 -0.18615
 H267 H 0.79213 0.89911 -0.37087
 H268 H 0.82093 1.07504 -0.40681
 H269 H 0.91663 1.09432 -0.14139
 H270 H 0.89423 0.91566 -0.11605
 H271 H 0.85342 1.08613 -0.31287
 H272 H 0.86835 1.09393 -0.22652
 C273 C 1.28208 1.11418 0.01453
 C274 C 1.31650 1.11808 -0.03366
 C275 C 1.36920 1.14283 -0.03055
 C276 C 1.38587 1.16771 0.01932
 C277 C 1.35693 1.15152 0.06899
 C278 C 1.30516 1.12569 0.06657
 C279 C 1.22233 1.09902 0.00802
 C280 C 1.18294 1.10484 0.05110
 C281 C 1.12767 1.08994 0.04366
 C282 C 1.10796 1.06930 -0.00710
 C283 C 1.14772 1.06736 -0.05125
 C284 C 1.20399 1.08221 -0.04440
 C285 C 1.29677 1.09992 -0.08482
 C286 C 1.24184 1.08111 -0.08977
 H287 H 1.32366 1.10143 -0.12169
 H288 H 1.22815 1.06778 -0.13017
 H289 H 1.39488 1.14701 -0.06816
 H290 H 1.37264 1.16077 0.10982
 H291 H 1.10060 1.09591 0.07868
 H292 H 1.13673 1.05342 -0.09107
 H293 H 1.28309 1.11672 0.10548
 H294 H 1.19382 1.12123 0.09094
 C295 C 0.69805 1.15453 0.00770
 C296 C 0.65692 1.12584 0.04000
 C297 C 0.60242 1.14910 0.04458
 C298 C 0.58799 1.20222 0.01929
 C299 C 0.63100 1.23311 -0.00764
 C300 C 0.68506 1.20925 -0.01420
 C301 C 0.75419 1.12585 -0.00021
 C302 C 0.79364 1.14423 -0.04027
 C303 C 0.84569 1.11608 -0.04540
 C304 C 0.86335 1.07174 -0.00796
 C305 C 0.81978 1.04964 0.02669
 C306 C 0.76633 1.07555 0.03085
 C307 C 0.67061 1.07433 0.06799
 C308 C 0.72470 1.05050 0.06477
 H309 H 0.63932 1.05259 0.09352
 H310 H 0.73366 1.01123 0.08808
 H311 H 0.57156 1.12596 0.06936
 H312 H 0.62270 1.27433 -0.02678
 H313 H 0.87067 1.13071 -0.07952
 H314 H 0.82708 1.01094 0.05120
 H315 H 0.71627 1.23403 -0.03652
 H316 H 0.78417 1.17920 -0.06930
 C317 C 1.27620 0.85875 -0.03046
 C318 C 1.32067 0.88299 -0.00159
 C319 C 1.37498 0.85883 -0.00383
 C320 C 1.38616 0.81042 -0.03450
 C321 C 1.34208 0.78841 -0.06529
 C322 C 1.28825 0.81269 -0.06401
 C323 C 1.21792 0.88230 -0.02287
 C324 C 1.17020 0.85766 -0.04461
 C325 C 1.11688 0.88216 -0.03747
 C326 C 1.10831 0.93282 -0.00893
 C327 C 1.15639 0.95362 0.01672
 C328 C 1.21023 0.92981 0.00983
 C329 C 1.31025 0.92991 0.03092
 C330 C 1.25618 0.95308 0.03622
 H331 H 1.34428 0.94875 0.05291
 H332 H 1.25015 0.98925 0.06205
 H333 H 1.40798 0.87569 0.02117
 H334 H 1.34731 0.75039 -0.08820
 H335 H 1.08392 0.86110 -0.05672
 H336 H 1.15289 0.98793 0.04397
 H337 H 1.25638 0.79351 -0.08823
 H338 H 1.17291 0.81955 -0.06765
 C339 C 0.70668 0.84862 -0.01317
 C340 C 0.66158 0.87783 -0.04039
 C341 C 0.60776 0.85440 -0.04020
 C342 C 0.59710 0.80208 -0.01219
 C343 C 0.64231 0.77451 0.01636
 C344 C 0.69598 0.79723 0.01582
 C345 C 0.76352 0.87475 -0.01479
 C346 C 0.81215 0.84703 0.00573
 C347 C 0.86345 0.87455 0.00581
 C348 C 0.86908 0.93171 -0.01123
 C349 C 0.82132 0.95526 -0.03993
 C350 C 0.76916 0.92867 -0.04039
 C351 C 0.67035 0.93064 -0.06714
 C352 C 0.72284 0.95580 -0.06660
 H353 H 0.63588 0.95335 -0.08798
 H354 H 0.72716 0.99720 -0.08686
 H355 H 0.57494 0.87697 -0.06344
 H356 H 0.63675 0.73621 0.04152
 H357 H 0.89791 0.84868 0.01849
 H358 H 0.82347 0.99524 -0.06252
 H359 H 0.72829 0.77448 0.03946
 H360 H 0.81181 0.80357 0.02093
 C361 C 0.81120 0.50333 0.38313
 C362 C 0.84153 0.45124 0.38604
 C363 C 0.89742 0.44804 0.36685
 C364 C 0.92274 0.49489 0.34004
 C365 C 0.89431 0.54737 0.34060
 C366 C 0.83936 0.55177 0.36242
 C367 C 0.74989 0.50356 0.39983
 C368 C 0.71529 0.55242 0.39895
 C369 C 0.65893 0.55001 0.41651
 C370 C 0.63435 0.49915 0.43626
 C371 C 0.66778 0.44990 0.42991
 C372 C 0.72506 0.45171 0.41521
 C373 C 0.81484 0.40170 0.40421
 C374 C 0.75769 0.40177 0.41751
 H375 H 0.83809 0.36181 0.40632
 H376 H 0.73880 0.36207 0.43028
 H377 H 0.91948 0.40746 0.36776
 H378 H 0.91282 0.58429 0.32050
 H379 H 0.63452 0.58851 0.41203
 H380 H 0.65003 0.40918 0.43857
 H381 H 0.81861 0.59272 0.35986
 H382 H 0.73097 0.59301 0.38514
 C383 C 0.23286 0.51306 0.34591
 C384 C 0.18292 0.51696 0.37881
 C385 C 0.12963 0.51506 0.35376
 C386 C 0.12510 0.50700 0.29639
 C387 C 0.17450 0.50410 0.26364
 C388 C 0.22764 0.50738 0.28786
 C389 C 0.28891 0.51282 0.37493
 C390 C 0.34129 0.51303 0.34690
 C391 C 0.39199 0.51170 0.37682
 C392 C 0.39352 0.50805 0.43607
 C393 C 0.34006 0.51075 0.46261
 C394 C 0.28905 0.51351 0.43360
 C395 C 0.18644 0.52041 0.43687
 C396 C 0.23824 0.51824 0.46360
 H397 H 0.14851 0.52351 0.46225
 H398 H 0.23845 0.52018 0.50867
 H399 H 0.09174 0.51654 0.37939
 H400 H 0.17198 0.49814 0.21907
 H401 H 0.43008 0.51180 0.35217
 H402 H 0.33652 0.51682 0.50576
 H403 H 0.26407 0.50368 0.26083
 H404 H 0.34405 0.51446 0.30179
 C405 C 0.81442 0.50410 0.62142
 C406 C 0.82788 0.54903 0.65579
 C407 C 0.88370 0.55493 0.67413
 C408 C 0.92479 0.51300 0.66337
 C409 C 0.91098 0.46875 0.62921
 C410 C 0.85724 0.46511 0.60725
 C411 C 0.75439 0.49792 0.60440
 C412 C 0.73739 0.45709 0.56802
 C413 C 0.68134 0.45431 0.55216
 C414 C 0.63870 0.49194 0.57005
 C415 C 0.65574 0.52734 0.61277
 C416 C 0.71271 0.53357 0.62701
 C417 C 0.78472 0.58497 0.67495
 C418 C 0.72826 0.57646 0.66213
 H419 H 0.79450 0.61899 0.70189
 H420 H 0.69640 0.60467 0.67900
 H421 H 0.89323 0.58813 0.70219
 H422 H 0.94182 0.43569 0.62072
 H423 H 0.67288 0.42085 0.52597
 H424 H 0.62598 0.55136 0.63469
 H425 H 0.84950 0.42957 0.58196
 H426 H 0.76673 0.42727 0.55022
 C427 C 0.22262 0.52640 0.62985
 C428 C 0.20520 0.57586 0.65659
 C429 C 0.14914 0.58106 0.67648
 C430 C 0.11085 0.53784 0.66780
 C431 C 0.12697 0.49380 0.63322
 C432 C 0.18208 0.48807 0.61435
 C433 C 0.28363 0.51665 0.61850
 C434 C 0.30544 0.46372 0.60527
 C435 C 0.36094 0.45743 0.58784
 C436 C 0.39772 0.50326 0.58296
 C437 C 0.37733 0.55456 0.60544
 C438 C 0.32077 0.56136 0.62325
 C439 C 0.24459 0.61812 0.66433
 C440 C 0.30073 0.61194 0.64581
 H441 H 0.23163 0.65681 0.68384
 H442 H 0.32909 0.64648 0.65065
 H443 H 0.13708 0.61556 0.70283
 H444 H 0.09796 0.46043 0.62540
 H445 H 0.37113 0.41700 0.57343
 H446 H 0.40454 0.58994 0.60842
 H447 H 0.19277 0.45222 0.58958
 H448 H 0.27951 0.42688 0.60607
 C449 C 0.50155 0.65245 0.21955
 C450 C 0.53575 0.62948 0.17685
 C451 C 0.53159 0.65128 0.12120
 C452 C 0.49524 0.69737 0.10798
 C453 C 0.46557 0.72292 0.15199
 C454 C 0.46804 0.70052 0.20660
 C455 C 0.50370 0.62559 0.27726
 C456 C 0.46510 0.63890 0.31992
 C457 C 0.46825 0.61135 0.37262
 C458 C 0.51097 0.57093 0.38621
 C459 C 0.54913 0.55841 0.34263
 C460 C 0.54470 0.58316 0.28857
 C461 C 0.57426 0.58553 0.19037
 C462 C 0.57982 0.56405 0.24535
 H463 H 0.60121 0.56819 0.15820
 H464 H 0.61090 0.53068 0.25383
 H465 H 0.55604 0.63181 0.08844
 H466 H 0.44013 0.76086 0.14467
 H467 H 0.43635 0.62180 0.40236
 H468 H 0.58225 0.52829 0.34902
 H469 H 0.44410 0.72194 0.23829
 H470 H 0.43090 0.66902 0.31281
 C471 C 0.53067 0.62075 0.79735
 C472 C 0.49692 0.59358 0.83900
 C473 C 0.49411 0.61407 0.89317
 C474 C 0.52406 0.66173 0.90653
 C475 C 0.56197 0.68498 0.86724
 C476 C 0.56554 0.66460 0.81317
 C477 C 0.52579 0.60295 0.73804
 C478 C 0.55249 0.63053 0.69233
 C479 C 0.54740 0.61108 0.63813
 C480 C 0.51612 0.56304 0.62671
 C481 C 0.48614 0.53894 0.67276
 C482 C 0.49103 0.55747 0.72729
 C483 C 0.46349 0.54838 0.82553
 C484 C 0.46108 0.53032 0.77098
 H485 H 0.43812 0.52714 0.85749
 H486 H 0.43443 0.49519 0.76272
 H487 H 0.46420 0.59660 0.92336
 H488 H 0.58473 0.72245 0.87664
 H489 H 0.57385 0.63069 0.60685
 H490 H 0.45894 0.50424 0.66758
 H491 H 0.59352 0.68554 0.78367
 H492 H 0.57881 0.66632 0.69766
 C493 C 0.49704 0.36792 0.21747
 C494 C 0.44277 0.35386 0.20018
 C495 C 0.43484 0.33347 0.14672
 C496 C 0.48067 0.32166 0.11042
 C497 C 0.53431 0.33868 0.12657
 C498 C 0.54237 0.36163 0.17921
 C499 C 0.50330 0.38818 0.27599
 C500 C 0.55431 0.40557 0.29722
 C501 C 0.55696 0.42666 0.35084
 C502 C 0.50953 0.43249 0.38656
 C503 C 0.46019 0.40859 0.36664
 C504 C 0.45567 0.38981 0.31168
 C505 C 0.39667 0.35811 0.23702
 C506 C 0.40314 0.37470 0.29179
 H507 H 0.35499 0.34713 0.22371
 H508 H 0.36620 0.37658 0.31870
 H509 H 0.39212 0.32599 0.13419
 H510 H 0.57102 0.33104 0.10062
 H511 H 0.59725 0.43911 0.36209
 H512 H 0.42305 0.40855 0.39149
 H513 H 0.58472 0.37216 0.19000
 H514 H 0.59264 0.40440 0.27266
 C515 C 0.50105 0.36573 0.80333
 C516 C 0.44792 0.34540 0.81985
 C517 C 0.43859 0.32577 0.87498
 C518 C 0.48281 0.31917 0.91409
 C519 C 0.53480 0.34288 0.89856
 C520 C 0.54379 0.36592 0.84404
 C521 C 0.50885 0.38533 0.74308
 C522 C 0.55773 0.41082 0.72236
 C523 C 0.56105 0.43106 0.66664
 C524 C 0.51705 0.42543 0.62783
 C525 C 0.47020 0.39602 0.64877
 C526 C 0.46440 0.37873 0.70536
 C527 C 0.40461 0.34227 0.78081
 C528 C 0.41313 0.35717 0.72459
 H529 H 0.36388 0.32632 0.79360
 H530 H 0.37855 0.35292 0.69592
 H531 H 0.39600 0.31481 0.88637
 H532 H 0.56973 0.34167 0.92702
 H533 H 0.59857 0.45198 0.65585
 H534 H 0.43652 0.38771 0.62212
 H535 H 0.58506 0.38166 0.83391
 H536 H 0.59307 0.41759 0.74911
 C537 C 0.64496 0.78464 0.50143
 C538 C 0.62596 0.82425 0.45977
 C539 C 0.64640 0.87887 0.45836
 C540 C 0.67976 0.89660 0.50202
 C541 C 0.69047 0.85972 0.54830
 C542 C 0.67511 0.80335 0.54704
 C543 C 0.62856 0.72512 0.49715
 C544 C 0.65763 0.67962 0.52376
 C545 C 0.63754 0.62492 0.52029
 C546 C 0.58450 0.61538 0.49717
 C547 C 0.56160 0.66030 0.46348
 C548 C 0.58416 0.71380 0.46151
 C549 C 0.58561 0.80932 0.42113
 C550 C 0.56259 0.75584 0.42423
 H551 H 0.56975 0.84006 0.39005
 H552 H 0.52912 0.74662 0.39575
 H553 H 0.63542 0.90816 0.42392
 H554 H 0.71487 0.87285 0.58308
 H555 H 0.66484 0.59111 0.53378
 H556 H 0.52289 0.65649 0.44243
 H557 H 0.68663 0.77479 0.58169
 H558 H 0.69675 0.68576 0.54524
 C559 C 0.61998 0.19621 0.52958
 C560 C 0.65836 0.17938 0.57209
 C561 C 0.68276 0.12486 0.57237
 C562 C 0.66764 0.08758 0.53137
 C563 C 0.62276 0.10154 0.49566
 C564 C 0.59870 0.15546 0.49490
 C565 C 0.60555 0.25718 0.52152
 C566 C 0.58124 0.27936 0.47224
 C567 C 0.56791 0.33644 0.46606
 C568 C 0.57756 0.37435 0.50872
 C569 C 0.60439 0.35142 0.55749
 C570 C 0.62060 0.29419 0.56299
 C571 C 0.67375 0.21812 0.61167
 C572 C 0.65313 0.27395 0.60855
 H573 H 0.70199 0.20516 0.64534
 H574 H 0.66538 0.30234 0.64041
 H575 H 0.71697 0.11351 0.60060
 H576 H 0.61033 0.07258 0.46438
 H577 H 0.54601 0.34795 0.42887
 H578 H 0.61345 0.37775 0.59147
 H579 H 0.56578 0.16544 0.46503
 H580 H 0.57195 0.25311 0.43782
 C581 C 0.35779 0.78442 0.53436
 C582 C 0.39217 0.83096 0.54379
 C583 C 0.36962 0.88649 0.53733
 C584 C 0.31254 0.89524 0.52420
 C585 C 0.27724 0.84841 0.52440
 C586 C 0.29959 0.79362 0.52858
 C587 C 0.38505 0.72735 0.52961
 C588 C 0.35913 0.68302 0.50367
 C589 C 0.38856 0.63234 0.49478
 C590 C 0.44380 0.62120 0.51420
 C591 C 0.46788 0.66651 0.54166
 C592 C 0.44136 0.71977 0.54562
 C593 C 0.44881 0.82120 0.55795
 C594 C 0.47216 0.76639 0.56140
 H595 H 0.47532 0.85627 0.56668
 H596 H 0.51604 0.76096 0.57289
 H597 H 0.39688 0.92237 0.53895
 H598 H 0.23262 0.85430 0.51642
 H599 H 0.36781 0.60457 0.46924
 H600 H 0.50972 0.66336 0.55576
 H601 H 0.27124 0.75893 0.52552
 H602 H 0.31732 0.68825 0.48653
 C603 C 0.35528 0.21849 0.50963
 C604 C 0.38411 0.16980 0.53202
 C605 C 0.36045 0.11579 0.52799
 C606 C 0.30785 0.11022 0.50257
 C607 C 0.27768 0.15952 0.48529
 C608 C 0.30093 0.21260 0.48838
 C609 C 0.38371 0.27443 0.50971
 C610 C 0.36135 0.32362 0.48304
 C611 C 0.38985 0.37441 0.48328
 C612 C 0.44231 0.37965 0.50949
 C613 C 0.46271 0.32996 0.53855
 C614 C 0.43562 0.27774 0.53696
 C615 C 0.43628 0.17574 0.55788
 C616 C 0.46066 0.22867 0.56163
 H617 H 0.45841 0.13900 0.57591
 H618 H 0.50062 0.23090 0.58277
 H619 H 0.38366 0.07828 0.54272
 H620 H 0.23594 0.15696 0.46787
 H621 H 0.36845 0.40965 0.46381
 H622 H 0.49934 0.33112 0.56415
 H623 H 0.27566 0.24841 0.47357
 H624 H 0.32189 0.32391 0.46109
   
