data_POSCAR
  _audit_creation_date              2014-09-24
  _audit_creation_method            'ToBaCCo'
  _symmetry_space_group_name_H-M    'P1'
  _symmetry_Int_Tables_number       1
  _symmetry_cell_setting            triclinic
  loop_
  _symmetry_equiv_pos_as_xyz
 x,y,z
_cell_length_a 40.9211
_cell_length_b 40.3298
_cell_length_c 21.7748
_cell_angle_alpha 91.089400
_cell_angle_beta 89.464900
_cell_angle_gamma 124.074700
loop_
  _atom_site_label
  _atom_site_type_symbol
  _atom_site_fract_x
  _atom_site_fract_y
  _atom_site_fract_z
C1 C 0.42874 0.87962 0.44857
 C2 C 0.43631 0.87716 0.50894
 C3 C 0.44915 0.91387 0.53620
 N4 N 0.44972 0.93862 0.49453
 C5 C 0.43772 0.91794 0.44068
 C6 C 0.46020 0.92418 0.59848
 C7 C 0.47546 0.96295 0.62313
 C8 C 0.47475 0.97103 0.68514
 C9 C 0.49427 1.01169 0.69160
 C10 C 0.50683 1.02757 0.63344
 N11 N 0.49478 0.99755 0.59165
 C12 C 0.53053 1.06914 0.62140
 C13 C 0.53268 1.08451 0.56246
 C14 C 0.55861 1.12410 0.54569
 C15 C 0.55089 1.12631 0.48533
 C16 C 0.52096 1.08792 0.46682
 N17 N 0.50965 1.06247 0.51412
 C18 C 0.50382 1.07747 0.40763
 C19 C 0.47736 1.03760 0.38633
 C20 C 0.45615 1.02698 0.33195
 C21 C 0.43628 0.98609 0.32547
 C22 C 0.44574 0.97269 0.37617
 N23 N 0.47100 1.00436 0.41280
 C24 C 0.43310 0.93245 0.38505
 H25 H 0.41798 0.85586 0.41444
 H26 H 0.43285 0.85133 0.53017
 H27 H 0.48640 1.00388 0.44990
 H28 H 0.46152 0.94971 0.72197
 H29 H 0.49892 1.02782 0.73446
 H30 H 0.58112 1.14881 0.57361
 H31 H 0.56598 1.15307 0.45798
 H32 H 0.41748 0.96838 0.28717
 H33 H 0.50363 1.00079 0.54602
 H34 H 0.45554 1.04672 0.29969
 C35 C -0.11603 0.43909 0.54728
 C36 C -0.11838 0.44705 0.48720
 C37 C -0.07995 0.47264 0.46656
 N38 N -0.05435 0.48162 0.51307
 C39 C -0.07629 0.46120 0.56259
 C40 C -0.06906 0.48931 0.40700
 C41 C -0.02989 0.50905 0.38388
 C42 C -0.01750 0.52731 0.32698
 C43 C 0.01985 0.53636 0.31718
 C44 C 0.02959 0.52364 0.36819
 N45 N -0.00075 0.50714 0.40854
 C46 C 0.06404 0.52375 0.37345
 C47 C 0.07749 0.51831 0.42937
 C48 C 0.11064 0.51734 0.43588
 C49 C 0.11434 0.51340 0.49745
 C50 C 0.08314 0.51176 0.52620
 N51 N 0.06105 0.51535 0.48473
 C52 C 0.07662 0.50933 0.58997
 C53 C 0.04190 0.50265 0.61683
 C54 C 0.03791 0.50851 0.67862
 C55 C -0.00074 0.49557 0.68745
 C56 C -0.01956 0.48157 0.63096
 N57 N 0.00677 0.48636 0.58796
 C58 C -0.06065 0.46272 0.62137
 H59 H -0.14098 0.41900 0.57596
 H60 H -0.14550 0.43497 0.46186
 H61 H -0.00011 0.47435 0.54360
 H62 H -0.03417 0.53181 0.29397
 H63 H 0.03729 0.54958 0.27617
 H64 H 0.13042 0.51978 0.40017
 H65 H 0.13736 0.51202 0.51863
 H66 H -0.01368 0.49596 0.73082
 H67 H -0.00361 0.49026 0.44604
 H68 H 0.06039 0.52046 0.71391
 C69 C 0.47296 0.57911 0.57041
 C70 C 0.46708 0.58106 0.50923
 C71 C 0.46977 0.55191 0.47976
 N72 N 0.47582 0.53132 0.52143
 C73 C 0.47783 0.54795 0.57703
 C74 C 0.46599 0.54447 0.41548
 C75 C 0.47470 0.51880 0.38570
 C76 C 0.46726 0.50714 0.32418
 C77 C 0.48557 0.48790 0.31093
 C78 C 0.50395 0.48854 0.36443
 N79 N 0.49688 0.50701 0.40985
 C80 C 0.53044 0.47675 0.36815
 C81 C 0.54380 0.47146 0.42427
 C82 C 0.57374 0.46533 0.42971
 C83 C 0.57701 0.46065 0.49098
 C84 C 0.54882 0.46388 0.52099
 N85 N 0.52852 0.47050 0.48009
 C86 C 0.54160 0.45977 0.58503
 C87 C 0.52070 0.47405 0.61525
 C88 C 0.50408 0.46261 0.67331
 C89 C 0.48818 0.48409 0.68713
 C90 C 0.49494 0.50780 0.63695
 N91 N 0.51457 0.50136 0.59304
 C92 C 0.48353 0.53509 0.63380
 H93 H 0.47394 0.59888 0.60573
 H94 H 0.46189 0.60200 0.48902
 H95 H 0.52646 0.51764 0.55302
 H96 H 0.45181 0.51320 0.29110
 H97 H 0.48663 0.47627 0.26629
 H98 H 0.59163 0.46465 0.39344
 H99 H 0.59814 0.45596 0.51123
 H100 H 0.47278 0.48201 0.72908
 H101 H 0.51151 0.51652 0.45170
 H102 H 0.50311 0.44072 0.70267
 O103 O 0.40898 0.66470 -0.02195
 O104 O 0.40024 0.71940 -0.06388
 C105 C 0.38051 0.73046 -0.09014
 O106 O 0.34537 0.71814 -0.07448
 O107 O 0.28943 0.64312 -0.09644
 C108 C 0.27535 0.60612 -0.10060
 O109 O 0.28176 0.58798 -0.06030
 O110 O 0.35420 0.60765 -0.05348
 C111 C 0.39129 0.63233 -0.05383
 O112 O 0.38936 0.67771 0.09054
 O113 O 0.38435 0.73476 0.04967
 C114 C 0.35370 0.73365 0.06539
 O115 O 0.31991 0.70818 0.04337
 O116 O 0.26266 0.63431 0.02056
 C117 C 0.25785 0.60770 0.05748
 O118 O 0.28163 0.59710 0.06172
 O119 O 0.35290 0.61223 0.07060
 C120 C 0.37712 0.64229 0.10434
 Cr121 Cr 0.39364 0.69766 0.01296
 Cr122 Cr 0.30562 0.67533 -0.02594
 Cr123 Cr 0.31846 0.60336 0.00446
 O124 O 0.33917 0.65887 -0.00275
 O125 O 0.61567 0.33376 -0.08577
 O126 O 0.60849 0.27167 -0.03865
 C127 C 0.63392 0.26404 -0.05313
 O128 O 0.66891 0.28385 -0.03251
 O129 O 0.73617 0.35261 -0.01767
 C130 C 0.74507 0.37640 -0.06191
 O131 O 0.72812 0.39431 -0.07040
 O132 O 0.66604 0.39760 -0.07903
 C133 C 0.63625 0.36868 -0.10695
 O134 O 0.60837 0.35931 0.02698
 O135 O 0.60250 0.29768 0.07446
 C136 C 0.61721 0.28158 0.10180
 O137 O 0.64901 0.28578 0.08444
 O138 O 0.71464 0.35695 0.09782
 C139 C 0.73551 0.39484 0.09576
 O140 O 0.73460 0.41389 0.05055
 O141 O 0.67028 0.41261 0.04163
 C142 C 0.63331 0.39417 0.04917
 Cr143 Cr 0.61089 0.31676 -0.00533
 Cr144 Cr 0.69123 0.32083 0.03203
 Cr145 Cr 0.69859 0.40242 -0.01363
 O146 O 0.66669 0.34661 0.00451
 C147 C 0.41897 0.83729 -0.29800
 C148 C 0.45334 0.84605 -0.27131
 C149 C 0.49036 0.87872 -0.28749
 C150 C 0.49214 0.90395 -0.33247
 C151 C 0.45732 0.89561 -0.36157
 C152 C 0.42014 0.86125 -0.34483
 O153 O 0.38681 0.80675 -0.27174
 C154 C 0.40135 0.79605 -0.22774
 C155 C 0.44191 0.81905 -0.22624
 C156 C 0.46362 0.81422 -0.18323
 C157 C 0.44275 0.78440 -0.13969
 C158 C 0.40080 0.76041 -0.13902
 C159 C 0.37976 0.76637 -0.18395
 H160 H 0.51684 0.88537 -0.26469
 H161 H 0.52064 0.93036 -0.34437
 H162 H 0.39302 0.85500 -0.36466
 H163 H 0.49555 0.83302 -0.18283
 H164 H 0.45948 0.78068 -0.10552
 H165 H 0.34783 0.74874 -0.18451
 C166 C 0.16435 0.55681 -0.30380
 C167 C 0.16314 0.52361 -0.28562
 C168 C 0.13513 0.48520 -0.30778
 C169 C 0.10716 0.48088 -0.34998
 C170 C 0.10788 0.51470 -0.36887
 C171 C 0.13709 0.55321 -0.34600
 O172 O 0.19166 0.59018 -0.27467
 C173 C 0.20802 0.57785 -0.23719
 C174 C 0.19178 0.53743 -0.24209
 C175 C 0.20319 0.51806 -0.20455
 C176 C 0.23199 0.54118 -0.15949
 C177 C 0.24862 0.58285 -0.15269
 C178 C 0.23678 0.60137 -0.19316
 H179 H 0.13432 0.45943 -0.29218
 H180 H 0.08455 0.45129 -0.36721
 H181 H 0.13762 0.57928 -0.35913
 H182 H 0.18968 0.48613 -0.20873
 H183 H 0.24047 0.52637 -0.12890
 H184 H 0.24825 0.63289 -0.18887
 C185 C 0.43899 0.56632 -0.24829
 C186 C 0.46866 0.58415 -0.20513
 C187 C 0.50275 0.58452 -0.21086
 C188 C 0.50674 0.56657 -0.26379
 C189 C 0.47733 0.54964 -0.31057
 C190 C 0.44256 0.54889 -0.30150
 O191 O 0.40883 0.56879 -0.23416
 C192 C 0.41979 0.58892 -0.18117
 C193 C 0.45632 0.59942 -0.16151
 C194 C 0.47388 0.62192 -0.10802
 C195 C 0.45273 0.63367 -0.07325
 C196 C 0.41457 0.62218 -0.09197
 C197 C 0.39805 0.59955 -0.14685
 H198 H 0.52563 0.59848 -0.17615
 H199 H 0.53356 0.56751 -0.26970
 H200 H 0.41901 0.53531 -0.33520
 H201 H 0.50283 0.63021 -0.09368
 H202 H 0.46562 0.65090 -0.03121
 H203 H 0.36915 0.59069 -0.16263
 C204 C 0.56788 0.15033 -0.26007
 C205 C 0.59149 0.14309 -0.22645
 C206 C 0.59700 0.11297 -0.24167
 C207 C 0.57693 0.08889 -0.29326
 C208 C 0.55237 0.09563 -0.32923
 C209 C 0.54831 0.12733 -0.31252
 O210 O 0.56569 0.17961 -0.23632
 C211 C 0.58855 0.19116 -0.18683
 C212 C 0.60522 0.16990 -0.17904
 C213 C 0.63059 0.17731 -0.13081
 C214 C 0.63952 0.20825 -0.08917
 C215 C 0.62251 0.23046 -0.09581
 C216 C 0.59636 0.22153 -0.14515
 H217 H 0.61558 0.10776 -0.21424
 H218 H 0.58053 0.06494 -0.30546
 H219 H 0.52909 0.13269 -0.33785
 H220 H 0.64341 0.16022 -0.12583
 H221 H 0.65962 0.21488 -0.05164
 H222 H 0.58343 0.23840 -0.15178
 C223 C 0.86015 0.43375 -0.26263
 C224 C 0.86503 0.40938 -0.22620
 C225 C 0.89353 0.40153 -0.23748
 C226 C 0.91806 0.41951 -0.28853
 C227 C 0.91375 0.44477 -0.32761
 C228 C 0.88415 0.45191 -0.31386
 O229 O 0.83154 0.43760 -0.24321
 C230 C 0.81807 0.41506 -0.19353
 C231 C 0.83757 0.39713 -0.18127
 C232 C 0.82841 0.37232 -0.13153
 C233 C 0.79783 0.36567 -0.09270
 C234 C 0.77713 0.38385 -0.10397
 C235 C 0.78756 0.40895 -0.15541
 H236 H 0.89678 0.38221 -0.20805
 H237 H 0.94003 0.41313 -0.29836
 H238 H 0.88059 0.47182 -0.34124
 H239 H 0.84423 0.35856 -0.12288
 H240 H 0.79044 0.34638 -0.05375
 H241 H 0.77247 0.42329 -0.16552
 C242 C 0.58723 0.43500 -0.29220
 C243 C 0.57887 0.39882 -0.31411
 C244 C 0.55877 0.38148 -0.36887
 C245 C 0.54685 0.40229 -0.40252
 C246 C 0.55457 0.43959 -0.38074
 C247 C 0.57518 0.45597 -0.32442
 O248 O 0.60611 0.44593 -0.23873
 C249 C 0.60950 0.41586 -0.22646
 C250 C 0.59311 0.38615 -0.27098
 C251 C 0.59139 0.35088 -0.26573
 C252 C 0.60668 0.34579 -0.21196
 C253 C 0.62384 0.37606 -0.16549
 C254 C 0.62578 0.41186 -0.17338
 H255 H 0.55226 0.35282 -0.38495
 H256 H 0.53053 0.38874 -0.44475
 H257 H 0.58214 0.48450 -0.30663
 H258 H 0.57784 0.32768 -0.30099
 H259 H 0.60478 0.31815 -0.20612
 H260 H 0.63779 0.43498 -0.13793
 C261 C 0.84613 0.44280 0.29952
 C262 C 0.84735 0.47604 0.28181
 C263 C 0.87449 0.51416 0.30574
 C264 C 0.90170 0.51821 0.34921
 C265 C 0.90136 0.48441 0.36760
 C266 C 0.87281 0.44611 0.34262
 O267 O 0.81937 0.40967 0.26921
 C268 C 0.80341 0.42225 0.23138
 C269 C 0.81948 0.46262 0.23712
 C270 C 0.80856 0.48235 0.19949
 C271 C 0.78019 0.45961 0.15377
 C272 C 0.76330 0.41791 0.14671
 C273 C 0.77486 0.39902 0.18684
 H274 H 0.87518 0.53996 0.29065
 H275 H 0.92351 0.54768 0.36785
 H276 H 0.87246 0.41995 0.35461
 H277 H 0.82196 0.51424 0.20432
 H278 H 0.77175 0.47459 0.12348
 H279 H 0.76316 0.36746 0.18208
 C280 C 0.55479 0.15635 0.28624
 C281 C 0.53438 0.17418 0.29108
 C282 C 0.50343 0.16147 0.33224
 C283 C 0.49331 0.12925 0.37016
 C284 C 0.51394 0.11048 0.36578
 C285 C 0.54503 0.12412 0.32316
 O286 O 0.58308 0.17286 0.24418
 C287 C 0.58046 0.20171 0.22187
 C288 C 0.55111 0.20376 0.24892
 C289 C 0.54277 0.23127 0.23152
 C290 C 0.56526 0.25738 0.18380
 C291 C 0.59560 0.25574 0.15481
 C292 C 0.60346 0.22765 0.17486
 H293 H 0.48778 0.17595 0.33524
 H294 H 0.46961 0.11891 0.40305
 H295 H 0.56125 0.11026 0.31946
 H296 H 0.51945 0.23226 0.25332
 H297 H 0.55879 0.27864 0.16916
 H298 H 0.62601 0.22521 0.15335
 C299 C 0.55701 0.43341 0.23694
 C300 C 0.58352 0.46780 0.20585
 C301 C 0.59281 0.50538 0.22409
 C302 C 0.57422 0.50766 0.27684
 C303 C 0.54732 0.47277 0.31019
 C304 C 0.53829 0.43504 0.28971
 O305 O 0.55373 0.40105 0.21340
 C306 C 0.57887 0.41536 0.16668
 C307 C 0.59794 0.45607 0.16031
 C308 C 0.62748 0.47776 0.11725
 C309 C 0.63820 0.45672 0.07970
 C310 C 0.61901 0.41476 0.08531
 C311 C 0.58844 0.39367 0.12878
 H312 H 0.61407 0.53203 0.19921
 H313 H 0.58134 0.53662 0.29271
 H314 H 0.51817 0.40813 0.31502
 H315 H 0.64250 0.50987 0.11385
 H316 H 0.66177 0.47313 0.04674
 H317 H 0.57407 0.36181 0.13500
 C318 C 0.13702 0.56651 0.24243
 C319 C 0.12988 0.53170 0.21625
 C320 C 0.10101 0.49392 0.23758
 C321 C 0.07873 0.49189 0.28837
 C322 C 0.08596 0.52727 0.31681
 C323 C 0.11530 0.56516 0.29338
 O324 O 0.16689 0.59928 0.21641
 C325 C 0.17898 0.58480 0.17315
 C326 C 0.15736 0.54360 0.17151
 C327 C 0.16645 0.52205 0.13288
 C328 C 0.19943 0.54383 0.09474
 C329 C 0.22206 0.58626 0.09521
 C330 C 0.21142 0.60712 0.13432
 H331 H 0.09626 0.46702 0.21651
 H332 H 0.05645 0.46289 0.30665
 H333 H 0.12158 0.59252 0.31514
 H334 H 0.14938 0.48967 0.13325
 H335 H 0.20761 0.52775 0.06507
 H336 H 0.22888 0.63953 0.13640
 C337 C 0.41214 0.86155 0.25225
 C338 C 0.37257 0.84491 0.24334
 C339 C 0.35147 0.85630 0.27776
 C340 C 0.37194 0.88584 0.32363
 C341 C 0.41264 0.90329 0.33371
 C342 C 0.43312 0.89123 0.29722
 O343 O 0.42625 0.84548 0.21610
 C344 C 0.39491 0.81807 0.18367
 C345 C 0.36138 0.81660 0.19858
 C346 C 0.32502 0.78948 0.17147
 C347 C 0.32303 0.76267 0.12727
 C348 C 0.35711 0.76325 0.11100
 C349 C 0.39366 0.79167 0.13970
 H350 H 0.32026 0.84249 0.27026
 H351 H 0.35616 0.89482 0.35191
 H352 H 0.46410 0.90383 0.30491
 H353 H 0.29899 0.78874 0.18426
 H354 H 0.29474 0.74124 0.10615
 H355 H 0.42017 0.79285 0.12888
 C356 C 0.41719 0.57459 0.30290
 C357 C 0.44563 0.61497 0.29983
 C358 C 0.48058 0.63392 0.33318
 C359 C 0.48663 0.61021 0.37118
 C360 C 0.45747 0.56864 0.37647
 C361 C 0.42197 0.55063 0.34233
 O362 O 0.38773 0.56221 0.26343
 C363 C 0.39781 0.59560 0.23510
 C364 C 0.43276 0.62869 0.25642
 C365 C 0.44956 0.66659 0.23274
 C366 C 0.42985 0.67064 0.18441
 C367 C 0.39430 0.63691 0.15975
 C368 C 0.37786 0.59879 0.18605
 H369 H 0.50290 0.66560 0.32872
 H370 H 0.51412 0.62403 0.39633
 H371 H 0.39961 0.51882 0.34479
 H372 H 0.47721 0.69208 0.25021
 H373 H 0.44321 0.70002 0.16487
 H374 H 0.35103 0.57245 0.16810
   
