data_POSCAR
  _audit_creation_date              2014-09-24
  _audit_creation_method            'ToBaCCo'
  _symmetry_space_group_name_H-M    'P1'
  _symmetry_Int_Tables_number       1
  _symmetry_cell_setting            triclinic
  loop_
  _symmetry_equiv_pos_as_xyz
 x,y,z
_cell_length_a 30.7587
_cell_length_b 30.7057
_cell_length_c 42.0803
_cell_angle_alpha 90.205300
_cell_angle_beta 89.462100
_cell_angle_gamma 89.919600
loop_
  _atom_site_label
  _atom_site_type_symbol
  _atom_site_fract_x
  _atom_site_fract_y
  _atom_site_fract_z
C1 C -0.00048 0.50143 0.98488
 C2 C 0.00033 0.50154 1.01727
 C3 C -0.00178 0.54271 1.03590
 C4 C 0.00335 0.46049 1.03572
 C5 C -0.00345 0.46027 0.96635
 C6 C 0.00159 0.54245 0.96630
 C7 C 0.03021 0.55166 1.05858
 C8 C 0.02886 0.59039 1.07609
 C9 C -0.00473 0.62051 1.07131
 C10 C -0.03717 0.61143 1.04906
 C11 C -0.03582 0.57264 1.03156
 C12 C 0.03715 0.43052 1.02997
 C13 C 0.03927 0.39180 1.04727
 C14 C 0.00792 0.38286 1.07069
 C15 C -0.02536 0.41294 1.07690
 C16 C -0.02755 0.45162 1.05960
 C17 C -0.03725 0.43042 0.97201
 C18 C -0.03942 0.39167 0.95453
 C19 C -0.00811 0.38261 0.93104
 C20 C 0.02519 0.41255 0.92495
 C21 C 0.02743 0.45125 0.94242
 C22 C -0.03036 0.55126 0.94358
 C23 C -0.02890 0.58976 0.92601
 C24 C 0.00469 0.61973 0.93079
 C25 C 0.03703 0.61089 0.95308
 C26 C 0.03563 0.57234 0.97065
 H27 H 0.05654 0.52887 1.06240
 H28 H 0.05416 0.59680 1.09327
 H29 H -0.06353 0.63423 1.04516
 H30 H -0.06127 0.56593 1.01463
 H31 H 0.06178 0.43714 1.01208
 H32 H 0.06530 0.36885 1.04239
 H33 H -0.05368 0.47442 1.06453
 H34 H -0.06187 0.43716 0.98993
 H35 H -0.06546 0.36883 0.95932
 H36 H 0.04951 0.40591 0.90677
 H37 H 0.05355 0.47396 0.93757
 H38 H -0.05669 0.52851 0.93973
 H39 H -0.05402 0.59622 0.90877
 H40 H 0.06330 0.63375 0.95684
 H41 H 0.06106 0.56576 0.98760
 H42 H -0.04971 0.40641 1.09503
 C43 C 0.50016 -0.00183 0.48347
 C44 C 0.49988 -0.00185 0.51587
 C45 C 0.45869 -0.00435 0.53452
 C46 C 0.54075 0.00074 0.53434
 C47 C 0.54135 -0.00432 0.46481
 C48 C 0.45928 0.00079 0.46501
 C49 C 0.44959 0.02715 0.55793
 C50 C 0.41083 0.02542 0.57545
 C51 C 0.38089 -0.00800 0.56993
 C52 C 0.39004 -0.03994 0.54698
 C53 C 0.42885 -0.03827 0.52945
 C54 C 0.57054 0.03478 0.52935
 C55 C 0.60899 0.03663 0.54676
 C56 C 0.61782 0.00475 0.56954
 C57 C 0.58793 -0.02881 0.57497
 C58 C 0.54952 -0.03072 0.55756
 C59 C 0.57128 -0.03825 0.46968
 C60 C 0.61010 -0.03990 0.45214
 C61 C 0.61916 -0.00794 0.42937
 C62 C 0.58914 0.02549 0.42405
 C63 C 0.55037 0.02721 0.44158
 C64 C 0.45059 -0.03065 0.44161
 C65 C 0.41217 -0.02872 0.42422
 C66 C 0.38219 0.00484 0.42985
 C67 C 0.39094 0.03669 0.45280
 C68 C 0.42940 0.03483 0.47021
 H69 H 0.47228 0.05339 0.56232
 H70 H 0.40413 0.05023 0.59321
 H71 H 0.36721 -0.06607 0.54263
 H72 H 0.43565 -0.06336 0.51194
 H73 H 0.56397 0.05985 0.51199
 H74 H 0.63178 0.06288 0.54249
 H75 H 0.52685 -0.05704 0.56190
 H76 H 0.56455 -0.06336 0.48704
 H77 H 0.63300 -0.06605 0.45633
 H78 H 0.59577 0.05032 0.40644
 H79 H 0.52761 0.05346 0.43734
 H80 H 0.47334 -0.05697 0.43712
 H81 H 0.40579 -0.05346 0.40645
 H82 H 0.36807 0.06294 0.45723
 H83 H 0.43590 0.05987 0.48771
 H84 H 0.59438 -0.05357 0.59260
 C85 C 0.09246 0.00485 0.26067
 H86 H 0.09423 0.00587 0.23499
 C87 C 0.13053 0.00647 0.27844
 H88 H 0.16179 0.00857 0.26647
 C89 C 0.04958 0.00129 0.30774
 H90 H 0.01799 -0.00009 0.31909
 C91 C 0.08687 0.00286 0.32641
 H92 H 0.08390 0.00222 0.35208
 N93 N 0.05306 0.00175 0.27546
 C94 C -0.03209 -0.05794 0.20532
 H95 H -0.05812 -0.03422 0.20480
 C96 C -0.03459 -0.09562 0.18673
 H97 H -0.06252 -0.10094 0.17172
 C98 C 0.03582 -0.08048 0.22592
 H99 H 0.06283 -0.07489 0.24161
 C100 C 0.03459 -0.11859 0.20773
 H101 H 0.06088 -0.14198 0.20923
 Zn102 Zn 0.00319 0.00030 0.24943
 N103 N 0.00295 -0.05086 0.22416
 C104 C 0.00477 0.04760 0.19126
 N105 N 0.00494 0.05061 0.22355
 C106 C 0.00787 0.08986 0.23849
 C107 C 0.00962 0.12826 0.22086
 C108 C 0.00648 0.08524 0.17272
 C109 C -0.05547 -0.03559 0.29333
 C110 C -0.09326 -0.03827 0.31189
 C111 C -0.11592 0.03130 0.29103
 C112 C -0.07772 0.03270 0.27286
 N113 N -0.04820 -0.00027 0.27457
 H114 H 0.00350 0.01613 0.17980
 H115 H 0.00865 0.09125 0.26417
 H116 H 0.01157 0.15940 0.23295
 H117 H 0.00605 0.08265 0.14705
 H118 H -0.03182 -0.06169 0.29381
 H119 H -0.09873 -0.06642 0.32684
 H120 H -0.13922 0.05770 0.28959
 H121 H -0.07196 0.05995 0.25725
 C122 C -0.00089 -0.12617 0.18793
 C123 C 0.12769 0.00531 0.31161
 C124 C -0.12370 -0.00446 0.31075
 C125 C 0.00875 0.12591 0.18768
 C126 C -0.00804 0.09002 0.76128
 H127 H -0.00878 0.09141 0.73561
 C128 C -0.00988 0.12842 0.77913
 H129 H -0.01186 0.15956 0.76720
 C130 C -0.00495 0.04775 0.80829
 H131 H -0.00365 0.01627 0.81959
 C132 C -0.00674 0.08538 0.82703
 H133 H -0.00635 0.08278 0.85269
 N134 N -0.00505 0.05076 0.77602
 C135 C 0.05562 -0.03559 0.70588
 H136 H 0.03205 -0.06169 0.70530
 C137 C 0.09342 -0.03830 0.68730
 H138 H 0.09897 -0.06648 0.67223
 C139 C 0.07765 0.03277 0.72661
 H140 H 0.07181 0.06005 0.74234
 C141 C 0.11586 0.03133 0.70843
 H142 H 0.13907 0.05774 0.70998
 Zn143 Zn -0.00315 0.00040 0.74992
 N144 N 0.04824 -0.00022 0.72477
 C145 C -0.04957 0.00121 0.69163
 N146 N -0.05303 0.00177 0.72391
 C147 C -0.09244 0.00491 0.73872
 C148 C -0.13052 0.00648 0.72096
 C149 C -0.08687 0.00274 0.67297
 C150 C 0.03236 -0.05762 0.79382
 C151 C 0.03490 -0.09510 0.81243
 C152 C -0.03430 -0.11814 0.79151
 C153 C -0.03558 -0.08023 0.77329
 N154 N -0.00273 -0.05066 0.77502
 H155 H -0.01798 -0.00020 0.68027
 H156 H -0.09420 0.00601 0.76441
 H157 H -0.16178 0.00863 0.73294
 H158 H -0.08390 0.00203 0.64730
 H159 H 0.05835 -0.03394 0.79432
 H160 H 0.06285 -0.10031 0.82744
 H161 H -0.06060 -0.14147 0.79007
 H162 H -0.06263 -0.07473 0.75765
 C163 C 0.12374 -0.00447 0.68857
 C164 C -0.00905 0.12606 0.81229
 C165 C 0.00120 -0.12557 0.81130
 C166 C -0.12769 0.00524 0.68779
 C167 C -0.00561 -0.34308 0.08751
 C168 C -0.00597 -0.30957 0.10256
 C169 C -0.00582 -0.27048 0.12031
 C170 C -0.00525 -0.23722 0.13559
 C171 C -0.00413 -0.19842 0.15364
 C172 C -0.00282 -0.16541 0.16919
 C173 C 0.00965 0.34281 0.08830
 C174 C 0.01056 0.30934 0.10316
 C175 C 0.01108 0.27026 0.12071
 C176 C 0.01109 0.23699 0.13583
 C177 C 0.01066 0.19818 0.15369
 C178 C 0.00995 0.16516 0.16910
 C179 C 0.34078 -0.00926 0.58779
 C180 C 0.30728 -0.00972 0.60288
 C181 C 0.26818 -0.00965 0.62070
 C182 C 0.23490 -0.00910 0.63604
 C183 C 0.19607 -0.00794 0.65417
 C184 C 0.16303 -0.00655 0.66978
 C185 C -0.34249 0.00629 0.58734
 C186 C -0.30933 0.00709 0.60238
 C187 C -0.27064 0.00751 0.62014
 C188 C -0.23771 0.00748 0.63543
 C189 C -0.19928 0.00704 0.65350
 C190 C -0.16658 0.00636 0.66905
 C191 C 0.00578 -0.34051 0.91280
 C192 C 0.00616 -0.30733 0.89759
 C193 C 0.00603 -0.26861 0.87961
 C194 C 0.00549 -0.23567 0.86414
 C195 C 0.00439 -0.19722 0.84588
 C196 C 0.00310 -0.16450 0.83017
 C197 C -0.00993 0.34260 0.91319
 C198 C -0.01090 0.30918 0.89809
 C199 C -0.01146 0.27018 0.88025
 C200 C -0.01149 0.23699 0.86488
 C201 C -0.01104 0.19825 0.84673
 C202 C -0.01031 0.16528 0.83110
 C203 C -0.34073 -0.00919 0.41150
 C204 C -0.30723 -0.00965 0.39641
 C205 C -0.26812 -0.00958 0.37859
 C206 C -0.23485 -0.00903 0.36325
 C207 C -0.19602 -0.00788 0.34513
 C208 C -0.16299 -0.00651 0.32953
 C209 C 0.34249 0.00640 0.41206
 C210 C 0.30933 0.00721 0.39703
 C211 C 0.27063 0.00763 0.37927
 C212 C 0.23770 0.00760 0.36398
 C213 C 0.19927 0.00715 0.34591
 C214 C 0.16658 0.00645 0.33035
   
