data_POSCAR
  _audit_creation_date              2014-09-24
  _audit_creation_method            'ToBaCCo'
  _symmetry_space_group_name_H-M    'P1'
  _symmetry_Int_Tables_number       1
  _symmetry_cell_setting            triclinic
  loop_
  _symmetry_equiv_pos_as_xyz
 x,y,z
_cell_length_a 24.7568
_cell_length_b 24.7459
_cell_length_c 24.1381
_cell_angle_alpha 91.444300
_cell_angle_beta 89.885500
_cell_angle_gamma 89.408300
loop_
  _atom_site_label
  _atom_site_type_symbol
  _atom_site_fract_x
  _atom_site_fract_y
  _atom_site_fract_z
N1 N 0.18462 0.19541 0.19666
 N2 N -0.18906 0.82253 0.17845
 N3 N -0.19669 0.19172 -0.18889
 N4 N 0.19036 0.80186 -0.18920
 N5 N 0.18328 1.18422 0.82017
 N6 N 0.82314 0.81914 0.81939
 N7 N 0.20154 0.80148 1.19108
 N8 N 0.82493 1.17169 1.17766
 O9 O 0.42406 1.10034 1.10694
 O10 O 0.36216 1.04891 1.05907
 C11 C 0.37497 1.08541 1.09618
 O12 O 0.55885 1.10891 0.89831
 O13 O 0.62340 1.05835 0.94207
 C14 C 0.60867 1.09571 0.90845
 O15 O 0.40824 1.11089 0.91860
 O16 O 0.35429 1.05278 0.96591
 C17 C 0.36126 1.09343 0.93371
 O18 O 0.57614 1.09859 1.09833
 O19 O 0.63193 1.05354 1.03629
 C20 C 0.62354 1.08690 1.07781
 Zr21 Zr 0.49846 1.07211 1.07263
 O22 O 0.50224 1.15739 1.08032
 O23 O 0.49989 1.06601 1.15996
 Zr24 Zr 0.48655 1.07920 0.93343
 O25 O 0.49030 1.16461 0.93759
 O26 O 0.47254 1.08133 0.84697
 O27 O 0.44422 1.08515 1.00818
 O28 O 0.53878 1.08653 0.99967
 O29 O 0.58135 0.90923 1.08244
 O30 O 0.63468 0.96339 1.02972
 C31 C 0.62806 0.92550 1.06514
 O32 O 0.41305 0.91312 0.90006
 O33 O 0.35667 0.95926 0.96071
 C34 C 0.36556 0.92476 0.92027
 O35 O 0.56243 0.92330 0.87980
 O36 O 0.62562 0.96717 0.93340
 C37 C 0.61176 0.93596 0.89188
 O38 O 0.43054 0.90220 1.09265
 O39 O 0.36540 0.95582 1.05358
 C40 C 0.38068 0.91691 1.08540
 Zr41 Zr 0.50241 0.93569 1.06148
 O42 O 0.51023 0.85055 1.05421
 O43 O 0.50462 0.93221 1.14901
 Zr44 Zr 0.49006 0.94273 0.92267
 O45 O 0.49954 0.85753 0.91885
 O46 O 0.47639 0.94298 0.83622
 Zr47 Zr 0.41424 1.00562 1.00467
 Zr48 Zr 0.57451 1.00920 0.99035
 O49 O 0.54342 0.93038 0.98685
 O50 O 0.44837 0.92751 0.99561
 O51 O 0.54944 1.00444 1.07358
 O52 O 0.44074 1.01051 0.92206
 O53 O 0.45456 1.00242 1.08127
 O54 O 0.53537 1.01262 0.91292
 H55 H 0.56178 1.11906 1.00016
 H56 H 0.41366 1.01168 0.89194
 H57 H 0.56882 0.89945 0.98165
 H58 H 0.43311 1.00056 1.11585
 H59 H 0.50474 1.06567 0.82799
 H60 H 0.49598 0.97422 0.82169
 H61 H 0.46793 0.84175 0.93739
 H62 H 0.47941 0.83724 1.03192
 H63 H 0.53640 0.95288 1.16188
 H64 H 0.53311 1.04586 1.16971
 H65 H 0.47091 1.17239 1.06030
 H66 H 0.46513 1.17725 0.96714
 O67 O -0.11078 0.43334 0.08842
 O68 O -0.05902 0.36955 0.04170
 C69 C -0.09893 0.38376 0.07420
 O70 O -0.09258 0.58353 -0.09704
 O71 O -0.03858 0.63882 -0.04366
 C72 C -0.07543 0.63081 -0.08083
 O73 O -0.10352 0.43199 -0.09924
 O74 O -0.05525 0.36930 -0.05067
 C75 C -0.09140 0.38262 -0.08676
 O76 O -0.09303 0.58390 0.10182
 O77 O -0.03967 0.63913 0.05051
 C78 C -0.07593 0.63128 0.08792
 Zr79 Zr -0.07033 0.50549 0.07030
 O80 O -0.15468 0.51683 0.07861
 O81 O -0.06502 0.49725 0.15728
 Zr82 Zr -0.06914 0.50565 -0.07030
 O83 O -0.15411 0.51589 -0.07263
 O84 O -0.06580 0.50102 -0.15796
 O85 O -0.08311 0.45857 -0.00164
 O86 O -0.07718 0.55263 0.00135
 O87 O 0.09624 0.56914 0.10429
 O88 O 0.05085 0.63164 0.05288
 C89 C 0.08502 0.61843 0.09095
 O90 O 0.09646 0.41928 -0.09424
 O91 O 0.03763 0.36316 -0.05065
 C92 C 0.07790 0.37169 -0.08378
 O93 O 0.09891 0.57156 -0.09637
 O94 O 0.05016 0.63300 -0.04343
 C95 C 0.08605 0.62074 -0.08069
 O96 O 0.09269 0.41782 0.09283
 O97 O 0.03682 0.36196 0.04230
 C98 C 0.07592 0.37032 0.07706
 Zr99 Zr 0.06527 0.49575 0.07112
 O100 O 0.15067 0.49610 0.07500
 O101 O 0.06077 0.48896 0.15828
 Zr102 Zr 0.06705 0.49694 -0.06924
 O103 O 0.15240 0.49757 -0.07309
 O104 O 0.06362 0.49110 -0.15685
 Zr105 Zr -0.00645 0.42048 -0.00211
 Zr106 Zr 0.00268 0.58099 0.00283
 O107 O 0.07877 0.54228 0.00254
 O108 O 0.07406 0.44776 -0.00056
 O109 O 0.00016 0.54904 0.08296
 O110 O -0.00343 0.45428 -0.08127
 O111 O -0.00557 0.45302 0.07925
 O112 O 0.00171 0.54959 -0.07913
 H113 H -0.10790 0.57862 0.00206
 H114 H -0.00408 0.42983 -0.11440
 H115 H 0.11203 0.56421 0.00350
 H116 H -0.00771 0.42747 0.11012
 H117 H -0.04528 0.53257 -0.17051
 H118 H 0.04912 0.52583 -0.17016
 H119 H 0.16574 0.47351 -0.04395
 H120 H 0.16422 0.46788 0.04863
 H121 H 0.04345 0.52241 0.17339
 H122 H -0.05126 0.53166 0.17320
 H123 H -0.17013 0.51089 0.04129
 H124 H -0.17008 0.48738 -0.04991
 O125 O 1.10050 -0.10579 0.42806
 O126 O 1.05355 -0.05564 0.36513
 C127 C 1.08875 -0.09218 0.37772
 O128 O 0.89670 -0.08971 0.57406
 O129 O 0.94671 -0.04067 0.63702
 C130 C 0.90852 -0.07414 0.62427
 O131 O 0.90884 -0.10051 0.42013
 O132 O 0.96337 -0.05419 0.36128
 C133 C 0.92620 -0.08937 0.37117
 O134 O 1.09223 -0.10012 0.58432
 O135 O 1.04024 -0.04597 0.64249
 C136 C 1.07594 -0.08394 0.63328
 Zr137 Zr 1.06849 -0.07480 0.50473
 O138 O 1.06257 -0.15989 0.50922
 O139 O 1.15387 -0.08058 0.50520
 Zr140 Zr 0.93217 -0.06802 0.49782
 O141 O 0.92822 -0.15302 0.50441
 O142 O 0.84740 -0.06297 0.48706
 O143 O 1.00257 -0.08375 0.45192
 O144 O 0.99733 -0.07971 0.54935
 O145 O 1.10375 0.08399 0.58505
 O146 O 1.04224 0.04454 0.64210
 C147 C 1.08409 0.07415 0.63390
 O148 O 0.91844 0.09770 0.41651
 O149 O 0.96693 0.03953 0.35948
 C150 C 0.93393 0.07975 0.36786
 O151 O 0.90272 0.09798 0.57103
 O152 O 0.94827 0.04813 0.63518
 C153 C 0.91240 0.08399 0.62141
 O154 O 1.10508 0.08754 0.42734
 O155 O 1.05612 0.03685 0.36453
 C156 C 1.09210 0.07268 0.37697
 Zr157 Zr 1.07384 0.06197 0.50474
 O158 O 1.07328 0.14746 0.51173
 O159 O 1.15922 0.06261 0.50295
 Zr160 Zr 0.93791 0.06867 0.49632
 O161 O 0.94308 0.15397 0.50235
 O162 O 0.85333 0.07405 0.48476
 Zr163 Zr 1.00744 -0.00605 0.41878
 Zr164 Zr 0.99847 -0.00051 0.58315
 O165 O 1.00350 0.07664 0.54888
 O166 O 1.00914 0.07402 0.45098
 O167 O 1.07903 -0.00558 0.55455
 O168 O 0.92766 -0.00095 0.44859
 O169 O 1.08361 -0.00819 0.45752
 O170 O 0.92174 0.00250 0.54560
 H171 H 0.99439 -0.11056 0.57452
 H172 H 0.89742 -0.00035 0.42178
 H173 H 1.00337 0.10866 0.57438
 H174 H 1.11695 -0.00991 0.43475
 H175 H 0.83242 -0.04095 0.51834
 H176 H 0.83634 0.05054 0.51220
 H177 H 0.96624 0.16575 0.47157
 H178 H 1.05966 0.16149 0.47631
 H179 H 1.17172 0.03222 0.52558
 H180 H 1.16692 -0.05827 0.53691
 H181 H 1.04764 -0.17351 0.47359
 H182 H 0.95423 -0.16908 0.47738
 C183 C 1.15941 0.17056 0.24313
 C184 C 1.18846 0.15214 0.28563
 C185 C 1.16321 0.12759 0.33432
 C186 C 1.11866 0.09773 0.32976
 H187 H 1.23179 0.15767 0.28609
 H188 H 1.18336 0.13203 0.37393
 H189 H 1.11568 0.17037 0.24533
 H190 H 1.10130 0.08981 0.28922
 C191 C 0.83789 -0.15107 0.22416
 C192 C 0.89191 -0.14888 0.22735
 C193 C 0.91982 -0.11989 0.27307
 C194 C 0.90010 -0.11824 0.32472
 H195 H 0.91635 -0.16599 0.19391
 H196 H 0.95850 -0.10186 0.26433
 H197 H 0.81338 -0.12878 0.25435
 H198 H 0.86371 -0.14024 0.33407
 C199 C 0.83173 0.16864 0.76416
 C200 C 0.84047 0.11526 0.75930
 C201 C 0.87467 0.09021 0.71553
 C202 C 0.87990 0.11087 0.66514
 H203 H 0.82559 0.08918 0.79117
 H204 H 0.89392 0.05202 0.72459
 H205 H 0.85147 0.19570 0.73614
 H206 H 0.85727 0.14677 0.65436
 C207 C 1.16642 -0.16690 0.76753
 C208 C 1.14260 -0.19082 0.72380
 C209 C 1.12079 -0.16081 0.67670
 C210 C 1.09864 -0.11123 0.68159
 H211 H 1.14260 -0.23453 0.72020
 H212 H 1.12035 -0.18210 0.63693
 H213 H 1.17131 -0.12341 0.76874
 H214 H 1.09452 -0.09150 0.72196
 C215 C 0.23208 1.17190 1.17054
 C216 C 0.23664 1.11831 1.16189
 C217 C 0.28131 1.09231 1.13021
 C218 C 0.33139 1.11220 1.12850
 H219 H 0.20398 1.09256 1.17454
 H220 H 0.27271 1.05407 1.10943
 H221 H 0.26187 1.19817 1.15296
 H222 H 0.34134 1.14819 1.15265
 C223 C 0.23543 0.82353 0.84139
 C224 C 0.27472 0.85015 0.81579
 C225 C 0.32155 0.87382 0.84467
 C226 C 0.31851 0.89771 0.89507
 H227 H 0.27415 0.85247 0.77106
 H228 H 0.35876 0.87564 0.82112
 H229 H 0.23840 0.81627 0.88538
 H230 H 0.28022 0.90012 0.91685
 C231 C 0.76525 0.85004 1.15511
 C232 C 0.72467 0.82318 1.13069
 C233 C 0.67598 0.85050 1.10938
 C234 C 0.67708 0.89932 1.08662
 H235 H 0.72507 0.77941 1.12985
 H236 H 0.63860 0.82815 1.10998
 H237 H 0.76210 0.89353 1.16097
 H238 H 0.71518 0.91977 1.08146
 C239 C 0.75465 1.16706 0.83033
 C240 C 0.74377 1.16478 0.88449
 C241 C 0.69911 1.13339 0.90702
 C242 C 0.65147 1.12654 0.88175
 H243 H 0.77200 1.18189 0.91414
 H244 H 0.70520 1.11754 0.94791
 H245 H 0.72981 1.14505 0.80073
 H246 H 0.64271 1.14642 0.84329
 C247 C 0.15561 0.23871 0.17097
 C248 C 0.18091 0.27961 0.14701
 C249 C 0.15197 0.32611 0.12354
 C250 C 0.10301 0.32268 0.10008
 H251 H 0.22448 0.28179 0.14851
 H252 H 0.17334 0.36409 0.12350
 H253 H 0.11199 0.24005 0.17480
 H254 H 0.08325 0.28397 0.09570
 C255 C -0.17579 0.23910 -0.16110
 C256 C -0.12274 0.24406 -0.15214
 C257 C -0.09884 0.28872 -0.11957
 C258 C -0.11951 0.33893 -0.11690
 H259 H -0.09561 0.21171 -0.16565
 H260 H -0.06054 0.28018 -0.09990
 H261 H -0.20395 0.26821 -0.14274
 H262 H -0.15551 0.34900 -0.14005
 C263 C 0.16250 0.75527 -0.16962
 C264 C 0.18908 0.71179 -0.15117
 C265 C 0.16114 0.66341 -0.13101
 C266 C 0.11315 0.66689 -0.10549
 H267 H 0.23279 0.71065 -0.15281
 H268 H 0.18250 0.62501 -0.13349
 H269 H 0.11892 0.75439 -0.17343
 H270 H 0.09423 0.70616 -0.09859
 C271 C -0.16879 0.77281 0.15364
 C272 C -0.15168 0.73173 0.18452
 C273 C -0.12988 0.68077 0.15980
 C274 C -0.09949 0.68044 0.11394
 H275 H -0.15562 0.73472 0.22918
 H276 H -0.13610 0.64368 0.18171
 H277 H -0.17029 0.76789 0.10893
 H278 H -0.08981 0.71843 0.09504
 C279 C 1.15704 0.16078 0.77563
 C280 C 1.18542 0.13856 0.72962
 C281 C 1.16075 0.11692 0.68188
 C282 C 1.10847 0.09622 0.68135
 H283 H 1.22884 0.14319 0.72795
 H284 H 1.18554 0.11175 0.64503
 H285 H 1.11425 0.16768 0.76993
 H286 H 1.08717 0.09261 0.72034
 C287 C 0.84322 -0.15626 0.77027
 C288 C 0.85316 -0.10326 0.76877
 C289 C 0.88110 -0.07862 0.72193
 C290 C 0.87706 -0.09717 0.66948
 H291 H 0.84572 -0.07797 0.80530
 H292 H 0.90557 -0.04364 0.73149
 H293 H 0.85630 -0.18261 0.73620
 H294 H 0.84998 -0.13000 0.65920
 C295 C 1.17357 -0.17831 0.23988
 C296 C 1.19862 -0.15308 0.28217
 C297 C 1.16908 -0.13374 0.33245
 C298 C 1.11721 -0.11795 0.33060
 H299 H 1.24200 -0.14818 0.28101
 H300 H 1.19171 -0.12834 0.37051
 H301 H 1.13136 -0.18826 0.24451
 H302 H 1.09621 -0.11768 0.29130
 C303 C 0.84358 0.14886 0.22828
 C304 C 0.87010 0.17827 0.26661
 C305 C 0.89045 0.15448 0.31808
 C306 C 0.91218 0.10479 0.31806
 H307 H 0.87514 0.22123 0.26121
 H308 H 0.89072 0.17956 0.35551
 H309 H 0.83355 0.10727 0.23650
 H310 H 0.91627 0.08198 0.27932
 C311 C 0.15964 0.22588 -0.14939
 C312 C 0.10355 0.23201 -0.14231
 C313 C 0.07945 0.27645 -0.11463
 C314 C 0.10321 0.32752 -0.11044
 H315 H 0.07738 0.19870 -0.15327
 H316 H 0.03819 0.27194 -0.10070
 H317 H 0.18442 0.25200 -0.12364
 H318 H 0.14042 0.33469 -0.13269
 C319 C -0.13984 0.20646 0.14744
 C320 C -0.15821 0.25156 0.12451
 C321 C -0.12079 0.29010 0.09942
 C322 C -0.13487 0.34213 0.09587
 H323 H -0.20081 0.26178 0.12768
 H324 H -0.08077 0.27654 0.08667
 H325 H -0.09668 0.19857 0.14835
 H326 H -0.17382 0.35551 0.11201
 C327 C -0.15099 0.76978 -0.16481
 C328 C -0.17775 0.73101 -0.13897
 C329 C -0.15123 0.68055 -0.12165
 C330 C -0.09991 0.67926 -0.10432
 H331 H -0.22080 0.73541 -0.13196
 H332 H -0.17602 0.64495 -0.11841
 H333 H -0.10925 0.76291 -0.17695
 H334 H -0.07675 0.71615 -0.10199
 C335 C 0.17878 0.75694 0.16050
 C336 C 0.12704 0.75843 0.14460
 C337 C 0.10055 0.71399 0.11412
 C338 C 0.11377 0.66194 0.12055
 H339 H 0.10336 0.79492 0.15219
 H340 H 0.06651 0.72479 0.08836
 H341 H 0.20486 0.72345 0.14778
 H342 H 0.14535 0.65074 0.14918
 C343 C 0.23256 1.16374 0.83582
 C344 C 0.27209 1.19383 0.86402
 C345 C 0.31683 1.16988 0.88915
 C346 C 0.31526 1.11873 0.91275
 H347 H 0.27165 1.23740 0.86121
 H348 H 0.35224 1.19461 0.89571
 H349 H 0.24262 1.12207 0.82460
 H350 H 0.27668 1.09896 0.91733
 C351 C 0.24799 0.82683 1.16768
 C352 C 0.24871 0.88032 1.16011
 C353 C 0.29020 0.90790 1.12707
 C354 C 0.33970 0.88757 1.11681
 H355 H 0.21473 0.90470 1.17469
 H356 H 0.27969 0.94763 1.11233
 H357 H 0.27853 0.80103 1.14834
 H358 H 0.35223 0.84987 1.13483
 C359 C 0.77453 1.15195 1.15585
 C360 C 0.76743 1.14124 1.10170
 C361 C 0.71942 1.11335 1.07892
 C362 C 0.67043 1.11452 1.10296
 H363 H 0.80016 1.14859 1.07314
 H364 H 0.72493 1.09215 1.03954
 H365 H 0.74412 1.13968 1.18515
 H366 H 0.66362 1.13817 1.14070
 C367 C 0.78466 0.84585 0.85595
 C368 C 0.74303 0.87416 0.83629
 C369 C 0.70318 0.90025 0.87380
 C370 C 0.65403 0.91301 0.85535
 H371 H 0.73729 0.87643 0.79189
 H372 H 0.71316 0.90679 0.91717
 H373 H 0.78813 0.84030 0.90023
 H374 H 0.64315 0.90268 0.81292
   
