data_POSCAR
  _audit_creation_date              2014-09-24
  _audit_creation_method            'ToBaCCo'
  _symmetry_space_group_name_H-M    'P1'
  _symmetry_Int_Tables_number       1
  _symmetry_cell_setting            triclinic
  loop_
  _symmetry_equiv_pos_as_xyz
 x,y,z
_cell_length_a 37.3030
_cell_length_b 37.2969
_cell_length_c 37.3578
_cell_angle_alpha 90.067700
_cell_angle_beta 90.003400
_cell_angle_gamma 90.029400
loop_
  _atom_site_label
  _atom_site_type_symbol
  _atom_site_fract_x
  _atom_site_fract_y
  _atom_site_fract_z
C1 C 0.18082 0.21390 0.23138
 N2 N 0.20339 0.18592 0.23686
 C3 C 0.23133 0.18035 0.21426
 N4 N 0.23668 0.20277 0.18618
 C5 C 0.21411 0.23075 0.18069
 N6 N 0.18618 0.23631 0.20329
 C7 C 0.68039 0.71461 0.73104
 N8 N 0.68594 0.73723 0.70316
 C9 C 0.71391 0.73171 0.68059
 N10 N 0.73632 0.70357 0.68590
 C11 C 0.73077 0.68094 0.71378
 N12 N 0.70280 0.68647 0.73635
 C13 C 0.31837 0.78689 0.73162
 N14 N 0.29589 0.81499 0.73693
 C15 C 0.26795 0.82044 0.71431
 N16 N 0.26251 0.79779 0.68638
 C17 C 0.28500 0.76969 0.68107
 N18 N 0.31293 0.76424 0.70369
 C19 C 0.82031 0.28563 0.23185
 N20 N 0.79763 0.31356 0.23723
 C21 C 0.76966 0.31889 0.21462
 N22 N 0.76438 0.29628 0.18662
 C23 C 0.78705 0.26836 0.18123
 N24 N 0.81502 0.26303 0.20384
 C25 C 0.81992 0.71444 0.26876
 N26 N 0.81457 0.73714 0.29667
 C27 C 0.78661 0.73180 0.31930
 N28 N 0.76401 0.70377 0.31401
 C29 C 0.76936 0.68107 0.28610
 N30 N 0.79731 0.68641 0.26348
 C31 C 0.31930 0.21371 -0.23224
 N32 N 0.29672 0.18569 -0.23774
 C33 C 0.26864 0.18026 -0.21528
 N34 N 0.26316 0.20285 -0.18730
 C35 C 0.28573 0.23086 -0.18179
 N36 N 0.31380 0.23629 -0.20426
 C37 C 0.68089 0.28607 -0.23066
 N38 N 0.70343 0.31410 -0.23616
 C39 C 0.73157 0.31955 -0.21378
 N40 N 0.73717 0.29695 -0.18589
 C41 C 0.71464 0.26891 -0.18039
 N42 N 0.68650 0.26348 -0.20278
 C43 C 0.18163 0.78609 0.26793
 N44 N 0.18684 0.76363 0.29599
 C45 C 0.21470 0.76912 0.31871
 N46 N 0.23734 0.79710 0.31336
 C47 C 0.23214 0.81957 0.28529
 N48 N 0.20427 0.81406 0.26258
 C49 C 0.46375 0.43047 0.48175
 N50 N 0.48637 0.43585 0.45382
 C51 C 0.48102 0.46385 0.43128
 N52 N 0.45305 0.48646 0.43667
 C53 C 0.43043 0.48109 0.46459
 N54 N 0.43578 0.45309 0.48713
 C55 C -0.03569 -0.06879 0.98074
 N56 N -0.01308 -0.06327 0.95283
 C57 C -0.01847 -0.03520 0.93039
 N58 N -0.04649 -0.01264 0.93586
 C59 C -0.06910 -0.01816 0.96378
 N60 N -0.06370 -0.04624 0.98621
 C61 C 1.03535 0.56971 0.98140
 N62 N 1.01273 0.56425 0.95346
 C63 C 1.01807 0.53618 0.93094
 N64 N 1.04603 0.51357 0.93636
 C65 C 1.06864 0.51901 0.96429
 N66 N 1.06331 0.54708 0.98681
 C67 C 0.53636 0.06845 0.48187
 N68 N 0.51381 0.06293 0.45390
 C69 C 0.51937 0.03500 0.43126
 N70 N 0.54751 0.01258 0.43660
 C71 C 0.57008 0.01809 0.46457
 N72 N 0.56450 0.04603 0.48720
 C73 C -0.03656 0.06953 0.51878
 N74 N -0.06461 0.04696 0.51344
 C75 C -0.06998 0.01894 0.53596
 N76 N -0.04729 0.01349 0.56382
 C77 C -0.01923 0.03606 0.56916
 N78 N -0.01387 0.06407 0.54664
 C79 C 0.46412 0.56942 0.01899
 N80 N 0.43615 0.54680 0.01350
 C81 C 0.43076 0.51873 0.03595
 N82 N 0.45334 0.51329 0.06389
 C83 C 0.48132 0.53590 0.06939
 N84 N 0.48671 0.56397 0.04694
 C85 C 0.53611 -0.06990 0.01841
 N86 N 0.56418 -0.04737 0.01303
 C87 C 0.56976 -0.01946 0.03570
 N88 N 0.54727 -0.01407 0.06374
 C89 C 0.51920 -0.03659 0.06912
 N90 N 0.51363 -0.06450 0.04645
 C91 C 1.03497 0.43022 0.51799
 N92 N 1.01246 0.43547 0.54605
 C93 C 1.01788 0.46341 0.56872
 N94 N 1.04580 0.48610 0.56333
 C95 C 1.06831 0.48086 0.53527
 N96 N 1.06289 0.45292 0.51260
 C97 C 0.43013 0.01610 0.20216
 H98 H 0.43155 0.04037 0.21799
 C99 C 0.45355 0.01116 0.17341
 H100 H 0.47302 0.03171 0.16694
 C101 C 0.40338 -0.04064 0.19149
 H102 H 0.38421 -0.06100 0.19893
 C103 C 0.42631 -0.04665 0.16254
 H104 H 0.42448 -0.07148 0.14756
 N105 N 0.40541 -0.00945 0.21037
 C106 C 0.32051 0.04745 0.26722
 H107 H 0.31908 0.03167 0.29147
 C108 C 0.29712 0.07624 0.26224
 H109 H 0.27765 0.08280 0.28274
 C110 C 0.34724 0.05790 0.21056
 H111 H 0.36637 0.05035 0.19023
 C112 C 0.32433 0.08689 0.20451
 H113 H 0.32615 0.10178 0.17970
 Zn114 Zn 0.37526 -0.00089 0.25025
 N115 N 0.34520 0.03910 0.24172
 C116 C 0.40341 0.03884 0.30903
 N117 N 0.40537 0.00764 0.29019
 C118 C 0.43001 -0.01795 0.29844
 C119 C 0.45345 -0.01300 0.32719
 C120 C 0.42636 0.04487 0.33797
 C121 C 0.32041 -0.04909 0.23315
 C122 C 0.29694 -0.07785 0.23803
 C123 C 0.32403 -0.08865 0.29579
 C124 C 0.34702 -0.05969 0.28983
 N125 N 0.34508 -0.04083 0.25870
 H126 H 0.38431 0.05924 0.30155
 H127 H 0.43138 -0.04223 0.28264
 H128 H 0.47288 -0.03357 0.33368
 H129 H 0.42461 0.06972 0.35291
 H130 H 0.31905 -0.03327 0.20893
 H131 H 0.27749 -0.08436 0.21748
 H132 H 0.32578 -0.10360 0.32057
 H133 H 0.36615 -0.05220 0.31020
 C134 C 0.29912 0.09617 0.23063
 C135 C 0.45154 -0.02047 0.15338
 C136 C 0.29885 -0.09785 0.26961
 C137 C 0.45153 0.01867 0.34716
 C138 C 0.07070 -0.01661 0.70154
 H139 H 0.06935 -0.04084 0.71737
 C140 C 0.04713 -0.01172 0.67291
 H141 H 0.02763 -0.03228 0.66652
 C142 C 0.09737 0.04012 0.69079
 H143 H 0.11655 0.06052 0.69817
 C144 C 0.07429 0.04609 0.66195
 H145 H 0.07603 0.07089 0.64699
 N146 N 0.09543 0.00898 0.70967
 C147 C 0.18045 -0.04769 0.76645
 H148 H 0.18193 -0.03179 0.79065
 C149 C 0.20380 -0.07653 0.76152
 H150 H 0.22328 -0.08302 0.78202
 C151 C 0.15362 -0.05841 0.70986
 H152 H 0.13445 -0.05096 0.68954
 C153 C 0.17648 -0.08747 0.70387
 H154 H 0.17459 -0.10250 0.67911
 Zn155 Zn 0.12566 0.00055 0.74949
 N156 N 0.15572 -0.03945 0.74096
 C157 C 0.09759 -0.03907 0.80828
 N158 N 0.09562 -0.00789 0.78946
 C159 C 0.07096 0.01769 0.79774
 C160 C 0.04753 0.01277 0.82648
 C161 C 0.07465 -0.04507 0.83721
 C162 C 0.18045 0.04878 0.73231
 C163 C 0.20391 0.07757 0.73720
 C164 C 0.17690 0.08842 0.79501
 C165 C 0.15392 0.05943 0.78905
 N166 N 0.15583 0.04053 0.75790
 H167 H 0.11670 -0.05947 0.80078
 H168 H 0.06957 0.04195 0.78195
 H169 H 0.02808 0.03333 0.83299
 H170 H 0.07642 -0.06990 0.85212
 H171 H 0.18178 0.03293 0.70808
 H172 H 0.22332 0.08406 0.71663
 H173 H 0.17518 0.10339 0.81981
 H174 H 0.13484 0.05195 0.80944
 C175 C 0.20171 -0.09664 0.72998
 C176 C 0.04902 0.01989 0.65291
 C177 C 0.20204 0.09760 0.76880
 C178 C 0.04946 -0.01887 0.84642
 C179 C 0.57046 0.48280 0.20209
 H180 H 0.56904 0.45848 0.21777
 C181 C 0.54708 0.48782 0.17332
 H182 H 0.52764 0.46726 0.16669
 C183 C 0.59713 0.53962 0.19182
 H184 H 0.61623 0.56000 0.19943
 C185 C 0.57424 0.54571 0.16286
 H186 H 0.57604 0.57060 0.14805
 N187 N 0.59511 0.50836 0.21051
 C188 C 0.67999 0.45161 0.26739
 H189 H 0.68135 0.46743 0.29165
 C190 C 0.70347 0.42288 0.26243
 H191 H 0.72292 0.41640 0.28296
 C192 C 0.65338 0.44099 0.21068
 H193 H 0.63425 0.44846 0.19033
 C194 C 0.67638 0.41206 0.20465
 H195 H 0.67464 0.39712 0.17982
 Zn196 Zn 0.62518 0.49978 0.25042
 N197 N 0.65532 0.45985 0.24186
 C198 C 0.59703 0.45996 0.30903
 N199 N 0.59504 0.49118 0.29029
 C200 C 0.57037 0.51673 0.29862
 C201 C 0.54694 0.51174 0.32735
 C202 C 0.57409 0.45390 0.33796
 C203 C 0.68002 0.54798 0.23354
 C204 C 0.70345 0.57677 0.23850
 C205 C 0.67626 0.58761 0.29622
 C206 C 0.65330 0.55862 0.29019
 N207 N 0.65531 0.53973 0.25904
 H208 H 0.61615 0.43960 0.30149
 H209 H 0.56897 0.54103 0.28289
 H210 H 0.52749 0.53228 0.33391
 H211 H 0.57588 0.42903 0.35282
 H212 H 0.68142 0.53215 0.20930
 H213 H 0.72292 0.58327 0.21799
 H214 H 0.67445 0.60259 0.32102
 H215 H 0.63414 0.55114 0.31051
 C216 C 0.70157 0.40290 0.23080
 C217 C 0.54907 0.51953 0.15350
 C218 C 0.70147 0.59680 0.27010
 C219 C 0.54890 0.48006 0.34723
 C220 C 0.92896 0.51612 0.70178
 H221 H 0.93037 0.54045 0.71751
 C222 C 0.95232 0.51110 0.67300
 H223 H 0.97175 0.53167 0.66641
 C224 C 0.90227 0.45931 0.69137
 H225 H 0.88314 0.43894 0.69892
 C226 C 0.92516 0.45322 0.66239
 H227 H 0.92333 0.42834 0.64751
 N228 N 0.90428 0.49057 0.71013
 C229 C 0.81935 0.54767 0.76669
 H230 H 0.81790 0.53199 0.79099
 C231 C 0.79603 0.57651 0.76163
 H232 H 0.77660 0.58320 0.78212
 C233 C 0.84609 0.55789 0.70999
 H234 H 0.86521 0.55025 0.68969
 C235 C 0.82325 0.58692 0.70386
 H236 H 0.82512 0.60175 0.67901
 Zn237 Zn 0.87414 0.49931 0.74997
 N238 N 0.84403 0.53921 0.74122
 C239 C 0.90220 0.53947 0.80850
 N240 N 0.90423 0.50815 0.78985
 C241 C 0.92891 0.48266 0.79830
 C242 C 0.95229 0.48782 0.82705
 C243 C 0.92509 0.54571 0.83745
 C244 C 0.81938 0.45085 0.73320
 C245 C 0.79600 0.42205 0.73828
 C246 C 0.82313 0.41173 0.79611
 C247 C 0.84603 0.44072 0.78995
 N248 N 0.84404 0.45936 0.75870
 H249 H 0.88307 0.55979 0.80088
 H250 H 0.93034 0.45828 0.78265
 H251 H 0.97174 0.46732 0.83371
 H252 H 0.92327 0.57065 0.85223
 H253 H 0.81798 0.46650 0.70887
 H254 H 0.77658 0.41534 0.71778
 H255 H 0.82493 0.39695 0.82099
 H256 H 0.86514 0.44840 0.81027
 C257 C 0.79809 0.59636 0.72997
 C258 C 0.95032 0.47940 0.65309
 C259 C 0.79798 0.40227 0.76999
 C260 C 0.95028 0.51960 0.84684
 C261 C 0.20143 0.42936 0.01679
 H262 H 0.21725 0.43068 0.04103
 C263 C 0.17270 0.45285 0.01194
 H264 H 0.16623 0.47227 0.03253
 C265 C 0.19081 0.40283 -0.03997
 H266 H 0.19827 0.38374 -0.06039
 C267 C 0.16187 0.42584 -0.04591
 H268 H 0.14692 0.42413 -0.07072
 N269 N 0.20967 0.40473 -0.00882
 C270 C 0.26661 0.31966 0.04758
 H271 H 0.29087 0.31827 0.03177
 C272 C 0.26170 0.29624 0.07632
 H273 H 0.28227 0.27681 0.08279
 C274 C 0.20988 0.34634 0.05824
 H275 H 0.18951 0.36548 0.05081
 C276 C 0.20390 0.32341 0.08718
 H277 H 0.17909 0.32522 0.10215
 Zn278 Zn 0.24960 0.37457 -0.00041
 N279 N 0.24105 0.34435 0.03938
 C280 C 0.30839 0.40261 0.03941
 N281 N 0.28955 0.40468 0.00826
 C282 C 0.29784 0.42945 -0.01717
 C283 C 0.32662 0.45288 -0.01212
 C284 C 0.33737 0.42556 0.04553
 C285 C 0.23261 0.31991 -0.04886
 C286 C 0.23762 0.29656 -0.07769
 C287 C 0.29549 0.32376 -0.08819
 C288 C 0.28941 0.34662 -0.05917
 N289 N 0.25817 0.34457 -0.04043
 H290 H 0.30088 0.38342 0.05967
 H291 H 0.28204 0.43090 -0.04141
 H292 H 0.33315 0.47240 -0.03256
 H293 H 0.35230 0.42371 0.07033
 H294 H 0.20831 0.31846 -0.03314
 H295 H 0.21708 0.27711 -0.08432
 H296 H 0.32037 0.32559 -0.10304
 H297 H 0.30978 0.36573 -0.05156
 C298 C 0.23010 0.29823 0.09634
 C299 C 0.15271 0.45100 -0.01967
 C300 C 0.26932 0.29858 -0.09756
 C301 C 0.34659 0.45084 0.01949
 C302 C 0.70288 0.06964 -0.01705
 H303 H 0.71862 0.06827 -0.04134
 C304 C 0.67407 0.04624 -0.01210
 H305 H 0.66744 0.02684 -0.03267
 C306 C 0.69252 0.09623 0.03972
 H307 H 0.70012 0.11533 0.06010
 C308 C 0.66351 0.07332 0.04575
 H309 H 0.64864 0.07510 0.07060
 N310 N 0.71128 0.09427 0.00852
 C311 C 0.76810 0.17934 -0.04811
 H312 H 0.79243 0.18071 -0.03241
 C313 C 0.76303 0.20284 -0.07675
 H314 H 0.78356 0.22233 -0.08326
 C315 C 0.71130 0.15266 -0.05854
 H316 H 0.69095 0.13350 -0.05104
 C317 C 0.70516 0.17568 -0.08737
 H318 H 0.68026 0.17391 -0.10220
 Zn319 Zn 0.75123 0.12442 -0.00005
 N320 N 0.74256 0.15462 -0.03983
 C321 C 0.80994 0.09640 -0.03996
 N322 N 0.79116 0.09433 -0.00877
 C323 C 0.79953 0.06961 0.01666
 C324 C 0.82831 0.04623 0.01158
 C325 C 0.83892 0.07351 -0.04611
 C326 C 0.73433 0.17916 0.04827
 C327 C 0.73932 0.20254 0.07707
 C328 C 0.79715 0.17538 0.08768
 C329 C 0.79109 0.15247 0.05869
 N330 N 0.75987 0.15449 0.03991
 H331 H 0.80237 0.11557 -0.06023
 H332 H 0.78378 0.06815 0.04093
 H333 H 0.83490 0.02674 0.03203
 H334 H 0.85380 0.07536 -0.07094
 H335 H 0.71003 0.18057 0.03252
 H336 H 0.71877 0.22198 0.08366
 H337 H 0.82201 0.17357 0.10257
 H338 H 0.81145 0.13335 0.05112
 C339 C 0.73130 0.20091 -0.09658
 C340 C 0.65416 0.04819 0.01955
 C341 C 0.77099 0.20055 0.09699
 C342 C 0.84822 0.04827 -0.02006
 C343 C 0.20114 0.57058 0.48281
 H344 H 0.21701 0.56920 0.45861
 C345 C 0.17238 0.54709 0.48767
 H346 H 0.16594 0.52762 0.46712
 C347 C 0.19042 0.59724 0.53950
 H348 H 0.19786 0.61639 0.55988
 C349 C 0.16146 0.57424 0.54542
 H350 H 0.14647 0.57599 0.57020
 N351 N 0.20934 0.59528 0.50839
 C352 C 0.26660 0.68018 0.45198
 H353 H 0.29080 0.68158 0.46788
 C354 C 0.26182 0.70356 0.42320
 H355 H 0.28243 0.72299 0.41678
 C356 C 0.20987 0.65351 0.44115
 H357 H 0.18945 0.63439 0.44854
 C358 C 0.20402 0.67641 0.41217
 H359 H 0.17926 0.67460 0.39711
 Zn360 Zn 0.24934 0.62540 0.50002
 N361 N 0.24098 0.65552 0.46012
 C362 C 0.30822 0.59722 0.46049
 N363 N 0.28929 0.59525 0.49159
 C364 C 0.29747 0.57056 0.51711
 C365 C 0.32623 0.54710 0.51222
 C366 C 0.33718 0.57424 0.45453
 C367 C 0.23224 0.68021 0.54823
 C368 C 0.23716 0.70366 0.57699
 C369 C 0.29496 0.67650 0.58781
 C370 C 0.28897 0.65353 0.55885
 N371 N 0.25780 0.65552 0.53998
 H372 H 0.30080 0.61635 0.44014
 H373 H 0.28160 0.56918 0.54131
 H374 H 0.33267 0.52764 0.53274
 H375 H 0.35219 0.57601 0.42976
 H376 H 0.20799 0.68160 0.53240
 H377 H 0.21661 0.72312 0.58348
 H378 H 0.31978 0.67472 0.60276
 H379 H 0.30934 0.63440 0.55138
 C380 C 0.23028 0.70157 0.40308
 C381 C 0.15234 0.54901 0.51924
 C382 C 0.26878 0.70171 0.59699
 C383 C 0.34630 0.54904 0.48067
 C384 C 0.70187 0.93081 0.51703
 H385 H 0.71760 0.93228 0.54132
 C386 C 0.67300 0.95410 0.51204
 H387 H 0.66633 0.97352 0.53257
 C388 C 0.69157 0.90409 0.46029
 H389 H 0.69920 0.88499 0.43995
 C390 C 0.66250 0.92690 0.45423
 H391 H 0.64762 0.92503 0.42939
 N392 N 0.71032 0.90616 0.49150
 C393 C 0.76724 0.82133 0.54828
 H394 H 0.79158 0.82000 0.53259
 C395 C 0.76220 0.79785 0.57694
 H396 H 0.78275 0.77842 0.58349
 C397 C 0.71040 0.84789 0.55866
 H398 H 0.69003 0.86699 0.55112
 C399 C 0.70429 0.82489 0.58751
 H400 H 0.67938 0.82661 0.60233
 Zn401 Zn 0.75031 0.87613 0.50014
 N402 N 0.74168 0.84598 0.53996
 C403 C 0.80897 0.90434 0.54004
 N404 N 0.79021 0.90633 0.50884
 C405 C 0.79857 0.93101 0.48337
 C406 C 0.82735 0.95444 0.48841
 C407 C 0.83796 0.92728 0.54615
 C408 C 0.73353 0.82128 0.45188
 C409 C 0.73860 0.79783 0.42315
 C410 C 0.79642 0.82511 0.41257
 C411 C 0.79028 0.84807 0.44151
 N412 N 0.75903 0.84602 0.46024
 H413 H 0.80141 0.88520 0.56034
 H414 H 0.78282 0.93240 0.45909
 H415 H 0.83395 0.97388 0.46792
 H416 H 0.85284 0.92548 0.57099
 H417 H 0.70922 0.81984 0.46760
 H418 H 0.71810 0.77833 0.41657
 H419 H 0.82130 0.82694 0.39773
 H420 H 0.81060 0.86725 0.44906
 C421 C 0.73046 0.79972 0.59676
 C422 C 0.65309 0.95204 0.48039
 C423 C 0.77031 0.79985 0.40328
 C424 C 0.84727 0.95246 0.52005
 C425 C 0.01635 0.20252 0.42984
 H426 H 0.04062 0.21833 0.43130
 C427 C 0.01131 0.17376 0.45321
 H428 H 0.03181 0.16727 0.47270
 C429 C -0.04032 0.19189 0.40301
 H430 H -0.06063 0.19936 0.38383
 C431 C -0.04643 0.16293 0.42590
 H432 H -0.07126 0.14797 0.42403
 N433 N -0.00913 0.21075 0.40510
 C434 C 0.04805 0.26744 0.32043
 H435 H 0.03233 0.29176 0.31897
 C436 C 0.07686 0.26233 0.29710
 H437 H 0.08350 0.28281 0.27766
 C438 C 0.05833 0.21069 0.34714
 H439 H 0.05069 0.19037 0.36624
 C440 C 0.08733 0.20451 0.32430
 H441 H 0.10215 0.17961 0.32614
 Zn442 Zn -0.00044 0.25063 0.37501
 N443 N 0.03960 0.24195 0.34508
 C444 C 0.03930 0.30947 0.40319
 N445 N 0.00806 0.29066 0.40507
 C446 C -0.01757 0.29900 0.42963
 C447 C -0.01263 0.32778 0.45306
 C448 C 0.04531 0.33845 0.42615
 C449 C -0.04849 0.23349 0.32014
 C450 C -0.07720 0.23836 0.29666
 C451 C -0.08806 0.29626 0.32368
 C452 C -0.05914 0.29031 0.34668
 N453 N -0.04028 0.25912 0.34478
 H454 H 0.05972 0.30192 0.38415
 H455 H -0.04188 0.28322 0.43094
 H456 H -0.03323 0.33434 0.47243
 H457 H 0.07019 0.35335 0.42446
 H458 H -0.03267 0.20921 0.31882
 H459 H -0.08366 0.21775 0.27724
 H460 H -0.10302 0.32109 0.32540
 H461 H -0.05170 0.31073 0.36579
 C462 C 0.09670 0.23060 0.29913
 C463 C -0.02033 0.15375 0.45114
 C464 C -0.09720 0.27000 0.29853
 C465 C 0.01907 0.34772 0.45123
 C466 C -0.01679 0.70133 0.06937
 H467 H -0.04107 0.71712 0.06807
 C468 C -0.01194 0.67249 0.04598
 H469 H -0.03259 0.66591 0.02666
 C470 C 0.04010 0.69086 0.09574
 H471 H 0.06056 0.69842 0.11475
 C472 C 0.04602 0.66183 0.07284
 H473 H 0.07087 0.64691 0.07453
 N474 N 0.00889 0.70969 0.09389
 C475 C -0.04738 0.76684 0.17896
 H476 H -0.03151 0.79109 0.18027
 C477 C -0.07604 0.76197 0.20252
 H478 H -0.08240 0.78257 0.22197
 C479 C -0.05823 0.71006 0.15238
 H480 H -0.05089 0.68965 0.13323
 C481 C -0.08710 0.70412 0.17546
 H482 H -0.10211 0.67930 0.17375
 Zn483 Zn 0.00050 0.74971 0.12398
 N484 N -0.03930 0.74123 0.15427
 C485 C -0.03936 0.80848 0.09613
 N486 N -0.00818 0.78964 0.09396
 C487 C 0.01727 0.79796 0.06921
 C488 C 0.01223 0.82678 0.04592
 C489 C -0.04548 0.83750 0.07333
 C490 C 0.04895 0.73281 0.17852
 C491 C 0.07775 0.73786 0.20189
 C492 C 0.08839 0.79568 0.17473
 C493 C 0.05940 0.78955 0.15185
 N494 N 0.04059 0.75832 0.15389
 H495 H -0.05965 0.80096 0.11531
 H496 H 0.04154 0.78215 0.06768
 H497 H 0.03270 0.83334 0.02643
 H498 H -0.07030 0.85245 0.07527
 H499 H 0.03317 0.70851 0.17996
 H500 H 0.08431 0.71736 0.22133
 H501 H 0.10328 0.82056 0.17293
 H502 H 0.05183 0.80989 0.13276
 C503 C -0.09611 0.73036 0.20067
 C504 C 0.01972 0.65253 0.04781
 C505 C 0.09767 0.76956 0.19991
 C506 C -0.01940 0.84677 0.04808
 C507 C 0.48274 0.20113 0.57110
 H508 H 0.45840 0.21682 0.56964
 C509 C 0.48789 0.17235 0.54771
 H510 H 0.46742 0.16572 0.52822
 C511 C 0.53947 0.19086 0.59789
 H512 H 0.55977 0.19849 0.61705
 C513 C 0.54569 0.16189 0.57499
 H514 H 0.57060 0.14708 0.57683
 N515 N 0.50820 0.20956 0.59582
 C516 C 0.45092 0.26647 0.68040
 H517 H 0.46664 0.29082 0.68184
 C518 C 0.42205 0.26145 0.70367
 H519 H 0.41537 0.28202 0.72305
 C520 C 0.44067 0.20961 0.65377
 H521 H 0.44832 0.18923 0.63471
 C522 C 0.41161 0.20351 0.67655
 H523 H 0.39676 0.17860 0.67472
 Zn524 Zn 0.49942 0.24954 0.62585
 N525 N 0.45940 0.24089 0.65581
 C526 C 0.45960 0.30819 0.59759
 N527 N 0.49083 0.28940 0.59570
 C528 C 0.51643 0.29768 0.57109
 C529 C 0.51149 0.32640 0.54766
 C530 C 0.45358 0.33711 0.57464
 C531 C 0.54766 0.23285 0.68067
 C532 C 0.57647 0.23794 0.70402
 C533 C 0.58703 0.29576 0.67684
 C534 C 0.55804 0.28959 0.65397
 N535 N 0.53929 0.25833 0.65600
 H536 H 0.43920 0.30069 0.61667
 H537 H 0.54074 0.28192 0.56977
 H538 H 0.53207 0.33293 0.52827
 H539 H 0.42871 0.35201 0.57636
 H540 H 0.53194 0.20851 0.68209
 H541 H 0.58308 0.21743 0.72344
 H542 H 0.60191 0.32064 0.67500
 H543 H 0.55046 0.30990 0.63485
 C544 C 0.40218 0.22971 0.70165
 C545 C 0.51962 0.15253 0.54975
 C546 C 0.59637 0.26965 0.70199
 C547 C 0.47980 0.34633 0.54953
 C548 C 0.51672 0.70256 0.93000
 H549 H 0.54101 0.71837 0.93134
 C550 C 0.51183 0.67377 0.95336
 H551 H 0.53244 0.66723 0.97271
 C552 C 0.45988 0.69200 0.90351
 H553 H 0.43946 0.69951 0.88447
 C554 C 0.45391 0.66301 0.92639
 H555 H 0.42906 0.64806 0.92464
 N556 N 0.49110 0.71085 0.90544
 C557 C 0.54772 0.76774 0.82053
 H558 H 0.53196 0.79205 0.81921
 C559 C 0.57642 0.76273 0.79705
 H560 H 0.58294 0.78328 0.77763
 C561 C 0.55822 0.71095 0.84707
 H562 H 0.55073 0.69059 0.86617
 C563 C 0.58712 0.70487 0.82408
 H564 H 0.60201 0.68000 0.82580
 Zn565 Zn 0.49960 0.75080 0.87538
 N566 N 0.53945 0.74219 0.84517
 C567 C 0.53958 0.80951 0.90343
 N568 N 0.50833 0.79074 0.90547
 C569 C 0.48287 0.79908 0.93021
 C570 C 0.48799 0.82781 0.95366
 C571 C 0.54578 0.83845 0.92640
 C572 C 0.45119 0.73384 0.82077
 C573 C 0.42239 0.73885 0.79742
 C574 C 0.41180 0.79671 0.82462
 C575 C 0.44080 0.79063 0.84749
 N576 N 0.45957 0.75940 0.84543
 H577 H 0.55988 0.80197 0.88426
 H578 H 0.45855 0.78333 0.93164
 H579 H 0.46752 0.83437 0.97316
 H580 H 0.57067 0.85331 0.92458
 H581 H 0.46695 0.70954 0.81932
 H582 H 0.41580 0.71831 0.77797
 H583 H 0.39693 0.82159 0.82646
 H584 H 0.44838 0.81099 0.86660
 C585 C 0.59634 0.73104 0.79892
 C586 C 0.48017 0.65377 0.95146
 C587 C 0.40249 0.77055 0.79944
 C588 C 0.51971 0.84771 0.95166
 C589 C 0.15126 0.21977 0.25524
 C590 C 0.12640 0.22471 0.27526
 C591 C 0.65082 0.72043 0.75490
 C592 C 0.62598 0.72528 0.77496
 C593 C 0.34793 0.78115 0.75551
 C594 C 0.37279 0.77632 0.77555
 C595 C -0.15171 0.28031 0.25447
 C596 C -0.12687 0.27560 0.27456
 C597 C -0.15054 0.72006 0.24483
 C598 C -0.12572 0.72476 0.22471
 C599 C 0.34740 0.21912 0.74531
 C600 C 0.37237 0.22395 0.72540
 C601 C 0.65115 0.28031 0.74566
 C602 C 0.62617 0.27545 0.72576
 C603 C 0.15214 0.78029 0.24395
 C604 C 0.12733 0.77541 0.22385
 C605 C 0.25518 0.15075 0.22004
 C606 C 0.27521 0.12588 0.22488
 C607 C 0.75446 0.65119 0.71942
 C608 C 0.77435 0.62619 0.72421
 C609 C 0.75411 0.34760 0.78071
 C610 C 0.77412 0.37252 0.77582
 C611 C 0.25478 -0.15243 0.27996
 C612 C 0.27488 -0.12755 0.27523
 C613 C 0.24547 -0.15143 0.71961
 C614 C 0.22552 -0.12645 0.72432
 C615 C 0.74570 0.34842 0.22031
 C616 C 0.72558 0.37325 0.22509
 C617 C 0.74546 0.65144 0.28051
 C618 C 0.72540 0.62654 0.27578
 C619 C 0.24607 0.15221 0.77925
 C620 C 0.22601 0.12732 0.77446
 C621 C 0.21976 0.25445 0.15100
 C622 C 0.22448 0.27439 0.12607
 C623 C 0.71977 0.75563 0.65111
 C624 C 0.72466 0.77573 0.62634
 C625 C 0.78094 0.75578 0.34881
 C626 C 0.77612 0.77589 0.37363
 C627 C 0.27995 0.25470 -0.15219
 C628 C 0.27510 0.27471 -0.12729
 C629 C 0.72055 0.24501 -0.15091
 C630 C 0.72547 0.22492 -0.12614
 C631 C 0.22019 0.74538 0.34839
 C632 C 0.22478 0.72542 0.37332
 C633 C 0.27927 0.74576 0.65151
 C634 C 0.27448 0.72567 0.62667
 C635 C 0.78145 0.24447 0.15162
 C636 C 0.77671 0.22444 0.12672
 C637 C 0.46939 0.40087 0.50558
 C638 C 0.47412 0.37601 0.52561
 C639 C -0.02999 0.90152 0.00444
 C640 C -0.02517 0.87656 0.02434
 C641 C 0.03002 0.59780 0.00393
 C642 C 0.02532 0.62275 0.02393
 C643 C 0.53048 0.09800 0.50577
 C644 C 0.52554 0.12284 0.52583
 C645 C -0.03088 0.09914 0.49498
 C646 C -0.02608 0.12404 0.47499
 C647 C 0.46980 0.59910 0.99525
 C648 C 0.47453 0.62402 0.97529
 C649 C 0.53054 0.90217 0.99574
 C650 C 0.52560 0.87735 0.97564
 C651 C 0.02956 0.40225 0.49532
 C652 C 0.02478 0.37740 0.47521
 C653 C 0.40084 0.50499 0.47027
 C654 C 0.37598 0.52507 0.47502
 C655 C 0.90286 0.00439 -0.03075
 C656 C 0.87796 0.02440 -0.02589
 C657 C 0.59944 0.00435 0.03001
 C658 C 0.62438 0.02433 0.02523
 C659 C 0.09785 0.50484 0.52960
 C660 C 0.12268 0.52498 0.52486
 C661 C 0.09821 0.49510 -0.03002
 C662 C 0.12305 0.47500 -0.02529
 C663 C 0.59824 0.99567 0.46991
 C664 C 0.62324 0.97578 0.47468
 C665 C 0.90195 0.99637 0.53060
 C666 C 0.87702 0.97635 0.52581
 C667 C 0.40117 0.49483 0.03015
 C668 C 0.37630 0.47477 0.02529
 C669 C 0.50492 0.46953 0.40173
 C670 C 0.52498 0.47432 0.37689
 C671 C 0.00542 -0.02940 0.90086
 C672 C 0.02550 -0.02458 0.87605
 C673 C 0.00476 0.03032 0.59862
 C674 C 0.02494 0.02554 0.62336
 C675 C 0.50517 0.53015 0.09895
 C676 C 0.52519 0.52531 0.12381
 C677 C 0.49542 -0.03091 0.09877
 C678 C 0.47542 -0.02615 0.12367
 C679 C 0.99409 0.46897 0.59839
 C680 C 0.97413 0.47370 0.62332
 C681 C 0.99418 0.53041 0.90138
 C682 C 0.97415 0.52550 0.87653
 C683 C 0.49553 0.02920 0.40168
 C684 C 0.47547 0.02438 0.37683
   
