data_POSCAR
  _audit_creation_date              2014-09-24
  _audit_creation_method            'ToBaCCo'
  _symmetry_space_group_name_H-M    'P1'
  _symmetry_Int_Tables_number       1
  _symmetry_cell_setting            triclinic
  loop_
  _symmetry_equiv_pos_as_xyz
 x,y,z
_cell_length_a 29.1566
_cell_length_b 29.1976
_cell_length_c 29.2339
_cell_angle_alpha 104.080400
_cell_angle_beta 75.518000
_cell_angle_gamma 75.112800
loop_
  _atom_site_label
  _atom_site_type_symbol
  _atom_site_fract_x
  _atom_site_fract_y
  _atom_site_fract_z
C1 C 0.54482 0.50877 0.00350
 C2 C 0.50835 0.54546 -0.00449
 C3 C 0.46384 0.53735 -0.00815
 C4 C 0.45515 0.49323 -0.00406
 C5 C 0.49158 0.45663 0.00391
 C6 C 0.53606 0.46468 0.00757
 H7 H 0.56408 0.43627 0.01354
 H8 H 0.43568 0.56565 -0.01412
 C9 C -0.00419 0.45642 0.50856
 C10 C 0.00446 0.49202 0.54442
 C11 C 0.00842 0.53629 0.53601
 C12 C 0.00397 0.54550 0.49217
 C13 C -0.00467 0.50981 0.45626
 C14 C -0.00863 0.46556 0.46475
 H15 H -0.01508 0.43799 0.43700
 H16 H 0.01488 0.56376 0.56389
 C17 C 0.49286 0.00334 0.45596
 C18 C 0.45660 -0.00500 0.49185
 C19 C 0.46462 -0.00860 0.53632
 C20 C 0.50846 -0.00409 0.54553
 C21 C 0.54486 0.00427 0.50951
 C22 C 0.53670 0.00786 0.46503
 H23 H 0.56468 0.01410 0.43714
 H24 H 0.43640 -0.01484 0.56397
 O25 O 0.46604 -0.00031 -0.05738
 O26 O 0.45224 0.01835 0.07528
 O27 O 0.45170 0.07564 0.01890
 O28 O 0.46654 -0.05757 -0.00100
 O29 O 0.54896 -0.07645 -0.01980
 O30 O 0.53411 0.05678 0.00009
 O31 O 0.53464 -0.00049 0.05646
 O32 O 0.54845 -0.01915 -0.07620
 Cu33 Cu 0.45083 0.01089 0.01081
 Cu34 Cu 0.54984 -0.01170 -0.01172
 C35 C 0.50943 -0.01222 -0.08906
 C36 C 0.49126 0.01143 0.08814
 C37 C 0.49055 0.08857 0.01220
 C38 C 0.51010 -0.08937 -0.01309
 O39 O -0.07616 0.54850 1.01814
 O40 O 0.05711 0.53457 0.99941
 O41 O 0.00102 0.53351 0.94214
 O42 O -0.02005 0.54955 1.07545
 O43 O -0.00097 0.46749 1.05819
 O44 O 0.02010 0.45145 0.92488
 O45 O 0.07622 0.45251 0.98218
 O46 O -0.05706 0.46645 1.00091
 Cu47 Cu -0.01141 0.54981 1.01049
 Cu48 Cu 0.01146 0.45120 0.98984
 C49 C -0.08897 0.50967 1.01202
 C50 C 0.08902 0.49135 0.98827
 C51 C 0.01344 0.48994 0.91114
 C52 C -0.01339 0.51106 1.08919
 O53 O 0.01819 -0.07572 0.45195
 O54 O -0.00158 0.05759 0.46691
 O55 O 0.07528 -0.01964 0.45138
 O56 O -0.05866 0.00154 0.46750
 O57 O -0.07624 0.01910 0.54924
 O58 O 0.05770 -0.00209 0.53313
 O59 O -0.01913 0.07517 0.54864
 O60 O 0.00063 -0.05813 0.53369
 Cu61 Cu 0.01004 -0.01079 0.45119
 Cu62 Cu -0.01099 0.01025 0.54942
 C63 C 0.01208 -0.08929 0.49046
 C64 C -0.01302 0.08874 0.51014
 C65 C 0.08896 -0.01377 0.48971
 C66 C -0.08992 0.01321 0.51092
 C67 C -0.28289 0.55905 1.05263
 C68 C -0.30119 0.56179 1.00756
 C69 C -0.32227 0.51948 1.01264
 C70 C -0.30485 0.51673 1.05766
 C71 C -0.23293 0.51905 1.01635
 C72 C -0.25412 0.47681 1.02141
 C73 C -0.25040 0.52181 0.97134
 C74 C -0.27225 0.47956 0.97641
 C75 C -0.37130 0.51780 1.00980
 C76 C -0.41093 0.51447 1.00697
 C77 C -0.18239 0.51720 1.01700
 C78 C -0.14009 0.51435 1.01581
 H79 H -0.28669 0.59170 1.08402
 H80 H -0.32113 0.59669 1.00181
 H81 H -0.32782 0.51466 1.09314
 H82 H -0.23429 0.44186 1.02714
 H83 H -0.22746 0.52387 0.93583
 H84 H -0.26836 0.44689 0.94500
 C85 C 0.25089 0.47880 1.02834
 C86 C 0.30172 0.43927 0.99164
 C87 C 0.32238 0.48196 0.98713
 C88 C 0.27232 0.52142 1.02383
 C89 C 0.23303 0.48213 0.98366
 C90 C 0.25380 0.52475 0.97916
 C91 C 0.28303 0.44258 0.94690
 C92 C 0.30456 0.48527 0.94243
 C93 C 0.37140 0.48381 0.98983
 C94 C 0.41100 0.48731 0.99257
 C95 C 0.18247 0.48387 0.98314
 C96 C 0.14017 0.48668 0.98442
 H97 H 0.22826 0.47616 1.06369
 H98 H 0.32202 0.40416 0.99683
 H99 H 0.26840 0.55384 1.05553
 H100 H 0.23362 0.55991 0.97399
 H101 H 0.28685 0.41019 0.91522
 H102 H 0.32721 0.48793 0.90712
 C103 C 0.02167 -0.25466 0.52280
 C104 C -0.02339 -0.27253 0.51982
 C105 C 0.01341 -0.32228 0.48025
 C106 C 0.05849 -0.30510 0.48322
 C107 C 0.01708 -0.23314 0.48050
 C108 C 0.05394 -0.28283 0.44084
 C109 C -0.02799 -0.25036 0.47751
 C110 C 0.00880 -0.30088 0.43788
 C111 C 0.01053 -0.37113 0.48219
 C112 C 0.00760 -0.41057 0.48590
 C113 C 0.01761 -0.18269 0.48239
 C114 C 0.01621 -0.14041 0.48543
 H115 H 0.02699 -0.23516 0.55772
 H116 H -0.05525 -0.26880 0.55229
 H117 H 0.09404 -0.32820 0.48555
 H118 H 0.08578 -0.28646 0.40840
 H119 H -0.06356 -0.22729 0.47520
 H120 H 0.00346 -0.32049 0.40301
 C121 C 0.02751 0.24948 0.52254
 C122 C 0.02230 0.27201 0.48058
 C123 C -0.01405 0.32170 0.52057
 C124 C -0.00883 0.29994 0.56259
 C125 C -0.01785 0.23257 0.52016
 C126 C -0.05427 0.28221 0.56024
 C127 C -0.02305 0.25445 0.47821
 C128 C -0.05943 0.30484 0.51821
 C129 C -0.01109 0.37057 0.51876
 C130 C -0.00810 0.41003 0.51519
 C131 C -0.01846 0.18212 0.51821
 C132 C -0.01711 0.13986 0.51516
 H133 H 0.06327 0.22614 0.52428
 H134 H 0.05385 0.26831 0.44784
 H135 H -0.00293 0.31925 0.59724
 H136 H -0.08579 0.28580 0.59295
 H137 H -0.02894 0.23525 0.44351
 H138 H -0.09516 0.32820 0.51644
 C139 C 0.55932 -0.05289 -0.28193
 C140 C 0.51722 -0.05825 -0.30423
 C141 C 0.51921 -0.01302 -0.32172
 C142 C 0.56130 -0.00761 -0.30028
 C143 C 0.51878 -0.01663 -0.23256
 C144 C 0.52078 0.02859 -0.25009
 C145 C 0.47675 -0.02202 -0.25410
 C146 C 0.47875 0.02319 -0.27230
 C147 C 0.51753 -0.01025 -0.37067
 C148 C 0.51419 -0.00749 -0.41025
 C149 C 0.51693 -0.01723 -0.18215
 C150 C 0.51408 -0.01601 -0.13999
 H151 H 0.59241 -0.08422 -0.28531
 H152 H 0.51577 -0.09395 -0.32707
 H153 H 0.59602 -0.00164 -0.31987
 H154 H 0.52221 0.06431 -0.22728
 H155 H 0.44198 -0.02798 -0.23464
 H156 H 0.44563 0.05454 -0.26882
 C157 C 0.52455 0.02008 0.25269
 C158 C 0.48478 0.05710 0.30287
 C159 C 0.48153 0.01239 0.32083
 C160 C 0.52129 -0.02461 0.27136
 C161 C 0.48194 0.01592 0.23166
 C162 C 0.47868 -0.02878 0.24966
 C163 C 0.44209 0.05298 0.28108
 C164 C 0.43885 0.00821 0.29990
 C165 C 0.48323 0.00966 0.36979
 C166 C 0.48658 0.00692 0.40937
 C167 C 0.48377 0.01649 0.18124
 C168 C 0.48661 0.01524 0.13908
 H169 H 0.55979 0.02500 0.23280
 H170 H 0.48728 0.09241 0.32532
 H171 H 0.55385 -0.05658 0.26785
 H172 H 0.47620 -0.06412 0.22723
 H173 H 0.40957 0.08492 0.28449
 H174 H 0.40366 0.00327 0.31991
 C175 C 0.52344 -0.25126 0.02658
 C176 C 0.48068 -0.27258 0.02246
 C177 C 0.52027 -0.32241 -0.01430
 C178 C 0.56310 -0.30185 -0.01018
 C179 C 0.52004 -0.23327 -0.01809
 C180 C 0.55972 -0.28304 -0.05492
 C181 C 0.47728 -0.25394 -0.02220
 C182 C 0.51688 -0.30447 -0.05899
 C183 C 0.51831 -0.37124 -0.01132
 C184 C 0.51461 -0.41063 -0.00828
 C185 C 0.51815 -0.18280 -0.01865
 C186 C 0.51512 -0.14051 -0.01725
 H187 H 0.52611 -0.22880 0.06178
 H188 H 0.44819 -0.26878 0.05434
 H189 H 0.59833 -0.32216 -0.00517
 H190 H 0.59218 -0.28674 -0.08677
 H191 H 0.44200 -0.23376 -0.02718
 H192 H 0.51419 -0.32695 -0.09416
 C193 C 0.52287 0.25352 0.02182
 C194 C 0.51963 0.27212 -0.02289
 C195 C 0.47977 0.32184 0.01377
 C196 C 0.48299 0.30394 0.05851
 C197 C 0.48035 0.23257 0.01738
 C198 C 0.44040 0.28223 0.05411
 C199 C 0.47711 0.25051 -0.02734
 C200 C 0.43718 0.30100 0.00931
 C201 C 0.48150 0.37076 0.01088
 C202 C 0.48500 0.41023 0.00789
 C203 C 0.48240 0.18204 0.01786
 C204 C 0.48551 0.13972 0.01640
 H205 H 0.55811 0.23350 0.02700
 H206 H 0.55220 0.26847 -0.05461
 H207 H 0.48540 0.32651 0.09380
 H208 H 0.40787 0.28578 0.08580
 H209 H 0.47473 0.22797 -0.06265
 H210 H 0.40200 0.32114 0.00412
 C211 C -0.28427 0.05582 0.56096
 C212 C -0.30607 0.05963 0.51822
 C213 C -0.32341 0.01485 0.52208
 C214 C -0.30250 0.01098 0.56481
 C215 C -0.23425 0.01879 0.52175
 C216 C -0.25164 -0.02597 0.52562
 C217 C -0.25527 0.02264 0.47910
 C218 C -0.27332 -0.02211 0.48297
 C219 C -0.37217 0.01167 0.52004
 C220 C -0.41144 0.00839 0.51612
 C221 C -0.18370 0.01931 0.51968
 C222 C -0.14127 0.01773 0.51637
 H223 H -0.28815 0.08790 0.59298
 H224 H -0.32905 0.09481 0.51518
 H225 H -0.32254 0.00612 0.60000
 H226 H -0.22868 -0.06118 0.52864
 H227 H -0.23536 0.02748 0.44385
 H228 H -0.26932 -0.05421 0.45091
 C229 C 0.25478 -0.02457 0.52108
 C230 C 0.30550 -0.06089 0.48131
 C231 C 0.32251 -0.01568 0.47865
 C232 C 0.27248 0.02060 0.51840
 C233 C 0.23331 -0.01950 0.47893
 C234 C 0.25037 0.02569 0.47624
 C235 C 0.28327 -0.05586 0.43908
 C236 C 0.30116 -0.01059 0.43642
 C237 C 0.37128 -0.01257 0.48071
 C238 C 0.41056 -0.00934 0.48464
 C239 C 0.18276 -0.01995 0.48097
 C240 C 0.14032 -0.01833 0.48426
 H241 H 0.23520 -0.03035 0.55589
 H242 H 0.32878 -0.09647 0.48339
 H243 H 0.26855 0.05211 0.55101
 H244 H 0.22712 0.06130 0.47420
 H245 H 0.28709 -0.08733 0.40651
 H246 H 0.32086 -0.00479 0.40167
 C247 C 0.02625 0.52426 1.25022
 C248 C -0.01014 0.56457 1.30038
 C249 C -0.01528 0.52253 1.32212
 C250 C 0.02111 0.48229 1.27272
 C251 C -0.01908 0.52201 1.23308
 C252 C -0.02421 0.48004 1.25493
 C253 C -0.05555 0.56234 1.28241
 C254 C -0.06063 0.52030 1.30504
 C255 C -0.01219 0.52063 1.37085
 C256 C -0.00898 0.51685 1.41013
 C257 C -0.01953 0.51985 1.18264
 C258 C -0.01792 0.51652 1.14034
 H259 H 0.06199 0.52584 1.22710
 H260 H -0.00430 0.59927 1.31969
 H261 H 0.05270 0.44939 1.26924
 H262 H -0.03003 0.44529 1.23575
 H263 H -0.08711 0.59521 1.28578
 H264 H -0.09634 0.51869 1.32818
 C265 C 0.05595 0.43928 0.71788
 C266 C 0.01083 0.43629 0.69965
 C267 C 0.01512 0.47876 0.67833
 C268 C 0.06018 0.48176 0.69566
 C269 C 0.01901 0.47911 0.76730
 C270 C 0.02329 0.52151 0.74586
 C271 C -0.02603 0.47609 0.74992
 C272 C -0.02174 0.51849 0.72783
 C273 C 0.01199 0.48081 0.62965
 C274 C 0.00876 0.48475 0.59042
 C275 C 0.01952 0.48119 0.81771
 C276 C 0.01794 0.48450 0.85999
 H277 H 0.08793 0.40676 0.71440
 H278 H 0.00565 0.40131 0.68004
 H279 H 0.09561 0.48408 0.67275
 H280 H 0.02845 0.55655 0.76535
 H281 H -0.06149 0.47380 0.77281
 H282 H -0.05375 0.55106 0.73142
   
