data_POSCAR
  _audit_creation_date              2014-09-24
  _audit_creation_method            'ToBaCCo'
  _symmetry_space_group_name_H-M    'P1'
  _symmetry_Int_Tables_number       1
  _symmetry_cell_setting            triclinic
  loop_
  _symmetry_equiv_pos_as_xyz
 x,y,z
_cell_length_a 32.3376
_cell_length_b 32.3309
_cell_length_c 30.3412
_cell_angle_alpha 90.084100
_cell_angle_beta 90.086200
_cell_angle_gamma 120.162400
loop_
  _atom_site_label
  _atom_site_type_symbol
  _atom_site_fract_x
  _atom_site_fract_y
  _atom_site_fract_z
C1 C 0.52844 0.07302 0.05852
 H2 H 0.56205 0.07366 0.05499
 C3 C 0.52629 0.10787 0.08380
 H4 H 0.55849 0.13494 0.09995
 C5 C 0.44625 0.03755 0.04026
 H6 H 0.41550 0.01073 0.02233
 C7 C 0.44240 0.07173 0.06552
 H8 H 0.40840 0.07060 0.06704
 N9 N 0.48892 0.03896 0.03721
 C10 C 0.52074 -0.07477 0.01106
 H11 H 0.51866 -0.07646 -0.02455
 C12 C 0.52850 -0.10748 0.03442
 H13 H 0.53266 -0.13407 0.01638
 C14 C 0.51607 -0.03896 0.07763
 H15 H 0.51008 -0.01298 0.09444
 C16 C 0.52385 -0.07086 0.10228
 H17 H 0.52420 -0.06856 0.13790
 Zn18 Zn 0.49909 -0.00169 -0.00045
 N19 N 0.51461 -0.04148 0.03286
 C20 C 0.59138 0.03814 -0.04101
 N21 N 0.54997 0.03924 -0.03792
 C22 C 0.54439 0.07315 -0.05905
 C23 C 0.58143 0.10814 -0.08418
 C24 C 0.62944 0.07247 -0.06612
 C25 C 0.40435 -0.07540 -0.01229
 C26 C 0.36385 -0.10845 -0.03573
 C27 C 0.40499 -0.07139 -0.10347
 C28 C 0.44465 -0.03924 -0.07864
 N29 N 0.44370 -0.04184 -0.03393
 H30 H 0.59542 0.01146 -0.02322
 H31 H 0.51131 0.07354 -0.05549
 H32 H 0.57620 0.13508 -0.10019
 H33 H 0.66243 0.07158 -0.06768
 H34 H 0.40482 -0.07705 0.02331
 H35 H 0.33339 -0.13503 -0.01731
 H36 H 0.40739 -0.06847 -0.13905
 H37 H 0.47658 -0.01292 -0.09532
 C38 C 0.52968 -0.10608 0.08073
 C39 C 0.48300 0.10791 0.08719
 C40 C 0.36373 -0.10737 -0.08226
 C41 C 0.62490 0.10849 -0.08761
 C42 C -0.07336 0.47149 0.60810
 H43 H -0.07395 0.43791 0.61170
 C44 C -0.10827 0.47355 0.58284
 H45 H -0.13536 0.44128 0.56677
 C46 C -0.03791 0.55375 0.62616
 H47 H -0.01108 0.58457 0.64401
 C48 C -0.07215 0.55750 0.60092
 H49 H -0.07105 0.59149 0.59933
 N50 N -0.03928 0.51109 0.62930
 C51 C 0.07462 0.47954 0.65547
 H52 H 0.07638 0.48175 0.69107
 C53 C 0.10729 0.47172 0.63212
 H54 H 0.13393 0.46765 0.65016
 C55 C 0.03865 0.48393 0.58889
 H56 H 0.01261 0.48982 0.57207
 C57 C 0.07051 0.47609 0.56425
 H58 H 0.06814 0.47561 0.52864
 Zn59 Zn 0.00151 0.50112 0.66695
 N60 N 0.04127 0.48556 0.63365
 C61 C -0.03812 0.40895 0.70771
 N62 N -0.03926 0.45034 0.70460
 C63 C -0.07310 0.45595 0.72580
 C64 C -0.10799 0.41895 0.75104
 C65 C -0.07235 0.37092 0.73293
 C66 C 0.07514 0.59600 0.67841
 C67 C 0.10814 0.63663 0.70175
 C68 C 0.07140 0.59575 0.76962
 C69 C 0.03923 0.55589 0.74500
 N70 N 0.04167 0.55667 0.70024
 H71 H -0.01149 0.40488 0.68985
 H72 H -0.07353 0.48902 0.72221
 H73 H -0.13489 0.42420 0.76711
 H74 H -0.07143 0.33794 0.73450
 H75 H 0.07674 0.59538 0.64282
 H76 H 0.13488 0.66729 0.68369
 H77 H 0.06917 0.59401 0.80523
 H78 H 0.01308 0.52399 0.76183
 C79 C 0.10579 0.47037 0.58581
 C80 C -0.10836 0.51681 0.57936
 C81 C 0.10684 0.63669 0.74805
 C82 C -0.10830 0.37548 0.75450
 C83 C 0.54425 0.47102 0.39222
 H84 H 0.51110 0.43742 0.38859
 C85 C 0.58128 0.47320 0.41749
 H86 H 0.57597 0.44101 0.43355
 C87 C 0.59142 0.55318 0.37419
 H88 H 0.59552 0.58391 0.35634
 C89 C 0.62948 0.55705 0.39945
 H90 H 0.66254 0.59105 0.40105
 N91 N 0.54992 0.51052 0.37102
 C92 C 0.44477 0.48348 0.41134
 H93 H 0.47680 0.48955 0.42817
 C94 C 0.40508 0.47574 0.43595
 H95 H 0.40708 0.47551 0.47157
 C96 C 0.40419 0.47857 0.34474
 H97 H 0.40455 0.48054 0.30913
 C98 C 0.36370 0.47085 0.36807
 H99 H 0.33290 0.46661 0.35000
 Zn100 Zn 0.49903 0.50031 0.33332
 N101 N 0.44367 0.48481 0.36657
 C102 C 0.44620 0.40791 0.29244
 N103 N 0.48885 0.44942 0.29564
 C104 C 0.52835 0.45510 0.27447
 C105 C 0.52621 0.41809 0.24919
 C106 C 0.44236 0.36985 0.26717
 C107 C 0.52078 0.59518 0.32189
 C108 C 0.52855 0.63569 0.29855
 C109 C 0.52370 0.59430 0.23067
 C110 C 0.51591 0.55459 0.25530
 N111 N 0.51454 0.55568 0.30006
 H112 H 0.41546 0.40379 0.31027
 H113 H 0.56194 0.48827 0.27812
 H114 H 0.55841 0.42342 0.23315
 H115 H 0.40838 0.33678 0.26554
 H116 H 0.51878 0.59481 0.35749
 H117 H 0.53280 0.66650 0.31660
 H118 H 0.52397 0.59231 0.19506
 H119 H 0.50984 0.52255 0.23847
 C120 C 0.36397 0.46981 0.41437
 C121 C 0.62485 0.51647 0.42100
 C122 C 0.52964 0.63543 0.25224
 C123 C 0.48295 0.37451 0.24564
 C124 C 0.21062 0.46016 0.51287
 N125 N 0.21201 0.46093 0.55759
 N126 N 0.17832 0.46335 0.58075
 C127 C 0.14191 0.46515 0.56014
 N128 N 0.14043 0.46397 0.51536
 N129 N 0.17409 0.46152 0.49218
 C130 C 0.24911 0.46007 0.48729
 N131 N 0.24835 0.46057 0.44257
 N132 N 0.28441 0.46283 0.41941
 C133 C 0.32267 0.46474 0.44003
 N134 N 0.32310 0.46384 0.48481
 N135 N 0.28705 0.46154 0.50798
 C136 C 0.53964 0.78895 0.15371
 N137 N 0.53826 0.82548 0.17439
 N138 N 0.53589 0.85919 0.15120
 C139 C 0.53482 0.85775 0.10642
 N140 N 0.53664 0.82134 0.08581
 N141 N 0.53897 0.78760 0.10899
 C142 C 0.53963 0.75041 0.17930
 N143 N 0.53815 0.71245 0.15861
 N144 N 0.53577 0.67636 0.18180
 C145 C 0.53479 0.67676 0.22657
 N146 N 0.53671 0.71504 0.24719
 N147 N 0.53905 0.75114 0.22402
 C148 C 0.25152 0.79056 0.84663
 N149 N 0.29006 0.82637 0.82603
 N150 N 0.32640 0.86006 0.84928
 C151 C 0.32588 0.85943 0.89416
 N152 N 0.28678 0.82368 0.91457
 N153 N 0.25044 0.78994 0.89133
 C154 C 0.21268 0.75196 0.82101
 N155 N 0.17566 0.71447 0.84166
 N156 N 0.14168 0.67830 0.81847
 C157 C 0.14332 0.67815 0.77371
 N158 N 0.18021 0.71597 0.75313
 N159 N 0.21424 0.75214 0.77631
 C160 C 0.77993 0.52000 0.51169
 N161 N 0.77801 0.47796 0.52039
 N162 N 0.81373 0.47721 0.54146
 C163 C 0.85282 0.51845 0.55485
 N164 N 0.85474 0.56063 0.54611
 N165 N 0.81901 0.56142 0.52481
 C166 C 0.73991 0.51996 0.48869
 N167 N 0.74242 0.56131 0.47558
 N168 N 0.70586 0.56044 0.45427
 C169 C 0.66537 0.51822 0.44552
 N170 N 0.66303 0.47704 0.45890
 N171 N 0.69954 0.47788 0.47998
 C172 C 0.47959 0.21951 0.15491
 N173 N 0.52166 0.22145 0.14628
 N174 N 0.52247 0.18578 0.12519
 C175 C 0.48128 0.14669 0.11172
 N176 N 0.43908 0.14474 0.12038
 N177 N 0.43823 0.18043 0.14170
 C178 C 0.47958 0.25950 0.17792
 N179 N 0.43821 0.25696 0.19099
 N180 N 0.43905 0.29350 0.21231
 C181 C 0.48124 0.33400 0.22111
 N182 N 0.52244 0.33636 0.20779
 N183 N 0.52164 0.29987 0.18670
 C184 C -0.26002 0.22037 0.84499
 N185 N -0.30024 0.22209 0.85372
 N186 N -0.33675 0.18634 0.87471
 C187 C -0.33457 0.14738 0.88799
 N188 N -0.29423 0.14565 0.87924
 N189 N -0.25767 0.18142 0.85801
 C190 C -0.22000 0.26041 0.82207
 N191 N -0.18111 0.25804 0.80892
 N192 N -0.14539 0.29460 0.78766
 C193 C -0.14712 0.33497 0.77899
 N194 N -0.18601 0.33717 0.79239
 N195 N -0.22172 0.30066 0.81343
   
