data_POSCAR
  _audit_creation_date              2014-09-24
  _audit_creation_method            'ToBaCCo'
  _symmetry_space_group_name_H-M    'P1'
  _symmetry_Int_Tables_number       1
  _symmetry_cell_setting            triclinic
  loop_
  _symmetry_equiv_pos_as_xyz
 x,y,z
_cell_length_a 35.8383
_cell_length_b 35.4739
_cell_length_c 60.1290
_cell_angle_alpha 89.775000
_cell_angle_beta 90.106400
_cell_angle_gamma 88.298700
loop_
  _atom_site_label
  _atom_site_type_symbol
  _atom_site_fract_x
  _atom_site_fract_y
  _atom_site_fract_z
C1 C 0.02116 0.38494 0.98809
 C2 C 0.02274 0.38459 1.01087
 C3 C 0.00741 0.41888 1.01796
 N4 N -0.00264 0.44047 1.00025
 C5 C 0.00564 0.41967 0.98201
 C6 C 0.00101 0.42929 1.04040
 C7 C -0.00630 0.46752 1.04626
 C8 C -0.02493 0.47935 1.06532
 C9 C -0.02479 0.51803 1.06535
 C10 C -0.00604 0.52896 1.04632
 N11 N 0.00461 0.49798 1.03454
 C12 C 0.00169 0.56679 1.04057
 C13 C 0.00864 0.57717 1.01820
 C14 C 0.02469 0.61038 1.01131
 C15 C 0.02363 0.61057 0.98852
 C16 C 0.00760 0.57722 0.98224
 N17 N -0.00144 0.55673 1.00036
 C18 C -0.00067 0.56716 0.96014
 C19 C -0.00945 0.53006 0.95414
 C20 C -0.02518 0.51973 0.93406
 C21 C -0.02584 0.48096 0.93403
 C22 C -0.01046 0.46881 0.95409
 N23 N -0.00070 0.49889 0.96627
 C24 C -0.00284 0.43084 0.96000
 H25 H 0.03056 0.36234 0.97724
 H26 H 0.03390 0.36165 1.02102
 H27 H 0.01518 0.49804 0.98079
 H28 H -0.03769 0.46192 1.07782
 H29 H -0.03744 0.53608 1.07788
 H30 H 0.03602 0.63223 1.02161
 H31 H 0.03368 0.63263 0.97779
 H32 H -0.03588 0.46369 0.92062
 H33 H 0.02154 0.49752 1.02046
 H34 H -0.03463 0.53816 0.92068
 C35 C 0.38519 0.01982 0.48875
 C36 C 0.38529 0.01932 0.51155
 C37 C 0.42132 0.00913 0.51808
 N38 N 0.44317 0.00325 0.50007
 C39 C 0.42115 0.00987 0.48212
 C40 C 0.43289 0.00333 0.54033
 C41 C 0.47069 -0.00184 0.54678
 C42 C 0.48243 -0.01353 0.56772
 C43 C 0.52067 -0.01195 0.56795
 C44 C 0.53157 0.00014 0.54697
 N45 N 0.50073 0.00656 0.53429
 C46 C 0.56867 0.00868 0.54075
 C47 C 0.57938 0.01498 0.51832
 C48 C 0.61487 0.02450 0.51138
 C49 C 0.61463 0.02385 0.48860
 C50 C 0.57922 0.01355 0.48224
 N51 N 0.55783 0.00797 0.50039
 C52 C 0.56821 0.00669 0.46007
 C53 C 0.53098 0.00011 0.45370
 C54 C 0.52041 -0.01372 0.43315
 C55 C 0.48208 -0.01422 0.43305
 C56 C 0.47026 -0.00078 0.45356
 N57 N 0.50022 0.00809 0.46601
 C58 C 0.43252 0.00467 0.45984
 H59 H 0.36131 0.02655 0.47826
 H60 H 0.36150 0.02563 0.52211
 H61 H 0.49951 0.02259 0.48098
 H62 H 0.46519 -0.02152 0.58163
 H63 H 0.53808 -0.01807 0.58228
 H64 H 0.63897 0.03020 0.52153
 H65 H 0.63814 0.02954 0.47796
 H66 H 0.46487 -0.02341 0.41941
 H67 H 0.49981 0.02040 0.51905
 H68 H 0.53844 -0.02243 0.41957
 C69 C 0.07637 -0.00043 0.26053
 H70 H 0.07859 -0.00026 0.24258
 C71 C 0.10857 0.00047 0.27362
 H72 H 0.13559 0.00085 0.26561
 C73 C 0.03833 -0.00157 0.29269
 H74 H 0.01093 -0.00168 0.30011
 C75 C 0.06975 -0.00071 0.30640
 H76 H 0.06608 -0.00019 0.32427
 N77 N 0.04217 -0.00204 0.27019
 C78 C -0.02933 -0.05472 0.22118
 H79 H -0.05235 -0.03430 0.22066
 C80 C -0.03015 -0.08691 0.20793
 H81 H -0.05376 -0.09080 0.19701
 C82 C 0.02970 -0.07386 0.23581
 H83 H 0.05274 -0.06899 0.24692
 C84 C 0.03004 -0.10644 0.22284
 H85 H 0.05346 -0.12632 0.22413
 Zn86 Zn -0.00033 -0.00358 0.25146
 N87 N 0.00058 -0.04846 0.23447
 C88 C 0.00064 0.03510 0.21002
 N89 N 0.00037 0.03920 0.23250
 C90 C 0.00161 0.07388 0.24199
 C91 C 0.00194 0.10630 0.22873
 C92 C 0.00092 0.06673 0.19615
 C93 C -0.05011 -0.03341 0.28211
 C94 C -0.08169 -0.03457 0.29561
 C95 C -0.10206 0.02593 0.28067
 C96 C -0.07005 0.02595 0.26746
 N97 N -0.04453 -0.00315 0.26870
 H98 H 0.00082 0.00733 0.20274
 H99 H 0.00197 0.07631 0.25992
 H100 H 0.00206 0.13369 0.23661
 H101 H 0.00130 0.06284 0.17830
 H102 H -0.02970 -0.05650 0.28245
 H103 H -0.08555 -0.05888 0.30621
 H104 H -0.12156 0.04980 0.27988
 H105 H -0.06560 0.04936 0.25635
 C106 C -0.00002 -0.11314 0.20850
 C107 C 0.10550 0.00002 0.29691
 C108 C -0.10802 -0.00446 0.29516
 C109 C 0.00128 0.10296 0.20547
 C110 C -0.00318 0.07734 0.75777
 H111 H -0.00319 0.08011 0.73984
 C112 C -0.00493 0.10955 0.77107
 H113 H -0.00647 0.13709 0.76324
 C114 C -0.00225 0.03794 0.78968
 H115 H -0.00170 0.01004 0.79692
 C116 C -0.00406 0.06934 0.80359
 H117 H -0.00402 0.06513 0.82143
 N118 N -0.00133 0.04244 0.76721
 C119 C 0.05161 -0.03088 0.71760
 H120 H 0.03176 -0.05326 0.71708
 C121 C 0.08335 -0.03280 0.70418
 H122 H 0.08789 -0.05696 0.69347
 C123 C 0.06998 0.02740 0.73258
 H124 H 0.06487 0.05068 0.74379
 C125 C 0.10212 0.02661 0.71947
 H126 H 0.12102 0.04980 0.72043
 Zn127 Zn 0.00077 -0.00002 0.74818
 N128 N 0.04517 -0.00077 0.73112
 C129 C -0.03768 0.00424 0.70681
 N130 N -0.04160 0.00336 0.72930
 C131 C -0.07588 0.00597 0.73893
 C132 C -0.10806 0.00838 0.72580
 C133 C -0.06909 0.00670 0.69306
 C134 C 0.03049 -0.05263 0.77866
 C135 C 0.03167 -0.08489 0.79204
 C136 C -0.02775 -0.10210 0.77667
 C137 C -0.02779 -0.06950 0.76358
 N138 N 0.00073 -0.04517 0.76511
 H139 H -0.01024 0.00306 0.69943
 H140 H -0.07817 0.00596 0.75687
 H141 H -0.13510 0.01046 0.73377
 H142 H -0.06538 0.00655 0.67519
 H143 H 0.05303 -0.03304 0.77933
 H144 H 0.05508 -0.08968 0.80321
 H145 H -0.05073 -0.12109 0.77526
 H146 H -0.05068 -0.06372 0.75226
 C147 C 0.10894 -0.00359 0.70484
 C148 C -0.00526 0.10576 0.79433
 C149 C 0.00207 -0.10994 0.79133
 C150 C -0.10490 0.00859 0.70252
 C151 C -0.01713 -0.34196 0.07017
 C152 C 0.00020 -0.34917 0.09066
 C153 C 0.01768 -0.38431 0.09470
 C154 C 0.01803 -0.41209 0.07826
 C155 C 0.00103 -0.40513 0.05738
 C156 C -0.01681 -0.36962 0.05370
 C157 C 0.00033 -0.32023 0.10737
 C158 C 0.00040 -0.29552 0.12107
 C159 C 0.00046 -0.26606 0.13678
 C160 C 0.00051 -0.24047 0.14991
 C161 C 0.00062 -0.20942 0.16525
 C162 C 0.03350 -0.19006 0.16896
 C163 C 0.03339 -0.15903 0.18322
 C164 C 0.00032 -0.14690 0.19395
 C165 C -0.03251 -0.16679 0.19028
 C166 C -0.03233 -0.19783 0.17601
 H167 H -0.03099 -0.31493 0.06693
 H168 H 0.03130 -0.39014 0.11050
 H169 H 0.03255 -0.43872 0.08167
 H170 H -0.03130 -0.36348 0.03823
 H171 H 0.05912 -0.19867 0.16062
 H172 H 0.05899 -0.14403 0.18546
 H173 H -0.05829 -0.15844 0.19850
 H174 H -0.05794 -0.21263 0.17326
 C175 C -0.01788 0.33872 0.06992
 C176 C 0.00004 0.34427 0.09026
 C177 C 0.01775 0.37819 0.09429
 C178 C 0.01784 0.40635 0.07795
 C179 C 0.00038 0.40096 0.05718
 C180 C -0.01782 0.36676 0.05355
 C181 C 0.00059 0.31479 0.10679
 C182 C 0.00089 0.28951 0.12025
 C183 C 0.00105 0.25924 0.13556
 C184 C 0.00099 0.23285 0.14825
 C185 C 0.00064 0.20072 0.16293
 C186 C 0.02283 0.19959 0.18212
 C187 C 0.02292 0.16791 0.19607
 C188 C 0.00086 0.13693 0.19094
 C189 C -0.02151 0.13851 0.17168
 C190 C -0.02158 0.17018 0.15780
 H191 H -0.03194 0.31268 0.06670
 H192 H 0.03180 0.38273 0.10998
 H193 H 0.03257 0.43195 0.08132
 H194 H -0.03273 0.36194 0.03819
 H195 H 0.04024 0.22303 0.18621
 H196 H 0.04074 0.16738 0.21064
 H197 H -0.03921 0.11538 0.16746
 H198 H -0.03892 0.17079 0.14301
 C199 C 0.35020 -0.02899 0.57380
 C200 C 0.34724 -0.00083 0.59001
 C201 C 0.37270 0.02839 0.59022
 C202 C 0.40083 0.02960 0.57416
 C203 C 0.40367 0.00160 0.55776
 C204 C 0.37831 -0.02782 0.55776
 C205 C 0.31755 -0.00153 0.60608
 C206 C 0.29227 -0.00215 0.61925
 C207 C 0.26220 -0.00290 0.63436
 C208 C 0.23613 -0.00352 0.64698
 C209 C 0.20454 -0.00420 0.66170
 C210 C 0.20786 0.00779 0.68375
 C211 C 0.17688 0.00776 0.69786
 C212 C 0.14215 -0.00430 0.69009
 C213 C 0.13920 -0.01649 0.66793
 C214 C 0.17018 -0.01641 0.65385
 H215 H 0.33063 -0.05168 0.57347
 H216 H 0.37061 0.05035 0.60266
 H217 H 0.42016 0.05249 0.57435
 H218 H 0.38020 -0.04965 0.54523
 H219 H 0.23435 0.01725 0.69000
 H220 H 0.18016 0.01689 0.71490
 H221 H 0.11276 -0.02541 0.66134
 H222 H 0.16726 -0.02561 0.63679
 C223 C -0.36346 -0.02281 0.58450
 C224 C -0.34618 0.01109 0.58931
 C225 C -0.35768 0.04429 0.57830
 C226 C -0.38617 0.04358 0.56242
 C227 C -0.40358 0.00961 0.55738
 C228 C -0.39196 -0.02359 0.56861
 C229 C -0.31598 0.01162 0.60511
 C230 C -0.29034 0.01198 0.61810
 C231 C -0.25993 0.01228 0.63304
 C232 C -0.23363 0.01239 0.64557
 C233 C -0.20185 0.01232 0.66023
 C234 C -0.17072 0.03336 0.65477
 C235 C -0.13934 0.03246 0.66862
 C236 C -0.13866 0.01046 0.68815
 C237 C -0.17026 -0.01029 0.69362
 C238 C -0.20161 -0.00938 0.67973
 H239 H -0.35461 -0.04870 0.59283
 H240 H -0.34442 0.07065 0.58186
 H241 H -0.39464 0.06953 0.55400
 H242 H -0.40449 -0.05023 0.56477
 H243 H -0.17063 0.05030 0.63974
 H244 H -0.11568 0.04915 0.66411
 H245 H -0.17042 -0.02785 0.70838
 H246 H -0.22551 -0.02589 0.68407
 C247 C 0.02433 -0.37818 0.90820
 C248 C 0.00022 -0.34653 0.90989
 C249 C -0.02440 -0.34328 0.92788
 C250 C -0.02484 -0.37147 0.94417
 C251 C -0.00058 -0.40319 0.94263
 C252 C 0.02394 -0.40641 0.92449
 C253 C 0.00096 -0.31712 0.89335
 C254 C 0.00144 -0.29216 0.87970
 C255 C 0.00182 -0.26254 0.86398
 C256 C 0.00195 -0.23690 0.85077
 C257 C 0.00186 -0.20584 0.83529
 C258 C -0.03125 -0.18514 0.83108
 C259 C -0.03126 -0.15423 0.81659
 C260 C 0.00193 -0.14356 0.80613
 C261 C 0.03502 -0.16478 0.81033
 C262 C 0.03495 -0.19571 0.82482
 H263 H 0.04352 -0.38095 0.89436
 H264 H -0.04317 -0.31891 0.92935
 H265 H -0.04400 -0.36860 0.95801
 H266 H 0.04290 -0.43063 0.92308
 H267 H -0.05699 -0.19263 0.83918
 H268 H -0.05707 -0.13817 0.81397
 H269 H 0.06091 -0.15757 0.80233
 H270 H 0.06074 -0.21158 0.82795
 C271 C 0.01905 0.37425 0.90799
 C272 C -0.00602 0.34488 0.91000
 C273 C -0.03034 0.34392 0.92818
 C274 C -0.02949 0.37206 0.94436
 C275 C -0.00424 0.40143 0.94252
 C276 C 0.01994 0.40242 0.92418
 C277 C -0.00638 0.31530 0.89370
 C278 C -0.00671 0.29010 0.88032
 C279 C -0.00710 0.26010 0.86499
 C280 C -0.00742 0.23406 0.85218
 C281 C -0.00773 0.20246 0.83725
 C282 C -0.02913 0.17123 0.84234
 C283 C -0.02865 0.13996 0.82827
 C284 C -0.00669 0.13948 0.80889
 C285 C 0.01441 0.17120 0.80378
 C286 C 0.01391 0.20246 0.81789
 H287 H 0.03804 0.37521 0.89402
 H288 H -0.04981 0.32131 0.92991
 H289 H -0.04839 0.37092 0.95836
 H290 H 0.03967 0.42481 0.92255
 H291 H -0.04604 0.17096 0.85725
 H292 H -0.04560 0.11621 0.83250
 H293 H 0.03192 0.17151 0.78913
 H294 H 0.03069 0.22643 0.81384
 C295 C -0.37355 0.03066 0.40968
 C296 C -0.34597 0.00185 0.41039
 C297 C -0.34682 -0.02568 0.42712
 C298 C -0.37495 -0.02428 0.44318
 C299 C -0.40242 0.00476 0.44269
 C300 C -0.40170 0.03210 0.42576
 C301 C -0.31632 0.00089 0.39427
 C302 C -0.29107 0.00000 0.38105
 C303 C -0.26103 -0.00110 0.36590
 C304 C -0.23498 -0.00207 0.35325
 C305 C -0.20341 -0.00323 0.33848
 C306 C -0.16866 -0.01678 0.34620
 C307 C -0.13773 -0.01741 0.33207
 C308 C -0.14113 -0.00445 0.30999
 C309 C -0.17624 0.00898 0.30235
 C310 C -0.20717 0.00956 0.31652
 H311 H -0.37312 0.05212 0.39683
 H312 H -0.32562 -0.04807 0.42783
 H313 H -0.37522 -0.04564 0.45610
 H314 H -0.42273 0.05466 0.42517
 H315 H -0.16541 -0.02661 0.36319
 H316 H -0.11101 -0.02739 0.33856
 H317 H -0.17986 0.01872 0.28537
 H318 H -0.23396 0.02005 0.31036
 C319 C 0.37324 0.03064 0.40948
 C320 C 0.34683 0.00232 0.40993
 C321 C 0.34893 -0.02566 0.42641
 C322 C 0.37708 -0.02515 0.44251
 C323 C 0.40333 0.00346 0.44231
 C324 C 0.40142 0.03119 0.42559
 C325 C 0.31699 0.00240 0.39388
 C326 C 0.29151 0.00234 0.38077
 C327 C 0.26115 0.00207 0.36580
 C328 C 0.23476 0.00166 0.35335
 C329 C 0.20273 0.00090 0.33890
 C330 C 0.17281 -0.02183 0.34433
 C331 C 0.14130 -0.02223 0.33062
 C332 C 0.13926 0.00017 0.31126
 C333 C 0.16960 0.02275 0.30585
 C334 C 0.20112 0.02313 0.31962
 H335 H 0.37184 0.05245 0.39681
 H336 H 0.32864 -0.04768 0.42693
 H337 H 0.37828 -0.04683 0.45525
 H338 H 0.42148 0.05343 0.42521
 H339 H 0.17380 -0.03921 0.35918
 H340 H 0.11866 -0.04033 0.33507
 H341 H 0.16870 0.04061 0.29121
 H342 H 0.22408 0.04093 0.31530
   
