data_POSCAR
  _audit_creation_date              2014-09-24
  _audit_creation_method            'ToBaCCo'
  _symmetry_space_group_name_H-M    'P1'
  _symmetry_Int_Tables_number       1
  _symmetry_cell_setting            triclinic
  loop_
  _symmetry_equiv_pos_as_xyz
 x,y,z
_cell_length_a 32.1986
_cell_length_b 32.1968
_cell_length_c 32.2776
_cell_angle_alpha 97.585200
_cell_angle_beta 82.281800
_cell_angle_gamma 101.212900
loop_
  _atom_site_label
  _atom_site_type_symbol
  _atom_site_fract_x
  _atom_site_fract_y
  _atom_site_fract_z
O1 O 0.56477 0.52764 0.03937
 O2 O 0.45035 0.51545 0.03093
 O3 O 0.50164 0.46365 0.03842
 O4 O 0.51438 0.57856 0.02895
 O5 O 0.52710 0.56543 -0.03993
 O6 O 0.51362 0.45108 -0.03057
 O7 O 0.46244 0.50300 -0.03799
 O8 O 0.57741 0.51443 -0.02952
 Cu9 Cu 0.50646 0.52252 0.04131
 Cu10 Cu 0.52128 0.50712 -0.04139
 C11 C 0.59071 0.52304 0.00654
 C12 C 0.43665 0.50772 -0.00491
 C13 C 0.50589 0.43774 0.00545
 C14 C 0.52296 0.59160 -0.00726
 O15 O -0.04721 0.54063 0.51998
 O16 O -0.03696 0.42799 0.51094
 O17 O -0.03662 0.48868 0.57198
 O18 O -0.04492 0.47974 0.45806
 O19 O 0.02492 0.49791 0.44617
 O20 O 0.03312 0.50752 0.55948
 O21 O 0.03291 0.44618 0.49908
 O22 O 0.02247 0.55921 0.50749
 Cu23 Cu -0.04844 0.48261 0.51639
 Cu24 Cu 0.03531 0.50467 0.50176
 C25 C -0.01429 0.56935 0.51520
 C26 C -0.00030 0.41778 0.50405
 C27 C -0.00010 0.49900 0.58509
 C28 C -0.01128 0.48711 0.43260
 O29 O 0.49848 0.02542 0.55395
 O30 O 0.50723 0.03250 0.44039
 O31 O 0.44643 0.03333 0.50140
 O32 O 0.55927 0.02207 0.49205
 O33 O 0.54011 -0.04766 0.48050
 O34 O 0.42767 -0.03651 0.49048
 O35 O 0.48783 -0.03722 0.42883
 O36 O 0.47976 -0.04433 0.54298
 Cu37 Cu 0.50488 0.03528 0.49814
 Cu38 Cu 0.48213 -0.04844 0.48465
 C39 C 0.48756 -0.01056 0.56814
 C40 C 0.49829 -0.00090 0.41520
 C41 C 0.41778 0.00027 0.49705
 C42 C 0.56897 -0.01484 0.48465
 C43 C 0.50477 -0.07400 -0.09268
 C44 C 0.49412 -0.03563 -0.09952
 C45 C 0.49085 -0.00342 -0.06609
 C46 C 0.50013 -0.00852 -0.02562
 C47 C 0.51224 -0.04713 -0.01994
 C48 C 0.51336 -0.07993 -0.05287
 C49 C 0.49719 0.02580 0.01049
 C50 C 0.49099 0.01585 0.05252
 C51 C 0.49050 0.04791 0.08626
 C52 C 0.49367 0.09017 0.07878
 C53 C 0.49834 0.10066 0.03758
 C54 C 0.50107 0.06894 0.00362
 H55 H 0.50631 -0.09928 -0.11832
 H56 H 0.48075 0.02517 -0.07201
 H57 H 0.52099 -0.05226 0.00992
 H58 H 0.48651 -0.01671 0.05964
 H59 H 0.49272 0.11492 0.10500
 H60 H 0.50672 0.07842 -0.02786
 C61 C -0.07525 0.50385 1.09110
 C62 C -0.08062 0.51272 1.05122
 C63 C -0.04723 0.51230 1.01872
 C64 C -0.00856 0.50062 1.02492
 C65 C -0.00405 0.49104 1.06543
 C66 C -0.03688 0.49360 1.09843
 C67 C 0.02643 0.49833 0.98930
 C68 C 0.06943 0.50258 0.99678
 C69 C 0.10172 0.50030 0.96319
 C70 C 0.09189 0.49571 0.92179
 C71 C 0.04978 0.49218 0.91375
 C72 C 0.01720 0.49223 0.94709
 H73 H -0.10097 0.50487 1.11644
 H74 H -0.05193 0.52126 0.98880
 H75 H 0.02456 0.48126 1.07172
 H76 H 0.07836 0.50813 1.02843
 H77 H 0.11704 0.49509 0.89585
 H78 H -0.01521 0.48745 0.93952
 C79 C -0.09636 -0.09805 0.49969
 C80 C -0.05643 -0.10355 0.50805
 C81 C -0.02265 -0.06882 0.50947
 C82 C -0.02759 -0.02840 0.50029
 C83 C -0.06802 -0.02395 0.49079
 C84 C -0.10232 -0.05818 0.49163
 C85 C 0.00898 0.00868 0.50057
 C86 C 0.00181 0.05115 0.50582
 C87 C 0.03598 0.08552 0.50488
 C88 C 0.07773 0.07829 0.50097
 C89 C 0.08558 0.03676 0.49687
 C90 C 0.05166 0.00218 0.49553
 H91 H -0.12274 -0.12475 0.49948
 H92 H 0.00717 -0.07387 0.51800
 H93 H -0.07341 0.00585 0.48248
 H94 H -0.03009 0.05816 0.51091
 H95 H 0.10413 0.10499 0.50111
 H96 H 0.05918 -0.02951 0.49028
 C97 C -0.30559 0.53934 1.05477
 C98 C -0.27686 0.53121 1.01945
 C99 C -0.29112 0.52171 0.97959
 C100 C -0.33412 0.51976 0.97515
 C101 C -0.36338 0.52714 1.01062
 C102 C -0.34852 0.53736 1.05044
 C103 C -0.23335 0.53043 1.02465
 C104 C -0.19742 0.52859 1.02987
 C105 C -0.15603 0.52489 1.03680
 C106 C -0.12129 0.52025 1.04321
 H107 H -0.29492 0.54654 1.08579
 H108 H -0.26916 0.51517 0.95206
 H109 H -0.34454 0.51180 0.94409
 H110 H -0.37017 0.54328 1.07837
 C111 C 0.32123 0.51013 1.02552
 C112 C 0.30599 0.50315 0.98616
 C113 C 0.33394 0.49662 0.94977
 C114 C 0.37709 0.49752 0.95263
 C115 C 0.39301 0.50508 0.99209
 C116 C 0.36431 0.51107 1.02855
 C117 C 0.26180 0.50315 0.98304
 C118 C 0.22488 0.50319 0.98002
 C119 C 0.18179 0.50295 0.97562
 C120 C 0.14517 0.50220 0.97074
 H121 H 0.29985 0.51517 1.05391
 H122 H 0.32245 0.49112 0.91912
 H123 H 0.39794 0.49272 0.92384
 H124 H 0.37509 0.51692 1.05952
 C125 C -0.06396 -0.33372 0.52768
 C126 C -0.02812 -0.30193 0.52122
 C127 C 0.01248 -0.31274 0.51366
 C128 C 0.01724 -0.35523 0.51213
 C129 C -0.01870 -0.38769 0.51803
 C130 C -0.05938 -0.37620 0.52617
 C131 C -0.03329 -0.25854 0.52083
 C132 C -0.03814 -0.22251 0.51963
 C133 C -0.04428 -0.18070 0.51705
 C134 C -0.04976 -0.14534 0.51369
 H135 H -0.09556 -0.32574 0.53345
 H136 H 0.04046 -0.28838 0.50849
 H137 H 0.04907 -0.36258 0.50587
 H138 H -0.08787 -0.40002 0.53097
 C139 C 0.04765 0.31809 0.49724
 C140 C 0.01113 0.28707 0.50393
 C141 C -0.02913 0.29858 0.50958
 C142 C -0.03288 0.34102 0.50898
 C143 C 0.00367 0.37256 0.50272
 C144 C 0.04400 0.36057 0.49662
 C145 C 0.01500 0.24349 0.50527
 C146 C 0.01859 0.20708 0.50625
 C147 C 0.02349 0.16457 0.50687
 C148 C 0.02856 0.12842 0.50659
 H149 H 0.07898 0.30949 0.49277
 H150 H -0.05761 0.27481 0.51472
 H151 H -0.06439 0.34917 0.51383
 H152 H 0.07274 0.38406 0.49180
 C153 C 0.47073 -0.05458 -0.32843
 C154 C 0.48008 -0.01738 -0.30105
 C155 C 0.49114 0.02208 -0.31703
 C156 C 0.49325 0.02440 -0.36022
 C157 C 0.48439 -0.01289 -0.38830
 C158 C 0.47279 -0.05243 -0.37169
 C159 C 0.48010 -0.01982 -0.25682
 C160 C 0.48124 -0.02214 -0.22002
 C161 C 0.48401 -0.02556 -0.17735
 C162 C 0.48777 -0.02945 -0.14146
 H163 H 0.46229 -0.08534 -0.31640
 H164 H 0.49861 0.05108 -0.29614
 H165 H 0.50221 0.05547 -0.37154
 H166 H 0.46566 -0.08185 -0.39206
 C167 C 0.50889 0.04737 0.31263
 C168 C 0.49533 0.01163 0.28486
 C169 C 0.48418 -0.02863 0.29932
 C170 C 0.48599 -0.03300 0.34159
 C171 C 0.49894 0.00292 0.36989
 C172 C 0.51070 0.04311 0.35481
 C173 C 0.49247 0.01674 0.24176
 C174 C 0.49050 0.02229 0.20592
 C175 C 0.48905 0.03012 0.16418
 C176 C 0.48892 0.03777 0.12865
 H177 H 0.51767 0.07867 0.30176
 H178 H 0.47368 -0.05653 0.27806
 H179 H 0.47663 -0.06435 0.35222
 H180 H 0.52078 0.07141 0.37572
 C181 C 0.52291 -0.29003 0.01881
 C182 C 0.53228 -0.27606 -0.02123
 C183 C 0.54000 -0.30504 -0.05640
 C184 C 0.53769 -0.34796 -0.05172
 C185 C 0.52754 -0.36252 -0.01172
 C186 C 0.52062 -0.33300 0.02359
 C187 C 0.53164 -0.23260 -0.02674
 C188 C 0.52981 -0.19671 -0.03211
 C189 C 0.52600 -0.15536 -0.03905
 C190 C 0.52118 -0.12062 -0.04529
 H191 H 0.51667 -0.26786 0.04622
 H192 H 0.54709 -0.29459 -0.08755
 H193 H 0.54326 -0.36982 -0.07954
 H194 H 0.51273 -0.34320 0.05479
 C195 C 0.50696 0.32000 -0.02422
 C196 C 0.50062 0.30502 0.01530
 C197 C 0.49484 0.33321 0.05164
 C198 C 0.49587 0.37633 0.04851
 C199 C 0.50273 0.39179 0.00892
 C200 C 0.50800 0.36306 -0.02744
 C201 C 0.50062 0.26087 0.01860
 C202 C 0.50071 0.22397 0.02166
 C203 C 0.50060 0.18089 0.02594
 C204 C 0.50000 0.14422 0.03055
 H205 H 0.51144 0.29846 -0.05256
 H206 H 0.48990 0.32193 0.08241
 H207 H 0.49177 0.39759 0.07709
 H208 H 0.51338 0.37391 -0.05840
 C209 C -0.31096 0.01079 0.48553
 C210 C -0.30050 -0.02996 0.47792
 C211 C -0.33254 -0.06560 0.47153
 C212 C -0.37491 -0.06062 0.47319
 C213 C -0.38588 -0.01984 0.48134
 C214 C -0.35336 0.01587 0.48719
 C215 C -0.25723 -0.03548 0.47829
 C216 C -0.22128 -0.04049 0.47954
 C217 C -0.17953 -0.04663 0.48224
 C218 C -0.14417 -0.05194 0.48576
 H219 H -0.28643 0.03859 0.49066
 H220 H -0.32483 -0.09730 0.46576
 H221 H -0.39913 -0.08877 0.46853
 H222 H -0.36072 0.04767 0.49352
 C223 C 0.31855 0.04894 0.50386
 C224 C 0.28726 0.01255 0.49784
 C225 C 0.29844 -0.02783 0.49272
 C226 C 0.34081 -0.03185 0.49314
 C227 C 0.37262 0.00455 0.49868
 C228 C 0.36098 0.04502 0.50429
 C229 C 0.24377 0.01665 0.49660
 C230 C 0.20738 0.02030 0.49565
 C231 C 0.16486 0.02509 0.49502
 C232 C 0.12864 0.02989 0.49526
 H233 H 0.31021 0.08036 0.50791
 H234 H 0.27445 -0.05621 0.48811
 H235 H 0.34870 -0.06345 0.48869
 H236 H 0.38470 0.07365 0.50856
 C237 C -0.05635 0.47042 1.32767
 C238 C -0.01920 0.47896 1.29987
 C239 C 0.02048 0.48931 1.31537
 C240 C 0.02306 0.49153 1.35850
 C241 C -0.01411 0.48348 1.38680
 C242 C -0.05386 0.47260 1.37087
 C243 C -0.02188 0.47898 1.25572
 C244 C -0.02426 0.48019 1.21896
 C245 C -0.02757 0.48311 1.17632
 C246 C -0.03121 0.48704 1.14043
 H247 H -0.08726 0.46256 1.31602
 H248 H 0.04942 0.49616 1.29416
 H249 H 0.05416 0.49994 1.36970
 H250 H -0.08305 0.46621 1.39179
 C251 C 0.04925 0.50989 0.68692
 C252 C 0.01368 0.49670 0.71516
 C253 C -0.02679 0.48577 0.70128
 C254 C -0.03158 0.48740 0.65910
 C255 C 0.00416 0.49995 0.63032
 C256 C 0.04458 0.51152 0.64482
 C257 C 0.01917 0.49399 0.75817
 C258 C 0.02491 0.49210 0.79394
 C259 C 0.03275 0.49071 0.83565
 C260 C 0.04020 0.49061 0.87122
 H261 H 0.08071 0.51851 0.69736
 H262 H -0.05455 0.47557 0.72293
 H263 H -0.06309 0.47819 0.64890
 H264 H 0.07274 0.52130 0.62352
   
