data_POSCAR
  _audit_creation_date              2014-09-24
  _audit_creation_method            'ToBaCCo'
  _symmetry_space_group_name_H-M    'P1'
  _symmetry_Int_Tables_number       1
  _symmetry_cell_setting            triclinic
  loop_
  _symmetry_equiv_pos_as_xyz
 x,y,z
_cell_length_a 41.6278
_cell_length_b 41.6456
_cell_length_c 12.1808
_cell_angle_alpha 90.025400
_cell_angle_beta 89.989900
_cell_angle_gamma 89.994300
loop_
  _atom_site_label
  _atom_site_type_symbol
  _atom_site_fract_x
  _atom_site_fract_y
  _atom_site_fract_z
O1 O 0.28707 0.21847 0.19040
 O2 O 0.22742 0.28130 0.12949
 O3 O 0.28740 0.28072 0.19124
 O4 O 0.22699 0.21864 0.12935
 O5 O 0.21159 0.21883 0.30234
 O6 O 0.27204 0.28072 0.36447
 O7 O 0.21210 0.28110 0.30279
 O8 O 0.27165 0.21814 0.36357
 Cu9 Cu 0.25868 0.24978 0.14282
 Cu10 Cu 0.24034 0.24969 0.35068
 C11 C 0.28971 0.20765 0.28743
 C12 C 0.20950 0.29193 0.20572
 C13 C 0.29015 0.29125 0.28867
 C14 C 0.20885 0.20812 0.20511
 O15 O 0.78742 0.28043 0.30503
 O16 O 0.72717 0.21835 0.36551
 O17 O 0.78711 0.21813 0.30474
 O18 O 0.72761 0.28097 0.36672
 O19 O 0.71212 0.28088 0.19364
 O20 O 0.77167 0.21803 0.13157
 O21 O 0.71172 0.21861 0.19257
 O22 O 0.77196 0.28069 0.13190
 Cu23 Cu 0.75882 0.24945 0.35295
 Cu24 Cu 0.74038 0.24957 0.14500
 C25 C 0.79003 0.29118 0.20792
 C26 C 0.70904 0.20782 0.28969
 C27 C 0.78963 0.20733 0.20758
 C28 C 0.70964 0.29167 0.29080
 O29 O 0.77292 0.78073 0.87008
 O30 O 0.71206 0.71900 0.80919
 O31 O 0.77224 0.71807 0.86930
 O32 O 0.71280 0.78129 0.80971
 O33 O 0.72788 0.78136 0.63615
 O34 O 0.78737 0.71836 0.69600
 O35 O 0.72722 0.71883 0.63574
 O36 O 0.78797 0.78066 0.69649
 Cu37 Cu 0.74103 0.74978 0.85707
 Cu38 Cu 0.75905 0.74978 0.64886
 C39 C 0.79095 0.79119 0.79387
 C40 C 0.70916 0.70841 0.71189
 C41 C 0.79014 0.70743 0.79291
 C42 C 0.71010 0.79207 0.71259
 O43 O 0.28761 0.78156 0.80846
 O44 O 0.22719 0.71946 0.86818
 O45 O 0.28728 0.71920 0.80822
 O46 O 0.22765 0.78206 0.86944
 O47 O 0.21240 0.78193 0.69625
 O48 O 0.27209 0.71919 0.63488
 O49 O 0.21206 0.71968 0.69465
 O50 O 0.27235 0.78186 0.63512
 Cu51 Cu 0.25890 0.75055 0.85588
 Cu52 Cu 0.24077 0.75071 0.64773
 C53 C 0.29037 0.79231 0.71133
 C54 C 0.20927 0.70896 0.79177
 C55 C 0.28991 0.70844 0.71108
 C56 C 0.20970 0.79278 0.79334
 O57 O 1.03225 -0.03730 0.05673
 O58 O 0.96923 0.02225 0.11620
 O59 O 0.97003 -0.03783 0.05714
 O60 O 1.03189 0.02286 0.11544
 O61 O 1.03146 0.03799 -0.05800
 O62 O 0.96982 -0.02298 -0.11664
 O63 O 0.96917 0.03713 -0.05753
 O64 O 1.03244 -0.02217 -0.11676
 Cu65 Cu 1.00089 -0.00892 0.10396
 Cu66 Cu 1.00071 0.00892 -0.10472
 C67 C 1.04310 -0.03997 -0.04031
 C68 C 0.95841 0.03990 0.03959
 C69 C 0.95942 -0.04088 -0.04004
 C70 C 1.04220 0.04088 0.03908
 O71 O 0.53120 0.46240 0.55872
 O72 O 0.46819 0.52189 0.61935
 O73 O 0.46881 0.46180 0.55851
 O74 O 0.53081 0.52233 0.61961
 O75 O 0.53063 0.53762 0.44634
 O76 O 0.46869 0.47714 0.38528
 O77 O 0.46840 0.53720 0.44609
 O78 O 0.53139 0.47772 0.38549
 Cu79 Cu 0.49975 0.49061 0.60646
 Cu80 Cu 0.49977 0.50887 0.39839
 C81 C 0.54207 0.45985 0.46170
 C82 C 0.45759 0.53982 0.54317
 C83 C 0.45818 0.45906 0.46120
 C84 C 0.54127 0.54038 0.54356
 O85 O -0.03178 0.53759 0.05426
 O86 O 0.03086 0.47770 0.11453
 O87 O 0.03050 0.53775 0.05407
 O88 O -0.03184 0.47748 0.11443
 O89 O -0.03168 0.46229 -0.05895
 O90 O 0.03061 0.52271 -0.11956
 O91 O 0.03071 0.46262 -0.05892
 O92 O -0.03201 0.52240 -0.11924
 Cu93 Cu -0.00058 0.50907 0.10158
 Cu94 Cu -0.00057 0.49103 -0.10645
 C95 C -0.04256 0.54033 -0.04285
 C96 C 0.04146 0.45983 0.03813
 C97 C 0.04114 0.54064 -0.04315
 C98 C -0.04238 0.45948 0.03827
 O99 O 0.46922 1.03793 0.55546
 O100 O 0.53200 0.97839 0.61824
 O101 O 0.53150 1.03834 0.55572
 O102 O 0.46932 0.97804 0.61774
 O103 O 0.46953 0.96252 0.44468
 O104 O 0.53194 1.02265 0.38282
 O105 O 0.53190 0.96276 0.44528
 O106 O 0.46930 1.02245 0.38225
 Cu107 Cu 0.50051 1.00966 0.60401
 Cu108 Cu 0.50069 0.99106 0.39646
 C109 C 0.45860 1.04050 0.45808
 C110 C 0.54261 0.96028 0.54252
 C111 C 0.54231 1.04090 0.45859
 C112 C 0.45877 0.95993 0.54189
 C113 C 1.13861 0.13729 0.13448
 C114 C 1.14128 0.15037 0.24044
 C115 C 1.16450 0.17362 0.26381
 C116 C 1.18558 0.18457 0.18151
 C117 C 1.18278 0.17154 0.07520
 C118 C 1.15966 0.14813 0.05220
 C119 C 1.11389 0.11250 0.10994
 C120 C 1.10616 0.08881 0.18786
 C121 C 1.08279 0.06566 0.16515
 C122 C 1.06684 0.06545 0.06352
 C123 C 1.07461 0.08900 -0.01461
 C124 C 1.09776 0.11233 0.00850
 H125 H 1.16560 0.18318 0.34641
 H126 H 1.19852 0.17921 0.00938
 H127 H 1.07743 0.04777 0.22704
 H128 H 1.06256 0.08961 -0.09338
 H129 H 1.15858 0.13825 -0.02997
 H130 H 1.11848 0.08787 0.26606
 H131 H 1.12505 0.14304 0.30515
 H132 H 1.10271 0.13046 -0.05291
 C133 C 0.63754 0.63677 0.63990
 C134 C 0.63874 0.65145 0.74373
 C135 C 0.66202 0.67465 0.76723
 C136 C 0.68453 0.68380 0.68713
 C137 C 0.68328 0.66921 0.58320
 C138 C 0.66010 0.64590 0.55988
 C139 C 0.61284 0.61201 0.61529
 C140 C 0.60390 0.58934 0.69517
 C141 C 0.58063 0.56611 0.67202
 C142 C 0.56592 0.56494 0.56829
 C143 C 0.57488 0.58755 0.48835
 C144 C 0.59800 0.61089 0.51171
 H145 H 0.66220 0.68553 0.84807
 H146 H 0.70039 0.67562 0.52003
 H147 H 0.57435 0.54893 0.73518
 H148 H 0.56386 0.58742 0.40778
 H149 H 0.66016 0.63470 0.47962
 H150 H 0.61519 0.58923 0.77526
 H151 H 0.62142 0.64531 0.80657
 H152 H 0.60391 0.62833 0.44901
 C153 C -0.13887 0.36319 0.13569
 C154 C -0.13985 0.34839 0.23935
 C155 C -0.16304 0.32514 0.26293
 C156 C -0.18562 0.31599 0.18314
 C157 C -0.18455 0.33060 0.07926
 C158 C -0.16148 0.35398 0.05589
 C159 C -0.11426 0.38801 0.11068
 C160 C -0.09958 0.38916 0.00685
 C161 C -0.07635 0.41240 -0.01682
 C162 C -0.06718 0.43498 0.06304
 C163 C -0.08186 0.43384 0.16687
 C164 C -0.10521 0.41070 0.19033
 H165 H -0.16308 0.31412 0.34342
 H166 H -0.20165 0.32411 0.01600
 H167 H -0.06543 0.41247 -0.09757
 H168 H -0.07544 0.45098 0.22997
 H169 H -0.16161 0.36509 -0.02444
 H170 H -0.10573 0.37178 -0.05582
 H171 H -0.12234 0.35438 0.30177
 H172 H -0.11646 0.41082 0.27051
 C173 C 0.36182 0.86412 0.63968
 C174 C 0.33910 0.85514 0.55996
 C175 C 0.31596 0.83179 0.58305
 C176 C 0.31486 0.81703 0.68668
 C177 C 0.33750 0.82603 0.76652
 C178 C 0.36076 0.84926 0.74322
 C179 C 0.38662 0.88877 0.61461
 C180 C 0.40127 0.88988 0.51064
 C181 C 0.42456 0.91304 0.48701
 C182 C 0.43387 0.93556 0.56688
 C183 C 0.41922 0.93449 0.67079
 C184 C 0.39582 0.91140 0.69427
 H185 H 0.29880 0.82544 0.51983
 H186 H 0.33743 0.81495 0.84696
 H187 H 0.43548 0.91310 0.40634
 H188 H 0.42567 0.95163 0.73391
 H189 H 0.37818 0.85523 0.80593
 H190 H 0.39508 0.87255 0.44780
 H191 H 0.33894 0.86643 0.47993
 H192 H 0.38459 0.91157 0.77442
 C193 C -0.13977 0.63615 -0.13823
 C194 C -0.16082 0.64698 -0.05589
 C195 C -0.18390 0.67045 -0.07854
 C196 C -0.18676 0.68361 -0.18449
 C197 C -0.16580 0.67257 -0.26713
 C198 C -0.14256 0.64928 -0.24411
 C199 C -0.11491 0.61144 -0.11360
 C200 C -0.10710 0.58766 -0.19121
 C201 C -0.08357 0.56464 -0.16837
 C202 C -0.06751 0.56465 -0.06704
 C203 C -0.07552 0.58813 0.01116
 C204 C -0.09882 0.61134 -0.01201
 H205 H -0.19957 0.67817 -0.01269
 H206 H -0.16702 0.68214 -0.34971
 H207 H -0.07820 0.54656 -0.22950
 H208 H -0.06356 0.58877 0.09008
 H209 H -0.12638 0.64194 -0.30902
 H210 H -0.11956 0.58650 -0.26897
 H211 H -0.15970 0.63710 0.02624
 H212 H -0.10387 0.62947 0.04932
 C213 C 0.36131 1.13588 0.35939
 C214 C 0.36012 1.15054 0.25547
 C215 C 0.33678 1.17370 0.23191
 C216 C 0.31419 1.18282 0.31185
 C217 C 0.31532 1.16813 0.41547
 C218 C 0.33854 1.14486 0.43886
 C219 C 0.38622 1.11134 0.38489
 C220 C 0.40091 1.11042 0.48879
 C221 C 0.42434 1.08739 0.51253
 C222 C 0.43369 1.06481 0.43291
 C223 C 0.41905 1.06573 0.32912
 C224 C 0.39552 1.08866 0.30552
 H225 H 0.33662 1.18459 0.15116
 H226 H 0.29808 1.17446 0.47827
 H227 H 0.43526 1.08743 0.59324
 H228 H 0.42559 1.04853 0.26637
 H229 H 0.33836 1.13356 0.51881
 H230 H 0.39462 1.12775 0.55153
 H231 H 0.37746 1.14445 0.19251
 H232 H 0.38429 1.08834 0.22542
 C233 C 1.14039 -0.13549 -0.13649
 C234 C 1.14298 -0.14850 -0.24262
 C235 C 1.16593 -0.17203 -0.26609
 C236 C 1.18679 -0.18336 -0.18359
 C237 C 1.18408 -0.17032 -0.07733
 C238 C 1.16124 -0.14669 -0.05421
 C239 C 1.11576 -0.11065 -0.11127
 C240 C 1.10804 -0.08678 -0.18853
 C241 C 1.08444 -0.06386 -0.16558
 C242 C 1.06824 -0.06407 -0.06443
 C243 C 1.07620 -0.08764 0.01341
 C244 C 1.09960 -0.11072 -0.00984
 H245 H 1.16701 -0.18153 -0.34888
 H246 H 1.19964 -0.17827 -0.01145
 H247 H 1.07902 -0.04584 -0.22687
 H248 H 1.06401 -0.08855 0.09188
 H249 H 1.16013 -0.13706 0.02838
 H250 H 1.12048 -0.08558 -0.26646
 H251 H 1.12684 -0.14093 -0.30723
 H252 H 1.10460 -0.12895 0.05117
 C253 C 0.63899 0.36415 0.36401
 C254 C 0.66171 0.35492 0.44333
 C255 C 0.68469 0.33147 0.41945
 C256 C 0.68554 0.31677 0.31564
 C257 C 0.66297 0.32610 0.23602
 C258 C 0.63991 0.34947 0.26006
 C259 C 0.61438 0.38893 0.38957
 C260 C 0.59972 0.39004 0.49356
 C261 C 0.57645 0.41323 0.51718
 C262 C 0.56718 0.43572 0.43725
 C263 C 0.58188 0.43469 0.33344
 C264 C 0.60526 0.41160 0.30997
 H265 H 0.70182 0.32491 0.48252
 H266 H 0.66283 0.31508 0.15545
 H267 H 0.56542 0.41326 0.59771
 H268 H 0.57542 0.45179 0.27019
 H269 H 0.62244 0.35563 0.19772
 H270 H 0.60581 0.37264 0.55624
 H271 H 0.66196 0.36604 0.52374
 H272 H 0.61643 0.41173 0.22969
 C273 C 0.86295 -0.13737 -0.13442
 C274 C 0.84042 -0.14646 -0.05421
 C275 C 0.81713 -0.16972 -0.07727
 C276 C 0.81570 -0.18428 -0.18127
 C277 C 0.83826 -0.17526 -0.26135
 C278 C 0.86164 -0.15214 -0.23811
 C279 C 0.88774 -0.11261 -0.11023
 C280 C 0.89675 -0.09007 -0.19049
 C281 C 0.92010 -0.06688 -0.16785
 C282 C 0.93482 -0.06554 -0.06422
 C283 C 0.92590 -0.08807 0.01604
 C284 C 0.90269 -0.11138 -0.00683
 H285 H 0.80009 -0.17611 -0.01376
 H286 H 0.83804 -0.18623 -0.34196
 H287 H 0.92644 -0.04983 -0.23135
 H288 H 0.93704 -0.08787 0.09639
 H289 H 0.87898 -0.14613 -0.30105
 H290 H 0.88548 -0.09006 -0.27058
 H291 H 0.84048 -0.13528 0.02607
 H292 H 0.89678 -0.12876 0.05600
 C293 C 0.36164 0.36293 0.36249
 C294 C 0.33888 0.35381 0.44191
 C295 C 0.31576 0.33046 0.41803
 C296 C 0.31472 0.31589 0.31407
 C297 C 0.33740 0.32504 0.23458
 C298 C 0.36066 0.34821 0.25870
 C299 C 0.38636 0.38765 0.38766
 C300 C 0.39560 0.41028 0.30804
 C301 C 0.41893 0.43342 0.33191
 C302 C 0.43344 0.43455 0.43598
 C303 C 0.42419 0.41196 0.51559
 C304 C 0.40101 0.38871 0.49150
 H305 H 0.29850 0.32402 0.48066
 H306 H 0.33736 0.31419 0.15371
 H307 H 0.42542 0.45058 0.26905
 H308 H 0.43502 0.41206 0.59644
 H309 H 0.37814 0.35430 0.19631
 H310 H 0.38453 0.41039 0.22760
 H311 H 0.33860 0.36505 0.52208
 H312 H 0.39489 0.37124 0.55376
 C313 C 0.13819 0.63663 -0.13796
 C314 C 0.16072 0.64574 -0.05779
 C315 C 0.18377 0.66925 -0.08049
 C316 C 0.18492 0.68403 -0.18403
 C317 C 0.16255 0.67483 -0.26440
 C318 C 0.13940 0.65146 -0.24151
 C319 C 0.11336 0.61191 -0.11364
 C320 C 0.09842 0.61081 -0.01021
 C321 C 0.07507 0.58763 0.01286
 C322 C 0.06597 0.56514 -0.06737
 C323 C 0.08079 0.56627 -0.17088
 C324 C 0.10425 0.58936 -0.19377
 H325 H 0.20080 0.67570 -0.01702
 H326 H 0.16269 0.68593 -0.34473
 H327 H 0.06395 0.58755 0.09330
 H328 H 0.07444 0.54913 -0.23398
 H329 H 0.12207 0.64542 -0.30434
 H330 H 0.10441 0.62823 0.05238
 H331 H 0.16079 0.63447 0.02227
 H332 H 0.11555 0.58924 -0.27384
 C333 C 0.63908 1.13687 0.36102
 C334 C 0.66015 1.14782 0.44308
 C335 C 0.68318 1.17126 0.41976
 C336 C 0.68591 1.18421 0.31334
 C337 C 0.66485 1.17311 0.23123
 C338 C 0.64169 1.14985 0.25496
 C339 C 0.61431 1.11219 0.38609
 C340 C 0.59811 1.11237 0.48740
 C341 C 0.57488 1.08915 0.51117
 C342 C 0.56707 1.06537 0.43368
 C343 C 0.58311 1.06526 0.33220
 C344 C 0.60656 1.08830 0.30887
 H345 H 0.69883 1.17911 0.48564
 H346 H 0.66592 1.18261 0.14856
 H347 H 0.56282 1.09005 0.58994
 H348 H 0.57778 1.04714 0.27114
 H349 H 0.62543 1.14244 0.19047
 H350 H 0.60303 1.13079 0.54778
 H351 H 0.65908 1.13808 0.52550
 H352 H 0.61889 1.08716 0.23067
 C353 C 0.13807 0.36376 0.13426
 C354 C 0.13939 0.34918 0.23831
 C355 C 0.16276 0.32609 0.26162
 C356 C 0.18523 0.31692 0.18138
 C357 C 0.18403 0.33159 0.07760
 C358 C 0.16074 0.35478 0.05443
 C359 C 0.11331 0.38840 0.10925
 C360 C 0.10443 0.41116 0.18889
 C361 C 0.08114 0.43434 0.16576
 C362 C 0.06634 0.43544 0.06223
 C363 C 0.07537 0.41286 -0.01789
 C364 C 0.09852 0.38952 0.00547
 H365 H 0.16298 0.31518 0.34225
 H366 H 0.20113 0.32527 0.01410
 H367 H 0.07491 0.45158 0.22877
 H368 H 0.06437 0.41300 -0.09851
 H369 H 0.16074 0.36598 -0.02574
 H370 H 0.11584 0.41135 0.26875
 H371 H 0.12208 0.35523 0.30146
 H372 H 0.10451 0.37213 -0.05745
 C373 C 0.63926 0.86444 0.64108
 C374 C 0.64042 0.84988 0.74512
 C375 C 0.66356 0.82655 0.76854
 C376 C 0.68593 0.81715 0.68829
 C377 C 0.68485 0.83178 0.58448
 C378 C 0.66183 0.85522 0.56127
 C379 C 0.61456 0.88913 0.61571
 C380 C 0.60562 0.91200 0.69491
 C381 C 0.58227 0.93510 0.67121
 C382 C 0.56748 0.93595 0.56761
 C383 C 0.57655 0.91322 0.48813
 C384 C 0.59976 0.89001 0.51200
 H385 H 0.66369 0.81564 0.84921
 H386 H 0.70192 0.82527 0.52120
 H387 H 0.57597 0.95246 0.73375
 H388 H 0.56555 0.91315 0.40752
 H389 H 0.66196 0.86642 0.48114
 H390 H 0.61696 0.91232 0.77489
 H391 H 0.62313 0.85611 0.80802
 H392 H 0.60577 0.87247 0.44967
 C393 C 0.86054 0.13491 0.13557
 C394 C 0.85950 0.14972 0.23930
 C395 C 0.83633 0.17301 0.26282
 C396 C 0.81378 0.18223 0.18293
 C397 C 0.81469 0.16735 0.07942
 C398 C 0.83777 0.14392 0.05608
 C399 C 0.88538 0.11027 0.11039
 C400 C 0.90009 0.10917 0.00652
 C401 C 0.92367 0.08624 -0.01672
 C402 C 0.93318 0.06397 0.06365
 C403 C 0.91841 0.06496 0.16725
 C404 C 0.89472 0.08778 0.19028
 H405 H 0.83629 0.18401 0.34348
 H406 H 0.79743 0.17367 0.01653
 H407 H 0.93459 0.08613 -0.09752
 H408 H 0.92502 0.04794 0.23044
 H409 H 0.83753 0.13260 -0.02393
 H410 H 0.89374 0.12635 -0.05653
 H411 H 0.87693 0.14369 0.30197
 H412 H 0.88346 0.08755 0.27038
 C413 C 0.36042 0.63554 0.63954
 C414 C 0.35959 0.65052 0.74294
 C415 C 0.33658 0.67400 0.76639
 C416 C 0.31403 0.68324 0.68660
 C417 C 0.31480 0.66828 0.58324
 C418 C 0.33769 0.64463 0.56001
 C419 C 0.38510 0.61071 0.61467
 C420 C 0.39965 0.60942 0.51062
 C421 C 0.42300 0.58629 0.48710
 C422 C 0.43252 0.56406 0.56755
 C423 C 0.41793 0.56523 0.67142
 C424 C 0.39441 0.58825 0.69470
 H425 H 0.33669 0.68511 0.84683
 H426 H 0.29756 0.67467 0.52048
 H427 H 0.43370 0.58600 0.40595
 H428 H 0.42451 0.54818 0.73447
 H429 H 0.33732 0.63321 0.48013
 H430 H 0.39332 0.62660 0.44761
 H431 H 0.37707 0.64447 0.80534
 H432 H 0.38325 0.58815 0.77498
   
