data_POSCAR
  _audit_creation_date              2014-09-24
  _audit_creation_method            'ToBaCCo'
  _symmetry_space_group_name_H-M    'P1'
  _symmetry_Int_Tables_number       1
  _symmetry_cell_setting            triclinic
  loop_
  _symmetry_equiv_pos_as_xyz
 x,y,z
_cell_length_a 35.5922
_cell_length_b 37.1229
_cell_length_c 70.1508
_cell_angle_alpha 87.523000
_cell_angle_beta 92.639700
_cell_angle_gamma 119.964000
loop_
  _atom_site_label
  _atom_site_type_symbol
  _atom_site_fract_x
  _atom_site_fract_y
  _atom_site_fract_z
C1 C 0.02695 0.07767 0.53222
 H2 H 0.05666 0.07633 0.53285
 C3 C 0.02371 0.10676 0.54289
 H4 H 0.05086 0.12721 0.55202
 C5 C -0.04414 0.05291 0.51921
 H6 H -0.07000 0.03258 0.50956
 C7 C -0.04876 0.08169 0.52963
 H8 H -0.07834 0.08317 0.52790
 N9 N -0.00657 0.05166 0.52062
 C10 C 0.02064 -0.04796 0.51036
 H11 H 0.02297 -0.04556 0.49499
 C12 C 0.02225 -0.08053 0.52037
 H13 H 0.02593 -0.10306 0.51256
 C14 C 0.00973 -0.02316 0.53897
 H15 H 0.00356 -0.00151 0.54611
 C16 C 0.01103 -0.05530 0.54953
 H17 H 0.00687 -0.05742 0.56481
 Zn18 Zn 0.00433 0.01809 0.50485
 N19 N 0.01417 -0.02029 0.51972
 C20 C 0.09008 0.05265 0.49044
 N21 N 0.05316 0.05504 0.49056
 C22 C 0.05020 0.08635 0.48115
 C23 C 0.08523 0.11703 0.47113
 C24 C 0.12595 0.08267 0.48042
 C25 C -0.08058 -0.04379 0.49629
 C26 C -0.11511 -0.07208 0.48486
 C27 C -0.07326 -0.03707 0.45708
 C28 C -0.03959 -0.00961 0.46911
 N29 N -0.04359 -0.01372 0.48833
 H30 H 0.09204 0.02797 0.49832
 H31 H 0.02057 0.08765 0.48166
 H32 H 0.08214 0.14166 0.46371
 H33 H 0.15537 0.08080 0.48064
 H34 H -0.08254 -0.04690 0.51168
 H35 H -0.14224 -0.09675 0.49229
 H36 H -0.06841 -0.03108 0.44194
 H37 H -0.00981 0.01440 0.46300
 C38 C 0.01664 -0.08492 0.54019
 C39 C -0.01425 0.10954 0.54146
 C40 C -0.11197 -0.07021 0.46469
 C41 C 0.12384 0.11561 0.47078
 C42 C 1.08788 0.02719 0.14666
 H43 H 1.08970 0.05718 0.14652
 C44 C 1.11609 0.02140 0.13573
 H45 H 1.13982 0.04727 0.12730
 C46 C 1.05560 -0.04240 0.15846
 H47 H 1.03234 -0.06699 0.16752
 C48 C 1.08332 -0.04955 0.14775
 H49 H 1.08055 -0.07998 0.14843
 N50 N 1.05812 -0.00457 0.15757
 C51 C 0.95678 0.02667 0.16430
 H52 H 0.95627 0.02698 0.17970
 C53 C 0.92624 0.03186 0.15314
 H54 H 0.90218 0.03599 0.16010
 C55 C 0.98719 0.01821 0.13666
 H56 H 1.01026 0.01187 0.13029
 C57 C 0.95733 0.02336 0.12496
 H58 H 0.95852 0.02189 0.10963
 Zn59 Zn 1.02265 0.00760 0.17218
 N60 N 0.98632 0.01982 0.15596
 C61 C 1.06039 0.09031 0.18551
 N62 N 1.06038 0.05367 0.18721
 C63 C 1.08966 0.04950 0.19884
 C64 C 1.12046 0.08296 0.20948
 C65 C 1.09079 0.12468 0.19585
 C66 C 0.95535 -0.07342 0.17888
 C67 C 0.92458 -0.10727 0.18945
 C68 C 0.95662 -0.06859 0.21821
 C69 C 0.98684 -0.03547 0.20708
 N70 N 0.98566 -0.03846 0.18778
 H71 H 1.03740 0.09321 0.17590
 H72 H 1.08941 0.02021 0.19962
 H73 H 1.14400 0.07921 0.21839
 H74 H 1.09036 0.15362 0.19436
 H75 H 0.95470 -0.07468 0.16348
 H76 H 0.90082 -0.13486 0.18207
 H77 H 0.95738 -0.06519 0.23350
 H78 H 1.01036 -0.00701 0.21386
 C79 C 0.92592 0.02973 0.13318
 C80 C 1.11400 -0.01741 0.13615
 C81 C 0.92467 -0.10498 0.20939
 C82 C 1.12149 0.12128 0.20797
 C83 C 0.02073 0.95910 0.85049
 H84 H -0.00827 0.92883 0.85011
 C85 C 0.05616 0.96516 0.86212
 H86 H 0.05420 0.93922 0.87060
 C87 C 0.05902 1.02895 0.83905
 H88 H 0.06026 1.05345 0.82974
 C89 C 0.09535 1.03636 0.85045
 H90 H 0.12402 1.06691 0.85008
 N91 N 0.02268 0.99076 0.83930
 C92 C -0.11331 0.95145 0.82684
 H93 H -0.11387 0.95057 0.81143
 C94 C -0.15050 0.94355 0.83623
 H95 H -0.17958 0.93490 0.82760
 C96 C -0.07410 0.96290 0.85620
 H97 H -0.04382 0.97189 0.86390
 C98 C -0.11048 0.95531 0.86621
 H99 H -0.10644 0.95940 0.88147
 Zn100 Zn -0.02575 0.97752 0.82279
 N101 N -0.07607 0.96110 0.83687
 C102 C -0.06856 0.89616 0.80718
 N103 N -0.03218 0.93431 0.80729
 C104 C 0.00267 0.94266 0.79688
 C105 C 0.00159 0.91230 0.78549
 C106 C -0.07094 0.86471 0.79604
 C107 C -0.01263 1.05782 0.81653
 C108 C -0.01039 1.09158 0.80599
 C109 C -0.01813 1.05518 0.77705
 C110 C -0.02008 1.02217 0.78814
 N111 N -0.01737 1.02404 0.80751
 H112 H -0.09553 0.88988 0.81589
 H113 H 0.03148 0.97304 0.79755
 H114 H 0.02989 0.91947 0.77748
 H115 H -0.10019 0.83456 0.79601
 H116 H -0.01158 1.05806 0.83196
 H117 H -0.00761 1.11779 0.81344
 H118 H -0.02049 1.05308 0.76165
 H119 H -0.02499 0.99466 0.78122
 C120 C -0.14967 0.94614 0.85631
 C121 C 0.09426 1.00412 0.86211
 C122 C -0.01362 1.09032 0.78597
 C123 C -0.03554 0.87268 0.78498
 C124 C 0.49626 -0.01572 0.00633
 C125 C 0.49233 -0.01893 -0.01304
 C126 C 0.45730 -0.01579 -0.02404
 C127 C 0.52258 -0.02607 -0.02409
 C128 C 0.53498 -0.01196 0.01710
 C129 C 0.46185 -0.01598 0.01767
 C130 C 0.42990 -0.04717 -0.03666
 C131 C 0.39593 -0.04522 -0.04653
 C132 C 0.38892 -0.01164 -0.04407
 C133 C 0.41718 0.02033 -0.03181
 C134 C 0.45116 0.01836 -0.02196
 C135 C 0.53003 -0.05912 -0.01920
 C136 C 0.55914 -0.06513 -0.02943
 C137 C 0.58101 -0.03851 -0.04490
 C138 C 0.57273 -0.00601 -0.05002
 C139 C 0.54369 0.00003 -0.03975
 C140 C 0.57703 0.01859 0.01201
 C141 C 0.61323 0.02153 0.02208
 C142 C 0.60805 -0.00574 0.03757
 C143 C 0.56586 -0.03570 0.04288
 C144 C 0.52971 -0.03868 0.03278
 C145 C 0.47247 0.01604 0.03041
 C146 C 0.44019 0.01649 0.04083
 C147 C 0.39671 -0.01531 0.03883
 C148 C 0.38633 -0.04787 0.02637
 C149 C 0.41863 -0.04829 0.01595
 H150 H 0.43435 -0.07358 -0.03860
 H151 H 0.37519 -0.06995 -0.05613
 H152 H 0.41249 0.04646 -0.02951
 H153 H 0.47243 0.04329 -0.01254
 H154 H 0.51330 -0.08023 -0.00744
 H155 H 0.56423 -0.09087 -0.02536
 H156 H 0.53826 0.02559 -0.04380
 H157 H 0.58181 0.04005 0.00018
 H158 H 0.64527 0.04475 0.01755
 H159 H 0.56078 -0.05668 0.05495
 H160 H 0.49755 -0.06218 0.03706
 H161 H 0.50569 0.04102 0.03207
 H162 H 0.44929 0.04161 0.05055
 H163 H 0.35312 -0.07265 0.02441
 H164 H 0.40989 -0.07369 0.00645
 H165 H 0.58940 0.01528 -0.06173
 C166 C -0.00690 0.49927 0.67362
 C167 C -0.00175 0.50256 0.65436
 C168 C 0.00211 0.47074 0.64386
 C169 C 0.00068 0.53817 0.64285
 C170 C -0.00890 0.53176 0.68443
 C171 C -0.01000 0.46325 0.68503
 C172 C 0.03522 0.46153 0.64853
 C173 C 0.03678 0.42969 0.63930
 C174 C 0.00541 0.40671 0.62516
 C175 C -0.02688 0.41694 0.62013
 C176 C -0.02836 0.44881 0.62933
 C177 C 0.03660 0.56214 0.63141
 C178 C 0.04058 0.59694 0.62120
 C179 C 0.00858 0.60843 0.62216
 C180 C -0.02808 0.58358 0.63318
 C181 C -0.03212 0.54862 0.64333
 C182 C -0.04475 0.52064 0.69573
 C183 C -0.04741 0.55067 0.70596
 C184 C -0.01408 0.59244 0.70519
 C185 C 0.02214 0.60344 0.69405
 C186 C 0.02483 0.57331 0.68385
 C187 C -0.04145 0.42224 0.68063
 C188 C -0.04245 0.38877 0.69101
 C189 C -0.01256 0.39578 0.70619
 C190 C 0.01794 0.43690 0.71093
 C191 C 0.01915 0.47028 0.70046
 H192 H 0.05935 0.47851 0.65955
 H193 H 0.06191 0.42240 0.64354
 H194 H -0.05102 0.40027 0.60907
 H195 H -0.05392 0.45574 0.62545
 H196 H 0.06203 0.55434 0.63069
 H197 H 0.06873 0.61487 0.61253
 H198 H -0.06052 0.53007 0.65179
 H199 H -0.07100 0.48870 0.69642
 H200 H -0.07591 0.54131 0.71425
 H201 H 0.04866 0.63523 0.69344
 H202 H 0.05322 0.58234 0.67553
 H203 H -0.06490 0.41617 0.66905
 H204 H -0.06673 0.35740 0.68725
 H205 H 0.04159 0.44323 0.72245
 H206 H 0.04353 0.50169 0.70413
 H207 H -0.05320 0.59166 0.63430
 C208 C 0.51201 0.51653 0.34940
 C209 C 0.51475 0.51458 0.33019
 C210 C 0.54888 0.54953 0.31894
 C211 C 0.48332 0.47736 0.31938
 C212 C 0.47625 0.48245 0.36037
 C213 C 0.54450 0.55275 0.36051
 C214 C 0.55471 0.58979 0.31940
 C215 C 0.58754 0.62243 0.30898
 C216 C 0.61480 0.61530 0.29773
 C217 C 0.60817 0.57472 0.29700
 C218 C 0.57547 0.54219 0.30746
 C219 C 0.45814 0.48146 0.30441
 C220 C 0.42667 0.44647 0.29480
 C221 C 0.42008 0.40667 0.29984
 C222 C 0.44635 0.40285 0.31449
 C223 C 0.47778 0.43791 0.32412
 C224 C 0.48611 0.46387 0.37617
 C225 C 0.45296 0.43128 0.38642
 C226 C 0.40921 0.41666 0.38111
 C227 C 0.39943 0.43588 0.36547
 C228 C 0.43262 0.46869 0.35530
 C229 C 0.58893 0.56590 0.36014
 C230 C 0.61903 0.60032 0.37055
 C231 C 0.60517 0.62188 0.38170
 C232 C 0.56058 0.60816 0.38225
 C233 C 0.53057 0.57386 0.37181
 H234 H 0.53400 0.59597 0.32789
 H235 H 0.59194 0.65334 0.30993
 H236 H 0.62801 0.56802 0.28818
 H237 H 0.57119 0.51125 0.30676
 H238 H 0.46203 0.51168 0.30054
 H239 H 0.40671 0.45046 0.28375
 H240 H 0.49748 0.43427 0.33543
 H241 H 0.51956 0.47436 0.38044
 H242 H 0.46162 0.41779 0.39863
 H243 H 0.36612 0.42522 0.36091
 H244 H 0.42429 0.48316 0.34339
 H245 H 0.60025 0.54946 0.35183
 H246 H 0.65309 0.60971 0.37011
 H247 H 0.54894 0.62436 0.39053
 H248 H 0.49641 0.56410 0.37232
 H249 H 0.44266 0.37278 0.31847
 C250 C -0.05548 0.13436 0.56006
 C251 C -0.05763 0.16573 0.56947
 C252 C -0.02123 0.20574 0.57077
 C253 C 0.01720 0.21404 0.56205
 C254 C 0.01933 0.18274 0.55265
 C255 C -0.01688 0.14248 0.55162
 C256 C -0.02500 0.23833 0.58062
 C257 C 0.00915 0.27145 0.58858
 C258 C 0.00670 0.30525 0.59804
 C259 C 0.04549 0.34253 0.60161
 C260 C 0.04516 0.37545 0.61039
 C261 C 0.00593 0.37181 0.61585
 C262 C -0.03289 0.33440 0.61251
 C263 C -0.03258 0.30140 0.60378
 H264 H -0.08388 0.10364 0.55957
 H265 H -0.08774 0.15863 0.57589
 H266 H 0.04542 0.24485 0.56201
 H267 H 0.04916 0.19035 0.54582
 H268 H -0.05718 0.23419 0.58132
 H269 H 0.04099 0.27458 0.58804
 H270 H 0.07624 0.34637 0.59744
 H271 H 0.07557 0.40398 0.61267
 H272 H -0.06352 0.33038 0.61696
 H273 H -0.06315 0.27298 0.60193
 C274 C 0.90111 0.84882 0.23880
 C275 C 0.86889 0.81677 0.24971
 C276 C 0.82556 0.79576 0.24301
 C277 C 0.81529 0.80678 0.22487
 C278 C 0.84749 0.83880 0.21398
 C279 C 0.89074 0.86033 0.22084
 C280 C 0.79246 0.76189 0.25506
 C281 C 0.74989 0.74906 0.25343
 C282 C 0.71650 0.71507 0.26533
 C283 C 0.67595 0.71243 0.26663
 C284 C 0.64309 0.68035 0.27726
 C285 C 0.64995 0.64991 0.28674
 C286 C 0.69049 0.65243 0.28540
 C287 C 0.72333 0.68447 0.27476
 H288 H 0.93423 0.86434 0.24436
 H289 H 0.87782 0.80856 0.26350
 H290 H 0.78263 0.79051 0.21887
 H291 H 0.83835 0.84707 0.20025
 H292 H 0.80420 0.74862 0.26619
 H293 H 0.73879 0.76508 0.24348
 H294 H 0.66960 0.73527 0.25936
 H295 H 0.61202 0.67893 0.27774
 H296 H 0.69691 0.62962 0.29264
 H297 H 0.75355 0.68450 0.27371
 C298 C 0.17468 0.03286 -0.13388
 C299 C 0.21073 0.03627 -0.12347
 C300 C 0.20590 0.01699 -0.10539
 C301 C 0.16441 -0.00424 -0.09752
 C302 C 0.12838 -0.00765 -0.10793
 C303 C 0.13299 0.01032 -0.12633
 C304 C 0.24467 0.01969 -0.09521
 C305 C 0.24234 -0.00910 -0.08232
 C306 C 0.28076 -0.00842 -0.07277
 C307 C 0.27606 -0.04569 -0.06473
 C308 C 0.31115 -0.04674 -0.05553
 C309 C 0.35181 -0.01040 -0.05402
 C310 C 0.35647 0.02709 -0.06183
 C311 C 0.32134 0.02815 -0.07106
 H312 H 0.17929 0.04682 -0.14807
 H313 H 0.24237 0.05314 -0.12978
 H314 H 0.15957 -0.01807 -0.08332
 H315 H 0.09683 -0.02436 -0.10154
 H316 H 0.27604 0.04455 -0.09958
 H317 H 0.21105 -0.03597 -0.07937
 H318 H 0.24509 -0.07422 -0.06564
 H319 H 0.30627 -0.07596 -0.04935
 H320 H 0.38742 0.05561 -0.06092
 H321 H 0.32609 0.05777 -0.07655
 C322 C -0.01772 0.85735 0.56461
 C323 C -0.02175 0.82172 0.57404
 C324 C 0.00606 0.80658 0.57008
 C325 C 0.03793 0.82771 0.55630
 C326 C 0.04184 0.86330 0.54680
 C327 C 0.01402 0.87847 0.55083
 C328 C -0.00050 0.76784 0.58000
 C329 C 0.03076 0.75780 0.58251
 C330 C 0.02393 0.71920 0.59265
 C331 C 0.05972 0.71853 0.60151
 C332 C 0.05472 0.68270 0.61112
 C333 C 0.01379 0.64647 0.61189
 C334 C -0.02199 0.64694 0.60279
 C335 C -0.01700 0.68285 0.59323
 H336 H -0.04021 0.86777 0.56777
 H337 H -0.04686 0.80581 0.58442
 H338 H 0.05921 0.81640 0.55245
 H339 H 0.06660 0.87892 0.53626
 H340 H -0.03179 0.74798 0.58623
 H341 H 0.06327 0.77951 0.57796
 H342 H 0.09162 0.74602 0.60119
 H343 H 0.08285 0.68358 0.61818
 H344 H -0.05375 0.61929 0.60277
 H345 H -0.04509 0.68168 0.58601
 C346 C 0.17652 0.19727 0.20960
 C347 C 0.20961 0.23122 0.21925
 C348 C 0.22247 0.22649 0.23799
 C349 C 0.20049 0.18704 0.24708
 C350 C 0.16746 0.15305 0.23739
 C351 C 0.15533 0.15772 0.21850
 C352 C 0.25837 0.26355 0.24741
 C353 C 0.28093 0.26176 0.26294
 C354 C 0.31699 0.29921 0.27193
 C355 C 0.32631 0.29752 0.29149
 C356 C 0.35988 0.33223 0.30053
 C357 C 0.38530 0.36932 0.29013
 C358 C 0.37665 0.37067 0.27043
 C359 C 0.34295 0.33603 0.26141
 H360 H 0.16819 0.20179 0.19500
 H361 H 0.22572 0.26124 0.21193
 H362 H 0.20805 0.18207 0.26171
 H363 H 0.15108 0.12311 0.24475
 H364 H 0.26676 0.29358 0.24098
 H365 H 0.27266 0.23211 0.26971
 H366 H 0.30703 0.26943 0.29988
 H367 H 0.36536 0.33026 0.31576
 H368 H 0.39630 0.39843 0.26192
 H369 H 0.33791 0.33803 0.24617
 C370 C 0.78212 -0.05144 -0.14338
 C371 C 0.74770 -0.05379 -0.13354
 C372 C 0.74376 -0.06302 -0.11393
 C373 C 0.77403 -0.07176 -0.10444
 C374 C 0.80849 -0.06954 -0.11424
 C375 C 0.81383 -0.05862 -0.13391
 C376 C 0.70773 -0.06319 -0.10402
 C377 C 0.70920 -0.05603 -0.08533
 C378 C 0.67470 -0.05313 -0.07557
 C379 C 0.67267 -0.05821 -0.05563
 C380 C 0.64195 -0.05401 -0.04571
 C381 C 0.61274 -0.04425 -0.05551
 C382 C 0.61473 -0.03911 -0.07547
 C383 C 0.64540 -0.04336 -0.08540
 H384 H 0.78457 -0.04173 -0.15823
 H385 H 0.72470 -0.04709 -0.14122
 H386 H 0.77100 -0.08094 -0.08950
 H387 H 0.83001 -0.07771 -0.10630
 H388 H 0.67996 -0.06769 -0.11277
 H389 H 0.73706 -0.05150 -0.07664
 H390 H 0.69513 -0.06524 -0.04767
 H391 H 0.64172 -0.05750 -0.03030
 H392 H 0.59251 -0.03178 -0.08343
 H393 H 0.64657 -0.03789 -0.10068
 C394 C 0.16357 -0.04648 0.13236
 C395 C 0.19343 -0.05086 0.12184
 C396 C 0.20480 -0.03248 0.10357
 C397 C 0.18436 -0.01095 0.09568
 C398 C 0.15454 -0.00657 0.10618
 C399 C 0.14418 -0.02384 0.12472
 C400 C 0.23757 -0.03677 0.09310
 C401 C 0.26249 -0.00901 0.07978
 C402 C 0.29655 -0.01183 0.06964
 C403 C 0.32988 0.02451 0.06127
 C404 C 0.36247 0.02341 0.05139
 C405 C 0.36226 -0.01421 0.04951
 C406 C 0.32863 -0.05074 0.05770
 C407 C 0.29604 -0.04964 0.06763
 H408 H 0.15646 -0.05995 0.14665
 H409 H 0.20838 -0.06795 0.12817
 H410 H 0.19089 0.00221 0.08134
 H411 H 0.13930 0.01013 0.09972
 H412 H 0.24303 -0.06214 0.09746
 H413 H 0.25971 0.01844 0.07683
 H414 H 0.33080 0.05395 0.06241
 H415 H 0.38749 0.05195 0.04495
 H416 H 0.32767 -0.08019 0.05654
 H417 H 0.27028 -0.07855 0.07337
 C418 C 0.86409 0.89410 0.43433
 C419 C 0.83235 0.86219 0.42320
 C420 C 0.79143 0.83483 0.43038
 C421 C 0.78197 0.84132 0.44868
 C422 C 0.81351 0.87327 0.45988
 C423 C 0.85599 0.90016 0.45324
 C424 C 0.75962 0.80025 0.41833
 C425 C 0.72789 0.76430 0.42554
 C426 C 0.69704 0.72864 0.41374
 C427 C 0.65777 0.69867 0.42172
 C428 C 0.62799 0.66411 0.41134
 C429 C 0.63698 0.65851 0.39275
 C430 C 0.67652 0.68818 0.38481
 C431 C 0.70630 0.72283 0.39519
 H432 H 0.89559 0.91185 0.42811
 H433 H 0.84040 0.85802 0.40906
 H434 H 0.74995 0.82223 0.45436
 H435 H 0.80316 0.87722 0.47348
 H436 H 0.76384 0.80437 0.40307
 H437 H 0.72400 0.76036 0.44083
 H438 H 0.65003 0.70205 0.43605
 H439 H 0.59813 0.64143 0.41797
 H440 H 0.68429 0.68479 0.37049
 H441 H 0.73670 0.74437 0.38868
 C442 C -0.04314 0.11609 0.75890
 C443 C -0.04442 0.14836 0.74844
 C444 C -0.01687 0.18994 0.75340
 C445 C 0.01299 0.19867 0.76882
 C446 C 0.01418 0.16635 0.77932
 C447 C -0.01400 0.12472 0.77453
 C448 C -0.01968 0.22306 0.74190
 C449 C -0.00608 0.26127 0.74837
 C450 C -0.00930 0.29446 0.73710
 C451 C -0.00534 0.32855 0.74679
 C452 C -0.00696 0.36115 0.73681
 C453 C -0.01251 0.36044 0.71686
 C454 C -0.01656 0.32638 0.70710
 C455 C -0.01470 0.29384 0.71706
 H456 H -0.06558 0.08430 0.75497
 H457 H -0.06749 0.14074 0.73656
 H458 H 0.03596 0.23029 0.77270
 H459 H 0.03756 0.17396 0.79106
 H460 H -0.03568 0.21456 0.72802
 H461 H 0.00637 0.26840 0.76290
 H462 H -0.00095 0.32999 0.76218
 H463 H -0.00404 0.38689 0.74472
 H464 H -0.01997 0.32546 0.69168
 H465 H -0.01645 0.26900 0.70890
 C466 C 0.87708 0.05955 0.12539
 C467 C 0.84355 0.06025 0.11448
 C468 C 0.82365 0.03327 0.09918
 C469 C 0.83915 0.00659 0.09456
 C470 C 0.87261 0.00587 0.10546
 C471 C 0.89173 0.03205 0.12111
 C472 C 0.78732 0.03413 0.08832
 C473 C 0.75669 0.00148 0.07863
 C474 C 0.71922 0.00105 0.06822
 C475 C 0.68287 -0.03754 0.06385
 C476 C 0.64686 -0.03972 0.05397
 C477 C 0.64644 -0.00326 0.04808
 C478 C 0.68303 0.03545 0.05221
 C479 C 0.71911 0.03764 0.06212
 H480 H 0.89163 0.08062 0.13715
 H481 H 0.83267 0.08153 0.11818
 H482 H 0.82580 -0.01366 0.08248
 H483 H 0.88293 -0.01586 0.10183
 H484 H 0.78456 0.06168 0.08941
 H485 H 0.75746 -0.02731 0.07911
 H486 H 0.68225 -0.06621 0.06817
 H487 H 0.61954 -0.07001 0.05069
 H488 H 0.68364 0.06410 0.04792
 H489 H 0.74689 0.06802 0.06467
 C490 C 0.18642 0.13941 0.44898
 C491 C 0.22094 0.17101 0.43885
 C492 C 0.23143 0.21268 0.44019
 C493 C 0.20762 0.22227 0.45247
 C494 C 0.17303 0.19072 0.46247
 C495 C 0.16174 0.14894 0.46067
 C496 C 0.26772 0.24520 0.42891
 C497 C 0.27147 0.28229 0.42417
 C498 C 0.30719 0.31553 0.41287
 C499 C 0.30275 0.34931 0.40594
 C500 C 0.33566 0.38196 0.39560
 C501 C 0.37397 0.38168 0.39193
 C502 C 0.37854 0.34792 0.39886
 C503 C 0.34571 0.31532 0.40930
 H504 H 0.17840 0.10746 0.44732
 H505 H 0.23907 0.16279 0.42970
 H506 H 0.21576 0.25405 0.45464
 H507 H 0.15526 0.19905 0.47178
 H508 H 0.29058 0.23710 0.42370
 H509 H 0.24630 0.28853 0.42815
 H510 H 0.27370 0.35059 0.40860
 H511 H 0.33136 0.40781 0.39077
 H512 H 0.40750 0.34655 0.39614
 H513 H 0.35121 0.29059 0.41466
 C514 C -0.01949 0.84928 0.75494
 C515 C -0.01858 0.81882 0.74428
 C516 C -0.03422 0.77837 0.75180
 C517 C -0.05250 0.76848 0.76999
 C518 C -0.05361 0.79892 0.78062
 C519 C -0.03661 0.83977 0.77331
 C520 C -0.03131 0.74747 0.74018
 C521 C -0.02898 0.71483 0.74780
 C522 C -0.02488 0.68430 0.73638
 C523 C -0.03673 0.64510 0.74466
 C524 C -0.03316 0.61537 0.73458
 C525 C -0.01725 0.62430 0.71599
 C526 C -0.00467 0.66376 0.70778
 C527 C -0.00832 0.69351 0.71785
 H528 H -0.00683 0.88032 0.74880
 H529 H -0.00490 0.82710 0.73021
 H530 H -0.06627 0.73730 0.77603
 H531 H -0.06697 0.79069 0.79474
 H532 H -0.02977 0.75289 0.72489
 H533 H -0.03032 0.70976 0.76311
 H534 H -0.04904 0.63735 0.75899
 H535 H -0.04242 0.58550 0.74142
 H536 H 0.00759 0.67150 0.69345
 H537 H 0.00254 0.72373 0.71113
   
