data_POSCAR
  _audit_creation_date              2014-09-24
  _audit_creation_method            'ToBaCCo'
  _symmetry_space_group_name_H-M    'P1'
  _symmetry_Int_Tables_number       1
  _symmetry_cell_setting            triclinic
  loop_
  _symmetry_equiv_pos_as_xyz
 x,y,z
_cell_length_a 37.5251
_cell_length_b 38.9537
_cell_length_c 37.9249
_cell_angle_alpha 89.747800
_cell_angle_beta 89.396300
_cell_angle_gamma 90.023800
loop_
  _atom_site_label
  _atom_site_type_symbol
  _atom_site_fract_x
  _atom_site_fract_y
  _atom_site_fract_z
O1 O 0.32055 0.37401 0.03310
 O2 O 0.36145 0.31278 -0.02816
 O3 O 0.31881 0.36450 -0.03389
 O4 O 0.36620 0.32417 0.03882
 O5 O 0.32263 0.28666 0.04649
 O6 O 0.27234 0.33172 -0.02354
 O7 O 0.31554 0.27779 -0.02141
 O8 O 0.27650 0.33757 0.04354
 Cu9 Cu 0.34634 0.34723 0.00166
 Cu10 Cu 0.29232 0.30459 0.01202
 C11 C 0.29111 0.36660 0.04809
 C12 C 0.34565 0.28487 -0.03516
 C13 C 0.28673 0.35651 -0.04034
 C14 C 0.35306 0.29838 0.05475
 O15 O 0.62684 0.66541 -0.03578
 O16 O 0.68138 0.63443 0.03760
 O17 O 0.63089 0.67937 0.03099
 O18 O 0.67665 0.61906 -0.02709
 O19 O 0.71561 0.65857 -0.04331
 O20 O 0.67266 0.71812 0.02074
 O21 O 0.72408 0.67088 0.02238
 O22 O 0.66631 0.70603 -0.04717
 Cu23 Cu 0.64961 0.64594 0.00253
 Cu24 Cu 0.69850 0.69279 -0.01300
 C25 C 0.63702 0.69121 -0.05382
 C26 C 0.71284 0.64587 0.04101
 C27 C 0.64422 0.70868 0.03664
 C28 C 0.70472 0.62761 -0.04385
 O29 O 0.65123 0.37916 0.94727
 O30 O 0.61473 0.33528 1.02488
 O31 O 0.66220 0.38306 1.01444
 O32 O 0.60804 0.32828 0.95700
 O33 O 0.65077 0.28923 0.95604
 O34 O 0.70602 0.34595 1.01052
 O35 O 0.65841 0.29736 1.02338
 O36 O 0.69369 0.34034 0.94284
 Cu37 Cu 0.62972 0.36014 0.98631
 Cu38 Cu 0.68176 0.31454 0.98312
 C39 C 0.67816 0.36711 0.93121
 C40 C 0.63002 0.30904 1.03751
 C41 C 0.69407 0.37445 1.02154
 C42 C 0.62013 0.29942 0.94694
 O43 O 0.32745 0.62781 0.98476
 O44 O 0.37902 0.68650 1.03941
 O45 O 0.33612 0.63601 1.05204
 O46 O 0.37050 0.67899 0.97281
 O47 O 0.32730 0.71744 0.97610
 O48 O 0.28881 0.66932 1.05193
 O49 O 0.33288 0.72138 1.04378
 O50 O 0.28319 0.66494 0.98319
 Cu51 Cu 0.35762 0.65360 1.01208
 Cu52 Cu 0.30322 0.69674 1.01393
 C53 C 0.29697 0.63655 0.97374
 C54 C 0.36510 0.71411 1.05062
 C55 C 0.30647 0.64482 1.06556
 C56 C 0.35574 0.70623 0.96179
 O57 O -0.03638 0.36837 0.31419
 O58 O 0.02664 0.32622 0.37373
 O59 O 0.03156 0.37118 0.32354
 O60 O -0.04218 0.32855 0.36844
 O61 O -0.03734 0.28402 0.33321
 O62 O 0.03695 0.32845 0.28615
 O63 O 0.03159 0.28273 0.33679
 O64 O -0.03236 0.32484 0.27729
 Cu65 Cu -0.00557 0.35282 0.34858
 Cu66 Cu 0.00004 0.30069 0.30452
 C67 C -0.04491 0.35402 0.28547
 C68 C 0.03998 0.29734 0.36536
 C69 C 0.04680 0.35779 0.29701
 C70 C -0.05246 0.29902 0.35920
 O71 O 0.04172 0.68245 0.63453
 O72 O -0.02833 0.62628 0.67042
 O73 O -0.02360 0.67540 0.62330
 O74 O 0.04009 0.63374 0.68139
 O75 O 0.02894 0.67191 0.72290
 O76 O -0.03811 0.71245 0.66479
 O77 O -0.03987 0.66357 0.71263
 O78 O 0.02852 0.72165 0.67450
 Cu79 Cu 0.00857 0.65014 0.64878
 Cu80 Cu -0.00621 0.69589 0.69835
 C81 C 0.04501 0.71261 0.64659
 C82 C -0.04627 0.63531 0.69738
 C83 C -0.03979 0.70239 0.63295
 C84 C 0.04594 0.64583 0.71174
 O85 O 0.94584 0.66066 0.38138
 O86 O 1.02090 0.61821 0.33630
 O87 O 1.01519 0.66625 0.38328
 O88 O 0.95283 0.60957 0.33826
 O89 O 0.94722 0.64750 0.29550
 O90 O 1.01197 0.70399 0.34036
 O91 O 1.01656 0.65505 0.29216
 O92 O 0.94283 0.69908 0.33856
 Cu93 Cu 0.98416 0.63509 0.36418
 Cu94 Cu 0.97952 0.68012 0.31219
 C95 C 0.93141 0.68701 0.36768
 C96 C 1.03120 0.62910 0.30628
 C97 C 1.02419 0.69507 0.37018
 C98 C 0.93877 0.61882 0.30956
 O99 O 0.98203 0.32329 0.62582
 O100 O 1.03617 0.37966 0.68121
 O101 O 1.05012 0.33405 0.63320
 O102 O 0.96941 0.37071 0.67191
 O103 O 0.97058 0.33248 0.71505
 O104 O 1.04933 0.29210 0.67227
 O105 O 1.03897 0.33902 0.72180
 O106 O 0.98100 0.28393 0.66796
 Cu107 Cu 1.00952 0.35573 0.64877
 Cu108 Cu 1.01017 0.30782 0.69848
 C109 C 0.97225 0.29408 0.63741
 C110 C 1.04598 0.36934 0.71140
 C111 C 1.06327 0.30646 0.64522
 C112 C 0.95668 0.35867 0.70046
 O113 O 0.37503 0.03575 0.33093
 O114 O 0.31946 -0.03252 0.36877
 O115 O 0.37406 -0.02999 0.32578
 O116 O 0.31975 0.03417 0.37213
 O117 O 0.28195 0.03587 0.32784
 O118 O 0.33919 -0.02588 0.27946
 O119 O 0.28383 -0.03074 0.32286
 O120 O 0.33805 0.04087 0.28648
 Cu121 Cu 0.35053 0.00137 0.35400
 Cu122 Cu 0.30717 0.00523 0.29947
 C123 C 0.36593 0.05045 0.30256
 C124 C 0.29208 -0.04310 0.35275
 C125 C 0.36639 -0.03845 0.29448
 C126 C 0.29158 0.04576 0.35815
 O127 O 0.62632 0.03083 0.68378
 O128 O 0.68318 -0.02959 0.63516
 O129 O 0.62971 -0.03472 0.67826
 O130 O 0.67607 0.03665 0.63547
 O131 O 0.71583 0.03794 0.67794
 O132 O 0.66852 -0.03485 0.72162
 O133 O 0.72283 -0.02851 0.67787
 O134 O 0.66527 0.03168 0.72712
 Cu135 Cu 0.65008 0.00090 0.65383
 Cu136 Cu 0.69704 0.00184 0.70553
 C137 C 0.63571 0.04075 0.71413
 C138 C 0.71260 -0.03926 0.64815
 C139 C 0.64092 -0.04716 0.70699
 C140 C 0.70389 0.04934 0.64882
 O141 O 0.31805 1.02304 0.62156
 O142 O 0.37115 0.95988 0.67005
 O143 O 0.32702 0.95691 0.61756
 O144 O 0.36454 1.02537 0.67124
 O145 O 0.32057 1.02004 0.70966
 O146 O 0.28297 0.94988 0.65590
 O147 O 0.32728 0.95338 0.70864
 O148 O 0.27337 1.01613 0.65935
 Cu149 Cu 0.34942 0.99182 0.64110
 Cu150 Cu 0.29656 0.98419 0.68723
 C151 C 0.28682 1.03049 0.63223
 C152 C 0.35874 0.94657 0.69825
 C153 C 0.29886 0.94149 0.62743
 C154 C 0.34958 1.03425 0.69993
 O155 O 0.67796 1.04236 0.37315
 O156 O 0.63914 0.97086 0.32524
 O157 O 0.68547 0.97652 0.37524
 O158 O 0.63476 1.03696 0.32086
 O159 O 0.67990 1.04059 0.28320
 O160 O 0.72929 0.97689 0.33586
 O161 O 0.68216 0.97352 0.28516
 O162 O 0.72436 1.04287 0.33713
 Cu163 Cu 0.65490 1.00642 0.35236
 Cu164 Cu 0.70834 1.00877 0.30629
 C165 C 0.70811 1.05446 0.36426
 C166 C 0.65339 0.96021 0.29691
 C167 C 0.71625 0.96690 0.36516
 C168 C 0.64852 1.04891 0.29265
 C169 C 0.87018 0.74592 0.50101
 C170 C 0.85208 0.75713 0.47127
 C171 C 0.83273 0.78775 0.47262
 C172 C 0.83324 0.80856 0.50310
 C173 C 0.85494 0.79830 0.53159
 C174 C 0.87381 0.76722 0.53030
 C175 C 0.81220 0.84119 0.50461
 C176 C 0.80042 0.85469 0.53726
 C177 C 0.77928 0.88439 0.53849
 C178 C 0.76961 0.90061 0.50709
 C179 C 0.78113 0.88788 0.47466
 C180 C 0.80281 0.85874 0.47335
 H181 H 0.88499 0.72204 0.49978
 H182 H 0.81780 0.79502 0.44956
 H183 H 0.85853 0.81485 0.55411
 H184 H 0.80683 0.84201 0.56181
 H185 H 0.75288 0.92331 0.50786
 H186 H 0.81231 0.85033 0.44781
 C187 C 0.11627 0.24920 0.50738
 C188 C 0.12083 0.23269 0.47510
 C189 C 0.14076 0.20232 0.47339
 C190 C 0.15870 0.18958 0.50340
 C191 C 0.15474 0.20776 0.53551
 C192 C 0.13322 0.23711 0.53762
 C193 C 0.18193 0.15814 0.50106
 C194 C 0.19139 0.13951 0.53173
 C195 C 0.21497 0.11170 0.52970
 C196 C 0.22757 0.10066 0.49699
 C197 C 0.21805 0.11794 0.46627
 C198 C 0.19603 0.14693 0.46824
 H199 H 0.09959 0.27189 0.50887
 H200 H 0.14213 0.18919 0.44839
 H201 H 0.16867 0.20003 0.55900
 H202 H 0.18127 0.14645 0.55748
 H203 H 0.24589 0.07916 0.49555
 H204 H 0.19108 0.16083 0.44408
 C205 C 0.09571 0.76441 0.50021
 C206 C 0.11087 0.77905 0.52992
 C207 C 0.13977 0.80135 0.52603
 C208 C 0.15562 0.80762 0.49252
 C209 C 0.14049 0.79126 0.46284
 C210 C 0.10992 0.77055 0.46657
 C211 C 0.18733 0.83123 0.48902
 C212 C 0.19693 0.84671 0.45636
 C213 C 0.22543 0.87011 0.45416
 C214 C 0.24395 0.87885 0.48460
 C215 C 0.23502 0.86408 0.51701
 C216 C 0.20771 0.83973 0.51898
 H217 H 0.07288 0.74772 0.50333
 H218 H 0.14902 0.81377 0.54959
 H219 H 0.15211 0.79411 0.43681
 H220 H 0.18209 0.84169 0.43268
 H221 H 0.26495 0.89798 0.48319
 H222 H 0.20285 0.82789 0.54435
 C223 C 0.89942 0.23843 0.50031
 C224 C 0.89267 0.22223 0.53253
 C225 C 0.86769 0.19543 0.53463
 C226 C 0.84779 0.18575 0.50466
 C227 C 0.85469 0.20346 0.47256
 C228 C 0.88071 0.22906 0.47031
 C229 C 0.81915 0.15858 0.50680
 C230 C 0.80529 0.14385 0.47572
 C231 C 0.77592 0.12172 0.47695
 C232 C 0.76230 0.11111 0.50965
 C233 C 0.77605 0.12423 0.54094
 C234 C 0.80397 0.14819 0.53956
 H235 H 0.91901 0.25887 0.49868
 H236 H 0.86405 0.18278 0.55980
 H237 H 0.83948 0.19873 0.44911
 H238 H 0.81633 0.14977 0.45004
 H239 H 0.74014 0.09324 0.51075
 H240 H 0.81257 0.15912 0.56415
 C241 C 0.50125 0.88265 0.75624
 C242 C 0.46850 0.86877 0.76642
 C243 C 0.46735 0.84122 0.79024
 C244 C 0.49876 0.82905 0.80649
 C245 C 0.53163 0.84442 0.79640
 C246 C 0.53285 0.87014 0.77046
 C247 C 0.49706 0.80048 0.83336
 C248 C 0.52770 0.78103 0.84191
 C249 C 0.52595 0.75447 0.86699
 C250 C 0.49329 0.74612 0.88275
 C251 C 0.46262 0.76450 0.87446
 C252 C 0.46463 0.79216 0.85087
 H253 H 0.50221 0.90332 0.73699
 H254 H 0.44164 0.82983 0.79571
 H255 H 0.55650 0.83667 0.80804
 H256 H 0.55313 0.78583 0.82926
 H257 H 0.49180 0.72554 0.90208
 H258 H 0.44062 0.80682 0.84671
 C259 C 0.50790 0.11520 0.24291
 C260 C 0.47522 0.13010 0.23501
 C261 C 0.47351 0.15634 0.20978
 C262 C 0.50445 0.16754 0.19120
 C263 C 0.53729 0.15149 0.19962
 C264 C 0.53899 0.12605 0.22585
 C265 C 0.50244 0.19618 0.16422
 C266 C 0.53362 0.21301 0.15153
 C267 C 0.53147 0.24020 0.12732
 C268 C 0.49823 0.25174 0.11627
 C269 C 0.46703 0.23625 0.12871
 C270 C 0.46913 0.20784 0.15135
 H271 H 0.50920 0.09507 0.26272
 H272 H 0.44782 0.16803 0.20589
 H273 H 0.56188 0.15817 0.18632
 H274 H 0.55983 0.20605 0.16045
 H275 H 0.49662 0.27304 0.09783
 H276 H 0.44436 0.19562 0.15868
 C277 C 0.48599 0.09957 0.76223
 C278 C 0.51756 0.11092 0.77745
 C279 C 0.51623 0.13586 0.80394
 C280 C 0.48367 0.15184 0.81348
 C281 C 0.45236 0.14102 0.79622
 C282 C 0.45329 0.11394 0.77202
 C283 C 0.48230 0.17908 0.84147
 C284 C 0.44984 0.18743 0.85885
 C285 C 0.44862 0.21315 0.88446
 C286 C 0.47986 0.22956 0.89454
 C287 C 0.51226 0.22141 0.87849
 C288 C 0.51345 0.19703 0.85146
 H289 H 0.48685 0.07929 0.74273
 H290 H 0.54087 0.14218 0.81684
 H291 H 0.42688 0.15293 0.80142
 H292 H 0.42530 0.17419 0.85316
 H293 H 0.47890 0.24905 0.91489
 H294 H 0.53881 0.19269 0.83852
 C295 C 0.51410 0.90154 0.23818
 C296 C 0.54591 0.88840 0.22451
 C297 C 0.54523 0.86575 0.19594
 C298 C 0.51263 0.85635 0.17995
 C299 C 0.48090 0.87131 0.19372
 C300 C 0.48156 0.89274 0.22330
 C301 C 0.51155 0.83029 0.15040
 C302 C 0.47878 0.81579 0.13944
 C303 C 0.47770 0.79084 0.11303
 C304 C 0.50930 0.77884 0.09800
 C305 C 0.54206 0.79172 0.10874
 C306 C 0.54325 0.81793 0.13393
 H307 H 0.51464 0.91850 0.26078
 H308 H 0.57047 0.85531 0.18749
 H309 H 0.45515 0.86643 0.18249
 H310 H 0.45364 0.82260 0.15145
 H311 H 0.50847 0.75842 0.07866
 H312 H 0.56926 0.82732 0.14078
 C313 C 0.73787 0.49616 0.86622
 C314 C 0.74588 0.46693 0.84665
 C315 C 0.77559 0.46707 0.82415
 C316 C 0.79870 0.49572 0.82261
 C317 C 0.79178 0.52384 0.84519
 C318 C 0.76164 0.52380 0.86752
 C319 C 0.83013 0.49568 0.79807
 C320 C 0.84310 0.52661 0.78312
 C321 C 0.87091 0.52614 0.75811
 C322 C 0.88563 0.49480 0.74763
 C323 C 0.87308 0.46397 0.76199
 C324 C 0.84632 0.46446 0.78789
 H325 H 0.71456 0.49598 0.88338
 H326 H 0.78037 0.44457 0.80821
 H327 H 0.81028 0.54511 0.84645
 H328 H 0.83102 0.55097 0.78984
 H329 H 0.90669 0.49436 0.72783
 H330 H 0.83794 0.44026 0.79937
 C331 C 0.25180 0.50983 0.12374
 C332 C 0.23408 0.47883 0.12946
 C333 C 0.20608 0.47715 0.15405
 C334 C 0.19624 0.50614 0.17427
 C335 C 0.21479 0.53728 0.16808
 C336 C 0.24209 0.53919 0.14258
 C337 C 0.16657 0.50372 0.20108
 C338 C 0.14780 0.53324 0.21251
 C339 C 0.12011 0.53046 0.23745
 C340 C 0.10915 0.49813 0.24929
 C341 C 0.12663 0.46849 0.23779
 C342 C 0.15634 0.47152 0.21535
 H343 H 0.27285 0.51128 0.10397
 H344 H 0.19194 0.45308 0.15657
 H345 H 0.20873 0.56013 0.18302
 H346 H 0.15429 0.55849 0.20247
 H347 H 0.08699 0.49608 0.26777
 H348 H 0.17092 0.44838 0.20914
 C349 C 0.76346 0.50619 0.09217
 C350 C 0.77953 0.53435 0.10795
 C351 C 0.80361 0.52920 0.13530
 C352 C 0.80957 0.49599 0.14940
 C353 C 0.79196 0.46788 0.13355
 C354 C 0.76997 0.47288 0.10418
 C355 C 0.83376 0.49115 0.18041
 C356 C 0.84943 0.45889 0.18814
 C357 C 0.87259 0.45522 0.21676
 C358 C 0.88123 0.48377 0.23700
 C359 C 0.86585 0.51563 0.23034
 C360 C 0.84176 0.51916 0.20269
 H361 H 0.74546 0.51026 0.07054
 H362 H 0.81716 0.55154 0.14527
 H363 H 0.79485 0.44207 0.14364
 H364 H 0.84443 0.43662 0.17206
 H365 H 0.90004 0.48110 0.25838
 H366 H 0.82925 0.54390 0.19937
 C367 C 0.22834 0.49871 0.91421
 C368 C 0.21751 0.53116 0.90298
 C369 C 0.19155 0.53420 0.87683
 C370 C 0.17836 0.50477 0.85925
 C371 C 0.19233 0.47239 0.86941
 C372 C 0.21603 0.46919 0.89753
 C373 C 0.15161 0.50763 0.82977
 C374 C 0.13490 0.47796 0.81597
 C375 C 0.11154 0.48009 0.78749
 C376 C 0.10311 0.51208 0.77327
 C377 C 0.11791 0.54191 0.78707
 C378 C 0.14242 0.53979 0.81464
 H379 H 0.24815 0.49654 0.93472
 H380 H 0.18312 0.55980 0.87004
 H381 H 0.18607 0.44918 0.85543
 H382 H 0.13929 0.45273 0.82684
 H383 H 0.08471 0.51379 0.75147
 H384 H 0.15412 0.56353 0.82328
 C385 C 0.23852 0.40500 0.06312
 C386 C 0.27346 0.39279 0.07010
 C387 C 0.29357 0.40827 0.09651
 C388 C 0.27982 0.43540 0.11604
 C389 C 0.24559 0.44810 0.10964
 C390 C 0.22449 0.43292 0.08313
 C391 C 0.21781 0.39130 0.03561
 C392 C 0.18403 0.40431 0.02849
 C393 C 0.17035 0.43143 0.04813
 C394 C 0.19035 0.44583 0.07506
 H395 H 0.22745 0.37077 0.01906
 H396 H 0.16846 0.39346 0.00744
 H397 H 0.14422 0.44158 0.04225
 H398 H 0.17896 0.46735 0.08912
 H399 H 0.32044 0.39958 0.10172
 H400 H 0.29631 0.44707 0.13598
 C401 C 0.72885 0.61853 0.09907
 C402 C 0.73743 0.62646 0.06360
 C403 C 0.76460 0.60820 0.04641
 C404 C 0.78019 0.57977 0.06240
 C405 C 0.76936 0.56919 0.09618
 C406 C 0.74456 0.58938 0.11548
 C407 C 0.70439 0.63868 0.11827
 C408 C 0.69465 0.62975 0.15269
 C409 C 0.70910 0.60062 0.16846
 C410 C 0.73380 0.58050 0.15012
 H411 H 0.69345 0.66184 0.10693
 H412 H 0.67584 0.64550 0.16719
 H413 H 0.70128 0.59368 0.19510
 H414 H 0.74441 0.55817 0.16339
 H415 H 0.77121 0.61375 0.01908
 H416 H 0.79895 0.56443 0.04733
 C417 C 0.67205 0.40823 0.87883
 C418 C 0.69295 0.38597 0.90021
 C419 C 0.73001 0.38527 0.89502
 C420 C 0.74681 0.40934 0.87332
 C421 C 0.72705 0.43474 0.85611
 C422 C 0.68944 0.43284 0.85671
 C423 C 0.63439 0.40707 0.87901
 C424 C 0.61463 0.42971 0.85839
 C425 C 0.63180 0.45396 0.83719
 C426 C 0.66888 0.45559 0.83627
 H427 H 0.61965 0.38845 0.89439
 H428 H 0.58582 0.42834 0.85877
 H429 H 0.61631 0.47142 0.82121
 H430 H 0.68143 0.47442 0.81909
 H431 H 0.74652 0.36815 0.91042
 H432 H 0.77568 0.41036 0.87302
 C433 C 0.29385 0.59197 0.92471
 C434 C 0.27693 0.61271 0.95079
 C435 C 0.24014 0.60899 0.95689
 C436 C 0.22062 0.58360 0.93985
 C437 C 0.23724 0.56147 0.91589
 C438 C 0.27371 0.56636 0.90706
 C439 C 0.33019 0.59620 0.91531
 C440 C 0.34616 0.57572 0.88959
 C441 C 0.32642 0.55080 0.87242
 C442 C 0.29055 0.54614 0.88088
 H443 H 0.34671 0.61555 0.92707
 H444 H 0.37397 0.57945 0.88271
 H445 H 0.33891 0.53516 0.85227
 H446 H 0.27607 0.52686 0.86638
 H447 H 0.22671 0.62467 0.97645
 H448 H 0.19272 0.58018 0.94661
 C449 C 0.09437 0.29769 0.40433
 C450 C 0.06483 0.28031 0.38974
 C451 C 0.05740 0.24648 0.40021
 C452 C 0.07702 0.23064 0.42671
 C453 C 0.10478 0.24813 0.44324
 C454 C 0.11457 0.28141 0.43122
 C455 C 0.10468 0.33068 0.39240
 C456 C 0.13382 0.34741 0.40702
 C457 C 0.15351 0.33153 0.43336
 C458 C 0.14427 0.29877 0.44521
 H459 H 0.09081 0.34360 0.37131
 H460 H 0.14140 0.37268 0.39761
 H461 H 0.17631 0.34452 0.44440
 H462 H 0.16092 0.28697 0.46494
 H463 H 0.03505 0.23283 0.38905
 H464 H 0.06940 0.20517 0.43555
 C465 C 0.04791 0.76596 0.60847
 C466 C 0.06528 0.73774 0.62499
 C467 C 0.09929 0.72805 0.61314
 C468 C 0.11508 0.74399 0.58398
 C469 C 0.09691 0.76943 0.56521
 C470 C 0.06361 0.78138 0.57788
 C471 C 0.01423 0.77788 0.62011
 C472 C -0.00359 0.80374 0.60187
 C473 C 0.01168 0.81842 0.57184
 C474 C 0.04505 0.80755 0.55994
 H475 H 0.00117 0.76757 0.64326
 H476 H -0.02951 0.81231 0.61102
 H477 H -0.00236 0.83839 0.55773
 H478 H 0.05616 0.81976 0.53660
 H479 H 0.11266 0.70631 0.62507
 H480 H 0.14051 0.73455 0.57432
 C481 C 0.87594 0.68697 0.40673
 C482 C 0.90245 0.70488 0.38705
 C483 C 0.90423 0.74071 0.38947
 C484 C 0.88364 0.75820 0.41430
 C485 C 0.86092 0.74029 0.43748
 C486 C 0.85540 0.70475 0.43254
 C487 C 0.86945 0.65179 0.40141
 C488 C 0.84425 0.63420 0.42190
 C489 C 0.82494 0.65143 0.44793
 C490 C 0.83032 0.68646 0.45325
 H491 H 0.88314 0.63804 0.38078
 H492 H 0.83956 0.60715 0.41744
 H493 H 0.80542 0.63769 0.46377
 H494 H 0.81438 0.69927 0.47319
 H495 H 0.92393 0.75497 0.37429
 H496 H 0.88831 0.78541 0.41791
 C497 C 0.96287 0.23938 0.60251
 C498 C 0.95070 0.27183 0.61455
 C499 C 0.91853 0.28502 0.60204
 C500 C 0.89880 0.26715 0.57729
 C501 C 0.91075 0.23565 0.56405
 C502 C 0.94265 0.22115 0.57700
 C503 C 0.99555 0.22540 0.61379
 C504 C 1.00776 0.19411 0.60064
 C505 C 0.98784 0.17623 0.57597
 C506 C 0.95562 0.18958 0.56409
 H507 H 1.01210 0.23854 0.63255
 H508 H 1.03291 0.18376 0.60951
 H509 H 0.99752 0.15200 0.56583
 H510 H 0.94104 0.17507 0.54470
 H511 H 0.90910 0.30989 0.61076
 H512 H 0.87477 0.27879 0.56708
 C513 C 0.41192 0.09875 0.30750
 C514 C 0.38936 0.07739 0.28697
 C515 C 0.39178 0.07920 0.25005
 C516 C 0.41819 0.09868 0.23343
 C517 C 0.44285 0.11710 0.25320
 C518 C 0.43888 0.11867 0.29030
 C519 C 0.40845 0.10108 0.34459
 C520 C 0.43104 0.12201 0.36402
 C521 C 0.45743 0.14119 0.34712
 C522 C 0.46136 0.13970 0.31061
 H523 H 0.38803 0.08752 0.35915
 H524 H 0.42784 0.12354 0.39238
 H525 H 0.47475 0.15753 0.36234
 H526 H 0.48175 0.15555 0.29838
 H527 H 0.37469 0.06353 0.23382
 H528 H 0.42087 0.09749 0.20498
 C529 C 0.60726 0.09727 0.73054
 C530 C 0.61053 0.06138 0.73502
 C531 C 0.58582 0.04361 0.75606
 C532 C 0.55692 0.06058 0.77119
 C533 C 0.55178 0.09579 0.76554
 C534 C 0.57738 0.11468 0.74556
 C535 C 0.63267 0.11606 0.71077
 C536 C 0.62832 0.15119 0.70511
 C537 C 0.59869 0.16813 0.71898
 C538 C 0.57335 0.15016 0.73897
 H539 H 0.65614 0.10375 0.69989
 H540 H 0.64797 0.16531 0.68977
 H541 H 0.59533 0.19536 0.71426
 H542 H 0.55068 0.16432 0.74899
 H543 H 0.58801 0.01604 0.75943
 H544 H 0.53750 0.04584 0.78625
 C545 C 0.38594 0.92524 0.75604
 C546 C 0.38195 0.92324 0.71877
 C547 C 0.40371 0.90070 0.69947
 C548 C 0.43009 0.88157 0.71580
 C549 C 0.43564 0.88416 0.75206
 C550 C 0.41301 0.90537 0.77274
 C551 C 0.36515 0.94769 0.77705
 C552 C 0.37009 0.94964 0.81337
 C553 C 0.39633 0.93018 0.82950
 C554 C 0.41788 0.90850 0.80948
 H555 H 0.34507 0.96420 0.76610
 H556 H 0.35360 0.96654 0.82912
 H557 H 0.40024 0.93212 0.85766
 H558 H 0.43835 0.89438 0.82314
 H559 H 0.40110 0.89879 0.67111
 H560 H 0.44744 0.86566 0.69973
 C561 C 0.61556 0.90668 0.29402
 C562 C 0.63425 0.93369 0.27674
 C563 C 0.62863 0.93955 0.24074
 C564 C 0.60160 0.92233 0.22308
 C565 C 0.57980 0.89867 0.24097
 C566 C 0.58785 0.88926 0.27608
 C567 C 0.62356 0.89687 0.32894
 C568 C 0.60416 0.87099 0.34595
 C569 C 0.57664 0.85436 0.32855
 C570 C 0.56851 0.86327 0.29390
 H571 H 0.64522 0.90867 0.34309
 H572 H 0.61063 0.86371 0.37270
 H573 H 0.56171 0.83427 0.34186
 H574 H 0.54735 0.84937 0.28104
 H575 H 0.64301 0.95972 0.22696
 H576 H 0.59584 0.92951 0.19610
 C577 C 0.37463 0.22742 0.95187
 C578 C 0.36370 0.26065 0.94087
 C579 C 0.37611 0.27385 0.90862
 C580 C 0.40119 0.25609 0.88865
 C581 C 0.41480 0.22474 0.90050
 C582 C 0.40060 0.20938 0.93145
 C583 C 0.36208 0.21250 0.98364
 C584 C 0.37453 0.18054 0.99476
 C585 C 0.39983 0.16296 0.97472
 C586 C 0.41295 0.17722 0.94340
 H587 H 0.34260 0.22519 1.00016
 H588 H 0.36460 0.16942 1.01916
 H589 H 0.40944 0.13822 0.98357
 H590 H 0.43272 0.16288 0.92860
 H591 H 0.36808 0.29922 0.89997
 H592 H 0.41215 0.26817 0.86513
 C593 C 0.59050 0.68507 0.89806
 C594 C 0.61324 0.70568 0.91893
 C595 C 0.61059 0.74153 0.91666
 C596 C 0.58370 0.75698 0.89725
 C597 C 0.55857 0.73709 0.87954
 C598 C 0.56270 0.70094 0.87851
 C599 C 0.59493 0.64914 0.89579
 C600 C 0.57191 0.62931 0.87563
 C601 C 0.54437 0.64479 0.85711
 C602 C 0.53981 0.68028 0.85829
 H603 H 0.61663 0.63611 0.90875
 H604 H 0.57567 0.60180 0.87412
 H605 H 0.52672 0.62926 0.84137
 H606 H 0.51865 0.69143 0.84281
 H607 H 0.62794 0.75777 0.93202
 H608 H 0.58098 0.78466 0.89813
 C609 C 0.39193 0.77309 0.06282
 C610 C 0.38771 0.73765 0.07119
 C611 C 0.40999 0.72257 0.09632
 C612 C 0.43751 0.74104 0.11143
 C613 C 0.44372 0.77524 0.10195
 C614 C 0.42032 0.79197 0.07840
 C615 C 0.37009 0.78990 0.03799
 C616 C 0.37573 0.82428 0.02917
 C617 C 0.40332 0.84258 0.04448
 C618 C 0.42560 0.82665 0.06872
 H619 H 0.34864 0.77697 0.02483
 H620 H 0.35871 0.83673 0.01012
 H621 H 0.40765 0.86921 0.03735
 H622 H 0.44699 0.84171 0.07968
 H623 H 0.40717 0.69562 0.10303
 H624 H 0.45536 0.72798 0.12933
 C625 C 0.59587 0.30933 0.09543
 C626 C 0.61288 0.29109 0.06766
 C627 C 0.60822 0.25547 0.06538
 C628 C 0.58390 0.23854 0.08743
 C629 C 0.56371 0.25681 0.11229
 C630 C 0.57084 0.29208 0.11771
 C631 C 0.60297 0.34442 0.10138
 C632 C 0.58520 0.36220 0.12814
 C633 C 0.56027 0.34542 0.14952
 C634 C 0.55315 0.31066 0.14453
 H635 H 0.62272 0.35823 0.08590
 H636 H 0.59093 0.38909 0.13242
 H637 H 0.54662 0.35933 0.17029
 H638 H 0.53411 0.29834 0.16211
 H639 H 0.62112 0.24111 0.04444
 H640 H 0.57870 0.21153 0.08309
 C641 C 0.27997 0.08794 0.60197
 C642 C 0.26586 0.05553 0.61192
 C643 C 0.23285 0.04507 0.59882
 C644 C 0.21521 0.06486 0.57377
 C645 C 0.22992 0.09578 0.56163
 C646 C 0.26193 0.10816 0.57644
 C647 C 0.31175 0.10062 0.61672
 C648 C 0.32580 0.13215 0.60593
 C649 C 0.30854 0.15161 0.58040
 C650 C 0.27691 0.13985 0.56571
 H651 H 0.32575 0.08654 0.63696
 H652 H 0.35019 0.14155 0.61745
 H653 H 0.31963 0.17602 0.57207
 H654 H 0.26422 0.15586 0.54612
 H655 H 0.22181 0.02033 0.60625
 H656 H 0.19091 0.05508 0.56233
 C657 C 0.70422 0.10028 0.40945
 C658 C 0.72434 0.07875 0.38636
 C659 C 0.76166 0.07838 0.38936
 C660 C 0.77821 0.09339 0.41824
 C661 C 0.75819 0.11061 0.44403
 C662 C 0.72134 0.11630 0.43841
 C663 C 0.66785 0.10771 0.40338
 C664 C 0.64864 0.12906 0.42603
 C665 C 0.66529 0.14422 0.45457
 C666 C 0.70134 0.13835 0.46052
 H667 H 0.65418 0.09831 0.38040
 H668 H 0.62085 0.13442 0.42096
 H669 H 0.65041 0.16123 0.47175
 H670 H 0.71355 0.15204 0.48196
 H671 H 0.77800 0.06354 0.37134
 H672 H 0.80663 0.08991 0.42145
 C673 C 0.72734 0.90237 0.62382
 C674 C 0.73532 0.93766 0.62726
 C675 C 0.76121 0.95269 0.60546
 C676 C 0.77717 0.93392 0.57852
 C677 C 0.76722 0.89979 0.57220
 C678 C 0.74272 0.88332 0.59551
 C679 C 0.70368 0.88590 0.64749
 C680 C 0.69419 0.85165 0.64266
 C681 C 0.70792 0.83338 0.61413
 C682 C 0.73186 0.84897 0.59063
 H683 H 0.69275 0.89934 0.67005
 H684 H 0.67588 0.83932 0.66097
 H685 H 0.70006 0.80694 0.61024
 H686 H 0.74155 0.83383 0.56875
 H687 H 0.76746 0.97975 0.60787
 H688 H 0.79588 0.94682 0.56096
 C689 C 0.23358 0.93609 0.37982
 C690 C 0.26982 0.93039 0.37028
 C691 C 0.28747 0.90157 0.38369
 C692 C 0.27100 0.88009 0.40826
 C693 C 0.23647 0.88695 0.42067
 C694 C 0.21690 0.91435 0.40557
 C695 C 0.21416 0.96408 0.36613
 C696 C 0.17934 0.97053 0.37744
 C697 C 0.16328 0.94957 0.40279
 C698 C 0.18182 0.92184 0.41693
 H699 H 0.22548 0.98132 0.34668
 H700 H 0.16485 0.99213 0.36669
 H701 H 0.13636 0.95494 0.41168
 H702 H 0.16841 0.90649 0.43682
 H703 H 0.31514 0.89690 0.37677
 H704 H 0.28638 0.85943 0.41980
 C705 C 0.05452 0.40028 0.77000
 C706 C 0.06495 0.39377 0.73442
 C707 C 0.09139 0.41422 0.71860
 C708 C 0.10694 0.44117 0.73676
 C709 C 0.09648 0.44880 0.77135
 C710 C 0.07043 0.42813 0.78852
 C711 C 0.02746 0.38103 0.78717
 C712 C 0.01674 0.38866 0.82156
 C713 C 0.03232 0.41576 0.83949
 C714 C 0.05874 0.43551 0.82318
 H715 H 0.01396 0.36012 0.77448
 H716 H -0.00403 0.37362 0.83426
 H717 H 0.02365 0.42170 0.86608
 H718 H 0.06959 0.45674 0.83788
 H719 H 0.09949 0.40982 0.69147
 H720 H 0.12676 0.45686 0.72334
 C721 C 0.09024 0.59762 0.30414
 C722 C 0.05929 0.60997 0.28711
 C723 C 0.05257 0.60007 0.25230
 C724 C 0.07409 0.57585 0.23546
 C725 C 0.10300 0.56112 0.25292
 C726 C 0.11209 0.57277 0.28700
 C727 C 0.09998 0.60941 0.33786
 C728 C 0.13005 0.59639 0.35458
 C729 C 0.15099 0.57158 0.33809
 C730 C 0.14224 0.55983 0.30460
 H731 H 0.08488 0.62915 0.35132
 H732 H 0.13721 0.60569 0.38041
 H733 H 0.17429 0.56158 0.35121
 H734 H 0.15945 0.54085 0.29248
 H735 H 0.02907 0.60935 0.23890
 H736 H 0.06691 0.56704 0.20943
 C737 C 0.93869 0.38183 0.22683
 C738 C 0.93005 0.37224 0.26210
 C739 C 0.89896 0.38511 0.27787
 C740 C 0.87818 0.40932 0.26071
 C741 C 0.88806 0.42187 0.22738
 C742 C 0.91754 0.40712 0.20942
 C743 C 0.96880 0.36842 0.20904
 C744 C 0.97738 0.37913 0.17483
 C745 C 0.95696 0.40400 0.15810
 C746 C 0.92750 0.41819 0.17525
 H747 H 0.98585 0.34950 0.22107
 H748 H 1.00005 0.36818 0.16117
 H749 H 0.96406 0.41241 0.13170
 H750 H 0.91254 0.43765 0.16141
 H751 H 0.89189 0.37794 0.30470
 H752 H 0.85581 0.42053 0.27483
 C753 C 0.90346 0.59212 0.69042
 C754 C 0.92639 0.61168 0.71210
 C755 C 0.92570 0.60625 0.74868
 C756 C 0.90540 0.57984 0.76356
 C757 C 0.88521 0.55815 0.74229
 C758 C 0.88295 0.56495 0.70564
 C759 C 0.90011 0.59911 0.65402
 C760 C 0.87791 0.57922 0.63305
 C761 C 0.85837 0.55232 0.64786
 C762 C 0.86062 0.54527 0.68383
 H763 H 0.91391 0.62037 0.64154
 H764 H 0.87563 0.58489 0.60519
 H765 H 0.84106 0.53708 0.63147
 H766 H 0.84434 0.52469 0.69448
 H767 H 0.94277 0.62114 0.76568
 H768 H 0.90724 0.57494 0.79162
 C769 C 0.72751 0.56801 0.95061
 C770 C 0.72398 0.60234 0.93762
 C771 C 0.74006 0.61099 0.90512
 C772 C 0.75423 0.58562 0.88317
 C773 C 0.75488 0.55121 0.89404
 C774 C 0.74449 0.54284 0.92915
 C775 C 0.71638 0.55826 0.98511
 C776 C 0.72068 0.52478 0.99732
 C777 C 0.73846 0.50074 0.97681
 C778 C 0.75094 0.50977 0.94336
 H779 H 0.70507 0.57615 1.00367
 H780 H 0.71064 0.51768 1.02314
 H781 H 0.74285 0.47507 0.98696
 H782 H 0.76584 0.49064 0.92880
 H783 H 0.73870 0.63706 0.89511
 H784 H 0.76285 0.59264 0.85675
 C785 C 0.22920 0.37719 0.93291
 C786 C 0.26721 0.37766 0.93613
 C787 C 0.28607 0.40453 0.91929
 C788 C 0.26868 0.43264 0.90516
 C789 C 0.23167 0.43553 0.90738
 C790 C 0.21137 0.40731 0.92026
 C791 C 0.20817 0.34831 0.94223
 C792 C 0.17106 0.34995 0.94197
 C793 C 0.15396 0.38017 0.93240
 C794 C 0.17379 0.40863 0.92164
 H795 H 0.21965 0.32370 0.94842
 H796 H 0.15546 0.32762 0.94933
 H797 H 0.12514 0.38142 0.93288
 H798 H 0.15929 0.43148 0.91432
 H799 H 0.31494 0.40517 0.91889
 H800 H 0.28454 0.45342 0.89414
 C801 C 0.31350 0.60338 0.11513
 C802 C 0.29219 0.62554 0.09397
 C803 C 0.25492 0.62434 0.09840
 C804 C 0.23885 0.59773 0.11744
 C805 C 0.25951 0.57212 0.13316
 C806 C 0.29695 0.57603 0.13419
 C807 C 0.35069 0.60817 0.11858
 C808 C 0.37110 0.58539 0.13838
 C809 C 0.35499 0.55780 0.15566
 C810 C 0.31822 0.55321 0.15390
 H811 H 0.36422 0.63012 0.10716
 H812 H 0.39953 0.58940 0.14064
 H813 H 0.37096 0.54027 0.17108
 H814 H 0.30649 0.53216 0.16871
 H815 H 0.23779 0.64164 0.08391
 H816 H 0.21008 0.59538 0.11709
 C817 C 0.75366 0.39682 0.04208
 C818 C 0.71536 0.39671 0.04208
 C819 C 0.69734 0.42068 0.06352
 C820 C 0.71556 0.44352 0.08475
 C821 C 0.75273 0.44389 0.08557
 C822 C 0.77218 0.42033 0.06446
 C823 C 0.77438 0.37647 0.01864
 C824 C 0.81150 0.37753 0.01890
 C825 C 0.82914 0.39946 0.04155
 C826 C 0.80984 0.42101 0.06375
 H827 H 0.76297 0.36043 -0.00129
 H828 H 0.82670 0.36163 0.00086
 H829 H 0.85798 0.40036 0.04132
 H830 H 0.82485 0.43846 0.07995
 H831 H 0.66848 0.42171 0.06436
 H832 H 0.70037 0.46180 0.10026
 C833 C 0.95508 0.72667 0.57256
 C834 C 0.94182 0.72198 0.60779
 C835 C 0.91013 0.73866 0.61792
 C836 C 0.88893 0.75507 0.59297
 C837 C 0.89994 0.75724 0.55766
 C838 C 0.93455 0.74580 0.54802
 C839 C 0.98922 0.71497 0.56148
 C840 C 1.00207 0.72119 0.52750
 C841 C 0.98243 0.74083 0.50414
 C842 C 0.94927 0.75352 0.51437
 H843 H 1.00729 0.70192 0.57874
 H844 H 1.02780 0.71122 0.51961
 H845 H 0.99306 0.74652 0.47811
 H846 H 0.93545 0.76979 0.49579
 H847 H 0.90016 0.73661 0.64477
 H848 H 0.86295 0.76457 0.60094
 C849 C 0.89830 0.30020 0.40344
 C850 C 0.92141 0.28212 0.37985
 C851 C 0.92209 0.24605 0.38160
 C852 C 0.90620 0.22874 0.40992
 C853 C 0.88859 0.24689 0.43666
 C854 C 0.88251 0.28246 0.43251
 C855 C 0.88979 0.33526 0.39841
 C856 C 0.86815 0.35266 0.42252
 C857 C 0.85407 0.33553 0.45176
 C858 C 0.86089 0.30069 0.45669
 H859 H 0.89869 0.34930 0.37528
 H860 H 0.86199 0.37951 0.41831
 H861 H 0.83719 0.34913 0.47033
 H862 H 0.84848 0.28801 0.47912
 H863 H 0.93830 0.23129 0.36336
 H864 H 0.91018 0.20129 0.41247
 C865 C 0.11341 0.30896 0.60215
 C866 C 0.09120 0.29051 0.62633
 C867 C 0.09316 0.25443 0.62665
 C868 C 0.11005 0.23697 0.59912
 C869 C 0.12660 0.25508 0.57147
 C870 C 0.13103 0.29103 0.57442
 C871 C 0.11918 0.34470 0.60532
 C872 C 0.14043 0.36238 0.58091
 C873 C 0.15686 0.34486 0.55329
 C874 C 0.15255 0.30948 0.55016
 H875 H 0.10833 0.35912 0.62725
 H876 H 0.14452 0.38973 0.58369
 H877 H 0.17354 0.35865 0.53456
 H878 H 0.16680 0.29655 0.52914
 H879 H 0.07785 0.23947 0.64561
 H880 H 0.10723 0.20933 0.59771
 C881 C 0.05013 0.75301 0.38677
 C882 C 0.04785 0.71625 0.38948
 C883 C 0.06933 0.69959 0.41458
 C884 C 0.09126 0.71764 0.43707
 C885 C 0.09269 0.75340 0.43620
 C886 C 0.07280 0.77144 0.41048
 C887 C 0.02876 0.77252 0.36343
 C888 C 0.03067 0.80825 0.36244
 C889 C 0.05307 0.82572 0.38505
 C890 C 0.07364 0.80767 0.40911
 H891 H 0.00963 0.76132 0.34605
 H892 H 0.01419 0.82254 0.34428
 H893 H 0.05410 0.85349 0.38431
 H894 H 0.08999 0.82249 0.42672
 H895 H 0.06913 0.67187 0.41729
 H896 H 0.10618 0.70348 0.45666
 C897 C 0.60344 0.89866 0.70433
 C898 C 0.62000 0.92505 0.72411
 C899 C 0.61222 0.92793 0.76024
 C900 C 0.58575 0.90772 0.77603
 C901 C 0.56687 0.88374 0.75620
 C902 C 0.57694 0.87769 0.72069
 C903 C 0.61227 0.89278 0.66854
 C904 C 0.59565 0.86681 0.64958
 C905 C 0.56986 0.84627 0.66571
 C906 C 0.56045 0.85159 0.70090
 H907 H 0.63231 0.90775 0.65485
 H908 H 0.60296 0.86253 0.62226
 H909 H 0.55713 0.82608 0.65090
 H910 H 0.54048 0.83488 0.71259
 H911 H 0.62458 0.94790 0.77571
 H912 H 0.57819 0.91256 0.80321
 C913 C 0.40804 0.91018 0.29143
 C914 C 0.39086 0.93839 0.27496
 C915 C 0.40058 0.94744 0.24032
 C916 C 0.42885 0.93109 0.22312
 C917 C 0.44820 0.90525 0.24007
 C918 C 0.43718 0.89377 0.27400
 C919 C 0.39672 0.89767 0.32474
 C920 C 0.41440 0.87045 0.34092
 C921 C 0.44332 0.85491 0.32419
 C922 C 0.45456 0.86621 0.29096
 H923 H 0.37375 0.90824 0.33827
 H924 H 0.40545 0.86120 0.36648
 H925 H 0.45687 0.83372 0.33685
 H926 H 0.47663 0.85289 0.27855
 H927 H 0.38767 0.96879 0.22725
 H928 H 0.43692 0.93993 0.19711
 C929 C 0.61776 0.06491 0.23541
 C930 C 0.62686 0.07230 0.27087
 C931 C 0.61062 0.10002 0.28800
 C932 C 0.58431 0.11916 0.27153
 C933 C 0.57311 0.11101 0.23749
 C934 C 0.59051 0.08445 0.21864
 C935 C 0.63352 0.03737 0.21686
 C936 C 0.62305 0.02955 0.18265
 C937 C 0.59655 0.04869 0.16634
 C938 C 0.58022 0.07579 0.18413
 H939 H 0.65391 0.02155 0.22845
 H940 H 0.63544 0.00838 0.16879
 H941 H 0.58846 0.04237 0.13984
 H942 H 0.55950 0.08981 0.17066
 H943 H 0.61713 0.10586 0.31510
 H944 H 0.57090 0.13918 0.28634
 C945 C 0.36869 0.06045 0.75929
 C946 C 0.36779 0.06071 0.72165
 C947 C 0.39028 0.08356 0.70319
 C948 C 0.41604 0.10256 0.72038
 C949 C 0.42029 0.09966 0.75677
 C950 C 0.39580 0.07959 0.77682
 C951 C 0.34449 0.04103 0.78013
 C952 C 0.34714 0.04010 0.81676
 C953 C 0.37431 0.05766 0.83351
 C954 C 0.39857 0.07707 0.81386
 H955 H 0.32272 0.02688 0.76913
 H956 H 0.32806 0.02545 0.83226
 H957 H 0.37651 0.05634 0.86192
 H958 H 0.41931 0.09011 0.82811
 H959 H 0.38952 0.08515 0.67467
 H960 H 0.43433 0.11812 0.70482
 C961 C 0.60849 0.71995 0.09256
 C962 C 0.62492 0.73208 0.06092
 C963 C 0.61831 0.76582 0.04965
 C964 C 0.59320 0.78626 0.06710
 C965 C 0.57463 0.77371 0.09664
 C966 C 0.58334 0.74104 0.11057
 C967 C 0.61611 0.68711 0.10654
 C968 C 0.59936 0.67539 0.13730
 C969 C 0.57469 0.69600 0.15476
 C970 C 0.56663 0.72851 0.14163
 H971 H 0.63512 0.67022 0.09408
 H972 H 0.60558 0.65016 0.14762
 H973 H 0.56175 0.68677 0.17863
 H974 H 0.54744 0.74382 0.15613
 H975 H 0.63053 0.77545 0.02556
 H976 H 0.58655 0.81115 0.05613
 C977 C 0.39402 0.30057 0.10698
 C978 C 0.37497 0.28131 0.08178
 C979 C 0.38212 0.24620 0.07805
 C980 C 0.41060 0.23105 0.09564
 C981 C 0.43231 0.25060 0.11767
 C982 C 0.42290 0.28509 0.12510
 C983 C 0.38510 0.33502 0.11437
 C984 C 0.40445 0.35386 0.13881
 C985 C 0.43280 0.33875 0.15647
 C986 C 0.44194 0.30466 0.14988
 H987 H 0.36276 0.34745 0.10180
 H988 H 0.39728 0.38024 0.14424
 H989 H 0.44762 0.35343 0.17555
 H990 H 0.46368 0.29367 0.16466
 H991 H 0.36753 0.23105 0.05922
 H992 H 0.41729 0.20457 0.09001
 C993 C 0.58617 0.28721 0.89121
 C994 C 0.59762 0.27720 0.92519
 C995 C 0.58446 0.24695 0.94044
 C996 C 0.55826 0.22795 0.92367
 C997 C 0.54471 0.23860 0.89113
 C998 C 0.55913 0.26798 0.87416
 C999 C 0.60101 0.31599 0.87387
 C1000 C 0.58857 0.32639 0.84098
 C1001 C 0.56137 0.30818 0.82474
 C1002 C 0.54673 0.27917 0.84105
 H1003 H 0.62268 0.33017 0.88539
 H1004 H 0.60013 0.34864 0.82802
 H1005 H 0.55174 0.31643 0.79927
 H1006 H 0.52586 0.26553 0.82748
 H1007 H 0.59311 0.23901 0.96641
 H1008 H 0.54716 0.20565 0.93698
 C1009 C 0.38248 0.71019 0.90083
 C1010 C 0.37388 0.72569 0.93346
 C1011 C 0.38987 0.75692 0.94239
 C1012 C 0.41688 0.77091 0.92128
 C1013 C 0.42847 0.75392 0.89081
 C1014 C 0.41035 0.72412 0.87951
 C1015 C 0.36421 0.68080 0.88926
 C1016 C 0.37384 0.66488 0.85770
 C1017 C 0.40174 0.67799 0.83719
 C1018 C 0.41988 0.70740 0.84784
 H1019 H 0.34189 0.67058 0.90422
 H1020 H 0.35951 0.64238 0.84904
 H1021 H 0.40915 0.66550 0.81276
 H1022 H 0.44109 0.71710 0.83098
 H1023 H 0.38366 0.76898 0.96734
 H1024 H 0.43062 0.79370 0.93016
 C1025 C 0.77089 0.95484 0.40202
 C1026 C 0.73721 0.94473 0.38876
 C1027 C 0.72105 0.91467 0.40151
 C1028 C 0.73704 0.89517 0.42776
 C1029 C 0.76946 0.90536 0.44225
 C1030 C 0.78709 0.93489 0.42904
 C1031 C 0.78806 0.98522 0.39048
 C1032 C 0.82047 0.99534 0.40481
 C1033 C 0.83641 0.97557 0.43090
 C1034 C 0.81995 0.94563 0.44303
 H1035 H 0.77671 1.00156 0.37053
 H1036 H 0.83323 1.01873 0.39569
 H1037 H 0.86156 0.98358 0.44192
 H1038 H 0.83309 0.93102 0.46347
 H1039 H 0.69521 0.90687 0.39189
 H1040 H 0.72314 0.87286 0.43812
 C1041 C 0.30488 0.89279 0.58327
 C1042 C 0.28343 0.91503 0.60419
 C1043 C 0.24643 0.91512 0.59963
 C1044 C 0.23095 0.89638 0.57263
 C1045 C 0.25201 0.87714 0.54932
 C1046 C 0.28906 0.87414 0.55523
 C1047 C 0.34161 0.88839 0.58972
 C1048 C 0.36237 0.86711 0.56833
 C1049 C 0.34701 0.84958 0.54042
 C1050 C 0.31067 0.85284 0.53393
 H1051 H 0.35447 0.90060 0.61175
 H1052 H 0.39048 0.86400 0.57361
 H1053 H 0.36326 0.83301 0.52400
 H1054 H 0.29956 0.83818 0.51250
 H1055 H 0.22955 0.93165 0.61551
 H1056 H 0.20253 0.89874 0.56846
 C1057 C 0.28368 0.10136 0.39118
 C1058 C 0.26952 0.07012 0.37850
 C1059 C 0.23602 0.05910 0.39045
 C1060 C 0.21815 0.07668 0.41721
 C1061 C 0.23326 0.10586 0.43249
 C1062 C 0.26568 0.11917 0.41878
 C1063 C 0.31560 0.11504 0.37720
 C1064 C 0.33018 0.14502 0.39093
 C1065 C 0.31318 0.16188 0.41871
 C1066 C 0.28119 0.14918 0.43260
 H1067 H 0.32896 0.10296 0.35513
 H1068 H 0.35474 0.15526 0.37993
 H1069 H 0.32469 0.18505 0.42937
 H1070 H 0.26863 0.16315 0.45397
 H1071 H 0.22483 0.03534 0.38093
 H1072 H 0.19346 0.06616 0.42769
 C1073 C 0.70537 0.10251 0.61004
 C1074 C 0.72343 0.07602 0.62848
 C1075 C 0.76002 0.07122 0.62239
 C1076 C 0.77780 0.08941 0.59571
 C1077 C 0.75955 0.11318 0.57480
 C1078 C 0.72371 0.12136 0.58321
 C1079 C 0.66935 0.11047 0.61739
 C1080 C 0.65195 0.13642 0.59887
 C1081 C 0.66997 0.15490 0.57274
 C1082 C 0.70553 0.14756 0.56493
 H1083 H 0.65443 0.09708 0.63771
 H1084 H 0.62438 0.14231 0.60495
 H1085 H 0.65639 0.17513 0.55857
 H1086 H 0.71887 0.16287 0.54490
 H1087 H 0.77423 0.05113 0.63621
 H1088 H 0.80526 0.08299 0.58959
 C1089 C 0.89252 0.57004 0.30912
 C1090 C 0.91383 0.59525 0.29130
 C1091 C 0.91339 0.59662 0.25430
 C1092 C 0.89538 0.57202 0.23487
 C1093 C 0.87688 0.54539 0.25176
 C1094 C 0.87374 0.54519 0.28898
 C1095 C 0.88895 0.56882 0.34629
 C1096 C 0.86772 0.54409 0.36292
 C1097 C 0.84938 0.52008 0.34311
 C1098 C 0.85218 0.52059 0.30650
 H1099 H 0.90182 0.58689 0.36322
 H1100 H 0.86530 0.54372 0.39139
 H1101 H 0.83273 0.50111 0.35617
 H1102 H 0.83690 0.50188 0.29201
 H1103 H 0.92898 0.61568 0.24007
 H1104 H 0.89779 0.57253 0.20637
 C1105 C 0.90016 0.39370 0.69783
 C1106 C 0.92727 0.37763 0.71776
 C1107 C 0.93072 0.38572 0.75355
 C1108 C 0.91098 0.41238 0.76846
 C1109 C 0.88710 0.43128 0.74800
 C1110 C 0.88008 0.42092 0.71301
 C1111 C 0.89283 0.38350 0.66297
 C1112 C 0.86675 0.40021 0.64336
 C1113 C 0.84742 0.42716 0.65810
 C1114 C 0.85383 0.43745 0.69262
 H1115 H 0.90670 0.36219 0.65085
 H1116 H 0.86141 0.39210 0.61667
 H1117 H 0.82716 0.44000 0.64279
 H1118 H 0.83780 0.45809 0.70334
 H1119 H 0.95096 0.37342 0.76929
 H1120 H 0.91624 0.41989 0.79539
 C1121 C 0.10365 0.61380 0.72079
 C1122 C 0.07134 0.62743 0.73453
 C1123 C 0.05978 0.61762 0.76834
 C1124 C 0.07738 0.59172 0.78673
 C1125 C 0.10703 0.57521 0.77185
 C1126 C 0.12140 0.58717 0.73944
 C1127 C 0.11836 0.62567 0.68855
 C1128 C 0.14940 0.61108 0.67473
 C1129 C 0.16632 0.58450 0.69265
 C1130 C 0.15254 0.57256 0.72473
 H1131 H 0.10631 0.64661 0.67410
 H1132 H 0.16040 0.62045 0.65000
 H1133 H 0.19035 0.57323 0.68173
 H1134 H 0.16660 0.55210 0.73808
 H1135 H 0.03516 0.62778 0.77922
 H1136 H 0.06613 0.58265 0.81150
 C1137 C 0.08026 0.38062 0.24200
 C1138 C 0.07544 0.37821 0.27926
 C1139 C 0.09384 0.40131 0.30083
 C1140 C 0.11250 0.42889 0.28663
 C1141 C 0.11356 0.43456 0.25026
 C1142 C 0.09869 0.40967 0.22741
 C1143 C 0.06651 0.35580 0.21871
 C1144 C 0.07036 0.35962 0.18232
 C1145 C 0.08670 0.38866 0.16820
 C1146 C 0.10047 0.41365 0.19038
 H1147 H 0.05349 0.33277 0.22781
 H1148 H 0.06014 0.34008 0.16490
 H1149 H 0.08883 0.39180 0.13988
 H1150 H 0.11259 0.43587 0.17807
 H1151 H 0.09168 0.39947 0.32930
 H1152 H 0.12434 0.44729 0.30438
   
