data_POSCAR
  _audit_creation_date              2014-09-24
  _audit_creation_method            'ToBaCCo'
  _symmetry_space_group_name_H-M    'P1'
  _symmetry_Int_Tables_number       1
  _symmetry_cell_setting            triclinic
  loop_
  _symmetry_equiv_pos_as_xyz
 x,y,z
_cell_length_a 54.0767
_cell_length_b 54.0922
_cell_length_c 54.1351
_cell_angle_alpha 89.958400
_cell_angle_beta 89.985000
_cell_angle_gamma 89.999200
loop_
  _atom_site_label
  _atom_site_type_symbol
  _atom_site_fract_x
  _atom_site_fract_y
  _atom_site_fract_z
C1 C 0.18802 0.22251 0.21528
 C2 C 0.20180 0.22945 0.19446
 C3 C 0.22236 0.21579 0.18758
 C4 C 0.22939 0.19505 0.20144
 C5 C 0.21576 0.18820 0.22203
 C6 C 0.19496 0.20201 0.22899
 C7 C 0.16722 0.23229 0.22625
 N8 N 0.16156 0.21818 0.24613
 C9 C 0.17828 0.19964 0.24807
 C10 C 0.22676 0.16744 0.23185
 N11 N 0.24659 0.16170 0.21769
 C12 C 0.24846 0.17834 0.19907
 C13 C 0.23209 0.22672 0.16674
 N14 N 0.21789 0.24653 0.16100
 C15 C 0.19935 0.24846 0.17770
 H16 H 0.15697 0.24841 0.22025
 H17 H 0.17825 0.18554 0.26227
 H18 H 0.22083 0.15726 0.24803
 H19 H 0.26261 0.17824 0.18492
 H20 H 0.24823 0.22076 0.15651
 H21 H 0.18518 0.26261 0.17763
 C22 C 0.68788 0.72226 0.71545
 C23 C 0.70167 0.72921 0.69463
 C24 C 0.72221 0.71555 0.68773
 C25 C 0.72922 0.69477 0.70156
 C26 C 0.71559 0.68790 0.72214
 C27 C 0.69481 0.70173 0.72912
 C28 C 0.66710 0.73204 0.72644
 N29 N 0.66142 0.71790 0.74630
 C30 C 0.67813 0.69934 0.74820
 C31 C 0.72658 0.66712 0.73192
 N32 N 0.74639 0.66138 0.71774
 C33 C 0.74827 0.67805 0.69916
 C34 C 0.73194 0.72649 0.66690
 N35 N 0.71777 0.74632 0.66119
 C36 C 0.69923 0.74824 0.67790
 H37 H 0.65685 0.74817 0.72047
 H38 H 0.67809 0.68521 0.76238
 H39 H 0.72064 0.65691 0.74808
 H40 H 0.76242 0.67796 0.68499
 H41 H 0.74808 0.72052 0.65667
 H42 H 0.68508 0.76241 0.67784
 C43 C 0.31106 0.77781 0.71604
 C44 C 0.29727 0.77090 0.69523
 C45 C 0.27678 0.78463 0.68828
 C46 C 0.26985 0.80546 0.70206
 C47 C 0.28349 0.81229 0.72263
 C48 C 0.30422 0.79839 0.72965
 C49 C 0.33180 0.76796 0.72704
 N50 N 0.33753 0.78210 0.74686
 C51 C 0.32090 0.80072 0.74872
 C52 C 0.27260 0.83314 0.73237
 N53 N 0.25281 0.83892 0.71816
 C54 C 0.25086 0.82225 0.69961
 C55 C 0.26702 0.77371 0.66748
 N56 N 0.28113 0.75382 0.66182
 C57 C 0.29964 0.75184 0.67855
 H58 H 0.34199 0.75178 0.72111
 H59 H 0.32100 0.81487 0.76287
 H60 H 0.27859 0.84332 0.74852
 H61 H 0.23673 0.82236 0.68543
 H62 H 0.25093 0.77973 0.65722
 H63 H 0.31374 0.73762 0.67852
 C64 C 0.81242 0.27746 0.21580
 C65 C 0.79872 0.27047 0.19495
 C66 C 0.77815 0.28408 0.18798
 C67 C 0.77105 0.30484 0.20177
 C68 C 0.78459 0.31174 0.22236
 C69 C 0.80540 0.29798 0.22942
 C70 C 0.83320 0.26772 0.22684
 N71 N 0.83877 0.28189 0.24669
 C72 C 0.82201 0.30042 0.24855
 C73 C 0.77352 0.33249 0.23209
 N74 N 0.75372 0.33817 0.21786
 C75 C 0.75195 0.32150 0.19929
 C76 C 0.76851 0.27310 0.16716
 N77 N 0.78275 0.25331 0.16150
 C78 C 0.80125 0.25144 0.17826
 H79 H 0.84350 0.25161 0.22090
 H80 H 0.82195 0.31456 0.26270
 H81 H 0.77938 0.34271 0.24825
 H82 H 0.73785 0.32154 0.18510
 H83 H 0.75238 0.27903 0.15688
 H84 H 0.81543 0.23730 0.17826
 C85 C 0.81259 0.72287 0.28317
 C86 C 0.79881 0.72992 0.30395
 C87 C 0.77826 0.71629 0.31093
 C88 C 0.77125 0.69545 0.29723
 C89 C 0.78487 0.68848 0.27670
 C90 C 0.80566 0.70227 0.26962
 C91 C 0.83338 0.73261 0.27213
 N92 N 0.83904 0.71836 0.25235
 C93 C 0.82234 0.69979 0.25055
 C94 C 0.77387 0.66766 0.26705
 N95 N 0.75405 0.66200 0.28126
 C96 C 0.75219 0.67876 0.29974
 C97 C 0.76852 0.72733 0.33168
 N98 N 0.78269 0.74718 0.33729
 C99 C 0.80123 0.74904 0.32057
 H100 H 0.84361 0.74878 0.27801
 H101 H 0.82235 0.68558 0.23646
 H102 H 0.77979 0.65737 0.25094
 H103 H 0.73804 0.67876 0.31390
 H104 H 0.75239 0.72139 0.34195
 H105 H 0.81538 0.76320 0.32056
 C106 C 0.31213 0.22241 -0.21628
 C107 C 0.29817 0.22952 -0.19564
 C108 C 0.27759 0.21589 -0.18876
 C109 C 0.27072 0.19498 -0.20243
 C110 C 0.28451 0.18794 -0.22284
 C111 C 0.30534 0.20174 -0.22980
 C112 C 0.33299 0.23214 -0.22719
 N113 N 0.33883 0.21782 -0.24686
 C114 C 0.32218 0.19921 -0.24873
 C115 C 0.27363 0.16705 -0.23249
 N116 N 0.25371 0.16144 -0.21839
 C117 C 0.25166 0.17827 -0.19999
 C118 C 0.26768 0.22699 -0.16812
 N119 N 0.28179 0.24689 -0.16249
 C120 C 0.30045 0.24870 -0.17908
 H121 H 0.34314 0.24835 -0.22129
 H122 H 0.32233 0.18495 -0.26277
 H123 H 0.27972 0.15673 -0.24852
 H124 H 0.23740 0.17832 -0.18592
 H125 H 0.25149 0.22108 -0.15794
 H126 H 0.31459 0.26288 -0.17904
 C127 C 0.68824 0.27730 -0.21618
 C128 C 0.70214 0.27026 -0.19547
 C129 C 0.72271 0.28390 -0.18861
 C130 C 0.72963 0.30475 -0.20238
 C131 C 0.71590 0.31172 -0.22285
 C132 C 0.69508 0.29792 -0.22979
 C133 C 0.66741 0.26755 -0.22709
 N134 N 0.66164 0.28178 -0.24685
 C135 C 0.67831 0.30038 -0.24878
 C136 C 0.72684 0.33257 -0.23259
 N137 N 0.74672 0.33821 -0.21847
 C138 C 0.74870 0.32145 -0.19997
 C139 C 0.73256 0.27287 -0.16790
 N140 N 0.71842 0.25300 -0.16220
 C141 C 0.69980 0.25114 -0.17881
 H142 H 0.65723 0.25136 -0.22112
 H143 H 0.67821 0.31458 -0.26289
 H144 H 0.72080 0.34284 -0.24868
 H145 H 0.76291 0.32144 -0.18587
 H146 H 0.74873 0.27880 -0.15772
 H147 H 0.68566 0.23697 -0.17874
 C148 C 0.18808 0.77783 0.28359
 C149 C 0.20179 0.77081 0.30443
 C150 C 0.22232 0.78444 0.31143
 C151 C 0.22938 0.80525 0.29768
 C152 C 0.21583 0.81220 0.27708
 C153 C 0.19506 0.79840 0.27000
 C154 C 0.16732 0.76810 0.27253
 N155 N 0.16171 0.78230 0.25270
 C156 C 0.17843 0.80085 0.25088
 C157 C 0.22686 0.83301 0.26739
 N158 N 0.24664 0.83866 0.28166
 C159 C 0.24845 0.82194 0.30021
 C160 C 0.23197 0.77343 0.33225
 N161 N 0.21776 0.75359 0.33787
 C162 C 0.19928 0.75173 0.32110
 H163 H 0.15705 0.75195 0.27843
 H164 H 0.17844 0.81502 0.23674
 H165 H 0.22097 0.84326 0.25123
 H166 H 0.26254 0.82195 0.31443
 H167 H 0.24807 0.77936 0.34256
 H168 H 0.18511 0.73758 0.32108
 C169 C 0.47248 0.43805 0.46639
 C170 C 0.47949 0.45185 0.44559
 C171 C 0.46583 0.47239 0.43865
 C172 C 0.44501 0.47938 0.45242
 C173 C 0.43808 0.46574 0.47297
 C174 C 0.45190 0.44496 0.47999
 C175 C 0.48224 0.41727 0.47740
 N176 N 0.46805 0.41157 0.49721
 C177 C 0.44947 0.42826 0.49906
 C178 C 0.41726 0.47671 0.48268
 N179 N 0.41156 0.49653 0.46848
 C180 C 0.42828 0.49842 0.44996
 C181 C 0.47683 0.48214 0.41787
 N182 N 0.49669 0.46799 0.41221
 C183 C 0.49858 0.44944 0.42892
 H184 H 0.49841 0.40704 0.47148
 H185 H 0.43530 0.42821 0.51319
 H186 H 0.40700 0.47076 0.49881
 H187 H 0.42824 0.51257 0.43580
 H188 H 0.47087 0.49827 0.40761
 H189 H 0.51275 0.43530 0.42890
 C190 C -0.02741 -0.06227 0.96608
 C191 C -0.02029 -0.04835 0.94540
 C192 C -0.03386 -0.02773 0.93854
 C193 C -0.05472 -0.02077 0.95227
 C194 C -0.06176 -0.03452 0.97272
 C195 C -0.04803 -0.05539 0.97966
 C196 C -0.01773 -0.08314 0.97699
 N197 N -0.03203 -0.08891 0.99672
 C198 C -0.05058 -0.07219 0.99863
 C199 C -0.08259 -0.02354 0.98243
 N200 N -0.08816 -0.00361 0.96833
 C201 C -0.07136 -0.00165 0.94986
 C202 C -0.02276 -0.01788 0.91786
 N203 N -0.00292 -0.03206 0.91219
 C204 C -0.00115 -0.05071 0.92879
 H205 H -0.00156 -0.09335 0.97106
 H206 H -0.06481 -0.07227 1.01272
 H207 H -0.09291 -0.02958 0.99850
 H208 H -0.07129 0.01259 0.93578
 H209 H -0.02863 -0.00167 0.90769
 H210 H 0.01298 -0.06490 0.92873
 C211 C 1.02726 0.56193 0.96646
 C212 C 1.02021 0.54805 0.94576
 C213 C 1.03387 0.52752 0.93886
 C214 C 1.05476 0.52061 0.95257
 C215 C 1.06174 0.53432 0.97303
 C216 C 1.04791 0.55510 0.98002
 C217 C 1.01749 0.58273 0.97741
 N218 N 1.03176 0.58850 0.99714
 C219 C 1.05038 0.57186 0.99901
 C220 C 1.08262 0.52340 0.98272
 N221 N 1.08827 0.50354 0.96856
 C222 C 1.07149 0.50157 0.95011
 C223 C 1.02282 0.51769 0.91816
 N224 N 1.00293 0.53180 0.91251
 C225 C 1.00106 0.55039 0.92915
 H226 H 1.00128 0.59290 0.97149
 H227 H 1.06461 0.57196 1.01309
 H228 H 1.09291 0.52942 0.99878
 H229 H 1.07147 0.48738 0.93599
 H230 H 1.02878 0.50154 0.90795
 H231 H 0.98687 0.56451 0.92911
 C232 C 0.52784 0.06141 0.46658
 C233 C 0.52075 0.04763 0.44582
 C234 C 0.53440 0.02713 0.43880
 C235 C 0.55530 0.02015 0.45245
 C236 C 0.56231 0.03376 0.47297
 C237 C 0.54849 0.05451 0.48007
 C238 C 0.51810 0.08216 0.47764
 N239 N 0.53237 0.08784 0.49739
 C240 C 0.55098 0.07118 0.49914
 C241 C 0.58319 0.02280 0.48259
 N242 N 0.58883 0.00301 0.46835
 C243 C 0.57203 0.00112 0.44989
 C244 C 0.52332 0.01740 0.41807
 N245 N 0.50342 0.03154 0.41251
 C246 C 0.50158 0.05005 0.42924
 H247 H 0.50189 0.09237 0.47181
 H248 H 0.56521 0.07123 0.51320
 H249 H 0.59350 0.02875 0.49868
 H250 H 0.57200 -0.01301 0.43572
 H251 H 0.52925 0.00129 0.40778
 H252 H 0.48739 0.06417 0.42929
 C253 C -0.02746 0.06244 0.53469
 C254 C -0.02044 0.04866 0.55549
 C255 C -0.03403 0.02807 0.56241
 C256 C -0.05481 0.02102 0.54862
 C257 C -0.06175 0.03464 0.52806
 C258 C -0.04799 0.05547 0.52106
 C259 C -0.01774 0.08325 0.52368
 N260 N -0.03192 0.08889 0.50385
 C261 C -0.05044 0.07214 0.50199
 C262 C -0.08250 0.02360 0.51831
 N263 N -0.08816 0.00375 0.53248
 C264 C -0.07147 0.00190 0.55103
 C265 C -0.02302 0.01833 0.58319
 N266 N -0.00321 0.03255 0.58886
 C267 C -0.00137 0.05112 0.57217
 H268 H -0.00162 0.09352 0.52961
 H269 H -0.06458 0.07214 0.48783
 H270 H -0.09274 0.02952 0.50216
 H271 H -0.07149 -0.01226 0.56517
 H272 H -0.02892 0.00217 0.59342
 H273 H 0.01277 0.06529 0.57220
 C274 C 0.47242 0.56236 0.03393
 C275 C 0.47936 0.54855 0.05473
 C276 C 0.46569 0.52800 0.06162
 C277 C 0.44492 0.52101 0.04779
 C278 C 0.43806 0.53465 0.02723
 C279 C 0.45189 0.55545 0.02026
 C280 C 0.48222 0.58316 0.02296
 N281 N 0.46807 0.58883 0.00311
 C282 C 0.44950 0.57214 0.00118
 C283 C 0.41728 0.52367 0.01744
 N284 N 0.41155 0.50384 0.03160
 C285 C 0.42821 0.50195 0.05018
 C286 C 0.47663 0.51823 0.08243
 N287 N 0.49647 0.53240 0.08815
 C288 C 0.49840 0.55096 0.07146
 H289 H 0.49836 0.59338 0.02895
 H290 H 0.43536 0.57217 -0.01299
 H291 H 0.40709 0.52963 0.00129
 H292 H 0.42812 0.48778 0.06433
 H293 H 0.47066 0.50208 0.09265
 H294 H 0.51257 0.56510 0.07153
 C295 C 0.52779 -0.06208 0.03465
 C296 C 0.52086 -0.04834 0.05548
 C297 C 0.53456 -0.02783 0.06241
 C298 C 0.55534 -0.02083 0.04858
 C299 C 0.56219 -0.03442 0.02799
 C300 C 0.54833 -0.05517 0.02099
 C301 C 0.51797 -0.08283 0.02365
 N302 N 0.53209 -0.08848 0.00378
 C303 C 0.55067 -0.07181 0.00189
 C304 C 0.58298 -0.02344 0.01822
 N305 N 0.58875 -0.00366 0.03241
 C306 C 0.57209 -0.00180 0.05100
 C307 C 0.52363 -0.01812 0.08324
 N308 N 0.50377 -0.03228 0.08894
 C309 C 0.50182 -0.05078 0.07221
 H310 H 0.50182 -0.09305 0.02961
 H311 H 0.56480 -0.07184 -0.01229
 H312 H 0.59317 -0.02936 0.00204
 H313 H 0.57220 0.01232 0.06517
 H314 H 0.52962 -0.00202 0.09349
 H315 H 0.48763 -0.06490 0.07225
 C316 C 1.02770 0.43863 0.53421
 C317 C 1.02079 0.45227 0.55511
 C318 C 1.03444 0.47279 0.56209
 C319 C 1.05517 0.47991 0.54824
 C320 C 1.06200 0.46642 0.52757
 C321 C 1.04818 0.44566 0.52052
 C322 C 1.01791 0.41791 0.52315
 N323 N 1.03199 0.41237 0.50322
 C324 C 1.05053 0.42910 0.50135
 C325 C 1.08274 0.47750 0.51777
 N326 N 1.08847 0.49724 0.53205
 C327 C 1.07186 0.49899 0.55070
 C328 C 1.02353 0.48238 0.58298
 N329 N 1.00373 0.46814 0.58867
 C330 C 1.00179 0.44971 0.57187
 H331 H 1.00180 0.40761 0.52911
 H332 H 1.06461 0.42917 0.48713
 H333 H 1.09289 0.47166 0.50154
 H334 H 1.07194 0.51305 0.56494
 H335 H 1.02949 0.49847 0.59328
 H336 H 0.98764 0.43555 0.57188
 C337 C 0.41283 0.01112 0.21758
 H338 H 0.41380 0.02785 0.22848
 C339 C 0.42903 0.00769 0.19778
 H340 H 0.44249 0.02184 0.19332
 C341 C 0.39434 -0.02796 0.21023
 H342 H 0.38108 -0.04198 0.21535
 C343 C 0.41021 -0.03213 0.19029
 H344 H 0.40894 -0.04923 0.17997
 N345 N 0.39573 -0.00647 0.22323
 C346 C 0.33702 0.03293 0.26203
 H347 H 0.33591 0.02208 0.27879
 C348 C 0.32096 0.05283 0.25845
 H349 H 0.30747 0.05742 0.27252
 C350 C 0.35568 0.04003 0.22301
 H351 H 0.36895 0.03477 0.20906
 C352 C 0.33997 0.06007 0.21869
 H353 H 0.34135 0.07032 0.20155
 Zn354 Zn 0.37481 -0.00049 0.25064
 N355 N 0.35413 0.02710 0.24454
 C356 C 0.39404 0.02697 0.29118
 N357 N 0.39544 0.00542 0.27827
 C358 C 0.41242 -0.01222 0.28412
 C359 C 0.42849 -0.00877 0.30401
 C360 C 0.40978 0.03116 0.31121
 C361 C 0.33700 -0.03371 0.23879
 C362 C 0.32083 -0.05356 0.24213
 C363 C 0.33936 -0.06099 0.28207
 C364 C 0.35521 -0.04100 0.27799
 N365 N 0.35395 -0.02800 0.25647
 H366 H 0.38089 0.04103 0.28590
 H367 H 0.41341 -0.02898 0.27328
 H368 H 0.44187 -0.02295 0.30860
 H369 H 0.40852 0.04832 0.32143
 H370 H 0.33613 -0.02281 0.22204
 H371 H 0.30748 -0.05805 0.22791
 H372 H 0.34051 -0.07129 0.29920
 H373 H 0.36834 -0.03584 0.29208
 C374 C 0.32250 0.06655 0.23661
 C375 C 0.42764 -0.01410 0.18398
 C376 C 0.32207 -0.06735 0.26395
 C377 C 0.42711 0.01310 0.31770
 C378 C 0.08787 -0.01111 0.71731
 H379 H 0.08689 -0.02786 0.72820
 C380 C 0.07168 -0.00763 0.69752
 H381 H 0.05822 -0.02177 0.69304
 C382 C 0.10637 0.02798 0.71000
 H383 H 0.11963 0.04199 0.71513
 C384 C 0.09052 0.03220 0.69006
 H385 H 0.09179 0.04933 0.67976
 N386 N 0.10497 0.00646 0.72298
 C387 C 0.16361 -0.03301 0.76185
 H388 H 0.16471 -0.02217 0.77860
 C389 C 0.17964 -0.05294 0.75832
 H390 H 0.19309 -0.05756 0.77241
 C391 C 0.14499 -0.04008 0.72282
 H392 H 0.13175 -0.03480 0.70886
 C393 C 0.16068 -0.06015 0.71855
 H394 H 0.15930 -0.07040 0.70142
 Zn395 Zn 0.12585 0.00043 0.75041
 N396 N 0.14653 -0.02716 0.74434
 C397 C 0.10655 -0.02710 0.79091
 N398 N 0.10517 -0.00553 0.77802
 C399 C 0.08819 0.01210 0.78386
 C400 C 0.07208 0.00861 0.80373
 C401 C 0.09079 -0.03133 0.81092
 C402 C 0.16367 0.03368 0.73861
 C403 C 0.17983 0.05354 0.74198
 C404 C 0.16122 0.06089 0.78190
 C405 C 0.14540 0.04090 0.77779
 N406 N 0.14670 0.02794 0.75628
 H407 H 0.11971 -0.04115 0.78564
 H408 H 0.08720 0.02889 0.77303
 H409 H 0.05869 0.02277 0.80832
 H410 H 0.09203 -0.04852 0.82114
 H411 H 0.16458 0.02282 0.72187
 H412 H 0.19319 0.05808 0.72776
 H413 H 0.16002 0.07117 0.79903
 H414 H 0.13224 0.03570 0.79187
 C415 C 0.17810 -0.06666 0.73650
 C416 C 0.07308 0.01420 0.68374
 C417 C 0.17853 0.06730 0.76380
 C418 C 0.07345 -0.01329 0.81741
 C419 C 0.58716 0.48856 0.21684
 H420 H 0.58616 0.47179 0.22771
 C421 C 0.57102 0.49204 0.19701
 H422 H 0.55758 0.47790 0.19248
 C423 C 0.60565 0.52767 0.20961
 H424 H 0.61888 0.54168 0.21479
 C425 C 0.58985 0.53189 0.18964
 H426 H 0.59113 0.54903 0.17935
 N427 N 0.60422 0.50613 0.22257
 C428 C 0.66285 0.46678 0.26158
 H429 H 0.66390 0.47765 0.27831
 C430 C 0.67896 0.44690 0.25809
 H431 H 0.69242 0.44235 0.27220
 C432 C 0.64430 0.45959 0.22253
 H433 H 0.63106 0.46481 0.20855
 C434 C 0.66007 0.43958 0.21830
 H435 H 0.65875 0.42930 0.20118
 Zn436 Zn 0.62506 0.50013 0.25004
 N437 N 0.64577 0.47255 0.24403
 C438 C 0.60576 0.47263 0.29056
 N439 N 0.60436 0.49419 0.27764
 C440 C 0.58738 0.51182 0.28347
 C441 C 0.57130 0.50836 0.30337
 C442 C 0.59002 0.46843 0.31060
 C443 C 0.66290 0.53333 0.23824
 C444 C 0.67908 0.55317 0.24160
 C445 C 0.66043 0.56061 0.28148
 C446 C 0.64459 0.54063 0.27739
 N447 N 0.64590 0.52763 0.25590
 H448 H 0.61892 0.45858 0.28530
 H449 H 0.58639 0.52859 0.27262
 H450 H 0.55792 0.52253 0.30797
 H451 H 0.59129 0.45126 0.32085
 H452 H 0.66382 0.52242 0.22152
 H453 H 0.69247 0.55765 0.22739
 H454 H 0.65923 0.57092 0.29859
 H455 H 0.63141 0.53548 0.29146
 C456 C 0.67750 0.43315 0.23627
 C457 C 0.57244 0.51388 0.18325
 C458 C 0.67778 0.56696 0.26339
 C459 C 0.57269 0.48649 0.31709
 C460 C 0.91273 0.51095 0.71746
 H461 H 0.91364 0.52767 0.72839
 C462 C 0.92895 0.50760 0.69767
 H463 H 0.94237 0.52180 0.69324
 C464 C 0.89434 0.47184 0.71003
 H465 H 0.88111 0.45779 0.71511
 C466 C 0.91023 0.46775 0.69009
 H467 H 0.90901 0.45066 0.67974
 N468 N 0.89567 0.49332 0.72306
 C469 C 0.83679 0.53251 0.76183
 H470 H 0.83568 0.52162 0.77856
 C471 C 0.82071 0.55239 0.75827
 H472 H 0.80719 0.55693 0.77233
 C473 C 0.85551 0.53973 0.72285
 H474 H 0.86881 0.53452 0.70892
 C475 C 0.83977 0.55975 0.71855
 H476 H 0.84117 0.57005 0.70144
 Zn477 Zn 0.87469 0.49921 0.75045
 N478 N 0.85395 0.52675 0.74435
 C479 C 0.89378 0.52672 0.79101
 N480 N 0.89526 0.50517 0.77812
 C481 C 0.91227 0.48758 0.78401
 C482 C 0.92830 0.49108 0.80393
 C483 C 0.90947 0.53096 0.81106
 C484 C 0.83697 0.46591 0.73852
 C485 C 0.82082 0.44605 0.74185
 C486 C 0.83931 0.43864 0.78181
 C487 C 0.85514 0.45864 0.77775
 N488 N 0.85388 0.47164 0.75623
 H489 H 0.88060 0.54074 0.78570
 H490 H 0.91333 0.47081 0.77318
 H491 H 0.94171 0.47694 0.80856
 H492 H 0.90815 0.54813 0.82127
 H493 H 0.83611 0.47682 0.72178
 H494 H 0.80749 0.44154 0.72760
 H495 H 0.84045 0.42833 0.79894
 H496 H 0.86824 0.46383 0.79186
 C497 C 0.82227 0.56617 0.73646
 C498 C 0.92762 0.48583 0.68383
 C499 C 0.82205 0.43226 0.76367
 C500 C 0.92683 0.51296 0.81760
 C501 C 0.21611 0.41331 0.01118
 H502 H 0.22706 0.41418 0.02788
 C503 C 0.19625 0.42949 0.00790
 H504 H 0.19178 0.44282 0.02214
 C505 C 0.20872 0.39513 -0.02799
 H506 H 0.21386 0.38201 -0.04211
 C507 C 0.18872 0.41097 -0.03201
 H508 H 0.17836 0.40982 -0.04910
 N509 N 0.22178 0.39638 -0.00653
 C510 C 0.26107 0.33754 0.03223
 H511 H 0.27779 0.33660 0.02128
 C512 C 0.25770 0.32133 0.05203
 H513 H 0.27188 0.30789 0.05645
 C514 C 0.22198 0.35597 0.03970
 H515 H 0.20793 0.36922 0.03463
 C516 C 0.21787 0.34010 0.05965
 H517 H 0.20078 0.34133 0.07002
 Zn518 Zn 0.24933 0.37555 -0.00079
 N519 N 0.24345 0.35462 0.02664
 C520 C 0.28993 0.39471 0.02668
 N521 N 0.27692 0.39626 0.00520
 C522 C 0.28267 0.41338 -0.01231
 C523 C 0.30258 0.42946 -0.00882
 C524 C 0.30997 0.41044 0.03091
 C525 C 0.23759 0.33796 -0.03425
 C526 C 0.24104 0.32188 -0.05413
 C527 C 0.28096 0.34062 -0.06140
 C528 C 0.27676 0.35637 -0.04139
 N529 N 0.25522 0.35494 -0.02844
 H530 H 0.28472 0.38143 0.04065
 H531 H 0.27177 0.41448 -0.02903
 H532 H 0.30711 0.44295 -0.02291
 H533 H 0.32028 0.40906 0.04801
 H534 H 0.22082 0.33695 -0.02338
 H535 H 0.22688 0.30848 -0.05869
 H536 H 0.29813 0.34189 -0.07165
 H537 H 0.29082 0.36952 -0.03614
 C538 C 0.23593 0.32268 0.06590
 C539 C 0.18240 0.42825 -0.01387
 C540 C 0.26291 0.32327 -0.06785
 C541 C 0.31637 0.42791 0.01297
 C542 C 0.71769 0.08671 -0.01164
 H543 H 0.72856 0.08564 -0.02839
 C544 C 0.69778 0.07065 -0.00811
 H545 H 0.69320 0.05719 -0.02219
 C546 C 0.71055 0.10531 0.02738
 H547 H 0.71579 0.11855 0.04134
 C548 C 0.69050 0.08958 0.03166
 H549 H 0.68023 0.09094 0.04879
 N550 N 0.72350 0.10380 0.00586
 C551 C 0.76269 0.16217 -0.03372
 H552 H 0.77949 0.16318 -0.02291
 C553 C 0.75918 0.17825 -0.05361
 H554 H 0.77334 0.19164 -0.05824
 C555 C 0.72350 0.14377 -0.04070
 H556 H 0.70946 0.13060 -0.03540
 C557 C 0.71925 0.15951 -0.06073
 H558 H 0.70206 0.15824 -0.07092
 Zn559 Zn 0.75107 0.12451 -0.00022
 N560 N 0.74508 0.14518 -0.02783
 C561 C 0.79156 0.10500 -0.02763
 N562 N 0.77860 0.10369 -0.00610
 C563 C 0.78434 0.08672 0.01156
 C564 C 0.80419 0.07055 0.00817
 C565 C 0.81154 0.08916 -0.03177
 C566 C 0.73946 0.16245 0.03289
 C567 C 0.74289 0.17861 0.05270
 C568 C 0.78275 0.15981 0.06014
 C569 C 0.77857 0.14399 0.04019
 N570 N 0.75705 0.14538 0.02721
 H571 H 0.78636 0.11815 -0.04171
 H572 H 0.77347 0.08581 0.02832
 H573 H 0.80871 0.05718 0.02237
 H574 H 0.82182 0.09034 -0.04891
 H575 H 0.72271 0.16342 0.02200
 H576 H 0.72873 0.19204 0.05718
 H577 H 0.79988 0.15854 0.07044
 H578 H 0.79260 0.13075 0.03504
 C579 C 0.73728 0.17685 -0.06726
 C580 C 0.68404 0.07216 0.01372
 C581 C 0.76471 0.17722 0.06648
 C582 C 0.81793 0.07184 -0.01367
 C583 C 0.21607 0.58728 0.48845
 H584 H 0.22697 0.58627 0.47172
 C585 C 0.19619 0.57116 0.49193
 H586 H 0.19167 0.55772 0.47781
 C587 C 0.20881 0.60578 0.52751
 H588 H 0.21400 0.61901 0.54150
 C589 C 0.18880 0.59000 0.53172
 H590 H 0.17850 0.59129 0.54884
 N591 N 0.22181 0.60434 0.50601
 C592 C 0.26107 0.66285 0.46669
 H593 H 0.27781 0.66386 0.47758
 C594 C 0.25765 0.67894 0.44680
 H595 H 0.27182 0.69236 0.44226
 C596 C 0.22194 0.64440 0.45947
 H597 H 0.20790 0.63120 0.46468
 C598 C 0.21778 0.66016 0.43944
 H599 H 0.20065 0.65887 0.42915
 Zn600 Zn 0.24937 0.62511 0.50004
 N601 N 0.24345 0.64583 0.47246
 C602 C 0.28994 0.60570 0.47268
 N603 N 0.27694 0.60433 0.49419
 C604 C 0.28268 0.58734 0.51183
 C605 C 0.30257 0.57122 0.50845
 C606 C 0.30996 0.58991 0.46856
 C607 C 0.23763 0.66296 0.53320
 C608 C 0.24103 0.67911 0.55303
 C609 C 0.28091 0.66037 0.56049
 C610 C 0.27677 0.64455 0.54053
 N611 N 0.25526 0.64593 0.52753
 H612 H 0.28474 0.61887 0.45862
 H613 H 0.27178 0.58638 0.52856
 H614 H 0.30710 0.55784 0.52264
 H615 H 0.32027 0.59115 0.45144
 H616 H 0.22090 0.66393 0.52230
 H617 H 0.22685 0.69253 0.55751
 H618 H 0.29803 0.65912 0.57081
 H619 H 0.29082 0.63135 0.53538
 C620 C 0.23583 0.67753 0.43303
 C621 C 0.18241 0.57259 0.51373
 C622 C 0.26285 0.67775 0.56683
 C623 C 0.31636 0.57258 0.48664
 C624 C 0.71662 0.91293 0.51122
 H625 H 0.72747 0.91382 0.52798
 C626 C 0.69675 0.92907 0.50784
 H627 H 0.69218 0.94239 0.52206
 C628 C 0.70948 0.89475 0.47200
 H629 H 0.71471 0.88164 0.45791
 C630 C 0.68947 0.91055 0.46788
 H631 H 0.67920 0.90939 0.45073
 N632 N 0.72241 0.89602 0.49354
 C633 C 0.76151 0.83721 0.53255
 H634 H 0.77830 0.83628 0.52172
 C635 C 0.75803 0.82102 0.55236
 H636 H 0.77219 0.80760 0.55689
 C637 C 0.72235 0.85561 0.53975
 H638 H 0.70832 0.86884 0.53457
 C639 C 0.71812 0.83976 0.55969
 H640 H 0.70096 0.84100 0.56995
 Zn641 Zn 0.74996 0.87521 0.49944
 N642 N 0.74391 0.85427 0.52683
 C643 C 0.79037 0.89440 0.52716
 N644 N 0.77748 0.89594 0.50561
 C645 C 0.78331 0.91309 0.48814
 C646 C 0.80318 0.92918 0.49175
 C647 C 0.81037 0.91015 0.53151
 C648 C 0.73845 0.83764 0.46587
 C649 C 0.74201 0.82164 0.44595
 C650 C 0.78193 0.84045 0.43892
 C651 C 0.77763 0.85611 0.45897
 N652 N 0.75603 0.85463 0.47181
 H653 H 0.78510 0.88111 0.54109
 H654 H 0.77250 0.91418 0.47136
 H655 H 0.80777 0.94268 0.47769
 H656 H 0.82059 0.90877 0.54867
 H657 H 0.72163 0.83658 0.47665
 H658 H 0.72787 0.80825 0.44128
 H659 H 0.79914 0.84177 0.42874
 H660 H 0.79165 0.86928 0.46431
 C661 C 0.73616 0.82237 0.56608
 C662 C 0.68301 0.92781 0.48599
 C663 C 0.76393 0.82311 0.43233
 C664 C 0.81686 0.92764 0.51361
 C665 C 0.01135 0.21745 0.41257
 H666 H 0.02808 0.22838 0.41348
 C667 C 0.00797 0.19764 0.42878
 H668 H 0.02217 0.19319 0.44218
 C669 C -0.02780 0.21007 0.39424
 H670 H -0.04186 0.21518 0.38104
 C671 C -0.03191 0.19011 0.41011
 H672 H -0.04903 0.17977 0.40891
 N673 N -0.00629 0.22309 0.39555
 C674 C 0.03285 0.26212 0.33681
 H675 H 0.02195 0.27887 0.33577
 C676 C 0.05271 0.25863 0.32070
 H677 H 0.05723 0.27275 0.30723
 C678 C 0.04011 0.22306 0.35539
 H679 H 0.03492 0.20906 0.36864
 C680 C 0.06011 0.21883 0.33961
 H681 H 0.07041 0.20170 0.34094
 Zn682 Zn -0.00042 0.25057 0.37467
 N683 N 0.02712 0.24457 0.35391
 C684 C 0.02708 0.29115 0.39383
 N685 N 0.00554 0.27819 0.39529
 C686 C -0.01206 0.28399 0.41231
 C687 C -0.00857 0.30387 0.42838
 C688 C 0.03130 0.31116 0.40957
 C689 C -0.03374 0.23873 0.33700
 C690 C -0.05361 0.24210 0.32087
 C691 C -0.06100 0.28204 0.33944
 C692 C -0.04099 0.27792 0.35524
 N693 N -0.02800 0.25640 0.35393
 H694 H 0.04110 0.28591 0.38064
 H695 H -0.02882 0.27312 0.41335
 H696 H -0.02271 0.30842 0.44181
 H697 H 0.04846 0.32142 0.40827
 H698 H -0.02284 0.22198 0.33608
 H699 H -0.05812 0.22789 0.30752
 H700 H -0.07130 0.29918 0.34063
 H701 H -0.03580 0.29201 0.36837
 C702 C 0.06649 0.23681 0.32217
 C703 C -0.01383 0.18382 0.42748
 C704 C -0.06739 0.26393 0.32216
 C705 C 0.01329 0.31760 0.42695
 C706 C -0.01189 0.71638 0.08656
 H707 H -0.02868 0.72722 0.08556
 C708 C -0.00841 0.69646 0.07054
 H709 H -0.02259 0.69183 0.05719
 C710 C 0.02731 0.70935 0.10494
 H711 H 0.04136 0.71464 0.11807
 C712 C 0.03152 0.68929 0.08925
 H713 H 0.04870 0.67905 0.09053
 N714 N 0.00574 0.72225 0.10352
 C715 C -0.03348 0.76158 0.16198
 H716 H -0.02261 0.77835 0.16289
 C717 C -0.05332 0.75817 0.17816
 H718 H -0.05783 0.77236 0.19153
 C719 C -0.04072 0.72240 0.14371
 H720 H -0.03554 0.70833 0.13055
 C721 C -0.06069 0.71824 0.15955
 H722 H -0.07098 0.70109 0.15837
 Zn723 Zn -0.00024 0.74986 0.12418
 N724 N -0.02775 0.74394 0.14501
 C725 C -0.02780 0.79031 0.10478
 N726 N -0.00626 0.77736 0.10335
 C727 C 0.01132 0.78313 0.08630
 C728 C 0.00785 0.80300 0.07020
 C729 C -0.03202 0.81033 0.08900
 C730 C 0.03313 0.73836 0.16194
 C731 C 0.05301 0.74189 0.17802
 C732 C 0.06029 0.78172 0.15913
 C733 C 0.04028 0.77746 0.14338
 N734 N 0.02734 0.75591 0.14487
 H735 H -0.04182 0.78510 0.11799
 H736 H 0.02809 0.77226 0.08530
 H737 H 0.02200 0.80756 0.05678
 H738 H -0.04917 0.82061 0.09030
 H739 H 0.02228 0.72159 0.16300
 H740 H 0.05758 0.72777 0.19147
 H741 H 0.07055 0.79888 0.15780
 H742 H 0.03504 0.79145 0.13015
 C743 C -0.06707 0.73632 0.17687
 C744 C 0.01347 0.68276 0.07195
 C745 C 0.06674 0.76374 0.17655
 C746 C -0.01400 0.81676 0.07162
 C747 C 0.48871 0.21640 0.58825
 H748 H 0.47194 0.22726 0.58727
 C749 C 0.49218 0.19654 0.57215
 H750 H 0.47802 0.19199 0.55875
 C751 C 0.52786 0.20922 0.60667
 H752 H 0.54189 0.21443 0.61985
 C753 C 0.53207 0.18922 0.59090
 H754 H 0.54923 0.17896 0.59217
 N755 N 0.50631 0.22217 0.60527
 C756 C 0.46692 0.26130 0.66375
 H757 H 0.47776 0.27808 0.66473
 C758 C 0.44700 0.25782 0.67981
 H759 H 0.44239 0.27198 0.69318
 C760 C 0.45983 0.22214 0.64536
 H761 H 0.46509 0.20811 0.63219
 C762 C 0.43978 0.21792 0.66108
 H763 H 0.42952 0.20077 0.65980
 Zn764 Zn 0.50031 0.24971 0.62600
 N765 N 0.47275 0.24370 0.64676
 C766 C 0.47274 0.29017 0.60661
 N767 N 0.49430 0.27724 0.60521
 C768 C 0.51189 0.28301 0.58818
 C769 C 0.50840 0.30285 0.57203
 C770 C 0.46850 0.31015 0.59080
 C771 C 0.53370 0.23814 0.66375
 C772 C 0.55361 0.24163 0.67980
 C773 C 0.56083 0.28152 0.66100
 C774 C 0.54079 0.27729 0.64528
 N775 N 0.52787 0.25573 0.64673
 H776 H 0.45871 0.28495 0.61981
 H777 H 0.52867 0.27216 0.58720
 H778 H 0.52255 0.30740 0.55861
 H779 H 0.45134 0.32040 0.59205
 H780 H 0.52286 0.22136 0.66477
 H781 H 0.55822 0.22748 0.69320
 H782 H 0.57108 0.29868 0.65968
 H783 H 0.53552 0.29131 0.63209
 C784 C 0.43328 0.23596 0.67840
 C785 C 0.51404 0.18280 0.57354
 C786 C 0.56733 0.26350 0.67835
 C787 C 0.48653 0.31657 0.57341
 C788 C 0.51144 0.71644 0.91295
 H789 H 0.52819 0.72733 0.91388
 C790 C 0.50804 0.69657 0.92910
 H791 H 0.52225 0.69205 0.94246
 C792 C 0.47224 0.70920 0.89467
 H793 H 0.45816 0.71439 0.88152
 C794 C 0.46811 0.68919 0.91047
 H795 H 0.45096 0.67890 0.90927
 N796 N 0.49377 0.72218 0.89599
 C797 C 0.53282 0.76145 0.83734
 H798 H 0.52191 0.77819 0.83639
 C799 C 0.55265 0.75804 0.82117
 H800 H 0.55713 0.77222 0.80775
 C801 C 0.54014 0.72231 0.85574
 H802 H 0.53499 0.70827 0.86895
 C803 C 0.56011 0.71816 0.83990
 H804 H 0.57042 0.70104 0.84114
 Zn805 Zn 0.49964 0.74974 0.87522
 N806 N 0.52713 0.74383 0.85438
 C807 C 0.52716 0.79025 0.89448
 N808 N 0.50563 0.77727 0.89594
 C809 C 0.48807 0.78301 0.91302
 C810 C 0.49156 0.80286 0.92912
 C811 C 0.53139 0.81023 0.91025
 C812 C 0.46622 0.73809 0.83755
 C813 C 0.44633 0.74156 0.82148
 C814 C 0.43903 0.78143 0.84024
 C815 C 0.45906 0.77722 0.85598
 N816 N 0.47202 0.75569 0.85455
 H817 H 0.54117 0.78506 0.88125
 H818 H 0.47131 0.77212 0.91405
 H819 H 0.47743 0.80738 0.94257
 H820 H 0.54853 0.82052 0.90893
 H821 H 0.47710 0.72134 0.83654
 H822 H 0.44176 0.72741 0.80808
 H823 H 0.42875 0.79858 0.84152
 H824 H 0.46430 0.79125 0.86915
 C825 C 0.56645 0.73622 0.82252
 C826 C 0.48620 0.68280 0.92779
 C827 C 0.43258 0.76341 0.82289
 C828 C 0.51340 0.81662 0.92767
 C829 C 0.14156 0.22211 0.26212
 C830 C 0.12436 0.22549 0.27587
 C831 C 0.10422 0.22945 0.29197
 C832 C 0.08702 0.23281 0.30573
 C833 C 0.64144 0.72180 0.76231
 C834 C 0.62425 0.72514 0.77609
 C835 C 0.60413 0.72901 0.79223
 C836 C 0.58695 0.73231 0.80603
 C837 C 0.35751 0.77813 0.76286
 C838 C 0.37470 0.77473 0.77662
 C839 C 0.39484 0.77077 0.79272
 C840 C 0.41204 0.76741 0.80647
 C841 C -0.14235 0.27824 0.26189
 C842 C -0.12518 0.27494 0.27570
 C843 C -0.10508 0.27110 0.29187
 C844 C -0.08790 0.26783 0.30568
 C845 C -0.14205 0.72200 0.23717
 C846 C -0.12487 0.72529 0.22337
 C847 C -0.10475 0.72912 0.20720
 C848 C -0.08757 0.73240 0.19338
 C849 C 0.35785 0.22145 0.73810
 C850 C 0.37514 0.22477 0.72443
 C851 C 0.39538 0.22866 0.70843
 C852 C 0.41266 0.23199 0.69475
 C853 C 0.64266 0.27811 0.73808
 C854 C 0.62540 0.27475 0.72439
 C855 C 0.60519 0.27083 0.70838
 C856 C 0.58793 0.26749 0.69470
 C857 C 0.14176 0.77842 0.23664
 C858 C 0.12459 0.77508 0.22285
 C859 C 0.10447 0.77115 0.20672
 C860 C 0.08728 0.76778 0.19296
 C861 C 0.26259 0.14171 0.22164
 C862 C 0.27633 0.12450 0.22506
 C863 C 0.29241 0.10434 0.22908
 C864 C 0.30612 0.08711 0.23251
 C865 C 0.76237 0.64136 0.72166
 C866 C 0.77610 0.62414 0.72503
 C867 C 0.79217 0.60396 0.72900
 C868 C 0.80588 0.58673 0.73240
 C869 C 0.76185 0.35716 0.77786
 C870 C 0.77562 0.37438 0.77456
 C871 C 0.79176 0.39453 0.77074
 C872 C 0.80556 0.41173 0.76750
 C873 C 0.26181 -0.14241 0.27807
 C874 C 0.27560 -0.12520 0.27482
 C875 C 0.29176 -0.10506 0.27103
 C876 C 0.30557 -0.08787 0.26780
 C877 C 0.23776 -0.14208 0.72183
 C878 C 0.22409 -0.12479 0.72517
 C879 C 0.20809 -0.10456 0.72910
 C880 C 0.19442 -0.08728 0.73247
 C881 C 0.73766 0.35813 0.22171
 C882 C 0.72386 0.37531 0.22503
 C883 C 0.70772 0.39543 0.22893
 C884 C 0.69394 0.41262 0.23227
 C885 C 0.73803 0.64200 0.27748
 C886 C 0.72424 0.62480 0.27424
 C887 C 0.70808 0.60467 0.27046
 C888 C 0.69427 0.58747 0.26724
 C889 C 0.23860 0.14247 0.77799
 C890 C 0.22486 0.12523 0.77471
 C891 C 0.20876 0.10506 0.77090
 C892 C 0.19499 0.08784 0.76766
 C893 C 0.22174 0.26250 0.14096
 C894 C 0.22502 0.27625 0.12374
 C895 C 0.22884 0.29238 0.10360
 C896 C 0.23208 0.30618 0.08641
 C897 C 0.72164 0.76229 0.64116
 C898 C 0.72498 0.77603 0.62394
 C899 C 0.72887 0.79213 0.60379
 C900 C 0.73220 0.80591 0.58660
 C901 C 0.77879 0.76321 0.35725
 C902 C 0.77542 0.77697 0.37442
 C903 C 0.77143 0.79305 0.39456
 C904 C 0.76802 0.80676 0.41177
 C905 C 0.27777 0.26299 -0.14262
 C906 C 0.27433 0.27682 -0.12551
 C907 C 0.27032 0.29300 -0.10547
 C908 C 0.26693 0.30681 -0.08833
 C909 C 0.72240 0.23696 -0.14225
 C910 C 0.72583 0.22317 -0.12508
 C911 C 0.72983 0.20705 -0.10497
 C912 C 0.73324 0.19328 -0.08779
 C913 C 0.22154 0.73758 0.35788
 C914 C 0.22480 0.72381 0.37509
 C915 C 0.22862 0.70770 0.39525
 C916 C 0.23190 0.69395 0.41247
 C917 C 0.27723 0.73785 0.64183
 C918 C 0.27390 0.72410 0.62463
 C919 C 0.27003 0.70799 0.60451
 C920 C 0.26675 0.69421 0.58733
 C921 C 0.77896 0.23732 0.14150
 C922 C 0.77571 0.22356 0.12430
 C923 C 0.77190 0.20744 0.10417
 C924 C 0.76863 0.19367 0.08699
 C925 C 0.47193 0.39158 0.51323
 C926 C 0.47528 0.37439 0.52701
 C927 C 0.47918 0.35426 0.54315
 C928 C 0.48253 0.33708 0.55694
 C929 C -0.02842 0.89209 0.01179
 C930 C -0.02513 0.87482 0.02549
 C931 C -0.02127 0.85460 0.04153
 C932 C -0.01796 0.83735 0.05524
 C933 C 0.02808 0.60746 0.01222
 C934 C 0.02473 0.62471 0.02591
 C935 C 0.02080 0.64490 0.04194
 C936 C 0.01745 0.66216 0.05562
 C937 C 0.52852 0.10780 0.51343
 C938 C 0.52521 0.12497 0.52721
 C939 C 0.52133 0.14509 0.54335
 C940 C 0.51801 0.16227 0.55711
 C941 C -0.02807 0.10887 0.48782
 C942 C -0.02479 0.12605 0.47401
 C943 C -0.02096 0.14616 0.45783
 C944 C -0.01771 0.16333 0.44400
 C945 C 0.47177 0.60776 0.98797
 C946 C 0.47512 0.62496 0.97419
 C947 C 0.47900 0.64509 0.95806
 C948 C 0.48229 0.66228 0.94426
 C949 C 0.52813 0.89157 0.98777
 C950 C 0.52474 0.87440 0.97399
 C951 C 0.52078 0.85430 0.95787
 C952 C 0.51741 0.83713 0.94410
 C953 C 0.02805 0.39247 0.48714
 C954 C 0.02466 0.37534 0.47332
 C955 C 0.02069 0.35526 0.45717
 C956 C 0.01731 0.33810 0.44338
 C957 C 0.39152 0.51251 0.47232
 C958 C 0.37430 0.52626 0.47562
 C959 C 0.35414 0.54237 0.47947
 C960 C 0.33692 0.55613 0.48275
 C961 C 0.89293 0.01156 -0.02801
 C962 C 0.87574 0.02536 -0.02470
 C963 C 0.85562 0.04152 -0.02085
 C964 C 0.83844 0.05533 -0.01758
 C965 C 0.60878 0.01231 0.02849
 C966 C 0.62601 0.02603 0.02512
 C967 C 0.64620 0.04209 0.02115
 C968 C 0.66345 0.05579 0.01776
 C969 C 0.10736 0.51243 0.52836
 C970 C 0.12455 0.52622 0.52500
 C971 C 0.14468 0.54236 0.52107
 C972 C 0.16187 0.55614 0.51772
 C973 C 0.10724 0.48844 -0.02783
 C974 C 0.12448 0.47468 -0.02458
 C975 C 0.14465 0.45854 -0.02083
 C976 C 0.16186 0.44474 -0.01765
 C977 C 0.60781 0.98789 0.47189
 C978 C 0.62505 0.97414 0.47511
 C979 C 0.64523 0.95803 0.47889
 C980 C 0.66246 0.94426 0.48212
 C981 C 0.89188 0.98770 0.52856
 C982 C 0.87471 0.97392 0.52517
 C983 C 0.85458 0.95780 0.52117
 C984 C 0.83739 0.94405 0.51773
 C985 C 0.39154 0.48785 0.02767
 C986 C 0.37433 0.47411 0.02429
 C987 C 0.35417 0.45804 0.02034
 C988 C 0.33694 0.44431 0.01697
 C989 C 0.51269 0.47188 0.39222
 C990 C 0.52645 0.47523 0.37501
 C991 C 0.54255 0.47916 0.35486
 C992 C 0.55629 0.48251 0.33765
 C993 C 0.01317 -0.02809 0.89228
 C994 C 0.02700 -0.02468 0.87514
 C995 C 0.04318 -0.02070 0.85507
 C996 C 0.05698 -0.01732 0.83791
 C997 C 0.01282 0.02868 0.60883
 C998 C 0.02661 0.02536 0.62600
 C999 C 0.04277 0.02148 0.64610
 C1000 C 0.05658 0.01817 0.66326
 C1001 C 0.51243 0.52848 0.10816
 C1002 C 0.52617 0.52512 0.12537
 C1003 C 0.54225 0.52120 0.14552
 C1004 C 0.55600 0.51786 0.16272
 C1005 C 0.48780 -0.02843 0.10895
 C1006 C 0.47404 -0.02513 0.12616
 C1007 C 0.45792 -0.02129 0.14630
 C1008 C 0.44413 -0.01801 0.16348
 C1009 C 0.98777 0.47189 0.60872
 C1010 C 0.97403 0.47509 0.62595
 C1011 C 0.95791 0.47883 0.64611
 C1012 C 0.94411 0.48201 0.66331
 C1013 C 0.98688 0.52783 0.89258
 C1014 C 0.97309 0.52441 0.87543
 C1015 C 0.95697 0.52041 0.85532
 C1016 C 0.94323 0.51700 0.83814
 C1017 C 0.48733 0.02766 0.39260
 C1018 C 0.47350 0.02432 0.37546
 C1019 C 0.45734 0.02041 0.35538
 C1020 C 0.44355 0.01708 0.33821
   
