data_POSCAR
  _audit_creation_date              2014-09-24
  _audit_creation_method            'ToBaCCo'
  _symmetry_space_group_name_H-M    'P1'
  _symmetry_Int_Tables_number       1
  _symmetry_cell_setting            triclinic
  loop_
  _symmetry_equiv_pos_as_xyz
 x,y,z
_cell_length_a 49.7710
_cell_length_b 50.2564
_cell_length_c 23.6264
_cell_angle_alpha 89.884700
_cell_angle_beta 90.068400
_cell_angle_gamma 119.761100
loop_
  _atom_site_label
  _atom_site_type_symbol
  _atom_site_fract_x
  _atom_site_fract_y
  _atom_site_fract_z
C1 C 0.49976 0.99929 0.47275
 C2 C 0.49979 0.99921 0.53040
 C3 C 0.48458 0.97026 0.56354
 C4 C 0.51502 1.02809 0.56359
 C5 C 0.51326 1.02823 0.43961
 C6 C 0.48625 0.97044 0.43950
 C7 C 0.45306 0.94878 0.55605
 C8 C 0.43904 0.92187 0.58832
 C9 C 0.45636 0.91630 0.62870
 C10 C 0.48773 0.93780 0.63657
 C11 C 0.50170 0.96464 0.60433
 C12 C 0.49791 1.03364 0.60438
 C13 C 0.51189 1.06046 0.63653
 C14 C 0.54320 1.08195 0.62856
 C15 C 0.56052 1.07647 0.58830
 C16 C 0.54654 1.04960 0.55608
 C17 C 0.53605 1.03410 0.39884
 C18 C 0.54869 1.06096 0.36665
 C19 C 0.53857 1.08216 0.37457
 C20 C 0.51567 1.07638 0.41486
 C21 C 0.50296 1.04947 0.44712
 C22 C 0.49655 0.94917 0.44688
 C23 C 0.48389 0.92240 0.41440
 C24 C 0.46104 0.91678 0.37403
 C25 C 0.45090 0.93800 0.36627
 C26 C 0.46350 0.96472 0.39867
 H27 H 0.43932 0.95299 0.52555
 H28 H 0.41470 0.90559 0.58194
 H29 H 0.50145 0.93395 0.66777
 H30 H 0.52596 0.98102 0.61094
 H31 H 0.47365 1.01725 0.61103
 H32 H 0.49832 1.06440 0.66774
 H33 H 0.56028 1.04546 0.52559
 H34 H 0.54414 1.01793 0.39219
 H35 H 0.56629 1.06513 0.33542
 H36 H 0.50751 1.09254 0.42103
 H37 H 0.48499 1.04508 0.47760
 H38 H 0.51449 0.95345 0.47740
 H39 H 0.49206 0.90623 0.42046
 H40 H 0.43335 0.93394 0.33498
 H41 H 0.45541 0.98091 0.39212
 H42 H 0.58482 1.09285 0.58209
 C43 C -0.00045 0.49982 0.46985
 C44 C -0.00040 0.49991 0.52751
 C45 C 0.02879 0.51566 0.56062
 C46 C -0.02951 0.48425 0.56081
 C47 C -0.02970 0.48599 0.43679
 C48 C 0.02874 0.51356 0.43666
 C49 C 0.03495 0.49924 0.60185
 C50 C 0.06191 0.51380 0.63432
 C51 C 0.08292 0.54498 0.62623
 C52 C 0.07688 0.56159 0.58541
 C53 C 0.04987 0.54703 0.55286
 C54 C -0.05060 0.45286 0.55354
 C55 C -0.07753 0.43838 0.58634
 C56 C -0.08347 0.45510 0.62691
 C57 C -0.06245 0.48631 0.63449
 C58 C -0.03558 0.50078 0.60177
 C59 C -0.05161 0.49556 0.44450
 C60 C -0.07887 0.48249 0.41252
 C61 C -0.08434 0.45991 0.37222
 C62 C -0.06242 0.45052 0.36405
 C63 C -0.03522 0.46356 0.39600
 C64 C 0.03421 0.53589 0.39551
 C65 C 0.06138 0.54885 0.36351
 C66 C 0.08330 0.53951 0.37198
 C67 C 0.07790 0.51704 0.41257
 C68 C 0.05068 0.50402 0.44464
 H69 H 0.01889 0.47511 0.60871
 H70 H 0.06628 0.50077 0.66596
 H71 H 0.09289 0.58579 0.57910
 H72 H 0.04524 0.56023 0.52204
 H73 H -0.04605 0.43958 0.52293
 H74 H -0.09354 0.41417 0.58042
 H75 H -0.01952 0.52494 0.60825
 H76 H -0.04750 0.51325 0.47499
 H77 H -0.09551 0.49014 0.41902
 H78 H -0.06626 0.43319 0.33287
 H79 H -0.01852 0.45602 0.38920
 H80 H 0.01750 0.54341 0.38849
 H81 H 0.06525 0.56611 0.33203
 H82 H 0.09461 0.50948 0.41918
 H83 H 0.04663 0.48641 0.47540
 H84 H -0.06675 0.49942 0.66593
 C85 C 0.50011 0.50016 0.47266
 C86 C 0.50011 0.50018 0.53031
 C87 C 0.48478 0.51405 0.56330
 C88 C 0.51545 0.48635 0.56358
 C89 C 0.51351 0.48444 0.43959
 C90 C 0.48672 0.51586 0.43930
 C91 C 0.50176 0.53645 0.60415
 C92 C 0.48769 0.54954 0.63599
 C93 C 0.45638 0.54023 0.62765
 C94 C 0.43918 0.51768 0.58732
 C95 C 0.45328 0.50455 0.55544
 C96 C 0.54695 0.49585 0.55581
 C97 C 0.56105 0.48275 0.58794
 C98 C 0.54386 0.46022 0.62842
 C99 C 0.51255 0.45092 0.63666
 C100 C 0.49846 0.46398 0.60457
 C101 C 0.50309 0.45305 0.44716
 C102 C 0.51546 0.43850 0.41451
 C103 C 0.53815 0.45516 0.37380
 C104 C 0.54847 0.48637 0.36594
 C105 C 0.53616 0.50091 0.39850
 C106 C 0.46408 0.49936 0.39824
 C107 C 0.45176 0.51387 0.36543
 C108 C 0.46206 0.54508 0.37301
 C109 C 0.48475 0.56176 0.41368
 C110 C 0.49713 0.54725 0.44658
 H111 H 0.52601 0.54393 0.61106
 H112 H 0.50125 0.56685 0.66722
 H113 H 0.41488 0.51009 0.58069
 H114 H 0.43963 0.48689 0.52490
 H115 H 0.56059 0.51350 0.52516
 H116 H 0.58535 0.49034 0.58138
 H117 H 0.47422 0.45650 0.61141
 H118 H 0.48521 0.43981 0.47787
 H119 H 0.50715 0.41428 0.42065
 H120 H 0.56591 0.49943 0.33439
 H121 H 0.54434 0.52507 0.39179
 H122 H 0.45591 0.47520 0.39175
 H123 H 0.43432 0.50078 0.33391
 H124 H 0.49304 0.58599 0.41960
 H125 H 0.51500 0.56051 0.47726
 H126 H 0.49899 0.43362 0.66800
 O127 O 0.38116 0.66199 -0.05245
 O128 O 0.37916 0.71244 -0.06841
 C129 C 0.36440 0.72657 -0.07679
 O130 O 0.34118 0.72228 -0.04755
 O131 O 0.29005 0.67051 -0.06358
 C132 C 0.27600 0.64209 -0.07419
 O133 O 0.28086 0.62282 -0.04780
 O134 O 0.33297 0.62395 -0.06768
 C135 C 0.36156 0.63831 -0.07904
 O136 O 0.38146 0.67042 0.06024
 O137 O 0.38219 0.72219 0.04429
 C138 C 0.36323 0.72638 0.07357
 O139 O 0.33431 0.71226 0.06512
 O140 O 0.28177 0.66184 0.04909
 C141 C 0.27765 0.63813 0.07570
 O142 O 0.29188 0.62382 0.06434
 O143 O 0.34289 0.62276 0.04446
 C144 C 0.36702 0.64199 0.07088
 Cr145 Cr 0.37925 0.69090 -0.00401
 Cr146 Cr 0.31271 0.69086 0.00069
 Cr147 Cr 0.31301 0.62506 -0.00167
 O148 O 0.33498 0.66892 -0.00167
 O149 O 0.61909 0.33844 -0.05035
 O150 O 0.62110 0.28800 -0.06611
 C151 C 0.63585 0.27387 -0.07437
 O152 O 0.65906 0.27814 -0.04507
 O153 O 0.71019 0.32992 -0.06116
 C154 C 0.72424 0.35834 -0.07188
 O155 O 0.71939 0.37759 -0.04558
 O156 O 0.66728 0.37648 -0.06558
 C157 C 0.63869 0.36214 -0.07698
 O158 O 0.61878 0.32988 0.06237
 O159 O 0.61805 0.27813 0.04661
 C160 C 0.63700 0.27389 0.07594
 O161 O 0.66592 0.28803 0.06757
 O162 O 0.71847 0.33847 0.05151
 C163 C 0.72260 0.36216 0.07802
 O164 O 0.70837 0.37649 0.06655
 O165 O 0.65736 0.37756 0.04653
 C166 C 0.63322 0.35830 0.07294
 Cr167 Cr 0.62099 0.30947 -0.00179
 Cr168 Cr 0.68753 0.30950 0.00313
 Cr169 Cr 0.68724 0.37530 0.00048
 O170 O 0.66527 0.33145 0.00060
 C171 C 0.44335 0.89148 -0.34023
 C172 C 0.43186 0.86893 -0.31066
 C173 C 0.41884 0.84251 -0.27411
 C174 C 0.43501 0.82675 -0.26407
 C175 C 0.42328 0.80218 -0.22600
 C176 C 0.39532 0.79326 -0.19781
 C177 C 0.37892 0.80875 -0.20845
 C178 C 0.39066 0.83333 -0.24652
 C179 C 0.38413 0.76913 -0.15624
 C180 C 0.37502 0.74942 -0.12046
 H181 H 0.45689 0.83376 -0.28498
 H182 H 0.43621 0.79045 -0.21792
 H183 H 0.35735 0.80212 -0.18670
 H184 H 0.37804 0.84544 -0.25377
 C185 C 0.11025 0.55987 -0.33912
 C186 C 0.13275 0.57174 -0.30899
 C187 C 0.15911 0.58525 -0.27179
 C188 C 0.17678 0.57087 -0.26347
 C189 C 0.20137 0.58305 -0.22497
 C190 C 0.20839 0.60965 -0.19462
 C191 C 0.19097 0.62424 -0.20346
 C192 C 0.16637 0.61207 -0.24197
 C193 C 0.23270 0.62133 -0.15300
 C194 C 0.25268 0.63090 -0.11738
 H195 H 0.17127 0.55005 -0.28612
 H196 H 0.21462 0.57152 -0.21832
 H197 H 0.19614 0.64476 -0.18007
 H198 H 0.15278 0.62329 -0.24789
 C199 C 0.44274 0.55281 -0.34049
 C200 C 0.43117 0.56410 -0.31137
 C201 C 0.41796 0.57769 -0.27538
 C202 C 0.43530 0.60879 -0.26109
 C203 C 0.42322 0.62165 -0.22354
 C204 C 0.39374 0.60347 -0.20011
 C205 C 0.37621 0.57247 -0.21504
 C206 C 0.38830 0.55961 -0.25260
 C207 C 0.38210 0.61620 -0.15875
 C208 C 0.37261 0.62652 -0.12297
 H209 H 0.45832 0.62295 -0.27827
 H210 H 0.43703 0.64560 -0.21208
 H211 H 0.35345 0.55817 -0.19696
 H212 H 0.37475 0.53551 -0.26316
 C213 C 0.55746 0.10924 -0.33737
 C214 C 0.56880 0.13174 -0.30779
 C215 C 0.58170 0.15809 -0.27126
 C216 C 0.61002 0.16752 -0.24396
 C217 C 0.62166 0.19207 -0.20598
 C218 C 0.60504 0.20728 -0.19514
 C219 C 0.57693 0.19812 -0.22302
 C220 C 0.56528 0.17357 -0.26100
 C221 C 0.61616 0.23138 -0.15367
 C222 C 0.62524 0.25106 -0.11797
 H223 H 0.62283 0.15563 -0.25139
 H224 H 0.64336 0.19889 -0.18447
 H225 H 0.56382 0.20963 -0.21478
 H226 H 0.54329 0.16638 -0.28169
 C227 C 0.88932 0.44030 -0.33813
 C228 C 0.86693 0.42850 -0.30775
 C229 C 0.84070 0.41507 -0.27025
 C230 C 0.83347 0.38825 -0.24027
 C231 C 0.80899 0.37613 -0.20154
 C232 C 0.79166 0.39079 -0.19261
 C233 C 0.79866 0.41740 -0.22309
 C234 C 0.82313 0.42952 -0.26182
 C235 C 0.76743 0.37913 -0.15084
 C236 C 0.74751 0.36956 -0.11513
 H237 H 0.84700 0.37697 -0.24627
 H238 H 0.80385 0.35560 -0.17806
 H239 H 0.78547 0.42898 -0.21637
 H240 H 0.82862 0.45035 -0.28458
 C241 C 0.55750 0.44767 -0.33949
 C242 C 0.56908 0.43640 -0.31019
 C243 C 0.58230 0.42283 -0.27400
 C244 C 0.56500 0.39171 -0.25965
 C245 C 0.57709 0.37885 -0.22192
 C246 C 0.60653 0.39706 -0.19838
 C247 C 0.62401 0.42808 -0.21335
 C248 C 0.61192 0.44094 -0.25109
 C249 C 0.61817 0.38432 -0.15688
 C250 C 0.62765 0.37397 -0.12100
 H251 H 0.54201 0.37753 -0.27692
 H252 H 0.56330 0.35489 -0.21043
 H253 H 0.64674 0.44240 -0.19519
 H254 H 0.62544 0.46505 -0.26170
 C255 C 0.88944 0.44741 0.34023
 C256 C 0.86656 0.43620 0.31098
 C257 C 0.83974 0.42270 0.27484
 C258 C 0.82541 0.39145 0.26153
 C259 C 0.80045 0.37864 0.22384
 C260 C 0.78972 0.39703 0.19931
 C261 C 0.80376 0.42819 0.21325
 C262 C 0.82873 0.44100 0.25095
 C263 C 0.76532 0.38431 0.15785
 C264 C 0.74547 0.37397 0.12200
 H265 H 0.83383 0.37712 0.27957
 H266 H 0.78986 0.35456 0.21315
 H267 H 0.79575 0.44265 0.19431
 H268 H 0.83972 0.46522 0.26075
 C269 C 0.55138 0.10946 0.34038
 C270 C 0.56235 0.13194 0.31066
 C271 C 0.57562 0.15828 0.27391
 C272 C 0.55642 0.16665 0.24471
 C273 C 0.56921 0.19116 0.20648
 C274 C 0.60124 0.20739 0.19729
 C275 C 0.62049 0.19928 0.22708
 C276 C 0.60770 0.17478 0.26531
 C277 C 0.61418 0.23145 0.15560
 C278 C 0.62477 0.25110 0.11972
 H279 H 0.53158 0.15396 0.25084
 H280 H 0.55410 0.19715 0.18349
 H281 H 0.64527 0.21159 0.22012
 H282 H 0.62274 0.16840 0.28746
 C283 C 0.55046 0.44029 0.33896
 C284 C 0.56097 0.42844 0.30863
 C285 C 0.57367 0.41496 0.27118
 C286 C 0.55393 0.38860 0.24028
 C287 C 0.56623 0.37648 0.20156
 C288 C 0.59832 0.39068 0.19358
 C289 C 0.61807 0.41682 0.22499
 C290 C 0.60577 0.42894 0.26370
 C291 C 0.61085 0.37904 0.15183
 C292 C 0.62119 0.36950 0.11615
 H293 H 0.52907 0.37770 0.24553
 H294 H 0.55074 0.35632 0.17736
 H295 H 0.64291 0.42803 0.21901
 H296 H 0.62123 0.44941 0.28719
 C297 C 0.11098 0.55270 0.33816
 C298 C 0.13382 0.56393 0.30883
 C299 C 0.16059 0.57744 0.27261
 C300 C 0.17153 0.55914 0.24867
 C301 C 0.19647 0.57197 0.21093
 C302 C 0.21056 0.60315 0.19699
 C303 C 0.19990 0.62155 0.22155
 C304 C 0.17496 0.60872 0.25929
 C305 C 0.23494 0.61591 0.15552
 C306 C 0.25478 0.62628 0.11967
 H307 H 0.16050 0.53490 0.25848
 H308 H 0.20443 0.55750 0.19197
 H309 H 0.21052 0.64565 0.21086
 H310 H 0.16660 0.62305 0.27736
 C311 C 0.44832 0.88964 0.33955
 C312 C 0.43744 0.86731 0.30957
 C313 C 0.42426 0.84117 0.27252
 C314 C 0.44355 0.83305 0.24310
 C315 C 0.43085 0.80874 0.20459
 C316 C 0.39882 0.79246 0.19533
 C317 C 0.37950 0.80031 0.22533
 C318 C 0.39219 0.82462 0.26384
 C319 C 0.38597 0.76857 0.15342
 C320 C 0.37542 0.74904 0.11742
 H321 H 0.46839 0.84578 0.24929
 H322 H 0.44602 0.80293 0.18145
 H323 H 0.35471 0.78795 0.21833
 H324 H 0.37708 0.83080 0.28616
 C325 C 0.44975 0.55992 0.33792
 C326 C 0.43923 0.57176 0.30742
 C327 C 0.42654 0.58523 0.26977
 C328 C 0.44627 0.61166 0.23891
 C329 C 0.43397 0.62378 0.20004
 C330 C 0.40190 0.60953 0.19186
 C331 C 0.38214 0.58332 0.22322
 C332 C 0.39444 0.57119 0.26209
 C333 C 0.38937 0.62119 0.14998
 C334 C 0.37904 0.63076 0.11419
 H335 H 0.47113 0.62261 0.24433
 H336 H 0.44946 0.64401 0.17588
 H337 H 0.35732 0.57206 0.21710
 H338 H 0.37898 0.55067 0.28555
   
