data_POSCAR
  _audit_creation_date              2014-09-24
  _audit_creation_method            'ToBaCCo'
  _symmetry_space_group_name_H-M    'P1'
  _symmetry_Int_Tables_number       1
  _symmetry_cell_setting            triclinic
  loop_
  _symmetry_equiv_pos_as_xyz
 x,y,z
_cell_length_a 32.0749
_cell_length_b 32.6730
_cell_length_c 35.6606
_cell_angle_alpha 89.193500
_cell_angle_beta 89.998400
_cell_angle_gamma 88.493900
loop_
  _atom_site_label
  _atom_site_type_symbol
  _atom_site_fract_x
  _atom_site_fract_y
  _atom_site_fract_z
C1 C 0.60589 0.64755 0.61834
 C2 C 0.60122 0.61773 0.64652
 C3 C 0.62592 0.58142 0.64660
 C4 C 0.65674 0.57664 0.61864
 C5 C 0.66120 0.60610 0.58988
 C6 C 0.63535 0.64137 0.58989
 H7 H 0.57765 0.62259 0.66791
 H8 H 0.67827 0.55052 0.61986
 H9 H 0.63854 0.66447 0.56803
 C10 C 0.89842 0.36424 0.12449
 C11 C 0.86969 0.36385 0.09461
 C12 C 0.83882 0.39469 0.09076
 C13 C 0.83734 0.42718 0.11594
 C14 C 0.86494 0.42782 0.14644
 C15 C 0.89605 0.39691 0.14991
 H16 H 0.87130 0.33967 0.07411
 H17 H 0.81369 0.45124 0.11246
 H18 H 0.91721 0.39729 0.17360
 C19 C 0.40327 0.13931 -0.12626
 C20 C 0.37566 0.14001 -0.09581
 C21 C 0.34440 0.11090 -0.09262
 C22 C 0.34011 0.08167 -0.12072
 C23 C 0.36755 0.08093 -0.15138
 C24 C 0.39873 0.11007 -0.15425
 H25 H 0.37904 0.16266 -0.07416
 H26 H 0.31614 0.05901 -0.11834
 H27 H 0.42008 0.10941 -0.17782
 C28 C 0.09343 0.86175 0.38244
 C29 C 0.09268 0.89262 0.35445
 C30 C 0.12307 0.92284 0.35332
 C31 C 0.15582 0.92103 0.37944
 C32 C 0.15802 0.88969 0.40672
 C33 C 0.12648 0.86076 0.40843
 H34 H 0.06907 0.89261 0.33270
 H35 H 0.17981 0.94377 0.37832
 H36 H 0.12751 0.83770 0.43059
 N37 N 0.08846 0.20842 0.11675
 N38 N 0.07730 0.19746 0.15085
 C39 C 0.04387 0.22030 0.16129
 C40 C 0.03382 0.24706 0.13222
 C41 C 0.06267 0.23891 0.10440
 H42 H 0.02733 0.21685 0.18753
 H43 H 0.06373 0.25296 0.07679
 Cu44 Cu 0.10540 0.15273 0.17771
 Cu45 Cu 0.13330 0.17988 0.09004
 Cu46 Cu 0.16870 0.08832 0.13013
 N47 N 0.11992 0.09851 0.19696
 N48 N 0.14289 0.07251 0.17757
 C49 C 0.14631 0.03683 0.19686
 C50 C 0.12391 0.04060 0.22996
 C51 C 0.10837 0.08055 0.22933
 H52 H 0.16402 0.01018 0.18769
 H53 H 0.09031 0.09563 0.25097
 N54 N 0.19107 0.11039 0.08263
 N55 N 0.17808 0.14571 0.06775
 C56 C 0.20059 0.15347 0.03671
 C57 C 0.22951 0.12186 0.03214
 C58 C 0.22220 0.09477 0.06141
 H59 H 0.19686 0.18047 0.01902
 H60 H 0.23875 0.06606 0.06698
 H61 H 0.11774 0.12531 0.11586
 H62 H 0.16446 0.15140 0.13491
 N63 N 0.44670 0.83433 0.59510
 N64 N 0.45835 0.84536 0.62872
 C65 C 0.48938 0.81996 0.64083
 C66 C 0.49787 0.79184 0.61302
 C67 C 0.46997 0.80162 0.58454
 H68 H 0.50410 0.82132 0.66806
 H69 H 0.46653 0.78584 0.55829
 Cu70 Cu 0.43144 0.89148 0.65357
 Cu71 Cu 0.40191 0.86314 0.56814
 Cu72 Cu 0.33481 0.92002 0.62486
 N73 N 0.39515 0.92561 0.68408
 N74 N 0.35725 0.93642 0.67314
 C75 C 0.33962 0.96075 0.69926
 C76 C 0.36779 0.96471 0.72831
 C77 C 0.40286 0.94239 0.71750
 H78 H 0.30896 0.97516 0.69701
 H79 H 0.43216 0.93951 0.73243
 N80 N 0.31912 0.90079 0.57460
 N81 N 0.34560 0.88112 0.55247
 C82 C 0.32650 0.87299 0.51996
 C83 C 0.28562 0.88728 0.52192
 C84 C 0.28224 0.90542 0.55669
 H85 H 0.34113 0.85728 0.49672
 H86 H 0.25474 0.92050 0.56811
 H87 H 0.39106 0.91675 0.59885
 H88 H 0.37203 0.86763 0.61882
 N89 N 0.93349 0.68460 0.39489
 N90 N 0.94277 0.67778 0.35954
 C91 C 0.97183 0.70438 0.34827
 C92 C 0.98090 0.72896 0.37817
 C93 C 0.95610 0.71578 0.40724
 H94 H 0.98454 0.70661 0.32025
 H95 H 0.95382 0.72878 0.43491
 Cu96 Cu 0.91447 0.63605 0.33144
 Cu97 Cu 0.89053 0.65506 0.42173
 Cu98 Cu 0.83738 0.58325 0.37130
 N99 N 0.88447 0.59520 0.30359
 N100 N 0.85515 0.57407 0.31998
 C101 C 0.84124 0.54616 0.29606
 C102 C 0.86200 0.55053 0.26229
 C103 C 0.88973 0.58166 0.26829
 H104 H 0.81873 0.52326 0.30321
 H105 H 0.91264 0.59283 0.24868
 N106 N 0.82399 0.59659 0.42356
 N107 N 0.84564 0.62222 0.44353
 C108 C 0.82866 0.62478 0.47801
 C109 C 0.79453 0.59964 0.47984
 C110 C 0.79223 0.58290 0.44447
 H111 H 0.83917 0.64481 0.49973
 H112 H 0.76788 0.56382 0.43409
 H113 H 0.89438 0.60281 0.39014
 H114 H 0.85590 0.64348 0.37455
 N115 N 0.57900 0.30387 -0.11521
 N116 N 0.56045 0.32082 -0.14463
 C117 C 0.53008 0.29631 -0.15631
 C118 C 0.52996 0.26194 -0.13322
 C119 C 0.56106 0.26803 -0.10716
 H120 H 0.50924 0.30313 -0.17954
 H121 H 0.56909 0.24840 -0.08343
 Cu122 Cu 0.57656 0.37392 -0.16403
 Cu123 Cu 0.62325 0.33069 -0.08834
 Cu124 Cu 0.65987 0.42026 -0.12777
 N125 N 0.60291 0.41911 -0.18981
 N126 N 0.63491 0.43766 -0.17533
 C127 C 0.64676 0.46762 -0.19902
 C128 C 0.62126 0.46727 -0.23023
 C129 C 0.59349 0.43643 -0.22331
 H130 H 0.67250 0.48767 -0.19434
 H131 H 0.56843 0.42726 -0.24140
 N132 N 0.68098 0.39713 -0.07990
 N133 N 0.66759 0.36251 -0.06534
 C134 C 0.68812 0.35446 -0.03305
 C135 C 0.71512 0.38588 -0.02659
 C136 C 0.71028 0.41208 -0.05714
 H137 H 0.68389 0.32767 -0.01545
 H138 H 0.72679 0.44006 -0.06218
 H139 H 0.60953 0.39060 -0.10469
 H140 H 0.64466 0.36004 -0.13621
 C141 C -0.07774 0.29070 0.12470
 C142 C -0.07005 0.33333 0.12835
 C143 C -0.02889 0.34544 0.13482
 C144 C 0.00425 0.31712 0.13535
 C145 C -0.00248 0.27558 0.13013
 C146 C -0.04352 0.26187 0.12483
 C147 C -0.11867 0.27558 0.12357
 C148 C -0.12549 0.23392 0.11944
 C149 C -0.09193 0.20626 0.11718
 C150 C -0.05129 0.21990 0.12014
 H151 H -0.14585 0.29545 0.12684
 H152 H -0.15703 0.22300 0.11826
 H153 H -0.09742 0.17397 0.11385
 H154 H -0.02611 0.19725 0.11898
 H155 H -0.02183 0.37750 0.13777
 H156 H 0.03555 0.32776 0.13982
 C157 C 0.59650 0.72422 0.62617
 C158 C 0.57979 0.68550 0.61843
 C159 C 0.53761 0.68276 0.60916
 C160 C 0.51189 0.71767 0.60713
 C161 C 0.52745 0.75637 0.61468
 C162 C 0.57023 0.76006 0.62391
 C163 C 0.63879 0.72806 0.63619
 C164 C 0.65513 0.76641 0.64279
 C165 C 0.62985 0.80153 0.63944
 C166 C 0.58786 0.79857 0.62998
 H167 H 0.65954 0.70155 0.63907
 H168 H 0.68765 0.76891 0.65032
 H169 H 0.64286 0.83126 0.64414
 H170 H 0.56970 0.82675 0.62705
 H171 H 0.52460 0.65331 0.60306
 H172 H 0.47933 0.71438 0.60000
 C173 C 1.01981 0.83847 0.37776
 C174 C 1.06347 0.83059 0.38300
 C175 C 1.07774 0.78966 0.38760
 C176 C 1.05064 0.75728 0.38517
 C177 C 1.00825 0.76443 0.37837
 C178 C 0.99235 0.80505 0.37451
 C179 C 1.00219 0.87857 0.37854
 C180 C 0.95965 0.88577 0.37267
 C181 C 0.93344 0.85320 0.36699
 C182 C 0.94940 0.81313 0.36829
 H183 H 1.02074 0.90459 0.38492
 H184 H 0.94690 0.91677 0.37293
 H185 H 0.90043 0.85895 0.36242
 H186 H 0.92779 0.78860 0.36471
 H187 H 1.11061 0.78231 0.39150
 H188 H 1.06293 0.72623 0.38859
 C189 C 0.47996 0.15667 -0.12584
 C190 C 0.43731 0.16895 -0.12850
 C191 C 0.42651 0.21039 -0.13369
 C192 C 0.45708 0.23974 -0.13614
 C193 C 0.49947 0.22865 -0.13331
 C194 C 0.51135 0.18665 -0.12902
 C195 C 0.49212 0.11525 -0.11967
 C196 C 0.53416 0.10340 -0.11833
 C197 C 0.56479 0.13236 -0.12316
 C198 C 0.55368 0.17357 -0.12855
 H199 H 0.46939 0.09171 -0.11571
 H200 H 0.54301 0.07151 -0.11380
 H201 H 0.59738 0.12286 -0.12268
 H202 H 0.57856 0.19477 -0.13289
 H203 H 0.39402 0.22011 -0.13578
 H204 H 0.44743 0.27162 -0.13943
 C205 C 0.08581 -0.02019 0.31581
 C206 C 0.12185 -0.04511 0.32326
 C207 C 0.15672 -0.04162 0.29990
 C208 C 0.15638 -0.01428 0.26961
 C209 C 0.12080 0.00987 0.26092
 C210 C 0.08438 0.00567 0.28325
 C211 C 0.05121 -0.02007 0.34026
 C212 C 0.01455 0.00158 0.33103
 C213 C 0.01173 0.02361 0.29744
 C214 C 0.04617 0.02569 0.27369
 H215 H 0.05245 -0.03619 0.36687
 H216 H -0.01192 0.00087 0.34984
 H217 H -0.01718 0.03945 0.28987
 H218 H 0.04208 0.04234 0.24753
 H219 H 0.18448 -0.06048 0.30503
 H220 H 0.18450 -0.01173 0.25300
 C221 C 0.62218 0.50869 -0.33128
 C222 C 0.62178 0.55164 -0.32446
 C223 C 0.61950 0.56492 -0.28713
 C224 C 0.62016 0.53709 -0.25723
 C225 C 0.62256 0.49493 -0.26334
 C226 C 0.62418 0.48029 -0.30054
 C227 C 0.61789 0.49317 -0.36784
 C228 C 0.62042 0.45124 -0.37436
 C229 C 0.62629 0.42378 -0.34459
 C230 C 0.62788 0.43798 -0.30797
 H231 H 0.61129 0.51320 -0.39150
 H232 H 0.61769 0.44002 -0.40265
 H233 H 0.62879 0.39125 -0.34982
 H234 H 0.63216 0.41547 -0.28571
 H235 H 0.61921 0.59725 -0.28075
 H236 H 0.61869 0.54866 -0.22892
 C237 C 0.37732 1.00763 0.82731
 C238 C 0.36485 1.04890 0.81993
 C239 C 0.35110 1.06054 0.78401
 C240 C 0.35046 1.03230 0.75517
 C241 C 0.36390 0.99160 0.76128
 C242 C 0.37621 0.97858 0.79789
 C243 C 0.39155 0.99472 0.86315
 C244 C 0.40289 0.95386 0.87022
 C245 C 0.40026 0.92517 0.84191
 C246 C 0.38699 0.93723 0.80609
 H247 H 0.39405 1.01595 0.88599
 H248 H 0.41351 0.94435 0.89789
 H249 H 0.40856 0.89339 0.84772
 H250 H 0.38472 0.91375 0.78520
 H251 H 0.34154 1.09203 0.77810
 H252 H 0.34093 1.04275 0.72743
 C253 C 0.82329 0.47123 0.19326
 C254 C 0.86141 0.46059 0.17500
 C255 C 0.89738 0.48195 0.18382
 C256 C 0.89659 0.51224 0.21090
 C257 C 0.85949 0.52321 0.22940
 C258 C 0.82189 0.50447 0.21876
 C259 C 0.78662 0.44908 0.18760
 C260 C 0.74876 0.46199 0.20319
 C261 C 0.74665 0.49700 0.22488
 C262 C 0.78276 0.51812 0.23266
 H263 H 0.78679 0.42139 0.17156
 H264 H 0.72086 0.44499 0.19807
 H265 H 0.71698 0.50758 0.23610
 H266 H 0.77951 0.54556 0.24909
 H267 H 0.92671 0.47455 0.17010
 H268 H 0.92565 0.52624 0.21827
 C269 C 0.33138 0.10404 -0.02263
 C270 C 0.31637 0.11107 -0.05963
 C271 C 0.27407 0.12060 -0.06542
 C272 C 0.24671 0.12403 -0.03527
 C273 C 0.26069 0.11790 0.00166
 C274 C 0.30355 0.10836 0.00836
 C275 C 0.37352 0.09271 -0.01576
 C276 C 0.38837 0.08759 0.02077
 C277 C 0.36174 0.09379 0.05106
 C278 C 0.31981 0.10421 0.04509
 H279 H 0.39531 0.08756 -0.03847
 H280 H 0.42080 0.07914 0.02561
 H281 H 0.37364 0.09049 0.07938
 H282 H 0.30069 0.10954 0.06954
 H283 H 0.26226 0.12610 -0.09356
 H284 H 0.21416 0.13144 -0.04087
 C285 C 0.70255 0.56567 0.54065
 C286 C 0.69506 0.60188 0.56146
 C287 C 0.72168 0.63485 0.55643
 C288 C 0.75436 0.63298 0.53086
 C289 C 0.76278 0.59749 0.51022
 C290 C 0.73819 0.56253 0.51681
 C291 C 0.67502 0.53272 0.54232
 C292 C 0.68468 0.49594 0.52460
 C293 C 0.72175 0.49139 0.50468
 C294 C 0.74833 0.52427 0.50074
 H295 H 0.64559 0.53531 0.55677
 H296 H 0.66353 0.47073 0.52668
 H297 H 0.72974 0.46240 0.49185
 H298 H 0.77717 0.51905 0.48570
 H299 H 0.71688 0.66266 0.57223
 H300 H 0.77257 0.66008 0.52665
 C301 C 0.76477 0.38113 0.07125
 C302 C 0.80611 0.39161 0.06184
 C303 C 0.81619 0.40068 0.02457
 C304 C 0.78602 0.39946 -0.00346
 C305 C 0.74479 0.38941 0.00498
 C306 C 0.73351 0.38140 0.04286
 C307 C 0.75390 0.37022 0.10836
 C308 C 0.71270 0.36235 0.11781
 C309 C 0.68167 0.36514 0.09058
 C310 C 0.69178 0.37462 0.05349
 H311 H 0.77713 0.36739 0.13026
 H312 H 0.70477 0.35440 0.14646
 H313 H 0.64958 0.35980 0.09822
 H314 H 0.66644 0.37734 0.03360
 H315 H 0.84772 0.40873 0.01713
 H316 H 0.79516 0.40579 -0.03217
 C317 C 0.21761 0.85165 0.44052
 C318 C 0.19262 0.88765 0.43443
 C319 C 0.19868 0.92177 0.45694
 C320 C 0.22849 0.92069 0.48533
 C321 C 0.25297 0.88530 0.49256
 C322 C 0.24671 0.84984 0.47080
 C323 C 0.21449 0.81738 0.41703
 C324 C 0.23704 0.78123 0.42481
 C325 C 0.26296 0.77841 0.45604
 C326 C 0.26773 0.81220 0.47894
 H327 H 0.19486 0.81821 0.39237
 H328 H 0.23398 0.75511 0.40677
 H329 H 0.27958 0.74992 0.46249
 H330 H 0.28733 0.80804 0.50337
 H331 H 0.17976 0.94942 0.45278
 H332 H 0.23268 0.94800 0.50165
   
