data_POSCAR
  _audit_creation_date              2014-09-24
  _audit_creation_method            'ToBaCCo'
  _symmetry_space_group_name_H-M    'P1'
  _symmetry_Int_Tables_number       1
  _symmetry_cell_setting            triclinic
  loop_
  _symmetry_equiv_pos_as_xyz
 x,y,z
_cell_length_a 27.8426
_cell_length_b 27.8132
_cell_length_c 27.7485
_cell_angle_alpha 84.214700
_cell_angle_beta 97.256900
_cell_angle_gamma 76.394300
loop_
  _atom_site_label
  _atom_site_type_symbol
  _atom_site_fract_x
  _atom_site_fract_y
  _atom_site_fract_z
O1 O 0.56882 0.49573 0.04728
 O2 O 0.43157 0.51688 0.03055
 O3 O 0.50719 0.43697 0.04795
 O4 O 0.49513 0.57249 0.03015
 O5 O 0.48944 0.57237 -0.04998
 O6 O 0.50547 0.43618 -0.03179
 O7 O 0.42998 0.51082 -0.04821
 O8 O 0.56667 0.49463 -0.03245
 Cu9 Cu 0.50066 0.50534 0.04701
 Cu10 Cu 0.49781 0.50370 -0.04865
 C11 C 0.59092 0.49303 0.00996
 C12 C 0.40739 0.51593 -0.01131
 C13 C 0.50757 0.41368 0.01084
 C14 C 0.49124 0.59530 -0.01269
 O15 O -0.04920 0.57306 0.50091
 O16 O -0.03274 0.43726 0.50544
 O17 O -0.02960 0.49745 0.56917
 O18 O -0.05270 0.51080 0.43423
 O19 O 0.02822 0.50083 0.43278
 O20 O 0.05076 0.49151 0.56767
 O21 O 0.04805 0.42753 0.50348
 O22 O 0.03036 0.56354 0.49385
 Cu23 Cu -0.04936 0.50600 0.50220
 Cu24 Cu 0.04759 0.49475 0.49973
 C25 C -0.01217 0.59164 0.49626
 C26 C 0.01047 0.40930 0.50550
 C27 C 0.01439 0.49240 0.59133
 C28 C -0.01604 0.50741 0.41061
 O29 O 0.48904 0.03571 0.56242
 O30 O 0.48688 0.04725 0.42888
 O31 O 0.42152 0.04454 0.48860
 O32 O 0.55581 0.03869 0.50469
 O33 O 0.57361 -0.04325 0.50603
 O34 O 0.43940 -0.03770 0.49312
 O35 O 0.50481 -0.03495 0.43361
 O36 O 0.51084 -0.04635 0.56738
 Cu37 Cu 0.48667 0.04988 0.49556
 Cu38 Cu 0.50853 -0.04889 0.50053
 C39 C 0.50007 -0.00713 0.58783
 C40 C 0.49636 0.00782 0.40864
 C41 C 0.40773 0.00420 0.48922
 C42 C 0.58745 -0.00303 0.50720
 C43 C 0.49991 -0.00601 -0.05106
 C44 C 0.50259 -0.04488 -0.01295
 C45 C 0.50566 -0.03436 0.03564
 C46 C 0.50649 0.01329 0.04768
 C47 C 0.50316 0.05231 0.00974
 C48 C 0.50087 0.04167 -0.03879
 H49 H 0.50079 0.07111 -0.06758
 H50 H 0.50667 -0.06380 0.06483
 C51 C -0.01019 0.50042 1.04907
 C52 C -0.04650 0.49559 1.01047
 C53 C -0.03337 0.49314 0.96334
 C54 C 0.01441 0.49513 0.95319
 C55 C 0.05070 0.50074 0.99155
 C56 C 0.03774 0.50200 1.03898
 H57 H 0.06591 0.50337 1.06920
 H58 H -0.06132 0.49045 0.93344
 C59 C 0.04722 0.00581 0.50086
 C60 C 0.00786 0.04741 0.50429
 C61 C -0.03996 0.04014 0.50703
 C62 C -0.04990 -0.00707 0.50664
 C63 C -0.01048 -0.04886 0.50333
 C64 C 0.03756 -0.04152 0.50159
 H65 H 0.06848 -0.07347 0.50115
 H66 H -0.07048 0.07220 0.50835
 C67 C -0.25310 0.49137 1.02172
 C68 C -0.27295 0.45967 0.99233
 C69 C -0.32394 0.46030 0.98852
 C70 C -0.35505 0.49022 1.01566
 C71 C -0.33470 0.51919 1.04715
 C72 C -0.28446 0.52018 1.04990
 C73 C -0.19945 0.49252 1.02163
 C74 C -0.17803 0.52780 1.04352
 C75 C -0.12842 0.52863 1.04044
 C76 C -0.09843 0.49340 1.01683
 C77 C -0.11946 0.45789 0.99539
 C78 C -0.16979 0.45816 0.99630
 C79 C -0.24173 0.42726 0.96731
 C80 C -0.19099 0.42563 0.97028
 H81 H -0.25664 0.40239 0.94545
 H82 H -0.16835 0.39959 0.95054
 H83 H -0.33937 0.43710 0.96488
 H84 H -0.35816 0.54239 1.06858
 H85 H -0.11379 0.55754 1.05576
 H86 H -0.09685 0.43079 0.97657
 H87 H -0.27084 0.54353 1.07432
 H88 H -0.19948 0.55608 1.06167
 C89 C 0.25441 0.51528 0.97821
 C90 C 0.27634 0.53878 1.01486
 C91 C 0.32730 0.53815 1.01879
 C92 C 0.35589 0.51873 0.98362
 C93 C 0.33223 0.50044 0.94409
 C94 C 0.28252 0.49757 0.94205
 C95 C 0.20167 0.51157 0.97891
 C96 C 0.18036 0.47895 0.95258
 C97 C 0.13178 0.47490 0.95671
 C98 C 0.10212 0.50538 0.98487
 C99 C 0.12340 0.53828 1.01075
 C100 C 0.17338 0.53945 1.01014
 C101 C 0.24693 0.56380 1.04650
 C102 C 0.19598 0.56599 1.04267
 H103 H 0.26324 0.58299 1.07382
 H104 H 0.17455 0.58673 1.06727
 H105 H 0.34423 0.55433 1.04841
 H106 H 0.35286 0.48577 0.91594
 H107 H 0.11800 0.44707 0.93858
 H108 H 0.10158 0.56178 1.03319
 H109 H 0.26638 0.48193 0.91177
 H110 H 0.20166 0.45466 0.93058
 C111 C -0.02348 -0.25391 0.49560
 C112 C 0.01256 -0.28327 0.47186
 C113 C 0.01681 -0.33459 0.47346
 C114 C -0.01762 -0.35674 0.49419
 C115 C -0.05681 -0.32631 0.51305
 C116 C -0.05898 -0.27572 0.51492
 C117 C -0.02287 -0.20049 0.49780
 C118 C -0.04815 -0.17126 0.52991
 C119 C -0.04399 -0.12231 0.53235
 C120 C -0.01692 -0.10046 0.50085
 C121 C 0.00785 -0.12955 0.46851
 C122 C 0.00731 -0.17973 0.46872
 C123 C 0.04319 -0.26099 0.44553
 C124 C 0.03901 -0.20983 0.44222
 H125 H 0.06993 -0.28321 0.42620
 H126 H 0.06276 -0.19408 0.42054
 H127 H 0.04593 -0.35697 0.45669
 H128 H -0.08445 -0.34205 0.52857
 H129 H -0.06151 -0.10182 0.55933
 H130 H 0.02941 -0.11360 0.44428
 H131 H -0.08889 -0.25400 0.53094
 H132 H -0.06934 -0.18648 0.55482
 C133 C 0.02171 0.25259 0.50664
 C134 C -0.00562 0.27976 0.53917
 C135 C -0.00895 0.33091 0.53856
 C136 C 0.01656 0.35513 0.50761
 C137 C 0.04638 0.32767 0.47776
 C138 C 0.04865 0.27700 0.47686
 C139 C 0.02073 0.19901 0.50560
 C140 C 0.04030 0.17061 0.46995
 C141 C 0.03640 0.12142 0.46941
 C142 C 0.01431 0.09893 0.50523
 C143 C -0.00497 0.12690 0.54093
 C144 C -0.00319 0.17683 0.54058
 C145 C -0.02922 0.25574 0.57231
 C146 C -0.02697 0.20507 0.57380
 H147 H -0.04943 0.27637 0.59776
 H148 H -0.04558 0.18811 0.60034
 H149 H -0.03109 0.35195 0.56254
 H150 H 0.06669 0.34585 0.45394
 H151 H 0.05012 0.10111 0.44057
 H152 H -0.02266 0.10997 0.56840
 H153 H 0.07165 0.25760 0.45282
 H154 H 0.05726 0.18622 0.44134
 C155 C 0.49796 -0.01714 -0.25915
 C156 C 0.47246 0.02712 -0.29069
 C157 C 0.47510 0.03061 -0.34093
 C158 C 0.49946 -0.01084 -0.36147
 C159 C 0.52154 -0.05598 -0.33050
 C160 C 0.52163 -0.05889 -0.27987
 C161 C 0.49759 -0.01768 -0.20517
 C162 C 0.52918 -0.05565 -0.16980
 C163 C 0.52955 -0.05264 -0.11972
 C164 C 0.49701 -0.01280 -0.10381
 C165 C 0.46456 0.02433 -0.13899
 C166 C 0.46624 0.02337 -0.18905
 C167 C 0.44331 0.06718 -0.27219
 C168 C 0.43888 0.06462 -0.22265
 H169 H 0.42285 0.10069 -0.29651
 H170 H 0.41533 0.09634 -0.21017
 H171 H 0.45616 0.06526 -0.36435
 H172 H 0.53996 -0.08890 -0.34517
 H173 H 0.55633 -0.08077 -0.09350
 H174 H 0.43951 0.05552 -0.12719
 H175 H 0.53958 -0.09422 -0.25761
 H176 H 0.55540 -0.08663 -0.18016
 C177 C 0.50993 0.01523 0.25581
 C178 C 0.47406 0.05274 0.27196
 C179 C 0.47031 0.05114 0.32218
 C180 C 0.49997 0.01097 0.35600
 C181 C 0.53405 -0.02698 0.33951
 C182 C 0.53932 -0.02482 0.29022
 C183 C 0.51318 0.01811 0.20230
 C184 C 0.55077 -0.01467 0.18361
 C185 C 0.54955 -0.01393 0.13330
 C186 C 0.51106 0.01948 0.10032
 C187 C 0.47537 0.05482 0.11839
 C188 C 0.47668 0.05480 0.16926
 C189 C 0.44110 0.09032 0.23769
 C190 C 0.44156 0.09059 0.18734
 H191 H 0.41336 0.11892 0.24986
 H192 H 0.41411 0.11931 0.16220
 H193 H 0.44325 0.08012 0.33473
 H194 H 0.55729 -0.05831 0.36505
 H195 H 0.57807 -0.04070 0.11994
 H196 H 0.44576 0.08105 0.09300
 H197 H 0.56580 -0.05547 0.27976
 H198 H 0.58112 -0.04150 0.20713
 C199 C 0.49559 -0.25046 -0.02581
 C200 C 0.52878 -0.28659 0.01058
 C201 C 0.52601 -0.33639 0.01472
 C202 C 0.49210 -0.35174 -0.01817
 C203 C 0.46102 -0.31684 -0.05598
 C204 C 0.46224 -0.26650 -0.05951
 C205 C 0.49778 -0.19693 -0.02656
 C206 C 0.46277 -0.15692 -0.05700
 C207 C 0.46484 -0.10745 -0.05381
 C208 C 0.50249 -0.09690 -0.02108
 C209 C 0.53829 -0.13656 0.00808
 C210 C 0.53548 -0.18597 0.00661
 C211 C 0.56498 -0.27309 0.04241
 C212 C 0.56890 -0.22402 0.03980
 H213 H 0.59087 -0.30098 0.06969
 H214 H 0.59759 -0.21547 0.06528
 H215 H 0.55116 -0.36371 0.04310
 H216 H 0.43514 -0.32835 -0.08218
 H217 H 0.43622 -0.07735 -0.07598
 H218 H 0.56742 -0.12864 0.03356
 H219 H 0.43723 -0.24087 -0.08889
 H220 H 0.43260 -0.16300 -0.08215
 C221 C 0.50538 0.25891 0.02357
 C222 C 0.47271 0.29456 -0.01358
 C223 C 0.47475 0.34459 -0.01757
 C224 C 0.50731 0.36058 0.01620
 C225 C 0.53773 0.32614 0.05474
 C226 C 0.53730 0.27561 0.05815
 C227 C 0.50423 0.20513 0.02414
 C228 C 0.53916 0.16559 0.05523
 C229 C 0.53829 0.11588 0.05180
 C230 C 0.50186 0.10455 0.01818
 C231 C 0.46608 0.14375 -0.01163
 C232 C 0.46780 0.19343 -0.00995
 C233 C 0.43778 0.28036 -0.04630
 C234 C 0.43468 0.23103 -0.04386
 H235 H 0.41224 0.30788 -0.07417
 H236 H 0.40696 0.22193 -0.07005
 H237 H 0.45008 0.37156 -0.04655
 H238 H 0.56255 0.33816 0.08160
 H239 H 0.56706 0.08624 0.07438
 H240 H 0.43790 0.13527 -0.03783
 H241 H 0.56179 0.25035 0.08813
 H242 H 0.56849 0.17225 0.08105
 C243 C -0.25717 -0.00647 0.51378
 C244 C -0.27954 -0.03445 0.48194
 C245 C -0.32993 -0.03458 0.48150
 C246 C -0.35919 -0.00475 0.51017
 C247 C -0.33777 0.02481 0.53989
 C248 C -0.28716 0.02361 0.54220
 C249 C -0.20303 -0.00834 0.51419
 C250 C -0.17593 0.01283 0.54878
 C251 C -0.12602 0.01172 0.54669
 C252 C -0.10192 -0.01000 0.50985
 C253 C -0.12822 -0.03224 0.47581
 C254 C -0.17804 -0.03296 0.47874
 C255 C -0.25203 -0.06050 0.44953
 C256 C -0.20275 -0.05861 0.44702
 H257 H -0.26932 -0.08145 0.42472
 H258 H -0.18345 -0.07821 0.42041
 H259 H -0.34702 -0.05630 0.45734
 H260 H -0.36019 0.04855 0.56170
 H261 H -0.10609 0.02832 0.57385
 H262 H -0.10985 -0.04908 0.44722
 H263 H -0.27257 0.04735 0.56546
 H264 H -0.19242 0.02992 0.57801
 C265 C 0.25278 0.00732 0.48633
 C266 C 0.27536 0.03687 0.51608
 C267 C 0.32551 0.03719 0.51506
 C268 C 0.35441 0.00604 0.48712
 C269 C 0.33279 -0.02492 0.45943
 C270 C 0.28234 -0.02394 0.45848
 C271 C 0.19896 0.00878 0.48764
 C272 C 0.17156 -0.01418 0.45509
 C273 C 0.12208 -0.01358 0.45896
 C274 C 0.09873 0.00936 0.49564
 C275 C 0.12527 0.03355 0.52748
 C276 C 0.17462 0.03473 0.52270
 C277 C 0.24840 0.06423 0.54804
 C278 C 0.19952 0.06205 0.55227
 H279 H 0.26588 0.08641 0.57125
 H280 H 0.18070 0.08268 0.57854
 H281 H 0.34278 0.06002 0.53770
 H282 H 0.35493 -0.04970 0.43824
 H283 H 0.10193 -0.03158 0.43334
 H284 H 0.10758 0.05132 0.55598
 H285 H 0.26760 -0.04882 0.43683
 H286 H 0.18747 -0.03234 0.42613
 C287 C -0.03009 0.50925 1.25453
 C288 C -0.00571 0.54192 1.27798
 C289 C -0.00199 0.54151 1.32891
 C290 C -0.02423 0.51065 1.35684
 C291 C -0.05149 0.48094 1.33338
 C292 C -0.05410 0.47983 1.28278
 C293 C -0.02874 0.50735 1.20079
 C294 C -0.04499 0.47120 1.17530
 C295 C -0.03985 0.46919 1.12591
 C296 C -0.01974 0.50401 1.10041
 C297 C -0.00456 0.54071 1.12532
 C298 C -0.00747 0.54173 1.17526
 C299 C 0.01493 0.57470 1.25055
 C300 C 0.01299 0.57543 1.20010
 H301 H 0.03279 0.60032 1.26837
 H302 H 0.02949 0.60157 1.18052
 H303 H 0.01831 0.56522 1.34701
 H304 H -0.06915 0.45710 1.35454
 H305 H -0.05061 0.43970 1.10791
 H306 H 0.01135 0.56759 1.10602
 H307 H -0.07478 0.45568 1.26650
 H308 H -0.06002 0.44311 1.19334
 C309 C 0.02818 0.48171 0.74803
 C310 C 0.04573 0.51849 0.72140
 C311 C 0.04419 0.51995 0.67031
 C312 C 0.02259 0.48705 0.64519
 C313 C 0.00431 0.45145 0.67143
 C314 C 0.00756 0.44828 0.72224
 C315 C 0.02919 0.48200 0.80211
 C316 C 0.01622 0.44468 0.83212
 C317 C 0.01360 0.44859 0.88137
 C318 C 0.02381 0.48966 0.90224
 C319 C 0.03940 0.52586 0.87341
 C320 C 0.04299 0.52178 0.82369
 C321 C 0.06218 0.55498 0.74554
 C322 C 0.05979 0.55725 0.79533
 H323 H 0.07538 0.58337 0.72524
 H324 H 0.07125 0.58726 0.81186
 H325 H 0.05708 0.54842 0.64973
 H326 H -0.01305 0.42624 0.65237
 H327 H 0.00248 0.41975 0.90327
 H328 H 0.04774 0.55751 0.88942
 H329 H -0.00794 0.42061 0.74028
 H330 H 0.00769 0.41229 0.81827
   
