data_POSCAR
  _audit_creation_date              2014-09-24
  _audit_creation_method            'ToBaCCo'
  _symmetry_space_group_name_H-M    'P1'
  _symmetry_Int_Tables_number       1
  _symmetry_cell_setting            triclinic
  loop_
  _symmetry_equiv_pos_as_xyz
 x,y,z
_cell_length_a 13.7911
_cell_length_b 13.5830
_cell_length_c 15.3923
_cell_angle_alpha 89.887100
_cell_angle_beta 90.480000
_cell_angle_gamma 90.038000
loop_
  _atom_site_label
  _atom_site_type_symbol
  _atom_site_fract_x
  _atom_site_fract_y
  _atom_site_fract_z
O1 O 0.20156 0.11074 0.06155
 O2 O -0.18513 -0.12568 0.03719
 O3 O -0.09346 0.16958 0.09086
 O4 O 0.10481 -0.18868 0.07532
 O5 O -0.16509 0.03052 0.11416
 O6 O 0.16707 -0.05462 0.12417
 O7 O -0.05716 -0.17434 0.09708
 O8 O 0.07290 0.15433 0.12040
 C9 C 0.16180 0.15486 0.12171
 C10 C -0.14557 -0.17160 0.09697
 C11 C -0.14550 0.11539 0.13928
 C12 C 0.14519 -0.14271 0.13624
 O13 O 0.19775 -0.12628 -0.03372
 O14 O -0.18069 0.12304 -0.03562
 O15 O 0.11680 0.17671 -0.05823
 O16 O -0.09283 -0.17516 -0.08093
 O17 O -0.15692 -0.03556 -0.11369
 O18 O 0.17984 0.03841 -0.09647
 O19 O 0.07165 -0.15886 -0.10365
 O20 O -0.04987 0.17294 -0.08787
 Co21 Co 0.16743 -0.00756 0.01346
 Co22 Co -0.15312 -0.00222 0.00077
 Co23 Co 0.01137 0.15339 0.01553
 Co24 Co 0.00688 -0.15941 -0.00250
 O25 O 0.00784 -0.00375 0.00670
 C26 C 0.16023 -0.16027 -0.10010
 C27 C -0.13877 0.17271 -0.09134
 C28 C 0.16435 0.12677 -0.11308
 C29 C -0.13787 -0.12207 -0.13439
 O30 O 0.46581 0.34619 0.39961
 O31 O 0.60290 0.68731 0.42388
 O32 O 0.30894 0.58235 0.46495
 O33 O 0.64202 0.38144 0.41104
 O34 O 0.42304 0.66968 0.40289
 O35 O 0.59480 0.24882 0.47639
 O36 O 0.64960 0.54722 0.37805
 O37 O 0.33045 0.40360 0.45008
 C38 C 0.37653 0.35979 0.39071
 C39 C 0.64412 0.63673 0.36850
 C40 C 0.33618 0.64412 0.40783
 C41 C 0.65512 0.29025 0.42267
 O42 O 0.56472 0.34717 0.61877
 O43 O 0.40044 0.69456 0.56545
 O44 O 0.38893 0.40020 0.62405
 O45 O 0.70094 0.59810 0.54446
 O46 O 0.57983 0.68913 0.58976
 O47 O 0.41388 0.27751 0.54842
 O48 O 0.69335 0.42133 0.57969
 O49 O 0.37081 0.56417 0.63599
 Co50 Co 0.51808 0.35313 0.50819
 Co51 Co 0.50232 0.66725 0.49710
 Co52 Co 0.36103 0.48808 0.54080
 Co53 Co 0.65769 0.48808 0.48177
 O54 O 0.50584 0.50489 0.50920
 C55 C 0.65026 0.36974 0.63411
 C56 C 0.37144 0.65426 0.63199
 C57 C 0.37063 0.31257 0.61202
 C58 C 0.66793 0.66753 0.59132
 C59 C 0.17116 0.27528 0.24476
 C60 C 0.21772 0.21483 0.18460
 C61 C 0.32009 0.21725 0.18349
 C62 C 0.37272 0.26903 0.24782
 C63 C 0.32403 0.31976 0.31447
 C64 C 0.22288 0.32610 0.30808
 C65 C 0.14690 0.30847 0.37485
 C66 C 0.09015 0.25303 0.30539
 H67 H 0.35961 0.17535 0.13561
 H68 H 0.45114 0.26466 0.24805
 H69 H 0.11116 0.37791 0.39527
 H70 H 0.17270 0.26053 0.42896
 H71 H 0.02225 0.29117 0.28594
 H72 H 0.08256 0.17299 0.31915
 C73 C 0.70226 0.79342 0.17662
 C74 C 0.79991 0.77532 0.16214
 C75 C 0.84616 0.70604 0.21714
 C76 C 0.79441 0.65980 0.28426
 C77 C 0.69603 0.68262 0.29810
 C78 C 0.65334 0.75086 0.24267
 C79 C 0.56371 0.80897 0.22603
 C80 C 0.61909 0.85708 0.15049
 H81 H 0.92229 0.68881 0.20944
 H82 H 0.83226 0.60952 0.32723
 H83 H 0.54903 0.86120 0.27968
 H84 H 0.50164 0.76227 0.20498
 H85 H 0.63406 0.93659 0.16071
 H86 H 0.58973 0.83750 0.08531
 C87 C 0.70596 0.24041 0.84705
 C88 C 0.80748 0.23580 0.84675
 C89 C 0.85651 0.29225 0.78405
 C90 C 0.80466 0.34041 0.71737
 C91 C 0.70251 0.33490 0.71258
 C92 C 0.65476 0.28835 0.78114
 C93 C 0.57939 0.20994 0.77786
 C94 C 0.63380 0.15868 0.85105
 H95 H 0.93502 0.29367 0.78281
 H96 H 0.84518 0.37548 0.66595
 H97 H 0.58271 0.16884 0.71569
 H98 H 0.50661 0.23727 0.79681
 H99 H 0.66465 0.08644 0.83185
 H100 H 0.59346 0.15839 0.91327
 C101 C 0.18292 0.79746 0.74547
 C102 C 0.21870 0.80000 0.83050
 C103 C 0.31489 0.76943 0.84635
 C104 C 0.36763 0.72380 0.78026
 C105 C 0.32522 0.71191 0.69786
 C106 C 0.23611 0.75585 0.67982
 C107 C 0.14786 0.71465 0.63637
 C108 C 0.08941 0.76000 0.70931
 H109 H 0.34683 0.77512 0.91067
 H110 H 0.43899 0.69419 0.79429
 H111 H 0.14630 0.63286 0.63668
 H112 H 0.13376 0.74948 0.57208
 H113 H 0.05571 0.70416 0.75220
 H114 H 0.04088 0.82053 0.68719
 C115 C 0.24795 0.11428 0.74847
 C116 C 0.20124 0.16888 0.81401
 C117 C 0.19444 0.27132 0.79875
 C118 C 0.24595 0.31620 0.73025
 C119 C 0.30278 0.26045 0.67169
 C120 C 0.29415 0.15815 0.67801
 C121 C 0.36679 0.07755 0.67197
 C122 C 0.31832 0.03093 0.75050
 H123 H 0.15587 0.31850 0.84341
 H124 H 0.24559 0.39578 0.72675
 H125 H 0.44164 0.10231 0.68488
 H126 H 0.35734 0.03372 0.61156
 H127 H 0.36481 0.03085 0.80989
 H128 H 0.28363 -0.03995 0.73429
 C129 C 0.85227 0.73621 0.76227
 C130 C 0.82577 0.83279 0.78413
 C131 C 0.76002 0.88114 0.72809
 C132 C 0.71285 0.82861 0.66081
 C133 C 0.73260 0.72764 0.64674
 C134 C 0.80881 0.68571 0.69392
 C135 C 0.81283 0.59014 0.74146
 C136 C 0.85829 0.64540 0.81709
 H137 H 0.73940 0.95672 0.74015
 H138 H 0.65663 0.86528 0.62337
 H139 H 0.86424 0.53858 0.71035
 H140 H 0.73985 0.55955 0.75579
 H141 H 0.93409 0.62238 0.83100
 H142 H 0.81057 0.64881 0.87490
 C143 C 0.21294 0.85116 0.28818
 C144 C 0.17340 0.80333 0.21602
 C145 C 0.16463 0.69939 0.22110
 C146 C 0.21037 0.64595 0.28889
 C147 C 0.26523 0.69582 0.35241
 C148 C 0.25796 0.79889 0.35436
 C149 C 0.33084 0.87865 0.36903
 C150 C 0.28135 0.93575 0.29598
 H151 H 0.12974 0.65867 0.16912
 H152 H 0.21059 0.56624 0.28674
 H153 H 0.40536 0.85578 0.35239
 H154 H 0.32289 0.91395 0.43368
 H155 H 0.32767 0.94498 0.23771
 H156 H 0.24470 1.00383 0.31856
 C157 C 0.83230 0.24800 0.23945
 C158 C 0.81733 0.15026 0.21464
 C159 C 0.76061 0.09181 0.27212
 C160 C 0.71208 0.13446 0.34421
 C161 C 0.71872 0.23651 0.36058
 C162 C 0.78446 0.28968 0.30918
 C163 C 0.77517 0.38629 0.26292
 C164 C 0.82759 0.34029 0.18697
 H165 H 0.74989 0.01415 0.25957
 H166 H 0.66469 0.08894 0.38310
 H167 H 0.81890 0.44463 0.29456
 H168 H 0.69882 0.40629 0.24724
 H169 H 0.90057 0.37252 0.17588
 H170 H 0.78129 0.33276 0.12784
   
