data_POSCAR
  _audit_creation_date              2014-09-24
  _audit_creation_method            'ToBaCCo'
  _symmetry_space_group_name_H-M    'P1'
  _symmetry_Int_Tables_number       1
  _symmetry_cell_setting            triclinic
  loop_
  _symmetry_equiv_pos_as_xyz
 x,y,z
_cell_length_a 26.5934
_cell_length_b 27.8187
_cell_length_c 26.4525
_cell_angle_alpha 90.090800
_cell_angle_beta 89.905000
_cell_angle_gamma 89.991900
loop_
  _atom_site_label
  _atom_site_type_symbol
  _atom_site_fract_x
  _atom_site_fract_y
  _atom_site_fract_z
C1 C 1.25150 0.24985 0.24913
 C2 C 0.74964 -0.25069 0.24951
 C3 C 0.74969 0.24979 -0.24939
 C4 C 1.25122 -0.25049 -0.24950
 C5 C 0.25036 0.25029 0.75086
 C6 C 0.74885 0.75016 0.75047
 C7 C 0.74879 0.25070 0.24955
 C8 C 0.25042 0.75028 0.24940
 N9 N 1.08983 0.04956 0.05531
 N10 N 1.12498 0.08158 0.06570
 N11 N 1.05480 -0.05141 0.09048
 N12 N 1.06566 -0.08294 0.12616
 N13 N 1.08972 -0.05151 0.05526
 N14 N 1.12521 -0.08310 0.06609
 N15 N 1.05490 0.04966 0.09050
 N16 N 1.06536 0.08174 0.12578
 C17 C 1.10868 0.10175 0.10926
 C18 C 1.10919 -0.10290 0.10992
 N19 N 0.91120 -0.05079 0.05526
 N20 N 0.87598 -0.08273 0.06569
 N21 N 0.94630 0.05005 0.09065
 N22 N 0.93573 0.08196 0.12615
 N23 N 0.91144 0.05020 0.05549
 N24 N 0.87629 0.08220 0.06612
 N25 N 0.94613 -0.05096 0.09034
 N26 N 0.93561 -0.08300 0.12555
 Mn27 Mn 1.00052 -0.00067 0.09093
 C28 C 0.89226 -0.10293 0.10912
 C29 C 0.89246 0.10214 0.10979
 N30 N 1.08946 -0.05131 -0.05399
 N31 N 1.12455 -0.08334 -0.06470
 N32 N 1.05486 0.04985 -0.08886
 N33 N 1.06542 0.08182 -0.12417
 N34 N 1.08984 0.04968 -0.05383
 N35 N 1.12512 0.08155 -0.06440
 N36 N 1.05454 -0.05113 -0.08909
 N37 N 1.06496 -0.08303 -0.12460
 Mn38 Mn 1.09014 -0.00090 0.00068
 C39 C 1.10821 -0.10323 -0.10832
 C40 C 1.10884 0.10172 -0.10787
 N41 N 0.91132 0.05032 -0.05369
 N42 N 0.87596 0.08205 -0.06442
 N43 N 0.94600 -0.05082 -0.08906
 N44 N 0.93527 -0.08255 -0.12462
 N45 N 0.91107 -0.05074 -0.05387
 N46 N 0.87566 -0.08242 -0.06457
 N47 N 0.94627 0.05024 -0.08887
 N48 N 0.93560 0.08191 -0.12443
 Mn49 Mn 0.91084 -0.00025 0.00082
 Mn50 Mn 1.00043 -0.00046 -0.08939
 Cl51 Cl 1.00049 -0.00058 0.00076
 C52 C 0.89214 0.10191 -0.10814
 C53 C 0.89180 -0.10240 -0.10830
 N54 N 1.05302 0.55233 0.58948
 N55 N 1.08510 0.56345 0.62573
 N56 N 0.94781 0.58567 0.55372
 N57 N 0.91585 0.62042 0.56486
 N58 N 0.94745 0.55250 0.58906
 N59 N 0.91524 0.56396 0.62520
 N60 N 1.05329 0.58545 0.55411
 N61 N 1.08555 0.61987 0.56530
 C62 C 1.10564 0.60512 0.60946
 C63 C 0.89525 0.60587 0.60894
 N64 N 0.94864 0.55247 0.40938
 N65 N 0.91645 0.56358 0.37326
 N66 N 1.05406 0.58577 0.44510
 N67 N 1.08549 0.62087 0.43366
 N68 N 1.05428 0.55265 0.40959
 N69 N 1.08589 0.56454 0.37304
 N70 N 0.94850 0.58563 0.44482
 N71 N 0.91624 0.62006 0.43383
 Mn72 Mn 1.00092 0.58591 0.49945
 C73 C 0.89601 0.60530 0.38969
 C74 C 1.10570 0.60665 0.38920
 N75 N 0.94727 0.44839 0.58907
 N76 N 0.91542 0.43675 0.62546
 N77 N 1.05305 0.41519 0.55404
 N78 N 1.08481 0.38041 0.56541
 N79 N 1.05289 0.44833 0.58950
 N80 N 1.08455 0.43684 0.62599
 N81 N 0.94751 0.41524 0.55361
 N82 N 0.91583 0.38033 0.56490
 Mn83 Mn 1.00015 0.50041 0.58970
 C84 C 0.89549 0.39475 0.60921
 C85 C 1.10475 0.39492 0.60979
 N86 N 1.05408 0.44845 0.40978
 N87 N 1.08638 0.43705 0.37372
 N88 N 0.94823 0.41538 0.44467
 N89 N 0.91601 0.38091 0.43355
 N90 N 0.94849 0.44845 0.40923
 N91 N 0.91641 0.43718 0.37299
 N92 N 1.05372 0.41532 0.44515
 N93 N 1.08576 0.38063 0.43414
 Mn94 Mn 1.00138 0.50049 0.40906
 Mn95 Mn 1.00063 0.41501 0.49935
 Cl96 Cl 1.00078 0.50046 0.49939
 C97 C 1.10641 0.39521 0.39011
 C98 C 0.89590 0.39549 0.38933
 N99 N 0.58849 0.05062 0.55377
 N100 N 0.62393 0.08228 0.56446
 N101 N 0.55378 -0.05030 0.58932
 N102 N 0.56439 -0.08201 0.62484
 N103 N 0.58873 -0.05038 0.55417
 N104 N 0.62404 -0.08215 0.56481
 N105 N 0.55355 0.05073 0.58895
 N106 N 0.56432 0.08248 0.62450
 C107 C 0.60782 0.10232 0.60816
 C108 C 0.60782 -0.10200 0.60849
 N109 N 0.41042 -0.05088 0.55400
 N110 N 0.37541 -0.08298 0.56453
 N111 N 0.44495 0.05040 0.58878
 N112 N 0.43425 0.08246 0.62405
 N113 N 0.41005 0.05007 0.55367
 N114 N 0.37468 0.08191 0.56414
 N115 N 0.44525 -0.05056 0.58918
 N116 N 0.43485 -0.08244 0.62459
 Mn117 Mn 0.49936 0.00007 0.58949
 C118 C 0.39170 -0.10276 0.60815
 C119 C 0.39083 0.10224 0.60763
 N120 N 0.58879 -0.05095 0.44518
 N121 N 0.62410 -0.08287 0.43493
 N122 N 0.55376 0.04967 0.40948
 N123 N 0.56429 0.08156 0.37406
 N124 N 0.58853 0.04998 0.44471
 N125 N 0.62359 0.08207 0.43424
 N126 N 0.55396 -0.05132 0.41001
 N127 N 0.56466 -0.08349 0.37487
 Mn128 Mn 0.58905 -0.00018 0.49944
 C129 C 0.60799 -0.10327 0.39150
 C130 C 0.60745 0.10187 0.39057
 N131 N 0.41024 0.04941 0.44462
 N132 N 0.37519 0.08149 0.43423
 N133 N 0.44527 -0.05174 0.40968
 N134 N 0.43437 -0.08338 0.37403
 N135 N 0.41031 -0.05161 0.44486
 N136 N 0.37477 -0.08316 0.43405
 N137 N 0.44520 0.04931 0.40946
 N138 N 0.43487 0.08133 0.37419
 Mn139 Mn 0.40983 -0.00076 0.49930
 Mn140 Mn 0.49956 -0.00103 0.40920
 Cl141 Cl 0.49944 -0.00048 0.49935
 C142 C 0.39160 0.10149 0.39071
 C143 C 0.39079 -0.10317 0.39027
 N144 N 0.58851 0.55098 0.05459
 N145 N 0.62344 0.58331 0.06449
 N146 N 0.55339 0.45040 0.09022
 N147 N 0.56349 0.41813 0.12533
 N148 N 0.58826 0.45009 0.05499
 N149 N 0.62300 0.41764 0.06513
 N150 N 0.55358 0.55133 0.08976
 N151 N 0.56379 0.58389 0.12458
 C152 C 0.60695 0.60391 0.10772
 C153 C 0.60652 0.39762 0.10860
 N154 N 0.41018 0.45070 0.05515
 N155 N 0.37566 0.41794 0.06494
 N156 N 0.44510 0.55178 0.09014
 N157 N 0.43453 0.58388 0.12544
 N158 N 0.41024 0.55170 0.05500
 N159 N 0.37506 0.58374 0.06546
 N160 N 0.44503 0.45076 0.09027
 N161 N 0.43521 0.41803 0.12496
 Mn162 Mn 0.49928 0.50107 0.09059
 C163 C 0.39232 0.39754 0.10810
 C164 C 0.39123 0.60396 0.10900
 N165 N 0.58851 0.44950 -0.05391
 N166 N 0.62353 0.41728 -0.06416
 N167 N 0.55390 0.55041 -0.08936
 N168 N 0.56414 0.58266 -0.12445
 N169 N 0.58876 0.55048 -0.05424
 N170 N 0.62366 0.58277 -0.06446
 N171 N 0.55366 0.44942 -0.08904
 N172 N 0.56404 0.41712 -0.12417
 Mn173 Mn 0.58897 0.50026 0.00037
 C174 C 0.60722 0.39696 -0.10758
 C175 C 0.60726 0.60292 -0.10786
 N176 N 0.41066 0.55104 -0.05398
 N177 N 0.37609 0.58364 -0.06407
 N178 N 0.44526 0.44980 -0.08883
 N179 N 0.43504 0.41731 -0.12374
 N180 N 0.41027 0.45013 -0.05371
 N181 N 0.37529 0.41786 -0.06379
 N182 N 0.44559 0.55071 -0.08916
 N183 N 0.43572 0.58309 -0.12417
 Mn184 Mn 0.40987 0.50090 0.00060
 Mn185 Mn 0.49959 0.50008 -0.08958
 Cl186 Cl 0.49942 0.50059 0.00050
 C187 C 0.39278 0.60369 -0.10743
 C188 C 0.39180 0.39730 -0.10707
 C189 C 1.21892 0.21951 0.21788
 C190 C 1.19261 0.19390 0.19235
 C191 C 1.16250 0.16301 0.16283
 C192 C 1.13749 0.13566 0.13805
 C193 C 1.22050 0.71761 0.71916
 C194 C 1.19523 0.69100 0.69373
 C195 C 1.16522 0.66006 0.66428
 C196 C 1.13870 0.63431 0.63923
 C197 C 0.71819 0.21925 0.71827
 C198 C 0.69229 0.19365 0.69220
 C199 C 0.66222 0.16293 0.66228
 C200 C 0.63701 0.13584 0.63726
 C201 C 0.71737 0.72013 0.21702
 C202 C 0.69106 0.69525 0.19084
 C203 C 0.66086 0.66496 0.16101
 C204 C 0.63575 0.63783 0.13623
 C205 C 0.78209 -0.22029 0.21820
 C206 C 0.80832 -0.19472 0.19255
 C207 C 0.83836 -0.16394 0.16286
 C208 C 0.86337 -0.13670 0.13797
 C209 C 0.78081 0.28146 0.71913
 C210 C 0.80625 0.30800 0.69365
 C211 C 0.83632 0.33908 0.66414
 C212 C 0.86271 0.36507 0.63906
 C213 C 0.28250 -0.22000 0.71818
 C214 C 0.30822 -0.19441 0.69206
 C215 C 0.33799 -0.16368 0.66212
 C216 C 0.36292 -0.13648 0.63712
 C217 C 0.28369 0.27913 0.21663
 C218 C 0.30974 0.30436 0.19055
 C219 C 0.33947 0.33526 0.16090
 C220 C 0.36410 0.36297 0.13634
 C221 C 0.78203 0.21929 -0.21789
 C222 C 0.80815 0.19363 -0.19214
 C223 C 0.83814 0.16276 -0.16231
 C224 C 0.86315 0.13556 -0.13727
 C225 C 0.78050 0.71749 0.28069
 C226 C 0.80592 0.69096 0.30598
 C227 C 0.83612 0.66011 0.33525
 C228 C 0.86279 0.63444 0.36013
 C229 C 0.28280 0.21934 0.28132
 C230 C 0.30846 0.19366 0.30732
 C231 C 0.33812 0.16275 0.33710
 C232 C 0.36293 0.13539 0.36194
 C233 C 0.28349 0.72036 -0.21704
 C234 C 0.30966 0.69542 -0.19086
 C235 C 0.33959 0.66500 -0.16096
 C236 C 0.36440 0.63775 -0.13610
 C237 C 1.21861 -0.22019 -0.21813
 C238 C 1.19226 -0.19471 -0.19240
 C239 C 1.16210 -0.16405 -0.16257
 C240 C 1.13705 -0.13691 -0.13749
 C241 C 1.22077 0.28173 0.28061
 C242 C 1.19558 0.30844 0.30607
 C243 C 1.16572 0.33965 0.33549
 C244 C 1.13934 0.36567 0.36047
 C245 C 0.71829 -0.22028 0.28196
 C246 C 0.69242 -0.19478 0.30808
 C247 C 0.66236 -0.16412 0.33793
 C248 C 0.63714 -0.13697 0.36277
 C249 C 0.71741 0.27943 -0.21696
 C250 C 0.69119 0.30473 -0.19088
 C251 C 0.66108 0.33550 -0.16110
 C252 C 0.63603 0.36289 -0.13630
 C253 C 1.21813 0.21975 -0.21760
 C254 C 1.19218 0.19400 -0.19177
 C255 C 1.16246 0.16298 -0.16186
 C256 C 1.13766 0.13560 -0.13683
 C257 C 1.22071 0.72036 0.27931
 C258 C 1.19507 0.69382 0.30480
 C259 C 1.16484 0.66265 0.33426
 C260 C 1.13842 0.63654 0.35929
 C261 C 0.71733 0.22014 0.28182
 C262 C 0.69143 0.19436 0.30765
 C263 C 0.66140 0.16329 0.33714
 C264 C 0.63631 0.13584 0.36179
 C265 C 0.71667 0.72057 -0.21715
 C266 C 0.69059 0.69528 -0.19107
 C267 C 0.66071 0.66449 -0.16128
 C268 C 0.63586 0.63705 -0.13649
 C269 C 0.78126 -0.21944 -0.21801
 C270 C 0.80749 -0.19387 -0.19226
 C271 C 0.83761 -0.16313 -0.16244
 C272 C 0.86273 -0.13599 -0.13742
 C273 C 0.77973 0.28258 0.28090
 C274 C 0.80529 0.30924 0.30607
 C275 C 0.83572 0.34035 0.33509
 C276 C 0.86255 0.36621 0.35978
 C277 C 0.28036 -0.22072 0.28008
 C278 C 0.30629 -0.19497 0.30618
 C279 C 0.33635 -0.16403 0.33610
 C280 C 0.36154 -0.13681 0.36111
 C281 C 0.28259 0.27979 -0.21673
 C282 C 0.30861 0.30502 -0.19052
 C283 C 0.33838 0.33574 -0.16055
 C284 C 0.36317 0.36316 -0.13566
 C285 C 1.21978 -0.22070 0.21948
 C286 C 1.19357 -0.19490 0.19376
 C287 C 1.16346 -0.16387 0.16404
 C288 C 1.13833 -0.13659 0.13909
 C289 C 1.21922 0.28201 0.71966
 C290 C 1.19380 0.30854 0.69428
 C291 C 1.16380 0.33954 0.66480
 C292 C 1.13746 0.36542 0.63970
 C293 C 0.71740 -0.21928 0.71831
 C294 C 0.69162 -0.19363 0.69231
 C295 C 0.66177 -0.16282 0.66246
 C296 C 0.63676 -0.13563 0.63750
 C297 C 0.71651 0.28009 0.21715
 C298 C 0.69023 0.30529 0.19124
 C299 C 0.66008 0.33602 0.16174
 C300 C 0.63508 0.36346 0.13716
 C301 C 0.78140 0.22023 0.21819
 C302 C 0.80788 0.19449 0.19276
 C303 C 0.83828 0.16347 0.16342
 C304 C 0.86351 0.13606 0.13873
 C305 C 0.77989 0.71854 0.71887
 C306 C 0.80537 0.69209 0.69329
 C307 C 0.83557 0.66118 0.66371
 C308 C 0.86217 0.63535 0.63865
 C309 C 0.28169 0.21985 0.71825
 C310 C 0.30729 0.19421 0.69189
 C311 C 0.33692 0.16334 0.66168
 C312 C 0.36182 0.13605 0.63656
 C313 C 0.28098 0.72198 0.21863
 C314 C 0.30718 0.69650 0.19251
 C315 C 0.33726 0.66553 0.16269
 C316 C 0.36231 0.63805 0.13785
   
