data_POSCAR
  _audit_creation_date              2014-09-24
  _audit_creation_method            'ToBaCCo'
  _symmetry_space_group_name_H-M    'P1'
  _symmetry_Int_Tables_number       1
  _symmetry_cell_setting            triclinic
  loop_
  _symmetry_equiv_pos_as_xyz
 x,y,z
_cell_length_a 25.2854
_cell_length_b 25.3321
_cell_length_c 25.2623
_cell_angle_alpha 60.612400
_cell_angle_beta 115.844800
_cell_angle_gamma 62.813700
loop_
  _atom_site_label
  _atom_site_type_symbol
  _atom_site_fract_x
  _atom_site_fract_y
  _atom_site_fract_z
O1 O 0.64085 0.40991 0.09694
 O2 O 0.45337 0.47648 0.06247
 O3 O 0.57224 0.35794 0.08775
 O4 O 0.53333 0.51914 0.08436
 O5 O 0.38058 0.68221 -0.10613
 O6 O 0.42197 0.52101 -0.10294
 O7 O 0.30384 0.63796 -0.12765
 O8 O 0.48824 0.57461 -0.09381
 Cu9 Cu 0.56385 0.42547 0.10183
 Cu10 Cu 0.38503 0.61900 -0.12472
 C11 C 0.59422 0.48420 0.00497
 C12 C 0.34846 0.56406 -0.03759
 C13 C 0.50267 0.41250 -0.00739
 C14 C 0.45372 0.62700 -0.01118
 O15 O -0.08780 0.64603 0.41465
 O16 O -0.07960 0.47861 0.46143
 O17 O -0.06885 0.52952 0.53186
 O18 O -0.09590 0.59373 0.34717
 O19 O 0.09066 0.43377 0.50253
 O20 O 0.11782 0.36746 0.68689
 O21 O 0.10678 0.31763 0.61506
 O22 O 0.09906 0.48440 0.57132
 Cu23 Cu -0.10115 0.57710 0.42422
 Cu24 Cu 0.12092 0.38566 0.60838
 C25 C 0.00489 0.59276 0.48748
 C26 C 0.01368 0.37163 0.54187
 C27 C 0.02855 0.44124 0.63941
 C28 C -0.00585 0.52209 0.39496
 O29 O 0.46849 0.07525 0.52573
 O30 O 0.41253 0.10056 0.34622
 O31 O 0.35216 0.10123 0.40787
 O32 O 0.51791 0.08950 0.45131
 O33 O 0.67337 -0.10294 0.60915
 O34 O 0.50592 -0.09110 0.56413
 O35 O 0.56808 -0.09187 0.50479
 O36 O 0.62204 -0.11692 0.68183
 Cu37 Cu 0.42322 0.11017 0.41805
 Cu38 Cu 0.60723 -0.11884 0.60493
 C39 C 0.55150 -0.02488 0.63336
 C40 C 0.48346 0.00694 0.39674
 C41 C 0.40066 0.00744 0.47951
 C42 C 0.62261 -0.00782 0.53425
 C43 C 0.48788 -0.00854 0.01358
 C44 C 0.51978 0.01465 -0.01078
 C45 C 0.54669 -0.00901 -0.04519
 C46 C 0.52213 0.07264 -0.01113
 C47 C 0.47765 0.00099 0.06328
 C48 C 0.46664 -0.04924 -0.00241
 C49 C 0.61735 -0.11538 0.01505
 C50 C 0.63086 -0.13014 -0.02680
 C51 C 0.57664 -0.03987 -0.12817
 C52 C 0.51367 0.06246 -0.18225
 C53 C 0.49945 0.07740 -0.14110
 C54 C 0.61823 0.02515 0.05051
 C55 C 0.62238 0.07689 0.05379
 C56 C 0.52955 0.17827 -0.00576
 C57 C 0.43261 0.22662 -0.06947
 C58 C 0.42869 0.17505 -0.07262
 C59 C 0.38137 0.06148 0.01635
 C60 C 0.37255 0.06886 0.06412
 C61 C 0.45964 0.01678 0.15924
 C62 C 0.55566 -0.04347 0.20541
 C63 C 0.56525 -0.05261 0.15926
 C64 C 0.40214 0.00326 -0.10304
 C65 C 0.39138 -0.04263 -0.11154
 C66 C 0.44501 -0.14241 -0.01936
 C67 C 0.49841 -0.18612 0.07512
 C68 C 0.50939 -0.14051 0.08363
 H69 H 0.65915 -0.18573 0.09243
 H70 H 0.68181 -0.21150 0.01999
 H71 H 0.47181 0.13317 -0.25952
 H72 H 0.44778 0.15886 -0.18723
 H73 H 0.69124 -0.05374 0.09842
 H74 H 0.69919 0.03538 0.10451
 H75 H 0.35308 0.21425 -0.12161
 H76 H 0.31274 0.10342 -0.05769
 H77 H 0.29732 0.11563 0.02546
 H78 H 0.62456 -0.08512 0.27895
 H79 H 0.64138 -0.10157 0.19859
 H80 H 0.36193 0.07825 -0.17432
 H81 H 0.34117 0.00066 -0.19050
 H82 H 0.53477 -0.25825 0.14450
 H83 H 0.55355 -0.17862 0.15917
 H84 H 0.35966 0.30446 -0.11630
 C85 C -0.01302 0.47713 0.99553
 C86 C -0.00217 0.52204 1.00412
 C87 C 0.02857 0.55339 0.97545
 C88 C -0.01149 0.53294 1.05344
 C89 C -0.06196 0.46625 1.00741
 C90 C 0.01364 0.44605 0.96490
 C91 C 0.10575 0.52458 1.04822
 C92 C 0.14432 0.54256 1.03094
 C93 C 0.10557 0.59226 0.93884
 C94 C 0.02140 0.62978 0.86012
 C95 C -0.01832 0.61270 0.87705
 C96 C 0.05368 0.43650 1.16072
 C97 C 0.04716 0.44519 1.20850
 C98 C -0.02157 0.54935 1.15244
 C99 C -0.08563 0.64569 1.04541
 C100 C -0.08100 0.63758 0.99619
 C101 C -0.16165 0.55989 0.94776
 C102 C -0.20947 0.55217 0.95582
 C103 C -0.16163 0.45191 1.02072
 C104 C -0.06056 0.35686 1.08211
 C105 C -0.01151 0.36424 1.07521
 C106 C -0.06255 0.48190 0.88122
 C107 C -0.04652 0.46601 0.84139
 C108 C 0.04665 0.41293 0.88443
 C109 C 0.12751 0.36937 0.97446
 C110 C 0.11230 0.38352 1.01588
 H111 H 0.13920 0.48496 1.12116
 H112 H 0.20832 0.51333 1.09278
 H113 H -0.01233 0.66923 0.78725
 H114 H -0.08293 0.64246 0.81522
 H115 H 0.10989 0.35428 1.20747
 H116 H 0.09741 0.36942 1.29083
 H117 H -0.13160 0.71296 0.91334
 H118 H -0.20327 0.63996 0.89394
 H119 H -0.28598 0.62628 0.90903
 H120 H -0.01832 0.27651 1.13596
 H121 H 0.06601 0.29021 1.12297
 H122 H -0.13725 0.52625 0.84312
 H123 H -0.10988 0.49960 0.77300
 H124 H 0.20144 0.32672 1.01216
 H125 H 0.17544 0.34979 1.08455
 H126 H -0.14013 0.72774 0.99832
 C127 C 0.01170 -0.01006 0.46379
 C128 C -0.01700 0.01963 0.48908
 C129 C -0.06255 0.00691 0.50552
 C130 C -0.00612 0.06752 0.50055
 C131 C 0.05329 0.00643 0.44287
 C132 C 0.01673 -0.07466 0.47127
 C133 C -0.15320 0.05269 0.42329
 C134 C -0.19733 0.04307 0.43748
 C135 C -0.15232 -0.01258 0.53427
 C136 C -0.06129 -0.05850 0.61668
 C137 C -0.01696 -0.04902 0.60245
 C138 C -0.09975 0.18861 0.40503
 C139 C -0.09353 0.23523 0.41568
 C140 C 0.00398 0.16221 0.52424
 C141 C 0.09937 0.04025 0.61972
 C142 C 0.09419 -0.00651 0.60785
 C143 C 0.15376 -0.08640 0.50269
 C144 C 0.20305 -0.07806 0.49831
 C145 C 0.15245 0.02373 0.43308
 C146 C 0.04460 0.12140 0.36171
 C147 C -0.00506 0.11316 0.36513
 C148 C 0.08090 -0.17832 0.57243
 C149 C 0.08332 -0.23748 0.57920
 C150 C 0.01893 -0.19281 0.48337
 C151 C -0.04077 -0.09185 0.38397
 C152 C -0.04181 -0.03338 0.37800
 H153 H -0.19156 0.09818 0.34655
 H154 H -0.26835 0.08083 0.37151
 H155 H -0.02387 -0.10095 0.69191
 H156 H 0.05361 -0.08619 0.66796
 H157 H -0.17687 0.24748 0.32086
 H158 H -0.16548 0.32896 0.33817
 H159 H 0.16743 -0.10027 0.68281
 H160 H 0.19697 -0.16744 0.55676
 H161 H 0.28332 -0.15305 0.54969
 H162 H -0.00265 0.20470 0.30283
 H163 H -0.08893 0.19039 0.30725
 H164 H 0.12841 -0.21306 0.64625
 H165 H 0.13679 -0.31832 0.66053
 H166 H -0.08776 -0.05752 0.31029
 H167 H -0.09020 0.04537 0.29982
 H168 H 0.17800 -0.01901 0.70331
 C169 C -0.33762 0.47061 1.01133
 C170 C -0.27979 0.46554 1.07579
 C171 C -0.21974 0.45600 1.08078
 C172 C -0.22222 0.45245 1.02075
 C173 C -0.18128 0.35093 1.07745
 C174 C -0.24176 0.36073 1.07252
 C175 C -0.40918 0.57246 0.89175
 C176 C -0.34902 0.56244 0.89685
 H177 H -0.28459 0.46789 1.11544
 H178 H -0.17296 0.44973 1.12519
 H179 H -0.11330 0.27885 1.11578
 H180 H -0.22417 0.29718 1.10720
 H181 H -0.49895 0.64482 0.80948
 H182 H -0.38790 0.62590 0.81919
 C183 C 0.28250 0.57529 0.95209
 C184 C 0.35094 0.45673 1.05056
 C185 C 0.28990 0.46547 1.04238
 C186 C 0.16509 0.59171 0.93666
 C187 C 0.17003 0.64637 0.94464
 C188 C 0.23164 0.63732 0.95317
 C189 C 0.18032 0.64383 0.84051
 C190 C 0.11875 0.65296 0.83205
 H191 H 0.43980 0.37256 1.12051
 H192 H 0.32695 0.38889 1.10508
 H193 H 0.12664 0.69065 0.94145
 H194 H 0.24096 0.67344 0.95755
 H195 H 0.15692 0.68339 0.77280
 H196 H 0.04305 0.70239 0.75584
 C197 C 0.00543 -0.34909 0.48260
 C198 C 0.07545 -0.36347 0.49002
 C199 C 0.08032 -0.31289 0.49178
 C200 C 0.01447 -0.25169 0.48546
 C201 C -0.10675 -0.16555 0.37610
 C202 C -0.11164 -0.21609 0.37423
 C203 C 0.05758 -0.39716 0.58464
 C204 C 0.06178 -0.34634 0.58615
 H205 H 0.11757 -0.40937 0.49352
 H206 H 0.12711 -0.31622 0.49737
 H207 H -0.18264 -0.07300 0.30707
 H208 H -0.19165 -0.16600 0.30321
 H209 H 0.08273 -0.46092 0.64678
 H210 H 0.08714 -0.36604 0.64801
 C211 C 0.01232 0.31269 0.54205
 C212 C 0.09026 0.19454 0.65686
 C213 C 0.08757 0.14394 0.65247
 C214 C 0.00791 0.21566 0.53381
 C215 C -0.10758 0.33583 0.44816
 C216 C -0.10548 0.38668 0.45170
 C217 C 0.04946 0.28665 0.51309
 C218 C 0.04678 0.23662 0.50842
 H219 H 0.13956 0.15632 0.73319
 H220 H 0.13241 0.06431 0.72431
 H221 H -0.18329 0.37468 0.39457
 H222 H -0.17983 0.46891 0.39956
 H223 H 0.07869 0.30316 0.50053
 H224 H 0.07268 0.21156 0.49085
 C225 C 0.56170 -0.03297 -0.30176
 C226 C 0.61090 -0.01725 -0.26586
 C227 C 0.61888 -0.02337 -0.20553
 C228 C 0.57616 -0.04382 -0.18673
 C229 C 0.45494 0.05394 -0.30906
 C230 C 0.44732 0.05963 -0.36882
 C231 C 0.63729 -0.15001 -0.18776
 C232 C 0.64531 -0.15606 -0.12756
 H233 H 0.63968 -0.00527 -0.28372
 H234 H 0.65484 -0.01689 -0.17179
 H235 H 0.38118 0.11269 -0.34497
 H236 H 0.36710 0.12318 -0.45533
 H237 H 0.68039 -0.22218 -0.15673
 H238 H 0.69711 -0.23467 -0.04578
 C239 C 0.47228 0.01182 0.33036
 C240 C 0.56906 -0.10924 0.40564
 C241 C 0.56073 -0.10494 0.34646
 C242 C 0.45726 0.01956 0.21702
 C243 C 0.35490 0.08160 0.17130
 C244 C 0.36334 0.07712 0.23109
 C245 C 0.47335 0.07302 0.27350
 C246 C 0.46504 0.07752 0.21408
 H247 H 0.63778 -0.19188 0.49746
 H248 H 0.62196 -0.18360 0.38804
 H249 H 0.28152 0.12603 0.09877
 H250 H 0.29825 0.11681 0.20934
 H251 H 0.47878 0.11096 0.27835
 H252 H 0.46268 0.12001 0.16765
 C253 C 0.45107 -0.31171 -0.01263
 C254 C 0.42293 -0.23291 -0.09986
 C255 C 0.42063 -0.17656 -0.10339
 C256 C 0.44684 -0.20364 -0.01888
 C257 C 0.36235 -0.17606 -0.04744
 C258 C 0.36398 -0.23183 -0.04498
 C259 C 0.56469 -0.39440 0.10333
 C260 C 0.56291 -0.33826 0.09987
 H261 H 0.41137 -0.22645 -0.15062
 H262 H 0.41006 -0.12555 -0.15520
 H263 H 0.30711 -0.11875 -0.06621
 H264 H 0.30962 -0.22145 -0.06259
 H265 H 0.64072 -0.48892 0.18095
 H266 H 0.63831 -0.38574 0.17437
 C267 C 0.51250 0.34907 -0.00694
 C268 C 0.62436 0.24631 0.06155
 C269 C 0.63352 0.18753 0.06383
 C270 C 0.52924 0.23702 -0.00281
 C271 C 0.51524 0.23674 0.05078
 C272 C 0.50598 0.29551 0.04809
 C273 C 0.41924 0.42568 -0.12769
 C274 C 0.42834 0.36712 -0.12533
 H275 H 0.68995 0.22296 0.10307
 H276 H 0.70742 0.11513 0.10715
 H277 H 0.51385 0.19279 0.08883
 H278 H 0.49622 0.30205 0.08330
 H279 H 0.35225 0.51777 -0.20839
 H280 H 0.36932 0.40954 -0.20388
 C281 C -0.31515 -0.01011 0.53821
 C282 C -0.38828 0.11125 0.43766
 C283 C -0.33203 0.10790 0.44004
 C284 C -0.20739 -0.01606 0.54218
 C285 C -0.15531 -0.08211 0.65092
 C286 C -0.21201 -0.07864 0.64831
 C287 C -0.26821 -0.06730 0.53182
 C288 C -0.21162 -0.07102 0.53455
 H289 H -0.47660 0.19323 0.37044
 H290 H -0.37258 0.18679 0.37514
 H291 H -0.07957 -0.13025 0.72541
 H292 H -0.18455 -0.12258 0.71915
 H293 H -0.27735 -0.10342 0.52717
 H294 H -0.17197 -0.11102 0.53298
 C295 C 0.33339 0.01325 0.46618
 C296 C 0.40080 -0.08939 0.58194
 C297 C 0.33952 -0.08356 0.56974
 C298 C 0.21602 0.02402 0.44275
 C299 C 0.16775 0.12851 0.38786
 C300 C 0.22911 0.12252 0.40023
 C301 C 0.28700 0.01440 0.40060
 C302 C 0.22576 0.01998 0.38838
 H303 H 0.48810 -0.15880 0.66625
 H304 H 0.37476 -0.14783 0.64385
 H305 H 0.09842 0.19634 0.35173
 H306 H 0.21013 0.18506 0.37385
 H307 H 0.30038 0.01200 0.36589
 H308 H 0.18655 0.02262 0.34291
 C309 C -0.01247 0.53531 1.32651
 C310 C 0.10364 0.44122 1.39656
 C311 C 0.09805 0.45025 1.33623
 C312 C -0.02269 0.55149 1.21108
 C313 C -0.07003 0.53386 1.22194
 C314 C -0.06480 0.52556 1.28187
 C315 C -0.08417 0.65199 1.21796
 C316 C -0.08994 0.66105 1.15702
 H317 H 0.18368 0.37455 1.48528
 H318 H 0.17310 0.39153 1.37379
 H319 H -0.10780 0.53166 1.18258
 H320 H -0.09864 0.51692 1.29297
 H321 H -0.12677 0.72143 1.19122
 H322 H -0.13761 0.73896 1.07896
 C323 C 0.03752 0.42944 0.70863
 C324 C 0.14557 0.36322 0.81141
 C325 C 0.15250 0.35462 0.87246
 C326 C 0.04988 0.41386 0.82503
 C327 C -0.05343 0.54003 0.69663
 C328 C -0.05993 0.54820 0.63618
 C329 C 0.03665 0.36560 0.76185
 C330 C 0.04354 0.35701 0.82294
 H331 H 0.21192 0.32506 0.83527
 H332 H 0.22602 0.30754 0.94809
 H333 H -0.11546 0.61692 0.65693
 H334 H -0.12743 0.63203 0.54533
 H335 H 0.03334 0.32820 0.75428
 H336 H 0.04654 0.31169 0.86786
   
