data_POSCAR
  _audit_creation_date              2014-09-24
  _audit_creation_method            'ToBaCCo'
  _symmetry_space_group_name_H-M    'P1'
  _symmetry_Int_Tables_number       1
  _symmetry_cell_setting            triclinic
  loop_
  _symmetry_equiv_pos_as_xyz
 x,y,z
_cell_length_a 40.2216
_cell_length_b 49.1002
_cell_length_c 27.1989
_cell_angle_alpha 89.513800
_cell_angle_beta 89.004900
_cell_angle_gamma 90.462600
loop_
  _atom_site_label
  _atom_site_type_symbol
  _atom_site_fract_x
  _atom_site_fract_y
  _atom_site_fract_z
C1 C 0.19136 0.24485 0.15390
 C2 C 0.19856 0.21993 0.17786
 C3 C 0.22336 0.22030 0.21428
 C4 C 0.24176 0.24412 0.22438
 C5 C 0.23472 0.26800 0.19779
 C6 C 0.20854 0.26894 0.16473
 C7 C 0.26736 0.24464 0.26384
 C8 C 0.27454 0.26909 0.28814
 C9 C 0.30008 0.27073 0.32214
 C10 C 0.31674 0.24697 0.33579
 C11 C 0.30960 0.22159 0.31385
 C12 C 0.28529 0.22113 0.27671
 H13 H 0.17254 0.24598 0.12622
 H14 H 0.22725 0.20248 0.23690
 H15 H 0.24927 0.28633 0.20297
 H16 H 0.26043 0.28729 0.28076
 H17 H 0.33503 0.24872 0.36416
 H18 H 0.28135 0.20284 0.25578
 C19 C 0.80108 0.25362 0.13754
 C20 C 0.79421 0.27864 0.15989
 C21 C 0.77301 0.27919 0.20154
 C22 C 0.75726 0.25520 0.21949
 C23 C 0.76355 0.23058 0.19471
 C24 C 0.78637 0.22944 0.15525
 C25 C 0.73521 0.25549 0.26461
 C26 C 0.73088 0.23177 0.29369
 C27 C 0.70941 0.23104 0.33515
 C28 C 0.69476 0.25565 0.35018
 C29 C 0.69874 0.27972 0.32229
 C30 C 0.71831 0.27923 0.27898
 H31 H 0.81916 0.25285 0.10761
 H32 H 0.76914 0.29838 0.21986
 H33 H 0.75096 0.21195 0.20594
 H34 H 0.74521 0.21387 0.28516
 H35 H 0.67875 0.25602 0.38243
 H36 H 0.71964 0.29731 0.25606
 C37 C 0.68922 0.74605 0.66513
 C38 C 0.69774 0.72114 0.68704
 C39 C 0.72142 0.72088 0.72449
 C40 C 0.73790 0.74501 0.73843
 C41 C 0.72996 0.76947 0.71390
 C42 C 0.70478 0.77039 0.67891
 C43 C 0.76259 0.74506 0.77916
 C44 C 0.76794 0.76883 0.80671
 C45 C 0.79210 0.77012 0.84354
 C46 C 0.80849 0.74582 0.85615
 C47 C 0.80322 0.72159 0.83010
 C48 C 0.78094 0.72166 0.79084
 H49 H 0.66941 0.74658 0.63867
 H50 H 0.72674 0.70179 0.74269
 H51 H 0.74319 0.78812 0.72189
 H52 H 0.75237 0.78630 0.80061
 H53 H 0.82658 0.74576 0.88497
 H54 H 0.77854 0.70353 0.76890
 C55 C 0.30279 0.75328 0.63921
 C56 C 0.29435 0.77871 0.65878
 C57 C 0.27129 0.77990 0.69819
 C58 C 0.25519 0.75611 0.71629
 C59 C 0.26278 0.73111 0.69368
 C60 C 0.28762 0.72931 0.65708
 C61 C 0.23159 0.75690 0.75968
 C62 C 0.22665 0.73354 0.78950
 C63 C 0.20385 0.73309 0.82935
 C64 C 0.18841 0.75771 0.84227
 C65 C 0.19305 0.78151 0.81375
 C66 C 0.21403 0.78070 0.77189
 H67 H 0.32233 0.75210 0.61142
 H68 H 0.26627 0.79943 0.71468
 H69 H 0.24974 0.71265 0.70462
 H70 H 0.24157 0.71571 0.78299
 H71 H 0.17141 0.75830 0.87339
 H72 H 0.21602 0.79856 0.74850
 O73 O 0.95230 -0.02170 -0.03149
 O74 O 1.01561 0.03070 -0.00564
 O75 O 1.01677 -0.01900 -0.04037
 O76 O 0.95138 0.02835 -0.00077
 O77 O 0.95537 0.01334 0.07555
 O78 O 1.01930 -0.03540 0.03524
 O79 O 1.02009 0.01439 0.06977
 O80 O 0.95538 -0.03678 0.04492
 Cu81 Cu 0.98379 0.00613 -0.02721
 Cu82 Cu 0.98802 -0.01260 0.06401
 C83 C 0.94307 -0.03827 0.00234
 C84 C 1.02837 0.03171 0.03675
 C85 C 1.02856 -0.03580 -0.00967
 C86 C 0.94241 0.02920 0.04416
 O87 O 0.45960 0.48245 0.44713
 O88 O 0.52365 0.53307 0.48034
 O89 O 0.52414 0.48308 0.44828
 O90 O 0.45926 0.53341 0.47411
 O91 O 0.45642 0.51968 0.55150
 O92 O 0.52028 0.46804 0.52487
 O93 O 0.52088 0.51828 0.55710
 O94 O 0.45615 0.46887 0.52457
 Cu95 Cu 0.49198 0.50945 0.45478
 Cu96 Cu 0.48821 0.49238 0.54726
 C97 C 0.44716 0.46680 0.48027
 C98 C 0.53304 0.53441 0.52468
 C99 C 0.53278 0.46654 0.48171
 C100 C 0.44696 0.53544 0.51720
 O101 O -0.01220 0.53420 0.01941
 O102 O 0.04886 0.48054 0.04549
 O103 O 0.05165 0.53049 0.01243
 O104 O -0.01517 0.48497 0.05738
 O105 O -0.02093 0.46846 -0.01718
 O106 O 0.04559 0.51497 -0.06279
 O107 O 0.04309 0.46484 -0.02965
 O108 O -0.01883 0.51753 -0.05491
 Cu109 Cu 0.01881 0.50908 0.04121
 Cu110 Cu 0.01164 0.48983 -0.04861
 C111 C -0.02564 0.53519 -0.02254
 C112 C 0.05634 0.46344 0.01230
 C113 C 0.05974 0.53093 -0.03287
 C114 C -0.02924 0.46868 0.02815
 O115 O 0.48683 1.03523 0.51749
 O116 O 0.54695 0.98178 0.54899
 O117 O 0.55085 1.03126 0.51382
 O118 O 0.48277 0.98638 0.55689
 O119 O 0.47886 0.96904 0.48266
 O120 O 0.54656 1.01488 0.43892
 O121 O 0.54306 0.96527 0.47414
 O122 O 0.48202 1.01780 0.44343
 Cu123 Cu 0.51719 1.01031 0.54179
 Cu124 Cu 0.51219 0.99006 0.45233
 C125 C 0.47443 1.03580 0.47481
 C126 C 0.55520 0.96430 0.51688
 C127 C 0.56010 1.03109 0.46899
 C128 C 0.46946 0.96973 0.52752
 C129 C 1.19484 0.16942 0.17563
 C130 C 1.17830 0.14551 0.16200
 C131 C 1.14810 0.14675 0.13757
 C132 C 1.13387 0.17219 0.12850
 C133 C 1.14986 0.19607 0.14290
 C134 C 1.18118 0.19541 0.16594
 N135 N 1.13198 0.12210 0.12268
 N136 N 1.11004 0.12237 0.08952
 C137 C 1.09214 0.09852 0.07503
 C138 C 1.07303 0.09977 0.03261
 C139 C 1.05335 0.07760 0.01906
 C140 C 1.05198 0.05390 0.04837
 C141 C 1.07167 0.05248 0.09056
 C142 C 1.09181 0.07456 0.10363
 H143 H 1.21905 0.16714 0.19170
 H144 H 1.18955 0.12595 0.16931
 H145 H 1.11000 0.17363 0.11089
 H146 H 1.13663 0.21482 0.13698
 H147 H 1.07302 0.11818 0.01040
 H148 H 1.03831 0.07940 -0.01344
 H149 H 1.07111 0.03447 0.11384
 H150 H 1.10626 0.07321 0.13675
 C151 C 0.66991 0.67608 0.70600
 C152 C 0.65292 0.65272 0.69085
 C153 C 0.64685 0.64847 0.64096
 C154 C 0.65854 0.66767 0.60606
 C155 C 0.67552 0.69100 0.62112
 C156 C 0.68109 0.69562 0.67129
 N157 N 0.62778 0.62511 0.62688
 N158 N 0.62057 0.62059 0.58227
 C159 C 0.60050 0.59781 0.56821
 C160 C 0.59225 0.59491 0.51875
 C161 C 0.57094 0.57392 0.50423
 C162 C 0.55756 0.55541 0.53914
 C163 C 0.56663 0.55796 0.58864
 C164 C 0.58786 0.57898 0.60308
 H165 H 0.67350 0.67919 0.74492
 H166 H 0.64393 0.63811 0.71812
 H167 H 0.65427 0.66483 0.56725
 H168 H 0.68426 0.70550 0.59349
 H169 H 0.60183 0.60930 0.49153
 H170 H 0.56448 0.57252 0.46584
 H171 H 0.55679 0.54405 0.61646
 H172 H 0.59391 0.58076 0.64155
 C173 C -0.18696 0.30829 0.08920
 C174 C -0.16971 0.33094 0.07023
 C175 C -0.15489 0.34960 0.10176
 C176 C -0.15824 0.34576 0.15291
 C177 C -0.17553 0.32307 0.17200
 C178 C -0.18964 0.30387 0.14028
 N179 N -0.13527 0.37139 0.08082
 N180 N -0.12089 0.38911 0.10709
 C181 C -0.09999 0.41004 0.08596
 C182 C -0.08504 0.42889 0.11705
 C183 C -0.06270 0.44840 0.09811
 C184 C -0.05483 0.44934 0.04751
 C185 C -0.07050 0.43079 0.01614
 C186 C -0.09291 0.41131 0.03517
 H187 H -0.19797 0.29405 0.06388
 H188 H -0.16735 0.33370 0.03077
 H189 H -0.14689 0.35990 0.17805
 H190 H -0.17688 0.32008 0.21148
 H191 H -0.09025 0.42810 0.15624
 H192 H -0.05109 0.46238 0.12330
 H193 H -0.06501 0.43099 -0.02298
 H194 H -0.10413 0.39693 0.01035
 C195 C 0.31549 0.80699 0.58763
 C196 C 0.33268 0.82961 0.56845
 C197 C 0.34537 0.84943 0.59975
 C198 C 0.33998 0.84672 0.65080
 C199 C 0.32274 0.82406 0.67009
 C200 C 0.31071 0.80375 0.63871
 N201 N 0.36491 0.87128 0.57887
 N202 N 0.37752 0.88998 0.60493
 C203 C 0.39835 0.91100 0.58395
 C204 C 0.41177 0.93070 0.61488
 C205 C 0.43416 0.95028 0.59630
 C206 C 0.44360 0.95046 0.54623
 C207 C 0.42936 0.93110 0.51494
 C208 C 0.40693 0.91153 0.53361
 H209 H 0.30611 0.79187 0.56251
 H210 H 0.33663 0.83148 0.52908
 H211 H 0.34967 0.86176 0.67577
 H212 H 0.31974 0.82200 0.70959
 H213 H 0.40538 0.93050 0.65373
 H214 H 0.44463 0.96490 0.62141
 H215 H 0.43608 0.93068 0.47623
 H216 H 0.39689 0.89651 0.50891
 C217 C -0.19422 0.67061 -0.15862
 C218 C -0.17760 0.64711 -0.14359
 C219 C -0.14548 0.64892 -0.12492
 C220 C -0.12954 0.67442 -0.12321
 C221 C -0.14577 0.69781 -0.13924
 C222 C -0.17860 0.69634 -0.15624
 N223 N -0.12931 0.62474 -0.10825
 N224 N -0.10519 0.62592 -0.07863
 C225 C -0.08754 0.60228 -0.06295
 C226 C -0.06613 0.60444 -0.02316
 C227 C -0.04698 0.58224 -0.00867
 C228 C -0.04845 0.55764 -0.03458
 C229 C -0.07034 0.55537 -0.07413
 C230 C -0.08996 0.57745 -0.08798
 H231 H -0.21955 0.66867 -0.17101
 H232 H -0.19009 0.62753 -0.14533
 H233 H -0.10441 0.67622 -0.10991
 H234 H -0.13244 0.71703 -0.13836
 H235 H -0.06398 0.62351 -0.00371
 H236 H -0.03015 0.58464 0.02168
 H237 H -0.07199 0.53664 -0.09472
 H238 H -0.10623 0.57538 -0.11904
 C239 C 0.31261 1.17120 0.32099
 C240 C 0.32867 1.14768 0.33730
 C241 C 0.35859 1.14957 0.36238
 C242 C 0.37302 1.17525 0.36949
 C243 C 0.35750 1.19874 0.35245
 C244 C 0.32649 1.19744 0.32859
 N245 N 0.37423 1.12529 0.37980
 N246 N 0.39623 1.12623 0.41285
 C247 C 0.41347 1.10261 0.42965
 C248 C 0.43285 1.10462 0.47170
 C249 C 0.45170 1.08254 0.48751
 C250 C 0.45194 1.05815 0.46084
 C251 C 0.43204 1.05601 0.41899
 C252 C 0.41275 1.07800 0.40369
 H253 H 0.28859 1.16847 0.30448
 H254 H 0.31728 1.12794 0.33151
 H255 H 0.39668 1.17717 0.38760
 H256 H 0.37086 1.21768 0.35700
 H257 H 0.43369 1.12353 0.49189
 H258 H 0.46694 1.08486 0.51967
 H259 H 0.43171 1.03746 0.39774
 H260 H 0.39807 1.07604 0.37091
 C261 C 1.19114 -0.16734 -0.17786
 C262 C 1.17537 -0.14369 -0.16134
 C263 C 1.14416 -0.14533 -0.13788
 C264 C 1.12806 -0.17070 -0.13341
 C265 C 1.14334 -0.19418 -0.15094
 C266 C 1.17550 -0.19298 -0.17219
 N267 N 1.12914 -0.12125 -0.11848
 N268 N 1.10815 -0.12285 -0.08299
 C269 C 1.09109 -0.09975 -0.06356
 C270 C 1.07451 -0.10243 -0.01814
 C271 C 1.05544 -0.08110 0.00045
 C272 C 1.05202 -0.05686 -0.02677
 C273 C 1.06919 -0.05399 -0.07205
 C274 C 1.08885 -0.07520 -0.09015
 H275 H 1.21595 -0.16560 -0.19373
 H276 H 1.18796 -0.12420 -0.16530
 H277 H 1.10355 -0.17235 -0.11648
 H278 H 1.12991 -0.21331 -0.14756
 H279 H 1.07595 -0.12132 0.00254
 H280 H 1.04229 -0.08401 0.03521
 H281 H 1.06697 -0.03554 -0.09380
 H282 H 1.10131 -0.07279 -0.12554
 C283 C 0.69729 0.33080 0.33158
 C284 C 0.68173 0.35449 0.34818
 C285 C 0.65084 0.35298 0.37255
 C286 C 0.63503 0.32756 0.37862
 C287 C 0.65013 0.30398 0.36110
 C288 C 0.68177 0.30516 0.33813
 N289 N 0.63554 0.37738 0.39007
 N290 N 0.61313 0.37657 0.42370
 C291 C 0.59594 0.40032 0.44011
 C292 C 0.57631 0.39860 0.48302
 C293 C 0.55696 0.42065 0.49794
 C294 C 0.55645 0.44465 0.46946
 C295 C 0.57680 0.44657 0.42697
 C296 C 0.59660 0.42466 0.41259
 H297 H 0.72174 0.33252 0.31451
 H298 H 0.69408 0.37401 0.34300
 H299 H 0.61077 0.32597 0.39637
 H300 H 0.63682 0.28484 0.36537
 H301 H 0.57551 0.37989 0.50441
 H302 H 0.54135 0.41851 0.53062
 H303 H 0.57690 0.46483 0.40435
 H304 H 0.61147 0.42638 0.37913
 C305 C 0.79775 -0.17985 -0.16153
 C306 C 0.81048 -0.15542 -0.14351
 C307 C 0.82649 -0.15477 -0.09845
 C308 C 0.82834 -0.17873 -0.07020
 C309 C 0.81578 -0.20328 -0.08813
 C310 C 0.80106 -0.20457 -0.13493
 N311 N 0.84286 -0.13014 -0.08419
 N312 N 0.85788 -0.12804 -0.04360
 C313 C 0.87639 -0.10409 -0.03121
 C314 C 0.89120 -0.10277 0.01485
 C315 C 0.91203 -0.08091 0.02640
 C316 C 0.91862 -0.06004 -0.00826
 C317 C 0.90295 -0.06103 -0.05403
 C318 C 0.88195 -0.08283 -0.06540
 H319 H 0.78762 -0.17934 -0.19809
 H320 H 0.80905 -0.13708 -0.16575
 H321 H 0.84027 -0.17867 -0.03483
 H322 H 0.81753 -0.22109 -0.06469
 H323 H 0.88722 -0.11907 0.04142
 H324 H 0.92373 -0.08079 0.06196
 H325 H 0.90744 -0.04525 -0.08146
 H326 H 0.87086 -0.08344 -0.10136
 C327 C 0.31493 0.31974 0.30750
 C328 C 0.32824 0.34448 0.32308
 C329 C 0.33779 0.34776 0.37183
 C330 C 0.33295 0.32614 0.40553
 C331 C 0.31969 0.30129 0.38995
 C332 C 0.31101 0.29770 0.34056
 N333 N 0.35423 0.37252 0.38522
 N334 N 0.36345 0.37706 0.42891
 C335 C 0.38172 0.40110 0.44145
 C336 C 0.39068 0.40486 0.49036
 C337 C 0.41103 0.42676 0.50323
 C338 C 0.42294 0.44529 0.46718
 C339 C 0.41305 0.44196 0.41825
 C340 C 0.39259 0.42006 0.40546
 H341 H 0.30890 0.31750 0.26908
 H342 H 0.33200 0.36094 0.29674
 H343 H 0.34016 0.32820 0.44348
 H344 H 0.31662 0.28479 0.41635
 H345 H 0.38253 0.39038 0.51838
 H346 H 0.41815 0.42872 0.54126
 H347 H 0.42178 0.45587 0.38965
 H348 H 0.38602 0.41756 0.36733
 C349 C 0.18300 0.70771 -0.09719
 C350 C 0.17060 0.68364 -0.07578
 C351 C 0.16967 0.65956 -0.10269
 C352 C 0.18321 0.65933 -0.15052
 C353 C 0.19607 0.68324 -0.17189
 C354 C 0.19517 0.70822 -0.14628
 N355 N 0.15280 0.63628 -0.08191
 N356 N 0.14634 0.61519 -0.10704
 C357 C 0.12766 0.59268 -0.08675
 C358 C 0.11692 0.57202 -0.11803
 C359 C 0.09559 0.55136 -0.10039
 C360 C 0.08490 0.55098 -0.05089
 C361 C 0.09693 0.57112 -0.01912
 C362 C 0.11799 0.59183 -0.03689
 H363 H 0.18319 0.72578 -0.07473
 H364 H 0.16062 0.68397 -0.03855
 H365 H 0.18284 0.64089 -0.17205
 H366 H 0.20433 0.68226 -0.20989
 H367 H 0.12418 0.57246 -0.15656
 H368 H 0.08685 0.53611 -0.12573
 H369 H 0.08923 0.57141 0.01922
 H370 H 0.12604 0.60752 -0.01192
 C371 C 0.69022 1.20500 0.40878
 C372 C 0.67756 1.18092 0.42981
 C373 C 0.67506 1.15727 0.40191
 C374 C 0.68743 1.15741 0.35340
 C375 C 0.70051 1.18133 0.33236
 C376 C 0.70099 1.20596 0.35903
 N377 N 0.65756 1.13421 0.42240
 N378 N 0.65002 1.11355 0.39680
 C379 C 0.63051 1.09141 0.41672
 C380 C 0.61940 1.07101 0.38518
 C381 C 0.59725 1.05082 0.40234
 C382 C 0.58602 1.05067 0.45159
 C383 C 0.59835 1.07054 0.48364
 C384 C 0.62030 1.09077 0.46637
 H385 H 0.69158 1.22273 0.43199
 H386 H 0.66851 1.18095 0.46755
 H387 H 0.68585 1.13930 0.33109
 H388 H 0.70772 1.18071 0.29388
 H389 H 0.62705 1.07131 0.34681
 H390 H 0.58830 1.03576 0.37677
 H391 H 0.59027 1.07099 0.52181
 H392 H 0.62858 1.10627 0.49154
 C393 C 0.19524 0.31820 0.17632
 C394 C 0.18151 0.34260 0.16007
 C395 C 0.16946 0.34497 0.11238
 C396 C 0.17239 0.32282 0.08018
 C397 C 0.18626 0.29834 0.09636
 C398 C 0.19730 0.29560 0.14495
 N399 N 0.15254 0.36939 0.09893
 N400 N 0.13967 0.37282 0.05695
 C401 C 0.12117 0.39677 0.04528
 C402 C 0.10718 0.39918 -0.00125
 C403 C 0.08679 0.42122 -0.01246
 C404 C 0.07996 0.44126 0.02292
 C405 C 0.09477 0.43916 0.06922
 C406 C 0.11520 0.41713 0.08033
 H407 H 0.20301 0.31669 0.21417
 H408 H 0.17923 0.35948 0.18526
 H409 H 0.16331 0.32422 0.04302
 H410 H 0.18789 0.28145 0.07113
 H411 H 0.11152 0.38361 -0.02853
 H412 H 0.07580 0.42222 -0.04849
 H413 H 0.09007 0.45426 0.09724
 H414 H 0.12570 0.41573 0.11663
 C415 C 0.68932 0.81922 0.69146
 C416 C 0.67548 0.84354 0.67487
 C417 C 0.66503 0.84614 0.62633
 C418 C 0.66952 0.82431 0.59383
 C419 C 0.68343 0.79993 0.61036
 C420 C 0.69303 0.79697 0.65960
 N421 N 0.64830 0.87050 0.61199
 N422 N 0.63712 0.87403 0.56894
 C423 C 0.61887 0.89786 0.55573
 C424 C 0.60671 0.90017 0.50805
 C425 C 0.58669 0.92212 0.49500
 C426 C 0.57843 0.94219 0.52965
 C427 C 0.59142 0.94019 0.57721
 C428 C 0.61146 0.91823 0.59017
 H429 H 0.69595 0.81750 0.72978
 H430 H 0.67200 0.86016 0.70031
 H431 H 0.66169 0.82587 0.55604
 H432 H 0.68631 0.78329 0.58481
 H433 H 0.61219 0.88459 0.48122
 H434 H 0.57713 0.92305 0.45805
 H435 H 0.58558 0.95531 0.60472
 H436 H 0.62056 0.91689 0.62733
 C437 C 0.80326 0.19944 0.08471
 C438 C 0.81732 0.17538 0.06708
 C439 C 0.82563 0.15438 0.09963
 C440 C 0.81836 0.15720 0.15003
 C441 C 0.80422 0.18117 0.16769
 C442 C 0.79718 0.20280 0.13536
 N443 N 0.84349 0.13140 0.08119
 N444 N 0.85392 0.11265 0.10947
 C445 C 0.87357 0.09051 0.09165
 C446 C 0.88575 0.07154 0.12536
 C447 C 0.90748 0.05112 0.10987
 C448 C 0.91735 0.04936 0.06015
 C449 C 0.90421 0.06794 0.02611
 C450 C 0.88255 0.08837 0.04170
 H451 H 0.79778 0.21564 0.05890
 H452 H 0.82276 0.17344 0.02814
 H453 H 0.82457 0.14126 0.17597
 H454 H 0.80022 0.18326 0.20695
 H455 H 0.87905 0.07302 0.16398
 H456 H 0.91709 0.03710 0.13698
 H457 H 0.91125 0.06712 -0.01246
 H458 H 0.87346 0.10280 0.01490
 C459 C 0.30413 0.68126 0.67563
 C460 C 0.31882 0.65675 0.66192
 C461 C 0.32954 0.65271 0.61341
 C462 C 0.32431 0.67321 0.57803
 C463 C 0.30954 0.69778 0.59167
 C464 C 0.29981 0.70227 0.64085
 N465 N 0.34751 0.62845 0.60197
 N466 N 0.35911 0.62375 0.55908
 C467 C 0.37874 0.60021 0.54869
 C468 C 0.39118 0.59656 0.50091
 C469 C 0.41266 0.57508 0.49036
 C470 C 0.42214 0.55683 0.52765
 C471 C 0.40885 0.56009 0.57537
 C472 C 0.38734 0.58159 0.58584
 H473 H 0.29743 0.68418 0.71395
 H474 H 0.32287 0.64116 0.68954
 H475 H 0.33234 0.67052 0.54020
 H476 H 0.30620 0.71343 0.56394
 H477 H 0.38480 0.61079 0.47200
 H478 H 0.42240 0.57314 0.45320
 H479 H 0.41562 0.54638 0.60488
 H480 H 0.37806 0.58399 0.62314
   
